# generated using pymatgen
data_Li4Ni3BiO8
_symmetry_space_group_name_H-M   'P 1'
_cell_length_a   6.04429010
_cell_length_b   10.53646859
_cell_length_c   6.04356781
_cell_angle_alpha   89.93949378
_cell_angle_beta   119.61291180
_cell_angle_gamma   73.18773940
_symmetry_Int_Tables_number   1
_chemical_formula_structural   Li4Ni3BiO8
_chemical_formula_sum   'Li8 Ni6 Bi2 O16'
_cell_volume   315.48262014
_cell_formula_units_Z   2
loop_
 _symmetry_equiv_pos_site_id
 _symmetry_equiv_pos_as_xyz
  1  'x, y, z'
loop_
 _atom_site_type_symbol
 _atom_site_label
 _atom_site_symmetry_multiplicity
 _atom_site_fract_x
 _atom_site_fract_y
 _atom_site_fract_z
 _atom_site_occupancy
  Li  Li0  1  0.50005300  0.75037100  0.74941300  1
  Li  Li1  1  0.50011600  0.25050300  0.24925700  1
  Li  Li2  1  0.99850300  0.25100900  0.75057000  1
  Li  Li3  1  0.99982100  0.75035400  0.25001500  1
  Li  Li4  1  0.50063500  0.49973000  0.50055400  1
  Li  Li5  1  0.50122900  0.99923800  0.00152900  1
  Li  Li6  1  0.99973600  0.49967100  0.99961300  1
  Li  Li7  1  0.99930400  0.99920800  0.49953200  1
  Ni  Ni0  1  0.50052900  0.74973700  0.24996100  1
  Ni  Ni1  1  0.00014400  0.74978600  0.74964800  1
  Ni  Ni2  1  0.49980900  0.00060500  0.50002300  1
  Ni  Ni3  1  0.50037400  0.24965600  0.75001400  1
  Ni  Ni4  1  0.00016200  0.24967900  0.24981200  1
  Ni  Ni5  1  0.49966100  0.50044700  0.00012800  1
  Bi  Bi0  1  0.00045600  0.99970000  0.00009000  1
  Bi  Bi1  1  0.00042100  0.49967400  0.50003800  1
  O  O0  1  0.26949400  0.12344800  0.60710000  1
  O  O1  1  0.26962000  0.62314000  0.10731200  1
  O  O2  1  0.72916300  0.37724600  0.89330000  1
  O  O3  1  0.72940400  0.87740700  0.39297600  1
  O  O4  1  0.75248800  0.62867000  0.61893000  1
  O  O5  1  0.75237300  0.12873700  0.11892600  1
  O  O6  1  0.25362900  0.87750600  0.37393400  1
  O  O7  1  0.25352700  0.37753600  0.87401100  1
  O  O8  1  0.74860900  0.87755800  0.86884600  1
  O  O9  1  0.74848800  0.37757000  0.36887300  1
  O  O10  1  0.25143100  0.62243500  0.63106100  1
  O  O11  1  0.25114100  0.12262000  0.13082600  1
  O  O12  1  0.74660100  0.62240400  0.12609900  1
  O  O13  1  0.74664400  0.12259200  0.62623200  1
  O  O14  1  0.24821700  0.87090000  0.88067800  1
  O  O15  1  0.24821500  0.37086100  0.38069900  1
loop_
_geom_bond_atom_site_label_1
_geom_bond_atom_site_label_2
_geom_bond_distance
_geom_bond_site_symmetry_2
Li0 O14 2.153230 1_555
Li0 O4 2.157229 1_555
Li0 O6 2.159030 1_555
Li0 O8 2.160766 1_555
Li0 O10 2.167606 1_555
Li0 O12 2.167889 1_556
Li1 O15 2.153587 1_555
Li1 O5 2.156069 1_555
Li1 O7 2.157572 1_554
Li1 O9 2.158929 1_555
Li1 O11 2.168656 1_555
Li1 O13 2.168882 1_555
Li2 O7 2.182715 1_655
Li2 O9 2.183101 1_555
Li2 O11 2.184816 1_656
Li2 O13 2.185412 1_555
Li2 O2 2.302423 1_555
Li2 O0 2.318118 1_655
Li3 O6 2.182841 1_655
Li3 O8 2.183573 1_554
Li3 O10 2.186148 1_655
Li3 O12 2.187198 1_555
Li3 O1 2.308176 1_655
Li3 O3 2.311370 1_555
Li4 O9 2.144599 1_555
Li4 O10 2.147598 1_555
Li4 O4 2.190198 1_555
Li4 O15 2.191896 1_555
Li4 O2 2.220260 1_555
Li4 O1 2.225369 1_555
Li5 O8 2.144910 1_554
Li5 O11 2.149026 1_565
Li5 O14 2.189781 1_554
Li5 O5 2.192087 1_565
Li5 O3 2.211693 1_555
Li5 O0 2.233889 1_564
Li6 O7 2.143890 1_655
Li6 O12 2.147328 1_556
Li6 O4 2.189603 1_555
Li6 O15 2.190390 1_656
Li6 O2 2.221478 1_555
Li6 O1 2.226464 1_656
Li7 O6 2.144400 1_655
Li7 O13 2.148928 1_565
Li7 O14 2.188400 1_655
Li7 O5 2.191669 1_565
Li7 O3 2.213056 1_555
Li7 O0 2.234394 1_665
Ni0 O1 2.088216 1_555
Ni0 O3 2.089886 1_555
Ni0 O4 2.105464 1_555
Ni0 O14 2.107247 1_554
Ni0 O12 2.126175 1_555
Ni0 O6 2.132073 1_555
Ni1 O1 2.088807 1_556
Ni1 O3 2.089838 1_455
Ni1 O4 2.105187 1_455
Ni1 O14 2.106984 1_555
Ni1 O10 2.126010 1_555
Ni1 O8 2.131494 1_455
Ni2 O3 1.968841 1_545
Ni2 O0 1.970214 1_555
Ni2 O13 2.108655 1_555
Ni2 O11 2.110035 1_555
Ni2 O8 2.112853 1_545
Ni2 O6 2.115417 1_545
Ni3 O0 2.084825 1_555
Ni3 O2 2.088991 1_555
Ni3 O5 2.104612 1_556
Ni3 O15 2.107535 1_555
Ni3 O13 2.125451 1_555
Ni3 O7 2.132455 1_555
Ni4 O0 2.085460 1_555
Ni4 O2 2.089117 1_454
Ni4 O5 2.104287 1_455
Ni4 O15 2.107459 1_555
Ni4 O11 2.125071 1_555
Ni4 O9 2.132042 1_455
Ni5 O2 1.967579 1_554
Ni5 O1 1.968812 1_555
Ni5 O12 2.108828 1_555
Ni5 O10 2.109333 1_554
Ni5 O9 2.111796 1_555
Ni5 O7 2.113606 1_554
Bi0 O14 2.121238 1_554
Bi0 O5 2.121269 1_465
Bi0 O6 2.131031 1_555
Bi0 O8 2.131835 1_454
Bi0 O11 2.133485 1_565
Bi0 O13 2.134083 1_464
Bi1 O4 2.120689 1_455
Bi1 O15 2.121131 1_555
Bi1 O7 2.131339 1_555
Bi1 O9 2.131868 1_455
Bi1 O10 2.133539 1_555
Bi1 O12 2.133750 1_455
