# generated using pymatgen
data_Li4V3P8O29
_symmetry_space_group_name_H-M   'P 1'
_cell_length_a   9.74315413
_cell_length_b   9.74315413
_cell_length_c   14.21503700
_cell_angle_alpha   89.94735393
_cell_angle_beta   89.94735393
_cell_angle_gamma   60.01237150
_symmetry_Int_Tables_number   1
_chemical_formula_structural   Li4V3P8O29
_chemical_formula_sum   'Li8 V6 P16 O58'
_cell_volume   1168.77699530
_cell_formula_units_Z   2
loop_
 _symmetry_equiv_pos_site_id
 _symmetry_equiv_pos_as_xyz
  1  'x, y, z'
loop_
 _atom_site_type_symbol
 _atom_site_label
 _atom_site_symmetry_multiplicity
 _atom_site_fract_x
 _atom_site_fract_y
 _atom_site_fract_z
 _atom_site_occupancy
  Li  Li0  1  0.89680300  0.34084900  0.44453800  1
  Li  Li1  1  0.34084900  0.89680300  0.94453800  1
  Li  Li2  1  0.90968700  0.76825000  0.94098600  1
  Li  Li3  1  0.76825000  0.90968700  0.44098600  1
  Li  Li4  1  0.67094600  0.09665100  0.05715400  1
  Li  Li5  1  0.09665100  0.67094600  0.55715400  1
  Li  Li6  1  0.01490000  0.04013200  0.00876800  1
  Li  Li7  1  0.04013200  0.01490000  0.50876800  1
  V  V0  1  0.43142500  0.00130500  0.74225100  1
  V  V1  1  0.56106800  0.00083000  0.25641200  1
  V  V2  1  0.00130500  0.43142500  0.24225100  1
  V  V3  1  0.00083000  0.56106800  0.75641200  1
  V  V4  1  0.56467000  0.43495800  0.75125800  1
  V  V5  1  0.43495800  0.56467000  0.25125800  1
  P  P0  1  0.77668100  0.30288100  0.15833100  1
  P  P1  1  0.91069500  0.31359100  0.65803800  1
  P  P2  1  0.30288100  0.77668100  0.65833100  1
  P  P3  1  0.65890000  0.67328200  0.86744300  1
  P  P4  1  0.67328200  0.65890000  0.36744300  1
  P  P5  1  0.31359100  0.91069500  0.15803800  1
  P  P6  1  0.21607100  0.08611500  0.33854000  1
  P  P7  1  0.90857400  0.77832100  0.15826500  1
  P  P8  1  0.08611500  0.21607100  0.83854000  1
  P  P9  1  0.77832100  0.90857400  0.65826500  1
  P  P10  1  0.68377400  0.08877100  0.83753200  1
  P  P11  1  0.33378000  0.33748600  0.63271500  1
  P  P12  1  0.33748600  0.33378000  0.13271500  1
  P  P13  1  0.69475500  0.22329500  0.34386200  1
  P  P14  1  0.08877100  0.68377400  0.33753200  1
  P  P15  1  0.22329500  0.69475500  0.84386200  1
  O  O0  1  0.79424200  0.21623500  0.42514800  1
  O  O1  1  0.73895000  0.34280000  0.67161400  1
  O  O2  1  0.00474700  0.19928900  0.92205200  1
  O  O3  1  0.91485200  0.34003900  0.16385200  1
  O  O4  1  0.61722100  0.45873600  0.16907700  1
  O  O5  1  0.66352500  0.52518500  0.82013800  1
  O  O6  1  0.45873600  0.61722100  0.66907700  1
  O  O7  1  0.21623500  0.79424200  0.92514800  1
  O  O8  1  0.34280000  0.73895000  0.17161400  1
  O  O9  1  0.81955600  0.50993700  0.32067800  1
  O  O10  1  0.91015400  0.46909100  0.67280100  1
  O  O11  1  0.52518500  0.66352500  0.32013800  1
  O  O12  1  0.63858900  0.68495800  0.97152700  1
  O  O13  1  0.68495800  0.63858900  0.47152700  1
  O  O14  1  0.50993700  0.81955600  0.82067800  1
  O  O15  1  0.90774100  0.62023400  0.17288900  1
  O  O16  1  0.81070300  0.67751000  0.83493300  1
  O  O17  1  0.34003900  0.91485200  0.66385200  1
  O  O18  1  0.19602400  0.01029900  0.24238700  1
  O  O19  1  0.19928900  0.00474700  0.42205200  1
  O  O20  1  0.23158700  0.97882300  0.06675200  1
  O  O21  1  0.46909100  0.91015400  0.17280100  1
  O  O22  1  0.67751000  0.81070300  0.33493300  1
  O  O23  1  0.26209200  0.07921700  0.83422600  1
  O  O24  1  0.62023400  0.90774100  0.67288900  1
  O  O25  1  0.92059800  0.73776000  0.66748800  1
  O  O26  1  0.01029900  0.19602400  0.74238700  1
  O  O27  1  0.97882300  0.23158700  0.56675200  1
  O  O28  1  0.00346900  0.76674100  0.42635700  1
  O  O29  1  0.07921700  0.26209200  0.33422600  1
  O  O30  1  0.37701400  0.08359800  0.32884700  1
  O  O31  1  0.73776000  0.92059800  0.16748800  1
  O  O32  1  0.33331400  0.18541300  0.67464600  1
  O  O33  1  0.52753900  0.08810400  0.82160500  1
  O  O34  1  0.76674100  0.00346900  0.92635700  1
  O  O35  1  0.78540500  0.98031700  0.56738900  1
  O  O36  1  0.79416000  0.00218500  0.74723500  1
  O  O37  1  0.66162900  0.08309900  0.34412100  1
  O  O38  1  0.18541300  0.33331400  0.17464600  1
  O  O39  1  0.08359800  0.37701400  0.82884700  1
  O  O40  1  0.48678800  0.18652800  0.17305300  1
  O  O41  1  0.33630500  0.34072900  0.02845600  1
  O  O42  1  0.34072900  0.33630500  0.52845600  1
  O  O43  1  0.48080400  0.33204300  0.68288500  1
  O  O44  1  0.08810400  0.52753900  0.32160500  1
  O  O45  1  0.18652800  0.48678800  0.67305300  1
  O  O46  1  0.65514500  0.25945300  0.83595300  1
  O  O47  1  0.79740500  0.19761400  0.24949300  1
  O  O48  1  0.79541900  0.20181100  0.07469800  1
  O  O49  1  0.53783700  0.38168600  0.32916700  1
  O  O50  1  0.33204300  0.48080400  0.18288500  1
  O  O51  1  0.38168600  0.53783700  0.82916700  1
  O  O52  1  0.08309900  0.66162900  0.84412100  1
  O  O53  1  0.98031700  0.78540500  0.06738900  1
  O  O54  1  0.00218500  0.79416000  0.24723500  1
  O  O55  1  0.25945300  0.65514500  0.33595300  1
  O  O56  1  0.20181100  0.79541900  0.57469800  1
  O  O57  1  0.19761400  0.79740500  0.74949300  1
loop_
_geom_bond_atom_site_label_1
_geom_bond_atom_site_label_2
_geom_bond_distance
_geom_bond_site_symmetry_2
Li0 O0 1.939727 1_555
Li0 O27 1.984634 1_555
Li0 O29 2.200064 1_655
Li0 O9 2.266753 1_555
Li0 O13 2.614961 1_555
Li1 O7 1.939727 1_555
Li1 O20 1.984634 1_556
Li1 O23 2.200064 1_565
Li1 O14 2.266753 1_555
Li1 O12 2.614961 1_555
Li2 O53 1.961601 1_556
Li2 O34 2.011021 1_565
Li2 O52 2.018324 1_655
Li2 O16 2.200422 1_555
Li3 O35 1.961601 1_555
Li3 O28 2.011021 1_655
Li3 O37 2.018324 1_565
Li3 O22 2.200422 1_555
Li4 O48 1.955993 1_555
Li4 O34 2.074895 1_554
Li4 O31 2.169486 1_545
Li4 O40 2.264317 1_555
Li5 O56 1.955993 1_555
Li5 O28 2.074895 1_555
Li5 O25 2.169486 1_455
Li5 O45 2.264317 1_555
Li6 O2 1.943522 1_554
Li6 O20 2.057929 1_545
Li6 O48 2.136445 1_455
Li6 O7 2.510708 1_544
Li7 O19 1.943522 1_555
Li7 O27 2.057929 1_455
Li7 O56 2.136445 1_545
Li7 O0 2.510708 1_455
O0 P13 1.488190 1_555
O1 P1 1.562615 1_555
O1 V4 1.856216 1_555
O2 P8 1.480540 1_555
O3 P0 1.561085 1_555
O3 V2 1.870175 1_655
O4 P0 1.544240 1_555
O4 V5 1.936424 1_555
O5 P3 1.572575 1_555
O5 V4 1.873204 1_555
O6 P2 1.544240 1_555
O6 V4 1.936424 1_555
O7 P15 1.488190 1_555
O8 P5 1.562615 1_555
O8 V5 1.856216 1_555
O9 P4 1.584883 1_555
O9 V2 1.899382 1_655
O10 P1 1.527113 1_555
O10 V3 1.947182 1_655
O11 P4 1.572575 1_555
O11 V5 1.873204 1_555
O12 P3 1.489450 1_555
O13 P4 1.489450 1_555
O14 P3 1.584883 1_555
O14 V0 1.899382 1_565
O15 P7 1.558077 1_555
O15 V2 1.873302 1_655
O16 P3 1.569215 1_555
O16 V3 1.965247 1_655
O17 P2 1.561085 1_555
O17 V0 1.870175 1_565
O18 P5 1.606223 1_545
O18 P6 1.612009 1_555
O19 P6 1.480540 1_555
O20 P5 1.494322 1_555
O21 P5 1.527113 1_555
O21 V1 1.947182 1_565
O22 P4 1.569215 1_555
O22 V1 1.965247 1_565
O23 P8 1.560789 1_555
O23 V0 1.937395 1_555
O24 P9 1.558077 1_555
O24 V0 1.873302 1_565
O25 P9 1.549949 1_555
O25 V3 1.955807 1_655
O26 P1 1.606223 1_455
O26 P8 1.612009 1_555
O27 P1 1.494322 1_555
O28 P14 1.505603 1_555
O29 P6 1.560789 1_555
O29 V2 1.937395 1_555
O30 P6 1.561944 1_555
O30 V1 1.865175 1_555
O31 P7 1.549949 1_555
O31 V1 1.955807 1_565
O32 P11 1.598669 1_555
O32 V0 1.827416 1_555
O33 P10 1.542396 1_555
O33 V0 1.913094 1_555
O34 P10 1.505603 1_555
O35 P9 1.486114 1_555
O36 P9 1.611941 1_545
O36 P10 1.615070 1_555
O37 P13 1.552640 1_555
O37 V1 1.986476 1_555
O38 P12 1.598669 1_555
O38 V2 1.827416 1_555
O39 P8 1.561944 1_555
O39 V3 1.865175 1_555
O40 P12 1.554674 1_555
O40 V1 1.972334 1_555
O41 P12 1.483322 1_555
O42 P11 1.483322 1_555
O43 P11 1.577746 1_555
O43 V4 1.854736 1_555
O44 P14 1.542396 1_555
O44 V2 1.913094 1_555
O45 P11 1.554674 1_555
O45 V3 1.972334 1_555
O46 P10 1.542746 1_555
O46 V4 1.908380 1_555
O47 P0 1.600937 1_555
O47 P13 1.615669 1_555
O48 P0 1.496141 1_555
O49 P13 1.550523 1_555
O49 V5 1.903101 1_555
O50 P12 1.577746 1_555
O50 V5 1.854736 1_555
O51 P15 1.550523 1_555
O51 V4 1.903101 1_555
O52 P15 1.552640 1_555
O52 V3 1.986476 1_555
O53 P7 1.486114 1_555
O54 P7 1.611941 1_455
O54 P14 1.615070 1_555
O55 P14 1.542746 1_555
O55 V5 1.908380 1_555
O56 P2 1.496141 1_555
O57 P2 1.600937 1_555
O57 P15 1.615669 1_555
