# generated using pymatgen
data_Nd15(B3C10)2
_symmetry_space_group_name_H-M   'P 1'
_cell_length_a   8.38793198
_cell_length_b   8.44871241
_cell_length_c   9.23298821
_cell_angle_alpha   84.41093741
_cell_angle_beta   84.76298970
_cell_angle_gamma   89.45672618
_symmetry_Int_Tables_number   1
_chemical_formula_structural   Nd15(B3C10)2
_chemical_formula_sum   'Nd15 B6 C20'
_cell_volume   648.48716181
_cell_formula_units_Z   1
loop_
 _symmetry_equiv_pos_site_id
 _symmetry_equiv_pos_as_xyz
  1  'x, y, z'
loop_
 _atom_site_type_symbol
 _atom_site_label
 _atom_site_symmetry_multiplicity
 _atom_site_fract_x
 _atom_site_fract_y
 _atom_site_fract_z
 _atom_site_occupancy
  Nd  Nd0  1  0.80465500  0.40599700  0.92661700  1
  Nd  Nd1  1  0.19534500  0.59400300  0.07338300  1
  Nd  Nd2  1  0.93476600  0.13905600  0.63907800  1
  Nd  Nd3  1  0.06523400  0.86094400  0.36092200  1
  Nd  Nd4  1  0.54201800  0.34279500  0.63909200  1
  Nd  Nd5  1  0.45798200  0.65720500  0.36090800  1
  Nd  Nd6  1  0.25879400  0.27229700  0.36801900  1
  Nd  Nd7  1  0.74120600  0.72770300  0.63198100  1
  Nd  Nd8  1  0.40348600  0.19793300  0.00802800  1
  Nd  Nd9  1  0.59651400  0.80206700  0.99197200  1
  Nd  Nd10  1  0.13240600  0.53144100  0.64291100  1
  Nd  Nd11  1  0.86759400  0.46855900  0.35708900  1
  Nd  Nd12  1  0.00000000  0.00000000  0.00000000  1
  Nd  Nd13  1  0.67070100  0.06659700  0.34972400  1
  Nd  Nd14  1  0.32929900  0.93340300  0.65027600  1
  B  B0  1  0.18823200  0.22971200  0.79289700  1
  B  B1  1  0.81176800  0.77028800  0.20710300  1
  B  B2  1  0.44793100  0.60799600  0.79196600  1
  B  B3  1  0.55206900  0.39200400  0.20803400  1
  B  B4  1  0.99643200  0.20164500  0.21378700  1
  B  B5  1  0.00356800  0.79835500  0.78621300  1
  C  C0  1  0.16673200  0.56320400  0.35305200  1
  C  C1  1  0.83326800  0.43679600  0.64694800  1
  C  C2  1  0.11532300  0.29512400  0.92705900  1
  C  C3  1  0.88467700  0.70487600  0.07294100  1
  C  C4  1  0.56611100  0.35996000  0.36525400  1
  C  C5  1  0.43388900  0.64004000  0.63474600  1
  C  C6  1  0.30624100  0.89481100  0.10152900  1
  C  C7  1  0.69375900  0.10518900  0.89847100  1
  C  C8  1  0.07408200  0.28476200  0.07727600  1
  C  C9  1  0.92591800  0.71523800  0.92272400  1
  C  C10  1  0.35270700  0.94202000  0.22934100  1
  C  C11  1  0.64729300  0.05798000  0.77065900  1
  C  C12  1  0.96258500  0.16814900  0.37135900  1
  C  C13  1  0.03741500  0.83185100  0.62864100  1
  C  C14  1  0.49436200  0.51325300  0.92475800  1
  C  C15  1  0.50563800  0.48674700  0.07524200  1
  C  C16  1  0.23799700  0.23575400  0.63572200  1
  C  C17  1  0.76200300  0.76424600  0.36427800  1
  C  C18  1  0.36720800  0.96482100  0.36914700  1
  C  C19  1  0.63279200  0.03517900  0.63085300  1
loop_
_geom_bond_atom_site_label_1
_geom_bond_atom_site_label_2
_geom_bond_distance
_geom_bond_site_symmetry_2
B0 C16 1.469084 1_555
B0 C2 1.484076 1_555
B0 Nd8 2.796259 1_556
B0 Nd2 2.813844 1_455
B0 Nd12 2.949572 1_556
B1 C17 1.469084 1_555
B1 C3 1.484076 1_555
B1 Nd9 2.796259 1_554
B1 Nd3 2.813844 1_655
B1 Nd12 2.949572 1_665
B2 C5 1.465741 1_555
B2 C14 1.478425 1_555
B2 Nd4 2.831003 1_555
B2 Nd9 2.949666 1_555
B2 Nd1 3.192803 1_556
B3 C4 1.465741 1_555
B3 C15 1.478425 1_555
B3 Nd5 2.831003 1_555
B3 Nd8 2.949666 1_555
B3 Nd0 3.192803 1_554
B4 C12 1.457132 1_555
B4 C8 1.480668 1_655
B4 Nd12 2.728152 1_655
B4 Nd3 3.132756 1_645
B5 C13 1.457132 1_555
B5 C9 1.480668 1_455
B5 Nd12 2.728152 1_566
B5 Nd2 3.132756 1_465
C0 Nd1 2.559324 1_555
C0 Nd6 2.563877 1_555
C0 Nd5 2.585446 1_555
C0 Nd11 2.636626 1_455
C0 Nd10 2.652963 1_555
C0 Nd3 2.653607 1_555
C1 Nd0 2.559324 1_555
C1 Nd7 2.563877 1_555
C1 Nd4 2.585446 1_555
C1 Nd10 2.636626 1_655
C1 Nd11 2.652963 1_555
C1 Nd2 2.653607 1_555
C2 Nd12 2.684422 1_556
C2 Nd8 2.692237 1_556
C2 Nd0 2.760962 1_455
C2 Nd1 3.084525 1_556
C3 Nd12 2.684422 1_665
C3 Nd9 2.692237 1_554
C3 Nd1 2.760962 1_655
C3 Nd0 3.084525 1_554
C4 Nd4 2.508037 1_555
C4 Nd13 2.634082 1_555
C4 Nd5 2.659860 1_555
C4 Nd6 2.685986 1_555
C4 Nd11 2.690386 1_555
C5 Nd5 2.508037 1_555
C5 Nd14 2.634082 1_555
C5 Nd4 2.659860 1_555
C5 Nd7 2.685986 1_555
C5 Nd10 2.690386 1_555
C6 Nd9 2.689609 1_554
C6 Nd8 2.729415 1_565
C6 Nd1 2.758497 1_555
C6 Nd12 2.915637 1_565
C6 Nd3 2.982965 1_555
C7 Nd8 2.689609 1_556
C7 Nd9 2.729415 1_545
C7 Nd0 2.758497 1_555
C7 Nd12 2.915637 1_656
C7 Nd2 2.982965 1_555
C8 Nd12 2.669657 1_555
C8 Nd1 2.808460 1_555
C8 Nd8 2.882993 1_555
C8 Nd0 2.888577 1_454
C9 Nd12 2.669657 1_666
C9 Nd0 2.808460 1_555
C9 Nd9 2.882993 1_555
C9 Nd1 2.888577 1_656
C10 C18 1.340031 1_555
C10 C6 1.371930 1_555
C10 Nd3 2.663455 1_555
C10 Nd5 2.762592 1_555
C10 Nd8 2.833665 1_565
C11 C19 1.340031 1_555
C11 C7 1.371930 1_555
C11 Nd2 2.663455 1_555
C11 Nd4 2.762592 1_555
C11 Nd9 2.833665 1_545
C12 Nd2 2.449967 1_555
C12 Nd13 2.633007 1_555
C12 Nd6 2.640177 1_655
C12 Nd11 2.647590 1_555
C12 Nd3 2.734662 1_645
C13 Nd3 2.449967 1_555
C13 Nd14 2.633007 1_555
C13 Nd7 2.640177 1_455
C13 Nd10 2.647590 1_555
C13 Nd2 2.734662 1_465
C14 Nd9 2.739546 1_555
C14 Nd0 2.748815 1_555
C14 Nd8 2.793181 1_556
C14 Nd1 2.856722 1_556
C14 Nd4 3.118814 1_555
C15 Nd8 2.739546 1_555
C15 Nd1 2.748815 1_555
C15 Nd9 2.793181 1_554
C15 Nd0 2.856722 1_554
C15 Nd5 3.118814 1_555
C16 Nd6 2.451267 1_555
C16 Nd10 2.647515 1_555
C16 Nd14 2.654192 1_545
C16 Nd2 2.675404 1_455
C16 Nd4 2.717643 1_555
C17 Nd7 2.451267 1_555
C17 Nd11 2.647515 1_555
C17 Nd13 2.654192 1_565
C17 Nd3 2.675404 1_655
C17 Nd5 2.717643 1_555
C18 Nd14 2.574053 1_555
C18 Nd13 2.679582 1_565
C18 Nd3 2.698522 1_555
C18 Nd5 2.707494 1_555
C18 Nd6 2.743568 1_565
C19 Nd13 2.574053 1_555
C19 Nd14 2.679582 1_545
C19 Nd2 2.698522 1_555
C19 Nd4 2.707494 1_555
C19 Nd7 2.743568 1_545
