# generated using pymatgen
data_CaCoAsO5
_symmetry_space_group_name_H-M   'P 1'
_cell_length_a   5.82317900
_cell_length_b   7.62987400
_cell_length_c   8.95542200
_cell_angle_alpha   90.00000000
_cell_angle_beta   90.00000000
_cell_angle_gamma   90.00000000
_symmetry_Int_Tables_number   1
_chemical_formula_structural   CaCoAsO5
_chemical_formula_sum   'Ca4 Co4 As4 O20'
_cell_volume   397.89049246
_cell_formula_units_Z   4
loop_
 _symmetry_equiv_pos_site_id
 _symmetry_equiv_pos_as_xyz
  1  'x, y, z'
loop_
 _atom_site_type_symbol
 _atom_site_label
 _atom_site_symmetry_multiplicity
 _atom_site_fract_x
 _atom_site_fract_y
 _atom_site_fract_z
 _atom_site_occupancy
  Ca  Ca0  1  0.97511500  0.85487000  0.66785700  1
  Ca  Ca1  1  0.52488500  0.14513000  0.16785700  1
  Ca  Ca2  1  0.02488500  0.35487000  0.83214300  1
  Ca  Ca3  1  0.47511500  0.64513000  0.33214300  1
  Co  Co0  1  0.25369000  0.75315700  0.99855100  1
  Co  Co1  1  0.24631000  0.24684300  0.49855100  1
  Co  Co2  1  0.74631000  0.25315700  0.50144900  1
  Co  Co3  1  0.75369000  0.74684300  0.00144900  1
  As  As0  1  0.48367000  0.11070900  0.81252700  1
  As  As1  1  0.01633000  0.88929100  0.31252700  1
  As  As2  1  0.51633000  0.61070900  0.68747300  1
  As  As3  1  0.98367000  0.38929100  0.18747300  1
  O  O0  1  0.50887200  0.93044100  0.93256100  1
  O  O1  1  0.99112800  0.06955900  0.43256100  1
  O  O2  1  0.49112800  0.43044100  0.56743900  1
  O  O3  1  0.00887200  0.56955900  0.06743900  1
  O  O4  1  0.41602400  0.27823300  0.93035000  1
  O  O5  1  0.08397600  0.72176700  0.43035000  1
  O  O6  1  0.58397600  0.77823300  0.56965000  1
  O  O7  1  0.91602400  0.22176700  0.06965000  1
  O  O8  1  0.74247800  0.13518900  0.72026900  1
  O  O9  1  0.75752200  0.86481100  0.22026900  1
  O  O10  1  0.25752200  0.63518900  0.77973100  1
  O  O11  1  0.24247800  0.36481100  0.27973100  1
  O  O12  1  0.24728400  0.09669300  0.69608000  1
  O  O13  1  0.25271600  0.90330700  0.19608000  1
  O  O14  1  0.75271600  0.59669300  0.80392000  1
  O  O15  1  0.74728400  0.40330700  0.30392000  1
  O  O16  1  0.99742800  0.86421200  0.93018000  1
  O  O17  1  0.50257200  0.13578800  0.43018000  1
  O  O18  1  0.00257200  0.36421200  0.56982000  1
  O  O19  1  0.49742800  0.63578800  0.06982000  1
loop_
_geom_bond_atom_site_label_1
_geom_bond_atom_site_label_2
_geom_bond_distance
_geom_bond_site_symmetry_2
Ca0 O16 2.353883 1_555
Ca0 O5 2.440745 1_655
Ca0 O12 2.445418 1_665
Ca0 O6 2.510617 1_555
Ca0 O10 2.552960 1_655
Ca0 O8 2.574868 1_565
Ca0 O14 2.653731 1_555
Ca0 O1 2.670597 1_565
Ca1 O17 2.353883 1_555
Ca1 O4 2.440745 1_554
Ca1 O13 2.445418 1_545
Ca1 O7 2.510617 1_555
Ca1 O11 2.552960 1_555
Ca1 O9 2.574868 1_545
Ca1 O15 2.653731 1_555
Ca1 O0 2.670597 1_544
Ca2 O18 2.353883 1_555
Ca2 O7 2.440745 1_456
Ca2 O14 2.445418 1_455
Ca2 O4 2.510617 1_555
Ca2 O8 2.552960 1_455
Ca2 O10 2.574868 1_555
Ca2 O12 2.653731 1_555
Ca2 O3 2.670597 1_556
Ca3 O19 2.353883 1_555
Ca3 O6 2.440745 1_555
Ca3 O15 2.445418 1_555
Ca3 O5 2.510617 1_555
Ca3 O9 2.552960 1_555
Ca3 O11 2.574868 1_555
Ca3 O13 2.653731 1_555
Ca3 O2 2.670597 1_555
Co0 O19 1.795492 1_556
Co0 O16 1.822009 1_455
Co0 O3 2.091723 1_556
Co0 O0 2.094523 1_555
Co0 O13 2.107533 1_556
Co0 O10 2.156566 1_555
Co1 O18 1.795492 1_555
Co1 O17 1.822009 1_555
Co1 O2 2.091723 1_555
Co1 O1 2.094523 1_455
Co1 O12 2.107533 1_555
Co1 O11 2.156566 1_555
Co2 O17 1.795492 1_555
Co2 O18 1.822009 1_655
Co2 O1 2.091723 1_555
Co2 O2 2.094523 1_555
Co2 O15 2.107533 1_555
Co2 O8 2.156566 1_555
Co3 O16 1.795492 1_554
Co3 O19 1.822009 1_555
Co3 O0 2.091723 1_554
Co3 O3 2.094523 1_655
Co3 O14 2.107533 1_554
Co3 O9 2.156566 1_555
As0 O4 1.703609 1_555
As0 O8 1.728819 1_555
As0 O12 1.730242 1_555
As0 O0 1.751814 1_545
As1 O5 1.703609 1_555
As1 O9 1.728819 1_455
As1 O13 1.730242 1_555
As1 O1 1.751814 1_465
As2 O6 1.703609 1_555
As2 O10 1.728819 1_555
As2 O14 1.730242 1_555
As2 O2 1.751814 1_555
As3 O7 1.703609 1_555
As3 O11 1.728819 1_655
As3 O15 1.730242 1_555
As3 O3 1.751814 1_655
