# generated using pymatgen
data_Mg14VNiO16
_symmetry_space_group_name_H-M   'P 1'
_cell_length_a   8.52775808
_cell_length_b   8.53012958
_cell_length_c   4.27312421
_cell_angle_alpha   90.00000000
_cell_angle_beta   90.00000000
_cell_angle_gamma   90.00000000
_symmetry_Int_Tables_number   1
_chemical_formula_structural   Mg14VNiO16
_chemical_formula_sum   'Mg14 V1 Ni1 O16'
_cell_volume   310.83936783
_cell_formula_units_Z   1
loop_
 _symmetry_equiv_pos_site_id
 _symmetry_equiv_pos_as_xyz
  1  'x, y, z'
loop_
 _atom_site_type_symbol
 _atom_site_label
 _atom_site_symmetry_multiplicity
 _atom_site_fract_x
 _atom_site_fract_y
 _atom_site_fract_z
 _atom_site_occupancy
  Mg  Mg0  1  0.50000000  0.00000000  0.00000000  1
  Mg  Mg1  1  0.50000000  0.50000000  0.00000000  1
  Mg  Mg2  1  0.00000000  0.24767802  0.50000000  1
  Mg  Mg3  1  0.00000000  0.75232198  0.50000000  1
  Mg  Mg4  1  0.50000000  0.24982923  0.50000000  1
  Mg  Mg5  1  0.50000000  0.75017077  0.50000000  1
  Mg  Mg6  1  0.24891606  0.00000000  0.50000000  1
  Mg  Mg7  1  0.25093474  0.50000000  0.50000000  1
  Mg  Mg8  1  0.75108394  0.00000000  0.50000000  1
  Mg  Mg9  1  0.74906526  0.50000000  0.50000000  1
  Mg  Mg10  1  0.24994373  0.24882961  0.00000000  1
  Mg  Mg11  1  0.24994373  0.75117039  0.00000000  1
  Mg  Mg12  1  0.75005627  0.24882961  0.00000000  1
  Mg  Mg13  1  0.75005627  0.75117039  0.00000000  1
  V  V0  1  0.00000000  0.50000000  0.00000000  1
  Ni  Ni0  1  0.00000000  0.00000000  0.00000000  1
  O  O0  1  0.25125919  0.00000000  0.00000000  1
  O  O1  1  0.25520725  0.50000000  0.00000000  1
  O  O2  1  0.74874081  0.00000000  0.00000000  1
  O  O3  1  0.74479275  0.50000000  0.00000000  1
  O  O4  1  0.24935839  0.24994258  0.50000000  1
  O  O5  1  0.24935839  0.75005742  0.50000000  1
  O  O6  1  0.75064161  0.24994258  0.50000000  1
  O  O7  1  0.75064161  0.75005742  0.50000000  1
  O  O8  1  0.00000000  0.00000000  0.50000000  1
  O  O9  1  0.00000000  0.50000000  0.50000000  1
  O  O10  1  0.50000000  0.00000000  0.50000000  1
  O  O11  1  0.50000000  0.50000000  0.50000000  1
  O  O12  1  0.00000000  0.24530405  0.00000000  1
  O  O13  1  0.00000000  0.75469595  0.00000000  1
  O  O14  1  0.50000000  0.24911999  0.00000000  1
  O  O15  1  0.50000000  0.75088001  0.00000000  1
loop_
_geom_bond_atom_site_label_1
_geom_bond_atom_site_label_2
_geom_bond_distance
_geom_bond_site_symmetry_2
Mg0 O0 2.121201 1_555
Mg0 O2 2.121201 1_555
Mg0 O15 2.125026 1_545
Mg0 O14 2.125026 1_555
Mg0 O10 2.136562 1_555
Mg0 O10 2.136562 1_554
Mg1 O3 2.087533 1_555
Mg1 O1 2.087533 1_555
Mg1 O11 2.136562 1_554
Mg1 O11 2.136562 1_555
Mg1 O14 2.140039 1_555
Mg1 O15 2.140039 1_555
Mg2 O8 2.112726 1_555
Mg2 O6 2.126556 1_455
Mg2 O4 2.126556 1_555
Mg2 O12 2.136658 1_556
Mg2 O12 2.136658 1_555
Mg2 O9 2.152339 1_555
Mg3 O8 2.112726 1_565
Mg3 O7 2.126556 1_455
Mg3 O5 2.126556 1_555
Mg3 O13 2.136658 1_555
Mg3 O13 2.136658 1_556
Mg3 O9 2.152339 1_555
Mg4 O10 2.131076 1_555
Mg4 O11 2.133989 1_555
Mg4 O14 2.136571 1_555
Mg4 O14 2.136571 1_556
Mg4 O4 2.137411 1_555
Mg4 O6 2.137411 1_555
Mg5 O10 2.131076 1_565
Mg5 O11 2.133989 1_555
Mg5 O15 2.136571 1_556
Mg5 O15 2.136571 1_555
Mg5 O5 2.137411 1_555
Mg5 O7 2.137411 1_555
Mg6 O8 2.122696 1_555
Mg6 O4 2.132046 1_555
Mg6 O5 2.132046 1_545
Mg6 O0 2.136656 1_555
Mg6 O0 2.136656 1_556
Mg6 O10 2.141183 1_555
Mg7 O11 2.123968 1_555
Mg7 O5 2.133065 1_555
Mg7 O4 2.133065 1_555
Mg7 O1 2.136873 1_556
Mg7 O1 2.136873 1_555
Mg7 O9 2.139911 1_555
Mg8 O8 2.122696 1_655
Mg8 O6 2.132046 1_555
Mg8 O7 2.132046 1_545
Mg8 O2 2.136656 1_556
Mg8 O2 2.136656 1_555
Mg8 O10 2.141183 1_555
Mg9 O11 2.123968 1_555
Mg9 O6 2.133065 1_555
Mg9 O7 2.133065 1_555
Mg9 O3 2.136873 1_555
Mg9 O3 2.136873 1_556
Mg9 O9 2.139911 1_655
Mg10 O0 2.122578 1_555
Mg10 O12 2.131672 1_555
Mg10 O14 2.132421 1_555
Mg10 O4 2.136589 1_555
Mg10 O4 2.136589 1_554
Mg10 O1 2.142986 1_555
Mg11 O0 2.122578 1_565
Mg11 O13 2.131672 1_555
Mg11 O15 2.132421 1_555
Mg11 O5 2.136589 1_555
Mg11 O5 2.136589 1_554
Mg11 O1 2.142986 1_555
Mg12 O2 2.122578 1_555
Mg12 O12 2.131672 1_655
Mg12 O14 2.132421 1_555
Mg12 O6 2.136589 1_555
Mg12 O6 2.136589 1_554
Mg12 O3 2.142986 1_555
Mg13 O2 2.122578 1_565
Mg13 O13 2.131672 1_655
Mg13 O15 2.132421 1_555
Mg13 O7 2.136589 1_555
Mg13 O7 2.136589 1_554
Mg13 O3 2.142986 1_555
Ni0 O13 2.092475 1_545
Ni0 O12 2.092475 1_555
Ni0 O8 2.136562 1_554
Ni0 O8 2.136562 1_555
Ni0 O2 2.142678 1_455
Ni0 O0 2.142678 1_555
O1 V0 2.176346 1_555
O3 V0 2.176346 1_655
O9 V0 2.136562 1_555
O9 V0 2.136562 1_556
O12 V0 2.172589 1_555
O13 V0 2.172589 1_555
