# generated using pymatgen
data_Mg2FeW3S8
_symmetry_space_group_name_H-M   'P 1'
_cell_length_a   7.26824272
_cell_length_b   7.26906283
_cell_length_c   7.26955369
_cell_angle_alpha   57.84632956
_cell_angle_beta   57.84581569
_cell_angle_gamma   57.88920119
_symmetry_Int_Tables_number   1
_chemical_formula_structural   Mg2FeW3S8
_chemical_formula_sum   'Mg2 Fe1 W3 S8'
_cell_volume   258.24276214
_cell_formula_units_Z   1
loop_
 _symmetry_equiv_pos_site_id
 _symmetry_equiv_pos_as_xyz
  1  'x, y, z'
loop_
 _atom_site_type_symbol
 _atom_site_label
 _atom_site_symmetry_multiplicity
 _atom_site_fract_x
 _atom_site_fract_y
 _atom_site_fract_z
 _atom_site_occupancy
  Mg  Mg0  1  0.90739800  0.90779800  0.90746700  1
  Mg  Mg1  1  0.14460600  0.14439500  0.14434700  1
  Fe  Fe0  1  0.45690000  0.45612200  0.45631900  1
  W  W0  1  0.53167000  0.53176500  0.95169300  1
  W  W1  1  0.95151700  0.53173200  0.53170400  1
  W  W2  1  0.53159900  0.95163100  0.53169600  1
  S  S0  1  0.76361100  0.76378100  0.76380700  1
  S  S1  1  0.23264700  0.23261600  0.73959800  1
  S  S2  1  0.23283700  0.73948100  0.23265500  1
  S  S3  1  0.73976500  0.23249800  0.23236000  1
  S  S4  1  0.71879300  0.29434700  0.71891400  1
  S  S5  1  0.29404500  0.71898700  0.71907100  1
  S  S6  1  0.27570800  0.27582600  0.27598800  1
  S  S7  1  0.71890800  0.71901500  0.29438200  1
loop_
_geom_bond_atom_site_label_1
_geom_bond_atom_site_label_2
_geom_bond_distance
_geom_bond_site_symmetry_2
Mg0 S4 2.336422 1_565
Mg0 S7 2.336691 1_556
Mg0 S5 2.336766 1_655
Mg0 S0 2.601400 1_555
Mg1 S6 2.376571 1_555
Mg1 S1 2.429392 1_554
Mg1 S3 2.430346 1_455
Mg1 S2 2.430435 1_545
Fe0 S1 2.284390 1_555
Fe0 S3 2.284965 1_555
Fe0 S2 2.286061 1_555
Fe0 S4 2.783682 1_555
Fe0 S7 2.784313 1_555
Fe0 S5 2.788253 1_555
S0 W0 2.381557 1_555
S0 W2 2.384034 1_555
S0 W1 2.384285 1_555
S1 W2 2.499875 1_545
S1 W1 2.500580 1_455
S2 W0 2.498621 1_554
S2 W1 2.498878 1_455
S3 W2 2.498696 1_545
S3 W0 2.499073 1_554
S4 W1 2.417446 1_555
S4 W0 2.419731 1_555
S5 W2 2.417727 1_555
S5 W0 2.419722 1_555
S6 W0 2.612086 1_554
S6 W2 2.612619 1_545
S6 W1 2.612784 1_455
S7 W1 2.417828 1_555
S7 W2 2.417947 1_555
