# generated using pymatgen
data_Hf2NiS4
_symmetry_space_group_name_H-M   'P 1'
_cell_length_a   6.75132938
_cell_length_b   6.75132938
_cell_length_c   6.10366032
_cell_angle_alpha   63.75618202
_cell_angle_beta   63.75618202
_cell_angle_gamma   30.49735466
_symmetry_Int_Tables_number   1
_chemical_formula_structural   Hf2NiS4
_chemical_formula_sum   'Hf2 Ni1 S4'
_cell_volume   125.48723755
_cell_formula_units_Z   1
loop_
 _symmetry_equiv_pos_site_id
 _symmetry_equiv_pos_as_xyz
  1  'x, y, z'
loop_
 _atom_site_type_symbol
 _atom_site_label
 _atom_site_symmetry_multiplicity
 _atom_site_fract_x
 _atom_site_fract_y
 _atom_site_fract_z
 _atom_site_occupancy
  Hf  Hf0  1  0.74489400  0.74489400  0.25393900  1
  Hf  Hf1  1  0.25510600  0.25510600  0.74606100  1
  Ni  Ni0  1  0.00000000  0.00000000  0.00000000  1
  S  S0  1  0.11696800  0.11696800  0.20773700  1
  S  S1  1  0.61740900  0.61740900  0.71903000  1
  S  S2  1  0.38259100  0.38259100  0.28097000  1
  S  S3  1  0.88303200  0.88303200  0.79226300  1
loop_
_geom_bond_atom_site_label_1
_geom_bond_atom_site_label_2
_geom_bond_distance
_geom_bond_site_symmetry_2
Hf0 S0 2.537834 1_655
Hf0 S0 2.537834 1_565
Hf0 S1 2.548551 1_555
Hf0 S3 2.555521 1_554
Hf0 S2 2.582491 1_565
Hf0 S2 2.582491 1_655
Hf1 S3 2.537834 1_455
Hf1 S3 2.537834 1_545
Hf1 S2 2.548551 1_555
Hf1 S0 2.555521 1_556
Hf1 S1 2.582491 1_545
Hf1 S1 2.582491 1_455
Ni0 S3 2.387604 1_444
Ni0 S0 2.387604 1_555
Ni0 S2 2.455404 1_545
Ni0 S1 2.455404 1_544
Ni0 S2 2.455404 1_455
Ni0 S1 2.455404 1_454
