# generated using pymatgen
data_Pr2Ga3Cu
_symmetry_space_group_name_H-M   'P 1'
_cell_length_a   4.40077826
_cell_length_b   4.40077826
_cell_length_c   7.87459652
_cell_angle_alpha   90.00000000
_cell_angle_beta   90.00000000
_cell_angle_gamma   119.99999942
_symmetry_Int_Tables_number   1
_chemical_formula_structural   Pr2Ga3Cu
_chemical_formula_sum   'Pr2 Ga3 Cu1'
_cell_volume   132.07417853
_cell_formula_units_Z   1
loop_
 _symmetry_equiv_pos_site_id
 _symmetry_equiv_pos_as_xyz
  1  'x, y, z'
loop_
 _atom_site_type_symbol
 _atom_site_label
 _atom_site_symmetry_multiplicity
 _atom_site_fract_x
 _atom_site_fract_y
 _atom_site_fract_z
 _atom_site_occupancy
  Pr  Pr0  1  0.33333300  0.66666700  0.73271114  1
  Pr  Pr1  1  0.33333300  0.66666700  0.26413933  1
  Ga  Ga0  1  0.66666700  0.33333300  0.48494592  1
  Ga  Ga1  1  0.66666700  0.33333300  0.03586360  1
  Ga  Ga2  1  -0.00000000  0.00000000  0.96630083  1
  Cu  Cu0  1  0.00000000  -0.00000000  0.51604018  1
loop_
_geom_bond_atom_site_label_1
_geom_bond_atom_site_label_2
_geom_bond_distance
_geom_bond_site_symmetry_2
Ga0 Pr1 3.078782 1_655
Ga0 Pr1 3.078782 1_545
Ga0 Pr1 3.078788 1_555
Ga0 Pr0 3.203468 1_545
Ga0 Pr0 3.203468 1_655
Ga0 Pr0 3.203474 1_555
Ga1 Ga2 2.599166 1_654
Ga1 Ga2 2.599170 1_664
Ga1 Ga2 2.599170 1_554
Ga1 Pr1 3.112378 1_655
Ga1 Pr1 3.112378 1_545
Ga1 Pr1 3.112384 1_555
Ga2 Pr0 3.136732 1_545
Ga2 Pr0 3.136735 1_555
Ga2 Pr0 3.136735 1_445
Ga2 Pr1 3.457789 1_546
Ga2 Pr1 3.457792 1_556
Ga2 Pr1 3.457792 1_446
Cu0 Ga0 2.552559 1_455
Cu0 Ga0 2.552563 1_445
Cu0 Ga0 2.552563 1_555
Cu0 Pr0 3.060508 1_545
Cu0 Pr0 3.060511 1_555
Cu0 Pr0 3.060511 1_445
Cu0 Pr1 3.223405 1_545
Cu0 Pr1 3.223408 1_555
Cu0 Pr1 3.223408 1_445
