# generated using pymatgen
data_Sm6Nb4Al43
_symmetry_space_group_name_H-M   'P 1'
_cell_length_a   11.17866247
_cell_length_b   11.17866247
_cell_length_c   17.93124981
_cell_angle_alpha   90.00000000
_cell_angle_beta   90.00000000
_cell_angle_gamma   120.00000326
_symmetry_Int_Tables_number   1
_chemical_formula_structural   Sm6Nb4Al43
_chemical_formula_sum   'Sm12 Nb8 Al86'
_cell_volume   1940.53225087
_cell_formula_units_Z   2
loop_
 _symmetry_equiv_pos_site_id
 _symmetry_equiv_pos_as_xyz
  1  'x, y, z'
loop_
 _atom_site_type_symbol
 _atom_site_label
 _atom_site_symmetry_multiplicity
 _atom_site_fract_x
 _atom_site_fract_y
 _atom_site_fract_z
 _atom_site_occupancy
  Sm  Sm0  1  0.47128232  0.47128232  0.90424754  1
  Sm  Sm1  1  0.52871768  0.52871768  0.09575246  1
  Sm  Sm2  1  1.00000000  0.52871768  0.90424754  1
  Sm  Sm3  1  0.52871768  0.52871768  0.40424754  1
  Sm  Sm4  1  1.00000000  0.52871768  0.59575246  1
  Sm  Sm5  1  0.00000000  0.47128232  0.09575246  1
  Sm  Sm6  1  0.47128232  0.47128232  0.59575246  1
  Sm  Sm7  1  0.00000000  0.47128232  0.40424754  1
  Sm  Sm8  1  0.52871768  1.00000000  0.90424754  1
  Sm  Sm9  1  0.47128232  0.00000000  0.09575246  1
  Sm  Sm10  1  0.47128232  0.00000000  0.40424754  1
  Sm  Sm11  1  0.52871768  1.00000000  0.59575246  1
  Nb  Nb0  1  -0.00000000  0.00000000  0.00000000  1
  Nb  Nb1  1  -0.00000000  0.00000000  0.50000000  1
  Nb  Nb2  1  0.27260052  0.27260052  0.75000000  1
  Nb  Nb3  1  0.72739948  0.72739948  0.25000000  1
  Nb  Nb4  1  1.00000000  0.72739948  0.75000000  1
  Nb  Nb5  1  0.00000000  0.27260052  0.25000000  1
  Nb  Nb6  1  0.72739948  1.00000000  0.75000000  1
  Nb  Nb7  1  0.27260052  0.00000000  0.25000000  1
  Al  Al0  1  0.85043484  0.44586184  0.75000000  1
  Al  Al1  1  0.14956516  0.55413816  0.25000000  1
  Al  Al2  1  0.59542700  0.14956516  0.75000000  1
  Al  Al3  1  0.40457300  0.55413816  0.75000000  1
  Al  Al4  1  0.40457300  0.85043484  0.25000000  1
  Al  Al5  1  0.59542700  0.44586184  0.25000000  1
  Al  Al6  1  0.55413816  0.40457300  0.75000000  1
  Al  Al7  1  0.44586184  0.85043484  0.75000000  1
  Al  Al8  1  0.44586184  0.59542700  0.25000000  1
  Al  Al9  1  0.55413816  0.14956516  0.25000000  1
  Al  Al10  1  0.14956516  0.59542700  0.75000000  1
  Al  Al11  1  0.85043484  0.40457300  0.25000000  1
  Al  Al12  1  0.84160792  0.84160792  0.38445309  1
  Al  Al13  1  0.15839208  0.15839208  0.61554691  1
  Al  Al14  1  1.00000000  0.15839208  0.38445309  1
  Al  Al15  1  0.15839208  0.15839208  0.88445309  1
  Al  Al16  1  1.00000000  0.15839208  0.11554691  1
  Al  Al17  1  0.00000000  0.84160792  0.61554691  1
  Al  Al18  1  0.84160792  0.84160792  0.11554691  1
  Al  Al19  1  0.00000000  0.84160792  0.88445309  1
  Al  Al20  1  0.15839208  1.00000000  0.38445309  1
  Al  Al21  1  0.84160792  0.00000000  0.61554691  1
  Al  Al22  1  0.84160792  0.00000000  0.88445309  1
  Al  Al23  1  0.15839208  1.00000000  0.11554691  1
  Al  Al24  1  0.75267773  0.24732227  0.00000000  1
  Al  Al25  1  0.24732227  0.75267773  0.00000000  1
  Al  Al26  1  0.49464454  0.24732227  0.00000000  1
  Al  Al27  1  0.24732227  0.75267773  0.50000000  1
  Al  Al28  1  0.50535546  0.75267773  0.50000000  1
  Al  Al29  1  0.50535546  0.75267773  0.00000000  1
  Al  Al30  1  0.75267773  0.24732227  0.50000000  1
  Al  Al31  1  0.49464454  0.24732227  0.50000000  1
  Al  Al32  1  0.75267773  0.50535546  0.00000000  1
  Al  Al33  1  0.24732227  0.49464454  0.00000000  1
  Al  Al34  1  0.24732227  0.49464454  0.50000000  1
  Al  Al35  1  0.75267773  0.50535546  0.50000000  1
  Al  Al36  1  0.85359179  0.85359179  0.75000000  1
  Al  Al37  1  0.14640821  0.14640821  0.25000000  1
  Al  Al38  1  1.00000000  0.14640821  0.75000000  1
  Al  Al39  1  0.00000000  0.85359179  0.25000000  1
  Al  Al40  1  0.14640821  1.00000000  0.75000000  1
  Al  Al41  1  0.85359179  0.00000000  0.25000000  1
  Al  Al42  1  0.66666700  0.33333300  0.87308856  1
  Al  Al43  1  0.33333300  0.66666700  0.12691144  1
  Al  Al44  1  0.33333300  0.66666700  0.37308856  1
  Al  Al45  1  0.33333300  0.66666700  0.62691144  1
  Al  Al46  1  0.66666700  0.33333300  0.62691144  1
  Al  Al47  1  0.66666700  0.33333300  0.37308856  1
  Al  Al48  1  0.66666700  0.33333300  0.12691144  1
  Al  Al49  1  0.33333300  0.66666700  0.87308856  1
  Al  Al50  1  0.74510093  0.74510093  0.96985602  1
  Al  Al51  1  0.25489907  0.25489907  0.03014398  1
  Al  Al52  1  1.00000000  0.25489907  0.96985602  1
  Al  Al53  1  0.25489907  0.25489907  0.46985602  1
  Al  Al54  1  1.00000000  0.25489907  0.53014398  1
  Al  Al55  1  0.00000000  0.74510093  0.03014398  1
  Al  Al56  1  0.74510093  0.74510093  0.53014398  1
  Al  Al57  1  0.00000000  0.74510093  0.46985602  1
  Al  Al58  1  0.25489907  1.00000000  0.96985602  1
  Al  Al59  1  0.74510093  0.00000000  0.03014398  1
  Al  Al60  1  0.74510093  0.00000000  0.46985602  1
  Al  Al61  1  0.25489907  1.00000000  0.53014398  1
  Al  Al62  1  0.84305404  0.23688154  0.83529566  1
  Al  Al63  1  0.15694596  0.76311846  0.16470434  1
  Al  Al64  1  0.39382750  0.15694596  0.83529566  1
  Al  Al65  1  0.15694596  0.76311846  0.33529566  1
  Al  Al66  1  0.60617250  0.76311846  0.66470434  1
  Al  Al67  1  0.60617250  0.84305404  0.16470434  1
  Al  Al68  1  0.84305404  0.23688154  0.66470434  1
  Al  Al69  1  0.39382750  0.23688154  0.33529566  1
  Al  Al70  1  0.76311846  0.60617250  0.83529566  1
  Al  Al71  1  0.60617250  0.84305404  0.33529566  1
  Al  Al72  1  0.23688154  0.84305404  0.66470434  1
  Al  Al73  1  0.23688154  0.39382750  0.16470434  1
  Al  Al74  1  0.39382750  0.15694596  0.66470434  1
  Al  Al75  1  0.76311846  0.15694596  0.33529566  1
  Al  Al76  1  0.39382750  0.23688154  0.16470434  1
  Al  Al77  1  0.60617250  0.76311846  0.83529566  1
  Al  Al78  1  0.23688154  0.39382750  0.33529566  1
  Al  Al79  1  0.76311846  0.15694596  0.16470434  1
  Al  Al80  1  0.76311846  0.60617250  0.66470434  1
  Al  Al81  1  0.23688154  0.84305404  0.83529566  1
  Al  Al82  1  0.15694596  0.39382750  0.66470434  1
  Al  Al83  1  0.84305404  0.60617250  0.33529566  1
  Al  Al84  1  0.84305404  0.60617250  0.16470434  1
  Al  Al85  1  0.15694596  0.39382750  0.83529566  1
loop_
_geom_bond_atom_site_label_1
_geom_bond_atom_site_label_2
_geom_bond_distance
_geom_bond_site_symmetry_2
Sm0 Sm1 3.493430 1_556
Sm2 Sm5 3.493430 1_656
Sm3 Sm6 3.493430 1_555
Sm4 Sm7 3.493430 1_655
Sm8 Sm9 3.493430 1_566
Sm10 Sm11 3.493430 1_545
Nb2 Sm6 3.547218 1_555
Nb2 Sm0 3.547218 1_555
Nb3 Sm1 3.547218 1_555
Nb3 Sm3 3.547218 1_555
Nb4 Sm4 3.547219 1_555
Nb4 Sm2 3.547219 1_555
Nb5 Sm5 3.547219 1_555
Nb5 Sm7 3.547219 1_555
Nb6 Sm8 3.547219 1_555
Nb6 Sm11 3.547219 1_555
Nb7 Sm9 3.547219 1_555
Nb7 Sm10 3.547219 1_555
Al0 Nb4 2.727341 1_555
Al0 Al68 2.758760 1_555
Al0 Al62 2.758760 1_555
Al0 Al42 2.844246 1_555
Al0 Al46 2.844246 1_555
Al0 Al80 2.872741 1_555
Al0 Al70 2.872741 1_555
Al0 Al10 2.895882 1_655
Al0 Sm4 3.123237 1_555
Al0 Sm2 3.123237 1_555
Al1 Nb5 2.727341 1_555
Al1 Al65 2.758760 1_555
Al1 Al63 2.758760 1_555
Al1 Al43 2.844246 1_555
Al1 Al44 2.844246 1_555
Al1 Al78 2.872741 1_555
Al1 Al73 2.872741 1_555
Al1 Al11 2.895882 1_455
Al1 Sm7 3.123237 1_555
Al1 Sm5 3.123237 1_555
Al2 Nb6 2.727341 1_545
Al2 Al74 2.758760 1_555
Al2 Al64 2.758760 1_555
Al2 Al42 2.844245 1_555
Al2 Al46 2.844245 1_555
Al2 Al62 2.872741 1_555
Al2 Al68 2.872741 1_555
Al2 Al7 2.895882 1_545
Al2 Sm11 3.123237 1_545
Al2 Sm8 3.123237 1_545
Al3 Nb2 2.727341 1_555
Al3 Al77 2.758760 1_555
Al3 Al66 2.758760 1_555
Al3 Al49 2.844252 1_555
Al3 Al45 2.844252 1_555
Al3 Al85 2.872741 1_555
Al3 Al82 2.872741 1_555
Al3 Al6 2.895882 1_555
Al3 Sm6 3.123237 1_555
Al3 Sm0 3.123237 1_555
Al4 Nb7 2.727341 1_565
Al4 Al71 2.758760 1_555
Al4 Al67 2.758760 1_555
Al4 Al43 2.844245 1_555
Al4 Al44 2.844245 1_555
Al4 Al63 2.872741 1_555
Al4 Al65 2.872741 1_555
Al4 Al9 2.895882 1_565
Al4 Sm10 3.123237 1_565
Al4 Sm9 3.123237 1_565
Al5 Nb3 2.727341 1_555
Al5 Al76 2.758760 1_555
Al5 Al69 2.758760 1_555
Al5 Al84 2.872741 1_555
Al5 Al83 2.872741 1_555
Al5 Al8 2.895882 1_555
Al5 Sm3 3.123237 1_555
Al5 Sm1 3.123237 1_555
Al6 Nb2 2.727341 1_555
Al6 Al70 2.758760 1_555
Al6 Al80 2.758760 1_555
Al6 Al74 2.872741 1_555
Al6 Al64 2.872741 1_555
Al6 Sm6 3.123237 1_555
Al6 Sm0 3.123237 1_555
Al7 Nb6 2.727341 1_555
Al7 Al81 2.758760 1_555
Al7 Al72 2.758760 1_555
Al7 Al77 2.872741 1_555
Al7 Sm8 3.123237 1_555
Al7 Sm11 3.123237 1_555
Al8 Nb3 2.727341 1_555
Al8 Sm3 3.123237 1_555
Al8 Sm1 3.123237 1_555
Al9 Nb7 2.727341 1_555
Al9 Sm9 3.123237 1_555
Al9 Sm10 3.123237 1_555
Al10 Nb4 2.727341 1_455
Al10 Al85 2.758760 1_555
Al10 Al82 2.758760 1_555
Al10 Al49 2.844245 1_555
Al10 Al45 2.844245 1_555
Al10 Al81 2.872741 1_555
Al10 Al72 2.872741 1_555
Al10 Sm4 3.123237 1_455
Al10 Sm2 3.123237 1_455
Al11 Nb5 2.727341 1_655
Al11 Al84 2.758760 1_555
Al11 Al83 2.758760 1_555
Al11 Al47 2.844245 1_555
Al11 Al48 2.844245 1_555
Al11 Al75 2.872741 1_555
Al11 Al79 2.872741 1_555
Al11 Sm7 3.123237 1_655
Al11 Sm5 3.123237 1_655
Al12 Nb1 2.725406 1_665
Al12 Nb3 2.728086 1_555
Al12 Al71 2.783239 1_555
Al12 Al83 2.783239 1_555
Al12 Al56 2.826409 1_555
Al12 Al60 2.924759 1_565
Al12 Al57 2.924759 1_655
Al12 Al39 2.954371 1_655
Al12 Al41 2.954371 1_565
Al12 Al14 3.066789 1_565
Al12 Al20 3.066789 1_655
Al12 Sm3 3.515657 1_555
Al13 Nb1 2.725406 1_555
Al13 Nb2 2.728086 1_555
Al13 Al82 2.783239 1_555
Al13 Al74 2.783239 1_555
Al13 Al53 2.826409 1_555
Al13 Al54 2.924759 1_455
Al13 Al61 2.924759 1_545
Al13 Al38 2.954371 1_455
Al13 Al40 2.954371 1_545
Al13 Al17 3.066789 1_545
Al13 Al21 3.066789 1_455
Al13 Sm6 3.515657 1_555
Al14 Nb1 2.725406 1_655
Al14 Nb5 2.728086 1_655
Al14 Al78 2.783239 1_655
Al14 Al75 2.783239 1_555
Al14 Al54 2.826409 1_555
Al14 Al60 2.924759 1_555
Al14 Al53 2.924759 1_655
Al14 Al41 2.954371 1_555
Al14 Al37 2.954371 1_655
Al14 Al20 3.066789 1_645
Al14 Sm7 3.515658 1_655
Al15 Nb0 2.725406 1_556
Al15 Nb2 2.728086 1_555
Al15 Al85 2.783239 1_555
Al15 Al64 2.783239 1_555
Al15 Al51 2.826409 1_556
Al15 Al52 2.924759 1_455
Al15 Al58 2.924759 1_545
Al15 Al38 2.954371 1_455
Al15 Al40 2.954371 1_545
Al15 Al22 3.066789 1_455
Al15 Al19 3.066789 1_545
Al15 Sm0 3.515657 1_555
Al16 Nb0 2.725406 1_655
Al16 Nb5 2.728086 1_655
Al16 Al73 2.783239 1_655
Al16 Al79 2.783239 1_555
Al16 Al52 2.826409 1_554
Al16 Al59 2.924759 1_555
Al16 Al51 2.924759 1_655
Al16 Al41 2.954371 1_555
Al16 Al37 2.954371 1_655
Al16 Al18 3.066789 1_545
Al16 Al23 3.066789 1_645
Al16 Sm5 3.515658 1_655
Al17 Nb1 2.725406 1_565
Al17 Nb4 2.728086 1_455
Al17 Al80 2.783239 1_455
Al17 Al72 2.783239 1_555
Al17 Al57 2.826409 1_555
Al17 Al61 2.924759 1_555
Al17 Al56 2.924759 1_455
Al17 Al40 2.954371 1_555
Al17 Al36 2.954371 1_455
Al17 Al21 3.066789 1_465
Al17 Sm4 3.515658 1_455
Al18 Nb0 2.725406 1_665
Al18 Nb3 2.728086 1_555
Al18 Al84 2.783239 1_555
Al18 Al67 2.783239 1_555
Al18 Al50 2.826409 1_554
Al18 Al55 2.924759 1_655
Al18 Al59 2.924759 1_565
Al18 Al39 2.954371 1_655
Al18 Al41 2.954371 1_565
Al18 Al23 3.066789 1_655
Al18 Sm1 3.515657 1_555
Al19 Nb0 2.725406 1_566
Al19 Nb4 2.728086 1_455
Al19 Al70 2.783239 1_455
Al19 Al81 2.783239 1_555
Al19 Al55 2.826409 1_556
Al19 Al58 2.924759 1_555
Al19 Al50 2.924759 1_455
Al19 Al40 2.954371 1_555
Al19 Al36 2.954371 1_455
Al19 Al22 3.066789 1_465
Al19 Sm2 3.515658 1_455
Al20 Nb1 2.725406 1_565
Al20 Nb7 2.728086 1_565
Al20 Al69 2.783239 1_565
Al20 Al65 2.783239 1_555
Al20 Al61 2.826409 1_555
Al20 Al57 2.924759 1_555
Al20 Al53 2.924759 1_565
Al20 Al39 2.954371 1_555
Al20 Al37 2.954371 1_565
Al20 Sm10 3.515658 1_565
Al21 Nb1 2.725406 1_655
Al21 Nb6 2.728086 1_545
Al21 Al66 2.783239 1_545
Al21 Al68 2.783239 1_555
Al21 Al60 2.826409 1_555
Al21 Al54 2.924759 1_555
Al21 Al56 2.924759 1_545
Al21 Al38 2.954371 1_555
Al21 Al36 2.954371 1_545
Al21 Sm11 3.515658 1_545
Al22 Nb0 2.725406 1_656
Al22 Nb6 2.728086 1_545
Al22 Al77 2.783239 1_545
Al22 Al62 2.783239 1_555
Al22 Al59 2.826409 1_556
Al22 Al52 2.924759 1_555
Al22 Al50 2.924759 1_545
Al22 Al38 2.954371 1_555
Al22 Al36 2.954371 1_545
Al22 Sm8 3.515658 1_545
Al23 Nb0 2.725406 1_565
Al23 Nb7 2.728086 1_565
Al23 Al76 2.783239 1_565
Al23 Al63 2.783239 1_555
Al23 Al58 2.826409 1_554
Al23 Al55 2.924759 1_555
Al23 Al51 2.924759 1_565
Al23 Al39 2.954371 1_555
Al23 Al37 2.954371 1_565
Al23 Sm9 3.515658 1_565
Al24 Al52 2.776492 1_554
Al24 Al59 2.776492 1_555
Al24 Al42 2.819944 1_554
Al24 Al48 2.819944 1_555
Al24 Al32 2.884466 1_555
Al24 Al26 2.884466 1_555
Al24 Al62 3.142375 1_554
Al24 Al79 3.142375 1_555
Al24 Sm5 3.152439 1_655
Al24 Sm8 3.152439 1_544
Al24 Sm2 3.433634 1_554
Al24 Sm9 3.433634 1_555
Al25 Al58 2.776492 1_554
Al25 Al55 2.776492 1_555
Al25 Al49 2.819944 1_554
Al25 Al43 2.819944 1_555
Al25 Al29 2.884466 1_555
Al25 Al33 2.884466 1_555
Al25 Al81 3.142375 1_554
Al25 Al63 3.142375 1_555
Al25 Sm9 3.152439 1_565
Al25 Sm2 3.152439 1_454
Al25 Sm8 3.433634 1_554
Al25 Sm5 3.433634 1_555
Al26 Al58 2.776492 1_544
Al26 Al51 2.776492 1_555
Al26 Al42 2.819949 1_554
Al26 Al48 2.819949 1_555
Al26 Al32 2.884466 1_555
Al26 Al64 3.142375 1_554
Al26 Al76 3.142375 1_555
Al26 Sm9 3.152439 1_555
Al26 Sm0 3.152439 1_554
Al26 Sm1 3.433634 1_555
Al26 Sm8 3.433634 1_544
Al27 Al57 2.776492 1_555
Al27 Al61 2.776492 1_555
Al27 Al44 2.819944 1_555
Al27 Al45 2.819944 1_555
Al27 Al28 2.884466 1_555
Al27 Al34 2.884466 1_555
Al27 Al72 3.142375 1_555
Al27 Al65 3.142375 1_555
Al27 Sm10 3.152439 1_565
Al27 Sm4 3.152439 1_455
Al27 Sm11 3.433634 1_555
Al27 Sm7 3.433634 1_555
Al28 Al60 2.776492 1_565
Al28 Al56 2.776492 1_555
Al28 Al44 2.819949 1_555
Al28 Al45 2.819949 1_555
Al28 Al34 2.884466 1_555
Al28 Al71 3.142375 1_555
Al28 Al66 3.142375 1_555
Al28 Sm11 3.152439 1_555
Al28 Sm3 3.152439 1_555
Al28 Sm6 3.433634 1_555
Al28 Sm10 3.433634 1_565
Al29 Al59 2.776492 1_565
Al29 Al50 2.776492 1_554
Al29 Al49 2.819949 1_554
Al29 Al43 2.819949 1_555
Al29 Al33 2.884466 1_555
Al29 Al67 3.142375 1_555
Al29 Al77 3.142375 1_554
Al29 Sm8 3.152439 1_554
Al29 Sm1 3.152439 1_555
Al29 Sm0 3.433634 1_554
Al29 Sm9 3.433634 1_565
Al30 Al54 2.776492 1_555
Al30 Al60 2.776492 1_555
Al30 Al46 2.819944 1_555
Al30 Al47 2.819944 1_555
Al30 Al35 2.884466 1_555
Al30 Al31 2.884466 1_555
Al30 Al68 3.142375 1_555
Al30 Al75 3.142375 1_555
Al30 Sm7 3.152439 1_655
Al30 Sm11 3.152439 1_545
Al30 Sm4 3.433634 1_555
Al30 Sm10 3.433634 1_555
Al31 Al61 2.776492 1_545
Al31 Al53 2.776492 1_555
Al31 Al46 2.819949 1_555
Al31 Al47 2.819949 1_555
Al31 Al35 2.884466 1_555
Al31 Al74 3.142375 1_555
Al31 Al69 3.142375 1_555
Al31 Sm10 3.152439 1_555
Al31 Sm6 3.152439 1_555
Al31 Sm3 3.433634 1_555
Al31 Sm11 3.433634 1_545
Al32 Al55 2.776492 1_655
Al32 Al50 2.776492 1_554
Al32 Al42 2.819949 1_554
Al32 Al48 2.819949 1_555
Al32 Al84 3.142375 1_555
Al32 Al70 3.142375 1_554
Al32 Sm2 3.152439 1_554
Al32 Sm1 3.152439 1_555
Al32 Sm0 3.433634 1_554
Al32 Sm5 3.433634 1_655
Al33 Al52 2.776492 1_454
Al33 Al51 2.776492 1_555
Al33 Al49 2.819949 1_554
Al33 Al43 2.819949 1_555
Al33 Al85 3.142375 1_554
Al33 Al73 3.142375 1_555
Al33 Sm5 3.152439 1_555
Al33 Sm0 3.152439 1_554
Al33 Sm1 3.433634 1_555
Al33 Sm2 3.433634 1_454
Al34 Al54 2.776492 1_455
Al34 Al53 2.776492 1_555
Al34 Al44 2.819949 1_555
Al34 Al45 2.819949 1_555
Al34 Al82 3.142375 1_555
Al34 Al78 3.142375 1_555
Al34 Sm7 3.152439 1_555
Al34 Sm6 3.152439 1_555
Al34 Sm3 3.433634 1_555
Al34 Sm4 3.433634 1_455
Al35 Al57 2.776492 1_655
Al35 Al56 2.776492 1_555
Al35 Al46 2.819949 1_555
Al35 Al47 2.819949 1_555
Al35 Al83 3.142375 1_555
Al35 Al80 3.142375 1_555
Al35 Sm4 3.152439 1_555
Al35 Sm3 3.152439 1_555
Al35 Sm6 3.433634 1_555
Al35 Sm7 3.433634 1_655
Al36 Nb6 2.641465 1_555
Al36 Nb4 2.641465 1_555
Al36 Al38 2.834757 1_565
Al36 Al40 2.834757 1_655
Al36 Al80 2.866110 1_555
Al36 Al70 2.866110 1_555
Al36 Al66 2.866110 1_555
Al36 Al77 2.866110 1_555
Al37 Nb7 2.641465 1_555
Al37 Nb5 2.641465 1_555
Al37 Al41 2.834757 1_455
Al37 Al39 2.834757 1_545
Al37 Al76 2.866110 1_555
Al37 Al69 2.866110 1_555
Al37 Al73 2.866110 1_555
Al37 Al78 2.866110 1_555
Al38 Nb6 2.641465 1_545
Al38 Nb2 2.641465 1_655
Al38 Al40 2.834757 1_645
Al38 Al85 2.866110 1_655
Al38 Al82 2.866110 1_655
Al38 Al68 2.866110 1_555
Al38 Al62 2.866110 1_555
Al39 Nb7 2.641465 1_565
Al39 Nb3 2.641465 1_455
Al39 Al41 2.834757 1_465
Al39 Al83 2.866110 1_455
Al39 Al84 2.866110 1_455
Al39 Al65 2.866110 1_555
Al39 Al63 2.866110 1_555
Al40 Nb4 2.641465 1_455
Al40 Nb2 2.641465 1_565
Al40 Al74 2.866110 1_565
Al40 Al64 2.866110 1_565
Al40 Al72 2.866110 1_555
Al40 Al81 2.866110 1_555
Al41 Nb5 2.641465 1_655
Al41 Nb3 2.641465 1_545
Al41 Al71 2.866110 1_545
Al41 Al67 2.866110 1_545
Al41 Al75 2.866110 1_555
Al41 Al79 2.866110 1_555
Al42 Al62 2.763258 1_555
Al42 Al64 2.763266 1_555
Al42 Al70 2.763268 1_555
Al42 Al6 2.844252 1_555
Al42 Sm8 3.290705 1_545
Al42 Sm2 3.290706 1_555
Al42 Sm0 3.290715 1_555
Al43 Al63 2.763258 1_555
Al43 Al67 2.763266 1_555
Al43 Al73 2.763268 1_555
Al43 Al8 2.844252 1_555
Al43 Sm9 3.290705 1_565
Al43 Sm5 3.290706 1_555
Al43 Sm1 3.290715 1_555
Al44 Al65 2.763258 1_555
Al44 Al71 2.763266 1_555
Al44 Al78 2.763268 1_555
Al44 Al8 2.844252 1_555
Al44 Sm10 3.290705 1_565
Al44 Sm7 3.290706 1_555
Al44 Sm3 3.290715 1_555
Al45 Al72 2.763258 1_555
Al45 Al82 2.763266 1_555
Al45 Al66 2.763268 1_555
Al45 Al7 2.844246 1_555
Al45 Sm4 3.290705 1_455
Al45 Sm11 3.290706 1_555
Al45 Sm6 3.290715 1_555
Al46 Al68 2.763258 1_555
Al46 Al74 2.763266 1_555
Al46 Al80 2.763268 1_555
Al46 Al6 2.844252 1_555
Al46 Sm11 3.290705 1_545
Al46 Sm4 3.290706 1_555
Al46 Sm6 3.290715 1_555
Al47 Al75 2.763258 1_555
Al47 Al83 2.763266 1_555
Al47 Al69 2.763268 1_555
Al47 Al9 2.844246 1_555
Al47 Al5 2.844252 1_555
Al47 Sm7 3.290705 1_655
Al47 Sm10 3.290706 1_555
Al47 Sm3 3.290715 1_555
Al48 Al79 2.763258 1_555
Al48 Al84 2.763266 1_555
Al48 Al76 2.763268 1_555
Al48 Al9 2.844246 1_555
Al48 Al5 2.844252 1_555
Al48 Sm5 3.290705 1_655
Al48 Sm9 3.290706 1_555
Al48 Sm1 3.290715 1_555
Al49 Al81 2.763258 1_555
Al49 Al85 2.763266 1_555
Al49 Al77 2.763268 1_555
Al49 Al7 2.844246 1_555
Al49 Sm2 3.290705 1_455
Al49 Sm8 3.290706 1_555
Al49 Sm0 3.290715 1_555
Al50 Nb0 2.900244 1_666
Al50 Al70 2.930368 1_555
Al50 Al77 2.930368 1_555
Al50 Al55 3.047606 1_656
Al50 Al59 3.047606 1_566
Al50 Sm0 3.279220 1_555
Al50 Sm1 3.308652 1_556
Al51 Nb0 2.900244 1_555
Al51 Al76 2.930368 1_555
Al51 Al73 2.930368 1_555
Al51 Al58 3.047606 1_544
Al51 Al52 3.047606 1_454
Al51 Sm1 3.279220 1_555
Al51 Sm0 3.308652 1_554
Al52 Nb0 2.900244 1_656
Al52 Al85 2.930368 1_655
Al52 Al62 2.930368 1_555
Al52 Al59 3.047605 1_556
Al52 Sm2 3.279220 1_555
Al52 Sm5 3.308652 1_656
Al53 Nb1 2.900244 1_555
Al53 Al78 2.930368 1_555
Al53 Al69 2.930368 1_555
Al53 Al54 3.047606 1_455
Al53 Al61 3.047606 1_545
Al53 Sm3 3.279220 1_555
Al53 Sm6 3.308652 1_555
Al54 Nb1 2.900244 1_655
Al54 Al82 2.930368 1_655
Al54 Al68 2.930368 1_555
Al54 Al60 3.047605 1_555
Al54 Sm4 3.279220 1_555
Al54 Sm7 3.308652 1_655
Al55 Nb0 2.900244 1_565
Al55 Al84 2.930368 1_455
Al55 Al63 2.930368 1_555
Al55 Al58 3.047605 1_554
Al55 Sm5 3.279220 1_555
Al55 Sm2 3.308652 1_454
Al56 Nb1 2.900244 1_665
Al56 Al66 2.930368 1_555
Al56 Al80 2.930368 1_555
Al56 Al57 3.047606 1_655
Al56 Al60 3.047606 1_565
Al56 Sm6 3.279220 1_555
Al56 Sm3 3.308652 1_555
Al57 Nb1 2.900244 1_565
Al57 Al83 2.930368 1_455
Al57 Al65 2.930368 1_555
Al57 Al61 3.047605 1_555
Al57 Sm7 3.279220 1_555
Al57 Sm4 3.308652 1_455
Al58 Nb0 2.900244 1_566
Al58 Al64 2.930368 1_565
Al58 Al81 2.930368 1_555
Al58 Sm8 3.279220 1_555
Al58 Sm9 3.308652 1_566
Al59 Nb0 2.900244 1_655
Al59 Al67 2.930368 1_545
Al59 Al79 2.930368 1_555
Al59 Sm9 3.279220 1_555
Al59 Sm8 3.308652 1_544
Al60 Nb1 2.900244 1_655
Al60 Al71 2.930368 1_545
Al60 Al75 2.930368 1_555
Al60 Sm10 3.279220 1_555
Al60 Sm11 3.308652 1_545
Al61 Nb1 2.900244 1_565
Al61 Al74 2.930368 1_565
Al61 Al72 2.930368 1_555
Al61 Sm11 3.279220 1_555
Al61 Sm10 3.308652 1_565
Al62 Nb6 2.756667 1_545
Al62 Al85 3.038789 1_655
Al62 Al68 3.058916 1_555
Al62 Sm2 3.086422 1_555
Al62 Sm8 3.403398 1_545
Al63 Nb7 2.756667 1_565
Al63 Al84 3.038789 1_455
Al63 Al65 3.058916 1_555
Al63 Sm5 3.086422 1_555
Al63 Sm9 3.403398 1_565
Al64 Nb2 2.756667 1_555
Al64 Al81 3.038789 1_545
Al64 Al74 3.058916 1_555
Al64 Sm8 3.086422 1_545
Al64 Sm0 3.403398 1_555
Al65 Nb7 2.756667 1_565
Al65 Al83 3.038789 1_455
Al65 Sm7 3.086422 1_555
Al65 Sm10 3.403398 1_565
Al66 Nb6 2.756667 1_555
Al66 Al7 2.872741 1_555
Al66 Al80 3.038790 1_555
Al66 Al77 3.058916 1_555
Al66 Sm6 3.086422 1_555
Al66 Sm11 3.403398 1_555
Al67 Nb3 2.756667 1_555
Al67 Al8 2.872741 1_555
Al67 Al79 3.038789 1_565
Al67 Al71 3.058916 1_555
Al67 Sm9 3.086422 1_565
Al67 Sm1 3.403398 1_555
Al68 Nb6 2.756667 1_545
Al68 Al82 3.038789 1_655
Al68 Sm4 3.086422 1_555
Al68 Sm11 3.403398 1_545
Al69 Nb7 2.756667 1_555
Al69 Al9 2.872741 1_555
Al69 Al78 3.038790 1_555
Al69 Al76 3.058916 1_555
Al69 Sm3 3.086422 1_555
Al69 Sm10 3.403398 1_555
Al70 Nb4 2.756667 1_555
Al70 Al77 3.038790 1_555
Al70 Al80 3.058916 1_555
Al70 Sm0 3.086422 1_555
Al70 Sm2 3.403398 1_555
Al71 Nb3 2.756667 1_555
Al71 Al8 2.872741 1_555
Al71 Al75 3.038789 1_565
Al71 Sm10 3.086422 1_565
Al71 Sm3 3.403398 1_555
Al72 Nb4 2.756667 1_455
Al72 Al74 3.038789 1_565
Al72 Al81 3.058916 1_555
Al72 Sm11 3.086422 1_555
Al72 Sm4 3.403398 1_455
Al73 Nb5 2.756667 1_555
Al73 Al8 2.758760 1_555
Al73 Al76 3.038790 1_555
Al73 Al78 3.058916 1_555
Al73 Sm1 3.086422 1_555
Al73 Sm5 3.403398 1_555
Al74 Nb2 2.756667 1_555
Al74 Sm11 3.086422 1_545
Al74 Sm6 3.403398 1_555
Al75 Nb5 2.756667 1_655
Al75 Al9 2.758760 1_555
Al75 Al79 3.058916 1_555
Al75 Sm10 3.086422 1_555
Al75 Sm7 3.403398 1_655
Al76 Nb7 2.756667 1_555
Al76 Al9 2.872741 1_555
Al76 Sm1 3.086422 1_555
Al76 Sm9 3.403398 1_555
Al77 Nb6 2.756667 1_555
Al77 Sm0 3.086422 1_555
Al77 Sm8 3.403398 1_555
Al78 Nb5 2.756667 1_555
Al78 Al8 2.758760 1_555
Al78 Sm3 3.086422 1_555
Al78 Sm7 3.403398 1_555
Al79 Nb5 2.756667 1_655
Al79 Al9 2.758760 1_555
Al79 Sm9 3.086422 1_555
Al79 Sm5 3.403398 1_655
Al80 Nb4 2.756667 1_555
Al80 Sm6 3.086422 1_555
Al80 Sm4 3.403398 1_555
Al81 Nb4 2.756667 1_455
Al81 Sm8 3.086422 1_555
Al81 Sm2 3.403398 1_455
Al82 Nb2 2.756667 1_555
Al82 Al85 3.058916 1_555
Al82 Sm4 3.086422 1_455
Al82 Sm6 3.403398 1_555
Al83 Nb3 2.756667 1_555
Al83 Al84 3.058916 1_555
Al83 Sm7 3.086422 1_655
Al83 Sm3 3.403398 1_555
Al84 Nb3 2.756667 1_555
Al84 Sm5 3.086422 1_655
Al84 Sm1 3.403398 1_555
Al85 Nb2 2.756667 1_555
Al85 Sm2 3.086422 1_455
Al85 Sm0 3.403398 1_555
