# generated using pymatgen
data_NaCo2H3(SeO5)2
_symmetry_space_group_name_H-M   'P 1'
_cell_length_a   5.55247959
_cell_length_b   10.06618639
_cell_length_c   7.76751951
_cell_angle_alpha   72.77926083
_cell_angle_beta   83.96240498
_cell_angle_gamma   96.53545956
_symmetry_Int_Tables_number   1
_chemical_formula_structural   NaCo2H3(SeO5)2
_chemical_formula_sum   'Na2 Co4 H6 Se4 O20'
_cell_volume   407.55187976
_cell_formula_units_Z   2
loop_
 _symmetry_equiv_pos_site_id
 _symmetry_equiv_pos_as_xyz
  1  'x, y, z'
loop_
 _atom_site_type_symbol
 _atom_site_label
 _atom_site_symmetry_multiplicity
 _atom_site_fract_x
 _atom_site_fract_y
 _atom_site_fract_z
 _atom_site_occupancy
  Na  Na0  1  0.99129200  0.49834900  0.00365500  1
  Na  Na1  1  0.49894100  0.00011700  0.50218400  1
  Co  Co0  1  0.74834600  0.74668900  0.25706500  1
  Co  Co1  1  0.99330000  0.50048100  0.50323100  1
  Co  Co2  1  0.24559800  0.25149800  0.75029900  1
  Co  Co3  1  0.49829300  0.99905400  0.00231100  1
  H  H0  1  0.57984800  0.27063900  0.95611200  1
  H  H1  1  0.07650100  0.76513500  0.45553400  1
  H  H2  1  0.41647600  0.72572400  0.04813600  1
  H  H3  1  0.91694600  0.23650100  0.54941600  1
  H  H4  1  0.26650600  0.74844600  0.23690900  1
  H  H5  1  0.73129800  0.25035500  0.76515100  1
  Se  Se0  1  0.50808900  0.60360400  0.69499100  1
  Se  Se1  1  0.00959600  0.10165000  0.19051500  1
  Se  Se2  1  0.47711800  0.39587700  0.31178300  1
  Se  Se3  1  0.98731600  0.89660900  0.81431400  1
  O  O0  1  0.29011000  0.48019800  0.66674700  1
  O  O1  1  0.78466600  0.97885800  0.16361600  1
  O  O2  1  0.69781000  0.51971700  0.33585900  1
  O  O3  1  0.20999800  0.01858100  0.84511200  1
  O  O4  1  0.56433400  0.21856100  0.86705300  1
  O  O5  1  0.05617300  0.71263200  0.36808700  1
  O  O6  1  0.43176900  0.77799600  0.13750200  1
  O  O7  1  0.93615100  0.28862700  0.63730700  1
  O  O8  1  0.39737900  0.63980300  0.87873400  1
  O  O9  1  0.90261000  0.13762900  0.37440600  1
  O  O10  1  0.58490000  0.35705700  0.12951300  1
  O  O11  1  0.09599300  0.86333900  0.62878300  1
  O  O12  1  0.76882900  0.53383400  0.72185400  1
  O  O13  1  0.26821400  0.02997700  0.21723000  1
  O  O14  1  0.05717400  0.24463000  0.00383100  1
  O  O15  1  0.55570800  0.74713000  0.50935000  1
  O  O16  1  0.21609900  0.46514100  0.28530400  1
  O  O17  1  0.72938700  0.96919200  0.78752800  1
  O  O18  1  0.93444300  0.75262100  0.99865700  1
  O  O19  1  0.43479300  0.25375600  0.49991400  1
loop_
_geom_bond_atom_site_label_1
_geom_bond_atom_site_label_2
_geom_bond_distance
_geom_bond_site_symmetry_2
Na0 O8 2.458440 1_654
Na0 O10 2.460162 1_555
Na0 O12 2.578930 1_554
Na0 O16 2.586958 1_655
Na0 O18 2.603861 1_554
Na0 O14 2.620564 1_655
Na1 O11 2.429553 1_545
Na1 O9 2.436632 1_555
Na1 O15 2.586537 1_545
Na1 O19 2.612961 1_555
Na1 O13 2.630758 1_555
Na1 O17 2.631610 1_545
Co0 O5 2.012704 1_655
Co0 O6 2.085148 1_555
Co0 O15 2.132967 1_555
Co0 O18 2.139807 1_554
Co0 O2 2.159476 1_555
Co0 O1 2.210624 1_555
Co1 O7 2.048051 1_555
Co1 O5 2.051885 1_655
Co1 O12 2.130141 1_555
Co1 O16 2.130390 1_655
Co1 O0 2.175835 1_655
Co1 O2 2.188958 1_555
Co2 O7 2.032578 1_455
Co2 O4 2.087496 1_555
Co2 O19 2.103614 1_555
Co2 O14 2.108806 1_556
Co2 O0 2.175821 1_555
Co2 O3 2.218112 1_555
Co3 O3 2.105394 1_564
Co3 O17 2.110584 1_554
Co3 O13 2.113138 1_565
Co3 O4 2.116733 1_564
Co3 O1 2.116933 1_555
Co3 O6 2.130361 1_555
H0 O4 0.988815 1_555
H1 O5 0.984144 1_555
H2 O6 0.992178 1_555
H2 O8 1.781302 1_554
H3 O7 0.983588 1_555
H4 O6 1.086065 1_555
H4 O5 1.403008 1_555
H5 O4 1.102947 1_555
H5 O7 1.365440 1_555
O0 Se0 1.712050 1_555
O1 Se1 1.728488 1_665
O2 Se2 1.711451 1_555
O3 Se3 1.727438 1_445
O8 Se0 1.649846 1_555
O9 Se1 1.643501 1_655
O10 Se2 1.648599 1_555
O11 Se3 1.643757 1_455
O12 Se0 1.685530 1_555
O13 Se1 1.683885 1_555
O14 Se1 1.685553 1_555
O15 Se0 1.683989 1_555
O16 Se2 1.684257 1_555
O17 Se3 1.684939 1_555
O18 Se3 1.680218 1_555
O19 Se2 1.688402 1_555
