# generated using pymatgen
data_Cs2LiAlF6
_symmetry_space_group_name_H-M   'P 1'
_cell_length_a   6.29789606
_cell_length_b   6.29789606
_cell_length_c   5.10329700
_cell_angle_alpha   90.00000000
_cell_angle_beta   90.00000000
_cell_angle_gamma   120.00000067
_symmetry_Int_Tables_number   1
_chemical_formula_structural   Cs2LiAlF6
_chemical_formula_sum   'Cs2 Li1 Al1 F6'
_cell_volume   175.29617947
_cell_formula_units_Z   1
loop_
 _symmetry_equiv_pos_site_id
 _symmetry_equiv_pos_as_xyz
  1  'x, y, z'
loop_
 _atom_site_type_symbol
 _atom_site_label
 _atom_site_symmetry_multiplicity
 _atom_site_fract_x
 _atom_site_fract_y
 _atom_site_fract_z
 _atom_site_occupancy
  Cs  Cs0  1  0.33333300  0.66666700  0.22865500  1
  Cs  Cs1  1  0.66666700  0.33333300  0.77134500  1
  Li  Li0  1  0.00000000  0.00000000  0.00000000  1
  Al  Al0  1  0.00000000  0.00000000  0.50000000  1
  F  F0  1  0.86584600  0.13415400  0.28188000  1
  F  F1  1  0.13415400  0.86584600  0.71812000  1
  F  F2  1  0.86584600  0.73169100  0.28188000  1
  F  F3  1  0.13415400  0.26830900  0.71812000  1
  F  F4  1  0.26830900  0.13415400  0.28188000  1
  F  F5  1  0.73169100  0.86584600  0.71812000  1
loop_
_geom_bond_atom_site_label_1
_geom_bond_atom_site_label_2
_geom_bond_distance
_geom_bond_site_symmetry_2
Cs0 F2 3.180470 1_455
Cs0 F4 3.180470 1_565
Cs0 F0 3.180477 1_455
Cs0 F0 3.180477 1_565
Cs0 F4 3.180482 1_555
Cs0 F2 3.180482 1_555
Cs0 F5 3.310597 1_555
Cs0 F3 3.310597 1_555
Cs0 F1 3.310597 1_555
Cs0 F5 3.392461 1_554
Cs0 F3 3.392461 1_554
Cs0 F1 3.392461 1_554
Cs1 F3 3.180470 1_655
Cs1 F5 3.180470 1_545
Cs1 F1 3.180477 1_545
Cs1 F1 3.180477 1_655
Cs1 F5 3.180482 1_555
Cs1 F3 3.180482 1_555
Cs1 F4 3.310597 1_555
Cs1 F2 3.310597 1_555
Cs1 F0 3.310597 1_555
Cs1 F2 3.392461 1_556
Cs1 F4 3.392461 1_556
Cs1 F0 3.392461 1_556
Al0 F1 1.838632 1_545
Al0 F0 1.838632 1_455
Al0 F5 1.838636 1_445
Al0 F2 1.838636 1_445
Al0 F3 1.838636 1_555
Al0 F4 1.838636 1_555
F0 Li0 2.052033 1_655
F1 Li0 2.052033 1_566
F2 Li0 2.052037 1_665
F3 Li0 2.052037 1_556
F4 Li0 2.052037 1_555
F5 Li0 2.052037 1_666
