# generated using pymatgen
data_K2Nb2O5
_symmetry_space_group_name_H-M   'P 1'
_cell_length_a   9.05015606
_cell_length_b   9.05015606
_cell_length_c   9.05015606
_cell_angle_alpha   142.36233047
_cell_angle_beta   141.99204011
_cell_angle_gamma   54.56257074
_symmetry_Int_Tables_number   1
_chemical_formula_structural   K2Nb2O5
_chemical_formula_sum   'K4 Nb4 O10'
_cell_volume   276.80813906
_cell_formula_units_Z   2
loop_
 _symmetry_equiv_pos_site_id
 _symmetry_equiv_pos_as_xyz
  1  'x, y, z'
loop_
 _atom_site_type_symbol
 _atom_site_label
 _atom_site_symmetry_multiplicity
 _atom_site_fract_x
 _atom_site_fract_y
 _atom_site_fract_z
 _atom_site_occupancy
  K  K0  1  0.38764000  0.86577000  0.47618800  1
  K  K1  1  0.61041800  0.13423000  0.52187100  1
  K  K2  1  0.88764000  0.41145300  0.52187100  1
  K  K3  1  0.11041800  0.58854700  0.47618800  1
  Nb  Nb0  1  0.99401200  0.00000000  0.99401200  1
  Nb  Nb1  1  0.49401200  0.50000000  0.99401200  1
  Nb  Nb2  1  0.76524200  0.82855000  0.09379200  1
  Nb  Nb3  1  0.26524200  0.17145000  0.93669200  1
  O  O0  1  0.75019600  0.75277200  0.49879700  1
  O  O1  1  0.74602500  0.24722800  0.99742400  1
  O  O2  1  0.25019600  0.75139900  0.99742400  1
  O  O3  1  0.24602500  0.24860100  0.49879700  1
  O  O4  1  0.86341400  0.86451000  0.99205900  1
  O  O5  1  0.12754900  0.13549000  0.99890300  1
  O  O6  1  0.36341400  0.37135500  0.99890300  1
  O  O7  1  0.62754900  0.62864500  0.99205900  1
  O  O8  1  0.09150500  0.88791400  0.47941900  1
  O  O9  1  0.59150500  0.11208600  0.20359100  1
loop_
_geom_bond_atom_site_label_1
_geom_bond_atom_site_label_2
_geom_bond_distance
_geom_bond_site_symmetry_2
K0 O8 2.591362 1_555
K0 O0 2.690009 1_555
K0 O2 2.699875 1_554
K0 O6 2.786037 1_554
K0 O1 2.787869 1_565
K0 O3 2.798154 1_565
K0 O4 2.947158 1_555
K0 O4 2.988682 1_454
K0 O6 3.090738 1_565
K1 O9 2.591371 1_555
K1 O1 2.690001 1_555
K1 O3 2.699870 1_555
K1 O7 2.786033 1_555
K1 O0 2.787864 1_545
K1 O2 2.798152 1_544
K1 O5 2.947154 1_655
K1 O5 2.988690 1_554
K1 O7 3.090746 1_544
K2 O9 2.591364 1_555
K2 O2 2.690007 1_655
K2 O0 2.699872 1_555
K2 O4 2.786029 1_555
K2 O3 2.787872 1_655
K2 O1 2.798157 1_554
K2 O6 2.947154 1_655
K2 O6 2.988684 1_554
K2 O4 3.090748 1_544
K3 O8 2.591371 1_555
K3 O3 2.690001 1_555
K3 O1 2.699870 1_454
K3 O5 2.786037 1_554
K3 O2 2.787864 1_555
K3 O0 2.798152 1_455
K3 O7 2.947156 1_555
K3 O7 2.988686 1_454
K3 O5 3.090744 1_565
Nb0 O1 2.054451 1_555
Nb0 O0 2.054451 1_545
Nb0 O2 2.094411 1_645
Nb0 O3 2.094411 1_656
Nb0 O4 2.124676 1_545
Nb0 O5 2.124684 1_655
Nb1 O2 2.054451 1_555
Nb1 O3 2.054451 1_555
Nb1 O0 2.094411 1_556
Nb1 O1 2.094411 1_555
Nb1 O6 2.124668 1_555
Nb1 O7 2.124676 1_555
Nb2 O9 1.946606 1_565
Nb2 O8 1.954006 1_655
Nb2 O7 1.960080 1_554
Nb2 O4 1.960080 1_554
Nb3 O8 1.946606 1_545
Nb3 O9 1.954006 1_556
Nb3 O5 1.960072 1_555
Nb3 O6 1.960087 1_555
