# generated using pymatgen
data_Lu4Ge8Ru
_symmetry_space_group_name_H-M   'P 1'
_cell_length_a   3.98542000
_cell_length_b   4.13089300
_cell_length_c   15.95991700
_cell_angle_alpha   90.00000000
_cell_angle_beta   90.00000000
_cell_angle_gamma   90.00000000
_symmetry_Int_Tables_number   1
_chemical_formula_structural   Lu4Ge8Ru
_chemical_formula_sum   'Lu4 Ge8 Ru1'
_cell_volume   262.75359708
_cell_formula_units_Z   1
loop_
 _symmetry_equiv_pos_site_id
 _symmetry_equiv_pos_as_xyz
  1  'x, y, z'
loop_
 _atom_site_type_symbol
 _atom_site_label
 _atom_site_symmetry_multiplicity
 _atom_site_fract_x
 _atom_site_fract_y
 _atom_site_fract_z
 _atom_site_occupancy
  Lu  Lu0  1  0.25000000  0.00000000  0.09743800  1
  Lu  Lu1  1  0.25000000  0.50000000  0.61031500  1
  Lu  Lu2  1  0.75000000  0.50000000  0.39964000  1
  Lu  Lu3  1  0.75000000  0.00000000  0.89464300  1
  Ge  Ge0  1  0.25000000  0.00000000  0.46519500  1
  Ge  Ge1  1  0.25000000  0.50000000  0.94268600  1
  Ge  Ge2  1  0.75000000  0.50000000  0.05249800  1
  Ge  Ge3  1  0.75000000  0.00000000  0.56945800  1
  Ge  Ge4  1  0.25000000  0.50000000  0.22945400  1
  Ge  Ge5  1  0.25000000  0.00000000  0.74988000  1
  Ge  Ge6  1  0.75000000  0.00000000  0.22755600  1
  Ge  Ge7  1  0.75000000  0.50000000  0.75465300  1
  Ru  Ru0  1  0.25000000  0.00000000  0.31358600  1
loop_
_geom_bond_atom_site_label_1
_geom_bond_atom_site_label_2
_geom_bond_distance
_geom_bond_site_symmetry_2
Lu2 Ru0 3.181702 1_565
Lu2 Ru0 3.181702 1_555
Lu2 Ru0 3.181702 1_665
Lu2 Ru0 3.181702 1_655
Ge0 Ru0 2.419667 1_555
Ge0 Ge3 2.596129 1_455
Ge0 Ge3 2.596129 1_555
Ge0 Lu2 3.054768 1_545
Ge0 Lu2 3.054768 1_555
Ge0 Lu2 3.054768 1_445
Ge0 Lu2 3.054768 1_455
Ge0 Lu1 3.103289 1_555
Ge0 Lu1 3.103289 1_545
Ge1 Ge2 2.653765 1_556
Ge1 Ge2 2.653765 1_456
Ge1 Lu3 2.970671 1_455
Ge1 Lu3 2.970671 1_555
Ge1 Lu3 2.970671 1_465
Ge1 Lu3 2.970671 1_565
Ge1 Lu0 3.219647 1_556
Ge1 Lu0 3.219647 1_566
Ge2 Lu0 2.958275 1_555
Ge2 Lu0 2.958275 1_655
Ge2 Lu0 2.958275 1_565
Ge2 Lu0 2.958275 1_665
Ge2 Lu3 3.257792 1_554
Ge2 Lu3 3.257792 1_564
Ge3 Lu1 2.943155 1_645
Ge3 Lu1 2.943155 1_545
Ge3 Lu1 2.943155 1_655
Ge3 Lu1 2.943155 1_555
Ge3 Lu2 3.407593 1_545
Ge3 Lu2 3.407593 1_555
Ge4 Ru0 2.463538 1_555
Ge4 Ru0 2.463538 1_565
Ge4 Lu0 2.950486 1_555
Ge4 Lu0 2.950486 1_565
Ge4 Lu2 3.368737 1_455
Ge4 Lu2 3.368737 1_555
Ge5 Ge7 2.871022 1_555
Ge5 Ge7 2.871022 1_455
Ge5 Ge7 2.871022 1_445
Ge5 Ge7 2.871022 1_545
Ge5 Lu1 3.037694 1_545
Ge5 Lu1 3.037694 1_555
Ge5 Lu3 3.051044 1_455
Ge5 Lu3 3.051044 1_555
Ge6 Ru0 2.419940 1_655
Ge6 Ru0 2.419940 1_555
Ge6 Lu0 2.878100 1_555
Ge6 Lu0 2.878100 1_655
Ge6 Lu2 3.436428 1_545
Ge6 Lu2 3.436428 1_555
Ge7 Lu3 3.042671 1_555
Ge7 Lu3 3.042671 1_565
Ge7 Lu1 3.045910 1_555
Ge7 Lu1 3.045910 1_655
