# generated using pymatgen
data_CsOsC3(ClO)3
_symmetry_space_group_name_H-M   'P 1'
_cell_length_a   9.33448500
_cell_length_b   10.15472500
_cell_length_c   11.38237248
_cell_angle_alpha   88.88960060
_cell_angle_beta   90.00000000
_cell_angle_gamma   90.00000000
_symmetry_Int_Tables_number   1
_chemical_formula_structural   CsOsC3(ClO)3
_chemical_formula_sum   'Cs4 Os4 C12 Cl12 O12'
_cell_volume   1078.72255427
_cell_formula_units_Z   4
loop_
 _symmetry_equiv_pos_site_id
 _symmetry_equiv_pos_as_xyz
  1  'x, y, z'
loop_
 _atom_site_type_symbol
 _atom_site_label
 _atom_site_symmetry_multiplicity
 _atom_site_fract_x
 _atom_site_fract_y
 _atom_site_fract_z
 _atom_site_occupancy
  Cs  Cs0  1  0.24758000  0.88142300  0.04260100  1
  Cs  Cs1  1  0.74758000  0.11857700  0.45739900  1
  Cs  Cs2  1  0.75242000  0.11857700  0.95739900  1
  Cs  Cs3  1  0.25242000  0.88142300  0.54260100  1
  Os  Os0  1  0.11953600  0.29578300  0.70961400  1
  Os  Os1  1  0.61953600  0.70421700  0.79038600  1
  Os  Os2  1  0.88046400  0.70421700  0.29038600  1
  Os  Os3  1  0.38046400  0.29578300  0.20961400  1
  C  C0  1  0.11952200  0.36757600  0.86179700  1
  C  C1  1  0.61952200  0.63242400  0.63820300  1
  C  C2  1  0.88047800  0.63242400  0.13820300  1
  C  C3  1  0.38047800  0.36757600  0.36179700  1
  C  C4  1  0.12922200  0.46422400  0.63572000  1
  C  C5  1  0.62922200  0.53577600  0.86428000  1
  C  C6  1  0.87077800  0.53577600  0.36428000  1
  C  C7  1  0.37077800  0.46422400  0.13572000  1
  C  C8  1  0.32149300  0.27579100  0.70947000  1
  C  C9  1  0.82149300  0.72420900  0.79053000  1
  C  C10  1  0.67850700  0.72420900  0.29053000  1
  C  C11  1  0.17850700  0.27579100  0.20947000  1
  Cl  Cl0  1  0.10934900  0.19771000  0.51435400  1
  Cl  Cl1  1  0.60934900  0.80229000  0.98564600  1
  Cl  Cl2  1  0.89065100  0.80229000  0.48564600  1
  Cl  Cl3  1  0.39065100  0.19771000  0.01435400  1
  Cl  Cl4  1  0.08724800  0.07113300  0.79167300  1
  Cl  Cl5  1  0.58724800  0.92886700  0.70832700  1
  Cl  Cl6  1  0.91275200  0.92886700  0.20832700  1
  Cl  Cl7  1  0.41275200  0.07113300  0.29167300  1
  Cl  Cl8  1  0.85688900  0.31402500  0.70488400  1
  Cl  Cl9  1  0.35688900  0.68597500  0.79511600  1
  Cl  Cl10  1  0.14311100  0.68597500  0.29511600  1
  Cl  Cl11  1  0.64311100  0.31402500  0.20488400  1
  O  O0  1  0.11626700  0.41227700  0.95464000  1
  O  O1  1  0.61626700  0.58772300  0.54536000  1
  O  O2  1  0.88373300  0.58772300  0.04536000  1
  O  O3  1  0.38373300  0.41227700  0.45464000  1
  O  O4  1  0.13215300  0.56600100  0.58806900  1
  O  O5  1  0.63215300  0.43399900  0.91193100  1
  O  O6  1  0.86784700  0.43399900  0.41193100  1
  O  O7  1  0.36784700  0.56600100  0.08806900  1
  O  O8  1  0.44491100  0.26267300  0.70623500  1
  O  O9  1  0.94491100  0.73732700  0.79376500  1
  O  O10  1  0.55508900  0.73732700  0.29376500  1
  O  O11  1  0.05508900  0.26267300  0.20623500  1
loop_
_geom_bond_atom_site_label_1
_geom_bond_atom_site_label_2
_geom_bond_distance
_geom_bond_site_symmetry_2
Cs0 O7 3.423924 1_555
Cs1 O6 3.423924 1_555
Cs2 O5 3.423924 1_555
Cs3 O4 3.423924 1_555
C0 O0 1.158592 1_555
C0 Os0 1.892345 1_555
C1 O1 1.158592 1_555
C1 Os1 1.892345 1_555
C2 O2 1.158592 1_555
C2 Os2 1.892345 1_555
C3 O3 1.158592 1_555
C3 Os3 1.892345 1_555
C4 O4 1.158170 1_555
C4 Os0 1.893558 1_555
C5 O5 1.158170 1_555
C5 Os1 1.893558 1_555
C6 O6 1.158170 1_555
C6 Os2 1.893558 1_555
C7 O7 1.158170 1_555
C7 Os3 1.893558 1_555
C8 O8 1.160386 1_555
C8 Os0 1.896068 1_555
C9 O9 1.160386 1_555
C9 Os1 1.896068 1_555
C10 O10 1.160386 1_555
C10 Os2 1.896068 1_555
C11 O11 1.160386 1_555
C11 Os3 1.896068 1_555
Cl0 Os0 2.454844 1_555
Cl0 Cs3 3.487492 1_545
Cl0 Cs1 3.534095 1_455
Cl1 Os1 2.454844 1_555
Cl1 Cs2 3.487492 1_565
Cl1 Cs0 3.534095 1_556
Cl2 Os2 2.454844 1_555
Cl2 Cs1 3.487492 1_565
Cl2 Cs3 3.534095 1_655
Cl3 Os3 2.454844 1_555
Cl3 Cs0 3.487492 1_545
Cl3 Cs2 3.534095 1_554
Cl4 Os0 2.466739 1_555
Cl4 Cs2 3.687016 1_455
Cl4 Cs0 3.727661 1_546
Cl4 Cs3 3.786480 1_545
Cl5 Os1 2.466739 1_555
Cl5 Cs3 3.687016 1_555
Cl5 Cs1 3.727661 1_565
Cl5 Cs2 3.786480 1_565
Cl6 Os2 2.466739 1_555
Cl6 Cs0 3.687016 1_655
Cl6 Cs2 3.727661 1_564
Cl6 Cs1 3.786480 1_565
Cl7 Os3 2.466739 1_555
Cl7 Cs1 3.687016 1_555
Cl7 Cs3 3.727661 1_545
Cl7 Cs0 3.786480 1_545
Cl8 Os0 2.459174 1_655
Cl8 Cs2 3.595846 1_555
Cl8 Cs1 3.623839 1_555
Cl9 Os1 2.459174 1_555
Cl9 Cs3 3.595846 1_555
Cl9 Cs0 3.623839 1_556
Cl10 Os2 2.459174 1_455
Cl10 Cs0 3.595846 1_555
Cl10 Cs3 3.623839 1_555
Cl11 Os3 2.459174 1_555
Cl11 Cs1 3.595846 1_555
Cl11 Cs2 3.623839 1_554
