# generated using pymatgen
data_B5H5CI
_symmetry_space_group_name_H-M   'P 1'
_cell_length_a   7.53075000
_cell_length_b   26.35874500
_cell_length_c   7.98200891
_cell_angle_alpha   90.00000000
_cell_angle_beta   95.52087964
_cell_angle_gamma   90.00000000
_symmetry_Int_Tables_number   1
_chemical_formula_structural   B5H5CI
_chemical_formula_sum   'B40 H40 C8 I8'
_cell_volume   1577.08781671
_cell_formula_units_Z   8
loop_
 _symmetry_equiv_pos_site_id
 _symmetry_equiv_pos_as_xyz
  1  'x, y, z'
loop_
 _atom_site_type_symbol
 _atom_site_label
 _atom_site_symmetry_multiplicity
 _atom_site_fract_x
 _atom_site_fract_y
 _atom_site_fract_z
 _atom_site_occupancy
  B  B0  1  0.83862200  0.91737400  0.69450900  1
  B  B1  1  0.16137800  0.41737400  0.80549100  1
  B  B2  1  0.16137800  0.08262600  0.30549100  1
  B  B3  1  0.83862200  0.58262600  0.19450900  1
  B  B4  1  0.76449800  0.89655600  0.48693100  1
  B  B5  1  0.23550200  0.39655600  0.01306900  1
  B  B6  1  0.23550200  0.10344400  0.51306900  1
  B  B7  1  0.76449800  0.60344400  0.98693100  1
  B  B8  1  0.64441600  0.83865800  0.50185900  1
  B  B9  1  0.35558400  0.33865800  0.99814100  1
  B  B10  1  0.35558400  0.16134200  0.49814100  1
  B  B11  1  0.64441600  0.66134200  0.00185900  1
  B  B12  1  0.64394700  0.82286100  0.71892900  1
  B  B13  1  0.35605300  0.32286100  0.78107100  1
  B  B14  1  0.35605300  0.17713900  0.28107100  1
  B  B15  1  0.64394700  0.67713900  0.21892900  1
  B  B16  1  0.98868800  0.87074300  0.78637100  1
  B  B17  1  0.01131200  0.37074300  0.71362900  1
  B  B18  1  0.01131200  0.12925700  0.21362900  1
  B  B19  1  0.98868800  0.62925700  0.28637100  1
  B  B20  1  0.98920300  0.88643600  0.56981200  1
  B  B21  1  0.01079700  0.38643600  0.93018800  1
  B  B22  1  0.01079700  0.11356400  0.43018800  1
  B  B23  1  0.98920300  0.61356400  0.06981200  1
  B  B24  1  0.86925500  0.83760600  0.45047300  1
  B  B25  1  0.13074500  0.33760600  0.04952700  1
  B  B26  1  0.13074500  0.16239400  0.54952700  1
  B  B27  1  0.86925500  0.66239400  0.95047300  1
  B  B28  1  0.79352800  0.79255600  0.59610000  1
  B  B29  1  0.20647200  0.29255600  0.90390000  1
  B  B30  1  0.20647200  0.20744400  0.40390000  1
  B  B31  1  0.79352800  0.70744400  0.09610000  1
  B  B32  1  0.86946900  0.81325700  0.80102300  1
  B  B33  1  0.13053100  0.31325700  0.69897700  1
  B  B34  1  0.13053100  0.18674300  0.19897700  1
  B  B35  1  0.86946900  0.68674300  0.30102300  1
  B  B36  1  0.00785700  0.82157100  0.63575100  1
  B  B37  1  0.99214300  0.32157100  0.86424900  1
  B  B38  1  0.99214300  0.17842900  0.36424900  1
  B  B39  1  0.00785700  0.67842900  0.13575100  1
  H  H0  1  0.52106000  0.90621800  0.66948700  1
  H  H1  1  0.47894000  0.40621800  0.83051300  1
  H  H2  1  0.47894000  0.09378200  0.33051300  1
  H  H3  1  0.52106000  0.59378200  0.16948700  1
  H  H4  1  0.72335400  0.88258400  0.94032700  1
  H  H5  1  0.27664600  0.38258500  0.55967300  1
  H  H6  1  0.27664600  0.11741600  0.05967300  1
  H  H7  1  0.72335400  0.61741600  0.44032700  1
  H  H8  1  0.83213400  0.95986900  0.74266900  1
  H  H9  1  0.16786600  0.45986900  0.75733100  1
  H  H10  1  0.16786600  0.04013100  0.25733100  1
  H  H11  1  0.83213400  0.54013100  0.24266900  1
  H  H12  1  0.51308400  0.83096600  0.41064200  1
  H  H13  1  0.48691600  0.33096600  0.08935800  1
  H  H14  1  0.48691600  0.16903400  0.58935800  1
  H  H15  1  0.51308400  0.66903400  0.91064200  1
  H  H16  1  0.51821800  0.80699800  0.78090200  1
  H  H17  1  0.48178200  0.30699800  0.71909800  1
  H  H18  1  0.48178200  0.19300200  0.21909800  1
  H  H19  1  0.51821800  0.69300200  0.28090200  1
  H  H20  1  0.10742500  0.91012900  0.51890900  1
  H  H21  1  0.89257500  0.41012900  0.98109100  1
  H  H22  1  0.89257500  0.08987100  0.48109100  1
  H  H23  1  0.10742500  0.58987100  0.01890900  1
  H  H24  1  0.90549300  0.82653500  0.31296600  1
  H  H25  1  0.09450700  0.32653500  0.18703400  1
  H  H26  1  0.09450700  0.17346500  0.68703400  1
  H  H27  1  0.90549300  0.67346500  0.81296600  1
  H  H28  1  0.76984600  0.74871300  0.57004100  1
  H  H29  1  0.23015400  0.24871300  0.92995900  1
  H  H30  1  0.23015400  0.25128700  0.42995900  1
  H  H31  1  0.76984600  0.75128700  0.07004100  1
  H  H32  1  0.89945800  0.78799300  0.92214200  1
  H  H33  1  0.10054200  0.28799300  0.57785800  1
  H  H34  1  0.10054200  0.21200700  0.07785800  1
  H  H35  1  0.89945800  0.71200700  0.42214200  1
  H  H36  1  0.14204300  0.79778200  0.63260600  1
  H  H37  1  0.85795700  0.29778200  0.86739400  1
  H  H38  1  0.85795700  0.20221800  0.36739400  1
  H  H39  1  0.14204300  0.70221800  0.13260600  1
  C  C0  1  0.64148800  0.88475600  0.65093500  1
  C  C1  1  0.35851200  0.38475600  0.84906500  1
  C  C2  1  0.35851200  0.11524400  0.34906500  1
  C  C3  1  0.64148800  0.61524400  0.15093500  1
  C  C4  1  0.76864900  0.87005500  0.82060200  1
  C  C5  1  0.23135100  0.37005500  0.67939800  1
  C  C6  1  0.23135100  0.12994500  0.17939800  1
  C  C7  1  0.76864900  0.62994500  0.32060200  1
  I  I0  1  0.68286600  0.95422900  0.30006700  1
  I  I1  1  0.31713400  0.45422900  0.19993300  1
  I  I2  1  0.31713400  0.04577100  0.69993300  1
  I  I3  1  0.68286600  0.54577100  0.80006700  1
  I  I4  1  0.18612800  0.89445200  0.98785000  1
  I  I5  1  0.81387200  0.39445200  0.51215000  1
  I  I6  1  0.81387200  0.10554800  0.01215000  1
  I  I7  1  0.18612800  0.60554800  0.48785000  1
loop_
_geom_bond_atom_site_label_1
_geom_bond_atom_site_label_2
_geom_bond_distance
_geom_bond_site_symmetry_2
B0 H8 1.186774 1_555
B0 C4 1.717091 1_555
B0 C0 1.721848 1_555
B0 B16 1.779359 1_555
B0 B4 1.783263 1_555
B1 H9 1.186774 1_555
B1 C5 1.717091 1_555
B1 C1 1.721848 1_555
B1 B17 1.779359 1_555
B1 B5 1.783263 1_556
B2 H10 1.186774 1_555
B2 C6 1.717091 1_555
B2 C2 1.721848 1_555
B2 B6 1.783263 1_555
B3 H11 1.186774 1_555
B3 C7 1.717091 1_555
B3 C3 1.721848 1_555
B3 B7 1.783263 1_554
B4 C0 1.703500 1_555
B4 B8 1.783744 1_555
B4 I0 2.176506 1_555
B5 C1 1.703500 1_554
B5 B9 1.783744 1_554
B5 I1 2.176506 1_555
B6 C2 1.703500 1_555
B6 I2 2.176506 1_555
B7 C3 1.703500 1_556
B7 I3 2.176506 1_555
B8 H12 1.187791 1_555
B8 C0 1.702319 1_555
B9 H13 1.187791 1_556
B9 C1 1.702319 1_555
B10 H14 1.187791 1_555
B10 C2 1.702319 1_555
B10 B6 1.783744 1_555
B11 H15 1.187791 1_554
B11 C3 1.702319 1_555
B11 B7 1.783744 1_554
B12 H16 1.185810 1_555
B12 C4 1.715038 1_555
B12 C0 1.718916 1_555
B13 H17 1.185810 1_555
B13 C5 1.715038 1_555
B13 C1 1.718916 1_555
B14 H18 1.185810 1_555
B14 C6 1.715038 1_555
B14 C2 1.718916 1_555
B15 H19 1.185810 1_555
B15 C7 1.715038 1_555
B15 C3 1.718916 1_555
B16 C4 1.705270 1_555
B16 B32 1.770862 1_555
B16 B20 1.777747 1_555
B16 B36 1.783128 1_655
B16 I4 2.174295 1_655
B17 C5 1.705270 1_555
B17 B33 1.770862 1_555
B17 B21 1.777747 1_555
B17 B37 1.783128 1_455
B17 I5 2.174295 1_455
B18 C6 1.705270 1_555
B18 B34 1.770862 1_555
B18 B22 1.777747 1_555
B18 B2 1.779359 1_555
B18 B38 1.783128 1_455
B18 I6 2.174295 1_455
B19 C7 1.705270 1_555
B19 B35 1.770862 1_555
B19 B23 1.777747 1_555
B19 B3 1.779359 1_555
B19 B39 1.783128 1_655
B19 I7 2.174295 1_655
B20 H20 1.190524 1_655
B20 B4 1.776777 1_555
B21 H21 1.190524 1_455
B21 B5 1.776777 1_556
B22 H22 1.190524 1_455
B22 B6 1.776777 1_555
B23 H23 1.190524 1_655
B23 B7 1.776777 1_554
B24 H24 1.192457 1_555
B24 B4 1.779232 1_555
B25 H25 1.192457 1_555
B25 B5 1.779232 1_555
B26 H26 1.192457 1_555
B26 B6 1.779232 1_555
B27 H27 1.192457 1_555
B27 B7 1.779232 1_555
B28 H28 1.184674 1_555
B29 H29 1.184674 1_555
B30 H30 1.184674 1_555
B31 H31 1.184674 1_555
B32 H32 1.177753 1_555
B32 C4 1.692659 1_555
B33 H33 1.177753 1_555
B33 C5 1.692659 1_555
B34 H34 1.177753 1_555
B34 C6 1.692659 1_555
B35 H35 1.177753 1_555
B35 C7 1.692659 1_555
B36 H36 1.191576 1_555
B37 H37 1.191576 1_555
B38 H38 1.191576 1_555
B39 H39 1.191576 1_555
C0 H0 1.091004 1_555
C1 H1 1.091004 1_555
C2 H2 1.091004 1_555
C3 H3 1.091004 1_555
C4 H4 1.096084 1_555
C5 H5 1.096092 1_555
C6 H6 1.096084 1_555
C7 H7 1.096084 1_555
