# generated using pymatgen
data_SiSnPt5
_symmetry_space_group_name_H-M   'P 1'
_cell_length_a   3.98299386
_cell_length_b   3.98299386
_cell_length_c   7.04313587
_cell_angle_alpha   90.00000000
_cell_angle_beta   90.00000000
_cell_angle_gamma   90.00000000
_symmetry_Int_Tables_number   1
_chemical_formula_structural   SiSnPt5
_chemical_formula_sum   'Si1 Sn1 Pt5'
_cell_volume   111.73399842
_cell_formula_units_Z   1
loop_
 _symmetry_equiv_pos_site_id
 _symmetry_equiv_pos_as_xyz
  1  'x, y, z'
loop_
 _atom_site_type_symbol
 _atom_site_label
 _atom_site_symmetry_multiplicity
 _atom_site_fract_x
 _atom_site_fract_y
 _atom_site_fract_z
 _atom_site_occupancy
  Si  Si0  1  0.00000000  -0.00000000  0.50000000  1
  Sn  Sn0  1  0.50000000  0.50000000  -0.00000000  1
  Pt  Pt0  1  0.00000000  0.50000000  0.29554999  1
  Pt  Pt1  1  -0.00000000  0.50000000  0.70445001  1
  Pt  Pt2  1  0.50000000  -0.00000000  0.29554999  1
  Pt  Pt3  1  0.50000000  -0.00000000  0.70445001  1
  Pt  Pt4  1  0.00000000  -0.00000000  -0.00000000  1
loop_
_geom_bond_atom_site_label_1
_geom_bond_atom_site_label_2
_geom_bond_distance
_geom_bond_site_symmetry_2
Pt0 Si0 2.457554 1_565
Pt0 Si0 2.457554 1_555
Pt0 Pt4 2.880818 1_565
Pt0 Sn0 2.880818 1_555
Pt0 Sn0 2.880818 1_455
Pt0 Pt4 2.880818 1_555
Pt1 Si0 2.457554 1_565
Pt1 Si0 2.457554 1_555
Pt1 Pt4 2.880818 1_566
Pt1 Sn0 2.880818 1_456
Pt1 Pt4 2.880818 1_556
Pt1 Sn0 2.880818 1_556
Pt2 Si0 2.457554 1_655
Pt2 Si0 2.457554 1_555
Pt2 Sn0 2.880818 1_545
Pt2 Sn0 2.880818 1_555
Pt2 Pt4 2.880818 1_655
Pt2 Pt4 2.880818 1_555
Pt3 Si0 2.457554 1_655
Pt3 Si0 2.457554 1_555
Pt3 Pt4 2.880818 1_656
Pt3 Sn0 2.880818 1_546
Pt3 Pt4 2.880818 1_556
Pt3 Sn0 2.880818 1_556
Pt4 Sn0 2.816402 1_555
Pt4 Sn0 2.816402 1_445
Pt4 Sn0 2.816402 1_455
Pt4 Sn0 2.816402 1_545
