# generated using pymatgen
data_ZrNb3C4
_symmetry_space_group_name_H-M   'P 1'
_cell_length_a   10.71246335
_cell_length_b   10.71246335
_cell_length_c   10.71246293
_cell_angle_alpha   17.28139472
_cell_angle_beta   17.28139472
_cell_angle_gamma   17.28139448
_symmetry_Int_Tables_number   1
_chemical_formula_structural   ZrNb3C4
_chemical_formula_sum   'Zr1 Nb3 C4'
_cell_volume   94.66307850
_cell_formula_units_Z   1
loop_
 _symmetry_equiv_pos_site_id
 _symmetry_equiv_pos_as_xyz
  1  'x, y, z'
loop_
 _atom_site_type_symbol
 _atom_site_label
 _atom_site_symmetry_multiplicity
 _atom_site_fract_x
 _atom_site_fract_y
 _atom_site_fract_z
 _atom_site_occupancy
  Zr  Zr0  1  0.00000000  0.00000000  0.00000000  1
  Nb  Nb0  1  0.24826500  0.24826500  0.24826500  1
  Nb  Nb1  1  0.50000000  0.50000000  0.50000000  1
  Nb  Nb2  1  0.75173500  0.75173500  0.75173500  1
  C  C0  1  0.37771100  0.37771100  0.37771100  1
  C  C1  1  0.12577200  0.12577200  0.12577200  1
  C  C2  1  0.62228900  0.62228900  0.62228900  1
  C  C3  1  0.87422800  0.87422800  0.87422800  1
loop_
_geom_bond_atom_site_label_1
_geom_bond_atom_site_label_2
_geom_bond_distance
_geom_bond_site_symmetry_2
C0 Nb2 2.261021 1_545
C0 Nb2 2.261021 1_455
C0 Nb2 2.261021 1_554
C0 Zr0 2.329464 1_655
C0 Zr0 2.329464 1_565
C0 Zr0 2.329465 1_556
C1 Nb2 2.261255 1_454
C1 Nb2 2.261255 1_544
C1 Nb2 2.261255 1_445
C1 Nb1 2.264705 1_545
C1 Nb1 2.264705 1_455
C1 Nb1 2.264705 1_554
C2 Nb0 2.261021 1_565
C2 Nb0 2.261021 1_655
C2 Nb0 2.261021 1_556
C2 Zr0 2.329464 1_656
C2 Zr0 2.329464 1_566
C2 Zr0 2.329465 1_665
C3 Nb0 2.261255 1_656
C3 Nb0 2.261255 1_566
C3 Nb0 2.261255 1_665
C3 Nb1 2.264705 1_655
C3 Nb1 2.264705 1_565
C3 Nb1 2.264705 1_556
