# generated using pymatgen
data_Er3Ni19B10
_symmetry_space_group_name_H-M   'P 1'
_cell_length_a   7.85645782
_cell_length_b   7.85645782
_cell_length_c   5.75221640
_cell_angle_alpha   88.90634842
_cell_angle_beta   88.90634842
_cell_angle_gamma   66.96653132
_symmetry_Int_Tables_number   1
_chemical_formula_structural   Er3Ni19B10
_chemical_formula_sum   'Er3 Ni19 B10'
_cell_volume   326.65803461
_cell_formula_units_Z   1
loop_
 _symmetry_equiv_pos_site_id
 _symmetry_equiv_pos_as_xyz
  1  'x, y, z'
loop_
 _atom_site_type_symbol
 _atom_site_label
 _atom_site_symmetry_multiplicity
 _atom_site_fract_x
 _atom_site_fract_y
 _atom_site_fract_z
 _atom_site_occupancy
  Er  Er0  1  0.00000000  0.00000000  0.00000000  1
  Er  Er1  1  0.62541200  0.62541200  0.61596500  1
  Er  Er2  1  0.37458800  0.37458800  0.38403500  1
  Ni  Ni0  1  0.00000000  0.00000000  0.50000000  1
  Ni  Ni1  1  0.62220300  0.62220300  0.12829300  1
  Ni  Ni2  1  0.37779700  0.37779700  0.87170700  1
  Ni  Ni3  1  0.16254500  0.16254500  0.29635800  1
  Ni  Ni4  1  0.83745500  0.83745500  0.70364200  1
  Ni  Ni5  1  0.18191200  0.18191200  0.72941800  1
  Ni  Ni6  1  0.81808800  0.81808800  0.27058200  1
  Ni  Ni7  1  0.48308700  0.95511700  0.30262700  1
  Ni  Ni8  1  0.95511700  0.48308700  0.30262700  1
  Ni  Ni9  1  0.51691300  0.04488300  0.69737300  1
  Ni  Ni10  1  0.04488300  0.51691300  0.69737300  1
  Ni  Ni11  1  0.12208600  0.62338700  0.07328000  1
  Ni  Ni12  1  0.62338700  0.12208600  0.07328000  1
  Ni  Ni13  1  0.87791400  0.37661300  0.92672000  1
  Ni  Ni14  1  0.37661300  0.87791400  0.92672000  1
  Ni  Ni15  1  0.77000600  0.28958300  0.30169100  1
  Ni  Ni16  1  0.28958300  0.77000600  0.30169100  1
  Ni  Ni17  1  0.22999400  0.71041700  0.69830900  1
  Ni  Ni18  1  0.71041700  0.22999400  0.69830900  1
  B  B0  1  0.38461100  0.61538900  0.00000000  1
  B  B1  1  0.61538900  0.38461100  0.00000000  1
  B  B2  1  0.65019900  0.85764200  0.97470900  1
  B  B3  1  0.85764200  0.65019900  0.97470900  1
  B  B4  1  0.34980100  0.14235800  0.02529100  1
  B  B5  1  0.14235800  0.34980100  0.02529100  1
  B  B6  1  0.93487300  0.30086200  0.56955900  1
  B  B7  1  0.30086200  0.93487300  0.56955900  1
  B  B8  1  0.06512700  0.69913800  0.43044100  1
  B  B9  1  0.69913800  0.06512700  0.43044100  1
loop_
_geom_bond_atom_site_label_1
_geom_bond_atom_site_label_2
_geom_bond_distance
_geom_bond_site_symmetry_2
Er0 Ni11 2.756702 1_545
Er0 Ni13 2.756702 1_454
Er0 Ni12 2.756702 1_455
Er0 Ni14 2.756702 1_544
Er0 Ni3 2.758627 1_555
Er0 Ni4 2.758627 1_444
Er0 Ni6 2.817129 1_445
Er0 Ni5 2.817129 1_554
Er0 Ni15 2.875189 1_455
Er0 Ni16 2.875189 1_545
Er0 Ni17 2.875189 1_544
Er0 Ni18 2.875189 1_454
Er0 Ni0 2.876108 1_555
Er0 Ni0 2.876108 1_554
Er1 Ni1 2.806472 1_555
Er1 Ni14 2.814067 1_555
Er1 Ni13 2.814067 1_555
Er1 Ni4 2.835617 1_555
Er1 Ni18 2.941702 1_555
Er1 Ni17 2.941702 1_555
Er1 Ni1 2.946359 1_556
Er1 Ni7 2.973347 1_555
Er1 Ni8 2.973347 1_555
Er1 Ni16 3.045989 1_555
Er1 Ni15 3.045989 1_555
Er1 Ni9 3.106761 1_565
Er1 Ni10 3.106761 1_655
Er1 Ni6 3.177021 1_555
Er2 Ni2 2.806472 1_555
Er2 Ni11 2.814067 1_555
Er2 Ni12 2.814067 1_555
Er2 Ni3 2.835617 1_555
Er2 Ni15 2.941702 1_555
Er2 Ni16 2.941702 1_555
Er2 Ni2 2.946359 1_554
Er2 Ni9 2.973347 1_555
Er2 Ni10 2.973347 1_555
Er2 Ni18 3.045989 1_555
Er2 Ni17 3.045989 1_555
Er2 Ni7 3.106761 1_545
Er2 Ni8 3.106761 1_455
Er2 Ni5 3.177021 1_555
Ni0 Ni3 2.407430 1_555
Ni0 Ni4 2.407430 1_445
Ni3 Ni7 2.405975 1_545
Ni3 Ni8 2.405975 1_455
Ni3 Ni5 2.509723 1_555
Ni4 Ni9 2.405975 1_565
Ni4 Ni6 2.509723 1_555
Ni10 Ni4 2.405975 1_455
B0 B1 2.000548 1_555
B0 Ni1 2.040605 1_555
B0 Ni2 2.040605 1_554
B0 Ni11 2.074129 1_555
B0 Ni14 2.074129 1_554
B0 Ni17 2.089472 1_554
B0 Ni16 2.089472 1_555
B0 Er1 2.900963 1_554
B0 Er2 2.900963 1_555
B1 Ni1 2.040605 1_555
B1 Ni2 2.040605 1_554
B1 Ni13 2.074129 1_554
B1 Ni12 2.074129 1_555
B1 Ni18 2.089472 1_554
B1 Ni15 2.089472 1_555
B1 Er1 2.900963 1_554
B1 Er2 2.900963 1_555
B2 B3 1.798264 1_555
B2 Ni4 2.088061 1_555
B2 Ni12 2.092892 1_566
B2 Ni14 2.115335 1_555
B2 Ni6 2.116049 1_556
B2 Ni1 2.121057 1_556
B2 Ni9 2.138749 1_565
B2 Ni7 2.245432 1_556
B2 Er1 2.839397 1_555
B3 Ni4 2.088061 1_555
B3 Ni11 2.092892 1_656
B3 Ni13 2.115335 1_555
B3 Ni6 2.116049 1_556
B3 Ni1 2.121057 1_556
B3 Ni10 2.138749 1_655
B3 Ni8 2.245432 1_556
B3 Er1 2.839397 1_555
B4 B5 1.798264 1_555
B4 Ni3 2.088061 1_555
B4 Ni14 2.092892 1_544
B4 Ni12 2.115335 1_555
B4 Ni5 2.116049 1_554
B4 Ni2 2.121057 1_554
B4 Ni7 2.138749 1_545
B4 Ni9 2.245432 1_554
B4 Er2 2.839397 1_555
B5 Ni3 2.088061 1_555
B5 Ni13 2.092892 1_454
B5 Ni11 2.115335 1_555
B5 Ni5 2.116049 1_554
B5 Ni2 2.121057 1_554
B5 Ni8 2.138749 1_455
B5 Ni10 2.245432 1_554
B5 Er2 2.839397 1_555
B6 Ni5 2.025285 1_655
B6 Ni15 2.056931 1_555
B6 Ni8 2.125430 1_555
B6 Ni13 2.139731 1_555
B6 Ni18 2.161223 1_555
B6 Ni0 2.256298 1_655
B6 Ni3 2.299302 1_655
B6 Ni10 2.321335 1_655
B6 Er1 2.762952 1_555
B7 Ni5 2.025285 1_565
B7 Ni16 2.056931 1_555
B7 Ni7 2.125430 1_555
B7 Ni14 2.139731 1_555
B7 Ni17 2.161223 1_555
B7 Ni0 2.256298 1_565
B7 Ni3 2.299302 1_565
B7 Ni9 2.321335 1_565
B7 Er1 2.762952 1_555
B8 Ni6 2.025285 1_455
B8 Ni17 2.056931 1_555
B8 Ni10 2.125430 1_555
B8 Ni11 2.139731 1_555
B8 Ni16 2.161223 1_555
B8 Ni0 2.256298 1_565
B8 Ni4 2.299302 1_455
B8 Ni8 2.321335 1_455
B8 Er2 2.762952 1_555
B9 Ni6 2.025285 1_545
B9 Ni18 2.056931 1_555
B9 Ni9 2.125430 1_555
B9 Ni12 2.139731 1_555
B9 Ni15 2.161223 1_555
B9 Ni0 2.256298 1_655
B9 Ni4 2.299302 1_545
B9 Ni7 2.321335 1_545
B9 Er2 2.762952 1_555
