# generated using pymatgen
data_ZnC4(N2O)4
_symmetry_space_group_name_H-M   'P 1'
_cell_length_a   10.05779376
_cell_length_b   10.05779376
_cell_length_c   10.05779376
_cell_angle_alpha   120.66011790
_cell_angle_beta   120.66011790
_cell_angle_gamma   88.86039505
_symmetry_Int_Tables_number   1
_chemical_formula_structural   ZnC4(N2O)4
_chemical_formula_sum   'Zn2 C8 N16 O8'
_cell_volume   712.10658470
_cell_formula_units_Z   2
loop_
 _symmetry_equiv_pos_site_id
 _symmetry_equiv_pos_as_xyz
  1  'x, y, z'
loop_
 _atom_site_type_symbol
 _atom_site_label
 _atom_site_symmetry_multiplicity
 _atom_site_fract_x
 _atom_site_fract_y
 _atom_site_fract_z
 _atom_site_occupancy
  Zn  Zn0  1  0.75000000  0.25000000  0.50000000  1
  Zn  Zn1  1  0.00000000  0.00000000  0.00000000  1
  C  C0  1  0.05300200  0.12500000  0.42800200  1
  C  C1  1  0.69699800  0.62500000  0.57199800  1
  C  C2  1  0.87500000  0.30300200  0.92800200  1
  C  C3  1  0.37500000  0.94699800  0.07199800  1
  C  C4  1  0.90533800  0.12500000  0.28033800  1
  C  C5  1  0.84466200  0.62500000  0.71966200  1
  C  C6  1  0.87500000  0.15533800  0.78033800  1
  C  C7  1  0.37500000  0.09466200  0.21966200  1
  N  N0  1  0.24110000  0.12847200  0.20692000  1
  N  N1  1  0.92155300  0.03418100  0.79308000  1
  N  N2  1  0.87152800  0.07844700  0.11262800  1
  N  N3  1  0.50890000  0.21581900  0.38737200  1
  N  N4  1  0.96581900  0.75890000  0.88737200  1
  N  N5  1  0.82844700  0.12152800  0.61262800  1
  N  N6  1  0.87847200  0.49110000  0.70692000  1
  N  N7  1  0.78418100  0.17155300  0.29308000  1
  N  N8  1  0.29561400  0.27508500  0.37217200  1
  N  N9  1  0.90291300  0.92344300  0.62782800  1
  N  N10  1  0.72491500  0.09708700  0.02052900  1
  N  N11  1  0.45438600  0.32655700  0.47947100  1
  N  N12  1  0.07655700  0.70438600  0.97947100  1
  N  N13  1  0.84708700  0.97491500  0.52052900  1
  N  N14  1  0.02508500  0.54561400  0.87217200  1
  N  N15  1  0.67344300  0.15291300  0.12782800  1
  O  O0  1  0.11514800  0.22794500  0.60260200  1
  O  O1  1  0.62534300  0.51254700  0.39739800  1
  O  O2  1  0.77205500  0.37465700  0.88720300  1
  O  O3  1  0.63485200  0.73745300  0.61279700  1
  O  O4  1  0.48745300  0.88485200  0.11279700  1
  O  O5  1  0.12465700  0.02205500  0.38720300  1
  O  O6  1  0.97794500  0.36514800  0.10260200  1
  O  O7  1  0.26254700  0.87534300  0.89739800  1
loop_
_geom_bond_atom_site_label_1
_geom_bond_atom_site_label_2
_geom_bond_distance
_geom_bond_site_symmetry_2
C0 O0 1.264296 1_555
C0 O5 1.264296 1_555
C0 C4 1.470331 1_455
C1 O3 1.264288 1_555
C1 O1 1.264294 1_555
C1 C5 1.470331 1_555
C2 O2 1.264296 1_555
C2 O6 1.264296 1_556
C2 C6 1.470331 1_555
C3 O4 1.264288 1_555
C3 O7 1.264294 1_554
C3 C7 1.470331 1_565
C4 N7 1.340131 1_555
C4 N2 1.340135 1_555
C5 N4 1.340135 1_555
C5 N6 1.340138 1_555
C6 N1 1.340131 1_555
C6 N5 1.340135 1_555
C7 N3 1.340135 1_555
C7 N0 1.340138 1_555
N0 N8 1.356707 1_555
N0 Zn1 2.028821 1_555
N1 N9 1.356703 1_545
N1 Zn1 2.028830 1_656
N2 Zn1 2.028820 1_655
N3 Zn0 2.028820 1_555
N4 Zn1 2.028820 1_666
N5 Zn0 2.028820 1_555
N6 Zn0 2.028821 1_555
N7 Zn0 2.028830 1_555
N10 N15 1.299295 1_555
N10 N2 1.356712 1_555
N11 N8 1.299303 1_555
N11 N3 1.356707 1_555
N12 N14 1.299303 1_555
N12 N4 1.356707 1_455
N13 N9 1.299295 1_555
N13 N5 1.356712 1_565
N14 N6 1.356707 1_455
N15 N7 1.356703 1_555
