# generated using pymatgen
data_MgTiMn5(PO4)6
_symmetry_space_group_name_H-M   'P 1'
_cell_length_a   9.08294239
_cell_length_b   8.68848767
_cell_length_c   8.78787002
_cell_angle_alpha   60.19868610
_cell_angle_beta   57.85198776
_cell_angle_gamma   60.68886513
_symmetry_Int_Tables_number   1
_chemical_formula_structural   MgTiMn5(PO4)6
_chemical_formula_sum   'Mg1 Ti1 Mn5 P6 O24'
_cell_volume   485.02533672
_cell_formula_units_Z   1
loop_
 _symmetry_equiv_pos_site_id
 _symmetry_equiv_pos_as_xyz
  1  'x, y, z'
loop_
 _atom_site_type_symbol
 _atom_site_label
 _atom_site_symmetry_multiplicity
 _atom_site_fract_x
 _atom_site_fract_y
 _atom_site_fract_z
 _atom_site_occupancy
  Mg  Mg0  1  0.23982500  0.25184900  0.26151800  1
  Ti  Ti0  1  0.60759900  0.13549600  0.12602400  1
  Mn  Mn0  1  0.02824500  0.99080600  0.01803500  1
  Mn  Mn1  1  0.05477900  0.64862800  0.63752700  1
  Mn  Mn2  1  0.48790000  0.50449000  0.49879600  1
  Mn  Mn3  1  0.44237200  0.84867700  0.85723000  1
  Mn  Mn4  1  0.88727000  0.37820700  0.36234200  1
  P  P0  1  0.23732400  0.25329000  0.55688200  1
  P  P1  1  0.25511100  0.94752700  0.25493500  1
  P  P2  1  0.27463500  0.53933200  0.94793100  1
  P  P3  1  0.75273700  0.46124700  0.03275600  1
  P  P4  1  0.73804000  0.03727300  0.74787900  1
  P  P5  1  0.73928700  0.75926200  0.45769300  1
  O  O0  1  0.08706200  0.11365500  0.30441200  1
  O  O1  1  0.10125900  0.49178300  0.11568300  1
  O  O2  1  0.07669100  0.30157700  0.50820500  1
  O  O3  1  0.22287900  0.09970100  0.74963100  1
  O  O4  1  0.41344600  0.19685100  0.38114200  1
  O  O5  1  0.25190900  0.42579400  0.55650700  1
  O  O6  1  0.25195800  0.92179900  0.09366500  1
  O  O7  1  0.25948600  0.76142700  0.42117500  1
  O  O8  1  0.59737100  0.59470700  0.96898900  1
  O  O9  1  0.29941200  0.54575900  0.76031500  1
  O  O10  1  0.77786600  0.25370500  0.05575300  1
  O  O11  1  0.56747200  0.98025900  0.84007200  1
  O  O12  1  0.42109600  0.00404600  0.20074400  1
  O  O13  1  0.26033400  0.73114000  0.93643000  1
  O  O14  1  0.70989300  0.45331400  0.23145700  1
  O  O15  1  0.43404800  0.37039600  0.01451400  1
  O  O16  1  0.71092800  0.22768100  0.59451400  1
  O  O17  1  0.74747300  0.06727800  0.90754400  1
  O  O18  1  0.69952600  0.60907400  0.45152300  1
  O  O19  1  0.56824500  0.85227800  0.59993100  1
  O  O20  1  0.76402700  0.91724500  0.25041800  1
  O  O21  1  0.91654300  0.69646400  0.48011100  1
  O  O22  1  0.94047100  0.49107900  0.88980500  1
  O  O23  1  0.91833000  0.88690100  0.68572000  1
loop_
_geom_bond_atom_site_label_1
_geom_bond_atom_site_label_2
_geom_bond_distance
_geom_bond_site_symmetry_2
Mg0 O2 1.991867 1_555
Mg0 O1 2.016027 1_555
Mg0 O0 2.033157 1_555
Mg0 O4 2.085057 1_555
Mg0 O15 2.089561 1_555
Mg0 O12 2.089972 1_555
Mn0 O3 2.136766 1_564
Mn0 O6 2.185958 1_555
Mn0 O20 2.308047 1_455
Mn0 O10 2.315932 1_465
Mn0 O13 2.321839 1_554
Mn1 O22 1.947357 1_455
Mn1 O23 1.949871 1_455
Mn1 O5 2.020066 1_555
Mn1 O7 2.049975 1_555
Mn1 O21 2.104502 1_455
Mn1 O9 2.559083 1_555
Mn2 O9 2.090962 1_555
Mn2 O14 2.214045 1_555
Mn2 O18 2.275564 1_555
Mn2 O7 2.282735 1_555
Mn2 O5 2.291874 1_555
Mn2 O16 2.372296 1_555
Mn3 O11 1.881249 1_555
Mn3 O19 1.906385 1_555
Mn3 O13 1.995801 1_555
Mn3 O8 2.022726 1_555
Mn3 O6 2.030747 1_556
Mn3 O3 2.307491 1_565
Mn4 O18 2.082534 1_555
Mn4 O16 2.087959 1_555
Mn4 O14 2.130986 1_555
Mn4 O1 2.172151 1_655
Mn4 O0 2.220720 1_655
Mn4 O2 2.328864 1_655
O0 P1 1.537101 1_545
O1 P2 1.544288 1_554
O2 P0 1.540852 1_555
O3 P0 1.534685 1_555
O4 P0 1.593780 1_555
O4 Ti0 2.116686 1_555
O5 P0 1.566202 1_555
O6 P1 1.556811 1_555
O7 P1 1.549568 1_555
O8 P3 1.497855 1_556
O9 P2 1.515929 1_555
O10 P3 1.621247 1_555
O10 Ti0 1.932958 1_555
O11 P4 1.522725 1_565
O12 P1 1.571381 1_545
O12 Ti0 2.137822 1_555
O13 P2 1.561724 1_555
O14 P3 1.545553 1_555
O15 P2 1.600127 1_554
O15 Ti0 2.028921 1_555
O16 P4 1.533636 1_555
O17 P4 1.599198 1_555
O17 Ti0 1.857324 1_556
O18 P5 1.545552 1_555
O19 P5 1.528829 1_555
O20 P5 1.622861 1_555
O20 Ti0 1.940124 1_565
O21 P5 1.516325 1_555
O22 P3 1.543490 1_556
O23 P4 1.532842 1_565
