# generated using pymatgen
data_Zr6Al16Ir7
_symmetry_space_group_name_H-M   'P 1'
_cell_length_a   8.68907893
_cell_length_b   8.68907684
_cell_length_c   8.68911254
_cell_angle_alpha   59.99996756
_cell_angle_beta   59.99960102
_cell_angle_gamma   59.99970189
_symmetry_Int_Tables_number   1
_chemical_formula_structural   Zr6Al16Ir7
_chemical_formula_sum   'Zr6 Al16 Ir7'
_cell_volume   463.87974535
_cell_formula_units_Z   1
loop_
 _symmetry_equiv_pos_site_id
 _symmetry_equiv_pos_as_xyz
  1  'x, y, z'
loop_
 _atom_site_type_symbol
 _atom_site_label
 _atom_site_symmetry_multiplicity
 _atom_site_fract_x
 _atom_site_fract_y
 _atom_site_fract_z
 _atom_site_occupancy
  Zr  Zr0  1  0.68962480  0.68966062  0.31035517  1
  Zr  Zr1  1  0.31036422  0.68965475  0.31034808  1
  Zr  Zr2  1  0.68963088  0.31035099  0.31037038  1
  Zr  Zr3  1  0.31037654  0.31033952  0.68964277  1
  Zr  Zr4  1  0.68963603  0.31034488  0.68965230  1
  Zr  Zr5  1  0.31036862  0.68964949  0.68962991  1
  Al  Al0  1  0.88025976  0.88022780  0.35925994  1
  Al  Al1  1  0.88026858  0.35926042  0.88023577  1
  Al  Al2  1  0.35925977  0.88022929  0.88025550  1
  Al  Al3  1  0.88026623  0.88023230  0.88024124  1
  Al  Al4  1  0.11974002  0.11977225  0.64074013  1
  Al  Al5  1  0.11973111  0.64073960  0.11976443  1
  Al  Al6  1  0.64074006  0.11977065  0.11974476  1
  Al  Al7  1  0.11973355  0.11976763  0.11975900  1
  Al  Al8  1  0.66318993  0.66317984  0.01044475  1
  Al  Al9  1  0.66319039  0.01043809  0.66318581  1
  Al  Al10  1  0.01045131  0.66317900  0.66318477  1
  Al  Al11  1  0.66319016  0.66317959  0.66318541  1
  Al  Al12  1  0.33681003  0.33682020  0.98955528  1
  Al  Al13  1  0.33680965  0.98956185  0.33681426  1
  Al  Al14  1  0.98954881  0.33682088  0.33681532  1
  Al  Al15  1  0.33680974  0.33682044  0.33681465  1
  Ir  Ir0  1  -0.00000000  -0.00000001  -0.00000009  1
  Ir  Ir1  1  0.00000010  -0.00000011  0.50000016  1
  Ir  Ir2  1  0.49999983  0.00000002  0.50000010  1
  Ir  Ir3  1  0.00000009  0.49999990  0.50000000  1
  Ir  Ir4  1  0.49999977  0.50000009  0.00000014  1
  Ir  Ir5  1  0.00000007  0.49999997  -0.00000004  1
  Ir  Ir6  1  0.49999994  0.00000006  0.00000008  1
loop_
_geom_bond_atom_site_label_1
_geom_bond_atom_site_label_2
_geom_bond_distance
_geom_bond_site_symmetry_2
Al0 Ir0 2.548811 1_665
Al0 Ir3 2.699618 1_655
Al0 Ir1 2.699803 1_665
Al0 Ir2 2.699831 1_565
Al0 Zr1 3.133097 1_655
Al0 Zr0 3.133146 1_555
Al0 Zr2 3.133279 1_565
Al1 Ir0 2.548806 1_656
Al1 Ir3 2.699681 1_655
Al1 Ir5 2.699681 1_656
Al1 Ir4 2.699893 1_556
Al1 Zr3 3.133106 1_655
Al1 Zr4 3.133318 1_555
Al1 Zr2 3.133340 1_556
Al2 Ir0 2.548792 1_566
Al2 Ir4 2.699626 1_556
Al2 Ir2 2.699817 1_565
Al2 Ir6 2.699823 1_566
Al2 Zr1 3.133058 1_556
Al2 Zr5 3.133094 1_555
Al2 Zr3 3.133199 1_565
Al3 Ir0 2.548816 1_666
Al3 Ir5 2.699648 1_656
Al3 Ir1 2.699718 1_665
Al3 Ir6 2.699877 1_566
Al3 Zr5 3.133081 1_655
Al3 Zr4 3.133198 1_565
Al3 Zr0 3.133200 1_556
Al4 Ir0 2.548809 1_556
Al4 Ir3 2.699616 1_555
Al4 Ir1 2.699801 1_555
Al4 Ir2 2.699830 1_555
Al4 Zr4 3.133093 1_455
Al4 Zr3 3.133146 1_555
Al4 Zr5 3.133275 1_545
Al5 Ir0 2.548806 1_565
Al5 Ir3 2.699679 1_555
Al5 Ir5 2.699680 1_555
Al5 Ir4 2.699892 1_555
Al5 Zr0 3.133094 1_455
Al5 Zr1 3.133321 1_555
Al5 Zr5 3.133339 1_554
Al6 Ir0 2.548794 1_655
Al6 Ir4 2.699627 1_555
Al6 Ir2 2.699816 1_555
Al6 Ir6 2.699822 1_555
Al6 Zr4 3.133056 1_554
Al6 Zr2 3.133096 1_555
Al6 Zr0 3.133195 1_545
Al7 Ir0 2.548817 1_555
Al7 Ir5 2.699648 1_555
Al7 Ir1 2.699719 1_555
Al7 Ir6 2.699877 1_555
Al7 Zr2 3.133084 1_455
Al7 Zr1 3.133201 1_545
Al7 Zr3 3.133216 1_554
Al8 Ir5 2.509371 1_655
Al8 Ir4 2.509417 1_555
Al8 Ir6 2.509448 1_565
Al8 Zr1 2.854374 1_555
Al8 Zr0 2.854427 1_555
Al8 Zr2 2.854487 1_555
Al9 Ir1 2.509381 1_655
Al9 Ir6 2.509426 1_556
Al9 Ir2 2.509436 1_555
Al9 Zr3 2.854307 1_555
Al9 Zr4 2.854368 1_555
Al9 Zr2 2.854376 1_555
Al10 Ir3 2.509407 1_555
Al10 Ir5 2.509411 1_556
Al10 Ir1 2.509444 1_565
Al10 Zr1 2.854469 1_555
Al10 Zr5 2.854478 1_555
Al10 Zr3 2.854524 1_555
Al11 Ir3 2.509362 1_655
Al11 Ir4 2.509413 1_556
Al11 Ir2 2.509454 1_565
Al11 Zr5 2.854378 1_555
Al11 Zr0 2.854462 1_555
Al11 Zr4 2.854498 1_555
Al12 Ir5 2.509370 1_556
Al12 Ir4 2.509416 1_556
Al12 Ir6 2.509447 1_556
Al12 Zr4 2.854375 1_555
Al12 Zr3 2.854438 1_555
Al12 Zr5 2.854488 1_555
Al13 Ir1 2.509380 1_565
Al13 Ir6 2.509425 1_565
Al13 Ir2 2.509435 1_565
Al13 Zr0 2.854313 1_555
Al13 Zr1 2.854368 1_555
Al13 Zr5 2.854375 1_555
Al14 Ir3 2.509406 1_655
Al14 Ir5 2.509412 1_655
Al14 Ir1 2.509444 1_655
Al14 Zr4 2.854470 1_555
Al14 Zr2 2.854479 1_555
Al14 Zr0 2.854521 1_555
Al15 Ir3 2.509360 1_555
Al15 Ir4 2.509412 1_555
Al15 Ir2 2.509454 1_555
Al15 Zr2 2.854377 1_555
Al15 Zr3 2.854449 1_555
Al15 Zr1 2.854497 1_555
Ir1 Zr4 3.160281 1_455
Ir1 Zr1 3.160282 1_545
Ir1 Zr5 3.160316 1_545
Ir1 Zr2 3.160322 1_455
Ir2 Zr3 3.160206 1_555
Ir2 Zr5 3.160216 1_545
Ir2 Zr0 3.160217 1_545
Ir2 Zr2 3.160218 1_555
Ir3 Zr4 3.160423 1_455
Ir3 Zr1 3.160423 1_555
Ir3 Zr3 3.160440 1_555
Ir3 Zr0 3.160444 1_455
Ir4 Zr1 3.160327 1_555
Ir4 Zr4 3.160328 1_554
Ir4 Zr5 3.160347 1_554
Ir4 Zr2 3.160348 1_555
Ir5 Zr0 3.160400 1_455
Ir5 Zr3 3.160412 1_554
Ir5 Zr5 3.160427 1_554
Ir5 Zr2 3.160429 1_455
Ir6 Zr4 3.160197 1_554
Ir6 Zr1 3.160199 1_545
Ir6 Zr0 3.160206 1_545
Ir6 Zr3 3.160212 1_554
