# generated using pymatgen
data_Zr2Ni7
_symmetry_space_group_name_H-M   'P 1'
_cell_length_a   4.63020088
_cell_length_b   4.66899773
_cell_length_c   11.99870103
_cell_angle_alpha   92.84195873
_cell_angle_beta   95.73880793
_cell_angle_gamma   60.27449615
_symmetry_Int_Tables_number   1
_chemical_formula_structural   Zr2Ni7
_chemical_formula_sum   'Zr4 Ni14'
_cell_volume   224.13044883
_cell_formula_units_Z   2
loop_
 _symmetry_equiv_pos_site_id
 _symmetry_equiv_pos_as_xyz
  1  'x, y, z'
loop_
 _atom_site_type_symbol
 _atom_site_label
 _atom_site_symmetry_multiplicity
 _atom_site_fract_x
 _atom_site_fract_y
 _atom_site_fract_z
 _atom_site_occupancy
  Zr  Zr0  1  0.73032733  0.00000000  0.11355914  1
  Zr  Zr1  1  0.78562357  1.00000000  0.38576803  1
  Zr  Zr2  1  0.21437643  0.00000000  0.61423197  1
  Zr  Zr3  1  0.26967167  1.00000000  0.88644086  1
  Ni  Ni0  1  0.37834221  0.67122809  0.07796877  1
  Ni  Ni1  1  0.04957130  0.32877191  0.07796877  1
  Ni  Ni2  1  0.26496124  0.49739750  0.24897993  1
  Ni  Ni3  1  0.76236174  0.50260050  0.24897993  1
  Ni  Ni4  1  0.25985620  0.00000000  0.25102255  1
  Ni  Ni5  1  0.13601873  0.33424217  0.42185209  1
  Ni  Ni6  1  0.47026190  0.66575583  0.42185209  1
  Ni  Ni7  1  0.86398227  0.66575583  0.57814691  1
  Ni  Ni8  1  0.52974010  0.33424217  0.57814791  1
  Ni  Ni9  1  0.74014580  1.00000000  0.74897745  1
  Ni  Ni10  1  0.73503776  0.50260050  0.75102007  1
  Ni  Ni11  1  0.23764026  0.49739750  0.75102007  1
  Ni  Ni12  1  0.62165579  0.32877191  0.92203123  1
  Ni  Ni13  1  0.95042970  0.67122809  0.92203123  1
loop_
_geom_bond_atom_site_label_1
_geom_bond_atom_site_label_2
_geom_bond_distance
_geom_bond_site_symmetry_2
Zr0 Zr1 3.250549 1_545
Zr1 Zr2 3.219829 1_665
Zr2 Zr3 3.250549 1_545
Ni0 Ni12 2.380151 1_554
Ni0 Ni2 2.438805 1_555
Ni0 Ni3 2.456434 1_555
Ni0 Ni4 2.458747 1_565
Ni0 Ni13 2.585550 1_454
Ni0 Ni1 2.666083 1_565
Ni0 Zr0 2.676763 1_465
Ni0 Zr3 2.691340 1_554
Ni0 Ni1 2.699569 1_555
Ni0 Ni1 2.699577 1_655
Ni0 Zr0 2.733420 1_565
Ni0 Zr0 2.754734 1_555
Ni1 Ni13 2.380152 1_454
Ni1 Ni3 2.438800 1_455
Ni1 Ni2 2.456425 1_555
Ni1 Ni4 2.458747 1_555
Ni1 Ni12 2.585560 1_454
Ni1 Zr0 2.676767 1_455
Ni1 Zr3 2.691339 1_544
Ni1 Zr0 2.733416 1_555
Ni1 Zr0 2.754734 1_465
Ni2 Ni3 2.315187 1_455
Ni2 Ni3 2.315206 1_555
Ni2 Ni4 2.333952 1_565
Ni2 Ni4 2.335521 1_555
Ni2 Ni6 2.451324 1_555
Ni2 Ni5 2.468722 1_555
Ni2 Zr1 2.816639 1_545
Ni2 Zr0 2.835479 1_555
Ni2 Zr0 2.843909 1_465
Ni2 Zr1 2.882370 1_455
Ni3 Ni4 2.333940 1_655
Ni3 Ni4 2.335532 1_565
Ni3 Ni5 2.451319 1_655
Ni3 Ni6 2.468726 1_555
Ni3 Zr1 2.816642 1_555
Ni3 Zr0 2.835480 1_565
Ni3 Zr0 2.843907 1_555
Ni3 Zr1 2.882367 1_545
Ni4 Ni5 2.448682 1_555
Ni4 Ni6 2.448685 1_545
Ni4 Zr1 2.784451 1_545
Ni4 Zr0 2.814811 1_455
Ni4 Zr1 2.854019 1_445
Ni4 Zr0 2.860827 1_555
Ni5 Ni7 2.397991 1_455
Ni5 Ni8 2.481245 1_555
Ni5 Ni6 2.677023 1_455
Ni5 Ni6 2.677023 1_555
Ni5 Zr1 2.684820 1_545
Ni5 Ni6 2.710450 1_545
Ni5 Zr1 2.733807 1_455
Ni5 Zr2 2.742910 1_555
Ni5 Zr1 2.749254 1_445
Ni6 Ni8 2.397998 1_555
Ni6 Ni7 2.481234 1_555
Ni6 Zr1 2.684824 1_555
Ni6 Zr1 2.733800 1_545
Ni6 Zr2 2.742914 1_565
Ni6 Zr1 2.749257 1_455
Ni7 Ni9 2.448696 1_555
Ni7 Ni8 2.677020 1_555
Ni7 Ni8 2.677026 1_655
Ni7 Zr2 2.684827 1_565
Ni7 Ni8 2.710450 1_565
Ni7 Zr2 2.733801 1_655
Ni7 Zr1 2.742903 1_555
Ni7 Zr2 2.749258 1_665
Ni8 Ni9 2.448681 1_545
Ni8 Zr2 2.684824 1_555
Ni8 Zr2 2.733807 1_565
Ni8 Zr1 2.742909 1_545
Ni8 Zr2 2.749249 1_655
Ni9 Zr2 2.784458 1_565
Ni9 Zr3 2.814799 1_655
Ni9 Zr2 2.854012 1_665
Ni9 Zr3 2.860839 1_555
Ni10 Ni11 2.315192 1_555
Ni10 Ni11 2.315201 1_655
Ni10 Ni9 2.333936 1_545
Ni10 Ni9 2.335537 1_555
Ni10 Ni12 2.438802 1_555
Ni10 Ni8 2.451317 1_555
Ni10 Ni13 2.456434 1_555
Ni10 Ni7 2.468737 1_555
Ni10 Zr2 2.816642 1_565
Ni10 Zr3 2.835483 1_555
Ni10 Zr3 2.843905 1_645
Ni10 Zr2 2.882368 1_655
Ni11 Ni9 2.333945 1_455
Ni11 Ni9 2.335528 1_545
Ni11 Ni13 2.438803 1_455
Ni11 Ni7 2.451331 1_455
Ni11 Ni12 2.456425 1_555
Ni11 Ni8 2.468726 1_555
Ni11 Zr2 2.816638 1_555
Ni11 Zr3 2.835478 1_545
Ni11 Zr3 2.843909 1_555
Ni11 Zr2 2.882371 1_565
Ni12 Ni9 2.458747 1_545
Ni12 Ni13 2.666083 1_545
Ni12 Zr3 2.676767 1_645
Ni12 Zr0 2.691339 1_556
Ni12 Ni13 2.699565 1_455
Ni12 Ni13 2.699581 1_555
Ni12 Zr3 2.733416 1_545
Ni12 Zr3 2.754734 1_555
Ni13 Ni9 2.458747 1_555
Ni13 Zr3 2.676759 1_655
Ni13 Zr0 2.691341 1_566
Ni13 Zr3 2.733424 1_555
Ni13 Zr3 2.754734 1_645
