# generated using pymatgen
data_Li7Mn5O12
_symmetry_space_group_name_H-M   'P 1'
_cell_length_a   2.98592000
_cell_length_b   8.12375000
_cell_length_c   9.87352712
_cell_angle_alpha   65.89963048
_cell_angle_beta   90.00000000
_cell_angle_gamma   90.00000000
_symmetry_Int_Tables_number   1
_chemical_formula_structural   Li7Mn5O12
_chemical_formula_sum   'Li7 Mn5 O12'
_cell_volume   218.62392152
_cell_formula_units_Z   1
loop_
 _symmetry_equiv_pos_site_id
 _symmetry_equiv_pos_as_xyz
  1  'x, y, z'
loop_
 _atom_site_type_symbol
 _atom_site_label
 _atom_site_symmetry_multiplicity
 _atom_site_fract_x
 _atom_site_fract_y
 _atom_site_fract_z
 _atom_site_occupancy
  Li  Li0  1  0.00000000  0.31468200  0.33813500  1
  Li  Li1  1  0.00000000  0.68531800  0.66186500  1
  Li  Li2  1  0.00000000  0.00000000  0.00000000  1
  Li  Li3  1  0.50000000  0.83762000  0.82103800  1
  Li  Li4  1  0.50000000  0.16238000  0.17896200  1
  Li  Li5  1  0.50000000  0.50000000  0.50000000  1
  Li  Li6  1  0.50000000  0.00000000  0.50000000  1
  Mn  Mn0  1  0.00000000  0.16075900  0.66108800  1
  Mn  Mn1  1  0.00000000  0.83924100  0.33891200  1
  Mn  Mn2  1  0.00000000  0.50000000  0.00000000  1
  Mn  Mn3  1  0.50000000  0.66081000  0.17294100  1
  Mn  Mn4  1  0.50000000  0.33919000  0.82705900  1
  O  O0  1  0.00000000  0.93275600  0.67017500  1
  O  O1  1  0.00000000  0.26418300  0.99487000  1
  O  O2  1  0.00000000  0.59564600  0.33100000  1
  O  O3  1  0.50000000  0.42757400  0.16674400  1
  O  O4  1  0.50000000  0.76165000  0.47769700  1
  O  O5  1  0.50000000  0.10351100  0.81695300  1
  O  O6  1  0.00000000  0.73581700  0.00513000  1
  O  O7  1  0.00000000  0.06724400  0.32982500  1
  O  O8  1  0.00000000  0.40435400  0.66900000  1
  O  O9  1  0.50000000  0.23835000  0.52230300  1
  O  O10  1  0.50000000  0.57242600  0.83325600  1
  O  O11  1  0.50000000  0.89648900  0.18304700  1
loop_
_geom_bond_atom_site_label_1
_geom_bond_atom_site_label_2
_geom_bond_distance
_geom_bond_site_symmetry_2
Li0 O7 2.045000 1_555
Li0 O3 2.160145 1_455
Li0 O3 2.160145 1_555
Li0 O9 2.235872 1_555
Li0 O9 2.235872 1_455
Li0 O2 2.254632 1_555
Li1 O0 2.045000 1_555
Li1 O10 2.160145 1_555
Li1 O10 2.160145 1_455
Li1 O4 2.235872 1_455
Li1 O4 2.235872 1_555
Li1 O8 2.254632 1_555
Li2 O1 2.125977 1_554
Li2 O6 2.125977 1_545
Li2 O11 2.227395 1_445
Li2 O11 2.227395 1_545
Li2 O5 2.227395 1_454
Li2 O5 2.227395 1_554
Li3 O0 2.026040 1_555
Li3 O0 2.026040 1_655
Li3 O10 2.107988 1_555
Li3 O5 2.143879 1_565
Li3 O6 2.233620 1_556
Li3 O6 2.233620 1_656
Li4 O7 2.026040 1_655
Li4 O7 2.026040 1_555
Li4 O3 2.107988 1_555
Li4 O11 2.143879 1_545
Li4 O1 2.233620 1_554
Li4 O1 2.233620 1_654
Li5 O9 2.045560 1_555
Li5 O4 2.045560 1_555
Li5 O2 2.134980 1_655
Li5 O2 2.134980 1_555
Li5 O8 2.134980 1_555
Li5 O8 2.134980 1_655
Li6 O4 2.036162 1_545
Li6 O9 2.036162 1_555
Li6 O0 2.144974 1_645
Li6 O0 2.144974 1_545
Li6 O7 2.144974 1_655
Li6 O7 2.144974 1_555
Mn0 O0 1.817449 1_545
Mn0 O9 1.948992 1_555
Mn0 O9 1.948992 1_455
Mn0 O8 2.012068 1_555
Mn0 O5 2.056464 1_555
Mn0 O5 2.056464 1_455
Mn1 O7 1.817449 1_565
Mn1 O4 1.948992 1_555
Mn1 O4 1.948992 1_455
Mn1 O2 2.012068 1_555
Mn1 O11 2.056464 1_555
Mn1 O11 2.056464 1_455
Mn2 O6 1.936953 1_555
Mn2 O1 1.936953 1_554
Mn2 O3 2.120024 1_555
Mn2 O3 2.120024 1_455
Mn2 O10 2.120024 1_554
Mn2 O10 2.120024 1_454
Mn3 O3 1.920548 1_555
Mn3 O11 1.957462 1_555
Mn3 O2 2.066386 1_555
Mn3 O2 2.066386 1_655
Mn3 O6 2.126259 1_655
Mn3 O6 2.126259 1_555
Mn4 O10 1.920548 1_555
Mn4 O5 1.957462 1_555
Mn4 O8 2.066386 1_555
Mn4 O8 2.066386 1_655
Mn4 O1 2.126259 1_655
Mn4 O1 2.126259 1_555
