# generated using pymatgen
data_Mg4CN4
_symmetry_space_group_name_H-M   'P 1'
_cell_length_a   10.22808200
_cell_length_b   3.20188000
_cell_length_c   12.59012300
_cell_angle_alpha   90.00000000
_cell_angle_beta   90.00000000
_cell_angle_gamma   90.00000000
_symmetry_Int_Tables_number   1
_chemical_formula_structural   Mg4CN4
_chemical_formula_sum   'Mg16 C4 N16'
_cell_volume   412.31508627
_cell_formula_units_Z   4
loop_
 _symmetry_equiv_pos_site_id
 _symmetry_equiv_pos_as_xyz
  1  'x, y, z'
loop_
 _atom_site_type_symbol
 _atom_site_label
 _atom_site_symmetry_multiplicity
 _atom_site_fract_x
 _atom_site_fract_y
 _atom_site_fract_z
 _atom_site_occupancy
  Mg  Mg0  1  0.13568500  0.25000000  0.15993100  1
  Mg  Mg1  1  0.63568500  0.25000000  0.34006900  1
  Mg  Mg2  1  0.86431500  0.75000000  0.84006900  1
  Mg  Mg3  1  0.36431500  0.75000000  0.65993100  1
  Mg  Mg4  1  0.89399000  0.25000000  0.04898600  1
  Mg  Mg5  1  0.39399000  0.25000000  0.45101400  1
  Mg  Mg6  1  0.10601000  0.75000000  0.95101400  1
  Mg  Mg7  1  0.60601000  0.75000000  0.54898600  1
  Mg  Mg8  1  0.35507400  0.25000000  0.86266700  1
  Mg  Mg9  1  0.85507400  0.25000000  0.63733300  1
  Mg  Mg10  1  0.64492600  0.75000000  0.13733300  1
  Mg  Mg11  1  0.14492600  0.75000000  0.36266700  1
  Mg  Mg12  1  0.11665700  0.25000000  0.76313100  1
  Mg  Mg13  1  0.61665700  0.25000000  0.73686900  1
  Mg  Mg14  1  0.88334300  0.75000000  0.23686900  1
  Mg  Mg15  1  0.38334300  0.75000000  0.26313100  1
  C  C0  1  0.38152400  0.25000000  0.07507100  1
  C  C1  1  0.88152400  0.25000000  0.42492900  1
  C  C2  1  0.61847600  0.75000000  0.92492900  1
  C  C3  1  0.11847600  0.75000000  0.57507100  1
  N  N0  1  0.75597300  0.25000000  0.20201300  1
  N  N1  1  0.25597200  0.25000000  0.29798700  1
  N  N2  1  0.24402800  0.75000000  0.79798700  1
  N  N3  1  0.74402700  0.75000000  0.70201300  1
  N  N4  1  0.98063100  0.25000000  0.88766300  1
  N  N5  1  0.48063100  0.25000000  0.61233700  1
  N  N6  1  0.01936900  0.75000000  0.11233700  1
  N  N7  1  0.51936900  0.75000000  0.38766300  1
  N  N8  1  0.27871800  0.25000000  0.02327600  1
  N  N9  1  0.77871800  0.25000000  0.47672400  1
  N  N10  1  0.72128200  0.75000000  0.97672400  1
  N  N11  1  0.22128200  0.75000000  0.52327600  1
  N  N12  1  0.48189300  0.25000000  0.13103100  1
  N  N13  1  0.98189300  0.25000000  0.36896900  1
  N  N14  1  0.51810700  0.75000000  0.86896900  1
  N  N15  1  0.01810700  0.75000000  0.63103100  1
loop_
_geom_bond_atom_site_label_1
_geom_bond_atom_site_label_2
_geom_bond_distance
_geom_bond_site_symmetry_2
Mg0 N6 2.082649 1_545
Mg0 N6 2.082649 1_555
Mg0 N1 2.129504 1_555
Mg0 N8 2.258398 1_555
Mg1 N7 2.082649 1_555
Mg1 N7 2.082649 1_545
Mg1 N0 2.129510 1_555
Mg1 N9 2.258398 1_555
Mg2 N4 2.082649 1_565
Mg2 N4 2.082649 1_555
Mg2 N3 2.129510 1_555
Mg2 N10 2.258398 1_555
Mg3 N5 2.082649 1_565
Mg3 N5 2.082649 1_555
Mg3 N2 2.129504 1_555
Mg3 N11 2.258398 1_555
Mg4 N6 2.200837 1_645
Mg4 N6 2.200837 1_655
Mg4 N4 2.215981 1_554
Mg4 N0 2.388441 1_555
Mg4 N10 2.551694 1_554
Mg4 N10 2.551694 1_544
Mg5 N7 2.200837 1_545
Mg5 N7 2.200837 1_555
Mg5 N5 2.215981 1_555
Mg5 N1 2.388447 1_555
Mg5 N11 2.551694 1_545
Mg5 N11 2.551694 1_555
Mg6 N4 2.200837 1_465
Mg6 N4 2.200837 1_455
Mg6 N6 2.215981 1_556
Mg6 N2 2.388447 1_555
Mg6 N8 2.551694 1_566
Mg6 N8 2.551694 1_556
Mg7 N5 2.200837 1_555
Mg7 N5 2.200837 1_565
Mg7 N7 2.215981 1_555
Mg7 N3 2.388441 1_555
Mg7 N9 2.551694 1_565
Mg7 N9 2.551694 1_555
Mg8 N2 2.125125 1_545
Mg8 N2 2.125125 1_555
Mg8 N8 2.167662 1_556
Mg8 N14 2.312987 1_555
Mg8 N14 2.312987 1_545
Mg9 N3 2.125130 1_545
Mg9 N3 2.125130 1_555
Mg9 N9 2.167662 1_555
Mg9 N15 2.312987 1_655
Mg9 N15 2.312987 1_645
Mg10 N0 2.125130 1_565
Mg10 N0 2.125130 1_555
Mg10 N10 2.167662 1_554
Mg10 N12 2.312987 1_555
Mg10 N12 2.312987 1_565
Mg11 N1 2.125125 1_565
Mg11 N1 2.125125 1_555
Mg11 N11 2.167662 1_555
Mg11 N13 2.312987 1_455
Mg11 N13 2.312987 1_465
Mg12 N4 2.096163 1_455
Mg12 N2 2.110160 1_545
Mg12 N2 2.110160 1_555
Mg12 N15 2.518951 1_555
Mg12 N15 2.518951 1_545
Mg13 N5 2.096163 1_555
Mg13 N3 2.110154 1_545
Mg13 N3 2.110154 1_555
Mg13 N14 2.518951 1_555
Mg13 N14 2.518951 1_545
Mg14 N6 2.096163 1_655
Mg14 N0 2.110154 1_565
Mg14 N0 2.110154 1_555
Mg14 N13 2.518951 1_555
Mg14 N13 2.518951 1_565
Mg15 N7 2.096163 1_555
Mg15 N1 2.110160 1_565
Mg15 N1 2.110160 1_555
Mg15 N12 2.518951 1_565
Mg15 N12 2.518951 1_555
C0 N8 1.237300 1_555
C0 N12 1.245091 1_555
C1 N9 1.237300 1_555
C1 N13 1.245091 1_555
C2 N10 1.237300 1_555
C2 N14 1.245091 1_555
C3 N11 1.237300 1_555
C3 N15 1.245091 1_555
