# generated using pymatgen
data_K2Cu(C2O5)2
_symmetry_space_group_name_H-M   'P 1'
_cell_length_a   7.08917400
_cell_length_b   8.75636656
_cell_length_c   9.37219750
_cell_angle_alpha   109.01369260
_cell_angle_beta   102.75545348
_cell_angle_gamma   97.54870136
_symmetry_Int_Tables_number   1
_chemical_formula_structural   K2Cu(C2O5)2
_chemical_formula_sum   'K4 Cu2 C8 O20'
_cell_volume   523.26608593
_cell_formula_units_Z   2
loop_
 _symmetry_equiv_pos_site_id
 _symmetry_equiv_pos_as_xyz
  1  'x, y, z'
loop_
 _atom_site_type_symbol
 _atom_site_label
 _atom_site_symmetry_multiplicity
 _atom_site_fract_x
 _atom_site_fract_y
 _atom_site_fract_z
 _atom_site_occupancy
  K  K0  1  0.26284400  0.63594400  0.54385700  1
  K  K1  1  0.73715600  0.36405600  0.45614300  1
  K  K2  1  0.36943400  0.68063100  0.13977400  1
  K  K3  1  0.63056600  0.31936900  0.86022600  1
  Cu  Cu0  1  0.00000000  0.00000000  0.00000000  1
  Cu  Cu1  1  0.50000000  0.00000000  0.50000000  1
  C  C0  1  0.20273100  0.18009700  0.46489600  1
  C  C1  1  0.79726900  0.81990300  0.53510400  1
  C  C2  1  0.05761100  0.32357200  0.15178900  1
  C  C3  1  0.94238900  0.67642800  0.84821100  1
  C  C4  1  0.26313900  0.28111900  0.17301000  1
  C  C5  1  0.73686100  0.71888100  0.82699000  1
  C  C6  1  0.10341300  0.98961000  0.36073900  1
  C  C7  1  0.89658700  0.01039000  0.63926100  1
  O  O0  1  0.41651300  0.38959400  0.24764500  1
  O  O1  1  0.58348700  0.61040600  0.75235500  1
  O  O2  1  0.07192700  0.04372400  0.72351800  1
  O  O3  1  0.92807300  0.95627600  0.27648200  1
  O  O4  1  0.38701100  0.20993200  0.53656100  1
  O  O5  1  0.61298900  0.79006800  0.46343900  1
  O  O6  1  0.21715500  0.32923400  0.86725500  1
  O  O7  1  0.78284500  0.67076600  0.13274500  1
  O  O8  1  0.20969400  0.88480300  0.36767100  1
  O  O9  1  0.79030600  0.11519700  0.63232900  1
  O  O10  1  0.54591200  0.01700800  0.32380000  1
  O  O11  1  0.45408800  0.98299200  0.67620000  1
  O  O12  1  0.10185400  0.28606200  0.46608100  1
  O  O13  1  0.89814600  0.71393800  0.53391900  1
  O  O14  1  0.25971400  0.12384100  0.10904100  1
  O  O15  1  0.74028600  0.87615900  0.89095900  1
  O  O16  1  0.91051500  0.19721400  0.06435800  1
  O  O17  1  0.08948500  0.80278600  0.93564200  1
  O  O18  1  0.03583500  0.46530100  0.21378100  1
  O  O19  1  0.96416500  0.53469900  0.78621900  1
loop_
_geom_bond_atom_site_label_1
_geom_bond_atom_site_label_2
_geom_bond_distance
_geom_bond_site_symmetry_2
K0 O1 2.737200 1_555
K0 O13 2.749263 1_455
K0 O11 2.886223 1_555
K0 O12 2.911859 1_555
K0 O18 2.924112 1_555
K0 O5 3.026489 1_555
K0 O8 3.146845 1_555
K1 O0 2.737200 1_555
K1 O12 2.749263 1_655
K1 O10 2.886223 1_555
K1 O13 2.911859 1_555
K1 O19 2.924112 1_555
K1 O4 3.026489 1_555
K1 O9 3.146845 1_555
K2 O10 2.825663 1_565
K2 O8 2.855266 1_555
K2 O5 2.908552 1_555
K2 O7 2.957890 1_555
K2 O17 2.992908 1_554
K2 O0 3.062876 1_555
K2 O6 3.153648 1_554
K2 O18 3.167664 1_555
K3 O11 2.825663 1_545
K3 O9 2.855266 1_555
K3 O4 2.908552 1_555
K3 O6 2.957890 1_555
K3 O16 2.992908 1_556
K3 O1 3.062876 1_555
K3 O7 3.153648 1_556
K3 O19 3.167664 1_555
Cu0 O17 1.877885 1_544
Cu0 O16 1.877885 1_455
Cu0 O14 1.879532 1_555
Cu0 O15 1.879532 1_444
Cu1 O10 1.800010 1_555
Cu1 O11 1.800010 1_545
Cu1 O5 2.058101 1_545
Cu1 O4 2.058101 1_555
Cu1 O9 2.074474 1_555
Cu1 O8 2.074474 1_545
C0 O12 1.242422 1_555
C0 O4 1.278503 1_555
C1 O13 1.242422 1_555
C1 O5 1.278503 1_555
C2 O18 1.233561 1_555
C2 O16 1.308374 1_455
C3 O19 1.233561 1_555
C3 O17 1.308374 1_655
C4 O0 1.238384 1_555
C4 O14 1.305165 1_555
C5 O1 1.238384 1_555
C5 O15 1.305165 1_555
C6 O3 1.254955 1_455
C6 O8 1.270052 1_555
C7 O2 1.254955 1_655
C7 O9 1.270052 1_555
