# generated using pymatgen
data_VZnBiO5
_symmetry_space_group_name_H-M   'P 1'
_cell_length_a   5.66391900
_cell_length_b   10.95993500
_cell_length_c   15.31204600
_cell_angle_alpha   90.00000000
_cell_angle_beta   90.00000000
_cell_angle_gamma   90.00000000
_symmetry_Int_Tables_number   1
_chemical_formula_structural   VZnBiO5
_chemical_formula_sum   'V8 Zn8 Bi8 O40'
_cell_volume   950.51338622
_cell_formula_units_Z   8
loop_
 _symmetry_equiv_pos_site_id
 _symmetry_equiv_pos_as_xyz
  1  'x, y, z'
loop_
 _atom_site_type_symbol
 _atom_site_label
 _atom_site_symmetry_multiplicity
 _atom_site_fract_x
 _atom_site_fract_y
 _atom_site_fract_z
 _atom_site_occupancy
  V  V0  1  0.91931100  0.38935800  0.40698100  1
  V  V1  1  0.58068900  0.88935800  0.59301900  1
  V  V2  1  0.08068900  0.61064200  0.59301900  1
  V  V3  1  0.41931100  0.11064200  0.40698100  1
  V  V4  1  0.08068900  0.11064200  0.90698100  1
  V  V5  1  0.91931100  0.88935800  0.09301900  1
  V  V6  1  0.58068900  0.38935800  0.90698100  1
  V  V7  1  0.41931100  0.61064200  0.09301900  1
  Zn  Zn0  1  0.41788900  0.35859000  0.52799900  1
  Zn  Zn1  1  0.91788900  0.14141000  0.52799900  1
  Zn  Zn2  1  0.91788900  0.64141000  0.97200100  1
  Zn  Zn3  1  0.08211100  0.35859000  0.02799900  1
  Zn  Zn4  1  0.58211100  0.14141000  0.02799900  1
  Zn  Zn5  1  0.08211100  0.85859000  0.47200100  1
  Zn  Zn6  1  0.58211100  0.64141000  0.47200100  1
  Zn  Zn7  1  0.41788900  0.85859000  0.97200100  1
  Bi  Bi0  1  0.03307600  0.84492000  0.77661400  1
  Bi  Bi1  1  0.96692400  0.15508000  0.22338600  1
  Bi  Bi2  1  0.46692400  0.34492000  0.22338600  1
  Bi  Bi3  1  0.96692400  0.65508000  0.27661400  1
  Bi  Bi4  1  0.53307600  0.15508000  0.72338600  1
  Bi  Bi5  1  0.53307600  0.65508000  0.77661400  1
  Bi  Bi6  1  0.46692400  0.84492000  0.27661400  1
  Bi  Bi7  1  0.03307600  0.34492000  0.72338600  1
  O  O0  1  0.82777400  0.31112700  0.31192100  1
  O  O1  1  0.33300200  0.04369500  0.95249100  1
  O  O2  1  0.16699800  0.54369500  0.04750900  1
  O  O3  1  0.35451300  0.79566200  0.85047700  1
  O  O4  1  0.14548700  0.29566200  0.14952300  1
  O  O5  1  0.82777400  0.81112700  0.18807900  1
  O  O6  1  0.14548700  0.79566200  0.35047700  1
  O  O7  1  0.67222600  0.81112700  0.68807900  1
  O  O8  1  0.33300200  0.54369500  0.54750900  1
  O  O9  1  0.17222600  0.68887300  0.68807900  1
  O  O10  1  0.67222600  0.31112700  0.81192100  1
  O  O11  1  0.58705800  0.20136600  0.47916600  1
  O  O12  1  0.83300200  0.95630500  0.54750900  1
  O  O13  1  0.64548700  0.70433800  0.35047700  1
  O  O14  1  0.09925100  0.00475200  0.12832000  1
  O  O15  1  0.83300200  0.45630500  0.95249100  1
  O  O16  1  0.17222600  0.18887300  0.81192100  1
  O  O17  1  0.85451300  0.20433800  0.64952300  1
  O  O18  1  0.08705800  0.79863400  0.02083400  1
  O  O19  1  0.16699800  0.04369500  0.45249100  1
  O  O20  1  0.41294200  0.79863400  0.52083400  1
  O  O21  1  0.90074900  0.99524800  0.87168000  1
  O  O22  1  0.64548700  0.20433800  0.14952300  1
  O  O23  1  0.59925100  0.99524800  0.37168000  1
  O  O24  1  0.41294200  0.29863400  0.97916600  1
  O  O25  1  0.08705800  0.29863400  0.47916600  1
  O  O26  1  0.66699800  0.45630500  0.45249100  1
  O  O27  1  0.66699800  0.95630500  0.04750900  1
  O  O28  1  0.59925100  0.49524800  0.12832000  1
  O  O29  1  0.91294200  0.70136600  0.52083400  1
  O  O30  1  0.91294200  0.20136600  0.97916600  1
  O  O31  1  0.58705800  0.70136600  0.02083400  1
  O  O32  1  0.90074900  0.49524800  0.62832000  1
  O  O33  1  0.85451300  0.70433800  0.85047700  1
  O  O34  1  0.35451300  0.29566200  0.64952300  1
  O  O35  1  0.09925100  0.50475200  0.37168000  1
  O  O36  1  0.40074900  0.50475200  0.87168000  1
  O  O37  1  0.32777400  0.18887300  0.31192100  1
  O  O38  1  0.40074900  0.00475200  0.62832000  1
  O  O39  1  0.32777400  0.68887300  0.18807900  1
loop_
_geom_bond_atom_site_label_1
_geom_bond_atom_site_label_2
_geom_bond_distance
_geom_bond_site_symmetry_2
Bi0 O33 2.162401 1_455
Bi0 O3 2.210240 1_555
Bi0 O9 2.320335 1_555
Bi0 O21 2.322758 1_455
Bi0 O7 2.480360 1_455
Bi1 O4 2.162401 1_655
Bi1 O22 2.210240 1_555
Bi1 O0 2.320335 1_555
Bi1 O14 2.322758 1_655
Bi1 O37 2.480360 1_655
Bi2 O22 2.162401 1_555
Bi2 O4 2.210240 1_555
Bi2 O37 2.320335 1_555
Bi2 O28 2.322758 1_555
Bi2 O0 2.480360 1_555
Bi3 O6 2.162401 1_655
Bi3 O13 2.210240 1_555
Bi3 O5 2.320335 1_555
Bi3 O35 2.322758 1_655
Bi3 O39 2.480360 1_655
Bi4 O34 2.162401 1_555
Bi4 O17 2.210240 1_555
Bi4 O10 2.320335 1_555
Bi4 O38 2.322758 1_555
Bi4 O16 2.480360 1_555
Bi5 O3 2.162401 1_555
Bi5 O33 2.210240 1_555
Bi5 O7 2.320335 1_555
Bi5 O36 2.322758 1_555
Bi5 O9 2.480360 1_555
Bi6 O13 2.162401 1_555
Bi6 O6 2.210240 1_555
Bi6 O39 2.320335 1_555
Bi6 O23 2.322758 1_555
Bi6 O5 2.480360 1_555
Bi7 O17 2.162401 1_455
Bi7 O34 2.210240 1_555
Bi7 O16 2.320335 1_555
Bi7 O32 2.322758 1_455
Bi7 O10 2.480360 1_455
O0 V0 1.767091 1_555
O1 V4 1.751068 1_555
O1 Zn7 2.106226 1_545
O1 Zn4 2.115283 1_556
O2 V7 1.751068 1_555
O2 Zn3 2.106226 1_555
O2 Zn2 2.115283 1_454
O3 Zn7 2.016686 1_555
O4 Zn3 2.016686 1_555
O5 V5 1.767091 1_555
O6 Zn5 2.016686 1_555
O7 V1 1.767091 1_555
O8 V2 1.751068 1_555
O8 Zn0 2.106226 1_555
O8 Zn6 2.115283 1_555
O9 V2 1.767091 1_555
O10 V6 1.767091 1_555
O11 V3 1.764392 1_555
O11 Zn0 2.108666 1_555
O11 Zn1 2.121799 1_555
O12 V1 1.751068 1_555
O12 Zn1 2.106226 1_565
O12 Zn5 2.115283 1_655
O13 Zn6 2.016686 1_555
O14 V5 1.711831 1_445
O15 V6 1.751068 1_555
O15 Zn2 2.106226 1_555
O15 Zn3 2.115283 1_656
O16 V4 1.767091 1_555
O17 Zn1 2.016686 1_555
O18 V5 1.764392 1_455
O18 Zn2 2.108666 1_454
O18 Zn7 2.121799 1_554
O19 V3 1.751068 1_555
O19 Zn5 2.106226 1_545
O19 Zn1 2.115283 1_455
O20 V1 1.764392 1_555
O20 Zn6 2.108666 1_555
O20 Zn5 2.121799 1_555
O21 V4 1.711831 1_665
O22 Zn4 2.016686 1_555
O23 V3 1.711831 1_565
O24 V6 1.764392 1_555
O24 Zn4 2.108666 1_556
O24 Zn3 2.121799 1_556
O25 V0 1.764392 1_455
O25 Zn1 2.108666 1_455
O25 Zn0 2.121799 1_555
O26 V0 1.751068 1_555
O26 Zn6 2.106226 1_555
O26 Zn0 2.115283 1_555
O27 V5 1.751068 1_555
O27 Zn4 2.106226 1_565
O27 Zn7 2.115283 1_554
O28 V7 1.711831 1_555
O29 V2 1.764392 1_655
O29 Zn5 2.108666 1_655
O29 Zn6 2.121799 1_555
O30 V4 1.764392 1_655
O30 Zn3 2.108666 1_656
O30 Zn4 2.121799 1_556
O31 V7 1.764392 1_555
O31 Zn7 2.108666 1_554
O31 Zn2 2.121799 1_554
O32 V2 1.711831 1_655
O33 Zn2 2.016686 1_555
O34 Zn0 2.016686 1_555
O35 V0 1.711831 1_455
O36 V6 1.711831 1_555
O37 V3 1.767091 1_555
O38 V1 1.711831 1_545
O39 V7 1.767091 1_555
