# generated using pymatgen
data_InGaSe2
_symmetry_space_group_name_H-M   'P 1'
_cell_length_a   6.62889241
_cell_length_b   6.62889241
_cell_length_c   6.62889241
_cell_angle_alpha   103.10502709
_cell_angle_beta   103.10502709
_cell_angle_gamma   123.12903943
_symmetry_Int_Tables_number   1
_chemical_formula_structural   InGaSe2
_chemical_formula_sum   'In2 Ga2 Se4'
_cell_volume   214.50688751
_cell_formula_units_Z   2
loop_
 _symmetry_equiv_pos_site_id
 _symmetry_equiv_pos_as_xyz
  1  'x, y, z'
loop_
 _atom_site_type_symbol
 _atom_site_label
 _atom_site_symmetry_multiplicity
 _atom_site_fract_x
 _atom_site_fract_y
 _atom_site_fract_z
 _atom_site_occupancy
  In  In0  1  0.59840700  0.59840700  0.00000000  1
  In  In1  1  0.09840700  0.09840700  0.00000000  1
  Ga  Ga0  1  0.24960100  0.74960100  0.50000000  1
  Ga  Ga1  1  0.74960100  0.24960100  0.50000000  1
  Se  Se0  1  0.16181500  0.33917700  0.50000000  1
  Se  Se1  1  0.83917700  0.66181500  0.50000000  1
  Se  Se2  1  0.33917700  0.83917700  0.17736200  1
  Se  Se3  1  0.66181500  0.16181500  0.82263800  1
loop_
_geom_bond_atom_site_label_1
_geom_bond_atom_site_label_2
_geom_bond_distance
_geom_bond_site_symmetry_2
In0 Se3 3.153675 1_554
In0 Se2 3.153675 1_555
In0 Se0 3.153675 1_554
In0 Se1 3.153675 1_555
In1 Se0 3.153675 1_555
In1 Se2 3.153675 1_545
In1 Se1 3.153675 1_444
In1 Se3 3.153675 1_454
Ga0 Se1 2.451544 1_455
Ga0 Se0 2.451544 1_555
Ga0 Se3 2.458808 1_565
Ga0 Se2 2.458808 1_555
Ga1 Se2 2.451544 1_545
Ga1 Se3 2.451544 1_555
Ga1 Se1 2.458808 1_555
Ga1 Se0 2.458808 1_655
