# generated using pymatgen
data_Li4Nb2Fe3Cu3O16
_symmetry_space_group_name_H-M   'P 1'
_cell_length_a   5.94720496
_cell_length_b   5.96472993
_cell_length_c   9.73557534
_cell_angle_alpha   89.86207199
_cell_angle_beta   89.71774202
_cell_angle_gamma   120.01021784
_symmetry_Int_Tables_number   1
_chemical_formula_structural   Li4Nb2Fe3Cu3O16
_chemical_formula_sum   'Li4 Nb2 Fe3 Cu3 O16'
_cell_volume   299.04674327
_cell_formula_units_Z   1
loop_
 _symmetry_equiv_pos_site_id
 _symmetry_equiv_pos_as_xyz
  1  'x, y, z'
loop_
 _atom_site_type_symbol
 _atom_site_label
 _atom_site_symmetry_multiplicity
 _atom_site_fract_x
 _atom_site_fract_y
 _atom_site_fract_z
 _atom_site_occupancy
  Li  Li0  1  0.32730300  0.66440200  0.90484000  1
  Li  Li1  1  0.01259000  0.00687600  0.99153200  1
  Li  Li2  1  0.01012900  0.00517400  0.48991900  1
  Li  Li3  1  0.65580200  0.32758300  0.40033900  1
  Nb  Nb0  1  0.33825300  0.66855900  0.49579100  1
  Nb  Nb1  1  0.66646600  0.33475000  0.99625200  1
  Fe  Fe0  1  0.65841400  0.82975000  0.21498000  1
  Fe  Fe1  1  0.83117600  0.65842100  0.71799900  1
  Fe  Fe2  1  0.83065900  0.17204800  0.71836800  1
  Cu  Cu0  1  0.16894200  0.82893100  0.21557800  1
  Cu  Cu1  1  0.16893600  0.34020400  0.21548100  1
  Cu  Cu2  1  0.34338700  0.17223800  0.71541800  1
  O  O0  1  0.15556700  0.81977200  0.58642000  1
  O  O1  1  0.03645700  0.51778400  0.34129000  1
  O  O2  1  0.32622000  0.66331500  0.11179500  1
  O  O3  1  0.00259400  0.00136500  0.30317400  1
  O  O4  1  0.00947300  0.00382600  0.80258600  1
  O  O5  1  0.15951400  0.33384600  0.58792400  1
  O  O6  1  0.48114000  0.96138200  0.34338900  1
  O  O7  1  0.48109200  0.51941200  0.34324000  1
  O  O8  1  0.33701300  0.16811000  0.09263100  1
  O  O9  1  0.66529400  0.83288400  0.59316200  1
  O  O10  1  0.52431900  0.48812800  0.84746900  1
  O  O11  1  0.52119400  0.03799600  0.84581700  1
  O  O12  1  0.66131500  0.33098700  0.61051000  1
  O  O13  1  0.83084000  0.66761600  0.09032100  1
  O  O14  1  0.96610100  0.48205600  0.84203100  1
  O  O15  1  0.82981300  0.16288700  0.08958700  1
loop_
_geom_bond_atom_site_label_1
_geom_bond_atom_site_label_2
_geom_bond_distance
_geom_bond_site_symmetry_2
Li0 O14 1.962244 1_455
Li0 O10 2.004755 1_555
Li0 O11 2.010597 1_565
Li0 O2 2.014789 1_556
Li1 O4 1.839725 1_555
Li1 O8 1.945105 1_556
Li1 O15 1.991167 1_456
Li1 O13 1.995165 1_446
Li2 O3 1.818759 1_555
Li2 O0 1.952835 1_545
Li2 O5 1.953999 1_555
Li2 O9 2.034381 1_445
Li3 O7 1.972231 1_555
Li3 O6 1.974690 1_545
Li3 O1 2.038980 1_655
Li3 O12 2.046547 1_555
Nb0 O0 1.935729 1_555
Nb0 O9 1.938544 1_555
Nb0 O5 1.944094 1_555
Nb0 O6 2.112962 1_555
Nb0 O7 2.113928 1_555
Nb0 O1 2.170529 1_555
Nb1 O8 1.933036 1_556
Nb1 O13 1.952550 1_556
Nb1 O15 1.954649 1_556
Nb1 O10 2.104536 1_555
Nb1 O11 2.125962 1_555
Nb1 O14 2.145429 1_555
Fe0 O3 1.974970 1_665
Fe0 O2 1.990037 1_555
Fe0 O6 2.027457 1_555
Fe0 O7 2.030034 1_555
Fe0 O15 2.104217 1_565
Fe0 O13 2.108339 1_555
Fe1 O4 1.969425 1_665
Fe1 O12 1.994165 1_555
Fe1 O14 2.014066 1_555
Fe1 O10 2.016890 1_555
Fe1 O0 2.097979 1_655
Fe1 O9 2.136797 1_555
Fe2 O4 1.970277 1_655
Fe2 O12 1.994087 1_555
Fe2 O14 2.011928 1_555
Fe2 O11 2.016638 1_555
Fe2 O5 2.109679 1_655
Fe2 O9 2.139898 1_545
Cu0 O3 1.943604 1_565
Cu0 O2 1.947159 1_555
Cu0 O1 2.019875 1_555
Cu0 O6 2.044507 1_555
Cu0 O8 2.116251 1_565
Cu0 O13 2.133191 1_455
Cu1 O3 1.943107 1_555
Cu1 O2 1.945847 1_555
Cu1 O1 2.018519 1_555
Cu1 O7 2.044557 1_555
Cu1 O8 2.122225 1_555
Cu1 O15 2.141330 1_455
Cu2 O4 1.912250 1_555
Cu2 O12 1.923589 1_555
Cu2 O11 2.055804 1_555
Cu2 O10 2.087584 1_555
Cu2 O5 2.174326 1_555
Cu2 O0 2.218626 1_545
