# generated using pymatgen
data_LiAuC4S4(OF)12
_symmetry_space_group_name_H-M   'P 1'
_cell_length_a   5.30967300
_cell_length_b   8.83225918
_cell_length_c   10.76629630
_cell_angle_alpha   94.06607442
_cell_angle_beta   92.53799559
_cell_angle_gamma   94.10013685
_symmetry_Int_Tables_number   1
_chemical_formula_structural   LiAuC4S4(OF)12
_chemical_formula_sum   'Li1 Au1 C4 S4 O12 F12'
_cell_volume   501.72239729
_cell_formula_units_Z   1
loop_
 _symmetry_equiv_pos_site_id
 _symmetry_equiv_pos_as_xyz
  1  'x, y, z'
loop_
 _atom_site_type_symbol
 _atom_site_label
 _atom_site_symmetry_multiplicity
 _atom_site_fract_x
 _atom_site_fract_y
 _atom_site_fract_z
 _atom_site_occupancy
  Li  Li0  1  0.00000000  0.50000000  0.00000000  1
  Au  Au0  1  0.50000000  0.00000000  0.00000000  1
  C  C0  1  0.83910800  0.16824300  0.65756600  1
  C  C1  1  0.16089200  0.83175700  0.34243400  1
  C  C2  1  0.44861300  0.67113500  0.68115300  1
  C  C3  1  0.55138700  0.32886500  0.31884700  1
  S  S0  1  0.47609300  0.66363600  0.85498200  1
  S  S1  1  0.52390700  0.33636400  0.14501800  1
  S  S2  1  0.90917100  0.15929800  0.82966900  1
  S  S3  1  0.09082900  0.84070200  0.17033100  1
  O  O0  1  0.03220800  0.30707300  0.86968800  1
  O  O1  1  0.96779200  0.69292700  0.13031200  1
  O  O2  1  0.63630100  0.14419100  0.87302200  1
  O  O3  1  0.36369900  0.85580900  0.12697800  1
  O  O4  1  0.21853700  0.64998200  0.89323800  1
  O  O5  1  0.78146300  0.35001800  0.10676200  1
  O  O6  1  0.64207700  0.54519000  0.87721500  1
  O  O7  1  0.35792300  0.45481000  0.12278500  1
  O  O8  1  0.61726300  0.81814600  0.89543800  1
  O  O9  1  0.38273700  0.18185400  0.10456200  1
  O  O10  1  0.04493600  0.02590700  0.84464000  1
  O  O11  1  0.95506400  0.97409300  0.15536000  1
  F  F0  1  0.06252400  0.18377600  0.60285800  1
  F  F1  1  0.93747600  0.81622400  0.39714200  1
  F  F2  1  0.67995400  0.68468500  0.63488400  1
  F  F3  1  0.32004600  0.31531500  0.36511600  1
  F  F4  1  0.31773900  0.79044000  0.65263700  1
  F  F5  1  0.68226100  0.20956000  0.34736300  1
  F  F6  1  0.32290900  0.54121600  0.63143700  1
  F  F7  1  0.67709100  0.45878400  0.36856300  1
  F  F8  1  0.70918800  0.03910300  0.61017700  1
  F  F9  1  0.29081200  0.96089700  0.38982300  1
  F  F10  1  0.70482600  0.28825200  0.63583200  1
  F  F11  1  0.29517400  0.71174800  0.36416800  1
loop_
_geom_bond_atom_site_label_1
_geom_bond_atom_site_label_2
_geom_bond_distance
_geom_bond_site_symmetry_2
Li0 O4 2.129942 1_554
Li0 O5 2.129942 1_455
Li0 O1 2.150590 1_455
Li0 O0 2.150590 1_554
Li0 O7 2.340801 1_555
Li0 O6 2.340801 1_454
Au0 O9 2.045349 1_555
Au0 O8 2.045349 1_544
Au0 O2 2.053603 1_554
Au0 O3 2.053603 1_545
C0 F8 1.345707 1_555
C0 F10 1.347248 1_555
C0 F0 1.350200 1_655
C1 F9 1.345707 1_555
C1 F11 1.347248 1_555
C1 F1 1.350200 1_455
C2 F2 1.346450 1_555
C2 F4 1.348772 1_555
C2 F6 1.349233 1_555
C3 F3 1.346450 1_555
C3 F5 1.348772 1_555
C3 F7 1.349233 1_555
O0 S2 1.445450 1_455
O1 S3 1.445450 1_655
O2 S2 1.541398 1_555
O3 S3 1.541398 1_555
O4 S0 1.444884 1_555
O5 S1 1.444884 1_555
O6 S0 1.441221 1_555
O7 S1 1.441221 1_555
O8 S0 1.534409 1_555
O9 S1 1.534409 1_555
O10 S2 1.439354 1_455
O11 S3 1.439354 1_655
