# generated using pymatgen
data_TbSi
_symmetry_space_group_name_H-M   'P 1'
_cell_length_a   3.83896042
_cell_length_b   5.72157454
_cell_length_c   7.94671079
_cell_angle_alpha   90.00000000
_cell_angle_beta   90.00000000
_cell_angle_gamma   90.00000000
_symmetry_Int_Tables_number   1
_chemical_formula_structural   TbSi
_chemical_formula_sum   'Tb4 Si4'
_cell_volume   174.54869352
_cell_formula_units_Z   4
loop_
 _symmetry_equiv_pos_site_id
 _symmetry_equiv_pos_as_xyz
  1  'x, y, z'
loop_
 _atom_site_type_symbol
 _atom_site_label
 _atom_site_symmetry_multiplicity
 _atom_site_fract_x
 _atom_site_fract_y
 _atom_site_fract_z
 _atom_site_occupancy
  Tb  Tb0  1  0.25000000  0.38522462  0.67933243  1
  Tb  Tb1  1  0.75000000  0.61477538  0.32066757  1
  Tb  Tb2  1  0.75000000  0.88522462  0.82066757  1
  Tb  Tb3  1  0.25000000  0.11477538  0.17933243  1
  Si  Si0  1  0.25000000  0.87273968  0.53726585  1
  Si  Si1  1  0.75000000  0.12726032  0.46273415  1
  Si  Si2  1  0.75000000  0.37273968  0.96273415  1
  Si  Si3  1  0.25000000  0.62726032  0.03726585  1
loop_
_geom_bond_atom_site_label_1
_geom_bond_atom_site_label_2
_geom_bond_distance
_geom_bond_site_symmetry_2
Si0 Si1 2.481107 1_465
Si0 Si1 2.481107 1_565
Si0 Tb2 2.959985 1_555
Si0 Tb2 2.959985 1_455
Si0 Tb1 2.970782 1_455
Si0 Tb1 2.970782 1_555
Si0 Tb0 3.009161 1_555
Si0 Tb0 3.142049 1_565
Si0 Tb3 3.163592 1_565
Si1 Tb3 2.959985 1_655
Si1 Tb3 2.959985 1_555
Si1 Tb0 2.970782 1_655
Si1 Tb0 2.970782 1_555
Si1 Tb1 3.009161 1_555
Si1 Tb1 3.142049 1_545
Si1 Tb2 3.163592 1_545
Si2 Si3 2.481107 1_656
Si2 Si3 2.481107 1_556
Si2 Tb0 2.959985 1_655
Si2 Tb0 2.959985 1_555
Si2 Tb3 2.970782 1_556
Si2 Tb3 2.970782 1_656
Si2 Tb2 3.009161 1_545
Si2 Tb2 3.142049 1_555
Si2 Tb1 3.163592 1_556
Si3 Tb1 2.959985 1_455
Si3 Tb1 2.959985 1_555
Si3 Tb2 2.970782 1_454
Si3 Tb2 2.970782 1_554
Si3 Tb3 3.009161 1_565
Si3 Tb3 3.142049 1_555
Si3 Tb0 3.163592 1_554
