# generated using pymatgen
data_K5Pt4(N3O8)3
_symmetry_space_group_name_H-M   'P 1'
_cell_length_a   10.12491800
_cell_length_b   10.37785963
_cell_length_c   15.52760818
_cell_angle_alpha   71.04010930
_cell_angle_beta   75.19145702
_cell_angle_gamma   72.03324253
_symmetry_Int_Tables_number   1
_chemical_formula_structural   K5Pt4(N3O8)3
_chemical_formula_sum   'K10 Pt8 N18 O48'
_cell_volume   1445.74406811
_cell_formula_units_Z   2
loop_
 _symmetry_equiv_pos_site_id
 _symmetry_equiv_pos_as_xyz
  1  'x, y, z'
loop_
 _atom_site_type_symbol
 _atom_site_label
 _atom_site_symmetry_multiplicity
 _atom_site_fract_x
 _atom_site_fract_y
 _atom_site_fract_z
 _atom_site_occupancy
  K  K0  1  0.90350900  0.36716000  0.44303600  1
  K  K1  1  0.09649100  0.63284000  0.55696400  1
  K  K2  1  0.72279300  0.36480900  0.71599700  1
  K  K3  1  0.27720700  0.63519100  0.28400300  1
  K  K4  1  0.90573400  0.83719000  0.96678700  1
  K  K5  1  0.09426600  0.16281000  0.03321300  1
  K  K6  1  0.63872500  0.62519400  0.86994300  1
  K  K7  1  0.36127500  0.37480600  0.13005700  1
  K  K8  1  0.63916500  0.04125300  0.37846300  1
  K  K9  1  0.36083500  0.95874700  0.62153700  1
  Pt  Pt0  1  0.56479800  0.70116300  0.37874600  1
  Pt  Pt1  1  0.43520200  0.29883700  0.62125400  1
  Pt  Pt2  1  0.84679500  0.76334300  0.26261300  1
  Pt  Pt3  1  0.15320500  0.23665700  0.73738700  1
  Pt  Pt4  1  0.55887300  0.89006000  0.16765300  1
  Pt  Pt5  1  0.44112700  0.10994000  0.83234700  1
  Pt  Pt6  1  0.71497400  0.56910300  0.20987200  1
  Pt  Pt7  1  0.28502600  0.43089700  0.79012800  1
  N  N0  1  0.62610800  0.18340500  0.58203900  1
  N  N1  1  0.37389200  0.81659500  0.41796100  1
  N  N2  1  0.62335900  0.68238500  0.49701800  1
  N  N3  1  0.37664100  0.31761500  0.50298200  1
  N  N4  1  0.92666900  0.74169700  0.37222700  1
  N  N5  1  0.07333100  0.25830300  0.62777300  1
  N  N6  1  0.91535500  0.93364800  0.18917600  1
  N  N7  1  0.08464500  0.06635200  0.81082400  1
  N  N8  1  0.61580500  0.06654900  0.09104800  1
  N  N9  1  0.38419500  0.93345100  0.90895200  1
  N  N10  1  0.64672700  0.01216700  0.82342100  1
  N  N11  1  0.35327300  0.98783300  0.17657900  1
  N  N12  1  0.65721600  0.38349900  0.27992400  1
  N  N13  1  0.34278400  0.61650100  0.72007600  1
  N  N14  1  0.66151700  0.57982600  0.08829000  1
  N  N15  1  0.33848300  0.42017400  0.91171000  1
  N  N16  1  0.91643100  0.45469300  0.16819600  1
  N  N17  1  0.08356900  0.54530700  0.83180400  1
  O  O0  1  0.76284900  0.76405900  0.15486000  1
  O  O1  1  0.23715100  0.23594100  0.84514000  1
  O  O2  1  0.52379300  0.69934900  0.25464500  1
  O  O3  1  0.47620700  0.30065100  0.74535500  1
  O  O4  1  0.76111200  0.58980900  0.32661000  1
  O  O5  1  0.23888800  0.41019100  0.67339000  1
  O  O6  1  0.73304000  0.22317400  0.57834400  1
  O  O7  1  0.26696000  0.77682600  0.42165600  1
  O  O8  1  0.63866100  0.07130200  0.56326800  1
  O  O9  1  0.36133900  0.92869800  0.43673200  1
  O  O10  1  0.60104000  0.78509700  0.52870600  1
  O  O11  1  0.39896000  0.21490300  0.47129400  1
  O  O12  1  0.68859800  0.56253300  0.53767100  1
  O  O13  1  0.31140200  0.43746700  0.46232900  1
  O  O14  1  0.98828400  0.37553500  0.59871200  1
  O  O15  1  0.01171600  0.62446500  0.40128800  1
  O  O16  1  0.89421500  0.83314500  0.41500300  1
  O  O17  1  0.10578500  0.16685500  0.58499700  1
  O  O18  1  0.97920300  0.93482500  0.10819800  1
  O  O19  1  0.02079700  0.06517500  0.89180200  1
  O  O20  1  0.89141700  0.03760300  0.21966200  1
  O  O21  1  0.10858300  0.96239700  0.78033800  1
  O  O22  1  0.67338600  0.07374600  0.00860600  1
  O  O23  1  0.32661400  0.92625400  0.99139400  1
  O  O24  1  0.59809300  0.16396000  0.12657100  1
  O  O25  1  0.40190700  0.83604000  0.87342900  1
  O  O26  1  0.68971900  0.88127800  0.85446000  1
  O  O27  1  0.31028100  0.11872200  0.14554000  1
  O  O28  1  0.73310900  0.08655500  0.79079100  1
  O  O29  1  0.26689100  0.91344500  0.20920900  1
  O  O30  1  0.54697700  0.36383500  0.27108700  1
  O  O31  1  0.45302300  0.63616500  0.72891300  1
  O  O32  1  0.73481600  0.29492500  0.33395600  1
  O  O33  1  0.26518400  0.70507500  0.66604400  1
  O  O34  1  0.55104200  0.55376700  0.08609800  1
  O  O35  1  0.44895800  0.44623300  0.91390200  1
  O  O36  1  0.74388200  0.62060300  0.01664500  1
  O  O37  1  0.25611800  0.37939700  0.98335500  1
  O  O38  1  0.98344600  0.52015100  0.81344500  1
  O  O39  1  0.01655400  0.47984900  0.18655500  1
  O  O40  1  0.93001100  0.36656400  0.12665300  1
  O  O41  1  0.06998900  0.63343600  0.87334700  1
  O  O42  1  0.85920000  0.84099900  0.65631900  1
  O  O43  1  0.14080000  0.15900100  0.34368100  1
  O  O44  1  0.81102600  0.73671100  0.67779800  1
  O  O45  1  0.18897400  0.26328900  0.32220200  1
  O  O46  1  0.76152400  0.31878500  0.90134100  1
  O  O47  1  0.23847600  0.68121500  0.09865900  1
loop_
_geom_bond_atom_site_label_1
_geom_bond_atom_site_label_2
_geom_bond_distance
_geom_bond_site_symmetry_2
K0 O4 2.692322 1_555
K0 O6 2.706187 1_555
K0 O14 2.798337 1_555
K0 O12 2.929985 1_555
K0 O15 3.011292 1_655
K0 O32 3.072756 1_555
K0 O45 3.107454 1_655
K0 O43 3.144516 1_655
K0 O17 3.174628 1_655
K1 O5 2.692322 1_555
K1 O7 2.706187 1_555
K1 O15 2.798337 1_555
K1 O13 2.929985 1_555
K1 O14 3.011292 1_455
K1 O33 3.072756 1_555
K1 O44 3.107454 1_455
K1 O42 3.144516 1_455
K1 O16 3.174628 1_455
K2 O3 2.670389 1_555
K2 O28 2.719388 1_555
K2 O14 2.846960 1_555
K2 O46 2.869256 1_555
K2 O12 2.890894 1_555
K2 O6 2.928130 1_555
K2 O31 3.282191 1_555
K3 O2 2.670389 1_555
K3 O29 2.719388 1_555
K3 O15 2.846960 1_555
K3 O47 2.869256 1_555
K3 O13 2.890894 1_555
K3 O7 2.928130 1_555
K3 O30 3.282191 1_555
K4 O19 2.743692 1_665
K4 O41 2.816523 1_655
K4 O0 2.876582 1_556
K4 O22 2.945292 1_566
K4 O36 2.971556 1_556
K4 O26 2.974746 1_555
K4 O18 3.024417 1_556
K4 O21 3.232748 1_655
K5 O18 2.743692 1_445
K5 O40 2.816523 1_455
K5 O1 2.876582 1_554
K5 O23 2.945292 1_544
K5 O37 2.971556 1_554
K5 O27 2.974746 1_555
K5 O19 3.024417 1_554
K5 O20 3.232748 1_455
K6 O25 2.704428 1_555
K6 O36 2.731812 1_556
K6 O26 2.784801 1_555
K6 O35 2.883437 1_555
K6 O46 2.959472 1_555
K6 O44 3.102504 1_555
K6 O34 3.141490 1_556
K6 O31 3.186584 1_555
K6 O38 3.293768 1_555
K7 O24 2.704428 1_555
K7 O37 2.731812 1_554
K7 O27 2.784801 1_555
K7 O34 2.883437 1_555
K7 O47 2.959472 1_555
K7 O45 3.102504 1_555
K7 O35 3.141490 1_554
K7 O30 3.186584 1_555
K7 O39 3.293768 1_555
K8 O16 2.857771 1_545
K8 O32 2.897323 1_555
K8 O11 2.903846 1_555
K8 O10 2.966667 1_545
K8 O8 2.984089 1_555
K8 O20 3.063726 1_555
K8 O30 3.177897 1_555
K8 O9 3.183573 1_545
K9 O17 2.857771 1_565
K9 O33 2.897323 1_555
K9 O10 2.903846 1_555
K9 O11 2.966667 1_565
K9 O9 2.984089 1_555
K9 O21 3.063726 1_555
K9 O31 3.177897 1_555
K9 O8 3.183573 1_565
N0 O8 1.250907 1_555
N0 O6 1.254730 1_555
N0 Pt1 1.996450 1_555
N1 O9 1.250907 1_555
N1 O7 1.254730 1_555
N1 Pt0 1.996450 1_555
N2 O10 1.250899 1_555
N2 O12 1.256154 1_555
N2 Pt0 2.003741 1_555
N3 O11 1.250899 1_555
N3 O13 1.256154 1_555
N3 Pt1 2.003741 1_555
N4 O16 1.247186 1_555
N4 O15 1.273122 1_655
N4 Pt2 1.986085 1_555
N5 O17 1.247186 1_555
N5 O14 1.273122 1_455
N5 Pt3 1.986085 1_555
N6 O20 1.248437 1_565
N6 O18 1.256373 1_555
N6 Pt2 1.987086 1_555
N7 O21 1.248437 1_545
N7 O19 1.256373 1_555
N7 Pt3 1.987086 1_555
N8 O24 1.248317 1_555
N8 O22 1.251969 1_555
N8 Pt4 1.996742 1_545
N9 O25 1.248317 1_555
N9 O23 1.251969 1_555
N9 Pt5 1.996742 1_565
N10 O28 1.246385 1_555
N10 O26 1.258541 1_545
N10 Pt5 2.005737 1_555
N11 O29 1.246385 1_555
N11 O27 1.258541 1_565
N11 Pt4 2.005737 1_555
N12 O30 1.242295 1_555
N12 O32 1.247568 1_555
N12 Pt6 2.059997 1_555
N13 O31 1.242295 1_555
N13 O33 1.247568 1_555
N13 Pt7 2.059997 1_555
N14 O34 1.239964 1_555
N14 O36 1.244868 1_555
N14 Pt6 2.053794 1_555
N15 O35 1.239964 1_555
N15 O37 1.244868 1_555
N15 Pt7 2.053794 1_555
N16 O40 1.237715 1_555
N16 O39 1.239532 1_655
N16 Pt6 2.078338 1_555
N17 O41 1.237715 1_555
N17 O38 1.239532 1_455
N17 Pt7 2.078338 1_555
O0 Pt2 2.058361 1_555
O0 Pt4 2.075470 1_555
O0 Pt6 2.080484 1_555
O1 Pt3 2.058361 1_555
O1 Pt5 2.075470 1_555
O1 Pt7 2.080484 1_555
O2 Pt4 2.078241 1_555
O2 Pt0 2.079273 1_555
O2 Pt6 2.089456 1_555
O3 Pt5 2.078241 1_555
O3 Pt1 2.079273 1_555
O3 Pt7 2.089456 1_555
O4 Pt6 2.073170 1_555
O4 Pt0 2.076035 1_555
O4 Pt2 2.084143 1_555
O5 Pt7 2.073170 1_555
O5 Pt1 2.076035 1_555
O5 Pt3 2.084143 1_555
O42 O44 1.236303 1_555
O43 O45 1.236303 1_555
