# generated using pymatgen
data_Li3BH6
_symmetry_space_group_name_H-M   'P 1'
_cell_length_a   5.36224230
_cell_length_b   5.36224230
_cell_length_c   5.36224181
_cell_angle_alpha   94.38395931
_cell_angle_beta   94.38396787
_cell_angle_gamma   94.38396318
_symmetry_Int_Tables_number   1
_chemical_formula_structural   Li3BH6
_chemical_formula_sum   'Li6 B2 H12'
_cell_volume   152.75715552
_cell_formula_units_Z   2
loop_
 _symmetry_equiv_pos_site_id
 _symmetry_equiv_pos_as_xyz
  1  'x, y, z'
loop_
 _atom_site_type_symbol
 _atom_site_label
 _atom_site_symmetry_multiplicity
 _atom_site_fract_x
 _atom_site_fract_y
 _atom_site_fract_z
 _atom_site_occupancy
  Li  Li0  1  0.26827400  0.50623300  0.07259300  1
  Li  Li1  1  0.07259300  0.26827400  0.50623300  1
  Li  Li2  1  0.50623300  0.07259300  0.26827400  1
  Li  Li3  1  0.73172600  0.49376700  0.92740700  1
  Li  Li4  1  0.92740700  0.73172600  0.49376700  1
  Li  Li5  1  0.49376700  0.92740700  0.73172600  1
  B  B0  1  0.00000000  0.00000000  0.00000000  1
  B  B1  1  0.50000000  0.50000000  0.50000000  1
  H  H0  1  0.78532900  0.89415000  0.04759700  1
  H  H1  1  0.04759600  0.78532800  0.89415000  1
  H  H2  1  0.89414900  0.04759600  0.78532900  1
  H  H3  1  0.21467100  0.10585000  0.95240300  1
  H  H4  1  0.95240400  0.21467200  0.10585000  1
  H  H5  1  0.10585100  0.95240400  0.21467100  1
  H  H6  1  0.45847000  0.24032000  0.93961800  1
  H  H7  1  0.93961800  0.45847000  0.24031800  1
  H  H8  1  0.24031900  0.93961900  0.45847000  1
  H  H9  1  0.54153000  0.75968000  0.06038200  1
  H  H10  1  0.06038200  0.54153000  0.75968200  1
  H  H11  1  0.75968100  0.06038100  0.54153000  1
loop_
_geom_bond_atom_site_label_1
_geom_bond_atom_site_label_2
_geom_bond_distance
_geom_bond_site_symmetry_2
B0 H0 1.295975 1_445
B0 H3 1.295975 1_554
B0 H2 1.295975 1_454
B0 H5 1.295975 1_545
B0 H4 1.295978 1_455
B0 H1 1.295978 1_544
B1 Li3 2.525947 1_555
B1 Li0 2.525947 1_555
B1 Li1 2.525947 1_555
B1 Li4 2.525947 1_555
B1 Li5 2.525947 1_555
B1 Li2 2.525947 1_555
H0 Li3 2.184761 1_554
H0 Li2 2.207293 1_565
H0 Li5 2.242531 1_554
H1 Li4 2.184759 1_455
H1 Li0 2.207292 1_556
H1 Li3 2.242524 1_455
H2 Li5 2.184754 1_545
H2 Li1 2.207299 1_655
H2 Li4 2.242528 1_545
H3 Li0 2.184761 1_556
H3 Li5 2.207293 1_545
H3 Li2 2.242531 1_556
H4 Li1 2.184759 1_655
H4 Li3 2.207292 1_554
H4 Li0 2.242524 1_655
H5 Li2 2.184754 1_565
H5 Li4 2.207299 1_455
H5 Li1 2.242528 1_565
H6 Li3 1.929280 1_555
H6 Li0 1.939022 1_556
H6 Li5 1.971999 1_545
H6 Li2 2.046668 1_556
H7 Li4 1.929287 1_555
H7 Li1 1.939030 1_655
H7 Li3 1.971990 1_554
H7 Li0 2.046663 1_655
H8 Li5 1.929285 1_555
H8 Li2 1.939024 1_565
H8 Li4 1.971997 1_455
H8 Li1 2.046661 1_565
H9 Li0 1.929280 1_555
H9 Li3 1.939022 1_554
H9 Li2 1.971999 1_565
H9 Li5 2.046668 1_554
H10 Li1 1.929287 1_555
H10 Li4 1.939030 1_455
H10 Li0 1.971990 1_556
H10 Li3 2.046663 1_455
H11 Li2 1.929285 1_555
H11 Li5 1.939024 1_545
H11 Li1 1.971997 1_655
H11 Li4 2.046661 1_545
