# generated using pymatgen
data_Na2Sr3As4
_symmetry_space_group_name_H-M   'P 1'
_cell_length_a   7.52903012
_cell_length_b   8.27277769
_cell_length_c   17.66061276
_cell_angle_alpha   61.97908712
_cell_angle_beta   90.00000000
_cell_angle_gamma   90.00000000
_symmetry_Int_Tables_number   1
_chemical_formula_structural   Na2Sr3As4
_chemical_formula_sum   'Na8 Sr12 As16'
_cell_volume   971.06155688
_cell_formula_units_Z   4
loop_
 _symmetry_equiv_pos_site_id
 _symmetry_equiv_pos_as_xyz
  1  'x, y, z'
loop_
 _atom_site_type_symbol
 _atom_site_label
 _atom_site_symmetry_multiplicity
 _atom_site_fract_x
 _atom_site_fract_y
 _atom_site_fract_z
 _atom_site_occupancy
  Na  Na0  1  0.85526166  0.26146030  0.25148399  1
  Na  Na1  1  0.35526166  0.73853970  0.24851601  1
  Na  Na2  1  0.14473834  0.73853970  0.74851601  1
  Na  Na3  1  0.64473834  0.26146030  0.75148399  1
  Na  Na4  1  0.68341816  0.04730320  0.12404834  1
  Na  Na5  1  0.18341816  0.95269680  0.37595166  1
  Na  Na6  1  0.31658184  0.95269680  0.87595166  1
  Na  Na7  1  0.81658184  0.04730320  0.62404834  1
  Sr  Sr0  1  0.52384175  0.59519629  0.09942487  1
  Sr  Sr1  1  0.02384175  0.40480371  0.40057513  1
  Sr  Sr2  1  0.47605419  0.71047576  0.59985925  1
  Sr  Sr3  1  0.97605419  0.28952424  0.90014075  1
  Sr  Sr4  1  0.47615825  0.40480371  0.90057513  1
  Sr  Sr5  1  0.97615825  0.59519629  0.59942487  1
  Sr  Sr6  1  0.52394581  0.28952424  0.40014075  1
  Sr  Sr7  1  0.02394581  0.71047576  0.09985925  1
  Sr  Sr8  1  0.32085914  0.18970955  0.62912364  1
  Sr  Sr9  1  0.82085914  0.81029045  0.87087636  1
  Sr  Sr10  1  0.67914086  0.81029045  0.37087636  1
  Sr  Sr11  1  0.17914086  0.18970955  0.12912364  1
  As  As0  1  0.85115917  0.43061296  0.03727525  1
  As  As1  1  0.35115917  0.56938704  0.46272475  1
  As  As2  1  0.14588566  0.99496947  0.53716775  1
  As  As3  1  0.64588566  0.00503053  0.96283225  1
  As  As4  1  0.14884083  0.56938704  0.96272475  1
  As  As5  1  0.64884083  0.43061296  0.53727525  1
  As  As6  1  0.85411434  0.00503053  0.46283225  1
  As  As7  1  0.35411434  0.99496947  0.03716775  1
  As  As8  1  0.74015653  0.62076403  0.25104052  1
  As  As9  1  0.24015653  0.37923597  0.24895948  1
  As  As10  1  0.25984347  0.37923597  0.74895948  1
  As  As11  1  0.75984347  0.62076403  0.75104052  1
  As  As12  1  0.98062654  0.83228622  0.24970945  1
  As  As13  1  0.48062654  0.16771378  0.25029055  1
  As  As14  1  0.01937346  0.16771378  0.75029055  1
  As  As15  1  0.51937346  0.83228622  0.74970945  1
loop_
_geom_bond_atom_site_label_1
_geom_bond_atom_site_label_2
_geom_bond_distance
_geom_bond_site_symmetry_2
As0 As4 2.579627 1_654
As0 Na4 3.071315 1_555
As0 Sr11 3.108605 1_655
As0 Sr9 3.143411 1_554
As0 Sr0 3.245909 1_555
As0 Sr7 3.267833 1_655
As0 Sr3 3.281480 1_554
As0 Na0 3.361048 1_555
As0 Sr4 3.785481 1_554
As1 As5 2.579627 1_555
As1 Na5 3.071315 1_555
As1 Sr10 3.108605 1_555
As1 Sr8 3.143411 1_555
As1 Sr1 3.245909 1_555
As1 Sr6 3.267833 1_555
As1 Sr2 3.281480 1_555
As1 Na1 3.361048 1_555
As1 Sr5 3.785481 1_455
As2 As6 2.540367 1_465
As2 Na5 3.040411 1_555
As2 Na7 3.051721 1_465
As2 Sr8 3.070274 1_565
As2 Sr5 3.219171 1_455
As2 Sr1 3.236368 1_565
As2 Sr2 3.239772 1_555
As2 Na2 3.315479 1_555
As2 Sr6 3.788885 1_565
As3 As7 2.540367 1_546
As3 Na4 3.040411 1_556
As3 Na6 3.051721 1_545
As3 Sr9 3.070274 1_545
As3 Sr4 3.219171 1_555
As3 Sr0 3.236368 1_546
As3 Sr3 3.239772 1_555
As3 Na3 3.315479 1_555
As3 Sr7 3.788885 1_646
As4 Na6 3.071315 1_555
As4 Sr9 3.108605 1_455
As4 Sr11 3.143411 1_556
As4 Sr4 3.245909 1_555
As4 Sr3 3.267833 1_455
As4 Sr7 3.281480 1_556
As4 Na2 3.361048 1_555
As4 Sr0 3.785481 1_556
As5 Na7 3.071315 1_555
As5 Sr8 3.108605 1_555
As5 Sr10 3.143411 1_555
As5 Sr5 3.245909 1_555
As5 Sr2 3.267833 1_555
As5 Sr6 3.281480 1_555
As5 Na3 3.361048 1_555
As5 Sr1 3.785481 1_655
As6 Na7 3.040411 1_555
As6 Na5 3.051721 1_645
As6 Sr10 3.070274 1_545
As6 Sr1 3.219171 1_655
As6 Sr5 3.236368 1_545
As6 Sr6 3.239772 1_555
As6 Na0 3.315479 1_555
As6 Sr2 3.788885 1_545
As7 Na6 3.040411 1_554
As7 Na4 3.051721 1_565
As7 Sr11 3.070274 1_565
As7 Sr0 3.219171 1_555
As7 Sr4 3.236368 1_564
As7 Sr7 3.239772 1_555
As7 Na1 3.315479 1_555
As7 Sr3 3.788885 1_464
As8 Na1 3.050940 1_555
As8 Na0 3.092674 1_555
As8 Na4 3.198137 1_565
As8 Sr10 3.204097 1_555
As8 Sr1 3.208575 1_655
As8 Sr6 3.211385 1_555
As8 Sr7 3.222256 1_655
As8 Sr0 3.224753 1_555
As9 Na0 3.050940 1_455
As9 Na1 3.092674 1_555
As9 Na5 3.198137 1_545
As9 Sr11 3.204097 1_555
As9 Sr0 3.208575 1_555
As9 Sr7 3.211385 1_555
As9 Sr6 3.222256 1_555
As9 Sr1 3.224753 1_555
As10 As14 2.510359 1_555
As10 Na3 3.050940 1_555
As10 Na2 3.092674 1_555
As10 Na6 3.198137 1_545
As10 Sr8 3.204097 1_555
As10 Sr5 3.208575 1_455
As10 Sr2 3.211385 1_555
As10 Sr3 3.222256 1_455
As10 Sr4 3.224753 1_555
As11 As15 2.510359 1_555
As11 Na2 3.050940 1_655
As11 Na3 3.092674 1_555
As11 Na7 3.198137 1_565
As11 Sr9 3.204097 1_555
As11 Sr4 3.208575 1_555
As11 Sr3 3.211385 1_555
As11 Sr2 3.222256 1_555
As11 Sr5 3.224753 1_555
As12 As8 2.510359 1_555
As12 Na1 2.928016 1_655
As12 Na4 3.063875 1_565
As12 Sr10 3.065741 1_555
As12 Sr11 3.097695 1_665
As12 Na5 3.221944 1_655
As12 Sr7 3.260564 1_655
As12 Sr1 3.295168 1_655
As13 As9 2.510359 1_555
As13 Na0 2.928016 1_555
As13 Na5 3.063875 1_545
As13 Sr11 3.065741 1_555
As13 Sr10 3.097695 1_545
As13 Na4 3.221944 1_555
As13 Sr6 3.260564 1_555
As13 Sr0 3.295168 1_555
As14 Na3 2.928016 1_455
As14 Na6 3.063875 1_545
As14 Sr8 3.065741 1_555
As14 Sr9 3.097695 1_445
As14 Na7 3.221944 1_455
As14 Sr3 3.260564 1_455
As14 Sr5 3.295168 1_455
As15 Na2 2.928016 1_555
As15 Na7 3.063875 1_565
As15 Sr9 3.065741 1_555
As15 Sr8 3.097695 1_565
As15 Na6 3.221944 1_555
As15 Sr2 3.260564 1_555
As15 Sr4 3.295168 1_555
