# generated using pymatgen
data_Gd2Zn17
_symmetry_space_group_name_H-M   'P 1'
_cell_length_a   8.69767500
_cell_length_b   9.08188606
_cell_length_c   9.08188606
_cell_angle_alpha   119.99565866
_cell_angle_beta   90.00000000
_cell_angle_gamma   90.00000000
_symmetry_Int_Tables_number   1
_chemical_formula_structural   Gd2Zn17
_chemical_formula_sum   'Gd4 Zn34'
_cell_volume   621.30507679
_cell_formula_units_Z   2
loop_
 _symmetry_equiv_pos_site_id
 _symmetry_equiv_pos_as_xyz
  1  'x, y, z'
loop_
 _atom_site_type_symbol
 _atom_site_label
 _atom_site_symmetry_multiplicity
 _atom_site_fract_x
 _atom_site_fract_y
 _atom_site_fract_z
 _atom_site_occupancy
  Gd  Gd0  1  0.25000000  0.00015800  0.99984200  1
  Gd  Gd1  1  0.75000000  0.99984200  0.00015800  1
  Gd  Gd2  1  0.75000000  0.66679100  0.33320900  1
  Gd  Gd3  1  0.25000000  0.33320900  0.66679100  1
  Zn  Zn0  1  0.09814300  0.66666300  0.33333700  1
  Zn  Zn1  1  0.90185700  0.33333700  0.66666300  1
  Zn  Zn2  1  0.59814300  0.33333700  0.66666300  1
  Zn  Zn3  1  0.40185700  0.66666300  0.33333700  1
  Zn  Zn4  1  0.00000000  0.50000000  0.00000000  1
  Zn  Zn5  1  0.00000000  0.50000000  0.50000000  1
  Zn  Zn6  1  0.00000000  0.00000000  0.50000000  1
  Zn  Zn7  1  0.50000000  0.50000000  0.00000000  1
  Zn  Zn8  1  0.50000000  0.50000000  0.50000000  1
  Zn  Zn9  1  0.50000000  0.00000000  0.50000000  1
  Zn  Zn10  1  0.25000000  0.67077000  0.03497500  1
  Zn  Zn11  1  0.25000000  0.36471000  0.33000400  1
  Zn  Zn12  1  0.25000000  0.96532900  0.63573000  1
  Zn  Zn13  1  0.25000000  0.36427000  0.03467100  1
  Zn  Zn14  1  0.25000000  0.96502500  0.32923000  1
  Zn  Zn15  1  0.25000000  0.66999600  0.63529000  1
  Zn  Zn16  1  0.75000000  0.32923000  0.96502500  1
  Zn  Zn17  1  0.75000000  0.63529000  0.66999600  1
  Zn  Zn18  1  0.75000000  0.03467100  0.36427000  1
  Zn  Zn19  1  0.75000000  0.63573000  0.96532900  1
  Zn  Zn20  1  0.75000000  0.03497500  0.67077000  1
  Zn  Zn21  1  0.75000000  0.33000400  0.36471000  1
  Zn  Zn22  1  0.98247900  0.83804800  0.67597200  1
  Zn  Zn23  1  0.98261600  0.83811900  0.16188100  1
  Zn  Zn24  1  0.98247900  0.32402800  0.16195200  1
  Zn  Zn25  1  0.01752100  0.16195200  0.32402800  1
  Zn  Zn26  1  0.01738400  0.16188100  0.83811900  1
  Zn  Zn27  1  0.01752100  0.67597200  0.83804800  1
  Zn  Zn28  1  0.48247900  0.16195200  0.32402800  1
  Zn  Zn29  1  0.48261600  0.16188100  0.83811900  1
  Zn  Zn30  1  0.48247900  0.67597200  0.83804800  1
  Zn  Zn31  1  0.51752100  0.83804800  0.67597200  1
  Zn  Zn32  1  0.51738400  0.83811900  0.16188100  1
  Zn  Zn33  1  0.51752100  0.32402800  0.16195200  1
loop_
_geom_bond_atom_site_label_1
_geom_bond_atom_site_label_2
_geom_bond_distance
_geom_bond_site_symmetry_2
Gd0 Zn12 3.160583 1_545
Gd0 Zn13 3.160583 1_556
Gd0 Zn10 3.163074 1_546
Gd0 Zn14 3.163074 1_546
Gd0 Zn11 3.166437 1_556
Gd0 Zn15 3.166437 1_545
Gd0 Zn29 3.250355 1_555
Gd0 Zn26 3.250355 1_555
Gd0 Zn30 3.254304 1_545
Gd0 Zn27 3.254304 1_545
Gd0 Zn28 3.254304 1_556
Gd0 Zn25 3.254304 1_556
Gd0 Zn22 3.450112 1_445
Gd0 Zn31 3.450112 1_545
Gd0 Zn24 3.450112 1_456
Gd0 Zn33 3.450112 1_556
Gd0 Zn32 3.450393 1_546
Gd0 Zn23 3.450393 1_446
Gd1 Zn19 3.160583 1_554
Gd1 Zn18 3.160583 1_565
Gd1 Zn20 3.163074 1_564
Gd1 Zn16 3.163074 1_564
Gd1 Zn21 3.166437 1_565
Gd1 Zn17 3.166437 1_554
Gd1 Zn23 3.250355 1_555
Gd1 Zn32 3.250355 1_555
Gd1 Zn31 3.254304 1_554
Gd1 Zn22 3.254304 1_554
Gd1 Zn33 3.254304 1_565
Gd1 Zn24 3.254304 1_565
Gd1 Zn25 3.450112 1_665
Gd1 Zn27 3.450112 1_654
Gd1 Zn28 3.450112 1_565
Gd1 Zn30 3.450112 1_554
Gd1 Zn29 3.450393 1_564
Gd1 Zn26 3.450393 1_664
Gd2 Zn0 3.028035 1_655
Gd2 Zn3 3.028035 1_555
Gd2 Zn18 3.209329 1_565
Gd2 Zn19 3.209329 1_554
Gd2 Zn17 3.211260 1_555
Gd2 Zn21 3.211260 1_555
Gd2 Zn20 3.213995 1_565
Gd2 Zn16 3.213995 1_554
Gd2 Zn23 3.369915 1_555
Gd2 Zn32 3.369915 1_555
Gd2 Zn24 3.370015 1_555
Gd2 Zn33 3.370015 1_555
Gd2 Zn22 3.370015 1_555
Gd2 Zn31 3.370015 1_555
Gd2 Zn9 3.405431 1_565
Gd2 Zn6 3.405431 1_665
Gd2 Zn4 3.405431 1_655
Gd2 Zn7 3.405431 1_555
Gd2 Zn8 3.407557 1_555
Gd2 Zn5 3.407557 1_655
Gd3 Zn2 3.028035 1_555
Gd3 Zn1 3.028035 1_455
Gd3 Zn13 3.209329 1_556
Gd3 Zn12 3.209329 1_545
Gd3 Zn15 3.211260 1_555
Gd3 Zn11 3.211260 1_555
Gd3 Zn10 3.213995 1_556
Gd3 Zn14 3.213995 1_545
Gd3 Zn29 3.369915 1_555
Gd3 Zn26 3.369915 1_555
Gd3 Zn27 3.370015 1_555
Gd3 Zn30 3.370015 1_555
Gd3 Zn28 3.370015 1_555
Gd3 Zn25 3.370015 1_555
Gd3 Zn7 3.405431 1_556
Gd3 Zn6 3.405431 1_555
Gd3 Zn9 3.405431 1_555
Gd3 Zn4 3.405431 1_556
Gd3 Zn8 3.407557 1_555
Gd3 Zn5 3.407557 1_555
Zn0 Zn3 2.641606 1_555
Zn0 Zn5 2.757072 1_555
Zn0 Zn4 2.757318 1_555
Zn0 Zn6 2.757318 1_565
Zn0 Zn22 2.876635 1_455
Zn0 Zn24 2.876635 1_455
Zn0 Zn23 2.878095 1_455
Zn0 Zn11 3.030291 1_555
Zn0 Zn15 3.030291 1_555
Zn0 Zn14 3.031400 1_555
Zn0 Zn10 3.031400 1_555
Zn0 Zn12 3.032465 1_555
Zn0 Zn13 3.032465 1_555
Zn1 Zn2 2.641606 1_555
Zn1 Zn5 2.757072 1_655
Zn1 Zn4 2.757318 1_656
Zn1 Zn6 2.757318 1_655
Zn1 Zn25 2.876635 1_655
Zn1 Zn27 2.876635 1_655
Zn1 Zn26 2.878095 1_655
Zn1 Zn21 3.030291 1_555
Zn1 Zn17 3.030291 1_555
Zn1 Zn16 3.031400 1_555
Zn1 Zn20 3.031400 1_555
Zn1 Zn19 3.032465 1_555
Zn1 Zn18 3.032465 1_555
Zn2 Zn8 2.757072 1_555
Zn2 Zn7 2.757318 1_556
Zn2 Zn9 2.757318 1_555
Zn2 Zn30 2.876635 1_555
Zn2 Zn28 2.876635 1_555
Zn2 Zn29 2.878095 1_555
Zn2 Zn21 3.030291 1_555
Zn2 Zn20 3.031400 1_555
Zn3 Zn8 2.757072 1_555
Zn3 Zn7 2.757318 1_555
Zn3 Zn9 2.757318 1_565
Zn3 Zn33 2.876635 1_555
Zn3 Zn31 2.876635 1_555
Zn3 Zn32 2.878095 1_555
Zn10 Zn7 2.596490 1_555
Zn10 Zn4 2.596490 1_555
Zn10 Zn14 2.672566 1_555
Zn10 Zn32 2.700987 1_555
Zn10 Zn23 2.700987 1_455
Zn10 Zn27 2.715498 1_554
Zn10 Zn30 2.715498 1_554
Zn10 Zn13 2.782219 1_555
Zn10 Zn3 3.031400 1_555
Zn11 Zn8 2.593192 1_555
Zn11 Zn5 2.593192 1_555
Zn11 Zn13 2.680185 1_555
Zn11 Zn24 2.704831 1_455
Zn11 Zn33 2.704831 1_555
Zn11 Zn28 2.717068 1_555
Zn11 Zn25 2.717068 1_555
Zn11 Zn15 2.772755 1_555
Zn11 Zn3 3.030291 1_555
Zn12 Zn9 2.595159 1_565
Zn12 Zn6 2.595159 1_565
Zn12 Zn15 2.680185 1_555
Zn12 Zn31 2.703009 1_555
Zn12 Zn22 2.703009 1_455
Zn12 Zn29 2.716198 1_565
Zn12 Zn26 2.716198 1_565
Zn12 Zn14 2.782219 1_555
Zn12 Zn3 3.032465 1_555
Zn13 Zn7 2.595159 1_555
Zn13 Zn4 2.595159 1_555
Zn13 Zn24 2.703009 1_455
Zn13 Zn33 2.703009 1_555
Zn13 Zn29 2.716198 1_554
Zn13 Zn26 2.716198 1_554
Zn13 Zn3 3.032465 1_555
Zn14 Zn6 2.596490 1_565
Zn14 Zn9 2.596490 1_565
Zn14 Zn32 2.700987 1_555
Zn14 Zn23 2.700987 1_455
Zn14 Zn25 2.715498 1_565
Zn14 Zn28 2.715498 1_565
Zn14 Zn3 3.031400 1_555
Zn15 Zn5 2.593192 1_555
Zn15 Zn8 2.593192 1_555
Zn15 Zn31 2.704831 1_555
Zn15 Zn22 2.704831 1_455
Zn15 Zn30 2.717068 1_555
Zn15 Zn27 2.717068 1_555
Zn15 Zn3 3.030291 1_555
Zn16 Zn7 2.596490 1_556
Zn16 Zn4 2.596490 1_656
Zn16 Zn20 2.672566 1_555
Zn16 Zn29 2.700987 1_555
Zn16 Zn26 2.700987 1_655
Zn16 Zn33 2.715498 1_556
Zn16 Zn24 2.715498 1_556
Zn16 Zn19 2.782219 1_555
Zn16 Zn2 3.031400 1_555
Zn17 Zn8 2.593192 1_555
Zn17 Zn5 2.593192 1_655
Zn17 Zn19 2.680185 1_555
Zn17 Zn27 2.704831 1_655
Zn17 Zn30 2.704831 1_555
Zn17 Zn31 2.717068 1_555
Zn17 Zn22 2.717068 1_555
Zn17 Zn21 2.772755 1_555
Zn17 Zn2 3.030291 1_555
Zn18 Zn6 2.595159 1_655
Zn18 Zn9 2.595159 1_555
Zn18 Zn21 2.680185 1_555
Zn18 Zn25 2.703009 1_655
Zn18 Zn28 2.703009 1_555
Zn18 Zn23 2.716198 1_545
Zn18 Zn32 2.716198 1_545
Zn18 Zn20 2.782219 1_555
Zn18 Zn2 3.032465 1_555
Zn19 Zn7 2.595159 1_556
Zn19 Zn4 2.595159 1_656
Zn19 Zn27 2.703009 1_655
Zn19 Zn30 2.703009 1_555
Zn19 Zn23 2.716198 1_556
Zn19 Zn32 2.716198 1_556
Zn19 Zn2 3.032465 1_555
Zn20 Zn9 2.596490 1_555
Zn20 Zn6 2.596490 1_655
Zn20 Zn29 2.700987 1_555
Zn20 Zn26 2.700987 1_655
Zn20 Zn22 2.715498 1_545
Zn20 Zn31 2.715498 1_545
Zn21 Zn8 2.593192 1_555
Zn21 Zn5 2.593192 1_655
Zn21 Zn25 2.704831 1_655
Zn21 Zn28 2.704831 1_555
Zn21 Zn33 2.717068 1_555
Zn21 Zn24 2.717068 1_555
Zn22 Zn26 2.565135 1_665
Zn22 Zn27 2.567600 1_655
Zn22 Zn6 2.662889 1_665
Zn22 Zn5 2.664028 1_655
Zn23 Zn25 2.565135 1_665
Zn23 Zn27 2.565135 1_654
Zn23 Zn4 2.664558 1_655
Zn23 Zn6 2.664558 1_665
Zn24 Zn26 2.565135 1_654
Zn24 Zn25 2.567600 1_655
Zn24 Zn4 2.662889 1_655
Zn24 Zn5 2.664028 1_655
Zn25 Zn6 2.662889 1_555
Zn25 Zn5 2.664028 1_555
Zn26 Zn4 2.664558 1_556
Zn26 Zn6 2.664558 1_555
Zn27 Zn4 2.662889 1_556
Zn27 Zn5 2.664028 1_555
Zn28 Zn32 2.565135 1_545
Zn28 Zn33 2.567600 1_555
Zn28 Zn9 2.662889 1_555
Zn28 Zn8 2.664028 1_555
Zn29 Zn33 2.565135 1_556
Zn29 Zn31 2.565135 1_545
Zn29 Zn9 2.664558 1_555
Zn29 Zn7 2.664558 1_556
Zn30 Zn32 2.565135 1_556
Zn30 Zn31 2.567600 1_555
Zn30 Zn7 2.662889 1_556
Zn30 Zn8 2.664028 1_555
Zn31 Zn9 2.662889 1_565
Zn31 Zn8 2.664028 1_555
Zn32 Zn7 2.664558 1_555
Zn32 Zn9 2.664558 1_565
Zn33 Zn7 2.662889 1_555
Zn33 Zn8 2.664028 1_555
