# generated using pymatgen
data_Li3V2(NiO4)2
_symmetry_space_group_name_H-M   'P 1'
_cell_length_a   5.89962900
_cell_length_b   5.89962900
_cell_length_c   5.89659255
_cell_angle_alpha   60.19053901
_cell_angle_beta   60.19053901
_cell_angle_gamma   60.76116941
_symmetry_Int_Tables_number   1
_chemical_formula_structural   Li3V2(NiO4)2
_chemical_formula_sum   'Li3 V2 Ni2 O8'
_cell_volume   146.36288734
_cell_formula_units_Z   1
loop_
 _symmetry_equiv_pos_site_id
 _symmetry_equiv_pos_as_xyz
  1  'x, y, z'
loop_
 _atom_site_type_symbol
 _atom_site_label
 _atom_site_symmetry_multiplicity
 _atom_site_fract_x
 _atom_site_fract_y
 _atom_site_fract_z
 _atom_site_occupancy
  Li  Li0  1  0.00000000  0.50000000  0.50000000  1
  Li  Li1  1  0.50000000  0.50000000  0.50000000  1
  Li  Li2  1  0.50000000  0.00000000  0.50000000  1
  V  V0  1  0.00000000  0.00000000  0.00000000  1
  V  V1  1  0.00000000  0.00000000  0.50000000  1
  Ni  Ni0  1  0.50000000  0.00000000  0.00000000  1
  Ni  Ni1  1  0.00000000  0.50000000  0.00000000  1
  O  O0  1  0.77144800  0.77144800  0.22198900  1
  O  O1  1  0.22524600  0.22524600  0.26841700  1
  O  O2  1  0.77659900  0.22064500  0.26497100  1
  O  O3  1  0.22064500  0.77659900  0.26497100  1
  O  O4  1  0.77935500  0.22340100  0.73502900  1
  O  O5  1  0.22340100  0.77935500  0.73502900  1
  O  O6  1  0.77475400  0.77475400  0.73158300  1
  O  O7  1  0.22855200  0.22855200  0.77801100  1
loop_
_geom_bond_atom_site_label_1
_geom_bond_atom_site_label_2
_geom_bond_distance
_geom_bond_site_symmetry_2
Li0 O3 2.076304 1_555
Li0 O4 2.076304 1_455
Li0 O7 2.132640 1_555
Li0 O0 2.132640 1_455
Li0 O6 2.133158 1_455
Li0 O1 2.133158 1_555
Li1 O4 2.166756 1_555
Li1 O5 2.166756 1_555
Li1 O2 2.166756 1_555
Li1 O3 2.166756 1_555
Li1 O0 2.258696 1_555
Li1 O7 2.258696 1_555
Li2 O2 2.076304 1_555
Li2 O5 2.076304 1_545
Li2 O7 2.132640 1_555
Li2 O0 2.132640 1_545
Li2 O6 2.133158 1_545
Li2 O1 2.133158 1_555
Ni0 O0 2.077508 1_545
Ni0 O7 2.077508 1_554
Ni0 O1 2.081958 1_555
Ni0 O6 2.081958 1_544
Ni0 O4 2.099736 1_554
Ni0 O3 2.099736 1_545
Ni1 O0 2.077508 1_455
Ni1 O7 2.077508 1_554
Ni1 O1 2.081958 1_555
Ni1 O6 2.081958 1_454
Ni1 O5 2.099736 1_554
Ni1 O2 2.099736 1_455
O0 V0 1.901611 1_665
O1 V1 1.874370 1_555
O2 V1 1.923170 1_655
O2 V0 2.042415 1_655
O3 V1 1.923170 1_565
O3 V0 2.042415 1_565
O4 V1 1.923170 1_655
O4 V0 2.042415 1_656
O5 V1 1.923170 1_565
O5 V0 2.042415 1_566
O6 V1 1.874370 1_665
O7 V0 1.901611 1_556
