# generated using pymatgen
data_CrSnRh2
_symmetry_space_group_name_H-M   'P 1'
_cell_length_a   4.42771968
_cell_length_b   4.42771968
_cell_length_c   4.42771968
_cell_angle_alpha   60.00000000
_cell_angle_beta   60.00000000
_cell_angle_gamma   60.00000000
_symmetry_Int_Tables_number   1
_chemical_formula_structural   CrSnRh2
_chemical_formula_sum   'Cr1 Sn1 Rh2'
_cell_volume   61.37978391
_cell_formula_units_Z   1
loop_
 _symmetry_equiv_pos_site_id
 _symmetry_equiv_pos_as_xyz
  1  'x, y, z'
loop_
 _atom_site_type_symbol
 _atom_site_label
 _atom_site_symmetry_multiplicity
 _atom_site_fract_x
 _atom_site_fract_y
 _atom_site_fract_z
 _atom_site_occupancy
  Cr  Cr0  1  0.50000000  0.50000000  0.50000000  1
  Sn  Sn0  1  0.00000000  0.00000000  0.00000000  1
  Rh  Rh0  1  0.25000000  0.25000000  0.25000000  1
  Rh  Rh1  1  0.75000000  0.75000000  0.75000000  1
loop_
_geom_bond_atom_site_label_1
_geom_bond_atom_site_label_2
_geom_bond_distance
_geom_bond_site_symmetry_2
Cr0 Rh0 2.711413 1_655
Cr0 Rh1 2.711413 1_545
Cr0 Rh0 2.711413 1_555
Cr0 Rh0 2.711413 1_556
Cr0 Rh1 2.711413 1_455
Cr0 Rh0 2.711413 1_565
Cr0 Rh1 2.711413 1_554
Cr0 Rh1 2.711413 1_555
Rh0 Sn0 2.711413 1_565
Rh0 Sn0 2.711413 1_556
Rh0 Sn0 2.711413 1_555
Rh0 Sn0 2.711413 1_655
Rh1 Sn0 2.711413 1_666
Rh1 Sn0 2.711413 1_665
Rh1 Sn0 2.711413 1_656
Rh1 Sn0 2.711413 1_566
