# generated using pymatgen
data_Y2Mg3N4
_symmetry_space_group_name_H-M   'P 1'
_cell_length_a   6.76261911
_cell_length_b   7.25264266
_cell_length_c   6.07136535
_cell_angle_alpha   90.00000227
_cell_angle_beta   88.24826428
_cell_angle_gamma   122.42738720
_symmetry_Int_Tables_number   1
_chemical_formula_structural   Y2Mg3N4
_chemical_formula_sum   'Y4 Mg6 N8'
_cell_volume   251.18397181
_cell_formula_units_Z   2
loop_
 _symmetry_equiv_pos_site_id
 _symmetry_equiv_pos_as_xyz
  1  'x, y, z'
loop_
 _atom_site_type_symbol
 _atom_site_label
 _atom_site_symmetry_multiplicity
 _atom_site_fract_x
 _atom_site_fract_y
 _atom_site_fract_z
 _atom_site_occupancy
  Y  Y0  1  0.51145100  0.13811700  0.71915900  1
  Y  Y1  1  0.48854900  0.62666700  0.78084100  1
  Y  Y2  1  0.48854900  0.86188300  0.28084100  1
  Y  Y3  1  0.51145100  0.37333300  0.21915900  1
  Mg  Mg0  1  0.11783000  0.91629800  0.06202900  1
  Mg  Mg1  1  0.88217000  0.79846700  0.43797100  1
  Mg  Mg2  1  0.88217000  0.08370200  0.93797100  1
  Mg  Mg3  1  0.11783000  0.20153300  0.56202900  1
  Mg  Mg4  1  0.00000000  0.53787000  0.75000000  1
  Mg  Mg5  1  0.00000000  0.46213000  0.25000000  1
  N  N0  1  0.25392900  0.02662100  0.39351600  1
  N  N1  1  0.74607000  0.77269200  0.10648400  1
  N  N2  1  0.74607000  0.97337900  0.60648400  1
  N  N3  1  0.25392900  0.22730800  0.89351600  1
  N  N4  1  0.74332300  0.26422800  0.03389000  1
  N  N5  1  0.25667700  0.52090600  0.46611000  1
  N  N6  1  0.25667700  0.73577200  0.96611000  1
  N  N7  1  0.74332300  0.47909400  0.53389000  1
loop_
_geom_bond_atom_site_label_1
_geom_bond_atom_site_label_2
_geom_bond_distance
_geom_bond_site_symmetry_2
Mg0 N6 2.054284 1_554
Mg0 N1 2.151392 1_455
Mg0 N3 2.167422 1_564
Mg0 N0 2.204824 1_565
Mg1 N7 2.054284 1_555
Mg1 N0 2.151387 1_665
Mg1 N2 2.167433 1_555
Mg1 N1 2.204828 1_555
Mg2 N4 2.054284 1_556
Mg2 N3 2.151386 1_655
Mg2 N1 2.167421 1_546
Mg2 N2 2.204826 1_545
Mg3 N5 2.054284 1_555
Mg3 N2 2.151392 1_445
Mg3 N0 2.167428 1_555
Mg3 N3 2.204825 1_555
Mg4 N7 2.064459 1_455
Mg4 N6 2.064461 1_555
Mg4 N5 2.458677 1_555
Mg4 N4 2.458680 1_456
Mg5 N5 2.064459 1_555
Mg5 N4 2.064461 1_455
Mg5 N7 2.458677 1_455
Mg5 N6 2.458680 1_554
N0 Y3 2.380627 1_555
N0 Y0 2.509166 1_555
N0 Y2 2.525796 1_545
N1 Y2 2.380626 1_555
N1 Y1 2.509162 1_554
N1 Y3 2.525802 1_555
N2 Y1 2.380626 1_555
N2 Y2 2.509162 1_555
N2 Y0 2.525790 1_565
N3 Y0 2.380631 1_555
N3 Y3 2.509166 1_556
N3 Y1 2.525802 1_555
N4 Y3 2.360744 1_555
N4 Y0 2.364693 1_554
N4 Y2 2.860371 1_545
N5 Y2 2.360744 1_555
N5 Y1 2.364693 1_555
N5 Y3 2.860381 1_555
N6 Y1 2.360744 1_555
N6 Y2 2.364693 1_556
N6 Y0 2.860371 1_565
N7 Y0 2.360744 1_555
N7 Y3 2.364693 1_555
N7 Y1 2.860381 1_555
