# generated using pymatgen
data_RbMg14Co
_symmetry_space_group_name_H-M   'P 1'
_cell_length_a   6.54444736
_cell_length_b   6.41576572
_cell_length_c   10.39605552
_cell_angle_alpha   90.00000000
_cell_angle_beta   90.00000000
_cell_angle_gamma   119.35167190
_symmetry_Int_Tables_number   1
_chemical_formula_structural   RbMg14Co
_chemical_formula_sum   'Rb1 Mg14 Co1'
_cell_volume   380.47053171
_cell_formula_units_Z   1
loop_
 _symmetry_equiv_pos_site_id
 _symmetry_equiv_pos_as_xyz
  1  'x, y, z'
loop_
 _atom_site_type_symbol
 _atom_site_label
 _atom_site_symmetry_multiplicity
 _atom_site_fract_x
 _atom_site_fract_y
 _atom_site_fract_z
 _atom_site_occupancy
  Rb  Rb0  1  0.11738989  0.80869445  0.12500000  1
  Mg  Mg0  1  0.16526956  0.33263428  0.62500000  1
  Mg  Mg1  1  0.17481700  0.83740800  0.62500000  1
  Mg  Mg2  1  0.61672008  0.31680166  0.12500000  1
  Mg  Mg3  1  0.66575496  0.32717143  0.62500000  1
  Mg  Mg4  1  0.61672008  0.79991742  0.12500000  1
  Mg  Mg5  1  0.66575496  0.83858253  0.62500000  1
  Mg  Mg6  1  0.34208502  0.18225834  0.37961778  1
  Mg  Mg7  1  0.34208502  0.18225834  0.87038222  1
  Mg  Mg8  1  0.34208502  0.65982768  0.37961778  1
  Mg  Mg9  1  0.34208502  0.65982768  0.87038222  1
  Mg  Mg10  1  0.85989545  0.17994823  0.34577691  1
  Mg  Mg11  1  0.85989545  0.17994823  0.90422309  1
  Mg  Mg12  1  0.82685963  0.66343031  0.39773434  1
  Mg  Mg13  1  0.82685963  0.66343031  0.85226566  1
  Co  Co0  1  0.23572324  0.36786112  0.12500000  1
loop_
_geom_bond_atom_site_label_1
_geom_bond_atom_site_label_2
_geom_bond_distance
_geom_bond_site_symmetry_2
Mg0 Mg6 3.141958 1_555
Mg0 Mg7 3.141958 1_555
Mg0 Mg8 3.141964 1_555
Mg0 Mg9 3.141964 1_555
Mg0 Mg1 3.208345 1_555
Mg0 Mg1 3.208345 1_545
Mg0 Mg5 3.252011 1_445
Mg0 Mg3 3.252011 1_455
Mg0 Mg5 3.292721 1_555
Mg0 Mg3 3.292722 1_555
Mg0 Mg11 3.385373 1_455
Mg0 Mg10 3.385373 1_455
Mg1 Mg12 3.085752 1_455
Mg1 Mg13 3.085752 1_455
Mg1 Mg9 3.197913 1_555
Mg1 Mg8 3.197913 1_555
Mg1 Mg6 3.197920 1_565
Mg1 Mg7 3.197920 1_565
Mg1 Mg3 3.209230 1_565
Mg1 Mg5 3.209231 1_555
Mg1 Mg3 3.335230 1_455
Mg1 Mg5 3.335230 1_455
Mg2 Mg6 3.075921 1_555
Mg2 Mg7 3.075921 1_554
Mg2 Rb0 3.249376 1_655
Mg2 Rb0 3.295807 1_545
Mg3 Mg5 3.134672 1_545
Mg3 Mg6 3.150922 1_555
Mg3 Mg7 3.150922 1_555
Mg3 Mg5 3.281094 1_555
Mg4 Mg9 3.075921 1_554
Mg4 Mg8 3.075921 1_555
Mg4 Rb0 3.249376 1_655
Mg4 Rb0 3.295808 1_555
Mg5 Mg8 3.150922 1_555
Mg5 Mg9 3.150922 1_555
Mg6 Mg8 3.063973 1_555
Mg6 Mg8 3.351793 1_545
Mg6 Rb0 3.384997 1_545
Mg7 Mg9 3.063973 1_555
Mg7 Mg9 3.351793 1_545
Mg7 Rb0 3.384997 1_546
Mg8 Rb0 3.384991 1_555
Mg9 Rb0 3.384991 1_556
Mg10 Mg8 3.168021 1_655
Mg10 Mg6 3.168021 1_655
Mg10 Mg12 3.258495 1_555
Mg10 Mg12 3.258495 1_545
Mg10 Mg8 3.414246 1_545
Mg10 Mg6 3.414247 1_555
Mg10 Mg3 3.479842 1_555
Mg10 Mg5 3.479848 1_545
Mg11 Mg9 3.168021 1_655
Mg11 Mg7 3.168021 1_655
Mg11 Mg13 3.258495 1_555
Mg11 Mg13 3.258495 1_545
Mg11 Mg9 3.414246 1_545
Mg11 Mg7 3.414247 1_555
Mg11 Mg3 3.479842 1_555
Mg11 Mg5 3.479848 1_545
Mg12 Mg5 3.019621 1_555
Mg12 Mg3 3.019628 1_555
Mg12 Mg6 3.166922 1_555
Mg12 Mg8 3.166922 1_555
Mg12 Rb0 3.284181 1_655
Mg12 Mg6 3.388493 1_665
Mg12 Mg8 3.388493 1_655
Mg12 Mg4 3.446441 1_555
Mg12 Mg2 3.446447 1_555
Mg13 Mg5 3.019621 1_555
Mg13 Mg3 3.019628 1_555
Mg13 Mg7 3.166922 1_555
Mg13 Mg9 3.166922 1_555
Mg13 Rb0 3.284181 1_656
Mg13 Mg7 3.388493 1_665
Mg13 Mg9 3.388493 1_655
Mg13 Mg4 3.446441 1_556
Mg13 Mg2 3.446447 1_556
Co0 Mg4 2.669301 1_555
Co0 Mg2 2.669301 1_555
Co0 Mg7 3.117979 1_554
Co0 Mg6 3.117979 1_555
Co0 Mg9 3.117985 1_554
Co0 Mg8 3.117985 1_555
Co0 Mg10 3.140708 1_455
Co0 Mg11 3.140708 1_454
Co0 Rb0 3.278132 1_545
Co0 Rb0 3.278133 1_555
