# generated using pymatgen
data_TbAlPd
_symmetry_space_group_name_H-M   'P 1'
_cell_length_a   4.44262761
_cell_length_b   6.93417508
_cell_length_c   7.72134838
_cell_angle_alpha   90.00000000
_cell_angle_beta   90.00000000
_cell_angle_gamma   90.00000000
_symmetry_Int_Tables_number   1
_chemical_formula_structural   TbAlPd
_chemical_formula_sum   'Tb4 Al4 Pd4'
_cell_volume   237.86353130
_cell_formula_units_Z   4
loop_
 _symmetry_equiv_pos_site_id
 _symmetry_equiv_pos_as_xyz
  1  'x, y, z'
loop_
 _atom_site_type_symbol
 _atom_site_label
 _atom_site_symmetry_multiplicity
 _atom_site_fract_x
 _atom_site_fract_y
 _atom_site_fract_z
 _atom_site_occupancy
  Tb  Tb0  1  0.25000000  0.53266632  0.82013724  1
  Tb  Tb1  1  0.75000000  0.46733368  0.17986276  1
  Tb  Tb2  1  0.25000000  0.03266632  0.67986276  1
  Tb  Tb3  1  0.75000000  0.96733368  0.32013724  1
  Al  Al0  1  0.25000000  0.64289491  0.43660358  1
  Al  Al1  1  0.75000000  0.35710509  0.56339642  1
  Al  Al2  1  0.25000000  0.14289491  0.06339642  1
  Al  Al3  1  0.75000000  0.85710509  0.93660358  1
  Pd  Pd0  1  0.75000000  0.72578834  0.61706476  1
  Pd  Pd1  1  0.25000000  0.27421166  0.38293524  1
  Pd  Pd2  1  0.75000000  0.22578834  0.88293524  1
  Pd  Pd3  1  0.25000000  0.77421166  0.11706476  1
loop_
_geom_bond_atom_site_label_1
_geom_bond_atom_site_label_2
_geom_bond_distance
_geom_bond_site_symmetry_2
Al0 Pd1 2.589881 1_555
Al0 Pd3 2.629937 1_555
Al0 Pd0 2.684437 1_455
Al0 Pd0 2.684437 1_555
Al0 Tb0 3.058446 1_555
Al0 Tb1 3.216533 1_455
Al0 Tb1 3.216533 1_555
Al0 Tb3 3.286967 1_555
Al0 Tb3 3.286967 1_455
Al0 Tb2 3.291320 1_565
Al1 Pd0 2.589881 1_555
Al1 Pd2 2.629937 1_555
Al1 Pd1 2.684437 1_555
Al1 Pd1 2.684437 1_655
Al1 Tb1 3.058446 1_555
Al1 Tb0 3.216533 1_655
Al1 Tb0 3.216533 1_555
Al1 Tb2 3.286967 1_555
Al1 Tb2 3.286967 1_655
Al1 Tb3 3.291320 1_545
Al2 Pd3 2.589881 1_545
Al2 Pd1 2.629937 1_555
Al2 Pd2 2.684437 1_454
Al2 Pd2 2.684437 1_554
Al2 Tb2 3.058446 1_554
Al2 Tb3 3.216533 1_445
Al2 Tb3 3.216533 1_545
Al2 Tb1 3.286967 1_455
Al2 Tb1 3.286967 1_555
Al2 Tb0 3.291320 1_554
Al3 Pd2 2.589881 1_565
Al3 Pd0 2.629937 1_555
Al3 Pd3 2.684437 1_656
Al3 Pd3 2.684437 1_556
Al3 Tb3 3.058446 1_556
Al3 Tb2 3.216533 1_665
Al3 Tb2 3.216533 1_565
Al3 Tb0 3.286967 1_555
Al3 Tb0 3.286967 1_655
Al3 Tb1 3.291320 1_556
Pd0 Tb3 2.839319 1_555
Pd0 Tb0 3.030864 1_555
Pd0 Tb0 3.030864 1_655
Pd0 Tb2 3.114081 1_565
Pd0 Tb2 3.114081 1_665
Pd1 Tb2 2.839319 1_555
Pd1 Tb1 3.030864 1_455
Pd1 Tb1 3.030864 1_555
Pd1 Tb3 3.114081 1_445
Pd1 Tb3 3.114081 1_545
Pd2 Tb1 2.839319 1_556
Pd2 Tb2 3.030864 1_655
Pd2 Tb2 3.030864 1_555
Pd2 Tb0 3.114081 1_655
Pd2 Tb0 3.114081 1_555
Pd3 Tb0 2.839319 1_554
Pd3 Tb3 3.030864 1_455
Pd3 Tb3 3.030864 1_555
Pd3 Tb1 3.114081 1_455
Pd3 Tb1 3.114081 1_555
