# generated using pymatgen
data_BaSr(PbO3)2
_symmetry_space_group_name_H-M   'P 1'
_cell_length_a   6.07328400
_cell_length_b   6.13875600
_cell_length_c   8.61221900
_cell_angle_alpha   90.00000000
_cell_angle_beta   90.00000000
_cell_angle_gamma   90.00000000
_symmetry_Int_Tables_number   1
_chemical_formula_structural   BaSr(PbO3)2
_chemical_formula_sum   'Ba2 Sr2 Pb4 O12'
_cell_volume   321.08426767
_cell_formula_units_Z   2
loop_
 _symmetry_equiv_pos_site_id
 _symmetry_equiv_pos_as_xyz
  1  'x, y, z'
loop_
 _atom_site_type_symbol
 _atom_site_label
 _atom_site_symmetry_multiplicity
 _atom_site_fract_x
 _atom_site_fract_y
 _atom_site_fract_z
 _atom_site_occupancy
  Ba  Ba0  1  0.26001200  0.96538900  0.00000000  1
  Ba  Ba1  1  0.73998800  0.46538900  0.00000000  1
  Sr  Sr0  1  0.24252100  0.04292900  0.50000000  1
  Sr  Sr1  1  0.75747900  0.54292900  0.50000000  1
  Pb  Pb0  1  0.25039500  0.49979200  0.74402800  1
  Pb  Pb1  1  0.74960500  0.99979200  0.25597200  1
  Pb  Pb2  1  0.25039500  0.49979200  0.25597200  1
  Pb  Pb3  1  0.74960500  0.99979200  0.74402800  1
  O  O0  1  0.04125000  0.78725500  0.69494900  1
  O  O1  1  0.95875000  0.28725500  0.30505100  1
  O  O2  1  0.45756500  0.20688700  0.21569700  1
  O  O3  1  0.54243500  0.70688700  0.78430300  1
  O  O4  1  0.45756500  0.20688700  0.78430300  1
  O  O5  1  0.54243500  0.70688700  0.21569700  1
  O  O6  1  0.04125000  0.78725500  0.30505100  1
  O  O7  1  0.95875000  0.28725500  0.69494900  1
  O  O8  1  0.17948600  0.51127300  0.00000000  1
  O  O9  1  0.82051400  0.01127300  0.00000000  1
  O  O10  1  0.34612500  0.45614000  0.50000000  1
  O  O11  1  0.65387500  0.95614000  0.50000000  1
loop_
_geom_bond_atom_site_label_1
_geom_bond_atom_site_label_2
_geom_bond_distance
_geom_bond_site_symmetry_2
Ba0 O2 2.662348 1_565
Ba0 O4 2.662348 1_564
Ba0 O9 2.684017 1_465
Ba0 O8 2.830281 1_555
Ba0 O3 2.985132 1_554
Ba0 O5 2.985132 1_555
Ba0 O6 3.140538 1_555
Ba0 O0 3.140538 1_554
Ba0 O8 3.386548 1_565
Ba0 O9 3.415721 1_565
Ba1 O5 2.662348 1_555
Ba1 O3 2.662348 1_554
Ba1 O8 2.684017 1_655
Ba1 O9 2.830281 1_555
Ba1 O2 2.985132 1_555
Ba1 O4 2.985132 1_554
Ba1 O1 3.140538 1_555
Ba1 O7 3.140538 1_554
Ba1 O9 3.386548 1_565
Ba1 O8 3.415721 1_555
O0 Pb0 2.214972 1_555
O0 Pb3 2.240142 1_455
O0 Sr0 2.603161 1_565
O0 Sr1 2.835244 1_455
O1 Pb1 2.214972 1_545
O1 Pb2 2.240142 1_655
O1 Sr1 2.603161 1_555
O1 Sr0 2.835244 1_655
O2 Pb1 2.209600 1_545
O2 Pb2 2.221812 1_555
O2 Sr0 2.951913 1_555
O3 Pb0 2.209600 1_555
O3 Pb3 2.221812 1_555
O3 Sr1 2.951913 1_555
O4 Pb3 2.209600 1_545
O4 Pb0 2.221812 1_555
O4 Sr0 2.951913 1_555
O5 Pb2 2.209600 1_555
O5 Pb1 2.221812 1_555
O5 Sr1 2.951913 1_555
O6 Pb2 2.214972 1_555
O6 Pb1 2.240142 1_455
O6 Sr0 2.603161 1_565
O6 Sr1 2.835244 1_455
O7 Pb3 2.214972 1_545
O7 Pb0 2.240142 1_655
O7 Sr1 2.603161 1_555
O7 Sr0 2.835244 1_655
O8 Pb2 2.247263 1_555
O8 Pb0 2.247263 1_554
O9 Pb1 2.247263 1_545
O9 Pb3 2.247263 1_544
O10 Pb0 2.196963 1_555
O10 Pb2 2.196963 1_555
O10 Sr1 2.554448 1_555
O10 Sr0 2.613477 1_555
O11 Pb3 2.196963 1_555
O11 Pb1 2.196963 1_555
O11 Sr0 2.554448 1_565
O11 Sr1 2.613477 1_555
