# generated using pymatgen
data_Y3Ir2
_symmetry_space_group_name_H-M   'P 1'
_cell_length_a   14.95423560
_cell_length_b   14.95423560
_cell_length_c   14.95423560
_cell_angle_alpha   135.59233721
_cell_angle_beta   135.59233721
_cell_angle_gamma   64.61122187
_symmetry_Int_Tables_number   1
_chemical_formula_structural   Y3Ir2
_chemical_formula_sum   'Y42 Ir28'
_cell_volume   1614.64482566
_cell_formula_units_Z   14
loop_
 _symmetry_equiv_pos_site_id
 _symmetry_equiv_pos_as_xyz
  1  'x, y, z'
loop_
 _atom_site_type_symbol
 _atom_site_label
 _atom_site_symmetry_multiplicity
 _atom_site_fract_x
 _atom_site_fract_y
 _atom_site_fract_z
 _atom_site_occupancy
  Y  Y0  1  0.63219100  0.50357900  0.27931000  1
  Y  Y1  1  0.22427000  0.35288200  0.72069000  1
  Y  Y2  1  0.13219100  0.85288200  0.12861200  1
  Y  Y3  1  0.72427000  0.00357900  0.87138800  1
  Y  Y4  1  0.35288200  0.63219100  0.12861200  1
  Y  Y5  1  0.50357900  0.22427000  0.87138800  1
  Y  Y6  1  0.00357900  0.13219100  0.27931000  1
  Y  Y7  1  0.85288200  0.72427000  0.72069000  1
  Y  Y8  1  0.36780900  0.49642100  0.72069000  1
  Y  Y9  1  0.77573000  0.64711800  0.27931000  1
  Y  Y10  1  0.86780900  0.14711800  0.87138800  1
  Y  Y11  1  0.27573000  0.99642100  0.12861200  1
  Y  Y12  1  0.64711800  0.36780900  0.87138800  1
  Y  Y13  1  0.49642100  0.77573000  0.12861200  1
  Y  Y14  1  0.99642100  0.86780900  0.72069000  1
  Y  Y15  1  0.14711800  0.27573000  0.27931000  1
  Y  Y16  1  0.38574500  0.51705700  0.29063900  1
  Y  Y17  1  0.22641800  0.09510500  0.70936100  1
  Y  Y18  1  0.88574500  0.59510500  0.86868800  1
  Y  Y19  1  0.72641800  0.01705700  0.13131200  1
  Y  Y20  1  0.09510500  0.38574500  0.86868800  1
  Y  Y21  1  0.51705700  0.22641800  0.13131200  1
  Y  Y22  1  0.01705700  0.88574500  0.29063900  1
  Y  Y23  1  0.59510500  0.72641800  0.70936100  1
  Y  Y24  1  0.61425500  0.48294300  0.70936100  1
  Y  Y25  1  0.77358200  0.90489500  0.29063900  1
  Y  Y26  1  0.11425500  0.40489500  0.13131200  1
  Y  Y27  1  0.27358200  0.98294300  0.86868800  1
  Y  Y28  1  0.90489500  0.61425500  0.13131200  1
  Y  Y29  1  0.48294300  0.77358200  0.86868800  1
  Y  Y30  1  0.98294300  0.11425500  0.70936100  1
  Y  Y31  1  0.40489500  0.27358200  0.29063900  1
  Y  Y32  1  0.85074100  0.35074100  0.20148100  1
  Y  Y33  1  0.14925900  0.64925900  0.79851900  1
  Y  Y34  1  0.35074100  0.14925900  0.50000000  1
  Y  Y35  1  0.64925900  0.85074100  0.50000000  1
  Y  Y36  1  0.38747300  0.88747300  0.50000000  1
  Y  Y37  1  0.88747300  0.38747300  0.50000000  1
  Y  Y38  1  0.61252700  0.11252700  0.50000000  1
  Y  Y39  1  0.11252700  0.61252700  0.50000000  1
  Y  Y40  1  0.25000000  0.75000000  0.50000000  1
  Y  Y41  1  0.75000000  0.25000000  0.50000000  1
  Ir  Ir0  1  0.71434200  0.21434200  0.14117900  1
  Ir  Ir1  1  0.07316200  0.57316200  0.85882100  1
  Ir  Ir2  1  0.21434200  0.07316200  0.50000000  1
  Ir  Ir3  1  0.57316200  0.71434200  0.50000000  1
  Ir  Ir4  1  0.28565800  0.78565800  0.85882100  1
  Ir  Ir5  1  0.92683800  0.42683800  0.14117900  1
  Ir  Ir6  1  0.78565800  0.92683800  0.50000000  1
  Ir  Ir7  1  0.42683800  0.28565800  0.50000000  1
  Ir  Ir8  1  0.46536200  0.96536200  0.80809800  1
  Ir  Ir9  1  0.15726400  0.65726400  0.19190200  1
  Ir  Ir10  1  0.96536200  0.15726400  0.50000000  1
  Ir  Ir11  1  0.65726400  0.46536200  0.50000000  1
  Ir  Ir12  1  0.53463800  0.03463800  0.19190200  1
  Ir  Ir13  1  0.84273600  0.34273600  0.80809800  1
  Ir  Ir14  1  0.03463800  0.84273600  0.50000000  1
  Ir  Ir15  1  0.34273600  0.53463800  0.50000000  1
  Ir  Ir16  1  0.59654100  0.09654100  0.69308300  1
  Ir  Ir17  1  0.40345900  0.90345900  0.30691700  1
  Ir  Ir18  1  0.09654100  0.40345900  0.50000000  1
  Ir  Ir19  1  0.90345900  0.59654100  0.50000000  1
  Ir  Ir20  1  0.36562900  0.36562900  0.00000000  1
  Ir  Ir21  1  0.86562900  0.86562900  0.00000000  1
  Ir  Ir22  1  0.63437100  0.63437100  0.00000000  1
  Ir  Ir23  1  0.13437100  0.13437100  0.00000000  1
  Ir  Ir24  1  0.50000000  0.50000000  0.00000000  1
  Ir  Ir25  1  0.00000000  0.00000000  0.00000000  1
  Ir  Ir26  1  0.25000000  0.25000000  0.00000000  1
  Ir  Ir27  1  0.75000000  0.75000000  0.00000000  1
loop_
_geom_bond_atom_site_label_1
_geom_bond_atom_site_label_2
_geom_bond_distance
_geom_bond_site_symmetry_2
Ir0 Y32 2.728731 1_555
Ir0 Y19 2.778053 1_555
Ir0 Y21 2.778053 1_555
Ir0 Y37 2.872112 1_555
Ir0 Y3 2.918850 1_554
Ir0 Y5 2.918850 1_554
Ir0 Y0 3.284552 1_555
Ir0 Y6 3.284552 1_655
Ir1 Y33 2.728731 1_555
Ir1 Y20 2.778038 1_555
Ir1 Y18 2.778038 1_455
Ir1 Y37 2.872111 1_455
Ir1 Y4 2.918858 1_556
Ir1 Y2 2.918858 1_556
Ir1 Y1 3.284565 1_555
Ir1 Y7 3.284565 1_455
Ir2 Y34 2.728731 1_555
Ir2 Y22 2.778043 1_545
Ir2 Y17 2.778053 1_555
Ir2 Y36 2.872103 1_545
Ir2 Y6 2.918851 1_555
Ir2 Y1 2.918859 1_555
Ir2 Y2 3.284553 1_545
Ir2 Y5 3.284553 1_555
Ir3 Y35 2.728731 1_555
Ir3 Y16 2.778043 1_555
Ir3 Y23 2.778053 1_555
Ir3 Y36 2.872103 1_555
Ir3 Y0 2.918851 1_555
Ir3 Y7 2.918859 1_555
Ir3 Y3 3.284553 1_565
Ir3 Y4 3.284553 1_555
Ir4 Y33 2.728731 1_555
Ir4 Y29 2.778053 1_555
Ir4 Y27 2.778053 1_555
Ir4 Y39 2.872112 1_555
Ir4 Y13 2.918850 1_556
Ir4 Y11 2.918850 1_556
Ir4 Y8 3.284552 1_555
Ir4 Y14 3.284552 1_455
Ir5 Y32 2.728731 1_555
Ir5 Y26 2.778038 1_655
Ir5 Y28 2.778038 1_555
Ir5 Y39 2.872111 1_655
Ir5 Y10 2.918858 1_554
Ir5 Y12 2.918858 1_554
Ir5 Y9 3.284565 1_555
Ir5 Y15 3.284565 1_655
Ir6 Y35 2.728731 1_555
Ir6 Y30 2.778043 1_565
Ir6 Y25 2.778053 1_555
Ir6 Y38 2.872103 1_565
Ir6 Y14 2.918851 1_555
Ir6 Y9 2.918859 1_555
Ir6 Y10 3.284553 1_565
Ir6 Y13 3.284553 1_555
Ir7 Y34 2.728731 1_555
Ir7 Y24 2.778043 1_555
Ir7 Y31 2.778053 1_555
Ir7 Y38 2.872103 1_555
Ir7 Y8 2.918851 1_555
Ir7 Y15 2.918859 1_555
Ir7 Y11 3.284553 1_545
Ir7 Y12 3.284553 1_555
Ir8 Y40 2.909535 1_555
Ir8 Y17 3.053273 1_565
Ir8 Y23 3.053273 1_555
Ir8 Y19 3.080558 1_566
Ir8 Y21 3.080558 1_566
Ir8 Y36 3.125649 1_555
Ir8 Y27 3.441056 1_555
Ir8 Y29 3.441056 1_555
Ir8 Y5 3.478797 1_565
Ir8 Y3 3.478797 1_565
Ir9 Y40 2.909535 1_555
Ir9 Y16 3.053280 1_555
Ir9 Y22 3.053280 1_555
Ir9 Y18 3.080554 1_454
Ir9 Y20 3.080554 1_554
Ir9 Y36 3.125649 1_555
Ir9 Y28 3.441041 1_455
Ir9 Y26 3.441041 1_555
Ir9 Y4 3.478797 1_555
Ir9 Y2 3.478797 1_555
Ir10 Y41 2.909535 1_555
Ir10 Y19 3.053280 1_555
Ir10 Y20 3.053283 1_655
Ir10 Y22 3.080558 1_645
Ir10 Y17 3.080565 1_655
Ir10 Y37 3.125649 1_555
Ir10 Y25 3.441044 1_545
Ir10 Y30 3.441056 1_555
Ir10 Y6 3.478783 1_655
Ir10 Y1 3.478804 1_655
Ir11 Y41 2.909535 1_555
Ir11 Y21 3.053280 1_555
Ir11 Y18 3.053283 1_555
Ir11 Y16 3.080558 1_555
Ir11 Y23 3.080565 1_555
Ir11 Y37 3.125649 1_555
Ir11 Y31 3.441044 1_555
Ir11 Y24 3.441056 1_555
Ir11 Y0 3.478783 1_555
Ir11 Y7 3.478804 1_555
Ir12 Y41 2.909535 1_555
Ir12 Y31 3.053273 1_555
Ir12 Y25 3.053273 1_545
Ir12 Y27 3.080558 1_544
Ir12 Y29 3.080558 1_544
Ir12 Y38 3.125649 1_555
Ir12 Y21 3.441056 1_555
Ir12 Y19 3.441056 1_555
Ir12 Y13 3.478797 1_545
Ir12 Y11 3.478797 1_545
Ir13 Y41 2.909535 1_555
Ir13 Y30 3.053280 1_555
Ir13 Y24 3.053280 1_555
Ir13 Y26 3.080554 1_656
Ir13 Y28 3.080554 1_556
Ir13 Y38 3.125649 1_555
Ir13 Y20 3.441041 1_655
Ir13 Y18 3.441041 1_555
Ir13 Y10 3.478797 1_555
Ir13 Y12 3.478797 1_555
Ir14 Y40 2.909535 1_555
Ir14 Y27 3.053280 1_555
Ir14 Y28 3.053283 1_455
Ir14 Y30 3.080558 1_465
Ir14 Y25 3.080565 1_455
Ir14 Y39 3.125649 1_555
Ir14 Y17 3.441044 1_565
Ir14 Y22 3.441056 1_555
Ir14 Y14 3.478783 1_455
Ir14 Y9 3.478804 1_455
Ir15 Y40 2.909535 1_555
Ir15 Y29 3.053280 1_555
Ir15 Y26 3.053283 1_555
Ir15 Y24 3.080558 1_555
Ir15 Y31 3.080565 1_555
Ir15 Y39 3.125649 1_555
Ir15 Y23 3.441044 1_555
Ir15 Y16 3.441056 1_555
Ir15 Y8 3.478783 1_555
Ir15 Y15 3.478804 1_555
Ir16 Y34 2.841335 1_555
Ir16 Y35 2.841335 1_545
Ir16 Y5 2.903978 1_555
Ir16 Y3 2.903978 1_555
Ir16 Y12 2.903994 1_555
Ir16 Y10 2.903994 1_555
Ir16 Y36 3.236158 1_545
Ir16 Y38 3.236180 1_555
Ir17 Y34 2.841335 1_565
Ir17 Y35 2.841335 1_555
Ir17 Y11 2.903978 1_555
Ir17 Y13 2.903978 1_555
Ir17 Y2 2.903994 1_555
Ir17 Y4 2.903994 1_555
Ir17 Y38 3.236158 1_565
Ir17 Y36 3.236180 1_555
Ir18 Y33 2.841338 1_555
Ir18 Y32 2.841338 1_455
Ir18 Y15 2.903977 1_555
Ir18 Y1 2.903977 1_555
Ir18 Y8 2.903993 1_555
Ir18 Y6 2.903993 1_555
Ir18 Y37 3.236165 1_455
Ir18 Y39 3.236165 1_555
Ir19 Y32 2.841338 1_555
Ir19 Y33 2.841338 1_655
Ir19 Y9 2.903977 1_555
Ir19 Y7 2.903977 1_555
Ir19 Y14 2.903993 1_555
Ir19 Y0 2.903993 1_555
Ir19 Y37 3.236165 1_555
Ir19 Y39 3.236165 1_655
Ir20 Y0 2.922977 1_555
Ir20 Y4 2.922978 1_555
Ir20 Y5 2.922978 1_554
Ir20 Y1 2.922991 1_554
Ir20 Y21 2.960187 1_555
Ir20 Y16 2.960187 1_555
Ir20 Y17 2.960196 1_554
Ir20 Y20 2.960199 1_554
Ir21 Y6 2.922977 1_665
Ir21 Y3 2.922978 1_564
Ir21 Y2 2.922978 1_655
Ir21 Y7 2.922991 1_554
Ir21 Y22 2.960187 1_655
Ir21 Y19 2.960187 1_565
Ir21 Y23 2.960196 1_554
Ir21 Y18 2.960199 1_554
Ir22 Y8 2.922977 1_554
Ir22 Y13 2.922978 1_555
Ir22 Y12 2.922978 1_554
Ir22 Y9 2.922991 1_555
Ir22 Y29 2.960187 1_554
Ir22 Y24 2.960187 1_554
Ir22 Y25 2.960196 1_555
Ir22 Y28 2.960199 1_555
Ir23 Y14 2.922977 1_444
Ir23 Y10 2.922978 1_454
Ir23 Y11 2.922978 1_545
Ir23 Y15 2.922991 1_555
Ir23 Y27 2.960187 1_544
Ir23 Y30 2.960187 1_454
Ir23 Y31 2.960196 1_555
Ir23 Y26 2.960199 1_555
Ir24 Y9 3.054671 1_555
Ir24 Y1 3.054671 1_554
Ir24 Y12 3.054672 1_554
Ir24 Y5 3.054672 1_554
Ir24 Y4 3.054672 1_555
Ir24 Y13 3.054672 1_555
Ir24 Y8 3.054686 1_554
Ir24 Y0 3.054686 1_555
Ir25 Y15 3.054671 1_555
Ir25 Y7 3.054671 1_444
Ir25 Y11 3.054672 1_545
Ir25 Y10 3.054672 1_454
Ir25 Y2 3.054672 1_545
Ir25 Y3 3.054672 1_454
Ir25 Y14 3.054686 1_444
Ir25 Y6 3.054686 1_555
Ir26 Y31 2.916605 1_555
Ir26 Y17 2.916605 1_554
Ir26 Y27 2.916608 1_544
Ir26 Y21 2.916608 1_555
Ir26 Y16 2.916608 1_555
Ir26 Y30 2.916608 1_454
Ir26 Y20 2.916608 1_554
Ir26 Y26 2.916608 1_555
Ir27 Y23 2.916605 1_554
Ir27 Y25 2.916605 1_555
Ir27 Y29 2.916608 1_554
Ir27 Y24 2.916608 1_554
Ir27 Y19 2.916608 1_565
Ir27 Y22 2.916608 1_655
Ir27 Y28 2.916608 1_555
Ir27 Y18 2.916608 1_554
