# generated using pymatgen
data_CaV4(NiO6)2
_symmetry_space_group_name_H-M   'P 1'
_cell_length_a   7.26850000
_cell_length_b   7.26259671
_cell_length_c   5.58301080
_cell_angle_alpha   79.81068663
_cell_angle_beta   100.19465969
_cell_angle_gamma   99.84565808
_symmetry_Int_Tables_number   1
_chemical_formula_structural   CaV4(NiO6)2
_chemical_formula_sum   'Ca1 V4 Ni2 O12'
_cell_volume   282.50558553
_cell_formula_units_Z   1
loop_
 _symmetry_equiv_pos_site_id
 _symmetry_equiv_pos_as_xyz
  1  'x, y, z'
loop_
 _atom_site_type_symbol
 _atom_site_label
 _atom_site_symmetry_multiplicity
 _atom_site_fract_x
 _atom_site_fract_y
 _atom_site_fract_z
 _atom_site_occupancy
  Ca  Ca0  1  0.54791300  0.54803700  0.25090500  1
  V  V0  1  0.18435000  0.64902600  0.65913200  1
  V  V1  1  0.37331600  0.88519500  0.12433000  1
  V  V2  1  0.64897400  0.18358700  0.84119800  1
  V  V3  1  0.88489500  0.37339400  0.37540700  1
  Ni  Ni0  1  0.07529500  0.07535500  0.74989200  1
  Ni  Ni1  1  0.91528800  0.91538500  0.24995600  1
  O  O0  1  0.04185800  0.82311400  0.61861400  1
  O  O1  1  0.06803900  0.41519100  0.68719500  1
  O  O2  1  0.16350700  0.98408600  0.11068800  1
  O  O3  1  0.32222200  0.67963600  0.42542400  1
  O  O4  1  0.41495500  0.06801400  0.81250300  1
  O  O5  1  0.33227800  0.66981400  0.94475200  1
  O  O6  1  0.67971700  0.32239200  0.07401800  1
  O  O7  1  0.61557600  0.88605100  0.24384300  1
  O  O8  1  0.66984000  0.33093200  0.55509700  1
  O  O9  1  0.82295100  0.04092600  0.88146500  1
  O  O10  1  0.88454200  0.61594000  0.25676400  1
  O  O11  1  0.98448500  0.16392400  0.38882000  1
loop_
_geom_bond_atom_site_label_1
_geom_bond_atom_site_label_2
_geom_bond_distance
_geom_bond_site_symmetry_2
Ca0 O5 2.269627 1_554
Ca0 O8 2.270124 1_555
Ca0 O10 2.407438 1_555
Ca0 O7 2.414434 1_555
Ca0 O3 2.446482 1_555
Ca0 O6 2.454190 1_555
Ni0 O2 2.030702 1_546
Ni0 O11 2.031890 1_455
Ni0 O0 2.052296 1_545
Ni0 O9 2.054599 1_455
Ni0 O1 2.439079 1_555
Ni0 O4 2.439883 1_555
Ni1 O11 2.039312 1_565
Ni1 O2 2.039617 1_655
Ni1 O9 2.137999 1_564
Ni1 O0 2.141091 1_655
Ni1 O10 2.142071 1_555
Ni1 O7 2.147035 1_555
O0 V0 1.728030 1_555
O1 V0 1.756434 1_555
O1 V3 2.030463 1_455
O2 V1 1.778014 1_555
O3 V0 1.743618 1_555
O3 V1 2.082291 1_555
O4 V2 1.756795 1_555
O4 V1 2.028944 1_546
O5 V0 1.773252 1_555
O5 V1 1.957136 1_556
O6 V2 1.743414 1_554
O6 V3 2.082289 1_555
O7 V1 1.768536 1_555
O8 V2 1.773419 1_555
O8 V3 1.955937 1_555
O9 V2 1.728624 1_555
O10 V3 1.769129 1_555
O11 V3 1.777934 1_555
