# generated using pymatgen
data_Sr(H8O5)2
_symmetry_space_group_name_H-M   'P 1'
_cell_length_a   6.38836703
_cell_length_b   6.38836703
_cell_length_c   6.59517331
_cell_angle_alpha   87.96180540
_cell_angle_beta   87.96180540
_cell_angle_gamma   90.53453333
_symmetry_Int_Tables_number   1
_chemical_formula_structural   Sr(H8O5)2
_chemical_formula_sum   'Sr1 H16 O10'
_cell_volume   268.80157010
_cell_formula_units_Z   1
loop_
 _symmetry_equiv_pos_site_id
 _symmetry_equiv_pos_as_xyz
  1  'x, y, z'
loop_
 _atom_site_type_symbol
 _atom_site_label
 _atom_site_symmetry_multiplicity
 _atom_site_fract_x
 _atom_site_fract_y
 _atom_site_fract_z
 _atom_site_occupancy
  Sr  Sr0  1  0.98537300  0.01462700  0.00000000  1
  H  H0  1  0.34196400  0.32832600  0.69194500  1
  H  H1  1  0.12520300  0.24359400  0.62346800  1
  H  H2  1  0.67912100  0.67200200  0.69404700  1
  H  H3  1  0.92522900  0.72923400  0.69552700  1
  H  H4  1  0.27356600  0.92068000  0.69089000  1
  H  H5  1  0.32220000  0.67603500  0.69880600  1
  H  H6  1  0.66730000  0.32847000  0.69329600  1
  H  H7  1  0.71316400  0.08435600  0.68094300  1
  H  H8  1  0.67167400  0.65803600  0.30805500  1
  H  H9  1  0.75640600  0.87479700  0.37653200  1
  H  H10  1  0.32799800  0.32087900  0.30595300  1
  H  H11  1  0.27076600  0.07477100  0.30447300  1
  H  H12  1  0.67153000  0.33270000  0.30670400  1
  H  H13  1  0.91564400  0.28683600  0.31905700  1
  H  H14  1  0.32396500  0.67780000  0.30119400  1
  H  H15  1  0.07932000  0.72643400  0.30911000  1
  O  O0  1  0.49971300  0.50593200  0.61377300  1
  O  O1  1  0.49406800  0.50028700  0.38622700  1
  O  O2  1  0.22962900  0.21390700  0.72436000  1
  O  O3  1  0.78524300  0.77877400  0.73749700  1
  O  O4  1  0.21719400  0.78442500  0.74331200  1
  O  O5  1  0.76542200  0.21281100  0.73860400  1
  O  O6  1  0.78609300  0.77037100  0.27564000  1
  O  O7  1  0.22122600  0.21475700  0.26250300  1
  O  O8  1  0.78718900  0.23457800  0.26139600  1
  O  O9  1  0.21557500  0.78280600  0.25668800  1
loop_
_geom_bond_atom_site_label_1
_geom_bond_atom_site_label_2
_geom_bond_distance
_geom_bond_site_symmetry_2
H0 O2 1.031106 1_555
H0 O0 1.571249 1_555
H1 O2 0.974024 1_555
H2 O3 1.012956 1_555
H2 O0 1.667290 1_555
H3 O3 0.985100 1_555
H4 O4 0.985285 1_555
H5 O4 1.012293 1_555
H5 O0 1.674061 1_555
H6 O5 1.017059 1_555
H6 O0 1.651308 1_555
H7 O5 0.977547 1_555
H8 O6 1.031106 1_555
H8 O1 1.571249 1_555
H9 O6 0.974024 1_555
H10 O7 1.012956 1_555
H10 O1 1.667290 1_555
H11 O7 0.985100 1_555
H12 O8 1.017059 1_555
H12 O1 1.651308 1_555
H13 O8 0.977547 1_555
H14 O9 1.012293 1_555
H14 O1 1.674061 1_555
H15 O9 0.985285 1_555
O0 O1 1.504125 1_555
O2 Sr0 2.637581 1_456
O3 Sr0 2.684967 1_566
O4 Sr0 2.694671 1_466
O5 Sr0 2.568964 1_556
O6 Sr0 2.637581 1_565
O7 Sr0 2.684967 1_455
O8 Sr0 2.568964 1_555
O9 Sr0 2.694671 1_465
