# generated using pymatgen
data_SrPrEuSbO6
_symmetry_space_group_name_H-M   'P 1'
_cell_length_a   8.52850370
_cell_length_b   8.52301542
_cell_length_c   8.52918103
_cell_angle_alpha   90.00000000
_cell_angle_beta   90.00000000
_cell_angle_gamma   90.00000000
_symmetry_Int_Tables_number   1
_chemical_formula_structural   SrPrEuSbO6
_chemical_formula_sum   'Sr4 Pr4 Eu4 Sb4 O24'
_cell_volume   619.97395993
_cell_formula_units_Z   4
loop_
 _symmetry_equiv_pos_site_id
 _symmetry_equiv_pos_as_xyz
  1  'x, y, z'
loop_
 _atom_site_type_symbol
 _atom_site_label
 _atom_site_symmetry_multiplicity
 _atom_site_fract_x
 _atom_site_fract_y
 _atom_site_fract_z
 _atom_site_occupancy
  Sr  Sr0  1  0.00000000  0.50000000  0.50000000  1
  Sr  Sr1  1  0.50000000  0.00000000  0.50000000  1
  Sr  Sr2  1  0.50000000  0.00000000  0.00000000  1
  Sr  Sr3  1  -0.00000000  0.50000000  0.00000000  1
  Pr  Pr0  1  0.75000000  0.75000000  0.75000000  1
  Pr  Pr1  1  0.25000000  0.25000000  0.75000000  1
  Pr  Pr2  1  0.25000000  0.75000000  0.25000000  1
  Pr  Pr3  1  0.75000000  0.25000000  0.25000000  1
  Eu  Eu0  1  0.50000000  0.50000000  0.00000000  1
  Eu  Eu1  1  0.00000000  0.00000000  0.50000000  1
  Eu  Eu2  1  -0.00000000  0.00000000  0.00000000  1
  Eu  Eu3  1  0.50000000  0.50000000  0.50000000  1
  Sb  Sb0  1  0.25000000  0.25000000  0.25000000  1
  Sb  Sb1  1  0.75000000  0.75000000  0.25000000  1
  Sb  Sb2  1  0.75000000  0.25000000  0.75000000  1
  Sb  Sb3  1  0.25000000  0.75000000  0.75000000  1
  O  O0  1  0.02056262  0.20329536  0.28752944  1
  O  O1  1  0.97943738  0.79670464  0.28752944  1
  O  O2  1  0.97943738  0.20329536  0.71247056  1
  O  O3  1  0.02056262  0.79670464  0.71247056  1
  O  O4  1  0.28666546  0.02019338  0.20488633  1
  O  O5  1  0.28666546  0.97980662  0.79511367  1
  O  O6  1  0.71333454  0.97980662  0.20488633  1
  O  O7  1  0.71333454  0.02019338  0.79511367  1
  O  O8  1  0.20477252  0.28628393  0.02024147  1
  O  O9  1  0.79522748  0.28628393  0.97975853  1
  O  O10  1  0.20477252  0.71371607  0.97975853  1
  O  O11  1  0.79522748  0.71371607  0.02024147  1
  O  O12  1  0.47943738  0.29670464  0.21247056  1
  O  O13  1  0.52056262  0.70329536  0.21247056  1
  O  O14  1  0.52056262  0.29670464  0.78752944  1
  O  O15  1  0.47943738  0.70329536  0.78752944  1
  O  O16  1  0.21333454  0.47980662  0.29511367  1
  O  O17  1  0.21333454  0.52019338  0.70488633  1
  O  O18  1  0.78666546  0.52019338  0.29511367  1
  O  O19  1  0.78666546  0.47980662  0.70488633  1
  O  O20  1  0.29522748  0.21371607  0.47975853  1
  O  O21  1  0.70477252  0.21371607  0.52024147  1
  O  O22  1  0.29522748  0.78628393  0.52024147  1
  O  O23  1  0.70477252  0.78628393  0.47975853  1
loop_
_geom_bond_atom_site_label_1
_geom_bond_atom_site_label_2
_geom_bond_distance
_geom_bond_site_symmetry_2
Eu0 O14 2.513371 1_554
Eu0 O15 2.513371 1_554
Eu0 O12 2.513371 1_555
Eu0 O13 2.513371 1_555
Eu0 O11 3.112435 1_555
Eu0 O8 3.112435 1_555
Eu0 O9 3.112435 1_554
Eu0 O10 3.112435 1_554
Eu1 O2 2.513371 1_455
Eu1 O3 2.513371 1_545
Eu1 O1 2.513371 1_445
Eu1 O0 2.513371 1_555
Eu1 O21 3.112435 1_455
Eu1 O23 3.112435 1_445
Eu1 O20 3.112435 1_555
Eu1 O22 3.112435 1_545
Eu2 O11 3.005552 1_445
Eu2 O10 3.005552 1_544
Eu2 O9 3.005552 1_454
Eu2 O8 3.005552 1_555
Eu2 O0 3.007854 1_555
Eu2 O2 3.007854 1_454
Eu2 O3 3.007854 1_544
Eu2 O1 3.007854 1_445
Eu2 O5 3.010084 1_544
Eu2 O4 3.010084 1_555
Eu2 O7 3.010084 1_454
Eu2 O6 3.010084 1_445
Eu3 O22 3.005552 1_555
Eu3 O20 3.005552 1_555
Eu3 O23 3.005552 1_555
Eu3 O21 3.005552 1_555
Eu3 O13 3.007854 1_555
Eu3 O12 3.007854 1_555
Eu3 O14 3.007854 1_555
Eu3 O15 3.007854 1_555
Eu3 O17 3.010084 1_555
Eu3 O18 3.010084 1_555
Eu3 O16 3.010084 1_555
Eu3 O19 3.010084 1_555
O0 Sb0 2.022329 1_555
O0 Pr3 2.363355 1_455
O0 Sr0 3.116046 1_555
O1 Sb1 2.022329 1_555
O1 Pr2 2.363355 1_655
O1 Sr0 3.116046 1_655
O2 Sb2 2.022329 1_555
O2 Pr1 2.363355 1_655
O2 Sr0 3.116046 1_655
O3 Sb3 2.022329 1_555
O3 Pr0 2.363355 1_455
O3 Sr0 3.116046 1_555
O4 Sb0 2.020429 1_555
O4 Pr2 2.355635 1_545
O4 Sr2 2.528582 1_555
O4 Sr1 3.110564 1_555
O5 Sb3 2.020429 1_555
O5 Pr1 2.355635 1_565
O5 Sr2 2.528582 1_566
O5 Sr1 3.110564 1_565
O6 Sb1 2.020429 1_555
O6 Pr3 2.355635 1_565
O6 Sr2 2.528582 1_565
O6 Sr1 3.110564 1_565
O7 Sb2 2.020429 1_555
O7 Pr0 2.355635 1_545
O7 Sr2 2.528582 1_556
O7 Sr1 3.110564 1_555
O8 Sb0 2.021052 1_555
O8 Pr1 2.357362 1_554
O8 Sr3 2.529350 1_555
O9 Sb2 2.021052 1_555
O9 Pr3 2.357362 1_556
O9 Sr3 2.529350 1_656
O10 Sb3 2.021052 1_555
O10 Pr2 2.357362 1_556
O10 Sr3 2.529350 1_556
O11 Sb1 2.021052 1_555
O11 Pr0 2.357362 1_554
O11 Sr3 2.529350 1_655
O12 Sb0 2.022329 1_555
O12 Pr3 2.363355 1_555
O12 Sr2 3.116046 1_555
O13 Sb1 2.022329 1_555
O13 Pr2 2.363355 1_555
O13 Sr2 3.116046 1_565
O14 Sb2 2.022329 1_555
O14 Pr1 2.363355 1_555
O14 Sr2 3.116046 1_556
O15 Sb3 2.022329 1_555
O15 Pr0 2.363355 1_555
O15 Sr2 3.116046 1_566
O16 Sb0 2.020429 1_555
O16 Pr2 2.355635 1_555
O16 Sr0 2.528582 1_555
O16 Sr3 3.110564 1_555
O17 Sb3 2.020429 1_555
O17 Pr1 2.355635 1_555
O17 Sr0 2.528582 1_555
O17 Sr3 3.110564 1_556
O18 Sb1 2.020429 1_555
O18 Pr3 2.355635 1_555
O18 Sr0 2.528582 1_655
O18 Sr3 3.110564 1_655
O19 Sb2 2.020429 1_555
O19 Pr0 2.355635 1_555
O19 Sr0 2.528582 1_655
O19 Sr3 3.110564 1_656
O20 Sb0 2.021052 1_555
O20 Pr1 2.357362 1_555
O20 Sr1 2.529350 1_555
O21 Sb2 2.021052 1_555
O21 Pr3 2.357362 1_555
O21 Sr1 2.529350 1_555
O22 Sb3 2.021052 1_555
O22 Pr2 2.357362 1_555
O22 Sr1 2.529350 1_565
O23 Sb1 2.021052 1_555
O23 Pr0 2.357362 1_555
O23 Sr1 2.529350 1_565
