# generated using pymatgen
data_La2SiS5
_symmetry_space_group_name_H-M   'P 1'
_cell_length_a   8.21651800
_cell_length_b   8.71088544
_cell_length_c   12.49444029
_cell_angle_alpha   92.87300941
_cell_angle_beta   90.00000000
_cell_angle_gamma   90.00000000
_symmetry_Int_Tables_number   1
_chemical_formula_structural   La2SiS5
_chemical_formula_sum   'La8 Si4 S20'
_cell_volume   893.14238989
_cell_formula_units_Z   4
loop_
 _symmetry_equiv_pos_site_id
 _symmetry_equiv_pos_as_xyz
  1  'x, y, z'
loop_
 _atom_site_type_symbol
 _atom_site_label
 _atom_site_symmetry_multiplicity
 _atom_site_fract_x
 _atom_site_fract_y
 _atom_site_fract_z
 _atom_site_occupancy
  La  La0  1  0.44427600  0.51234000  0.66343800  1
  La  La1  1  0.94427600  0.48766000  0.83656200  1
  La  La2  1  0.55572400  0.48766000  0.33656200  1
  La  La3  1  0.05572400  0.51234000  0.16343800  1
  La  La4  1  0.42334200  0.74392300  0.00551700  1
  La  La5  1  0.92334200  0.25607700  0.49448300  1
  La  La6  1  0.57665800  0.25607700  0.99448300  1
  La  La7  1  0.07665800  0.74392300  0.50551700  1
  Si  Si0  1  0.21939100  0.04507100  0.21826800  1
  Si  Si1  1  0.71939100  0.95492900  0.28173200  1
  Si  Si2  1  0.78060900  0.95492900  0.78173200  1
  Si  Si3  1  0.28060900  0.04507100  0.71826800  1
  S  S0  1  0.60126400  0.52519800  0.87166500  1
  S  S1  1  0.10126400  0.47480200  0.62833500  1
  S  S2  1  0.39873600  0.47480200  0.12833500  1
  S  S3  1  0.89873600  0.52519800  0.37166500  1
  S  S4  1  0.79797800  0.94289700  0.43730200  1
  S  S5  1  0.29797800  0.05710300  0.06269800  1
  S  S6  1  0.20202200  0.05710300  0.56269800  1
  S  S7  1  0.70202200  0.94289700  0.93730200  1
  S  S8  1  0.67348600  0.75627900  0.19167300  1
  S  S9  1  0.17348600  0.24372100  0.30832700  1
  S  S10  1  0.32651400  0.24372100  0.80832700  1
  S  S11  1  0.82651400  0.75627900  0.69167300  1
  S  S12  1  0.09250000  0.68261200  0.98293400  1
  S  S13  1  0.59250000  0.31738800  0.51706600  1
  S  S14  1  0.90750000  0.31738800  0.01706600  1
  S  S15  1  0.40750000  0.68261200  0.48293400  1
  S  S16  1  0.32342300  0.83145400  0.77293400  1
  S  S17  1  0.82342300  0.16854600  0.72706600  1
  S  S18  1  0.67657700  0.16854600  0.22706600  1
  S  S19  1  0.17657700  0.83145400  0.27293400  1
loop_
_geom_bond_atom_site_label_1
_geom_bond_atom_site_label_2
_geom_bond_distance
_geom_bond_site_symmetry_2
La0 S13 2.720377 1_555
La0 S15 2.777218 1_555
La0 S1 2.868464 1_555
La0 S0 2.901017 1_555
La0 S10 3.180135 1_555
La0 S16 3.194303 1_555
La1 S12 2.720377 1_655
La1 S14 2.777218 1_556
La1 S0 2.868464 1_555
La1 S1 2.901017 1_655
La1 S11 3.180135 1_555
La1 S17 3.194303 1_555
La2 S15 2.720377 1_555
La2 S13 2.777218 1_555
La2 S3 2.868464 1_555
La2 S2 2.901017 1_555
La2 S8 3.180135 1_555
La2 S18 3.194303 1_555
La3 S14 2.720377 1_455
La3 S12 2.777218 1_554
La3 S2 2.868464 1_555
La3 S3 2.901017 1_455
La3 S9 3.180135 1_555
La3 S19 3.194303 1_555
La4 S12 2.781955 1_554
La4 S0 2.871375 1_554
La4 S2 2.872625 1_555
La4 S5 2.969589 1_565
La4 S7 3.020219 1_554
La4 S8 3.101722 1_555
La4 S16 3.149969 1_554
La5 S13 2.781955 1_555
La5 S1 2.871375 1_655
La5 S3 2.872625 1_555
La5 S4 2.969589 1_545
La5 S6 3.020219 1_655
La5 S9 3.101722 1_655
La5 S17 3.149969 1_555
La6 S14 2.781955 1_556
La6 S2 2.871375 1_556
La6 S0 2.872625 1_555
La6 S7 2.969589 1_545
La6 S5 3.020219 1_556
La6 S10 3.101722 1_555
La6 S18 3.149969 1_556
La7 S15 2.781955 1_555
La7 S3 2.871375 1_455
La7 S1 2.872625 1_555
La7 S6 2.969589 1_565
La7 S4 3.020219 1_455
La7 S11 3.101722 1_455
La7 S19 3.149969 1_555
S4 Si1 2.055858 1_555
S5 Si0 2.055858 1_555
S6 Si3 2.055858 1_555
S7 Si2 2.055858 1_555
S8 Si1 2.051238 1_555
S9 Si0 2.051238 1_555
S10 Si3 2.051238 1_555
S11 Si2 2.051238 1_555
S16 Si3 2.044560 1_565
S17 Si2 2.044560 1_545
S18 Si1 2.044560 1_545
S19 Si0 2.044560 1_565
