# generated using pymatgen
data_Ge2Pb5SO12
_symmetry_space_group_name_H-M   'P 1'
_cell_length_a   7.49013600
_cell_length_b   10.26967100
_cell_length_c   10.27875203
_cell_angle_alpha   60.21932109
_cell_angle_beta   90.00000000
_cell_angle_gamma   90.00000000
_symmetry_Int_Tables_number   1
_chemical_formula_structural   Ge2Pb5SO12
_chemical_formula_sum   'Ge4 Pb10 S2 O24'
_cell_volume   686.23492971
_cell_formula_units_Z   2
loop_
 _symmetry_equiv_pos_site_id
 _symmetry_equiv_pos_as_xyz
  1  'x, y, z'
loop_
 _atom_site_type_symbol
 _atom_site_label
 _atom_site_symmetry_multiplicity
 _atom_site_fract_x
 _atom_site_fract_y
 _atom_site_fract_z
 _atom_site_occupancy
  Ge  Ge0  1  0.50000000  0.37805800  0.60049100  1
  Ge  Ge1  1  0.00000000  0.98025300  0.62389800  1
  Ge  Ge2  1  0.00000000  0.39478900  0.98538000  1
  Ge  Ge3  1  0.00000000  0.62540100  0.39422700  1
  Pb  Pb0  1  0.50000000  0.74789900  0.26212800  1
  Pb  Pb1  1  0.50000000  0.01581000  0.74161400  1
  Pb  Pb2  1  0.50000000  0.28131500  0.96486100  1
  Pb  Pb3  1  0.00000000  0.26281800  0.74604500  1
  Pb  Pb4  1  0.00000000  0.97296400  0.27319300  1
  Pb  Pb5  1  0.00000000  0.76458600  0.96611900  1
  Pb  Pb6  1  0.76865800  0.33266300  0.34423900  1
  Pb  Pb7  1  0.23809900  0.65057800  0.67728200  1
  Pb  Pb8  1  0.76190100  0.65057800  0.67728200  1
  Pb  Pb9  1  0.23134200  0.33266300  0.34423900  1
  S  S0  1  0.50000000  0.01903700  0.37783900  1
  S  S1  1  0.50000000  0.60079300  0.01930300  1
  O  O0  1  0.66169400  0.07421800  0.28185500  1
  O  O1  1  0.66146000  0.64479200  0.07299600  1
  O  O2  1  0.68490900  0.25374400  0.64739000  1
  O  O3  1  0.18438600  0.91018100  0.75056500  1
  O  O4  1  0.18748000  0.35418700  0.90433400  1
  O  O5  1  0.18538900  0.74997300  0.34153500  1
  O  O6  1  0.81561400  0.91018100  0.75056500  1
  O  O7  1  0.81252000  0.35418700  0.90433400  1
  O  O8  1  0.81461100  0.74997300  0.34153500  1
  O  O9  1  0.33830600  0.07421800  0.28185500  1
  O  O10  1  0.33854000  0.64479200  0.07299600  1
  O  O11  1  0.31509100  0.25374400  0.64739000  1
  O  O12  1  0.50000000  0.08365300  0.48216100  1
  O  O13  1  0.50000000  0.43230400  0.08535400  1
  O  O14  1  0.50000000  0.50138400  0.40370000  1
  O  O15  1  0.00000000  0.88113300  0.52139300  1
  O  O16  1  0.00000000  0.59909100  0.88089600  1
  O  O17  1  0.00000000  0.52115400  0.59742300  1
  O  O18  1  0.50000000  0.85115200  0.46921200  1
  O  O19  1  0.50000000  0.67297500  0.85237100  1
  O  O20  1  0.50000000  0.47805500  0.70212500  1
  O  O21  1  0.00000000  0.17773700  0.50810600  1
  O  O22  1  0.00000000  0.31398200  0.18115400  1
  O  O23  1  0.00000000  0.50298500  0.32061300  1
loop_
_geom_bond_atom_site_label_1
_geom_bond_atom_site_label_2
_geom_bond_distance
_geom_bond_site_symmetry_2
Ge0 O14 1.775045 1_555
Ge0 O2 1.780201 1_555
Ge0 O11 1.780201 1_555
Ge0 O20 1.792101 1_555
Ge1 O21 1.769726 1_565
Ge1 O3 1.785962 1_555
Ge1 O6 1.785962 1_455
Ge1 O15 1.792122 1_555
Ge2 O22 1.754769 1_556
Ge2 O4 1.784604 1_555
Ge2 O7 1.784604 1_455
Ge2 O16 1.821302 1_555
Ge3 O23 1.760101 1_555
Ge3 O5 1.780414 1_555
Ge3 O8 1.780414 1_455
Ge3 O17 1.813070 1_555
O0 S0 1.485232 1_555
O0 Pb4 2.757193 1_645
O1 S1 1.489641 1_555
O1 Pb5 2.794215 1_654
O2 Pb1 2.544815 1_555
O2 Pb3 2.588591 1_655
O3 Pb5 2.400247 1_555
O3 Pb1 2.583509 1_565
O4 Pb2 2.442139 1_555
O4 Pb3 2.648792 1_555
O4 Pb7 2.792630 1_555
O5 Pb4 2.463318 1_555
O5 Pb0 2.497380 1_555
O6 Pb5 2.400247 1_655
O6 Pb1 2.583509 1_565
O7 Pb2 2.442139 1_555
O7 Pb3 2.648792 1_655
O7 Pb8 2.792630 1_555
O8 Pb4 2.463318 1_655
O8 Pb0 2.497380 1_555
O9 S0 1.485232 1_555
O9 Pb4 2.757193 1_545
O10 S1 1.489641 1_555
O10 Pb5 2.794215 1_554
O11 Pb1 2.544815 1_555
O11 Pb3 2.588591 1_555
O12 S0 1.515590 1_555
O12 Pb1 2.398291 1_555
O13 S1 1.512616 1_555
O13 Pb2 2.417854 1_554
O14 Pb0 2.206166 1_555
O15 Pb4 2.237845 1_555
O15 Pb7 2.754159 1_555
O15 Pb8 2.754159 1_455
O16 Pb5 2.266020 1_555
O16 Pb7 2.596346 1_555
O16 Pb8 2.596346 1_455
O17 Pb3 2.312199 1_555
O17 Pb7 2.589342 1_555
O17 Pb8 2.589342 1_455
O18 S0 1.498716 1_565
O18 Pb8 2.879059 1_555
O18 Pb7 2.879059 1_555
O19 S1 1.493372 1_556
O19 Pb8 2.747941 1_555
O19 Pb7 2.747941 1_555
O20 Pb2 2.440338 1_555
O20 Pb8 2.569642 1_555
O20 Pb7 2.569642 1_555
O21 Pb9 2.389329 1_555
O21 Pb6 2.389329 1_455
O22 Pb9 2.483711 1_555
O22 Pb6 2.483711 1_455
O23 Pb6 2.387276 1_455
O23 Pb9 2.387276 1_555
