# generated using pymatgen
data_NaCr(SO4)2
_symmetry_space_group_name_H-M   'P 1'
_cell_length_a   4.81469922
_cell_length_b   4.81469922
_cell_length_c   7.47156948
_cell_angle_alpha   87.49627731
_cell_angle_beta   87.49627731
_cell_angle_gamma   65.23121247
_symmetry_Int_Tables_number   1
_chemical_formula_structural   NaCr(SO4)2
_chemical_formula_sum   'Na1 Cr1 S2 O8'
_cell_volume   157.05578900
_cell_formula_units_Z   1
loop_
 _symmetry_equiv_pos_site_id
 _symmetry_equiv_pos_as_xyz
  1  'x, y, z'
loop_
 _atom_site_type_symbol
 _atom_site_label
 _atom_site_symmetry_multiplicity
 _atom_site_fract_x
 _atom_site_fract_y
 _atom_site_fract_z
 _atom_site_occupancy
  Na  Na0  1  0.00000000  0.00000000  0.50000000  1
  Cr  Cr0  1  0.00000000  0.00000000  0.00000000  1
  S  S0  1  0.36475800  0.36475800  0.78847000  1
  S  S1  1  0.63524200  0.63524200  0.21153000  1
  O  O0  1  0.29598900  0.29598900  0.61324600  1
  O  O1  1  0.70401100  0.70401100  0.38675400  1
  O  O2  1  0.70812900  0.23819100  0.80496500  1
  O  O3  1  0.29187100  0.76180900  0.19503500  1
  O  O4  1  0.76180900  0.29187100  0.19503500  1
  O  O5  1  0.23819100  0.70812900  0.80496500  1
  O  O6  1  0.24203500  0.24203500  0.94295500  1
  O  O7  1  0.75796500  0.75796500  0.05704500  1
loop_
_geom_bond_atom_site_label_1
_geom_bond_atom_site_label_2
_geom_bond_distance
_geom_bond_site_symmetry_2
Na0 O0 2.586535 1_555
Na0 O1 2.586535 1_445
Na0 O5 2.660831 1_545
Na0 O2 2.660831 1_455
Na0 O4 2.660831 1_455
Na0 O3 2.660831 1_545
Cr0 O7 1.987137 1_445
Cr0 O6 1.987137 1_554
Cr0 O4 2.023855 1_455
Cr0 O3 2.023855 1_545
Cr0 O5 2.023855 1_544
Cr0 O2 2.023855 1_454
O0 S0 1.449435 1_555
O1 S1 1.449435 1_555
O2 S0 1.512211 1_555
O3 S1 1.512211 1_555
O4 S1 1.512211 1_555
O5 S0 1.512211 1_555
O6 S0 1.484560 1_555
O7 S1 1.484560 1_555
