# generated using pymatgen
data_Cs3YI6
_symmetry_space_group_name_H-M   'P 1'
_cell_length_a   9.43115125
_cell_length_b   9.43115125
_cell_length_c   9.43115125
_cell_angle_alpha   60.00000000
_cell_angle_beta   60.00000000
_cell_angle_gamma   60.00000000
_symmetry_Int_Tables_number   1
_chemical_formula_structural   Cs3YI6
_chemical_formula_sum   'Cs3 Y1 I6'
_cell_volume   593.16993554
_cell_formula_units_Z   1
loop_
 _symmetry_equiv_pos_site_id
 _symmetry_equiv_pos_as_xyz
  1  'x, y, z'
loop_
 _atom_site_type_symbol
 _atom_site_label
 _atom_site_symmetry_multiplicity
 _atom_site_fract_x
 _atom_site_fract_y
 _atom_site_fract_z
 _atom_site_occupancy
  Cs  Cs0  1  0.75000000  0.75000000  0.75000000  1
  Cs  Cs1  1  0.25000000  0.25000000  0.25000000  1
  Cs  Cs2  1  0.50000000  0.50000000  0.50000000  1
  Y  Y0  1  0.00000000  0.00000000  0.00000000  1
  I  I0  1  0.77288300  0.22711700  0.22711700  1
  I  I1  1  0.22711700  0.22711700  0.77288300  1
  I  I2  1  0.22711700  0.77288300  0.77288300  1
  I  I3  1  0.22711700  0.77288300  0.22711700  1
  I  I4  1  0.77288300  0.22711700  0.77288300  1
  I  I5  1  0.77288300  0.77288300  0.22711700  1
loop_
_geom_bond_atom_site_label_1
_geom_bond_atom_site_label_2
_geom_bond_distance
_geom_bond_site_symmetry_2
Cs2 I2 3.639621 1_555
Cs2 I4 3.639621 1_555
Cs2 I5 3.639621 1_555
Cs2 I3 3.639621 1_555
Cs2 I0 3.639621 1_555
Cs2 I1 3.639621 1_555
I0 Y0 3.029210 1_655
I1 Y0 3.029210 1_556
I2 Y0 3.029210 1_566
I3 Y0 3.029210 1_565
I4 Y0 3.029210 1_656
I5 Y0 3.029210 1_665
