# generated using pymatgen
data_Li5Mn3O8
_symmetry_space_group_name_H-M   'P 1'
_cell_length_a   2.97853891
_cell_length_b   2.97853927
_cell_length_c   19.60843977
_cell_angle_alpha   85.64416185
_cell_angle_beta   90.00000003
_cell_angle_gamma   120.00001022
_symmetry_Int_Tables_number   1
_chemical_formula_structural   Li5Mn3O8
_chemical_formula_sum   'Li5 Mn3 O8'
_cell_volume   150.07336860
_cell_formula_units_Z   1
loop_
 _symmetry_equiv_pos_site_id
 _symmetry_equiv_pos_as_xyz
  1  'x, y, z'
loop_
 _atom_site_type_symbol
 _atom_site_label
 _atom_site_symmetry_multiplicity
 _atom_site_fract_x
 _atom_site_fract_y
 _atom_site_fract_z
 _atom_site_occupancy
  Li  Li0  1  0.88037420  0.76074840  0.35887740  1
  Li  Li1  1  0.12475368  0.24950736  0.62573895  1
  Li  Li2  1  0.37524632  0.75049264  0.87426105  1
  Li  Li3  1  0.61962580  0.23925160  0.14112260  1
  Li  Li4  1  0.25000000  0.50000000  0.25000000  1
  Mn  Mn0  1  0.00003093  0.00006186  0.99990720  1
  Mn  Mn1  1  0.49996907  0.99993814  0.50009280  1
  Mn  Mn2  1  0.75000000  0.50000000  0.75000000  1
  O  O0  1  0.81421388  0.62842776  0.55735837  1
  O  O1  1  0.06407475  0.12814949  0.80777576  1
  O  O2  1  0.31638114  0.63276228  0.05085658  1
  O  O3  1  0.56219510  0.12439020  0.31341471  1
  O  O4  1  0.93780490  0.87560980  0.18658529  1
  O  O5  1  0.18361886  0.36723772  0.44914342  1
  O  O6  1  0.43592525  0.87185051  0.69222424  1
  O  O7  1  0.68578612  0.37157224  0.94264163  1
loop_
_geom_bond_atom_site_label_1
_geom_bond_atom_site_label_2
_geom_bond_distance
_geom_bond_site_symmetry_2
Li0 O3 1.935408 1_665
Li0 O3 1.935409 1_555
Li0 O3 1.935409 1_565
Li0 O5 2.462915 1_555
Li0 O5 2.462915 1_655
Li0 O5 2.462915 1_665
Li1 O6 2.154930 1_445
Li1 O6 2.154930 1_545
Li1 O6 2.154930 1_555
Li1 O0 2.177440 1_555
Li1 O0 2.177440 1_445
Li1 O0 2.177440 1_455
Li2 O1 2.154930 1_665
Li2 O1 2.154930 1_565
Li2 O1 2.154930 1_555
Li2 O7 2.177440 1_455
Li2 O7 2.177440 1_565
Li2 O7 2.177440 1_555
Li3 O4 1.935408 1_445
Li3 O4 1.935409 1_555
Li3 O4 1.935409 1_545
Li3 O2 2.462915 1_655
Li3 O2 2.462915 1_555
Li3 O2 2.462915 1_545
Li4 O3 2.119325 1_455
Li4 O4 2.119325 1_555
Li4 O3 2.119326 1_555
Li4 O4 2.119326 1_455
Li4 O3 2.119326 1_565
Li4 O4 2.119326 1_445
Mn0 O2 1.986865 1_446
Mn0 O2 1.986865 1_556
Mn0 O2 1.986865 1_546
Mn0 O7 2.051441 1_555
Mn0 O7 2.051442 1_445
Mn0 O7 2.051442 1_455
Mn1 O5 1.986865 1_665
Mn1 O5 1.986865 1_555
Mn1 O5 1.986865 1_565
Mn1 O0 2.051441 1_455
Mn1 O0 2.051442 1_565
Mn1 O0 2.051442 1_555
Mn2 O6 2.056892 1_655
Mn2 O1 2.056892 1_555
Mn2 O6 2.056892 1_545
Mn2 O1 2.056892 1_665
Mn2 O6 2.056892 1_555
Mn2 O1 2.056892 1_655
