# generated using pymatgen
data_MgSn3
_symmetry_space_group_name_H-M   'P 1'
_cell_length_a   6.80506416
_cell_length_b   6.80506273
_cell_length_c   20.50394722
_cell_angle_alpha   90.00000000
_cell_angle_beta   90.00000000
_cell_angle_gamma   120.00002713
_symmetry_Int_Tables_number   1
_chemical_formula_structural   MgSn3
_chemical_formula_sum   'Mg8 Sn24'
_cell_volume   822.30389153
_cell_formula_units_Z   8
loop_
 _symmetry_equiv_pos_site_id
 _symmetry_equiv_pos_as_xyz
  1  'x, y, z'
loop_
 _atom_site_type_symbol
 _atom_site_label
 _atom_site_symmetry_multiplicity
 _atom_site_fract_x
 _atom_site_fract_y
 _atom_site_fract_z
 _atom_site_occupancy
  Mg  Mg0_0  1  0.00000000  0.00000000  0.25000000  1
  Mg  Mg0_1  1  0.00000000  0.00000000  0.75000000  1
  Mg  Mg0_2  1  0.00000000  0.50000000  0.25000000  1
  Mg  Mg0_3  1  0.00000000  0.50000000  0.75000000  1
  Mg  Mg0_4  1  0.50000000  0.00000000  0.25000000  1
  Mg  Mg0_5  1  0.50000000  0.00000000  0.75000000  1
  Mg  Mg0_6  1  0.50000000  0.50000000  0.25000000  1
  Mg  Mg0_7  1  0.50000000  0.50000000  0.75000000  1
  Sn  Sn0_0  1  0.00000000  0.00000000  0.00000000  1
  Sn  Sn0_1  1  0.00000000  0.00000000  0.50000000  1
  Sn  Sn0_2  1  0.00000000  0.50000000  0.00000000  1
  Sn  Sn0_3  1  0.00000000  0.50000000  0.50000000  1
  Sn  Sn0_4  1  0.50000000  0.00000000  0.00000000  1
  Sn  Sn0_5  1  0.50000000  0.00000000  0.50000000  1
  Sn  Sn0_6  1  0.50000000  0.50000000  0.00000000  1
  Sn  Sn0_7  1  0.50000000  0.50000000  0.50000000  1
  Sn  Sn1_0  1  0.33333350  0.16666650  0.36645444  1
  Sn  Sn1_1  1  0.33333350  0.16666650  0.86645444  1
  Sn  Sn1_2  1  0.33333350  0.66666650  0.36645444  1
  Sn  Sn1_3  1  0.33333350  0.66666650  0.86645444  1
  Sn  Sn1_4  1  0.83333350  0.16666650  0.36645444  1
  Sn  Sn1_5  1  0.83333350  0.16666650  0.86645444  1
  Sn  Sn1_6  1  0.83333350  0.66666650  0.36645444  1
  Sn  Sn1_7  1  0.83333350  0.66666650  0.86645444  1
  Sn  Sn2_0  1  0.33333350  0.16666650  0.13354556  1
  Sn  Sn2_1  1  0.33333350  0.16666650  0.63354556  1
  Sn  Sn2_2  1  0.33333350  0.66666650  0.13354556  1
  Sn  Sn2_3  1  0.33333350  0.66666650  0.63354556  1
  Sn  Sn2_4  1  0.83333350  0.16666650  0.13354556  1
  Sn  Sn2_5  1  0.83333350  0.16666650  0.63354556  1
  Sn  Sn2_6  1  0.83333350  0.66666650  0.13354556  1
  Sn  Sn2_7  1  0.83333350  0.66666650  0.63354556  1
loop_
_geom_bond_atom_site_label_1
_geom_bond_atom_site_label_2
_geom_bond_distance
_geom_bond_site_symmetry_2
Mg0_0 Sn2_4 3.092012 1_455
Mg0_0 Sn1_4 3.092012 1_455
Mg0_0 Sn2_6 3.092014 1_445
Mg0_0 Sn1_6 3.092014 1_445
Mg0_0 Sn2_0 3.092014 1_555
Mg0_0 Sn1_0 3.092014 1_555
Mg0_1 Sn2_5 3.092012 1_455
Mg0_1 Sn1_5 3.092012 1_455
Mg0_1 Sn2_7 3.092014 1_445
Mg0_1 Sn1_7 3.092014 1_445
Mg0_1 Sn2_1 3.092014 1_555
Mg0_1 Sn1_1 3.092014 1_555
Mg0_2 Sn1_6 3.092012 1_455
Mg0_2 Sn2_6 3.092012 1_455
Mg0_2 Sn1_4 3.092014 1_455
Mg0_2 Sn2_4 3.092014 1_455
Mg0_2 Sn2_2 3.092014 1_555
Mg0_2 Sn1_2 3.092014 1_555
Mg0_3 Sn2_7 3.092012 1_455
Mg0_3 Sn1_7 3.092012 1_455
Mg0_3 Sn2_5 3.092014 1_455
Mg0_3 Sn1_5 3.092014 1_455
Mg0_3 Sn2_3 3.092014 1_555
Mg0_3 Sn1_3 3.092014 1_555
Mg0_4 Sn1_0 3.092012 1_555
Mg0_4 Sn2_0 3.092012 1_555
Mg0_4 Sn2_2 3.092014 1_545
Mg0_4 Sn1_2 3.092014 1_545
Mg0_4 Sn1_4 3.092014 1_555
Mg0_4 Sn2_4 3.092014 1_555
Mg0_5 Sn2_1 3.092012 1_555
Mg0_5 Sn1_1 3.092012 1_555
Mg0_5 Sn2_3 3.092014 1_545
Mg0_5 Sn1_3 3.092014 1_545
Mg0_5 Sn2_5 3.092014 1_555
Mg0_5 Sn1_5 3.092014 1_555
Mg0_6 Sn2_2 3.092012 1_555
Mg0_6 Sn1_2 3.092012 1_555
Mg0_6 Sn1_0 3.092014 1_555
Mg0_6 Sn2_0 3.092014 1_555
Mg0_6 Sn1_6 3.092014 1_555
Mg0_6 Sn2_6 3.092014 1_555
Mg0_7 Sn2_3 3.092012 1_555
Mg0_7 Sn1_3 3.092012 1_555
Mg0_7 Sn2_1 3.092014 1_555
Mg0_7 Sn1_1 3.092014 1_555
Mg0_7 Sn2_7 3.092014 1_555
Mg0_7 Sn1_7 3.092014 1_555
Sn0_0 Sn1_5 3.369995 1_454
Sn0_0 Sn2_4 3.369995 1_455
Sn0_0 Sn1_7 3.369996 1_444
Sn0_0 Sn2_6 3.369996 1_445
Sn0_0 Sn1_1 3.369997 1_554
Sn0_0 Sn2_0 3.369997 1_555
Sn0_0 Sn0_6 3.402530 1_555
Sn0_0 Sn0_6 3.402530 1_445
Sn0_0 Sn0_2 3.402531 1_555
Sn0_0 Sn0_2 3.402531 1_545
Sn0_0 Sn0_4 3.402532 1_555
Sn0_0 Sn0_4 3.402532 1_455
Sn0_1 Sn1_4 3.369995 1_455
Sn0_1 Sn2_5 3.369995 1_455
Sn0_1 Sn1_6 3.369996 1_445
Sn0_1 Sn2_7 3.369996 1_445
Sn0_1 Sn1_0 3.369997 1_555
Sn0_1 Sn2_1 3.369997 1_555
Sn0_1 Sn0_7 3.402530 1_555
Sn0_1 Sn0_7 3.402530 1_445
Sn0_1 Sn0_3 3.402531 1_545
Sn0_1 Sn0_3 3.402531 1_555
Sn0_1 Sn0_5 3.402532 1_555
Sn0_1 Sn0_5 3.402532 1_455
Sn0_2 Sn1_7 3.369995 1_454
Sn0_2 Sn2_6 3.369995 1_455
Sn0_2 Sn1_5 3.369996 1_454
Sn0_2 Sn2_4 3.369996 1_455
Sn0_2 Sn1_3 3.369997 1_554
Sn0_2 Sn2_2 3.369997 1_555
Sn0_2 Sn0_4 3.402530 1_455
Sn0_2 Sn0_4 3.402530 1_565
Sn0_2 Sn0_6 3.402532 1_555
Sn0_2 Sn0_6 3.402532 1_455
Sn0_3 Sn1_6 3.369995 1_455
Sn0_3 Sn2_7 3.369995 1_455
Sn0_3 Sn1_4 3.369996 1_455
Sn0_3 Sn2_5 3.369996 1_455
Sn0_3 Sn1_2 3.369997 1_555
Sn0_3 Sn2_3 3.369997 1_555
Sn0_3 Sn0_5 3.402530 1_455
Sn0_3 Sn0_5 3.402530 1_565
Sn0_3 Sn0_7 3.402532 1_555
Sn0_3 Sn0_7 3.402532 1_455
Sn0_4 Sn1_1 3.369995 1_554
Sn0_4 Sn2_0 3.369995 1_555
Sn0_4 Sn1_3 3.369996 1_544
Sn0_4 Sn2_2 3.369996 1_545
Sn0_4 Sn1_5 3.369997 1_554
Sn0_4 Sn2_4 3.369997 1_555
Sn0_4 Sn0_6 3.402531 1_555
Sn0_4 Sn0_6 3.402531 1_545
Sn0_5 Sn1_0 3.369995 1_555
Sn0_5 Sn2_1 3.369995 1_555
Sn0_5 Sn1_2 3.369996 1_545
Sn0_5 Sn2_3 3.369996 1_545
Sn0_5 Sn1_4 3.369997 1_555
Sn0_5 Sn2_5 3.369997 1_555
Sn0_5 Sn0_7 3.402531 1_555
Sn0_5 Sn0_7 3.402531 1_545
Sn0_6 Sn1_3 3.369995 1_554
Sn0_6 Sn2_2 3.369995 1_555
Sn0_6 Sn1_1 3.369996 1_554
Sn0_6 Sn2_0 3.369996 1_555
Sn0_6 Sn1_7 3.369997 1_554
Sn0_6 Sn2_6 3.369997 1_555
Sn0_7 Sn1_2 3.369995 1_555
Sn0_7 Sn2_3 3.369995 1_555
Sn0_7 Sn1_0 3.369996 1_555
Sn0_7 Sn2_1 3.369996 1_555
Sn0_7 Sn1_6 3.369997 1_555
Sn0_7 Sn2_7 3.369997 1_555
