# generated using pymatgen
data_RbSm2Cl5
_symmetry_space_group_name_H-M   'P 1'
_cell_length_a   7.14251600
_cell_length_b   8.97870700
_cell_length_c   13.39282696
_cell_angle_alpha   89.11546027
_cell_angle_beta   90.00000000
_cell_angle_gamma   90.00000000
_symmetry_Int_Tables_number   1
_chemical_formula_structural   RbSm2Cl5
_chemical_formula_sum   'Rb4 Sm8 Cl20'
_cell_volume   858.78712178
_cell_formula_units_Z   4
loop_
 _symmetry_equiv_pos_site_id
 _symmetry_equiv_pos_as_xyz
  1  'x, y, z'
loop_
 _atom_site_type_symbol
 _atom_site_label
 _atom_site_symmetry_multiplicity
 _atom_site_fract_x
 _atom_site_fract_y
 _atom_site_fract_z
 _atom_site_occupancy
  Rb  Rb0  1  0.06802900  0.50010600  0.33742800  1
  Rb  Rb1  1  0.93197100  0.49989400  0.66257200  1
  Rb  Rb2  1  0.56802900  0.49989400  0.16257200  1
  Rb  Rb3  1  0.43197100  0.50010600  0.83742800  1
  Sm  Sm0  1  0.10276300  0.99102000  0.34085000  1
  Sm  Sm1  1  0.89723700  0.00898000  0.65915000  1
  Sm  Sm2  1  0.60276300  0.00898000  0.15915000  1
  Sm  Sm3  1  0.39723700  0.99102000  0.84085000  1
  Sm  Sm4  1  0.02737100  0.19598000  0.99880900  1
  Sm  Sm5  1  0.97262900  0.80402000  0.00119100  1
  Sm  Sm6  1  0.52737100  0.80402000  0.50119100  1
  Sm  Sm7  1  0.47262900  0.19598000  0.49880900  1
  Cl  Cl0  1  0.16546600  0.54065800  0.07847000  1
  Cl  Cl1  1  0.83453400  0.45934200  0.92153000  1
  Cl  Cl2  1  0.66546600  0.45934200  0.42153000  1
  Cl  Cl3  1  0.33453400  0.54065800  0.57847000  1
  Cl  Cl4  1  0.86216700  0.23571400  0.18735200  1
  Cl  Cl5  1  0.13783300  0.76428600  0.81264800  1
  Cl  Cl6  1  0.36216700  0.76428600  0.31264800  1
  Cl  Cl7  1  0.63783300  0.23571400  0.68735200  1
  Cl  Cl8  1  0.34341200  0.22550600  0.29191800  1
  Cl  Cl9  1  0.65658800  0.77449400  0.70808200  1
  Cl  Cl10  1  0.84341200  0.77449400  0.20808200  1
  Cl  Cl11  1  0.15658800  0.22550600  0.79191800  1
  Cl  Cl12  1  0.44591800  0.20125800  0.99908900  1
  Cl  Cl13  1  0.55408200  0.79874200  0.00091100  1
  Cl  Cl14  1  0.94591800  0.79874200  0.50091100  1
  Cl  Cl15  1  0.05408200  0.20125800  0.49908900  1
  Cl  Cl16  1  0.69464500  0.02377000  0.36698600  1
  Cl  Cl17  1  0.30535500  0.97623000  0.63301400  1
  Cl  Cl18  1  0.19464500  0.97623000  0.13301400  1
  Cl  Cl19  1  0.80535500  0.02377000  0.86698600  1
loop_
_geom_bond_atom_site_label_1
_geom_bond_atom_site_label_2
_geom_bond_distance
_geom_bond_site_symmetry_2
Cl0 Sm5 2.912777 1_455
Cl0 Rb2 3.107628 1_555
Cl0 Sm4 3.433748 1_554
Cl0 Rb0 3.550520 1_555
Cl0 Rb3 3.770110 1_554
Cl1 Sm4 2.912777 1_655
Cl1 Rb3 3.107628 1_555
Cl1 Sm5 3.433748 1_556
Cl1 Rb1 3.550520 1_555
Cl1 Rb2 3.770110 1_556
Cl2 Sm7 2.912777 1_555
Cl2 Rb0 3.107628 1_655
Cl2 Sm6 3.433748 1_555
Cl2 Rb2 3.550520 1_555
Cl2 Rb1 3.770110 1_555
Cl3 Sm6 2.912777 1_555
Cl3 Rb1 3.107628 1_455
Cl3 Sm7 3.433748 1_555
Cl3 Rb3 3.550520 1_555
Cl3 Rb0 3.770110 1_555
Cl4 Sm2 2.782742 1_555
Cl4 Sm4 2.814903 1_654
Cl4 Rb2 3.182124 1_555
Cl4 Sm0 3.444825 1_645
Cl4 Rb0 3.461874 1_655
Cl5 Sm3 2.782742 1_555
Cl5 Sm5 2.814903 1_456
Cl5 Rb3 3.182124 1_555
Cl5 Sm1 3.444825 1_465
Cl5 Rb1 3.461874 1_455
Cl6 Sm0 2.782742 1_555
Cl6 Sm6 2.814903 1_555
Cl6 Rb0 3.182124 1_555
Cl6 Sm2 3.444825 1_565
Cl6 Rb2 3.461874 1_555
Cl7 Sm1 2.782742 1_555
Cl7 Sm7 2.814903 1_555
Cl7 Rb1 3.182124 1_555
Cl7 Sm3 3.444825 1_545
Cl7 Rb3 3.461874 1_555
Cl8 Sm0 2.788173 1_545
Cl8 Sm7 2.928660 1_555
Cl8 Rb0 3.219573 1_555
Cl8 Sm2 3.237218 1_555
Cl8 Rb2 3.393018 1_555
Cl9 Sm1 2.788173 1_565
Cl9 Sm6 2.928660 1_555
Cl9 Rb1 3.219573 1_555
Cl9 Sm3 3.237218 1_555
Cl9 Rb3 3.393018 1_555
Cl10 Sm2 2.788173 1_565
Cl10 Sm5 2.928660 1_555
Cl10 Rb2 3.219573 1_555
Cl10 Sm0 3.237218 1_655
Cl10 Rb0 3.393018 1_655
Cl11 Sm3 2.788173 1_545
Cl11 Sm4 2.928660 1_555
Cl11 Rb3 3.219573 1_555
Cl11 Sm1 3.237218 1_455
Cl11 Rb1 3.393018 1_455
Cl12 Sm3 2.880797 1_545
Cl12 Sm2 2.952378 1_556
Cl12 Sm4 2.989858 1_555
Cl12 Rb3 3.423176 1_555
Cl12 Rb2 3.595217 1_556
Cl13 Sm2 2.880797 1_565
Cl13 Sm3 2.952378 1_554
Cl13 Sm5 2.989858 1_555
Cl13 Rb2 3.423176 1_555
Cl13 Rb3 3.595217 1_554
Cl14 Sm1 2.880797 1_565
Cl14 Sm0 2.952378 1_655
Cl14 Sm6 2.989858 1_555
Cl14 Rb1 3.423176 1_555
Cl14 Rb0 3.595217 1_655
Cl15 Sm0 2.880797 1_545
Cl15 Sm1 2.952378 1_455
Cl15 Sm7 2.989858 1_555
Cl15 Rb0 3.423176 1_555
Cl15 Rb1 3.595217 1_455
Cl16 Sm7 2.847215 1_555
Cl16 Sm2 2.864904 1_555
Cl16 Sm6 2.905435 1_545
Cl16 Sm0 2.951158 1_645
Cl17 Sm6 2.847215 1_555
Cl17 Sm3 2.864904 1_555
Cl17 Sm7 2.905435 1_565
Cl17 Sm1 2.951158 1_465
Cl18 Sm5 2.847215 1_455
Cl18 Sm0 2.864904 1_555
Cl18 Sm4 2.905435 1_564
Cl18 Sm2 2.951158 1_565
Cl19 Sm4 2.847215 1_655
Cl19 Sm1 2.864904 1_555
Cl19 Sm5 2.905435 1_546
Cl19 Sm3 2.951158 1_545
