# generated using pymatgen
data_ZnSnO2
_symmetry_space_group_name_H-M   'P 1'
_cell_length_a   3.37422200
_cell_length_b   8.38188423
_cell_length_c   9.27315471
_cell_angle_alpha   87.62671406
_cell_angle_beta   80.85119639
_cell_angle_gamma   85.08881525
_symmetry_Int_Tables_number   1
_chemical_formula_structural   ZnSnO2
_chemical_formula_sum   'Zn4 Sn4 O8'
_cell_volume   257.87646698
_cell_formula_units_Z   4
loop_
 _symmetry_equiv_pos_site_id
 _symmetry_equiv_pos_as_xyz
  1  'x, y, z'
loop_
 _atom_site_type_symbol
 _atom_site_label
 _atom_site_symmetry_multiplicity
 _atom_site_fract_x
 _atom_site_fract_y
 _atom_site_fract_z
 _atom_site_occupancy
  Zn  Zn0  1  0.11528700  0.52819500  0.28924200  1
  Zn  Zn1  1  0.88471300  0.47180500  0.71075800  1
  Zn  Zn2  1  0.70766500  0.26180600  0.09304500  1
  Zn  Zn3  1  0.29233500  0.73819400  0.90695500  1
  Sn  Sn0  1  0.35127500  0.78731000  0.54971300  1
  Sn  Sn1  1  0.64152200  0.87303200  0.16438100  1
  Sn  Sn2  1  0.35847800  0.12696800  0.83561900  1
  Sn  Sn3  1  0.64872500  0.21269000  0.45028700  1
  O  O0  1  0.08188400  0.33451900  0.53775900  1
  O  O1  1  0.75720600  0.86683200  0.93130000  1
  O  O2  1  0.24279400  0.13316800  0.06870000  1
  O  O3  1  0.91811600  0.66548100  0.46224100  1
  O  O4  1  0.34889600  0.60529300  0.73277600  1
  O  O5  1  0.20881700  0.69990900  0.13014300  1
  O  O6  1  0.65110400  0.39470700  0.26722400  1
  O  O7  1  0.79118300  0.30009100  0.86985700  1
loop_
_geom_bond_atom_site_label_1
_geom_bond_atom_site_label_2
_geom_bond_distance
_geom_bond_site_symmetry_2
O0 Zn1 2.005687 1_455
O0 Sn3 2.130273 1_455
O0 Sn3 2.144706 1_555
O1 Zn3 2.007753 1_655
O1 Zn3 2.023940 1_555
O1 Sn1 2.136408 1_556
O1 Sn2 2.658701 1_565
O2 Zn2 2.007753 1_455
O2 Zn2 2.023940 1_555
O2 Sn2 2.136408 1_554
O2 Sn1 2.658701 1_545
O3 Zn0 2.005687 1_655
O3 Sn0 2.130273 1_655
O3 Sn0 2.144706 1_555
O4 Zn3 1.975033 1_555
O4 Zn1 2.029160 1_555
O4 Zn1 2.041425 1_455
O4 Sn0 2.234430 1_555
O5 Zn0 2.025253 1_555
O5 Zn3 2.059340 1_554
O5 Sn1 2.210552 1_555
O5 Sn1 2.289075 1_455
O6 Zn2 1.975033 1_555
O6 Zn0 2.029160 1_555
O6 Zn0 2.041425 1_655
O6 Sn3 2.234430 1_555
O7 Zn1 2.025253 1_555
O7 Zn2 2.059340 1_556
O7 Sn2 2.210552 1_555
O7 Sn2 2.289075 1_655
