# generated using pymatgen
data_Er(VFe5)2
_symmetry_space_group_name_H-M   'P 1'
_cell_length_a   4.68132600
_cell_length_b   6.42657736
_cell_length_c   6.42657736
_cell_angle_alpha   97.31974743
_cell_angle_beta   111.35934866
_cell_angle_gamma   68.64065134
_symmetry_Int_Tables_number   1
_chemical_formula_structural   Er(VFe5)2
_chemical_formula_sum   'Er1 V2 Fe10'
_cell_volume   167.69229660
_cell_formula_units_Z   1
loop_
 _symmetry_equiv_pos_site_id
 _symmetry_equiv_pos_as_xyz
  1  'x, y, z'
loop_
 _atom_site_type_symbol
 _atom_site_label
 _atom_site_symmetry_multiplicity
 _atom_site_fract_x
 _atom_site_fract_y
 _atom_site_fract_z
 _atom_site_occupancy
  Er  Er0  1  0.00000000  0.00000000  0.00000000  1
  V  V0  1  0.00000000  0.35858300  0.35858300  1
  V  V1  1  0.00000000  0.64141700  0.64141700  1
  Fe  Fe0  1  0.72401800  0.77598200  0.22401800  1
  Fe  Fe1  1  0.27598200  0.22401800  0.77598200  1
  Fe  Fe2  1  0.50000000  0.77353000  0.77353000  1
  Fe  Fe3  1  0.50000000  0.22647000  0.22647000  1
  Fe  Fe4  1  0.50000000  0.00000000  0.50000000  1
  Fe  Fe5  1  0.00000000  0.00000000  0.50000000  1
  Fe  Fe6  1  0.50000000  0.50000000  0.00000000  1
  Fe  Fe7  1  0.00000000  0.50000000  0.00000000  1
  Fe  Fe8  1  0.64156900  0.35843100  0.64156900  1
  Fe  Fe9  1  0.35843100  0.64156900  0.35843100  1
loop_
_geom_bond_atom_site_label_1
_geom_bond_atom_site_label_2
_geom_bond_distance
_geom_bond_site_symmetry_2
Er0 Fe0 3.008714 1_445
Er0 Fe0 3.008714 1_545
Er0 Fe1 3.008714 1_454
Er0 Fe1 3.008714 1_554
Er0 Fe8 3.024677 1_454
Er0 Fe9 3.024677 1_545
Er0 Fe2 3.029105 1_544
Er0 Fe2 3.029105 1_444
Er0 Fe3 3.029105 1_555
Er0 Fe3 3.029105 1_455
Er0 V0 3.044321 1_555
Er0 V1 3.044321 1_544
Er0 Fe4 3.213289 1_454
Er0 Fe6 3.213289 1_455
Er0 Fe5 3.213289 1_554
Er0 Fe5 3.213289 1_555
Er0 Fe7 3.213289 1_545
Er0 Fe6 3.213289 1_545
Er0 Fe7 3.213289 1_555
Er0 Fe4 3.213289 1_555
V0 V1 2.401222 1_555
Fe0 Fe7 2.433641 1_655
Fe0 Fe6 2.433641 1_555
Fe0 Fe4 2.433641 1_565
Fe0 Fe5 2.433641 1_665
Fe0 Fe9 2.601012 1_655
Fe0 Fe9 2.601012 1_555
Fe0 V0 2.620177 1_655
Fe0 V1 2.620177 1_655
Fe0 Fe2 2.696373 1_554
Fe0 Fe3 2.696373 1_565
Fe1 Fe7 2.433641 1_556
Fe1 Fe6 2.433641 1_556
Fe1 Fe4 2.433641 1_555
Fe1 Fe5 2.433641 1_555
Fe1 Fe8 2.601012 1_555
Fe1 Fe8 2.601012 1_455
Fe1 V1 2.620177 1_555
Fe1 V0 2.620177 1_555
Fe1 Fe2 2.696373 1_545
Fe1 Fe3 2.696373 1_556
Fe2 Fe7 2.420799 1_656
Fe2 Fe4 2.420799 1_565
Fe2 Fe5 2.420799 1_565
Fe2 Fe6 2.420799 1_556
Fe2 V1 2.595523 1_555
Fe2 V1 2.595523 1_655
Fe2 Fe8 2.611505 1_555
Fe2 Fe9 2.611505 1_555
Fe3 Fe4 2.420799 1_555
Fe3 Fe5 2.420799 1_655
Fe3 Fe6 2.420799 1_555
Fe3 Fe7 2.420799 1_555
Fe3 V0 2.595523 1_655
Fe3 V0 2.595523 1_555
Fe3 Fe8 2.611505 1_555
Fe3 Fe9 2.611505 1_555
Fe4 Fe5 2.340663 1_655
Fe4 Fe5 2.340663 1_555
Fe4 V1 2.582669 1_645
Fe4 V0 2.582669 1_555
Fe4 Fe8 2.590711 1_555
Fe4 Fe9 2.590711 1_545
Fe5 V0 2.582669 1_555
Fe5 V1 2.582669 1_545
Fe5 Fe8 2.590711 1_455
Fe5 Fe9 2.590711 1_545
Fe6 Fe7 2.340663 1_655
Fe6 Fe7 2.340663 1_555
Fe6 V1 2.582669 1_554
Fe6 V0 2.582669 1_655
Fe6 Fe9 2.590711 1_555
Fe6 Fe8 2.590711 1_554
Fe7 V1 2.582669 1_554
Fe7 V0 2.582669 1_555
Fe7 Fe9 2.590711 1_555
Fe7 Fe8 2.590711 1_454
Fe8 Fe9 2.389305 1_555
Fe8 V0 2.889181 1_555
Fe8 V0 2.889181 1_655
Fe8 V1 2.889181 1_555
Fe8 V1 2.889181 1_655
Fe9 V1 2.889181 1_555
Fe9 V0 2.889181 1_655
Fe9 V0 2.889181 1_555
Fe9 V1 2.889181 1_655
