# generated using pymatgen
data_K3As2O11
_symmetry_space_group_name_H-M   'P 1'
_cell_length_a   8.89602800
_cell_length_b   11.47796300
_cell_length_c   13.89797400
_cell_angle_alpha   90.00000000
_cell_angle_beta   90.00000000
_cell_angle_gamma   90.00000000
_symmetry_Int_Tables_number   1
_chemical_formula_structural   K3As2O11
_chemical_formula_sum   'K12 As8 O44'
_cell_volume   1419.09822383
_cell_formula_units_Z   4
loop_
 _symmetry_equiv_pos_site_id
 _symmetry_equiv_pos_as_xyz
  1  'x, y, z'
loop_
 _atom_site_type_symbol
 _atom_site_label
 _atom_site_symmetry_multiplicity
 _atom_site_fract_x
 _atom_site_fract_y
 _atom_site_fract_z
 _atom_site_occupancy
  K  K0  1  0.74342900  0.88356900  0.96249400  1
  K  K1  1  0.25657100  0.11643100  0.46249400  1
  K  K2  1  0.74342900  0.61643100  0.46249400  1
  K  K3  1  0.25657100  0.38356900  0.96249400  1
  K  K4  1  0.72969400  0.90841800  0.68623600  1
  K  K5  1  0.27030600  0.09158200  0.18623600  1
  K  K6  1  0.72969400  0.59158200  0.18623600  1
  K  K7  1  0.27030600  0.40841800  0.68623600  1
  K  K8  1  0.16464100  0.88854900  0.68383000  1
  K  K9  1  0.83535900  0.11145100  0.18383000  1
  K  K10  1  0.16464100  0.61145100  0.18383000  1
  K  K11  1  0.83535900  0.38854900  0.68383000  1
  As  As0  1  0.63195900  0.89095400  0.27846800  1
  As  As1  1  0.36804100  0.10904600  0.77846800  1
  As  As2  1  0.63195900  0.60904600  0.77846800  1
  As  As3  1  0.36804100  0.39095400  0.27846800  1
  As  As4  1  0.33818800  0.84108300  0.31748400  1
  As  As5  1  0.66181200  0.15891700  0.81748400  1
  As  As6  1  0.33818800  0.65891700  0.81748400  1
  As  As7  1  0.66181200  0.34108300  0.31748400  1
  O  O0  1  0.45574100  0.97245900  0.29983100  1
  O  O1  1  0.54425900  0.02754100  0.79983100  1
  O  O2  1  0.45574100  0.52754100  0.79983100  1
  O  O3  1  0.54425900  0.47245900  0.29983100  1
  O  O4  1  0.76023900  0.92671600  0.35947500  1
  O  O5  1  0.23976100  0.07328400  0.85947500  1
  O  O6  1  0.76023900  0.57328400  0.85947500  1
  O  O7  1  0.23976100  0.42671600  0.35947500  1
  O  O8  1  0.68245600  0.89099500  0.16148500  1
  O  O9  1  0.31754400  0.10900500  0.66148500  1
  O  O10  1  0.68245600  0.60900500  0.66148500  1
  O  O11  1  0.31754400  0.39099500  0.16148500  1
  O  O12  1  0.26096400  0.84141200  0.42618100  1
  O  O13  1  0.73903600  0.15858800  0.92618100  1
  O  O14  1  0.26096400  0.65858800  0.92618100  1
  O  O15  1  0.73903600  0.34141200  0.42618100  1
  O  O16  1  0.23701800  0.82583500  0.21684400  1
  O  O17  1  0.76298200  0.17416500  0.71684400  1
  O  O18  1  0.23701800  0.67416500  0.71684400  1
  O  O19  1  0.76298200  0.32583500  0.21684400  1
  O  O20  1  0.52255100  0.67487200  0.02918400  1
  O  O21  1  0.47744900  0.32512800  0.52918400  1
  O  O22  1  0.52255100  0.82512800  0.52918400  1
  O  O23  1  0.47744900  0.17487200  0.02918400  1
  O  O24  1  0.52022000  0.74016900  0.80720300  1
  O  O25  1  0.47978000  0.25983100  0.30720300  1
  O  O26  1  0.52022000  0.75983100  0.30720300  1
  O  O27  1  0.47978000  0.24016900  0.80720300  1
  O  O28  1  0.49152400  0.07046200  0.05103100  1
  O  O29  1  0.50847600  0.92953800  0.55103100  1
  O  O30  1  0.49152400  0.42953800  0.55103100  1
  O  O31  1  0.50847600  0.57046200  0.05103100  1
  O  O32  1  0.02870700  0.05300100  0.01435500  1
  O  O33  1  0.97129300  0.94699900  0.51435500  1
  O  O34  1  0.02870700  0.44699900  0.51435500  1
  O  O35  1  0.97129300  0.55300100  0.01435500  1
  O  O36  1  0.92747300  0.65555400  0.02291500  1
  O  O37  1  0.07252700  0.34444600  0.52291500  1
  O  O38  1  0.92747300  0.84444600  0.52291500  1
  O  O39  1  0.07252700  0.15555400  0.02291500  1
  O  O40  1  0.93599700  0.88119800  0.81188500  1
  O  O41  1  0.06400300  0.11880200  0.31188500  1
  O  O42  1  0.93599700  0.61880200  0.31188500  1
  O  O43  1  0.06400300  0.38119800  0.81188500  1
loop_
_geom_bond_atom_site_label_1
_geom_bond_atom_site_label_2
_geom_bond_distance
_geom_bond_site_symmetry_2
K0 O40 2.704947 1_555
K0 O8 2.819551 1_556
K0 O13 3.196985 1_565
K0 O36 3.199255 1_556
K0 O20 3.233892 1_556
K0 O32 3.277519 1_666
K0 O1 3.313733 1_565
K0 O28 3.337310 1_566
K0 O24 3.363031 1_555
K1 O41 2.704947 1_555
K1 O9 2.819551 1_555
K1 O12 3.196985 1_545
K1 O37 3.199255 1_555
K1 O21 3.233892 1_555
K1 O33 3.277519 1_445
K1 O0 3.313733 1_545
K1 O29 3.337310 1_545
K1 O25 3.363031 1_555
K2 O42 2.704947 1_555
K2 O10 2.819551 1_555
K2 O15 3.196985 1_555
K2 O38 3.199255 1_555
K2 O22 3.233892 1_555
K2 O34 3.277519 1_655
K2 O3 3.313733 1_555
K2 O30 3.337310 1_555
K2 O26 3.363031 1_555
K3 O43 2.704947 1_555
K3 O11 2.819551 1_556
K3 O14 3.196985 1_555
K3 O39 3.199255 1_556
K3 O23 3.233892 1_556
K3 O35 3.277519 1_456
K3 O2 3.313733 1_555
K3 O31 3.337310 1_556
K3 O27 3.363031 1_555
K4 O40 2.552509 1_555
K4 O1 2.661428 1_565
K4 O29 2.731769 1_555
K4 O38 2.964277 1_555
K4 O22 3.012285 1_555
K4 O17 3.093958 1_565
K4 O24 3.166759 1_555
K4 O33 3.243736 1_555
K5 O41 2.552509 1_555
K5 O0 2.661428 1_545
K5 O28 2.731769 1_555
K5 O39 2.964277 1_555
K5 O23 3.012285 1_555
K5 O16 3.093958 1_545
K5 O25 3.166759 1_555
K5 O32 3.243736 1_555
K6 O42 2.552509 1_555
K6 O3 2.661428 1_555
K6 O31 2.731769 1_555
K6 O36 2.964277 1_555
K6 O20 3.012285 1_555
K6 O19 3.093958 1_555
K6 O26 3.166759 1_555
K6 O35 3.243736 1_555
K7 O43 2.552509 1_555
K7 O2 2.661428 1_555
K7 O30 2.731769 1_555
K7 O37 2.964277 1_555
K7 O21 3.012285 1_555
K7 O18 3.093958 1_555
K7 O27 3.166759 1_555
K7 O34 3.243736 1_555
K8 O18 2.584587 1_555
K8 O40 2.704019 1_455
K8 O9 2.889553 1_565
K8 O33 2.992709 1_455
K8 O38 3.115956 1_455
K8 O5 3.301760 1_565
K9 O19 2.584587 1_555
K9 O41 2.704019 1_655
K9 O8 2.889553 1_545
K9 O32 2.992709 1_655
K9 O39 3.115956 1_655
K9 O4 3.301760 1_545
K10 O16 2.584587 1_555
K10 O42 2.704019 1_455
K10 O11 2.889553 1_555
K10 O35 2.992709 1_455
K10 O36 3.115956 1_455
K10 O7 3.301760 1_555
K11 O17 2.584587 1_555
K11 O43 2.704019 1_655
K11 O10 2.889553 1_555
K11 O34 2.992709 1_655
K11 O37 3.115956 1_655
K11 O6 3.301760 1_555
As0 O4 1.654777 1_555
As0 O8 1.686746 1_555
As0 O26 1.847347 1_555
As0 O0 1.849548 1_555
As1 O5 1.654777 1_555
As1 O9 1.686746 1_555
As1 O27 1.847347 1_555
As1 O1 1.849548 1_555
As2 O6 1.654777 1_555
As2 O10 1.686746 1_555
As2 O24 1.847347 1_555
As2 O2 1.849548 1_555
As3 O7 1.654777 1_555
As3 O11 1.686746 1_555
As3 O25 1.847347 1_555
As3 O3 1.849548 1_555
As4 O12 1.659543 1_555
As4 O16 1.672420 1_555
As4 O0 1.851390 1_555
As4 O26 1.874168 1_555
As5 O13 1.659543 1_555
As5 O17 1.672420 1_555
As5 O1 1.851390 1_555
As5 O27 1.874168 1_555
As6 O14 1.659543 1_555
As6 O18 1.672420 1_555
As6 O2 1.851390 1_555
As6 O24 1.874168 1_555
As7 O15 1.659543 1_555
As7 O19 1.672420 1_555
As7 O3 1.851390 1_555
As7 O25 1.874168 1_555
O20 O31 1.242604 1_555
O21 O30 1.242604 1_555
O22 O29 1.242604 1_555
O23 O28 1.242604 1_555
O32 O39 1.245664 1_555
O33 O38 1.245664 1_555
O34 O37 1.245664 1_555
O35 O36 1.245664 1_555
