# generated using pymatgen
data_TiCrAgS4
_symmetry_space_group_name_H-M   'P 1'
_cell_length_a   5.78491700
_cell_length_b   8.45036000
_cell_length_c   12.62183600
_cell_angle_alpha   90.00000000
_cell_angle_beta   90.00000000
_cell_angle_gamma   90.00000000
_symmetry_Int_Tables_number   1
_chemical_formula_structural   TiCrAgS4
_chemical_formula_sum   'Ti4 Cr4 Ag4 S16'
_cell_volume   617.01379818
_cell_formula_units_Z   4
loop_
 _symmetry_equiv_pos_site_id
 _symmetry_equiv_pos_as_xyz
  1  'x, y, z'
loop_
 _atom_site_type_symbol
 _atom_site_label
 _atom_site_symmetry_multiplicity
 _atom_site_fract_x
 _atom_site_fract_y
 _atom_site_fract_z
 _atom_site_occupancy
  Ti  Ti0  1  0.73534400  0.50000000  0.73095700  1
  Ti  Ti1  1  0.26465600  0.00000000  0.23095700  1
  Ti  Ti2  1  0.60966900  0.50000000  0.95362100  1
  Ti  Ti3  1  0.39033100  0.00000000  0.45362100  1
  Cr  Cr0  1  0.75345700  0.00000000  0.26150900  1
  Cr  Cr1  1  0.24654300  0.50000000  0.76150900  1
  Cr  Cr2  1  0.90720700  0.00000000  0.06242600  1
  Cr  Cr3  1  0.09279300  0.50000000  0.56242600  1
  Ag  Ag0  1  0.95145600  0.00000000  0.61389000  1
  Ag  Ag1  1  0.58801000  0.50000000  0.31802500  1
  Ag  Ag2  1  0.04854400  0.50000000  0.11389000  1
  Ag  Ag3  1  0.41199000  0.00000000  0.81802500  1
  S  S0  1  0.99013400  0.19535400  0.17604600  1
  S  S1  1  0.49527000  0.30596400  0.83666700  1
  S  S2  1  0.00986600  0.30464600  0.67604600  1
  S  S3  1  0.50473000  0.19403600  0.33666700  1
  S  S4  1  0.50473000  0.80596400  0.33666700  1
  S  S5  1  0.00986600  0.69535400  0.67604600  1
  S  S6  1  0.49527000  0.69403600  0.83666700  1
  S  S7  1  0.99013400  0.80464600  0.17604600  1
  S  S8  1  0.50440500  0.00000000  0.62243600  1
  S  S9  1  0.98447200  0.50000000  0.40518600  1
  S  S10  1  0.49559500  0.50000000  0.12243600  1
  S  S11  1  0.01552800  0.00000000  0.90518600  1
  S  S12  1  0.98845800  0.50000000  0.90912100  1
  S  S13  1  0.53423100  0.00000000  0.09740300  1
  S  S14  1  0.01154200  0.00000000  0.40912100  1
  S  S15  1  0.46576900  0.50000000  0.59740300  1
loop_
_geom_bond_atom_site_label_1
_geom_bond_atom_site_label_2
_geom_bond_distance
_geom_bond_site_symmetry_2
Cr0 S3 2.378816 1_555
Cr0 S4 2.378816 1_545
Cr0 S14 2.387534 1_655
Cr0 S0 2.400701 1_555
Cr0 S7 2.400701 1_545
Cr0 S13 2.428725 1_555
Cr1 S1 2.378816 1_555
Cr1 S6 2.378816 1_555
Cr1 S12 2.387534 1_455
Cr1 S5 2.400701 1_555
Cr1 S2 2.400701 1_555
Cr1 S15 2.428725 1_555
Cr2 S11 2.081232 1_654
Cr2 S13 2.202337 1_555
Cr2 S0 2.238736 1_555
Cr2 S7 2.238736 1_545
Cr3 S9 2.081232 1_455
Cr3 S15 2.202337 1_555
Cr3 S5 2.238736 1_555
Cr3 S2 2.238736 1_555
Ag0 S8 2.588401 1_555
Ag0 S14 2.607830 1_655
Ag0 S2 2.712383 1_655
Ag0 S5 2.712383 1_645
Ag1 S10 2.525916 1_555
Ag1 S9 2.543704 1_555
Ag1 S3 2.640512 1_555
Ag1 S4 2.640512 1_555
Ag2 S10 2.588401 1_555
Ag2 S12 2.607830 1_454
Ag2 S0 2.712383 1_455
Ag2 S7 2.712383 1_455
Ag3 S8 2.525916 1_555
Ag3 S11 2.543704 1_555
Ag3 S1 2.640512 1_555
Ag3 S6 2.640512 1_545
S0 Ti1 2.393231 1_655
S1 Ti2 2.303386 1_555
S1 Ti0 2.529339 1_555
S2 Ti0 2.393231 1_455
S3 Ti3 2.303386 1_555
S3 Ti1 2.529339 1_555
S4 Ti3 2.303386 1_565
S4 Ti1 2.529339 1_565
S5 Ti0 2.393231 1_455
S6 Ti2 2.303386 1_555
S6 Ti0 2.529339 1_555
S7 Ti1 2.393231 1_665
S8 Ti3 2.230605 1_555
S10 Ti2 2.230605 1_554
S12 Ti2 2.262103 1_555
S12 Ti0 2.683452 1_555
S13 Ti1 2.296414 1_555
S14 Ti3 2.262103 1_555
S14 Ti1 2.683452 1_555
S15 Ti0 2.296414 1_555
