# generated using pymatgen
data_LaN3O13
_symmetry_space_group_name_H-M   'P 1'
_cell_length_a   13.46234718
_cell_length_b   13.74070155
_cell_length_c   13.20129390
_cell_angle_alpha   90.00000000
_cell_angle_beta   90.00000000
_cell_angle_gamma   90.00000000
_symmetry_Int_Tables_number   1
_chemical_formula_structural   LaN3O13
_chemical_formula_sum   'La8 N24 O104'
_cell_volume   2442.00299920
_cell_formula_units_Z   8
loop_
 _symmetry_equiv_pos_site_id
 _symmetry_equiv_pos_as_xyz
  1  'x, y, z'
loop_
 _atom_site_type_symbol
 _atom_site_label
 _atom_site_symmetry_multiplicity
 _atom_site_fract_x
 _atom_site_fract_y
 _atom_site_fract_z
 _atom_site_occupancy
  La  La0  1  0.60660176  0.21956255  0.36605714  1
  La  La1  1  0.10660176  0.28043745  0.63394286  1
  La  La2  1  0.39339824  0.71956255  0.13394286  1
  La  La3  1  0.89339824  0.78043745  0.86605714  1
  La  La4  1  0.39339824  0.78043745  0.63394286  1
  La  La5  1  0.89339824  0.71956255  0.36605714  1
  La  La6  1  0.60660176  0.28043745  0.86605714  1
  La  La7  1  0.10660176  0.21956255  0.13394286  1
  N  N0  1  0.52119302  0.02312563  0.36327296  1
  N  N1  1  0.02119302  0.47687437  0.63672704  1
  N  N2  1  0.47880698  0.52312563  0.13672704  1
  N  N3  1  0.97880698  0.97687437  0.86327296  1
  N  N4  1  0.47880698  0.97687437  0.63672704  1
  N  N5  1  0.97880698  0.52312563  0.36327296  1
  N  N6  1  0.52119302  0.47687437  0.86327296  1
  N  N7  1  0.02119302  0.02312563  0.13672704  1
  N  N8  1  0.62211064  0.21787694  0.13949680  1
  N  N9  1  0.12211064  0.28212306  0.86050320  1
  N  N10  1  0.37788936  0.71787694  0.36050320  1
  N  N11  1  0.87788936  0.78212306  0.63949680  1
  N  N12  1  0.37788936  0.78212306  0.86050320  1
  N  N13  1  0.87788936  0.71787694  0.13949680  1
  N  N14  1  0.62211064  0.28212306  0.63949680  1
  N  N15  1  0.12211064  0.21787694  0.36050320  1
  N  N16  1  0.49700899  0.40247846  0.37719924  1
  N  N17  1  0.99700899  0.09752154  0.62280076  1
  N  N18  1  0.50299101  0.90247846  0.12280076  1
  N  N19  1  0.00299101  0.59752154  0.87719924  1
  N  N20  1  0.50299101  0.59752154  0.62280076  1
  N  N21  1  0.00299101  0.90247846  0.37719924  1
  N  N22  1  0.49700899  0.09752154  0.87719924  1
  N  N23  1  0.99700899  0.40247846  0.12280076  1
  O  O0  1  0.47943252  0.94470942  0.35401663  1
  O  O1  1  0.97943252  0.55529058  0.64598337  1
  O  O2  1  0.52056748  0.44470942  0.14598337  1
  O  O3  1  0.02056748  0.05529058  0.85401663  1
  O  O4  1  0.52056748  0.05529058  0.64598337  1
  O  O5  1  0.02056748  0.44470942  0.35401663  1
  O  O6  1  0.47943252  0.55529058  0.85401663  1
  O  O7  1  0.97943252  0.94470942  0.14598337  1
  O  O8  1  0.61069667  0.03866380  0.33136257  1
  O  O9  1  0.11069667  0.46133620  0.66863743  1
  O  O10  1  0.38930333  0.53866380  0.16863743  1
  O  O11  1  0.88930333  0.96133620  0.83136257  1
  O  O12  1  0.38930333  0.96133620  0.66863743  1
  O  O13  1  0.88930333  0.53866380  0.33136257  1
  O  O14  1  0.61069667  0.46133620  0.83136257  1
  O  O15  1  0.11069667  0.03866380  0.16863743  1
  O  O16  1  0.47797376  0.09742353  0.40582007  1
  O  O17  1  0.97797376  0.40257647  0.59417993  1
  O  O18  1  0.52202624  0.59742353  0.09417993  1
  O  O19  1  0.02202624  0.90257647  0.90582007  1
  O  O20  1  0.52202624  0.90257647  0.59417993  1
  O  O21  1  0.02202624  0.59742353  0.40582007  1
  O  O22  1  0.47797376  0.40257647  0.90582007  1
  O  O23  1  0.97797376  0.09742353  0.09417993  1
  O  O24  1  0.70023892  0.20907547  0.19248219  1
  O  O25  1  0.20023892  0.29092453  0.80751781  1
  O  O26  1  0.29976108  0.70907547  0.30751781  1
  O  O27  1  0.79976108  0.79092453  0.69248219  1
  O  O28  1  0.29976108  0.79092453  0.80751781  1
  O  O29  1  0.79976108  0.70907547  0.19248219  1
  O  O30  1  0.70023892  0.29092453  0.69248219  1
  O  O31  1  0.20023892  0.20907547  0.30751781  1
  O  O32  1  0.62807898  0.22952062  0.04509642  1
  O  O33  1  0.12807898  0.27047938  0.95490358  1
  O  O34  1  0.37192102  0.72952062  0.45490358  1
  O  O35  1  0.87192102  0.77047938  0.54509642  1
  O  O36  1  0.37192102  0.77047938  0.95490358  1
  O  O37  1  0.87192102  0.72952062  0.04509642  1
  O  O38  1  0.62807898  0.27047938  0.54509642  1
  O  O39  1  0.12807898  0.22952062  0.45490358  1
  O  O40  1  0.53811189  0.21577119  0.18333720  1
  O  O41  1  0.03811189  0.28422881  0.81666280  1
  O  O42  1  0.46188811  0.71577119  0.31666280  1
  O  O43  1  0.96188811  0.78422881  0.68333720  1
  O  O44  1  0.46188811  0.78422881  0.81666280  1
  O  O45  1  0.96188811  0.71577119  0.18333720  1
  O  O46  1  0.53811189  0.28422881  0.68333720  1
  O  O47  1  0.03811189  0.21577119  0.31666280  1
  O  O48  1  0.45105478  0.47807828  0.38852618  1
  O  O49  1  0.95105478  0.02192172  0.61147382  1
  O  O50  1  0.54894522  0.97807828  0.11147382  1
  O  O51  1  0.04894522  0.52192172  0.88852618  1
  O  O52  1  0.54894522  0.52192172  0.61147382  1
  O  O53  1  0.04894522  0.97807828  0.38852618  1
  O  O54  1  0.45105478  0.02192172  0.88852618  1
  O  O55  1  0.95105478  0.47807828  0.11147382  1
  O  O56  1  0.59243738  0.40033208  0.36258475  1
  O  O57  1  0.09243738  0.09966792  0.63741525  1
  O  O58  1  0.40756262  0.90033208  0.13741525  1
  O  O59  1  0.90756262  0.59966792  0.86258475  1
  O  O60  1  0.40756262  0.59966792  0.63741525  1
  O  O61  1  0.90756262  0.90033208  0.36258475  1
  O  O62  1  0.59243738  0.09966792  0.86258475  1
  O  O63  1  0.09243738  0.40033208  0.13741525  1
  O  O64  1  0.45411275  0.31756781  0.37931278  1
  O  O65  1  0.95411275  0.18243219  0.62068722  1
  O  O66  1  0.54588725  0.81756781  0.12068722  1
  O  O67  1  0.04588725  0.68243219  0.87931278  1
  O  O68  1  0.54588725  0.68243219  0.62068722  1
  O  O69  1  0.04588725  0.81756781  0.37931278  1
  O  O70  1  0.45411275  0.18243219  0.87931278  1
  O  O71  1  0.95411275  0.31756781  0.12068722  1
  O  O72  1  0.78154173  0.10052477  0.47113869  1
  O  O73  1  0.28154173  0.39947523  0.52886131  1
  O  O74  1  0.21845827  0.60052477  0.02886131  1
  O  O75  1  0.71845827  0.89947523  0.97113869  1
  O  O76  1  0.21845827  0.89947523  0.52886131  1
  O  O77  1  0.71845827  0.60052477  0.47113869  1
  O  O78  1  0.78154173  0.39947523  0.97113869  1
  O  O79  1  0.28154173  0.10052477  0.02886131  1
  O  O80  1  0.83864040  0.10720379  0.39820816  1
  O  O81  1  0.33864040  0.39279621  0.60179184  1
  O  O82  1  0.16135960  0.60720379  0.10179184  1
  O  O83  1  0.66135960  0.89279621  0.89820816  1
  O  O84  1  0.16135960  0.89279621  0.60179184  1
  O  O85  1  0.66135960  0.60720379  0.39820816  1
  O  O86  1  0.83864040  0.39279621  0.89820816  1
  O  O87  1  0.33864040  0.10720379  0.10179184  1
  O  O88  1  0.85146066  0.33237056  0.41777769  1
  O  O89  1  0.35146066  0.16762944  0.58222231  1
  O  O90  1  0.14853934  0.83237056  0.08222231  1
  O  O91  1  0.64853934  0.66762944  0.91777769  1
  O  O92  1  0.14853934  0.66762944  0.58222231  1
  O  O93  1  0.64853934  0.83237056  0.41777769  1
  O  O94  1  0.85146066  0.16762944  0.91777769  1
  O  O95  1  0.35146066  0.33237056  0.08222231  1
  O  O96  1  0.80113819  0.32182284  0.34039816  1
  O  O97  1  0.30113819  0.17817716  0.65960184  1
  O  O98  1  0.19886181  0.82182284  0.15960184  1
  O  O99  1  0.69886181  0.67817716  0.84039816  1
  O  O100  1  0.19886181  0.67817716  0.65960184  1
  O  O101  1  0.69886181  0.82182284  0.34039816  1
  O  O102  1  0.80113819  0.17817716  0.84039816  1
  O  O103  1  0.30113819  0.32182284  0.15960184  1
loop_
_geom_bond_atom_site_label_1
_geom_bond_atom_site_label_2
_geom_bond_distance
_geom_bond_site_symmetry_2
La0 O64 2.461372 1_555
La0 O16 2.467937 1_555
La0 O38 2.481825 1_555
La0 O56 2.491630 1_555
La0 O8 2.528122 1_555
La0 O40 2.582882 1_555
La0 O24 2.619235 1_555
La0 O96 2.991296 1_555
La0 O72 3.185319 1_555
La1 O65 2.461372 1_455
La1 O17 2.467937 1_455
La1 O39 2.481825 1_555
La1 O57 2.491630 1_555
La1 O9 2.528122 1_555
La1 O41 2.582882 1_555
La1 O25 2.619235 1_555
La1 O97 2.991296 1_555
La1 O73 3.185319 1_555
La2 O66 2.461372 1_555
La2 O18 2.467937 1_555
La2 O36 2.481825 1_554
La2 O58 2.491630 1_555
La2 O10 2.528122 1_555
La2 O42 2.582882 1_555
La2 O26 2.619235 1_555
La2 O98 2.991296 1_555
La2 O74 3.185319 1_555
La3 O67 2.461372 1_655
La3 O19 2.467937 1_655
La3 O37 2.481825 1_556
La3 O59 2.491630 1_555
La3 O11 2.528122 1_555
La3 O43 2.582882 1_555
La3 O27 2.619235 1_555
La3 O99 2.991296 1_555
La3 O75 3.185319 1_555
La4 O68 2.461372 1_555
La4 O20 2.467937 1_555
La4 O34 2.481825 1_555
La4 O60 2.491630 1_555
La4 O12 2.528122 1_555
La4 O44 2.582882 1_555
La4 O28 2.619235 1_555
La4 O100 2.991296 1_555
La4 O76 3.185319 1_555
La5 O69 2.461372 1_655
La5 O21 2.467937 1_655
La5 O35 2.481825 1_555
La5 O61 2.491630 1_555
La5 O13 2.528122 1_555
La5 O45 2.582882 1_555
La5 O29 2.619235 1_555
La5 O101 2.991296 1_555
La5 O77 3.185319 1_555
La6 O70 2.461372 1_555
La6 O22 2.467937 1_555
La6 O32 2.481825 1_556
La6 O62 2.491630 1_555
La6 O14 2.528122 1_555
La6 O46 2.582882 1_555
La6 O30 2.619235 1_555
La6 O102 2.991296 1_555
La6 O78 3.185319 1_555
La7 O71 2.461372 1_455
La7 O23 2.467937 1_455
La7 O33 2.481825 1_554
La7 O63 2.491630 1_555
La7 O15 2.528122 1_555
La7 O47 2.582882 1_555
La7 O31 2.619235 1_555
La7 O103 2.991296 1_555
La7 O79 3.185319 1_555
N0 O0 1.221469 1_545
N0 O8 1.294178 1_555
N0 O16 1.302405 1_555
N1 O1 1.221469 1_455
N1 O9 1.294178 1_555
N1 O17 1.302405 1_455
N2 O2 1.221469 1_555
N2 O10 1.294178 1_555
N2 O18 1.302405 1_555
N3 O3 1.221469 1_665
N3 O11 1.294178 1_555
N3 O19 1.302405 1_655
N4 O4 1.221469 1_565
N4 O12 1.294178 1_555
N4 O20 1.302405 1_555
N5 O5 1.221469 1_655
N5 O13 1.294178 1_555
N5 O21 1.302405 1_655
N6 O6 1.221469 1_555
N6 O14 1.294178 1_555
N6 O22 1.302405 1_555
N7 O7 1.221469 1_445
N7 O15 1.294178 1_555
N7 O23 1.302405 1_455
N8 O32 1.259002 1_555
N8 O24 1.268919 1_555
N8 O40 1.270647 1_555
N9 O33 1.259002 1_555
N9 O25 1.268919 1_555
N9 O41 1.270647 1_555
N10 O34 1.259002 1_555
N10 O26 1.268919 1_555
N10 O42 1.270647 1_555
N11 O35 1.259002 1_555
N11 O27 1.268919 1_555
N11 O43 1.270647 1_555
N12 O36 1.259002 1_555
N12 O28 1.268919 1_555
N12 O44 1.270647 1_555
N13 O37 1.259002 1_555
N13 O29 1.268919 1_555
N13 O45 1.270647 1_555
N14 O38 1.259002 1_555
N14 O30 1.268919 1_555
N14 O46 1.270647 1_555
N15 O39 1.259002 1_555
N15 O31 1.268919 1_555
N15 O47 1.270647 1_555
N16 O48 1.218271 1_555
N16 O56 1.299431 1_555
N16 O64 1.302125 1_555
N17 O49 1.218271 1_555
N17 O57 1.299431 1_655
N17 O65 1.302125 1_555
N18 O50 1.218271 1_555
N18 O58 1.299431 1_555
N18 O66 1.302125 1_555
N19 O51 1.218271 1_555
N19 O59 1.299431 1_455
N19 O67 1.302125 1_555
N20 O52 1.218271 1_555
N20 O60 1.299431 1_555
N20 O68 1.302125 1_555
N21 O53 1.218271 1_555
N21 O61 1.299431 1_455
N21 O69 1.302125 1_555
N22 O54 1.218271 1_555
N22 O62 1.299431 1_555
N22 O70 1.302125 1_555
N23 O55 1.218271 1_555
N23 O63 1.299431 1_655
N23 O71 1.302125 1_555
O72 O80 1.235409 1_555
O73 O81 1.235409 1_555
O74 O82 1.235409 1_555
O75 O83 1.235409 1_555
O76 O84 1.235409 1_555
O77 O85 1.235409 1_555
O78 O86 1.235409 1_555
O79 O87 1.235409 1_555
O88 O96 1.234276 1_555
O89 O97 1.234276 1_555
O90 O98 1.234276 1_555
O91 O99 1.234276 1_555
O100 O92 1.234276 1_555
O101 O93 1.234276 1_555
O102 O94 1.234276 1_555
O103 O95 1.234276 1_555
