# generated using pymatgen
data_WSeS
_symmetry_space_group_name_H-M   'P 1'
_cell_length_a   3.25369120
_cell_length_b   3.25369120
_cell_length_c   36.85244500
_cell_angle_alpha   90.00000000
_cell_angle_beta   90.00000000
_cell_angle_gamma   119.99998366
_symmetry_Int_Tables_number   1
_chemical_formula_structural   WSeS
_chemical_formula_sum   'W4 Se4 S4'
_cell_volume   337.87003310
_cell_formula_units_Z   4
loop_
 _symmetry_equiv_pos_site_id
 _symmetry_equiv_pos_as_xyz
  1  'x, y, z'
loop_
 _atom_site_type_symbol
 _atom_site_label
 _atom_site_symmetry_multiplicity
 _atom_site_fract_x
 _atom_site_fract_y
 _atom_site_fract_z
 _atom_site_occupancy
  W  W0  1  0.00000000  0.00000000  0.09391700  1
  W  W1  1  0.00000000  0.00000000  0.46965800  1
  W  W2  1  0.33333300  0.66666700  0.28179900  1
  W  W3  1  0.33333300  0.66666700  0.65754800  1
  Se  Se0  1  0.00000000  0.00000000  0.32814100  1
  Se  Se1  1  0.00000000  0.00000000  0.70393100  1
  Se  Se2  1  0.00000000  0.00000000  0.23543300  1
  Se  Se3  1  0.00000000  0.00000000  0.61117900  1
  S  S0  1  0.33333300  0.66666700  0.05182700  1
  S  S1  1  0.33333300  0.66666700  0.42758400  1
  S  S2  1  0.33333300  0.66666700  0.13600400  1
  S  S3  1  0.33333300  0.66666700  0.51172800  1
loop_
_geom_bond_atom_site_label_1
_geom_bond_atom_site_label_2
_geom_bond_distance
_geom_bond_site_symmetry_2
Se0 W2 2.538792 1_545
Se0 W2 2.538794 1_445
Se0 W2 2.538794 1_555
Se1 W3 2.539808 1_545
Se1 W3 2.539811 1_555
Se1 W3 2.539811 1_445
Se2 W2 2.539387 1_545
Se2 W2 2.539389 1_445
Se2 W2 2.539389 1_555
Se3 W3 2.539461 1_545
Se3 W3 2.539464 1_445
Se3 W3 2.539464 1_555
S0 W0 2.436144 1_565
S0 W0 2.436147 1_555
S0 W0 2.436147 1_665
S1 W1 2.435769 1_565
S1 W1 2.435771 1_555
S1 W1 2.435771 1_665
S2 W0 2.436074 1_565
S2 W0 2.436076 1_665
S2 W0 2.436076 1_555
S3 W1 2.435675 1_565
S3 W1 2.435678 1_665
S3 W1 2.435678 1_555
