# generated using pymatgen
data_Ba7Al4Sb9
_symmetry_space_group_name_H-M   'P 1'
_cell_length_a   7.27046878
_cell_length_b   10.89482144
_cell_length_c   18.38165757
_cell_angle_alpha   90.00000000
_cell_angle_beta   90.00000000
_cell_angle_gamma   90.00000000
_symmetry_Int_Tables_number   1
_chemical_formula_structural   Ba7Al4Sb9
_chemical_formula_sum   'Ba14 Al8 Sb18'
_cell_volume   1456.01953593
_cell_formula_units_Z   2
loop_
 _symmetry_equiv_pos_site_id
 _symmetry_equiv_pos_as_xyz
  1  'x, y, z'
loop_
 _atom_site_type_symbol
 _atom_site_label
 _atom_site_symmetry_multiplicity
 _atom_site_fract_x
 _atom_site_fract_y
 _atom_site_fract_z
 _atom_site_occupancy
  Ba  Ba0  1  0.45357243  0.50000000  0.78440607  1
  Ba  Ba1  1  0.45357243  0.50000000  0.21559393  1
  Ba  Ba2  1  0.54642757  -0.00000000  0.71559393  1
  Ba  Ba3  1  0.54642757  -0.00000000  0.28440607  1
  Ba  Ba4  1  0.95169895  0.27513784  0.87559801  1
  Ba  Ba5  1  0.95169895  0.72486216  0.87559801  1
  Ba  Ba6  1  0.95169895  0.27513784  0.12440199  1
  Ba  Ba7  1  0.95169895  0.72486216  0.12440199  1
  Ba  Ba8  1  0.04830105  0.22486216  0.62440199  1
  Ba  Ba9  1  0.04830105  0.77513784  0.62440199  1
  Ba  Ba10  1  0.04830105  0.22486216  0.37559801  1
  Ba  Ba11  1  0.04830105  0.77513784  0.37559801  1
  Ba  Ba12  1  0.40959131  0.50000000  0.50000000  1
  Ba  Ba13  1  0.59040869  -0.00000000  -0.00000000  1
  Al  Al0  1  0.75916258  0.50000000  0.37435463  1
  Al  Al1  1  0.75916258  0.50000000  0.62564537  1
  Al  Al2  1  0.24083742  -0.00000000  0.12564537  1
  Al  Al3  1  0.24083742  -0.00000000  0.87435463  1
  Al  Al4  1  0.56064060  0.82392886  0.50000000  1
  Al  Al5  1  0.56064060  0.17607114  0.50000000  1
  Al  Al6  1  0.43935940  0.67607114  -0.00000000  1
  Al  Al7  1  0.43935940  0.32392886  -0.00000000  1
  Sb  Sb0  1  0.54912948  0.29054594  0.37029098  1
  Sb  Sb1  1  0.54912948  0.70945406  0.37029098  1
  Sb  Sb2  1  0.54912948  0.29054594  0.62970902  1
  Sb  Sb3  1  0.54912948  0.70945406  0.62970902  1
  Sb  Sb4  1  0.45087052  0.20945406  0.12970902  1
  Sb  Sb5  1  0.45087052  0.79054594  0.12970902  1
  Sb  Sb6  1  0.45087052  0.20945406  0.87029098  1
  Sb  Sb7  1  0.45087052  0.79054594  0.87029098  1
  Sb  Sb8  1  0.97713001  0.50000000  0.25988501  1
  Sb  Sb9  1  0.97713001  0.50000000  0.74011499  1
  Sb  Sb10  1  0.02286999  -0.00000000  0.24011499  1
  Sb  Sb11  1  0.02286999  -0.00000000  0.75988501  1
  Sb  Sb12  1  0.70722526  0.50000000  -0.00000000  1
  Sb  Sb13  1  0.29277474  -0.00000000  0.50000000  1
  Sb  Sb14  1  0.16882153  0.50000000  -0.00000000  1
  Sb  Sb15  1  0.83117847  -0.00000000  0.50000000  1
  Sb  Sb16  1  0.95014448  0.50000000  0.50000000  1
  Sb  Sb17  1  0.04985552  -0.00000000  -0.00000000  1
loop_
_geom_bond_atom_site_label_1
_geom_bond_atom_site_label_2
_geom_bond_distance
_geom_bond_site_symmetry_2
Ba0 Sb6 3.537337 1_555
Ba0 Sb7 3.537337 1_555
Ba0 Sb9 3.558349 1_455
Ba0 Sb2 3.711607 1_555
Ba0 Sb3 3.711607 1_555
Ba0 Sb9 3.892601 1_555
Ba1 Sb5 3.537337 1_555
Ba1 Sb4 3.537337 1_555
Ba1 Sb8 3.558349 1_455
Ba1 Sb0 3.711607 1_555
Ba1 Sb1 3.711607 1_555
Ba1 Sb8 3.892601 1_555
Ba2 Sb3 3.537337 1_545
Ba2 Sb2 3.537337 1_555
Ba2 Sb11 3.558349 1_655
Ba2 Sb6 3.711607 1_555
Ba2 Sb7 3.711607 1_545
Ba2 Sb11 3.892601 1_555
Ba3 Sb1 3.537337 1_545
Ba3 Sb0 3.537337 1_555
Ba3 Sb10 3.558349 1_655
Ba3 Sb5 3.711607 1_545
Ba3 Sb4 3.711607 1_555
Ba3 Sb10 3.892601 1_555
Ba4 Sb9 3.498281 1_555
Ba4 Sb6 3.700377 1_655
Ba4 Sb14 3.704412 1_656
Ba4 Sb11 3.711784 1_655
Ba4 Sb6 3.712193 1_555
Ba4 Sb12 3.793420 1_556
Ba4 Sb17 3.837164 1_656
Ba5 Sb9 3.498281 1_555
Ba5 Sb7 3.700377 1_655
Ba5 Sb14 3.704412 1_656
Ba5 Sb11 3.711784 1_665
Ba5 Sb7 3.712193 1_555
Ba5 Sb12 3.793420 1_556
Ba5 Sb17 3.837164 1_666
Ba6 Sb8 3.498281 1_555
Ba6 Sb4 3.700377 1_655
Ba6 Sb14 3.704412 1_655
Ba6 Sb10 3.711784 1_655
Ba6 Sb4 3.712193 1_555
Ba6 Sb12 3.793420 1_555
Ba6 Sb17 3.837164 1_655
Ba7 Sb8 3.498281 1_555
Ba7 Sb5 3.700377 1_655
Ba7 Sb14 3.704412 1_655
Ba7 Sb10 3.711784 1_665
Ba7 Sb5 3.712193 1_555
Ba7 Sb12 3.793420 1_555
Ba7 Sb17 3.837164 1_665
Ba8 Sb11 3.498281 1_555
Ba8 Sb2 3.700377 1_455
Ba8 Sb15 3.704412 1_455
Ba8 Sb9 3.711784 1_455
Ba8 Sb2 3.712193 1_555
Ba8 Sb13 3.793420 1_555
Ba8 Sb16 3.837164 1_455
Ba9 Sb11 3.498281 1_565
Ba9 Sb3 3.700377 1_455
Ba9 Sb15 3.704412 1_465
Ba9 Sb9 3.711784 1_455
Ba9 Sb3 3.712193 1_555
Ba9 Sb13 3.793420 1_565
Ba9 Sb16 3.837164 1_455
Ba10 Sb10 3.498281 1_555
Ba10 Sb0 3.700377 1_455
Ba10 Sb15 3.704412 1_455
Ba10 Sb8 3.711784 1_455
Ba10 Sb0 3.712193 1_555
Ba10 Sb13 3.793420 1_555
Ba10 Sb16 3.837164 1_455
Ba11 Sb10 3.498281 1_565
Ba11 Sb1 3.700377 1_455
Ba11 Sb15 3.704412 1_465
Ba11 Sb8 3.711784 1_455
Ba11 Sb1 3.712193 1_555
Ba11 Sb13 3.793420 1_565
Ba11 Sb16 3.837164 1_455
Ba12 Sb16 3.340394 1_455
Ba12 Sb1 3.452726 1_555
Ba12 Sb0 3.452726 1_555
Ba12 Sb3 3.452726 1_555
Ba12 Sb2 3.452726 1_555
Ba12 Sb16 3.930075 1_555
Ba13 Sb17 3.340394 1_655
Ba13 Sb6 3.452726 1_554
Ba13 Sb7 3.452726 1_544
Ba13 Sb5 3.452726 1_545
Ba13 Sb4 3.452726 1_555
Ba13 Sb17 3.930075 1_555
Al0 Sb8 2.634154 1_555
Al0 Sb16 2.694833 1_555
Al0 Sb0 2.746778 1_555
Al0 Sb1 2.746778 1_555
Al0 Ba12 3.434178 1_555
Al0 Ba10 3.661301 1_655
Al0 Ba11 3.661301 1_655
Al0 Ba1 3.667793 1_555
Al1 Sb9 2.634154 1_555
Al1 Sb16 2.694833 1_555
Al1 Sb2 2.746778 1_555
Al1 Sb3 2.746778 1_555
Al1 Ba12 3.434178 1_555
Al1 Ba8 3.661301 1_655
Al1 Ba9 3.661301 1_655
Al1 Ba0 3.667793 1_555
Al2 Sb10 2.634154 1_555
Al2 Sb17 2.694833 1_555
Al2 Sb4 2.746778 1_555
Al2 Sb5 2.746778 1_545
Al2 Ba13 3.434178 1_555
Al2 Ba7 3.661301 1_445
Al2 Ba6 3.661301 1_455
Al2 Ba3 3.667793 1_555
Al3 Sb11 2.634154 1_555
Al3 Sb17 2.694833 1_556
Al3 Sb6 2.746778 1_555
Al3 Sb7 2.746778 1_545
Al3 Ba13 3.434178 1_556
Al3 Ba5 3.661301 1_445
Al3 Ba4 3.661301 1_455
Al3 Ba2 3.667793 1_555
Al4 Sb1 2.692062 1_555
Al4 Sb3 2.692062 1_555
Al4 Sb13 2.733593 1_565
Al4 Sb15 2.747467 1_565
Al4 Ba12 3.696068 1_555
Al5 Sb0 2.692062 1_555
Al5 Sb2 2.692062 1_555
Al5 Sb13 2.733593 1_555
Al5 Sb15 2.747467 1_555
Al5 Ba12 3.696068 1_555
Al6 Sb7 2.692062 1_554
Al6 Sb5 2.692062 1_555
Al6 Sb12 2.733593 1_555
Al6 Sb14 2.747467 1_555
Al6 Ba13 3.696068 1_565
Al7 Sb6 2.692062 1_554
Al7 Sb4 2.692062 1_555
Al7 Sb12 2.733593 1_555
Al7 Sb14 2.747467 1_555
Al7 Ba13 3.696068 1_555
