# generated using pymatgen
data_H13RuC6SN4O8F9
_symmetry_space_group_name_H-M   'P 1'
_cell_length_a   14.87980348
_cell_length_b   14.87980348
_cell_length_c   7.16793963
_cell_angle_alpha   85.62084646
_cell_angle_beta   85.62084646
_cell_angle_gamma   142.17012097
_symmetry_Int_Tables_number   1
_chemical_formula_structural   H13RuC6SN4O8F9
_chemical_formula_sum   'H26 Ru2 C12 S2 N8 O16 F18'
_cell_volume   945.97589854
_cell_formula_units_Z   2
loop_
 _symmetry_equiv_pos_site_id
 _symmetry_equiv_pos_as_xyz
  1  'x, y, z'
loop_
 _atom_site_type_symbol
 _atom_site_label
 _atom_site_symmetry_multiplicity
 _atom_site_fract_x
 _atom_site_fract_y
 _atom_site_fract_z
 _atom_site_occupancy
  H  H0  1  0.02507700  0.25123400  0.64213300  1
  H  H1  1  0.25123400  0.02507700  0.14213300  1
  H  H2  1  0.38297800  0.69941100  0.35860000  1
  H  H3  1  0.69941100  0.38297800  0.85860000  1
  H  H4  1  0.32333800  0.70366500  0.56032000  1
  H  H5  1  0.70366500  0.32333800  0.06032000  1
  H  H6  1  0.26186300  0.55222600  0.54289600  1
  H  H7  1  0.55222600  0.26186300  0.04289600  1
  H  H8  1  0.27772100  0.47189400  0.81698500  1
  H  H9  1  0.47189400  0.27772100  0.31698500  1
  H  H10  1  0.37718100  0.57657000  0.97391300  1
  H  H11  1  0.57657000  0.37718100  0.47391300  1
  H  H12  1  0.42194600  0.52265200  0.84914300  1
  H  H13  1  0.52265200  0.42194600  0.34914300  1
  H  H14  1  0.80328700  0.92073300  0.69582500  1
  H  H15  1  0.92073300  0.80328700  0.19582500  1
  H  H16  1  0.67277500  0.78823700  0.89169900  1
  H  H17  1  0.78823700  0.67277500  0.39169900  1
  H  H18  1  0.73440300  0.94269500  0.84283400  1
  H  H19  1  0.94269500  0.73440300  0.34283400  1
  H  H20  1  0.65602100  0.01224800  0.46304300  1
  H  H21  1  0.01224800  0.65602100  0.96304300  1
  H  H22  1  0.67496700  0.95771100  0.28857300  1
  H  H23  1  0.95771100  0.67496700  0.78857300  1
  H  H24  1  0.79169900  0.04511600  0.43501600  1
  H  H25  1  0.04511600  0.79169900  0.93501600  1
  Ru  Ru0  1  0.53461000  0.75989800  0.62662800  1
  Ru  Ru1  1  0.75989800  0.53461000  0.12662800  1
  C  C0  1  0.44970200  0.91295000  0.01892400  1
  C  C1  1  0.91295000  0.44970200  0.51892400  1
  C  C2  1  0.97739200  0.35364600  0.03543900  1
  C  C3  1  0.35364600  0.97739200  0.53543900  1
  C  C4  1  0.10130500  0.17705600  0.26945200  1
  C  C5  1  0.17705600  0.10130500  0.76945200  1
  C  C6  1  0.46767300  0.82814600  0.96046500  1
  C  C7  1  0.82814600  0.46767300  0.46046500  1
  C  C8  1  0.94080000  0.25505600  0.89924100  1
  C  C9  1  0.25505600  0.94080000  0.39924100  1
  C  C10  1  0.12434500  0.26900500  0.40364600  1
  C  C11  1  0.26900500  0.12434500  0.90364600  1
  S  S0  1  0.58929400  0.69720800  0.44410800  1
  S  S1  1  0.69720800  0.58929400  0.94410800  1
  N  N0  1  0.35422100  0.66735200  0.50668900  1
  N  N1  1  0.66735200  0.35422100  0.00668900  1
  N  N2  1  0.38404000  0.55748700  0.84201100  1
  N  N3  1  0.55748700  0.38404000  0.34201100  1
  N  N4  1  0.70594900  0.86386100  0.78239700  1
  N  N5  1  0.86386100  0.70594900  0.28239700  1
  N  N6  1  0.68176900  0.96804100  0.42819700  1
  N  N7  1  0.96804100  0.68176900  0.92819700  1
  O  O0  1  0.55601100  0.57544100  0.50674500  1
  O  O1  1  0.57544100  0.55601100  0.00674500  1
  O  O2  1  0.67471900  0.78142400  0.24564700  1
  O  O3  1  0.78142400  0.67471900  0.74564700  1
  O  O4  1  0.49360100  0.84440600  0.77845700  1
  O  O5  1  0.84440600  0.49360100  0.27845700  1
  O  O6  1  0.45206500  0.75345800  0.08965600  1
  O  O7  1  0.75345800  0.45206500  0.58965600  1
  O  O8  1  0.81279300  0.11944400  0.93817100  1
  O  O9  1  0.11944400  0.81279300  0.43817100  1
  O  O10  1  0.05349100  0.32914500  0.76192300  1
  O  O11  1  0.32914500  0.05349100  0.26192300  1
  O  O12  1  0.24412100  0.40528700  0.37256200  1
  O  O13  1  0.40528700  0.24412100  0.87256200  1
  O  O14  1  0.00344900  0.18366900  0.53750300  1
  O  O15  1  0.18366900  0.00344900  0.03750300  1
  F  F0  1  0.48108900  0.94616200  0.19430000  1
  F  F1  1  0.94616200  0.48108900  0.69430000  1
  F  F2  1  0.53961600  0.04339400  0.89124900  1
  F  F3  1  0.04339400  0.53961600  0.39124900  1
  F  F4  1  0.30392400  0.82359700  0.03256000  1
  F  F5  1  0.82359700  0.30392400  0.53256000  1
  F  F6  1  0.09953500  0.50288500  0.95229600  1
  F  F7  1  0.50288500  0.09953500  0.45229600  1
  F  F8  1  0.85973300  0.31573300  0.09425700  1
  F  F9  1  0.31573300  0.85973300  0.59425700  1
  F  F10  1  0.00762900  0.33332500  0.19706200  1
  F  F11  1  0.33332500  0.00762900  0.69706200  1
  F  F12  1  0.03884700  0.16507400  0.12558600  1
  F  F13  1  0.16507400  0.03884700  0.62558600  1
  F  F14  1  0.23380600  0.24544800  0.18684200  1
  F  F15  1  0.24544800  0.23380600  0.68684200  1
  F  F16  1  0.00781500  0.03463300  0.36333800  1
  F  F17  1  0.03463300  0.00781500  0.86333800  1
loop_
_geom_bond_atom_site_label_1
_geom_bond_atom_site_label_2
_geom_bond_distance
_geom_bond_site_symmetry_2
H0 O14 1.147906 1_555
H0 O10 1.301228 1_555
H1 O15 1.147906 1_555
H1 O11 1.301228 1_555
H2 N0 1.033580 1_555
H3 N1 1.033580 1_556
H4 N0 1.023662 1_555
H5 N1 1.023662 1_555
H6 N0 1.024356 1_555
H7 N1 1.024356 1_555
H8 N2 1.025875 1_555
H9 N3 1.025875 1_555
H10 N2 1.028101 1_555
H11 N3 1.028101 1_555
H12 N2 1.025481 1_555
H13 N3 1.025481 1_555
H14 N4 1.022433 1_555
H15 N5 1.022433 1_555
H16 N4 1.025956 1_555
H17 N5 1.025956 1_555
H18 N4 1.031507 1_555
H19 N5 1.031507 1_555
H20 N6 1.024910 1_545
H21 N7 1.024910 1_455
H22 N6 1.024641 1_555
H23 N7 1.024641 1_555
H24 N6 1.025027 1_545
H25 N7 1.025027 1_455
Ru0 S0 2.113448 1_555
Ru1 S1 2.113448 1_554
C0 F2 1.354443 1_564
C0 F0 1.364749 1_555
C0 F4 1.369116 1_555
C1 F3 1.354443 1_655
C1 F1 1.364749 1_555
C1 F5 1.369116 1_555
C2 F6 1.358913 1_654
C2 F8 1.360839 1_555
C2 F10 1.370035 1_655
C3 F7 1.358913 1_565
C3 F9 1.360839 1_555
C3 F11 1.370035 1_565
C4 F14 1.354125 1_555
C4 F16 1.364347 1_555
C4 F12 1.368069 1_555
C5 F15 1.354125 1_555
C5 F17 1.364347 1_555
C5 F13 1.368069 1_555
C6 O6 1.244522 1_556
C6 O4 1.279415 1_555
C7 O7 1.244522 1_555
C7 O5 1.279415 1_555
C8 O8 1.240584 1_555
C8 O10 1.287633 1_655
C9 O9 1.240584 1_555
C9 O11 1.287633 1_565
C10 O12 1.224519 1_555
C10 O14 1.308076 1_555
C11 O13 1.224519 1_555
C11 O15 1.308076 1_556
N0 Ru0 2.129419 1_555
N1 Ru1 2.129419 1_555
N2 Ru0 2.139284 1_555
N3 Ru1 2.139284 1_555
N4 Ru0 2.146623 1_555
N5 Ru1 2.146623 1_555
N6 Ru0 2.132771 1_555
N7 Ru1 2.132771 1_556
O0 S0 1.467673 1_555
O1 S1 1.467673 1_554
O2 S0 1.464631 1_555
O3 S1 1.464631 1_555
O4 Ru0 2.111311 1_555
O5 Ru1 2.111311 1_555
