# generated using pymatgen
data_Ho2Ge2Ru
_symmetry_space_group_name_H-M   'P 1'
_cell_length_a   5.74675175
_cell_length_b   5.74675175
_cell_length_c   10.08889346
_cell_angle_alpha   63.96622385
_cell_angle_beta   63.96622385
_cell_angle_gamma   43.53435929
_symmetry_Int_Tables_number   1
_chemical_formula_structural   Ho2Ge2Ru
_chemical_formula_sum   'Ho4 Ge4 Ru2'
_cell_volume   202.24971058
_cell_formula_units_Z   2
loop_
 _symmetry_equiv_pos_site_id
 _symmetry_equiv_pos_as_xyz
  1  'x, y, z'
loop_
 _atom_site_type_symbol
 _atom_site_label
 _atom_site_symmetry_multiplicity
 _atom_site_fract_x
 _atom_site_fract_y
 _atom_site_fract_z
 _atom_site_occupancy
  Ho  Ho0  1  -0.00023203  -0.00023203  0.32765817  1
  Ho  Ho1  1  0.00023203  0.00023203  0.67234183  1
  Ho  Ho2  1  0.81636472  0.81636472  0.11234483  1
  Ho  Ho3  1  0.18363528  0.18363528  0.88765517  1
  Ge  Ge0  1  0.64472576  0.64472576  0.43559780  1
  Ge  Ge1  1  0.35527424  0.35527424  0.56440220  1
  Ge  Ge2  1  0.51278176  0.51278176  0.12381575  1
  Ge  Ge3  1  0.48721824  0.48721824  0.87618425  1
  Ru  Ru0  1  0.72979604  0.72979604  0.62878906  1
  Ru  Ru1  1  0.27020396  0.27020396  0.37121094  1
loop_
_geom_bond_atom_site_label_1
_geom_bond_atom_site_label_2
_geom_bond_distance
_geom_bond_site_symmetry_2
Ho0 Ru0 3.042865 1_445
Ho0 Ru1 3.117896 1_455
Ho0 Ru1 3.117896 1_545
Ho0 Ru1 3.118428 1_555
Ho1 Ru1 3.042865 1_555
Ho1 Ru0 3.117896 1_455
Ho1 Ru0 3.117896 1_545
Ho1 Ru0 3.118428 1_445
Ho2 Ru1 3.223182 1_655
Ho2 Ru1 3.223182 1_565
Ho3 Ru0 3.223182 1_455
Ho3 Ru0 3.223182 1_545
Ge0 Ru1 2.436202 1_565
Ge0 Ru1 2.436202 1_655
Ge0 Ru0 2.509248 1_555
Ge0 Ge1 2.727537 1_555
Ge0 Ho2 2.888756 1_555
Ge0 Ho1 3.023788 1_565
Ge0 Ho1 3.023788 1_655
Ge0 Ho0 3.116761 1_565
Ge0 Ho0 3.116761 1_655
Ge0 Ho0 3.412782 1_665
Ge1 Ru0 2.436202 1_455
Ge1 Ru0 2.436202 1_545
Ge1 Ru1 2.509248 1_555
Ge1 Ho3 2.888756 1_555
Ge1 Ho0 3.023788 1_565
Ge1 Ho0 3.023788 1_655
Ge1 Ho1 3.116761 1_655
Ge1 Ho1 3.116761 1_565
Ge1 Ho1 3.412782 1_555
Ge2 Ru1 2.612581 1_555
Ge2 Ge3 2.638265 1_554
Ge2 Ho0 2.918947 1_655
Ge2 Ho0 2.918947 1_565
Ge2 Ho2 3.029830 1_455
Ge2 Ho2 3.029830 1_545
Ge2 Ho3 3.072007 1_654
Ge2 Ho3 3.072007 1_564
Ge2 Ho2 3.187383 1_555
Ge3 Ru0 2.612581 1_555
Ge3 Ho1 2.918947 1_565
Ge3 Ho1 2.918947 1_655
Ge3 Ho3 3.029830 1_655
Ge3 Ho3 3.029830 1_565
Ge3 Ho2 3.072007 1_456
Ge3 Ho2 3.072007 1_546
Ge3 Ho3 3.187383 1_555
