# generated using pymatgen
data_Li2Ga3Te6(HO2)12
_symmetry_space_group_name_H-M   'P 1'
_cell_length_a   10.22304848
_cell_length_b   10.22304848
_cell_length_c   10.22304810
_cell_angle_alpha   54.67386226
_cell_angle_beta   54.67386226
_cell_angle_gamma   54.67386007
_symmetry_Int_Tables_number   1
_chemical_formula_structural   Li2Ga3Te6(HO2)12
_chemical_formula_sum   'Li2 Ga3 Te6 H12 O24'
_cell_volume   661.74051775
_cell_formula_units_Z   1
loop_
 _symmetry_equiv_pos_site_id
 _symmetry_equiv_pos_as_xyz
  1  'x, y, z'
loop_
 _atom_site_type_symbol
 _atom_site_label
 _atom_site_symmetry_multiplicity
 _atom_site_fract_x
 _atom_site_fract_y
 _atom_site_fract_z
 _atom_site_occupancy
  Li  Li0  1  0.30423600  0.30423600  0.30423600  1
  Li  Li1  1  0.69576400  0.69576400  0.69576400  1
  Ga  Ga0  1  0.19283800  0.19283800  0.19283800  1
  Ga  Ga1  1  0.80716200  0.80716200  0.80716200  1
  Ga  Ga2  1  0.00000000  0.00000000  0.00000000  1
  Te  Te0  1  0.07813300  0.60814500  0.01904800  1
  Te  Te1  1  0.60814500  0.01904800  0.07813300  1
  Te  Te2  1  0.01904800  0.07813300  0.60814500  1
  Te  Te3  1  0.92186700  0.39185500  0.98095200  1
  Te  Te4  1  0.39185500  0.98095200  0.92186700  1
  Te  Te5  1  0.98095200  0.92186700  0.39185500  1
  H  H0  1  0.15879300  0.43943200  0.51485800  1
  H  H1  1  0.43943200  0.51485800  0.15879300  1
  H  H2  1  0.51485800  0.15879300  0.43943200  1
  H  H3  1  0.84120700  0.56056800  0.48514200  1
  H  H4  1  0.56056800  0.48514200  0.84120700  1
  H  H5  1  0.48514200  0.84120700  0.56056800  1
  H  H6  1  0.12587700  0.27439100  0.66677200  1
  H  H7  1  0.27439100  0.66677200  0.12587700  1
  H  H8  1  0.66677200  0.12587700  0.27439100  1
  H  H9  1  0.87412300  0.72560900  0.33322800  1
  H  H10  1  0.72560900  0.33322800  0.87412300  1
  H  H11  1  0.33322800  0.87412300  0.72560900  1
  O  O0  1  0.07483800  0.41521400  0.22952200  1
  O  O1  1  0.41521400  0.22952200  0.07483800  1
  O  O2  1  0.22952200  0.07483800  0.41521400  1
  O  O3  1  0.92516200  0.58478600  0.77047800  1
  O  O4  1  0.58478600  0.77047800  0.92516200  1
  O  O5  1  0.77047800  0.92516200  0.58478600  1
  O  O6  1  0.86113800  0.66437100  0.02342300  1
  O  O7  1  0.66437100  0.02342300  0.86113800  1
  O  O8  1  0.02342300  0.86113800  0.66437100  1
  O  O9  1  0.13886200  0.33562900  0.97657700  1
  O  O10  1  0.33562900  0.97657700  0.13886200  1
  O  O11  1  0.97657700  0.13886200  0.33562900  1
  O  O12  1  0.98382200  0.76958900  0.11784800  1
  O  O13  1  0.76958900  0.11784800  0.98382200  1
  O  O14  1  0.11784800  0.98382200  0.76958900  1
  O  O15  1  0.01617800  0.23041100  0.88215200  1
  O  O16  1  0.23041100  0.88215200  0.01617800  1
  O  O17  1  0.88215200  0.01617800  0.23041100  1
  O  O18  1  0.18524900  0.32155000  0.53924800  1
  O  O19  1  0.32155000  0.53924800  0.18524900  1
  O  O20  1  0.53924800  0.18524900  0.32155000  1
  O  O21  1  0.81475100  0.67845000  0.46075200  1
  O  O22  1  0.67845000  0.46075200  0.81475100  1
  O  O23  1  0.46075200  0.81475100  0.67845000  1
loop_
_geom_bond_atom_site_label_1
_geom_bond_atom_site_label_2
_geom_bond_distance
_geom_bond_site_symmetry_2
Li0 O18 2.036234 1_555
Li0 O20 2.036234 1_555
Li0 O19 2.036234 1_555
Li0 O1 2.315749 1_555
Li0 O0 2.315749 1_555
Li0 O2 2.315749 1_555
Li1 O21 2.036234 1_555
Li1 O23 2.036234 1_555
Li1 O22 2.036234 1_555
Li1 O4 2.315749 1_555
Li1 O3 2.315749 1_555
Li1 O5 2.315749 1_555
Ga0 O2 2.013782 1_555
Ga0 O0 2.013782 1_555
Ga0 O1 2.013782 1_555
Ga0 O9 2.017491 1_554
Ga0 O10 2.017491 1_545
Ga0 O11 2.017491 1_455
Ga1 O5 2.013782 1_555
Ga1 O3 2.013782 1_555
Ga1 O4 2.013782 1_555
Ga1 O6 2.017491 1_556
Ga1 O7 2.017491 1_565
Ga1 O8 2.017491 1_655
Ga2 O17 1.991348 1_455
Ga2 O14 1.991348 1_544
Ga2 O16 1.991348 1_545
Ga2 O13 1.991348 1_454
Ga2 O15 1.991348 1_554
Ga2 O12 1.991348 1_445
H0 O18 0.970143 1_555
H1 O19 0.970143 1_555
H2 O20 0.970143 1_555
H3 O21 0.970143 1_555
H4 O22 0.970143 1_555
H5 O23 0.970143 1_555
H6 O18 0.998440 1_555
H6 O15 1.700163 1_555
H7 O19 0.998440 1_555
H7 O16 1.700163 1_555
H8 O20 0.998440 1_555
H8 O17 1.700163 1_555
H9 O21 0.998440 1_555
H9 O12 1.700163 1_555
H10 O22 0.998440 1_555
H10 O13 1.700163 1_555
H11 O23 0.998440 1_555
H11 O14 1.700163 1_555
O0 Te0 1.898995 1_555
O1 Te1 1.898995 1_555
O2 Te2 1.898995 1_555
O3 Te3 1.898995 1_555
O4 Te4 1.898995 1_555
O5 Te5 1.898995 1_555
O6 Te0 1.921939 1_655
O7 Te1 1.921939 1_556
O8 Te2 1.921939 1_565
O9 Te3 1.921939 1_455
O10 Te4 1.921939 1_554
O11 Te5 1.921939 1_545
O12 Te0 1.906605 1_655
O13 Te1 1.906605 1_556
O14 Te2 1.906605 1_565
O15 Te3 1.906605 1_455
O16 Te4 1.906605 1_554
O17 Te5 1.906605 1_545
