# generated using pymatgen
data_Tc3P
_symmetry_space_group_name_H-M   'P 1'
_cell_length_a   4.83211352
_cell_length_b   7.12688155
_cell_length_c   7.12688151
_cell_angle_alpha   83.40070537
_cell_angle_beta   70.18366417
_cell_angle_gamma   70.18366802
_symmetry_Int_Tables_number   1
_chemical_formula_structural   Tc3P
_chemical_formula_sum   'Tc12 P4'
_cell_volume   217.22819995
_cell_formula_units_Z   4
loop_
 _symmetry_equiv_pos_site_id
 _symmetry_equiv_pos_as_xyz
  1  'x, y, z'
loop_
 _atom_site_type_symbol
 _atom_site_label
 _atom_site_symmetry_multiplicity
 _atom_site_fract_x
 _atom_site_fract_y
 _atom_site_fract_z
 _atom_site_occupancy
  Tc  Tc0  1  0.34413183  0.65373078  0.64910751  1
  Tc  Tc1  1  0.00676066  0.64910751  0.34626922  1
  Tc  Tc2  1  0.00213639  0.35089249  0.65373078  1
  Tc  Tc3  1  0.64697012  0.34626922  0.35089249  1
  Tc  Tc4  1  0.90582664  0.00497139  0.59175322  1
  Tc  Tc5  1  0.50242014  0.59175322  0.99502861  1
  Tc  Tc6  1  0.08920198  0.40824678  0.00497139  1
  Tc  Tc7  1  0.50255224  0.99502861  0.40824678  1
  Tc  Tc8  1  0.09310665  0.00105577  0.19720093  1
  Tc  Tc9  1  0.70969142  0.19720093  0.99894423  1
  Tc  Tc10  1  0.90583758  0.80279907  0.00105577  1
  Tc  Tc11  1  0.29136535  0.99894423  0.80279907  1
  P  P0  1  0.20914463  0.28846639  0.29387465  1
  P  P1  1  0.49698073  0.29387465  0.71153361  1
  P  P2  1  0.50239099  0.70612535  0.28846639  1
  P  P3  1  0.79148566  0.71153361  0.70612535  1
loop_
_geom_bond_atom_site_label_1
_geom_bond_atom_site_label_2
_geom_bond_distance
_geom_bond_site_symmetry_2
P0 Tc6 2.318121 1_555
P0 Tc7 2.330121 1_545
P0 Tc1 2.443514 1_555
P0 Tc2 2.448901 1_555
P0 Tc3 2.454175 1_555
P0 Tc3 2.499091 1_455
P0 Tc8 2.519884 1_555
P0 Tc9 2.547923 1_554
P1 Tc4 2.318120 1_555
P1 Tc6 2.330119 1_556
P1 Tc3 2.443514 1_555
P1 Tc0 2.448901 1_555
P1 Tc2 2.454179 1_555
P1 Tc2 2.499086 1_655
P1 Tc9 2.519881 1_555
P1 Tc11 2.547920 1_545
P2 Tc7 2.318118 1_555
P2 Tc5 2.330123 1_554
P2 Tc0 2.443514 1_555
P2 Tc3 2.448901 1_555
P2 Tc1 2.454184 1_555
P2 Tc1 2.499081 1_655
P2 Tc10 2.519878 1_555
P2 Tc8 2.547932 1_565
P3 Tc5 2.318121 1_555
P3 Tc4 2.330119 1_565
P3 Tc2 2.443514 1_655
P3 Tc1 2.448901 1_655
P3 Tc0 2.454175 1_655
P3 Tc0 2.499090 1_555
P3 Tc11 2.519878 1_555
P3 Tc10 2.547926 1_556
