# generated using pymatgen
data_Sm3B2(O2F)3
_symmetry_space_group_name_H-M   'P 1'
_cell_length_a   7.19537704
_cell_length_b   7.19537704
_cell_length_c   8.39377954
_cell_angle_alpha   83.75649101
_cell_angle_beta   83.75649101
_cell_angle_gamma   51.86327248
_symmetry_Int_Tables_number   1
_chemical_formula_structural   Sm3B2(O2F)3
_chemical_formula_sum   'Sm6 B4 O12 F6'
_cell_volume   339.30174671
_cell_formula_units_Z   2
loop_
 _symmetry_equiv_pos_site_id
 _symmetry_equiv_pos_as_xyz
  1  'x, y, z'
loop_
 _atom_site_type_symbol
 _atom_site_label
 _atom_site_symmetry_multiplicity
 _atom_site_fract_x
 _atom_site_fract_y
 _atom_site_fract_z
 _atom_site_occupancy
  Sm  Sm0  1  0.28635000  0.06999000  0.82055200  1
  Sm  Sm1  1  0.71365000  0.93001000  0.17944800  1
  Sm  Sm2  1  0.93001000  0.71365000  0.67944800  1
  Sm  Sm3  1  0.06999000  0.28635000  0.32055200  1
  Sm  Sm4  1  0.60099600  0.39900400  0.75000000  1
  Sm  Sm5  1  0.39900400  0.60099600  0.25000000  1
  B  B0  1  0.41054500  0.22764100  0.52188400  1
  B  B1  1  0.58945500  0.77235900  0.47811600  1
  B  B2  1  0.77235900  0.58945500  0.97811600  1
  B  B3  1  0.22764100  0.41054500  0.02188400  1
  O  O0  1  0.55077100  0.74853300  0.64173700  1
  O  O1  1  0.44922900  0.25146700  0.35826300  1
  O  O2  1  0.25146700  0.44922900  0.85826300  1
  O  O3  1  0.74853300  0.55077100  0.14173700  1
  O  O4  1  0.70471400  0.81488600  0.92526000  1
  O  O5  1  0.29528600  0.18511400  0.07474000  1
  O  O6  1  0.18511400  0.29528600  0.57474000  1
  O  O7  1  0.81488600  0.70471400  0.42526000  1
  O  O8  1  0.57951400  0.11929200  0.63449900  1
  O  O9  1  0.42048600  0.88070800  0.36550100  1
  O  O10  1  0.88070800  0.42048600  0.86550100  1
  O  O11  1  0.11929200  0.57951400  0.13449900  1
  F  F0  1  0.97595100  0.02404900  0.75000000  1
  F  F1  1  0.02404900  0.97595100  0.25000000  1
  F  F2  1  0.27045000  0.62637000  0.54295500  1
  F  F3  1  0.72955000  0.37363000  0.45704500  1
  F  F4  1  0.37363000  0.72955000  0.95704500  1
  F  F5  1  0.62637000  0.27045000  0.04295500  1
loop_
_geom_bond_atom_site_label_1
_geom_bond_atom_site_label_2
_geom_bond_distance
_geom_bond_site_symmetry_2
B0 O8 1.377858 1_555
B0 O1 1.384798 1_555
B0 O6 1.407182 1_555
B1 O9 1.377858 1_555
B1 O0 1.384798 1_555
B1 O7 1.407182 1_555
B2 O10 1.377858 1_555
B2 O3 1.384798 1_556
B2 O4 1.407182 1_555
B3 O11 1.377858 1_555
B3 O2 1.384798 1_554
B3 O5 1.407182 1_555
O0 Sm4 2.394445 1_555
O0 Sm0 2.433397 1_565
O0 Sm2 2.633257 1_555
O1 Sm5 2.394445 1_555
O1 Sm1 2.433397 1_545
O1 Sm3 2.633257 1_555
O2 Sm4 2.394445 1_555
O2 Sm2 2.433397 1_455
O2 Sm0 2.633257 1_555
O3 Sm5 2.394445 1_555
O3 Sm3 2.433397 1_655
O3 Sm1 2.633257 1_555
O4 Sm2 2.357257 1_555
O4 Sm1 2.392196 1_556
O4 Sm0 2.569751 1_565
O5 Sm3 2.357257 1_555
O5 Sm0 2.392196 1_554
O5 Sm1 2.569751 1_545
O6 Sm0 2.357257 1_555
O6 Sm3 2.392196 1_555
O6 Sm2 2.569751 1_455
O7 Sm1 2.357257 1_555
O7 Sm2 2.392196 1_555
O7 Sm3 2.569751 1_655
O8 Sm4 2.419861 1_555
O8 Sm2 2.428530 1_545
O8 Sm0 2.664880 1_555
O9 Sm5 2.419861 1_555
O9 Sm3 2.428530 1_565
O9 Sm1 2.664880 1_555
O10 Sm4 2.419861 1_555
O10 Sm0 2.428530 1_655
O10 Sm2 2.664880 1_555
O11 Sm5 2.419861 1_555
O11 Sm1 2.428530 1_455
O11 Sm3 2.664880 1_555
F0 Sm4 2.359612 1_555
F0 Sm2 2.586567 1_545
F0 Sm0 2.586567 1_655
F1 Sm5 2.359612 1_555
F1 Sm1 2.586567 1_455
F1 Sm3 2.586567 1_565
F2 Sm2 2.313778 1_455
F2 Sm5 2.515941 1_555
F2 Sm4 2.613123 1_555
F3 Sm3 2.313778 1_655
F3 Sm4 2.515941 1_555
F3 Sm5 2.613123 1_555
F4 Sm0 2.313778 1_565
F4 Sm5 2.515941 1_556
F4 Sm4 2.613123 1_555
F5 Sm1 2.313778 1_545
F5 Sm4 2.515941 1_554
F5 Sm5 2.613123 1_555
