# generated using pymatgen
data_RbY(TeO3)2
_symmetry_space_group_name_H-M   'P 1'
_cell_length_a   6.14459200
_cell_length_b   8.81386700
_cell_length_c   14.00441500
_cell_angle_alpha   90.00000000
_cell_angle_beta   90.00000000
_cell_angle_gamma   90.00000000
_symmetry_Int_Tables_number   1
_chemical_formula_structural   RbY(TeO3)2
_chemical_formula_sum   'Rb4 Y4 Te8 O24'
_cell_volume   758.44573908
_cell_formula_units_Z   4
loop_
 _symmetry_equiv_pos_site_id
 _symmetry_equiv_pos_as_xyz
  1  'x, y, z'
loop_
 _atom_site_type_symbol
 _atom_site_label
 _atom_site_symmetry_multiplicity
 _atom_site_fract_x
 _atom_site_fract_y
 _atom_site_fract_z
 _atom_site_occupancy
  Rb  Rb0  1  0.25000000  0.00603600  0.63443000  1
  Rb  Rb1  1  0.25000000  0.49396400  0.13443000  1
  Rb  Rb2  1  0.75000000  0.99396400  0.36557000  1
  Rb  Rb3  1  0.75000000  0.50603600  0.86557000  1
  Y  Y0  1  0.25000000  0.78841500  0.90759500  1
  Y  Y1  1  0.25000000  0.71158500  0.40759500  1
  Y  Y2  1  0.75000000  0.21158500  0.09240500  1
  Y  Y3  1  0.75000000  0.28841500  0.59240500  1
  Te  Te0  1  0.75000000  0.00451400  0.80465400  1
  Te  Te1  1  0.75000000  0.49548600  0.30465400  1
  Te  Te2  1  0.25000000  0.99548600  0.19534600  1
  Te  Te3  1  0.25000000  0.50451400  0.69534600  1
  Te  Te4  1  0.75000000  0.71652300  0.57625600  1
  Te  Te5  1  0.75000000  0.78347700  0.07625600  1
  Te  Te6  1  0.25000000  0.28347700  0.42374400  1
  Te  Te7  1  0.25000000  0.21652300  0.92374400  1
  O  O0  1  0.98726200  0.86808800  0.80191300  1
  O  O1  1  0.51273800  0.63191200  0.30191300  1
  O  O2  1  0.48726200  0.13191200  0.19808700  1
  O  O3  1  0.01273800  0.36808800  0.69808700  1
  O  O4  1  0.01273800  0.13191200  0.19808700  1
  O  O5  1  0.48726200  0.36808800  0.69808700  1
  O  O6  1  0.51273800  0.86808800  0.80191300  1
  O  O7  1  0.98726200  0.63191200  0.30191300  1
  O  O8  1  0.75000000  0.05851900  0.67331800  1
  O  O9  1  0.75000000  0.44148100  0.17331800  1
  O  O10  1  0.25000000  0.94148100  0.32668200  1
  O  O11  1  0.25000000  0.55851900  0.82668200  1
  O  O12  1  0.98729200  0.80003000  0.50829800  1
  O  O13  1  0.51270800  0.69997000  0.00829800  1
  O  O14  1  0.48729200  0.19997000  0.49170200  1
  O  O15  1  0.01270800  0.30003000  0.99170200  1
  O  O16  1  0.01270800  0.19997000  0.49170200  1
  O  O17  1  0.48729200  0.30003000  0.99170200  1
  O  O18  1  0.51270800  0.80003000  0.50829800  1
  O  O19  1  0.98729200  0.69997000  0.00829800  1
  O  O20  1  0.75000000  0.52024500  0.52323600  1
  O  O21  1  0.75000000  0.97975500  0.02323600  1
  O  O22  1  0.25000000  0.47975500  0.47676400  1
  O  O23  1  0.25000000  0.02024500  0.97676400  1
loop_
_geom_bond_atom_site_label_1
_geom_bond_atom_site_label_2
_geom_bond_distance
_geom_bond_site_symmetry_2
O0 Te0 1.890171 1_565
O0 Y0 2.299981 1_655
O0 Rb0 3.096131 1_665
O1 Te1 1.890171 1_555
O1 Y1 2.299981 1_555
O1 Rb1 3.096131 1_555
O2 Te2 1.890171 1_545
O2 Y2 2.299981 1_555
O2 Rb2 3.096131 1_545
O3 Te3 1.890171 1_555
O3 Y3 2.299981 1_455
O3 Rb3 3.096131 1_455
O4 Te2 1.890171 1_545
O4 Y2 2.299981 1_455
O4 Rb2 3.096131 1_445
O5 Te3 1.890171 1_555
O5 Y3 2.299981 1_555
O5 Rb3 3.096131 1_555
O6 Te0 1.890171 1_565
O6 Y0 2.299981 1_555
O6 Rb0 3.096131 1_565
O7 Te1 1.890171 1_555
O7 Y1 2.299981 1_655
O7 Rb1 3.096131 1_655
O8 Te0 1.899877 1_555
O8 Y3 2.321591 1_555
O8 Rb0 3.154295 1_555
O8 Rb0 3.154295 1_655
O9 Te1 1.899877 1_555
O9 Y2 2.321591 1_555
O9 Rb1 3.154295 1_655
O9 Rb1 3.154295 1_555
O10 Te2 1.899877 1_555
O10 Y1 2.321591 1_555
O10 Rb2 3.154295 1_555
O10 Rb2 3.154295 1_455
O11 Te3 1.899877 1_555
O11 Y0 2.321591 1_555
O11 Rb3 3.154295 1_555
O11 Rb3 3.154295 1_455
O12 Te4 1.890351 1_555
O12 Y1 2.280865 1_655
O12 Rb0 3.003787 1_665
O12 Rb2 3.007153 1_555
O13 Te5 1.890351 1_555
O13 Y0 2.280865 1_554
O13 Rb1 3.003787 1_555
O13 Rb3 3.007153 1_554
O14 Te6 1.890351 1_555
O14 Y3 2.280865 1_555
O14 Rb2 3.003787 1_545
O14 Rb0 3.007153 1_555
O15 Te7 1.890351 1_555
O15 Y2 2.280865 1_456
O15 Rb3 3.003787 1_455
O15 Rb1 3.007153 1_556
O16 Te6 1.890351 1_555
O16 Y3 2.280865 1_455
O16 Rb2 3.003787 1_445
O16 Rb0 3.007153 1_555
O17 Te7 1.890351 1_555
O17 Y2 2.280865 1_556
O17 Rb3 3.003787 1_555
O17 Rb1 3.007153 1_556
O18 Te4 1.890351 1_555
O18 Y1 2.280865 1_555
O18 Rb0 3.003787 1_565
O18 Rb2 3.007153 1_555
O19 Te5 1.890351 1_555
O19 Y0 2.280865 1_654
O19 Rb1 3.003787 1_655
O19 Rb3 3.007153 1_554
O20 Te4 1.882583 1_555
O20 Y3 2.261300 1_555
O21 Te5 1.882583 1_555
O21 Y2 2.261300 1_565
O22 Te6 1.882583 1_555
O22 Y1 2.261300 1_555
O23 Te7 1.882583 1_555
O23 Y0 2.261300 1_545
