# generated using pymatgen
data_Mg2Cr2O5
_symmetry_space_group_name_H-M   'P 1'
_cell_length_a   3.77044300
_cell_length_b   5.04490700
_cell_length_c   10.56447400
_cell_angle_alpha   90.00000000
_cell_angle_beta   90.00000000
_cell_angle_gamma   90.00000000
_symmetry_Int_Tables_number   1
_chemical_formula_structural   Mg2Cr2O5
_chemical_formula_sum   'Mg4 Cr4 O10'
_cell_volume   200.95250438
_cell_formula_units_Z   2
loop_
 _symmetry_equiv_pos_site_id
 _symmetry_equiv_pos_as_xyz
  1  'x, y, z'
loop_
 _atom_site_type_symbol
 _atom_site_label
 _atom_site_symmetry_multiplicity
 _atom_site_fract_x
 _atom_site_fract_y
 _atom_site_fract_z
 _atom_site_occupancy
  Mg  Mg0  1  0.50000000  0.25719800  0.90401600  1
  Mg  Mg1  1  0.50000000  0.74280200  0.09598400  1
  Mg  Mg2  1  0.50000000  0.75719800  0.59598400  1
  Mg  Mg3  1  0.50000000  0.24280200  0.40401600  1
  Cr  Cr0  1  0.00000000  0.23599500  0.63836200  1
  Cr  Cr1  1  0.00000000  0.76400500  0.36163800  1
  Cr  Cr2  1  0.00000000  0.26400500  0.13836200  1
  Cr  Cr3  1  0.00000000  0.73599500  0.86163800  1
  O  O0  1  0.00000000  0.50000000  0.50000000  1
  O  O1  1  0.00000000  0.14650900  0.31234600  1
  O  O2  1  0.00000000  0.64650900  0.18765400  1
  O  O3  1  0.00000000  0.35349100  0.81234600  1
  O  O4  1  0.50000000  0.31121100  0.09966200  1
  O  O5  1  0.50000000  0.68878900  0.90033800  1
  O  O6  1  0.00000000  0.85349100  0.68765400  1
  O  O7  1  0.50000000  0.18878900  0.59966200  1
  O  O8  1  0.00000000  0.00000000  0.00000000  1
  O  O9  1  0.50000000  0.81121100  0.40033800  1
loop_
_geom_bond_atom_site_label_1
_geom_bond_atom_site_label_2
_geom_bond_distance
_geom_bond_site_symmetry_2
Mg0 O4 2.084782 1_556
Mg0 O3 2.174382 1_555
Mg0 O3 2.174382 1_655
Mg0 O5 2.177683 1_555
Mg0 O8 2.503180 1_556
Mg0 O8 2.503180 1_656
Mg1 O5 2.084782 1_554
Mg1 O2 2.174382 1_555
Mg1 O2 2.174382 1_655
Mg1 O4 2.177683 1_555
Mg1 O8 2.503180 1_665
Mg1 O8 2.503180 1_565
Mg2 O9 2.084782 1_555
Mg2 O6 2.174382 1_555
Mg2 O6 2.174382 1_655
Mg2 O7 2.177683 1_565
Mg2 O0 2.503180 1_555
Mg2 O0 2.503180 1_655
Mg3 O7 2.084782 1_555
Mg3 O1 2.174382 1_655
Mg3 O1 2.174382 1_555
Mg3 O9 2.177683 1_545
Mg3 O0 2.503180 1_555
Mg3 O0 2.503180 1_655
Cr0 O3 1.931265 1_555
Cr0 O7 1.943690 1_555
Cr0 O7 1.943690 1_455
Cr0 O0 1.977508 1_555
Cr0 O6 1.998726 1_545
Cr1 O2 1.931265 1_555
Cr1 O9 1.943690 1_555
Cr1 O9 1.943690 1_455
Cr1 O0 1.977508 1_555
Cr1 O1 1.998726 1_565
Cr2 O1 1.931265 1_555
Cr2 O4 1.943690 1_455
Cr2 O4 1.943690 1_555
Cr2 O8 1.977508 1_555
Cr2 O2 1.998726 1_555
Cr3 O6 1.931265 1_555
Cr3 O5 1.943690 1_555
Cr3 O5 1.943690 1_455
Cr3 O8 1.977508 1_566
Cr3 O3 1.998726 1_555
