# generated using pymatgen
data_VSi3Bi61O100
_symmetry_space_group_name_H-M   'P 1'
_cell_length_a   14.59092978
_cell_length_b   14.59092978
_cell_length_c   17.09863474
_cell_angle_alpha   64.74362072
_cell_angle_beta   90.00000000
_cell_angle_gamma   60.00000000
_symmetry_Int_Tables_number   1
_chemical_formula_structural   VSi3Bi61O100
_chemical_formula_sum   'V1 Si3 Bi61 O100'
_cell_volume   2743.36530102
_cell_formula_units_Z   1
loop_
 _symmetry_equiv_pos_site_id
 _symmetry_equiv_pos_as_xyz
  1  'x, y, z'
loop_
 _atom_site_type_symbol
 _atom_site_label
 _atom_site_symmetry_multiplicity
 _atom_site_fract_x
 _atom_site_fract_y
 _atom_site_fract_z
 _atom_site_occupancy
  V  V0  1  0.59991149  0.80017703  0.79973446  1
  Si  Si0  1  0.20030999  0.59938002  0.60092998  1
  Si  Si1  1  0.39994945  0.20010109  0.19984836  1
  Si  Si2  1  0.79988263  0.40023474  0.39964790  1
  Bi  Bi0  1  0.99992027  0.00015946  0.99976081  1
  Bi  Bi1  1  0.00306320  0.49041392  0.34904033  1
  Bi  Bi2  1  0.20345051  0.09012864  0.94776476  1
  Bi  Bi3  1  0.40173700  0.69047667  0.55051895  1
  Bi  Bi4  1  0.60053423  0.29032715  0.15109564  1
  Bi  Bi5  1  0.80346001  0.89313923  0.74866319  1
  Bi  Bi6  1  0.82565547  0.68758610  0.99363450  1
  Bi  Bi7  1  0.02071149  0.29106327  0.59019577  1
  Bi  Bi8  1  0.22186599  0.88578185  0.19544506  1
  Bi  Bi9  1  0.42110025  0.48932934  0.79201806  1
  Bi  Bi10  1  0.62233698  0.09051778  0.38920765  1
  Bi  Bi11  1  0.38457977  0.42408018  0.26303323  1
  Bi  Bi12  1  0.58431881  0.02595243  0.86424271  1
  Bi  Bi13  1  0.78591877  0.62121114  0.46220384  1
  Bi  Bi14  1  0.98058957  0.22710865  0.06162328  1
  Bi  Bi15  1  0.18416246  0.82414485  0.66181441  1
  Bi  Bi16  1  0.38972875  0.72007610  0.86424271  1
  Bi  Bi17  1  0.59287009  0.32371493  0.46220384  1
  Bi  Bi18  1  0.79230178  0.91896629  0.06162328  1
  Bi  Bi19  1  0.99169269  0.52234805  0.66181441  1
  Bi  Bi20  1  0.19134005  0.12154654  0.26303323  1
  Bi  Bi21  1  0.10913862  0.44943858  0.15109564  1
  Bi  Bi22  1  0.30340076  0.05479681  0.74866319  1
  Bi  Bi23  1  0.50652288  0.65402287  0.34904033  1
  Bi  Bi24  1  0.70642085  0.25568575  0.94776476  1
  Bi  Bi25  1  0.90778633  0.85121805  0.55051895  1
  Bi  Bi26  1  0.08957041  0.62908219  0.79201806  1
  Bi  Bi27  1  0.28714524  0.23312933  0.38920765  1
  Bi  Bi28  1  0.48675843  0.83202097  0.99363450  1
  Bi  Bi29  1  0.68822523  0.43051572  0.59019577  1
  Bi  Bi30  1  0.89235215  0.02642093  0.19544506  1
  Bi  Bi31  1  0.32557784  0.48814580  0.99694343  1
  Bi  Bi32  1  0.52475267  0.09436757  0.59126813  1
  Bi  Bi33  1  0.72478932  0.69018993  0.19659213  1
  Bi  Bi34  1  0.92440839  0.29343196  0.79690735  1
  Bi  Bi35  1  0.12562096  0.88946449  0.39768663  1
  Bi  Bi36  1  0.58502075  0.52819719  0.19659213  1
  Bi  Bi37  1  0.78215965  0.12750104  0.79690735  1
  Bi  Bi38  1  0.98491454  0.72793434  0.39768663  1
  Bi  Bi39  1  0.18627636  0.32863441  0.99694343  1
  Bi  Bi40  1  0.38087975  0.93348454  0.59126813  1
  Bi  Bi41  1  0.28715112  0.58722792  0.39768663  1
  Bi  Bi42  1  0.48508923  0.18933293  0.99694343  1
  Bi  Bi43  1  0.68563570  0.78961162  0.59126813  1
  Bi  Bi44  1  0.88678206  0.38842862  0.19659213  1
  Bi  Bi45  1  0.09033931  0.98525230  0.79690735  1
  Bi  Bi46  1  0.08122692  0.69690709  0.19544506  1
  Bi  Bi47  1  0.28134740  0.29755235  0.79201806  1
  Bi  Bi48  1  0.47972543  0.89793759  0.38920765  1
  Bi  Bi49  1  0.68122060  0.49312393  0.99363450  1
  Bi  Bi50  1  0.88125904  0.09802947  0.59019577  1
  Bi  Bi51  1  0.28873193  0.73067850  0.06162328  1
  Bi  Bi52  1  0.48595926  0.32987828  0.66181441  1
  Bi  Bi53  1  0.68711341  0.92830683  0.26303323  1
  Bi  Bi54  1  0.89019514  0.52548605  0.86424271  1
  Bi  Bi55  1  0.08341498  0.13066625  0.46220384  1
  Bi  Bi56  1  0.03789340  0.75865609  0.94776476  1
  Bi  Bi57  1  0.24099562  0.35726738  0.55051895  1
  Bi  Bi58  1  0.44142280  0.95804297  0.15109564  1
  Bi  Bi59  1  0.64180242  0.55473757  0.74866319  1
  Bi  Bi60  1  0.83945425  0.15748254  0.34904033  1
  O  O0  1  0.05851381  0.26746469  0.14822903  1
  O  O1  1  0.65433051  0.06592375  0.94999762  1
  O  O2  1  0.25656115  0.86547184  0.74891281  1
  O  O3  1  0.85662460  0.66643265  0.54740221  1
  O  O4  1  0.45784086  0.46596615  0.34787584  1
  O  O5  1  0.67100818  0.39547122  0.15720674  1
  O  O6  1  0.27344600  0.19566002  0.95802430  1
  O  O7  1  0.86843895  0.99960423  0.75288586  1
  O  O8  1  0.46963980  0.79643868  0.55642060  1
  O  O9  1  0.07081732  0.59580558  0.35736033  1
  O  O10  1  0.56770745  0.48458750  0.84200734  1
  O  O11  1  0.16662178  0.28572321  0.64226685  1
  O  O12  1  0.76656074  0.08578763  0.44231478  1
  O  O13  1  0.36825267  0.88654253  0.24439214  1
  O  O14  1  0.96994046  0.68052269  0.04295475  1
  O  O15  1  0.54765501  0.52435493  0.64226685  1
  O  O16  1  0.14765163  0.32424596  0.44231478  1
  O  O17  1  0.74520479  0.12386053  0.24439214  1
  O  O18  1  0.34953685  0.92698571  0.04295475  1
  O  O19  1  0.94770505  0.72570010  0.84200734  1
  O  O20  1  0.87796701  0.50764834  0.74891281  1
  O  O21  1  0.47694276  0.30922239  0.54740221  1
  O  O22  1  0.07619299  0.10996502  0.34787584  1
  O  O23  1  0.67402149  0.91028478  0.14822903  1
  O  O24  1  0.27974575  0.70433289  0.94999762  1
  O  O25  1  0.53089398  0.31542169  0.95802430  1
  O  O26  1  0.13195682  0.11555309  0.75288586  1
  O  O27  1  0.73392152  0.91321921  0.55642060  1
  O  O28  1  0.33337710  0.71345699  0.35736033  1
  O  O29  1  0.93352060  0.51380144  0.15720674  1
  O  O30  1  0.84220467  0.43183187  0.05297320  1
  O  O31  1  0.44276596  0.23295352  0.85268934  1
  O  O32  1  0.04208876  0.03553638  0.64952985  1
  O  O33  1  0.64109035  0.83501960  0.45085777  1
  O  O34  1  0.24459436  0.62668192  0.25606212  1
  O  O35  1  0.92237486  0.39255891  0.64952985  1
  O  O36  1  0.52389006  0.19023257  0.45085777  1
  O  O37  1  0.12872372  0.98853224  0.25606212  1
  O  O38  1  0.72596346  0.78923147  0.05297320  1
  O  O39  1  0.32428053  0.59007662  0.85268934  1
  O  O40  1  0.08564286  0.47159119  0.85268934  1
  O  O41  1  0.68506623  0.27284500  0.64952985  1
  O  O42  1  0.28587737  0.07303228  0.45085777  1
  O  O43  1  0.88274404  0.87266160  0.25606212  1
  O  O44  1  0.48480507  0.67299026  0.05297320  1
  O  O45  1  0.75249009  0.37907097  0.75288586  1
  O  O46  1  0.35285927  0.17750093  0.55642060  1
  O  O47  1  0.95316591  0.97601677  0.35736033  1
  O  O48  1  0.55267796  0.77631386  0.15720674  1
  O  O49  1  0.15368433  0.57286968  0.95802430  1
  O  O50  1  0.72347744  0.30658210  0.04295475  1
  O  O51  1  0.32659485  0.10569770  0.84200734  1
  O  O52  1  0.92799006  0.90538816  0.64226685  1
  O  O53  1  0.52810242  0.70533684  0.44231478  1
  O  O54  1  0.13093468  0.50081265  0.24439214  1
  O  O55  1  0.01592137  0.32974813  0.94999762  1
  O  O56  1  0.61438465  0.12905420  0.74891281  1
  O  O57  1  0.21383486  0.92954055  0.54740221  1
  O  O58  1  0.81384199  0.72831715  0.34787584  1
  O  O59  1  0.41569373  0.52579246  0.14822903  1
  O  O60  1  0.14915874  0.07429872  0.07491548  1
  O  O61  1  0.75390774  0.87695760  0.87684919  1
  O  O62  1  0.35708379  0.67862924  0.67880709  1
  O  O63  1  0.95802733  0.47976246  0.47738804  1
  O  O64  1  0.55796873  0.27874211  0.27981645  1
  O  O65  1  0.16328915  0.27815228  0.27981645  1
  O  O66  1  0.77654254  0.07424326  0.07491548  1
  O  O67  1  0.36913466  0.87705855  0.87684919  1
  O  O68  1  0.96428696  0.67827670  0.67880709  1
  O  O69  1  0.56221022  0.48063928  0.47738804  1
  O  O70  1  0.32075930  0.35848139  0.96227791  1
  O  O71  1  0.92549586  0.14900829  0.77648757  1
  O  O72  1  0.52180634  0.95638732  0.56541902  1
  O  O73  1  0.12256995  0.75486010  0.36770985  1
  O  O74  1  0.72139834  0.55720331  0.16419503  1
  O  O75  1  0.75380679  0.49228547  0.87684919  1
  O  O76  1  0.35743633  0.28547988  0.67880709  1
  O  O77  1  0.95715050  0.08482218  0.47738804  1
  O  O78  1  0.55855857  0.88347270  0.27981645  1
  O  O79  1  0.14921421  0.70162705  0.07491548  1
  O  O80  1  0.32574904  0.16217871  0.16220881  1
  O  O81  1  0.89877309  0.94963417  0.94916288  1
  O  O82  1  0.52147209  0.76110105  0.76036408  1
  O  O83  1  0.12538582  0.56177445  0.56378171  1
  O  O84  1  0.72451771  0.36315312  0.36240129  1
  O  O85  1  0.51207225  0.16354023  0.16220881  1
  O  O86  1  0.15159273  0.94961021  0.94916288  1
  O  O87  1  0.71742686  0.76110800  0.76036408  1
  O  O88  1  0.31283973  0.56160410  0.56378171  1
  O  O89  1  0.91232917  0.36211642  0.36240129  1
  O  O90  1  0.63915568  0.72168865  0.91746703  1
  O  O91  1  0.23780394  0.52439213  0.71341181  1
  O  O92  1  0.83732603  0.32534794  0.51197809  1
  O  O93  1  0.43736865  0.12526269  0.31210596  1
  O  O94  1  0.05038450  0.89923100  0.15115350  1
  O  O95  1  0.89879705  0.20242985  0.94916288  1
  O  O96  1  0.52146513  0.95706278  0.76036408  1
  O  O97  1  0.12555617  0.74905802  0.56378171  1
  O  O98  1  0.72555441  0.54992788  0.36240129  1
  O  O99  1  0.32438752  0.34986344  0.16220881  1
loop_
_geom_bond_atom_site_label_1
_geom_bond_atom_site_label_2
_geom_bond_distance
_geom_bond_site_symmetry_2
Bi0 O94 2.252641 1_646
Bi0 O95 2.258830 1_555
Bi0 O86 2.258830 1_645
Bi0 O81 2.258830 1_545
Bi1 O16 2.111407 1_555
Bi1 O9 2.251483 1_555
Bi1 O63 2.254589 1_455
Bi1 O54 2.599471 1_555
Bi1 O89 2.724437 1_455
Bi2 O18 2.116325 1_546
Bi2 O60 2.272017 1_556
Bi2 O6 2.290832 1_555
Bi2 O86 2.507257 1_545
Bi2 O51 2.570538 1_555
Bi3 O15 2.112754 1_555
Bi3 O8 2.246578 1_555
Bi3 O62 2.248354 1_555
Bi3 O53 2.631930 1_555
Bi3 O88 2.710131 1_555
Bi4 O17 2.113441 1_555
Bi4 O64 2.246328 1_555
Bi4 O5 2.266324 1_555
Bi4 O50 2.597003 1_555
Bi4 O85 2.685558 1_555
Bi5 O19 2.115749 1_555
Bi5 O7 2.210374 1_555
Bi5 O61 2.260888 1_555
Bi5 O52 2.586573 1_555
Bi5 O87 2.723316 1_555
Bi6 O38 2.114626 1_556
Bi6 O14 2.205162 1_556
Bi6 O61 2.262127 1_555
Bi6 O29 2.585827 1_556
Bi6 O90 2.727940 1_555
Bi7 O35 2.106736 1_455
Bi7 O63 2.255572 1_455
Bi7 O11 2.259691 1_555
Bi7 O26 2.587527 1_555
Bi7 O92 2.699850 1_455
Bi8 O37 2.111260 1_555
Bi8 O60 2.276681 1_565
Bi8 O13 2.300945 1_555
Bi8 O94 2.500922 1_555
Bi8 O28 2.569616 1_555
Bi9 O39 2.111265 1_555
Bi9 O62 2.259677 1_555
Bi9 O10 2.261153 1_555
Bi9 O25 2.617418 1_555
Bi9 O91 2.695545 1_555
Bi10 O36 2.123725 1_555
Bi10 O64 2.227166 1_555
Bi10 O12 2.249210 1_555
Bi10 O27 2.644642 1_545
Bi10 O93 2.709302 1_555
Bi11 O59 2.109431 1_555
Bi11 O4 2.242884 1_555
Bi11 O64 2.257328 1_555
Bi11 O34 2.566365 1_555
Bi11 O99 2.731329 1_555
Bi12 O56 2.114877 1_555
Bi12 O1 2.204364 1_555
Bi12 O61 2.261921 1_545
Bi12 O31 2.584564 1_555
Bi12 O96 2.729759 1_545
Bi13 O58 2.111749 1_555
Bi13 O63 2.234528 1_555
Bi13 O3 2.263372 1_555
Bi13 O33 2.669570 1_555
Bi13 O98 2.683340 1_555
Bi14 O55 2.117637 1_654
Bi14 O60 2.270700 1_655
Bi14 O0 2.290399 1_655
Bi14 O95 2.504428 1_554
Bi14 O30 2.571618 1_555
Bi15 O57 2.116130 1_555
Bi15 O62 2.252759 1_555
Bi15 O2 2.258479 1_555
Bi15 O32 2.628333 1_565
Bi15 O97 2.691699 1_555
Bi16 O2 2.114877 1_555
Bi16 O24 2.204363 1_555
Bi16 O67 2.261921 1_555
Bi16 O39 2.584564 1_555
Bi16 O82 2.729759 1_555
Bi17 O4 2.111749 1_555
Bi17 O69 2.234528 1_555
Bi17 O21 2.263372 1_555
Bi17 O36 2.669570 1_555
Bi17 O84 2.683340 1_555
Bi18 O1 2.117637 1_564
Bi18 O66 2.270700 1_565
Bi18 O23 2.290399 1_555
Bi18 O81 2.504428 1_554
Bi18 O38 2.571618 1_555
Bi19 O3 2.116130 1_555
Bi19 O68 2.252759 1_555
Bi19 O20 2.258479 1_555
Bi19 O35 2.628333 1_555
Bi19 O83 2.691699 1_655
Bi20 O0 2.109431 1_555
Bi20 O22 2.242884 1_555
Bi20 O65 2.257328 1_555
Bi20 O37 2.566365 1_545
Bi20 O80 2.731329 1_555
Bi21 O54 2.113441 1_555
Bi21 O65 2.246328 1_555
Bi21 O29 2.266324 1_455
Bi21 O14 2.597003 1_455
Bi21 O99 2.685558 1_555
Bi22 O51 2.115749 1_555
Bi22 O26 2.210374 1_555
Bi22 O67 2.260888 1_545
Bi22 O11 2.586573 1_555
Bi22 O96 2.723316 1_545
Bi23 O53 2.111407 1_555
Bi23 O28 2.251483 1_555
Bi23 O69 2.254589 1_555
Bi23 O13 2.599471 1_555
Bi23 O98 2.724437 1_555
Bi24 O50 2.116325 1_556
Bi24 O66 2.272017 1_556
Bi24 O25 2.290832 1_555
Bi24 O95 2.507257 1_555
Bi24 O10 2.570538 1_555
Bi25 O52 2.112754 1_555
Bi25 O27 2.246578 1_555
Bi25 O68 2.248354 1_555
Bi25 O12 2.631930 1_565
Bi25 O97 2.710131 1_655
Bi26 O40 2.111265 1_555
Bi26 O68 2.259677 1_455
Bi26 O19 2.261153 1_455
Bi26 O49 2.617418 1_555
Bi26 O91 2.695545 1_555
Bi27 O42 2.123725 1_555
Bi27 O65 2.227166 1_555
Bi27 O16 2.249210 1_555
Bi27 O46 2.644642 1_555
Bi27 O93 2.709302 1_555
Bi28 O44 2.114626 1_556
Bi28 O18 2.205162 1_556
Bi28 O67 2.262127 1_555
Bi28 O48 2.585827 1_556
Bi28 O90 2.727940 1_555
Bi29 O41 2.106736 1_555
Bi29 O69 2.255571 1_555
Bi29 O15 2.259691 1_555
Bi29 O45 2.587527 1_555
Bi29 O92 2.699850 1_555
Bi30 O43 2.111260 1_545
Bi30 O66 2.276681 1_555
Bi30 O17 2.300945 1_555
Bi30 O94 2.500922 1_645
Bi30 O47 2.569616 1_545
Bi31 O49 2.111643 1_555
Bi31 O70 2.241787 1_555
Bi31 O39 2.266633 1_555
Bi31 O24 2.602206 1_555
Bi31 O99 2.688157 1_556
Bi32 O46 2.111357 1_555
Bi32 O36 2.199405 1_555
Bi32 O72 2.257497 1_545
Bi32 O21 2.585267 1_555
Bi32 O96 2.743860 1_545
Bi33 O48 2.112158 1_555
Bi33 O74 2.255591 1_555
Bi33 O38 2.261751 1_555
Bi33 O23 2.626893 1_555
Bi33 O98 2.693003 1_555
Bi34 O45 2.117361 1_555
Bi34 O71 2.270943 1_555
Bi34 O35 2.299972 1_555
Bi34 O95 2.495318 1_555
Bi34 O20 2.568130 1_555
Bi35 O47 2.116870 1_455
Bi35 O37 2.243658 1_555
Bi35 O73 2.251327 1_555
Bi35 O22 2.634003 1_565
Bi35 O97 2.701787 1_555
Bi36 O5 2.112158 1_555
Bi36 O74 2.255591 1_555
Bi36 O44 2.261751 1_555
Bi36 O59 2.626893 1_555
Bi36 O84 2.693003 1_555
Bi37 O7 2.117361 1_545
Bi37 O71 2.270943 1_555
Bi37 O41 2.299972 1_555
Bi37 O81 2.495318 1_545
Bi37 O56 2.568130 1_555
Bi38 O9 2.116870 1_655
Bi38 O43 2.243658 1_555
Bi38 O73 2.251328 1_655
Bi38 O58 2.634003 1_555
Bi38 O83 2.701787 1_655
Bi39 O6 2.111643 1_555
Bi39 O70 2.241787 1_555
Bi39 O40 2.266633 1_555
Bi39 O55 2.602206 1_555
Bi39 O80 2.688157 1_556
Bi40 O8 2.111357 1_555
Bi40 O42 2.199405 1_565
Bi40 O72 2.257497 1_555
Bi40 O57 2.585266 1_555
Bi40 O82 2.743860 1_555
Bi41 O28 2.116870 1_555
Bi41 O34 2.243658 1_555
Bi41 O73 2.251327 1_555
Bi41 O4 2.634003 1_555
Bi41 O88 2.701787 1_555
Bi42 O25 2.111643 1_555
Bi42 O70 2.241787 1_555
Bi42 O31 2.266633 1_555
Bi42 O1 2.602206 1_555
Bi42 O85 2.688157 1_556
Bi43 O27 2.111357 1_555
Bi43 O33 2.199405 1_555
Bi43 O72 2.257497 1_555
Bi43 O3 2.585267 1_555
Bi43 O87 2.743860 1_555
Bi44 O29 2.112158 1_555
Bi44 O74 2.255591 1_555
Bi44 O30 2.261751 1_555
Bi44 O0 2.626893 1_655
Bi44 O89 2.693003 1_555
Bi45 O26 2.117361 1_565
Bi45 O71 2.270943 1_465
Bi45 O32 2.299972 1_565
Bi45 O86 2.495318 1_555
Bi45 O2 2.568130 1_555
Bi46 O34 2.111260 1_555
Bi46 O79 2.276681 1_555
Bi46 O54 2.300945 1_555
Bi46 O94 2.500922 1_555
Bi46 O9 2.569616 1_555
Bi47 O31 2.111265 1_555
Bi47 O76 2.259677 1_555
Bi47 O51 2.261154 1_555
Bi47 O6 2.617418 1_555
Bi47 O91 2.695545 1_555
Bi48 O33 2.123725 1_555
Bi48 O78 2.227166 1_555
Bi48 O53 2.249210 1_555
Bi48 O8 2.644642 1_555
Bi48 O93 2.709302 1_565
Bi49 O30 2.114626 1_556
Bi49 O50 2.205162 1_556
Bi49 O75 2.262127 1_555
Bi49 O5 2.585827 1_556
Bi49 O90 2.727940 1_555
Bi50 O32 2.106736 1_655
Bi50 O77 2.255571 1_555
Bi50 O52 2.259691 1_545
Bi50 O7 2.587527 1_545
Bi50 O92 2.699850 1_555
Bi51 O24 2.117637 1_554
Bi51 O79 2.270700 1_555
Bi51 O59 2.290399 1_555
Bi51 O86 2.504428 1_554
Bi51 O44 2.571618 1_555
Bi52 O21 2.116130 1_555
Bi52 O76 2.252759 1_555
Bi52 O56 2.258479 1_555
Bi52 O41 2.628333 1_555
Bi52 O88 2.691699 1_555
Bi53 O23 2.109431 1_555
Bi53 O58 2.242885 1_555
Bi53 O78 2.257328 1_555
Bi53 O43 2.566364 1_555
Bi53 O85 2.731329 1_565
Bi54 O20 2.114877 1_555
Bi54 O55 2.204364 1_655
Bi54 O75 2.261921 1_555
Bi54 O40 2.584564 1_655
Bi54 O87 2.729759 1_555
Bi55 O22 2.111749 1_555
Bi55 O77 2.234528 1_455
Bi55 O57 2.263372 1_545
Bi55 O42 2.669570 1_555
Bi55 O89 2.683340 1_455
Bi56 O14 2.116325 1_456
Bi56 O79 2.272017 1_556
Bi56 O49 2.290832 1_555
Bi56 O81 2.507257 1_455
Bi56 O19 2.570538 1_455
Bi57 O11 2.112754 1_555
Bi57 O46 2.246578 1_555
Bi57 O76 2.248354 1_555
Bi57 O16 2.631930 1_555
Bi57 O83 2.710131 1_555
Bi58 O13 2.113441 1_555
Bi58 O78 2.246328 1_555
Bi58 O48 2.266324 1_555
Bi58 O18 2.597003 1_555
Bi58 O80 2.685558 1_565
Bi59 O10 2.115749 1_555
Bi59 O45 2.210374 1_555
Bi59 O75 2.260888 1_555
Bi59 O15 2.586573 1_555
Bi59 O82 2.723316 1_555
Bi60 O12 2.111407 1_555
Bi60 O47 2.251483 1_545
Bi60 O77 2.254589 1_555
Bi60 O17 2.599471 1_555
Bi60 O84 2.724437 1_555
O80 Si1 1.671958 1_555
O82 V0 1.751630 1_555
O83 Si0 1.672395 1_555
O84 Si2 1.672294 1_555
O85 Si1 1.671958 1_555
O87 V0 1.751630 1_555
O88 Si0 1.672395 1_555
O89 Si2 1.672294 1_555
O90 V0 1.751797 1_555
O91 Si0 1.673669 1_555
O92 Si2 1.671412 1_555
O93 Si1 1.670332 1_555
O96 V0 1.751630 1_555
O97 Si0 1.672395 1_555
O98 Si2 1.672294 1_555
O99 Si1 1.671958 1_555
