# generated using pymatgen
data_SrYMg14
_symmetry_space_group_name_H-M   'P 1'
_cell_length_a   6.69169501
_cell_length_b   6.69169442
_cell_length_c   10.54690738
_cell_angle_alpha   90.00000000
_cell_angle_beta   90.00000000
_cell_angle_gamma   120.00000296
_symmetry_Int_Tables_number   1
_chemical_formula_structural   SrYMg14
_chemical_formula_sum   'Sr1 Y1 Mg14'
_cell_volume   409.00440946
_cell_formula_units_Z   1
loop_
 _symmetry_equiv_pos_site_id
 _symmetry_equiv_pos_as_xyz
  1  'x, y, z'
loop_
 _atom_site_type_symbol
 _atom_site_label
 _atom_site_symmetry_multiplicity
 _atom_site_fract_x
 _atom_site_fract_y
 _atom_site_fract_z
 _atom_site_occupancy
  Sr  Sr0  1  0.16666700  0.33333300  0.62500000  1
  Y  Y0  1  0.16666700  0.33333300  0.12500000  1
  Mg  Mg0  1  0.17268738  0.83634319  0.12500000  1
  Mg  Mg1  1  0.17496701  0.83748300  0.62500000  1
  Mg  Mg2  1  0.66365681  0.32731262  0.12500000  1
  Mg  Mg3  1  0.66251700  0.32503299  0.62500000  1
  Mg  Mg4  1  0.66365681  0.83634319  0.12500000  1
  Mg  Mg5  1  0.66251700  0.83748300  0.62500000  1
  Mg  Mg6  1  0.33931169  0.16068831  0.37012183  1
  Mg  Mg7  1  0.33931169  0.16068831  0.87987817  1
  Mg  Mg8  1  0.33931169  0.67862437  0.37012183  1
  Mg  Mg9  1  0.33931169  0.67862437  0.87987817  1
  Mg  Mg10  1  0.82137563  0.16068831  0.37012183  1
  Mg  Mg11  1  0.82137563  0.16068831  0.87987817  1
  Mg  Mg12  1  0.83333300  0.66666700  0.37585282  1
  Mg  Mg13  1  0.83333300  0.66666700  0.87414718  1
loop_
_geom_bond_atom_site_label_1
_geom_bond_atom_site_label_2
_geom_bond_distance
_geom_bond_site_symmetry_2
Mg0 Mg8 3.196489 1_555
Mg0 Mg9 3.196489 1_554
Mg0 Mg7 3.196495 1_564
Mg0 Mg6 3.196495 1_565
Mg0 Mg2 3.285417 1_565
Mg0 Mg4 3.285418 1_555
Mg0 Mg12 3.296579 1_455
Mg0 Mg13 3.296579 1_454
Mg0 Y0 3.346029 1_555
Mg0 Y0 3.346029 1_565
Mg0 Mg2 3.406277 1_455
Mg0 Mg4 3.406277 1_455
Mg1 Mg3 3.262536 1_565
Mg1 Mg5 3.262536 1_555
Mg1 Mg8 3.276406 1_555
Mg1 Mg9 3.276406 1_555
Mg1 Mg7 3.276412 1_565
Mg1 Mg6 3.276412 1_565
Mg1 Mg12 3.290092 1_455
Mg1 Mg13 3.290092 1_455
Mg1 Sr0 3.346193 1_555
Mg1 Sr0 3.346193 1_565
Mg1 Mg3 3.429159 1_455
Mg1 Mg5 3.429159 1_455
Mg2 Mg7 3.196495 1_554
Mg2 Mg6 3.196495 1_555
Mg2 Mg4 3.285417 1_545
Mg2 Y0 3.346029 1_655
Mg2 Y0 3.346029 1_555
Mg2 Mg4 3.406277 1_555
Mg3 Mg5 3.262536 1_545
Mg3 Mg7 3.276413 1_555
Mg3 Mg6 3.276413 1_555
Mg3 Sr0 3.346193 1_655
Mg3 Sr0 3.346193 1_555
Mg3 Mg5 3.429159 1_555
Mg4 Mg9 3.196496 1_554
Mg4 Mg8 3.196496 1_555
Mg4 Y0 3.346029 1_555
Mg4 Y0 3.346029 1_665
Mg5 Mg8 3.276413 1_555
Mg5 Mg9 3.276413 1_555
Mg5 Sr0 3.346193 1_555
Mg5 Sr0 3.346193 1_665
Mg6 Mg8 3.225825 1_545
Mg6 Y0 3.269207 1_555
Mg6 Sr0 3.351171 1_555
Mg6 Mg8 3.465870 1_555
Mg7 Mg9 3.225825 1_545
Mg7 Y0 3.269207 1_556
Mg7 Sr0 3.351171 1_555
Mg7 Mg9 3.465870 1_555
Mg8 Y0 3.269214 1_555
Mg8 Sr0 3.351178 1_555
Mg9 Y0 3.269214 1_556
Mg9 Sr0 3.351178 1_555
Mg10 Mg2 3.196489 1_555
Mg10 Mg4 3.196496 1_545
Mg10 Mg8 3.225825 1_545
Mg10 Mg6 3.225825 1_555
Mg10 Y0 3.269214 1_655
Mg10 Mg3 3.276406 1_555
Mg10 Mg5 3.276412 1_545
Mg10 Mg12 3.347110 1_545
Mg10 Mg12 3.347111 1_555
Mg10 Sr0 3.351178 1_655
Mg10 Mg8 3.465870 1_655
Mg10 Mg6 3.465870 1_655
Mg11 Mg2 3.196489 1_556
Mg11 Mg4 3.196496 1_546
Mg11 Mg9 3.225825 1_545
Mg11 Mg7 3.225825 1_555
Mg11 Y0 3.269214 1_656
Mg11 Mg3 3.276406 1_555
Mg11 Mg5 3.276412 1_545
Mg11 Mg13 3.347110 1_545
Mg11 Mg13 3.347111 1_555
Mg11 Sr0 3.351178 1_655
Mg11 Mg9 3.465870 1_655
Mg11 Mg7 3.465870 1_655
Mg12 Mg5 3.290085 1_555
Mg12 Mg3 3.290091 1_555
Mg12 Mg4 3.296572 1_555
Mg12 Mg2 3.296579 1_555
Mg12 Mg6 3.347111 1_555
Mg12 Mg6 3.347111 1_665
Mg12 Mg8 3.347111 1_555
Mg12 Mg8 3.347111 1_655
Mg13 Mg5 3.290085 1_555
Mg13 Mg3 3.290091 1_555
Mg13 Mg4 3.296572 1_556
Mg13 Mg2 3.296579 1_556
Mg13 Mg7 3.347111 1_555
Mg13 Mg7 3.347111 1_665
Mg13 Mg9 3.347111 1_555
Mg13 Mg9 3.347111 1_655
