# generated using pymatgen
data_Mg4Sn6Pt5
_symmetry_space_group_name_H-M   'P 1'
_cell_length_a   18.72187777
_cell_length_b   18.72187777
_cell_length_c   18.72187823
_cell_angle_alpha   13.85738268
_cell_angle_beta   13.85738268
_cell_angle_gamma   13.85738166
_symmetry_Int_Tables_number   1
_chemical_formula_structural   Mg4Sn6Pt5
_chemical_formula_sum   'Mg4 Sn6 Pt5'
_cell_volume   327.58435728
_cell_formula_units_Z   1
loop_
 _symmetry_equiv_pos_site_id
 _symmetry_equiv_pos_as_xyz
  1  'x, y, z'
loop_
 _atom_site_type_symbol
 _atom_site_label
 _atom_site_symmetry_multiplicity
 _atom_site_fract_x
 _atom_site_fract_y
 _atom_site_fract_z
 _atom_site_occupancy
  Mg  Mg0  1  0.70032700  0.70032700  0.70032700  1
  Mg  Mg1  1  0.09994100  0.09994100  0.09994100  1
  Mg  Mg2  1  0.50010500  0.50010500  0.50010500  1
  Mg  Mg3  1  0.89918400  0.89918400  0.89918400  1
  Sn  Sn0  1  0.59804400  0.59804400  0.59804400  1
  Sn  Sn1  1  0.80007700  0.80007700  0.80007700  1
  Sn  Sn2  1  0.20033400  0.20033400  0.20033400  1
  Sn  Sn3  1  0.00191300  0.00191300  0.00191300  1
  Sn  Sn4  1  0.40042600  0.40042600  0.40042600  1
  Sn  Sn5  1  0.29978100  0.29978100  0.29978100  1
  Pt  Pt0  1  0.05054300  0.05054300  0.05054300  1
  Pt  Pt1  1  0.45009900  0.45009900  0.45009900  1
  Pt  Pt2  1  0.84985400  0.84985400  0.84985400  1
  Pt  Pt3  1  0.24978900  0.24978900  0.24978900  1
  Pt  Pt4  1  0.64958200  0.64958200  0.64958200  1
loop_
_geom_bond_atom_site_label_1
_geom_bond_atom_site_label_2
_geom_bond_distance
_geom_bond_site_symmetry_2
Mg0 Pt0 2.771777 1_656
Mg0 Pt0 2.771777 1_566
Mg0 Pt0 2.771777 1_665
Mg0 Pt4 2.822339 1_555
Mg0 Sn3 3.149420 1_656
Mg0 Sn3 3.149420 1_566
Mg0 Sn3 3.149420 1_665
Mg0 Sn4 3.202902 1_655
Mg0 Sn4 3.202902 1_565
Mg0 Sn4 3.202903 1_556
Mg1 Pt0 2.747421 1_555
Mg1 Pt1 2.770686 1_455
Mg1 Pt1 2.770686 1_545
Mg1 Pt1 2.770686 1_554
Mg1 Sn4 3.184155 1_545
Mg1 Sn4 3.184155 1_455
Mg1 Sn4 3.184156 1_554
Mg1 Sn1 3.204097 1_544
Mg1 Sn1 3.204097 1_454
Mg1 Sn1 3.204098 1_445
Mg2 Pt2 2.763086 1_545
Mg2 Pt2 2.763086 1_455
Mg2 Pt2 2.763086 1_554
Mg2 Pt1 2.781237 1_555
Mg2 Sn1 3.200611 1_545
Mg2 Sn1 3.200611 1_455
Mg2 Sn1 3.200612 1_554
Mg2 Sn2 3.207105 1_655
Mg2 Sn2 3.207105 1_565
Mg2 Sn2 3.207106 1_556
Mg3 Pt2 2.743639 1_555
Mg3 Pt3 2.779181 1_566
Mg3 Pt3 2.779181 1_656
Mg3 Pt3 2.779181 1_665
Mg3 Sn2 3.163079 1_566
Mg3 Sn2 3.163079 1_656
Mg3 Sn2 3.163080 1_665
Mg3 Sn0 3.163394 1_565
Mg3 Sn0 3.163394 1_655
Mg3 Sn0 3.163394 1_556
Pt0 Sn3 2.704706 1_555
Pt0 Sn4 2.765557 1_545
Pt0 Sn4 2.765557 1_455
Pt0 Sn4 2.765558 1_554
Pt1 Sn4 2.762716 1_555
Pt1 Sn1 2.767321 1_455
Pt1 Sn1 2.767321 1_545
Pt1 Sn1 2.767321 1_554
Pt2 Sn1 2.768500 1_555
Pt2 Sn2 2.776785 1_566
Pt2 Sn2 2.776785 1_656
Pt2 Sn2 2.776785 1_665
Pt3 Sn0 2.736753 1_455
Pt3 Sn0 2.736753 1_545
Pt3 Sn0 2.736753 1_554
Pt3 Sn2 2.750591 1_555
Pt3 Sn5 2.780458 1_555
Pt4 Sn5 2.764043 1_655
Pt4 Sn5 2.764043 1_565
Pt4 Sn5 2.764043 1_556
Pt4 Sn3 2.813804 1_656
Pt4 Sn3 2.813804 1_566
Pt4 Sn3 2.813804 1_665
Pt4 Sn0 2.866444 1_555
