# generated using pymatgen
data_Eu2MgIrO6
_symmetry_space_group_name_H-M   'P 1'
_cell_length_a   5.48589485
_cell_length_b   5.60612812
_cell_length_c   7.78538160
_cell_angle_alpha   90.00000000
_cell_angle_beta   90.02963606
_cell_angle_gamma   90.00000000
_symmetry_Int_Tables_number   1
_chemical_formula_structural   Eu2MgIrO6
_chemical_formula_sum   'Eu4 Mg2 Ir2 O12'
_cell_volume   239.43649382
_cell_formula_units_Z   2
loop_
 _symmetry_equiv_pos_site_id
 _symmetry_equiv_pos_as_xyz
  1  'x, y, z'
loop_
 _atom_site_type_symbol
 _atom_site_label
 _atom_site_symmetry_multiplicity
 _atom_site_fract_x
 _atom_site_fract_y
 _atom_site_fract_z
 _atom_site_occupancy
  Eu  Eu0  1  0.00958493  0.54779100  0.24894791  1
  Eu  Eu1  1  0.50958493  0.95220900  0.74894791  1
  Eu  Eu2  1  0.99041507  0.45220900  0.75105209  1
  Eu  Eu3  1  0.49041507  0.04779100  0.25105209  1
  Mg  Mg0  1  0.50000000  0.50000000  0.50000000  1
  Mg  Mg1  1  0.00000000  0.00000000  0.00000000  1
  Ir  Ir0  1  0.00000000  0.00000000  0.50000000  1
  Ir  Ir1  1  0.50000000  0.50000000  0.00000000  1
  O  O0  1  0.29450889  0.80103441  0.45707282  1
  O  O1  1  0.79450889  0.69896559  0.95707282  1
  O  O2  1  0.70549111  0.19896559  0.54292718  1
  O  O3  1  0.20549111  0.30103441  0.04292718  1
  O  O4  1  0.91627131  0.97820743  0.25395693  1
  O  O5  1  0.41627131  0.52179257  0.75395693  1
  O  O6  1  0.08372869  0.02179257  0.74604307  1
  O  O7  1  0.58372869  0.47820743  0.24604307  1
  O  O8  1  0.19677486  0.29267901  0.45599869  1
  O  O9  1  0.69677486  0.20732099  0.95599869  1
  O  O10  1  0.80322514  0.70732099  0.54400131  1
  O  O11  1  0.30322514  0.79267901  0.04400131  1
loop_
_geom_bond_atom_site_label_1
_geom_bond_atom_site_label_2
_geom_bond_distance
_geom_bond_site_symmetry_2
Eu0 O7 2.368644 1_455
Eu0 O3 2.375525 1_555
Eu0 O8 2.386778 1_555
Eu0 O4 2.466985 1_455
Eu0 O11 2.651089 1_555
Eu0 O0 2.661130 1_555
Eu0 O1 2.696522 1_454
Eu0 O10 2.713081 1_455
Eu1 O6 2.368644 1_565
Eu1 O2 2.375525 1_565
Eu1 O9 2.386778 1_565
Eu1 O5 2.466985 1_555
Eu1 O10 2.651089 1_555
Eu1 O1 2.661130 1_555
Eu1 O0 2.696522 1_555
Eu1 O11 2.713081 1_556
Eu2 O5 2.368644 1_655
Eu2 O1 2.375525 1_555
Eu2 O10 2.386778 1_555
Eu2 O6 2.466985 1_655
Eu2 O9 2.651089 1_555
Eu2 O2 2.661130 1_555
Eu2 O3 2.696522 1_656
Eu2 O8 2.713081 1_655
Eu3 O4 2.368644 1_545
Eu3 O0 2.375525 1_545
Eu3 O11 2.386778 1_545
Eu3 O7 2.466985 1_555
Eu3 O8 2.651089 1_555
Eu3 O3 2.661130 1_555
Eu3 O2 2.696522 1_555
Eu3 O9 2.713081 1_554
Mg0 O5 2.033710 1_555
Mg0 O7 2.033710 1_555
Mg0 O2 2.056753 1_555
Mg0 O0 2.056753 1_555
Mg0 O8 2.057847 1_555
Mg0 O10 2.057847 1_555
Mg1 O6 2.033710 1_554
Mg1 O4 2.033710 1_445
Mg1 O1 2.056753 1_444
Mg1 O3 2.056753 1_555
Mg1 O9 2.057847 1_454
Mg1 O11 2.057847 1_545
Ir0 O4 1.973395 1_445
Ir0 O6 1.973395 1_555
Ir0 O2 1.991667 1_455
Ir0 O0 1.991667 1_545
Ir0 O10 1.993800 1_445
Ir0 O8 1.993800 1_555
Ir1 O7 1.973395 1_555
Ir1 O5 1.973395 1_554
Ir1 O1 1.991667 1_554
Ir1 O3 1.991667 1_555
Ir1 O9 1.993800 1_554
Ir1 O11 1.993800 1_555
