# generated using pymatgen
data_Pr3Bi(Ru2O7)2
_symmetry_space_group_name_H-M   'P 1'
_cell_length_a   7.42604814
_cell_length_b   7.42604814
_cell_length_c   7.38295789
_cell_angle_alpha   90.00000000
_cell_angle_beta   59.80674329
_cell_angle_gamma   120.00000000
_symmetry_Int_Tables_number   1
_chemical_formula_structural   Pr3Bi(Ru2O7)2
_chemical_formula_sum   'Pr3 Bi1 Ru4 O14'
_cell_volume   287.04904914
_cell_formula_units_Z   1
loop_
 _symmetry_equiv_pos_site_id
 _symmetry_equiv_pos_as_xyz
  1  'x, y, z'
loop_
 _atom_site_type_symbol
 _atom_site_label
 _atom_site_symmetry_multiplicity
 _atom_site_fract_x
 _atom_site_fract_y
 _atom_site_fract_z
 _atom_site_occupancy
  Pr  Pr0  1  0.25000000  0.37500000  0.37500000  1
  Pr  Pr1  1  0.25000000  0.87500000  0.37500000  1
  Pr  Pr2  1  0.75000000  0.37500000  0.37500000  1
  Bi  Bi0  1  0.75000000  0.37500000  0.87500000  1
  Ru  Ru0  1  0.75000000  0.87500000  0.37500000  1
  Ru  Ru1  1  0.25000000  0.87500000  0.87500000  1
  Ru  Ru2  1  0.25000000  0.37500000  0.87500000  1
  Ru  Ru3  1  0.75000000  0.87500000  0.87500000  1
  O  O0  1  0.50002900  0.25001500  0.24995600  1
  O  O1  1  0.99997100  0.49998500  0.50004400  1
  O  O2  1  0.90858200  0.95429100  0.54553200  1
  O  O3  1  0.50017700  0.54588600  0.54553200  1
  O  O4  1  0.50017700  0.95429100  0.54553200  1
  O  O5  1  0.09516500  0.54758300  0.94969700  1
  O  O6  1  0.50272100  0.95513800  0.94969700  1
  O  O7  1  0.50272100  0.54758300  0.94969700  1
  O  O8  1  0.59141800  0.79570900  0.20446800  1
  O  O9  1  0.99982300  0.20411400  0.20446800  1
  O  O10  1  0.99982300  0.79570900  0.20446800  1
  O  O11  1  0.40483500  0.20241700  0.80030300  1
  O  O12  1  0.99727900  0.79486200  0.80030300  1
  O  O13  1  0.99727900  0.20241700  0.80030300  1
loop_
_geom_bond_atom_site_label_1
_geom_bond_atom_site_label_2
_geom_bond_distance
_geom_bond_site_symmetry_2
Bi0 O1 2.253670 1_555
Bi0 O0 2.253670 1_556
Bi0 O12 2.579438 1_555
Bi0 O6 2.579438 1_545
Bi0 O5 2.579438 1_655
Bi0 O11 2.579438 1_555
Bi0 O7 2.579438 1_555
Bi0 O13 2.579438 1_555
O0 Pr0 2.271643 1_555
O0 Pr1 2.271649 1_545
O0 Pr2 2.271649 1_555
O1 Pr0 2.271643 1_655
O1 Pr1 2.271649 1_655
O1 Pr2 2.271649 1_555
O2 Ru3 2.018828 1_555
O2 Ru0 2.028945 1_555
O2 Pr1 2.577241 1_655
O2 Pr0 2.577241 1_665
O3 Ru2 2.018828 1_555
O3 Ru0 2.028945 1_555
O3 Pr0 2.577241 1_555
O3 Pr2 2.577241 1_555
O4 Ru1 2.018828 1_555
O4 Ru0 2.028945 1_555
O4 Pr2 2.577241 1_565
O4 Pr1 2.577241 1_555
O5 Ru1 2.025958 1_555
O5 Ru2 2.025965 1_555
O5 Pr2 2.586824 1_456
O6 Ru3 2.025958 1_555
O6 Ru1 2.025965 1_555
O6 Pr1 2.586824 1_556
O7 Ru3 2.025958 1_555
O7 Ru2 2.025965 1_555
O7 Pr0 2.586824 1_556
O8 Ru3 2.018828 1_554
O8 Ru0 2.028945 1_555
O8 Pr1 2.577241 1_555
O8 Pr0 2.577241 1_555
O9 Ru2 2.018828 1_654
O9 Ru0 2.028945 1_545
O9 Pr0 2.577241 1_655
O9 Pr2 2.577241 1_555
O10 Ru1 2.018828 1_654
O10 Ru0 2.028945 1_555
O10 Pr1 2.577241 1_655
O10 Pr2 2.577241 1_555
O11 Ru1 2.025958 1_545
O11 Ru2 2.025965 1_555
O11 Pr2 2.586824 1_555
O12 Ru3 2.025958 1_555
O12 Ru1 2.025965 1_655
O12 Pr1 2.586824 1_655
O13 Ru3 2.025958 1_545
O13 Ru2 2.025965 1_655
O13 Pr0 2.586824 1_655
