# generated using pymatgen
data_Li9Mn2Co5O16
_symmetry_space_group_name_H-M   'P 1'
_cell_length_a   5.13967100
_cell_length_b   5.85388855
_cell_length_c   9.70312588
_cell_angle_alpha   89.12307068
_cell_angle_beta   79.59472281
_cell_angle_gamma   89.55501006
_symmetry_Int_Tables_number   1
_chemical_formula_structural   Li9Mn2Co5O16
_chemical_formula_sum   'Li9 Mn2 Co5 O16'
_cell_volume   287.10022159
_cell_formula_units_Z   1
loop_
 _symmetry_equiv_pos_site_id
 _symmetry_equiv_pos_as_xyz
  1  'x, y, z'
loop_
 _atom_site_type_symbol
 _atom_site_label
 _atom_site_symmetry_multiplicity
 _atom_site_fract_x
 _atom_site_fract_y
 _atom_site_fract_z
 _atom_site_occupancy
  Li  Li0  1  0.25364500  0.99869500  0.75194400  1
  Li  Li1  1  0.99831800  0.25966000  0.00206200  1
  Li  Li2  1  0.25284300  0.50360600  0.75401900  1
  Li  Li3  1  0.00168200  0.74034000  0.99793800  1
  Li  Li4  1  0.50096000  0.75013500  0.50047700  1
  Li  Li5  1  0.49904000  0.24986500  0.49952300  1
  Li  Li6  1  0.74715700  0.49639400  0.24598100  1
  Li  Li7  1  0.74635500  0.00130500  0.24805600  1
  Li  Li8  1  0.50000000  0.50000000  0.00000000  1
  Mn  Mn0  1  0.75453400  0.74865700  0.75452800  1
  Mn  Mn1  1  0.24546600  0.25134300  0.24547200  1
  Co  Co0  1  0.50000000  0.00000000  0.00000000  1
  Co  Co1  1  0.00000000  0.50000000  0.50000000  1
  Co  Co2  1  0.74443800  0.25302600  0.75926000  1
  Co  Co3  1  0.25556200  0.74697400  0.24074000  1
  Co  Co4  1  0.00000000  0.00000000  0.50000000  1
  O  O0  1  0.10206900  0.75097000  0.62639200  1
  O  O1  1  0.87608600  0.98567900  0.86483800  1
  O  O2  1  0.10419000  0.25932700  0.62072500  1
  O  O3  1  0.87498200  0.51033300  0.86514100  1
  O  O4  1  0.36189900  0.48551200  0.36429600  1
  O  O5  1  0.34730700  0.00882400  0.37342900  1
  O  O6  1  0.58394300  0.23565000  0.12654800  1
  O  O7  1  0.59242900  0.76656600  0.12708700  1
  O  O8  1  0.40757100  0.23343400  0.87291300  1
  O  O9  1  0.12501800  0.48966700  0.13485900  1
  O  O10  1  0.41605700  0.76435000  0.87345200  1
  O  O11  1  0.12391400  0.01432100  0.13516200  1
  O  O12  1  0.65269300  0.99117600  0.62657100  1
  O  O13  1  0.63810100  0.51448800  0.63570400  1
  O  O14  1  0.89581000  0.74067300  0.37927500  1
  O  O15  1  0.89793100  0.24903000  0.37360800  1
loop_
_geom_bond_atom_site_label_1
_geom_bond_atom_site_label_2
_geom_bond_distance
_geom_bond_site_symmetry_2
Li0 O1 2.050198 1_455
Li0 O10 2.063245 1_555
Li0 O8 2.072095 1_565
Li0 O0 2.146728 1_555
Li0 O12 2.187994 1_555
Li0 O2 2.194218 1_565
Li1 O9 2.065700 1_655
Li1 O11 2.092184 1_655
Li1 O3 2.133143 1_554
Li1 O8 2.251019 1_654
Li1 O6 2.254957 1_555
Li1 O1 2.263426 1_544
Li2 O3 2.044389 1_455
Li2 O13 2.102715 1_555
Li2 O0 2.122558 1_555
Li2 O8 2.172706 1_555
Li2 O2 2.175297 1_555
Li2 O10 2.191271 1_555
Li3 O3 2.065700 1_455
Li3 O1 2.092184 1_455
Li3 O9 2.133143 1_556
Li3 O7 2.251019 1_456
Li3 O10 2.254957 1_555
Li3 O11 2.263426 1_566
Li4 O13 2.094029 1_555
Li4 O12 2.123850 1_555
Li4 O14 2.154701 1_555
Li4 O5 2.170837 1_565
Li4 O0 2.188874 1_555
Li4 O4 2.253333 1_555
Li5 O4 2.094029 1_555
Li5 O5 2.123850 1_555
Li5 O2 2.154701 1_555
Li5 O12 2.170837 1_545
Li5 O15 2.188874 1_555
Li5 O13 2.253333 1_555
Li6 O9 2.044389 1_655
Li6 O4 2.102715 1_555
Li6 O15 2.122558 1_555
Li6 O7 2.172706 1_555
Li6 O14 2.175297 1_555
Li6 O6 2.191271 1_555
Li7 O11 2.050198 1_655
Li7 O6 2.063245 1_555
Li7 O7 2.072095 1_545
Li7 O15 2.146728 1_555
Li7 O5 2.187994 1_555
Li7 O14 2.194218 1_545
Li8 O6 2.052173 1_555
Li8 O10 2.052173 1_554
Li8 O8 2.112660 1_554
Li8 O7 2.112660 1_555
Li8 O9 2.125748 1_555
Li8 O3 2.125748 1_554
Mn0 O10 1.908416 1_555
Mn0 O3 1.913718 1_555
Mn0 O1 1.939478 1_555
Mn0 O13 1.968980 1_555
Mn0 O0 1.983493 1_655
Mn0 O12 2.000062 1_555
Mn1 O6 1.908416 1_555
Mn1 O9 1.913718 1_555
Mn1 O11 1.939478 1_555
Mn1 O4 1.968980 1_555
Mn1 O15 1.983493 1_455
Mn1 O5 2.000062 1_555
Co0 O8 1.939992 1_554
Co0 O7 1.939992 1_545
Co0 O6 1.961962 1_555
Co0 O10 1.961962 1_544
Co0 O1 2.132723 1_544
Co0 O11 2.132723 1_555
Co1 O2 1.951472 1_555
Co1 O14 1.951472 1_455
Co1 O0 2.058441 1_555
Co1 O15 2.058441 1_455
Co1 O13 2.077751 1_455
Co1 O4 2.077751 1_555
Co2 O8 1.880561 1_555
Co2 O3 2.021515 1_555
Co2 O1 2.035053 1_545
Co2 O13 2.060626 1_555
Co2 O2 2.080591 1_655
Co2 O12 2.126155 1_545
Co3 O7 1.880561 1_555
Co3 O9 2.021515 1_555
Co3 O11 2.035053 1_565
Co3 O4 2.060626 1_555
Co3 O14 2.080591 1_455
Co3 O5 2.126155 1_565
Co4 O5 1.976098 1_555
Co4 O12 1.976098 1_445
Co4 O0 2.017477 1_545
Co4 O15 2.017477 1_455
Co4 O2 2.063287 1_555
Co4 O14 2.063287 1_445
