# generated using pymatgen
data_MnHC4N3O5
_symmetry_space_group_name_H-M   'P 1'
_cell_length_a   12.30085117
_cell_length_b   12.30085117
_cell_length_c   12.30085117
_cell_angle_alpha   121.16798329
_cell_angle_beta   121.16798329
_cell_angle_gamma   87.98862496
_symmetry_Int_Tables_number   1
_chemical_formula_structural   MnHC4N3O5
_chemical_formula_sum   'Mn8 H8 C32 N24 O40'
_cell_volume   1292.00578419
_cell_formula_units_Z   8
loop_
 _symmetry_equiv_pos_site_id
 _symmetry_equiv_pos_as_xyz
  1  'x, y, z'
loop_
 _atom_site_type_symbol
 _atom_site_label
 _atom_site_symmetry_multiplicity
 _atom_site_fract_x
 _atom_site_fract_y
 _atom_site_fract_z
 _atom_site_occupancy
  Mn  Mn0  1  0.50202000  0.81420800  0.50472500  1
  Mn  Mn1  1  0.30948300  0.99729500  0.49527500  1
  Mn  Mn2  1  0.44051700  0.25270500  0.00472500  1
  Mn  Mn3  1  0.24798000  0.43579200  0.99527500  1
  Mn  Mn4  1  0.00270500  0.49798000  0.31218800  1
  Mn  Mn5  1  0.18579200  0.69051700  0.68781200  1
  Mn  Mn6  1  0.56420800  0.55948300  0.81218800  1
  Mn  Mn7  1  0.74729500  0.75202000  0.18781200  1
  H  H0  1  0.98006300  0.80345200  0.91466800  1
  H  H1  1  0.88878500  0.06539500  0.08533200  1
  H  H2  1  0.86121600  0.18460500  0.41466800  1
  H  H3  1  0.76993700  0.44654800  0.58533200  1
  H  H4  1  0.93460500  0.01993700  0.82338900  1
  H  H5  1  0.19654800  0.11121600  0.17661100  1
  H  H6  1  0.55345200  0.13878500  0.32338900  1
  H  H7  1  0.81539500  0.23006300  0.67661100  1
  C  C0  1  0.61872300  0.69529700  0.69803200  1
  C  C1  1  0.99726500  0.92069000  0.30196800  1
  C  C2  1  0.75273500  0.32931000  0.19803200  1
  C  C3  1  0.13127700  0.55470300  0.80196800  1
  C  C4  1  0.07931000  0.38127700  0.07657400  1
  C  C5  1  0.30470300  0.00273500  0.92342600  1
  C  C6  1  0.44529700  0.24726500  0.57657400  1
  C  C7  1  0.67069000  0.86872300  0.42342600  1
  C  C8  1  0.46894900  0.64803500  0.60857500  1
  C  C9  1  0.03946100  0.86037400  0.39142500  1
  C  C10  1  0.71053900  0.38962600  0.10857500  1
  C  C11  1  0.28105100  0.60196500  0.89142500  1
  C  C12  1  0.13962600  0.53105100  0.17908600  1
  C  C13  1  0.35196500  0.96053900  0.82091400  1
  C  C14  1  0.39803500  0.28946100  0.67908600  1
  C  C15  1  0.61037400  0.71894900  0.32091400  1
  C  C16  1  0.82320000  0.69702800  0.87881400  1
  C  C17  1  0.81821400  0.94438600  0.12118600  1
  C  C18  1  0.93178600  0.30561400  0.37881400  1
  C  C19  1  0.92680000  0.55297200  0.62118600  1
  C  C20  1  0.05561400  0.17680000  0.87382800  1
  C  C21  1  0.30297200  0.18178600  0.12617200  1
  C  C22  1  0.44702800  0.06821400  0.37382800  1
  C  C23  1  0.69438600  0.07320000  0.62617200  1
  C  C24  1  0.80448800  0.80359700  0.74862700  1
  C  C25  1  0.05497000  0.05586100  0.25137300  1
  C  C26  1  0.69503000  0.19413900  0.24862700  1
  C  C27  1  0.94551200  0.44640300  0.75137300  1
  C  C28  1  0.94413900  0.19551200  0.99910900  1
  C  C29  1  0.19640300  0.94503000  0.00089100  1
  C  C30  1  0.55359700  0.30497000  0.49910900  1
  C  C31  1  0.80586100  0.05448800  0.50089100  1
  N  N0  1  0.68401400  0.65625600  0.79090100  1
  N  N1  1  0.86535500  0.89311300  0.20909900  1
  N  N2  1  0.88464500  0.35688700  0.29090100  1
  N  N3  1  0.06598600  0.59374400  0.70909900  1
  N  N4  1  0.10688700  0.31598600  0.97224100  1
  N  N5  1  0.34374400  0.13464500  0.02775900  1
  N  N6  1  0.40625600  0.11535500  0.47224100  1
  N  N7  1  0.64311300  0.93401400  0.52775900  1
  N  N8  1  0.87588900  0.76968100  0.85125800  1
  N  N9  1  0.91842300  0.02463100  0.14874200  1
  N  N10  1  0.83157700  0.22536900  0.35125800  1
  N  N11  1  0.87411100  0.48031900  0.64874200  1
  N  N12  1  0.97536900  0.12411100  0.89379200  1
  N  N13  1  0.23031900  0.08157700  0.10620800  1
  N  N14  1  0.51968100  0.16842300  0.39379200  1
  N  N15  1  0.77463100  0.12588900  0.60620800  1
  N  N16  1  0.66692800  0.76761700  0.67292200  1
  N  N17  1  0.09469500  0.99400500  0.32707800  1
  N  N18  1  0.65530500  0.25599500  0.17292200  1
  N  N19  1  0.08307200  0.48238300  0.82707800  1
  N  N20  1  0.00599500  0.33307200  0.10068900  1
  N  N21  1  0.23238300  0.90530500  0.89931100  1
  N  N22  1  0.51761700  0.34469500  0.60068900  1
  N  N23  1  0.74400500  0.91692800  0.39931100  1
  O  O0  1  0.41927900  0.40993300  0.13132100  1
  O  O1  1  0.27861100  0.28795800  0.86867900  1
  O  O2  1  0.47138900  0.96204200  0.63132100  1
  O  O3  1  0.33072100  0.84006700  0.36867900  1
  O  O4  1  0.71204200  0.58072100  0.99065400  1
  O  O5  1  0.59006700  0.72138900  0.00934600  1
  O  O6  1  0.15993300  0.52861100  0.49065400  1
  O  O7  1  0.03795800  0.66927900  0.50934600  1
  O  O8  1  0.42535000  0.58521600  0.64205000  1
  O  O9  1  0.94316600  0.78329900  0.35795000  1
  O  O10  1  0.80683400  0.46670100  0.14205000  1
  O  O11  1  0.32465000  0.66478400  0.85795000  1
  O  O12  1  0.21670100  0.57465000  0.15986600  1
  O  O13  1  0.41478400  0.05683400  0.84013400  1
  O  O14  1  0.33521600  0.19316600  0.65986600  1
  O  O15  1  0.53329900  0.67535000  0.34013400  1
  O  O16  1  0.40160300  0.67297200  0.50988100  1
  O  O17  1  0.16309100  0.89172100  0.49011900  1
  O  O18  1  0.58690900  0.35827800  0.00988100  1
  O  O19  1  0.34839700  0.57702800  0.99011900  1
  O  O20  1  0.10827800  0.59839700  0.27137000  1
  O  O21  1  0.32702800  0.83690900  0.72863000  1
  O  O22  1  0.42297200  0.41309100  0.77137000  1
  O  O23  1  0.64172200  0.65160300  0.22863000  1
  O  O24  1  0.89624000  0.67326400  0.97428600  1
  O  O25  1  0.69897800  0.92195400  0.02571400  1
  O  O26  1  0.05102200  0.32804600  0.47428600  1
  O  O27  1  0.85376000  0.57673600  0.52571400  1
  O  O28  1  0.07804600  0.10376000  0.77702500  1
  O  O29  1  0.32673600  0.30102200  0.22297500  1
  O  O30  1  0.42326400  0.94897800  0.27702500  1
  O  O31  1  0.67195400  0.14624000  0.72297500  1
  O  O32  1  0.86348800  0.86203400  0.72750200  1
  O  O33  1  0.13453200  0.13598600  0.27249800  1
  O  O34  1  0.61546800  0.11401400  0.22750200  1
  O  O35  1  0.88651200  0.38796600  0.77249800  1
  O  O36  1  0.86401400  0.13651200  0.99854700  1
  O  O37  1  0.13796600  0.86546800  0.00145300  1
  O  O38  1  0.61203400  0.38453200  0.49854700  1
  O  O39  1  0.88598600  0.11348800  0.50145300  1
loop_
_geom_bond_atom_site_label_1
_geom_bond_atom_site_label_2
_geom_bond_distance
_geom_bond_site_symmetry_2
Mn0 O2 1.871332 1_555
Mn0 O3 2.048327 1_555
Mn0 O15 2.084522 1_555
Mn0 N7 2.121937 1_555
Mn0 O16 2.212205 1_555
Mn0 N16 2.350629 1_555
Mn1 O3 1.871340 1_555
Mn1 O2 2.048333 1_555
Mn1 O14 2.084530 1_565
Mn1 N6 2.121955 1_565
Mn1 O17 2.212212 1_555
Mn1 N17 2.350624 1_555
Mn2 O0 1.871340 1_555
Mn2 O1 2.048333 1_554
Mn2 O13 2.084530 1_554
Mn2 N5 2.121955 1_555
Mn2 O18 2.212205 1_555
Mn2 N18 2.350624 1_555
Mn3 O1 1.871332 1_555
Mn3 O0 2.048327 1_556
Mn3 O12 2.084522 1_556
Mn3 N4 2.121937 1_555
Mn3 O19 2.212205 1_555
Mn3 N19 2.350629 1_555
Mn4 O6 1.871344 1_555
Mn4 O7 2.048327 1_555
Mn4 O10 2.084534 1_455
Mn4 N2 2.121945 1_455
Mn4 O20 2.212195 1_555
Mn4 N20 2.350636 1_555
Mn5 O7 1.871340 1_555
Mn5 O6 2.048331 1_555
Mn5 O11 2.084530 1_555
Mn5 N3 2.121945 1_555
Mn5 O21 2.212212 1_555
Mn5 N21 2.350629 1_555
Mn6 O4 1.871340 1_555
Mn6 O5 2.048331 1_556
Mn6 O8 2.084530 1_555
Mn6 N0 2.121945 1_555
Mn6 O22 2.212212 1_555
Mn6 N22 2.350629 1_555
Mn7 O5 1.871344 1_555
Mn7 O4 2.048327 1_554
Mn7 O9 2.084534 1_555
Mn7 N1 2.121945 1_555
Mn7 O23 2.212195 1_555
Mn7 N23 2.350636 1_555
H0 N8 1.044225 1_555
H0 O37 1.615249 1_656
H1 N9 1.044225 1_555
H1 O36 1.615234 1_554
H2 N10 1.044225 1_555
H2 O39 1.615236 1_555
H3 N11 1.044225 1_555
H3 O38 1.615249 1_555
H4 N12 1.044225 1_555
H4 O32 1.615246 1_545
H5 N13 1.044225 1_555
H5 O33 1.615246 1_555
H6 N14 1.044226 1_555
H6 O34 1.615244 1_555
H7 N15 1.044225 1_555
H7 O35 1.615246 1_555
C0 N16 1.322655 1_555
C0 N0 1.331078 1_555
C1 N17 1.322655 1_655
C1 N1 1.331080 1_555
C2 N18 1.322655 1_555
C2 N2 1.331080 1_555
C3 N19 1.322655 1_555
C3 N3 1.331078 1_555
C4 N20 1.322655 1_555
C4 N4 1.331079 1_554
C5 N21 1.322655 1_545
C5 N5 1.331080 1_556
C6 N22 1.322655 1_555
C6 N6 1.331080 1_555
C7 N23 1.322655 1_555
C7 N7 1.331079 1_555
C8 O16 1.257309 1_555
C8 O8 1.281138 1_555
C9 O17 1.257302 1_555
C9 O9 1.281156 1_455
C10 O18 1.257301 1_555
C10 O10 1.281156 1_555
C11 O19 1.257309 1_555
C11 O11 1.281138 1_555
C12 O20 1.257318 1_555
C12 O12 1.281149 1_555
C13 O21 1.257302 1_555
C13 O13 1.281149 1_565
C14 O22 1.257302 1_555
C14 O14 1.281149 1_555
C15 O23 1.257318 1_555
C15 O15 1.281149 1_555
C16 O24 1.231501 1_555
C16 N8 1.383930 1_555
C16 N0 1.390934 1_555
C17 O25 1.231501 1_555
C17 N9 1.383930 1_565
C17 N1 1.390934 1_555
C18 O26 1.231501 1_655
C18 N10 1.383930 1_555
C18 N2 1.390934 1_555
C19 O27 1.231501 1_555
C19 N11 1.383930 1_555
C19 N3 1.390934 1_655
C20 O28 1.231492 1_555
C20 N12 1.383930 1_455
C20 N4 1.390934 1_555
C21 O29 1.231498 1_555
C21 N13 1.383930 1_555
C21 N5 1.390923 1_555
C22 O30 1.231498 1_545
C22 N14 1.383930 1_555
C22 N6 1.390923 1_555
C23 O31 1.231492 1_555
C23 N15 1.383930 1_555
C23 N7 1.390934 1_545
C24 O32 1.239404 1_555
C24 N8 1.382376 1_555
C24 N16 1.386074 1_555
C25 O33 1.239404 1_555
C25 N9 1.382376 1_455
C25 N17 1.386084 1_545
C26 O34 1.239404 1_555
C26 N10 1.382376 1_555
C26 N18 1.386084 1_555
C27 O35 1.239404 1_555
C27 N11 1.382376 1_555
C27 N19 1.386074 1_655
C28 O36 1.239413 1_555
C28 N12 1.382376 1_555
C28 N20 1.386075 1_656
C29 O37 1.239396 1_555
C29 N13 1.382376 1_565
C29 N21 1.386074 1_554
C30 O38 1.239396 1_555
C30 N14 1.382376 1_555
C30 N22 1.386074 1_555
C31 O39 1.239413 1_555
C31 N15 1.382376 1_555
C31 N23 1.386075 1_545
