# generated using pymatgen
data_KNbN2
_symmetry_space_group_name_H-M   'P 1'
_cell_length_a   5.97472900
_cell_length_b   11.95337500
_cell_length_c   16.82529500
_cell_angle_alpha   90.00000000
_cell_angle_beta   90.00000000
_cell_angle_gamma   90.00000000
_symmetry_Int_Tables_number   1
_chemical_formula_structural   KNbN2
_chemical_formula_sum   'K16 Nb16 N32'
_cell_volume   1201.63188394
_cell_formula_units_Z   16
loop_
 _symmetry_equiv_pos_site_id
 _symmetry_equiv_pos_as_xyz
  1  'x, y, z'
loop_
 _atom_site_type_symbol
 _atom_site_label
 _atom_site_symmetry_multiplicity
 _atom_site_fract_x
 _atom_site_fract_y
 _atom_site_fract_z
 _atom_site_occupancy
  K  K0  1  0.26359900  0.00123200  0.44045800  1
  K  K1  1  0.76359900  0.49876800  0.55954200  1
  K  K2  1  0.73640100  0.50123200  0.05954200  1
  K  K3  1  0.23640100  0.99876800  0.94045800  1
  K  K4  1  0.73640100  0.99876800  0.55954200  1
  K  K5  1  0.23640100  0.50123200  0.44045800  1
  K  K6  1  0.26359900  0.49876800  0.94045800  1
  K  K7  1  0.76359900  0.00123200  0.05954200  1
  K  K8  1  0.27647000  0.26272800  0.31558600  1
  K  K9  1  0.77647000  0.23727200  0.68441400  1
  K  K10  1  0.72353000  0.76272800  0.18441400  1
  K  K11  1  0.22353000  0.73727200  0.81558600  1
  K  K12  1  0.72353000  0.73727200  0.68441400  1
  K  K13  1  0.22353000  0.76272800  0.31558600  1
  K  K14  1  0.27647000  0.23727200  0.81558600  1
  K  K15  1  0.77647000  0.26272800  0.18441400  1
  Nb  Nb0  1  0.76705600  0.01100000  0.31034400  1
  Nb  Nb1  1  0.26705600  0.48900000  0.68965600  1
  Nb  Nb2  1  0.23294400  0.51100000  0.18965600  1
  Nb  Nb3  1  0.73294400  0.98900000  0.81034400  1
  Nb  Nb4  1  0.23294400  0.98900000  0.68965600  1
  Nb  Nb5  1  0.73294400  0.51100000  0.31034400  1
  Nb  Nb6  1  0.76705600  0.48900000  0.81034400  1
  Nb  Nb7  1  0.26705600  0.01100000  0.18965600  1
  Nb  Nb8  1  0.76120800  0.26581600  0.43512000  1
  Nb  Nb9  1  0.26120800  0.23418400  0.56488000  1
  Nb  Nb10  1  0.23879200  0.76581600  0.06488000  1
  Nb  Nb11  1  0.73879200  0.73418400  0.93512000  1
  Nb  Nb12  1  0.23879200  0.73418400  0.56488000  1
  Nb  Nb13  1  0.73879200  0.76581600  0.43512000  1
  Nb  Nb14  1  0.76120800  0.23418400  0.93512000  1
  Nb  Nb15  1  0.26120800  0.26581600  0.06488000  1
  N  N0  1  0.03929000  0.29843500  0.49244200  1
  N  N1  1  0.53929000  0.20156500  0.50755800  1
  N  N2  1  0.96071000  0.79843500  0.00755800  1
  N  N3  1  0.46071000  0.70156500  0.99244200  1
  N  N4  1  0.96071000  0.70156500  0.50755800  1
  N  N5  1  0.46071000  0.79843500  0.49244200  1
  N  N6  1  0.03929000  0.20156500  0.99244200  1
  N  N7  1  0.53929000  0.29843500  0.00755800  1
  N  N8  1  0.64404500  0.40770500  0.39534300  1
  N  N9  1  0.14404500  0.09229500  0.60465700  1
  N  N10  1  0.35595500  0.90770500  0.10465700  1
  N  N11  1  0.85595500  0.59229500  0.89534300  1
  N  N12  1  0.35595500  0.59229500  0.60465700  1
  N  N13  1  0.85595500  0.90770500  0.39534300  1
  N  N14  1  0.64404500  0.09229500  0.89534300  1
  N  N15  1  0.14404500  0.40770500  0.10465700  1
  N  N16  1  0.81540200  0.16552200  0.34489700  1
  N  N17  1  0.31540200  0.33447800  0.65510300  1
  N  N18  1  0.18459800  0.66552200  0.15510300  1
  N  N19  1  0.68459800  0.83447800  0.84489700  1
  N  N20  1  0.18459800  0.83447800  0.65510300  1
  N  N21  1  0.68459800  0.66552200  0.34489700  1
  N  N22  1  0.81540200  0.33447800  0.84489700  1
  N  N23  1  0.31540200  0.16552200  0.15510300  1
  N  N24  1  0.54845300  0.48390900  0.21627600  1
  N  N25  1  0.04845300  0.01609100  0.78372400  1
  N  N26  1  0.45154700  0.98390900  0.28372400  1
  N  N27  1  0.95154700  0.51609100  0.71627600  1
  N  N28  1  0.45154700  0.51609100  0.78372400  1
  N  N29  1  0.95154700  0.98390900  0.21627600  1
  N  N30  1  0.54845300  0.01609100  0.71627600  1
  N  N31  1  0.04845300  0.48390900  0.28372400  1
loop_
_geom_bond_atom_site_label_1
_geom_bond_atom_site_label_2
_geom_bond_distance
_geom_bond_site_symmetry_2
K0 N13 2.785318 1_445
K0 N5 2.833417 1_545
K0 N26 2.873698 1_545
K0 N9 3.054108 1_555
K0 N1 3.118038 1_555
K1 N12 2.785318 1_555
K1 N4 2.833417 1_555
K1 N27 2.873698 1_555
K1 N8 3.054108 1_555
K1 N0 3.118038 1_655
K2 N15 2.785318 1_655
K2 N7 2.833417 1_555
K2 N24 2.873698 1_555
K2 N11 3.054108 1_554
K2 N3 3.118038 1_554
K3 N14 2.785318 1_565
K3 N6 2.833417 1_565
K3 N25 2.873698 1_565
K3 N10 3.054108 1_556
K3 N2 3.118038 1_456
K4 N9 2.785318 1_665
K4 N1 2.833417 1_565
K4 N30 2.873698 1_565
K4 N13 3.054108 1_555
K4 N5 3.118038 1_555
K5 N8 2.785318 1_555
K5 N0 2.833417 1_555
K5 N31 2.873698 1_555
K5 N12 3.054108 1_555
K5 N4 3.118038 1_455
K6 N11 2.785318 1_455
K6 N3 2.833417 1_555
K6 N28 2.873698 1_555
K6 N15 3.054108 1_556
K6 N7 3.118038 1_556
K7 N10 2.785318 1_545
K7 N2 2.833417 1_545
K7 N29 2.873698 1_545
K7 N14 3.054108 1_554
K7 N6 3.118038 1_654
K8 N23 2.948754 1_555
K8 N31 3.022144 1_555
K8 N16 3.030181 1_455
K8 N8 3.102753 1_555
K8 N0 3.323376 1_555
K9 N22 2.948754 1_555
K9 N30 3.022144 1_555
K9 N17 3.030181 1_555
K9 N9 3.102753 1_655
K9 N1 3.323376 1_555
K10 N21 2.948754 1_555
K10 N29 3.022144 1_555
K10 N18 3.030181 1_655
K10 N10 3.102753 1_555
K10 N2 3.323376 1_555
K11 N20 2.948754 1_555
K11 N28 3.022144 1_555
K11 N19 3.030181 1_555
K11 N11 3.102753 1_455
K11 N3 3.323376 1_555
K12 N19 2.948754 1_555
K12 N27 3.022144 1_555
K12 N20 3.030181 1_655
K12 N12 3.102753 1_555
K12 N4 3.323376 1_555
K13 N18 2.948754 1_555
K13 N26 3.022144 1_555
K13 N21 3.030181 1_555
K13 N13 3.102753 1_455
K13 N5 3.323376 1_555
K14 N17 2.948754 1_555
K14 N25 3.022144 1_555
K14 N22 3.030181 1_455
K14 N14 3.102753 1_555
K14 N6 3.323376 1_555
K15 N16 2.948754 1_555
K15 N24 3.022144 1_555
K15 N23 3.030181 1_555
K15 N15 3.102753 1_655
K15 N7 3.323376 1_555
N0 Nb9 1.957884 1_555
N0 Nb8 1.960274 1_455
N1 Nb8 1.957884 1_555
N1 Nb9 1.960274 1_555
N2 Nb11 1.957884 1_554
N2 Nb10 1.960274 1_655
N3 Nb10 1.957884 1_556
N3 Nb11 1.960274 1_555
N4 Nb13 1.957884 1_555
N4 Nb12 1.960274 1_655
N5 Nb12 1.957884 1_555
N5 Nb13 1.960274 1_555
N6 Nb15 1.957884 1_556
N6 Nb14 1.960274 1_455
N7 Nb14 1.957884 1_554
N7 Nb15 1.960274 1_555
N8 Nb8 1.953081 1_555
N8 Nb5 1.962636 1_555
N9 Nb9 1.953081 1_555
N9 Nb4 1.962636 1_545
N10 Nb10 1.953081 1_555
N10 Nb7 1.962636 1_565
N11 Nb11 1.953081 1_555
N11 Nb6 1.962636 1_555
N12 Nb12 1.953081 1_555
N12 Nb1 1.962636 1_555
N13 Nb13 1.953081 1_555
N13 Nb0 1.962636 1_565
N14 Nb14 1.953081 1_555
N14 Nb3 1.962636 1_545
N15 Nb15 1.953081 1_555
N15 Nb2 1.962636 1_555
N16 Nb0 1.957818 1_555
N16 Nb8 1.961249 1_555
N17 Nb1 1.957818 1_555
N17 Nb9 1.961249 1_555
N18 Nb2 1.957818 1_555
N18 Nb10 1.961249 1_555
N19 Nb3 1.957818 1_555
N19 Nb11 1.961249 1_555
N20 Nb4 1.957818 1_555
N20 Nb12 1.961249 1_555
N21 Nb5 1.957818 1_555
N21 Nb13 1.961249 1_555
N22 Nb6 1.957818 1_555
N22 Nb14 1.961249 1_555
N23 Nb7 1.957818 1_555
N23 Nb15 1.961249 1_555
N24 Nb5 1.955736 1_555
N24 Nb2 1.964434 1_555
N25 Nb4 1.955736 1_545
N25 Nb3 1.964434 1_445
N26 Nb7 1.955736 1_565
N26 Nb0 1.964434 1_565
N27 Nb6 1.955736 1_555
N27 Nb1 1.964434 1_655
N28 Nb1 1.955736 1_555
N28 Nb6 1.964434 1_555
N29 Nb0 1.955736 1_565
N29 Nb7 1.964434 1_665
N30 Nb3 1.955736 1_545
N30 Nb4 1.964434 1_545
N31 Nb2 1.955736 1_555
N31 Nb5 1.964434 1_455
