# generated using pymatgen
data_MgAgBiO5
_symmetry_space_group_name_H-M   'P 1'
_cell_length_a   10.72779800
_cell_length_b   5.66923600
_cell_length_c   9.38932478
_cell_angle_alpha   58.00613821
_cell_angle_beta   90.00000000
_cell_angle_gamma   90.00000000
_symmetry_Int_Tables_number   1
_chemical_formula_structural   MgAgBiO5
_chemical_formula_sum   'Mg4 Ag4 Bi4 O20'
_cell_volume   484.30509552
_cell_formula_units_Z   4
loop_
 _symmetry_equiv_pos_site_id
 _symmetry_equiv_pos_as_xyz
  1  'x, y, z'
loop_
 _atom_site_type_symbol
 _atom_site_label
 _atom_site_symmetry_multiplicity
 _atom_site_fract_x
 _atom_site_fract_y
 _atom_site_fract_z
 _atom_site_occupancy
  Mg  Mg0  1  0.06119400  0.59062900  0.82626400  1
  Mg  Mg1  1  0.93880600  0.40937100  0.17373600  1
  Mg  Mg2  1  0.56119400  0.40937100  0.67373600  1
  Mg  Mg3  1  0.43880600  0.59062900  0.32626400  1
  Ag  Ag0  1  0.37675600  0.18553700  0.03222400  1
  Ag  Ag1  1  0.62324400  0.81446300  0.96777600  1
  Ag  Ag2  1  0.87675600  0.81446300  0.46777600  1
  Ag  Ag3  1  0.12324400  0.18553700  0.53222400  1
  Bi  Bi0  1  0.89852200  0.08499400  0.83928900  1
  Bi  Bi1  1  0.10147800  0.91500600  0.16071100  1
  Bi  Bi2  1  0.60147800  0.08499400  0.33928900  1
  Bi  Bi3  1  0.39852200  0.91500600  0.66071100  1
  O  O0  1  0.96040700  0.97064000  0.66801000  1
  O  O1  1  0.97191700  0.48782200  0.66688900  1
  O  O2  1  0.79400200  0.16896700  0.29303500  1
  O  O3  1  0.45511600  0.76865000  0.49355200  1
  O  O4  1  0.69538900  0.70867600  0.53091200  1
  O  O5  1  0.80461100  0.70867600  0.03091200  1
  O  O6  1  0.52808300  0.48782200  0.16688900  1
  O  O7  1  0.47191700  0.51217800  0.83311100  1
  O  O8  1  0.54488400  0.23135000  0.50644800  1
  O  O9  1  0.46040700  0.02936000  0.83199000  1
  O  O10  1  0.30461100  0.29132400  0.46908800  1
  O  O11  1  0.03959300  0.02936000  0.33199000  1
  O  O12  1  0.53959300  0.97064000  0.16801000  1
  O  O13  1  0.19538900  0.29132400  0.96908800  1
  O  O14  1  0.95511600  0.23135000  0.00644800  1
  O  O15  1  0.04488400  0.76865000  0.99355200  1
  O  O16  1  0.20599800  0.83103300  0.70696500  1
  O  O17  1  0.02808300  0.51217800  0.33311100  1
  O  O18  1  0.29400200  0.83103300  0.20696500  1
  O  O19  1  0.70599800  0.16896700  0.79303500  1
loop_
_geom_bond_atom_site_label_1
_geom_bond_atom_site_label_2
_geom_bond_distance
_geom_bond_site_symmetry_2
Mg0 O16 1.976776 1_555
Mg0 O13 2.082987 1_555
Mg0 O1 2.102489 1_455
Mg0 O0 2.150838 1_455
Mg0 O14 2.157409 1_456
Mg0 O15 2.279509 1_555
Mg1 O2 1.976776 1_555
Mg1 O5 2.082987 1_555
Mg1 O17 2.102489 1_655
Mg1 O11 2.150838 1_655
Mg1 O15 2.157409 1_654
Mg1 O14 2.279509 1_555
Mg2 O19 1.976776 1_555
Mg2 O4 2.082987 1_555
Mg2 O7 2.102489 1_555
Mg2 O9 2.150838 1_555
Mg2 O3 2.157409 1_555
Mg2 O8 2.279509 1_555
Mg3 O18 1.976776 1_555
Mg3 O10 2.082987 1_555
Mg3 O6 2.102489 1_555
Mg3 O12 2.150838 1_555
Mg3 O8 2.157409 1_555
Mg3 O3 2.279509 1_555
Ag0 O18 2.006254 1_545
Ag0 O13 2.029775 1_554
Ag0 O7 2.073155 1_554
Ag0 O12 2.124948 1_545
Ag0 O9 2.624463 1_554
Ag1 O19 2.006254 1_565
Ag1 O5 2.029775 1_556
Ag1 O6 2.073155 1_556
Ag1 O9 2.124948 1_565
Ag1 O12 2.624463 1_556
Ag2 O2 2.006254 1_565
Ag2 O4 2.029775 1_555
Ag2 O1 2.073155 1_555
Ag2 O11 2.124948 1_665
Ag2 O0 2.624463 1_555
Ag3 O16 2.006254 1_545
Ag3 O10 2.029775 1_555
Ag3 O17 2.073155 1_555
Ag3 O0 2.124948 1_445
Ag3 O11 2.624463 1_555
Bi0 O19 2.112313 1_555
Bi0 O1 2.130343 1_555
Bi0 O0 2.133570 1_545
Bi0 O5 2.176278 1_546
Bi0 O14 2.213677 1_556
Bi0 O15 2.242109 1_645
Bi1 O18 2.112313 1_555
Bi1 O17 2.130343 1_555
Bi1 O11 2.133570 1_565
Bi1 O13 2.176278 1_564
Bi1 O15 2.213677 1_554
Bi1 O14 2.242109 1_465
Bi2 O2 2.112313 1_555
Bi2 O6 2.130343 1_555
Bi2 O12 2.133570 1_545
Bi2 O4 2.176278 1_545
Bi2 O8 2.213677 1_555
Bi2 O3 2.242109 1_545
Bi3 O16 2.112313 1_555
Bi3 O7 2.130343 1_555
Bi3 O9 2.133570 1_565
Bi3 O10 2.176278 1_565
Bi3 O3 2.213677 1_555
Bi3 O8 2.242109 1_565
