# generated using pymatgen
data_MnFeSi4
_symmetry_space_group_name_H-M   'P 1'
_cell_length_a   2.72947000
_cell_length_b   2.72947000
_cell_length_c   10.28549300
_cell_angle_alpha   90.00000000
_cell_angle_beta   90.00000000
_cell_angle_gamma   90.00000000
_symmetry_Int_Tables_number   1
_chemical_formula_structural   MnFeSi4
_chemical_formula_sum   'Mn1 Fe1 Si4'
_cell_volume   76.62698951
_cell_formula_units_Z   1
loop_
 _symmetry_equiv_pos_site_id
 _symmetry_equiv_pos_as_xyz
  1  'x, y, z'
loop_
 _atom_site_type_symbol
 _atom_site_label
 _atom_site_symmetry_multiplicity
 _atom_site_fract_x
 _atom_site_fract_y
 _atom_site_fract_z
 _atom_site_occupancy
  Mn  Mn0  1  0.00000000  0.00000000  0.50000000  1
  Fe  Fe0  1  0.00000000  0.00000000  0.00000000  1
  Si  Si0  1  0.50000000  0.50000000  0.36452600  1
  Si  Si1  1  0.50000000  0.50000000  0.86433900  1
  Si  Si2  1  0.50000000  0.50000000  0.13566100  1
  Si  Si3  1  0.50000000  0.50000000  0.63547400  1
loop_
_geom_bond_atom_site_label_1
_geom_bond_atom_site_label_2
_geom_bond_distance
_geom_bond_site_symmetry_2
Mn0 Si3 2.380465 1_555
Mn0 Si0 2.380465 1_545
Mn0 Si0 2.380465 1_555
Mn0 Si3 2.380465 1_545
Mn0 Si0 2.380465 1_445
Mn0 Si0 2.380465 1_455
Mn0 Si3 2.380465 1_445
Mn0 Si3 2.380465 1_455
Fe0 Si2 2.381591 1_455
Fe0 Si2 2.381591 1_545
Fe0 Si2 2.381591 1_555
Fe0 Si2 2.381591 1_445
Fe0 Si1 2.381591 1_554
Fe0 Si1 2.381591 1_444
Fe0 Si1 2.381591 1_454
Fe0 Si1 2.381591 1_544
Si0 Si2 2.353989 1_555
Si1 Si3 2.353989 1_555
