# generated using pymatgen
data_Sm3Ti4CoO14
_symmetry_space_group_name_H-M   'P 1'
_cell_length_a   7.14304081
_cell_length_b   7.14304081
_cell_length_c   7.14304151
_cell_angle_alpha   61.56331759
_cell_angle_beta   61.56331759
_cell_angle_gamma   61.56332125
_symmetry_Int_Tables_number   1
_chemical_formula_structural   Sm3Ti4CoO14
_chemical_formula_sum   'Sm3 Ti4 Co1 O14'
_cell_volume   266.75161273
_cell_formula_units_Z   1
loop_
 _symmetry_equiv_pos_site_id
 _symmetry_equiv_pos_as_xyz
  1  'x, y, z'
loop_
 _atom_site_type_symbol
 _atom_site_label
 _atom_site_symmetry_multiplicity
 _atom_site_fract_x
 _atom_site_fract_y
 _atom_site_fract_z
 _atom_site_occupancy
  Sm  Sm0  1  0.00000000  0.50000000  0.50000000  1
  Sm  Sm1  1  0.50000000  0.50000000  0.00000000  1
  Sm  Sm2  1  0.50000000  0.00000000  0.50000000  1
  Ti  Ti0  1  0.00000000  0.00000000  0.00000000  1
  Ti  Ti1  1  0.50000000  0.00000000  0.00000000  1
  Ti  Ti2  1  0.00000000  0.00000000  0.50000000  1
  Ti  Ti3  1  0.00000000  0.50000000  0.00000000  1
  Co  Co0  1  0.50000000  0.50000000  0.50000000  1
  O  O0  1  0.93183500  0.32163600  0.32163600  1
  O  O1  1  0.32778200  0.91905200  0.91905200  1
  O  O2  1  0.32163600  0.32163600  0.93183500  1
  O  O3  1  0.91905200  0.91905200  0.32778200  1
  O  O4  1  0.91905200  0.32778200  0.91905200  1
  O  O5  1  0.32163600  0.93183500  0.32163600  1
  O  O6  1  0.06816500  0.67836400  0.67836400  1
  O  O7  1  0.67221800  0.08094800  0.08094800  1
  O  O8  1  0.67836400  0.67836400  0.06816500  1
  O  O9  1  0.08094800  0.08094800  0.67221800  1
  O  O10  1  0.08094800  0.67221800  0.08094800  1
  O  O11  1  0.67836400  0.06816500  0.67836400  1
  O  O12  1  0.38855800  0.38855800  0.38855800  1
  O  O13  1  0.61144200  0.61144200  0.61144200  1
loop_
_geom_bond_atom_site_label_1
_geom_bond_atom_site_label_2
_geom_bond_distance
_geom_bond_site_symmetry_2
Co0 O12 1.926523 1_555
Co0 O13 1.926523 1_555
Co0 O11 2.611819 1_555
Co0 O5 2.611819 1_555
Co0 O6 2.611819 1_555
Co0 O0 2.611819 1_555
Co0 O8 2.611819 1_555
Co0 O2 2.611819 1_555
O0 Ti2 1.968848 1_655
O0 Ti3 1.968848 1_655
O0 Sm0 2.492202 1_655
O1 Ti1 1.963469 1_566
O1 Ti0 1.972403 1_566
O1 Sm1 2.515890 1_556
O1 Sm2 2.515891 1_565
O2 Ti3 1.968848 1_556
O2 Ti1 1.968848 1_556
O2 Sm1 2.492202 1_556
O3 Ti2 1.963469 1_665
O3 Ti0 1.972404 1_665
O3 Sm2 2.515890 1_565
O3 Sm0 2.515890 1_655
O4 Ti3 1.963469 1_656
O4 Ti0 1.972403 1_656
O4 Sm1 2.515890 1_556
O4 Sm0 2.515891 1_655
O5 Ti2 1.968848 1_565
O5 Ti1 1.968848 1_565
O5 Sm2 2.492202 1_565
O6 Ti2 1.968848 1_565
O6 Ti3 1.968848 1_556
O6 Sm0 2.492202 1_555
O7 Ti1 1.963469 1_555
O7 Ti0 1.972403 1_655
O7 Sm1 2.515890 1_555
O7 Sm2 2.515891 1_555
O8 Ti3 1.968848 1_655
O8 Ti1 1.968848 1_565
O8 Sm1 2.492202 1_555
O9 Ti2 1.963469 1_555
O9 Ti0 1.972404 1_556
O9 Sm2 2.515890 1_555
O9 Sm0 2.515890 1_555
O10 Ti3 1.963469 1_555
O10 Ti0 1.972403 1_565
O10 Sm1 2.515890 1_555
O10 Sm0 2.515891 1_555
O11 Ti2 1.968848 1_655
O11 Ti1 1.968848 1_556
O11 Sm2 2.492202 1_555
O12 Sm0 2.316427 1_555
O12 Sm2 2.316427 1_555
O12 Sm1 2.316427 1_555
O13 Sm2 2.316427 1_565
O13 Sm0 2.316427 1_655
O13 Sm1 2.316427 1_556
