# generated using pymatgen
data_MgSn
_symmetry_space_group_name_H-M   'P 1'
_cell_length_a   6.67098880
_cell_length_b   6.67098880
_cell_length_c   30.96275000
_cell_angle_alpha   90.00000000
_cell_angle_beta   90.00000000
_cell_angle_gamma   120.00000793
_symmetry_Int_Tables_number   1
_chemical_formula_structural   MgSn
_chemical_formula_sum   'Mg24 Sn24'
_cell_volume   1193.30248819
_cell_formula_units_Z   24
loop_
 _symmetry_equiv_pos_site_id
 _symmetry_equiv_pos_as_xyz
  1  'x, y, z'
loop_
 _atom_site_type_symbol
 _atom_site_label
 _atom_site_symmetry_multiplicity
 _atom_site_fract_x
 _atom_site_fract_y
 _atom_site_fract_z
 _atom_site_occupancy
  Mg  Mg0_0  1  0.00000000  0.00000000  0.08282250  1
  Mg  Mg0_1  1  0.00000000  0.00000000  0.58282250  1
  Mg  Mg0_2  1  0.00000000  0.50000000  0.08282250  1
  Mg  Mg0_3  1  0.00000000  0.50000000  0.58282250  1
  Mg  Mg0_4  1  0.50000000  0.00000000  0.08282250  1
  Mg  Mg0_5  1  0.50000000  0.00000000  0.58282250  1
  Mg  Mg0_6  1  0.50000000  0.50000000  0.08282250  1
  Mg  Mg0_7  1  0.50000000  0.50000000  0.58282250  1
  Mg  Mg1_0  1  0.16666650  0.33333350  0.16240350  1
  Mg  Mg1_1  1  0.16666650  0.33333350  0.66240350  1
  Mg  Mg1_2  1  0.16666650  0.83333350  0.16240350  1
  Mg  Mg1_3  1  0.16666650  0.83333350  0.66240350  1
  Mg  Mg1_4  1  0.66666650  0.33333350  0.16240350  1
  Mg  Mg1_5  1  0.66666650  0.33333350  0.66240350  1
  Mg  Mg1_6  1  0.66666650  0.83333350  0.16240350  1
  Mg  Mg1_7  1  0.66666650  0.83333350  0.66240350  1
  Mg  Mg2_0  1  0.00000000  0.00000000  0.42071000  1
  Mg  Mg2_1  1  0.00000000  0.00000000  0.92071000  1
  Mg  Mg2_2  1  0.00000000  0.50000000  0.42071000  1
  Mg  Mg2_3  1  0.00000000  0.50000000  0.92071000  1
  Mg  Mg2_4  1  0.50000000  0.00000000  0.42071000  1
  Mg  Mg2_5  1  0.50000000  0.00000000  0.92071000  1
  Mg  Mg2_6  1  0.50000000  0.50000000  0.42071000  1
  Mg  Mg2_7  1  0.50000000  0.50000000  0.92071000  1
  Sn  Sn0_0  1  0.16666650  0.33333350  0.00089600  1
  Sn  Sn0_1  1  0.16666650  0.33333350  0.50089600  1
  Sn  Sn0_2  1  0.16666650  0.83333350  0.00089600  1
  Sn  Sn0_3  1  0.16666650  0.83333350  0.50089600  1
  Sn  Sn0_4  1  0.66666650  0.33333350  0.00089600  1
  Sn  Sn0_5  1  0.66666650  0.33333350  0.50089600  1
  Sn  Sn0_6  1  0.66666650  0.83333350  0.00089600  1
  Sn  Sn0_7  1  0.66666650  0.83333350  0.50089600  1
  Sn  Sn1_0  1  0.00000000  0.00000000  0.24461350  1
  Sn  Sn1_1  1  0.00000000  0.00000000  0.74461350  1
  Sn  Sn1_2  1  0.00000000  0.50000000  0.24461350  1
  Sn  Sn1_3  1  0.00000000  0.50000000  0.74461350  1
  Sn  Sn1_4  1  0.50000000  0.00000000  0.24461350  1
  Sn  Sn1_5  1  0.50000000  0.00000000  0.74461350  1
  Sn  Sn1_6  1  0.50000000  0.50000000  0.24461350  1
  Sn  Sn1_7  1  0.50000000  0.50000000  0.74461350  1
  Sn  Sn2_0  1  0.16666650  0.33333350  0.33855400  1
  Sn  Sn2_1  1  0.16666650  0.33333350  0.83855400  1
  Sn  Sn2_2  1  0.16666650  0.83333350  0.33855400  1
  Sn  Sn2_3  1  0.16666650  0.83333350  0.83855400  1
  Sn  Sn2_4  1  0.66666650  0.33333350  0.33855400  1
  Sn  Sn2_5  1  0.66666650  0.33333350  0.83855400  1
  Sn  Sn2_6  1  0.66666650  0.83333350  0.33855400  1
  Sn  Sn2_7  1  0.66666650  0.83333350  0.83855400  1
loop_
_geom_bond_atom_site_label_1
_geom_bond_atom_site_label_2
_geom_bond_distance
_geom_bond_site_symmetry_2
Mg0_0 Mg1_2 3.127303 1_545
Mg0_0 Mg1_6 3.127305 1_445
Mg0_0 Mg1_0 3.127305 1_555
Mg0_0 Sn0_2 3.184838 1_545
Mg0_0 Sn0_0 3.184840 1_555
Mg0_0 Sn0_6 3.184840 1_445
Mg0_0 Mg0_6 3.335494 1_445
Mg0_0 Mg0_6 3.335494 1_555
Mg0_0 Mg0_4 3.335494 1_455
Mg0_0 Mg0_4 3.335494 1_555
Mg0_0 Mg0_2 3.335494 1_555
Mg0_0 Mg0_2 3.335494 1_545
Mg0_1 Mg1_3 3.127303 1_545
Mg0_1 Mg1_1 3.127305 1_555
Mg0_1 Mg1_7 3.127305 1_445
Mg0_1 Sn0_3 3.184838 1_545
Mg0_1 Sn0_7 3.184840 1_445
Mg0_1 Sn0_1 3.184840 1_555
Mg0_1 Mg0_7 3.335494 1_555
Mg0_1 Mg0_7 3.335494 1_445
Mg0_1 Mg0_3 3.335494 1_545
Mg0_1 Mg0_3 3.335494 1_555
Mg0_1 Mg0_5 3.335494 1_455
Mg0_1 Mg0_5 3.335494 1_555
Mg0_2 Mg1_0 3.127303 1_555
Mg0_2 Mg1_2 3.127305 1_555
Mg0_2 Mg1_4 3.127305 1_455
Mg0_2 Sn0_0 3.184838 1_555
Mg0_2 Sn0_2 3.184840 1_555
Mg0_2 Sn0_4 3.184840 1_455
Mg0_2 Mg0_4 3.335494 1_565
Mg0_2 Mg0_4 3.335494 1_455
Mg0_2 Mg0_6 3.335494 1_555
Mg0_2 Mg0_6 3.335494 1_455
Mg0_3 Mg1_1 3.127303 1_555
Mg0_3 Mg1_3 3.127305 1_555
Mg0_3 Mg1_5 3.127305 1_455
Mg0_3 Sn0_1 3.184838 1_555
Mg0_3 Sn0_3 3.184840 1_555
Mg0_3 Sn0_5 3.184840 1_455
Mg0_3 Mg0_5 3.335494 1_565
Mg0_3 Mg0_5 3.335494 1_455
Mg0_3 Mg0_7 3.335494 1_455
Mg0_3 Mg0_7 3.335494 1_555
Mg0_4 Mg1_6 3.127303 1_545
Mg0_4 Mg1_2 3.127305 1_545
Mg0_4 Mg1_4 3.127305 1_555
Mg0_4 Sn0_6 3.184838 1_545
Mg0_4 Sn0_2 3.184840 1_545
Mg0_4 Sn0_4 3.184840 1_555
Mg0_4 Mg0_6 3.335494 1_555
Mg0_4 Mg0_6 3.335494 1_545
Mg0_5 Mg1_7 3.127303 1_545
Mg0_5 Mg1_5 3.127305 1_555
Mg0_5 Mg1_3 3.127305 1_545
Mg0_5 Sn0_7 3.184838 1_545
Mg0_5 Sn0_3 3.184840 1_545
Mg0_5 Sn0_5 3.184840 1_555
Mg0_5 Mg0_7 3.335494 1_555
Mg0_5 Mg0_7 3.335494 1_545
Mg0_6 Mg1_4 3.127303 1_555
Mg0_6 Mg1_0 3.127305 1_555
Mg0_6 Mg1_6 3.127305 1_555
Mg0_6 Sn0_4 3.184838 1_555
Mg0_6 Sn0_0 3.184840 1_555
Mg0_6 Sn0_6 3.184840 1_555
Mg0_7 Mg1_5 3.127303 1_555
Mg0_7 Mg1_1 3.127305 1_555
Mg0_7 Mg1_7 3.127305 1_555
Mg0_7 Sn0_5 3.184838 1_555
Mg0_7 Sn0_1 3.184840 1_555
Mg0_7 Sn0_7 3.184840 1_555
Mg1_0 Sn1_2 3.191834 1_555
Mg1_0 Sn1_6 3.191836 1_555
Mg1_0 Sn1_0 3.191836 1_555
Mg1_0 Mg1_6 3.335494 1_445
Mg1_0 Mg1_6 3.335494 1_555
Mg1_0 Mg1_4 3.335494 1_555
Mg1_0 Mg1_2 3.335494 1_555
Mg1_0 Mg1_4 3.335494 1_455
Mg1_0 Mg1_2 3.335494 1_545
Mg1_1 Sn1_3 3.191834 1_555
Mg1_1 Sn1_7 3.191836 1_555
Mg1_1 Sn1_1 3.191836 1_555
Mg1_1 Mg1_7 3.335494 1_445
Mg1_1 Mg1_7 3.335494 1_555
Mg1_1 Mg1_3 3.335494 1_555
Mg1_1 Mg1_5 3.335494 1_555
Mg1_1 Mg1_5 3.335494 1_455
Mg1_1 Mg1_3 3.335494 1_545
Mg1_2 Sn1_0 3.191834 1_565
Mg1_2 Sn1_4 3.191836 1_565
Mg1_2 Sn1_2 3.191836 1_555
Mg1_2 Mg1_4 3.335494 1_565
Mg1_2 Mg1_4 3.335494 1_455
Mg1_2 Mg1_6 3.335494 1_555
Mg1_2 Mg1_6 3.335494 1_455
Mg1_3 Sn1_1 3.191834 1_565
Mg1_3 Sn1_3 3.191836 1_555
Mg1_3 Sn1_5 3.191836 1_565
Mg1_3 Mg1_5 3.335494 1_565
Mg1_3 Mg1_5 3.335494 1_455
Mg1_3 Mg1_7 3.335494 1_555
Mg1_3 Mg1_7 3.335494 1_455
Mg1_4 Sn1_6 3.191834 1_555
Mg1_4 Sn1_2 3.191836 1_655
Mg1_4 Sn1_4 3.191836 1_555
Mg1_4 Mg1_6 3.335494 1_545
Mg1_4 Mg1_6 3.335494 1_555
Mg1_5 Sn1_7 3.191834 1_555
Mg1_5 Sn1_5 3.191836 1_555
Mg1_5 Sn1_3 3.191836 1_655
Mg1_5 Mg1_7 3.335494 1_545
Mg1_5 Mg1_7 3.335494 1_555
Mg1_6 Sn1_4 3.191834 1_565
Mg1_6 Sn1_0 3.191836 1_665
Mg1_6 Sn1_6 3.191836 1_555
Mg1_7 Sn1_5 3.191834 1_565
Mg1_7 Sn1_1 3.191836 1_665
Mg1_7 Sn1_7 3.191836 1_555
Mg2_0 Sn0_3 3.142084 1_545
Mg2_0 Sn0_1 3.142086 1_555
Mg2_0 Sn0_7 3.142086 1_445
Mg2_0 Sn2_2 3.190501 1_545
Mg2_0 Sn2_0 3.190502 1_555
Mg2_0 Sn2_6 3.190502 1_445
Mg2_0 Mg2_6 3.335494 1_445
Mg2_0 Mg2_6 3.335494 1_555
Mg2_0 Mg2_2 3.335494 1_545
Mg2_0 Mg2_2 3.335494 1_555
Mg2_0 Mg2_4 3.335494 1_455
Mg2_0 Mg2_4 3.335494 1_555
Mg2_1 Sn0_2 3.142084 1_546
Mg2_1 Sn0_6 3.142086 1_446
Mg2_1 Sn0_0 3.142086 1_556
Mg2_1 Sn2_3 3.190501 1_545
Mg2_1 Sn2_7 3.190502 1_445
Mg2_1 Sn2_1 3.190502 1_555
Mg2_1 Mg2_7 3.335494 1_445
Mg2_1 Mg2_7 3.335494 1_555
Mg2_1 Mg2_5 3.335494 1_555
Mg2_1 Mg2_3 3.335494 1_545
Mg2_1 Mg2_5 3.335494 1_455
Mg2_1 Mg2_3 3.335494 1_555
Mg2_2 Sn0_1 3.142084 1_555
Mg2_2 Sn0_3 3.142086 1_555
Mg2_2 Sn0_5 3.142086 1_455
Mg2_2 Sn2_0 3.190501 1_555
Mg2_2 Sn2_2 3.190502 1_555
Mg2_2 Sn2_4 3.190502 1_455
Mg2_2 Mg2_4 3.335494 1_565
Mg2_2 Mg2_4 3.335494 1_455
Mg2_2 Mg2_6 3.335494 1_455
Mg2_2 Mg2_6 3.335494 1_555
Mg2_3 Sn0_0 3.142084 1_556
Mg2_3 Sn0_2 3.142086 1_556
Mg2_3 Sn0_4 3.142086 1_456
Mg2_3 Sn2_1 3.190501 1_555
Mg2_3 Sn2_3 3.190502 1_555
Mg2_3 Sn2_5 3.190502 1_455
Mg2_3 Mg2_5 3.335494 1_455
Mg2_3 Mg2_5 3.335494 1_565
Mg2_3 Mg2_7 3.335494 1_455
Mg2_3 Mg2_7 3.335494 1_555
Mg2_4 Sn0_7 3.142084 1_545
Mg2_4 Sn0_5 3.142086 1_555
Mg2_4 Sn0_3 3.142086 1_545
Mg2_4 Sn2_6 3.190501 1_545
Mg2_4 Sn2_4 3.190502 1_555
Mg2_4 Sn2_2 3.190502 1_545
Mg2_4 Mg2_6 3.335494 1_555
Mg2_4 Mg2_6 3.335494 1_545
Mg2_5 Sn0_6 3.142084 1_546
Mg2_5 Sn0_2 3.142086 1_546
Mg2_5 Sn0_4 3.142086 1_556
Mg2_5 Sn2_7 3.190501 1_545
Mg2_5 Sn2_3 3.190502 1_545
Mg2_5 Sn2_5 3.190502 1_555
Mg2_5 Mg2_7 3.335494 1_555
Mg2_5 Mg2_7 3.335494 1_545
Mg2_6 Sn0_5 3.142084 1_555
Mg2_6 Sn0_1 3.142086 1_555
Mg2_6 Sn0_7 3.142086 1_555
Mg2_6 Sn2_4 3.190501 1_555
Mg2_6 Sn2_0 3.190502 1_555
Mg2_6 Sn2_6 3.190502 1_555
Mg2_7 Sn0_4 3.142084 1_556
Mg2_7 Sn0_0 3.142086 1_556
Mg2_7 Sn0_6 3.142086 1_556
Mg2_7 Sn2_5 3.190501 1_555
Mg2_7 Sn2_1 3.190502 1_555
Mg2_7 Sn2_7 3.190502 1_555
Sn0_0 Sn0_6 3.335494 1_445
Sn0_0 Sn0_6 3.335494 1_555
Sn0_0 Sn0_2 3.335494 1_555
Sn0_0 Sn0_4 3.335494 1_555
Sn0_0 Sn0_4 3.335494 1_455
Sn0_0 Sn0_2 3.335494 1_545
Sn0_1 Sn0_7 3.335494 1_445
Sn0_1 Sn0_7 3.335494 1_555
Sn0_1 Sn0_5 3.335494 1_555
Sn0_1 Sn0_3 3.335494 1_555
Sn0_1 Sn0_3 3.335494 1_545
Sn0_1 Sn0_5 3.335494 1_455
Sn0_2 Sn0_4 3.335494 1_565
Sn0_2 Sn0_4 3.335494 1_455
Sn0_2 Sn0_6 3.335494 1_555
Sn0_2 Sn0_6 3.335494 1_455
Sn0_3 Sn0_5 3.335494 1_565
Sn0_3 Sn0_5 3.335494 1_455
Sn0_3 Sn0_7 3.335494 1_555
Sn0_3 Sn0_7 3.335494 1_455
Sn0_4 Sn0_6 3.335494 1_545
Sn0_4 Sn0_6 3.335494 1_555
Sn0_5 Sn0_7 3.335494 1_545
Sn0_5 Sn0_7 3.335494 1_555
Sn1_0 Sn1_6 3.335494 1_445
Sn1_0 Sn1_6 3.335494 1_555
Sn1_0 Sn1_2 3.335494 1_545
Sn1_0 Sn1_4 3.335494 1_455
Sn1_0 Sn1_2 3.335494 1_555
Sn1_0 Sn1_4 3.335494 1_555
Sn1_0 Sn2_2 3.488378 1_545
Sn1_0 Sn2_0 3.488380 1_555
Sn1_0 Sn2_6 3.488380 1_445
Sn1_1 Sn1_7 3.335494 1_445
Sn1_1 Sn1_7 3.335494 1_555
Sn1_1 Sn1_5 3.335494 1_555
Sn1_1 Sn1_3 3.335494 1_555
Sn1_1 Sn1_3 3.335494 1_545
Sn1_1 Sn1_5 3.335494 1_455
Sn1_1 Sn2_3 3.488378 1_545
Sn1_1 Sn2_7 3.488380 1_445
Sn1_1 Sn2_1 3.488380 1_555
Sn1_2 Sn1_4 3.335494 1_565
Sn1_2 Sn1_4 3.335494 1_455
Sn1_2 Sn1_6 3.335494 1_555
Sn1_2 Sn1_6 3.335494 1_455
Sn1_2 Sn2_0 3.488378 1_555
Sn1_2 Sn2_4 3.488380 1_455
Sn1_2 Sn2_2 3.488380 1_555
Sn1_3 Sn1_5 3.335494 1_565
Sn1_3 Sn1_5 3.335494 1_455
Sn1_3 Sn1_7 3.335494 1_455
Sn1_3 Sn1_7 3.335494 1_555
Sn1_3 Sn2_1 3.488378 1_555
Sn1_3 Sn2_3 3.488380 1_555
Sn1_3 Sn2_5 3.488380 1_455
Sn1_4 Sn1_6 3.335494 1_555
Sn1_4 Sn1_6 3.335494 1_545
Sn1_4 Sn2_6 3.488378 1_545
Sn1_4 Sn2_4 3.488380 1_555
Sn1_4 Sn2_2 3.488380 1_545
Sn1_5 Sn1_7 3.335494 1_545
Sn1_5 Sn1_7 3.335494 1_555
Sn1_5 Sn2_7 3.488378 1_545
Sn1_5 Sn2_3 3.488380 1_545
Sn1_5 Sn2_5 3.488380 1_555
Sn1_6 Sn2_4 3.488378 1_555
Sn1_6 Sn2_0 3.488380 1_555
Sn1_6 Sn2_6 3.488380 1_555
Sn1_7 Sn2_5 3.488378 1_555
Sn1_7 Sn2_1 3.488380 1_555
Sn1_7 Sn2_7 3.488380 1_555
Sn2_0 Sn2_6 3.335494 1_445
Sn2_0 Sn2_6 3.335494 1_555
Sn2_0 Sn2_4 3.335494 1_555
Sn2_0 Sn2_2 3.335494 1_555
Sn2_0 Sn2_2 3.335494 1_545
Sn2_0 Sn2_4 3.335494 1_455
Sn2_1 Sn2_7 3.335494 1_445
Sn2_1 Sn2_7 3.335494 1_555
Sn2_1 Sn2_5 3.335494 1_555
Sn2_1 Sn2_3 3.335494 1_555
Sn2_1 Sn2_3 3.335494 1_545
Sn2_1 Sn2_5 3.335494 1_455
Sn2_2 Sn2_4 3.335494 1_565
Sn2_2 Sn2_4 3.335494 1_455
Sn2_2 Sn2_6 3.335494 1_555
Sn2_2 Sn2_6 3.335494 1_455
Sn2_3 Sn2_5 3.335494 1_565
Sn2_3 Sn2_5 3.335494 1_455
Sn2_3 Sn2_7 3.335494 1_555
Sn2_3 Sn2_7 3.335494 1_455
Sn2_4 Sn2_6 3.335494 1_545
Sn2_4 Sn2_6 3.335494 1_555
Sn2_5 Sn2_7 3.335494 1_545
Sn2_5 Sn2_7 3.335494 1_555
