# generated using pymatgen
data_TiZnCr(PO4)3
_symmetry_space_group_name_H-M   'P 1'
_cell_length_a   8.54455907
_cell_length_b   8.54455907
_cell_length_c   8.54455831
_cell_angle_alpha   60.37306857
_cell_angle_beta   60.37306857
_cell_angle_gamma   60.37306957
_symmetry_Int_Tables_number   1
_chemical_formula_structural   TiZnCr(PO4)3
_chemical_formula_sum   'Ti2 Zn2 Cr2 P6 O24'
_cell_volume   444.83940944
_cell_formula_units_Z   2
loop_
 _symmetry_equiv_pos_site_id
 _symmetry_equiv_pos_as_xyz
  1  'x, y, z'
loop_
 _atom_site_type_symbol
 _atom_site_label
 _atom_site_symmetry_multiplicity
 _atom_site_fract_x
 _atom_site_fract_y
 _atom_site_fract_z
 _atom_site_occupancy
  Ti  Ti0  1  0.85584800  0.85584800  0.85584800  1
  Ti  Ti1  1  0.35584800  0.35584800  0.35584800  1
  Zn  Zn0  1  0.00172900  0.00172900  0.00172900  1
  Zn  Zn1  1  0.50172900  0.50172900  0.50172900  1
  Cr  Cr0  1  0.64233500  0.64233500  0.64233500  1
  Cr  Cr1  1  0.14233500  0.14233500  0.14233500  1
  P  P0  1  0.24974500  0.95548700  0.54265900  1
  P  P1  1  0.95548700  0.54265900  0.24974500  1
  P  P2  1  0.54265900  0.24974500  0.95548700  1
  P  P3  1  0.45548700  0.74974500  0.04265900  1
  P  P4  1  0.04265900  0.45548700  0.74974500  1
  P  P5  1  0.74974500  0.04265900  0.45548700  1
  O  O0  1  0.68690800  0.88641600  0.49326300  1
  O  O1  1  0.49326300  0.68690800  0.88641600  1
  O  O2  1  0.08598600  0.94569200  0.74024100  1
  O  O3  1  0.88641600  0.49326300  0.68690800  1
  O  O4  1  0.18690800  0.99326300  0.38641600  1
  O  O5  1  0.41208500  0.75941900  0.56130200  1
  O  O6  1  0.94569200  0.74024100  0.08598600  1
  O  O7  1  0.75941900  0.56130200  0.41208500  1
  O  O8  1  0.61989900  0.81269400  0.99829400  1
  O  O9  1  0.56130200  0.41208500  0.75941900  1
  O  O10  1  0.25941900  0.91208500  0.06130200  1
  O  O11  1  0.99829400  0.61989900  0.81269400  1
  O  O12  1  0.99326300  0.38641600  0.18690800  1
  O  O13  1  0.74024100  0.08598600  0.94569200  1
  O  O14  1  0.44569200  0.58598600  0.24024100  1
  O  O15  1  0.38641600  0.18690800  0.99326300  1
  O  O16  1  0.24024100  0.44569200  0.58598600  1
  O  O17  1  0.06130200  0.25941900  0.91208500  1
  O  O18  1  0.58598600  0.24024100  0.44569200  1
  O  O19  1  0.81269400  0.99829400  0.61989900  1
  O  O20  1  0.11989900  0.49829400  0.31269400  1
  O  O21  1  0.91208500  0.06130200  0.25941900  1
  O  O22  1  0.49829400  0.31269400  0.11989900  1
  O  O23  1  0.31269400  0.11989900  0.49829400  1
loop_
_geom_bond_atom_site_label_1
_geom_bond_atom_site_label_2
_geom_bond_distance
_geom_bond_site_symmetry_2
Cr0 O1 1.948407 1_555
Cr0 O0 1.948407 1_555
Cr0 O3 1.948407 1_555
Cr0 O7 2.016636 1_555
Cr0 O5 2.016636 1_555
Cr0 O9 2.016636 1_555
Cr1 O4 1.948407 1_545
Cr1 O15 1.948407 1_554
Cr1 O12 1.948407 1_455
Cr1 O17 2.016636 1_554
Cr1 O10 2.016636 1_545
Cr1 O21 2.016636 1_455
O0 P5 1.511973 1_565
O1 P3 1.511973 1_556
O2 P0 1.567031 1_555
O2 Ti0 2.062571 1_455
O2 Zn0 2.205943 1_566
O3 P4 1.511973 1_655
O4 P0 1.511973 1_555
O5 P0 1.553437 1_555
O5 Zn1 2.179242 1_555
O6 P1 1.567031 1_555
O6 Ti0 2.062571 1_554
O6 Zn0 2.205943 1_665
O7 P1 1.553437 1_555
O7 Zn1 2.179242 1_555
O8 P3 1.557405 1_556
O8 Ti0 1.883378 1_555
O9 P2 1.553437 1_555
O9 Zn1 2.179242 1_555
O10 P3 1.553437 1_555
O10 Zn0 2.179242 1_565
O11 P4 1.557405 1_655
O11 Ti0 1.883378 1_555
O12 P1 1.511973 1_555
O13 P2 1.567031 1_555
O13 Ti0 2.062571 1_545
O13 Zn0 2.205943 1_656
O14 P3 1.567031 1_555
O14 Ti1 2.062571 1_555
O14 Zn1 2.205943 1_555
O15 P2 1.511973 1_555
O16 P4 1.567031 1_555
O16 Ti1 2.062571 1_555
O16 Zn1 2.205943 1_555
O17 P4 1.553437 1_555
O17 Zn0 2.179242 1_556
O18 P5 1.567031 1_555
O18 Ti1 2.062571 1_555
O18 Zn1 2.205943 1_555
O19 P5 1.557405 1_565
O19 Ti0 1.883378 1_555
O20 P1 1.557405 1_455
O20 Ti1 1.883378 1_555
O21 P5 1.553437 1_555
O21 Zn0 2.179242 1_655
O22 P2 1.557405 1_554
O22 Ti1 1.883378 1_555
O23 P0 1.557405 1_545
O23 Ti1 1.883378 1_555
