# generated using pymatgen
data_MgVN2
_symmetry_space_group_name_H-M   'P 1'
_cell_length_a   5.74842600
_cell_length_b   6.64512800
_cell_length_c   5.07491900
_cell_angle_alpha   90.00000000
_cell_angle_beta   90.00000000
_cell_angle_gamma   90.00000000
_symmetry_Int_Tables_number   1
_chemical_formula_structural   MgVN2
_chemical_formula_sum   'Mg4 V4 N8'
_cell_volume   193.85696571
_cell_formula_units_Z   4
loop_
 _symmetry_equiv_pos_site_id
 _symmetry_equiv_pos_as_xyz
  1  'x, y, z'
loop_
 _atom_site_type_symbol
 _atom_site_label
 _atom_site_symmetry_multiplicity
 _atom_site_fract_x
 _atom_site_fract_y
 _atom_site_fract_z
 _atom_site_occupancy
  Mg  Mg0  1  0.58806900  0.87834900  0.99025000  1
  Mg  Mg1  1  0.41193100  0.12165100  0.49025000  1
  Mg  Mg2  1  0.91193100  0.37834900  0.49025000  1
  Mg  Mg3  1  0.08806900  0.62165100  0.99025000  1
  V  V0  1  0.57584600  0.37438300  0.99964600  1
  V  V1  1  0.42415400  0.62561700  0.49964600  1
  V  V2  1  0.92415400  0.87438300  0.49964600  1
  V  V3  1  0.07584600  0.12561700  0.99964600  1
  N  N0  1  0.56558800  0.39067300  0.36767900  1
  N  N1  1  0.43441200  0.60932700  0.86767900  1
  N  N2  1  0.93441200  0.89067300  0.86767900  1
  N  N3  1  0.06558800  0.10932700  0.36767900  1
  N  N4  1  0.60424400  0.85638700  0.41242500  1
  N  N5  1  0.39575600  0.14361300  0.91242500  1
  N  N6  1  0.89575600  0.35638700  0.91242500  1
  N  N7  1  0.10424400  0.64361300  0.41242500  1
loop_
_geom_bond_atom_site_label_1
_geom_bond_atom_site_label_2
_geom_bond_distance
_geom_bond_site_symmetry_2
Mg0 N2 2.087445 1_555
Mg0 N1 2.088766 1_555
Mg0 N5 2.117846 1_565
Mg0 N4 2.149481 1_556
Mg1 N3 2.087445 1_555
Mg1 N0 2.088766 1_555
Mg1 N4 2.117846 1_545
Mg1 N5 2.149481 1_555
Mg2 N0 2.087445 1_555
Mg2 N3 2.088766 1_655
Mg2 N7 2.117846 1_655
Mg2 N6 2.149481 1_555
Mg3 N1 2.087445 1_555
Mg3 N2 2.088766 1_455
Mg3 N6 2.117846 1_455
Mg3 N7 2.149481 1_556
N0 V0 1.871801 1_554
N0 V1 1.883343 1_555
N1 V1 1.871801 1_555
N1 V0 1.883343 1_555
N2 V2 1.871801 1_555
N2 V3 1.883343 1_665
N3 V3 1.871801 1_554
N3 V2 1.883343 1_445
N4 V2 1.895277 1_555
N4 V1 1.902433 1_555
N5 V3 1.895277 1_555
N5 V0 1.902433 1_555
N6 V0 1.895277 1_555
N6 V3 1.902433 1_655
N7 V1 1.895277 1_555
N7 V2 1.902433 1_455
