# generated using pymatgen
data_La11Hg45
_symmetry_space_group_name_H-M   'P 1'
_cell_length_a   15.94553227
_cell_length_b   15.94553227
_cell_length_c   15.94553227
_cell_angle_alpha   60.00000000
_cell_angle_beta   60.00000000
_cell_angle_gamma   60.00000000
_symmetry_Int_Tables_number   1
_chemical_formula_structural   La11Hg45
_chemical_formula_sum   'La22 Hg90'
_cell_volume   2866.83082052
_cell_formula_units_Z   2
loop_
 _symmetry_equiv_pos_site_id
 _symmetry_equiv_pos_as_xyz
  1  'x, y, z'
loop_
 _atom_site_type_symbol
 _atom_site_label
 _atom_site_symmetry_multiplicity
 _atom_site_fract_x
 _atom_site_fract_y
 _atom_site_fract_z
 _atom_site_occupancy
  La  La0  1  0.00000000  0.00000000  0.00000000  1
  La  La1  1  0.01498800  0.33013000  0.63989400  1
  La  La2  1  0.01498800  0.01498800  0.63989400  1
  La  La3  1  0.33013000  0.01498800  0.63989400  1
  La  La4  1  0.01498800  0.63989400  0.33013000  1
  La  La5  1  0.33013000  0.63989400  0.01498800  1
  La  La6  1  0.01498800  0.63989400  0.01498800  1
  La  La7  1  0.63989400  0.01498800  0.01498800  1
  La  La8  1  0.63989400  0.33013000  0.01498800  1
  La  La9  1  0.63989400  0.01498800  0.33013000  1
  La  La10  1  0.33013000  0.01498800  0.01498800  1
  La  La11  1  0.01498800  0.01498800  0.33013000  1
  La  La12  1  0.01498800  0.33013000  0.01498800  1
  La  La13  1  0.25000000  0.25000000  0.25000000  1
  La  La14  1  0.40615800  0.40615800  0.78152600  1
  La  La15  1  0.40615800  0.78152600  0.40615800  1
  La  La16  1  0.78152600  0.40615800  0.40615800  1
  La  La17  1  0.40615800  0.40615800  0.40615800  1
  La  La18  1  0.66164000  0.66164000  0.01508000  1
  La  La19  1  0.66164000  0.01508000  0.66164000  1
  La  La20  1  0.01508000  0.66164000  0.66164000  1
  La  La21  1  0.66164000  0.66164000  0.66164000  1
  Hg  Hg0  1  0.08309300  0.08309300  0.75072100  1
  Hg  Hg1  1  0.08309300  0.75072100  0.08309300  1
  Hg  Hg2  1  0.75072100  0.08309300  0.08309300  1
  Hg  Hg3  1  0.08309300  0.08309300  0.08309300  1
  Hg  Hg4  1  0.91452200  0.91452200  0.25643400  1
  Hg  Hg5  1  0.91452200  0.25643400  0.91452200  1
  Hg  Hg6  1  0.25643400  0.91452200  0.91452200  1
  Hg  Hg7  1  0.91452200  0.91452200  0.91452200  1
  Hg  Hg8  1  0.15461200  0.15461200  0.84538800  1
  Hg  Hg9  1  0.84538800  0.15461200  0.84538800  1
  Hg  Hg10  1  0.15461200  0.84538800  0.84538800  1
  Hg  Hg11  1  0.84538800  0.84538800  0.15461200  1
  Hg  Hg12  1  0.15461200  0.84538800  0.15461200  1
  Hg  Hg13  1  0.84538800  0.15461200  0.15461200  1
  Hg  Hg14  1  0.39178000  0.19966000  0.01678000  1
  Hg  Hg15  1  0.39178000  0.39178000  0.01678000  1
  Hg  Hg16  1  0.19966000  0.39178000  0.01678000  1
  Hg  Hg17  1  0.39178000  0.01678000  0.19966000  1
  Hg  Hg18  1  0.19966000  0.01678000  0.39178000  1
  Hg  Hg19  1  0.39178000  0.01678000  0.39178000  1
  Hg  Hg20  1  0.01678000  0.39178000  0.39178000  1
  Hg  Hg21  1  0.01678000  0.19966000  0.39178000  1
  Hg  Hg22  1  0.01678000  0.39178000  0.19966000  1
  Hg  Hg23  1  0.19966000  0.39178000  0.39178000  1
  Hg  Hg24  1  0.39178000  0.39178000  0.19966000  1
  Hg  Hg25  1  0.39178000  0.19966000  0.39178000  1
  Hg  Hg26  1  0.16267200  0.16267200  0.51198400  1
  Hg  Hg27  1  0.16267200  0.51198400  0.16267200  1
  Hg  Hg28  1  0.51198400  0.16267200  0.16267200  1
  Hg  Hg29  1  0.16267200  0.16267200  0.16267200  1
  Hg  Hg30  1  0.25918100  0.61552100  0.86611700  1
  Hg  Hg31  1  0.25918100  0.25918100  0.86611700  1
  Hg  Hg32  1  0.61552100  0.25918100  0.86611700  1
  Hg  Hg33  1  0.25918100  0.86611700  0.61552100  1
  Hg  Hg34  1  0.61552100  0.86611700  0.25918100  1
  Hg  Hg35  1  0.25918100  0.86611700  0.25918100  1
  Hg  Hg36  1  0.86611700  0.25918100  0.25918100  1
  Hg  Hg37  1  0.86611700  0.61552100  0.25918100  1
  Hg  Hg38  1  0.86611700  0.25918100  0.61552100  1
  Hg  Hg39  1  0.61552100  0.25918100  0.25918100  1
  Hg  Hg40  1  0.25918100  0.25918100  0.61552100  1
  Hg  Hg41  1  0.25918100  0.61552100  0.25918100  1
  Hg  Hg42  1  0.50000000  0.50000000  0.50000000  1
  Hg  Hg43  1  0.64170600  0.45006800  0.26651900  1
  Hg  Hg44  1  0.64170600  0.64170600  0.26651900  1
  Hg  Hg45  1  0.45006800  0.64170600  0.26651900  1
  Hg  Hg46  1  0.64170600  0.26651900  0.45006800  1
  Hg  Hg47  1  0.45006800  0.26651900  0.64170600  1
  Hg  Hg48  1  0.64170600  0.26651900  0.64170600  1
  Hg  Hg49  1  0.26651900  0.64170600  0.64170600  1
  Hg  Hg50  1  0.26651900  0.45006800  0.64170600  1
  Hg  Hg51  1  0.26651900  0.64170600  0.45006800  1
  Hg  Hg52  1  0.45006800  0.64170600  0.64170600  1
  Hg  Hg53  1  0.64170600  0.64170600  0.45006800  1
  Hg  Hg54  1  0.64170600  0.45006800  0.64170600  1
  Hg  Hg55  1  0.51153900  0.83695100  0.13997100  1
  Hg  Hg56  1  0.51153900  0.51153900  0.13997100  1
  Hg  Hg57  1  0.83695100  0.51153900  0.13997100  1
  Hg  Hg58  1  0.51153900  0.13997100  0.83695100  1
  Hg  Hg59  1  0.83695100  0.13997100  0.51153900  1
  Hg  Hg60  1  0.51153900  0.13997100  0.51153900  1
  Hg  Hg61  1  0.13997100  0.51153900  0.51153900  1
  Hg  Hg62  1  0.13997100  0.83695100  0.51153900  1
  Hg  Hg63  1  0.13997100  0.51153900  0.83695100  1
  Hg  Hg64  1  0.83695100  0.51153900  0.51153900  1
  Hg  Hg65  1  0.51153900  0.51153900  0.83695100  1
  Hg  Hg66  1  0.51153900  0.83695100  0.51153900  1
  Hg  Hg67  1  0.75000000  0.75000000  0.75000000  1
  Hg  Hg68  1  0.82830200  0.82830200  0.51509500  1
  Hg  Hg69  1  0.82830200  0.51509500  0.82830200  1
  Hg  Hg70  1  0.51509500  0.82830200  0.82830200  1
  Hg  Hg71  1  0.82830200  0.82830200  0.82830200  1
  Hg  Hg72  1  0.91138600  0.91138600  0.58861400  1
  Hg  Hg73  1  0.58861400  0.91138600  0.58861400  1
  Hg  Hg74  1  0.91138600  0.58861400  0.58861400  1
  Hg  Hg75  1  0.58861400  0.58861400  0.91138600  1
  Hg  Hg76  1  0.91138600  0.58861400  0.91138600  1
  Hg  Hg77  1  0.58861400  0.91138600  0.91138600  1
  Hg  Hg78  1  0.76394000  0.06737900  0.40474200  1
  Hg  Hg79  1  0.76394000  0.76394000  0.40474200  1
  Hg  Hg80  1  0.06737900  0.76394000  0.40474200  1
  Hg  Hg81  1  0.76394000  0.40474200  0.06737900  1
  Hg  Hg82  1  0.06737900  0.40474200  0.76394000  1
  Hg  Hg83  1  0.76394000  0.40474200  0.76394000  1
  Hg  Hg84  1  0.40474200  0.76394000  0.76394000  1
  Hg  Hg85  1  0.40474200  0.06737900  0.76394000  1
  Hg  Hg86  1  0.40474200  0.76394000  0.06737900  1
  Hg  Hg87  1  0.06737900  0.76394000  0.76394000  1
  Hg  Hg88  1  0.76394000  0.76394000  0.06737900  1
  Hg  Hg89  1  0.76394000  0.06737900  0.76394000  1
loop_
_geom_bond_atom_site_label_1
_geom_bond_atom_site_label_2
_geom_bond_distance
_geom_bond_site_symmetry_2
Hg0 Hg8 3.102122 1_555
Hg0 Hg9 3.102122 1_455
Hg0 Hg10 3.102122 1_545
Hg0 Hg26 3.108230 1_555
Hg0 La2 3.240250 1_555
Hg0 La1 3.240250 1_555
Hg0 La3 3.240250 1_555
Hg0 La0 3.245481 1_556
Hg1 Hg12 3.102122 1_555
Hg1 Hg10 3.102122 1_554
Hg1 Hg11 3.102122 1_455
Hg1 Hg27 3.108230 1_555
Hg1 La5 3.240250 1_555
Hg1 La6 3.240250 1_555
Hg1 La4 3.240250 1_555
Hg1 La0 3.245481 1_565
Hg2 Hg9 3.102122 1_554
Hg2 Hg28 3.108230 1_555
Hg2 La7 3.240250 1_555
Hg2 La8 3.240250 1_555
Hg2 La9 3.240250 1_555
Hg2 La0 3.245481 1_655
Hg3 Hg8 3.102122 1_554
Hg3 La12 3.240250 1_555
Hg3 La10 3.240250 1_555
Hg3 La11 3.240250 1_555
Hg3 La0 3.245481 1_555
Hg4 La0 3.338635 1_665
Hg4 Hg68 3.367630 1_555
Hg4 Hg79 3.395876 1_555
Hg4 Hg78 3.395887 1_565
Hg4 Hg80 3.395887 1_655
Hg4 La9 3.583995 1_565
Hg4 La4 3.583995 1_655
Hg4 La11 3.583995 1_665
Hg5 Hg8 3.140297 1_655
Hg5 Hg9 3.140297 1_555
Hg5 La0 3.338635 1_656
Hg5 Hg69 3.367630 1_555
Hg5 Hg83 3.395876 1_555
Hg5 Hg82 3.395887 1_655
Hg5 Hg81 3.395887 1_556
Hg5 La8 3.583995 1_556
Hg5 La1 3.583995 1_655
Hg5 La12 3.583995 1_656
Hg6 Hg8 3.140297 1_565
Hg6 La0 3.338635 1_566
Hg6 Hg70 3.367630 1_555
Hg6 Hg84 3.395876 1_555
Hg6 Hg85 3.395887 1_565
Hg6 Hg86 3.395887 1_556
Hg6 La5 3.583995 1_556
Hg6 La3 3.583995 1_565
Hg6 La10 3.583995 1_566
Hg7 Hg9 3.140297 1_565
Hg7 La0 3.338635 1_666
Hg7 Hg71 3.367617 1_555
Hg7 Hg89 3.395876 1_565
Hg7 Hg88 3.395876 1_556
Hg7 Hg87 3.395876 1_655
Hg7 La7 3.583995 1_566
Hg7 La6 3.583995 1_656
Hg7 La2 3.583995 1_665
Hg8 Hg82 3.256996 1_555
Hg8 Hg85 3.256996 1_555
Hg8 La0 3.486561 1_556
Hg9 La0 3.486561 1_656
Hg10 Hg30 3.090676 1_555
Hg10 Hg33 3.090676 1_555
Hg10 Hg7 3.140297 1_455
Hg10 Hg6 3.140297 1_555
Hg10 Hg87 3.256983 1_555
Hg10 Hg84 3.256996 1_555
Hg10 La0 3.486561 1_566
Hg11 Hg34 3.090676 1_555
Hg11 Hg37 3.090676 1_555
Hg11 Hg2 3.102122 1_565
Hg11 Hg7 3.140297 1_554
Hg11 Hg4 3.140297 1_555
Hg11 Hg88 3.256983 1_555
Hg11 Hg79 3.256996 1_555
Hg11 La0 3.486561 1_665
Hg12 Hg41 3.090676 1_555
Hg12 Hg35 3.090676 1_555
Hg12 Hg3 3.102122 1_565
Hg12 Hg6 3.140297 1_554
Hg12 Hg4 3.140297 1_455
Hg12 Hg86 3.256996 1_555
Hg12 Hg80 3.256996 1_555
Hg12 La0 3.486561 1_565
Hg13 Hg39 3.090676 1_555
Hg13 Hg36 3.090676 1_555
Hg13 Hg2 3.102122 1_555
Hg13 Hg3 3.102122 1_655
Hg13 Hg4 3.140297 1_545
Hg13 Hg5 3.140297 1_554
Hg13 Hg78 3.256996 1_555
Hg13 Hg81 3.256996 1_555
Hg13 La0 3.486561 1_655
Hg14 Hg58 2.865445 1_554
Hg14 Hg17 2.916119 1_555
Hg14 Hg16 3.063456 1_555
Hg14 Hg15 3.063456 1_555
Hg14 Hg28 3.374884 1_555
Hg14 Hg29 3.374884 1_555
Hg14 Hg32 3.454787 1_554
Hg14 Hg31 3.454787 1_554
Hg14 La13 3.513970 1_555
Hg14 La14 3.536878 1_554
Hg14 La7 3.556037 1_555
Hg14 La10 3.556037 1_555
Hg15 Hg65 2.865445 1_554
Hg15 Hg24 2.916119 1_555
Hg15 Hg16 3.063456 1_555
Hg15 Hg27 3.374884 1_555
Hg15 Hg28 3.374884 1_555
Hg15 Hg32 3.454787 1_554
Hg15 Hg30 3.454787 1_554
Hg15 La13 3.513970 1_555
Hg15 La14 3.536878 1_554
Hg15 La5 3.556037 1_555
Hg15 La8 3.556037 1_555
Hg16 Hg63 2.865445 1_554
Hg16 Hg22 2.916119 1_555
Hg16 Hg27 3.374884 1_555
Hg16 Hg29 3.374884 1_555
Hg16 Hg30 3.454787 1_554
Hg16 Hg31 3.454787 1_554
Hg16 La13 3.513970 1_555
Hg16 La14 3.536878 1_554
Hg16 La6 3.556037 1_555
Hg16 La12 3.556037 1_555
Hg17 Hg55 2.865445 1_545
Hg17 Hg19 3.063456 1_555
Hg17 Hg18 3.063456 1_555
Hg17 Hg28 3.374884 1_555
Hg17 Hg29 3.374884 1_555
Hg17 Hg34 3.454787 1_545
Hg17 Hg35 3.454787 1_545
Hg17 La13 3.513970 1_555
Hg17 La15 3.536878 1_545
Hg17 La10 3.556037 1_555
Hg17 La7 3.556037 1_555
Hg18 Hg62 2.865445 1_545
Hg18 Hg21 2.916119 1_555
Hg18 Hg19 3.063456 1_555
Hg18 Hg26 3.374884 1_555
Hg18 Hg29 3.374884 1_555
Hg18 Hg33 3.454787 1_545
Hg18 Hg35 3.454787 1_545
Hg18 La13 3.513970 1_555
Hg18 La15 3.536878 1_545
Hg18 La2 3.556037 1_555
Hg18 La11 3.556037 1_555
Hg19 Hg66 2.865445 1_545
Hg19 Hg25 2.916119 1_555
Hg19 Hg26 3.374884 1_555
Hg19 Hg28 3.374884 1_555
Hg19 Hg34 3.454787 1_545
Hg19 Hg33 3.454787 1_545
Hg19 La13 3.513970 1_555
Hg19 La15 3.536878 1_545
Hg19 La9 3.556037 1_555
Hg19 La3 3.556037 1_555
Hg20 Hg64 2.865445 1_455
Hg20 Hg23 2.916119 1_555
Hg20 Hg21 3.063456 1_555
Hg20 Hg22 3.063456 1_555
Hg20 Hg26 3.374884 1_555
Hg20 Hg27 3.374884 1_555
Hg20 Hg37 3.454787 1_455
Hg20 Hg38 3.454787 1_455
Hg20 La13 3.513970 1_555
Hg20 La16 3.536878 1_455
Hg20 La1 3.556037 1_555
Hg20 La4 3.556037 1_555
Hg21 Hg59 2.865445 1_455
Hg21 Hg22 3.063456 1_555
Hg21 Hg26 3.374884 1_555
Hg21 Hg29 3.374884 1_555
Hg21 Hg38 3.454787 1_455
Hg21 Hg36 3.454787 1_455
Hg21 La13 3.513970 1_555
Hg21 La16 3.536878 1_455
Hg21 La2 3.556037 1_555
Hg21 La11 3.556037 1_555
Hg22 Hg57 2.865445 1_455
Hg22 Hg27 3.374884 1_555
Hg22 Hg29 3.374884 1_555
Hg22 Hg37 3.454787 1_455
Hg22 Hg36 3.454787 1_455
Hg22 La13 3.513970 1_555
Hg22 La16 3.536878 1_455
Hg22 La6 3.556037 1_555
Hg22 La12 3.556037 1_555
Hg23 Hg61 2.865445 1_555
Hg23 Hg24 3.063456 1_555
Hg23 Hg25 3.063456 1_555
Hg23 Hg26 3.374884 1_555
Hg23 Hg27 3.374884 1_555
Hg23 Hg40 3.454787 1_555
Hg23 Hg41 3.454787 1_555
Hg23 La13 3.513970 1_555
Hg23 La17 3.536878 1_555
Hg23 La4 3.556037 1_555
Hg23 La1 3.556037 1_555
Hg24 Hg56 2.865445 1_555
Hg24 Hg25 3.063456 1_555
Hg24 Hg27 3.374884 1_555
Hg24 Hg28 3.374884 1_555
Hg24 Hg39 3.454787 1_555
Hg24 Hg41 3.454787 1_555
Hg24 La13 3.513970 1_555
Hg24 La17 3.536878 1_555
Hg24 La8 3.556037 1_555
Hg24 La5 3.556037 1_555
Hg25 Hg60 2.865445 1_555
Hg25 Hg26 3.374884 1_555
Hg25 Hg28 3.374884 1_555
Hg25 Hg40 3.454787 1_555
Hg25 Hg39 3.454787 1_555
Hg25 La13 3.513970 1_555
Hg25 La17 3.536878 1_555
Hg25 La3 3.556037 1_555
Hg25 La9 3.556037 1_555
Hg26 La2 3.345224 1_555
Hg26 La3 3.345224 1_555
Hg26 La1 3.345224 1_555
Hg26 La13 3.410894 1_555
Hg27 La6 3.345224 1_555
Hg27 La5 3.345224 1_555
Hg27 La4 3.345224 1_555
Hg27 La13 3.410894 1_555
Hg28 La7 3.345224 1_555
Hg28 La8 3.345224 1_555
Hg28 La9 3.345224 1_555
Hg28 La13 3.410894 1_555
Hg29 Hg3 3.108230 1_555
Hg29 La12 3.345224 1_555
Hg29 La10 3.345224 1_555
Hg29 La11 3.345224 1_555
Hg29 La13 3.410894 1_555
Hg30 La6 3.333734 1_556
Hg30 La5 3.333734 1_556
Hg30 Hg52 3.335965 1_555
Hg30 Hg49 3.335972 1_555
Hg30 Hg65 3.374251 1_555
Hg30 Hg63 3.374251 1_555
Hg30 Hg87 3.390893 1_555
Hg30 Hg84 3.390905 1_555
Hg30 La14 3.460456 1_555
Hg31 Hg8 3.090676 1_555
Hg31 La10 3.333734 1_556
Hg31 La12 3.333734 1_556
Hg31 Hg50 3.335966 1_555
Hg31 Hg47 3.335966 1_555
Hg31 Hg63 3.374251 1_555
Hg31 Hg58 3.374251 1_555
Hg31 Hg82 3.390893 1_555
Hg31 Hg85 3.390893 1_555
Hg31 La14 3.460456 1_555
Hg32 Hg9 3.090676 1_555
Hg32 La7 3.333734 1_556
Hg32 La8 3.333734 1_556
Hg32 Hg54 3.335965 1_555
Hg32 Hg48 3.335972 1_555
Hg32 Hg65 3.374251 1_555
Hg32 Hg58 3.374251 1_555
Hg32 Hg89 3.390893 1_555
Hg32 Hg83 3.390905 1_555
Hg32 La14 3.460456 1_555
Hg33 La2 3.333734 1_565
Hg33 La3 3.333734 1_565
Hg33 Hg52 3.335965 1_555
Hg33 Hg49 3.335972 1_555
Hg33 Hg66 3.374251 1_555
Hg33 Hg62 3.374251 1_555
Hg33 Hg87 3.390893 1_555
Hg33 Hg84 3.390905 1_555
Hg33 La15 3.460456 1_555
Hg34 La7 3.333734 1_565
Hg34 La9 3.333734 1_565
Hg34 Hg53 3.335965 1_555
Hg34 Hg44 3.335972 1_555
Hg34 Hg66 3.374251 1_555
Hg34 Hg55 3.374251 1_555
Hg34 Hg88 3.390893 1_555
Hg34 Hg79 3.390905 1_555
Hg34 La15 3.460456 1_555
Hg35 La10 3.333734 1_565
Hg35 La11 3.333734 1_565
Hg35 Hg51 3.335966 1_555
Hg35 Hg45 3.335966 1_555
Hg35 Hg55 3.374251 1_555
Hg35 Hg62 3.374251 1_555
Hg35 Hg80 3.390893 1_555
Hg35 Hg86 3.390893 1_555
Hg35 La15 3.460456 1_555
Hg36 La11 3.333734 1_655
Hg36 La12 3.333734 1_655
Hg36 Hg46 3.335966 1_555
Hg36 Hg43 3.335966 1_555
Hg36 Hg57 3.374251 1_555
Hg36 Hg59 3.374251 1_555
Hg36 Hg78 3.390893 1_555
Hg36 Hg81 3.390893 1_555
Hg36 La16 3.460456 1_555
Hg37 La6 3.333734 1_655
Hg37 La4 3.333734 1_655
Hg37 Hg53 3.335965 1_555
Hg37 Hg44 3.335972 1_555
Hg37 Hg64 3.374251 1_555
Hg37 Hg57 3.374251 1_555
Hg37 Hg88 3.390893 1_555
Hg37 Hg79 3.390905 1_555
Hg37 La16 3.460456 1_555
Hg38 Hg9 3.090676 1_555
Hg38 La2 3.333734 1_655
Hg38 La1 3.333734 1_655
Hg38 Hg54 3.335965 1_555
Hg38 Hg48 3.335972 1_555
Hg38 Hg64 3.374251 1_555
Hg38 Hg59 3.374251 1_555
Hg38 Hg89 3.390893 1_555
Hg38 Hg83 3.390905 1_555
Hg38 La16 3.460456 1_555
Hg39 La8 3.333734 1_555
Hg39 La9 3.333734 1_555
Hg39 Hg46 3.335956 1_555
Hg39 Hg43 3.335956 1_555
Hg39 Hg56 3.374251 1_555
Hg39 Hg60 3.374251 1_555
Hg39 Hg78 3.390902 1_555
Hg39 Hg81 3.390902 1_555
Hg39 La17 3.460456 1_555
Hg40 Hg8 3.090676 1_555
Hg40 La1 3.333734 1_555
Hg40 La3 3.333734 1_555
Hg40 Hg50 3.335956 1_555
Hg40 Hg47 3.335956 1_555
Hg40 Hg60 3.374251 1_555
Hg40 Hg61 3.374251 1_555
Hg40 Hg85 3.390902 1_555
Hg40 Hg82 3.390902 1_555
Hg40 La17 3.460456 1_555
Hg41 La4 3.333734 1_555
Hg41 La5 3.333734 1_555
Hg41 Hg51 3.335956 1_555
Hg41 Hg45 3.335956 1_555
Hg41 Hg56 3.374251 1_555
Hg41 Hg61 3.374251 1_555
Hg41 Hg80 3.390902 1_555
Hg41 Hg86 3.390902 1_555
Hg41 La17 3.460456 1_555
Hg42 La15 3.665320 1_555
Hg42 La16 3.665320 1_555
Hg42 La14 3.665320 1_555
Hg42 La17 3.665320 1_555
Hg43 Hg46 2.926787 1_555
Hg43 Hg81 3.016889 1_555
Hg43 Hg44 3.055770 1_555
Hg43 Hg45 3.055770 1_555
Hg43 Hg56 3.084889 1_555
Hg43 Hg57 3.084902 1_555
Hg43 La17 3.501839 1_555
Hg43 La16 3.501853 1_555
Hg43 La18 3.718746 1_555
Hg44 Hg53 2.926787 1_555
Hg44 Hg88 3.016903 1_555
Hg44 Hg45 3.055770 1_555
Hg44 Hg57 3.084894 1_555
Hg44 Hg55 3.084894 1_555
Hg44 La16 3.501846 1_555
Hg44 La15 3.501846 1_555
Hg44 La18 3.718739 1_555
Hg45 Hg51 2.926787 1_555
Hg45 Hg86 3.016889 1_555
Hg45 Hg56 3.084889 1_555
Hg45 Hg55 3.084902 1_555
Hg45 La17 3.501839 1_555
Hg45 La15 3.501853 1_555
Hg45 La18 3.718746 1_555
Hg46 Hg78 3.016889 1_555
Hg46 Hg47 3.055770 1_555
Hg46 Hg48 3.055770 1_555
Hg46 Hg60 3.084889 1_555
Hg46 Hg59 3.084902 1_555
Hg46 La17 3.501839 1_555
Hg46 La16 3.501853 1_555
Hg46 La19 3.718746 1_555
Hg47 Hg50 2.926787 1_555
Hg47 Hg85 3.016889 1_555
Hg47 Hg48 3.055770 1_555
Hg47 Hg60 3.084889 1_555
Hg47 Hg58 3.084902 1_555
Hg47 La17 3.501839 1_555
Hg47 La14 3.501853 1_555
Hg47 La19 3.718746 1_555
Hg48 Hg54 2.926787 1_555
Hg48 Hg89 3.016903 1_555
Hg48 Hg59 3.084894 1_555
Hg48 Hg58 3.084894 1_555
Hg48 La14 3.501846 1_555
Hg48 La16 3.501846 1_555
Hg48 La19 3.718739 1_555
Hg49 Hg52 2.926787 1_555
Hg49 Hg87 3.016903 1_555
Hg49 Hg50 3.055770 1_555
Hg49 Hg51 3.055770 1_555
Hg49 Hg62 3.084894 1_555
Hg49 Hg63 3.084894 1_555
Hg49 La15 3.501846 1_555
Hg49 La14 3.501846 1_555
Hg49 La20 3.718739 1_555
Hg50 Hg82 3.016889 1_555
Hg50 Hg51 3.055770 1_555
Hg50 Hg61 3.084889 1_555
Hg50 Hg63 3.084902 1_555
Hg50 La17 3.501839 1_555
Hg50 La14 3.501853 1_555
Hg50 La20 3.718746 1_555
Hg51 Hg80 3.016889 1_555
Hg51 Hg61 3.084889 1_555
Hg51 Hg62 3.084902 1_555
Hg51 La17 3.501839 1_555
Hg51 La15 3.501853 1_555
Hg51 La20 3.718746 1_555
Hg52 Hg84 3.016916 1_555
Hg52 Hg53 3.055770 1_555
Hg52 Hg54 3.055770 1_555
Hg52 Hg66 3.084902 1_555
Hg52 Hg65 3.084902 1_555
Hg52 La14 3.501839 1_555
Hg52 La15 3.501839 1_555
Hg52 La21 3.718755 1_555
Hg53 Hg79 3.016916 1_555
Hg53 Hg54 3.055770 1_555
Hg53 Hg64 3.084902 1_555
Hg53 Hg66 3.084902 1_555
Hg53 La15 3.501839 1_555
Hg53 La16 3.501839 1_555
Hg53 La21 3.718755 1_555
Hg54 Hg83 3.016916 1_555
Hg54 Hg64 3.084902 1_555
Hg54 Hg65 3.084902 1_555
Hg54 La14 3.501839 1_555
Hg54 La16 3.501839 1_555
Hg54 La21 3.718755 1_555
Hg55 Hg77 2.976155 1_554
Hg55 Hg86 3.300986 1_555
Hg55 Hg88 3.301000 1_555
Hg55 La18 3.408622 1_555
Hg55 La15 3.495997 1_555
Hg55 La10 3.506244 1_565
Hg55 La7 3.506244 1_565
Hg56 Hg75 2.976155 1_554
Hg56 Hg81 3.300999 1_555
Hg56 Hg86 3.300999 1_555
Hg56 La18 3.408622 1_555
Hg56 La17 3.495997 1_555
Hg56 La8 3.506244 1_555
Hg56 La5 3.506244 1_555
Hg57 Hg76 2.976155 1_554
Hg57 Hg81 3.300986 1_555
Hg57 Hg88 3.301000 1_555
Hg57 La18 3.408622 1_555
Hg57 La16 3.495997 1_555
Hg57 La12 3.506244 1_655
Hg57 La6 3.506244 1_655
Hg58 Hg77 2.976155 1_545
Hg58 Hg85 3.300986 1_555
Hg58 Hg89 3.301000 1_555
Hg58 La19 3.408622 1_555
Hg58 La14 3.495997 1_555
Hg58 La10 3.506244 1_556
Hg58 La7 3.506244 1_556
Hg59 Hg72 2.976155 1_545
Hg59 Hg78 3.300986 1_555
Hg59 Hg89 3.301000 1_555
Hg59 La19 3.408622 1_555
Hg59 La16 3.495997 1_555
Hg59 La11 3.506244 1_655
Hg59 La2 3.506244 1_655
Hg60 Hg73 2.976155 1_545
Hg60 Hg78 3.300999 1_555
Hg60 Hg85 3.300999 1_555
Hg60 La19 3.408622 1_555
Hg60 La17 3.495997 1_555
Hg60 La3 3.506244 1_555
Hg60 La9 3.506244 1_555
Hg61 Hg74 2.976155 1_455
Hg61 Hg80 3.300999 1_555
Hg61 Hg82 3.300999 1_555
Hg61 La20 3.408622 1_555
Hg61 La17 3.495997 1_555
Hg61 La4 3.506244 1_555
Hg61 La1 3.506244 1_555
Hg62 Hg72 2.976155 1_455
Hg62 Hg80 3.300986 1_555
Hg62 Hg87 3.301000 1_555
Hg62 La20 3.408622 1_555
Hg62 La15 3.495997 1_555
Hg62 La11 3.506244 1_565
Hg62 La2 3.506244 1_565
Hg63 Hg76 2.976155 1_455
Hg63 Hg82 3.300986 1_555
Hg63 Hg87 3.301000 1_555
Hg63 La20 3.408622 1_555
Hg63 La14 3.495997 1_555
Hg63 La12 3.506244 1_556
Hg63 La6 3.506244 1_556
Hg64 Hg74 2.976155 1_555
Hg64 Hg79 3.300999 1_555
Hg64 Hg83 3.300999 1_555
Hg64 La21 3.408622 1_555
Hg64 La16 3.495997 1_555
Hg64 La1 3.506244 1_655
Hg64 La4 3.506244 1_655
Hg65 Hg75 2.976155 1_555
Hg65 Hg83 3.300999 1_555
Hg65 Hg84 3.300999 1_555
Hg65 La21 3.408622 1_555
Hg65 La14 3.495997 1_555
Hg65 La5 3.506244 1_556
Hg65 La8 3.506244 1_556
Hg66 Hg73 2.976155 1_555
Hg66 Hg79 3.300999 1_555
Hg66 Hg84 3.300999 1_555
Hg66 La21 3.408622 1_555
Hg66 La15 3.495997 1_555
Hg66 La3 3.506244 1_565
Hg66 La9 3.506244 1_565
Hg67 Hg68 3.058339 1_555
Hg67 Hg69 3.058339 1_555
Hg67 Hg70 3.058339 1_555
Hg67 Hg71 3.058352 1_555
Hg67 La21 3.451202 1_555
Hg67 La19 3.451202 1_565
Hg67 La18 3.451202 1_556
Hg67 La20 3.451202 1_655
Hg68 Hg72 3.121840 1_555
Hg68 Hg74 3.121854 1_555
Hg68 Hg73 3.121854 1_555
Hg68 Hg79 3.141321 1_555
Hg68 Hg80 3.141321 1_655
Hg68 Hg78 3.141321 1_565
Hg68 La19 3.771945 1_565
Hg68 La20 3.771945 1_655
Hg68 La21 3.771957 1_555
Hg69 Hg76 3.121840 1_555
Hg69 Hg74 3.121854 1_555
Hg69 Hg75 3.121854 1_555
Hg69 Hg83 3.141321 1_555
Hg69 Hg82 3.141321 1_655
Hg69 Hg81 3.141321 1_556
Hg69 La18 3.771945 1_556
Hg69 La20 3.771945 1_655
Hg69 La21 3.771957 1_555
Hg70 Hg77 3.121840 1_555
Hg70 Hg73 3.121854 1_555
Hg70 Hg75 3.121854 1_555
Hg70 Hg84 3.141321 1_555
Hg70 Hg85 3.141321 1_565
Hg70 Hg86 3.141321 1_556
Hg70 La19 3.771945 1_565
Hg70 La18 3.771945 1_556
Hg70 La21 3.771957 1_555
Hg71 Hg76 3.121853 1_555
Hg71 Hg77 3.121853 1_555
Hg71 Hg72 3.121853 1_555
Hg71 Hg87 3.141321 1_655
Hg71 Hg88 3.141321 1_556
Hg71 Hg89 3.141321 1_565
Hg71 La19 3.771956 1_565
Hg71 La18 3.771956 1_556
Hg71 La20 3.771956 1_655
Hg72 La19 3.263796 1_565
Hg72 La20 3.263796 1_655
Hg72 La11 3.399623 1_665
Hg72 La2 3.399623 1_665
Hg73 La21 3.263796 1_555
Hg73 La19 3.263796 1_565
Hg73 La3 3.399623 1_565
Hg73 La9 3.399623 1_565
Hg74 La21 3.263796 1_555
Hg74 La20 3.263796 1_655
Hg74 La4 3.399623 1_655
Hg74 La1 3.399623 1_655
Hg75 La21 3.263796 1_555
Hg75 La18 3.263796 1_556
Hg75 La5 3.399623 1_556
Hg75 La8 3.399623 1_556
Hg76 La18 3.263796 1_556
Hg76 La20 3.263796 1_655
Hg76 La12 3.399623 1_656
Hg76 La6 3.399623 1_656
Hg77 La19 3.263796 1_565
Hg77 La18 3.263796 1_556
Hg77 La10 3.399623 1_566
Hg77 La7 3.399623 1_566
Hg78 La11 3.320426 1_655
Hg78 La9 3.320440 1_555
Hg78 La19 3.376203 1_555
Hg79 La9 3.320428 1_565
Hg79 La4 3.320428 1_655
Hg79 La21 3.376205 1_555
Hg80 La11 3.320426 1_565
Hg80 La4 3.320440 1_555
Hg80 La20 3.376203 1_555
Hg81 La12 3.320426 1_655
Hg81 La8 3.320440 1_555
Hg81 La18 3.376203 1_555
Hg82 La12 3.320426 1_556
Hg82 La1 3.320440 1_555
Hg82 La20 3.376203 1_555
Hg83 Hg9 3.256996 1_555
Hg83 La1 3.320428 1_655
Hg83 La8 3.320428 1_556
Hg83 La21 3.376205 1_555
Hg84 La3 3.320428 1_565
Hg84 La5 3.320428 1_556
Hg84 La21 3.376205 1_555
Hg85 La10 3.320426 1_556
Hg85 La3 3.320440 1_555
Hg85 La19 3.376203 1_555
Hg86 La10 3.320426 1_565
Hg86 La5 3.320440 1_555
Hg86 La18 3.376203 1_555
Hg87 La6 3.320427 1_556
Hg87 La2 3.320427 1_565
Hg87 La20 3.376217 1_555
Hg88 La7 3.320427 1_565
Hg88 La6 3.320427 1_655
Hg88 La18 3.376217 1_555
Hg89 Hg9 3.256983 1_555
Hg89 La7 3.320427 1_556
Hg89 La2 3.320427 1_655
Hg89 La19 3.376217 1_555
