# generated using pymatgen
data_AlV6Sn
_symmetry_space_group_name_H-M   'P 1'
_cell_length_a   4.86498560
_cell_length_b   4.86510355
_cell_length_c   4.86501659
_cell_angle_alpha   90.00000000
_cell_angle_beta   90.00000000
_cell_angle_gamma   90.00000000
_symmetry_Int_Tables_number   1
_chemical_formula_structural   AlV6Sn
_chemical_formula_sum   'Al1 V6 Sn1'
_cell_volume   115.14841730
_cell_formula_units_Z   1
loop_
 _symmetry_equiv_pos_site_id
 _symmetry_equiv_pos_as_xyz
  1  'x, y, z'
loop_
 _atom_site_type_symbol
 _atom_site_label
 _atom_site_symmetry_multiplicity
 _atom_site_fract_x
 _atom_site_fract_y
 _atom_site_fract_z
 _atom_site_occupancy
  Al  Al0  1  0.50000000  0.50000000  0.50000000  1
  V  V0  1  0.00000000  0.50000000  0.73660114  1
  V  V1  1  0.50000000  0.26339400  -0.00000000  1
  V  V2  1  0.73660380  0.00000000  0.50000000  1
  V  V3  1  0.00000000  0.50000000  0.26339886  1
  V  V4  1  0.50000000  0.73660600  -0.00000000  1
  V  V5  1  0.26339620  0.00000000  0.50000000  1
  Sn  Sn0  1  0.00000000  0.00000000  -0.00000000  1
loop_
_geom_bond_atom_site_label_1
_geom_bond_atom_site_label_2
_geom_bond_distance
_geom_bond_site_symmetry_2
Al0 V0 2.691093 1_655
Al0 V3 2.691093 1_555
Al0 V3 2.691093 1_655
Al0 V0 2.691093 1_555
Al0 V4 2.691126 1_555
Al0 V4 2.691126 1_556
Al0 V1 2.691126 1_555
Al0 V1 2.691126 1_556
Al0 V2 2.691148 1_565
Al0 V2 2.691148 1_555
Al0 V5 2.691148 1_565
Al0 V5 2.691148 1_555
V0 V3 2.302137 1_555
V0 V3 2.562880 1_556
V0 V4 2.980632 1_456
V0 V4 2.980632 1_556
V0 V1 2.980632 1_556
V0 V1 2.980632 1_456
V0 V5 2.980654 1_555
V0 V5 2.980654 1_565
V0 V2 2.980654 1_455
V0 V2 2.980654 1_465
V1 V4 2.302225 1_555
V1 V4 2.562878 1_545
V1 V2 2.980630 1_554
V1 V2 2.980630 1_555
V1 V5 2.980630 1_555
V1 V5 2.980630 1_554
V1 V3 2.980632 1_555
V1 V3 2.980632 1_655
V2 V5 2.302148 1_555
V2 V5 2.562837 1_655
V2 V4 2.980630 1_545
V2 V4 2.980630 1_546
V2 V3 2.980654 1_645
V2 V3 2.980654 1_655
V3 V4 2.980632 1_455
V3 V4 2.980632 1_555
V3 V5 2.980654 1_555
V3 V5 2.980654 1_565
V4 V5 2.980630 1_565
V4 V5 2.980630 1_564
Sn0 V1 2.749383 1_555
Sn0 V1 2.749383 1_455
Sn0 V4 2.749383 1_445
Sn0 V4 2.749383 1_545
Sn0 V5 2.749387 1_554
Sn0 V5 2.749387 1_555
Sn0 V2 2.749387 1_455
Sn0 V2 2.749387 1_454
Sn0 V0 2.749436 1_554
Sn0 V3 2.749436 1_545
Sn0 V0 2.749436 1_544
Sn0 V3 2.749436 1_555
