# generated using pymatgen
data_Al
_symmetry_space_group_name_H-M   'P 1'
_cell_length_a   12.16816738
_cell_length_b   12.37806644
_cell_length_c   11.78519930
_cell_angle_alpha   93.67854664
_cell_angle_beta   96.53800846
_cell_angle_gamma   93.04889641
_symmetry_Int_Tables_number   1
_chemical_formula_structural   Al
_chemical_formula_sum   Al100
_cell_volume   1756.61127516
_cell_formula_units_Z   100
loop_
 _symmetry_equiv_pos_site_id
 _symmetry_equiv_pos_as_xyz
  1  'x, y, z'
loop_
 _atom_site_type_symbol
 _atom_site_label
 _atom_site_symmetry_multiplicity
 _atom_site_fract_x
 _atom_site_fract_y
 _atom_site_fract_z
 _atom_site_occupancy
  Al  Al0  1  0.03189352  0.80689538  0.22895801  1
  Al  Al1  1  0.30225700  0.21258053  0.28392011  1
  Al  Al2  1  0.82809493  0.43283735  0.56181164  1
  Al  Al3  1  0.59751700  0.71772768  0.75355939  1
  Al  Al4  1  0.90916263  0.18033519  0.82626685  1
  Al  Al5  1  0.74309680  0.47581964  0.99531641  1
  Al  Al6  1  0.91895438  0.43412478  0.17696050  1
  Al  Al7  1  0.27071717  0.23137852  0.63893137  1
  Al  Al8  1  0.89901053  0.63820954  0.08580812  1
  Al  Al9  1  0.15170947  0.16094561  0.09456210  1
  Al  Al10  1  0.38288068  0.25171208  0.86291786  1
  Al  Al11  1  0.63082047  0.62651139  0.31860074  1
  Al  Al12  1  0.87838504  0.84737987  0.69371894  1
  Al  Al13  1  0.04661898  0.46948700  0.42467198  1
  Al  Al14  1  0.14399984  0.93658678  0.09248249  1
  Al  Al15  1  0.83826879  0.27933210  0.01443193  1
  Al  Al16  1  0.08756002  0.59046893  0.22705125  1
  Al  Al17  1  0.30447321  0.33196147  0.06154749  1
  Al  Al18  1  0.73791642  0.09759475  0.33236909  1
  Al  Al19  1  0.14352627  0.37445775  0.21821647  1
  Al  Al20  1  0.80048445  0.76650491  0.46217317  1
  Al  Al21  1  0.49889605  0.07230373  0.90541985  1
  Al  Al22  1  0.24286819  0.84280687  0.89594559  1
  Al  Al23  1  0.31969476  0.41933258  0.39637682  1
  Al  Al24  1  0.86158223  0.32070696  0.36320812  1
  Al  Al25  1  0.83605197  0.38663421  0.79195313  1
  Al  Al26  1  0.75424547  0.90480272  0.06982958  1
  Al  Al27  1  0.13554027  0.05566338  0.30183495  1
  Al  Al28  1  0.80772054  0.20396805  0.57177406  1
  Al  Al29  1  0.20967607  0.38549761  0.82409962  1
  Al  Al30  1  0.24261061  0.62565382  0.41721487  1
  Al  Al31  1  0.37449983  0.91667645  0.12312629  1
  Al  Al32  1  0.64477635  0.28212003  0.39647670  1
  Al  Al33  1  0.03907761  0.72847221  0.80289809  1
  Al  Al34  1  0.38581506  0.72678813  0.79291534  1
  Al  Al35  1  0.56020642  0.77566289  0.15504648  1
  Al  Al36  1  0.43670070  0.16832873  0.10565407  1
  Al  Al37  1  0.64212335  0.27159051  0.85512656  1
  Al  Al38  1  0.99900543  0.52525099  0.92357945  1
  Al  Al39  1  0.97060999  0.21030127  0.21031441  1
  Al  Al40  1  0.14652001  0.06208168  0.54185066  1
  Al  Al41  1  0.47761255  0.36385396  0.25068807  1
  Al  Al42  1  0.51330211  0.93223441  0.72028869  1
  Al  Al43  1  0.11508408  0.71467298  0.03189306  1
  Al  Al44  1  0.34889318  0.81412916  0.58156485  1
  Al  Al45  1  0.92382144  0.82532480  0.96459009  1
  Al  Al46  1  0.26528249  0.75467127  0.22977365  1
  Al  Al47  1  0.54716148  0.46924460  0.47122437  1
  Al  Al48  1  0.79879007  0.76095081  0.23222417  1
  Al  Al49  1  0.03179435  0.48517726  0.70071056  1
  Al  Al50  1  0.95515706  0.12775158  0.42842118  1
  Al  Al51  1  0.44599368  0.25821695  0.48369458  1
  Al  Al52  1  0.16739485  0.65715676  0.62582816  1
  Al  Al53  1  0.37642814  0.55972567  0.23265597  1
  Al  Al54  1  0.60968863  0.82992126  0.55342177  1
  Al  Al55  1  0.69318769  0.61681713  0.58370004  1
  Al  Al56  1  0.53853925  0.35221402  0.02774111  1
  Al  Al57  1  0.43625329  0.38624892  0.68723236  1
  Al  Al58  1  0.20138702  0.87085775  0.41396598  1
  Al  Al59  1  0.35185189  0.05340597  0.48424473  1
  Al  Al60  1  0.90814855  0.98492730  0.23834230  1
  Al  Al61  1  0.67511338  0.22142415  0.15681325  1
  Al  Al62  1  0.41592110  0.50636581  0.88987721  1
  Al  Al63  1  0.70579479  0.08223766  0.72725778  1
  Al  Al64  1  0.55036479  0.56195905  0.09235855  1
  Al  Al65  1  0.30298829  0.01647533  0.72870258  1
  Al  Al66  1  0.43121968  0.88343054  0.36526569  1
  Al  Al67  1  0.52808188  0.85542029  0.94323829  1
  Al  Al68  1  0.12526679  0.86887970  0.64978479  1
  Al  Al69  1  0.05803860  0.96749399  0.85978899  1
  Al  Al70  1  0.14280683  0.17331767  0.82064865  1
  Al  Al71  1  0.05721248  0.32238239  0.97789609  1
  Al  Al72  1  0.64139615  0.32503149  0.63337152  1
  Al  Al73  1  0.73050793  0.89404621  0.83683932  1
  Al  Al74  1  0.68980085  0.69539662  0.98279199  1
  Al  Al75  1  0.58680137  0.01030227  0.13095268  1
  Al  Al76  1  0.58644286  0.05864387  0.51577010  1
  Al  Al77  1  0.82152320  0.63654953  0.81257460  1
  Al  Al78  1  0.40191258  0.58569096  0.61509632  1
  Al  Al79  1  0.20547538  0.51535472  0.05380325  1
  Al  Al80  1  0.13873209  0.26674693  0.42584847  1
  Al  Al81  1  0.36392248  0.69117370  0.03437280  1
  Al  Al82  1  0.48786311  0.15758155  0.68802890  1
  Al  Al83  1  0.21253095  0.60401266  0.84808246  1
  Al  Al84  1  0.92154423  0.64282661  0.60386858  1
  Al  Al85  1  0.78864169  0.97931464  0.52700746  1
  Al  Al86  1  0.97368496  0.05024551  0.66079638  1
  Al  Al87  1  0.28038553  0.05561665  0.95727306  1
  Al  Al88  1  0.84250682  0.55807368  0.37103616  1
  Al  Al89  1  0.46468883  0.67980629  0.43088236  1
  Al  Al90  1  0.03071085  0.69830241  0.42674198  1
  Al  Al91  1  0.93874332  0.05716370  0.02524367  1
  Al  Al92  1  0.03196285  0.27159257  0.63107576  1
  Al  Al93  1  0.65237856  0.89507980  0.33736763  1
  Al  Al94  1  0.72108856  0.09135824  0.96381606  1
  Al  Al95  1  0.69344886  0.43506159  0.22370579  1
  Al  Al96  1  0.62276558  0.50305102  0.78619982  1
  Al  Al97  1  0.98131334  0.90797981  0.44839370  1
  Al  Al98  1  0.21812973  0.44040144  0.59421136  1
  Al  Al99  1  0.48763542  0.09397133  0.30962077  1
loop_
_geom_bond_atom_site_label_1
_geom_bond_atom_site_label_2
_geom_bond_distance
_geom_bond_site_symmetry_2
Al0 Al60 2.737772 1_455
Al0 Al14 2.760951 1_555
Al0 Al90 2.765470 1_555
Al0 Al16 2.797288 1_555
Al0 Al43 2.835434 1_555
Al0 Al58 2.866207 1_555
Al0 Al48 2.868168 1_455
Al0 Al8 2.896213 1_455
Al0 Al97 2.943030 1_455
Al0 Al46 2.944989 1_555
Al1 Al9 2.739694 1_555
Al1 Al99 2.754856 1_555
Al1 Al27 2.768320 1_555
Al1 Al51 2.776287 1_555
Al1 Al23 2.791763 1_555
Al1 Al80 2.821798 1_555
Al1 Al41 2.841099 1_555
Al1 Al36 2.849636 1_555
Al1 Al19 2.935175 1_555
Al1 Al17 3.092122 1_555
Al2 Al24 2.726039 1_555
Al2 Al84 2.772502 1_555
Al2 Al25 2.799634 1_555
Al2 Al72 2.812676 1_555
Al2 Al88 2.827878 1_555
Al2 Al49 2.830576 1_655
Al2 Al28 2.841743 1_555
Al2 Al55 2.892437 1_555
Al3 Al34 2.675771 1_555
Al3 Al55 2.699489 1_555
Al3 Al73 2.707954 1_555
Al3 Al96 2.737628 1_555
Al3 Al54 2.826978 1_555
Al3 Al74 2.841435 1_555
Al3 Al42 2.930075 1_555
Al3 Al67 2.951297 1_555
Al3 Al77 2.978659 1_555
Al3 Al78 3.059175 1_555
Al4 Al86 2.663166 1_555
Al4 Al63 2.792966 1_555
Al4 Al71 2.838482 1_655
Al4 Al70 2.857114 1_655
Al4 Al91 2.877135 1_556
Al5 Al8 2.763252 1_556
Al5 Al96 2.769213 1_555
Al5 Al74 2.836675 1_555
Al5 Al95 2.894201 1_556
Al5 Al56 2.927286 1_556
Al5 Al6 2.940086 1_556
Al5 Al64 2.943650 1_556
Al6 Al8 2.819314 1_555
Al6 Al95 2.860055 1_555
Al6 Al88 2.938820 1_555
Al7 Al98 2.766882 1_555
Al7 Al82 2.850827 1_555
Al7 Al70 2.891866 1_555
Al7 Al80 2.893896 1_555
Al7 Al92 2.965645 1_555
Al9 Al91 2.839391 1_455
Al10 Al21 2.736897 1_555
Al10 Al56 2.740394 1_556
Al10 Al29 2.764501 1_555
Al10 Al82 2.772607 1_555
Al10 Al17 2.772683 1_556
Al10 Al7 2.819931 1_555
Al10 Al57 2.848781 1_555
Al10 Al87 3.003968 1_555
Al10 Al70 3.004757 1_555
Al10 Al37 3.163256 1_555
Al11 Al89 2.629021 1_555
Al11 Al95 2.737415 1_555
Al11 Al88 2.769699 1_555
Al11 Al64 2.784794 1_555
Al11 Al35 2.847864 1_555
Al11 Al48 2.883106 1_555
Al11 Al20 2.928415 1_555
Al11 Al47 2.952380 1_555
Al12 Al73 2.663297 1_555
Al12 Al33 2.760702 1_655
Al12 Al86 2.778226 1_565
Al12 Al84 2.780652 1_555
Al12 Al85 2.798659 1_555
Al12 Al20 2.882114 1_555
Al12 Al69 3.020996 1_655
Al12 Al68 3.106504 1_655
Al12 Al77 3.122318 1_555
Al13 Al98 2.774876 1_555
Al13 Al88 2.791361 1_455
Al13 Al80 2.802566 1_555
Al13 Al24 2.828793 1_455
Al13 Al90 2.847890 1_555
Al13 Al16 2.923592 1_555
Al13 Al30 3.001843 1_555
Al13 Al19 3.021232 1_555
Al14 Al9 2.772160 1_565
Al14 Al43 2.786975 1_555
Al14 Al27 2.806742 1_565
Al14 Al31 2.812853 1_555
Al14 Al87 2.847359 1_564
Al14 Al69 2.878342 1_554
Al14 Al22 2.932205 1_554
Al14 Al91 3.031682 1_465
Al15 Al94 2.660452 1_554
Al15 Al6 2.684157 1_555
Al15 Al4 2.713434 1_554
Al15 Al5 2.760013 1_554
Al15 Al71 2.776090 1_654
Al15 Al61 2.834158 1_555
Al15 Al37 2.857031 1_554
Al15 Al39 2.864524 1_555
Al15 Al25 3.012316 1_554
Al15 Al91 3.072570 1_555
Al16 Al6 2.730940 1_455
Al16 Al30 2.756141 1_555
Al16 Al79 2.767201 1_555
Al16 Al8 2.790090 1_455
Al16 Al19 2.792480 1_555
Al16 Al90 2.804366 1_555
Al16 Al46 2.883926 1_555
Al16 Al43 2.887916 1_555
Al17 Al79 2.627742 1_555
Al17 Al36 2.693094 1_555
Al17 Al9 2.817724 1_555
Al17 Al41 2.879633 1_555
Al17 Al19 2.886114 1_555
Al17 Al56 2.920417 1_555
Al17 Al29 3.030640 1_554
Al17 Al71 3.051210 1_554
Al18 Al93 2.669446 1_545
Al18 Al32 2.705766 1_555
Al18 Al61 2.717618 1_555
Al18 Al50 2.750964 1_555
Al18 Al85 2.826819 1_545
Al18 Al60 2.845229 1_545
Al18 Al75 2.940890 1_555
Al18 Al99 3.024354 1_555
Al18 Al76 3.041021 1_555
Al18 Al28 3.045364 1_555
Al18 Al24 3.054183 1_555
Al19 Al79 2.826787 1_555
Al19 Al23 2.830376 1_555
Al19 Al39 2.835645 1_455
Al19 Al6 2.864845 1_455
Al19 Al80 2.865582 1_555
Al19 Al71 2.925133 1_554
Al19 Al9 2.947066 1_555
Al20 Al84 2.703691 1_555
Al20 Al48 2.704153 1_555
Al20 Al85 2.711207 1_555
Al20 Al97 2.764518 1_555
Al20 Al55 2.774508 1_555
Al20 Al54 2.795838 1_555
Al20 Al93 2.818866 1_555
Al20 Al88 2.825099 1_555
Al20 Al90 3.034439 1_655
Al21 Al94 2.706794 1_555
Al21 Al42 2.725997 1_545
Al21 Al36 2.774285 1_556
Al21 Al67 2.784016 1_545
Al21 Al87 2.795264 1_555
Al21 Al82 2.824863 1_555
Al21 Al75 2.915385 1_556
Al21 Al65 3.001193 1_555
Al21 Al37 3.072339 1_555
Al22 Al34 2.661796 1_555
Al22 Al87 2.687433 1_565
Al22 Al69 2.803066 1_555
Al22 Al43 2.851534 1_556
Al22 Al33 2.857079 1_555
Al22 Al81 2.914416 1_556
Al22 Al83 2.968811 1_555
Al22 Al31 3.020491 1_556
Al22 Al65 3.121834 1_565
Al22 Al68 3.129202 1_555
Al23 Al51 2.761749 1_555
Al23 Al98 2.764739 1_555
Al23 Al30 2.772921 1_555
Al23 Al53 2.797387 1_555
Al23 Al41 2.802214 1_555
Al23 Al47 2.830719 1_555
Al23 Al80 2.890078 1_555
Al24 Al39 2.701058 1_555
Al24 Al32 2.732604 1_555
Al24 Al6 2.813584 1_555
Al24 Al50 2.813758 1_555
Al24 Al95 2.955142 1_555
Al24 Al88 2.955960 1_555
Al24 Al28 3.046501 1_555
Al25 Al4 2.787111 1_555
Al25 Al38 2.806800 1_555
Al25 Al72 2.881234 1_555
Al25 Al37 2.886042 1_555
Al25 Al5 2.941561 1_555
Al25 Al49 2.959685 1_655
Al25 Al96 3.031011 1_555
Al25 Al77 3.103442 1_555
Al26 Al75 2.621477 1_565
Al26 Al60 2.671607 1_555
Al26 Al45 2.721397 1_554
Al26 Al73 2.721978 1_554
Al26 Al94 2.722254 1_564
Al26 Al48 2.725969 1_555
Al26 Al74 2.764999 1_554
Al26 Al91 2.969559 1_565
Al26 Al67 2.990312 1_554
Al26 Al35 3.079466 1_555
Al27 Al40 2.812348 1_555
Al27 Al58 2.821857 1_545
Al27 Al60 2.858187 1_445
Al27 Al9 2.862640 1_555
Al27 Al80 2.906990 1_555
Al27 Al50 2.936455 1_455
Al27 Al39 3.005905 1_455
Al28 Al72 2.717758 1_555
Al28 Al50 2.761980 1_555
Al28 Al85 2.789288 1_545
Al28 Al63 2.799888 1_555
Al28 Al92 2.807519 1_655
Al28 Al32 2.943249 1_555
Al28 Al86 2.997008 1_555
Al28 Al76 3.138303 1_555
Al28 Al4 3.148434 1_555
Al29 Al83 2.699384 1_555
Al29 Al70 2.704258 1_555
Al29 Al98 2.846915 1_555
Al29 Al49 2.849482 1_555
Al29 Al71 2.851425 1_555
Al29 Al62 2.854163 1_555
Al29 Al7 2.989789 1_555
Al29 Al79 3.065385 1_556
Al29 Al92 3.159553 1_555
Al30 Al52 2.731583 1_555
Al30 Al89 2.733484 1_555
Al30 Al90 2.787326 1_555
Al30 Al46 2.837408 1_555
Al30 Al78 2.943007 1_555
Al30 Al53 2.961146 1_555
Al30 Al44 3.065224 1_555
Al30 Al58 3.104467 1_555
Al31 Al75 2.763814 1_565
Al31 Al46 2.790598 1_555
Al31 Al87 2.867204 1_564
Al31 Al81 2.908335 1_555
Al31 Al66 2.919155 1_555
Al31 Al35 2.933383 1_555
Al31 Al67 3.067334 1_554
Al31 Al99 3.148432 1_565
Al31 Al36 3.191439 1_565
Al32 Al51 2.742964 1_555
Al32 Al41 2.785526 1_555
Al32 Al47 2.796598 1_555
Al32 Al72 2.813619 1_555
Al32 Al61 2.945006 1_555
Al32 Al95 2.954742 1_555
Al32 Al99 2.983707 1_555
Al33 Al83 2.703109 1_555
Al33 Al84 2.725217 1_455
Al33 Al45 2.744017 1_455
Al33 Al43 2.770444 1_556
Al33 Al68 2.831264 1_555
Al33 Al77 2.842623 1_455
Al33 Al52 2.867780 1_555
Al33 Al69 2.982257 1_555
Al33 Al38 3.012434 1_455
Al34 Al78 2.672183 1_555
Al34 Al83 2.697469 1_555
Al34 Al67 2.704980 1_555
Al34 Al44 2.777975 1_555
Al34 Al81 2.946860 1_556
Al34 Al62 3.048809 1_555
Al35 Al93 2.631923 1_555
Al35 Al64 2.693109 1_555
Al35 Al67 2.737433 1_554
Al35 Al81 2.755128 1_555
Al35 Al74 2.869111 1_554
Al35 Al75 2.940672 1_565
Al35 Al48 2.960535 1_555
Al36 Al99 2.648542 1_555
Al36 Al87 2.696199 1_554
Al36 Al75 2.753518 1_555
Al36 Al56 2.790485 1_555
Al36 Al41 2.859039 1_555
Al36 Al61 2.925668 1_555
Al37 Al56 2.679586 1_556
Al37 Al72 2.735845 1_555
Al37 Al94 2.802767 1_555
Al37 Al82 2.812967 1_555
Al37 Al63 2.893184 1_555
Al37 Al96 3.041481 1_555
Al37 Al5 3.049794 1_555
Al38 Al49 2.719658 1_655
Al38 Al8 2.731033 1_556
Al38 Al71 2.740321 1_655
Al38 Al79 2.803769 1_656
Al38 Al43 2.824019 1_656
Al38 Al77 2.859680 1_555
Al38 Al83 2.976764 1_655
Al39 Al91 2.774768 1_555
Al39 Al9 2.794832 1_655
Al39 Al50 2.848370 1_555
Al39 Al60 2.901556 1_545
Al39 Al6 2.914447 1_555
Al39 Al80 3.092289 1_655
Al40 Al7 2.635527 1_555
Al40 Al86 2.659776 1_455
Al40 Al59 2.668419 1_555
Al40 Al50 2.738935 1_455
Al40 Al97 2.776878 1_445
Al40 Al68 2.793476 1_545
Al40 Al65 2.848142 1_555
Al40 Al58 2.873902 1_545
Al40 Al80 2.955728 1_555
Al41 Al95 2.784875 1_555
Al41 Al53 2.786293 1_555
Al41 Al56 2.807201 1_555
Al41 Al47 2.849515 1_555
Al42 Al54 2.685231 1_555
Al42 Al44 2.729407 1_555
Al42 Al65 2.823950 1_565
Al42 Al67 2.841007 1_555
Al42 Al82 2.867408 1_565
Al42 Al63 2.900784 1_565
Al42 Al73 2.912914 1_555
Al43 Al79 2.769320 1_555
Al43 Al46 2.794439 1_555
Al43 Al45 2.824819 1_454
Al43 Al83 2.889953 1_554
Al43 Al8 2.899176 1_455
Al43 Al81 3.054229 1_555
Al44 Al58 2.668470 1_555
Al44 Al89 2.888506 1_555
Al44 Al78 2.974427 1_555
Al44 Al52 2.976717 1_555
Al44 Al66 3.001356 1_555
Al44 Al68 3.022358 1_555
Al44 Al65 3.066646 1_565
Al45 Al69 2.778865 1_655
Al45 Al8 2.818656 1_556
Al45 Al73 2.845031 1_555
Al45 Al91 2.903619 1_566
Al45 Al77 2.977364 1_555
Al46 Al58 2.736353 1_555
Al46 Al66 2.786359 1_555
Al46 Al81 2.803391 1_555
Al46 Al53 2.828475 1_555
Al47 Al55 2.656823 1_555
Al47 Al51 2.847554 1_555
Al47 Al72 2.882618 1_555
Al47 Al89 2.890461 1_555
Al47 Al78 2.952301 1_555
Al48 Al8 2.666991 1_555
Al48 Al93 2.831829 1_555
Al48 Al60 3.003694 1_555
Al48 Al88 3.120348 1_555
Al48 Al74 3.122529 1_554
Al49 Al84 2.669426 1_455
Al49 Al92 2.717635 1_555
Al49 Al98 2.777749 1_555
Al49 Al52 2.869153 1_555
Al49 Al83 2.911195 1_555
Al50 Al60 2.750128 1_545
Al50 Al80 2.750281 1_655
Al50 Al97 2.777447 1_545
Al50 Al92 2.918333 1_655
Al50 Al86 2.947988 1_555
Al50 Al85 3.040600 1_545
Al51 Al59 2.726576 1_555
Al51 Al82 2.789865 1_555
Al51 Al57 2.806502 1_555
Al51 Al72 2.845610 1_555
Al51 Al99 2.899959 1_555
Al51 Al7 2.982853 1_555
Al52 Al68 2.700295 1_555
Al52 Al83 2.743555 1_555
Al52 Al98 2.796214 1_555
Al52 Al90 2.808092 1_555
Al52 Al84 2.968026 1_455
Al52 Al78 3.046017 1_555
Al53 Al89 2.762881 1_555
Al53 Al79 2.793406 1_555
Al53 Al64 2.830317 1_555
Al53 Al81 2.926505 1_555
Al54 Al89 2.716237 1_555
Al54 Al93 2.814931 1_555
Al54 Al85 2.838658 1_555
Al54 Al55 2.905348 1_555
Al54 Al76 2.917206 1_565
Al54 Al66 3.052325 1_555
Al55 Al84 2.761490 1_555
Al55 Al77 2.947804 1_555
Al55 Al96 3.030063 1_555
Al56 Al64 2.650036 1_555
Al56 Al61 2.779043 1_555
Al56 Al95 2.904748 1_555
Al56 Al62 2.942016 1_554
Al57 Al7 2.691525 1_555
Al57 Al78 2.700000 1_555
Al57 Al96 2.726377 1_555
Al57 Al62 2.773702 1_555
Al57 Al72 2.776421 1_555
Al57 Al98 2.883859 1_555
Al57 Al82 2.932085 1_555
Al58 Al97 2.810921 1_455
Al58 Al59 2.849269 1_565
Al58 Al66 2.916423 1_555
Al58 Al90 2.922074 1_555
Al58 Al68 3.029001 1_555
Al59 Al66 2.733402 1_545
Al59 Al76 2.833083 1_555
Al59 Al99 2.834776 1_555
Al59 Al82 2.939414 1_555
Al59 Al7 3.045811 1_555
Al59 Al65 3.064756 1_555
Al60 Al91 2.776854 1_565
Al60 Al97 2.778263 1_555
Al61 Al95 2.700720 1_555
Al61 Al75 2.757058 1_555
Al61 Al94 2.827374 1_554
Al62 Al64 2.761287 1_556
Al62 Al83 2.818790 1_555
Al62 Al81 2.903906 1_556
Al62 Al96 2.921366 1_555
Al63 Al76 2.728334 1_555
Al63 Al73 2.748939 1_545
Al63 Al94 2.767475 1_555
Al63 Al82 2.855682 1_555
Al63 Al85 2.915725 1_545
Al64 Al74 2.783644 1_554
Al64 Al95 2.807828 1_555
Al64 Al81 2.888803 1_555
Al65 Al87 2.753558 1_555
Al65 Al68 2.789807 1_545
Al65 Al82 2.876827 1_555
Al65 Al7 2.954182 1_555
Al65 Al70 3.058734 1_555
Al66 Al89 2.721072 1_555
Al66 Al93 2.745395 1_555
Al66 Al99 2.797232 1_565
Al66 Al76 3.118494 1_565
Al67 Al75 2.833745 1_566
Al67 Al74 2.887448 1_555
Al67 Al73 2.919431 1_555
Al67 Al81 3.100598 1_556
Al68 Al97 2.868195 1_455
Al68 Al69 2.909321 1_555
Al68 Al86 2.986028 1_465
Al69 Al86 2.733950 1_465
Al69 Al91 2.771199 1_466
Al69 Al70 2.783359 1_565
Al69 Al87 2.940606 1_565
Al70 Al87 2.732093 1_555
Al70 Al92 2.850865 1_555
Al70 Al71 2.851109 1_555
Al70 Al86 2.918927 1_455
Al71 Al9 2.728123 1_556
Al71 Al79 2.942858 1_556
Al72 Al96 2.790668 1_555
Al72 Al82 2.869620 1_555
Al73 Al94 2.795958 1_565
Al74 Al77 2.791548 1_555
Al74 Al8 2.837915 1_556
Al75 Al99 2.719205 1_555
Al75 Al94 2.892872 1_554
Al75 Al93 2.951750 1_545
Al76 Al99 2.658260 1_555
Al76 Al85 2.689749 1_545
Al76 Al82 2.729797 1_555
Al76 Al93 3.028863 1_545
Al77 Al96 2.830937 1_555
Al77 Al84 2.869375 1_555
Al78 Al89 2.694698 1_555
Al78 Al98 2.772347 1_555
Al79 Al83 2.732852 1_554
Al79 Al81 2.867766 1_555
Al80 Al92 2.871684 1_555
Al80 Al98 2.878551 1_555
Al81 Al83 2.818023 1_554
Al84 Al90 2.704065 1_655
Al84 Al88 2.911571 1_555
Al85 Al86 2.670281 1_565
Al85 Al93 2.739439 1_555
Al85 Al97 2.782877 1_555
Al86 Al92 2.846990 1_655
Al86 Al97 2.979994 1_545
Al87 Al9 2.700486 1_556
Al88 Al95 2.696814 1_555
Al88 Al90 2.788721 1_655
Al90 Al97 2.697853 1_455
Al91 Al94 2.727548 1_554
