# generated using pymatgen
data_Y2Si3Pd
_symmetry_space_group_name_H-M   'P 1'
_cell_length_a   8.22657754
_cell_length_b   8.22657754
_cell_length_c   7.91813100
_cell_angle_alpha   90.00000000
_cell_angle_beta   90.00000000
_cell_angle_gamma   119.99999628
_symmetry_Int_Tables_number   1
_chemical_formula_structural   Y2Si3Pd
_chemical_formula_sum   'Y8 Si12 Pd4'
_cell_volume   464.07879129
_cell_formula_units_Z   4
loop_
 _symmetry_equiv_pos_site_id
 _symmetry_equiv_pos_as_xyz
  1  'x, y, z'
loop_
 _atom_site_type_symbol
 _atom_site_label
 _atom_site_symmetry_multiplicity
 _atom_site_fract_x
 _atom_site_fract_y
 _atom_site_fract_z
 _atom_site_occupancy
  Y  Y0  1  0.51180200  0.02360400  0.25000000  1
  Y  Y1  1  0.48819800  0.97639600  0.75000000  1
  Y  Y2  1  0.97639600  0.48819800  0.25000000  1
  Y  Y3  1  0.02360400  0.51180200  0.75000000  1
  Y  Y4  1  0.51180200  0.48819800  0.25000000  1
  Y  Y5  1  0.48819800  0.51180200  0.75000000  1
  Y  Y6  1  0.00000000  0.00000000  0.25000000  1
  Y  Y7  1  0.00000000  0.00000000  0.75000000  1
  Si  Si0  1  0.16559000  0.33118000  0.00230200  1
  Si  Si1  1  0.83441000  0.66882000  0.99769800  1
  Si  Si2  1  0.66882000  0.83441000  0.00230200  1
  Si  Si3  1  0.83441000  0.66882000  0.50230200  1
  Si  Si4  1  0.33118000  0.16559000  0.99769800  1
  Si  Si5  1  0.16559000  0.33118000  0.49769800  1
  Si  Si6  1  0.16559000  0.83441000  0.00230200  1
  Si  Si7  1  0.33118000  0.16559000  0.50230200  1
  Si  Si8  1  0.83441000  0.16559000  0.99769800  1
  Si  Si9  1  0.66882000  0.83441000  0.49769800  1
  Si  Si10  1  0.83441000  0.16559000  0.50230200  1
  Si  Si11  1  0.16559000  0.83441000  0.49769800  1
  Pd  Pd0  1  0.33333300  0.66666700  0.04223000  1
  Pd  Pd1  1  0.66666700  0.33333300  0.95777000  1
  Pd  Pd2  1  0.66666700  0.33333300  0.54223000  1
  Pd  Pd3  1  0.33333300  0.66666700  0.45777000  1
loop_
_geom_bond_atom_site_label_1
_geom_bond_atom_site_label_2
_geom_bond_distance
_geom_bond_site_symmetry_2
Si0 Si4 2.359749 1_554
Si0 Si8 2.359749 1_454
Si0 Y3 3.049414 1_554
Si0 Y5 3.049415 1_554
Si0 Y6 3.068192 1_555
Si0 Y7 3.091623 1_554
Si0 Y2 3.154070 1_455
Si0 Y4 3.154070 1_555
Si1 Si2 2.359749 1_556
Si1 Si6 2.359749 1_656
Si1 Y2 3.049414 1_556
Si1 Y4 3.049415 1_556
Si1 Y7 3.068192 1_665
Si1 Y6 3.091623 1_666
Si1 Y3 3.154070 1_655
Si1 Y5 3.154070 1_555
Si2 Si8 2.359749 1_564
Si2 Y1 3.049414 1_554
Si2 Y5 3.049415 1_554
Si2 Y6 3.068192 1_665
Si2 Y7 3.091623 1_664
Si2 Y0 3.154070 1_565
Si2 Y4 3.154070 1_555
Si3 Si9 2.359749 1_555
Si3 Y2 3.049414 1_555
Si3 Y4 3.049415 1_555
Si3 Y7 3.068192 1_665
Si3 Y6 3.091623 1_665
Si3 Y3 3.154070 1_655
Si3 Y5 3.154070 1_555
Si4 Si6 2.359749 1_546
Si4 Y0 3.049414 1_556
Si4 Y4 3.049415 1_556
Si4 Y7 3.068192 1_555
Si4 Y6 3.091623 1_556
Si4 Y1 3.154070 1_545
Si4 Y5 3.154070 1_555
Si5 Si7 2.359749 1_555
Si5 Y3 3.049414 1_555
Si5 Y5 3.049415 1_555
Si5 Y6 3.068192 1_555
Si5 Y7 3.091623 1_555
Si5 Y2 3.154070 1_455
Si5 Y4 3.154070 1_555
Si6 Y3 3.049415 1_554
Si6 Y1 3.049415 1_554
Si6 Y6 3.068192 1_565
Si6 Y7 3.091623 1_564
Si6 Y2 3.154070 1_455
Si6 Y0 3.154070 1_565
Si7 Y0 3.049414 1_555
Si7 Y4 3.049415 1_555
Si7 Y7 3.068192 1_555
Si7 Y6 3.091623 1_555
Si7 Y1 3.154070 1_545
Si7 Y5 3.154070 1_555
Si8 Y2 3.049415 1_556
Si8 Y0 3.049415 1_556
Si8 Y7 3.068192 1_655
Si8 Y6 3.091623 1_656
Si8 Y1 3.154070 1_545
Si8 Y3 3.154070 1_655
Si9 Y1 3.049414 1_555
Si9 Y5 3.049415 1_555
Si9 Y6 3.068192 1_665
Si9 Y7 3.091623 1_665
Si9 Y0 3.154070 1_565
Si9 Y4 3.154070 1_555
Si10 Si5 2.359749 1_655
Si10 Si9 2.359749 1_545
Si10 Y2 3.049415 1_555
Si10 Y0 3.049415 1_555
Si10 Y7 3.068192 1_655
Si10 Y6 3.091623 1_655
Si10 Y1 3.154070 1_545
Si10 Y3 3.154070 1_655
Si11 Si7 2.359749 1_565
Si11 Si3 2.359749 1_455
Si11 Y1 3.049415 1_555
Si11 Y3 3.049415 1_555
Si11 Y6 3.068192 1_565
Si11 Y7 3.091623 1_565
Si11 Y2 3.154070 1_455
Si11 Y0 3.154070 1_565
Pd0 Si6 2.410964 1_555
Pd0 Si2 2.410971 1_555
Pd0 Si0 2.410971 1_555
Pd0 Y0 3.028732 1_565
Pd0 Y2 3.028732 1_455
Pd0 Y4 3.028738 1_555
Pd0 Y1 3.197416 1_554
Pd0 Y3 3.197416 1_554
Pd0 Y5 3.197421 1_554
Pd1 Si8 2.410964 1_555
Pd1 Si1 2.410971 1_555
Pd1 Si4 2.410971 1_555
Pd1 Y3 3.028732 1_655
Pd1 Y1 3.028732 1_545
Pd1 Y5 3.028738 1_555
Pd1 Y2 3.197416 1_556
Pd1 Y0 3.197416 1_556
Pd1 Y4 3.197421 1_556
Pd2 Si10 2.410964 1_555
Pd2 Si3 2.410971 1_555
Pd2 Si7 2.410971 1_555
Pd2 Y3 3.028732 1_655
Pd2 Y1 3.028732 1_545
Pd2 Y5 3.028738 1_555
Pd2 Y0 3.197416 1_555
Pd2 Y2 3.197416 1_555
Pd2 Y4 3.197421 1_555
Pd3 Si11 2.410964 1_555
Pd3 Si9 2.410971 1_555
Pd3 Si5 2.410971 1_555
Pd3 Y0 3.028732 1_565
Pd3 Y2 3.028732 1_455
Pd3 Y4 3.028738 1_555
Pd3 Y1 3.197416 1_555
Pd3 Y3 3.197416 1_555
Pd3 Y5 3.197421 1_555
