# generated using pymatgen
data_Rb2FeH2Br5O
_symmetry_space_group_name_H-M   'P 1'
_cell_length_a   7.63370700
_cell_length_b   10.49647800
_cell_length_c   14.75867000
_cell_angle_alpha   90.00000000
_cell_angle_beta   90.00000000
_cell_angle_gamma   90.00000000
_symmetry_Int_Tables_number   1
_chemical_formula_structural   Rb2FeH2Br5O
_chemical_formula_sum   'Rb8 Fe4 H8 Br20 O4'
_cell_volume   1182.56850578
_cell_formula_units_Z   4
loop_
 _symmetry_equiv_pos_site_id
 _symmetry_equiv_pos_as_xyz
  1  'x, y, z'
loop_
 _atom_site_type_symbol
 _atom_site_label
 _atom_site_symmetry_multiplicity
 _atom_site_fract_x
 _atom_site_fract_y
 _atom_site_fract_z
 _atom_site_occupancy
  Rb  Rb0  1  0.84411400  0.50169900  0.85614300  1
  Rb  Rb1  1  0.15588600  0.49830100  0.14385700  1
  Rb  Rb2  1  0.34411400  0.49830100  0.64385700  1
  Rb  Rb3  1  0.15588600  0.00169900  0.14385700  1
  Rb  Rb4  1  0.65588600  0.50169900  0.35614300  1
  Rb  Rb5  1  0.84411400  0.99830100  0.85614300  1
  Rb  Rb6  1  0.65588600  0.99830100  0.35614300  1
  Rb  Rb7  1  0.34411400  0.00169900  0.64385700  1
  Fe  Fe0  1  0.80572400  0.75000000  0.61309000  1
  Fe  Fe1  1  0.19427600  0.25000000  0.38691000  1
  Fe  Fe2  1  0.30572400  0.25000000  0.88691000  1
  Fe  Fe3  1  0.69427600  0.75000000  0.11309000  1
  H  H0  1  0.96609400  0.17371700  0.52719900  1
  H  H1  1  0.03390600  0.82628300  0.47280100  1
  H  H2  1  0.46609400  0.82628300  0.97280100  1
  H  H3  1  0.03390600  0.67371700  0.47280100  1
  H  H4  1  0.53390600  0.17371700  0.02719900  1
  H  H5  1  0.96609400  0.32628300  0.52719900  1
  H  H6  1  0.53390600  0.32628300  0.02719900  1
  H  H7  1  0.46609400  0.67371700  0.97280100  1
  Br  Br0  1  0.06907800  0.75000000  0.72026200  1
  Br  Br1  1  0.93092200  0.25000000  0.27973800  1
  Br  Br2  1  0.56907800  0.25000000  0.77973800  1
  Br  Br3  1  0.43092200  0.75000000  0.22026200  1
  Br  Br4  1  0.81866200  0.50486900  0.60250700  1
  Br  Br5  1  0.18133800  0.49513100  0.39749300  1
  Br  Br6  1  0.31866200  0.49513100  0.89749300  1
  Br  Br7  1  0.18133800  0.00486900  0.39749300  1
  Br  Br8  1  0.68133800  0.50486900  0.10250700  1
  Br  Br9  1  0.81866200  0.99513100  0.60250700  1
  Br  Br10  1  0.68133800  0.99513100  0.10250700  1
  Br  Br11  1  0.31866200  0.00486900  0.89749300  1
  Br  Br12  1  0.60045600  0.75000000  0.74850800  1
  Br  Br13  1  0.39954400  0.25000000  0.25149200  1
  Br  Br14  1  0.10045600  0.25000000  0.75149200  1
  Br  Br15  1  0.89954400  0.75000000  0.24850800  1
  Br  Br16  1  0.53539800  0.75000000  0.50689000  1
  Br  Br17  1  0.46460200  0.25000000  0.49311000  1
  Br  Br18  1  0.03539800  0.25000000  0.99311000  1
  Br  Br19  1  0.96460200  0.75000000  0.00689000  1
  O  O0  1  0.97471500  0.75000000  0.49734600  1
  O  O1  1  0.02528500  0.25000000  0.50265400  1
  O  O2  1  0.47471500  0.25000000  0.00265400  1
  O  O3  1  0.52528500  0.75000000  0.99734600  1
loop_
_geom_bond_atom_site_label_1
_geom_bond_atom_site_label_2
_geom_bond_distance
_geom_bond_site_symmetry_2
Fe0 O0 2.140610 1_555
Fe1 O1 2.140610 1_555
Fe2 O2 2.140610 1_556
Fe3 O3 2.140610 1_554
H0 O1 0.988189 1_655
H1 O0 0.988189 1_455
H2 O3 0.988189 1_555
H3 O0 0.988189 1_455
H4 O2 0.988189 1_555
H5 O1 0.988189 1_655
H6 O2 0.988189 1_555
H7 O3 0.988189 1_555
Br0 Fe0 2.558008 1_455
Br0 Rb7 3.558028 1_565
Br0 Rb2 3.558028 1_555
Br0 Rb5 3.709932 1_455
Br0 Rb0 3.709932 1_455
Br1 Fe1 2.558008 1_655
Br1 Rb4 3.558028 1_555
Br1 Rb6 3.558028 1_545
Br1 Rb1 3.709932 1_655
Br1 Rb3 3.709932 1_655
Br2 Fe2 2.558008 1_555
Br2 Rb0 3.558028 1_555
Br2 Rb5 3.558028 1_545
Br2 Rb7 3.709932 1_555
Br2 Rb2 3.709932 1_555
Br3 Fe3 2.558008 1_555
Br3 Rb3 3.558028 1_565
Br3 Rb1 3.558028 1_555
Br3 Rb4 3.709932 1_555
Br3 Rb6 3.709932 1_555
Br4 Fe0 2.579640 1_555
Br4 Rb2 3.674252 1_555
Br4 Rb0 3.748517 1_555
Br4 Rb4 3.842610 1_555
Br4 Rb2 4.057891 1_655
Br5 Fe1 2.579640 1_555
Br5 Rb4 3.674252 1_555
Br5 Rb1 3.748517 1_555
Br5 Rb2 3.842610 1_555
Br5 Rb4 4.057891 1_455
Br6 Fe2 2.579640 1_555
Br6 Rb0 3.674252 1_455
Br6 Rb2 3.748517 1_555
Br6 Rb1 3.842610 1_556
Br6 Rb0 4.057891 1_555
Br7 Fe1 2.579640 1_555
Br7 Rb6 3.674252 1_545
Br7 Rb3 3.748517 1_555
Br7 Rb7 3.842610 1_555
Br7 Rb6 4.057891 1_445
Br8 Fe3 2.579640 1_555
Br8 Rb1 3.674252 1_655
Br8 Rb4 3.748517 1_555
Br8 Rb0 3.842610 1_554
Br8 Rb1 4.057891 1_555
Br9 Fe0 2.579640 1_555
Br9 Rb7 3.674252 1_565
Br9 Rb5 3.748517 1_555
Br9 Rb6 3.842610 1_555
Br9 Rb7 4.057891 1_665
Br10 Fe3 2.579640 1_555
Br10 Rb3 3.674252 1_665
Br10 Rb6 3.748517 1_555
Br10 Rb5 3.842610 1_554
Br10 Rb3 4.057891 1_565
Br11 Fe2 2.579640 1_555
Br11 Rb5 3.674252 1_445
Br11 Rb7 3.748517 1_555
Br11 Rb3 3.842610 1_556
Br11 Rb5 4.057891 1_545
Br12 Fe0 2.539628 1_555
Br12 Rb0 3.574335 1_555
Br12 Rb5 3.574335 1_555
Br12 Rb7 3.632444 1_565
Br12 Rb2 3.632444 1_555
Br13 Fe1 2.539628 1_555
Br13 Rb1 3.574335 1_555
Br13 Rb3 3.574335 1_555
Br13 Rb6 3.632444 1_545
Br13 Rb4 3.632444 1_555
Br14 Fe2 2.539628 1_555
Br14 Rb7 3.574335 1_555
Br14 Rb2 3.574335 1_555
Br14 Rb0 3.632444 1_455
Br14 Rb5 3.632444 1_445
Br15 Fe3 2.539628 1_555
Br15 Rb4 3.574335 1_555
Br15 Rb6 3.574335 1_555
Br15 Rb3 3.632444 1_665
Br15 Rb1 3.632444 1_655
Br16 Fe0 2.591342 1_555
Br16 Rb4 3.548035 1_555
Br16 Rb6 3.548035 1_555
Br16 Rb7 3.632958 1_565
Br16 Rb2 3.632958 1_555
Br17 Fe1 2.591342 1_555
Br17 Rb7 3.548035 1_555
Br17 Rb2 3.548035 1_555
Br17 Rb6 3.632958 1_545
Br17 Rb4 3.632958 1_555
Br18 Fe2 2.591342 1_555
Br18 Rb1 3.548035 1_556
Br18 Rb3 3.548035 1_556
Br18 Rb0 3.632958 1_455
Br18 Rb5 3.632958 1_445
Br19 Fe3 2.591342 1_555
Br19 Rb5 3.548035 1_554
Br19 Rb0 3.548035 1_554
Br19 Rb3 3.632958 1_665
Br19 Rb1 3.632958 1_655
