# generated using pymatgen
data_Dy2MgS4
_symmetry_space_group_name_H-M   'P 1'
_cell_length_a   7.95291400
_cell_length_b   7.28923300
_cell_length_c   11.43121700
_cell_angle_alpha   90.00000000
_cell_angle_beta   90.00000000
_cell_angle_gamma   90.00000000
_symmetry_Int_Tables_number   1
_chemical_formula_structural   Dy2MgS4
_chemical_formula_sum   'Dy8 Mg4 S16'
_cell_volume   662.67500176
_cell_formula_units_Z   4
loop_
 _symmetry_equiv_pos_site_id
 _symmetry_equiv_pos_as_xyz
  1  'x, y, z'
loop_
 _atom_site_type_symbol
 _atom_site_label
 _atom_site_symmetry_multiplicity
 _atom_site_fract_x
 _atom_site_fract_y
 _atom_site_fract_z
 _atom_site_occupancy
  Dy  Dy0  1  0.04051300  0.75000000  0.30810900  1
  Dy  Dy1  1  0.95948700  0.25000000  0.69189100  1
  Dy  Dy2  1  0.45948700  0.25000000  0.80810900  1
  Dy  Dy3  1  0.54051300  0.75000000  0.19189100  1
  Dy  Dy4  1  0.07141300  0.25000000  0.02128100  1
  Dy  Dy5  1  0.92858700  0.75000000  0.97871900  1
  Dy  Dy6  1  0.42858700  0.75000000  0.52128100  1
  Dy  Dy7  1  0.57141300  0.25000000  0.47871900  1
  Mg  Mg0  1  0.18043900  0.25000000  0.40735300  1
  Mg  Mg1  1  0.81956100  0.75000000  0.59264700  1
  Mg  Mg2  1  0.31956100  0.75000000  0.90735300  1
  Mg  Mg3  1  0.68043900  0.25000000  0.09264700  1
  S  S0  1  0.12735800  0.50196200  0.84282000  1
  S  S1  1  0.87264200  0.49803800  0.15718000  1
  S  S2  1  0.37264200  0.49803800  0.34282000  1
  S  S3  1  0.62735800  0.50196200  0.65718000  1
  S  S4  1  0.62735800  0.99803800  0.65718000  1
  S  S5  1  0.37264200  0.00196200  0.34282000  1
  S  S6  1  0.87264200  0.00196200  0.15718000  1
  S  S7  1  0.12735800  0.99803800  0.84282000  1
  S  S8  1  0.89509500  0.25000000  0.45728200  1
  S  S9  1  0.10490500  0.75000000  0.54271800  1
  S  S10  1  0.60490500  0.75000000  0.95728200  1
  S  S11  1  0.39509500  0.25000000  0.04271800  1
  S  S12  1  0.22194600  0.75000000  0.10965700  1
  S  S13  1  0.77805400  0.25000000  0.89034300  1
  S  S14  1  0.27805400  0.25000000  0.60965700  1
  S  S15  1  0.72194600  0.75000000  0.39034300  1
loop_
_geom_bond_atom_site_label_1
_geom_bond_atom_site_label_2
_geom_bond_distance
_geom_bond_site_symmetry_2
Dy0 S12 2.688555 1_555
Dy0 S15 2.702308 1_455
Dy0 S9 2.730322 1_555
Dy0 S6 2.851701 1_465
Dy0 S1 2.851701 1_455
Dy0 S5 3.241533 1_565
Dy0 S2 3.241533 1_555
Dy1 S13 2.688555 1_555
Dy1 S14 2.702308 1_655
Dy1 S8 2.730322 1_555
Dy1 S7 2.851701 1_645
Dy1 S0 2.851701 1_655
Dy1 S3 3.241533 1_555
Dy1 S4 3.241533 1_545
Dy2 S14 2.688555 1_555
Dy2 S13 2.702308 1_555
Dy2 S11 2.730322 1_556
Dy2 S4 2.851701 1_545
Dy2 S3 2.851701 1_555
Dy2 S7 3.241533 1_545
Dy2 S0 3.241533 1_555
Dy3 S15 2.688555 1_555
Dy3 S12 2.702308 1_555
Dy3 S10 2.730322 1_554
Dy3 S5 2.851701 1_565
Dy3 S2 2.851701 1_555
Dy3 S6 3.241533 1_565
Dy3 S1 3.241533 1_555
Dy4 S11 2.585853 1_555
Dy4 S13 2.771916 1_454
Dy4 S7 2.780792 1_544
Dy4 S0 2.780792 1_554
Dy4 S1 2.860276 1_455
Dy4 S6 2.860276 1_455
Dy5 S10 2.585853 1_555
Dy5 S12 2.771916 1_656
Dy5 S6 2.780792 1_566
Dy5 S1 2.780792 1_556
Dy5 S0 2.860276 1_655
Dy5 S7 2.860276 1_655
Dy6 S9 2.585853 1_555
Dy6 S15 2.771916 1_555
Dy6 S5 2.780792 1_565
Dy6 S2 2.780792 1_555
Dy6 S4 2.860276 1_555
Dy6 S3 2.860276 1_555
Dy7 S8 2.585853 1_555
Dy7 S14 2.771916 1_555
Dy7 S3 2.780792 1_555
Dy7 S4 2.780792 1_545
Dy7 S2 2.860276 1_555
Dy7 S5 2.860276 1_555
Mg0 S8 2.339990 1_455
Mg0 S14 2.439408 1_555
Mg0 S2 2.479842 1_555
Mg0 S5 2.479842 1_555
Mg1 S9 2.339990 1_655
Mg1 S15 2.439408 1_555
Mg1 S3 2.479842 1_555
Mg1 S4 2.479842 1_555
Mg2 S10 2.339990 1_555
Mg2 S12 2.439408 1_556
Mg2 S7 2.479842 1_555
Mg2 S0 2.479842 1_555
Mg3 S11 2.339990 1_555
Mg3 S13 2.439408 1_554
Mg3 S1 2.479842 1_555
Mg3 S6 2.479842 1_555
