# generated using pymatgen
data_Li8Pr7Ge10
_symmetry_space_group_name_H-M   'P 1'
_cell_length_a   17.25306998
_cell_length_b   17.25306998
_cell_length_c   4.47032400
_cell_angle_alpha   90.00000000
_cell_angle_beta   90.00000000
_cell_angle_gamma   156.70840730
_symmetry_Int_Tables_number   1
_chemical_formula_structural   Li8Pr7Ge10
_chemical_formula_sum   'Li8 Pr7 Ge10'
_cell_volume   526.16289576
_cell_formula_units_Z   1
loop_
 _symmetry_equiv_pos_site_id
 _symmetry_equiv_pos_as_xyz
  1  'x, y, z'
loop_
 _atom_site_type_symbol
 _atom_site_label
 _atom_site_symmetry_multiplicity
 _atom_site_fract_x
 _atom_site_fract_y
 _atom_site_fract_z
 _atom_site_occupancy
  Li  Li0  1  0.26303700  0.11308200  0.50000000  1
  Li  Li1  1  0.73696300  0.88691800  0.50000000  1
  Li  Li2  1  0.11308200  0.26303700  0.50000000  1
  Li  Li3  1  0.88691800  0.73696300  0.50000000  1
  Li  Li4  1  0.45724800  0.16912800  0.00000000  1
  Li  Li5  1  0.54275200  0.83087200  0.00000000  1
  Li  Li6  1  0.16912800  0.45724800  0.00000000  1
  Li  Li7  1  0.83087200  0.54275200  0.00000000  1
  Pr  Pr0  1  0.16081500  0.83918500  0.50000000  1
  Pr  Pr1  1  0.83918500  0.16081500  0.50000000  1
  Pr  Pr2  1  0.27904000  0.72096000  0.50000000  1
  Pr  Pr3  1  0.72096000  0.27904000  0.50000000  1
  Pr  Pr4  1  0.44226200  0.55773800  0.00000000  1
  Pr  Pr5  1  0.55773800  0.44226200  0.00000000  1
  Pr  Pr6  1  0.00000000  0.00000000  0.00000000  1
  Ge  Ge0  1  0.39750800  0.96656800  0.00000000  1
  Ge  Ge1  1  0.60249200  0.03343200  0.00000000  1
  Ge  Ge2  1  0.96656800  0.39750800  0.00000000  1
  Ge  Ge3  1  0.03343200  0.60249200  0.00000000  1
  Ge  Ge4  1  0.37321300  0.62678700  0.50000000  1
  Ge  Ge5  1  0.62678700  0.37321300  0.50000000  1
  Ge  Ge6  1  0.09406300  0.90593700  0.00000000  1
  Ge  Ge7  1  0.90593700  0.09406300  0.00000000  1
  Ge  Ge8  1  0.31583400  0.31583400  0.50000000  1
  Ge  Ge9  1  0.68416600  0.68416600  0.50000000  1
loop_
_geom_bond_atom_site_label_1
_geom_bond_atom_site_label_2
_geom_bond_distance
_geom_bond_site_symmetry_2
Li0 Pr5 3.171193 1_555
Li0 Pr5 3.171193 1_556
Li0 Pr0 3.182982 1_545
Li1 Pr4 3.171193 1_555
Li1 Pr4 3.171193 1_556
Li1 Pr1 3.182982 1_565
Li2 Pr4 3.171193 1_555
Li2 Pr4 3.171193 1_556
Li2 Pr1 3.182982 1_455
Li3 Pr5 3.171193 1_555
Li3 Pr5 3.171193 1_556
Li3 Pr0 3.182982 1_655
Li4 Pr0 3.174192 1_545
Li4 Pr0 3.174192 1_544
Li4 Pr5 3.194363 1_555
Li5 Pr1 3.174192 1_564
Li5 Pr1 3.174192 1_565
Li5 Pr4 3.194363 1_555
Li6 Pr1 3.174192 1_455
Li6 Pr1 3.174192 1_454
Li6 Pr4 3.194363 1_555
Li7 Pr0 3.174192 1_655
Li7 Pr0 3.174192 1_654
Li7 Pr5 3.194363 1_555
Ge0 Ge1 2.518659 1_565
Ge0 Ge3 2.535949 1_555
Ge0 Li4 2.580467 1_565
Ge0 Pr3 3.152058 1_565
Ge0 Pr3 3.152058 1_564
Ge0 Pr0 3.164731 1_555
Ge0 Pr0 3.164731 1_554
Ge0 Pr2 3.349526 1_555
Ge0 Pr2 3.349526 1_554
Ge1 Ge2 2.535949 1_555
Ge1 Li5 2.580467 1_545
Ge1 Pr2 3.152058 1_544
Ge1 Pr2 3.152058 1_545
Ge1 Pr1 3.164731 1_555
Ge1 Pr1 3.164731 1_554
Ge1 Pr3 3.349526 1_555
Ge1 Pr3 3.349526 1_554
Ge2 Ge3 2.518659 1_655
Ge2 Li6 2.580467 1_655
Ge2 Pr2 3.152058 1_655
Ge2 Pr2 3.152058 1_654
Ge2 Pr1 3.164731 1_555
Ge2 Pr1 3.164731 1_554
Ge2 Pr3 3.349526 1_555
Ge2 Pr3 3.349526 1_554
Ge3 Li7 2.580467 1_455
Ge3 Pr3 3.152058 1_454
Ge3 Pr3 3.152058 1_455
Ge3 Pr0 3.164731 1_555
Ge3 Pr0 3.164731 1_554
Ge3 Pr2 3.349526 1_555
Ge3 Pr2 3.349526 1_554
Ge4 Li6 2.651398 1_555
Ge4 Li6 2.651398 1_556
Ge4 Li5 2.651398 1_555
Ge4 Li5 2.651398 1_556
Ge4 Li2 2.790497 1_555
Ge4 Li1 2.790497 1_555
Ge4 Pr2 3.182652 1_555
Ge4 Pr4 3.231328 1_555
Ge4 Pr4 3.231328 1_556
Ge5 Li4 2.651398 1_555
Ge5 Li4 2.651398 1_556
Ge5 Li7 2.651398 1_556
Ge5 Li7 2.651398 1_555
Ge5 Li0 2.790497 1_555
Ge5 Li3 2.790497 1_555
Ge5 Pr3 3.182652 1_555
Ge5 Pr5 3.231328 1_555
Ge5 Pr5 3.231328 1_556
Ge6 Li0 2.669807 1_564
Ge6 Li0 2.669807 1_565
Ge6 Li3 2.669807 1_455
Ge6 Li3 2.669807 1_454
Ge6 Li4 2.759339 1_565
Ge6 Li7 2.759339 1_455
Ge6 Pr0 3.175721 1_554
Ge6 Pr0 3.175721 1_555
Ge6 Pr6 3.178935 1_565
Ge7 Li2 2.669807 1_654
Ge7 Li2 2.669807 1_655
Ge7 Li1 2.669807 1_545
Ge7 Li1 2.669807 1_544
Ge7 Li6 2.759339 1_655
Ge7 Li5 2.759339 1_545
Ge7 Pr1 3.175721 1_555
Ge7 Pr1 3.175721 1_554
Ge7 Pr6 3.178935 1_655
Ge8 Ge9 2.565594 1_555
Ge8 Li2 2.685681 1_555
Ge8 Li0 2.685681 1_555
Ge8 Pr6 3.136177 1_555
Ge8 Pr6 3.136177 1_556
Ge8 Pr4 3.232506 1_555
Ge8 Pr4 3.232506 1_556
Ge8 Pr5 3.232506 1_555
Ge8 Pr5 3.232506 1_556
Ge9 Li1 2.685681 1_555
Ge9 Li3 2.685681 1_555
Ge9 Pr6 3.136177 1_665
Ge9 Pr6 3.136177 1_666
Ge9 Pr5 3.232506 1_555
Ge9 Pr4 3.232506 1_555
Ge9 Pr4 3.232506 1_556
Ge9 Pr5 3.232506 1_556
