# generated using pymatgen
data_Sr3Ca5Mn7FeO24
_symmetry_space_group_name_H-M   'P 1'
_cell_length_a   7.69828708
_cell_length_b   7.69828708
_cell_length_c   7.69760601
_cell_angle_alpha   89.99778420
_cell_angle_beta   89.99778420
_cell_angle_gamma   90.00096835
_symmetry_Int_Tables_number   1
_chemical_formula_structural   Sr3Ca5Mn7FeO24
_chemical_formula_sum   'Sr3 Ca5 Mn7 Fe1 O24'
_cell_volume   456.18802776
_cell_formula_units_Z   1
loop_
 _symmetry_equiv_pos_site_id
 _symmetry_equiv_pos_as_xyz
  1  'x, y, z'
loop_
 _atom_site_type_symbol
 _atom_site_label
 _atom_site_symmetry_multiplicity
 _atom_site_fract_x
 _atom_site_fract_y
 _atom_site_fract_z
 _atom_site_occupancy
  Sr  Sr0  1  0.24990300  0.75009700  0.75007900  1
  Sr  Sr1  1  0.24990300  0.24990300  0.75006500  1
  Sr  Sr2  1  0.75009700  0.24990300  0.75007900  1
  Ca  Ca0  1  0.24994900  0.75005900  0.24995500  1
  Ca  Ca1  1  0.24994500  0.24994500  0.24996500  1
  Ca  Ca2  1  0.75006100  0.75006100  0.75003200  1
  Ca  Ca3  1  0.75006300  0.75006300  0.24995800  1
  Ca  Ca4  1  0.75005900  0.24994900  0.24995500  1
  Mn  Mn0  1  0.99964300  0.50033500  0.00103100  1
  Mn  Mn1  1  0.99965100  0.99965100  0.49900300  1
  Mn  Mn2  1  0.99963200  0.50035600  0.49892900  1
  Mn  Mn3  1  0.50033500  0.99964300  0.00103100  1
  Mn  Mn4  1  0.50036200  0.50036200  0.00106400  1
  Mn  Mn5  1  0.50035600  0.99963200  0.49892900  1
  Mn  Mn6  1  0.50035200  0.50035200  0.49889000  1
  Fe  Fe0  1  0.99963000  0.99963000  0.00110200  1
  O  O0  1  0.25328000  0.99984800  0.00353700  1
  O  O1  1  0.25070900  0.50011300  0.00356300  1
  O  O2  1  0.25075000  0.99989400  0.49643300  1
  O  O3  1  0.25028000  0.50008100  0.49643200  1
  O  O4  1  0.74675300  0.99831800  0.00198400  1
  O  O5  1  0.74928500  0.50170300  0.00189000  1
  O  O6  1  0.74924600  0.99828400  0.49808700  1
  O  O7  1  0.74972400  0.50173200  0.49810800  1
  O  O8  1  0.99830100  0.99830100  0.74652000  1
  O  O9  1  0.99825000  0.50174300  0.74928500  1
  O  O10  1  0.99984000  0.99984000  0.25339800  1
  O  O11  1  0.99991500  0.50009600  0.25071500  1
  O  O12  1  0.50174300  0.99825000  0.74928500  1
  O  O13  1  0.50176100  0.50176100  0.74969800  1
  O  O14  1  0.50009600  0.99991500  0.25071500  1
  O  O15  1  0.50008000  0.50008000  0.25027500  1
  O  O16  1  0.99831800  0.74675300  0.00198400  1
  O  O17  1  0.99984800  0.25328000  0.00353700  1
  O  O18  1  0.99828400  0.74924600  0.49808700  1
  O  O19  1  0.99989400  0.25075000  0.49643300  1
  O  O20  1  0.50170300  0.74928500  0.00189000  1
  O  O21  1  0.50011300  0.25070900  0.00356300  1
  O  O22  1  0.50173200  0.74972400  0.49810800  1
  O  O23  1  0.50008100  0.25028000  0.49643200  1
loop_
_geom_bond_atom_site_label_1
_geom_bond_atom_site_label_2
_geom_bond_distance
_geom_bond_site_symmetry_2
Ca0 O0 2.701121 1_555
Ca0 O2 2.701689 1_555
Ca0 O1 2.701831 1_555
Ca0 O3 2.702357 1_555
Ca0 O16 2.719715 1_455
Ca0 O18 2.720554 1_455
Ca0 O20 2.720680 1_555
Ca0 O10 2.721309 1_455
Ca0 O22 2.721414 1_555
Ca0 O11 2.721722 1_455
Ca0 O14 2.721756 1_555
Ca0 O15 2.722379 1_555
Ca1 O19 2.702714 1_455
Ca1 O2 2.702714 1_545
Ca1 O17 2.702969 1_455
Ca1 O0 2.702969 1_545
Ca1 O21 2.702998 1_555
Ca1 O1 2.702998 1_555
Ca1 O3 2.703273 1_555
Ca1 O23 2.703273 1_555
Ca1 O11 2.722770 1_455
Ca1 O14 2.722770 1_545
Ca1 O10 2.723002 1_445
Ca1 O15 2.723203 1_555
Ca2 O8 2.702705 1_555
Ca2 O12 2.702770 1_555
Ca2 O9 2.702770 1_555
Ca2 O13 2.703226 1_555
Ca2 O6 2.722578 1_555
Ca2 O18 2.722578 1_555
Ca2 O20 2.722829 1_556
Ca2 O5 2.722829 1_556
Ca2 O16 2.723017 1_556
Ca2 O4 2.723017 1_556
Ca2 O7 2.723135 1_555
Ca2 O22 2.723135 1_555
Ca3 O4 2.701178 1_555
Ca3 O16 2.701178 1_555
Ca3 O6 2.701827 1_555
Ca3 O18 2.701827 1_555
Ca3 O5 2.702251 1_555
Ca3 O20 2.702251 1_555
Ca3 O7 2.702429 1_555
Ca3 O22 2.702429 1_555
Ca3 O10 2.719435 1_555
Ca3 O14 2.720800 1_555
Ca3 O11 2.720800 1_555
Ca3 O15 2.721548 1_555
Ca4 O17 2.701121 1_555
Ca4 O19 2.701689 1_555
Ca4 O21 2.701831 1_555
Ca4 O23 2.702357 1_555
Ca4 O4 2.719715 1_545
Ca4 O6 2.720554 1_545
Ca4 O5 2.720680 1_555
Ca4 O10 2.721309 1_545
Ca4 O7 2.721414 1_555
Ca4 O14 2.721722 1_545
Ca4 O11 2.721756 1_555
Ca4 O15 2.722379 1_555
Mn0 O16 1.897039 1_555
Mn0 O17 1.901998 1_555
Mn0 O11 1.921971 1_555
Mn0 O5 1.927368 1_555
Mn0 O1 1.932878 1_655
Mn0 O9 1.937902 1_554
Mn1 O10 1.890572 1_555
Mn1 O8 1.905344 1_555
Mn1 O6 1.927731 1_555
Mn1 O18 1.927731 1_555
Mn1 O2 1.933134 1_655
Mn1 O19 1.933134 1_565
Mn2 O11 1.910656 1_555
Mn2 O18 1.916066 1_555
Mn2 O19 1.921637 1_555
Mn2 O7 1.923903 1_555
Mn2 O9 1.927201 1_555
Mn2 O3 1.929656 1_655
Mn3 O4 1.897039 1_555
Mn3 O0 1.901998 1_555
Mn3 O14 1.921971 1_555
Mn3 O20 1.927368 1_555
Mn3 O21 1.932878 1_565
Mn3 O12 1.937902 1_554
Mn4 O5 1.916319 1_555
Mn4 O20 1.916319 1_555
Mn4 O15 1.918330 1_555
Mn4 O21 1.921997 1_555
Mn4 O1 1.921997 1_555
Mn4 O13 1.934976 1_554
Mn5 O14 1.910656 1_555
Mn5 O6 1.916066 1_555
Mn5 O2 1.921637 1_555
Mn5 O22 1.923903 1_555
Mn5 O12 1.927201 1_555
Mn5 O23 1.929656 1_565
Mn6 O15 1.913743 1_555
Mn6 O22 1.919776 1_555
Mn6 O7 1.919776 1_555
Mn6 O3 1.925221 1_555
Mn6 O23 1.925221 1_555
Mn6 O13 1.930683 1_555
Fe0 O10 1.942077 1_555
Fe0 O16 1.946757 1_555
Fe0 O4 1.946757 1_555
Fe0 O0 1.952762 1_655
Fe0 O17 1.952762 1_565
Fe0 O8 1.959726 1_554
O0 Sr0 2.739352 1_554
O0 Sr1 2.740966 1_564
O1 Sr0 2.740531 1_554
O1 Sr1 2.741936 1_554
O2 Sr0 2.740409 1_555
O2 Sr1 2.741584 1_565
O3 Sr0 2.741698 1_555
O3 Sr1 2.742391 1_555
O4 Sr2 2.740699 1_564
O5 Sr2 2.741351 1_554
O6 Sr2 2.741352 1_565
O7 Sr2 2.742268 1_555
O8 Sr2 2.720923 1_565
O8 Sr0 2.720923 1_655
O8 Sr1 2.739311 1_665
O9 Sr2 2.721775 1_555
O9 Sr0 2.721837 1_655
O9 Sr1 2.740800 1_655
O12 Sr0 2.721775 1_555
O12 Sr2 2.721837 1_565
O12 Sr1 2.740800 1_565
O13 Sr0 2.722904 1_555
O13 Sr2 2.722904 1_555
O13 Sr1 2.741962 1_555
O16 Sr0 2.740699 1_654
O17 Sr2 2.739352 1_554
O17 Sr1 2.740966 1_654
O18 Sr0 2.741352 1_655
O19 Sr2 2.740409 1_555
O19 Sr1 2.741584 1_655
O20 Sr0 2.741351 1_554
O21 Sr2 2.740531 1_554
O21 Sr1 2.741936 1_554
O22 Sr0 2.742268 1_555
O23 Sr2 2.741698 1_555
O23 Sr1 2.742391 1_555
