# generated using pymatgen
data_KIn(TeMo)6
_symmetry_space_group_name_H-M   'P 1'
_cell_length_a   4.62350900
_cell_length_b   9.82570112
_cell_length_c   9.82993497
_cell_angle_alpha   119.50897201
_cell_angle_beta   90.00000000
_cell_angle_gamma   90.00000000
_symmetry_Int_Tables_number   1
_chemical_formula_structural   KIn(TeMo)6
_chemical_formula_sum   'K1 In1 Te6 Mo6'
_cell_volume   388.63704419
_cell_formula_units_Z   1
loop_
 _symmetry_equiv_pos_site_id
 _symmetry_equiv_pos_as_xyz
  1  'x, y, z'
loop_
 _atom_site_type_symbol
 _atom_site_label
 _atom_site_symmetry_multiplicity
 _atom_site_fract_x
 _atom_site_fract_y
 _atom_site_fract_z
 _atom_site_occupancy
  K  K0  1  0.75000000  0.66251100  0.33274000  1
  In  In0  1  0.25000000  0.34283100  0.67913100  1
  Te  Te0  1  0.75000000  0.64634000  0.69293400  1
  Te  Te1  1  0.75000000  0.30822000  0.95136300  1
  Te  Te2  1  0.75000000  0.04291300  0.35143900  1
  Te  Te3  1  0.25000000  0.34855600  0.31172200  1
  Te  Te4  1  0.25000000  0.68548400  0.03722500  1
  Te  Te5  1  0.25000000  0.96500000  0.64890700  1
  Mo  Mo0  1  0.75000000  0.98162500  0.83354400  1
  Mo  Mo1  1  0.75000000  0.16453700  0.14444400  1
  Mo  Mo2  1  0.75000000  0.85315600  0.01935500  1
  Mo  Mo3  1  0.25000000  0.01765100  0.16359200  1
  Mo  Mo4  1  0.25000000  0.83460500  0.85384200  1
  Mo  Mo5  1  0.25000000  0.14657200  0.97976200  1
loop_
_geom_bond_atom_site_label_1
_geom_bond_atom_site_label_2
_geom_bond_distance
_geom_bond_site_symmetry_2
K0 Te0 3.621588 1_555
K0 Te1 3.649170 1_554
K0 Te2 3.650685 1_565
K0 Te3 3.778254 1_555
K0 Te3 3.778254 1_655
K0 Te4 3.805196 1_555
K0 Te4 3.805196 1_655
K0 Te5 3.838917 1_555
K0 Te5 3.838917 1_655
In0 Te4 3.471473 1_556
Mo0 Mo1 2.675653 1_566
Mo0 Mo2 2.683436 1_556
Mo0 Mo5 2.782444 1_565
Mo0 Mo5 2.782444 1_665
Mo0 Mo4 2.784737 1_655
Mo0 Mo4 2.784737 1_555
Mo0 Te1 2.824521 1_565
Mo0 Te0 2.877125 1_555
Mo0 Te5 2.893603 1_655
Mo0 Te5 2.893603 1_555
Mo1 Mo2 2.677059 1_545
Mo1 Mo5 2.777485 1_654
Mo1 Mo5 2.777485 1_554
Mo1 Mo3 2.780332 1_555
Mo1 Mo3 2.780332 1_655
Mo1 Te2 2.822011 1_555
Mo1 Te1 2.869687 1_554
Mo1 Te3 2.896276 1_655
Mo1 Te3 2.896276 1_555
Mo2 Mo3 2.776565 1_665
Mo2 Mo3 2.776565 1_565
Mo2 Mo4 2.780711 1_554
Mo2 Mo4 2.780711 1_654
Mo2 Te0 2.828747 1_554
Mo2 Te2 2.852471 1_565
Mo2 Te4 2.893855 1_555
Mo2 Te4 2.893855 1_655
Mo3 Mo4 2.666637 1_544
Mo3 Mo5 2.669268 1_554
Mo3 Te3 2.833333 1_555
Mo3 Te4 2.863802 1_545
Mo3 Te2 2.892050 1_455
Mo3 Te2 2.892050 1_555
Mo4 Mo5 2.681497 1_565
Mo4 Te4 2.828135 1_556
Mo4 Te5 2.870948 1_555
Mo4 Te0 2.895781 1_555
Mo4 Te0 2.895781 1_455
Mo5 Te5 2.836246 1_545
Mo5 Te3 2.864805 1_556
Mo5 Te1 2.895107 1_555
Mo5 Te1 2.895107 1_455
