# generated using pymatgen
data_Li3Fe2(PO4)3
_symmetry_space_group_name_H-M   'P 1'
_cell_length_a   9.03607471
_cell_length_b   9.03607471
_cell_length_c   9.03607440
_cell_angle_alpha   55.56637603
_cell_angle_beta   55.56637603
_cell_angle_gamma   55.56637655
_symmetry_Int_Tables_number   1
_chemical_formula_structural   Li3Fe2(PO4)3
_chemical_formula_sum   'Li6 Fe4 P6 O24'
_cell_volume   468.01505344
_cell_formula_units_Z   2
loop_
 _symmetry_equiv_pos_site_id
 _symmetry_equiv_pos_as_xyz
  1  'x, y, z'
loop_
 _atom_site_type_symbol
 _atom_site_label
 _atom_site_symmetry_multiplicity
 _atom_site_fract_x
 _atom_site_fract_y
 _atom_site_fract_z
 _atom_site_occupancy
  Li  Li0  1  0.07580100  0.33426400  0.73664200  1
  Li  Li1  1  0.33426400  0.73664200  0.07580100  1
  Li  Li2  1  0.73664200  0.07580100  0.33426400  1
  Li  Li3  1  0.92419900  0.66573600  0.26335800  1
  Li  Li4  1  0.66573600  0.26335800  0.92419900  1
  Li  Li5  1  0.26335800  0.92419900  0.66573600  1
  Fe  Fe0  1  0.14658600  0.14658600  0.14658600  1
  Fe  Fe1  1  0.85341400  0.85341400  0.85341400  1
  Fe  Fe2  1  0.65162700  0.65162700  0.65162700  1
  Fe  Fe3  1  0.34837300  0.34837300  0.34837300  1
  P  P0  1  0.95747000  0.25177000  0.53962200  1
  P  P1  1  0.25177000  0.53962200  0.95747000  1
  P  P2  1  0.53962200  0.95747000  0.25177000  1
  P  P3  1  0.04253000  0.74823000  0.46037800  1
  P  P4  1  0.74823000  0.46037800  0.04253000  1
  P  P5  1  0.46037800  0.04253000  0.74823000  1
  O  O0  1  0.99158800  0.20262500  0.38491100  1
  O  O1  1  0.20262500  0.38491100  0.99158800  1
  O  O2  1  0.38491100  0.99158800  0.20262500  1
  O  O3  1  0.00841200  0.79737500  0.61508900  1
  O  O4  1  0.79737500  0.61508900  0.00841200  1
  O  O5  1  0.61508900  0.00841200  0.79737500  1
  O  O6  1  0.84505300  0.79034900  0.46337200  1
  O  O7  1  0.79034900  0.46337200  0.84505300  1
  O  O8  1  0.46337200  0.84505300  0.79034900  1
  O  O9  1  0.15494700  0.20965100  0.53662800  1
  O  O10  1  0.20965100  0.53662800  0.15494700  1
  O  O11  1  0.53662800  0.15494700  0.20965100  1
  O  O12  1  0.83247400  0.46817500  0.50753700  1
  O  O13  1  0.46817500  0.50753700  0.83247400  1
  O  O14  1  0.50753700  0.83247400  0.46817500  1
  O  O15  1  0.16752600  0.53182500  0.49246300  1
  O  O16  1  0.53182500  0.49246300  0.16752600  1
  O  O17  1  0.49246300  0.16752600  0.53182500  1
  O  O18  1  0.13702400  0.87503200  0.25448500  1
  O  O19  1  0.87503200  0.25448500  0.13702400  1
  O  O20  1  0.25448500  0.13702400  0.87503200  1
  O  O21  1  0.86297600  0.12496800  0.74551500  1
  O  O22  1  0.12496800  0.74551500  0.86297600  1
  O  O23  1  0.74551500  0.86297600  0.12496800  1
loop_
_geom_bond_atom_site_label_1
_geom_bond_atom_site_label_2
_geom_bond_distance
_geom_bond_site_symmetry_2
Li0 O20 1.963599 1_555
Li0 O15 1.973021 1_555
Li0 O7 2.001406 1_455
Li0 O9 2.230445 1_555
Li1 O18 1.963599 1_555
Li1 O16 1.973021 1_555
Li1 O8 2.001406 1_554
Li1 O10 2.230445 1_555
Li2 O19 1.963599 1_555
Li2 O17 1.973021 1_555
Li2 O6 2.001406 1_545
Li2 O11 2.230445 1_555
Li3 O23 1.963599 1_555
Li3 O12 1.973021 1_555
Li3 O10 2.001406 1_655
Li3 O6 2.230445 1_555
Li4 O21 1.963599 1_555
Li4 O13 1.973021 1_555
Li4 O11 2.001406 1_556
Li4 O7 2.230445 1_555
Li5 O22 1.963599 1_555
Li5 O14 1.973021 1_555
Li5 O9 2.001406 1_565
Li5 O8 2.230445 1_555
Fe0 O0 1.968723 1_455
Fe0 O1 1.968723 1_554
Fe0 O2 1.968723 1_545
Fe0 O20 2.101913 1_554
Fe0 O18 2.101913 1_545
Fe0 O19 2.101913 1_455
Fe1 O3 1.968723 1_655
Fe1 O4 1.968723 1_556
Fe1 O5 1.968723 1_565
Fe1 O23 2.101913 1_556
Fe1 O21 2.101913 1_565
Fe1 O22 2.101913 1_655
Fe2 O14 2.021074 1_555
Fe2 O12 2.021074 1_555
Fe2 O13 2.021074 1_555
Fe2 O7 2.055157 1_555
Fe2 O8 2.055157 1_555
Fe2 O6 2.055157 1_555
Fe3 O17 2.021074 1_555
Fe3 O15 2.021074 1_555
Fe3 O16 2.021074 1_555
Fe3 O10 2.055157 1_555
Fe3 O11 2.055157 1_555
Fe3 O9 2.055157 1_555
O0 P0 1.518698 1_555
O1 P1 1.518698 1_555
O2 P2 1.518698 1_555
O3 P3 1.518698 1_555
O4 P4 1.518698 1_555
O5 P5 1.518698 1_555
O6 P3 1.587055 1_655
O7 P4 1.587054 1_556
O8 P5 1.587055 1_565
O9 P0 1.587055 1_455
O10 P1 1.587054 1_554
O11 P2 1.587055 1_545
O12 P0 1.554025 1_555
O13 P1 1.554025 1_555
O14 P2 1.554025 1_555
O15 P3 1.554025 1_555
O16 P4 1.554025 1_555
O17 P5 1.554025 1_555
O18 P3 1.549961 1_555
O19 P4 1.549961 1_555
O20 P5 1.549961 1_555
O21 P0 1.549961 1_555
O22 P1 1.549961 1_555
O23 P2 1.549961 1_555
