# generated using pymatgen
data_Na9Fe2P4HO18
_symmetry_space_group_name_H-M   'P 1'
_cell_length_a   7.17998201
_cell_length_b   11.37896083
_cell_length_c   11.37896112
_cell_angle_alpha   81.60588687
_cell_angle_beta   71.74199602
_cell_angle_gamma   71.74199097
_symmetry_Int_Tables_number   1
_chemical_formula_structural   Na9Fe2P4HO18
_chemical_formula_sum   'Na18 Fe4 P8 H2 O36'
_cell_volume   837.23823063
_cell_formula_units_Z   2
loop_
 _symmetry_equiv_pos_site_id
 _symmetry_equiv_pos_as_xyz
  1  'x, y, z'
loop_
 _atom_site_type_symbol
 _atom_site_label
 _atom_site_symmetry_multiplicity
 _atom_site_fract_x
 _atom_site_fract_y
 _atom_site_fract_z
 _atom_site_occupancy
  Na  Na0  1  0.11949400  0.24081100  0.52283900  1
  Na  Na1  1  0.38048000  0.00456300  0.23926000  1
  Na  Na2  1  0.01234700  0.73907800  0.73904400  1
  Na  Na3  1  0.24458200  0.76615400  0.22460200  1
  Na  Na4  1  0.26358400  0.22411300  0.76777000  1
  Na  Na5  1  0.25024600  0.50473900  0.49484500  1
  Na  Na6  1  0.48709300  0.26509900  0.26281700  1
  Na  Na7  1  0.37889900  0.47937300  0.76161900  1
  Na  Na8  1  0.61949400  0.52283900  0.24081100  1
  Na  Na9  1  0.28604100  0.96971100  0.96644500  1
  Na  Na10  1  0.88048000  0.23926000  0.00456300  1
  Na  Na11  1  0.51234700  0.73904400  0.73907800  1
  Na  Na12  1  0.76358400  0.76777000  0.22411300  1
  Na  Na13  1  0.75024600  0.49484500  0.50473900  1
  Na  Na14  1  0.74458200  0.22460200  0.76615400  1
  Na  Na15  1  0.98709300  0.26281700  0.26509900  1
  Na  Na16  1  0.87889900  0.76161900  0.47937300  1
  Na  Na17  1  0.78604100  0.96644500  0.96971100  1
  Fe  Fe0  1  0.98956700  0.49812300  0.00256200  1
  Fe  Fe1  1  0.50976200  0.49717700  0.00212100  1
  Fe  Fe2  1  0.48956700  0.00256200  0.49812300  1
  Fe  Fe3  1  0.00976200  0.00212100  0.49717700  1
  P  P0  1  0.11695300  0.50330200  0.26521000  1
  P  P1  1  0.37797100  0.23791200  0.00107900  1
  P  P2  1  0.12263900  0.99924700  0.75663700  1
  P  P3  1  0.38263700  0.73657400  0.49494700  1
  P  P4  1  0.61695300  0.26521000  0.50330200  1
  P  P5  1  0.87797100  0.00107900  0.23791200  1
  P  P6  1  0.62263900  0.75663700  0.99924700  1
  P  P7  1  0.88263700  0.49494700  0.73657400  1
  H  H0  1  0.19126100  0.65340600  0.97100600  1
  H  H1  1  0.69126100  0.97100600  0.65340600  1
  O  O0  1  0.02428700  0.08642900  0.86747800  1
  O  O1  1  0.02633100  0.63791900  0.30918900  1
  O  O2  1  0.10854400  0.40914800  0.37941800  1
  O  O3  1  0.25455100  0.05032900  0.43935000  1
  O  O4  1  0.01064400  0.52168700  0.81321000  1
  O  O5  1  0.32942000  0.19708800  0.14012100  1
  O  O6  1  0.03339800  0.96610100  0.31789800  1
  O  O7  1  0.32224500  0.03356400  0.67890100  1
  O  O8  1  0.34692400  0.48081100  0.18920700  1
  O  O9  1  0.15153200  0.81235500  0.51964300  1
  O  O10  1  0.17832200  0.31933300  0.96624600  1
  O  O11  1  0.46528400  0.67992500  0.03084600  1
  O  O12  1  0.16837100  0.86268700  0.80581300  1
  O  O13  1  0.48901400  0.18824200  0.47798300  1
  O  O14  1  0.24084200  0.56532900  0.95357400  1
  O  O15  1  0.39277900  0.62115000  0.58750000  1
  O  O16  1  0.47116500  0.69638100  0.35890600  1
  O  O17  1  0.47319100  0.12669200  0.91656600  1
  O  O18  1  0.52428700  0.86747800  0.08642900  1
  O  O19  1  0.52633100  0.30918900  0.63791900  1
  O  O20  1  0.60854400  0.37941800  0.40914800  1
  O  O21  1  0.75455100  0.43935000  0.05032900  1
  O  O22  1  0.51064400  0.81321000  0.52168700  1
  O  O23  1  0.82942000  0.14012100  0.19708800  1
  O  O24  1  0.53339800  0.31789800  0.96610100  1
  O  O25  1  0.82224500  0.67890100  0.03356400  1
  O  O26  1  0.84692400  0.18920700  0.48081100  1
  O  O27  1  0.65153200  0.51964300  0.81235500  1
  O  O28  1  0.67832200  0.96624600  0.31933300  1
  O  O29  1  0.96528400  0.03084600  0.67992500  1
  O  O30  1  0.66837100  0.80581300  0.86268700  1
  O  O31  1  0.98901400  0.47798300  0.18824200  1
  O  O32  1  0.74084200  0.95357400  0.56532900  1
  O  O33  1  0.89277900  0.58750000  0.62115000  1
  O  O34  1  0.97116500  0.35890600  0.69638100  1
  O  O35  1  0.97319100  0.91656600  0.12669200  1
loop_
_geom_bond_atom_site_label_1
_geom_bond_atom_site_label_2
_geom_bond_distance
_geom_bond_site_symmetry_2
Na0 O3 2.290814 1_555
Na0 O34 2.323749 1_455
Na0 O2 2.326376 1_555
Na0 O26 2.406668 1_455
Na0 O13 2.429752 1_555
Na1 O3 2.243621 1_555
Na1 O18 2.276260 1_545
Na1 O5 2.289252 1_555
Na1 O28 2.472683 1_545
Na1 O6 2.524743 1_545
Na2 O30 2.369651 1_455
Na2 O12 2.375537 1_555
Na2 O4 2.496890 1_555
Na2 O9 2.505550 1_555
Na2 O15 2.768186 1_555
Na2 O33 2.799395 1_455
Na3 O1 2.364079 1_555
Na3 O11 2.408924 1_555
Na3 O16 2.450882 1_555
Na3 O6 2.477410 1_555
Na3 O35 2.584842 1_455
Na3 O18 2.603386 1_555
Na4 O19 2.378960 1_555
Na4 O7 2.387962 1_555
Na4 O10 2.466142 1_555
Na4 O34 2.471373 1_455
Na4 O17 2.522667 1_555
Na4 O0 2.576837 1_555
Na5 O15 2.418017 1_555
Na5 O2 2.427197 1_555
Na5 O33 2.471684 1_455
Na5 O20 2.477499 1_555
Na6 O23 2.364645 1_555
Na6 O5 2.384237 1_555
Na6 O8 2.473753 1_555
Na6 O13 2.479510 1_555
Na6 O2 2.723659 1_555
Na6 O20 2.734609 1_555
Na7 O14 2.317275 1_555
Na7 O19 2.330163 1_555
Na7 O15 2.362606 1_555
Na7 O27 2.392172 1_555
Na7 O4 2.424821 1_555
Na8 O21 2.290814 1_555
Na8 O16 2.323749 1_555
Na8 O20 2.326376 1_555
Na8 O8 2.406668 1_555
Na8 O31 2.429752 1_555
Na9 O0 2.426867 1_565
Na9 O18 2.428220 1_556
Na9 O17 2.459405 1_565
Na9 O35 2.588254 1_456
Na9 O12 2.792860 1_555
Na9 O30 2.794990 1_555
Na10 O21 2.243620 1_555
Na10 O0 2.276260 1_654
Na10 O23 2.289253 1_555
Na10 O10 2.472683 1_654
Na10 O24 2.524743 1_554
Na11 O12 2.369651 1_555
Na11 O30 2.375537 1_555
Na11 O22 2.496890 1_555
Na11 O27 2.505550 1_555
Na11 O33 2.768186 1_555
Na11 O15 2.799395 1_555
Na12 O1 2.378960 1_655
Na12 O25 2.387962 1_555
Na12 O28 2.466142 1_555
Na12 O16 2.471373 1_555
Na12 O35 2.522667 1_555
Na12 O18 2.576836 1_555
Na13 O33 2.418017 1_555
Na13 O20 2.427197 1_555
Na13 O15 2.471684 1_555
Na13 O2 2.477499 1_655
Na14 O19 2.364079 1_555
Na14 O29 2.408924 1_555
Na14 O34 2.450882 1_555
Na14 O24 2.477410 1_555
Na14 O17 2.584843 1_555
Na14 O0 2.603385 1_655
Na15 O5 2.364645 1_655
Na15 O23 2.384237 1_555
Na15 O26 2.473753 1_555
Na15 O31 2.479510 1_555
Na15 O20 2.723659 1_555
Na15 O2 2.734609 1_655
Na16 O32 2.317275 1_555
Na16 O1 2.330163 1_655
Na16 O33 2.362606 1_555
Na16 O9 2.392172 1_655
Na16 O22 2.424821 1_555
Na17 O18 2.426867 1_556
Na17 O0 2.428220 1_665
Na17 O35 2.459405 1_556
Na17 O17 2.588254 1_565
Na17 O30 2.792860 1_555
Na17 O12 2.794991 1_655
Fe0 O21 1.901667 1_555
Fe0 O25 2.048676 1_555
Fe0 O14 2.064072 1_654
Fe0 O10 2.076860 1_654
Fe0 O31 2.090597 1_555
Fe0 O4 2.095152 1_654
Fe1 O21 1.896591 1_555
Fe1 O14 2.059061 1_554
Fe1 O11 2.061553 1_555
Fe1 O24 2.083756 1_554
Fe1 O27 2.094961 1_554
Fe1 O8 2.096360 1_555
Fe2 O3 1.901666 1_555
Fe2 O7 2.048676 1_555
Fe2 O32 2.064072 1_545
Fe2 O28 2.076861 1_545
Fe2 O13 2.090597 1_555
Fe2 O22 2.095152 1_545
Fe3 O3 1.896591 1_555
Fe3 O32 2.059061 1_445
Fe3 O29 2.061553 1_455
Fe3 O6 2.083756 1_545
Fe3 O9 2.094961 1_545
Fe3 O26 2.096360 1_455
H0 O14 0.980188 1_555
H1 O32 0.980188 1_555
O0 P2 1.562643 1_545
O1 P0 1.554181 1_555
O2 P0 1.557314 1_555
O4 P7 1.566095 1_455
O5 P1 1.543315 1_555
O6 P5 1.576239 1_465
O7 P2 1.563448 1_545
O8 P0 1.563623 1_555
O9 P3 1.567778 1_555
O10 P1 1.577009 1_556
O11 P6 1.561883 1_554
O12 P2 1.541794 1_555
O13 P4 1.561247 1_555
O15 P3 1.556840 1_555
O16 P3 1.554840 1_555
O17 P1 1.547612 1_556
O18 P6 1.562643 1_554
O19 P4 1.554181 1_555
O20 P4 1.557314 1_555
O22 P3 1.566095 1_555
O23 P5 1.543315 1_555
O24 P1 1.576239 1_556
O25 P6 1.563447 1_554
O26 P4 1.563623 1_555
O27 P7 1.567778 1_555
O28 P5 1.577010 1_565
O29 P2 1.561883 1_645
O30 P6 1.541794 1_555
O31 P0 1.561247 1_655
O33 P7 1.556840 1_555
O34 P7 1.554840 1_555
O35 P5 1.547612 1_565
