# generated using pymatgen
data_Ba3Sr(MoO4)4
_symmetry_space_group_name_H-M   'P 1'
_cell_length_a   5.63645600
_cell_length_b   7.55824966
_cell_length_c   10.98406623
_cell_angle_alpha   72.21574978
_cell_angle_beta   75.13495644
_cell_angle_gamma   68.10873999
_symmetry_Int_Tables_number   1
_chemical_formula_structural   Ba3Sr(MoO4)4
_chemical_formula_sum   'Ba3 Sr1 Mo4 O16'
_cell_volume   408.02460532
_cell_formula_units_Z   1
loop_
 _symmetry_equiv_pos_site_id
 _symmetry_equiv_pos_as_xyz
  1  'x, y, z'
loop_
 _atom_site_type_symbol
 _atom_site_label
 _atom_site_symmetry_multiplicity
 _atom_site_fract_x
 _atom_site_fract_y
 _atom_site_fract_z
 _atom_site_occupancy
  Ba  Ba0  1  0.62570100  0.43734000  0.31112000  1
  Ba  Ba1  1  0.62430200  0.93767800  0.81387400  1
  Ba  Ba2  1  0.37497100  0.56246400  0.68764600  1
  Sr  Sr0  1  0.37486600  0.06257000  0.18750600  1
  Mo  Mo0  1  0.12405000  0.68834600  0.06495400  1
  Mo  Mo1  1  0.12613000  0.18641800  0.55997900  1
  Mo  Mo2  1  0.87493600  0.30957400  0.94050800  1
  Mo  Mo3  1  0.87486400  0.81560900  0.43452600  1
  O  O0  1  0.32093900  0.44820100  0.14130800  1
  O  O1  1  0.32458400  0.95337100  0.64080000  1
  O  O2  1  0.08221300  0.68984300  0.90792700  1
  O  O3  1  0.08878600  0.18405100  0.40167900  1
  O  O4  1  0.18466100  0.25525900  0.83755200  1
  O  O5  1  0.19047200  0.76605000  0.33403700  1
  O  O6  1  0.70893700  0.13452800  0.96601000  1
  O  O7  1  0.72286900  0.63352700  0.45886800  1
  O  O8  1  0.67701000  0.54490200  0.86116200  1
  O  O9  1  0.66618700  0.04630500  0.35475000  1
  O  O10  1  0.93247300  0.30516500  0.09585300  1
  O  O11  1  0.91731900  0.81421700  0.59181300  1
  O  O12  1  0.80624000  0.75056000  0.16188800  1
  O  O13  1  0.81325500  0.24306700  0.66082400  1
  O  O14  1  0.28242200  0.86592200  0.04552600  1
  O  O15  1  0.28181200  0.36503100  0.53988900  1
loop_
_geom_bond_atom_site_label_1
_geom_bond_atom_site_label_2
_geom_bond_distance
_geom_bond_site_symmetry_2
Ba0 O10 2.763304 1_555
Ba0 O7 2.768414 1_555
Ba0 O9 2.775772 1_555
Ba0 O5 2.788238 1_555
Ba0 O15 2.796778 1_555
Ba0 O0 2.807460 1_555
Ba0 O12 2.810165 1_555
Ba0 O3 2.812485 1_655
Ba1 O4 2.754112 1_565
Ba1 O8 2.766005 1_555
Ba1 O6 2.773229 1_565
Ba1 O11 2.778859 1_555
Ba1 O2 2.796143 1_655
Ba1 O13 2.798632 1_565
Ba1 O1 2.800467 1_555
Ba1 O14 2.811119 1_556
Ba2 O1 2.755991 1_555
Ba2 O13 2.762477 1_555
Ba2 O15 2.763612 1_555
Ba2 O2 2.773801 1_555
Ba2 O4 2.805132 1_555
Ba2 O7 2.807312 1_555
Ba2 O8 2.808938 1_555
Ba2 O11 2.809314 1_455
Mo0 O2 1.795948 1_554
Mo0 O12 1.806301 1_455
Mo0 O14 1.806789 1_555
Mo0 O0 1.809707 1_555
Mo1 O1 1.796382 1_545
Mo1 O15 1.800896 1_555
Mo1 O13 1.801291 1_455
Mo1 O3 1.810406 1_555
Mo2 O4 1.797578 1_655
Mo2 O8 1.800016 1_555
Mo2 O10 1.805254 1_556
Mo2 O6 1.807364 1_555
Mo3 O7 1.798976 1_555
Mo3 O11 1.800358 1_555
Mo3 O9 1.804928 1_565
Mo3 O5 1.808695 1_655
O0 Sr0 2.712994 1_555
O3 Sr0 2.691931 1_555
O5 Sr0 2.714538 1_565
O6 Sr0 2.713922 1_556
O9 Sr0 2.710199 1_555
O10 Sr0 2.710024 1_655
O12 Sr0 2.707568 1_565
O14 Sr0 2.706125 1_565
