# generated using pymatgen
data_HfGaRh
_symmetry_space_group_name_H-M   'P 1'
_cell_length_a   7.26549517
_cell_length_b   7.26549517
_cell_length_c   3.23966167
_cell_angle_alpha   90.00000000
_cell_angle_beta   90.00000000
_cell_angle_gamma   119.99999245
_symmetry_Int_Tables_number   1
_chemical_formula_structural   HfGaRh
_chemical_formula_sum   'Hf3 Ga3 Rh3'
_cell_volume   148.10194403
_cell_formula_units_Z   3
loop_
 _symmetry_equiv_pos_site_id
 _symmetry_equiv_pos_as_xyz
  1  'x, y, z'
loop_
 _atom_site_type_symbol
 _atom_site_label
 _atom_site_symmetry_multiplicity
 _atom_site_fract_x
 _atom_site_fract_y
 _atom_site_fract_z
 _atom_site_occupancy
  Hf  Hf0  1  0.39034010  -0.00000000  0.50000000  1
  Hf  Hf1  1  -0.00000000  0.39034010  0.50000000  1
  Hf  Hf2  1  0.60965990  0.60965990  0.50000000  1
  Ga  Ga0  1  0.72454205  -0.00000000  -0.00000000  1
  Ga  Ga1  1  -0.00000000  0.72454205  0.00000000  1
  Ga  Ga2  1  0.27545795  0.27545795  0.00000000  1
  Rh  Rh0  1  0.33333300  0.66666700  -0.00000000  1
  Rh  Rh1  1  0.66666700  0.33333300  -0.00000000  1
  Rh  Rh2  1  0.00000000  -0.00000000  0.50000000  1
loop_
_geom_bond_atom_site_label_1
_geom_bond_atom_site_label_2
_geom_bond_distance
_geom_bond_site_symmetry_2
Hf0 Rh0 2.767232 1_545
Hf0 Rh0 2.767232 1_546
Hf0 Rh1 2.767234 1_555
Hf0 Rh1 2.767234 1_556
Hf0 Rh2 2.836014 1_555
Hf1 Rh1 2.767232 1_455
Hf1 Rh1 2.767232 1_456
Hf1 Rh0 2.767234 1_556
Hf1 Rh0 2.767234 1_555
Hf1 Rh2 2.836014 1_555
Hf2 Rh0 2.767238 1_556
Hf2 Rh0 2.767238 1_555
Hf2 Rh1 2.767238 1_555
Hf2 Rh1 2.767238 1_556
Hf2 Rh2 2.836014 1_665
Ga0 Rh2 2.574725 1_655
Ga0 Rh2 2.574725 1_654
Ga0 Rh1 2.657146 1_555
Ga0 Rh0 2.657151 1_545
Ga0 Hf0 2.918857 1_555
Ga0 Hf0 2.918857 1_554
Ga0 Hf2 2.999393 1_544
Ga0 Hf2 2.999393 1_545
Ga0 Hf1 2.999393 1_654
Ga0 Hf1 2.999393 1_655
Ga1 Rh2 2.574725 1_564
Ga1 Rh2 2.574725 1_565
Ga1 Rh0 2.657146 1_555
Ga1 Rh1 2.657151 1_455
Ga1 Hf1 2.918857 1_555
Ga1 Hf1 2.918857 1_554
Ga1 Hf2 2.999393 1_454
Ga1 Hf2 2.999393 1_455
Ga1 Hf0 2.999393 1_564
Ga1 Hf0 2.999393 1_565
Ga2 Rh2 2.574725 1_554
Ga2 Rh2 2.574725 1_555
Ga2 Rh1 2.657154 1_555
Ga2 Rh0 2.657154 1_555
Ga2 Hf2 2.918858 1_555
Ga2 Hf2 2.918858 1_554
Ga2 Hf0 2.999393 1_555
Ga2 Hf1 2.999393 1_555
Ga2 Hf1 2.999393 1_554
Ga2 Hf0 2.999393 1_554
