# generated using pymatgen
data_MgTa2(CuO4)2
_symmetry_space_group_name_H-M   'P 1'
_cell_length_a   8.60947600
_cell_length_b   6.65169800
_cell_length_c   12.28383668
_cell_angle_alpha   87.96361772
_cell_angle_beta   90.00000000
_cell_angle_gamma   90.00000000
_symmetry_Int_Tables_number   1
_chemical_formula_structural   MgTa2(CuO4)2
_chemical_formula_sum   'Mg4 Ta8 Cu8 O32'
_cell_volume   703.02200269
_cell_formula_units_Z   4
loop_
 _symmetry_equiv_pos_site_id
 _symmetry_equiv_pos_as_xyz
  1  'x, y, z'
loop_
 _atom_site_type_symbol
 _atom_site_label
 _atom_site_symmetry_multiplicity
 _atom_site_fract_x
 _atom_site_fract_y
 _atom_site_fract_z
 _atom_site_occupancy
  Mg  Mg0  1  0.83963000  0.88883300  0.05075700  1
  Mg  Mg1  1  0.16037000  0.11116700  0.94924300  1
  Mg  Mg2  1  0.33963000  0.11116700  0.44924300  1
  Mg  Mg3  1  0.66037000  0.88883300  0.55075700  1
  Ta  Ta0  1  0.54406400  0.90301600  0.84400200  1
  Ta  Ta1  1  0.95593600  0.90301600  0.34400200  1
  Ta  Ta2  1  0.91277900  0.38555100  0.13597200  1
  Ta  Ta3  1  0.04406400  0.09698400  0.65599800  1
  Ta  Ta4  1  0.08722100  0.61444900  0.86402800  1
  Ta  Ta5  1  0.41277900  0.61444900  0.36402800  1
  Ta  Ta6  1  0.58722100  0.38555100  0.63597200  1
  Ta  Ta7  1  0.45593600  0.09698400  0.15599800  1
  Cu  Cu0  1  0.81592700  0.23337700  0.87729800  1
  Cu  Cu1  1  0.93951400  0.62634400  0.62277200  1
  Cu  Cu2  1  0.06048600  0.37365600  0.37722800  1
  Cu  Cu3  1  0.18407300  0.76662300  0.12270200  1
  Cu  Cu4  1  0.68407300  0.23337700  0.37729800  1
  Cu  Cu5  1  0.56048600  0.62634400  0.12277200  1
  Cu  Cu6  1  0.31592700  0.76662300  0.62270200  1
  Cu  Cu7  1  0.43951400  0.37365600  0.87722800  1
  O  O0  1  0.75629300  0.96053300  0.40024000  1
  O  O1  1  0.98328500  0.34759600  0.60213300  1
  O  O2  1  0.42434400  0.81364100  0.47196400  1
  O  O3  1  0.92434400  0.18635900  0.02803600  1
  O  O4  1  0.74370700  0.96053300  0.90024000  1
  O  O5  1  0.24370700  0.03946700  0.59976000  1
  O  O6  1  0.88850800  0.91339200  0.61210700  1
  O  O7  1  0.10412700  0.49985900  0.13865500  1
  O  O8  1  0.39587300  0.49985900  0.63865500  1
  O  O9  1  0.12636200  0.70316500  0.71556300  1
  O  O10  1  0.62636200  0.29683500  0.78443700  1
  O  O11  1  0.89587300  0.50014100  0.86134500  1
  O  O12  1  0.11149200  0.08660800  0.38789300  1
  O  O13  1  0.45547900  0.11582000  0.30526900  1
  O  O14  1  0.71980100  0.58840700  0.58550300  1
  O  O15  1  0.78019900  0.58840700  0.08550300  1
  O  O16  1  0.95547900  0.88418000  0.19473100  1
  O  O17  1  0.60412700  0.50014100  0.36134500  1
  O  O18  1  0.54452100  0.88418000  0.69473100  1
  O  O19  1  0.57565600  0.18635900  0.52803600  1
  O  O20  1  0.51671500  0.34759600  0.10213300  1
  O  O21  1  0.87363800  0.29683500  0.28443700  1
  O  O22  1  0.25629300  0.03946700  0.09976000  1
  O  O23  1  0.61149200  0.91339200  0.11210700  1
  O  O24  1  0.07565600  0.81364100  0.97196400  1
  O  O25  1  0.21980100  0.41159300  0.91449700  1
  O  O26  1  0.01671500  0.65240400  0.39786700  1
  O  O27  1  0.48328500  0.65240400  0.89786700  1
  O  O28  1  0.38850800  0.08660800  0.88789300  1
  O  O29  1  0.28019900  0.41159300  0.41449700  1
  O  O30  1  0.37363800  0.70316500  0.21556300  1
  O  O31  1  0.04452100  0.11582000  0.80526900  1
loop_
_geom_bond_atom_site_label_1
_geom_bond_atom_site_label_2
_geom_bond_distance
_geom_bond_site_symmetry_2
Mg0 O16 2.029693 1_555
Mg0 O4 2.065270 1_554
Mg0 O15 2.092065 1_555
Mg0 O23 2.112167 1_555
Mg0 O3 2.118309 1_565
Mg0 O24 2.313140 1_654
Mg1 O31 2.029693 1_555
Mg1 O22 2.065270 1_556
Mg1 O25 2.092065 1_555
Mg1 O28 2.112167 1_555
Mg1 O24 2.118309 1_545
Mg1 O3 2.313140 1_456
Mg2 O13 2.029693 1_555
Mg2 O5 2.065270 1_555
Mg2 O29 2.092065 1_555
Mg2 O12 2.112167 1_555
Mg2 O2 2.118309 1_545
Mg2 O19 2.313140 1_555
Mg3 O18 2.029693 1_555
Mg3 O0 2.065270 1_555
Mg3 O14 2.092065 1_555
Mg3 O6 2.112167 1_555
Mg3 O19 2.118309 1_565
Mg3 O2 2.313140 1_555
Cu0 O11 1.906843 1_555
Cu0 O4 1.929625 1_545
Cu0 O10 2.027000 1_555
Cu0 O3 2.087221 1_556
Cu0 O31 2.305818 1_655
Cu1 O1 1.917696 1_555
Cu1 O6 1.959048 1_555
Cu1 O14 1.964606 1_555
Cu1 O9 2.046830 1_655
Cu2 O26 1.917696 1_555
Cu2 O12 1.959048 1_555
Cu2 O29 1.964606 1_555
Cu2 O21 2.046830 1_455
Cu3 O7 1.906843 1_555
Cu3 O22 1.929625 1_565
Cu3 O30 2.027000 1_555
Cu3 O24 2.087221 1_554
Cu3 O16 2.305818 1_455
Cu4 O17 1.906843 1_555
Cu4 O0 1.929625 1_545
Cu4 O21 2.027000 1_555
Cu4 O19 2.087221 1_555
Cu4 O13 2.305818 1_555
Cu5 O20 1.917696 1_555
Cu5 O23 1.959048 1_555
Cu5 O15 1.964606 1_555
Cu5 O30 2.046830 1_555
Cu6 O8 1.906843 1_555
Cu6 O5 1.929625 1_565
Cu6 O9 2.027000 1_555
Cu6 O2 2.087221 1_555
Cu6 O18 2.305818 1_555
Cu7 O27 1.917696 1_555
Cu7 O28 1.959048 1_555
Cu7 O25 1.964606 1_555
Cu7 O10 2.046830 1_555
O0 Ta1 1.896505 1_555
O1 Ta3 1.847189 1_655
O2 Ta5 1.910031 1_555
O3 Ta2 1.910031 1_555
O4 Ta0 1.896505 1_555
O5 Ta3 1.896505 1_555
O6 Ta3 1.903262 1_665
O7 Ta2 1.815195 1_455
O8 Ta6 1.815195 1_555
O9 Ta4 1.926463 1_555
O10 Ta6 1.926463 1_555
O11 Ta4 1.815195 1_655
O12 Ta1 1.903262 1_445
O13 Ta7 1.842337 1_555
O14 Ta6 1.857013 1_555
O15 Ta2 1.857013 1_555
O16 Ta1 1.842337 1_555
O17 Ta5 1.815195 1_555
O18 Ta0 1.842337 1_555
O19 Ta6 1.910031 1_555
O20 Ta7 1.847189 1_555
O21 Ta2 1.926463 1_555
O22 Ta7 1.896505 1_555
O23 Ta7 1.903262 1_565
O24 Ta4 1.910031 1_555
O25 Ta4 1.857013 1_555
O26 Ta1 1.847189 1_455
O27 Ta0 1.847189 1_555
O28 Ta0 1.903262 1_545
O29 Ta5 1.857013 1_555
O30 Ta5 1.926463 1_555
O31 Ta3 1.842337 1_555
