# generated using pymatgen
data_Ho3Pt4
_symmetry_space_group_name_H-M   'P 1'
_cell_length_a   5.68476456
_cell_length_b   7.79167860
_cell_length_c   7.79167793
_cell_angle_alpha   114.28538884
_cell_angle_beta   104.07537391
_cell_angle_gamma   104.07537268
_symmetry_Int_Tables_number   1
_chemical_formula_structural   Ho3Pt4
_chemical_formula_sum   'Ho6 Pt8'
_cell_volume   281.20802485
_cell_formula_units_Z   2
loop_
 _symmetry_equiv_pos_site_id
 _symmetry_equiv_pos_as_xyz
  1  'x, y, z'
loop_
 _atom_site_type_symbol
 _atom_site_label
 _atom_site_symmetry_multiplicity
 _atom_site_fract_x
 _atom_site_fract_y
 _atom_site_fract_z
 _atom_site_occupancy
  Ho  Ho0  1  0.40514451  0.12572815  0.37757703  1
  Ho  Ho1  1  0.02756648  0.62242297  0.74815212  1
  Ho  Ho2  1  0.27941536  0.25184788  0.87427185  1
  Ho  Ho3  1  0.59485549  0.87427185  0.62242297  1
  Ho  Ho4  1  0.97243352  0.37757703  0.25184788  1
  Ho  Ho5  1  0.72058464  0.74815212  0.12572815  1
  Pt  Pt0  1  -0.00000000  -0.00000000  -0.00000000  1
  Pt  Pt1  1  0.50000000  -0.00000000  -0.00000000  1
  Pt  Pt2  1  0.22748883  0.67430357  0.16576608  1
  Pt  Pt3  1  0.06172275  0.83423392  0.50853649  1
  Pt  Pt4  1  0.55318626  0.49146351  0.32569643  1
  Pt  Pt5  1  0.77251117  0.32569643  0.83423392  1
  Pt  Pt6  1  0.93827725  0.16576608  0.49146351  1
  Pt  Pt7  1  0.44681374  0.50853649  0.67430357  1
loop_
_geom_bond_atom_site_label_1
_geom_bond_atom_site_label_2
_geom_bond_distance
_geom_bond_site_symmetry_2
Ho0 Pt7 2.831181 1_555
Ho0 Pt6 2.841550 1_555
Ho0 Pt0 2.855784 1_555
Ho0 Pt1 2.926340 1_555
Ho0 Pt2 2.966819 1_545
Ho0 Pt4 2.989806 1_555
Ho0 Pt6 3.041240 1_455
Ho0 Pt5 3.113214 1_555
Ho0 Pt3 3.275610 1_545
Ho1 Pt5 2.831176 1_455
Ho1 Pt7 2.841556 1_555
Ho1 Pt0 2.855780 1_566
Ho1 Pt1 2.926343 1_566
Ho1 Pt3 2.966833 1_555
Ho1 Pt2 2.989791 1_556
Ho1 Pt7 3.041234 1_455
Ho1 Pt6 3.113216 1_455
Ho1 Pt4 3.275617 1_455
Ho2 Pt6 2.831178 1_455
Ho2 Pt5 2.841555 1_555
Ho2 Pt0 2.855776 1_556
Ho2 Pt1 2.926336 1_556
Ho2 Pt4 2.966820 1_556
Ho2 Pt3 2.989797 1_545
Ho2 Pt5 3.041234 1_455
Ho2 Pt7 3.113214 1_555
Ho2 Pt2 3.275619 1_556
Ho3 Pt4 2.831181 1_555
Ho3 Pt3 2.841550 1_555
Ho3 Pt0 2.855784 1_666
Ho3 Pt1 2.926340 1_566
Ho3 Pt5 2.966819 1_565
Ho3 Pt7 2.989806 1_555
Ho3 Pt3 3.041240 1_655
Ho3 Pt2 3.113214 1_555
Ho3 Pt6 3.275610 1_565
Ho4 Pt2 2.831176 1_655
Ho4 Pt4 2.841556 1_555
Ho4 Pt0 2.855780 1_655
Ho4 Pt1 2.926343 1_555
Ho4 Pt6 2.966833 1_555
Ho4 Pt5 2.989791 1_554
Ho4 Pt4 3.041234 1_655
Ho4 Pt3 3.113216 1_655
Ho4 Pt7 3.275617 1_655
Ho5 Pt3 2.831178 1_655
Ho5 Pt2 2.841555 1_555
Ho5 Pt0 2.855776 1_665
Ho5 Pt1 2.926336 1_565
Ho5 Pt7 2.966820 1_554
Ho5 Pt6 2.989797 1_565
Ho5 Pt2 3.041234 1_655
Ho5 Pt4 3.113214 1_555
Ho5 Pt5 3.275619 1_554
Pt2 Pt5 2.881329 1_454
Pt2 Pt3 2.937943 1_555
Pt2 Pt4 2.937947 1_555
Pt3 Pt6 2.881324 1_465
Pt3 Pt4 2.937944 1_455
Pt4 Pt7 2.881339 1_555
Pt5 Pt6 2.937943 1_555
Pt5 Pt7 2.937947 1_555
Pt6 Pt7 2.937944 1_655
