# generated using pymatgen
data_Rb6Mn2CrCl12
_symmetry_space_group_name_H-M   'P 1'
_cell_length_a   5.09784100
_cell_length_b   5.09784100
_cell_length_c   24.63199489
_cell_angle_alpha   84.06039735
_cell_angle_beta   84.06039735
_cell_angle_gamma   90.00000000
_symmetry_Int_Tables_number   1
_chemical_formula_structural   Rb6Mn2CrCl12
_chemical_formula_sum   'Rb6 Mn2 Cr1 Cl12'
_cell_volume   633.24411072
_cell_formula_units_Z   1
loop_
 _symmetry_equiv_pos_site_id
 _symmetry_equiv_pos_as_xyz
  1  'x, y, z'
loop_
 _atom_site_type_symbol
 _atom_site_label
 _atom_site_symmetry_multiplicity
 _atom_site_fract_x
 _atom_site_fract_y
 _atom_site_fract_z
 _atom_site_occupancy
  Rb  Rb0  1  0.45349500  0.45349500  0.09301000  1
  Rb  Rb1  1  0.78600000  0.78600000  0.42799900  1
  Rb  Rb2  1  0.11895700  0.11895700  0.76208500  1
  Rb  Rb3  1  0.88104300  0.88104300  0.23791500  1
  Rb  Rb4  1  0.21400000  0.21400000  0.57200100  1
  Rb  Rb5  1  0.54650500  0.54650500  0.90699000  1
  Mn  Mn0  1  0.33334700  0.33334700  0.33330500  1
  Mn  Mn1  1  0.66665300  0.66665300  0.66669500  1
  Cr  Cr0  1  0.00000000  0.00000000  0.00000000  1
  Cl  Cl0  1  0.38510300  0.38510300  0.22979300  1
  Cl  Cl1  1  0.71833800  0.71833800  0.56332500  1
  Cl  Cl2  1  0.05018400  0.05018400  0.89963200  1
  Cl  Cl3  1  0.94981600  0.94981600  0.10036800  1
  Cl  Cl4  1  0.28166200  0.28166200  0.43667500  1
  Cl  Cl5  1  0.61489700  0.61489700  0.77020700  1
  Cl  Cl6  1  0.50000000  0.00000000  0.00000000  1
  Cl  Cl7  1  0.83338100  0.33338100  0.33323700  1
  Cl  Cl8  1  0.16661900  0.66661900  0.66676300  1
  Cl  Cl9  1  0.33338100  0.83338100  0.33323700  1
  Cl  Cl10  1  0.66661900  0.16661900  0.66676300  1
  Cl  Cl11  1  0.00000000  0.50000000  0.00000000  1
loop_
_geom_bond_atom_site_label_1
_geom_bond_atom_site_label_2
_geom_bond_distance
_geom_bond_site_symmetry_2
Cl0 Mn0 2.522257 1_555
Cl0 Rb0 3.332965 1_555
Cl0 Rb3 3.610139 1_445
Cl0 Rb3 3.610147 1_545
Cl0 Rb3 3.610147 1_455
Cl0 Rb3 3.610154 1_555
Cl1 Mn1 2.518797 1_555
Cl1 Rb1 3.297462 1_555
Cl1 Rb4 3.610912 1_665
Cl1 Rb4 3.610912 1_565
Cl1 Rb4 3.610912 1_655
Cl1 Rb4 3.610912 1_555
Cl2 Cr0 2.445647 1_556
Cl2 Rb2 3.351581 1_555
Cl2 Rb5 3.609174 1_555
Cl2 Rb5 3.609174 1_545
Cl2 Rb5 3.609174 1_455
Cl2 Rb5 3.609174 1_445
Cl3 Cr0 2.445647 1_665
Cl3 Rb3 3.351581 1_555
Cl3 Rb0 3.609174 1_555
Cl3 Rb0 3.609174 1_655
Cl3 Rb0 3.609174 1_565
Cl3 Rb0 3.609174 1_665
Cl4 Mn0 2.518797 1_555
Cl4 Rb4 3.297462 1_555
Cl4 Rb1 3.610912 1_445
Cl4 Rb1 3.610912 1_455
Cl4 Rb1 3.610912 1_545
Cl4 Rb1 3.610912 1_555
Cl5 Mn1 2.522257 1_555
Cl5 Rb5 3.332965 1_555
Cl5 Rb2 3.610139 1_665
Cl5 Rb2 3.610147 1_565
Cl5 Rb2 3.610147 1_655
Cl5 Rb2 3.610154 1_555
Cl6 Cr0 2.548920 1_655
Cl6 Cr0 2.548920 1_555
Cl6 Rb0 3.410772 1_555
Cl6 Rb5 3.410772 1_544
Cl6 Rb0 3.410772 1_545
Cl6 Rb5 3.410772 1_554
Cl7 Mn0 2.548921 1_655
Cl7 Mn0 2.548921 1_555
Cl7 Rb1 3.439287 1_555
Cl7 Rb1 3.439287 1_545
Cl7 Rb3 3.448459 1_545
Cl7 Rb3 3.448467 1_555
Cl8 Mn1 2.548921 1_455
Cl8 Mn1 2.548921 1_555
Cl8 Rb4 3.439287 1_555
Cl8 Rb4 3.439287 1_565
Cl8 Rb2 3.448459 1_565
Cl8 Rb2 3.448467 1_555
Cl9 Mn0 2.548921 1_565
Cl9 Mn0 2.548921 1_555
Cl9 Rb1 3.439287 1_555
Cl9 Rb1 3.439287 1_455
Cl9 Rb3 3.448459 1_455
Cl9 Rb3 3.448467 1_555
Cl10 Mn1 2.548921 1_545
Cl10 Mn1 2.548921 1_555
Cl10 Rb4 3.439287 1_555
Cl10 Rb4 3.439287 1_655
Cl10 Rb2 3.448459 1_655
Cl10 Rb2 3.448467 1_555
Cl11 Cr0 2.548920 1_565
Cl11 Cr0 2.548920 1_555
Cl11 Rb0 3.410772 1_555
Cl11 Rb5 3.410772 1_454
Cl11 Rb0 3.410772 1_455
Cl11 Rb5 3.410772 1_554
