# generated using pymatgen
data_Dy2S3
_symmetry_space_group_name_H-M   'P 1'
_cell_length_a   3.85878794
_cell_length_b   10.47605883
_cell_length_c   10.60964290
_cell_angle_alpha   90.00000000
_cell_angle_beta   90.00000000
_cell_angle_gamma   90.00000000
_symmetry_Int_Tables_number   1
_chemical_formula_structural   Dy2S3
_chemical_formula_sum   'Dy8 S12'
_cell_volume   428.89364157
_cell_formula_units_Z   4
loop_
 _symmetry_equiv_pos_site_id
 _symmetry_equiv_pos_as_xyz
  1  'x, y, z'
loop_
 _atom_site_type_symbol
 _atom_site_label
 _atom_site_symmetry_multiplicity
 _atom_site_fract_x
 _atom_site_fract_y
 _atom_site_fract_z
 _atom_site_occupancy
  Dy  Dy0  1  0.25000000  0.99583583  0.80796655  1
  Dy  Dy1  1  0.75000000  0.00416417  0.19203345  1
  Dy  Dy2  1  0.75000000  0.49583583  0.69203345  1
  Dy  Dy3  1  0.25000000  0.50416417  0.30796655  1
  Dy  Dy4  1  0.25000000  0.18685011  0.48998068  1
  Dy  Dy5  1  0.75000000  0.81314989  0.51001932  1
  Dy  Dy6  1  0.75000000  0.68685011  0.01001932  1
  Dy  Dy7  1  0.25000000  0.31314989  0.98998068  1
  S  S0  1  0.25000000  0.30460551  0.72734215  1
  S  S1  1  0.75000000  0.69539449  0.27265785  1
  S  S2  1  0.75000000  0.80460551  0.77265785  1
  S  S3  1  0.25000000  0.19539449  0.22734215  1
  S  S4  1  0.25000000  0.94453626  0.38103249  1
  S  S5  1  0.75000000  0.05546374  0.61896751  1
  S  S6  1  0.75000000  0.44453626  0.11896751  1
  S  S7  1  0.25000000  0.55546374  0.88103249  1
  S  S8  1  0.25000000  0.87324433  0.04599856  1
  S  S9  1  0.75000000  0.12675567  0.95400144  1
  S  S10  1  0.75000000  0.37324433  0.45400144  1
  S  S11  1  0.25000000  0.62675567  0.54599856  1
loop_
_geom_bond_atom_site_label_1
_geom_bond_atom_site_label_2
_geom_bond_distance
_geom_bond_site_symmetry_2
Dy0 S2 2.806469 1_555
Dy0 S2 2.806469 1_455
Dy0 S9 2.829171 1_465
Dy0 S9 2.829171 1_565
Dy0 S8 2.833229 1_556
Dy0 S5 2.851955 1_565
Dy0 S5 2.851955 1_465
Dy0 S0 3.345881 1_565
Dy1 S3 2.806469 1_555
Dy1 S3 2.806469 1_655
Dy1 S8 2.829171 1_645
Dy1 S8 2.829171 1_545
Dy1 S9 2.833229 1_554
Dy1 S4 2.851955 1_645
Dy1 S4 2.851955 1_545
Dy1 S1 3.345881 1_545
Dy2 S0 2.806469 1_655
Dy2 S0 2.806469 1_555
Dy2 S11 2.829171 1_555
Dy2 S11 2.829171 1_655
Dy2 S10 2.833229 1_555
Dy2 S7 2.851955 1_555
Dy2 S7 2.851955 1_655
Dy2 S2 3.345881 1_555
Dy3 S1 2.806469 1_555
Dy3 S1 2.806469 1_455
Dy3 S10 2.829171 1_455
Dy3 S10 2.829171 1_555
Dy3 S11 2.833229 1_555
Dy3 S6 2.851955 1_455
Dy3 S6 2.851955 1_555
Dy3 S3 3.345881 1_555
Dy4 S5 2.736763 1_455
Dy4 S5 2.736763 1_555
Dy4 S10 2.771502 1_555
Dy4 S10 2.771502 1_455
Dy4 S3 2.787938 1_555
Dy4 S4 2.789276 1_545
Dy4 S0 2.804236 1_555
Dy5 S4 2.736763 1_655
Dy5 S4 2.736763 1_555
Dy5 S11 2.771502 1_555
Dy5 S11 2.771502 1_655
Dy5 S2 2.787938 1_555
Dy5 S5 2.789276 1_565
Dy5 S1 2.804236 1_555
Dy6 S7 2.736763 1_654
Dy6 S7 2.736763 1_554
Dy6 S8 2.771502 1_555
Dy6 S8 2.771502 1_655
Dy6 S1 2.787938 1_555
Dy6 S6 2.789276 1_555
Dy6 S2 2.804236 1_554
Dy7 S6 2.736763 1_456
Dy7 S6 2.736763 1_556
Dy7 S9 2.771502 1_555
Dy7 S9 2.771502 1_455
Dy7 S0 2.787938 1_555
Dy7 S7 2.789276 1_555
Dy7 S3 2.804236 1_556
