# generated using pymatgen
data_TcAs3
_symmetry_space_group_name_H-M   'P 1'
_cell_length_a   4.54874438
_cell_length_b   4.54874438
_cell_length_c   4.54874438
_cell_angle_alpha   60.00000000
_cell_angle_beta   60.00000000
_cell_angle_gamma   60.00000000
_symmetry_Int_Tables_number   1
_chemical_formula_structural   TcAs3
_chemical_formula_sum   'Tc1 As3'
_cell_volume   66.55176832
_cell_formula_units_Z   1
loop_
 _symmetry_equiv_pos_site_id
 _symmetry_equiv_pos_as_xyz
  1  'x, y, z'
loop_
 _atom_site_type_symbol
 _atom_site_label
 _atom_site_symmetry_multiplicity
 _atom_site_fract_x
 _atom_site_fract_y
 _atom_site_fract_z
 _atom_site_occupancy
  Tc  Tc0  1  0.00000000  0.00000000  0.00000000  1
  As  As0  1  0.25000000  0.25000000  0.25000000  1
  As  As1  1  0.75000000  0.75000000  0.75000000  1
  As  As2  1  0.50000000  0.50000000  0.50000000  1
loop_
_geom_bond_atom_site_label_1
_geom_bond_atom_site_label_2
_geom_bond_distance
_geom_bond_site_symmetry_2
As0 As2 2.785526 1_555
As0 Tc0 2.785526 1_555
As0 As2 2.785526 1_554
As0 Tc0 2.785526 1_556
As0 Tc0 2.785526 1_565
As0 Tc0 2.785526 1_655
As0 As2 2.785526 1_455
As0 As2 2.785526 1_545
As1 Tc0 2.785526 1_665
As1 As2 2.785526 1_555
As1 As2 2.785526 1_556
As1 Tc0 2.785526 1_666
As1 Tc0 2.785526 1_566
As1 As2 2.785526 1_655
As1 As2 2.785526 1_565
As1 Tc0 2.785526 1_656
As2 Tc0 3.216448 1_656
As2 Tc0 3.216448 1_556
As2 Tc0 3.216448 1_566
As2 Tc0 3.216448 1_565
As2 Tc0 3.216448 1_655
As2 Tc0 3.216448 1_665
