# generated using pymatgen
data_SrEuZrGeO6
_symmetry_space_group_name_H-M   'P 1'
_cell_length_a   5.67130132
_cell_length_b   5.67130132
_cell_length_c   5.67130132
_cell_angle_alpha   60.00000000
_cell_angle_beta   60.00000000
_cell_angle_gamma   60.00000000
_symmetry_Int_Tables_number   1
_chemical_formula_structural   SrEuZrGeO6
_chemical_formula_sum   'Sr1 Eu1 Zr1 Ge1 O6'
_cell_volume   128.98320627
_cell_formula_units_Z   1
loop_
 _symmetry_equiv_pos_site_id
 _symmetry_equiv_pos_as_xyz
  1  'x, y, z'
loop_
 _atom_site_type_symbol
 _atom_site_label
 _atom_site_symmetry_multiplicity
 _atom_site_fract_x
 _atom_site_fract_y
 _atom_site_fract_z
 _atom_site_occupancy
  Sr  Sr0  1  0.25000000  0.25000000  0.25000000  1
  Eu  Eu0  1  0.75000000  0.75000000  0.75000000  1
  Zr  Zr0  1  0.50000000  0.50000000  0.50000000  1
  Ge  Ge0  1  0.00000000  0.00000000  -0.00000000  1
  O  O0  1  0.76119964  0.23880036  0.23880036  1
  O  O1  1  0.23880036  0.76119964  0.76119964  1
  O  O2  1  0.76119964  0.23880036  0.76119964  1
  O  O3  1  0.23880036  0.76119964  0.23880036  1
  O  O4  1  0.76119964  0.76119964  0.23880036  1
  O  O5  1  0.23880036  0.23880036  0.76119964  1
loop_
_geom_bond_atom_site_label_1
_geom_bond_atom_site_label_2
_geom_bond_distance
_geom_bond_site_symmetry_2
Eu0 O4 2.837073 1_556
Eu0 O1 2.837073 1_655
Eu0 O2 2.837073 1_565
Eu0 O0 2.837073 1_556
Eu0 O3 2.837073 1_556
Eu0 O0 2.837073 1_565
Eu0 O3 2.837073 1_655
Eu0 O5 2.837073 1_565
Eu0 O5 2.837073 1_655
Eu0 O2 2.837073 1_555
Eu0 O1 2.837073 1_555
Eu0 O4 2.837073 1_555
Ge0 O0 1.915282 1_455
Ge0 O3 1.915282 1_545
Ge0 O5 1.915282 1_554
Ge0 O2 1.915282 1_454
Ge0 O4 1.915282 1_445
Ge0 O1 1.915282 1_544
O0 Zr0 2.094934 1_555
O0 Sr0 2.837073 1_555
O0 Sr0 2.837073 1_655
O1 Zr0 2.094934 1_555
O1 Sr0 2.837073 1_556
O1 Sr0 2.837073 1_565
O2 Zr0 2.094934 1_555
O2 Sr0 2.837073 1_655
O2 Sr0 2.837073 1_556
O3 Zr0 2.094934 1_555
O3 Sr0 2.837073 1_555
O3 Sr0 2.837073 1_565
O4 Zr0 2.094934 1_555
O4 Sr0 2.837073 1_655
O4 Sr0 2.837073 1_565
O5 Zr0 2.094934 1_555
O5 Sr0 2.837073 1_555
O5 Sr0 2.837073 1_556
