# generated using pymatgen
data_Eu2Ni7P4
_symmetry_space_group_name_H-M   'P 1'
_cell_length_a   3.74448600
_cell_length_b   9.26308800
_cell_length_c   10.46930200
_cell_angle_alpha   90.00000000
_cell_angle_beta   90.00000000
_cell_angle_gamma   90.00000000
_symmetry_Int_Tables_number   1
_chemical_formula_structural   Eu2Ni7P4
_chemical_formula_sum   'Eu4 Ni14 P8'
_cell_volume   363.13300941
_cell_formula_units_Z   2
loop_
 _symmetry_equiv_pos_site_id
 _symmetry_equiv_pos_as_xyz
  1  'x, y, z'
loop_
 _atom_site_type_symbol
 _atom_site_label
 _atom_site_symmetry_multiplicity
 _atom_site_fract_x
 _atom_site_fract_y
 _atom_site_fract_z
 _atom_site_occupancy
  Eu  Eu0  1  0.00000000  0.43972500  0.51887800  1
  Eu  Eu1  1  0.50000000  0.56027500  0.01887800  1
  Eu  Eu2  1  0.00000000  0.06294700  0.73672900  1
  Eu  Eu3  1  0.50000000  0.93705300  0.23672900  1
  Ni  Ni0  1  0.00000000  0.77069900  0.40782700  1
  Ni  Ni1  1  0.50000000  0.22930100  0.90782700  1
  Ni  Ni2  1  0.00000000  0.75277300  0.64041100  1
  Ni  Ni3  1  0.50000000  0.24722700  0.14041100  1
  Ni  Ni4  1  0.00000000  0.81836800  0.99810900  1
  Ni  Ni5  1  0.50000000  0.18163200  0.49810900  1
  Ni  Ni6  1  0.00000000  0.44053700  0.21741700  1
  Ni  Ni7  1  0.50000000  0.55946300  0.71741700  1
  Ni  Ni8  1  0.00000000  0.40248000  0.81915200  1
  Ni  Ni9  1  0.50000000  0.59752000  0.31915200  1
  Ni  Ni10  1  0.00000000  0.19401200  0.31125500  1
  Ni  Ni11  1  0.50000000  0.80598800  0.81125500  1
  Ni  Ni12  1  0.00000000  0.08439200  0.04241300  1
  Ni  Ni13  1  0.50000000  0.91560800  0.54241300  1
  P  P0  1  0.00000000  0.68722300  0.20427100  1
  P  P1  1  0.50000000  0.31277700  0.70427100  1
  P  P2  1  0.00000000  0.02151800  0.45509100  1
  P  P3  1  0.50000000  0.97848200  0.95509100  1
  P  P4  1  0.00000000  0.31877200  0.02453600  1
  P  P5  1  0.50000000  0.68122800  0.52453600  1
  P  P6  1  0.00000000  0.65656300  0.82871100  1
  P  P7  1  0.50000000  0.34343700  0.32871100  1
loop_
_geom_bond_atom_site_label_1
_geom_bond_atom_site_label_2
_geom_bond_distance
_geom_bond_site_symmetry_2
Eu0 P7 2.874816 1_555
Eu0 P7 2.874816 1_455
Eu0 P5 2.917748 1_455
Eu0 P5 2.917748 1_555
Eu0 P1 2.941995 1_555
Eu0 P1 2.941995 1_455
Eu0 Ni7 3.009306 1_555
Eu0 Ni7 3.009306 1_455
Eu0 Ni5 3.044372 1_455
Eu0 Ni5 3.044372 1_555
Eu0 Ni10 3.147266 1_555
Eu0 Ni6 3.156095 1_555
Eu0 Ni8 3.162534 1_555
Eu0 Ni9 3.164493 1_555
Eu0 Ni9 3.164493 1_455
Eu0 Ni2 3.166655 1_555
Eu0 Ni0 3.278884 1_555
Eu1 P6 2.874816 1_554
Eu1 P6 2.874816 1_654
Eu1 P4 2.917748 1_655
Eu1 P4 2.917748 1_555
Eu1 P0 2.941995 1_555
Eu1 P0 2.941995 1_655
Eu1 Ni6 3.009306 1_555
Eu1 Ni6 3.009306 1_655
Eu1 Ni4 3.044372 1_654
Eu1 Ni4 3.044372 1_554
Eu1 Ni11 3.147266 1_554
Eu1 Ni7 3.156095 1_554
Eu1 Ni9 3.162534 1_555
Eu1 Ni8 3.164493 1_554
Eu1 Ni8 3.164493 1_654
Eu1 Ni3 3.166655 1_555
Eu1 Ni1 3.278884 1_554
Eu2 P2 2.973422 1_555
Eu2 P1 2.996043 1_455
Eu2 P1 2.996043 1_555
Eu2 Ni1 3.014714 1_455
Eu2 Ni1 3.014714 1_555
Eu2 Ni2 3.044985 1_545
Eu2 P3 3.056746 1_445
Eu2 P3 3.056746 1_545
Eu2 Ni13 3.083278 1_445
Eu2 Ni13 3.083278 1_545
Eu2 Ni11 3.127231 1_545
Eu2 Ni11 3.127231 1_445
Eu2 Ni12 3.206457 1_556
Eu2 Ni8 3.261353 1_555
Eu2 Ni5 3.309816 1_455
Eu2 Ni5 3.309816 1_555
Eu3 P3 2.973422 1_554
Eu3 P0 2.996043 1_555
Eu3 P0 2.996043 1_655
Eu3 Ni0 3.014714 1_655
Eu3 Ni0 3.014714 1_555
Eu3 Ni3 3.044985 1_565
Eu3 P2 3.056746 1_665
Eu3 P2 3.056746 1_565
Eu3 Ni12 3.083278 1_565
Eu3 Ni12 3.083278 1_665
Eu3 Ni10 3.127231 1_665
Eu3 Ni10 3.127231 1_565
Eu3 Ni13 3.206457 1_555
Eu3 Ni9 3.261353 1_555
Eu3 Ni4 3.309816 1_554
Eu3 Ni4 3.309816 1_654
Ni0 P0 2.267036 1_555
Ni0 P2 2.375467 1_565
Ni0 P5 2.384347 1_455
Ni0 P5 2.384347 1_555
Ni1 P1 2.267036 1_555
Ni1 P3 2.375467 1_545
Ni1 P4 2.384347 1_656
Ni1 P4 2.384347 1_556
Ni2 P6 2.163455 1_555
Ni2 P5 2.327270 1_455
Ni2 P5 2.327270 1_555
Ni3 P7 2.163455 1_555
Ni3 P4 2.327270 1_555
Ni3 P4 2.327270 1_655
Ni4 P6 2.321997 1_555
Ni4 P3 2.430609 1_555
Ni4 P3 2.430609 1_455
Ni4 P0 2.476758 1_556
Ni5 P7 2.321997 1_555
Ni5 P2 2.430609 1_555
Ni5 P2 2.430609 1_655
Ni5 P1 2.476758 1_555
Ni6 P0 2.289215 1_555
Ni6 P4 2.312984 1_555
Ni6 P7 2.381579 1_555
Ni6 P7 2.381579 1_455
Ni7 P1 2.289215 1_555
Ni7 P5 2.312984 1_555
Ni7 P6 2.381579 1_555
Ni7 P6 2.381579 1_655
Ni8 P4 2.285763 1_556
Ni8 P6 2.355720 1_555
Ni8 P1 2.375348 1_555
Ni8 P1 2.375348 1_455
Ni9 P5 2.285763 1_555
Ni9 P7 2.355720 1_555
Ni9 P0 2.375348 1_655
Ni9 P0 2.375348 1_555
Ni10 P2 2.195603 1_555
Ni10 P7 2.335493 1_555
Ni10 P7 2.335493 1_455
Ni11 P3 2.195603 1_555
Ni11 P6 2.335493 1_655
Ni11 P6 2.335493 1_555
Ni12 P4 2.179135 1_555
Ni12 P3 2.302938 1_444
Ni12 P3 2.302938 1_544
Ni13 P5 2.179135 1_555
Ni13 P2 2.302938 1_565
Ni13 P2 2.302938 1_665
