# generated using pymatgen
data_SrV3O11
_symmetry_space_group_name_H-M   'P 1'
_cell_length_a   11.22826200
_cell_length_b   5.28935200
_cell_length_c   9.07300453
_cell_angle_alpha   86.99417824
_cell_angle_beta   90.00000000
_cell_angle_gamma   90.00000000
_symmetry_Int_Tables_number   1
_chemical_formula_structural   SrV3O11
_chemical_formula_sum   'Sr2 V6 O22'
_cell_volume   538.10648610
_cell_formula_units_Z   2
loop_
 _symmetry_equiv_pos_site_id
 _symmetry_equiv_pos_as_xyz
  1  'x, y, z'
loop_
 _atom_site_type_symbol
 _atom_site_label
 _atom_site_symmetry_multiplicity
 _atom_site_fract_x
 _atom_site_fract_y
 _atom_site_fract_z
 _atom_site_occupancy
  Sr  Sr0  1  0.25000000  0.72767000  0.24972900  1
  Sr  Sr1  1  0.75000000  0.27233000  0.75027100  1
  V  V0  1  0.25000000  0.25205300  0.97628300  1
  V  V1  1  0.75000000  0.74794700  0.02371700  1
  V  V2  1  0.01767500  0.75571800  0.93333200  1
  V  V3  1  0.51767500  0.24428200  0.06666800  1
  V  V4  1  0.98232500  0.24428200  0.06666800  1
  V  V5  1  0.48232500  0.75571800  0.93333200  1
  O  O0  1  0.10969000  0.00502900  0.02107700  1
  O  O1  1  0.60969000  0.99497100  0.97892300  1
  O  O2  1  0.89031000  0.99497100  0.97892300  1
  O  O3  1  0.39031000  0.00502900  0.02107700  1
  O  O4  1  0.10954800  0.49145000  0.02172400  1
  O  O5  1  0.60954800  0.50855000  0.97827600  1
  O  O6  1  0.89045200  0.50855000  0.97827600  1
  O  O7  1  0.39045200  0.49145000  0.02172400  1
  O  O8  1  0.96065300  0.23112900  0.24059900  1
  O  O9  1  0.46065300  0.76887100  0.75940100  1
  O  O10  1  0.03934700  0.76887100  0.75940100  1
  O  O11  1  0.53934700  0.23112900  0.24059900  1
  O  O12  1  0.25000000  0.27067000  0.79703500  1
  O  O13  1  0.75000000  0.72933000  0.20296500  1
  O  O14  1  0.07856100  0.74290200  0.41897800  1
  O  O15  1  0.57856100  0.25709800  0.58102200  1
  O  O16  1  0.92143900  0.25709800  0.58102200  1
  O  O17  1  0.42143900  0.74290200  0.41897800  1
  O  O18  1  0.25000000  0.79159900  0.53970300  1
  O  O19  1  0.75000000  0.20840100  0.46029700  1
  O  O20  1  0.25000000  0.23150800  0.21350300  1
  O  O21  1  0.75000000  0.76849200  0.78649700  1
loop_
_geom_bond_atom_site_label_1
_geom_bond_atom_site_label_2
_geom_bond_distance
_geom_bond_site_symmetry_2
O0 V2 1.884219 1_544
O0 V4 1.967899 1_455
O0 V0 2.073326 1_554
O0 Sr0 2.935788 1_545
O1 V3 1.884219 1_566
O1 V5 1.967899 1_555
O1 V1 2.073326 1_556
O1 Sr1 2.935788 1_565
O2 V4 1.884219 1_566
O2 V2 1.967899 1_655
O2 V1 2.073326 1_556
O2 Sr1 2.935788 1_565
O3 V5 1.884219 1_544
O3 V3 1.967899 1_555
O3 V0 2.073326 1_554
O3 Sr0 2.935788 1_545
O4 V2 1.882449 1_554
O4 V4 1.964727 1_455
O4 V0 2.077297 1_554
O4 Sr0 2.932356 1_555
O5 V3 1.882449 1_556
O5 V5 1.964727 1_555
O5 V1 2.077297 1_556
O5 Sr1 2.932356 1_555
O6 V4 1.882449 1_556
O6 V2 1.964727 1_655
O6 V1 2.077297 1_556
O6 Sr1 2.932356 1_555
O7 V5 1.882449 1_554
O7 V3 1.964727 1_555
O7 V0 2.077297 1_554
O7 Sr0 2.932356 1_555
O8 V4 1.594637 1_555
O9 V5 1.594637 1_555
O10 V2 1.594637 1_555
O11 V3 1.594637 1_555
O12 V0 1.624134 1_555
O13 V1 1.624134 1_555
O14 Sr0 2.466374 1_555
O15 Sr1 2.466374 1_555
O16 Sr1 2.466374 1_555
O17 Sr0 2.466374 1_555
O18 Sr0 2.670105 1_555
O19 Sr1 2.670105 1_555
O20 V0 2.149341 1_554
O20 Sr0 2.661924 1_555
O20 Sr0 2.668008 1_545
O21 V1 2.149341 1_556
O21 Sr1 2.661924 1_555
O21 Sr1 2.668008 1_565
