# generated using pymatgen
data_Tb4Si7
_symmetry_space_group_name_H-M   'P 1'
_cell_length_a   5.71614800
_cell_length_b   5.71614800
_cell_length_c   13.55829742
_cell_angle_alpha   89.12260789
_cell_angle_beta   89.12260789
_cell_angle_gamma   88.65406637
_symmetry_Int_Tables_number   1
_chemical_formula_structural   Tb4Si7
_chemical_formula_sum   'Tb8 Si14'
_cell_volume   442.78482401
_cell_formula_units_Z   2
loop_
 _symmetry_equiv_pos_site_id
 _symmetry_equiv_pos_as_xyz
  1  'x, y, z'
loop_
 _atom_site_type_symbol
 _atom_site_label
 _atom_site_symmetry_multiplicity
 _atom_site_fract_x
 _atom_site_fract_y
 _atom_site_fract_z
 _atom_site_occupancy
  Tb  Tb0  1  0.88696355  0.38042622  0.12825365  1
  Tb  Tb1  1  0.61957378  0.11303645  0.87174635  1
  Tb  Tb2  1  0.87338549  0.87338549  0.62656764  1
  Tb  Tb3  1  0.12661451  0.12661451  0.37343236  1
  Tb  Tb4  1  0.38042622  0.88696355  0.12825365  1
  Tb  Tb5  1  0.11303645  0.61957378  0.87174635  1
  Tb  Tb6  1  0.37310238  0.37310238  0.62736376  1
  Tb  Tb7  1  0.62689762  0.62689762  0.37263624  1
  Si  Si0  1  0.86085116  0.38346873  0.71256151  1
  Si  Si1  1  0.61653127  0.13914884  0.28743849  1
  Si  Si2  1  0.88226430  0.88226430  0.20788397  1
  Si  Si3  1  0.11773570  0.11773570  0.79211603  1
  Si  Si4  1  0.38346873  0.86085116  0.71256151  1
  Si  Si5  1  0.13914884  0.61653127  0.28743849  1
  Si  Si6  1  0.38370334  0.38370334  0.18195230  1
  Si  Si7  1  0.61629666  0.61629666  0.81804770  1
  Si  Si8  1  0.87524587  0.37227830  0.54139036  1
  Si  Si9  1  0.62772170  0.12475413  0.45860964  1
  Si  Si10  1  0.86194348  0.86194348  0.03532508  1
  Si  Si11  1  0.13805652  0.13805652  0.96467492  1
  Si  Si12  1  0.37227830  0.87524587  0.54139036  1
  Si  Si13  1  0.12475413  0.62772170  0.45860964  1
loop_
_geom_bond_atom_site_label_1
_geom_bond_atom_site_label_2
_geom_bond_distance
_geom_bond_site_symmetry_2
Si0 Si8 2.322795 1_555
Si0 Si3 2.349556 1_655
Si0 Si7 2.383393 1_555
Si0 Tb5 2.972119 1_655
Si0 Tb1 2.976020 1_555
Si0 Tb2 3.018914 1_555
Si0 Tb6 3.036368 1_555
Si0 Tb6 3.130815 1_655
Si0 Tb2 3.155573 1_545
Si1 Si9 2.322795 1_555
Si1 Si2 2.349556 1_545
Si1 Si6 2.383393 1_555
Si1 Tb4 2.972119 1_545
Si1 Tb0 2.976020 1_555
Si1 Tb3 3.018914 1_555
Si1 Tb7 3.036368 1_555
Si1 Tb7 3.130815 1_545
Si1 Tb3 3.155573 1_655
Si2 Si5 2.349556 1_655
Si2 Tb7 3.025160 1_555
Si2 Tb4 3.030439 1_655
Si2 Tb0 3.030439 1_565
Si2 Tb3 3.037017 1_665
Si2 Tb0 3.079848 1_555
Si2 Tb4 3.079848 1_555
Si3 Si4 2.349556 1_545
Si3 Tb6 3.025160 1_555
Si3 Tb1 3.030439 1_455
Si3 Tb5 3.030439 1_545
Si3 Tb2 3.037017 1_445
Si3 Tb5 3.079848 1_555
Si3 Tb1 3.079848 1_555
Si4 Si7 2.383393 1_555
Si4 Tb1 2.972119 1_565
Si4 Tb5 2.976020 1_555
Si4 Tb2 3.018914 1_555
Si4 Tb6 3.036368 1_555
Si4 Tb6 3.130815 1_565
Si4 Tb2 3.155573 1_455
Si5 Si6 2.383393 1_555
Si5 Tb0 2.972119 1_455
Si5 Tb4 2.976020 1_555
Si5 Tb3 3.018914 1_555
Si5 Tb7 3.036368 1_555
Si5 Tb7 3.130815 1_455
Si5 Tb3 3.155573 1_565
Si6 Tb4 2.942629 1_545
Si6 Tb0 2.942629 1_455
Si6 Tb4 2.956286 1_555
Si6 Tb0 2.956286 1_555
Si6 Tb7 3.295436 1_555
Si6 Tb3 3.305591 1_555
Si7 Tb1 2.942629 1_565
Si7 Tb5 2.942629 1_655
Si7 Tb1 2.956286 1_555
Si7 Tb5 2.956286 1_555
Si7 Tb6 3.295436 1_555
Si7 Tb2 3.305591 1_555
Si8 Si9 2.335555 1_555
Si8 Tb3 3.020791 1_655
Si8 Tb7 3.044506 1_555
Si8 Tb2 3.060466 1_545
Si8 Tb6 3.081332 1_555
Si8 Tb6 3.091902 1_655
Si8 Tb2 3.104532 1_555
Si9 Tb2 3.020791 1_545
Si9 Tb6 3.044506 1_555
Si9 Tb3 3.060466 1_655
Si9 Tb7 3.081332 1_555
Si9 Tb7 3.091902 1_545
Si9 Tb3 3.104532 1_555
Si10 Si2 2.349045 1_555
Si10 Si11 2.433940 1_664
Si10 Tb1 2.966730 1_564
Si10 Tb5 2.966730 1_654
Si10 Tb0 3.010746 1_555
Si10 Tb4 3.010746 1_555
Si10 Tb4 3.245210 1_655
Si10 Tb0 3.245210 1_565
Si11 Si3 2.349045 1_555
Si11 Tb0 2.966730 1_456
Si11 Tb4 2.966730 1_546
Si11 Tb1 3.010746 1_555
Si11 Tb5 3.010746 1_555
Si11 Tb1 3.245210 1_455
Si11 Tb5 3.245210 1_545
Si12 Si4 2.322795 1_555
Si12 Si9 2.329053 1_565
Si12 Si13 2.335555 1_555
Si12 Tb3 3.020791 1_565
Si12 Tb7 3.044506 1_555
Si12 Tb2 3.060466 1_455
Si12 Tb6 3.081332 1_555
Si12 Tb6 3.091902 1_565
Si12 Tb2 3.104532 1_555
Si13 Si5 2.322795 1_555
Si13 Si8 2.329053 1_455
Si13 Tb2 3.020791 1_455
Si13 Tb6 3.044506 1_555
Si13 Tb3 3.060466 1_565
Si13 Tb7 3.081332 1_555
Si13 Tb7 3.091902 1_455
Si13 Tb3 3.104532 1_555
