# generated using pymatgen
data_Na2Fe2C4SO16
_symmetry_space_group_name_H-M   'P 1'
_cell_length_a   9.86329596
_cell_length_b   9.85680097
_cell_length_c   9.85883349
_cell_angle_alpha   60.02284884
_cell_angle_beta   89.81385583
_cell_angle_gamma   119.57040108
_symmetry_Int_Tables_number   1
_chemical_formula_structural   Na2Fe2C4SO16
_chemical_formula_sum   'Na4 Fe4 C8 S2 O32'
_cell_volume   681.26208895
_cell_formula_units_Z   2
loop_
 _symmetry_equiv_pos_site_id
 _symmetry_equiv_pos_as_xyz
  1  'x, y, z'
loop_
 _atom_site_type_symbol
 _atom_site_label
 _atom_site_symmetry_multiplicity
 _atom_site_fract_x
 _atom_site_fract_y
 _atom_site_fract_z
 _atom_site_occupancy
  Na  Na0  1  0.91291100  0.25043700  0.33946600  1
  Na  Na1  1  0.90732800  0.23738900  0.91342500  1
  Na  Na2  1  0.34062100  0.24859400  0.91259200  1
  Na  Na3  1  0.09190100  0.76313000  0.65168200  1
  Fe  Fe0  1  0.49661700  0.99334900  0.00025700  1
  Fe  Fe1  1  0.50015100  0.99997400  0.50175200  1
  Fe  Fe2  1  0.50266400  0.50182600  0.49683500  1
  Fe  Fe3  1  0.00011000  0.50361900  0.49608100  1
  C  C0  1  0.71326800  0.07690000  0.71052400  1
  C  C1  1  0.71383800  0.42556700  0.36096900  1
  C  C2  1  0.36016100  0.07397400  0.71438300  1
  C  C3  1  0.71197600  0.42531000  0.71431300  1
  C  C4  1  0.28608100  0.57048400  0.28881800  1
  C  C5  1  0.64128900  0.92877500  0.28487200  1
  C  C6  1  0.28918500  0.92720800  0.28746200  1
  C  C7  1  0.28426200  0.57224200  0.64043000  1
  S  S0  1  0.12384900  0.25018600  0.12294700  1
  S  S1  1  0.87434000  0.75103900  0.87481200  1
  O  O0  1  0.64812700  0.04588400  0.13825300  1
  O  O1  1  0.85676600  0.21990300  0.59570500  1
  O  O2  1  0.68830900  0.28402100  0.35982400  1
  O  O3  1  0.40156500  0.03835600  0.31789700  1
  O  O4  1  0.85580100  0.54107600  0.35932000  1
  O  O5  1  0.30767600  0.37141300  0.06917800  1
  O  O6  1  0.06973300  0.13335500  0.05609600  1
  O  O7  1  0.59899500  0.45218100  0.36091000  1
  O  O8  1  0.68764000  0.04833200  0.85420800  1
  O  O9  1  0.35224200  0.03894400  0.60273900  1
  O  O10  1  0.86040900  0.46165100  0.68945100  1
  O  O11  1  0.05526300  0.36592500  0.06741400  1
  O  O12  1  0.07002200  0.12881200  0.30787500  1
  O  O13  1  0.63277800  0.78140100  0.31591500  1
  O  O14  1  0.40052500  0.71553600  0.14896200  1
  O  O15  1  0.68360800  0.53750600  0.59895800  1
  O  O16  1  0.31480100  0.45808900  0.40281300  1
  O  O17  1  0.36321300  0.21882800  0.68529900  1
  O  O18  1  0.59766900  0.28035200  0.85634800  1
  O  O19  1  0.93357500  0.87395800  0.68991800  1
  O  O20  1  0.93548000  0.62606500  0.93708300  1
  O  O21  1  0.13926700  0.53419200  0.31512300  1
  O  O22  1  0.64925900  0.96524400  0.39476500  1
  O  O23  1  0.31683700  0.96211200  0.14132000  1
  O  O24  1  0.39486900  0.53726900  0.64497100  1
  O  O25  1  0.93721800  0.87466000  0.93545600  1
  O  O26  1  0.68979700  0.62471200  0.93536200  1
  O  O27  1  0.13754100  0.45566900  0.64743200  1
  O  O28  1  0.60037000  0.96431600  0.68182100  1
  O  O29  1  0.31416100  0.71818800  0.63562500  1
  O  O30  1  0.14663700  0.78302900  0.40183000  1
  O  O31  1  0.35929000  0.95901200  0.85695900  1
loop_
_geom_bond_atom_site_label_1
_geom_bond_atom_site_label_2
_geom_bond_distance
_geom_bond_site_symmetry_2
Na0 O11 2.409964 1_655
Na0 O2 2.417600 1_555
Na0 O1 2.417778 1_555
Na0 O21 2.455093 1_655
Na0 O12 2.477725 1_655
Na0 O22 2.491222 1_545
Na1 O8 2.370384 1_555
Na1 O6 2.406324 1_656
Na1 O0 2.455868 1_556
Na1 O10 2.472833 1_555
Na1 O11 2.480104 1_656
Na1 O27 2.482562 1_655
Na2 O6 2.409298 1_556
Na2 O18 2.422293 1_555
Na2 O17 2.423923 1_555
Na2 O23 2.468473 1_546
Na2 O5 2.491368 1_556
Na2 O24 2.515931 1_555
Na3 O30 2.408645 1_555
Na3 O19 2.421882 1_455
Na3 O9 2.451218 1_565
Na3 O29 2.460367 1_555
Na3 O20 2.497670 1_455
Na3 O10 2.524783 1_455
Fe0 O14 1.990917 1_555
Fe0 O31 1.995711 1_554
Fe0 O8 2.027705 1_564
Fe0 O23 2.047053 1_555
Fe0 O18 2.050914 1_564
Fe0 O0 2.075018 1_565
Fe1 O28 1.995748 1_555
Fe1 O3 2.015794 1_565
Fe1 O29 2.028252 1_555
Fe1 O2 2.044697 1_565
Fe1 O9 2.047662 1_565
Fe1 O22 2.059204 1_555
Fe2 O13 2.001284 1_555
Fe2 O7 2.010945 1_555
Fe2 O15 2.017065 1_555
Fe2 O16 2.024988 1_555
Fe2 O17 2.035304 1_555
Fe2 O24 2.061979 1_555
Fe3 O4 2.003468 1_455
Fe3 O30 2.010611 1_555
Fe3 O1 2.031749 1_455
Fe3 O21 2.048433 1_555
Fe3 O27 2.056219 1_555
Fe3 O10 2.082404 1_455
C0 O28 1.283648 1_545
C0 O8 1.295620 1_555
C0 O1 1.302887 1_555
C1 O7 1.282586 1_555
C1 O4 1.290374 1_555
C1 O2 1.295804 1_555
C2 O31 1.287841 1_545
C2 O17 1.292337 1_555
C2 O9 1.300208 1_555
C3 O15 1.282696 1_555
C3 O18 1.293791 1_555
C3 O10 1.313060 1_555
C4 O16 1.279938 1_555
C4 O14 1.283158 1_555
C4 O21 1.298351 1_555
C5 O13 1.282993 1_555
C5 O22 1.292686 1_555
C5 O0 1.296754 1_565
C6 O3 1.284923 1_565
C6 O23 1.295419 1_555
C6 O30 1.297731 1_555
C7 O24 1.291156 1_555
C7 O29 1.292967 1_555
C7 O27 1.303149 1_555
O5 S0 1.489537 1_555
O6 S0 1.483065 1_555
O11 S0 1.482832 1_555
O12 S0 1.491395 1_555
O19 S1 1.489783 1_555
O20 S1 1.495947 1_555
O25 S1 1.487081 1_555
O26 S1 1.494363 1_555
