# generated using pymatgen
data_Fe2Te4ClO12
_symmetry_space_group_name_H-M   'P 1'
_cell_length_a   5.30319700
_cell_length_b   6.60039163
_cell_length_c   9.00660740
_cell_angle_alpha   73.61886062
_cell_angle_beta   77.74507854
_cell_angle_gamma   74.06827236
_symmetry_Int_Tables_number   1
_chemical_formula_structural   Fe2Te4ClO12
_chemical_formula_sum   'Fe2 Te4 Cl1 O12'
_cell_volume   287.72101166
_cell_formula_units_Z   1
loop_
 _symmetry_equiv_pos_site_id
 _symmetry_equiv_pos_as_xyz
  1  'x, y, z'
loop_
 _atom_site_type_symbol
 _atom_site_label
 _atom_site_symmetry_multiplicity
 _atom_site_fract_x
 _atom_site_fract_y
 _atom_site_fract_z
 _atom_site_occupancy
  Fe  Fe0  1  0.72505600  0.63043000  0.44020900  1
  Fe  Fe1  1  0.27494400  0.36957000  0.55979100  1
  Te  Te0  1  0.31691200  0.68231000  0.16509500  1
  Te  Te1  1  0.68308800  0.31769000  0.83490500  1
  Te  Te2  1  0.81872300  0.15102100  0.29069200  1
  Te  Te3  1  0.18127700  0.84897900  0.70930800  1
  Cl  Cl0  1  0.00000000  0.50000000  0.00000000  1
  O  O0  1  0.08449900  0.97293700  0.15204300  1
  O  O1  1  0.91550100  0.02706300  0.84795700  1
  O  O2  1  0.11915000  0.53510100  0.35322400  1
  O  O3  1  0.88085000  0.46489900  0.64677600  1
  O  O4  1  0.54325000  0.25105800  0.17136900  1
  O  O5  1  0.45675000  0.74894200  0.82863100  1
  O  O6  1  0.57950800  0.74851100  0.24320400  1
  O  O7  1  0.42049200  0.25148900  0.75679600  1
  O  O8  1  0.22321500  0.09342200  0.54624500  1
  O  O9  1  0.77678500  0.90657800  0.45375500  1
  O  O10  1  0.65250600  0.34286100  0.43668900  1
  O  O11  1  0.34749400  0.65713900  0.56331100  1
loop_
_geom_bond_atom_site_label_1
_geom_bond_atom_site_label_2
_geom_bond_distance
_geom_bond_site_symmetry_2
Fe0 O6 1.955161 1_555
Fe0 O9 1.956134 1_555
Fe0 O10 2.047371 1_555
Fe0 O2 2.058794 1_655
Fe0 O11 2.059985 1_555
Fe0 O3 2.085212 1_555
Fe1 O7 1.955161 1_555
Fe1 O8 1.956134 1_555
Fe1 O11 2.047371 1_555
Fe1 O3 2.058794 1_455
Fe1 O10 2.059985 1_555
Fe1 O2 2.085212 1_555
Cl0 Te1 3.108686 1_454
Cl0 Te0 3.108686 1_555
Cl0 Te3 3.135298 1_554
Cl0 Te2 3.135298 1_455
O0 Te0 1.961886 1_555
O0 Te2 2.024555 1_465
O1 Te1 1.961886 1_555
O1 Te3 2.024555 1_645
O2 Te0 1.947155 1_555
O3 Te1 1.947155 1_555
O4 Te2 1.860602 1_555
O5 Te3 1.860602 1_555
O6 Te0 1.883749 1_555
O7 Te1 1.883749 1_555
O8 Te3 1.879173 1_545
O9 Te2 1.879173 1_565
O10 Te2 1.985879 1_555
O11 Te3 1.985879 1_555
