# generated using pymatgen
data_Li3Mn8(OF3)4
_symmetry_space_group_name_H-M   'P 1'
_cell_length_a   6.19632335
_cell_length_b   6.43416984
_cell_length_c   10.39253858
_cell_angle_alpha   88.64246214
_cell_angle_beta   107.41042938
_cell_angle_gamma   119.23170308
_symmetry_Int_Tables_number   1
_chemical_formula_structural   Li3Mn8(OF3)4
_chemical_formula_sum   'Li3 Mn8 O4 F12'
_cell_volume   341.25307357
_cell_formula_units_Z   1
loop_
 _symmetry_equiv_pos_site_id
 _symmetry_equiv_pos_as_xyz
  1  'x, y, z'
loop_
 _atom_site_type_symbol
 _atom_site_label
 _atom_site_symmetry_multiplicity
 _atom_site_fract_x
 _atom_site_fract_y
 _atom_site_fract_z
 _atom_site_occupancy
  Li  Li0  1  0.99992500  0.99998100  0.99998800  1
  Li  Li1  1  0.61409300  0.80260300  0.42179400  1
  Li  Li2  1  0.38576200  0.19736500  0.57825200  1
  Mn  Mn0  1  0.50007500  0.49998100  0.99997800  1
  Mn  Mn1  1  0.00017200  0.49999900  0.99984400  1
  Mn  Mn2  1  0.00186100  0.25942500  0.24554600  1
  Mn  Mn3  1  0.99849200  0.74066400  0.75454900  1
  Mn  Mn4  1  0.01126600  0.75264600  0.27518600  1
  Mn  Mn5  1  0.98870700  0.24760700  0.72480000  1
  Mn  Mn6  1  0.50330200  0.25643800  0.24894500  1
  Mn  Mn7  1  0.49669300  0.74354700  0.75094400  1
  O  O0  1  0.24973000  0.36033500  0.10790200  1
  O  O1  1  0.75030000  0.63957800  0.89220300  1
  O  O2  1  0.75852600  0.41790800  0.12837300  1
  O  O3  1  0.24182000  0.58203300  0.87169400  1
  F  F0  1  0.73925700  0.11265000  0.35881000  1
  F  F1  1  0.26064700  0.88737200  0.64117000  1
  F  F2  1  0.24727800  0.12298200  0.37676500  1
  F  F3  1  0.75269600  0.87699200  0.62326800  1
  F  F4  1  0.23119900  0.88815700  0.13444000  1
  F  F5  1  0.79682600  0.90312600  0.13452300  1
  F  F6  1  0.76869700  0.11183700  0.86557400  1
  F  F7  1  0.20300800  0.09684000  0.86548900  1
  F  F8  1  0.73209700  0.60993200  0.37173200  1
  F  F9  1  0.24539200  0.60431600  0.36432100  1
  F  F10  1  0.26781100  0.39001400  0.62824000  1
  F  F11  1  0.75437000  0.39567100  0.63567100  1
loop_
_geom_bond_atom_site_label_1
_geom_bond_atom_site_label_2
_geom_bond_distance
_geom_bond_site_symmetry_2
Li0 O1 2.146526 1_555
Li0 O0 2.146779 1_666
Mn0 O1 2.024022 1_555
Mn0 O0 2.025767 1_556
Mn0 O3 2.032718 1_555
Mn0 O2 2.034152 1_556
Mn1 O3 2.163896 1_555
Mn1 O2 2.167065 1_456
Mn1 O1 2.174652 1_455
Mn1 O0 2.174853 1_556
Mn2 O0 2.263520 1_555
Mn2 O2 2.267184 1_455
Mn3 O1 2.264995 1_555
Mn3 O3 2.267783 1_655
Mn4 O2 2.202429 1_455
Mn5 O3 2.201617 1_655
Mn6 O0 2.159941 1_555
Mn6 O2 2.161010 1_555
Mn7 O3 2.161041 1_555
Mn7 O1 2.161407 1_555
F0 Li1 1.934008 1_545
F0 Mn2 2.125515 1_655
F0 Mn6 2.137575 1_555
F1 Li2 1.933423 1_565
F1 Mn3 2.124427 1_455
F1 Mn7 2.137868 1_555
F2 Li2 1.980193 1_555
F2 Mn4 2.173191 1_545
F2 Mn6 2.212508 1_555
F2 Mn2 2.224638 1_555
F3 Li1 1.980069 1_555
F3 Mn5 2.174439 1_565
F3 Mn7 2.211208 1_555
F3 Mn3 2.225994 1_555
F4 Li0 2.069987 1_454
F4 Mn4 2.174587 1_555
F4 Mn6 2.214636 1_565
F4 Mn1 2.391372 1_554
F5 Li0 2.042707 1_554
F5 Mn2 2.145775 1_665
F5 Mn4 2.206134 1_655
F5 Mn0 2.457520 1_554
F6 Li0 2.069755 1_545
F6 Mn5 2.175268 1_555
F6 Mn7 2.215065 1_545
F6 Mn1 2.389697 1_655
F7 Li0 2.042318 1_445
F7 Mn3 2.145109 1_445
F7 Mn5 2.207054 1_455
F7 Mn0 2.457410 1_555
F8 Li1 1.866988 1_555
F8 Mn4 2.070221 1_655
F8 Mn6 2.171848 1_555
F9 Li1 1.891181 1_555
F9 Mn4 2.092773 1_555
F9 Mn2 2.114164 1_555
F10 Li2 1.866287 1_555
F10 Mn5 2.069972 1_455
F10 Mn7 2.171656 1_555
F11 Li2 1.890757 1_555
F11 Mn5 2.092442 1_555
F11 Mn3 2.115156 1_555
