# generated using pymatgen
data_Li5Mn2CoO8
_symmetry_space_group_name_H-M   'P 1'
_cell_length_a   2.89366735
_cell_length_b   7.79764057
_cell_length_c   12.59550604
_cell_angle_alpha   91.53869801
_cell_angle_beta   90.11609794
_cell_angle_gamma   79.93942801
_symmetry_Int_Tables_number   1
_chemical_formula_structural   Li5Mn2CoO8
_chemical_formula_sum   'Li10 Mn4 Co2 O16'
_cell_volume   279.73027346
_cell_formula_units_Z   2
loop_
 _symmetry_equiv_pos_site_id
 _symmetry_equiv_pos_as_xyz
  1  'x, y, z'
loop_
 _atom_site_type_symbol
 _atom_site_label
 _atom_site_symmetry_multiplicity
 _atom_site_fract_x
 _atom_site_fract_y
 _atom_site_fract_z
 _atom_site_occupancy
  Li  Li0  1  0.87730200  0.24662400  0.37631800  1
  Li  Li1  1  0.37269800  0.25337800  0.87368500  1
  Li  Li2  1  0.81412000  0.37559600  0.05296200  1
  Li  Li3  1  0.31371300  0.37493800  0.55288900  1
  Li  Li4  1  0.43588600  0.12440900  0.19703800  1
  Li  Li5  1  0.93628900  0.12506500  0.69711100  1
  Li  Li6  1  0.04485200  0.88863500  0.31566800  1
  Li  Li7  1  0.54550500  0.88926700  0.81216200  1
  Li  Li8  1  0.70450100  0.61073900  0.43783800  1
  Li  Li9  1  0.20513900  0.61137200  0.93432900  1
  Mn  Mn0  1  0.49638100  0.00329200  0.49839400  1
  Mn  Mn1  1  0.98830000  0.00825800  0.99342700  1
  Mn  Mn2  1  0.26173300  0.49172900  0.25657600  1
  Mn  Mn3  1  0.75361800  0.49670600  0.75160400  1
  Co  Co0  1  0.12498800  0.75000400  0.62499800  1
  Co  Co1  1  0.62500700  0.74999800  0.12500300  1
  O  O0  1  0.41272100  0.16626800  0.02928100  1
  O  O1  1  0.92098100  0.16221900  0.53277300  1
  O  O2  1  0.83730200  0.33372600  0.22072100  1
  O  O3  1  0.32898200  0.33778200  0.71722400  1
  O  O4  1  0.68080200  0.66462300  0.27689800  1
  O  O5  1  0.17043800  0.67072100  0.76937100  1
  O  O6  1  0.07953200  0.82928000  0.48062500  1
  O  O7  1  0.56922200  0.83537000  0.97310500  1
  O  O8  1  0.28438100  0.44232900  0.39715500  1
  O  O9  1  0.78044300  0.44854100  0.89335600  1
  O  O10  1  0.46953500  0.05146100  0.35664400  1
  O  O11  1  0.96563400  0.05767100  0.85284700  1
  O  O12  1  0.01327100  0.92719600  0.14896300  1
  O  O13  1  0.54437800  0.91705600  0.64893500  1
  O  O14  1  0.23674300  0.57280100  0.10104000  1
  O  O15  1  0.70560300  0.58294600  0.60106200  1
loop_
_geom_bond_atom_site_label_1
_geom_bond_atom_site_label_2
_geom_bond_distance
_geom_bond_site_symmetry_2
Li0 O2 2.087751 1_555
Li0 O1 2.090960 1_555
Li0 O10 2.091770 1_555
Li0 O10 2.093913 1_655
Li0 O8 2.095357 1_655
Li0 O8 2.099264 1_555
Li1 O0 2.087760 1_556
Li1 O3 2.091029 1_555
Li1 O9 2.091722 1_555
Li1 O9 2.093953 1_455
Li1 O11 2.095341 1_455
Li1 O11 2.099304 1_555
Li2 O9 2.101347 1_554
Li2 O14 2.139903 1_555
Li2 O2 2.145862 1_555
Li2 O0 2.176513 1_555
Li2 O0 2.177555 1_655
Li2 O14 2.197932 1_655
Li3 O8 2.042086 1_555
Li3 O3 2.097063 1_555
Li3 O1 2.177576 1_455
Li3 O1 2.205506 1_555
Li3 O15 2.207234 1_555
Li3 O15 2.247151 1_455
Li4 O10 2.101354 1_555
Li4 O12 2.139944 1_645
Li4 O0 2.145823 1_555
Li4 O2 2.176476 1_555
Li4 O2 2.177473 1_455
Li4 O12 2.197956 1_545
Li5 O11 2.042117 1_555
Li5 O1 2.097097 1_555
Li5 O3 2.177485 1_655
Li5 O3 2.205568 1_555
Li5 O13 2.207289 1_545
Li5 O13 2.247125 1_645
Li6 O10 1.969694 1_465
Li6 O10 1.973814 1_565
Li6 O12 2.128655 1_555
Li6 O6 2.139103 1_555
Li6 O4 2.234813 1_455
Li6 O4 2.347523 1_555
Li7 O11 1.996003 1_565
Li7 O11 2.000007 1_465
Li7 O13 2.073029 1_555
Li7 O7 2.079861 1_555
Li7 O5 2.228678 1_555
Li7 O5 2.311422 1_655
Li8 O8 1.996013 1_555
Li8 O8 2.000043 1_655
Li8 O15 2.072997 1_555
Li8 O4 2.079801 1_555
Li8 O6 2.228570 1_655
Li8 O6 2.311456 1_555
Li9 O9 1.969676 1_555
Li9 O9 1.973862 1_455
Li9 O14 2.128744 1_556
Li9 O5 2.139104 1_555
Li9 O7 2.234792 1_555
Li9 O7 2.347409 1_455
Mn0 O10 1.833050 1_555
Mn0 O1 1.932314 1_555
Mn0 O1 1.936167 1_455
Mn0 O6 1.974999 1_545
Mn0 O6 1.980897 1_645
Mn0 O13 2.025237 1_545
Mn1 O11 1.820823 1_555
Mn1 O0 1.930513 1_656
Mn1 O0 1.937068 1_556
Mn1 O7 1.974878 1_645
Mn1 O7 1.976082 1_545
Mn1 O12 2.071866 1_646
Mn2 O8 1.820787 1_555
Mn2 O2 1.930497 1_455
Mn2 O2 1.937023 1_555
Mn2 O4 1.974922 1_455
Mn2 O4 1.976099 1_555
Mn2 O14 2.071890 1_555
Mn3 O9 1.833067 1_555
Mn3 O3 1.932377 1_555
Mn3 O3 1.936080 1_655
Mn3 O5 1.974954 1_655
Mn3 O5 1.980969 1_555
Mn3 O15 2.025261 1_555
Co0 O6 1.933180 1_555
Co0 O5 1.933198 1_555
Co0 O13 1.946841 1_555
Co0 O15 1.946865 1_455
Co0 O13 1.956209 1_455
Co0 O15 1.956241 1_555
Co1 O14 1.944507 1_555
Co1 O12 1.944508 1_655
Co1 O4 2.039403 1_555
Co1 O7 2.039430 1_554
Co1 O12 2.063721 1_555
Co1 O14 2.063722 1_655
