# generated using pymatgen
data_Tb2FeSbO7
_symmetry_space_group_name_H-M   'P 1'
_cell_length_a   7.32433414
_cell_length_b   7.32433414
_cell_length_c   7.32433414
_cell_angle_alpha   120.34780428
_cell_angle_beta   119.42933338
_cell_angle_gamma   90.19494728
_symmetry_Int_Tables_number   1
_chemical_formula_structural   Tb2FeSbO7
_chemical_formula_sum   'Tb4 Fe2 Sb2 O14'
_cell_volume   278.28055002
_cell_formula_units_Z   2
loop_
 _symmetry_equiv_pos_site_id
 _symmetry_equiv_pos_as_xyz
  1  'x, y, z'
loop_
 _atom_site_type_symbol
 _atom_site_label
 _atom_site_symmetry_multiplicity
 _atom_site_fract_x
 _atom_site_fract_y
 _atom_site_fract_z
 _atom_site_occupancy
  Tb  Tb0  1  0.50000000  0.00000000  0.00000000  1
  Tb  Tb1  1  0.50000000  0.50000000  0.50000000  1
  Tb  Tb2  1  0.50000000  0.00000000  0.50000000  1
  Tb  Tb3  1  0.00000000  0.00000000  0.00000000  1
  Fe  Fe0  1  0.00000000  0.50000000  0.00000000  1
  Fe  Fe1  1  0.00000000  0.00000000  0.50000000  1
  Sb  Sb0  1  0.00000000  0.50000000  0.50000000  1
  Sb  Sb1  1  0.50000000  0.50000000  0.00000000  1
  O  O0  1  0.91098000  0.16098000  0.75000000  1
  O  O1  1  0.33035500  0.58035500  0.75000000  1
  O  O2  1  0.91020900  0.57868500  0.74026100  1
  O  O3  1  0.33842400  0.16994700  0.75973900  1
  O  O4  1  0.91020900  0.16994700  0.33152400  1
  O  O5  1  0.33842400  0.57868500  0.16847600  1
  O  O6  1  0.08902000  0.83902000  0.25000000  1
  O  O7  1  0.66964500  0.41964500  0.25000000  1
  O  O8  1  0.08979100  0.42131500  0.25973900  1
  O  O9  1  0.66157600  0.83005300  0.24026100  1
  O  O10  1  0.08979100  0.83005300  0.66847600  1
  O  O11  1  0.66157600  0.42131500  0.83152400  1
  O  O12  1  0.62318700  0.87318700  0.75000000  1
  O  O13  1  0.37681300  0.12681300  0.25000000  1
loop_
_geom_bond_atom_site_label_1
_geom_bond_atom_site_label_2
_geom_bond_distance
_geom_bond_site_symmetry_2
Fe0 O0 2.040839 1_454
Fe0 O6 2.040839 1_555
Fe0 O11 2.065144 1_454
Fe0 O8 2.065144 1_555
Fe0 O5 2.065144 1_555
Fe0 O2 2.065144 1_454
Fe1 O6 2.040839 1_545
Fe1 O0 2.040839 1_455
Fe1 O10 2.065138 1_545
Fe1 O4 2.065138 1_455
Fe1 O3 2.065143 1_555
Fe1 O9 2.065143 1_445
O0 Tb3 2.486329 1_656
O0 Tb2 2.486329 1_555
O1 Sb1 2.025164 1_556
O1 Sb0 2.025164 1_555
O1 Tb1 2.528827 1_555
O1 Tb0 2.528827 1_566
O2 Sb0 1.994101 1_655
O2 Tb1 2.494718 1_555
O2 Tb3 2.529563 1_666
O3 Sb1 1.994107 1_556
O3 Tb0 2.494712 1_556
O3 Tb2 2.529562 1_555
O4 Sb0 1.994108 1_655
O4 Tb0 2.494718 1_555
O4 Tb3 2.529563 1_655
O5 Sb1 1.994101 1_555
O5 Tb1 2.494718 1_555
O5 Tb2 2.529563 1_565
O6 Tb3 2.486329 1_565
O6 Tb2 2.486329 1_565
O7 Sb0 2.025164 1_655
O7 Sb1 2.025164 1_555
O7 Tb0 2.528827 1_555
O7 Tb1 2.528827 1_555
O8 Sb0 1.994101 1_555
O8 Tb1 2.494718 1_555
O8 Tb3 2.529563 1_555
O9 Sb1 1.994107 1_555
O9 Tb0 2.494712 1_565
O9 Tb2 2.529562 1_565
O10 Sb0 1.994108 1_555
O10 Tb0 2.494718 1_566
O10 Tb3 2.529563 1_566
O11 Sb1 1.994101 1_556
O11 Tb1 2.494718 1_555
O11 Tb2 2.529563 1_555
O12 Tb1 2.222677 1_555
O12 Tb0 2.222677 1_566
O12 Tb2 2.265043 1_565
O12 Tb3 2.265043 1_666
O13 Tb0 2.222677 1_555
O13 Tb1 2.222677 1_555
O13 Tb2 2.265043 1_555
O13 Tb3 2.265043 1_555
