# generated using pymatgen
data_Ba3Ca
_symmetry_space_group_name_H-M   'P 1'
_cell_length_a   6.25493123
_cell_length_b   6.25493123
_cell_length_c   6.25493123
_cell_angle_alpha   90.00000000
_cell_angle_beta   90.00000000
_cell_angle_gamma   90.00000000
_symmetry_Int_Tables_number   1
_chemical_formula_structural   Ba3Ca
_chemical_formula_sum   'Ba3 Ca1'
_cell_volume   244.71895958
_cell_formula_units_Z   1
loop_
 _symmetry_equiv_pos_site_id
 _symmetry_equiv_pos_as_xyz
  1  'x, y, z'
loop_
 _atom_site_type_symbol
 _atom_site_label
 _atom_site_symmetry_multiplicity
 _atom_site_fract_x
 _atom_site_fract_y
 _atom_site_fract_z
 _atom_site_occupancy
  Ba  Ba0  1  -0.00000000  0.50000000  0.50000000  1
  Ba  Ba1  1  0.50000000  0.00000000  0.50000000  1
  Ba  Ba2  1  0.50000000  0.50000000  -0.00000000  1
  Ca  Ca0  1  -0.00000000  0.00000000  -0.00000000  1
loop_
_geom_bond_atom_site_label_1
_geom_bond_atom_site_label_2
_geom_bond_distance
_geom_bond_site_symmetry_2
Ba0 Ba2 4.422904 1_456
Ba0 Ba1 4.422904 1_565
Ba0 Ba2 4.422904 1_556
Ba0 Ba2 4.422904 1_555
Ba0 Ca0 4.422904 1_566
Ba0 Ca0 4.422904 1_565
Ba0 Ba1 4.422904 1_455
Ba0 Ba1 4.422904 1_465
Ba0 Ba1 4.422904 1_555
Ba0 Ca0 4.422904 1_555
Ba0 Ba2 4.422904 1_455
Ba0 Ca0 4.422904 1_556
Ba1 Ba2 4.422904 1_556
Ba1 Ca0 4.422904 1_655
Ba1 Ba2 4.422904 1_555
Ba1 Ba2 4.422904 1_546
Ba1 Ba2 4.422904 1_545
Ba1 Ca0 4.422904 1_555
Ba1 Ca0 4.422904 1_556
Ba1 Ca0 4.422904 1_656
Ba2 Ca0 4.422904 1_655
Ba2 Ca0 4.422904 1_565
Ba2 Ca0 4.422904 1_665
Ba2 Ca0 4.422904 1_555
