# generated using pymatgen
data_Rb12Mg(ClO)4
_symmetry_space_group_name_H-M   'P 1'
_cell_length_a   8.16944157
_cell_length_b   7.82643393
_cell_length_c   11.40859194
_cell_angle_alpha   82.43535195
_cell_angle_beta   91.07211897
_cell_angle_gamma   91.96682154
_symmetry_Int_Tables_number   1
_chemical_formula_structural   Rb12Mg(ClO)4
_chemical_formula_sum   'Rb12 Mg1 Cl4 O4'
_cell_volume   722.58944206
_cell_formula_units_Z   1
loop_
 _symmetry_equiv_pos_site_id
 _symmetry_equiv_pos_as_xyz
  1  'x, y, z'
loop_
 _atom_site_type_symbol
 _atom_site_label
 _atom_site_symmetry_multiplicity
 _atom_site_fract_x
 _atom_site_fract_y
 _atom_site_fract_z
 _atom_site_occupancy
  Rb  Rb0  1  0.04021800  0.53099900  0.24082900  1
  Rb  Rb1  1  0.24545700  0.31513200  0.61819700  1
  Rb  Rb2  1  0.18958400  0.20076000  0.02889500  1
  Rb  Rb3  1  0.24036600  0.72848300  0.90849900  1
  Rb  Rb4  1  0.21582300  0.81107900  0.52538500  1
  Rb  Rb5  1  0.45707600  0.85903000  0.19838400  1
  Rb  Rb6  1  0.56836100  0.01181900  0.74159000  1
  Rb  Rb7  1  0.70707400  0.24689500  0.04979900  1
  Rb  Rb8  1  0.82867500  0.23162900  0.46847400  1
  Rb  Rb9  1  0.77010800  0.75286700  0.00009600  1
  Rb  Rb10  1  0.74720700  0.72956100  0.47401600  1
  Rb  Rb11  1  0.88822000  0.48805800  0.75825500  1
  Mg  Mg0  1  0.40930000  0.22273200  0.35917900  1
  Cl  Cl0  1  0.91067600  0.95372100  0.22728300  1
  Cl  Cl1  1  0.64096100  0.49630800  0.25856500  1
  Cl  Cl2  1  0.50208100  0.59324700  0.72326500  1
  Cl  Cl3  1  0.97479400  0.98333800  0.73089000  1
  O  O0  1  0.98976300  0.48735100  0.99240200  1
  O  O1  1  0.00379300  0.52789300  0.52978700  1
  O  O2  1  0.47619400  0.97446100  0.97764900  1
  O  O3  1  0.49427000  0.11297100  0.50403700  1
loop_
_geom_bond_atom_site_label_1
_geom_bond_atom_site_label_2
_geom_bond_distance
_geom_bond_site_symmetry_2
Mg0 O3 1.890817 1_555
Cl0 Rb7 3.323259 1_565
Cl0 Rb9 3.368254 1_555
Cl0 Rb10 3.385915 1_555
Cl0 Rb0 3.491274 1_655
Cl0 Rb2 3.576441 1_665
Cl0 Rb5 3.770932 1_555
Cl0 Rb8 3.807342 1_565
Cl1 Mg0 2.939349 1_555
Cl1 Rb5 3.244683 1_555
Cl1 Rb0 3.271519 1_655
Cl1 Rb7 3.334558 1_555
Cl1 Rb10 3.334744 1_555
Cl1 Rb8 3.339488 1_555
Cl1 Rb9 3.500327 1_555
Cl2 Rb11 3.291327 1_555
Cl2 Rb1 3.293860 1_555
Cl2 Rb3 3.327273 1_555
Cl2 Rb6 3.335104 1_565
Cl2 Rb10 3.535818 1_555
Cl2 Rb4 3.540427 1_555
Cl3 Rb6 3.341006 1_565
Cl3 Rb3 3.443790 1_655
Cl3 Rb1 3.481181 1_665
Cl3 Rb4 3.518351 1_655
Cl3 Rb8 3.557764 1_565
Cl3 Rb9 3.742852 1_556
Cl3 Rb11 3.889043 1_555
O0 Rb11 2.781629 1_555
O0 Rb2 2.801636 1_656
O0 Rb9 2.802844 1_556
O0 Rb3 2.828725 1_655
O0 Rb0 2.919046 1_656
O0 Rb7 2.955939 1_556
O1 Rb10 2.683782 1_455
O1 Rb1 2.719694 1_555
O1 Rb4 2.761431 1_555
O1 Rb11 2.764130 1_455
O1 Rb8 2.841509 1_455
O1 Rb0 3.312379 1_555
O2 Rb5 2.566768 1_556
O2 Rb6 2.785439 1_565
O2 Rb3 2.851074 1_555
O2 Rb7 2.984846 1_566
O2 Rb9 2.997430 1_556
O2 Rb2 3.093465 1_566
O3 Rb6 2.782911 1_555
O3 Rb8 2.873753 1_555
O3 Rb1 3.032113 1_555
O3 Rb4 3.211956 1_545
