# generated using pymatgen
data_Ga3Ag
_symmetry_space_group_name_H-M   'P 1'
_cell_length_a   5.02788190
_cell_length_b   5.02788190
_cell_length_c   5.02788190
_cell_angle_alpha   131.40117594
_cell_angle_beta   131.40117594
_cell_angle_gamma   71.17646474
_symmetry_Int_Tables_number   1
_chemical_formula_structural   Ga3Ag
_chemical_formula_sum   'Ga3 Ag1'
_cell_volume   70.01218841
_cell_formula_units_Z   1
loop_
 _symmetry_equiv_pos_site_id
 _symmetry_equiv_pos_as_xyz
  1  'x, y, z'
loop_
 _atom_site_type_symbol
 _atom_site_label
 _atom_site_symmetry_multiplicity
 _atom_site_fract_x
 _atom_site_fract_y
 _atom_site_fract_z
 _atom_site_occupancy
  Ga  Ga0  1  0.75000000  0.25000000  0.50000000  1
  Ga  Ga1  1  0.25000000  0.75000000  0.50000000  1
  Ga  Ga2  1  0.50000000  0.50000000  0.00000000  1
  Ag  Ag0  1  0.00000000  -0.00000000  0.00000000  1
loop_
_geom_bond_atom_site_label_1
_geom_bond_atom_site_label_2
_geom_bond_distance
_geom_bond_site_symmetry_2
Ga0 Ga2 2.908655 1_545
Ga0 Ga2 2.908655 1_555
Ga0 Ga2 2.908655 1_556
Ga0 Ga2 2.908655 1_656
Ga0 Ga1 2.926006 1_645
Ga0 Ga1 2.926006 1_555
Ga0 Ga1 2.926006 1_656
Ga0 Ga1 2.926006 1_544
Ga1 Ga2 2.908655 1_555
Ga1 Ga2 2.908655 1_566
Ga1 Ga2 2.908655 1_556
Ga1 Ga2 2.908655 1_455
Ag0 Ga0 2.908655 1_454
Ag0 Ga0 2.908655 1_444
Ag0 Ga1 2.908655 1_555
Ag0 Ga1 2.908655 1_544
Ag0 Ga1 2.908655 1_545
Ag0 Ga0 2.908655 1_455
Ag0 Ga1 2.908655 1_444
Ag0 Ga0 2.908655 1_555
Ag0 Ga2 2.926006 1_556
Ag0 Ga2 2.926006 1_455
Ag0 Ga2 2.926006 1_545
Ag0 Ga2 2.926006 1_444
