# generated using pymatgen
data_SrSm3Mn4O12
_symmetry_space_group_name_H-M   'P 1'
_cell_length_a   7.75984700
_cell_length_b   5.46675400
_cell_length_c   5.65238137
_cell_angle_alpha   89.69635752
_cell_angle_beta   90.00000000
_cell_angle_gamma   90.00000000
_symmetry_Int_Tables_number   1
_chemical_formula_structural   SrSm3Mn4O12
_chemical_formula_sum   'Sr1 Sm3 Mn4 O12'
_cell_volume   239.77729018
_cell_formula_units_Z   1
loop_
 _symmetry_equiv_pos_site_id
 _symmetry_equiv_pos_as_xyz
  1  'x, y, z'
loop_
 _atom_site_type_symbol
 _atom_site_label
 _atom_site_symmetry_multiplicity
 _atom_site_fract_x
 _atom_site_fract_y
 _atom_site_fract_z
 _atom_site_occupancy
  Sr  Sr0  1  0.50000000  0.49206100  0.54040500  1
  Sm  Sm0  1  0.00000000  0.98730000  0.94588300  1
  Sm  Sm1  1  0.00000000  0.51415300  0.44112100  1
  Sm  Sm2  1  0.50000000  0.01525300  0.05591400  1
  Mn  Mn0  1  0.25049300  0.49740700  0.99734600  1
  Mn  Mn1  1  0.25089900  0.00203900  0.50092900  1
  Mn  Mn2  1  0.74910100  0.00203900  0.50092900  1
  Mn  Mn3  1  0.74950700  0.49740700  0.99734600  1
  O  O0  1  0.80110200  0.78182500  0.20272800  1
  O  O1  1  0.71835800  0.28268800  0.28898000  1
  O  O2  1  0.71161200  0.20453200  0.81024800  1
  O  O3  1  0.80396000  0.71546200  0.70537100  1
  O  O4  1  0.28838800  0.20453200  0.81024800  1
  O  O5  1  0.19604000  0.71546200  0.70537100  1
  O  O6  1  0.19889800  0.78182500  0.20272800  1
  O  O7  1  0.28164200  0.28268800  0.28898000  1
  O  O8  1  0.50000000  0.59333700  0.98850600  1
  O  O9  1  0.00000000  0.09383300  0.52947500  1
  O  O10  1  0.00000000  0.41004300  0.02086400  1
  O  O11  1  0.50000000  0.93556700  0.46959700  1
loop_
_geom_bond_atom_site_label_1
_geom_bond_atom_site_label_2
_geom_bond_distance
_geom_bond_site_symmetry_2
Mn0 O4 1.945834 1_555
Mn0 O6 1.986114 1_556
Mn0 O10 2.005843 1_556
Mn0 O8 2.006456 1_555
Mn0 O7 2.032995 1_556
Mn0 O5 2.074211 1_555
Mn1 O7 1.956160 1_555
Mn1 O11 1.974976 1_545
Mn1 O5 1.987909 1_545
Mn1 O9 2.017245 1_555
Mn1 O4 2.094614 1_555
Mn1 O6 2.115341 1_545
Mn2 O1 1.956160 1_555
Mn2 O11 1.974976 1_545
Mn2 O3 1.987909 1_545
Mn2 O9 2.017245 1_655
Mn2 O2 2.094614 1_555
Mn2 O0 2.115341 1_545
Mn3 O2 1.945834 1_555
Mn3 O0 1.986114 1_556
Mn3 O10 2.005843 1_656
Mn3 O8 2.006456 1_555
Mn3 O1 2.032995 1_556
Mn3 O3 2.074211 1_555
O0 Sm0 2.394639 1_654
O0 Sm1 2.513604 1_655
O0 Sm2 2.786592 1_565
O1 Sr0 2.493606 1_555
O1 Sm2 2.600850 1_555
O1 Sm1 2.669946 1_655
O2 Sm2 2.383292 1_556
O2 Sm0 2.645064 1_645
O2 Sr0 2.732787 1_555
O3 Sm1 2.402847 1_655
O3 Sm0 2.528268 1_655
O3 Sr0 2.817169 1_555
O4 Sm2 2.383292 1_556
O4 Sm0 2.645064 1_545
O4 Sr0 2.732787 1_555
O5 Sm1 2.402847 1_555
O5 Sm0 2.528268 1_555
O5 Sr0 2.817169 1_555
O6 Sm0 2.394639 1_554
O6 Sm1 2.513604 1_555
O6 Sm2 2.786592 1_565
O7 Sr0 2.493606 1_555
O7 Sm2 2.600850 1_555
O7 Sm1 2.669946 1_555
O8 Sm2 2.339761 1_566
O8 Sr0 2.595508 1_555
O9 Sm1 2.348844 1_555
O9 Sm0 2.421681 1_545
O10 Sm0 2.351781 1_544
O10 Sm1 2.445615 1_555
O11 Sm2 2.376256 1_565
O11 Sr0 2.455257 1_555
