# generated using pymatgen
data_SrSmTiNbO6
_symmetry_space_group_name_H-M   'P 1'
_cell_length_a   5.62903965
_cell_length_b   5.62903977
_cell_length_c   5.62904001
_cell_angle_alpha   59.99999713
_cell_angle_beta   60.00000104
_cell_angle_gamma   60.00000349
_symmetry_Int_Tables_number   1
_chemical_formula_structural   SrSmTiNbO6
_chemical_formula_sum   'Sr1 Sm1 Ti1 Nb1 O6'
_cell_volume   126.12116321
_cell_formula_units_Z   1
loop_
 _symmetry_equiv_pos_site_id
 _symmetry_equiv_pos_as_xyz
  1  'x, y, z'
loop_
 _atom_site_type_symbol
 _atom_site_label
 _atom_site_symmetry_multiplicity
 _atom_site_fract_x
 _atom_site_fract_y
 _atom_site_fract_z
 _atom_site_occupancy
  Sr  Sr0  1  0.75000002  0.74999998  0.75000002  1
  Sm  Sm0  1  0.25000004  0.24999996  0.25000004  1
  Ti  Ti0  1  0.49999999  0.50000001  0.49999999  1
  Nb  Nb0  1  0.00000011  0.99999989  0.00000011  1
  O  O0  1  0.74612256  0.25387734  0.25387734  1
  O  O1  1  0.25387734  0.74612276  0.74612256  1
  O  O2  1  0.74612261  0.25387739  0.74612261  1
  O  O3  1  0.25387736  0.74612264  0.25387736  1
  O  O4  1  0.74612265  0.74612267  0.25387732  1
  O  O5  1  0.25387732  0.25387736  0.74612265  1
loop_
_geom_bond_atom_site_label_1
_geom_bond_atom_site_label_2
_geom_bond_distance
_geom_bond_site_symmetry_2
Nb0 O3 2.021032 1_555
Nb0 O5 2.021032 1_564
Nb0 O4 2.021032 1_455
Nb0 O1 2.021032 1_554
Nb0 O0 2.021032 1_465
Nb0 O2 2.021034 1_464
O0 Ti0 1.959300 1_555
O0 Sm0 2.814688 1_555
O0 Sr0 2.814689 1_554
O0 Sr0 2.814689 1_545
O0 Sm0 2.814690 1_655
O1 Ti0 1.959300 1_555
O1 Sm0 2.814688 1_565
O1 Sr0 2.814689 1_455
O1 Sr0 2.814689 1_555
O1 Sm0 2.814690 1_556
O2 Ti0 1.959300 1_555
O2 Sr0 2.814689 1_555
O2 Sr0 2.814689 1_545
O2 Sm0 2.814689 1_556
O2 Sm0 2.814689 1_655
O3 Ti0 1.959300 1_555
O3 Sm0 2.814689 1_565
O3 Sm0 2.814689 1_555
O3 Sr0 2.814689 1_455
O3 Sr0 2.814689 1_554
O4 Ti0 1.959300 1_555
O4 Sm0 2.814689 1_565
O4 Sr0 2.814689 1_554
O4 Sr0 2.814689 1_555
O4 Sm0 2.814690 1_655
O5 Ti0 1.959300 1_555
O5 Sm0 2.814689 1_555
O5 Sr0 2.814689 1_455
O5 Sr0 2.814689 1_545
O5 Sm0 2.814690 1_556
