# generated using pymatgen
data_Ca2MoN3
_symmetry_space_group_name_H-M   'P 1'
_cell_length_a   6.01745077
_cell_length_b   6.01745077
_cell_length_c   11.97181071
_cell_angle_alpha   87.31115855
_cell_angle_beta   87.31115855
_cell_angle_gamma   125.75895073
_symmetry_Int_Tables_number   1
_chemical_formula_structural   Ca2MoN3
_chemical_formula_sum   'Ca8 Mo4 N12'
_cell_volume   349.90677112
_cell_formula_units_Z   4
loop_
 _symmetry_equiv_pos_site_id
 _symmetry_equiv_pos_as_xyz
  1  'x, y, z'
loop_
 _atom_site_type_symbol
 _atom_site_label
 _atom_site_symmetry_multiplicity
 _atom_site_fract_x
 _atom_site_fract_y
 _atom_site_fract_z
 _atom_site_occupancy
  Ca  Ca0  1  0.57022562  0.97760931  0.85705414  1
  Ca  Ca1  1  0.02239069  0.42977438  0.64294586  1
  Ca  Ca2  1  0.42977438  0.02239069  0.14294586  1
  Ca  Ca3  1  0.97760931  0.57022562  0.35705414  1
  Ca  Ca4  1  0.34803279  0.11974793  0.57607428  1
  Ca  Ca5  1  0.88025207  0.65196721  0.92392572  1
  Ca  Ca6  1  0.65196721  0.88025207  0.42392572  1
  Ca  Ca7  1  0.11974793  0.34803279  0.07607428  1
  Mo  Mo0  1  0.71626184  0.72121894  0.66605537  1
  Mo  Mo1  1  0.27878106  0.28373816  0.83394463  1
  Mo  Mo2  1  0.28373816  0.27878106  0.33394463  1
  Mo  Mo3  1  0.72121894  0.71626184  0.16605537  1
  N  N0  1  0.62564072  0.37435928  0.75000000  1
  N  N1  1  0.37435928  0.62564072  0.25000000  1
  N  N2  1  0.50831818  0.84594289  0.62492481  1
  N  N3  1  0.15405711  0.49168182  0.87507519  1
  N  N4  1  0.49168182  0.15405711  0.37507519  1
  N  N5  1  0.84594289  0.50831818  0.12492481  1
  N  N6  1  0.67234249  0.85130462  0.03627934  1
  N  N7  1  0.14869538  0.32765751  0.46372066  1
  N  N8  1  0.32765751  0.14869538  0.96372066  1
  N  N9  1  0.85130462  0.67234249  0.53627934  1
  N  N10  1  0.99620749  0.00379251  0.75000000  1
  N  N11  1  0.00379251  0.99620749  0.25000000  1
loop_
_geom_bond_atom_site_label_1
_geom_bond_atom_site_label_2
_geom_bond_distance
_geom_bond_site_symmetry_2
Ca0 N6 2.464872 1_556
Ca0 N0 2.489164 1_565
Ca0 N3 2.489934 1_555
Ca0 N8 2.554582 1_565
Ca0 N10 2.727423 1_565
Ca0 N2 2.906570 1_555
Ca0 N3 3.064346 1_665
Ca1 N7 2.464872 1_555
Ca1 N0 2.489164 1_455
Ca1 N2 2.489934 1_555
Ca1 N9 2.554582 1_455
Ca1 N10 2.727423 1_455
Ca1 N3 2.906570 1_555
Ca1 N2 3.064346 1_445
Ca2 N8 2.464872 1_554
Ca2 N1 2.489164 1_545
Ca2 N5 2.489934 1_555
Ca2 N6 2.554582 1_545
Ca2 N11 2.727423 1_545
Ca2 N4 2.906570 1_555
Ca2 N5 3.064346 1_445
Ca3 N9 2.464872 1_555
Ca3 N1 2.489164 1_655
Ca3 N4 2.489934 1_555
Ca3 N7 2.554582 1_655
Ca3 N11 2.727423 1_655
Ca3 N5 2.906570 1_555
Ca3 N4 3.064346 1_665
Ca4 N2 2.409718 1_545
Ca4 N4 2.475856 1_555
Ca4 N7 2.561380 1_555
Ca4 N10 2.651059 1_455
Ca4 N0 2.666059 1_555
Ca4 N9 2.694110 1_445
Ca4 N9 2.898588 1_555
Ca5 N3 2.409718 1_655
Ca5 N5 2.475856 1_556
Ca5 N6 2.561380 1_556
Ca5 N10 2.651059 1_565
Ca5 N0 2.666059 1_555
Ca5 N8 2.694110 1_665
Ca5 N8 2.898588 1_555
Ca6 N4 2.409718 1_565
Ca6 N2 2.475856 1_555
Ca6 N9 2.561380 1_555
Ca6 N11 2.651059 1_655
Ca6 N1 2.666059 1_555
Ca6 N7 2.694110 1_665
Ca6 N7 2.898588 1_555
Ca7 N5 2.409718 1_455
Ca7 N3 2.475856 1_554
Ca7 N8 2.561380 1_554
Ca7 N11 2.651059 1_545
Ca7 N1 2.666059 1_555
Ca7 N6 2.694110 1_445
Ca7 N6 2.898588 1_555
Mo0 N9 1.834239 1_555
Mo0 N2 1.868745 1_555
Mo0 N10 1.926236 1_565
Mo0 N0 2.021215 1_555
Mo1 N8 1.834239 1_555
Mo1 N3 1.868745 1_555
Mo1 N10 1.926236 1_455
Mo1 N0 2.021215 1_555
Mo2 N7 1.834239 1_555
Mo2 N4 1.868745 1_555
Mo2 N11 1.926236 1_545
Mo2 N1 2.021215 1_555
Mo3 N6 1.834239 1_555
Mo3 N5 1.868745 1_555
Mo3 N11 1.926236 1_655
Mo3 N1 2.021215 1_555
