# generated using pymatgen
data_MnGaFe2
_symmetry_space_group_name_H-M   'P 1'
_cell_length_a   3.59892500
_cell_length_b   3.59892500
_cell_length_c   3.82385900
_cell_angle_alpha   90.00000000
_cell_angle_beta   90.00000000
_cell_angle_gamma   90.00000000
_symmetry_Int_Tables_number   1
_chemical_formula_structural   MnGaFe2
_chemical_formula_sum   'Mn1 Ga1 Fe2'
_cell_volume   49.52762039
_cell_formula_units_Z   1
loop_
 _symmetry_equiv_pos_site_id
 _symmetry_equiv_pos_as_xyz
  1  'x, y, z'
loop_
 _atom_site_type_symbol
 _atom_site_label
 _atom_site_symmetry_multiplicity
 _atom_site_fract_x
 _atom_site_fract_y
 _atom_site_fract_z
 _atom_site_occupancy
  Mn  Mn0  1  0.00000000  0.00000000  0.00000000  1
  Ga  Ga0  1  0.50000000  0.50000000  0.00000000  1
  Fe  Fe0  1  0.00000000  0.50000000  0.50000000  1
  Fe  Fe1  1  0.50000000  0.00000000  0.50000000  1
loop_
_geom_bond_atom_site_label_1
_geom_bond_atom_site_label_2
_geom_bond_distance
_geom_bond_site_symmetry_2
Ga0 Mn0 2.544824 1_655
Ga0 Mn0 2.544824 1_565
Ga0 Mn0 2.544824 1_665
Ga0 Mn0 2.544824 1_555
Fe0 Fe1 2.544824 1_555
Fe0 Fe1 2.544824 1_565
Fe0 Fe1 2.544824 1_465
Fe0 Fe1 2.544824 1_455
Fe0 Mn0 2.625555 1_565
Fe0 Mn0 2.625555 1_566
Fe0 Ga0 2.625555 1_455
Fe0 Ga0 2.625555 1_456
Fe0 Ga0 2.625555 1_556
Fe0 Mn0 2.625555 1_555
Fe0 Mn0 2.625555 1_556
Fe0 Ga0 2.625555 1_555
Fe1 Mn0 2.625555 1_655
Fe1 Mn0 2.625555 1_656
Fe1 Ga0 2.625555 1_545
Fe1 Ga0 2.625555 1_556
Fe1 Mn0 2.625555 1_555
Fe1 Mn0 2.625555 1_556
Fe1 Ga0 2.625555 1_546
Fe1 Ga0 2.625555 1_555
