# generated using pymatgen
data_NaLiMg6
_symmetry_space_group_name_H-M   'P 1'
_cell_length_a   5.24143900
_cell_length_b   6.44616900
_cell_length_c   11.15211500
_cell_angle_alpha   90.00000000
_cell_angle_beta   90.00000000
_cell_angle_gamma   90.00000000
_symmetry_Int_Tables_number   1
_chemical_formula_structural   NaLiMg6
_chemical_formula_sum   'Na2 Li2 Mg12'
_cell_volume   376.79875774
_cell_formula_units_Z   2
loop_
 _symmetry_equiv_pos_site_id
 _symmetry_equiv_pos_as_xyz
  1  'x, y, z'
loop_
 _atom_site_type_symbol
 _atom_site_label
 _atom_site_symmetry_multiplicity
 _atom_site_fract_x
 _atom_site_fract_y
 _atom_site_fract_z
 _atom_site_occupancy
  Na  Na0  1  0.50000000  0.50000000  0.16822800  1
  Na  Na1  1  0.50000000  0.00000000  0.66822800  1
  Li  Li0  1  0.00000000  0.50000000  0.33491200  1
  Li  Li1  1  0.00000000  0.00000000  0.83491200  1
  Mg  Mg0  1  0.00000000  0.24697600  0.08195300  1
  Mg  Mg1  1  0.00000000  0.75302400  0.08195300  1
  Mg  Mg2  1  0.00000000  0.50000000  0.83346900  1
  Mg  Mg3  1  0.50000000  0.24818300  0.91660200  1
  Mg  Mg4  1  0.50000000  0.75181700  0.91660200  1
  Mg  Mg5  1  0.50000000  0.50000000  0.66628200  1
  Mg  Mg6  1  0.00000000  0.74697600  0.58195300  1
  Mg  Mg7  1  0.00000000  0.25302400  0.58195300  1
  Mg  Mg8  1  0.00000000  0.00000000  0.33346900  1
  Mg  Mg9  1  0.50000000  0.74818300  0.41660200  1
  Mg  Mg10  1  0.50000000  0.25181700  0.41660200  1
  Mg  Mg11  1  0.50000000  0.00000000  0.16628200  1
loop_
_geom_bond_atom_site_label_1
_geom_bond_atom_site_label_2
_geom_bond_distance
_geom_bond_site_symmetry_2
Li0 Mg6 3.181950 1_555
Li0 Mg7 3.181950 1_555
Li0 Mg9 3.202745 1_455
Li0 Mg9 3.202745 1_555
Li0 Mg10 3.202745 1_555
Li0 Mg10 3.202745 1_455
Li0 Na0 3.213036 1_455
Li0 Na0 3.213036 1_555
Li0 Mg8 3.223125 1_565
Li0 Mg8 3.223125 1_555
Li0 Mg1 3.258600 1_555
Li0 Mg0 3.258600 1_555
Li1 Mg0 3.181950 1_556
Li1 Mg1 3.181950 1_546
Li1 Mg3 3.202745 1_455
Li1 Mg3 3.202745 1_555
Li1 Mg4 3.202745 1_445
Li1 Mg4 3.202745 1_545
Li1 Na1 3.213036 1_555
Li1 Na1 3.213036 1_455
Li1 Mg2 3.223125 1_545
Li1 Mg2 3.223125 1_555
Li1 Mg7 3.258600 1_555
Li1 Mg6 3.258600 1_545
Mg0 Mg1 3.184098 1_545
Mg0 Mg3 3.204468 1_454
Mg0 Mg3 3.204468 1_554
Mg0 Mg11 3.207371 1_455
Mg0 Mg11 3.207371 1_555
Mg0 Mg2 3.215493 1_554
Mg0 Mg8 3.225257 1_555
Mg0 Na0 3.233292 1_555
Mg0 Na0 3.233292 1_455
Mg0 Mg1 3.262071 1_555
Mg1 Mg4 3.204468 1_554
Mg1 Mg4 3.204468 1_454
Mg1 Mg11 3.207371 1_565
Mg1 Mg11 3.207371 1_465
Mg1 Mg2 3.215493 1_554
Mg1 Mg8 3.225257 1_565
Mg1 Na0 3.233292 1_555
Mg1 Na0 3.233292 1_455
Mg2 Mg5 3.216285 1_455
Mg2 Mg5 3.216285 1_555
Mg2 Mg3 3.219108 1_455
Mg2 Mg4 3.219108 1_455
Mg2 Mg3 3.219108 1_555
Mg2 Mg4 3.219108 1_555
Mg2 Mg6 3.225257 1_555
Mg2 Mg7 3.225257 1_555
Mg3 Na1 3.198715 1_555
Mg3 Mg4 3.199659 1_545
Mg3 Mg5 3.229237 1_555
Mg3 Na0 3.241836 1_556
Mg3 Mg4 3.246510 1_555
Mg4 Na1 3.198715 1_565
Mg4 Mg5 3.229237 1_555
Mg4 Na0 3.241836 1_556
Mg5 Mg6 3.207371 1_555
Mg5 Mg6 3.207371 1_655
Mg5 Mg7 3.207371 1_555
Mg5 Mg7 3.207371 1_655
Mg5 Mg9 3.211335 1_555
Mg5 Na1 3.223158 1_565
Mg5 Na1 3.223158 1_555
Mg6 Mg7 3.184098 1_555
Mg6 Mg9 3.204468 1_555
Mg6 Mg9 3.204468 1_455
Mg6 Mg8 3.215493 1_565
Mg6 Na1 3.233292 1_465
Mg6 Na1 3.233292 1_565
Mg6 Mg7 3.262071 1_565
Mg7 Mg8 3.215493 1_555
Mg7 Na1 3.233292 1_455
Mg7 Na1 3.233292 1_555
Mg8 Mg9 3.219108 1_445
Mg8 Mg9 3.219108 1_545
Mg9 Na0 3.198715 1_555
Mg9 Na1 3.241836 1_565
Mg10 Na0 3.198715 1_555
Mg10 Mg9 3.199659 1_555
Mg10 Mg7 3.204468 1_555
Mg10 Mg7 3.204468 1_655
Mg10 Mg5 3.211335 1_555
Mg10 Mg8 3.219108 1_555
Mg10 Mg8 3.219108 1_655
Mg10 Mg11 3.229237 1_555
Mg10 Na1 3.241836 1_555
Mg10 Mg9 3.246510 1_545
Mg11 Mg3 3.211335 1_554
Mg11 Mg4 3.211335 1_544
Mg11 Mg8 3.216285 1_555
Mg11 Mg8 3.216285 1_655
Mg11 Na0 3.223158 1_545
Mg11 Na0 3.223158 1_555
Mg11 Mg9 3.229237 1_545
