# generated using pymatgen
data_NaIn(IO3)4
_symmetry_space_group_name_H-M   'P 1'
_cell_length_a   5.08452000
_cell_length_b   7.31548300
_cell_length_c   15.83923596
_cell_angle_alpha   78.78559131
_cell_angle_beta   90.00000000
_cell_angle_gamma   90.00000000
_symmetry_Int_Tables_number   1
_chemical_formula_structural   NaIn(IO3)4
_chemical_formula_sum   'Na2 In2 I8 O24'
_cell_volume   577.90267982
_cell_formula_units_Z   2
loop_
 _symmetry_equiv_pos_site_id
 _symmetry_equiv_pos_as_xyz
  1  'x, y, z'
loop_
 _atom_site_type_symbol
 _atom_site_label
 _atom_site_symmetry_multiplicity
 _atom_site_fract_x
 _atom_site_fract_y
 _atom_site_fract_z
 _atom_site_occupancy
  Na  Na0  1  0.50000000  0.50000000  0.00000000  1
  Na  Na1  1  0.00000000  0.50000000  0.50000000  1
  In  In0  1  0.50000000  0.00000000  0.00000000  1
  In  In1  1  0.00000000  0.00000000  0.50000000  1
  I  I0  1  0.90594200  0.66708900  0.16367400  1
  I  I1  1  0.40594200  0.33291100  0.33632600  1
  I  I2  1  0.09405800  0.33291100  0.83632600  1
  I  I3  1  0.59405800  0.66708900  0.66367400  1
  I  I4  1  0.99223400  0.18113700  0.13731900  1
  I  I5  1  0.49223400  0.81886300  0.36268100  1
  I  I6  1  0.00776600  0.81886300  0.86268100  1
  I  I7  1  0.50776600  0.18113700  0.63731900  1
  O  O0  1  0.67217900  0.74433500  0.07284100  1
  O  O1  1  0.17217900  0.25566500  0.42715900  1
  O  O2  1  0.32782100  0.25566500  0.92715900  1
  O  O3  1  0.82782100  0.74433500  0.57284100  1
  O  O4  1  0.80219700  0.83082400  0.23154300  1
  O  O5  1  0.30219700  0.16917600  0.26845700  1
  O  O6  1  0.19780300  0.16917600  0.76845700  1
  O  O7  1  0.69780300  0.83082400  0.73154300  1
  O  O8  1  0.72659100  0.45114400  0.20665200  1
  O  O9  1  0.22659100  0.54885600  0.29334800  1
  O  O10  1  0.27340900  0.54885600  0.79334800  1
  O  O11  1  0.77340900  0.45114400  0.70665200  1
  O  O12  1  0.73958600  0.19874800  0.05026000  1
  O  O13  1  0.23958600  0.80125200  0.44974000  1
  O  O14  1  0.26041400  0.80125200  0.94974000  1
  O  O15  1  0.76041400  0.19874800  0.55026000  1
  O  O16  1  0.20839800  0.00275000  0.10355600  1
  O  O17  1  0.70839800  0.99725000  0.39644400  1
  O  O18  1  0.79160200  0.99725000  0.89644400  1
  O  O19  1  0.29160200  0.00275000  0.60355600  1
  O  O20  1  0.15389800  0.39745800  0.09119800  1
  O  O21  1  0.65389800  0.60254200  0.40880200  1
  O  O22  1  0.84610200  0.60254200  0.90880200  1
  O  O23  1  0.34610200  0.39745800  0.59119800  1
loop_
_geom_bond_atom_site_label_1
_geom_bond_atom_site_label_2
_geom_bond_distance
_geom_bond_site_symmetry_2
Na0 O22 2.307511 1_554
Na0 O20 2.307511 1_555
Na0 O0 2.468718 1_555
Na0 O2 2.468718 1_554
Na0 O12 2.508398 1_555
Na0 O14 2.508398 1_554
Na1 O23 2.307511 1_555
Na1 O21 2.307511 1_455
Na1 O1 2.468718 1_555
Na1 O3 2.468718 1_455
Na1 O13 2.508398 1_555
Na1 O15 2.508398 1_455
In0 O12 2.163757 1_555
In0 O14 2.163757 1_544
In0 O2 2.180890 1_554
In0 O0 2.180890 1_545
In0 O18 2.214029 1_544
In0 O16 2.214029 1_555
In1 O15 2.163757 1_455
In1 O13 2.163757 1_545
In1 O3 2.180890 1_445
In1 O1 2.180890 1_555
In1 O19 2.214029 1_555
In1 O17 2.214029 1_445
I0 O4 1.835599 1_555
I0 O8 1.836380 1_555
I0 O0 1.867012 1_555
I1 O5 1.835599 1_555
I1 O9 1.836380 1_555
I1 O1 1.867012 1_555
I2 O6 1.835599 1_555
I2 O10 1.836380 1_555
I2 O2 1.867012 1_555
I3 O7 1.835599 1_555
I3 O11 1.836380 1_555
I3 O3 1.867012 1_555
I4 O20 1.806639 1_655
I4 O16 1.862372 1_655
I4 O12 1.870609 1_555
I5 O21 1.806639 1_555
I5 O17 1.862372 1_555
I5 O13 1.870609 1_555
I6 O22 1.806639 1_455
I6 O18 1.862372 1_455
I6 O14 1.870609 1_555
I7 O23 1.806639 1_555
I7 O19 1.862372 1_555
I7 O15 1.870609 1_555
