# generated using pymatgen
data_SrEuHfTiO6
_symmetry_space_group_name_H-M   'P 1'
_cell_length_a   5.70147110
_cell_length_b   5.70147110
_cell_length_c   5.70147110
_cell_angle_alpha   60.00000000
_cell_angle_beta   60.00000000
_cell_angle_gamma   60.00000000
_symmetry_Int_Tables_number   1
_chemical_formula_structural   SrEuHfTiO6
_chemical_formula_sum   'Sr1 Eu1 Hf1 Ti1 O6'
_cell_volume   131.05264325
_cell_formula_units_Z   1
loop_
 _symmetry_equiv_pos_site_id
 _symmetry_equiv_pos_as_xyz
  1  'x, y, z'
loop_
 _atom_site_type_symbol
 _atom_site_label
 _atom_site_symmetry_multiplicity
 _atom_site_fract_x
 _atom_site_fract_y
 _atom_site_fract_z
 _atom_site_occupancy
  Sr  Sr0  1  0.75000000  0.75000000  0.75000000  1
  Eu  Eu0  1  0.25000000  0.25000000  0.25000000  1
  Hf  Hf0  1  -0.00000000  -0.00000000  -0.00000000  1
  Ti  Ti0  1  0.50000000  0.50000000  0.50000000  1
  O  O0  1  0.74452466  0.25547534  0.25547534  1
  O  O1  1  0.25547534  0.74452466  0.74452466  1
  O  O2  1  0.74452466  0.25547534  0.74452466  1
  O  O3  1  0.25547534  0.74452466  0.25547534  1
  O  O4  1  0.74452466  0.74452466  0.25547534  1
  O  O5  1  0.25547534  0.25547534  0.74452466  1
loop_
_geom_bond_atom_site_label_1
_geom_bond_atom_site_label_2
_geom_bond_distance
_geom_bond_site_symmetry_2
Eu0 O3 2.851077 1_555
Eu0 O5 2.851077 1_555
Eu0 O0 2.851077 1_555
Eu0 O2 2.851077 1_455
Eu0 O4 2.851077 1_545
Eu0 O4 2.851077 1_455
Eu0 O0 2.851077 1_455
Eu0 O1 2.851077 1_554
Eu0 O3 2.851077 1_545
Eu0 O1 2.851077 1_545
Eu0 O2 2.851077 1_554
Eu0 O5 2.851077 1_554
Hf0 O3 2.059923 1_545
Hf0 O5 2.059923 1_554
Hf0 O0 2.059923 1_455
Hf0 O1 2.059923 1_544
Hf0 O4 2.059923 1_445
Hf0 O2 2.059923 1_454
O0 Ti0 1.971626 1_555
O0 Sr0 2.851077 1_554
O0 Sr0 2.851077 1_545
O1 Ti0 1.971626 1_555
O1 Sr0 2.851077 1_555
O1 Sr0 2.851077 1_455
O2 Ti0 1.971626 1_555
O2 Sr0 2.851077 1_555
O2 Sr0 2.851077 1_545
O3 Ti0 1.971626 1_555
O3 Sr0 2.851077 1_554
O3 Sr0 2.851077 1_455
O4 Ti0 1.971626 1_555
O4 Sr0 2.851077 1_554
O4 Sr0 2.851077 1_555
O5 Ti0 1.971626 1_555
O5 Sr0 2.851077 1_545
O5 Sr0 2.851077 1_455
