# generated using pymatgen
data_BaYb3
_symmetry_space_group_name_H-M   'P 1'
_cell_length_a   7.45241417
_cell_length_b   7.45241417
_cell_length_c   5.92949610
_cell_angle_alpha   90.00000000
_cell_angle_beta   90.00000000
_cell_angle_gamma   119.99999683
_symmetry_Int_Tables_number   1
_chemical_formula_structural   BaYb3
_chemical_formula_sum   'Ba2 Yb6'
_cell_volume   285.19532327
_cell_formula_units_Z   2
loop_
 _symmetry_equiv_pos_site_id
 _symmetry_equiv_pos_as_xyz
  1  'x, y, z'
loop_
 _atom_site_type_symbol
 _atom_site_label
 _atom_site_symmetry_multiplicity
 _atom_site_fract_x
 _atom_site_fract_y
 _atom_site_fract_z
 _atom_site_occupancy
  Ba  Ba0  1  0.33333300  0.66666700  0.75000000  1
  Ba  Ba1  1  0.66666700  0.33333300  0.25000000  1
  Yb  Yb0  1  0.15732157  0.31464314  0.25000000  1
  Yb  Yb1  1  0.68535686  0.84267843  0.25000000  1
  Yb  Yb2  1  0.15732157  0.84267843  0.25000000  1
  Yb  Yb3  1  0.84267843  0.68535686  0.75000000  1
  Yb  Yb4  1  0.31464314  0.15732157  0.75000000  1
  Yb  Yb5  1  0.84267843  0.15732157  0.75000000  1
loop_
_geom_bond_atom_site_label_1
_geom_bond_atom_site_label_2
_geom_bond_distance
_geom_bond_site_symmetry_2
Ba0 Yb3 3.728155 1_455
Ba0 Yb4 3.728155 1_565
Ba0 Yb5 3.728159 1_565
Ba0 Yb5 3.728159 1_455
Ba0 Yb4 3.728163 1_555
Ba0 Yb3 3.728163 1_555
Ba0 Yb2 3.735168 1_555
Ba0 Yb2 3.735168 1_556
Ba0 Yb1 3.735172 1_555
Ba0 Yb1 3.735172 1_556
Ba0 Yb0 3.735172 1_556
Ba0 Yb0 3.735172 1_555
Ba1 Yb1 3.728155 1_545
Ba1 Yb0 3.728155 1_655
Ba1 Yb2 3.728159 1_655
Ba1 Yb2 3.728159 1_545
Ba1 Yb0 3.728163 1_555
Ba1 Yb1 3.728163 1_555
Ba1 Yb5 3.735168 1_555
Ba1 Yb5 3.735168 1_554
Ba1 Yb4 3.735172 1_555
Ba1 Yb4 3.735172 1_554
Ba1 Yb3 3.735172 1_555
Ba1 Yb3 3.735172 1_554
Yb0 Yb2 3.517276 1_545
Yb0 Yb1 3.517277 1_445
Yb0 Yb4 3.593532 1_555
Yb0 Yb4 3.593532 1_554
Yb0 Yb5 3.593532 1_455
Yb0 Yb5 3.593532 1_454
Yb0 Yb2 3.935138 1_555
Yb0 Yb1 3.935138 1_555
Yb1 Yb2 3.517276 1_655
Yb1 Yb3 3.593532 1_555
Yb1 Yb3 3.593532 1_554
Yb1 Yb5 3.593532 1_564
Yb1 Yb5 3.593532 1_565
Yb1 Yb2 3.935138 1_555
Yb2 Yb3 3.593532 1_455
Yb2 Yb3 3.593532 1_454
Yb2 Yb4 3.593532 1_565
Yb2 Yb4 3.593532 1_564
Yb3 Yb5 3.517276 1_565
Yb3 Yb4 3.517277 1_665
Yb3 Yb5 3.935138 1_555
Yb3 Yb4 3.935138 1_555
Yb4 Yb5 3.517276 1_455
Yb4 Yb5 3.935138 1_555
