# generated using pymatgen
data_Ba4Ga4SnSe12
_symmetry_space_group_name_H-M   'P 1'
_cell_length_a   13.99094800
_cell_length_b   13.99094800
_cell_length_c   6.56564900
_cell_angle_alpha   90.00000000
_cell_angle_beta   90.00000000
_cell_angle_gamma   90.00000000
_symmetry_Int_Tables_number   1
_chemical_formula_structural   Ba4Ga4SnSe12
_chemical_formula_sum   'Ba8 Ga8 Sn2 Se24'
_cell_volume   1285.20363885
_cell_formula_units_Z   2
loop_
 _symmetry_equiv_pos_site_id
 _symmetry_equiv_pos_as_xyz
  1  'x, y, z'
loop_
 _atom_site_type_symbol
 _atom_site_label
 _atom_site_symmetry_multiplicity
 _atom_site_fract_x
 _atom_site_fract_y
 _atom_site_fract_z
 _atom_site_occupancy
  Ba  Ba0  1  0.19391000  0.48063300  0.54609900  1
  Ba  Ba1  1  0.69391000  0.01936700  0.95390100  1
  Ba  Ba2  1  0.80609000  0.51936700  0.54609900  1
  Ba  Ba3  1  0.30609000  0.98063300  0.95390100  1
  Ba  Ba4  1  0.51936700  0.19391000  0.45390100  1
  Ba  Ba5  1  0.98063300  0.69391000  0.04609900  1
  Ba  Ba6  1  0.48063300  0.80609000  0.45390100  1
  Ba  Ba7  1  0.01936700  0.30609000  0.04609900  1
  Ga  Ga0  1  0.14198500  0.75485400  0.55010300  1
  Ga  Ga1  1  0.64198500  0.74514600  0.94989700  1
  Ga  Ga2  1  0.85801500  0.24514600  0.55010300  1
  Ga  Ga3  1  0.35801500  0.25485400  0.94989700  1
  Ga  Ga4  1  0.24514600  0.14198500  0.44989700  1
  Ga  Ga5  1  0.25485400  0.64198500  0.05010300  1
  Ga  Ga6  1  0.75485400  0.85801500  0.44989700  1
  Ga  Ga7  1  0.74514600  0.35801500  0.05010300  1
  Sn  Sn0  1  0.50000000  0.50000000  0.00000000  1
  Sn  Sn1  1  0.00000000  0.00000000  0.50000000  1
  Se  Se0  1  0.40705600  0.39414500  0.74624400  1
  Se  Se1  1  0.90705600  0.10585500  0.75375600  1
  Se  Se2  1  0.59294400  0.60585500  0.74624400  1
  Se  Se3  1  0.09294400  0.89414500  0.75375600  1
  Se  Se4  1  0.60585500  0.40705600  0.25375600  1
  Se  Se5  1  0.89414500  0.90705600  0.24624400  1
  Se  Se6  1  0.39414500  0.59294400  0.25375600  1
  Se  Se7  1  0.10585500  0.09294400  0.24624400  1
  Se  Se8  1  0.29149400  0.69615200  0.70427500  1
  Se  Se9  1  0.79149400  0.80384800  0.79572500  1
  Se  Se10  1  0.70850600  0.30384800  0.70427500  1
  Se  Se11  1  0.20850600  0.19615200  0.79572500  1
  Se  Se12  1  0.30384800  0.29149400  0.29572500  1
  Se  Se13  1  0.19615200  0.79149400  0.20427500  1
  Se  Se14  1  0.69615200  0.70850600  0.29572500  1
  Se  Se15  1  0.80384800  0.20850600  0.20427500  1
  Se  Se16  1  0.98506000  0.35914600  0.54386200  1
  Se  Se17  1  0.48506000  0.14085400  0.95613800  1
  Se  Se18  1  0.01494000  0.64085400  0.54386200  1
  Se  Se19  1  0.51494000  0.85914600  0.95613800  1
  Se  Se20  1  0.64085400  0.98506000  0.45613800  1
  Se  Se21  1  0.85914600  0.48506000  0.04386200  1
  Se  Se22  1  0.35914600  0.01494000  0.45613800  1
  Se  Se23  1  0.14085400  0.51494000  0.04386200  1
loop_
_geom_bond_atom_site_label_1
_geom_bond_atom_site_label_2
_geom_bond_distance
_geom_bond_site_symmetry_2
Ba0 Se18 3.360803 1_555
Ba0 Se16 3.380443 1_455
Ba0 Se23 3.385576 1_556
Ba0 Se23 3.413940 1_555
Ba0 Se8 3.469105 1_555
Ba0 Se12 3.474294 1_555
Ba0 Se0 3.476210 1_555
Ba0 Se6 3.741865 1_555
Ba1 Se19 3.360803 1_545
Ba1 Se17 3.380443 1_555
Ba1 Se20 3.385576 1_545
Ba1 Se20 3.413940 1_546
Ba1 Se9 3.469105 1_545
Ba1 Se15 3.474294 1_556
Ba1 Se1 3.476210 1_555
Ba1 Se5 3.741865 1_546
Ba2 Se16 3.360803 1_555
Ba2 Se18 3.380443 1_655
Ba2 Se21 3.385576 1_556
Ba2 Se21 3.413940 1_555
Ba2 Se10 3.469105 1_555
Ba2 Se14 3.474294 1_555
Ba2 Se2 3.476210 1_555
Ba2 Se4 3.741865 1_555
Ba3 Se17 3.360803 1_565
Ba3 Se19 3.380443 1_555
Ba3 Se22 3.385576 1_565
Ba3 Se22 3.413940 1_566
Ba3 Se11 3.469105 1_565
Ba3 Se13 3.474294 1_556
Ba3 Se3 3.476210 1_555
Ba3 Se7 3.741865 1_566
Ba4 Se22 3.360803 1_555
Ba4 Se20 3.380443 1_545
Ba4 Se17 3.385576 1_554
Ba4 Se17 3.413940 1_555
Ba4 Se12 3.469105 1_555
Ba4 Se10 3.474294 1_555
Ba4 Se4 3.476210 1_555
Ba4 Se0 3.741865 1_555
Ba5 Se23 3.360803 1_655
Ba5 Se21 3.380443 1_555
Ba5 Se18 3.385576 1_655
Ba5 Se18 3.413940 1_654
Ba5 Se13 3.469105 1_655
Ba5 Se9 3.474294 1_554
Ba5 Se5 3.476210 1_555
Ba5 Se3 3.741865 1_654
Ba6 Se20 3.360803 1_555
Ba6 Se22 3.380443 1_565
Ba6 Se19 3.385576 1_554
Ba6 Se19 3.413940 1_555
Ba6 Se14 3.469105 1_555
Ba6 Se8 3.474294 1_555
Ba6 Se6 3.476210 1_555
Ba6 Se2 3.741865 1_555
Ba7 Se21 3.360803 1_455
Ba7 Se23 3.380443 1_555
Ba7 Se16 3.385576 1_455
Ba7 Se16 3.413940 1_454
Ba7 Se15 3.469105 1_455
Ba7 Se11 3.474294 1_554
Ba7 Se7 3.476210 1_555
Ba7 Se1 3.741865 1_454
Ga0 Se18 2.388522 1_555
Ga0 Se13 2.447995 1_555
Ga0 Se3 2.461000 1_555
Ga0 Se8 2.464684 1_555
Ga1 Se19 2.388522 1_555
Ga1 Se14 2.447995 1_556
Ga1 Se2 2.461000 1_555
Ga1 Se9 2.464684 1_555
Ga2 Se16 2.388522 1_555
Ga2 Se15 2.447995 1_555
Ga2 Se1 2.461000 1_555
Ga2 Se10 2.464684 1_555
Ga3 Se17 2.388522 1_555
Ga3 Se12 2.447995 1_556
Ga3 Se0 2.461000 1_555
Ga3 Se11 2.464684 1_555
Ga4 Se22 2.388522 1_555
Ga4 Se11 2.447995 1_555
Ga4 Se7 2.461000 1_555
Ga4 Se12 2.464684 1_555
Ga5 Se23 2.388522 1_555
Ga5 Se8 2.447995 1_554
Ga5 Se6 2.461000 1_555
Ga5 Se13 2.464684 1_555
Ga6 Se20 2.388522 1_555
Ga6 Se9 2.447995 1_555
Ga6 Se5 2.461000 1_555
Ga6 Se14 2.464684 1_555
Ga7 Se21 2.388522 1_555
Ga7 Se10 2.447995 1_554
Ga7 Se4 2.461000 1_555
Ga7 Se15 2.464684 1_555
Se0 Sn0 2.580730 1_556
Se1 Sn1 2.580730 1_655
Se2 Sn0 2.580730 1_556
Se3 Sn1 2.580730 1_565
Se4 Sn0 2.580730 1_555
Se5 Sn1 2.580730 1_665
Se6 Sn0 2.580730 1_555
Se7 Sn1 2.580730 1_555
