# generated using pymatgen
data_LiEu2Ga7
_symmetry_space_group_name_H-M   'P 1'
_cell_length_a   4.28340375
_cell_length_b   4.28342180
_cell_length_c   10.86394614
_cell_angle_alpha   90.00000000
_cell_angle_beta   90.00000000
_cell_angle_gamma   90.00000000
_symmetry_Int_Tables_number   1
_chemical_formula_structural   LiEu2Ga7
_chemical_formula_sum   'Li1 Eu2 Ga7'
_cell_volume   199.32760981
_cell_formula_units_Z   1
loop_
 _symmetry_equiv_pos_site_id
 _symmetry_equiv_pos_as_xyz
  1  'x, y, z'
loop_
 _atom_site_type_symbol
 _atom_site_label
 _atom_site_symmetry_multiplicity
 _atom_site_fract_x
 _atom_site_fract_y
 _atom_site_fract_z
 _atom_site_occupancy
  Li  Li0  1  0.00000000  0.00000000  -0.00007247  1
  Eu  Eu0  1  0.50000000  0.00000000  0.74512974  1
  Eu  Eu1  1  0.00000000  0.50000000  0.25487001  1
  Ga  Ga0  1  0.00000000  0.50000000  0.86648546  1
  Ga  Ga1  1  0.50000000  0.00000000  0.36254368  1
  Ga  Ga2  1  0.50000000  0.00000000  0.13345846  1
  Ga  Ga3  1  0.00000000  0.50000000  0.63749964  1
  Ga  Ga4  1  0.50000000  0.50000000  0.50006966  1
  Ga  Ga5  1  0.50000000  0.50000000  -0.00005110  1
  Ga  Ga6  1  0.00000000  0.00000000  0.50006692  1
loop_
_geom_bond_atom_site_label_1
_geom_bond_atom_site_label_2
_geom_bond_distance
_geom_bond_site_symmetry_2
Eu0 Ga3 3.246698 1_655
Eu0 Ga3 3.246698 1_555
Eu0 Ga3 3.246698 1_545
Eu0 Ga3 3.246698 1_645
Eu0 Ga0 3.303331 1_655
Eu0 Ga0 3.303331 1_555
Eu0 Ga0 3.303331 1_545
Eu0 Ga0 3.303331 1_645
Eu0 Ga4 3.416851 1_555
Eu0 Ga4 3.416851 1_545
Eu0 Ga6 3.416869 1_555
Eu0 Ga6 3.416869 1_655
Eu0 Li0 3.499902 1_656
Eu0 Li0 3.499902 1_556
Eu0 Ga5 3.500092 1_556
Eu0 Ga5 3.500092 1_546
Eu1 Ga1 3.246868 1_565
Eu1 Ga1 3.246868 1_555
Eu1 Ga1 3.246868 1_465
Eu1 Ga1 3.246868 1_455
Eu1 Ga2 3.303573 1_565
Eu1 Ga2 3.303573 1_555
Eu1 Ga2 3.303573 1_455
Eu1 Ga2 3.303573 1_465
Eu1 Ga6 3.418009 1_565
Eu1 Ga6 3.418009 1_555
Eu1 Ga4 3.418027 1_555
Eu1 Ga4 3.418027 1_455
Eu1 Ga5 3.500962 1_555
Eu1 Ga5 3.500962 1_455
Eu1 Li0 3.501151 1_555
Eu1 Li0 3.501151 1_565
Ga0 Ga3 2.487690 1_555
Ga0 Li0 2.586228 1_566
Ga0 Li0 2.586228 1_556
Ga0 Ga5 2.586351 1_556
Ga0 Ga5 2.586351 1_456
Ga1 Ga2 2.488769 1_555
Ga1 Ga6 2.611333 1_655
Ga1 Ga6 2.611333 1_555
Ga1 Ga4 2.611357 1_555
Ga1 Ga4 2.611357 1_545
Ga2 Ga5 2.586639 1_555
Ga2 Ga5 2.586639 1_545
Ga2 Li0 2.586762 1_555
Ga2 Li0 2.586762 1_655
Ga3 Ga4 2.610753 1_455
Ga3 Ga4 2.610753 1_555
Ga3 Ga6 2.610777 1_555
Ga3 Ga6 2.610777 1_565
