# generated using pymatgen
data_Mg14ZnSiO16
_symmetry_space_group_name_H-M   'P 1'
_cell_length_a   8.60847395
_cell_length_b   8.57392244
_cell_length_c   4.29871523
_cell_angle_alpha   90.00000000
_cell_angle_beta   90.00000000
_cell_angle_gamma   90.00000000
_symmetry_Int_Tables_number   1
_chemical_formula_structural   Mg14ZnSiO16
_chemical_formula_sum   'Mg14 Zn1 Si1 O16'
_cell_volume   317.28124149
_cell_formula_units_Z   1
loop_
 _symmetry_equiv_pos_site_id
 _symmetry_equiv_pos_as_xyz
  1  'x, y, z'
loop_
 _atom_site_type_symbol
 _atom_site_label
 _atom_site_symmetry_multiplicity
 _atom_site_fract_x
 _atom_site_fract_y
 _atom_site_fract_z
 _atom_site_occupancy
  Mg  Mg0  1  0.50000000  -0.00000000  0.00000000  1
  Mg  Mg1  1  0.50000000  0.50000000  0.00000000  1
  Mg  Mg2  1  0.00000000  0.24676058  0.50000000  1
  Mg  Mg3  1  0.00000000  0.75323942  0.50000000  1
  Mg  Mg4  1  0.50000000  0.24965579  0.50000000  1
  Mg  Mg5  1  0.50000000  0.75034421  0.50000000  1
  Mg  Mg6  1  0.24991259  -0.00000000  0.50000000  1
  Mg  Mg7  1  0.25298593  0.50000000  0.50000000  1
  Mg  Mg8  1  0.75008741  -0.00000000  0.50000000  1
  Mg  Mg9  1  0.74701407  0.50000000  0.50000000  1
  Mg  Mg10  1  0.25158164  0.24834723  0.00000000  1
  Mg  Mg11  1  0.25158164  0.75165277  0.00000000  1
  Mg  Mg12  1  0.74841836  0.24834723  0.00000000  1
  Mg  Mg13  1  0.74841836  0.75165277  -0.00000000  1
  Zn  Zn0  1  0.00000000  -0.00000000  0.00000000  1
  Si  Si0  1  0.00000000  0.50000000  0.00000000  1
  O  O0  1  0.25642997  -0.00000000  0.00000000  1
  O  O1  1  0.26124089  0.50000000  0.00000000  1
  O  O2  1  0.74357003  -0.00000000  -0.00000000  1
  O  O3  1  0.73875911  0.50000000  0.00000000  1
  O  O4  1  0.24835915  0.25044616  0.50000000  1
  O  O5  1  0.24835915  0.74955384  0.50000000  1
  O  O6  1  0.75164085  0.25044616  0.50000000  1
  O  O7  1  0.75164085  0.74955384  0.50000000  1
  O  O8  1  0.00000000  -0.00000000  0.50000000  1
  O  O9  1  0.00000000  0.50000000  0.50000000  1
  O  O10  1  0.50000000  -0.00000000  0.50000000  1
  O  O11  1  0.50000000  0.50000000  0.50000000  1
  O  O12  1  0.00000000  0.24310130  0.00000000  1
  O  O13  1  0.00000000  0.75689870  0.00000000  1
  O  O14  1  0.50000000  0.24906234  0.00000000  1
  O  O15  1  0.50000000  0.75093766  0.00000000  1
loop_
_geom_bond_atom_site_label_1
_geom_bond_atom_site_label_2
_geom_bond_distance
_geom_bond_site_symmetry_2
Mg0 O0 2.096766 1_555
Mg0 O2 2.096766 1_555
Mg0 O14 2.135441 1_555
Mg0 O15 2.135441 1_545
Mg0 O10 2.149358 1_555
Mg0 O10 2.149358 1_554
Mg1 O1 2.055352 1_555
Mg1 O3 2.055352 1_555
Mg1 O11 2.149358 1_554
Mg1 O11 2.149358 1_555
Mg1 O15 2.151520 1_555
Mg1 O14 2.151520 1_555
Mg2 O8 2.115706 1_555
Mg2 O6 2.138227 1_455
Mg2 O4 2.138227 1_555
Mg2 O12 2.149587 1_556
Mg2 O12 2.149587 1_555
Mg2 O9 2.171255 1_555
Mg3 O8 2.115706 1_565
Mg3 O7 2.138227 1_455
Mg3 O5 2.138227 1_555
Mg3 O13 2.149587 1_555
Mg3 O13 2.149587 1_556
Mg3 O9 2.171255 1_555
Mg4 O10 2.140529 1_555
Mg4 O11 2.146432 1_555
Mg4 O14 2.149364 1_556
Mg4 O14 2.149364 1_555
Mg4 O4 2.166254 1_555
Mg4 O6 2.166254 1_555
Mg5 O10 2.140529 1_565
Mg5 O11 2.146432 1_555
Mg5 O15 2.149364 1_556
Mg5 O15 2.149364 1_555
Mg5 O7 2.166254 1_555
Mg5 O5 2.166254 1_555
Mg6 O5 2.147348 1_545
Mg6 O4 2.147348 1_555
Mg6 O0 2.150090 1_555
Mg6 O0 2.150090 1_556
Mg6 O8 2.151366 1_555
Mg6 O10 2.152871 1_555
Mg7 O11 2.126414 1_555
Mg7 O5 2.140026 1_555
Mg7 O4 2.140026 1_555
Mg7 O1 2.150532 1_555
Mg7 O1 2.150532 1_556
Mg7 O9 2.177823 1_555
Mg8 O6 2.147348 1_555
Mg8 O7 2.147348 1_545
Mg8 O2 2.150090 1_555
Mg8 O2 2.150090 1_556
Mg8 O8 2.151366 1_655
Mg8 O10 2.152871 1_555
Mg9 O11 2.126414 1_555
Mg9 O6 2.140026 1_555
Mg9 O7 2.140026 1_555
Mg9 O3 2.150532 1_556
Mg9 O3 2.150532 1_555
Mg9 O9 2.177823 1_655
Mg10 O0 2.129719 1_555
Mg10 O14 2.138512 1_555
Mg10 O4 2.149612 1_554
Mg10 O4 2.149612 1_555
Mg10 O1 2.159253 1_555
Mg10 O12 2.166201 1_555
Mg11 O0 2.129719 1_565
Mg11 O15 2.138512 1_555
Mg11 O5 2.149612 1_554
Mg11 O5 2.149612 1_555
Mg11 O1 2.159253 1_555
Mg11 O13 2.166201 1_555
Mg12 O2 2.129719 1_555
Mg12 O14 2.138512 1_555
Mg12 O6 2.149612 1_555
Mg12 O6 2.149612 1_554
Mg12 O3 2.159253 1_555
Mg12 O12 2.166201 1_655
Mg13 O2 2.129719 1_565
Mg13 O15 2.138512 1_555
Mg13 O7 2.149612 1_554
Mg13 O7 2.149612 1_555
Mg13 O3 2.159253 1_555
Mg13 O13 2.166201 1_655
O0 Zn0 2.207471 1_555
O1 Si0 2.248885 1_555
O2 Zn0 2.207471 1_655
O3 Si0 2.248885 1_655
O8 Zn0 2.149358 1_556
O8 Zn0 2.149358 1_555
O9 Si0 2.149358 1_556
O9 Si0 2.149358 1_555
O12 Zn0 2.084332 1_555
O12 Si0 2.202630 1_555
O13 Zn0 2.084332 1_565
O13 Si0 2.202630 1_555
