# generated using pymatgen
data_NaMg14B
_symmetry_space_group_name_H-M   'P 1'
_cell_length_a   6.27698897
_cell_length_b   6.27698848
_cell_length_c   10.38529669
_cell_angle_alpha   90.00000000
_cell_angle_beta   90.00000000
_cell_angle_gamma   120.00000263
_symmetry_Int_Tables_number   1
_chemical_formula_structural   NaMg14B
_chemical_formula_sum   'Na1 Mg14 B1'
_cell_volume   354.36614612
_cell_formula_units_Z   1
loop_
 _symmetry_equiv_pos_site_id
 _symmetry_equiv_pos_as_xyz
  1  'x, y, z'
loop_
 _atom_site_type_symbol
 _atom_site_label
 _atom_site_symmetry_multiplicity
 _atom_site_fract_x
 _atom_site_fract_y
 _atom_site_fract_z
 _atom_site_occupancy
  Na  Na0  1  0.16666700  0.33333300  0.12500000  1
  Mg  Mg0  1  0.17213573  0.83606737  0.12500000  1
  Mg  Mg1  1  0.16023859  0.83011879  0.62500000  1
  Mg  Mg2  1  0.66393263  0.32786427  0.12500000  1
  Mg  Mg3  1  0.66988121  0.33976141  0.62500000  1
  Mg  Mg4  1  0.66393263  0.83606737  0.12500000  1
  Mg  Mg5  1  0.66988121  0.83011879  0.62500000  1
  Mg  Mg6  1  0.32875765  0.17124235  0.39313891  1
  Mg  Mg7  1  0.32875765  0.17124235  0.85686109  1
  Mg  Mg8  1  0.32875765  0.65751630  0.39313891  1
  Mg  Mg9  1  0.32875765  0.65751630  0.85686109  1
  Mg  Mg10  1  0.84248370  0.17124235  0.39313891  1
  Mg  Mg11  1  0.84248370  0.17124235  0.85686109  1
  Mg  Mg12  1  0.83333300  0.66666700  0.36923461  1
  Mg  Mg13  1  0.83333300  0.66666700  0.88076539  1
  B  B0  1  0.16666700  0.33333300  0.62500000  1
loop_
_geom_bond_atom_site_label_1
_geom_bond_atom_site_label_2
_geom_bond_distance
_geom_bond_site_symmetry_2
Mg0 Mg2 3.087003 1_565
Mg0 Mg4 3.087004 1_555
Mg0 Mg13 3.134579 1_454
Mg0 Mg12 3.134579 1_455
Mg0 Na0 3.138635 1_565
Mg0 Na0 3.138635 1_555
Mg0 Mg2 3.189985 1_455
Mg0 Mg4 3.189985 1_455
Mg0 Mg9 3.328517 1_554
Mg0 Mg8 3.328517 1_555
Mg0 Mg7 3.328523 1_564
Mg0 Mg6 3.328523 1_565
Mg1 Mg9 3.039239 1_555
Mg1 Mg8 3.039239 1_555
Mg1 Mg6 3.039246 1_565
Mg1 Mg7 3.039246 1_565
Mg1 Mg13 3.195836 1_455
Mg1 Mg12 3.195836 1_455
Mg2 Mg4 3.087003 1_545
Mg2 Na0 3.138635 1_555
Mg2 Na0 3.138635 1_655
Mg2 Mg4 3.189985 1_555
Mg2 Mg7 3.328523 1_554
Mg2 Mg6 3.328523 1_555
Mg3 Mg6 3.039246 1_555
Mg3 Mg7 3.039246 1_555
Mg4 Na0 3.138635 1_555
Mg4 Na0 3.138635 1_665
Mg4 Mg9 3.328523 1_554
Mg4 Mg8 3.328523 1_555
Mg5 Mg8 3.039246 1_555
Mg5 Mg9 3.039246 1_555
Mg6 Mg8 3.052336 1_555
Mg6 Mg8 3.224652 1_545
Mg6 Na0 3.295470 1_555
Mg7 Mg9 3.052336 1_555
Mg7 Mg9 3.224652 1_545
Mg7 Na0 3.295470 1_556
Mg8 Na0 3.295476 1_555
Mg9 Na0 3.295476 1_556
Mg10 Mg3 3.039239 1_555
Mg10 Mg5 3.039246 1_545
Mg10 Mg8 3.052336 1_655
Mg10 Mg6 3.052336 1_655
Mg10 Mg12 3.148690 1_545
Mg10 Mg12 3.148690 1_555
Mg10 Mg8 3.224652 1_545
Mg10 Mg6 3.224653 1_555
Mg10 Na0 3.295476 1_655
Mg10 Mg2 3.328517 1_555
Mg10 Mg4 3.328523 1_545
Mg11 Mg3 3.039239 1_555
Mg11 Mg5 3.039246 1_545
Mg11 Mg9 3.052336 1_655
Mg11 Mg7 3.052336 1_655
Mg11 Mg13 3.148690 1_545
Mg11 Mg13 3.148690 1_555
Mg11 Mg9 3.224652 1_545
Mg11 Mg7 3.224653 1_555
Mg11 Na0 3.295476 1_656
Mg11 Mg2 3.328517 1_556
Mg11 Mg4 3.328523 1_546
Mg12 Mg4 3.134573 1_555
Mg12 Mg2 3.134579 1_555
Mg12 Mg6 3.148690 1_665
Mg12 Mg6 3.148690 1_555
Mg12 Mg8 3.148690 1_555
Mg12 Mg8 3.148690 1_655
Mg12 Mg5 3.195830 1_555
Mg12 Mg3 3.195836 1_555
Mg13 Mg4 3.134573 1_556
Mg13 Mg2 3.134579 1_556
Mg13 Mg7 3.148690 1_665
Mg13 Mg7 3.148690 1_555
Mg13 Mg9 3.148690 1_555
Mg13 Mg9 3.148690 1_655
Mg13 Mg5 3.195830 1_555
Mg13 Mg3 3.195836 1_555
B0 Mg7 2.983918 1_555
B0 Mg6 2.983918 1_555
B0 Mg9 2.983924 1_555
B0 Mg8 2.983924 1_555
B0 Mg11 2.983924 1_455
B0 Mg10 2.983924 1_455
