# generated using pymatgen
data_Na2Mn3Te4
_symmetry_space_group_name_H-M   'P 1'
_cell_length_a   8.88929811
_cell_length_b   8.88929811
_cell_length_c   7.96310250
_cell_angle_alpha   64.04143326
_cell_angle_beta   64.04143326
_cell_angle_gamma   29.35599561
_symmetry_Int_Tables_number   1
_chemical_formula_structural   Na2Mn3Te4
_chemical_formula_sum   'Na2 Mn3 Te4'
_cell_volume   275.08963389
_cell_formula_units_Z   1
loop_
 _symmetry_equiv_pos_site_id
 _symmetry_equiv_pos_as_xyz
  1  'x, y, z'
loop_
 _atom_site_type_symbol
 _atom_site_label
 _atom_site_symmetry_multiplicity
 _atom_site_fract_x
 _atom_site_fract_y
 _atom_site_fract_z
 _atom_site_occupancy
  Na  Na0  1  0.23692900  0.23692900  0.76416500  1
  Na  Na1  1  0.74088500  0.74088500  0.25442200  1
  Mn  Mn0  1  0.57301900  0.57301900  0.77228400  1
  Mn  Mn1  1  0.93798500  0.93798500  0.71138700  1
  Mn  Mn2  1  0.44922000  0.44922000  0.23432400  1
  Te  Te0  1  0.87367500  0.87367500  0.45442200  1
  Te  Te1  1  0.38492800  0.38492800  0.95022700  1
  Te  Te2  1  0.11615100  0.11615100  0.54376300  1
  Te  Te3  1  0.62241800  0.62241800  0.04400500  1
loop_
_geom_bond_atom_site_label_1
_geom_bond_atom_site_label_2
_geom_bond_distance
_geom_bond_site_symmetry_2
Na0 Te3 3.153751 1_456
Na0 Te3 3.153751 1_546
Na0 Te2 3.270205 1_555
Na0 Te0 3.382097 1_545
Na0 Te0 3.382097 1_455
Na0 Te1 3.476624 1_555
Na1 Te3 3.169888 1_555
Na1 Te2 3.242074 1_655
Na1 Te2 3.242074 1_565
Na1 Te0 3.323196 1_555
Na1 Te1 3.412851 1_564
Na1 Te1 3.412851 1_654
Mn0 Te3 2.658415 1_556
Mn0 Te2 2.777324 1_565
Mn0 Te2 2.777324 1_655
Mn0 Te1 2.885134 1_555
Mn1 Te0 2.731031 1_555
Mn1 Te2 2.733025 1_665
Mn1 Te1 2.820064 1_565
Mn1 Te1 2.820064 1_655
Mn2 Te3 2.661629 1_555
Mn2 Te0 2.787929 1_545
Mn2 Te0 2.787929 1_455
Mn2 Te1 2.933317 1_554
