# generated using pymatgen
data_RbMg6C
_symmetry_space_group_name_H-M   'P 1'
_cell_length_a   17.18908257
_cell_length_b   17.18908257
_cell_length_c   6.71751800
_cell_angle_alpha   90.00000000
_cell_angle_beta   90.00000000
_cell_angle_gamma   121.26551474
_symmetry_Int_Tables_number   1
_chemical_formula_structural   RbMg6C
_chemical_formula_sum   'Rb8 Mg48 C8'
_cell_volume   1696.54037147
_cell_formula_units_Z   8
loop_
 _symmetry_equiv_pos_site_id
 _symmetry_equiv_pos_as_xyz
  1  'x, y, z'
loop_
 _atom_site_type_symbol
 _atom_site_label
 _atom_site_symmetry_multiplicity
 _atom_site_fract_x
 _atom_site_fract_y
 _atom_site_fract_z
 _atom_site_occupancy
  Rb  Rb0_0  1  0.39921250  0.10078750  0.25000000  1
  Rb  Rb0_1  1  0.39921250  0.10078750  0.75000000  1
  Rb  Rb0_2  1  0.39921250  0.60078750  0.25000000  1
  Rb  Rb0_3  1  0.39921250  0.60078750  0.75000000  1
  Rb  Rb0_4  1  0.89921250  0.10078750  0.25000000  1
  Rb  Rb0_5  1  0.89921250  0.10078750  0.75000000  1
  Rb  Rb0_6  1  0.89921250  0.60078750  0.25000000  1
  Rb  Rb0_7  1  0.89921250  0.60078750  0.75000000  1
  Mg  Mg0_0  1  0.12562550  0.06672700  0.25000000  1
  Mg  Mg0_1  1  0.12562550  0.06672700  0.75000000  1
  Mg  Mg0_2  1  0.12562550  0.56672700  0.25000000  1
  Mg  Mg0_3  1  0.12562550  0.56672700  0.75000000  1
  Mg  Mg0_4  1  0.62562550  0.06672700  0.25000000  1
  Mg  Mg0_5  1  0.62562550  0.06672700  0.75000000  1
  Mg  Mg0_6  1  0.62562550  0.56672700  0.25000000  1
  Mg  Mg0_7  1  0.62562550  0.56672700  0.75000000  1
  Mg  Mg1_0  1  0.43327300  0.37437450  0.25000000  1
  Mg  Mg1_1  1  0.43327300  0.37437450  0.75000000  1
  Mg  Mg1_2  1  0.43327300  0.87437450  0.25000000  1
  Mg  Mg1_3  1  0.43327300  0.87437450  0.75000000  1
  Mg  Mg1_4  1  0.93327300  0.37437450  0.25000000  1
  Mg  Mg1_5  1  0.93327300  0.37437450  0.75000000  1
  Mg  Mg1_6  1  0.93327300  0.87437450  0.25000000  1
  Mg  Mg1_7  1  0.93327300  0.87437450  0.75000000  1
  Mg  Mg2_0  1  0.12785650  0.21780250  0.00000000  1
  Mg  Mg2_1  1  0.12785650  0.21780250  0.50000000  1
  Mg  Mg2_2  1  0.12785650  0.71780250  0.00000000  1
  Mg  Mg2_3  1  0.12785650  0.71780250  0.50000000  1
  Mg  Mg2_4  1  0.62785650  0.21780250  0.00000000  1
  Mg  Mg2_5  1  0.62785650  0.21780250  0.50000000  1
  Mg  Mg2_6  1  0.62785650  0.71780250  0.00000000  1
  Mg  Mg2_7  1  0.62785650  0.71780250  0.50000000  1
  Mg  Mg3_0  1  0.28219750  0.37214350  0.00000000  1
  Mg  Mg3_1  1  0.28219750  0.37214350  0.50000000  1
  Mg  Mg3_2  1  0.28219750  0.87214350  0.00000000  1
  Mg  Mg3_3  1  0.28219750  0.87214350  0.50000000  1
  Mg  Mg3_4  1  0.78219750  0.37214350  0.00000000  1
  Mg  Mg3_5  1  0.78219750  0.37214350  0.50000000  1
  Mg  Mg3_6  1  0.78219750  0.87214350  0.00000000  1
  Mg  Mg3_7  1  0.78219750  0.87214350  0.50000000  1
  Mg  Mg4_0  1  0.28740800  0.21259200  0.00000000  1
  Mg  Mg4_1  1  0.28740800  0.21259200  0.50000000  1
  Mg  Mg4_2  1  0.28740800  0.71259200  0.00000000  1
  Mg  Mg4_3  1  0.28740800  0.71259200  0.50000000  1
  Mg  Mg4_4  1  0.78740800  0.21259200  0.00000000  1
  Mg  Mg4_5  1  0.78740800  0.21259200  0.50000000  1
  Mg  Mg4_6  1  0.78740800  0.71259200  0.00000000  1
  Mg  Mg4_7  1  0.78740800  0.71259200  0.50000000  1
  Mg  Mg5_0  1  0.10525500  0.39474500  0.00000000  1
  Mg  Mg5_1  1  0.10525500  0.39474500  0.50000000  1
  Mg  Mg5_2  1  0.10525500  0.89474500  0.00000000  1
  Mg  Mg5_3  1  0.10525500  0.89474500  0.50000000  1
  Mg  Mg5_4  1  0.60525500  0.39474500  0.00000000  1
  Mg  Mg5_5  1  0.60525500  0.39474500  0.50000000  1
  Mg  Mg5_6  1  0.60525500  0.89474500  0.00000000  1
  Mg  Mg5_7  1  0.60525500  0.89474500  0.50000000  1
  C  C0_0  1  0.23917450  0.26082550  0.25000000  1
  C  C0_1  1  0.23917450  0.26082550  0.75000000  1
  C  C0_2  1  0.23917450  0.76082550  0.25000000  1
  C  C0_3  1  0.23917450  0.76082550  0.75000000  1
  C  C0_4  1  0.73917450  0.26082550  0.25000000  1
  C  C0_5  1  0.73917450  0.26082550  0.75000000  1
  C  C0_6  1  0.73917450  0.76082550  0.25000000  1
  C  C0_7  1  0.73917450  0.76082550  0.75000000  1
loop_
_geom_bond_atom_site_label_1
_geom_bond_atom_site_label_2
_geom_bond_distance
_geom_bond_site_symmetry_2
Rb0_0 Rb0_1 3.358759 1_554
Rb0_0 Rb0_1 3.358759 1_555
Rb0_2 Rb0_3 3.358759 1_554
Rb0_2 Rb0_3 3.358759 1_555
Rb0_4 Rb0_5 3.358759 1_554
Rb0_4 Rb0_5 3.358759 1_555
Rb0_6 Rb0_7 3.358759 1_554
Rb0_6 Rb0_7 3.358759 1_555
Mg0_0 Mg5_2 3.256939 1_545
Mg0_0 Mg5_3 3.256939 1_545
Mg0_1 Mg5_2 3.256939 1_546
Mg0_1 Mg5_3 3.256939 1_545
Mg0_2 Mg5_0 3.256939 1_555
Mg0_2 Mg5_1 3.256939 1_555
Mg0_3 Mg5_0 3.256939 1_556
Mg0_3 Mg5_1 3.256939 1_555
Mg0_4 Mg5_7 3.256939 1_545
Mg0_4 Mg5_6 3.256939 1_545
Mg0_5 Mg5_6 3.256939 1_546
Mg0_5 Mg5_7 3.256939 1_545
Mg0_6 Mg5_5 3.256939 1_555
Mg0_6 Mg5_4 3.256939 1_555
Mg0_7 Mg5_4 3.256939 1_556
Mg0_7 Mg5_5 3.256939 1_555
Mg1_0 Mg5_4 3.256939 1_555
Mg1_0 Mg5_5 3.256939 1_555
Mg1_1 Mg5_4 3.256939 1_556
Mg1_1 Mg5_5 3.256939 1_555
Mg1_2 Mg5_7 3.256939 1_555
Mg1_2 Mg5_6 3.256939 1_555
Mg1_3 Mg5_6 3.256939 1_556
Mg1_3 Mg5_7 3.256939 1_555
Mg1_4 Mg5_0 3.256939 1_655
Mg1_4 Mg5_1 3.256939 1_655
Mg1_5 Mg5_0 3.256939 1_656
Mg1_5 Mg5_1 3.256939 1_655
Mg1_6 Mg5_2 3.256939 1_655
Mg1_6 Mg5_3 3.256939 1_655
Mg1_7 Mg5_2 3.256939 1_656
Mg1_7 Mg5_3 3.256939 1_655
Mg2_0 Mg5_0 3.260069 1_555
Mg2_0 Rb0_4 3.755893 1_455
Mg2_0 Rb0_5 3.755893 1_454
Mg2_1 Mg5_1 3.260069 1_555
Mg2_1 Rb0_4 3.755893 1_455
Mg2_1 Rb0_5 3.755893 1_455
Mg2_2 Mg5_2 3.260069 1_555
Mg2_2 Rb0_7 3.755893 1_454
Mg2_2 Rb0_6 3.755893 1_455
Mg2_3 Mg5_3 3.260069 1_555
Mg2_3 Rb0_6 3.755893 1_455
Mg2_3 Rb0_7 3.755893 1_455
Mg2_4 Mg5_4 3.260069 1_555
Mg2_4 Rb0_0 3.755893 1_555
Mg2_4 Rb0_1 3.755893 1_554
Mg2_5 Mg5_5 3.260069 1_555
Mg2_5 Rb0_0 3.755893 1_555
Mg2_5 Rb0_1 3.755893 1_555
Mg2_6 Mg5_6 3.260069 1_555
Mg2_6 Rb0_3 3.755893 1_554
Mg2_6 Rb0_2 3.755893 1_555
Mg2_7 Mg5_7 3.260069 1_555
Mg2_7 Rb0_2 3.755893 1_555
Mg2_7 Rb0_3 3.755893 1_555
Mg3_0 Mg5_0 3.260069 1_555
Mg3_0 Rb0_3 3.755893 1_554
Mg3_0 Rb0_2 3.755893 1_555
Mg3_1 Mg5_1 3.260069 1_555
Mg3_1 Rb0_2 3.755893 1_555
Mg3_1 Rb0_3 3.755893 1_555
Mg3_2 Mg5_2 3.260069 1_555
Mg3_2 Rb0_1 3.755893 1_564
Mg3_2 Rb0_0 3.755893 1_565
Mg3_3 Mg5_3 3.260069 1_555
Mg3_3 Rb0_1 3.755893 1_565
Mg3_3 Rb0_0 3.755893 1_565
Mg3_4 Mg5_4 3.260069 1_555
Mg3_4 Rb0_7 3.755893 1_554
Mg3_4 Rb0_6 3.755893 1_555
Mg3_5 Mg5_5 3.260069 1_555
Mg3_5 Rb0_6 3.755893 1_555
Mg3_5 Rb0_7 3.755893 1_555
Mg3_6 Mg5_6 3.260069 1_555
Mg3_6 Rb0_5 3.755893 1_564
Mg3_6 Rb0_4 3.755893 1_565
Mg3_7 Mg5_7 3.260069 1_555
Mg3_7 Rb0_4 3.755893 1_565
Mg3_7 Rb0_5 3.755893 1_565
Mg4_0 Rb0_0 3.747111 1_555
Mg4_0 Rb0_1 3.747111 1_554
Mg4_1 Rb0_0 3.747111 1_555
Mg4_1 Rb0_1 3.747111 1_555
Mg4_2 Rb0_2 3.747111 1_555
Mg4_2 Rb0_3 3.747111 1_554
Mg4_3 Rb0_2 3.747111 1_555
Mg4_3 Rb0_3 3.747111 1_555
Mg4_4 Rb0_5 3.747111 1_554
Mg4_4 Rb0_4 3.747111 1_555
Mg4_5 Rb0_4 3.747111 1_555
Mg4_5 Rb0_5 3.747111 1_555
Mg4_6 Rb0_7 3.747111 1_554
Mg4_6 Rb0_6 3.747111 1_555
Mg4_7 Rb0_7 3.747111 1_555
Mg4_7 Rb0_6 3.747111 1_555
Mg5_0 Mg5_1 3.358759 1_554
Mg5_0 Mg5_1 3.358759 1_555
Mg5_2 Mg5_3 3.358759 1_555
Mg5_2 Mg5_3 3.358759 1_554
Mg5_4 Mg5_5 3.358759 1_555
Mg5_4 Mg5_5 3.358759 1_554
Mg5_6 Mg5_7 3.358759 1_554
Mg5_6 Mg5_7 3.358759 1_555
C0_0 Mg4_0 2.215539 1_555
C0_0 Mg4_1 2.215539 1_555
C0_0 Mg3_0 2.357899 1_555
C0_0 Mg3_1 2.357899 1_555
C0_0 Mg2_1 2.357899 1_555
C0_0 Mg2_0 2.357899 1_555
C0_1 Mg4_0 2.215539 1_556
C0_1 Mg4_1 2.215539 1_555
C0_1 Mg3_0 2.357899 1_556
C0_1 Mg3_1 2.357899 1_555
C0_1 Mg2_0 2.357899 1_556
C0_1 Mg2_1 2.357899 1_555
C0_2 Mg4_2 2.215539 1_555
C0_2 Mg4_3 2.215539 1_555
C0_2 Mg3_2 2.357899 1_555
C0_2 Mg3_3 2.357899 1_555
C0_2 Mg2_2 2.357899 1_555
C0_2 Mg2_3 2.357899 1_555
C0_3 Mg4_2 2.215539 1_556
C0_3 Mg4_3 2.215539 1_555
C0_3 Mg3_2 2.357899 1_556
C0_3 Mg3_3 2.357899 1_555
C0_3 Mg2_2 2.357899 1_556
C0_3 Mg2_3 2.357899 1_555
C0_4 Mg4_4 2.215539 1_555
C0_4 Mg4_5 2.215539 1_555
C0_4 Mg3_4 2.357899 1_555
C0_4 Mg3_5 2.357899 1_555
C0_4 Mg2_4 2.357899 1_555
C0_4 Mg2_5 2.357899 1_555
C0_5 Mg4_4 2.215539 1_556
C0_5 Mg4_5 2.215539 1_555
C0_5 Mg3_4 2.357899 1_556
C0_5 Mg3_5 2.357899 1_555
C0_5 Mg2_4 2.357899 1_556
C0_5 Mg2_5 2.357899 1_555
C0_6 Mg4_7 2.215539 1_555
C0_6 Mg4_6 2.215539 1_555
C0_6 Mg3_6 2.357899 1_555
C0_6 Mg3_7 2.357899 1_555
C0_6 Mg2_7 2.357899 1_555
C0_6 Mg2_6 2.357899 1_555
C0_7 Mg4_6 2.215539 1_556
C0_7 Mg4_7 2.215539 1_555
C0_7 Mg3_6 2.357899 1_556
C0_7 Mg3_7 2.357899 1_555
C0_7 Mg2_6 2.357899 1_556
C0_7 Mg2_7 2.357899 1_555
