# generated using pymatgen
data_KMg6SiO8
_symmetry_space_group_name_H-M   'P 1'
_cell_length_a   8.38264573
_cell_length_b   4.55164348
_cell_length_c   4.55164348
_cell_angle_alpha   90.00000000
_cell_angle_beta   90.00000000
_cell_angle_gamma   90.00000000
_symmetry_Int_Tables_number   1
_chemical_formula_structural   KMg6SiO8
_chemical_formula_sum   'K1 Mg6 Si1 O8'
_cell_volume   173.66711393
_cell_formula_units_Z   1
loop_
 _symmetry_equiv_pos_site_id
 _symmetry_equiv_pos_as_xyz
  1  'x, y, z'
loop_
 _atom_site_type_symbol
 _atom_site_label
 _atom_site_symmetry_multiplicity
 _atom_site_fract_x
 _atom_site_fract_y
 _atom_site_fract_z
 _atom_site_occupancy
  K  K0  1  0.00000000  0.00000000  -0.00000000  1
  Mg  Mg0  1  0.00000000  0.50000000  0.50000000  1
  Mg  Mg1  1  0.50000000  0.50000000  0.50000000  1
  Mg  Mg2  1  0.24648780  0.00000000  0.50000000  1
  Mg  Mg3  1  0.75351220  -0.00000000  0.50000000  1
  Mg  Mg4  1  0.24648780  0.50000000  -0.00000000  1
  Mg  Mg5  1  0.75351220  0.50000000  0.00000000  1
  Si  Si0  1  0.50000000  0.00000000  -0.00000000  1
  O  O0  1  0.29236742  0.00000000  -0.00000000  1
  O  O1  1  0.70763258  0.00000000  0.00000000  1
  O  O2  1  0.25221260  0.50000000  0.50000000  1
  O  O3  1  0.74778740  0.50000000  0.50000000  1
  O  O4  1  0.00000000  0.00000000  0.50000000  1
  O  O5  1  0.50000000  0.00000000  0.50000000  1
  O  O6  1  0.00000000  0.50000000  -0.00000000  1
  O  O7  1  0.50000000  0.50000000  -0.00000000  1
loop_
_geom_bond_atom_site_label_1
_geom_bond_atom_site_label_2
_geom_bond_distance
_geom_bond_site_symmetry_2
K0 O6 2.275822 1_555
K0 O4 2.275822 1_555
K0 O4 2.275822 1_554
K0 O6 2.275822 1_545
K0 O1 2.450813 1_455
K0 O0 2.450813 1_555
Mg0 O3 2.114209 1_455
Mg0 O2 2.114209 1_555
Mg0 O6 2.275822 1_556
Mg0 O6 2.275822 1_555
Mg0 O4 2.275822 1_555
Mg0 O4 2.275822 1_565
Mg1 O3 2.077114 1_555
Mg1 O2 2.077114 1_555
Mg1 O5 2.275822 1_555
Mg1 O5 2.275822 1_565
Mg1 O7 2.275822 1_555
Mg1 O7 2.275822 1_556
Mg2 O4 2.066220 1_555
Mg2 O5 2.125103 1_555
Mg2 O2 2.276328 1_555
Mg2 O2 2.276328 1_545
Mg2 O0 2.308089 1_555
Mg2 O0 2.308089 1_556
Mg3 O4 2.066220 1_655
Mg3 O5 2.125103 1_555
Mg3 O3 2.276328 1_545
Mg3 O3 2.276328 1_555
Mg3 O1 2.308089 1_555
Mg3 O1 2.308089 1_556
Mg4 O6 2.066220 1_555
Mg4 O7 2.125103 1_555
Mg4 O2 2.276328 1_555
Mg4 O2 2.276328 1_554
Mg4 O0 2.308089 1_565
Mg4 O0 2.308089 1_555
Mg5 O6 2.066220 1_655
Mg5 O7 2.125103 1_555
Mg5 O3 2.276328 1_555
Mg5 O3 2.276328 1_554
Mg5 O1 2.308089 1_555
Mg5 O1 2.308089 1_565
O0 Si0 1.740510 1_555
O1 Si0 1.740510 1_555
O5 Si0 2.275822 1_556
O5 Si0 2.275822 1_555
O7 Si0 2.275822 1_555
O7 Si0 2.275822 1_565
