# generated using pymatgen
data_LiMg2
_symmetry_space_group_name_H-M   'P 1'
_cell_length_a   6.31818736
_cell_length_b   6.31818736
_cell_length_c   29.94158274
_cell_angle_alpha   90.00000000
_cell_angle_beta   90.00000000
_cell_angle_gamma   119.99999627
_symmetry_Int_Tables_number   1
_chemical_formula_structural   LiMg2
_chemical_formula_sum   'Li16 Mg32'
_cell_volume   1035.11929265
_cell_formula_units_Z   16
loop_
 _symmetry_equiv_pos_site_id
 _symmetry_equiv_pos_as_xyz
  1  'x, y, z'
loop_
 _atom_site_type_symbol
 _atom_site_label
 _atom_site_symmetry_multiplicity
 _atom_site_fract_x
 _atom_site_fract_y
 _atom_site_fract_z
 _atom_site_occupancy
  Li  Li0_0  1  0.33333350  0.16666650  0.37500000  1
  Li  Li0_1  1  0.33333350  0.16666650  0.87500000  1
  Li  Li0_2  1  0.33333350  0.66666650  0.37500000  1
  Li  Li0_3  1  0.33333350  0.66666650  0.87500000  1
  Li  Li0_4  1  0.83333350  0.16666650  0.37500000  1
  Li  Li0_5  1  0.83333350  0.16666650  0.87500000  1
  Li  Li0_6  1  0.83333350  0.66666650  0.37500000  1
  Li  Li0_7  1  0.83333350  0.66666650  0.87500000  1
  Li  Li1_0  1  0.16666650  0.33333350  0.12500000  1
  Li  Li1_1  1  0.16666650  0.33333350  0.62500000  1
  Li  Li1_2  1  0.16666650  0.83333350  0.12500000  1
  Li  Li1_3  1  0.16666650  0.83333350  0.62500000  1
  Li  Li1_4  1  0.66666650  0.33333350  0.12500000  1
  Li  Li1_5  1  0.66666650  0.33333350  0.62500000  1
  Li  Li1_6  1  0.66666650  0.83333350  0.12500000  1
  Li  Li1_7  1  0.66666650  0.83333350  0.62500000  1
  Mg  Mg0_0  1  0.16666650  0.33333350  0.45701506  1
  Mg  Mg0_1  1  0.16666650  0.33333350  0.95701506  1
  Mg  Mg0_2  1  0.16666650  0.83333350  0.45701506  1
  Mg  Mg0_3  1  0.16666650  0.83333350  0.95701506  1
  Mg  Mg0_4  1  0.66666650  0.33333350  0.45701506  1
  Mg  Mg0_5  1  0.66666650  0.33333350  0.95701506  1
  Mg  Mg0_6  1  0.66666650  0.83333350  0.45701506  1
  Mg  Mg0_7  1  0.66666650  0.83333350  0.95701506  1
  Mg  Mg1_0  1  0.16666650  0.33333350  0.29298494  1
  Mg  Mg1_1  1  0.16666650  0.33333350  0.79298494  1
  Mg  Mg1_2  1  0.16666650  0.83333350  0.29298494  1
  Mg  Mg1_3  1  0.16666650  0.83333350  0.79298494  1
  Mg  Mg1_4  1  0.66666650  0.33333350  0.29298494  1
  Mg  Mg1_5  1  0.66666650  0.33333350  0.79298494  1
  Mg  Mg1_6  1  0.66666650  0.83333350  0.29298494  1
  Mg  Mg1_7  1  0.66666650  0.83333350  0.79298494  1
  Mg  Mg2_0  1  0.33333350  0.16666650  0.20701506  1
  Mg  Mg2_1  1  0.33333350  0.16666650  0.70701506  1
  Mg  Mg2_2  1  0.33333350  0.66666650  0.20701506  1
  Mg  Mg2_3  1  0.33333350  0.66666650  0.70701506  1
  Mg  Mg2_4  1  0.83333350  0.16666650  0.20701506  1
  Mg  Mg2_5  1  0.83333350  0.16666650  0.70701506  1
  Mg  Mg2_6  1  0.83333350  0.66666650  0.20701506  1
  Mg  Mg2_7  1  0.83333350  0.66666650  0.70701506  1
  Mg  Mg3_0  1  0.33333350  0.16666650  0.04298494  1
  Mg  Mg3_1  1  0.33333350  0.16666650  0.54298494  1
  Mg  Mg3_2  1  0.33333350  0.66666650  0.04298494  1
  Mg  Mg3_3  1  0.33333350  0.66666650  0.54298494  1
  Mg  Mg3_4  1  0.83333350  0.16666650  0.04298494  1
  Mg  Mg3_5  1  0.83333350  0.16666650  0.54298494  1
  Mg  Mg3_6  1  0.83333350  0.66666650  0.04298494  1
  Mg  Mg3_7  1  0.83333350  0.66666650  0.54298494  1
loop_
_geom_bond_atom_site_label_1
_geom_bond_atom_site_label_2
_geom_bond_distance
_geom_bond_site_symmetry_2
Li0_0 Mg0_4 3.058903 1_555
Li0_0 Mg1_2 3.058903 1_545
Li0_0 Mg1_4 3.058903 1_555
Li0_0 Mg0_2 3.058903 1_545
Li0_0 Mg0_0 3.058906 1_555
Li0_0 Mg1_0 3.058906 1_555
Li0_0 Li0_2 3.159094 1_555
Li0_0 Li0_4 3.159094 1_455
Li0_0 Li0_2 3.159094 1_545
Li0_0 Li0_4 3.159094 1_555
Li0_0 Li0_6 3.159094 1_555
Li0_0 Li0_6 3.159094 1_445
Li0_1 Mg0_5 3.058903 1_555
Li0_1 Mg0_3 3.058903 1_545
Li0_1 Mg1_5 3.058903 1_555
Li0_1 Mg1_3 3.058903 1_545
Li0_1 Mg1_1 3.058906 1_555
Li0_1 Mg0_1 3.058906 1_555
Li0_1 Li0_3 3.159094 1_545
Li0_1 Li0_3 3.159094 1_555
Li0_1 Li0_5 3.159094 1_455
Li0_1 Li0_5 3.159094 1_555
Li0_1 Li0_7 3.159094 1_555
Li0_1 Li0_7 3.159094 1_445
Li0_2 Mg1_0 3.058903 1_555
Li0_2 Mg0_0 3.058903 1_555
Li0_2 Mg0_6 3.058903 1_555
Li0_2 Mg1_6 3.058903 1_555
Li0_2 Mg0_2 3.058906 1_555
Li0_2 Mg1_2 3.058906 1_555
Li0_2 Li0_6 3.159094 1_555
Li0_2 Li0_6 3.159094 1_455
Li0_2 Li0_4 3.159094 1_455
Li0_2 Li0_4 3.159094 1_565
Li0_3 Mg0_1 3.058903 1_555
Li0_3 Mg0_7 3.058903 1_555
Li0_3 Mg1_7 3.058903 1_555
Li0_3 Mg1_1 3.058903 1_555
Li0_3 Mg1_3 3.058906 1_555
Li0_3 Mg0_3 3.058906 1_555
Li0_3 Li0_7 3.159094 1_455
Li0_3 Li0_7 3.159094 1_555
Li0_3 Li0_5 3.159094 1_455
Li0_3 Li0_5 3.159094 1_565
Li0_4 Mg1_0 3.058903 1_655
Li0_4 Mg0_0 3.058903 1_655
Li0_4 Mg0_6 3.058903 1_545
Li0_4 Mg1_6 3.058903 1_545
Li0_4 Mg0_4 3.058906 1_555
Li0_4 Mg1_4 3.058906 1_555
Li0_4 Li0_6 3.159094 1_555
Li0_4 Li0_6 3.159094 1_545
Li0_5 Mg0_1 3.058903 1_655
Li0_5 Mg1_1 3.058903 1_655
Li0_5 Mg1_7 3.058903 1_545
Li0_5 Mg0_7 3.058903 1_545
Li0_5 Mg0_5 3.058906 1_555
Li0_5 Mg1_5 3.058906 1_555
Li0_5 Li0_7 3.159094 1_555
Li0_5 Li0_7 3.159094 1_545
Li0_6 Mg0_4 3.058903 1_555
Li0_6 Mg1_4 3.058903 1_555
Li0_6 Mg0_2 3.058903 1_655
Li0_6 Mg1_2 3.058903 1_655
Li0_6 Mg0_6 3.058906 1_555
Li0_6 Mg1_6 3.058906 1_555
Li0_7 Mg0_5 3.058903 1_555
Li0_7 Mg1_5 3.058903 1_555
Li0_7 Mg1_3 3.058903 1_655
Li0_7 Mg0_3 3.058903 1_655
Li0_7 Mg1_7 3.058906 1_555
Li0_7 Mg0_7 3.058906 1_555
Li1_0 Mg2_2 3.058903 1_555
Li1_0 Mg2_4 3.058903 1_455
Li1_0 Mg3_4 3.058903 1_455
Li1_0 Mg3_2 3.058903 1_555
Li1_0 Mg2_0 3.058906 1_555
Li1_0 Mg3_0 3.058906 1_555
Li1_0 Li1_2 3.159094 1_545
Li1_0 Li1_4 3.159094 1_555
Li1_0 Li1_4 3.159094 1_455
Li1_0 Li1_2 3.159094 1_555
Li1_0 Li1_6 3.159094 1_555
Li1_0 Li1_6 3.159094 1_445
Li1_1 Mg2_5 3.058903 1_455
Li1_1 Mg3_3 3.058903 1_555
Li1_1 Mg3_5 3.058903 1_455
Li1_1 Mg2_3 3.058903 1_555
Li1_1 Mg3_1 3.058906 1_555
Li1_1 Mg2_1 3.058906 1_555
Li1_1 Li1_3 3.159094 1_545
Li1_1 Li1_5 3.159094 1_455
Li1_1 Li1_5 3.159094 1_555
Li1_1 Li1_3 3.159094 1_555
Li1_1 Li1_7 3.159094 1_555
Li1_1 Li1_7 3.159094 1_445
Li1_2 Mg2_6 3.058903 1_455
Li1_2 Mg3_6 3.058903 1_455
Li1_2 Mg2_0 3.058903 1_565
Li1_2 Mg3_0 3.058903 1_565
Li1_2 Mg3_2 3.058906 1_555
Li1_2 Mg2_2 3.058906 1_555
Li1_2 Li1_6 3.159094 1_455
Li1_2 Li1_6 3.159094 1_555
Li1_2 Li1_4 3.159094 1_455
Li1_2 Li1_4 3.159094 1_565
Li1_3 Mg3_7 3.058903 1_455
Li1_3 Mg2_1 3.058903 1_565
Li1_3 Mg3_1 3.058903 1_565
Li1_3 Mg2_7 3.058903 1_455
Li1_3 Mg2_3 3.058906 1_555
Li1_3 Mg3_3 3.058906 1_555
Li1_3 Li1_7 3.159094 1_455
Li1_3 Li1_7 3.159094 1_555
Li1_3 Li1_5 3.159094 1_455
Li1_3 Li1_5 3.159094 1_565
Li1_4 Mg2_6 3.058903 1_555
Li1_4 Mg3_6 3.058903 1_555
Li1_4 Mg3_0 3.058903 1_555
Li1_4 Mg2_0 3.058903 1_555
Li1_4 Mg3_4 3.058906 1_555
Li1_4 Mg2_4 3.058906 1_555
Li1_4 Li1_6 3.159094 1_555
Li1_4 Li1_6 3.159094 1_545
Li1_5 Mg3_7 3.058903 1_555
Li1_5 Mg2_7 3.058903 1_555
Li1_5 Mg3_1 3.058903 1_555
Li1_5 Mg2_1 3.058903 1_555
Li1_5 Mg2_5 3.058906 1_555
Li1_5 Mg3_5 3.058906 1_555
Li1_5 Li1_7 3.159094 1_555
Li1_5 Li1_7 3.159094 1_545
Li1_6 Mg2_2 3.058903 1_555
Li1_6 Mg3_2 3.058903 1_555
Li1_6 Mg3_4 3.058903 1_565
Li1_6 Mg2_4 3.058903 1_565
Li1_6 Mg2_6 3.058906 1_555
Li1_6 Mg3_6 3.058906 1_555
Li1_7 Mg3_3 3.058903 1_555
Li1_7 Mg2_3 3.058903 1_555
Li1_7 Mg2_5 3.058903 1_565
Li1_7 Mg3_5 3.058903 1_565
Li1_7 Mg3_7 3.058906 1_555
Li1_7 Mg2_7 3.058906 1_555
Mg0_0 Mg3_3 3.154754 1_555
Mg0_0 Mg3_5 3.154754 1_455
Mg0_0 Mg3_1 3.154757 1_555
Mg0_0 Mg0_2 3.159094 1_545
Mg0_0 Mg0_4 3.159094 1_555
Mg0_0 Mg0_4 3.159094 1_455
Mg0_0 Mg0_2 3.159094 1_555
Mg0_0 Mg0_6 3.159094 1_555
Mg0_0 Mg0_6 3.159094 1_445
Mg0_1 Mg3_2 3.154754 1_556
Mg0_1 Mg3_4 3.154754 1_456
Mg0_1 Mg3_0 3.154757 1_556
Mg0_1 Mg0_3 3.159094 1_545
Mg0_1 Mg0_5 3.159094 1_555
Mg0_1 Mg0_5 3.159094 1_455
Mg0_1 Mg0_3 3.159094 1_555
Mg0_1 Mg0_7 3.159094 1_555
Mg0_1 Mg0_7 3.159094 1_445
Mg0_2 Mg3_1 3.154754 1_565
Mg0_2 Mg3_7 3.154754 1_455
Mg0_2 Mg3_3 3.154757 1_555
Mg0_2 Mg0_6 3.159094 1_455
Mg0_2 Mg0_6 3.159094 1_555
Mg0_2 Mg0_4 3.159094 1_455
Mg0_2 Mg0_4 3.159094 1_565
Mg0_3 Mg3_0 3.154754 1_566
Mg0_3 Mg3_6 3.154754 1_456
Mg0_3 Mg3_2 3.154757 1_556
Mg0_3 Mg0_7 3.159094 1_455
Mg0_3 Mg0_7 3.159094 1_555
Mg0_3 Mg0_5 3.159094 1_455
Mg0_3 Mg0_5 3.159094 1_565
Mg0_4 Mg3_7 3.154754 1_555
Mg0_4 Mg3_1 3.154754 1_555
Mg0_4 Mg3_5 3.154757 1_555
Mg0_4 Mg0_6 3.159094 1_555
Mg0_4 Mg0_6 3.159094 1_545
Mg0_5 Mg3_6 3.154754 1_556
Mg0_5 Mg3_0 3.154754 1_556
Mg0_5 Mg3_4 3.154757 1_556
Mg0_5 Mg0_7 3.159094 1_555
Mg0_5 Mg0_7 3.159094 1_545
Mg0_6 Mg3_3 3.154754 1_555
Mg0_6 Mg3_5 3.154754 1_565
Mg0_6 Mg3_7 3.154757 1_555
Mg0_7 Mg3_2 3.154754 1_556
Mg0_7 Mg3_4 3.154754 1_566
Mg0_7 Mg3_6 3.154757 1_556
Mg1_0 Mg2_2 3.154754 1_555
Mg1_0 Mg2_4 3.154754 1_455
Mg1_0 Mg2_0 3.154757 1_555
Mg1_0 Mg1_2 3.159094 1_545
Mg1_0 Mg1_4 3.159094 1_555
Mg1_0 Mg1_4 3.159094 1_455
Mg1_0 Mg1_2 3.159094 1_555
Mg1_0 Mg1_6 3.159094 1_555
Mg1_0 Mg1_6 3.159094 1_445
Mg1_1 Mg2_3 3.154754 1_555
Mg1_1 Mg2_5 3.154754 1_455
Mg1_1 Mg2_1 3.154757 1_555
Mg1_1 Mg1_3 3.159094 1_545
Mg1_1 Mg1_5 3.159094 1_455
Mg1_1 Mg1_5 3.159094 1_555
Mg1_1 Mg1_3 3.159094 1_555
Mg1_1 Mg1_7 3.159094 1_555
Mg1_1 Mg1_7 3.159094 1_445
Mg1_2 Mg2_0 3.154754 1_565
Mg1_2 Mg2_6 3.154754 1_455
Mg1_2 Mg2_2 3.154757 1_555
Mg1_2 Mg1_6 3.159094 1_455
Mg1_2 Mg1_6 3.159094 1_555
Mg1_2 Mg1_4 3.159094 1_455
Mg1_2 Mg1_4 3.159094 1_565
Mg1_3 Mg2_1 3.154754 1_565
Mg1_3 Mg2_7 3.154754 1_455
Mg1_3 Mg2_3 3.154757 1_555
Mg1_3 Mg1_7 3.159094 1_455
Mg1_3 Mg1_7 3.159094 1_555
Mg1_3 Mg1_5 3.159094 1_455
Mg1_3 Mg1_5 3.159094 1_565
Mg1_4 Mg2_6 3.154754 1_555
Mg1_4 Mg2_0 3.154754 1_555
Mg1_4 Mg2_4 3.154757 1_555
Mg1_4 Mg1_6 3.159094 1_555
Mg1_4 Mg1_6 3.159094 1_545
Mg1_5 Mg2_7 3.154754 1_555
Mg1_5 Mg2_1 3.154754 1_555
Mg1_5 Mg2_5 3.154757 1_555
Mg1_5 Mg1_7 3.159094 1_555
Mg1_5 Mg1_7 3.159094 1_545
Mg1_6 Mg2_2 3.154754 1_555
Mg1_6 Mg2_4 3.154754 1_565
Mg1_6 Mg2_6 3.154757 1_555
Mg1_7 Mg2_3 3.154754 1_555
Mg1_7 Mg2_5 3.154754 1_565
Mg1_7 Mg2_7 3.154757 1_555
Mg2_0 Mg2_2 3.159094 1_555
Mg2_0 Mg2_2 3.159094 1_545
Mg2_0 Mg2_4 3.159094 1_455
Mg2_0 Mg2_4 3.159094 1_555
Mg2_0 Mg2_6 3.159094 1_555
Mg2_0 Mg2_6 3.159094 1_445
Mg2_1 Mg2_5 3.159094 1_455
Mg2_1 Mg2_5 3.159094 1_555
Mg2_1 Mg2_3 3.159094 1_555
Mg2_1 Mg2_3 3.159094 1_545
Mg2_1 Mg2_7 3.159094 1_555
Mg2_1 Mg2_7 3.159094 1_445
Mg2_2 Mg2_6 3.159094 1_555
Mg2_2 Mg2_6 3.159094 1_455
Mg2_2 Mg2_4 3.159094 1_455
Mg2_2 Mg2_4 3.159094 1_565
Mg2_3 Mg2_7 3.159094 1_555
Mg2_3 Mg2_7 3.159094 1_455
Mg2_3 Mg2_5 3.159094 1_455
Mg2_3 Mg2_5 3.159094 1_565
Mg2_4 Mg2_6 3.159094 1_555
Mg2_4 Mg2_6 3.159094 1_545
Mg2_5 Mg2_7 3.159094 1_555
Mg2_5 Mg2_7 3.159094 1_545
Mg3_0 Mg3_4 3.159094 1_555
Mg3_0 Mg3_2 3.159094 1_555
Mg3_0 Mg3_4 3.159094 1_455
Mg3_0 Mg3_2 3.159094 1_545
Mg3_0 Mg3_6 3.159094 1_555
Mg3_0 Mg3_6 3.159094 1_445
Mg3_1 Mg3_3 3.159094 1_555
Mg3_1 Mg3_5 3.159094 1_455
Mg3_1 Mg3_3 3.159094 1_545
Mg3_1 Mg3_5 3.159094 1_555
Mg3_1 Mg3_7 3.159094 1_555
Mg3_1 Mg3_7 3.159094 1_445
Mg3_2 Mg3_6 3.159094 1_555
Mg3_2 Mg3_6 3.159094 1_455
Mg3_2 Mg3_4 3.159094 1_455
Mg3_2 Mg3_4 3.159094 1_565
Mg3_3 Mg3_7 3.159094 1_555
Mg3_3 Mg3_7 3.159094 1_455
Mg3_3 Mg3_5 3.159094 1_455
Mg3_3 Mg3_5 3.159094 1_565
Mg3_4 Mg3_6 3.159094 1_555
Mg3_4 Mg3_6 3.159094 1_545
Mg3_5 Mg3_7 3.159094 1_555
Mg3_5 Mg3_7 3.159094 1_545
