# generated using pymatgen
data_AlCr6Si
_symmetry_space_group_name_H-M   'P 1'
_cell_length_a   4.52166457
_cell_length_b   4.52166457
_cell_length_c   4.52166457
_cell_angle_alpha   90.00000000
_cell_angle_beta   90.00000000
_cell_angle_gamma   90.00000000
_symmetry_Int_Tables_number   1
_chemical_formula_structural   AlCr6Si
_chemical_formula_sum   'Al1 Cr6 Si1'
_cell_volume   92.44746907
_cell_formula_units_Z   1
loop_
 _symmetry_equiv_pos_site_id
 _symmetry_equiv_pos_as_xyz
  1  'x, y, z'
loop_
 _atom_site_type_symbol
 _atom_site_label
 _atom_site_symmetry_multiplicity
 _atom_site_fract_x
 _atom_site_fract_y
 _atom_site_fract_z
 _atom_site_occupancy
  Al  Al0  1  0.50000000  0.50000000  0.50000000  1
  Cr  Cr0  1  -0.00000000  0.50000000  0.75452006  1
  Cr  Cr1  1  0.50000000  0.24547994  -0.00000000  1
  Cr  Cr2  1  0.75452006  0.00000000  0.50000000  1
  Cr  Cr3  1  -0.00000000  0.50000000  0.24547994  1
  Cr  Cr4  1  0.50000000  0.75452006  -0.00000000  1
  Cr  Cr5  1  0.24547994  -0.00000000  0.50000000  1
  Si  Si0  1  -0.00000000  0.00000000  -0.00000000  1
loop_
_geom_bond_atom_site_label_1
_geom_bond_atom_site_label_2
_geom_bond_distance
_geom_bond_site_symmetry_2
Al0 Cr1 2.536893 1_556
Al0 Cr4 2.536893 1_556
Al0 Cr1 2.536893 1_555
Al0 Cr0 2.536893 1_655
Al0 Cr3 2.536893 1_655
Al0 Cr3 2.536893 1_555
Al0 Cr2 2.536893 1_555
Al0 Cr2 2.536893 1_565
Al0 Cr0 2.536893 1_555
Al0 Cr4 2.536893 1_555
Al0 Cr5 2.536893 1_555
Al0 Cr5 2.536893 1_565
Cr0 Cr3 2.219956 1_556
Cr0 Cr3 2.301709 1_555
Cr0 Si0 2.518613 1_556
Cr0 Si0 2.518613 1_566
Cr1 Cr4 2.219956 1_545
Cr1 Cr4 2.301709 1_555
Cr1 Si0 2.518613 1_555
Cr1 Si0 2.518613 1_655
Cr2 Cr5 2.219956 1_655
Cr2 Cr5 2.301709 1_555
Cr2 Si0 2.518613 1_656
Cr2 Si0 2.518613 1_655
Cr3 Si0 2.518613 1_565
Cr3 Si0 2.518613 1_555
Cr4 Si0 2.518613 1_565
Cr4 Si0 2.518613 1_665
Cr5 Si0 2.518613 1_555
Cr5 Si0 2.518613 1_556
