# generated using pymatgen
data_Lu2(GePt3)3
_symmetry_space_group_name_H-M   'P 1'
_cell_length_a   7.78946215
_cell_length_b   7.78946215
_cell_length_c   10.04422633
_cell_angle_alpha   67.17474733
_cell_angle_beta   67.17474733
_cell_angle_gamma   60.25753477
_symmetry_Int_Tables_number   1
_chemical_formula_structural   Lu2(GePt3)3
_chemical_formula_sum   'Lu4 Ge6 Pt18'
_cell_volume   472.94561289
_cell_formula_units_Z   2
loop_
 _symmetry_equiv_pos_site_id
 _symmetry_equiv_pos_as_xyz
  1  'x, y, z'
loop_
 _atom_site_type_symbol
 _atom_site_label
 _atom_site_symmetry_multiplicity
 _atom_site_fract_x
 _atom_site_fract_y
 _atom_site_fract_z
 _atom_site_occupancy
  Lu  Lu0  1  0.41566400  0.24468300  0.25077200  1
  Lu  Lu1  1  0.58433600  0.75531700  0.74922800  1
  Lu  Lu2  1  0.75531700  0.58433600  0.24922800  1
  Lu  Lu3  1  0.24468300  0.41566400  0.75077200  1
  Ge  Ge0  1  0.50000000  0.00000000  0.00000000  1
  Ge  Ge1  1  0.00000000  0.50000000  0.50000000  1
  Ge  Ge2  1  0.63964500  0.18153600  0.49778800  1
  Ge  Ge3  1  0.36035500  0.81846400  0.50221200  1
  Ge  Ge4  1  0.81846400  0.36035500  0.00221200  1
  Ge  Ge5  1  0.18153600  0.63964500  0.99778800  1
  Pt  Pt0  1  0.29805900  0.91609500  0.25618000  1
  Pt  Pt1  1  0.70194100  0.08390500  0.74382000  1
  Pt  Pt2  1  0.08390500  0.70194100  0.24382000  1
  Pt  Pt3  1  0.91609500  0.29805900  0.75618000  1
  Pt  Pt4  1  0.47822900  0.63852700  0.07809300  1
  Pt  Pt5  1  0.52177100  0.36147300  0.92190700  1
  Pt  Pt6  1  0.36147300  0.52177100  0.42190700  1
  Pt  Pt7  1  0.63852700  0.47822900  0.57809300  1
  Pt  Pt8  1  0.86427900  0.13572100  0.25000000  1
  Pt  Pt9  1  0.13572100  0.86427900  0.75000000  1
  Pt  Pt10  1  0.79526100  0.97733500  0.07705100  1
  Pt  Pt11  1  0.20473900  0.02266500  0.92294900  1
  Pt  Pt12  1  0.02266500  0.20473900  0.42294900  1
  Pt  Pt13  1  0.97733500  0.79526100  0.57705100  1
  Pt  Pt14  1  0.69207700  0.86032800  0.42063000  1
  Pt  Pt15  1  0.30792300  0.13967200  0.57937000  1
  Pt  Pt16  1  0.13967200  0.30792300  0.07937000  1
  Pt  Pt17  1  0.86032800  0.69207700  0.92063000  1
loop_
_geom_bond_atom_site_label_1
_geom_bond_atom_site_label_2
_geom_bond_distance
_geom_bond_site_symmetry_2
Lu0 Pt15 2.950308 1_555
Lu0 Pt5 2.952675 1_554
Lu0 Pt10 2.971721 1_545
Lu0 Pt12 2.979773 1_555
Lu0 Pt16 2.998519 1_555
Lu0 Pt14 3.000208 1_545
Lu0 Pt6 3.033630 1_555
Lu0 Pt4 3.058886 1_555
Lu0 Pt0 3.094074 1_545
Lu0 Pt8 3.158008 1_555
Lu0 Pt2 3.191204 1_555
Lu1 Pt14 2.950308 1_555
Lu1 Pt4 2.952675 1_556
Lu1 Pt11 2.971721 1_565
Lu1 Pt13 2.979773 1_555
Lu1 Pt17 2.998519 1_555
Lu1 Pt15 3.000208 1_565
Lu1 Pt7 3.033630 1_555
Lu1 Pt5 3.058886 1_555
Lu1 Pt1 3.094074 1_565
Lu1 Pt9 3.158008 1_555
Lu1 Pt3 3.191204 1_555
Lu2 Pt17 2.950308 1_554
Lu2 Pt7 2.952675 1_555
Lu2 Pt12 2.971721 1_655
Lu2 Pt10 2.979773 1_555
Lu2 Pt14 2.998519 1_555
Lu2 Pt16 3.000208 1_655
Lu2 Pt4 3.033630 1_555
Lu2 Pt6 3.058886 1_555
Lu2 Pt2 3.094074 1_655
Lu2 Pt8 3.158008 1_555
Lu2 Pt0 3.191204 1_555
Lu3 Pt16 2.950308 1_556
Lu3 Pt6 2.952675 1_555
Lu3 Pt13 2.971721 1_455
Lu3 Pt11 2.979773 1_555
Lu3 Pt15 2.998519 1_555
Lu3 Pt17 3.000208 1_455
Lu3 Pt5 3.033630 1_555
Lu3 Pt7 3.058886 1_555
Lu3 Pt3 3.094074 1_455
Lu3 Pt9 3.158008 1_555
Lu3 Pt1 3.191204 1_555
Ge0 Pt1 2.469322 1_554
Ge0 Pt0 2.469322 1_545
Ge0 Pt10 2.606117 1_545
Ge0 Pt11 2.606117 1_554
Ge0 Pt5 2.688705 1_554
Ge0 Pt4 2.688705 1_545
Ge0 Pt16 2.708200 1_555
Ge0 Pt17 2.708200 1_544
Ge1 Pt3 2.469322 1_455
Ge1 Pt2 2.469322 1_555
Ge1 Pt13 2.606117 1_455
Ge1 Pt12 2.606117 1_555
Ge1 Pt6 2.688705 1_555
Ge1 Pt7 2.688705 1_455
Ge1 Pt14 2.708200 1_455
Ge1 Pt15 2.708200 1_555
Ge2 Pt1 2.454952 1_555
Ge2 Pt8 2.464587 1_555
Ge2 Pt6 2.513183 1_555
Ge2 Pt15 2.537819 1_555
Ge2 Pt14 2.696764 1_545
Ge2 Pt7 2.722612 1_555
Ge2 Pt12 2.861598 1_655
Ge2 Pt13 2.918837 1_545
Ge3 Pt0 2.454952 1_555
Ge3 Pt9 2.464587 1_555
Ge3 Pt7 2.513183 1_555
Ge3 Pt14 2.537819 1_555
Ge3 Pt15 2.696764 1_565
Ge3 Pt6 2.722612 1_555
Ge3 Pt13 2.861598 1_455
Ge3 Pt12 2.918837 1_565
Ge4 Pt3 2.454952 1_554
Ge4 Pt8 2.464587 1_555
Ge4 Pt4 2.513183 1_555
Ge4 Pt17 2.537819 1_554
Ge4 Pt16 2.696764 1_655
Ge4 Pt5 2.722612 1_554
Ge4 Pt10 2.861598 1_545
Ge4 Pt11 2.918837 1_654
Ge5 Pt2 2.454952 1_556
Ge5 Pt9 2.464587 1_555
Ge5 Pt5 2.513183 1_555
Ge5 Pt16 2.537819 1_556
Ge5 Pt17 2.696764 1_455
Ge5 Pt4 2.722612 1_556
Ge5 Pt11 2.861598 1_565
Ge5 Pt10 2.918837 1_456
