# generated using pymatgen
data_Sc2ZnS4
_symmetry_space_group_name_H-M   'P 1'
_cell_length_a   7.42488351
_cell_length_b   7.42489113
_cell_length_c   7.42487970
_cell_angle_alpha   60.00038692
_cell_angle_beta   60.00041770
_cell_angle_gamma   60.00031110
_symmetry_Int_Tables_number   1
_chemical_formula_structural   Sc2ZnS4
_chemical_formula_sum   'Sc4 Zn2 S8'
_cell_volume   289.43951369
_cell_formula_units_Z   2
loop_
 _symmetry_equiv_pos_site_id
 _symmetry_equiv_pos_as_xyz
  1  'x, y, z'
loop_
 _atom_site_type_symbol
 _atom_site_label
 _atom_site_symmetry_multiplicity
 _atom_site_fract_x
 _atom_site_fract_y
 _atom_site_fract_z
 _atom_site_occupancy
  Sc  Sc0  1  0.12500002  0.62499995  0.62500021  1
  Sc  Sc1  1  0.62500001  0.12500010  0.62500008  1
  Sc  Sc2  1  0.62499979  0.62499994  0.12500018  1
  Sc  Sc3  1  0.62499990  0.62500005  0.62500009  1
  Zn  Zn0  1  0.25000078  0.25000066  0.25000081  1
  Zn  Zn1  1  -0.00000071  -0.00000075  -0.00000082  1
  S  S0  1  0.86183252  0.37938869  0.37938860  1
  S  S1  1  0.37938872  0.86183248  0.37938885  1
  S  S2  1  0.37938888  0.37938879  0.86183282  1
  S  S3  1  0.37938835  0.37938817  0.37938838  1
  S  S4  1  0.38816739  0.87061143  0.87061133  1
  S  S5  1  0.87061136  0.38816749  0.87061118  1
  S  S6  1  0.87061135  0.87061123  0.38816748  1
  S  S7  1  0.87061165  0.87061177  0.87061181  1
loop_
_geom_bond_atom_site_label_1
_geom_bond_atom_site_label_2
_geom_bond_distance
_geom_bond_site_symmetry_2
S0 Zn0 2.353239 1_655
S0 Sc2 2.579830 1_555
S0 Sc1 2.579836 1_555
S0 Sc3 2.579841 1_555
S1 Zn0 2.353240 1_565
S1 Sc2 2.579833 1_555
S1 Sc3 2.579837 1_555
S1 Sc0 2.579837 1_555
S2 Zn0 2.353238 1_556
S2 Sc0 2.579832 1_555
S2 Sc1 2.579834 1_555
S2 Sc3 2.579842 1_555
S3 Zn0 2.353188 1_555
S3 Sc1 2.579842 1_555
S3 Sc0 2.579846 1_555
S3 Sc2 2.579848 1_555
S4 Zn1 2.353238 1_566
S4 Sc2 2.579831 1_556
S4 Sc1 2.579837 1_565
S4 Sc3 2.579840 1_555
S5 Zn1 2.353240 1_656
S5 Sc2 2.579834 1_556
S5 Sc0 2.579836 1_655
S5 Sc3 2.579837 1_555
S6 Zn1 2.353240 1_665
S6 Sc0 2.579832 1_655
S6 Sc1 2.579835 1_565
S6 Sc3 2.579844 1_555
S7 Zn1 2.353187 1_666
S7 Sc1 2.579842 1_565
S7 Sc0 2.579845 1_655
S7 Sc2 2.579850 1_556
