# generated using pymatgen
data_HgN2O3
_symmetry_space_group_name_H-M   'P 1'
_cell_length_a   10.47750400
_cell_length_b   10.47750400
_cell_length_c   10.47750400
_cell_angle_alpha   90.00000000
_cell_angle_beta   90.00000000
_cell_angle_gamma   90.00000000
_symmetry_Int_Tables_number   1
_chemical_formula_structural   HgN2O3
_chemical_formula_sum   'Hg12 N24 O36'
_cell_volume   1150.20037782
_cell_formula_units_Z   12
loop_
 _symmetry_equiv_pos_site_id
 _symmetry_equiv_pos_as_xyz
  1  'x, y, z'
loop_
 _atom_site_type_symbol
 _atom_site_label
 _atom_site_symmetry_multiplicity
 _atom_site_fract_x
 _atom_site_fract_y
 _atom_site_fract_z
 _atom_site_occupancy
  Hg  Hg0  1  0.64931000  0.37500000  0.10069000  1
  Hg  Hg1  1  0.85069000  0.62500000  0.60069000  1
  Hg  Hg2  1  0.35069000  0.87500000  0.39931000  1
  Hg  Hg3  1  0.14931000  0.12500000  0.89931000  1
  Hg  Hg4  1  0.37500000  0.10069000  0.64931000  1
  Hg  Hg5  1  0.62500000  0.60069000  0.85069000  1
  Hg  Hg6  1  0.87500000  0.39931000  0.35069000  1
  Hg  Hg7  1  0.12500000  0.89931000  0.14931000  1
  Hg  Hg8  1  0.10069000  0.64931000  0.37500000  1
  Hg  Hg9  1  0.60069000  0.85069000  0.62500000  1
  Hg  Hg10  1  0.39931000  0.35069000  0.87500000  1
  Hg  Hg11  1  0.89931000  0.14931000  0.12500000  1
  N  N0  1  0.53705300  0.46294700  0.96294700  1
  N  N1  1  0.96294700  0.53705300  0.46294700  1
  N  N2  1  0.46294700  0.96294700  0.53705300  1
  N  N3  1  0.03705300  0.03705300  0.03705300  1
  N  N4  1  0.21294700  0.78705300  0.28705300  1
  N  N5  1  0.78705300  0.28705300  0.21294700  1
  N  N6  1  0.28705300  0.21294700  0.78705300  1
  N  N7  1  0.71294700  0.71294700  0.71294700  1
  N  N8  1  0.62500000  0.87500000  0.12500000  1
  N  N9  1  0.87500000  0.12500000  0.62500000  1
  N  N10  1  0.37500000  0.37500000  0.37500000  1
  N  N11  1  0.12500000  0.62500000  0.87500000  1
  N  N12  1  0.33613400  0.58613400  0.62500000  1
  N  N13  1  0.16386600  0.41386600  0.12500000  1
  N  N14  1  0.66386600  0.08613400  0.87500000  1
  N  N15  1  0.83613400  0.91386600  0.37500000  1
  N  N16  1  0.58613400  0.62500000  0.33613400  1
  N  N17  1  0.41386600  0.12500000  0.16386600  1
  N  N18  1  0.08613400  0.87500000  0.66386600  1
  N  N19  1  0.91386600  0.37500000  0.83613400  1
  N  N20  1  0.62500000  0.33613400  0.58613400  1
  N  N21  1  0.12500000  0.16386600  0.41386600  1
  N  N22  1  0.87500000  0.66386600  0.08613400  1
  N  N23  1  0.37500000  0.83613400  0.91386600  1
  O  O0  1  0.25181200  0.50181200  0.62500000  1
  O  O1  1  0.24818800  0.49818800  0.12500000  1
  O  O2  1  0.74818800  0.00181200  0.87500000  1
  O  O3  1  0.75181200  0.99818800  0.37500000  1
  O  O4  1  0.50181200  0.62500000  0.25181200  1
  O  O5  1  0.49818800  0.12500000  0.24818800  1
  O  O6  1  0.00181200  0.87500000  0.74818800  1
  O  O7  1  0.99818800  0.37500000  0.75181200  1
  O  O8  1  0.62500000  0.25181200  0.50181200  1
  O  O9  1  0.12500000  0.24818800  0.49818800  1
  O  O10  1  0.87500000  0.74818800  0.00181200  1
  O  O11  1  0.37500000  0.75181200  0.99818800  1
  O  O12  1  0.38104900  0.62744800  0.72977900  1
  O  O13  1  0.11895100  0.37255200  0.22977900  1
  O  O14  1  0.61895100  0.12744800  0.77022100  1
  O  O15  1  0.88104900  0.87255200  0.27022100  1
  O  O16  1  0.62744800  0.72977900  0.38104900  1
  O  O17  1  0.37255200  0.22977900  0.11895100  1
  O  O18  1  0.12744800  0.77022100  0.61895100  1
  O  O19  1  0.87255200  0.27022100  0.88104900  1
  O  O20  1  0.72977900  0.38104900  0.62744800  1
  O  O21  1  0.22977900  0.11895100  0.37255200  1
  O  O22  1  0.77022100  0.61895100  0.12744800  1
  O  O23  1  0.27022100  0.88104900  0.87255200  1
  O  O24  1  0.36895100  0.02022100  0.12255200  1
  O  O25  1  0.63104900  0.52022100  0.37744800  1
  O  O26  1  0.13104900  0.97977900  0.62255200  1
  O  O27  1  0.86895100  0.47977900  0.87744800  1
  O  O28  1  0.12255200  0.36895100  0.02022100  1
  O  O29  1  0.37744800  0.63104900  0.52022100  1
  O  O30  1  0.62255200  0.13104900  0.97977900  1
  O  O31  1  0.87744800  0.86895100  0.47977900  1
  O  O32  1  0.02022100  0.12255200  0.36895100  1
  O  O33  1  0.52022100  0.37744800  0.63104900  1
  O  O34  1  0.97977900  0.62255200  0.13104900  1
  O  O35  1  0.47977900  0.87744800  0.86895100  1
loop_
_geom_bond_atom_site_label_1
_geom_bond_atom_site_label_2
_geom_bond_distance
_geom_bond_site_symmetry_2
Hg0 N5 2.077334 1_555
Hg0 N0 2.077334 1_554
Hg1 N7 2.077334 1_555
Hg1 N1 2.077334 1_555
Hg2 N2 2.077334 1_555
Hg2 N4 2.077334 1_555
Hg3 N6 2.077334 1_555
Hg3 N3 2.077334 1_556
Hg4 N6 2.077334 1_555
Hg4 N2 2.077334 1_545
Hg5 N7 2.077334 1_555
Hg5 N0 2.077334 1_555
Hg6 N1 2.077334 1_555
Hg6 N5 2.077334 1_555
Hg7 N4 2.077334 1_555
Hg7 N3 2.077334 1_565
Hg8 N4 2.077334 1_555
Hg8 N1 2.077334 1_455
Hg9 N7 2.077334 1_555
Hg9 N2 2.077334 1_555
Hg10 N0 2.077334 1_555
Hg10 N6 2.077334 1_555
Hg11 N5 2.077334 1_555
Hg11 N3 2.077334 1_655
N12 O0 1.249435 1_555
N12 O12 1.270453 1_555
N12 O29 1.270453 1_555
N13 O1 1.249435 1_555
N13 O13 1.270453 1_555
N13 O28 1.270453 1_555
N14 O2 1.249435 1_555
N14 O30 1.270453 1_555
N14 O14 1.270453 1_555
N15 O3 1.249435 1_555
N15 O31 1.270453 1_555
N15 O15 1.270453 1_555
N16 O4 1.249435 1_555
N16 O16 1.270453 1_555
N16 O25 1.270453 1_555
N17 O5 1.249435 1_555
N17 O17 1.270453 1_555
N17 O24 1.270453 1_555
N18 O6 1.249435 1_555
N18 O26 1.270453 1_555
N18 O18 1.270453 1_555
N19 O7 1.249435 1_555
N19 O27 1.270453 1_555
N19 O19 1.270453 1_555
N20 O8 1.249435 1_555
N20 O20 1.270453 1_555
N20 O33 1.270453 1_555
N21 O9 1.249435 1_555
N21 O21 1.270453 1_555
N21 O32 1.270453 1_555
N22 O10 1.249435 1_555
N22 O34 1.270453 1_555
N22 O22 1.270453 1_555
N23 O11 1.249435 1_555
N23 O35 1.270453 1_555
N23 O23 1.270453 1_555
