# generated using pymatgen
data_Nd2AlGe6
_symmetry_space_group_name_H-M   'P 1'
_cell_length_a   6.07735978
_cell_length_b   6.07735978
_cell_length_c   10.71426072
_cell_angle_alpha   82.03789466
_cell_angle_beta   82.03789466
_cell_angle_gamma   92.43706696
_symmetry_Int_Tables_number   1
_chemical_formula_structural   Nd2AlGe6
_chemical_formula_sum   'Nd4 Al2 Ge12'
_cell_volume   387.36191543
_cell_formula_units_Z   2
loop_
 _symmetry_equiv_pos_site_id
 _symmetry_equiv_pos_as_xyz
  1  'x, y, z'
loop_
 _atom_site_type_symbol
 _atom_site_label
 _atom_site_symmetry_multiplicity
 _atom_site_fract_x
 _atom_site_fract_y
 _atom_site_fract_z
 _atom_site_occupancy
  Nd  Nd0  1  0.83786000  0.33407600  0.66229600  1
  Nd  Nd1  1  0.33407600  0.83786000  0.66229600  1
  Nd  Nd2  1  0.16214000  0.66592400  0.33770400  1
  Nd  Nd3  1  0.66592400  0.16214000  0.33770400  1
  Al  Al0  1  0.79961500  0.79961500  0.80452100  1
  Al  Al1  1  0.20038500  0.20038500  0.19547900  1
  Ge  Ge0  1  0.14682200  0.14682200  0.43699400  1
  Ge  Ge1  1  0.85317800  0.85317800  0.56300600  1
  Ge  Ge2  1  0.36058900  0.36058900  0.58217100  1
  Ge  Ge3  1  0.63941100  0.63941100  0.41782900  1
  Ge  Ge4  1  0.06564300  0.49281300  0.88474900  1
  Ge  Ge5  1  0.49281300  0.06564300  0.88474900  1
  Ge  Ge6  1  0.93435700  0.50718700  0.11525100  1
  Ge  Ge7  1  0.50718700  0.93435700  0.11525100  1
  Ge  Ge8  1  0.06916600  0.06916600  0.88504900  1
  Ge  Ge9  1  0.93083400  0.93083400  0.11495100  1
  Ge  Ge10  1  0.48887400  0.48887400  0.88480400  1
  Ge  Ge11  1  0.51112600  0.51112600  0.11519600  1
loop_
_geom_bond_atom_site_label_1
_geom_bond_atom_site_label_2
_geom_bond_distance
_geom_bond_site_symmetry_2
Al0 Ge1 2.536170 1_555
Al0 Ge8 2.581947 1_665
Al0 Ge10 2.582499 1_555
Al0 Ge5 2.650782 1_565
Al0 Ge4 2.650782 1_655
Al0 Nd1 3.375320 1_655
Al0 Nd0 3.375320 1_565
Al0 Nd1 3.396017 1_555
Al0 Nd0 3.396017 1_555
Al1 Ge0 2.536170 1_555
Al1 Ge9 2.581947 1_445
Al1 Ge11 2.582499 1_555
Al1 Ge7 2.650782 1_545
Al1 Ge6 2.650782 1_455
Al1 Nd3 3.375320 1_455
Al1 Nd2 3.375320 1_545
Al1 Nd2 3.396017 1_555
Al1 Nd3 3.396017 1_555
Ge0 Ge1 2.566411 1_445
Ge0 Ge2 2.602135 1_555
Ge0 Nd2 3.179744 1_555
Ge0 Nd3 3.179744 1_555
Ge0 Nd0 3.214798 1_455
Ge0 Nd1 3.214798 1_545
Ge0 Nd3 3.246375 1_455
Ge0 Nd2 3.246375 1_545
Ge1 Ge3 2.602135 1_555
Ge1 Nd0 3.179744 1_555
Ge1 Nd1 3.179744 1_555
Ge1 Nd2 3.214798 1_655
Ge1 Nd3 3.214798 1_565
Ge1 Nd0 3.246375 1_565
Ge1 Nd1 3.246375 1_655
Ge2 Ge3 2.635476 1_555
Ge2 Nd0 3.141240 1_555
Ge2 Nd1 3.141240 1_555
Ge2 Nd0 3.165074 1_455
Ge2 Nd1 3.165074 1_545
Ge2 Nd2 3.387849 1_555
Ge2 Nd3 3.387849 1_555
Ge3 Nd2 3.141240 1_555
Ge3 Nd3 3.141240 1_555
Ge3 Nd2 3.165074 1_655
Ge3 Nd3 3.165074 1_565
Ge3 Nd1 3.387849 1_555
Ge3 Nd0 3.387849 1_555
Ge4 Ge6 2.502648 1_456
Ge4 Ge8 2.575215 1_555
Ge4 Nd0 3.156762 1_455
Ge4 Nd1 3.160160 1_555
Ge5 Ge7 2.502648 1_546
Ge5 Ge8 2.575215 1_555
Ge5 Nd1 3.156762 1_545
Ge5 Nd0 3.160160 1_555
Ge6 Ge9 2.575215 1_555
Ge6 Nd2 3.156762 1_655
Ge6 Nd3 3.160160 1_555
Ge7 Ge9 2.575215 1_555
Ge7 Nd3 3.156762 1_565
Ge7 Nd2 3.160160 1_555
Ge8 Ge9 2.504704 1_446
Ge8 Nd1 3.212707 1_545
Ge8 Nd0 3.212707 1_455
Ge9 Nd2 3.212707 1_655
Ge9 Nd3 3.212707 1_565
Ge10 Ge11 2.512643 1_556
Ge10 Ge5 2.573337 1_555
Ge10 Ge4 2.573337 1_555
Ge10 Nd1 3.233737 1_555
Ge10 Nd0 3.233737 1_555
Ge11 Ge7 2.573337 1_555
Ge11 Ge6 2.573337 1_555
Ge11 Nd2 3.233737 1_555
Ge11 Nd3 3.233737 1_555
