# generated using pymatgen
data_BaCaDyBiO6
_symmetry_space_group_name_H-M   'P 1'
_cell_length_a   8.54966391
_cell_length_b   8.54954788
_cell_length_c   8.53450314
_cell_angle_alpha   90.00000000
_cell_angle_beta   90.00000000
_cell_angle_gamma   90.00000000
_symmetry_Int_Tables_number   1
_chemical_formula_structural   BaCaDyBiO6
_chemical_formula_sum   'Ba4 Ca4 Dy4 Bi4 O24'
_cell_volume   623.83600140
_cell_formula_units_Z   4
loop_
 _symmetry_equiv_pos_site_id
 _symmetry_equiv_pos_as_xyz
  1  'x, y, z'
loop_
 _atom_site_type_symbol
 _atom_site_label
 _atom_site_symmetry_multiplicity
 _atom_site_fract_x
 _atom_site_fract_y
 _atom_site_fract_z
 _atom_site_occupancy
  Ba  Ba0  1  0.00000000  0.00000000  0.00000000  1
  Ba  Ba1  1  0.50000000  0.50000000  0.50000000  1
  Ba  Ba2  1  0.50000000  0.00000000  0.50000000  1
  Ba  Ba3  1  0.00000000  0.50000000  0.00000000  1
  Ca  Ca0  1  0.00000000  0.50000000  0.50000000  1
  Ca  Ca1  1  0.50000000  0.50000000  0.00000000  1
  Ca  Ca2  1  0.50000000  0.00000000  0.00000000  1
  Ca  Ca3  1  0.00000000  0.00000000  0.50000000  1
  Dy  Dy0  1  0.25000000  0.25000000  0.25000000  1
  Dy  Dy1  1  0.75000000  0.75000000  0.25000000  1
  Dy  Dy2  1  0.75000000  0.25000000  0.75000000  1
  Dy  Dy3  1  0.25000000  0.75000000  0.75000000  1
  Bi  Bi0  1  0.75000000  0.75000000  0.75000000  1
  Bi  Bi1  1  0.25000000  0.25000000  0.75000000  1
  Bi  Bi2  1  0.25000000  0.75000000  0.25000000  1
  Bi  Bi3  1  0.75000000  0.25000000  0.25000000  1
  O  O0  1  0.99280790  0.19005289  0.28664190  1
  O  O1  1  0.00719210  0.80994711  0.28664190  1
  O  O2  1  0.00719210  0.19005289  0.71335810  1
  O  O3  1  0.99280790  0.80994711  0.71335810  1
  O  O4  1  0.30571450  0.99278469  0.20754902  1
  O  O5  1  0.30571450  0.00721531  0.79245098  1
  O  O6  1  0.69428550  0.00721531  0.20754902  1
  O  O7  1  0.69428550  0.99278469  0.79245098  1
  O  O8  1  0.21623777  0.27799052  0.99475979  1
  O  O9  1  0.78376223  0.27799052  0.00524021  1
  O  O10  1  0.21623777  0.72200948  0.00524021  1
  O  O11  1  0.78376223  0.72200948  0.99475979  1
  O  O12  1  0.50719210  0.30994711  0.21335810  1
  O  O13  1  0.49280790  0.69005289  0.21335810  1
  O  O14  1  0.49280790  0.30994711  0.78664190  1
  O  O15  1  0.50719210  0.69005289  0.78664190  1
  O  O16  1  0.19428550  0.50721531  0.29245098  1
  O  O17  1  0.19428550  0.49278469  0.70754902  1
  O  O18  1  0.80571450  0.49278469  0.29245098  1
  O  O19  1  0.80571450  0.50721531  0.70754902  1
  O  O20  1  0.28376223  0.22200948  0.50524021  1
  O  O21  1  0.71623777  0.22200948  0.49475979  1
  O  O22  1  0.28376223  0.77799052  0.49475979  1
  O  O23  1  0.71623777  0.77799052  0.50524021  1
loop_
_geom_bond_atom_site_label_1
_geom_bond_atom_site_label_2
_geom_bond_distance
_geom_bond_site_symmetry_2
Ba0 O1 2.937445 1_545
Ba0 O0 2.937445 1_455
Ba0 O3 2.937445 1_444
Ba0 O2 2.937445 1_554
Ba0 O8 3.011409 1_554
Ba0 O9 3.011409 1_455
Ba0 O11 3.011409 1_444
Ba0 O10 3.011409 1_545
Ba0 O5 3.158026 1_554
Ba0 O7 3.158026 1_444
Ba0 O6 3.158026 1_455
Ba0 O4 3.158026 1_545
Ba1 O12 2.937445 1_555
Ba1 O15 2.937445 1_555
Ba1 O13 2.937445 1_555
Ba1 O14 2.937445 1_555
Ba1 O20 3.011409 1_555
Ba1 O23 3.011409 1_555
Ba1 O21 3.011409 1_555
Ba1 O22 3.011409 1_555
Ba1 O19 3.158026 1_555
Ba1 O16 3.158026 1_555
Ba1 O17 3.158026 1_555
Ba1 O18 3.158026 1_555
Ba2 O20 2.650024 1_555
Ba2 O22 2.650024 1_545
Ba2 O21 2.650024 1_555
Ba2 O23 2.650024 1_545
Ba2 O5 2.998769 1_555
Ba2 O6 2.998769 1_555
Ba2 O7 2.998769 1_545
Ba2 O4 2.998769 1_545
Ba3 O11 2.650024 1_454
Ba3 O8 2.650024 1_554
Ba3 O9 2.650024 1_455
Ba3 O10 2.650024 1_555
Ba3 O18 2.998769 1_455
Ba3 O19 2.998769 1_454
Ba3 O16 2.998769 1_555
Ba3 O17 2.998769 1_554
Ca0 O19 2.429111 1_455
Ca0 O16 2.429111 1_555
Ca0 O17 2.429111 1_555
Ca0 O18 2.429111 1_455
Ca1 O12 2.441243 1_555
Ca1 O15 2.441243 1_554
Ca1 O13 2.441243 1_555
Ca1 O14 2.441243 1_554
Ca1 O9 3.080671 1_555
Ca1 O10 3.080671 1_555
Ca1 O11 3.080671 1_554
Ca1 O8 3.080671 1_554
Ca2 O4 2.429111 1_545
Ca2 O7 2.429111 1_544
Ca2 O5 2.429111 1_554
Ca2 O6 2.429111 1_555
Ca3 O0 2.441243 1_455
Ca3 O2 2.441243 1_555
Ca3 O3 2.441243 1_445
Ca3 O1 2.441243 1_545
Ca3 O23 3.080671 1_445
Ca3 O22 3.080671 1_545
Ca3 O20 3.080671 1_555
Ca3 O21 3.080671 1_455
Dy0 O20 2.210383 1_555
Dy0 O8 2.210383 1_554
Dy0 O4 2.279054 1_545
Dy0 O16 2.279054 1_555
Dy0 O12 2.279399 1_555
Dy0 O0 2.279399 1_455
Dy1 O11 2.210383 1_554
Dy1 O23 2.210383 1_555
Dy1 O18 2.279054 1_555
Dy1 O6 2.279054 1_565
Dy1 O1 2.279399 1_655
Dy1 O13 2.279399 1_555
Dy2 O21 2.210383 1_555
Dy2 O9 2.210383 1_556
Dy2 O7 2.279054 1_545
Dy2 O19 2.279054 1_555
Dy2 O2 2.279399 1_655
Dy2 O14 2.279399 1_555
Dy3 O10 2.210383 1_556
Dy3 O22 2.210383 1_555
Dy3 O17 2.279054 1_555
Dy3 O5 2.279054 1_565
Dy3 O15 2.279399 1_555
Dy3 O3 2.279399 1_455
Bi0 O23 2.122288 1_555
Bi0 O11 2.122288 1_555
Bi0 O7 2.160252 1_555
Bi0 O19 2.160252 1_555
Bi0 O3 2.161004 1_555
Bi0 O15 2.161004 1_555
Bi1 O20 2.122288 1_555
Bi1 O8 2.122288 1_555
Bi1 O5 2.160252 1_555
Bi1 O17 2.160252 1_555
Bi1 O14 2.161004 1_555
Bi1 O2 2.161004 1_555
Bi2 O22 2.122288 1_555
Bi2 O10 2.122288 1_555
Bi2 O16 2.160252 1_555
Bi2 O4 2.160252 1_555
Bi2 O13 2.161004 1_555
Bi2 O1 2.161004 1_555
Bi3 O21 2.122288 1_555
Bi3 O9 2.122288 1_555
Bi3 O6 2.160252 1_555
Bi3 O18 2.160252 1_555
Bi3 O0 2.161004 1_555
Bi3 O12 2.161004 1_555
