# generated using pymatgen
data_ZrUAl6
_symmetry_space_group_name_H-M   'P 1'
_cell_length_a   4.17462900
_cell_length_b   4.17462900
_cell_length_c   8.33686200
_cell_angle_alpha   90.00000000
_cell_angle_beta   90.00000000
_cell_angle_gamma   90.00000000
_symmetry_Int_Tables_number   1
_chemical_formula_structural   ZrUAl6
_chemical_formula_sum   'Zr1 U1 Al6'
_cell_volume   145.29089000
_cell_formula_units_Z   1
loop_
 _symmetry_equiv_pos_site_id
 _symmetry_equiv_pos_as_xyz
  1  'x, y, z'
loop_
 _atom_site_type_symbol
 _atom_site_label
 _atom_site_symmetry_multiplicity
 _atom_site_fract_x
 _atom_site_fract_y
 _atom_site_fract_z
 _atom_site_occupancy
  Zr  Zr0  1  0.00000000  0.00000000  0.50000000  1
  U  U0  1  0.00000000  0.00000000  0.00000000  1
  Al  Al0  1  0.50000000  0.50000000  0.00000000  1
  Al  Al1  1  0.50000000  0.50000000  0.50000000  1
  Al  Al2  1  0.50000000  0.00000000  0.25144000  1
  Al  Al3  1  0.50000000  0.00000000  0.74856000  1
  Al  Al4  1  0.00000000  0.50000000  0.25144000  1
  Al  Al5  1  0.00000000  0.50000000  0.74856000  1
loop_
_geom_bond_atom_site_label_1
_geom_bond_atom_site_label_2
_geom_bond_distance
_geom_bond_site_symmetry_2
Al0 U0 2.951908 1_565
Al0 U0 2.951908 1_655
Al0 U0 2.951908 1_665
Al0 U0 2.951908 1_555
Al0 Al5 2.958213 1_654
Al0 Al5 2.958213 1_554
Al0 Al4 2.958213 1_655
Al0 Al3 2.958213 1_564
Al0 Al2 2.958213 1_565
Al0 Al4 2.958213 1_555
Al0 Al2 2.958213 1_555
Al0 Al3 2.958213 1_554
Al1 Al2 2.941248 1_565
Al1 Al5 2.941248 1_655
Al1 Al2 2.941248 1_555
Al1 Al5 2.941248 1_555
Al1 Al4 2.941248 1_655
Al1 Al3 2.941248 1_555
Al1 Al3 2.941248 1_565
Al1 Al4 2.941248 1_555
Al1 Zr0 2.951908 1_555
Al1 Zr0 2.951908 1_655
Al1 Zr0 2.951908 1_565
Al1 Zr0 2.951908 1_665
Al2 Zr0 2.941248 1_555
Al2 Zr0 2.941248 1_655
Al2 Al4 2.951908 1_655
Al2 Al4 2.951908 1_645
Al2 Al4 2.951908 1_545
Al2 Al4 2.951908 1_555
Al2 U0 2.958213 1_555
Al2 U0 2.958213 1_655
Al3 Zr0 2.941248 1_555
Al3 Zr0 2.941248 1_655
Al3 Al5 2.951908 1_545
Al3 Al5 2.951908 1_645
Al3 Al5 2.951908 1_655
Al3 Al5 2.951908 1_555
Al3 U0 2.958213 1_656
Al3 U0 2.958213 1_556
Al4 Zr0 2.941248 1_555
Al4 Zr0 2.941248 1_565
Al4 U0 2.958213 1_555
Al4 U0 2.958213 1_565
Al5 Zr0 2.941248 1_555
Al5 Zr0 2.941248 1_565
Al5 U0 2.958213 1_556
Al5 U0 2.958213 1_566
