# generated using pymatgen
data_YUS2
_symmetry_space_group_name_H-M   'P 1'
_cell_length_a   6.99759484
_cell_length_b   6.99759484
_cell_length_c   6.99759558
_cell_angle_alpha   32.08906620
_cell_angle_beta   32.08906620
_cell_angle_gamma   32.08906827
_symmetry_Int_Tables_number   1
_chemical_formula_structural   YUS2
_chemical_formula_sum   'Y1 U1 S2'
_cell_volume   85.92871615
_cell_formula_units_Z   1
loop_
 _symmetry_equiv_pos_site_id
 _symmetry_equiv_pos_as_xyz
  1  'x, y, z'
loop_
 _atom_site_type_symbol
 _atom_site_label
 _atom_site_symmetry_multiplicity
 _atom_site_fract_x
 _atom_site_fract_y
 _atom_site_fract_z
 _atom_site_occupancy
  Y  Y0  1  0.00000000  0.00000000  -0.00000000  1
  U  U0  1  0.50000000  0.50000000  0.50000000  1
  S  S0  1  0.25279048  0.25279048  0.25279048  1
  S  S1  1  0.74720952  0.74720952  0.74720952  1
loop_
_geom_bond_atom_site_label_1
_geom_bond_atom_site_label_2
_geom_bond_distance
_geom_bond_site_symmetry_2
S0 Y0 2.748630 1_655
S0 Y0 2.748630 1_565
S0 Y0 2.748630 1_556
S0 U0 2.814806 1_545
S0 U0 2.814806 1_455
S0 U0 2.814807 1_554
S1 Y0 2.748630 1_566
S1 Y0 2.748630 1_656
S1 Y0 2.748630 1_665
S1 U0 2.814806 1_565
S1 U0 2.814806 1_655
S1 U0 2.814807 1_556
