# generated using pymatgen
data_CsMo3I7
_symmetry_space_group_name_H-M   'P 1'
_cell_length_a   11.06858183
_cell_length_b   11.06858183
_cell_length_c   16.97473700
_cell_angle_alpha   90.00000000
_cell_angle_beta   90.00000000
_cell_angle_gamma   119.99999899
_symmetry_Int_Tables_number   1
_chemical_formula_structural   CsMo3I7
_chemical_formula_sum   'Cs4 Mo12 I28'
_cell_volume   1801.01633020
_cell_formula_units_Z   4
loop_
 _symmetry_equiv_pos_site_id
 _symmetry_equiv_pos_as_xyz
  1  'x, y, z'
loop_
 _atom_site_type_symbol
 _atom_site_label
 _atom_site_symmetry_multiplicity
 _atom_site_fract_x
 _atom_site_fract_y
 _atom_site_fract_z
 _atom_site_occupancy
  Cs  Cs0  1  0.00000000  0.00000000  0.00000000  1
  Cs  Cs1  1  0.00000000  0.00000000  0.50000000  1
  Cs  Cs2  1  0.33333300  0.66666700  0.25000000  1
  Cs  Cs3  1  0.66666700  0.33333300  0.75000000  1
  Mo  Mo0  1  0.33464800  0.52596400  0.81464300  1
  Mo  Mo1  1  0.19131500  0.66535200  0.81464300  1
  Mo  Mo2  1  0.47403600  0.80868500  0.81464300  1
  Mo  Mo3  1  0.80868500  0.47403600  0.31464300  1
  Mo  Mo4  1  0.66535200  0.19131500  0.31464300  1
  Mo  Mo5  1  0.52596400  0.33464800  0.31464300  1
  Mo  Mo6  1  0.66535200  0.47403600  0.18535700  1
  Mo  Mo7  1  0.80868500  0.33464800  0.18535700  1
  Mo  Mo8  1  0.52596400  0.19131500  0.18535700  1
  Mo  Mo9  1  0.19131500  0.52596400  0.68535700  1
  Mo  Mo10  1  0.33464800  0.80868500  0.68535700  1
  Mo  Mo11  1  0.47403600  0.66535200  0.68535700  1
  I  I0  1  0.33333300  0.66666700  0.95115500  1
  I  I1  1  0.66666700  0.33333300  0.45115500  1
  I  I2  1  0.66666700  0.33333300  0.04884500  1
  I  I3  1  0.33333300  0.66666700  0.54884500  1
  I  I4  1  0.34488200  0.31438000  0.90931100  1
  I  I5  1  0.96949800  0.65511800  0.90931100  1
  I  I6  1  0.68562000  0.03050200  0.90931100  1
  I  I7  1  0.03050200  0.68562000  0.40931100  1
  I  I8  1  0.65511800  0.96949800  0.40931100  1
  I  I9  1  0.31438000  0.34488200  0.40931100  1
  I  I10  1  0.65511800  0.68562000  0.09068900  1
  I  I11  1  0.03050200  0.34488200  0.09068900  1
  I  I12  1  0.31438000  0.96949800  0.09068900  1
  I  I13  1  0.96949800  0.31438000  0.59068900  1
  I  I14  1  0.34488200  0.03050200  0.59068900  1
  I  I15  1  0.68562000  0.65511800  0.59068900  1
  I  I16  1  0.04334500  0.37214100  0.81924600  1
  I  I17  1  0.32879500  0.95665500  0.81924600  1
  I  I18  1  0.62785900  0.67120500  0.81924600  1
  I  I19  1  0.67120500  0.62785900  0.31924600  1
  I  I20  1  0.95665500  0.32879500  0.31924600  1
  I  I21  1  0.37214100  0.04334500  0.31924600  1
  I  I22  1  0.95665500  0.62785900  0.18075400  1
  I  I23  1  0.67120500  0.04334500  0.18075400  1
  I  I24  1  0.37214100  0.32879500  0.18075400  1
  I  I25  1  0.32879500  0.37214100  0.68075400  1
  I  I26  1  0.04334500  0.67120500  0.68075400  1
  I  I27  1  0.62785900  0.95665500  0.68075400  1
loop_
_geom_bond_atom_site_label_1
_geom_bond_atom_site_label_2
_geom_bond_distance
_geom_bond_site_symmetry_2
Cs0 I12 3.970794 1_545
Cs0 I6 3.970794 1_454
Cs0 I11 3.970794 1_555
Cs0 I5 3.970794 1_444
Cs0 I10 3.970794 1_445
Cs0 I4 3.970794 1_554
Cs1 I7 3.970794 1_545
Cs1 I13 3.970794 1_455
Cs1 I14 3.970794 1_555
Cs1 I8 3.970794 1_445
Cs1 I9 3.970794 1_555
Cs1 I15 3.970794 1_445
Cs2 I21 4.142249 1_565
Cs2 I22 4.142249 1_455
Cs2 I23 4.142258 1_565
Cs2 I20 4.142258 1_455
Cs2 I19 4.142270 1_555
Cs2 I24 4.142270 1_555
Cs2 I7 4.392666 1_555
Cs2 I12 4.392666 1_555
Cs2 I8 4.392671 1_555
Cs2 I11 4.392671 1_555
Cs2 I9 4.392675 1_555
Cs2 I10 4.392675 1_555
Cs3 I16 4.142249 1_655
Cs3 I27 4.142249 1_545
Cs3 I26 4.142258 1_655
Cs3 I17 4.142258 1_545
Cs3 I18 4.142270 1_555
Cs3 I25 4.142270 1_555
Cs3 I13 4.392666 1_555
Cs3 I6 4.392666 1_555
Cs3 I5 4.392671 1_555
Cs3 I14 4.392671 1_555
Cs3 I15 4.392675 1_555
Cs3 I4 4.392675 1_555
Mo0 Mo11 2.682642 1_555
Mo0 Mo9 2.707990 1_555
Mo0 Mo1 2.710159 1_555
Mo0 Mo2 2.710159 1_555
Mo1 Mo9 2.682642 1_555
Mo1 Mo10 2.707990 1_555
Mo1 Mo2 2.710159 1_555
Mo3 Mo7 2.682642 1_555
Mo3 Mo6 2.707990 1_555
Mo3 Mo5 2.710159 1_555
Mo3 Mo4 2.710159 1_555
Mo4 Mo8 2.682642 1_555
Mo4 Mo7 2.707990 1_555
Mo4 Mo5 2.710159 1_555
Mo5 Mo6 2.682642 1_555
Mo5 Mo8 2.707990 1_555
Mo6 Mo7 2.710159 1_555
Mo6 Mo8 2.710159 1_555
Mo7 Mo8 2.710159 1_555
Mo10 Mo2 2.682642 1_555
Mo10 Mo11 2.710159 1_555
Mo10 Mo9 2.710159 1_555
Mo11 Mo2 2.707990 1_555
Mo11 Mo9 2.710159 1_555
I0 Mo0 2.796067 1_555
I0 Mo1 2.796067 1_555
I0 Mo2 2.796067 1_555
I1 Mo5 2.796067 1_555
I1 Mo4 2.796067 1_555
I1 Mo3 2.796067 1_555
I2 Mo6 2.796067 1_555
I2 Mo7 2.796067 1_555
I2 Mo8 2.796067 1_555
I3 Mo11 2.796067 1_555
I3 Mo10 2.796067 1_555
I3 Mo9 2.796067 1_555
I4 Mo0 2.888790 1_555
I5 Mo1 2.888781 1_655
I6 Mo2 2.888785 1_545
I7 Mo3 2.888785 1_455
I8 Mo4 2.888781 1_565
I9 Mo5 2.888790 1_555
I10 Mo6 2.888790 1_555
I11 Mo7 2.888781 1_455
I12 Mo8 2.888785 1_565
I13 Mo9 2.888785 1_655
I14 Mo10 2.888781 1_545
I15 Mo11 2.888790 1_555
I16 Mo0 2.794892 1_555
I16 Mo1 2.811751 1_555
I16 Mo9 2.821002 1_555
I17 Mo1 2.794892 1_555
I17 Mo2 2.811751 1_555
I17 Mo10 2.821002 1_555
I18 Mo2 2.794892 1_555
I18 Mo0 2.811751 1_555
I18 Mo11 2.821002 1_555
I19 Mo3 2.794892 1_555
I19 Mo5 2.811751 1_555
I19 Mo6 2.821002 1_555
I20 Mo4 2.794892 1_555
I20 Mo3 2.811751 1_555
I20 Mo7 2.821002 1_555
I21 Mo5 2.794892 1_555
I21 Mo4 2.811751 1_555
I21 Mo8 2.821002 1_555
I22 Mo6 2.794892 1_555
I22 Mo7 2.811751 1_555
I22 Mo3 2.821002 1_555
I23 Mo7 2.794892 1_555
I23 Mo8 2.811751 1_555
I23 Mo4 2.821002 1_555
I24 Mo8 2.794892 1_555
I24 Mo6 2.811751 1_555
I24 Mo5 2.821002 1_555
I25 Mo9 2.794892 1_555
I25 Mo11 2.811751 1_555
I25 Mo0 2.821002 1_555
I26 Mo10 2.794892 1_555
I26 Mo9 2.811751 1_555
I26 Mo1 2.821002 1_555
I27 Mo11 2.794892 1_555
I27 Mo10 2.811751 1_555
I27 Mo2 2.821002 1_555
