# generated using pymatgen
data_Li4TiCo5O12
_symmetry_space_group_name_H-M   'P 1'
_cell_length_a   4.93771895
_cell_length_b   19.98069625
_cell_length_c   4.95909186
_cell_angle_alpha   93.90151883
_cell_angle_beta   119.85202924
_cell_angle_gamma   94.07971469
_symmetry_Int_Tables_number   1
_chemical_formula_structural   Li4TiCo5O12
_chemical_formula_sum   'Li8 Ti2 Co10 O24'
_cell_volume   420.22876677
_cell_formula_units_Z   2
loop_
 _symmetry_equiv_pos_site_id
 _symmetry_equiv_pos_as_xyz
  1  'x, y, z'
loop_
 _atom_site_type_symbol
 _atom_site_label
 _atom_site_symmetry_multiplicity
 _atom_site_fract_x
 _atom_site_fract_y
 _atom_site_fract_z
 _atom_site_occupancy
  Li  Li0  1  0.56622000  0.37322100  0.24360100  1
  Li  Li1  1  0.56406900  0.87232000  0.23718700  1
  Li  Li2  1  0.76285500  0.12550100  0.42563500  1
  Li  Li3  1  0.75630200  0.62893500  0.45087500  1
  Li  Li4  1  0.22005300  0.37085800  0.58995500  1
  Li  Li5  1  0.21700200  0.86952000  0.57341800  1
  Li  Li6  1  0.42584000  0.12888700  0.78140700  1
  Li  Li7  1  0.42053900  0.63104200  0.79514900  1
  Ti  Ti0  1  0.00061300  0.99881900  0.00466400  1
  Ti  Ti1  1  0.02072400  0.50112600  0.99876400  1
  Co  Co0  1  0.82555700  0.75056300  0.17211100  1
  Co  Co1  1  0.15839600  0.24952600  0.84735100  1
  Co  Co2  1  0.15655000  0.75064100  0.84110000  1
  Co  Co3  1  0.67724800  0.99879200  0.32036800  1
  Co  Co4  1  0.68275400  0.50101000  0.31041300  1
  Co  Co5  1  0.49137400  0.24962000  0.51411700  1
  Co  Co6  1  0.49081200  0.75049900  0.50671400  1
  Co  Co7  1  0.82543300  0.24972600  0.17941900  1
  Co  Co8  1  0.34289600  0.99890100  0.65361900  1
  Co  Co9  1  0.34968100  0.50076800  0.64547100  1
  O  O0  1  0.19327700  0.29921100  0.21770200  1
  O  O1  1  0.19783300  0.80093900  0.21220100  1
  O  O2  1  0.78714500  0.20004600  0.81322100  1
  O  O3  1  0.78437300  0.70015800  0.80138100  1
  O  O4  1  0.38633600  0.05220600  0.36090400  1
  O  O5  1  0.38977700  0.55650300  0.33434400  1
  O  O6  1  0.64705600  0.44854300  0.60510800  1
  O  O7  1  0.63443800  0.94664500  0.61252500  1
  O  O8  1  0.72350300  0.05632200  0.04372100  1
  O  O9  1  0.71604700  0.55582000  0.02026700  1
  O  O10  1  0.96813600  0.44429600  0.27546900  1
  O  O11  1  0.95229900  0.94049400  0.27404500  1
  O  O12  1  0.04130500  0.05004500  0.67843100  1
  O  O13  1  0.04253400  0.55419400  0.66723800  1
  O  O14  1  0.32399600  0.44637800  0.96010400  1
  O  O15  1  0.31954400  0.94721300  0.95785700  1
  O  O16  1  0.47401700  0.19720600  0.13658800  1
  O  O17  1  0.46905600  0.70070700  0.14880400  1
  O  O18  1  0.11535000  0.19791500  0.48900300  1
  O  O19  1  0.13327500  0.70078600  0.48603400  1
  O  O20  1  0.86629700  0.30156600  0.53080600  1
  O  O21  1  0.84911700  0.80048000  0.52743600  1
  O  O22  1  0.51769300  0.30170500  0.89230800  1
  O  O23  1  0.51267900  0.80034800  0.86316500  1
loop_
_geom_bond_atom_site_label_1
_geom_bond_atom_site_label_2
_geom_bond_distance
_geom_bond_site_symmetry_2
Li0 O22 2.081139 1_554
Li0 O14 2.097169 1_554
Li0 O6 2.115004 1_555
Li0 O20 2.179964 1_555
Li0 O0 2.223863 1_555
Li0 O10 2.288316 1_555
Li1 O15 2.118972 1_554
Li1 O21 2.159867 1_555
Li1 O23 2.165467 1_554
Li1 O7 2.167322 1_555
Li1 O1 2.169244 1_555
Li1 O11 2.193041 1_555
Li2 O18 2.063231 1_655
Li2 O12 2.138052 1_655
Li2 O4 2.158396 1_555
Li2 O16 2.162504 1_555
Li2 O8 2.185076 1_555
Li2 O2 2.298423 1_555
Li3 O5 2.043564 1_555
Li3 O13 2.094670 1_655
Li3 O3 2.112147 1_555
Li3 O17 2.186044 1_555
Li3 O19 2.195180 1_655
Li3 O9 2.417714 1_555
Li4 O20 2.035822 1_455
Li4 O14 2.117723 1_555
Li4 O22 2.166655 1_555
Li4 O10 2.184602 1_455
Li4 O0 2.201170 1_555
Li4 O6 2.494222 1_555
Li5 O21 2.107825 1_455
Li5 O11 2.131182 1_455
Li5 O1 2.138733 1_555
Li5 O23 2.138997 1_555
Li5 O15 2.196647 1_555
Li5 O7 2.402130 1_555
Li6 O16 2.057157 1_556
Li6 O2 2.134833 1_555
Li6 O8 2.147355 1_556
Li6 O18 2.171463 1_555
Li6 O12 2.201640 1_555
Li6 O4 2.419046 1_555
Li7 O17 2.067086 1_556
Li7 O13 2.127163 1_555
Li7 O9 2.133795 1_556
Li7 O19 2.170503 1_555
Li7 O3 2.172886 1_555
Li7 O5 2.573392 1_555
Co0 O17 1.906994 1_555
Co0 O21 1.911416 1_555
Co0 O1 1.943530 1_655
Co0 O3 1.944834 1_554
Co0 O19 1.947382 1_655
Co0 O23 1.947629 1_554
Co1 O22 1.896193 1_555
Co1 O18 1.900005 1_555
Co1 O2 1.943431 1_455
Co1 O16 1.946658 1_556
Co1 O0 1.949606 1_556
Co1 O20 1.951195 1_455
Co2 O23 1.906760 1_555
Co2 O19 1.910365 1_555
Co2 O3 1.944803 1_455
Co2 O1 1.945264 1_556
Co2 O17 1.946054 1_556
Co2 O21 1.946990 1_455
Co3 O7 1.925722 1_555
Co3 O4 1.928522 1_565
Co3 O15 1.934270 1_554
Co3 O8 1.935157 1_565
Co3 O12 1.935474 1_665
Co3 O11 1.937367 1_555
Co4 O6 1.924694 1_555
Co4 O5 1.928081 1_555
Co4 O9 1.928983 1_555
Co4 O10 1.934783 1_555
Co4 O14 1.936670 1_554
Co4 O13 1.939692 1_655
Co5 O0 1.887028 1_555
Co5 O2 1.887688 1_555
Co5 O18 2.002374 1_555
Co5 O20 2.018336 1_555
Co5 O22 2.022346 1_555
Co5 O16 2.042040 1_555
Co6 O1 1.883077 1_555
Co6 O3 1.883344 1_555
Co6 O19 1.915788 1_555
Co6 O23 1.919238 1_555
Co6 O21 1.921358 1_555
Co6 O17 1.925176 1_555
Co7 O16 1.871066 1_555
Co7 O20 1.877423 1_555
Co7 O22 1.920104 1_554
Co7 O0 1.920491 1_655
Co7 O2 1.924881 1_554
Co7 O18 1.928000 1_655
Co8 O12 1.912818 1_565
Co8 O7 1.918586 1_555
Co8 O15 1.929893 1_555
Co8 O4 1.943034 1_565
Co8 O8 2.088652 1_566
Co8 O11 2.095594 1_455
Co9 O6 1.940926 1_555
Co9 O13 1.956766 1_555
Co9 O9 2.007094 1_556
Co9 O14 2.009917 1_555
Co9 O10 2.040508 1_455
Co9 O5 2.041193 1_555
O4 Ti0 1.997784 1_545
O5 Ti1 1.938547 1_554
O6 Ti1 2.044115 1_655
O7 Ti0 2.023152 1_656
O8 Ti0 1.920173 1_645
O9 Ti1 1.961291 1_654
O10 Ti1 1.940243 1_654
O11 Ti0 1.920718 1_655
O12 Ti0 2.055483 1_546
O13 Ti1 2.058181 1_555
O14 Ti1 1.991520 1_555
O15 Ti0 2.039472 1_556
