# generated using pymatgen
data_Y6Al43Cr4
_symmetry_space_group_name_H-M   'P 1'
_cell_length_a   10.91824788
_cell_length_b   10.91824788
_cell_length_c   17.49226000
_cell_angle_alpha   90.00000000
_cell_angle_beta   90.00000000
_cell_angle_gamma   119.99999930
_symmetry_Int_Tables_number   1
_chemical_formula_structural   Y6Al43Cr4
_chemical_formula_sum   'Y12 Al86 Cr8'
_cell_volume   1805.85326647
_cell_formula_units_Z   2
loop_
 _symmetry_equiv_pos_site_id
 _symmetry_equiv_pos_as_xyz
  1  'x, y, z'
loop_
 _atom_site_type_symbol
 _atom_site_label
 _atom_site_symmetry_multiplicity
 _atom_site_fract_x
 _atom_site_fract_y
 _atom_site_fract_z
 _atom_site_occupancy
  Y  Y0  1  0.47127000  0.47127000  0.90486400  1
  Y  Y1  1  0.52873000  0.00000000  0.90486400  1
  Y  Y2  1  0.00000000  0.52873000  0.90486400  1
  Y  Y3  1  0.52873000  0.52873000  0.09513600  1
  Y  Y4  1  0.47127000  0.00000000  0.09513600  1
  Y  Y5  1  0.00000000  0.47127000  0.09513600  1
  Y  Y6  1  0.52873000  0.52873000  0.40486400  1
  Y  Y7  1  0.47127000  0.00000000  0.40486400  1
  Y  Y8  1  0.00000000  0.47127000  0.40486400  1
  Y  Y9  1  0.47127000  0.47127000  0.59513600  1
  Y  Y10  1  0.52873000  0.00000000  0.59513600  1
  Y  Y11  1  0.00000000  0.52873000  0.59513600  1
  Al  Al0  1  0.84125000  0.23210100  0.83417500  1
  Al  Al1  1  0.76789900  0.60914900  0.83417500  1
  Al  Al2  1  0.39085100  0.15875000  0.83417500  1
  Al  Al3  1  0.23210100  0.84125000  0.83417500  1
  Al  Al4  1  0.60914900  0.76789900  0.83417500  1
  Al  Al5  1  0.15875000  0.39085100  0.83417500  1
  Al  Al6  1  0.15875000  0.76789900  0.16582500  1
  Al  Al7  1  0.23210100  0.39085100  0.16582500  1
  Al  Al8  1  0.60914900  0.84125000  0.16582500  1
  Al  Al9  1  0.76789900  0.15875000  0.16582500  1
  Al  Al10  1  0.39085100  0.23210100  0.16582500  1
  Al  Al11  1  0.84125000  0.60914900  0.16582500  1
  Al  Al12  1  0.15875000  0.76789900  0.33417500  1
  Al  Al13  1  0.23210100  0.39085100  0.33417500  1
  Al  Al14  1  0.60914900  0.84125000  0.33417500  1
  Al  Al15  1  0.76789900  0.15875000  0.33417500  1
  Al  Al16  1  0.39085100  0.23210100  0.33417500  1
  Al  Al17  1  0.84125000  0.60914900  0.33417500  1
  Al  Al18  1  0.84125000  0.23210100  0.66582500  1
  Al  Al19  1  0.76789900  0.60914900  0.66582500  1
  Al  Al20  1  0.39085100  0.15875000  0.66582500  1
  Al  Al21  1  0.23210100  0.84125000  0.66582500  1
  Al  Al22  1  0.60914900  0.76789900  0.66582500  1
  Al  Al23  1  0.15875000  0.39085100  0.66582500  1
  Al  Al24  1  0.84554900  0.84554900  0.38357400  1
  Al  Al25  1  0.15445100  0.00000000  0.38357400  1
  Al  Al26  1  0.00000000  0.15445100  0.38357400  1
  Al  Al27  1  0.15445100  0.15445100  0.61642600  1
  Al  Al28  1  0.84554900  0.00000000  0.61642600  1
  Al  Al29  1  0.00000000  0.84554900  0.61642600  1
  Al  Al30  1  0.15445100  0.15445100  0.88357400  1
  Al  Al31  1  0.84554900  0.00000000  0.88357400  1
  Al  Al32  1  0.00000000  0.84554900  0.88357400  1
  Al  Al33  1  0.84554900  0.84554900  0.11642600  1
  Al  Al34  1  0.15445100  0.00000000  0.11642600  1
  Al  Al35  1  0.00000000  0.15445100  0.11642600  1
  Al  Al36  1  0.75045600  0.75045600  0.96926200  1
  Al  Al37  1  0.24954400  0.00000000  0.96926200  1
  Al  Al38  1  0.00000000  0.24954400  0.96926200  1
  Al  Al39  1  0.24954400  0.24954400  0.03073800  1
  Al  Al40  1  0.75045600  0.00000000  0.03073800  1
  Al  Al41  1  0.00000000  0.75045600  0.03073800  1
  Al  Al42  1  0.24954400  0.24954400  0.46926200  1
  Al  Al43  1  0.75045600  0.00000000  0.46926200  1
  Al  Al44  1  0.00000000  0.75045600  0.46926200  1
  Al  Al45  1  0.75045600  0.75045600  0.53073800  1
  Al  Al46  1  0.24954400  0.00000000  0.53073800  1
  Al  Al47  1  0.00000000  0.24954400  0.53073800  1
  Al  Al48  1  0.85541600  0.45265700  0.75000000  1
  Al  Al49  1  0.54734300  0.40276000  0.75000000  1
  Al  Al50  1  0.59724000  0.14458400  0.75000000  1
  Al  Al51  1  0.45265700  0.85541600  0.75000000  1
  Al  Al52  1  0.40276000  0.54734300  0.75000000  1
  Al  Al53  1  0.14458400  0.59724000  0.75000000  1
  Al  Al54  1  0.14458400  0.54734300  0.25000000  1
  Al  Al55  1  0.45265700  0.59724000  0.25000000  1
  Al  Al56  1  0.40276000  0.85541600  0.25000000  1
  Al  Al57  1  0.54734300  0.14458400  0.25000000  1
  Al  Al58  1  0.59724000  0.45265700  0.25000000  1
  Al  Al59  1  0.85541600  0.40276000  0.25000000  1
  Al  Al60  1  0.75338900  0.24661100  0.00000000  1
  Al  Al61  1  0.75338900  0.50677800  0.00000000  1
  Al  Al62  1  0.49322200  0.24661100  0.00000000  1
  Al  Al63  1  0.24661100  0.75338900  0.00000000  1
  Al  Al64  1  0.50677800  0.75338900  0.00000000  1
  Al  Al65  1  0.24661100  0.49322200  0.00000000  1
  Al  Al66  1  0.24661100  0.75338900  0.50000000  1
  Al  Al67  1  0.24661100  0.49322200  0.50000000  1
  Al  Al68  1  0.50677800  0.75338900  0.50000000  1
  Al  Al69  1  0.75338900  0.24661100  0.50000000  1
  Al  Al70  1  0.49322200  0.24661100  0.50000000  1
  Al  Al71  1  0.75338900  0.50677800  0.50000000  1
  Al  Al72  1  0.66666700  0.33333300  0.87242500  1
  Al  Al73  1  0.33333300  0.66666700  0.87242500  1
  Al  Al74  1  0.33333300  0.66666700  0.12757500  1
  Al  Al75  1  0.66666700  0.33333300  0.12757500  1
  Al  Al76  1  0.33333300  0.66666700  0.37242500  1
  Al  Al77  1  0.66666700  0.33333300  0.37242500  1
  Al  Al78  1  0.66666700  0.33333300  0.62757500  1
  Al  Al79  1  0.33333300  0.66666700  0.62757500  1
  Al  Al80  1  0.85525800  0.85525800  0.75000000  1
  Al  Al81  1  0.14474200  0.00000000  0.75000000  1
  Al  Al82  1  0.00000000  0.14474200  0.75000000  1
  Al  Al83  1  0.14474200  0.14474200  0.25000000  1
  Al  Al84  1  0.85525800  0.00000000  0.25000000  1
  Al  Al85  1  0.00000000  0.85525800  0.25000000  1
  Cr  Cr0  1  0.26969100  0.26969100  0.75000000  1
  Cr  Cr1  1  0.73030900  0.00000000  0.75000000  1
  Cr  Cr2  1  0.00000000  0.73030900  0.75000000  1
  Cr  Cr3  1  0.73030900  0.73030900  0.25000000  1
  Cr  Cr4  1  0.26969100  0.00000000  0.25000000  1
  Cr  Cr5  1  0.00000000  0.26969100  0.25000000  1
  Cr  Cr6  1  0.00000000  0.00000000  0.00000000  1
  Cr  Cr7  1  0.00000000  0.00000000  0.50000000  1
loop_
_geom_bond_atom_site_label_1
_geom_bond_atom_site_label_2
_geom_bond_distance
_geom_bond_site_symmetry_2
Y0 Y3 3.386898 1_556
Y1 Y4 3.386898 1_556
Y2 Y5 3.386898 1_556
Y6 Y9 3.386898 1_555
Y10 Y7 3.386898 1_555
Y11 Y8 3.386898 1_555
Al0 Cr1 2.643386 1_555
Al0 Al31 2.699938 1_555
Al0 Al72 2.722037 1_555
Al0 Al48 2.760133 1_555
Al0 Al50 2.762807 1_555
Al0 Al82 2.781219 1_655
Al0 Al38 2.879942 1_655
Al0 Al18 2.944822 1_555
Al0 Al5 3.002115 1_655
Al0 Y2 3.067356 1_655
Al0 Al60 3.084007 1_556
Al0 Y1 3.308596 1_555
Al1 Cr2 2.643386 1_655
Al1 Al32 2.699938 1_655
Al1 Al72 2.722047 1_555
Al1 Al49 2.760129 1_555
Al1 Al48 2.762798 1_555
Al1 Al80 2.781219 1_555
Al1 Al36 2.879942 1_555
Al1 Al19 2.944822 1_555
Al1 Al4 3.002115 1_555
Al1 Y0 3.067356 1_555
Al1 Al61 3.084007 1_556
Al1 Y2 3.308596 1_655
Al2 Cr0 2.643386 1_555
Al2 Al30 2.699938 1_555
Al2 Al72 2.722045 1_555
Al2 Al50 2.760124 1_555
Al2 Al49 2.762805 1_555
Al2 Al81 2.781219 1_555
Al2 Al37 2.879942 1_555
Al2 Al20 2.944822 1_555
Al2 Al3 3.002115 1_545
Al2 Y1 3.067356 1_555
Al2 Al62 3.084007 1_556
Al2 Y0 3.308596 1_555
Al3 Cr2 2.643386 1_555
Al3 Al32 2.699938 1_555
Al3 Al73 2.722037 1_555
Al3 Al51 2.760133 1_555
Al3 Al53 2.762807 1_555
Al3 Al81 2.781219 1_565
Al3 Al37 2.879942 1_565
Al3 Y1 3.067356 1_565
Al3 Al63 3.084007 1_556
Al3 Y2 3.308596 1_555
Al4 Cr1 2.643386 1_565
Al4 Al73 2.722047 1_555
Al4 Al52 2.760129 1_555
Al4 Al51 2.762798 1_555
Al4 Al80 2.781219 1_555
Al4 Y0 3.067356 1_555
Al4 Al64 3.084007 1_556
Al4 Y1 3.308596 1_565
Al5 Cr0 2.643386 1_555
Al5 Al73 2.722045 1_555
Al5 Al53 2.760124 1_555
Al5 Al52 2.762805 1_555
Al5 Al82 2.781219 1_555
Al5 Y2 3.067356 1_555
Al5 Al65 3.084007 1_556
Al5 Y0 3.308596 1_555
Al6 Cr4 2.643386 1_565
Al6 Al74 2.722037 1_555
Al6 Al85 2.781219 1_555
Al6 Y5 3.067356 1_555
Al6 Al63 3.084007 1_555
Al6 Y4 3.308596 1_565
Al7 Cr5 2.643386 1_555
Al7 Al74 2.722047 1_555
Al7 Al83 2.781219 1_555
Al7 Y3 3.067356 1_555
Al7 Y5 3.308596 1_555
Al8 Cr3 2.643386 1_555
Al8 Al84 2.781219 1_565
Al8 Al9 3.002115 1_565
Al8 Y4 3.067356 1_565
Al8 Y3 3.308596 1_555
Al9 Cr5 2.643386 1_655
Al9 Y4 3.067356 1_555
Al9 Y5 3.308596 1_655
Al10 Cr4 2.643386 1_555
Al10 Al34 2.699938 1_555
Al10 Al75 2.722047 1_555
Al10 Al58 2.760129 1_555
Al10 Al57 2.762798 1_555
Al10 Al83 2.781219 1_555
Al10 Al39 2.879942 1_555
Al10 Al16 2.944822 1_555
Al10 Al7 3.002115 1_555
Al10 Y3 3.067356 1_555
Al10 Al62 3.084007 1_555
Al10 Y4 3.308596 1_555
Al11 Cr3 2.643386 1_555
Al11 Al33 2.699938 1_555
Al11 Al75 2.722045 1_555
Al11 Al59 2.760124 1_555
Al11 Al58 2.762805 1_555
Al11 Al85 2.781219 1_655
Al11 Al41 2.879942 1_655
Al11 Al17 2.944822 1_555
Al11 Al6 3.002115 1_655
Al11 Y5 3.067356 1_655
Al11 Al61 3.084007 1_555
Al11 Y3 3.308596 1_555
Al12 Cr4 2.643386 1_565
Al12 Al25 2.699938 1_565
Al12 Al76 2.722037 1_555
Al12 Al54 2.760133 1_555
Al12 Al56 2.762807 1_555
Al12 Al85 2.781219 1_555
Al12 Al44 2.879942 1_555
Al12 Al6 2.944822 1_555
Al12 Al17 3.002115 1_455
Al12 Y8 3.067356 1_555
Al12 Al66 3.084007 1_555
Al12 Y7 3.308596 1_565
Al13 Cr5 2.643386 1_555
Al13 Al26 2.699938 1_555
Al13 Al76 2.722047 1_555
Al13 Al55 2.760129 1_555
Al13 Al54 2.762798 1_555
Al13 Al83 2.781219 1_555
Al13 Al42 2.879942 1_555
Al13 Al7 2.944822 1_555
Al13 Al16 3.002115 1_555
Al13 Y6 3.067356 1_555
Al13 Al67 3.084007 1_555
Al13 Y8 3.308596 1_555
Al14 Cr3 2.643386 1_555
Al14 Al24 2.699938 1_555
Al14 Al76 2.722045 1_555
Al14 Al56 2.760124 1_555
Al14 Al55 2.762805 1_555
Al14 Al84 2.781219 1_565
Al14 Al43 2.879942 1_565
Al14 Al8 2.944822 1_555
Al14 Al15 3.002115 1_565
Al14 Y7 3.067356 1_565
Al14 Al68 3.084007 1_555
Al14 Y6 3.308596 1_555
Al15 Cr5 2.643386 1_655
Al15 Al26 2.699938 1_655
Al15 Al77 2.722037 1_555
Al15 Al57 2.760133 1_555
Al15 Al59 2.762807 1_555
Al15 Al84 2.781219 1_555
Al15 Al43 2.879942 1_555
Al15 Al9 2.944822 1_555
Al15 Y7 3.067356 1_555
Al15 Al69 3.084007 1_555
Al15 Y8 3.308596 1_655
Al16 Cr4 2.643386 1_555
Al16 Al25 2.699938 1_555
Al16 Al77 2.722047 1_555
Al16 Al58 2.760129 1_555
Al16 Al57 2.762798 1_555
Al16 Al83 2.781219 1_555
Al16 Al42 2.879942 1_555
Al16 Y6 3.067356 1_555
Al16 Al70 3.084007 1_555
Al16 Y7 3.308596 1_555
Al17 Cr3 2.643386 1_555
Al17 Al24 2.699938 1_555
Al17 Al77 2.722045 1_555
Al17 Al59 2.760124 1_555
Al17 Al58 2.762805 1_555
Al17 Al85 2.781219 1_655
Al17 Al44 2.879942 1_655
Al17 Y8 3.067356 1_655
Al17 Al71 3.084007 1_555
Al17 Y6 3.308596 1_555
Al18 Cr1 2.643386 1_555
Al18 Al28 2.699938 1_555
Al18 Al78 2.722037 1_555
Al18 Al48 2.760133 1_555
Al18 Al50 2.762807 1_555
Al18 Al82 2.781219 1_655
Al18 Al47 2.879942 1_655
Al18 Al23 3.002115 1_655
Al18 Y11 3.067356 1_655
Al18 Al69 3.084007 1_555
Al18 Y10 3.308596 1_555
Al19 Cr2 2.643386 1_655
Al19 Al29 2.699938 1_655
Al19 Al78 2.722047 1_555
Al19 Al49 2.760129 1_555
Al19 Al48 2.762798 1_555
Al19 Al80 2.781219 1_555
Al19 Al45 2.879942 1_555
Al19 Al22 3.002115 1_555
Al19 Y9 3.067356 1_555
Al19 Al71 3.084007 1_555
Al19 Y11 3.308596 1_655
Al20 Cr0 2.643386 1_555
Al20 Al27 2.699938 1_555
Al20 Al78 2.722045 1_555
Al20 Al50 2.760124 1_555
Al20 Al49 2.762805 1_555
Al20 Al81 2.781219 1_555
Al20 Al46 2.879942 1_555
Al20 Al21 3.002115 1_545
Al20 Y10 3.067356 1_555
Al20 Al70 3.084007 1_555
Al20 Y9 3.308596 1_555
Al21 Cr2 2.643386 1_555
Al21 Al29 2.699938 1_555
Al21 Al79 2.722037 1_555
Al21 Al51 2.760133 1_555
Al21 Al53 2.762807 1_555
Al21 Al81 2.781219 1_565
Al21 Al46 2.879942 1_565
Al21 Al3 2.944822 1_555
Al21 Y10 3.067356 1_565
Al21 Al66 3.084007 1_555
Al21 Y11 3.308596 1_555
Al22 Cr1 2.643386 1_565
Al22 Al28 2.699938 1_565
Al22 Al79 2.722047 1_555
Al22 Al52 2.760129 1_555
Al22 Al51 2.762798 1_555
Al22 Al80 2.781219 1_555
Al22 Al45 2.879942 1_555
Al22 Al4 2.944822 1_555
Al22 Y9 3.067356 1_555
Al22 Al68 3.084007 1_555
Al22 Y10 3.308596 1_565
Al23 Cr0 2.643386 1_555
Al23 Al27 2.699938 1_555
Al23 Al79 2.722045 1_555
Al23 Al53 2.760124 1_555
Al23 Al52 2.762805 1_555
Al23 Al82 2.781219 1_555
Al23 Al47 2.879942 1_555
Al23 Al5 2.944822 1_555
Al23 Y11 3.067356 1_555
Al23 Al67 3.084007 1_555
Al23 Y9 3.308596 1_555
Al24 Cr7 2.644102 1_665
Al24 Cr3 2.653752 1_555
Al24 Al45 2.775721 1_555
Al24 Al43 2.814099 1_565
Al24 Al44 2.814099 1_655
Al24 Al84 2.852277 1_565
Al24 Al85 2.852277 1_655
Al24 Al25 2.920817 1_665
Al24 Al26 2.920817 1_665
Al24 Y6 3.479098 1_555
Al25 Cr7 2.644102 1_555
Al25 Cr4 2.653752 1_555
Al25 Al46 2.775721 1_555
Al25 Al42 2.814099 1_555
Al25 Al44 2.814099 1_545
Al25 Al83 2.852277 1_555
Al25 Al85 2.852277 1_545
Al25 Al26 2.920817 1_555
Al25 Y7 3.479098 1_555
Al26 Cr7 2.644102 1_555
Al26 Cr5 2.653752 1_555
Al26 Al47 2.775721 1_555
Al26 Al42 2.814099 1_555
Al26 Al43 2.814099 1_455
Al26 Al83 2.852277 1_555
Al26 Al84 2.852277 1_455
Al26 Y8 3.479098 1_555
Al27 Cr7 2.644102 1_555
Al27 Cr0 2.653752 1_555
Al27 Al42 2.775721 1_555
Al27 Al46 2.814099 1_555
Al27 Al47 2.814099 1_555
Al27 Al81 2.852277 1_555
Al27 Al82 2.852277 1_555
Al27 Al28 2.920817 1_455
Al27 Al29 2.920817 1_545
Al27 Y9 3.479098 1_555
Al28 Cr7 2.644102 1_655
Al28 Cr1 2.653752 1_555
Al28 Al43 2.775721 1_555
Al28 Al45 2.814099 1_545
Al28 Al47 2.814099 1_655
Al28 Al80 2.852277 1_545
Al28 Al82 2.852277 1_655
Al28 Al29 2.920817 1_645
Al28 Y10 3.479098 1_555
Al29 Cr7 2.644102 1_565
Al29 Cr2 2.653752 1_555
Al29 Al44 2.775721 1_555
Al29 Al45 2.814099 1_455
Al29 Al46 2.814099 1_565
Al29 Al80 2.852277 1_455
Al29 Al81 2.852277 1_565
Al29 Y11 3.479098 1_555
Al30 Cr6 2.644102 1_556
Al30 Cr0 2.653752 1_555
Al30 Al5 2.699938 1_555
Al30 Al39 2.775721 1_556
Al30 Al38 2.814099 1_555
Al30 Al37 2.814099 1_555
Al30 Al81 2.852277 1_555
Al30 Al82 2.852277 1_555
Al30 Al32 2.920817 1_545
Al30 Al31 2.920817 1_455
Al30 Y0 3.479098 1_555
Al31 Cr6 2.644102 1_656
Al31 Cr1 2.653752 1_555
Al31 Al4 2.699938 1_545
Al31 Al40 2.775721 1_556
Al31 Al36 2.814099 1_545
Al31 Al38 2.814099 1_655
Al31 Al80 2.852277 1_545
Al31 Al82 2.852277 1_655
Al31 Al32 2.920817 1_645
Al31 Y1 3.479098 1_555
Al32 Cr6 2.644102 1_566
Al32 Cr2 2.653752 1_555
Al32 Al41 2.775721 1_556
Al32 Al36 2.814099 1_455
Al32 Al37 2.814099 1_565
Al32 Al80 2.852277 1_455
Al32 Al81 2.852277 1_565
Al32 Y2 3.479098 1_555
Al33 Cr6 2.644102 1_665
Al33 Cr3 2.653752 1_555
Al33 Al8 2.699938 1_555
Al33 Al36 2.775721 1_554
Al33 Al40 2.814099 1_565
Al33 Al41 2.814099 1_655
Al33 Al85 2.852277 1_655
Al33 Al84 2.852277 1_565
Al33 Al35 2.920817 1_665
Al33 Al34 2.920817 1_665
Al33 Y3 3.479098 1_555
Al34 Cr6 2.644102 1_555
Al34 Cr4 2.653752 1_555
Al34 Al6 2.699938 1_545
Al34 Al37 2.775721 1_554
Al34 Al39 2.814099 1_555
Al34 Al41 2.814099 1_545
Al34 Al83 2.852277 1_555
Al34 Al85 2.852277 1_545
Al34 Al35 2.920817 1_555
Al34 Y4 3.479098 1_555
Al35 Cr6 2.644102 1_555
Al35 Cr5 2.653752 1_555
Al35 Al9 2.699938 1_455
Al35 Al7 2.699938 1_555
Al35 Al38 2.775721 1_554
Al35 Al39 2.814099 1_555
Al35 Al40 2.814099 1_455
Al35 Al83 2.852277 1_555
Al35 Al84 2.852277 1_455
Al35 Y5 3.479098 1_555
Al36 Al64 2.730161 1_556
Al36 Al61 2.730161 1_556
Al36 Cr6 2.777130 1_666
Al36 Al4 2.879942 1_555
Al36 Al40 2.929119 1_566
Al36 Al41 2.929119 1_656
Al36 Y0 3.249705 1_555
Al36 Y3 3.272396 1_556
Al37 Al63 2.730161 1_546
Al37 Al62 2.730161 1_556
Al37 Cr6 2.777130 1_556
Al37 Al39 2.929119 1_556
Al37 Al41 2.929119 1_546
Al37 Y1 3.249705 1_555
Al37 Y4 3.272396 1_556
Al38 Al60 2.730161 1_456
Al38 Al65 2.730161 1_556
Al38 Cr6 2.777130 1_556
Al38 Al5 2.879942 1_555
Al38 Al39 2.929119 1_556
Al38 Al40 2.929119 1_456
Al38 Y2 3.249705 1_555
Al38 Y5 3.272396 1_556
Al39 Al62 2.730161 1_555
Al39 Al65 2.730161 1_555
Al39 Cr6 2.777130 1_555
Al39 Al7 2.879942 1_555
Al39 Y3 3.249705 1_555
Al39 Y0 3.272396 1_554
Al40 Al60 2.730161 1_555
Al40 Al64 2.730161 1_545
Al40 Cr6 2.777130 1_655
Al40 Al9 2.879942 1_555
Al40 Al8 2.879942 1_545
Al40 Y4 3.249705 1_555
Al40 Y1 3.272396 1_554
Al41 Al63 2.730161 1_555
Al41 Al61 2.730161 1_455
Al41 Cr6 2.777130 1_565
Al41 Al6 2.879942 1_555
Al41 Y5 3.249705 1_555
Al41 Y2 3.272396 1_554
Al42 Al67 2.730161 1_555
Al42 Al70 2.730161 1_555
Al42 Cr7 2.777130 1_555
Al42 Al46 2.929119 1_555
Al42 Al47 2.929119 1_555
Al42 Y6 3.249705 1_555
Al42 Y9 3.272396 1_555
Al43 Al69 2.730161 1_555
Al43 Al68 2.730161 1_545
Al43 Cr7 2.777130 1_655
Al43 Al45 2.929119 1_545
Al43 Al47 2.929119 1_655
Al43 Y7 3.249705 1_555
Al43 Y10 3.272396 1_555
Al44 Al66 2.730161 1_555
Al44 Al71 2.730161 1_455
Al44 Cr7 2.777130 1_565
Al44 Al45 2.929119 1_455
Al44 Al46 2.929119 1_565
Al44 Y8 3.249705 1_555
Al44 Y11 3.272396 1_555
Al45 Al71 2.730161 1_555
Al45 Al68 2.730161 1_555
Al45 Cr7 2.777130 1_665
Al45 Y9 3.249705 1_555
Al45 Y6 3.272396 1_555
Al46 Al66 2.730161 1_545
Al46 Al70 2.730161 1_555
Al46 Cr7 2.777130 1_555
Al46 Y10 3.249705 1_555
Al46 Y7 3.272396 1_555
Al47 Al69 2.730161 1_455
Al47 Al67 2.730161 1_555
Al47 Cr7 2.777130 1_555
Al47 Y11 3.249705 1_555
Al47 Y8 3.272396 1_555
Al48 Cr2 2.626086 1_655
Al48 Al53 2.734222 1_655
Al48 Al78 2.800961 1_555
Al48 Al72 2.800961 1_555
Al48 Y2 3.034626 1_655
Al48 Y11 3.034626 1_655
Al49 Cr0 2.626085 1_555
Al49 Al52 2.734203 1_555
Al49 Al72 2.800972 1_555
Al49 Al78 2.800972 1_555
Al49 Y0 3.034621 1_555
Al49 Y9 3.034621 1_555
Al50 Cr1 2.626095 1_555
Al50 Al51 2.734222 1_545
Al50 Al72 2.800959 1_555
Al50 Al78 2.800959 1_555
Al50 Y10 3.034626 1_555
Al50 Y1 3.034626 1_555
Al51 Cr1 2.626086 1_565
Al51 Al79 2.800961 1_555
Al51 Al73 2.800961 1_555
Al51 Y1 3.034626 1_565
Al51 Y10 3.034626 1_565
Al52 Cr0 2.626085 1_555
Al52 Al79 2.800972 1_555
Al52 Al73 2.800972 1_555
Al52 Y0 3.034621 1_555
Al52 Y9 3.034621 1_555
Al53 Cr2 2.626095 1_555
Al53 Al79 2.800959 1_555
Al53 Al73 2.800959 1_555
Al53 Y2 3.034626 1_555
Al53 Y11 3.034626 1_555
Al54 Cr5 2.626086 1_555
Al54 Al59 2.734222 1_455
Al54 Al6 2.760133 1_555
Al54 Al7 2.762798 1_555
Al54 Al76 2.800961 1_555
Al54 Al74 2.800961 1_555
Al54 Y5 3.034626 1_555
Al54 Y8 3.034626 1_555
Al55 Cr3 2.626085 1_555
Al55 Al58 2.734203 1_555
Al55 Al7 2.760129 1_555
Al55 Al8 2.762805 1_555
Al55 Al76 2.800972 1_555
Al55 Al74 2.800972 1_555
Al55 Y6 3.034621 1_555
Al55 Y3 3.034621 1_555
Al56 Cr4 2.626095 1_565
Al56 Al57 2.734222 1_565
Al56 Al8 2.760124 1_555
Al56 Al6 2.762807 1_555
Al56 Al76 2.800959 1_555
Al56 Al74 2.800959 1_555
Al56 Y7 3.034626 1_565
Al56 Y4 3.034626 1_565
Al57 Cr4 2.626086 1_555
Al57 Al9 2.760133 1_555
Al57 Al75 2.800961 1_555
Al57 Al77 2.800961 1_555
Al57 Y4 3.034626 1_555
Al57 Y7 3.034626 1_555
Al58 Cr3 2.626085 1_555
Al58 Al75 2.800972 1_555
Al58 Al77 2.800972 1_555
Al58 Y6 3.034621 1_555
Al58 Y3 3.034621 1_555
Al59 Cr5 2.626095 1_655
Al59 Al9 2.762807 1_555
Al59 Al75 2.800959 1_555
Al59 Al77 2.800959 1_555
Al59 Y5 3.034626 1_655
Al59 Y8 3.034626 1_655
Al60 Al72 2.769389 1_554
Al60 Al75 2.769389 1_555
Al60 Al61 2.840568 1_555
Al60 Al62 2.840568 1_555
Al60 Y1 3.071051 1_554
Al60 Y5 3.071051 1_655
Al60 Al9 3.084007 1_555
Al60 Y4 3.348644 1_555
Al60 Y2 3.348644 1_654
Al61 Al72 2.769395 1_554
Al61 Al75 2.769395 1_555
Al61 Al62 2.840568 1_555
Al61 Y3 3.071051 1_555
Al61 Y2 3.071051 1_654
Al61 Y5 3.348644 1_655
Al61 Y0 3.348644 1_554
Al62 Al75 2.769395 1_555
Al62 Al72 2.769395 1_554
Al62 Y0 3.071051 1_554
Al62 Y4 3.071051 1_555
Al62 Y1 3.348644 1_554
Al62 Y3 3.348644 1_555
Al63 Al74 2.769389 1_555
Al63 Al73 2.769389 1_554
Al63 Al64 2.840568 1_555
Al63 Al65 2.840568 1_555
Al63 Y2 3.071051 1_554
Al63 Y4 3.071051 1_565
Al63 Y5 3.348644 1_555
Al63 Y1 3.348644 1_564
Al64 Al74 2.769395 1_555
Al64 Al73 2.769395 1_554
Al64 Al65 2.840568 1_555
Al64 Y3 3.071051 1_555
Al64 Y1 3.071051 1_564
Al64 Al8 3.084007 1_555
Al64 Y4 3.348644 1_565
Al64 Y0 3.348644 1_554
Al65 Al73 2.769395 1_554
Al65 Al74 2.769395 1_555
Al65 Y0 3.071051 1_554
Al65 Y5 3.071051 1_555
Al65 Al7 3.084007 1_555
Al65 Y2 3.348644 1_554
Al65 Y3 3.348644 1_555
Al66 Al79 2.769389 1_555
Al66 Al76 2.769389 1_555
Al66 Al68 2.840568 1_555
Al66 Al67 2.840568 1_555
Al66 Y11 3.071051 1_555
Al66 Y7 3.071051 1_565
Al66 Y8 3.348644 1_555
Al66 Y10 3.348644 1_565
Al67 Al79 2.769395 1_555
Al67 Al76 2.769395 1_555
Al67 Al68 2.840568 1_555
Al67 Y9 3.071051 1_555
Al67 Y8 3.071051 1_555
Al67 Y11 3.348644 1_555
Al67 Y6 3.348644 1_555
Al68 Al79 2.769395 1_555
Al68 Al76 2.769395 1_555
Al68 Y6 3.071051 1_555
Al68 Y10 3.071051 1_565
Al68 Y7 3.348644 1_565
Al68 Y9 3.348644 1_555
Al69 Al77 2.769389 1_555
Al69 Al78 2.769389 1_555
Al69 Al71 2.840568 1_555
Al69 Al70 2.840568 1_555
Al69 Y10 3.071051 1_555
Al69 Y8 3.071051 1_655
Al69 Y7 3.348644 1_555
Al69 Y11 3.348644 1_655
Al70 Al77 2.769395 1_555
Al70 Al78 2.769395 1_555
Al70 Al71 2.840568 1_555
Al70 Y9 3.071051 1_555
Al70 Y7 3.071051 1_555
Al70 Y10 3.348644 1_555
Al70 Y6 3.348644 1_555
Al71 Al77 2.769395 1_555
Al71 Al78 2.769395 1_555
Al71 Y6 3.071051 1_555
Al71 Y11 3.071051 1_655
Al71 Y8 3.348644 1_655
Al71 Y9 3.348644 1_555
Al72 Y1 3.217820 1_555
Al72 Y2 3.217821 1_655
Al72 Y0 3.217829 1_555
Al73 Y2 3.217820 1_555
Al73 Y1 3.217821 1_565
Al73 Y0 3.217829 1_555
Al74 Al8 2.722045 1_555
Al74 Y4 3.217820 1_565
Al74 Y5 3.217821 1_555
Al74 Y3 3.217829 1_555
Al75 Al9 2.722037 1_555
Al75 Y5 3.217820 1_655
Al75 Y4 3.217821 1_555
Al75 Y3 3.217829 1_555
Al76 Y7 3.217820 1_565
Al76 Y8 3.217821 1_555
Al76 Y6 3.217829 1_555
Al77 Y8 3.217820 1_655
Al77 Y7 3.217821 1_555
Al77 Y6 3.217829 1_555
Al78 Y10 3.217820 1_555
Al78 Y11 3.217821 1_655
Al78 Y9 3.217829 1_555
Al79 Y11 3.217820 1_555
Al79 Y10 3.217821 1_565
Al79 Y9 3.217829 1_555
Al80 Cr1 2.552346 1_565
Al80 Cr2 2.552346 1_655
Al80 Al82 2.737210 1_665
Al80 Al81 2.737210 1_665
Al81 Cr0 2.552346 1_555
Al81 Cr2 2.552346 1_545
Al81 Al82 2.737210 1_555
Al82 Cr0 2.552346 1_555
Al82 Cr1 2.552346 1_455
Al83 Cr4 2.552346 1_555
Al83 Cr5 2.552346 1_555
Al83 Al85 2.737210 1_545
Al83 Al84 2.737210 1_455
Al84 Cr3 2.552346 1_545
Al84 Cr5 2.552346 1_655
Al84 Al85 2.737210 1_645
Al84 Al9 2.781219 1_555
Al85 Cr3 2.552346 1_455
Al85 Cr4 2.552346 1_565
Cr0 Y0 3.490296 1_555
Cr0 Y9 3.490296 1_555
Cr1 Y1 3.490296 1_555
Cr1 Y10 3.490296 1_555
Cr2 Y11 3.490296 1_555
Cr2 Y2 3.490296 1_555
Cr3 Y3 3.490296 1_555
Cr3 Y6 3.490296 1_555
Cr4 Y4 3.490296 1_555
Cr4 Y7 3.490296 1_555
Cr5 Y5 3.490296 1_555
Cr5 Y8 3.490296 1_555
