# generated using pymatgen
data_Eu3MoO7
_symmetry_space_group_name_H-M   'P 1'
_cell_length_a   7.55305700
_cell_length_b   7.69626300
_cell_length_c   10.88839400
_cell_angle_alpha   90.00000000
_cell_angle_beta   90.00000000
_cell_angle_gamma   90.00000000
_symmetry_Int_Tables_number   1
_chemical_formula_structural   Eu3MoO7
_chemical_formula_sum   'Eu12 Mo4 O28'
_cell_volume   632.94575266
_cell_formula_units_Z   4
loop_
 _symmetry_equiv_pos_site_id
 _symmetry_equiv_pos_as_xyz
  1  'x, y, z'
loop_
 _atom_site_type_symbol
 _atom_site_label
 _atom_site_symmetry_multiplicity
 _atom_site_fract_x
 _atom_site_fract_y
 _atom_site_fract_z
 _atom_site_occupancy
  Eu  Eu0  1  0.52554100  0.00519300  0.25367600  1
  Eu  Eu1  1  0.97445900  0.99480700  0.75367600  1
  Eu  Eu2  1  0.47445900  0.50519300  0.24632400  1
  Eu  Eu3  1  0.02554100  0.49480700  0.74632400  1
  Eu  Eu4  1  0.21296500  0.25570000  0.47737900  1
  Eu  Eu5  1  0.28703500  0.74430000  0.97737900  1
  Eu  Eu6  1  0.78703500  0.75570000  0.02262100  1
  Eu  Eu7  1  0.71296500  0.24430000  0.52262100  1
  Eu  Eu8  1  0.20294400  0.24958000  0.01472500  1
  Eu  Eu9  1  0.29705600  0.75042000  0.51472500  1
  Eu  Eu10  1  0.79705600  0.74958000  0.48527500  1
  Eu  Eu11  1  0.70294400  0.25042000  0.98527500  1
  Mo  Mo0  1  0.00425400  0.01665900  0.24871200  1
  Mo  Mo1  1  0.49574600  0.98334100  0.74871200  1
  Mo  Mo2  1  0.99574600  0.51665900  0.25128800  1
  Mo  Mo3  1  0.50425400  0.48334100  0.75128800  1
  O  O0  1  0.17623400  0.53224600  0.12370200  1
  O  O1  1  0.32376600  0.46775400  0.62370200  1
  O  O2  1  0.82376600  0.03224600  0.37629800  1
  O  O3  1  0.67623400  0.96775400  0.87629800  1
  O  O4  1  0.48532700  0.25762400  0.38122100  1
  O  O5  1  0.01467300  0.74237600  0.88122100  1
  O  O6  1  0.51467300  0.75762400  0.11877900  1
  O  O7  1  0.98532700  0.24237600  0.61877900  1
  O  O8  1  0.06906300  0.24928400  0.24213100  1
  O  O9  1  0.43093700  0.75071600  0.74213100  1
  O  O10  1  0.93093700  0.74928400  0.25786900  1
  O  O11  1  0.56906300  0.25071600  0.75786900  1
  O  O12  1  0.35777000  0.04806200  0.61162700  1
  O  O13  1  0.14223000  0.95193800  0.11162700  1
  O  O14  1  0.64223000  0.54806200  0.88837300  1
  O  O15  1  0.85777000  0.45193800  0.38837300  1
  O  O16  1  0.19973400  0.53513100  0.36563400  1
  O  O17  1  0.30026600  0.46486900  0.86563400  1
  O  O18  1  0.80026600  0.03513100  0.13436600  1
  O  O19  1  0.69973400  0.96486900  0.63436600  1
  O  O20  1  0.31469400  0.03499800  0.86513000  1
  O  O21  1  0.18530600  0.96500200  0.36513000  1
  O  O22  1  0.68530600  0.53499800  0.63487000  1
  O  O23  1  0.81469400  0.46500200  0.13487000  1
  O  O24  1  0.46538800  0.24588700  0.11493300  1
  O  O25  1  0.03461200  0.75411300  0.61493300  1
  O  O26  1  0.53461200  0.74588700  0.38506700  1
  O  O27  1  0.96538800  0.25411300  0.88506700  1
loop_
_geom_bond_atom_site_label_1
_geom_bond_atom_site_label_2
_geom_bond_distance
_geom_bond_site_symmetry_2
Eu0 O6 2.407183 1_545
Eu0 O4 2.407340 1_555
Eu0 O24 2.433137 1_555
Eu0 O26 2.456458 1_545
Eu0 O18 2.458946 1_555
Eu0 O2 2.626746 1_555
Eu0 O21 2.858731 1_545
Eu1 O7 2.407183 1_565
Eu1 O5 2.407340 1_655
Eu1 O25 2.433137 1_655
Eu1 O27 2.456458 1_565
Eu1 O19 2.458946 1_555
Eu1 O3 2.626746 1_555
Eu1 O20 2.858731 1_665
Eu2 O4 2.407183 1_555
Eu2 O6 2.407340 1_555
Eu2 O26 2.433137 1_555
Eu2 O24 2.456458 1_555
Eu2 O16 2.458946 1_555
Eu2 O0 2.626746 1_555
Eu2 O23 2.858731 1_555
Eu3 O5 2.407183 1_555
Eu3 O7 2.407340 1_455
Eu3 O27 2.433137 1_455
Eu3 O25 2.456458 1_555
Eu3 O17 2.458946 1_555
Eu3 O1 2.626746 1_555
Eu3 O22 2.858731 1_455
Eu4 O4 2.308327 1_555
Eu4 O7 2.310227 1_455
Eu4 O12 2.426241 1_555
Eu4 O1 2.429452 1_555
Eu4 O16 2.472928 1_555
Eu4 O21 2.557910 1_545
Eu4 O8 2.782972 1_555
Eu5 O5 2.308327 1_555
Eu5 O6 2.310227 1_556
Eu5 O13 2.426241 1_556
Eu5 O0 2.429452 1_556
Eu5 O17 2.472928 1_555
Eu5 O20 2.557910 1_565
Eu5 O9 2.782972 1_555
Eu6 O6 2.308327 1_555
Eu6 O5 2.310227 1_654
Eu6 O14 2.426241 1_554
Eu6 O3 2.429452 1_554
Eu6 O18 2.472928 1_565
Eu6 O23 2.557910 1_555
Eu6 O10 2.782972 1_555
Eu7 O7 2.308327 1_555
Eu7 O4 2.310227 1_555
Eu7 O15 2.426241 1_555
Eu7 O2 2.429452 1_555
Eu7 O19 2.472928 1_545
Eu7 O22 2.557910 1_555
Eu7 O11 2.782972 1_555
Eu8 O24 2.262885 1_555
Eu8 O27 2.283358 1_454
Eu8 O17 2.433317 1_554
Eu8 O20 2.468393 1_554
Eu8 O0 2.486234 1_555
Eu8 O13 2.563395 1_545
Eu8 O8 2.674613 1_555
Eu9 O25 2.262885 1_555
Eu9 O26 2.283358 1_555
Eu9 O16 2.433317 1_555
Eu9 O21 2.468393 1_555
Eu9 O1 2.486234 1_555
Eu9 O12 2.563395 1_565
Eu9 O9 2.674613 1_555
Eu10 O26 2.262885 1_555
Eu10 O25 2.283358 1_655
Eu10 O19 2.433317 1_555
Eu10 O22 2.468393 1_555
Eu10 O2 2.486234 1_565
Eu10 O15 2.563395 1_555
Eu10 O10 2.674613 1_555
Eu11 O27 2.262885 1_555
Eu11 O24 2.283358 1_556
Eu11 O18 2.433317 1_556
Eu11 O23 2.468393 1_556
Eu11 O3 2.486234 1_545
Eu11 O14 2.563395 1_555
Eu11 O11 2.674613 1_555
Mo0 O8 1.857439 1_555
Mo0 O13 1.887361 1_545
Mo0 O21 1.906548 1_545
Mo0 O2 1.950051 1_455
Mo0 O18 1.986002 1_455
Mo0 O10 2.133329 1_445
Mo1 O9 1.857439 1_555
Mo1 O12 1.887361 1_565
Mo1 O20 1.906548 1_565
Mo1 O3 1.950051 1_555
Mo1 O19 1.986002 1_555
Mo1 O11 2.133329 1_565
Mo2 O10 1.857439 1_555
Mo2 O15 1.887361 1_555
Mo2 O23 1.906548 1_555
Mo2 O0 1.950051 1_655
Mo2 O16 1.986002 1_655
Mo2 O8 2.133329 1_655
Mo3 O11 1.857439 1_555
Mo3 O14 1.887361 1_555
Mo3 O22 1.906548 1_555
Mo3 O1 1.950051 1_555
Mo3 O17 1.986002 1_555
Mo3 O9 2.133329 1_555
