# generated using pymatgen
data_Ba2Mg17
_symmetry_space_group_name_H-M   'P 1'
_cell_length_a   8.00991333
_cell_length_b   8.00990999
_cell_length_c   8.00990261
_cell_angle_alpha   82.99020552
_cell_angle_beta   82.99016657
_cell_angle_gamma   82.99025011
_symmetry_Int_Tables_number   1
_chemical_formula_structural   Ba2Mg17
_chemical_formula_sum   'Ba2 Mg17'
_cell_volume   503.24760946
_cell_formula_units_Z   1
loop_
 _symmetry_equiv_pos_site_id
 _symmetry_equiv_pos_as_xyz
  1  'x, y, z'
loop_
 _atom_site_type_symbol
 _atom_site_label
 _atom_site_symmetry_multiplicity
 _atom_site_fract_x
 _atom_site_fract_y
 _atom_site_fract_z
 _atom_site_occupancy
  Ba  Ba0  1  0.66168620  0.66168620  0.66168620  1
  Ba  Ba1  1  0.33831380  0.33831380  0.33831380  1
  Mg  Mg0  1  0.34623512  0.34623512  0.84685022  1
  Mg  Mg1  1  0.34623512  0.84685022  0.34623512  1
  Mg  Mg2  1  0.09720674  0.09720674  0.09720674  1
  Mg  Mg3  1  0.90279326  0.90279326  0.90279326  1
  Mg  Mg4  1  0.00000000  -0.00000000  0.50000000  1
  Mg  Mg5  1  0.50000000  -0.00000000  0.00000000  1
  Mg  Mg6  1  0.00000000  0.50000000  0.00000000  1
  Mg  Mg7  1  0.29258472  0.70741528  0.00000000  1
  Mg  Mg8  1  1.00000000  0.29258472  0.70741528  1
  Mg  Mg9  1  0.70741528  0.00000000  0.29258472  1
  Mg  Mg10  1  0.70741528  0.29258472  -0.00000000  1
  Mg  Mg11  1  0.00000000  0.70741528  0.29258472  1
  Mg  Mg12  1  0.29258472  1.00000000  0.70741528  1
  Mg  Mg13  1  0.65376488  0.15314978  0.65376488  1
  Mg  Mg14  1  0.65376488  0.65376488  0.15314978  1
  Mg  Mg15  1  0.15314978  0.65376488  0.65376488  1
  Mg  Mg16  1  0.84685022  0.34623512  0.34623512  1
loop_
_geom_bond_atom_site_label_1
_geom_bond_atom_site_label_2
_geom_bond_distance
_geom_bond_site_symmetry_2
Ba0 Mg3 3.730971 1_555
Ba0 Mg11 3.773686 1_655
Ba0 Mg9 3.773686 1_565
Ba0 Mg7 3.773687 1_556
Ba0 Mg10 3.773688 1_556
Ba0 Mg12 3.773691 1_555
Ba0 Mg8 3.773691 1_555
Ba0 Mg0 3.833720 1_555
Ba0 Mg16 3.833720 1_555
Ba0 Mg1 3.833722 1_555
Ba0 Mg14 3.922210 1_556
Ba0 Mg13 3.922214 1_565
Ba0 Mg15 3.922215 1_655
Ba0 Mg5 4.055012 1_566
Ba0 Mg4 4.055012 1_665
Ba0 Mg6 4.055015 1_656
Ba0 Mg14 4.089889 1_555
Ba0 Mg13 4.089893 1_555
Ba0 Mg15 4.089894 1_555
Ba1 Mg2 3.730971 1_555
Ba1 Mg8 3.773686 1_455
Ba1 Mg12 3.773686 1_545
Ba1 Mg10 3.773687 1_555
Ba1 Mg7 3.773688 1_555
Ba1 Mg9 3.773691 1_555
Ba1 Mg11 3.773691 1_555
Ba1 Mg14 3.833720 1_555
Ba1 Mg15 3.833720 1_555
Ba1 Mg13 3.833722 1_555
Ba1 Mg0 3.922210 1_554
Ba1 Mg1 3.922214 1_545
Ba1 Mg16 3.922215 1_455
Ba1 Mg5 4.055012 1_555
Ba1 Mg4 4.055012 1_555
Ba1 Mg6 4.055015 1_555
Ba1 Mg0 4.089889 1_555
Ba1 Mg1 4.089893 1_555
Ba1 Mg16 4.089894 1_555
Mg0 Mg6 3.068833 1_556
Mg0 Mg5 3.068834 1_556
Mg0 Mg13 3.094477 1_555
Mg0 Mg15 3.094478 1_555
Mg0 Mg12 3.207390 1_545
Mg0 Mg8 3.207392 1_455
Mg0 Mg7 3.239316 1_556
Mg0 Mg10 3.239318 1_556
Mg0 Mg2 3.316243 1_556
Mg1 Mg5 3.068830 1_565
Mg1 Mg4 3.068833 1_565
Mg1 Mg15 3.094474 1_555
Mg1 Mg14 3.094477 1_555
Mg1 Mg7 3.207389 1_555
Mg1 Mg11 3.207391 1_555
Mg1 Mg12 3.239314 1_555
Mg1 Mg9 3.239316 1_565
Mg1 Mg2 3.316246 1_565
Mg2 Mg3 3.008419 1_444
Mg2 Mg4 3.247061 1_555
Mg2 Mg6 3.247065 1_555
Mg2 Mg5 3.247066 1_555
Mg2 Mg8 3.450620 1_454
Mg2 Mg9 3.450621 1_455
Mg2 Mg7 3.450623 1_545
Mg3 Mg4 3.247061 1_665
Mg3 Mg6 3.247065 1_656
Mg3 Mg5 3.247066 1_566
Mg3 Mg9 3.450619 1_566
Mg3 Mg8 3.450621 1_565
Mg3 Mg7 3.450625 1_656
Mg4 Mg8 3.033621 1_455
Mg4 Mg9 3.033623 1_455
Mg5 Mg7 3.033622 1_545
Mg5 Mg9 3.033622 1_555
Mg6 Mg8 3.033621 1_454
Mg6 Mg7 3.033622 1_555
Mg10 Mg5 3.033622 1_555
Mg10 Mg6 3.033622 1_655
Mg10 Mg8 3.105501 1_554
Mg10 Mg9 3.105501 1_555
Mg10 Mg13 3.207389 1_554
Mg10 Mg16 3.207389 1_555
Mg10 Mg14 3.239316 1_555
Mg10 Mg3 3.450623 1_544
Mg10 Mg2 3.450625 1_655
Mg11 Mg6 3.033621 1_555
Mg11 Mg4 3.033621 1_565
Mg11 Mg7 3.105501 1_555
Mg11 Mg9 3.105505 1_465
Mg11 Mg14 3.207392 1_455
Mg11 Mg15 3.239315 1_555
Mg11 Mg16 3.239316 1_455
Mg11 Mg3 3.450620 1_454
Mg11 Mg2 3.450621 1_565
Mg12 Mg5 3.033622 1_566
Mg12 Mg4 3.033623 1_565
Mg12 Mg7 3.105501 1_556
Mg12 Mg8 3.105505 1_465
Mg12 Mg15 3.207390 1_555
Mg12 Mg13 3.239316 1_565
Mg12 Mg2 3.450619 1_566
Mg12 Mg3 3.450621 1_455
Mg13 Mg5 3.068830 1_556
Mg13 Mg4 3.068833 1_655
Mg13 Mg16 3.094474 1_555
Mg13 Mg8 3.207391 1_555
Mg13 Mg9 3.239314 1_555
Mg13 Mg3 3.316246 1_545
Mg14 Mg6 3.068833 1_655
Mg14 Mg5 3.068834 1_565
Mg14 Mg16 3.094478 1_555
Mg14 Mg9 3.207390 1_565
Mg14 Mg7 3.239318 1_555
Mg14 Mg3 3.316243 1_554
Mg15 Mg6 3.068830 1_556
Mg15 Mg4 3.068834 1_565
Mg15 Mg7 3.207389 1_556
Mg15 Mg8 3.239316 1_455
Mg15 Mg3 3.316244 1_455
Mg16 Mg6 3.068830 1_655
Mg16 Mg4 3.068834 1_655
Mg16 Mg9 3.207390 1_555
Mg16 Mg8 3.239315 1_555
Mg16 Mg2 3.316244 1_655
