# generated using pymatgen
data_AsS4N3
_symmetry_space_group_name_H-M   'P 1'
_cell_length_a   9.17157900
_cell_length_b   10.30526600
_cell_length_c   10.69909200
_cell_angle_alpha   90.00000000
_cell_angle_beta   90.00000000
_cell_angle_gamma   90.00000000
_symmetry_Int_Tables_number   1
_chemical_formula_structural   AsS4N3
_chemical_formula_sum   'As4 S16 N12'
_cell_volume   1011.23068509
_cell_formula_units_Z   4
loop_
 _symmetry_equiv_pos_site_id
 _symmetry_equiv_pos_as_xyz
  1  'x, y, z'
loop_
 _atom_site_type_symbol
 _atom_site_label
 _atom_site_symmetry_multiplicity
 _atom_site_fract_x
 _atom_site_fract_y
 _atom_site_fract_z
 _atom_site_occupancy
  As  As0  1  0.09417400  0.75000000  0.25074200  1
  As  As1  1  0.40582600  0.75000000  0.75074200  1
  As  As2  1  0.90582600  0.25000000  0.74925800  1
  As  As3  1  0.59417400  0.25000000  0.24925800  1
  S  S0  1  0.73483900  0.75000000  0.46482000  1
  S  S1  1  0.76516100  0.75000000  0.96482000  1
  S  S2  1  0.26516100  0.25000000  0.53518000  1
  S  S3  1  0.23483900  0.25000000  0.03518000  1
  S  S4  1  0.94582600  0.75000000  0.58437500  1
  S  S5  1  0.55417400  0.75000000  0.08437500  1
  S  S6  1  0.05417400  0.25000000  0.41562500  1
  S  S7  1  0.44582600  0.25000000  0.91562500  1
  S  S8  1  0.14484200  0.64996200  0.06276900  1
  S  S9  1  0.35515800  0.85003800  0.56276900  1
  S  S10  1  0.85515800  0.14996200  0.93723100  1
  S  S11  1  0.64484200  0.35003800  0.43723100  1
  S  S12  1  0.85515800  0.35003800  0.93723100  1
  S  S13  1  0.64484200  0.14996200  0.43723100  1
  S  S14  1  0.14484200  0.85003800  0.06276900  1
  S  S15  1  0.35515800  0.64996200  0.56276900  1
  N  N0  1  0.28521200  0.75000000  0.29761600  1
  N  N1  1  0.21478800  0.75000000  0.79761600  1
  N  N2  1  0.71478800  0.25000000  0.70238400  1
  N  N3  1  0.78521200  0.25000000  0.20238400  1
  N  N4  1  0.84003800  0.63521500  0.52440800  1
  N  N5  1  0.65996200  0.86478500  0.02440800  1
  N  N6  1  0.15996200  0.13521500  0.47559200  1
  N  N7  1  0.34003800  0.36478500  0.97559200  1
  N  N8  1  0.15996200  0.36478500  0.47559200  1
  N  N9  1  0.34003800  0.13521500  0.97559200  1
  N  N10  1  0.84003800  0.86478500  0.52440800  1
  N  N11  1  0.65996200  0.63521500  0.02440800  1
loop_
_geom_bond_atom_site_label_1
_geom_bond_atom_site_label_2
_geom_bond_distance
_geom_bond_site_symmetry_2
As0 N0 1.822481 1_555
As0 S14 2.307256 1_555
As0 S8 2.307256 1_555
As1 N1 1.822481 1_555
As1 S9 2.307256 1_555
As1 S15 2.307256 1_555
As2 N2 1.822481 1_555
As2 S12 2.307256 1_555
As2 S10 2.307256 1_555
As3 N3 1.822481 1_555
As3 S11 2.307256 1_555
As3 S13 2.307256 1_555
S10 S12 2.061836 1_555
S11 S13 2.061836 1_555
S14 S8 2.061836 1_555
S15 S9 2.061836 1_555
N4 S0 1.654267 1_555
N4 S4 1.658988 1_555
N5 S1 1.654267 1_554
N5 S5 1.658988 1_555
N6 S2 1.654267 1_555
N6 S6 1.658988 1_555
N7 S3 1.654267 1_556
N7 S7 1.658988 1_555
N8 S2 1.654267 1_555
N8 S6 1.658988 1_555
N9 S3 1.654267 1_556
N9 S7 1.658988 1_555
N10 S0 1.654267 1_555
N10 S4 1.658988 1_555
N11 S1 1.654267 1_554
N11 S5 1.658988 1_555
