# generated using pymatgen
data_H5N2Cl
_symmetry_space_group_name_H-M   'P 1'
_cell_length_a   31.92937245
_cell_length_b   25.57239406
_cell_length_c   19.42673321
_cell_angle_alpha   89.31603496
_cell_angle_beta   53.21115072
_cell_angle_gamma   37.47281433
_symmetry_Int_Tables_number   1
_chemical_formula_structural   H5N2Cl
_chemical_formula_sum   'H160 N64 Cl32'
_cell_volume   2389.57042105
_cell_formula_units_Z   32
loop_
 _symmetry_equiv_pos_site_id
 _symmetry_equiv_pos_as_xyz
  1  'x, y, z'
loop_
 _atom_site_type_symbol
 _atom_site_label
 _atom_site_symmetry_multiplicity
 _atom_site_fract_x
 _atom_site_fract_y
 _atom_site_fract_z
 _atom_site_occupancy
  H  H0_0  1  0.26623900  0.43740650  0.12748450  1
  H  H0_1  1  0.26623900  0.43740650  0.62748450  1
  H  H0_2  1  0.26623900  0.93740650  0.12748450  1
  H  H0_3  1  0.26623900  0.93740650  0.62748450  1
  H  H0_4  1  0.76623900  0.43740650  0.12748450  1
  H  H0_5  1  0.76623900  0.43740650  0.62748450  1
  H  H0_6  1  0.76623900  0.93740650  0.12748450  1
  H  H0_7  1  0.76623900  0.93740650  0.62748450  1
  H  H1_0  1  0.16887050  0.12748450  0.43740650  1
  H  H1_1  1  0.16887050  0.12748450  0.93740650  1
  H  H1_2  1  0.16887050  0.62748450  0.43740650  1
  H  H1_3  1  0.16887050  0.62748450  0.93740650  1
  H  H1_4  1  0.66887050  0.12748450  0.43740650  1
  H  H1_5  1  0.66887050  0.12748450  0.93740650  1
  H  H1_6  1  0.66887050  0.62748450  0.43740650  1
  H  H1_7  1  0.66887050  0.62748450  0.93740650  1
  H  H2_0  1  0.18759350  0.35876100  0.45612950  1
  H  H2_1  1  0.18759350  0.35876100  0.95612950  1
  H  H2_2  1  0.18759350  0.85876100  0.45612950  1
  H  H2_3  1  0.18759350  0.85876100  0.95612950  1
  H  H2_4  1  0.68759350  0.35876100  0.45612950  1
  H  H2_5  1  0.68759350  0.35876100  0.95612950  1
  H  H2_6  1  0.68759350  0.85876100  0.45612950  1
  H  H2_7  1  0.68759350  0.85876100  0.95612950  1
  H  H3_0  1  0.49751550  0.45612950  0.35876100  1
  H  H3_1  1  0.49751550  0.45612950  0.85876100  1
  H  H3_2  1  0.49751550  0.95612950  0.35876100  1
  H  H3_3  1  0.49751550  0.95612950  0.85876100  1
  H  H3_4  1  0.99751550  0.45612950  0.35876100  1
  H  H3_5  1  0.99751550  0.45612950  0.85876100  1
  H  H3_6  1  0.99751550  0.95612950  0.35876100  1
  H  H3_7  1  0.99751550  0.95612950  0.85876100  1
  H  H4_0  1  0.40943900  0.37936850  0.45381550  1
  H  H4_1  1  0.40943900  0.37936850  0.95381550  1
  H  H4_2  1  0.40943900  0.87936850  0.45381550  1
  H  H4_3  1  0.40943900  0.87936850  0.95381550  1
  H  H4_4  1  0.90943900  0.37936850  0.45381550  1
  H  H4_5  1  0.90943900  0.37936850  0.95381550  1
  H  H4_6  1  0.90943900  0.87936850  0.45381550  1
  H  H4_7  1  0.90943900  0.87936850  0.95381550  1
  H  H5_0  1  0.25737700  0.45381550  0.37936850  1
  H  H5_1  1  0.25737700  0.45381550  0.87936850  1
  H  H5_2  1  0.25737700  0.95381550  0.37936850  1
  H  H5_3  1  0.25737700  0.95381550  0.87936850  1
  H  H5_4  1  0.75737700  0.45381550  0.37936850  1
  H  H5_5  1  0.75737700  0.45381550  0.87936850  1
  H  H5_6  1  0.75737700  0.95381550  0.37936850  1
  H  H5_7  1  0.75737700  0.95381550  0.87936850  1
  H  H6_0  1  0.24563150  0.21556100  0.36762300  1
  H  H6_1  1  0.24563150  0.21556100  0.86762300  1
  H  H6_2  1  0.24563150  0.71556100  0.36762300  1
  H  H6_3  1  0.24563150  0.71556100  0.86762300  1
  H  H6_4  1  0.74563150  0.21556100  0.36762300  1
  H  H6_5  1  0.74563150  0.21556100  0.86762300  1
  H  H6_6  1  0.74563150  0.71556100  0.36762300  1
  H  H6_7  1  0.74563150  0.71556100  0.86762300  1
  H  H7_0  1  0.17118450  0.36762300  0.21556100  1
  H  H7_1  1  0.17118450  0.36762300  0.71556100  1
  H  H7_2  1  0.17118450  0.86762300  0.21556100  1
  H  H7_3  1  0.17118450  0.86762300  0.71556100  1
  H  H7_4  1  0.67118450  0.36762300  0.21556100  1
  H  H7_5  1  0.67118450  0.36762300  0.71556100  1
  H  H7_6  1  0.67118450  0.86762300  0.21556100  1
  H  H7_7  1  0.67118450  0.86762300  0.71556100  1
  H  H8_0  1  0.46372750  0.33243050  0.49185200  1
  H  H8_1  1  0.46372750  0.33243050  0.99185200  1
  H  H8_2  1  0.46372750  0.83243050  0.49185200  1
  H  H8_3  1  0.46372750  0.83243050  0.99185200  1
  H  H8_4  1  0.96372750  0.33243050  0.49185200  1
  H  H8_5  1  0.96372750  0.33243050  0.99185200  1
  H  H8_6  1  0.96372750  0.83243050  0.49185200  1
  H  H8_7  1  0.96372750  0.83243050  0.99185200  1
  H  H9_0  1  0.21198950  0.49185200  0.33243050  1
  H  H9_1  1  0.21198950  0.49185200  0.83243050  1
  H  H9_2  1  0.21198950  0.99185200  0.33243050  1
  H  H9_3  1  0.21198950  0.99185200  0.83243050  1
  H  H9_4  1  0.71198950  0.49185200  0.33243050  1
  H  H9_5  1  0.71198950  0.49185200  0.83243050  1
  H  H9_6  1  0.71198950  0.99185200  0.33243050  1
  H  H9_7  1  0.71198950  0.99185200  0.83243050  1
  H  H10_0  1  0.29256950  0.16127250  0.41301050  1
  H  H10_1  1  0.29256950  0.16127250  0.91301050  1
  H  H10_2  1  0.29256950  0.66127250  0.41301050  1
  H  H10_3  1  0.29256950  0.66127250  0.91301050  1
  H  H10_4  1  0.79256950  0.16127250  0.41301050  1
  H  H10_5  1  0.79256950  0.16127250  0.91301050  1
  H  H10_6  1  0.79256950  0.66127250  0.41301050  1
  H  H10_7  1  0.79256950  0.66127250  0.91301050  1
  H  H11_0  1  0.13314800  0.41301050  0.16127250  1
  H  H11_1  1  0.13314800  0.41301050  0.66127250  1
  H  H11_2  1  0.13314800  0.91301050  0.16127250  1
  H  H11_3  1  0.13314800  0.91301050  0.66127250  1
  H  H11_4  1  0.63314800  0.41301050  0.16127250  1
  H  H11_5  1  0.63314800  0.41301050  0.66127250  1
  H  H11_6  1  0.63314800  0.91301050  0.16127250  1
  H  H11_7  1  0.63314800  0.91301050  0.66127250  1
  H  H12_0  1  0.44573700  0.40488700  0.45541250  1
  H  H12_1  1  0.44573700  0.40488700  0.95541250  1
  H  H12_2  1  0.44573700  0.90488700  0.45541250  1
  H  H12_3  1  0.44573700  0.90488700  0.95541250  1
  H  H12_4  1  0.94573700  0.40488700  0.45541250  1
  H  H12_5  1  0.94573700  0.40488700  0.95541250  1
  H  H12_6  1  0.94573700  0.90488700  0.45541250  1
  H  H12_7  1  0.94573700  0.90488700  0.95541250  1
  H  H13_0  1  0.19396300  0.45541250  0.40488700  1
  H  H13_1  1  0.19396300  0.45541250  0.90488700  1
  H  H13_2  1  0.19396300  0.95541250  0.40488700  1
  H  H13_3  1  0.19396300  0.95541250  0.90488700  1
  H  H13_4  1  0.69396300  0.45541250  0.40488700  1
  H  H13_5  1  0.69396300  0.45541250  0.90488700  1
  H  H13_6  1  0.69396300  0.95541250  0.40488700  1
  H  H13_7  1  0.69396300  0.95541250  0.90488700  1
  H  H14_0  1  0.22011300  0.17926300  0.43103700  1
  H  H14_1  1  0.22011300  0.17926300  0.93103700  1
  H  H14_2  1  0.22011300  0.67926300  0.43103700  1
  H  H14_3  1  0.22011300  0.67926300  0.93103700  1
  H  H14_4  1  0.72011300  0.17926300  0.43103700  1
  H  H14_5  1  0.72011300  0.17926300  0.93103700  1
  H  H14_6  1  0.72011300  0.67926300  0.43103700  1
  H  H14_7  1  0.72011300  0.67926300  0.93103700  1
  H  H15_0  1  0.16958750  0.43103700  0.17926300  1
  H  H15_1  1  0.16958750  0.43103700  0.67926300  1
  H  H15_2  1  0.16958750  0.93103700  0.17926300  1
  H  H15_3  1  0.16958750  0.93103700  0.67926300  1
  H  H15_4  1  0.66958750  0.43103700  0.17926300  1
  H  H15_5  1  0.66958750  0.43103700  0.67926300  1
  H  H15_6  1  0.66958750  0.93103700  0.17926300  1
  H  H15_7  1  0.66958750  0.93103700  0.67926300  1
  H  H16_0  1  0.18006400  0.16917800  0.37898650  1
  H  H16_1  1  0.18006400  0.16917800  0.87898650  1
  H  H16_2  1  0.18006400  0.66917800  0.37898650  1
  H  H16_3  1  0.18006400  0.66917800  0.87898650  1
  H  H16_4  1  0.68006400  0.16917800  0.37898650  1
  H  H16_5  1  0.68006400  0.16917800  0.87898650  1
  H  H16_6  1  0.68006400  0.66917800  0.37898650  1
  H  H16_7  1  0.68006400  0.66917800  0.87898650  1
  H  H17_0  1  0.27177100  0.37898650  0.16917800  1
  H  H17_1  1  0.27177100  0.37898650  0.66917800  1
  H  H17_2  1  0.27177100  0.87898650  0.16917800  1
  H  H17_3  1  0.27177100  0.87898650  0.66917800  1
  H  H17_4  1  0.77177100  0.37898650  0.16917800  1
  H  H17_5  1  0.77177100  0.37898650  0.66917800  1
  H  H17_6  1  0.77177100  0.87898650  0.16917800  1
  H  H17_7  1  0.77177100  0.87898650  0.66917800  1
  H  H18_0  1  0.45582200  0.44493600  0.35322900  1
  H  H18_1  1  0.45582200  0.44493600  0.85322900  1
  H  H18_2  1  0.45582200  0.94493600  0.35322900  1
  H  H18_3  1  0.45582200  0.94493600  0.85322900  1
  H  H18_4  1  0.95582200  0.44493600  0.35322900  1
  H  H18_5  1  0.95582200  0.44493600  0.85322900  1
  H  H18_6  1  0.95582200  0.94493600  0.35322900  1
  H  H18_7  1  0.95582200  0.94493600  0.85322900  1
  H  H19_0  1  0.24601350  0.35322900  0.44493600  1
  H  H19_1  1  0.24601350  0.35322900  0.94493600  1
  H  H19_2  1  0.24601350  0.85322900  0.44493600  1
  H  H19_3  1  0.24601350  0.85322900  0.94493600  1
  H  H19_4  1  0.74601350  0.35322900  0.44493600  1
  H  H19_5  1  0.74601350  0.35322900  0.94493600  1
  H  H19_6  1  0.74601350  0.85322900  0.44493600  1
  H  H19_7  1  0.74601350  0.85322900  0.94493600  1
  N  N0_0  1  0.28803550  0.40322000  0.15668600  1
  N  N0_1  1  0.28803550  0.40322000  0.65668600  1
  N  N0_2  1  0.28803550  0.90322000  0.15668600  1
  N  N0_3  1  0.28803550  0.90322000  0.65668600  1
  N  N0_4  1  0.78803550  0.40322000  0.15668600  1
  N  N0_5  1  0.78803550  0.40322000  0.65668600  1
  N  N0_6  1  0.78803550  0.90322000  0.15668600  1
  N  N0_7  1  0.78803550  0.90322000  0.65668600  1
  N  N1_0  1  0.15205800  0.15668600  0.40322000  1
  N  N1_1  1  0.15205800  0.15668600  0.90322000  1
  N  N1_2  1  0.15205800  0.65668600  0.40322000  1
  N  N1_3  1  0.15205800  0.65668600  0.90322000  1
  N  N1_4  1  0.65205800  0.15668600  0.40322000  1
  N  N1_5  1  0.65205800  0.15668600  0.90322000  1
  N  N1_6  1  0.65205800  0.65668600  0.40322000  1
  N  N1_7  1  0.65205800  0.65668600  0.90322000  1
  N  N2_0  1  0.22178000  0.33696450  0.47294200  1
  N  N2_1  1  0.22178000  0.33696450  0.97294200  1
  N  N2_2  1  0.22178000  0.83696450  0.47294200  1
  N  N2_3  1  0.22178000  0.83696450  0.97294200  1
  N  N2_4  1  0.72178000  0.33696450  0.47294200  1
  N  N2_5  1  0.72178000  0.33696450  0.97294200  1
  N  N2_6  1  0.72178000  0.83696450  0.47294200  1
  N  N2_7  1  0.72178000  0.83696450  0.97294200  1
  N  N3_0  1  0.46831400  0.47294200  0.33696450  1
  N  N3_1  1  0.46831400  0.47294200  0.83696450  1
  N  N3_2  1  0.46831400  0.97294200  0.33696450  1
  N  N3_3  1  0.46831400  0.97294200  0.83696450  1
  N  N3_4  1  0.96831400  0.47294200  0.33696450  1
  N  N3_5  1  0.96831400  0.47294200  0.83696450  1
  N  N3_6  1  0.96831400  0.97294200  0.33696450  1
  N  N3_7  1  0.96831400  0.97294200  0.83696450  1
  N  N4_0  1  0.41965300  0.39141500  0.48682550  1
  N  N4_1  1  0.41965300  0.39141500  0.98682550  1
  N  N4_2  1  0.41965300  0.89141500  0.48682550  1
  N  N4_3  1  0.41965300  0.89141500  0.98682550  1
  N  N4_4  1  0.91965300  0.39141500  0.48682550  1
  N  N4_5  1  0.91965300  0.39141500  0.98682550  1
  N  N4_6  1  0.91965300  0.89141500  0.48682550  1
  N  N4_7  1  0.91965300  0.89141500  0.98682550  1
  N  N5_0  1  0.20210600  0.48682550  0.39141500  1
  N  N5_1  1  0.20210600  0.48682550  0.89141500  1
  N  N5_2  1  0.20210600  0.98682550  0.39141500  1
  N  N5_3  1  0.20210600  0.98682550  0.89141500  1
  N  N5_4  1  0.70210600  0.48682550  0.39141500  1
  N  N5_5  1  0.70210600  0.48682550  0.89141500  1
  N  N5_6  1  0.70210600  0.98682550  0.39141500  1
  N  N5_7  1  0.70210600  0.98682550  0.89141500  1
  N  N6_0  1  0.23358500  0.20534700  0.42289400  1
  N  N6_1  1  0.23358500  0.20534700  0.92289400  1
  N  N6_2  1  0.23358500  0.70534700  0.42289400  1
  N  N6_3  1  0.23358500  0.70534700  0.92289400  1
  N  N6_4  1  0.73358500  0.20534700  0.42289400  1
  N  N6_5  1  0.73358500  0.20534700  0.92289400  1
  N  N6_6  1  0.73358500  0.70534700  0.42289400  1
  N  N6_7  1  0.73358500  0.70534700  0.92289400  1
  N  N7_0  1  0.13817450  0.42289400  0.20534700  1
  N  N7_1  1  0.13817450  0.42289400  0.70534700  1
  N  N7_2  1  0.13817450  0.92289400  0.20534700  1
  N  N7_3  1  0.13817450  0.92289400  0.70534700  1
  N  N7_4  1  0.63817450  0.42289400  0.20534700  1
  N  N7_5  1  0.63817450  0.42289400  0.70534700  1
  N  N7_6  1  0.63817450  0.92289400  0.20534700  1
  N  N7_7  1  0.63817450  0.92289400  0.70534700  1
  Cl  Cl0_0  1  0.32450300  0.10760950  0.15673350  1
  Cl  Cl0_1  1  0.32450300  0.10760950  0.65673350  1
  Cl  Cl0_2  1  0.32450300  0.60760950  0.15673350  1
  Cl  Cl0_3  1  0.32450300  0.60760950  0.65673350  1
  Cl  Cl0_4  1  0.82450300  0.10760950  0.15673350  1
  Cl  Cl0_5  1  0.82450300  0.10760950  0.65673350  1
  Cl  Cl0_6  1  0.82450300  0.60760950  0.15673350  1
  Cl  Cl0_7  1  0.82450300  0.60760950  0.65673350  1
  Cl  Cl1_0  1  0.41115350  0.15673350  0.10760950  1
  Cl  Cl1_1  1  0.41115350  0.15673350  0.60760950  1
  Cl  Cl1_2  1  0.41115350  0.65673350  0.10760950  1
  Cl  Cl1_3  1  0.41115350  0.65673350  0.60760950  1
  Cl  Cl1_4  1  0.91115350  0.15673350  0.10760950  1
  Cl  Cl1_5  1  0.91115350  0.15673350  0.60760950  1
  Cl  Cl1_6  1  0.91115350  0.65673350  0.10760950  1
  Cl  Cl1_7  1  0.91115350  0.65673350  0.60760950  1
  Cl  Cl2_0  1  0.01739050  0.30049700  0.21384650  1
  Cl  Cl2_1  1  0.01739050  0.30049700  0.71384650  1
  Cl  Cl2_2  1  0.01739050  0.80049700  0.21384650  1
  Cl  Cl2_3  1  0.01739050  0.80049700  0.71384650  1
  Cl  Cl2_4  1  0.51739050  0.30049700  0.21384650  1
  Cl  Cl2_5  1  0.51739050  0.30049700  0.71384650  1
  Cl  Cl2_6  1  0.51739050  0.80049700  0.21384650  1
  Cl  Cl2_7  1  0.51739050  0.80049700  0.71384650  1
  Cl  Cl3_0  1  0.46826650  0.21384650  0.30049700  1
  Cl  Cl3_1  1  0.46826650  0.21384650  0.80049700  1
  Cl  Cl3_2  1  0.46826650  0.71384650  0.30049700  1
  Cl  Cl3_3  1  0.46826650  0.71384650  0.80049700  1
  Cl  Cl3_4  1  0.96826650  0.21384650  0.30049700  1
  Cl  Cl3_5  1  0.96826650  0.21384650  0.80049700  1
  Cl  Cl3_6  1  0.96826650  0.71384650  0.30049700  1
  Cl  Cl3_7  1  0.96826650  0.71384650  0.80049700  1
loop_
_geom_bond_atom_site_label_1
_geom_bond_atom_site_label_2
_geom_bond_distance
_geom_bond_site_symmetry_2
H0_0 N0_0 1.032346 1_555
H0_1 N0_1 1.032346 1_555
H0_2 N0_2 1.032346 1_555
H0_3 N0_3 1.032346 1_555
H0_4 N0_4 1.032346 1_555
H0_5 N0_5 1.032346 1_555
H0_6 N0_6 1.032346 1_555
H0_7 N0_7 1.032346 1_555
H1_0 N1_0 1.032356 1_555
H1_1 N1_1 1.032356 1_555
H1_2 N1_2 1.032356 1_555
H1_3 N1_3 1.032356 1_555
H1_4 N1_4 1.032356 1_555
H1_5 N1_5 1.032356 1_555
H1_6 N1_6 1.032356 1_555
H1_7 N1_7 1.032356 1_555
H2_0 N2_0 1.032364 1_555
H2_1 N2_1 1.032364 1_555
H2_2 N2_2 1.032364 1_555
H2_3 N2_3 1.032364 1_555
H2_4 N2_4 1.032364 1_555
H2_5 N2_5 1.032364 1_555
H2_6 N2_6 1.032364 1_555
H2_7 N2_7 1.032364 1_555
H3_0 N3_0 1.032338 1_555
H3_1 N3_1 1.032338 1_555
H3_2 N3_2 1.032338 1_555
H3_3 N3_3 1.032338 1_555
H3_4 N3_4 1.032338 1_555
H3_5 N3_5 1.032338 1_555
H3_6 N3_6 1.032338 1_555
H3_7 N3_7 1.032338 1_555
H4_0 N4_0 1.013494 1_555
H4_1 N4_1 1.013494 1_555
H4_2 N4_2 1.013494 1_555
H4_3 N4_3 1.013494 1_555
H4_4 N4_4 1.013494 1_555
H4_5 N4_5 1.013494 1_555
H4_6 N4_6 1.013494 1_555
H4_7 N4_7 1.013494 1_555
H5_0 N5_0 1.013509 1_555
H5_1 N5_1 1.013509 1_555
H5_2 N5_2 1.013509 1_555
H5_3 N5_3 1.013509 1_555
H5_4 N5_4 1.013509 1_555
H5_5 N5_5 1.013509 1_555
H5_6 N5_6 1.013509 1_555
H5_7 N5_7 1.013509 1_555
H6_0 N6_0 1.013502 1_555
H6_1 N6_1 1.013502 1_555
H6_2 N6_2 1.013502 1_555
H6_3 N6_3 1.013502 1_555
H6_4 N6_4 1.013502 1_555
H6_5 N6_5 1.013502 1_555
H6_6 N6_6 1.013502 1_555
H6_7 N6_7 1.013502 1_555
H7_0 N7_0 1.013501 1_555
H7_1 N7_1 1.013501 1_555
H7_2 N7_2 1.013501 1_555
H7_3 N7_3 1.013501 1_555
H7_4 N7_4 1.013501 1_555
H7_5 N7_5 1.013501 1_555
H7_6 N7_6 1.013501 1_555
H7_7 N7_7 1.013501 1_555
H8_0 N4_0 1.028056 1_555
H8_1 N4_1 1.028056 1_555
H8_2 N4_2 1.028056 1_555
H8_3 N4_3 1.028056 1_555
H8_4 N4_4 1.028056 1_555
H8_5 N4_5 1.028056 1_555
H8_6 N4_6 1.028056 1_555
H8_7 N4_7 1.028056 1_555
H9_0 N5_0 1.028056 1_555
H9_1 N5_1 1.028056 1_555
H9_2 N5_2 1.028056 1_555
H9_3 N5_3 1.028056 1_555
H9_4 N5_4 1.028056 1_555
H9_5 N5_5 1.028056 1_555
H9_6 N5_6 1.028056 1_555
H9_7 N5_7 1.028056 1_555
H10_0 N6_0 1.028056 1_555
H10_1 N6_1 1.028056 1_555
H10_2 N6_2 1.028056 1_555
H10_3 N6_3 1.028056 1_555
H10_4 N6_4 1.028056 1_555
H10_5 N6_5 1.028056 1_555
H10_6 N6_6 1.028056 1_555
H10_7 N6_7 1.028056 1_555
H11_0 N7_0 1.028056 1_555
H11_1 N7_1 1.028056 1_555
H11_2 N7_2 1.028056 1_555
H11_3 N7_3 1.028056 1_555
H11_4 N7_4 1.028056 1_555
H11_5 N7_5 1.028056 1_555
H11_6 N7_6 1.028056 1_555
H11_7 N7_7 1.028056 1_555
H12_0 N4_0 1.013112 1_555
H12_1 N4_1 1.013112 1_555
H12_2 N4_2 1.013112 1_555
H12_3 N4_3 1.013112 1_555
H12_4 N4_4 1.013112 1_555
H12_5 N4_5 1.013112 1_555
H12_6 N4_6 1.013112 1_555
H12_7 N4_7 1.013112 1_555
H13_0 N5_0 1.013112 1_555
H13_1 N5_1 1.013112 1_555
H13_2 N5_2 1.013112 1_555
H13_3 N5_3 1.013112 1_555
H13_4 N5_4 1.013112 1_555
H13_5 N5_5 1.013112 1_555
H13_6 N5_6 1.013112 1_555
H13_7 N5_7 1.013112 1_555
H14_0 N6_0 1.013112 1_555
H14_1 N6_1 1.013112 1_555
H14_2 N6_2 1.013112 1_555
H14_3 N6_3 1.013112 1_555
H14_4 N6_4 1.013112 1_555
H14_5 N6_5 1.013112 1_555
H14_6 N6_6 1.013112 1_555
H14_7 N6_7 1.013112 1_555
H15_0 N7_0 1.013112 1_555
H15_1 N7_1 1.013112 1_555
H15_2 N7_2 1.013112 1_555
H15_3 N7_3 1.013112 1_555
H15_4 N7_4 1.013112 1_555
H15_5 N7_5 1.013112 1_555
H15_6 N7_6 1.013112 1_555
H15_7 N7_7 1.013112 1_555
H16_0 N1_0 1.033881 1_555
H16_1 N1_1 1.033881 1_555
H16_2 N1_2 1.033881 1_555
H16_3 N1_3 1.033881 1_555
H16_4 N1_4 1.033881 1_555
H16_5 N1_5 1.033881 1_555
H16_6 N1_6 1.033881 1_555
H16_7 N1_7 1.033881 1_555
H17_0 N0_0 1.033881 1_555
H17_1 N0_1 1.033881 1_555
H17_2 N0_2 1.033881 1_555
H17_3 N0_3 1.033881 1_555
H17_4 N0_4 1.033881 1_555
H17_5 N0_5 1.033881 1_555
H17_6 N0_6 1.033881 1_555
H17_7 N0_7 1.033881 1_555
H18_0 N3_0 1.033881 1_555
H18_1 N3_1 1.033881 1_555
H18_2 N3_2 1.033881 1_555
H18_3 N3_3 1.033881 1_555
H18_4 N3_4 1.033881 1_555
H18_5 N3_5 1.033881 1_555
H18_6 N3_6 1.033881 1_555
H18_7 N3_7 1.033881 1_555
H19_0 N2_0 1.033881 1_555
H19_1 N2_1 1.033881 1_555
H19_2 N2_2 1.033881 1_555
H19_3 N2_3 1.033881 1_555
H19_4 N2_4 1.033881 1_555
H19_5 N2_5 1.033881 1_555
H19_6 N2_6 1.033881 1_555
H19_7 N2_7 1.033881 1_555
Cl0_0 Cl0_7 2.435208 1_544
Cl0_0 Cl0_7 2.435208 1_455
Cl0_1 Cl0_6 2.435208 1_456
Cl0_1 Cl0_6 2.435208 1_545
Cl0_2 Cl0_5 2.435208 1_554
Cl0_2 Cl0_5 2.435208 1_465
Cl0_3 Cl0_4 2.435208 1_466
Cl0_3 Cl0_4 2.435208 1_555
Cl1_0 Cl1_7 2.435208 1_455
Cl1_0 Cl1_7 2.435208 1_544
Cl1_1 Cl1_6 2.435208 1_545
Cl1_1 Cl1_6 2.435208 1_456
Cl1_2 Cl1_5 2.435208 1_465
Cl1_2 Cl1_5 2.435208 1_554
Cl1_3 Cl1_4 2.435208 1_555
Cl1_3 Cl1_4 2.435208 1_466
Cl2_0 Cl2_7 2.435208 1_455
Cl2_0 Cl2_7 2.435208 1_544
Cl2_1 Cl2_6 2.435208 1_456
Cl2_1 Cl2_6 2.435208 1_545
Cl2_2 Cl2_5 2.435208 1_465
Cl2_2 Cl2_5 2.435208 1_554
Cl2_3 Cl2_4 2.435208 1_555
Cl2_3 Cl2_4 2.435208 1_466
Cl3_0 Cl3_7 2.435208 1_544
Cl3_0 Cl3_7 2.435208 1_455
Cl3_1 Cl3_6 2.435208 1_456
Cl3_1 Cl3_6 2.435208 1_545
Cl3_2 Cl3_5 2.435208 1_465
Cl3_2 Cl3_5 2.435208 1_554
Cl3_3 Cl3_4 2.435208 1_466
Cl3_3 Cl3_4 2.435208 1_555
