# generated using pymatgen
data_LiV5O7F
_symmetry_space_group_name_H-M   'P 1'
_cell_length_a   6.07214962
_cell_length_b   10.49213176
_cell_length_c   6.07161927
_cell_angle_alpha   89.12055661
_cell_angle_beta   119.42375589
_cell_angle_gamma   73.77996700
_symmetry_Int_Tables_number   1
_chemical_formula_structural   LiV5O7F
_chemical_formula_sum   'Li2 V10 O14 F2'
_cell_volume   318.08577268
_cell_formula_units_Z   2
loop_
 _symmetry_equiv_pos_site_id
 _symmetry_equiv_pos_as_xyz
  1  'x, y, z'
loop_
 _atom_site_type_symbol
 _atom_site_label
 _atom_site_symmetry_multiplicity
 _atom_site_fract_x
 _atom_site_fract_y
 _atom_site_fract_z
 _atom_site_occupancy
  Li  Li0  1  0.76275500  0.37589900  0.86134200  1
  Li  Li1  1  0.76359100  0.87535900  0.36106400  1
  V  V0  1  0.36981000  0.68442800  0.44384900  1
  V  V1  1  0.36873100  0.18301300  0.94292500  1
  V  V2  1  0.87175200  0.68440600  0.94578600  1
  V  V3  1  0.87403900  0.18297900  0.44819000  1
  V  V4  1  0.36922100  0.43785900  0.19300300  1
  V  V5  1  0.99229000  0.50170900  0.50602600  1
  V  V6  1  0.99150000  0.00051500  0.00804800  1
  V  V7  1  0.37599300  0.69293200  0.93107700  1
  V  V8  1  0.37849700  0.18857500  0.43294800  1
  V  V9  1  0.36792800  0.93874500  0.69343400  1
  O  O0  1  0.12392800  0.06513400  0.81065800  1
  O  O1  1  0.12490700  0.56804000  0.30748800  1
  O  O2  1  0.15806700  0.80128000  0.57179100  1
  O  O3  1  0.16256200  0.29874400  0.07583000  1
  O  O4  1  0.61853100  0.57980800  0.80156400  1
  O  O5  1  0.62218900  0.07859200  0.29861200  1
  O  O6  1  0.62727900  0.80102500  0.04064900  1
  O  O7  1  0.62595200  0.29856500  0.53896000  1
  O  O8  1  0.12701700  0.07215400  0.32933600  1
  O  O9  1  0.12386900  0.57405700  0.82609800  1
  O  O10  1  0.59902800  0.07244700  0.80103900  1
  O  O11  1  0.59986600  0.57412000  0.30174500  1
  O  O12  1  0.12901700  0.29970100  0.57113400  1
  O  O13  1  0.12880200  0.80110000  0.07005300  1
  F  F0  1  0.62098500  0.80988500  0.56856400  1
  F  F1  1  0.62189900  0.30892400  0.06878900  1
loop_
_geom_bond_atom_site_label_1
_geom_bond_atom_site_label_2
_geom_bond_distance
_geom_bond_site_symmetry_2
Li0 O7 2.001869 1_555
Li0 O3 2.002091 1_656
Li0 O4 2.023125 1_555
Li1 O2 1.974057 1_655
Li1 O6 1.975651 1_555
Li1 O5 2.015039 1_565
O0 V6 1.941429 1_456
O0 V3 2.064437 1_455
O0 V1 2.066131 1_555
O0 V9 2.104209 1_545
O1 V5 1.956272 1_455
O1 V0 2.055229 1_555
O1 V2 2.056426 1_454
O1 V4 2.111856 1_555
O2 V0 1.972215 1_555
O2 V7 2.012301 1_555
O2 V9 2.093877 1_555
O3 V1 1.966278 1_554
O3 V8 2.009924 1_555
O3 V4 2.095054 1_555
O4 V0 1.995203 1_555
O4 V2 1.996171 1_555
O4 V7 2.094281 1_555
O5 V1 1.988109 1_554
O5 V3 1.991146 1_555
O5 V8 2.108862 1_555
O6 V2 1.969658 1_554
O6 V7 2.012356 1_554
O6 V9 2.094183 1_554
O7 V3 1.964539 1_555
O7 V8 2.011245 1_555
O7 V4 2.096184 1_555
O8 V6 1.964904 1_455
O8 V8 2.083604 1_555
O8 V3 2.085560 1_455
O8 V9 2.137752 1_545
O9 V5 1.962074 1_455
O9 V2 2.083486 1_455
O9 V7 2.106666 1_555
O9 V4 2.162482 1_556
O10 V6 1.962607 1_556
O10 V8 2.082548 1_555
O10 V1 2.086020 1_555
O10 V9 2.142662 1_545
O11 V5 1.962001 1_555
O11 V0 2.084949 1_555
O11 V7 2.104323 1_554
O11 V4 2.163407 1_555
O12 V5 2.001644 1_455
O12 V1 2.098711 1_555
O12 V3 2.099029 1_455
O12 V8 2.156463 1_555
O13 V6 1.976719 1_465
O13 V0 2.107512 1_555
O13 V2 2.107956 1_454
O13 V7 2.138958 1_554
F0 Li1 2.046126 1_555
F0 V0 2.156303 1_555
F0 V2 2.158359 1_555
F0 V9 2.186183 1_555
F1 Li0 2.044220 1_554
F1 V1 2.168807 1_554
F1 V3 2.169744 1_555
F1 V4 2.182117 1_555
