# generated using pymatgen
data_Pr3Ge13Os4
_symmetry_space_group_name_H-M   'P 1'
_cell_length_a   9.18538800
_cell_length_b   9.18538800
_cell_length_c   9.18538800
_cell_angle_alpha   90.00000000
_cell_angle_beta   90.00000000
_cell_angle_gamma   90.00000000
_symmetry_Int_Tables_number   1
_chemical_formula_structural   Pr3Ge13Os4
_chemical_formula_sum   'Pr6 Ge26 Os8'
_cell_volume   774.98361073
_cell_formula_units_Z   2
loop_
 _symmetry_equiv_pos_site_id
 _symmetry_equiv_pos_as_xyz
  1  'x, y, z'
loop_
 _atom_site_type_symbol
 _atom_site_label
 _atom_site_symmetry_multiplicity
 _atom_site_fract_x
 _atom_site_fract_y
 _atom_site_fract_z
 _atom_site_occupancy
  Pr  Pr0  1  0.00000000  0.50000000  0.75000000  1
  Pr  Pr1  1  0.50000000  0.25000000  0.00000000  1
  Pr  Pr2  1  0.75000000  0.00000000  0.50000000  1
  Pr  Pr3  1  0.00000000  0.50000000  0.25000000  1
  Pr  Pr4  1  0.50000000  0.75000000  0.00000000  1
  Pr  Pr5  1  0.25000000  0.00000000  0.50000000  1
  Ge  Ge0  1  0.50000000  0.50000000  0.50000000  1
  Ge  Ge1  1  0.00000000  0.00000000  0.00000000  1
  Ge  Ge2  1  0.79548100  0.35416900  0.50000000  1
  Ge  Ge3  1  0.64583100  0.50000000  0.79548100  1
  Ge  Ge4  1  0.50000000  0.20451900  0.64583100  1
  Ge  Ge5  1  0.20451900  0.64583100  0.50000000  1
  Ge  Ge6  1  0.35416900  0.50000000  0.20451900  1
  Ge  Ge7  1  0.50000000  0.79548100  0.35416900  1
  Ge  Ge8  1  0.79548100  0.64583100  0.50000000  1
  Ge  Ge9  1  0.64583100  0.50000000  0.20451900  1
  Ge  Ge10  1  0.20451900  0.35416900  0.50000000  1
  Ge  Ge11  1  0.35416900  0.50000000  0.79548100  1
  Ge  Ge12  1  0.50000000  0.79548100  0.64583100  1
  Ge  Ge13  1  0.50000000  0.20451900  0.35416900  1
  Ge  Ge14  1  0.29548100  0.00000000  0.85416900  1
  Ge  Ge15  1  0.14583100  0.29548100  0.00000000  1
  Ge  Ge16  1  0.00000000  0.14583100  0.70451900  1
  Ge  Ge17  1  0.70451900  0.00000000  0.14583100  1
  Ge  Ge18  1  0.85416900  0.70451900  0.00000000  1
  Ge  Ge19  1  0.00000000  0.85416900  0.29548100  1
  Ge  Ge20  1  0.29548100  0.00000000  0.14583100  1
  Ge  Ge21  1  0.14583100  0.70451900  0.00000000  1
  Ge  Ge22  1  0.70451900  0.00000000  0.85416900  1
  Ge  Ge23  1  0.85416900  0.29548100  0.00000000  1
  Ge  Ge24  1  0.00000000  0.14583100  0.29548100  1
  Ge  Ge25  1  0.00000000  0.85416900  0.70451900  1
  Os  Os0  1  0.75000000  0.25000000  0.75000000  1
  Os  Os1  1  0.25000000  0.75000000  0.25000000  1
  Os  Os2  1  0.75000000  0.75000000  0.25000000  1
  Os  Os3  1  0.25000000  0.25000000  0.75000000  1
  Os  Os4  1  0.25000000  0.75000000  0.75000000  1
  Os  Os5  1  0.75000000  0.25000000  0.25000000  1
  Os  Os6  1  0.25000000  0.25000000  0.25000000  1
  Os  Os7  1  0.75000000  0.75000000  0.75000000  1
loop_
_geom_bond_atom_site_label_1
_geom_bond_atom_site_label_2
_geom_bond_distance
_geom_bond_site_symmetry_2
Ge0 Ge2 3.026661 1_555
Ge0 Ge6 3.026661 1_555
Ge0 Ge11 3.026661 1_555
Ge0 Ge13 3.026661 1_555
Ge0 Ge10 3.026661 1_555
Ge0 Ge7 3.026661 1_555
Ge0 Ge5 3.026661 1_555
Ge0 Ge8 3.026661 1_555
Ge0 Ge9 3.026661 1_555
Ge0 Ge12 3.026661 1_555
Ge0 Ge4 3.026661 1_555
Ge0 Ge3 3.026661 1_555
Ge1 Ge17 3.026661 1_455
Ge1 Ge21 3.026661 1_545
Ge1 Ge20 3.026661 1_555
Ge1 Ge24 3.026661 1_555
Ge1 Ge15 3.026661 1_555
Ge1 Ge16 3.026661 1_554
Ge1 Ge23 3.026661 1_455
Ge1 Ge14 3.026661 1_554
Ge1 Ge18 3.026661 1_445
Ge1 Ge19 3.026661 1_545
Ge1 Ge22 3.026661 1_454
Ge1 Ge25 3.026661 1_544
Ge2 Os5 2.522551 1_555
Ge2 Os0 2.522551 1_555
Ge2 Pr3 3.255241 1_655
Ge2 Pr0 3.255241 1_655
Ge2 Pr2 3.279894 1_555
Ge3 Os0 2.522551 1_555
Ge3 Os7 2.522551 1_555
Ge3 Pr4 3.255241 1_556
Ge3 Pr1 3.255241 1_556
Ge3 Pr0 3.279894 1_655
Ge4 Os3 2.522551 1_555
Ge4 Os0 2.522551 1_555
Ge4 Pr2 3.255241 1_555
Ge4 Pr5 3.255241 1_555
Ge4 Pr1 3.279894 1_556
Ge5 Os1 2.522551 1_555
Ge5 Os4 2.522551 1_555
Ge5 Pr3 3.255241 1_555
Ge5 Pr0 3.255241 1_555
Ge5 Pr5 3.279894 1_565
Ge6 Os1 2.522551 1_555
Ge6 Os6 2.522551 1_555
Ge6 Pr1 3.255241 1_555
Ge6 Pr4 3.255241 1_555
Ge6 Pr3 3.279894 1_555
Ge7 Os2 2.522551 1_555
Ge7 Os1 2.522551 1_555
Ge7 Pr2 3.255241 1_565
Ge7 Pr5 3.255241 1_565
Ge7 Pr4 3.279894 1_555
Ge8 Os2 2.522551 1_555
Ge8 Os7 2.522551 1_555
Ge8 Pr3 3.255241 1_655
Ge8 Pr0 3.255241 1_655
Ge8 Pr2 3.279894 1_565
Ge9 Os2 2.522551 1_555
Ge9 Os5 2.522551 1_555
Ge9 Pr1 3.255241 1_555
Ge9 Pr4 3.255241 1_555
Ge9 Pr3 3.279894 1_655
Ge10 Os6 2.522551 1_555
Ge10 Os3 2.522551 1_555
Ge10 Pr3 3.255241 1_555
Ge10 Pr0 3.255241 1_555
Ge10 Pr5 3.279894 1_555
Ge11 Os3 2.522551 1_555
Ge11 Os4 2.522551 1_555
Ge11 Pr4 3.255241 1_556
Ge11 Pr1 3.255241 1_556
Ge11 Pr0 3.279894 1_555
Ge12 Os7 2.522551 1_555
Ge12 Os4 2.522551 1_555
Ge12 Pr2 3.255241 1_565
Ge12 Pr5 3.255241 1_565
Ge12 Pr4 3.279894 1_556
Ge13 Os5 2.522551 1_555
Ge13 Os6 2.522551 1_555
Ge13 Pr2 3.255241 1_555
Ge13 Pr5 3.255241 1_555
Ge13 Pr1 3.279894 1_555
Ge14 Os4 2.522551 1_545
Ge14 Os3 2.522551 1_555
Ge14 Pr4 3.255241 1_546
Ge14 Pr1 3.255241 1_556
Ge14 Pr5 3.279894 1_555
Ge15 Os3 2.522551 1_554
Ge15 Os6 2.522551 1_555
Ge15 Pr0 3.255241 1_554
Ge15 Pr3 3.255241 1_555
Ge15 Pr1 3.279894 1_555
Ge16 Os0 2.522551 1_455
Ge16 Os3 2.522551 1_555
Ge16 Pr2 3.255241 1_455
Ge16 Pr5 3.255241 1_555
Ge16 Pr0 3.279894 1_555
Ge17 Os5 2.522551 1_555
Ge17 Os2 2.522551 1_545
Ge17 Pr1 3.255241 1_555
Ge17 Pr4 3.255241 1_545
Ge17 Pr2 3.279894 1_555
Ge18 Os2 2.522551 1_555
Ge18 Os7 2.522551 1_554
Ge18 Pr3 3.255241 1_655
Ge18 Pr0 3.255241 1_654
Ge18 Pr4 3.279894 1_555
Ge19 Os2 2.522551 1_455
Ge19 Os1 2.522551 1_555
Ge19 Pr5 3.255241 1_565
Ge19 Pr2 3.255241 1_465
Ge19 Pr3 3.279894 1_555
Ge20 Os6 2.522551 1_555
Ge20 Os1 2.522551 1_545
Ge20 Pr4 3.255241 1_545
Ge20 Pr1 3.255241 1_555
Ge20 Pr5 3.279894 1_555
Ge21 Os1 2.522551 1_555
Ge21 Os4 2.522551 1_554
Ge21 Pr0 3.255241 1_554
Ge21 Pr3 3.255241 1_555
Ge21 Pr4 3.279894 1_555
Ge22 Os7 2.522551 1_545
Ge22 Os0 2.522551 1_555
Ge22 Pr4 3.255241 1_546
Ge22 Pr1 3.255241 1_556
Ge22 Pr2 3.279894 1_555
Ge23 Os5 2.522551 1_555
Ge23 Os0 2.522551 1_554
Ge23 Pr3 3.255241 1_655
Ge23 Pr0 3.255241 1_654
Ge23 Pr1 3.279894 1_555
Ge24 Os6 2.522551 1_555
Ge24 Os5 2.522551 1_455
Ge24 Pr2 3.255241 1_455
Ge24 Pr5 3.255241 1_555
Ge24 Pr3 3.279894 1_555
Ge25 Os7 2.522551 1_455
Ge25 Os4 2.522551 1_555
Ge25 Pr5 3.255241 1_565
Ge25 Pr2 3.255241 1_465
Ge25 Pr0 3.279894 1_555
Os0 Pr2 3.247525 1_555
Os0 Pr0 3.247525 1_655
Os0 Pr1 3.247525 1_556
Os1 Pr4 3.247525 1_555
Os1 Pr3 3.247525 1_555
Os1 Pr5 3.247525 1_565
Os2 Pr3 3.247525 1_655
Os2 Pr4 3.247525 1_555
Os2 Pr2 3.247525 1_565
Os3 Pr5 3.247525 1_555
Os3 Pr0 3.247525 1_555
Os3 Pr1 3.247525 1_556
Os4 Pr0 3.247525 1_555
Os4 Pr4 3.247525 1_556
Os4 Pr5 3.247525 1_565
Os5 Pr2 3.247525 1_555
Os5 Pr3 3.247525 1_655
Os5 Pr1 3.247525 1_555
Os6 Pr5 3.247525 1_555
Os6 Pr1 3.247525 1_555
Os6 Pr3 3.247525 1_555
Os7 Pr0 3.247525 1_655
Os7 Pr4 3.247525 1_556
Os7 Pr2 3.247525 1_565
