# generated using pymatgen
data_Te2MoW3(Se2S)2
_symmetry_space_group_name_H-M   'P 1'
_cell_length_a   3.34036530
_cell_length_b   3.34036530
_cell_length_c   38.07463600
_cell_angle_alpha   90.00000000
_cell_angle_beta   90.00000000
_cell_angle_gamma   119.99998604
_symmetry_Int_Tables_number   1
_chemical_formula_structural   Te2MoW3(Se2S)2
_chemical_formula_sum   'Te2 Mo1 W3 Se4 S2'
_cell_volume   367.92083205
_cell_formula_units_Z   1
loop_
 _symmetry_equiv_pos_site_id
 _symmetry_equiv_pos_as_xyz
  1  'x, y, z'
loop_
 _atom_site_type_symbol
 _atom_site_label
 _atom_site_symmetry_multiplicity
 _atom_site_fract_x
 _atom_site_fract_y
 _atom_site_fract_z
 _atom_site_occupancy
  Te  Te0  1  0.33333300  0.66666700  0.04409600  1
  Te  Te1  1  0.33333300  0.66666700  0.14373200  1
  Mo  Mo0  1  0.00000000  0.00000000  0.09389300  1
  W  W0  1  0.00000000  0.00000000  0.46966500  1
  W  W1  1  0.33333300  0.66666700  0.28179900  1
  W  W2  1  0.33333300  0.66666700  0.65755400  1
  Se  Se0  1  0.00000000  0.00000000  0.70150400  1
  Se  Se1  1  0.33333300  0.66666700  0.42568100  1
  Se  Se2  1  0.33333300  0.66666700  0.51365900  1
  Se  Se3  1  0.00000000  0.00000000  0.61356100  1
  S  S0  1  0.00000000  0.00000000  0.32179500  1
  S  S1  1  0.00000000  0.00000000  0.24180900  1
loop_
_geom_bond_atom_site_label_1
_geom_bond_atom_site_label_2
_geom_bond_distance
_geom_bond_site_symmetry_2
Mo0 Te0 2.704471 1_545
Mo0 Te0 2.704474 1_445
Mo0 Te0 2.704474 1_555
Mo0 Te1 2.705593 1_545
Mo0 Te1 2.705595 1_445
Mo0 Te1 2.705595 1_555
Se0 W2 2.553339 1_545
Se0 W2 2.553342 1_445
Se0 W2 2.553342 1_555
Se1 W0 2.554188 1_565
Se1 W0 2.554190 1_555
Se1 W0 2.554190 1_665
Se2 W0 2.554437 1_565
Se2 W0 2.554440 1_555
Se2 W0 2.554440 1_665
Se3 W2 2.554412 1_545
Se3 W2 2.554415 1_555
Se3 W2 2.554415 1_445
S0 W1 2.457307 1_545
S0 W1 2.457310 1_445
S0 W1 2.457310 1_555
S1 W1 2.457166 1_545
S1 W1 2.457168 1_555
S1 W1 2.457168 1_445
