# generated using pymatgen
data_CdGe4C8(S5N)2
_symmetry_space_group_name_H-M   'P 1'
_cell_length_a   8.51177400
_cell_length_b   8.51177400
_cell_length_c   9.44407233
_cell_angle_alpha   116.78482271
_cell_angle_beta   116.78482271
_cell_angle_gamma   90.00000000
_symmetry_Int_Tables_number   1
_chemical_formula_structural   CdGe4C8(S5N)2
_chemical_formula_sum   'Cd1 Ge4 C8 S10 N2'
_cell_volume   527.27369727
_cell_formula_units_Z   1
loop_
 _symmetry_equiv_pos_site_id
 _symmetry_equiv_pos_as_xyz
  1  'x, y, z'
loop_
 _atom_site_type_symbol
 _atom_site_label
 _atom_site_symmetry_multiplicity
 _atom_site_fract_x
 _atom_site_fract_y
 _atom_site_fract_z
 _atom_site_occupancy
  Cd  Cd0  1  0.25000000  0.75000000  0.50000000  1
  Ge  Ge0  1  0.40245300  0.48244900  0.16751900  1
  Ge  Ge1  1  0.76506600  0.68507000  0.16751900  1
  Ge  Ge2  1  0.31493000  0.59754700  0.83248100  1
  Ge  Ge3  1  0.51755100  0.23493400  0.83248100  1
  C  C0  1  0.98682100  0.07102700  0.88524400  1
  C  C1  1  0.89842200  0.81421700  0.88524400  1
  C  C2  1  0.18578300  0.01317900  0.11475600  1
  C  C3  1  0.92897300  0.10157800  0.11475600  1
  C  C4  1  0.59448000  0.14614400  0.46775100  1
  C  C5  1  0.87327000  0.32160700  0.46775100  1
  C  C6  1  0.67839300  0.40552000  0.53224900  1
  C  C7  1  0.85385600  0.12673000  0.53224900  1
  S  S0  1  0.40980900  0.19965200  0.99529500  1
  S  S1  1  0.58548500  0.79564300  0.99529500  1
  S  S2  1  0.20435700  0.59019100  0.00470500  1
  S  S3  1  0.80034800  0.41451500  0.00470500  1
  S  S4  1  0.28761300  0.42794400  0.31447700  1
  S  S5  1  0.02686400  0.88653300  0.31447700  1
  S  S6  1  0.11346700  0.71238700  0.68552300  1
  S  S7  1  0.57205600  0.97313600  0.68552300  1
  S  S8  1  0.68154000  0.68154000  0.36308000  1
  S  S9  1  0.31846000  0.31846000  0.63692000  1
  N  N0  1  0.00000000  0.00000000  0.00000000  1
  N  N1  1  0.75000000  0.25000000  0.50000000  1
loop_
_geom_bond_atom_site_label_1
_geom_bond_atom_site_label_2
_geom_bond_distance
_geom_bond_site_symmetry_2
Cd0 S5 2.619852 1_555
Cd0 S6 2.619852 1_555
Cd0 S4 2.619852 1_555
Cd0 S7 2.619852 1_555
Ge0 S4 2.213591 1_555
Ge0 S2 2.232177 1_555
Ge0 S0 2.237565 1_554
Ge0 S8 2.269542 1_555
Ge1 S5 2.213591 1_655
Ge1 S3 2.232170 1_555
Ge1 S1 2.237568 1_554
Ge1 S8 2.269542 1_555
Ge2 S6 2.213591 1_555
Ge2 S1 2.232170 1_555
Ge2 S2 2.237565 1_556
Ge2 S9 2.269542 1_555
Ge3 S7 2.213591 1_545
Ge3 S0 2.232177 1_555
Ge3 S3 2.237568 1_556
Ge3 S9 2.269542 1_555
C0 N0 1.426037 1_656
C1 N0 1.426039 1_666
C2 N0 1.426037 1_555
C3 N0 1.426039 1_655
C4 N1 1.421446 1_555
C5 N1 1.421439 1_555
C6 N1 1.421446 1_555
C7 N1 1.421439 1_555
