# generated using pymatgen
data_Ca8Ti3Mn5O22
_symmetry_space_group_name_H-M   'P 1'
_cell_length_a   10.93346609
_cell_length_b   15.60233567
_cell_length_c   10.94742167
_cell_angle_alpha   89.73393220
_cell_angle_beta   91.40117398
_cell_angle_gamma   90.38316047
_symmetry_Int_Tables_number   1
_chemical_formula_structural   Ca8Ti3Mn5O22
_chemical_formula_sum   'Ca32 Ti12 Mn20 O88'
_cell_volume   1866.87558104
_cell_formula_units_Z   4
loop_
 _symmetry_equiv_pos_site_id
 _symmetry_equiv_pos_as_xyz
  1  'x, y, z'
loop_
 _atom_site_type_symbol
 _atom_site_label
 _atom_site_symmetry_multiplicity
 _atom_site_fract_x
 _atom_site_fract_y
 _atom_site_fract_z
 _atom_site_occupancy
  Ca  Ca0  1  0.97983529  0.11620612  0.51939877  1
  Ca  Ca1  1  0.98201357  0.11749425  0.01913901  1
  Ca  Ca2  1  0.01214269  0.62549601  0.50649293  1
  Ca  Ca3  1  0.00463250  0.62459184  0.99144469  1
  Ca  Ca4  1  0.54219125  0.11956671  0.48707859  1
  Ca  Ca5  1  0.54170226  0.12266914  0.98647430  1
  Ca  Ca6  1  0.52470632  0.62384699  0.50415174  1
  Ca  Ca7  1  0.52824150  0.62371256  0.00152513  1
  Ca  Ca8  1  0.49849567  0.39028684  0.00120010  1
  Ca  Ca9  1  0.49605824  0.39196560  0.50456772  1
  Ca  Ca10  1  0.50494761  0.85577917  0.99274733  1
  Ca  Ca11  1  0.50017487  0.85480633  0.49471434  1
  Ca  Ca12  1  0.96617791  0.38962149  0.99786934  1
  Ca  Ca13  1  0.96314106  0.38824090  0.50762530  1
  Ca  Ca14  1  0.96733564  0.86611924  0.00743524  1
  Ca  Ca15  1  0.96820568  0.86675914  0.50796835  1
  Ca  Ca16  1  0.23902311  0.39843325  0.26056214  1
  Ca  Ca17  1  0.23526389  0.39901375  0.75611347  1
  Ca  Ca18  1  0.23372451  0.85872541  0.26114700  1
  Ca  Ca19  1  0.23088317  0.85922184  0.75859152  1
  Ca  Ca20  1  0.72635692  0.38842651  0.25483146  1
  Ca  Ca21  1  0.72904890  0.38912675  0.75595107  1
  Ca  Ca22  1  0.72515906  0.86309036  0.24376747  1
  Ca  Ca23  1  0.72731314  0.86159883  0.74520984  1
  Ca  Ca24  1  0.22335823  0.11848323  0.21973369  1
  Ca  Ca25  1  0.22585104  0.11789375  0.72135697  1
  Ca  Ca26  1  0.27560887  0.62768680  0.27095005  1
  Ca  Ca27  1  0.26739136  0.62727770  0.75415566  1
  Ca  Ca28  1  0.77369407  0.12032840  0.25399375  1
  Ca  Ca29  1  0.77295241  0.12284791  0.75408156  1
  Ca  Ca30  1  0.75701945  0.62429270  0.25496516  1
  Ca  Ca31  1  0.76799299  0.62332200  0.75626833  1
  Ti  Ti0  1  0.99106038  0.98999519  0.26019116  1
  Ti  Ti1  1  0.98986786  0.99248536  0.75987384  1
  Ti  Ti2  1  0.99849215  0.50219536  0.25489435  1
  Ti  Ti3  1  0.23730556  0.98933904  0.00607538  1
  Ti  Ti4  1  0.23610351  0.99198055  0.50519383  1
  Ti  Ti5  1  0.24954082  0.50950642  0.01064675  1
  Ti  Ti6  1  0.26477504  0.24002504  0.93037349  1
  Ti  Ti7  1  0.26272764  0.23525710  0.43281080  1
  Ti  Ti8  1  0.25175903  0.74437422  0.00942549  1
  Ti  Ti9  1  0.98504473  0.25674377  0.27297727  1
  Ti  Ti10  1  0.98938074  0.25689936  0.77075473  1
  Ti  Ti11  1  0.00010650  0.74350394  0.25183563  1
  Mn  Mn0  1  0.00139494  0.50228432  0.74974194  1
  Mn  Mn1  1  0.50232359  0.99309832  0.22832431  1
  Mn  Mn2  1  0.50332578  0.99239612  0.72842968  1
  Mn  Mn3  1  0.49771620  0.50264409  0.25639866  1
  Mn  Mn4  1  0.49641293  0.50400937  0.75467493  1
  Mn  Mn5  1  0.25087859  0.50689918  0.50659735  1
  Mn  Mn6  1  0.74411212  0.99640474  0.99199497  1
  Mn  Mn7  1  0.74477870  0.99492037  0.49225700  1
  Mn  Mn8  1  0.74801155  0.50161002  0.00436705  1
  Mn  Mn9  1  0.74718778  0.50274870  0.50644105  1
  Mn  Mn10  1  0.25062897  0.74889591  0.50840084  1
  Mn  Mn11  1  0.74633187  0.25185149  0.00823733  1
  Mn  Mn12  1  0.74466126  0.25118246  0.50620321  1
  Mn  Mn13  1  0.75149450  0.74642552  0.99977023  1
  Mn  Mn14  1  0.75073712  0.74647016  0.50122400  1
  Mn  Mn15  1  0.00108091  0.74848373  0.75140223  1
  Mn  Mn16  1  0.51034153  0.25310330  0.25566013  1
  Mn  Mn17  1  0.51418427  0.25431017  0.75415715  1
  Mn  Mn18  1  0.49844298  0.74568484  0.25445469  1
  Mn  Mn19  1  0.49818144  0.74524412  0.75231803  1
  O  O0  1  0.10956717  0.77737004  0.10981903  1
  O  O1  1  0.10956346  0.77702239  0.60665179  1
  O  O2  1  0.56000062  0.25370750  0.08830773  1
  O  O3  1  0.58036186  0.25373988  0.58686895  1
  O  O4  1  0.60803211  0.76193511  0.11371963  1
  O  O5  1  0.61215465  0.76141371  0.61047284  1
  O  O6  1  0.39094826  0.17790656  0.35721793  1
  O  O7  1  0.39116413  0.18049877  0.85325255  1
  O  O8  1  0.39738219  0.72882368  0.40417233  1
  O  O9  1  0.39036027  0.72807672  0.90892178  1
  O  O10  1  0.91706732  0.24133346  0.42090020  1
  O  O11  1  0.92993858  0.24319245  0.92037733  1
  O  O12  1  0.89860239  0.72949451  0.39023285  1
  O  O13  1  0.89420181  0.73307199  0.89546560  1
  O  O14  1  0.17127512  0.25305374  0.29031458  1
  O  O15  1  0.17380907  0.25233224  0.78605350  1
  O  O16  1  0.14973922  0.73666535  0.35671846  1
  O  O17  1  0.14700206  0.73434695  0.86024938  1
  O  O18  1  0.65921784  0.22598533  0.35181628  1
  O  O19  1  0.66188008  0.22577755  0.85416361  1
  O  O20  1  0.64373374  0.72833467  0.35680297  1
  O  O21  1  0.64361031  0.72630557  0.86096808  1
  O  O22  1  0.35219133  0.76243308  0.15407832  1
  O  O23  1  0.35147319  0.76783898  0.65072341  1
  O  O24  1  0.85556520  0.27264568  0.16253920  1
  O  O25  1  0.85670873  0.27055552  0.66077330  1
  O  O26  1  0.86050913  0.77120980  0.14415578  1
  O  O27  1  0.86178480  0.77255044  0.64392775  1
  O  O28  1  0.35631247  0.48690045  0.14744633  1
  O  O29  1  0.35364028  0.48676363  0.64885537  1
  O  O30  1  0.36401054  0.03596654  0.10810250  1
  O  O31  1  0.36567796  0.03585601  0.60812770  1
  O  O32  1  0.86213063  0.47942945  0.14348369  1
  O  O33  1  0.85989535  0.47802601  0.64593877  1
  O  O34  1  0.86142990  0.97921928  0.14895440  1
  O  O35  1  0.86047187  0.97925700  0.64773348  1
  O  O36  1  0.16773317  0.01470055  0.35200820  1
  O  O37  1  0.17040714  0.01632287  0.85505528  1
  O  O38  1  0.15121436  0.51609365  0.35497525  1
  O  O39  1  0.14692030  0.51680647  0.85902048  1
  O  O40  1  0.63572835  0.02808990  0.34650973  1
  O  O41  1  0.63424074  0.03002905  0.84541957  1
  O  O42  1  0.64189883  0.51935781  0.36047699  1
  O  O43  1  0.64000233  0.52186111  0.86298216  1
  O  O44  1  0.39341011  0.51800478  0.40397811  1
  O  O45  1  0.38824534  0.51762825  0.90350840  1
  O  O46  1  0.89601224  0.01310468  0.39618102  1
  O  O47  1  0.89428633  0.01492079  0.89574840  1
  O  O48  1  0.90109423  0.51808835  0.38930695  1
  O  O49  1  0.89639541  0.51423704  0.88936192  1
  O  O50  1  0.11346896  0.46850435  0.10523942  1
  O  O51  1  0.10862821  0.47630109  0.60329470  1
  O  O52  1  0.10917939  0.98477749  0.10858578  1
  O  O53  1  0.10961838  0.98392462  0.60900505  1
  O  O54  1  0.60628676  0.48603116  0.12118591  1
  O  O55  1  0.60537233  0.48822185  0.62088464  1
  O  O56  1  0.60216424  0.98247961  0.08232513  1
  O  O57  1  0.60260179  0.98133063  0.58201590  1
  O  O58  1  0.01328345  0.37628618  0.29306465  1
  O  O59  1  0.01640970  0.37623322  0.78458897  1
  O  O60  1  0.01462199  0.87616496  0.29460247  1
  O  O61  1  0.01751491  0.87966893  0.79747356  1
  O  O62  1  0.49229954  0.37773256  0.28696655  1
  O  O63  1  0.49714999  0.37903364  0.78364481  1
  O  O64  1  0.49809727  0.87046420  0.28150594  1
  O  O65  1  0.50071176  0.86960915  0.78144854  1
  O  O66  1  0.48751085  0.62484897  0.21554889  1
  O  O67  1  0.48186793  0.62534762  0.71571438  1
  O  O68  1  0.99859033  0.13041989  0.23171938  1
  O  O69  1  0.99974771  0.12844357  0.73083270  1
  O  O70  1  0.99951308  0.62487235  0.21005897  1
  O  O71  1  0.99362585  0.62220309  0.71700537  1
  O  O72  1  0.18522189  0.16761345  0.02898906  1
  O  O73  1  0.18405258  0.15863705  0.52668422  1
  O  O74  1  0.22669785  0.62479779  0.04850717  1
  O  O75  1  0.22982826  0.63156880  0.54054514  1
  O  O76  1  0.75672335  0.12701430  0.04144439  1
  O  O77  1  0.75536961  0.12567087  0.53804641  1
  O  O78  1  0.75340273  0.62368739  0.04153008  1
  O  O79  1  0.75076073  0.62457112  0.54043880  1
  O  O80  1  0.29048782  0.34090468  0.49193210  1
  O  O81  1  0.28620271  0.35021951  0.97796402  1
  O  O82  1  0.28128956  0.88266040  0.47429587  1
  O  O83  1  0.28178966  0.87986794  0.97608389  1
  O  O84  1  0.74629952  0.37659233  0.47018044  1
  O  O85  1  0.74517573  0.37669738  0.97057619  1
  O  O86  1  0.75200274  0.86974466  0.45876301  1
  O  O87  1  0.74885416  0.87038010  0.96060013  1
loop_
_geom_bond_atom_site_label_1
_geom_bond_atom_site_label_2
_geom_bond_distance
_geom_bond_site_symmetry_2
Ca0 O46 2.277532 1_555
Ca0 O73 2.324232 1_655
Ca0 O10 2.325356 1_555
Ca0 O69 2.328173 1_555
Ca0 O77 2.473085 1_555
Ca0 O53 2.680999 1_645
Ca0 O35 2.875257 1_545
Ca1 O47 2.289562 1_554
Ca1 O11 2.303154 1_554
Ca1 O68 2.339370 1_555
Ca1 O72 2.350577 1_655
Ca1 O76 2.486706 1_555
Ca1 O52 2.670734 1_645
Ca1 O34 2.904714 1_545
Ca2 O71 2.318672 1_455
Ca2 O12 2.392555 1_455
Ca2 O75 2.401362 1_555
Ca2 O48 2.417614 1_455
Ca2 O51 2.758577 1_555
Ca2 O1 2.803456 1_555
Ca2 O16 2.831870 1_555
Ca2 O38 2.856813 1_555
Ca2 O79 2.890801 1_455
Ca3 O13 2.318467 1_455
Ca3 O49 2.353692 1_455
Ca3 O70 2.395310 1_456
Ca3 O74 2.492167 1_556
Ca3 O17 2.732961 1_555
Ca3 O39 2.741878 1_555
Ca3 O78 2.814051 1_456
Ca3 O0 2.932072 1_556
Ca4 O6 2.340334 1_555
Ca4 O40 2.359646 1_555
Ca4 O77 2.384711 1_555
Ca4 O3 2.395257 1_555
Ca4 O57 2.476472 1_545
Ca4 O18 2.574509 1_555
Ca4 O31 2.694763 1_555
Ca5 O2 2.338295 1_556
Ca5 O7 2.353801 1_555
Ca5 O41 2.369401 1_555
Ca5 O76 2.413016 1_556
Ca5 O56 2.507266 1_546
Ca5 O19 2.540810 1_555
Ca5 O30 2.729826 1_556
Ca6 O67 2.374401 1_555
Ca6 O8 2.399558 1_555
Ca6 O44 2.428693 1_555
Ca6 O79 2.493629 1_555
Ca6 O5 2.610960 1_555
Ca6 O55 2.614080 1_555
Ca6 O42 2.631313 1_555
Ca6 O20 2.646363 1_555
Ca7 O66 2.395796 1_555
Ca7 O9 2.427868 1_554
Ca7 O45 2.477118 1_554
Ca7 O78 2.489881 1_555
Ca7 O43 2.541212 1_554
Ca7 O21 2.562430 1_554
Ca7 O4 2.620605 1_555
Ca7 O54 2.646212 1_555
Ca8 O54 2.294520 1_555
Ca8 O63 2.388625 1_554
Ca8 O81 2.407530 1_554
Ca8 O2 2.423113 1_555
Ca8 O45 2.548239 1_554
Ca8 O28 2.725367 1_555
Ca8 O85 2.735700 1_554
Ca9 O55 2.285766 1_555
Ca9 O80 2.380626 1_555
Ca9 O62 2.392854 1_555
Ca9 O3 2.506073 1_555
Ca9 O44 2.507648 1_555
Ca9 O29 2.698172 1_555
Ca9 O84 2.782976 1_555
Ca10 O4 2.258110 1_556
Ca10 O65 2.321584 1_555
Ca10 O56 2.436844 1_556
Ca10 O83 2.473349 1_555
Ca10 O9 2.511768 1_555
Ca10 O87 2.706345 1_555
Ca10 O22 2.849162 1_556
Ca10 O21 2.938609 1_555
Ca11 O5 2.271347 1_555
Ca11 O64 2.345277 1_555
Ca11 O82 2.439870 1_555
Ca11 O57 2.449516 1_555
Ca11 O8 2.458319 1_555
Ca11 O23 2.736083 1_555
Ca11 O86 2.798880 1_555
Ca12 O50 2.320374 1_656
Ca12 O49 2.393222 1_555
Ca12 O59 2.421912 1_655
Ca12 O85 2.434599 1_555
Ca12 O32 2.435044 1_556
Ca12 O11 2.466917 1_555
Ca12 O24 2.844272 1_556
Ca13 O51 2.327563 1_655
Ca13 O33 2.377780 1_555
Ca13 O84 2.401937 1_555
Ca13 O58 2.433316 1_655
Ca13 O48 2.488647 1_555
Ca13 O10 2.527894 1_555
Ca13 O25 2.752235 1_555
Ca14 O0 2.349699 1_655
Ca14 O61 2.384236 1_654
Ca14 O26 2.416399 1_555
Ca14 O87 2.432157 1_554
Ca14 O13 2.530721 1_554
Ca14 O52 2.637318 1_655
Ca14 O34 2.644874 1_555
Ca14 O47 2.733787 1_564
Ca15 O1 2.334374 1_655
Ca15 O27 2.402339 1_555
Ca15 O60 2.406006 1_655
Ca15 O86 2.412277 1_555
Ca15 O12 2.604404 1_555
Ca15 O53 2.617840 1_655
Ca15 O35 2.636310 1_555
Ca15 O46 2.699110 1_565
Ca16 O28 2.263024 1_555
Ca16 O38 2.334479 1_555
Ca16 O14 2.404626 1_555
Ca16 O50 2.420666 1_555
Ca16 O58 2.523492 1_555
Ca16 O80 2.730167 1_555
Ca16 O62 2.797897 1_555
Ca16 O44 2.941127 1_555
Ca17 O29 2.228004 1_555
Ca17 O39 2.382429 1_555
Ca17 O15 2.404102 1_555
Ca17 O59 2.444022 1_555
Ca17 O51 2.461763 1_555
Ca17 O81 2.590493 1_555
Ca17 O45 2.946291 1_555
Ca18 O22 2.329238 1_555
Ca18 O16 2.360034 1_555
Ca18 O82 2.408518 1_555
Ca18 O60 2.449365 1_555
Ca18 O0 2.466765 1_555
Ca18 O36 2.741051 1_565
Ca18 O64 2.898286 1_555
Ca18 O52 2.899256 1_555
Ca19 O23 2.298394 1_555
Ca19 O61 2.405192 1_555
Ca19 O17 2.425186 1_555
Ca19 O83 2.454086 1_555
Ca19 O1 2.461739 1_555
Ca19 O37 2.764122 1_565
Ca19 O53 2.850237 1_555
Ca19 O65 2.958076 1_555
Ca20 O84 2.368728 1_555
Ca20 O32 2.397872 1_555
Ca20 O54 2.468846 1_555
Ca20 O24 2.529959 1_555
Ca20 O42 2.542219 1_555
Ca20 O62 2.595795 1_555
Ca20 O18 2.842158 1_555
Ca21 O33 2.337342 1_555
Ca21 O85 2.359077 1_555
Ca21 O55 2.512816 1_555
Ca21 O63 2.564581 1_555
Ca21 O25 2.565120 1_555
Ca21 O43 2.591328 1_555
Ca21 O19 2.859889 1_555
Ca22 O26 2.357116 1_555
Ca22 O86 2.367414 1_555
Ca22 O4 2.462195 1_555
Ca22 O64 2.530120 1_555
Ca22 O34 2.569470 1_555
Ca22 O20 2.597891 1_555
Ca22 O56 2.878982 1_555
Ca22 O40 2.993815 1_565
Ca23 O27 2.332955 1_555
Ca23 O87 2.368473 1_555
Ca23 O5 2.471557 1_555
Ca23 O65 2.522672 1_555
Ca23 O35 2.578823 1_555
Ca23 O21 2.627803 1_555
Ca23 O57 2.902533 1_555
Ca23 O41 3.043359 1_565
Ca24 O72 2.251377 1_555
Ca24 O36 2.257624 1_555
Ca24 O14 2.319970 1_555
Ca24 O30 2.376738 1_555
Ca24 O68 2.472506 1_455
Ca24 O6 2.517488 1_555
Ca24 O52 2.702841 1_545
Ca25 O37 2.242801 1_555
Ca25 O73 2.257983 1_555
Ca25 O15 2.296649 1_555
Ca25 O31 2.376063 1_555
Ca25 O69 2.483393 1_455
Ca25 O7 2.483488 1_555
Ca25 O53 2.721908 1_545
Ca26 O38 2.396253 1_555
Ca26 O16 2.403315 1_555
Ca26 O66 2.409940 1_555
Ca26 O74 2.480947 1_555
Ca26 O8 2.507587 1_555
Ca26 O44 2.573493 1_555
Ca26 O22 2.600353 1_555
Ca26 O28 2.746542 1_555
Ca27 O75 2.365081 1_555
Ca27 O67 2.392953 1_555
Ca27 O17 2.448349 1_555
Ca27 O39 2.459444 1_555
Ca27 O23 2.633963 1_555
Ca27 O9 2.652675 1_555
Ca27 O29 2.669980 1_555
Ca27 O45 2.691594 1_555
Ca27 O71 3.011403 1_455
Ca28 O40 2.324746 1_555
Ca28 O76 2.331633 1_555
Ca28 O18 2.353821 1_555
Ca28 O68 2.480768 1_555
Ca28 O46 2.629477 1_555
Ca28 O34 2.682416 1_545
Ca28 O24 2.728499 1_555
Ca29 O19 2.315547 1_555
Ca29 O41 2.329914 1_555
Ca29 O77 2.368367 1_555
Ca29 O69 2.499774 1_555
Ca29 O47 2.627868 1_555
Ca29 O25 2.681191 1_555
Ca29 O35 2.719863 1_545
Ca30 O78 2.335993 1_555
Ca30 O20 2.350189 1_555
Ca30 O42 2.371699 1_555
Ca30 O12 2.675781 1_555
Ca30 O48 2.699827 1_555
Ca30 O70 2.708230 1_555
Ca30 O26 2.830702 1_555
Ca30 O32 2.836841 1_555
Ca31 O79 2.365680 1_555
Ca31 O43 2.421193 1_555
Ca31 O21 2.422291 1_555
Ca31 O71 2.514637 1_555
Ca31 O49 2.626682 1_555
Ca31 O13 2.654846 1_555
Ca31 O33 2.778998 1_555
Ca31 O27 2.826355 1_555
Mn0 O71 1.905453 1_455
Mn0 O33 1.933455 1_455
Mn0 O49 1.944293 1_455
Mn0 O39 1.979573 1_555
Mn0 O59 2.008642 1_555
Mn0 O51 2.052700 1_555
Mn1 O56 1.965671 1_555
Mn1 O64 1.997974 1_555
Mn1 O40 2.000777 1_565
Mn1 O30 2.091509 1_565
Mn2 O57 1.966537 1_555
Mn2 O41 1.984922 1_565
Mn2 O65 1.999401 1_555
Mn2 O31 2.089884 1_565
Mn3 O42 1.939257 1_555
Mn3 O54 1.939323 1_555
Mn3 O28 1.944392 1_555
Mn3 O66 1.959683 1_555
Mn3 O62 1.976643 1_555
Mn3 O44 2.016329 1_555
Mn4 O55 1.928137 1_555
Mn4 O29 1.939064 1_555
Mn4 O67 1.945372 1_555
Mn4 O43 1.963235 1_555
Mn4 O63 1.974120 1_555
Mn4 O45 2.049238 1_555
Mn5 O29 1.923802 1_555
Mn5 O44 1.949560 1_555
Mn5 O51 1.957891 1_555
Mn5 O38 1.968392 1_555
Mn5 O75 1.997882 1_555
Mn5 O80 2.634991 1_555
Mn6 O56 1.871441 1_556
Mn6 O47 1.991229 1_565
Mn6 O87 1.998894 1_555
Mn6 O41 2.049254 1_565
Mn6 O76 2.113667 1_566
Mn6 O34 2.135949 1_556
Mn7 O57 1.869573 1_555
Mn7 O86 1.991270 1_555
Mn7 O46 1.999209 1_565
Mn7 O40 2.035375 1_565
Mn7 O77 2.104718 1_565
Mn7 O35 2.109923 1_555
Mn8 O43 1.949651 1_554
Mn8 O78 1.949710 1_555
Mn8 O32 1.975840 1_555
Mn8 O85 1.985310 1_554
Mn8 O54 2.045642 1_555
Mn8 O49 2.085486 1_554
Mn9 O79 1.938461 1_555
Mn9 O42 1.963649 1_555
Mn9 O33 1.976948 1_555
Mn9 O84 2.009682 1_555
Mn9 O55 2.028018 1_555
Mn9 O48 2.151857 1_555
Mn10 O75 1.875881 1_555
Mn10 O23 1.909581 1_555
Mn10 O1 1.955210 1_555
Mn10 O16 1.980177 1_555
Mn10 O8 2.018440 1_555
Mn10 O82 2.144069 1_555
Mn11 O19 1.946342 1_554
Mn11 O76 1.983221 1_555
Mn11 O85 1.989228 1_554
Mn11 O24 2.070333 1_555
Mn11 O2 2.237842 1_555
Mn11 O11 2.252230 1_554
Mn12 O18 1.951379 1_555
Mn12 O77 1.991180 1_555
Mn12 O84 1.994285 1_555
Mn12 O3 2.021684 1_555
Mn12 O25 2.086605 1_555
Mn12 O10 2.130772 1_555
Mn13 O21 1.926307 1_555
Mn13 O78 1.966876 1_556
Mn13 O13 1.968616 1_555
Mn13 O87 1.979251 1_555
Mn13 O26 1.993992 1_556
Mn13 O4 2.044159 1_556
Mn14 O79 1.947814 1_555
Mn14 O20 1.964108 1_555
Mn14 O5 1.968880 1_555
Mn14 O86 1.976683 1_555
Mn14 O27 1.996704 1_555
Mn14 O12 2.065182 1_555
Mn15 O27 1.939257 1_455
Mn15 O17 1.980712 1_555
Mn15 O13 1.998378 1_455
Mn15 O71 2.008396 1_455
Mn15 O1 2.048042 1_555
Mn15 O61 2.115721 1_555
Mn16 O2 1.923488 1_555
Mn16 O18 1.964156 1_555
Mn16 O62 1.987991 1_555
Mn16 O6 2.086863 1_555
Mn17 O19 1.980679 1_555
Mn17 O63 1.984778 1_555
Mn17 O3 1.985593 1_555
Mn17 O7 2.085975 1_555
Mn18 O22 1.936412 1_555
Mn18 O66 1.937030 1_555
Mn18 O20 1.941136 1_555
Mn18 O64 1.970646 1_555
Mn18 O4 1.989031 1_555
Mn18 O8 2.014244 1_555
Mn19 O67 1.921140 1_555
Mn19 O23 1.962359 1_555
Mn19 O65 1.967780 1_555
Mn19 O21 1.985153 1_555
Mn19 O5 2.028440 1_555
Mn19 O9 2.119197 1_555
O0 Ti8 1.997348 1_555
O0 Ti11 2.050253 1_555
O6 Ti7 1.879151 1_555
O7 Ti6 1.888504 1_555
O9 Ti8 1.913355 1_556
O10 Ti9 1.812575 1_555
O11 Ti10 1.788309 1_555
O12 Ti11 1.910715 1_655
O14 Ti7 1.853048 1_555
O14 Ti9 2.041516 1_455
O15 Ti6 1.856104 1_555
O15 Ti10 2.021004 1_455
O16 Ti11 1.978783 1_555
O17 Ti8 1.977831 1_556
O22 Ti8 1.925573 1_555
O24 Ti9 1.856224 1_555
O25 Ti10 1.874973 1_555
O26 Ti11 1.955022 1_655
O28 Ti5 1.909215 1_555
O30 Ti3 1.901135 1_545
O31 Ti4 1.913528 1_545
O32 Ti2 1.935082 1_555
O34 Ti0 1.853179 1_555
O35 Ti1 1.861380 1_555
O36 Ti4 1.852959 1_545
O36 Ti0 2.188348 1_445
O37 Ti3 1.839591 1_546
O37 Ti1 2.239112 1_445
O38 Ti2 1.985823 1_455
O39 Ti5 1.983947 1_556
O45 Ti5 1.942833 1_556
O46 Ti0 1.874021 1_545
O47 Ti1 1.874292 1_545
O48 Ti2 1.855876 1_555
O50 Ti5 1.936861 1_555
O50 Ti2 2.158311 1_455
O52 Ti3 1.817052 1_555
O52 Ti0 2.129911 1_455
O53 Ti4 1.814671 1_555
O53 Ti1 2.137775 1_455
O58 Ti9 1.901373 1_455
O58 Ti2 2.013270 1_455
O59 Ti10 1.889435 1_455
O60 Ti0 1.832396 1_455
O60 Ti11 2.128267 1_555
O61 Ti1 1.831231 1_455
O68 Ti9 2.031259 1_555
O68 Ti0 2.212850 1_545
O69 Ti10 2.057744 1_555
O69 Ti1 2.145895 1_545
O70 Ti11 1.908587 1_655
O70 Ti2 1.973797 1_555
O72 Ti6 1.794414 1_554
O73 Ti7 1.800892 1_555
O73 Ti4 2.678141 1_545
O74 Ti5 1.867591 1_555
O74 Ti8 1.931409 1_555
O80 Ti7 1.794906 1_555
O81 Ti6 1.810869 1_555
O81 Ti5 2.548282 1_556
O82 Ti4 1.814534 1_555
O83 Ti3 1.812667 1_556
O83 Ti8 2.167838 1_556
