# generated using pymatgen
data_CaUTi2O7
_symmetry_space_group_name_H-M   'P 1'
_cell_length_a   7.22735277
_cell_length_b   7.22735277
_cell_length_c   7.22735277
_cell_angle_alpha   120.72960267
_cell_angle_beta   119.30904334
_cell_angle_gamma   89.97093991
_symmetry_Int_Tables_number   1
_chemical_formula_structural   CaUTi2O7
_chemical_formula_sum   'Ca2 U2 Ti4 O14'
_cell_volume   266.81629501
_cell_formula_units_Z   2
loop_
 _symmetry_equiv_pos_site_id
 _symmetry_equiv_pos_as_xyz
  1  'x, y, z'
loop_
 _atom_site_type_symbol
 _atom_site_label
 _atom_site_symmetry_multiplicity
 _atom_site_fract_x
 _atom_site_fract_y
 _atom_site_fract_z
 _atom_site_occupancy
  Ca  Ca0  1  0.00000000  0.00000000  0.50000000  1
  Ca  Ca1  1  0.00000000  0.50000000  0.00000000  1
  U  U0  1  0.00000000  0.00000000  0.00000000  1
  U  U1  1  0.50000000  0.00000000  0.50000000  1
  Ti  Ti0  1  0.50000000  0.50000000  0.50000000  1
  Ti  Ti1  1  0.50000000  0.00000000  0.00000000  1
  Ti  Ti2  1  0.50000000  0.50000000  0.00000000  1
  Ti  Ti3  1  0.00000000  0.50000000  0.50000000  1
  O  O0  1  0.13482600  0.88482600  0.25000000  1
  O  O1  1  0.86517400  0.11517400  0.75000000  1
  O  O2  1  0.41725200  0.16725200  0.25000000  1
  O  O3  1  0.82160100  0.57160100  0.25000000  1
  O  O4  1  0.42839900  0.58808700  0.26083900  1
  O  O5  1  0.82724800  0.16756000  0.23916100  1
  O  O6  1  0.42839900  0.16756000  0.84031200  1
  O  O7  1  0.82724800  0.58808700  0.65968800  1
  O  O8  1  0.58274800  0.83274800  0.75000000  1
  O  O9  1  0.17839900  0.42839900  0.75000000  1
  O  O10  1  0.57160100  0.41191300  0.73916100  1
  O  O11  1  0.17275200  0.83244000  0.76083900  1
  O  O12  1  0.57160100  0.83244000  0.15968800  1
  O  O13  1  0.17275200  0.41191300  0.34031200  1
loop_
_geom_bond_atom_site_label_1
_geom_bond_atom_site_label_2
_geom_bond_distance
_geom_bond_site_symmetry_2
Ca0 O1 2.256754 1_455
Ca0 O0 2.256754 1_545
Ca0 O9 2.553326 1_555
Ca0 O3 2.553326 1_445
Ca0 O5 2.570316 1_455
Ca0 O6 2.570316 1_555
Ca0 O12 2.570316 1_445
Ca0 O11 2.570316 1_545
Ca1 O1 2.256754 1_454
Ca1 O0 2.256754 1_555
Ca1 O3 2.553326 1_455
Ca1 O9 2.553326 1_554
Ca1 O7 2.570316 1_454
Ca1 O10 2.570316 1_454
Ca1 O4 2.570316 1_555
Ca1 O13 2.570316 1_555
O0 U1 2.172460 1_565
O0 U0 2.172460 1_565
O1 U0 2.172460 1_656
O1 U1 2.172460 1_555
O2 Ti0 1.977021 1_555
O2 Ti1 1.977021 1_555
O2 U0 2.501383 1_555
O2 U1 2.501383 1_555
O3 Ti2 1.966964 1_555
O3 Ti3 1.966964 1_655
O4 Ti0 1.977210 1_555
O4 Ti2 1.988771 1_555
O4 U1 2.446471 1_565
O5 Ti1 1.977210 1_555
O5 Ti3 1.988771 1_655
O5 U0 2.446471 1_655
O6 Ti1 1.977210 1_556
O6 Ti2 1.988771 1_556
O6 U1 2.446471 1_555
O7 Ti0 1.977210 1_555
O7 Ti3 1.988771 1_655
O7 U0 2.446471 1_666
O8 Ti1 1.977021 1_566
O8 Ti0 1.977021 1_555
O8 U1 2.501383 1_565
O8 U0 2.501383 1_666
O9 Ti3 1.966964 1_555
O9 Ti2 1.966964 1_556
O10 Ti0 1.977210 1_555
O10 Ti2 1.988771 1_556
O10 U1 2.446471 1_555
O11 Ti1 1.977210 1_566
O11 Ti3 1.988771 1_555
O11 U0 2.446471 1_566
O12 Ti1 1.977210 1_565
O12 Ti2 1.988771 1_555
O12 U1 2.446471 1_565
O13 Ti0 1.977210 1_555
O13 Ti3 1.988771 1_555
O13 U0 2.446471 1_555
