# generated using pymatgen
data_Y(GaCo)6
_symmetry_space_group_name_H-M   'P 1'
_cell_length_a   5.03798700
_cell_length_b   6.46684572
_cell_length_c   6.46684572
_cell_angle_alpha   83.75658087
_cell_angle_beta   67.07510212
_cell_angle_gamma   67.07510212
_symmetry_Int_Tables_number   1
_chemical_formula_structural   Y(GaCo)6
_chemical_formula_sum   'Y1 Ga6 Co6'
_cell_volume   178.49190120
_cell_formula_units_Z   1
loop_
 _symmetry_equiv_pos_site_id
 _symmetry_equiv_pos_as_xyz
  1  'x, y, z'
loop_
 _atom_site_type_symbol
 _atom_site_label
 _atom_site_symmetry_multiplicity
 _atom_site_fract_x
 _atom_site_fract_y
 _atom_site_fract_z
 _atom_site_occupancy
  Y  Y0  1  0.00000000  0.00000000  0.00000000  1
  Ga  Ga0  1  0.50000000  0.18877200  0.81122800  1
  Ga  Ga1  1  0.50000000  0.81122800  0.18877200  1
  Ga  Ga2  1  0.34120400  0.65879600  0.65879600  1
  Ga  Ga3  1  0.65879600  0.34120400  0.34120400  1
  Ga  Ga4  1  0.00000000  0.34587000  0.65413000  1
  Ga  Ga5  1  0.00000000  0.65413000  0.34587000  1
  Co  Co0  1  0.50000000  0.00000000  0.50000000  1
  Co  Co1  1  0.50000000  0.50000000  0.00000000  1
  Co  Co2  1  0.00000000  0.50000000  0.00000000  1
  Co  Co3  1  0.00000000  0.00000000  0.50000000  1
  Co  Co4  1  0.26144000  0.23856000  0.23856000  1
  Co  Co5  1  0.73856000  0.76144000  0.76144000  1
loop_
_geom_bond_atom_site_label_1
_geom_bond_atom_site_label_2
_geom_bond_distance
_geom_bond_site_symmetry_2
Ga0 Ga4 2.860954 1_555
Ga0 Ga4 2.860954 1_655
Ga0 Y0 3.000283 1_556
Ga0 Y0 3.000283 1_656
Ga1 Ga5 2.860954 1_555
Ga1 Ga5 2.860954 1_655
Ga1 Y0 3.000283 1_565
Ga1 Y0 3.000283 1_665
Ga2 Ga3 2.606480 1_555
Ga2 Y0 2.800264 1_566
Ga3 Y0 2.800264 1_655
Ga4 Ga5 2.661484 1_555
Ga4 Y0 2.986204 1_556
Ga5 Y0 2.986204 1_565
Co0 Ga0 2.464848 1_555
Co0 Ga1 2.464848 1_545
Co0 Co5 2.500830 1_545
Co0 Co4 2.500830 1_555
Co0 Co3 2.518994 1_555
Co0 Co3 2.518994 1_655
Co0 Ga5 2.545812 1_645
Co0 Ga4 2.545812 1_555
Co0 Ga3 2.608756 1_555
Co0 Ga2 2.608756 1_545
Co0 Y0 3.233423 1_655
Co0 Y0 3.233423 1_556
Co1 Ga1 2.464848 1_555
Co1 Ga0 2.464848 1_554
Co1 Co5 2.500830 1_554
Co1 Co4 2.500830 1_555
Co1 Co2 2.518994 1_555
Co1 Co2 2.518994 1_655
Co1 Ga4 2.545812 1_654
Co1 Ga5 2.545812 1_555
Co1 Ga3 2.608756 1_555
Co1 Ga2 2.608756 1_554
Co1 Y0 3.233423 1_655
Co1 Y0 3.233423 1_565
Co2 Ga1 2.464848 1_455
Co2 Ga0 2.464848 1_554
Co2 Co5 2.500830 1_454
Co2 Co4 2.500830 1_555
Co2 Ga4 2.545812 1_554
Co2 Ga5 2.545812 1_555
Co2 Ga2 2.608756 1_554
Co2 Ga3 2.608756 1_455
Co2 Y0 3.233423 1_555
Co2 Y0 3.233423 1_565
Co3 Ga0 2.464848 1_455
Co3 Ga1 2.464848 1_545
Co3 Co5 2.500830 1_445
Co3 Co4 2.500830 1_555
Co3 Ga5 2.545812 1_545
Co3 Ga4 2.545812 1_555
Co3 Ga2 2.608756 1_545
Co3 Ga3 2.608756 1_455
Co3 Y0 3.233423 1_556
Co3 Y0 3.233423 1_555
Co4 Ga4 2.524806 1_555
Co4 Ga5 2.524806 1_555
Co4 Ga1 2.547469 1_545
Co4 Ga0 2.547469 1_554
Co4 Ga3 2.656119 1_555
Co4 Ga3 2.656119 1_455
Co4 Y0 3.190385 1_555
Co4 Y0 3.190386 1_655
Co5 Ga5 2.524806 1_655
Co5 Ga4 2.524806 1_655
Co5 Ga0 2.547469 1_565
Co5 Ga1 2.547469 1_556
Co5 Ga2 2.656119 1_555
Co5 Ga2 2.656119 1_655
Co5 Y0 3.190385 1_666
Co5 Y0 3.190386 1_566
