# generated using pymatgen
data_KGa(PH)2
_symmetry_space_group_name_H-M   'P 1'
_cell_length_a   8.11323300
_cell_length_b   10.64004600
_cell_length_c   6.97577200
_cell_angle_alpha   90.00000000
_cell_angle_beta   90.00000000
_cell_angle_gamma   90.00000000
_symmetry_Int_Tables_number   1
_chemical_formula_structural   KGa(PH)2
_chemical_formula_sum   'K4 Ga4 P8 H8'
_cell_volume   602.18472003
_cell_formula_units_Z   4
loop_
 _symmetry_equiv_pos_site_id
 _symmetry_equiv_pos_as_xyz
  1  'x, y, z'
loop_
 _atom_site_type_symbol
 _atom_site_label
 _atom_site_symmetry_multiplicity
 _atom_site_fract_x
 _atom_site_fract_y
 _atom_site_fract_z
 _atom_site_occupancy
  K  K0  1  0.75000000  0.77522600  0.29756900  1
  K  K1  1  0.25000000  0.22477400  0.70243100  1
  K  K2  1  0.25000000  0.72477400  0.79756900  1
  K  K3  1  0.75000000  0.27522600  0.20243100  1
  Ga  Ga0  1  0.75000000  0.96399600  0.79274100  1
  Ga  Ga1  1  0.25000000  0.03600400  0.20725900  1
  Ga  Ga2  1  0.25000000  0.53600400  0.29274100  1
  Ga  Ga3  1  0.75000000  0.46399600  0.70725900  1
  P  P0  1  0.00200200  0.94103600  0.61530300  1
  P  P1  1  0.99799800  0.05896400  0.38469700  1
  P  P2  1  0.99799800  0.55896400  0.11530300  1
  P  P3  1  0.50200200  0.05896400  0.38469700  1
  P  P4  1  0.00200200  0.44103600  0.88469700  1
  P  P5  1  0.49799800  0.94103600  0.61530300  1
  P  P6  1  0.49799800  0.44103600  0.88469700  1
  P  P7  1  0.50200200  0.55896400  0.11530300  1
  H  H0  1  0.75000000  0.59435000  0.59621100  1
  H  H1  1  0.25000000  0.40565000  0.40378900  1
  H  H2  1  0.25000000  0.90565000  0.09621100  1
  H  H3  1  0.75000000  0.09435000  0.90378900  1
  H  H4  1  0.75000000  0.84424600  0.93190600  1
  H  H5  1  0.25000000  0.15575400  0.06809400  1
  H  H6  1  0.25000000  0.65575400  0.43190600  1
  H  H7  1  0.75000000  0.34424600  0.56809400  1
loop_
_geom_bond_atom_site_label_1
_geom_bond_atom_site_label_2
_geom_bond_distance
_geom_bond_site_symmetry_2
K0 P2 3.310552 1_555
K0 P7 3.310552 1_555
K0 P0 3.493607 1_655
K0 P5 3.493607 1_555
K0 P1 3.678598 1_565
K0 P3 3.678598 1_565
K1 P4 3.310552 1_555
K1 P6 3.310552 1_555
K1 P3 3.493607 1_555
K1 P1 3.493607 1_455
K1 P5 3.678598 1_545
K1 P0 3.678598 1_545
K2 P0 3.310552 1_555
K2 P5 3.310552 1_555
K2 P7 3.493607 1_556
K2 P2 3.493607 1_456
K2 P6 3.678598 1_555
K2 P4 3.678598 1_555
K3 P1 3.310552 1_555
K3 P3 3.310552 1_555
K3 P6 3.493607 1_554
K3 P4 3.493607 1_654
K3 P2 3.678598 1_555
K3 P7 3.678598 1_555
Ga0 H3 1.588637 1_565
Ga0 H4 1.601832 1_555
Ga0 P5 2.402485 1_555
Ga0 P0 2.402485 1_655
Ga1 H2 1.588637 1_545
Ga1 H5 1.601832 1_555
Ga1 P3 2.402485 1_555
Ga1 P1 2.402485 1_455
Ga2 H1 1.588637 1_555
Ga2 H6 1.601832 1_555
Ga2 P7 2.402485 1_555
Ga2 P2 2.402485 1_455
Ga3 H0 1.588637 1_555
Ga3 H7 1.601832 1_555
Ga3 P6 2.402485 1_555
Ga3 P4 2.402485 1_655
P0 P1 2.040404 1_465
P2 P4 2.040404 1_654
P3 P5 2.040404 1_545
P6 P7 2.040404 1_556
H0 K0 2.836155 1_555
H1 K1 2.836155 1_555
H2 K2 2.836155 1_554
H3 K3 2.836155 1_556
H4 K0 2.654392 1_556
H5 K1 2.654392 1_554
H6 K2 2.654392 1_555
H7 K3 2.654392 1_555
