# generated using pymatgen
data_Zr(PbN)4
_symmetry_space_group_name_H-M   'P 1'
_cell_length_a   6.97888214
_cell_length_b   7.91208718
_cell_length_c   9.59071129
_cell_angle_alpha   65.68163988
_cell_angle_beta   76.01876034
_cell_angle_gamma   55.44479426
_symmetry_Int_Tables_number   1
_chemical_formula_structural   Zr(PbN)4
_chemical_formula_sum   'Zr2 Pb8 N8'
_cell_volume   397.42615619
_cell_formula_units_Z   2
loop_
 _symmetry_equiv_pos_site_id
 _symmetry_equiv_pos_as_xyz
  1  'x, y, z'
loop_
 _atom_site_type_symbol
 _atom_site_label
 _atom_site_symmetry_multiplicity
 _atom_site_fract_x
 _atom_site_fract_y
 _atom_site_fract_z
 _atom_site_occupancy
  Zr  Zr0  1  0.75007500  0.81159400  0.75019300  1
  Zr  Zr1  1  0.24992500  0.18840600  0.24980700  1
  Pb  Pb0  1  0.76225000  0.61502500  0.13684600  1
  Pb  Pb1  1  0.23775000  0.38497500  0.86315400  1
  Pb  Pb2  1  0.76759400  0.29267800  0.95308000  1
  Pb  Pb3  1  0.23240600  0.70732200  0.04692000  1
  Pb  Pb4  1  0.73245200  0.51308100  0.54681300  1
  Pb  Pb5  1  0.26754800  0.48691900  0.45318700  1
  Pb  Pb6  1  0.26258400  0.98643300  0.63662500  1
  Pb  Pb7  1  0.73741600  0.01356700  0.36337500  1
  N  N0  1  0.97424900  0.57640000  0.64636700  1
  N  N1  1  0.02575100  0.42360000  0.35363300  1
  N  N2  1  0.97332100  0.72603600  0.91363800  1
  N  N3  1  0.02667900  0.27396400  0.08636200  1
  N  N4  1  0.52586800  0.69721300  0.85378200  1
  N  N5  1  0.47413200  0.30278700  0.14621800  1
  N  N6  1  0.47331600  0.88722700  0.41325200  1
  N  N7  1  0.52668400  0.11277300  0.58674800  1
loop_
_geom_bond_atom_site_label_1
_geom_bond_atom_site_label_2
_geom_bond_distance
_geom_bond_site_symmetry_2
N0 Zr0 2.091125 1_555
N0 Pb5 2.393231 1_655
N0 Pb1 2.468374 1_655
N0 Pb4 2.478247 1_555
N1 Zr1 2.091125 1_555
N1 Pb4 2.393231 1_455
N1 Pb0 2.468374 1_455
N1 Pb5 2.478247 1_555
N2 Zr0 2.110114 1_555
N2 Pb3 2.362719 1_656
N2 Pb1 2.432509 1_655
N2 Pb0 2.432975 1_556
N3 Zr1 2.110114 1_555
N3 Pb2 2.362719 1_454
N3 Pb0 2.432509 1_455
N3 Pb1 2.432975 1_554
N4 Zr0 2.090231 1_555
N4 Pb3 2.394799 1_556
N4 Pb6 2.470698 1_555
N4 Pb2 2.477497 1_555
N5 Zr1 2.090231 1_555
N5 Pb2 2.394799 1_554
N5 Pb7 2.470698 1_555
N5 Pb3 2.477497 1_555
N6 Zr1 2.110975 1_565
N6 Pb4 2.365970 1_555
N6 Pb7 2.428029 1_565
N6 Pb6 2.433410 1_555
N7 Zr0 2.110975 1_545
N7 Pb5 2.365970 1_555
N7 Pb6 2.428029 1_545
N7 Pb7 2.433410 1_555
