# generated using pymatgen
data_Cs2PH5O6
_symmetry_space_group_name_H-M   'P 1'
_cell_length_a   7.79618007
_cell_length_b   8.34293668
_cell_length_c   14.23019000
_cell_angle_alpha   90.00000000
_cell_angle_beta   90.00000000
_cell_angle_gamma   119.78425638
_symmetry_Int_Tables_number   1
_chemical_formula_structural   Cs2PH5O6
_chemical_formula_sum   'Cs8 P4 H20 O24'
_cell_volume   803.30817424
_cell_formula_units_Z   4
loop_
 _symmetry_equiv_pos_site_id
 _symmetry_equiv_pos_as_xyz
  1  'x, y, z'
loop_
 _atom_site_type_symbol
 _atom_site_label
 _atom_site_symmetry_multiplicity
 _atom_site_fract_x
 _atom_site_fract_y
 _atom_site_fract_z
 _atom_site_occupancy
  Cs  Cs0  1  0.26013000  0.75679700  0.23315900  1
  Cs  Cs1  1  0.73987000  0.74320300  0.73315900  1
  Cs  Cs2  1  0.73987000  0.24320300  0.76684100  1
  Cs  Cs3  1  0.26013000  0.25679700  0.26684100  1
  Cs  Cs4  1  0.74972700  0.75591100  0.41504000  1
  Cs  Cs5  1  0.25027300  0.74408900  0.91504000  1
  Cs  Cs6  1  0.25027300  0.24408900  0.58496000  1
  Cs  Cs7  1  0.74972700  0.25591100  0.08496000  1
  P  P0  1  0.74552500  0.23697000  0.35602500  1
  P  P1  1  0.25447500  0.26303000  0.85602500  1
  P  P2  1  0.25447500  0.76303000  0.64397500  1
  P  P3  1  0.74552500  0.73697000  0.14397500  1
  H  H0  1  0.30907000  0.12061500  0.02131000  1
  H  H1  1  0.69093000  0.37938500  0.52131000  1
  H  H2  1  0.69093000  0.87938500  0.97869000  1
  H  H3  1  0.30907000  0.62061500  0.47869000  1
  H  H4  1  0.18619800  0.87906200  0.47654700  1
  H  H5  1  0.81380200  0.62093800  0.97654700  1
  H  H6  1  0.81380200  0.12093800  0.52345300  1
  H  H7  1  0.18619800  0.37906200  0.02345300  1
  H  H8  1  0.13848700  0.94855700  0.07783400  1
  H  H9  1  0.86151300  0.55144300  0.57783400  1
  H  H10  1  0.86151300  0.05144300  0.92216600  1
  H  H11  1  0.13848700  0.44855700  0.42216600  1
  H  H12  1  0.35833600  0.04961500  0.42005700  1
  H  H13  1  0.64166400  0.45038500  0.92005700  1
  H  H14  1  0.64166400  0.95038500  0.57994300  1
  H  H15  1  0.35833600  0.54961500  0.07994300  1
  H  H16  1  0.77503800  0.47838700  0.26799500  1
  H  H17  1  0.22496200  0.02161300  0.76799500  1
  H  H18  1  0.22496200  0.52161300  0.73200500  1
  H  H19  1  0.77503800  0.97838700  0.23200500  1
  O  O0  1  0.85990800  0.42995900  0.29596100  1
  O  O1  1  0.14009200  0.07004100  0.79596100  1
  O  O2  1  0.14009200  0.57004100  0.70403900  1
  O  O3  1  0.85990800  0.92995900  0.20403900  1
  O  O4  1  0.58529200  0.24704900  0.41515800  1
  O  O5  1  0.41470800  0.25295100  0.91515800  1
  O  O6  1  0.41470800  0.75295100  0.58484200  1
  O  O7  1  0.58529200  0.74704900  0.08484200  1
  O  O8  1  0.65716200  0.07697100  0.28411000  1
  O  O9  1  0.34283800  0.42302900  0.78411000  1
  O  O10  1  0.34283800  0.92302900  0.71589000  1
  O  O11  1  0.65716200  0.57697100  0.21589000  1
  O  O12  1  0.91064500  0.23765700  0.41554200  1
  O  O13  1  0.08935500  0.26234300  0.91554200  1
  O  O14  1  0.08935500  0.76234300  0.58445800  1
  O  O15  1  0.91064500  0.73765700  0.08445800  1
  O  O16  1  0.21513300  0.95300700  0.41760300  1
  O  O17  1  0.78486700  0.54699300  0.91760300  1
  O  O18  1  0.78486700  0.04699300  0.58239700  1
  O  O19  1  0.21513300  0.45300700  0.08239700  1
  O  O20  1  0.28115300  0.04489500  0.07946000  1
  O  O21  1  0.71884700  0.45510500  0.57946000  1
  O  O22  1  0.71884700  0.95510500  0.92054000  1
  O  O23  1  0.28115300  0.54489500  0.42054000  1
loop_
_geom_bond_atom_site_label_1
_geom_bond_atom_site_label_2
_geom_bond_distance
_geom_bond_site_symmetry_2
Cs0 O8 3.004629 1_565
Cs0 O0 3.084985 1_455
Cs0 H15 3.105215 1_555
Cs0 H8 3.138728 1_555
Cs0 O20 3.193180 1_565
Cs0 O16 3.203458 1_555
Cs0 O19 3.204071 1_555
Cs0 O23 3.248106 1_555
Cs0 O7 3.330512 1_555
Cs0 O15 3.390369 1_455
Cs1 O9 3.004629 1_555
Cs1 O1 3.084985 1_665
Cs1 H14 3.105215 1_555
Cs1 H9 3.138728 1_555
Cs1 O21 3.193180 1_555
Cs1 O17 3.203458 1_555
Cs1 O18 3.204071 1_565
Cs1 O22 3.248106 1_555
Cs1 O6 3.330512 1_555
Cs1 O14 3.390369 1_655
Cs2 O10 3.004629 1_545
Cs2 O2 3.084985 1_655
Cs2 H13 3.105215 1_555
Cs2 H10 3.138728 1_555
Cs2 O22 3.193180 1_545
Cs2 O18 3.203458 1_555
Cs2 O17 3.204071 1_555
Cs2 O21 3.248106 1_555
Cs2 O5 3.330512 1_555
Cs2 O13 3.390369 1_655
Cs3 O11 3.004629 1_555
Cs3 O3 3.084985 1_445
Cs3 H12 3.105215 1_555
Cs3 H11 3.138728 1_555
Cs3 O23 3.193180 1_555
Cs3 O19 3.203458 1_555
Cs3 O16 3.204071 1_545
Cs3 O20 3.248106 1_555
Cs3 O4 3.330512 1_555
Cs3 O12 3.390369 1_455
Cs4 O11 3.116153 1_555
Cs4 H19 3.147101 1_555
Cs4 H4 3.150785 1_655
Cs4 O16 3.153258 1_655
Cs4 H3 3.169269 1_555
Cs4 O23 3.171949 1_555
Cs4 H14 3.194800 1_555
Cs4 H16 3.198785 1_555
Cs4 H6 3.223765 1_565
Cs4 H9 3.242381 1_555
Cs4 O3 3.259251 1_555
Cs4 H1 3.306722 1_555
Cs4 O18 3.314099 1_565
Cs4 O21 3.351145 1_555
Cs4 O12 3.566286 1_565
Cs4 O8 3.617643 1_565
Cs5 O10 3.116153 1_555
Cs5 H18 3.147101 1_555
Cs5 H5 3.150785 1_455
Cs5 O17 3.153258 1_455
Cs5 H2 3.169269 1_555
Cs5 O22 3.171949 1_555
Cs5 H15 3.194800 1_556
Cs5 H17 3.198785 1_565
Cs5 H7 3.223765 1_556
Cs5 H8 3.242381 1_556
Cs5 O2 3.259251 1_555
Cs5 H0 3.306722 1_566
Cs5 O19 3.314099 1_556
Cs5 O20 3.351145 1_566
Cs5 O13 3.566286 1_555
Cs5 O9 3.617643 1_555
Cs6 O9 3.116153 1_555
Cs6 H17 3.147101 1_555
Cs6 H6 3.150785 1_455
Cs6 O18 3.153258 1_455
Cs6 H1 3.169269 1_555
Cs6 O21 3.171949 1_555
Cs6 H12 3.194800 1_555
Cs6 H18 3.198785 1_555
Cs6 H4 3.223765 1_545
Cs6 H11 3.242381 1_555
Cs6 O1 3.259251 1_555
Cs6 H3 3.306722 1_555
Cs6 O16 3.314099 1_545
Cs6 O23 3.351145 1_555
Cs6 O14 3.566286 1_545
Cs6 O10 3.617643 1_545
Cs7 O8 3.116153 1_555
Cs7 H16 3.147101 1_555
Cs7 H7 3.150785 1_655
Cs7 O19 3.153258 1_655
Cs7 H0 3.169269 1_555
Cs7 O20 3.171949 1_555
Cs7 H13 3.194800 1_554
Cs7 H19 3.198785 1_545
Cs7 H5 3.223765 1_554
Cs7 H10 3.242381 1_554
Cs7 O0 3.259251 1_555
Cs7 H2 3.306722 1_544
Cs7 O17 3.314099 1_554
Cs7 O22 3.351145 1_544
Cs7 O15 3.566286 1_555
Cs7 O11 3.617643 1_555
H0 O20 0.997289 1_555
H1 O21 0.997289 1_555
H2 O22 0.997289 1_555
H3 O23 0.997289 1_555
H4 O16 0.998387 1_555
H5 O17 0.998387 1_555
H6 O18 0.998387 1_555
H7 O19 0.998387 1_555
H8 O20 0.997753 1_565
H9 O21 0.997753 1_555
H10 O22 0.997753 1_545
H11 O23 0.997753 1_555
H12 O16 1.001654 1_545
H13 O17 1.001654 1_555
H14 O18 1.001654 1_565
H15 O19 1.001654 1_555
H16 O0 1.012422 1_555
H17 O1 1.012422 1_555
H18 O2 1.012422 1_555
H19 O3 1.012422 1_555
O0 P0 1.640654 1_555
O1 P1 1.640654 1_555
O2 P2 1.640654 1_555
O3 P3 1.640654 1_555
O4 P0 1.542732 1_555
O5 P1 1.542732 1_555
O6 P2 1.542732 1_555
O7 P3 1.542732 1_555
O8 P0 1.546005 1_555
O9 P1 1.546005 1_555
O10 P2 1.546005 1_555
O11 P3 1.546005 1_555
O12 P0 1.538558 1_555
O13 P1 1.538558 1_555
O14 P2 1.538558 1_555
O15 P3 1.538558 1_555
