# generated using pymatgen
data_MnZn3S4
_symmetry_space_group_name_H-M   'P 1'
_cell_length_a   3.88063346
_cell_length_b   3.88063346
_cell_length_c   12.73254100
_cell_angle_alpha   90.00000000
_cell_angle_beta   90.00000000
_cell_angle_gamma   119.99999075
_symmetry_Int_Tables_number   1
_chemical_formula_structural   MnZn3S4
_chemical_formula_sum   'Mn1 Zn3 S4'
_cell_volume   166.05463519
_cell_formula_units_Z   1
loop_
 _symmetry_equiv_pos_site_id
 _symmetry_equiv_pos_as_xyz
  1  'x, y, z'
loop_
 _atom_site_type_symbol
 _atom_site_label
 _atom_site_symmetry_multiplicity
 _atom_site_fract_x
 _atom_site_fract_y
 _atom_site_fract_z
 _atom_site_occupancy
  Mn  Mn0  1  0.00000000  0.00000000  0.24800500  1
  Zn  Zn0  1  0.00000000  0.00000000  0.74947800  1
  Zn  Zn1  1  0.33333300  0.66666700  0.99704400  1
  Zn  Zn2  1  0.33333300  0.66666700  0.50248500  1
  S  S0  1  0.00000000  0.00000000  0.05880700  1
  S  S1  1  0.00000000  0.00000000  0.56355400  1
  S  S2  1  0.33333300  0.66666700  0.31739600  1
  S  S3  1  0.33333300  0.66666700  0.81123300  1
loop_
_geom_bond_atom_site_label_1
_geom_bond_atom_site_label_2
_geom_bond_distance
_geom_bond_site_symmetry_2
Mn0 S2 2.408397 1_545
Mn0 S2 2.408400 1_555
Mn0 S2 2.408400 1_445
Mn0 S0 2.408971 1_555
S0 Zn1 2.374487 1_544
S0 Zn1 2.374490 1_444
S0 Zn1 2.374490 1_554
S1 Zn0 2.367285 1_555
S1 Zn2 2.371575 1_545
S1 Zn2 2.371578 1_555
S1 Zn2 2.371578 1_445
S2 Zn2 2.356653 1_555
S3 Zn1 2.365846 1_555
S3 Zn0 2.374453 1_565
S3 Zn0 2.374456 1_665
S3 Zn0 2.374456 1_555
