# generated using pymatgen
data_LiTm2(ClO)2
_symmetry_space_group_name_H-M   'P 1'
_cell_length_a   3.92341500
_cell_length_b   3.92341500
_cell_length_c   7.50207800
_cell_angle_alpha   90.00000000
_cell_angle_beta   90.00000000
_cell_angle_gamma   90.00000000
_symmetry_Int_Tables_number   1
_chemical_formula_structural   LiTm2(ClO)2
_chemical_formula_sum   'Li1 Tm2 Cl2 O2'
_cell_volume   115.48087651
_cell_formula_units_Z   1
loop_
 _symmetry_equiv_pos_site_id
 _symmetry_equiv_pos_as_xyz
  1  'x, y, z'
loop_
 _atom_site_type_symbol
 _atom_site_label
 _atom_site_symmetry_multiplicity
 _atom_site_fract_x
 _atom_site_fract_y
 _atom_site_fract_z
 _atom_site_occupancy
  Li  Li0  1  0.00000000  0.50000000  0.90223000  1
  Tm  Tm0  1  0.00000000  0.50000000  0.24298100  1
  Tm  Tm1  1  0.50000000  0.00000000  0.86407000  1
  Cl  Cl0  1  0.00000000  0.50000000  0.60605100  1
  Cl  Cl1  1  0.50000000  0.00000000  0.33190700  1
  O  O0  1  0.00000000  0.00000000  0.98138000  1
  O  O1  1  0.50000000  0.50000000  0.98138000  1
loop_
_geom_bond_atom_site_label_1
_geom_bond_atom_site_label_2
_geom_bond_distance
_geom_bond_site_symmetry_2
Li0 O0 2.049605 1_565
Li0 O1 2.049605 1_555
Li0 O0 2.049605 1_555
Li0 O1 2.049605 1_455
Li0 Tm0 2.556341 1_556
Cl0 Li0 2.221958 1_555
Cl0 Tm0 2.723779 1_555
Cl1 Tm0 2.853359 1_555
Cl1 Tm0 2.853359 1_545
Cl1 Tm0 2.853359 1_645
Cl1 Tm0 2.853359 1_655
O0 Tm1 2.150074 1_455
O0 Tm1 2.150074 1_555
O0 Tm0 2.774870 1_556
O0 Tm0 2.774870 1_546
O1 Tm1 2.150074 1_565
O1 Tm1 2.150074 1_555
O1 Tm0 2.774870 1_556
O1 Tm0 2.774870 1_656
