# generated using pymatgen
data_Sr4LiMn2Cu3(SO)4
_symmetry_space_group_name_H-M   'P 1'
_cell_length_a   5.82734479
_cell_length_b   5.82750459
_cell_length_c   9.31388159
_cell_angle_alpha   89.99600576
_cell_angle_beta   71.77371048
_cell_angle_gamma   89.99135131
_symmetry_Int_Tables_number   1
_chemical_formula_structural   Sr4LiMn2Cu3(SO)4
_chemical_formula_sum   'Sr4 Li1 Mn2 Cu3 S4 O4'
_cell_volume   300.42032172
_cell_formula_units_Z   1
loop_
 _symmetry_equiv_pos_site_id
 _symmetry_equiv_pos_as_xyz
  1  'x, y, z'
loop_
 _atom_site_type_symbol
 _atom_site_label
 _atom_site_symmetry_multiplicity
 _atom_site_fract_x
 _atom_site_fract_y
 _atom_site_fract_z
 _atom_site_occupancy
  Sr  Sr0  1  0.40887100  0.00198200  0.18623800  1
  Sr  Sr1  1  0.90487200  0.49803800  0.18624400  1
  Sr  Sr2  1  0.09512700  0.49804500  0.81375700  1
  Sr  Sr3  1  0.59112900  0.00198500  0.81376100  1
  Li  Li0  1  0.00000000  0.75001300  0.49999900  1
  Mn  Mn0  1  0.50000400  0.50057100  0.99999300  1
  Mn  Mn1  1  0.00000000  0.99944600  0.99999800  1
  Cu  Cu0  1  0.50000300  0.25000000  0.49999800  1
  Cu  Cu1  1  0.50000400  0.75000900  0.49999600  1
  Cu  Cu2  1  0.99999900  0.25000300  0.49999600  1
  S  S0  1  0.17612800  0.00125600  0.65079400  1
  S  S1  1  0.67312700  0.49867900  0.65078400  1
  S  S2  1  0.32686100  0.49867700  0.34924000  1
  S  S3  1  0.82386900  0.00124800  0.34922100  1
  O  O0  1  0.24877900  0.25001300  0.00242300  1
  O  O1  1  0.75007900  0.75001100  0.99984300  1
  O  O2  1  0.75122200  0.25001200  0.99757000  1
  O  O3  1  0.24992400  0.75001100  0.00014700  1
loop_
_geom_bond_atom_site_label_1
_geom_bond_atom_site_label_2
_geom_bond_distance
_geom_bond_site_symmetry_2
Li0 S3 2.463735 1_465
Li0 S2 2.463999 1_555
Li0 S0 2.464164 1_565
Li0 S1 2.464339 1_455
Mn0 O3 2.057857 1_556
Mn0 O1 2.058155 1_555
Mn0 O2 2.062594 1_555
Mn0 O0 2.062916 1_556
Mn0 S1 3.089341 1_555
Mn0 S2 3.089676 1_556
Mn1 O3 2.057818 1_556
Mn1 O1 2.058128 1_455
Mn1 O2 2.062561 1_465
Mn1 O0 2.062875 1_566
Mn1 S0 3.089296 1_565
Mn1 S3 3.089465 1_466
Cu0 S2 2.444420 1_555
Cu0 S3 2.444758 1_555
Cu0 S1 2.444844 1_555
Cu0 S0 2.445042 1_555
Cu1 S0 2.453506 1_565
Cu1 S3 2.453592 1_565
Cu1 S1 2.453746 1_555
Cu1 S2 2.453911 1_555
Cu2 S1 2.454945 1_555
Cu2 S2 2.455029 1_655
Cu2 S0 2.455273 1_655
Cu2 S3 2.455452 1_555
S0 Sr3 3.232418 1_555
S0 Sr2 3.234172 1_555
S0 Sr2 3.267653 1_545
S0 Sr3 3.269303 1_455
S1 Sr2 3.232756 1_555
S1 Sr3 3.233671 1_555
S1 Sr3 3.268266 1_565
S1 Sr2 3.269010 1_655
S2 Sr1 3.232843 1_555
S2 Sr0 3.233835 1_555
S2 Sr0 3.268298 1_565
S2 Sr1 3.269103 1_455
S3 Sr0 3.232506 1_555
S3 Sr1 3.234171 1_555
S3 Sr1 3.267764 1_545
S3 Sr0 3.269341 1_655
O0 Sr0 2.624673 1_555
O0 Sr1 2.624835 1_455
O0 Sr2 2.638594 1_554
O0 Sr3 2.638827 1_554
O1 Sr1 2.638702 1_556
O1 Sr0 2.638875 1_566
O1 Sr3 2.649778 1_565
O1 Sr2 2.649979 1_655
O2 Sr3 2.624907 1_555
O2 Sr2 2.625025 1_655
O2 Sr1 2.638909 1_556
O2 Sr0 2.639056 1_556
O3 Sr2 2.638900 1_554
O3 Sr3 2.639039 1_564
O3 Sr0 2.650112 1_565
O3 Sr1 2.650259 1_455
