# generated using pymatgen
data_MgMnGeO4
_symmetry_space_group_name_H-M   'P 1'
_cell_length_a   5.01230100
_cell_length_b   6.23672200
_cell_length_c   10.83272400
_cell_angle_alpha   90.00000000
_cell_angle_beta   90.00000000
_cell_angle_gamma   90.00000000
_symmetry_Int_Tables_number   1
_chemical_formula_structural   MgMnGeO4
_chemical_formula_sum   'Mg4 Mn4 Ge4 O16'
_cell_volume   338.63450448
_cell_formula_units_Z   4
loop_
 _symmetry_equiv_pos_site_id
 _symmetry_equiv_pos_as_xyz
  1  'x, y, z'
loop_
 _atom_site_type_symbol
 _atom_site_label
 _atom_site_symmetry_multiplicity
 _atom_site_fract_x
 _atom_site_fract_y
 _atom_site_fract_z
 _atom_site_occupancy
  Mg  Mg0  1  0.50000000  0.00000000  0.50000000  1
  Mg  Mg1  1  0.00000000  0.50000000  0.00000000  1
  Mg  Mg2  1  0.50000000  0.50000000  0.50000000  1
  Mg  Mg3  1  0.00000000  0.00000000  0.00000000  1
  Mn  Mn0  1  0.49964800  0.75000000  0.22216700  1
  Mn  Mn1  1  0.00035200  0.75000000  0.72216700  1
  Mn  Mn2  1  0.50035200  0.25000000  0.77783300  1
  Mn  Mn3  1  0.99964800  0.25000000  0.27783300  1
  Ge  Ge0  1  0.93365000  0.75000000  0.40938300  1
  Ge  Ge1  1  0.56635000  0.75000000  0.90938300  1
  Ge  Ge2  1  0.06635000  0.25000000  0.59061700  1
  Ge  Ge3  1  0.43365000  0.25000000  0.09061700  1
  O  O0  1  0.74137200  0.75000000  0.05603200  1
  O  O1  1  0.75862800  0.75000000  0.55603200  1
  O  O2  1  0.25862800  0.25000000  0.94396800  1
  O  O3  1  0.24137200  0.25000000  0.44396800  1
  O  O4  1  0.28377500  0.75000000  0.41398700  1
  O  O5  1  0.21622500  0.75000000  0.91398700  1
  O  O6  1  0.71622500  0.25000000  0.58601300  1
  O  O7  1  0.78377500  0.25000000  0.08601300  1
  O  O8  1  0.77032400  0.97544400  0.34116100  1
  O  O9  1  0.72967600  0.52455600  0.84116100  1
  O  O10  1  0.22967600  0.47544400  0.65883900  1
  O  O11  1  0.27032400  0.02455600  0.15883900  1
  O  O12  1  0.22967600  0.02455600  0.65883900  1
  O  O13  1  0.27032400  0.47544400  0.15883900  1
  O  O14  1  0.77032400  0.52455600  0.34116100  1
  O  O15  1  0.72967600  0.97544400  0.84116100  1
loop_
_geom_bond_atom_site_label_1
_geom_bond_atom_site_label_2
_geom_bond_distance
_geom_bond_site_symmetry_2
Mg0 O4 2.115136 1_545
Mg0 O6 2.115136 1_555
Mg0 O1 2.116581 1_545
Mg0 O3 2.116581 1_555
Mg0 O12 2.195450 1_555
Mg0 O8 2.195450 1_545
Mg1 O7 2.115136 1_455
Mg1 O5 2.115136 1_554
Mg1 O2 2.116581 1_554
Mg1 O0 2.116581 1_455
Mg1 O13 2.195450 1_555
Mg1 O9 2.195450 1_454
Mg2 O4 2.115136 1_555
Mg2 O6 2.115136 1_555
Mg2 O1 2.116581 1_555
Mg2 O3 2.116581 1_555
Mg2 O10 2.195450 1_555
Mg2 O14 2.195450 1_555
Mg3 O7 2.115136 1_455
Mg3 O5 2.115136 1_544
Mg3 O2 2.116581 1_554
Mg3 O0 2.116581 1_445
Mg3 O11 2.195450 1_555
Mg3 O15 2.195450 1_444
Mn0 O0 2.169530 1_555
Mn0 O11 2.173454 1_565
Mn0 O13 2.173454 1_555
Mn0 O8 2.340765 1_555
Mn0 O14 2.340765 1_555
Mn0 O4 2.342771 1_555
Mn1 O1 2.169530 1_455
Mn1 O12 2.173454 1_565
Mn1 O10 2.173454 1_555
Mn1 O9 2.340765 1_455
Mn1 O15 2.340765 1_455
Mn1 O5 2.342771 1_555
Mn2 O2 2.169530 1_555
Mn2 O9 2.173454 1_555
Mn2 O15 2.173454 1_545
Mn2 O10 2.340765 1_555
Mn2 O12 2.340765 1_555
Mn2 O6 2.342771 1_555
Mn3 O3 2.169530 1_655
Mn3 O8 2.173454 1_545
Mn3 O14 2.173454 1_555
Mn3 O13 2.340765 1_655
Mn3 O11 2.340765 1_655
Mn3 O7 2.342771 1_555
Ge0 O4 1.755640 1_655
Ge0 O8 1.786970 1_555
Ge0 O14 1.786970 1_555
Ge0 O1 1.814736 1_555
Ge1 O5 1.755640 1_555
Ge1 O9 1.786970 1_555
Ge1 O15 1.786970 1_555
Ge1 O0 1.814736 1_556
Ge2 O6 1.755640 1_455
Ge2 O10 1.786970 1_555
Ge2 O12 1.786970 1_555
Ge2 O3 1.814736 1_555
Ge3 O7 1.755640 1_555
Ge3 O13 1.786970 1_555
Ge3 O11 1.786970 1_555
Ge3 O2 1.814736 1_554
