# generated using pymatgen
data_SmAl7Au3
_symmetry_space_group_name_H-M   'P 1'
_cell_length_a   8.41528678
_cell_length_b   8.41528678
_cell_length_c   8.41528703
_cell_angle_alpha   57.38367498
_cell_angle_beta   57.38367498
_cell_angle_gamma   57.38367019
_symmetry_Int_Tables_number   1
_chemical_formula_structural   SmAl7Au3
_chemical_formula_sum   'Sm2 Al14 Au6'
_cell_volume   396.02494100
_cell_formula_units_Z   2
loop_
 _symmetry_equiv_pos_site_id
 _symmetry_equiv_pos_as_xyz
  1  'x, y, z'
loop_
 _atom_site_type_symbol
 _atom_site_label
 _atom_site_symmetry_multiplicity
 _atom_site_fract_x
 _atom_site_fract_y
 _atom_site_fract_z
 _atom_site_occupancy
  Sm  Sm0  1  0.00000000  0.00000000  -0.00000000  1
  Sm  Sm1  1  0.50000000  0.50000000  0.50000000  1
  Al  Al0  1  0.93228304  0.14715644  0.33136719  1
  Al  Al1  1  0.33136719  0.93228304  0.14715644  1
  Al  Al2  1  0.14715644  0.33136719  0.93228304  1
  Al  Al3  1  0.56771696  0.16863281  0.35284356  1
  Al  Al4  1  0.35284356  0.56771696  0.16863281  1
  Al  Al5  1  0.16863281  0.35284356  0.56771696  1
  Al  Al6  1  0.06771696  0.85284356  0.66863281  1
  Al  Al7  1  0.66863281  0.06771696  0.85284356  1
  Al  Al8  1  0.75000000  0.75000000  0.75000000  1
  Al  Al9  1  0.25000000  0.25000000  0.25000000  1
  Al  Al10  1  0.83136719  0.64715644  0.43228304  1
  Al  Al11  1  0.64715644  0.43228304  0.83136719  1
  Al  Al12  1  0.43228304  0.83136719  0.64715644  1
  Al  Al13  1  0.85284356  0.66863281  0.06771696  1
  Au  Au0  1  0.25000000  0.57282619  0.92717381  1
  Au  Au1  1  0.92717381  0.25000000  0.57282619  1
  Au  Au2  1  0.57282619  0.92717381  0.25000000  1
  Au  Au3  1  0.75000000  0.42717381  0.07282619  1
  Au  Au4  1  0.07282619  0.75000000  0.42717381  1
  Au  Au5  1  0.42717381  0.07282619  0.75000000  1
loop_
_geom_bond_atom_site_label_1
_geom_bond_atom_site_label_2
_geom_bond_distance
_geom_bond_site_symmetry_2
Al0 Au1 2.577043 1_555
Al0 Au3 2.610308 1_555
Al0 Au4 2.660994 1_645
Al0 Sm0 3.298962 1_655
Al0 Sm1 3.375927 1_555
Al1 Au2 2.577043 1_555
Al1 Au4 2.610308 1_555
Al1 Au5 2.660994 1_564
Al1 Sm0 3.298962 1_565
Al1 Sm1 3.375927 1_555
Al2 Au0 2.577043 1_555
Al2 Au5 2.610308 1_555
Al2 Au3 2.660994 1_456
Al2 Sm0 3.298962 1_556
Al2 Sm1 3.375927 1_555
Al3 Au2 2.577043 1_545
Al3 Au3 2.610308 1_555
Al3 Au5 2.660994 1_555
Al3 Sm1 3.298962 1_555
Al3 Sm0 3.375927 1_655
Al4 Au0 2.577043 1_554
Al4 Au4 2.610308 1_555
Al4 Au3 2.660994 1_555
Al4 Sm1 3.298962 1_555
Al4 Sm0 3.375927 1_565
Al5 Au1 2.577043 1_455
Al5 Au5 2.610308 1_555
Al5 Au4 2.660994 1_555
Al5 Sm1 3.298962 1_555
Al5 Sm0 3.375927 1_556
Al6 Au4 2.577043 1_555
Al6 Au0 2.610308 1_555
Al6 Au1 2.660994 1_465
Al6 Sm0 3.298962 1_566
Al6 Sm1 3.375927 1_555
Al7 Au5 2.577043 1_555
Al7 Au1 2.610308 1_555
Al7 Au2 2.660994 1_546
Al7 Sm0 3.298962 1_656
Al7 Sm1 3.375927 1_555
Al8 Au5 2.608543 1_565
Al8 Au4 2.608543 1_655
Al8 Au3 2.608543 1_556
Al9 Au2 2.608543 1_545
Al9 Au1 2.608543 1_455
Al9 Au0 2.608543 1_554
Al10 Au4 2.577043 1_655
Al10 Au2 2.610308 1_555
Al10 Au1 2.660994 1_555
Al10 Sm1 3.298962 1_555
Al10 Sm0 3.375927 1_665
Al11 Au3 2.577043 1_556
Al11 Au1 2.610308 1_555
Al11 Au0 2.660994 1_555
Al11 Sm1 3.298962 1_555
Al11 Sm0 3.375927 1_656
Al12 Au5 2.577043 1_565
Al12 Au0 2.610308 1_555
Al12 Au2 2.660994 1_555
Al12 Sm1 3.298962 1_555
Al12 Sm0 3.375927 1_566
Al13 Au3 2.577043 1_555
Al13 Au2 2.610308 1_555
Al13 Au0 2.660994 1_654
Al13 Sm0 3.298962 1_665
Al13 Sm1 3.375927 1_555
Au0 Sm0 3.249053 1_566
Au0 Sm1 3.249054 1_555
Au1 Sm1 3.249053 1_555
Au1 Sm0 3.249054 1_656
Au2 Sm1 3.249054 1_555
Au2 Sm0 3.249054 1_665
Au3 Sm0 3.249053 1_655
Au3 Sm1 3.249054 1_555
Au4 Sm1 3.249053 1_555
Au4 Sm0 3.249054 1_565
Au5 Sm1 3.249054 1_555
Au5 Sm0 3.249054 1_556
