# generated using pymatgen
data_VFeCoO4
_symmetry_space_group_name_H-M   'P 1'
_cell_length_a   6.06049159
_cell_length_b   6.06049159
_cell_length_c   6.06049159
_cell_angle_alpha   120.13690693
_cell_angle_beta   120.05079446
_cell_angle_gamma   89.83753877
_symmetry_Int_Tables_number   1
_chemical_formula_structural   VFeCoO4
_chemical_formula_sum   'V2 Fe2 Co2 O8'
_cell_volume   157.17731070
_cell_formula_units_Z   2
loop_
 _symmetry_equiv_pos_site_id
 _symmetry_equiv_pos_as_xyz
  1  'x, y, z'
loop_
 _atom_site_type_symbol
 _atom_site_label
 _atom_site_symmetry_multiplicity
 _atom_site_fract_x
 _atom_site_fract_y
 _atom_site_fract_z
 _atom_site_occupancy
  V  V0  1  0.87732200  0.12732200  0.75000000  1
  V  V1  1  0.12267800  0.87267800  0.25000000  1
  Fe  Fe0  1  0.00000000  0.50000000  0.50000000  1
  Fe  Fe1  1  0.50000000  0.50000000  0.00000000  1
  Co  Co0  1  0.50000000  0.50000000  0.50000000  1
  Co  Co1  1  0.50000000  0.00000000  0.00000000  1
  O  O0  1  0.27120900  0.26143000  0.00977900  1
  O  O1  1  0.75165100  0.26143000  0.49022100  1
  O  O2  1  0.74734700  0.26731700  0.01997000  1
  O  O3  1  0.74734700  0.72737700  0.48003000  1
  O  O4  1  0.72879100  0.73857000  0.99022100  1
  O  O5  1  0.24834900  0.73857000  0.50977900  1
  O  O6  1  0.25265300  0.73268300  0.98003000  1
  O  O7  1  0.25265300  0.27262300  0.51997000  1
loop_
_geom_bond_atom_site_label_1
_geom_bond_atom_site_label_2
_geom_bond_distance
_geom_bond_site_symmetry_2
Fe0 O1 2.048496 1_455
Fe0 O5 2.048496 1_555
Fe0 O7 2.056223 1_555
Fe0 O3 2.056223 1_455
Fe0 O2 2.056223 1_455
Fe0 O6 2.056223 1_555
Fe1 O0 2.048496 1_555
Fe1 O4 2.048496 1_554
Fe1 O7 2.056223 1_554
Fe1 O3 2.056223 1_555
Fe1 O2 2.056223 1_555
Fe1 O6 2.056223 1_554
Co0 O4 2.100475 1_555
Co0 O1 2.100475 1_555
Co0 O0 2.100475 1_555
Co0 O5 2.100475 1_555
Co0 O3 2.126405 1_555
Co0 O7 2.126405 1_555
Co1 O1 2.100475 1_555
Co1 O4 2.100475 1_544
Co1 O5 2.100475 1_544
Co1 O0 2.100475 1_555
Co1 O2 2.126405 1_555
Co1 O6 2.126405 1_544
O0 V0 1.949307 1_454
O1 V0 1.949307 1_555
O2 V0 1.977478 1_554
O3 V0 1.977478 1_565
O4 V1 1.949307 1_656
O5 V1 1.949307 1_555
O6 V1 1.977478 1_556
O7 V1 1.977478 1_545
