# generated using pymatgen
data_LiFe4(BO3)4
_symmetry_space_group_name_H-M   'P 1'
_cell_length_a   5.32594600
_cell_length_b   8.97087984
_cell_length_c   10.17064144
_cell_angle_alpha   89.68941254
_cell_angle_beta   89.06475540
_cell_angle_gamma   89.94046165
_symmetry_Int_Tables_number   1
_chemical_formula_structural   LiFe4(BO3)4
_chemical_formula_sum   'Li2 Fe8 B8 O24'
_cell_volume   485.86510054
_cell_formula_units_Z   2
loop_
 _symmetry_equiv_pos_site_id
 _symmetry_equiv_pos_as_xyz
  1  'x, y, z'
loop_
 _atom_site_type_symbol
 _atom_site_label
 _atom_site_symmetry_multiplicity
 _atom_site_fract_x
 _atom_site_fract_y
 _atom_site_fract_z
 _atom_site_occupancy
  Li  Li0  1  0.65253000  0.99168900  0.84255100  1
  Li  Li1  1  0.34044200  0.99836600  0.10402100  1
  Fe  Fe0  1  0.84223000  0.83504400  0.12426000  1
  Fe  Fe1  1  0.16108300  0.83090100  0.37194800  1
  Fe  Fe2  1  0.66605100  0.65829600  0.87183200  1
  Fe  Fe3  1  0.34105100  0.66508200  0.62286900  1
  Fe  Fe4  1  0.66383300  0.33444100  0.37018800  1
  Fe  Fe5  1  0.84697400  0.16986000  0.62003700  1
  Fe  Fe6  1  0.33713500  0.33917800  0.12456300  1
  Fe  Fe7  1  0.15276100  0.16814100  0.87179200  1
  B  B0  1  0.83726900  0.82860800  0.62727900  1
  B  B1  1  0.67230700  0.67103000  0.37655900  1
  B  B2  1  0.17523100  0.83106500  0.87195000  1
  B  B3  1  0.34170800  0.67035800  0.12143600  1
  B  B4  1  0.65839200  0.32809200  0.87252700  1
  B  B5  1  0.33425600  0.32858100  0.61837100  1
  B  B6  1  0.82550400  0.16902300  0.12313500  1
  B  B7  1  0.16948400  0.16940000  0.36838100  1
  O  O0  1  0.74311200  0.96831800  0.64703100  1
  O  O1  1  0.91743400  0.81921000  0.90097200  1
  O  O2  1  0.29890600  0.96235900  0.89462600  1
  O  O3  1  0.81060600  0.79391600  0.33325800  1
  O  O4  1  0.69843900  0.70357100  0.66749700  1
  O  O5  1  0.22224800  0.80025700  0.16994100  1
  O  O6  1  0.07727600  0.80787100  0.57197600  1
  O  O7  1  0.57529100  0.68825300  0.06039600  1
  O  O8  1  0.76640800  0.53114700  0.36979700  1
  O  O9  1  0.42894800  0.69649400  0.42783600  1
  O  O10  1  0.30588500  0.70725700  0.82305500  1
  O  O11  1  0.77437100  0.46210200  0.86020300  1
  O  O12  1  0.22889800  0.53562400  0.13486700  1
  O  O13  1  0.70014100  0.29577600  0.17123700  1
  O  O14  1  0.57593400  0.30270100  0.56597700  1
  O  O15  1  0.23929700  0.46812000  0.62543500  1
  O  O16  1  0.42676200  0.31089400  0.93478700  1
  O  O17  1  0.92775200  0.19138800  0.42261400  1
  O  O18  1  0.77515700  0.19927200  0.82064500  1
  O  O19  1  0.30583400  0.29480700  0.32663100  1
  O  O20  1  0.19572500  0.20592900  0.66293200  1
  O  O21  1  0.69918900  0.03866800  0.10492600  1
  O  O22  1  0.08270900  0.17987800  0.09102600  1
  O  O23  1  0.26555500  0.03025200  0.35470700  1
loop_
_geom_bond_atom_site_label_1
_geom_bond_atom_site_label_2
_geom_bond_distance
_geom_bond_site_symmetry_2
Li0 O2 1.965663 1_555
Li0 O18 1.984253 1_565
Li0 O0 2.050385 1_555
Li0 O1 2.179576 1_555
Li1 O21 1.945121 1_565
Li1 O5 1.994963 1_555
Li1 O22 2.133559 1_565
Li1 O2 2.170669 1_554
Fe0 O21 1.988451 1_565
Fe0 O7 2.054392 1_555
Fe0 O5 2.106526 1_655
Fe0 O3 2.159351 1_555
Fe0 O1 2.304701 1_554
Fe1 O23 1.879903 1_565
Fe1 O3 1.943163 1_455
Fe1 O9 1.956446 1_555
Fe1 O6 2.084884 1_555
Fe1 O5 2.094497 1_555
Fe2 O11 1.855383 1_555
Fe2 O7 1.989713 1_556
Fe2 O1 1.996441 1_555
Fe2 O10 2.036066 1_555
Fe2 O4 2.119670 1_555
Fe3 O15 1.848626 1_555
Fe3 O6 1.973615 1_555
Fe3 O4 1.994881 1_555
Fe3 O9 2.048699 1_555
Fe3 O10 2.078307 1_555
Fe4 O8 1.847764 1_555
Fe4 O17 1.979964 1_555
Fe4 O19 1.997198 1_555
Fe4 O14 2.056504 1_555
Fe4 O13 2.060774 1_555
Fe5 O0 1.908403 1_545
Fe5 O20 1.942757 1_655
Fe5 O14 1.954868 1_555
Fe5 O17 2.054724 1_555
Fe5 O18 2.087808 1_555
Fe6 O12 1.856580 1_555
Fe6 O16 1.998168 1_554
Fe6 O22 2.004780 1_555
Fe6 O13 2.034988 1_555
Fe6 O19 2.095234 1_555
Fe7 O2 2.016415 1_545
Fe7 O16 2.055087 1_555
Fe7 O18 2.103456 1_455
Fe7 O20 2.157813 1_555
Fe7 O22 2.257737 1_556
B0 O0 1.364106 1_555
B0 O4 1.399678 1_555
B0 O6 1.400752 1_655
B1 O8 1.352449 1_555
B1 O3 1.391978 1_555
B1 O9 1.408082 1_555
B2 O2 1.372531 1_555
B2 O10 1.399351 1_555
B2 O1 1.403686 1_455
B3 O12 1.355580 1_555
B3 O7 1.390312 1_555
B3 O5 1.414411 1_555
B4 O11 1.356429 1_555
B4 O16 1.385821 1_555
B4 O18 1.412467 1_555
B5 O15 1.351439 1_555
B5 O20 1.394913 1_555
B5 O14 1.404629 1_555
B6 O21 1.364709 1_555
B6 O13 1.404240 1_555
B6 O22 1.406405 1_655
B7 O23 1.355574 1_555
B7 O19 1.399916 1_555
B7 O17 1.406469 1_455
