# generated using pymatgen
data_Th2Co7
_symmetry_space_group_name_H-M   'P 1'
_cell_length_a   4.96418361
_cell_length_b   4.96418400
_cell_length_c   12.74795261
_cell_angle_alpha   78.77250032
_cell_angle_beta   78.77250195
_cell_angle_gamma   59.99999739
_symmetry_Int_Tables_number   1
_chemical_formula_structural   Th2Co7
_chemical_formula_sum   'Th4 Co14'
_cell_volume   265.09623039
_cell_formula_units_Z   2
loop_
 _symmetry_equiv_pos_site_id
 _symmetry_equiv_pos_as_xyz
  1  'x, y, z'
loop_
 _atom_site_type_symbol
 _atom_site_label
 _atom_site_symmetry_multiplicity
 _atom_site_fract_x
 _atom_site_fract_y
 _atom_site_fract_z
 _atom_site_occupancy
  Th  Th0  1  0.94918900  0.94918900  0.15243300  1
  Th  Th1  1  0.05081100  0.05081100  0.84756700  1
  Th  Th2  1  0.85377200  0.85377200  0.43868300  1
  Th  Th3  1  0.14622800  0.14622800  0.56131700  1
  Co  Co0  1  0.50000000  0.50000000  0.50000000  1
  Co  Co1  1  0.72165400  0.72165400  0.83503900  1
  Co  Co2  1  0.27834600  0.27834600  0.16496100  1
  Co  Co3  1  0.61194800  0.61194800  0.16415500  1
  Co  Co4  1  0.38805200  0.38805200  0.83584500  1
  Co  Co5  1  0.00000000  0.50000000  0.00000000  1
  Co  Co6  1  0.50000000  0.00000000  0.00000000  1
  Co  Co7  1  0.50000000  0.50000000  0.00000000  1
  Co  Co8  1  0.39250200  0.39250200  0.32456500  1
  Co  Co9  1  0.89043000  0.39250200  0.32456500  1
  Co  Co10  1  0.39250200  0.89043000  0.32456500  1
  Co  Co11  1  0.60749800  0.60749800  0.67543500  1
  Co  Co12  1  0.10957000  0.60749800  0.67543500  1
  Co  Co13  1  0.60749800  0.10957000  0.67543500  1
loop_
_geom_bond_atom_site_label_1
_geom_bond_atom_site_label_2
_geom_bond_distance
_geom_bond_site_symmetry_2
Co0 Co12 2.604887 1_555
Co0 Co9 2.604887 1_555
Co0 Co10 2.604887 1_555
Co0 Co13 2.604887 1_555
Co0 Co11 2.604890 1_555
Co0 Co8 2.604890 1_555
Co0 Th2 2.965548 1_555
Co0 Th3 2.965548 1_555
Co0 Th2 2.965552 1_455
Co0 Th3 2.965552 1_655
Co0 Th2 2.965552 1_545
Co0 Th3 2.965552 1_565
Co1 Co12 2.449713 1_655
Co1 Co13 2.449714 1_565
Co1 Co11 2.449714 1_555
Co1 Co5 2.500462 1_656
Co1 Co6 2.500462 1_566
Co1 Co7 2.500464 1_556
Co1 Co4 2.866090 1_655
Co1 Co4 2.866090 1_555
Co1 Co4 2.866090 1_565
Co1 Th1 2.870292 1_665
Co1 Th1 2.870296 1_565
Co1 Th1 2.870296 1_655
Co2 Co9 2.449713 1_455
Co2 Co8 2.449714 1_555
Co2 Co5 2.500462 1_555
Co2 Co6 2.500462 1_555
Co2 Co7 2.500464 1_555
Co2 Co3 2.866090 1_455
Co2 Co3 2.866090 1_545
Co2 Co3 2.866090 1_555
Co2 Th0 2.870292 1_445
Co2 Th0 2.870296 1_545
Co2 Th0 2.870296 1_455
Co3 Co9 2.450888 1_555
Co3 Co8 2.450888 1_555
Co3 Co7 2.492263 1_555
Co3 Co5 2.492266 1_655
Co3 Co6 2.492266 1_565
Co3 Th0 2.869767 1_455
Co3 Th0 2.869768 1_545
Co3 Th0 2.869772 1_555
Co4 Co7 2.492263 1_556
Co4 Co5 2.492266 1_556
Co4 Co6 2.492266 1_556
Co4 Th1 2.869767 1_655
Co4 Th1 2.869768 1_565
Co4 Th1 2.869772 1_555
Co5 Co6 2.482092 1_555
Co5 Co7 2.482092 1_455
Co5 Co7 2.482092 1_555
Co5 Co6 2.482092 1_465
Co5 Th1 3.121854 1_564
Co5 Th0 3.121854 1_455
Co5 Th0 3.121854 1_445
Co5 Th1 3.121854 1_554
Co6 Co7 2.482092 1_545
Co6 Co7 2.482092 1_555
Co6 Th0 3.121854 1_545
Co6 Th1 3.121854 1_554
Co6 Th1 3.121854 1_654
Co6 Th0 3.121854 1_445
Co7 Th1 3.121854 1_564
Co7 Th0 3.121854 1_545
Co7 Th0 3.121854 1_455
Co7 Th1 3.121854 1_654
Co8 Co9 2.471806 1_555
Co8 Co9 2.492378 1_455
Co8 Th2 2.858356 1_545
Co8 Th2 2.858356 1_455
Co8 Th3 3.274012 1_555
Co8 Th0 3.276052 1_455
Co8 Th0 3.276052 1_545
Co9 Th2 2.858356 1_555
Co9 Th2 2.858356 1_545
Co9 Th3 3.274015 1_655
Co9 Th0 3.276050 1_545
Co9 Th0 3.276054 1_555
Co10 Co2 2.449714 1_565
Co10 Co3 2.450888 1_555
Co10 Co9 2.471806 1_555
Co10 Co8 2.471806 1_555
Co10 Co9 2.492378 1_465
Co10 Co8 2.492378 1_565
Co10 Th2 2.858356 1_555
Co10 Th2 2.858356 1_455
Co10 Th3 3.274015 1_565
Co10 Th0 3.276050 1_455
Co10 Th0 3.276054 1_555
Co11 Co4 2.450888 1_555
Co11 Co12 2.471806 1_555
Co11 Co13 2.471806 1_555
Co11 Co12 2.492378 1_655
Co11 Co13 2.492378 1_565
Co11 Th3 2.858356 1_565
Co11 Th3 2.858356 1_655
Co11 Th2 3.274012 1_555
Co11 Th1 3.276052 1_655
Co11 Th1 3.276052 1_565
Co12 Co4 2.450888 1_555
Co12 Co13 2.471806 1_555
Co12 Co13 2.492378 1_465
Co12 Th3 2.858356 1_555
Co12 Th3 2.858356 1_565
Co12 Th2 3.274015 1_455
Co12 Th1 3.276050 1_565
Co12 Th1 3.276054 1_555
Co13 Co4 2.450888 1_555
Co13 Th3 2.858356 1_555
Co13 Th3 2.858356 1_655
Co13 Th2 3.274015 1_545
Co13 Th1 3.276050 1_655
Co13 Th1 3.276054 1_555
