# generated using pymatgen
data_BaSiC
_symmetry_space_group_name_H-M   'P 1'
_cell_length_a   6.11984800
_cell_length_b   8.90654400
_cell_length_c   11.41866800
_cell_angle_alpha   90.00000000
_cell_angle_beta   90.00000000
_cell_angle_gamma   90.00000000
_symmetry_Int_Tables_number   1
_chemical_formula_structural   BaSiC
_chemical_formula_sum   'Ba8 Si8 C8'
_cell_volume   622.39385952
_cell_formula_units_Z   8
loop_
 _symmetry_equiv_pos_site_id
 _symmetry_equiv_pos_as_xyz
  1  'x, y, z'
loop_
 _atom_site_type_symbol
 _atom_site_label
 _atom_site_symmetry_multiplicity
 _atom_site_fract_x
 _atom_site_fract_y
 _atom_site_fract_z
 _atom_site_occupancy
  Ba  Ba0  1  0.25000000  0.97539400  0.34528600  1
  Ba  Ba1  1  0.25000000  0.47539400  0.15471400  1
  Ba  Ba2  1  0.75000000  0.02460600  0.65471400  1
  Ba  Ba3  1  0.75000000  0.52460600  0.84528600  1
  Ba  Ba4  1  0.25000000  0.88219500  0.92364100  1
  Ba  Ba5  1  0.25000000  0.38219500  0.57635900  1
  Ba  Ba6  1  0.75000000  0.11780500  0.07635900  1
  Ba  Ba7  1  0.75000000  0.61780500  0.42364100  1
  Si  Si0  1  0.05765500  0.21542000  0.84023400  1
  Si  Si1  1  0.44234500  0.71542000  0.65976600  1
  Si  Si2  1  0.55765500  0.78458000  0.15976600  1
  Si  Si3  1  0.94234500  0.28458000  0.34023400  1
  Si  Si4  1  0.94234500  0.78458000  0.15976600  1
  Si  Si5  1  0.55765500  0.28458000  0.34023400  1
  Si  Si6  1  0.44234500  0.21542000  0.84023400  1
  Si  Si7  1  0.05765500  0.71542000  0.65976600  1
  C  C0  1  0.25000000  0.35352400  0.93410100  1
  C  C1  1  0.25000000  0.85352400  0.56589900  1
  C  C2  1  0.75000000  0.64647600  0.06589900  1
  C  C3  1  0.75000000  0.14647600  0.43410100  1
  C  C4  1  0.25000000  0.20352700  0.98312400  1
  C  C5  1  0.25000000  0.70352700  0.51687600  1
  C  C6  1  0.75000000  0.79647300  0.01687600  1
  C  C7  1  0.75000000  0.29647300  0.48312400  1
loop_
_geom_bond_atom_site_label_1
_geom_bond_atom_site_label_2
_geom_bond_distance
_geom_bond_site_symmetry_2
Ba0 C1 2.743006 1_555
Ba0 C5 3.114824 1_555
Ba0 Si4 3.304664 1_455
Ba0 Si2 3.304664 1_555
Ba0 Si3 3.336400 1_465
Ba0 Si5 3.336400 1_565
Ba0 C3 3.565592 1_565
Ba0 C3 3.565592 1_465
Ba1 C0 2.743006 1_554
Ba1 C4 3.114824 1_554
Ba1 Si5 3.304664 1_555
Ba1 Si3 3.304664 1_455
Ba1 Si4 3.336400 1_455
Ba1 Si2 3.336400 1_555
Ba1 C2 3.565592 1_555
Ba1 C2 3.565592 1_455
Ba2 C3 2.743006 1_555
Ba2 C7 3.114824 1_555
Ba2 Si6 3.304664 1_555
Ba2 Si0 3.304664 1_655
Ba2 Si7 3.336400 1_645
Ba2 Si1 3.336400 1_545
Ba2 C1 3.565592 1_645
Ba2 C1 3.565592 1_545
Ba3 C2 2.743006 1_556
Ba3 C6 3.114824 1_556
Ba3 Si1 3.304664 1_555
Ba3 Si7 3.304664 1_655
Ba3 Si6 3.336400 1_555
Ba3 Si0 3.336400 1_655
Ba3 C0 3.565592 1_655
Ba3 C0 3.565592 1_555
Ba4 C4 2.941451 1_565
Ba4 C6 3.328583 1_456
Ba4 C6 3.328583 1_556
Ba4 Si6 3.331817 1_565
Ba4 Si0 3.331817 1_565
Ba4 Si4 3.401543 1_456
Ba4 Si2 3.401543 1_556
Ba4 Si7 3.559603 1_555
Ba4 Si1 3.559603 1_555
Ba5 C5 2.941451 1_555
Ba5 C7 3.328583 1_455
Ba5 C7 3.328583 1_555
Ba5 Si7 3.331817 1_555
Ba5 Si1 3.331817 1_555
Ba5 Si5 3.401543 1_555
Ba5 Si3 3.401543 1_455
Ba5 Si6 3.559603 1_555
Ba5 Si0 3.559603 1_555
Ba6 C6 2.941451 1_545
Ba6 C4 3.328583 1_554
Ba6 C4 3.328583 1_654
Ba6 Si4 3.331817 1_545
Ba6 Si2 3.331817 1_545
Ba6 Si0 3.401543 1_654
Ba6 Si6 3.401543 1_554
Ba6 Si5 3.559603 1_555
Ba6 Si3 3.559603 1_555
Ba7 C7 2.941451 1_555
Ba7 C5 3.328583 1_655
Ba7 C5 3.328583 1_555
Ba7 Si5 3.331817 1_555
Ba7 Si3 3.331817 1_555
Ba7 Si1 3.401543 1_555
Ba7 Si7 3.401543 1_655
Ba7 Si2 3.559603 1_555
Ba7 Si4 3.559603 1_555
Si0 Si6 2.354244 1_555
Si1 Si7 2.354244 1_555
Si2 Si4 2.354244 1_555
Si3 Si5 2.354244 1_555
C0 C4 1.448491 1_555
C0 Si0 2.011820 1_555
C0 Si6 2.011820 1_555
C1 C5 1.448491 1_555
C1 Si1 2.011820 1_555
C1 Si7 2.011820 1_555
C2 C6 1.448491 1_555
C2 Si2 2.011820 1_555
C2 Si4 2.011820 1_555
C3 C7 1.448491 1_555
C3 Si5 2.011820 1_555
C3 Si3 2.011820 1_555
C4 Si0 2.014696 1_555
C4 Si6 2.014696 1_555
C5 Si1 2.014696 1_555
C5 Si7 2.014696 1_555
C6 Si4 2.014696 1_555
C6 Si2 2.014696 1_555
C7 Si5 2.014696 1_555
C7 Si3 2.014696 1_555
