# generated using pymatgen
data_HfMg14Fe
_symmetry_space_group_name_H-M   'P 1'
_cell_length_a   6.33812336
_cell_length_b   6.08751701
_cell_length_c   10.07517125
_cell_angle_alpha   90.00000000
_cell_angle_beta   90.00000000
_cell_angle_gamma   118.70044552
_symmetry_Int_Tables_number   1
_chemical_formula_structural   HfMg14Fe
_chemical_formula_sum   'Hf1 Mg14 Fe1'
_cell_volume   340.97570188
_cell_formula_units_Z   1
loop_
 _symmetry_equiv_pos_site_id
 _symmetry_equiv_pos_as_xyz
  1  'x, y, z'
loop_
 _atom_site_type_symbol
 _atom_site_label
 _atom_site_symmetry_multiplicity
 _atom_site_fract_x
 _atom_site_fract_y
 _atom_site_fract_z
 _atom_site_occupancy
  Hf  Hf0  1  0.14582456  0.82291178  0.12500000  1
  Mg  Mg0  1  0.16261071  0.33130486  0.62500000  1
  Mg  Mg1  1  0.16888291  0.83444096  0.62500000  1
  Mg  Mg2  1  0.64803135  0.33213452  0.12500000  1
  Mg  Mg3  1  0.66210878  0.32773869  0.62500000  1
  Mg  Mg4  1  0.64803135  0.81589583  0.12500000  1
  Mg  Mg5  1  0.66210878  0.83436909  0.62500000  1
  Mg  Mg6  1  0.33183443  0.16971527  0.36416719  1
  Mg  Mg7  1  0.33183443  0.16971527  0.88583281  1
  Mg  Mg8  1  0.33183443  0.66212016  0.36416719  1
  Mg  Mg9  1  0.33183443  0.66212016  0.88583281  1
  Mg  Mg10  1  0.86093016  0.18046558  0.35213819  1
  Mg  Mg11  1  0.86093016  0.18046558  0.89786181  1
  Mg  Mg12  1  0.84289030  0.67144565  0.37944083  1
  Mg  Mg13  1  0.84289030  0.67144565  0.87055917  1
  Fe  Fe0  1  0.16742291  0.33371095  0.12500000  1
loop_
_geom_bond_atom_site_label_1
_geom_bond_atom_site_label_2
_geom_bond_distance
_geom_bond_site_symmetry_2
Hf0 Mg9 3.043484 1_554
Hf0 Mg8 3.043484 1_555
Hf0 Mg7 3.043490 1_564
Hf0 Mg6 3.043490 1_565
Hf0 Mg13 3.067255 1_454
Hf0 Mg12 3.067255 1_455
Hf0 Mg2 3.134788 1_455
Hf0 Mg4 3.134788 1_455
Hf0 Mg2 3.203778 1_565
Hf0 Mg4 3.203778 1_555
Mg0 Mg1 3.043958 1_555
Mg0 Mg1 3.043958 1_545
Mg0 Mg5 3.161875 1_445
Mg0 Mg3 3.161875 1_455
Mg0 Mg6 3.168185 1_555
Mg0 Mg7 3.168185 1_555
Mg0 Mg8 3.168190 1_555
Mg0 Mg9 3.168190 1_555
Mg0 Mg5 3.176363 1_555
Mg0 Mg3 3.176363 1_555
Mg0 Mg10 3.220346 1_455
Mg0 Mg11 3.220346 1_455
Mg1 Mg12 3.066837 1_455
Mg1 Mg13 3.066837 1_455
Mg1 Mg3 3.126336 1_565
Mg1 Mg5 3.126337 1_555
Mg1 Mg8 3.180209 1_555
Mg1 Mg9 3.180209 1_555
Mg1 Mg7 3.180215 1_565
Mg1 Mg6 3.180215 1_565
Mg1 Mg3 3.211787 1_455
Mg1 Mg5 3.211787 1_455
Mg2 Mg4 2.944905 1_555
Mg2 Mg7 2.982824 1_554
Mg2 Mg6 2.982824 1_555
Mg2 Mg4 3.142612 1_545
Mg3 Mg5 3.003396 1_545
Mg3 Mg5 3.084121 1_555
Mg3 Mg6 3.206139 1_555
Mg3 Mg7 3.206139 1_555
Mg4 Mg9 2.982824 1_554
Mg4 Mg8 2.982824 1_555
Mg5 Mg9 3.206139 1_555
Mg5 Mg8 3.206139 1_555
Mg6 Mg8 2.997523 1_555
Mg6 Mg8 3.089994 1_545
Mg7 Mg9 2.997523 1_555
Mg7 Mg9 3.089994 1_545
Mg10 Mg2 3.017767 1_555
Mg10 Mg4 3.017773 1_545
Mg10 Mg8 3.019056 1_655
Mg10 Mg6 3.019057 1_655
Mg10 Mg12 3.057808 1_545
Mg10 Mg12 3.057808 1_555
Mg10 Mg3 3.321830 1_555
Mg10 Mg5 3.321836 1_545
Mg10 Mg8 3.324752 1_545
Mg10 Mg6 3.324752 1_555
Mg11 Mg2 3.017767 1_556
Mg11 Mg4 3.017773 1_546
Mg11 Mg9 3.019056 1_655
Mg11 Mg7 3.019057 1_655
Mg11 Mg13 3.057808 1_545
Mg11 Mg13 3.057808 1_555
Mg11 Mg3 3.321830 1_555
Mg11 Mg5 3.321836 1_545
Mg11 Mg9 3.324752 1_545
Mg11 Mg7 3.324752 1_555
Mg12 Mg5 3.083662 1_555
Mg12 Mg3 3.083668 1_555
Mg12 Mg6 3.130431 1_665
Mg12 Mg8 3.130432 1_655
Mg12 Mg4 3.148549 1_555
Mg12 Mg2 3.148555 1_555
Mg12 Mg6 3.215942 1_555
Mg12 Mg8 3.215943 1_555
Mg13 Mg5 3.083662 1_555
Mg13 Mg3 3.083668 1_555
Mg13 Mg7 3.130431 1_665
Mg13 Mg9 3.130432 1_655
Mg13 Mg4 3.148549 1_556
Mg13 Mg2 3.148555 1_556
Mg13 Mg7 3.215942 1_555
Mg13 Mg9 3.215943 1_555
Fe0 Mg11 2.853138 1_454
Fe0 Mg10 2.853138 1_455
Fe0 Mg6 2.981299 1_555
Fe0 Mg7 2.981299 1_554
Fe0 Mg8 2.981305 1_555
Fe0 Mg9 2.981305 1_554
Fe0 Hf0 3.046126 1_545
Fe0 Hf0 3.046126 1_555
Fe0 Mg4 3.050776 1_555
Fe0 Mg2 3.050776 1_555
Fe0 Mg4 3.287370 1_445
Fe0 Mg2 3.287370 1_455
