# generated using pymatgen
data_UH5Se2O9
_symmetry_space_group_name_H-M   'P 1'
_cell_length_a   11.31550700
_cell_length_b   8.97000800
_cell_length_c   13.81827789
_cell_angle_alpha   51.37363538
_cell_angle_beta   90.00000000
_cell_angle_gamma   90.00000000
_symmetry_Int_Tables_number   1
_chemical_formula_structural   UH5Se2O9
_chemical_formula_sum   'U4 H20 Se8 O36'
_cell_volume   1095.72488141
_cell_formula_units_Z   4
loop_
 _symmetry_equiv_pos_site_id
 _symmetry_equiv_pos_as_xyz
  1  'x, y, z'
loop_
 _atom_site_type_symbol
 _atom_site_label
 _atom_site_symmetry_multiplicity
 _atom_site_fract_x
 _atom_site_fract_y
 _atom_site_fract_z
 _atom_site_occupancy
  U  U0  1  0.30247600  0.81700300  0.31445300  1
  U  U1  1  0.69752400  0.18299700  0.68554700  1
  U  U2  1  0.80247600  0.18299700  0.18554700  1
  U  U3  1  0.19752400  0.81700300  0.81445300  1
  H  H0  1  0.62511600  0.68842300  0.09869300  1
  H  H1  1  0.37488400  0.31157700  0.90130700  1
  H  H2  1  0.12511600  0.31157700  0.40130700  1
  H  H3  1  0.87488400  0.68842300  0.59869300  1
  H  H4  1  0.64954800  0.58941600  0.13728000  1
  H  H5  1  0.35045200  0.41058400  0.86272000  1
  H  H6  1  0.14954800  0.41058400  0.36272000  1
  H  H7  1  0.85045200  0.58941600  0.63728000  1
  H  H8  1  0.01906600  0.91425900  0.45617200  1
  H  H9  1  0.98093400  0.08574100  0.54382800  1
  H  H10  1  0.51906600  0.08574100  0.04382800  1
  H  H11  1  0.48093400  0.91425900  0.95617200  1
  H  H12  1  0.91261400  0.54917000  0.23339200  1
  H  H13  1  0.08738600  0.45083000  0.76660800  1
  H  H14  1  0.41261400  0.45083000  0.26660800  1
  H  H15  1  0.58738600  0.54917000  0.73339200  1
  H  H16  1  0.44908400  0.82503100  0.00711100  1
  H  H17  1  0.55091600  0.17496900  0.99288900  1
  H  H18  1  0.94908400  0.17496900  0.49288900  1
  H  H19  1  0.05091600  0.82503100  0.50711100  1
  Se  Se0  1  0.62901900  0.70149600  0.40116000  1
  Se  Se1  1  0.37098100  0.29850400  0.59884000  1
  Se  Se2  1  0.12901900  0.29850400  0.09884000  1
  Se  Se3  1  0.87098100  0.70149600  0.90116000  1
  Se  Se4  1  0.98701900  0.81459700  0.20541800  1
  Se  Se5  1  0.01298100  0.18540300  0.79458200  1
  Se  Se6  1  0.48701900  0.18540300  0.29458200  1
  Se  Se7  1  0.51298100  0.81459700  0.70541800  1
  O  O0  1  0.36528300  0.79506300  0.20424000  1
  O  O1  1  0.63471700  0.20493700  0.79576000  1
  O  O2  1  0.86528300  0.20493700  0.29576000  1
  O  O3  1  0.13471700  0.79506300  0.70424000  1
  O  O4  1  0.91069200  0.89456000  0.27097700  1
  O  O5  1  0.08930800  0.10544000  0.72902300  1
  O  O6  1  0.41069200  0.10544000  0.22902300  1
  O  O7  1  0.58930800  0.89456000  0.77097700  1
  O  O8  1  0.82035000  0.51844100  0.04332200  1
  O  O9  1  0.17965000  0.48155900  0.95667800  1
  O  O10  1  0.32035000  0.48155900  0.45667800  1
  O  O11  1  0.67965000  0.51844100  0.54332200  1
  O  O12  1  0.90604500  0.59734900  0.28071500  1
  O  O13  1  0.09395500  0.40265100  0.71928500  1
  O  O14  1  0.40604500  0.40265100  0.21928500  1
  O  O15  1  0.59395500  0.59734900  0.78071500  1
  O  O16  1  0.99080000  0.25497200  0.07294300  1
  O  O17  1  0.00920000  0.74502800  0.92705700  1
  O  O18  1  0.49080000  0.74502800  0.42705700  1
  O  O19  1  0.50920000  0.25497200  0.57294300  1
  O  O20  1  0.75122600  0.16625300  0.06987000  1
  O  O21  1  0.24877400  0.83374700  0.93013000  1
  O  O22  1  0.25122600  0.83374700  0.43013000  1
  O  O23  1  0.74877400  0.16625300  0.56987000  1
  O  O24  1  0.61490300  0.26299600  0.20983300  1
  O  O25  1  0.38509700  0.73700400  0.79016700  1
  O  O26  1  0.11490300  0.73700400  0.29016700  1
  O  O27  1  0.88509700  0.26299600  0.70983300  1
  O  O28  1  0.63416500  0.66671100  0.29905500  1
  O  O29  1  0.36583500  0.33328900  0.70094500  1
  O  O30  1  0.13416500  0.33328900  0.20094500  1
  O  O31  1  0.86583500  0.66671100  0.79905500  1
  O  O32  1  0.70436700  0.89650800  0.36134400  1
  O  O33  1  0.29563300  0.10349200  0.63865600  1
  O  O34  1  0.20436700  0.10349200  0.13865600  1
  O  O35  1  0.79563300  0.89650800  0.86134400  1
loop_
_geom_bond_atom_site_label_1
_geom_bond_atom_site_label_2
_geom_bond_distance
_geom_bond_site_symmetry_2
H0 H4 0.747160 1_555
H1 H5 0.747160 1_555
H2 H6 0.747160 1_555
H3 H7 0.747160 1_555
H10 H17 0.750058 1_554
H11 H16 0.750058 1_556
H12 O12 0.986271 1_555
H13 O13 0.986271 1_555
H14 O14 0.986271 1_555
H15 O15 0.986271 1_555
H18 H9 0.750058 1_555
H19 H8 0.750058 1_555
O0 U0 1.799277 1_555
O1 U1 1.799277 1_555
O2 U2 1.799277 1_555
O3 U3 1.799277 1_555
O4 Se4 1.700686 1_555
O4 U2 2.402884 1_565
O5 Se5 1.700686 1_555
O5 U3 2.402884 1_545
O6 Se6 1.700686 1_555
O6 U0 2.402884 1_545
O7 Se7 1.700686 1_555
O7 U1 2.402884 1_565
O8 Se3 1.690062 1_554
O8 U2 2.360969 1_555
O9 Se2 1.690062 1_556
O9 U3 2.360969 1_555
O10 Se1 1.690062 1_555
O10 U0 2.360969 1_555
O11 Se0 1.690062 1_555
O11 U1 2.360969 1_555
O12 Se4 1.785558 1_555
O13 Se5 1.785558 1_555
O14 Se6 1.785558 1_555
O15 Se7 1.785558 1_555
O16 Se2 1.703274 1_655
O16 U2 2.474839 1_555
O17 Se3 1.703274 1_455
O17 U3 2.474839 1_555
O18 Se0 1.703274 1_555
O18 U0 2.474839 1_555
O19 Se1 1.703274 1_555
O19 U1 2.474839 1_555
O20 U2 1.792669 1_555
O21 U3 1.792669 1_555
O22 U0 1.792669 1_555
O23 U1 1.792669 1_555
O24 Se6 1.712387 1_555
O24 U2 2.330912 1_555
O25 Se7 1.712387 1_555
O25 U3 2.330912 1_555
O26 Se4 1.712387 1_455
O26 U0 2.330912 1_555
O27 Se5 1.712387 1_655
O27 U1 2.330912 1_555
O28 Se0 1.625132 1_555
O29 Se1 1.625132 1_555
O30 Se2 1.625132 1_555
O31 Se3 1.625132 1_555
O32 Se0 1.699406 1_555
O32 U2 2.437963 1_565
O33 Se1 1.699406 1_555
O33 U3 2.437963 1_545
O34 Se2 1.699406 1_555
O34 U0 2.437963 1_545
O35 Se3 1.699406 1_555
O35 U1 2.437963 1_565
