# generated using pymatgen
data_Sc6MnTe2
_symmetry_space_group_name_H-M   'P 1'
_cell_length_a   7.71102769
_cell_length_b   7.71086486
_cell_length_c   3.95488852
_cell_angle_alpha   90.00000000
_cell_angle_beta   90.00000000
_cell_angle_gamma   119.99777414
_symmetry_Int_Tables_number   1
_chemical_formula_structural   Sc6MnTe2
_chemical_formula_sum   'Sc6 Mn1 Te2'
_cell_volume   203.65260643
_cell_formula_units_Z   1
loop_
 _symmetry_equiv_pos_site_id
 _symmetry_equiv_pos_as_xyz
  1  'x, y, z'
loop_
 _atom_site_type_symbol
 _atom_site_label
 _atom_site_symmetry_multiplicity
 _atom_site_fract_x
 _atom_site_fract_y
 _atom_site_fract_z
 _atom_site_occupancy
  Sc  Sc0  1  0.23877229  0.99998408  0.50000000  1
  Sc  Sc1  1  0.99999014  0.23878774  0.50000000  1
  Sc  Sc2  1  0.76124142  0.76123562  0.50000000  1
  Sc  Sc3  1  0.61192538  0.00000482  0.00000000  1
  Sc  Sc4  1  0.00000285  0.61192118  -0.00000000  1
  Sc  Sc5  1  0.38806919  0.38807170  0.00000000  1
  Mn  Mn0  1  0.00000707  0.00001208  0.00000000  1
  Te  Te0  1  0.33338938  0.66665554  0.50000000  1
  Te  Te1  1  0.66660228  0.33332623  0.50000000  1
loop_
_geom_bond_atom_site_label_1
_geom_bond_atom_site_label_2
_geom_bond_distance
_geom_bond_site_symmetry_2
Sc0 Te1 3.001855 1_565
Sc0 Te0 3.002269 1_555
Sc1 Te0 3.002156 1_655
Sc1 Te1 3.002352 1_555
Sc2 Te0 3.001756 1_555
Sc2 Te1 3.001976 1_555
Sc3 Te0 3.099998 1_544
Sc3 Te0 3.099998 1_545
Sc3 Te1 3.100063 1_555
Sc3 Te1 3.100063 1_554
Sc4 Te1 3.100329 1_455
Sc4 Te1 3.100329 1_454
Sc4 Te0 3.100366 1_555
Sc4 Te0 3.100366 1_554
Sc5 Te1 3.099680 1_554
Sc5 Te1 3.099680 1_555
Sc5 Te0 3.099703 1_554
Sc5 Te0 3.099703 1_555
Mn0 Sc2 2.701916 1_445
Mn0 Sc2 2.701916 1_444
Mn0 Sc1 2.701929 1_454
Mn0 Sc1 2.701929 1_455
Mn0 Sc0 2.701930 1_544
Mn0 Sc0 2.701930 1_545
Mn0 Sc5 2.992417 1_555
Mn0 Sc3 2.992481 1_455
Mn0 Sc4 2.992500 1_545
