# generated using pymatgen
data_Na2Co7H16(CO2)16
_symmetry_space_group_name_H-M   'P 1'
_cell_length_a   8.45419900
_cell_length_b   8.55304389
_cell_length_c   12.98599625
_cell_angle_alpha   90.65528688
_cell_angle_beta   95.99846397
_cell_angle_gamma   100.84292193
_symmetry_Int_Tables_number   1
_chemical_formula_structural   Na2Co7H16(CO2)16
_chemical_formula_sum   'Na2 Co7 H16 C16 O32'
_cell_volume   916.72727063
_cell_formula_units_Z   1
loop_
 _symmetry_equiv_pos_site_id
 _symmetry_equiv_pos_as_xyz
  1  'x, y, z'
loop_
 _atom_site_type_symbol
 _atom_site_label
 _atom_site_symmetry_multiplicity
 _atom_site_fract_x
 _atom_site_fract_y
 _atom_site_fract_z
 _atom_site_occupancy
  Na  Na0  1  0.26952500  0.22581500  0.91187900  1
  Na  Na1  1  0.73047500  0.77418500  0.08812100  1
  Co  Co0  1  0.00000000  0.00000000  0.50000000  1
  Co  Co1  1  0.61605900  0.27301800  0.76489000  1
  Co  Co2  1  0.38394100  0.72698200  0.23511000  1
  Co  Co3  1  0.93091400  0.03435600  0.74229100  1
  Co  Co4  1  0.06908600  0.96564400  0.25770900  1
  Co  Co5  1  0.76809200  0.64399500  0.83633900  1
  Co  Co6  1  0.23190800  0.35600500  0.16366100  1
  H  H0  1  0.73132700  0.21246700  0.47583000  1
  H  H1  1  0.26867300  0.78753300  0.52417000  1
  H  H2  1  0.08619600  0.50479600  0.82588800  1
  H  H3  1  0.91380400  0.49520400  0.17411200  1
  H  H4  1  0.35382400  0.08839000  0.59692500  1
  H  H5  1  0.64617600  0.91161000  0.40307500  1
  H  H6  1  0.18006600  0.87416200  0.99049500  1
  H  H7  1  0.81993400  0.12583800  0.00950500  1
  H  H8  1  0.78898000  0.58939000  0.61387100  1
  H  H9  1  0.21102000  0.41061000  0.38612900  1
  H  H10  1  0.62706300  0.35607700  0.07115100  1
  H  H11  1  0.37293700  0.64392300  0.92884900  1
  H  H12  1  0.51029300  0.97630500  0.87269800  1
  H  H13  1  0.48970700  0.02369500  0.12730200  1
  H  H14  1  0.36056700  0.46056900  0.65255300  1
  H  H15  1  0.63943300  0.53943100  0.34744700  1
  C  C0  1  0.74143800  0.18822800  0.55950400  1
  C  C1  1  0.25856200  0.81177200  0.44049600  1
  C  C2  1  0.99019300  0.40001700  0.80359700  1
  C  C3  1  0.00980700  0.59998300  0.19640300  1
  C  C4  1  0.28685200  0.09276600  0.66523900  1
  C  C5  1  0.71314800  0.90723400  0.33476100  1
  C  C6  1  0.07740400  0.86173900  0.92872900  1
  C  C7  1  0.92259600  0.13826100  0.07127100  1
  C  C8  1  0.84165500  0.71758100  0.61863800  1
  C  C9  1  0.15834500  0.28241900  0.38136200  1
  C  C10  1  0.63924300  0.39180600  0.99025600  1
  C  C11  1  0.36075700  0.60819400  0.00974400  1
  C  C12  1  0.62794600  0.95141700  0.85494800  1
  C  C13  1  0.37205400  0.04858300  0.14505200  1
  C  C14  1  0.44275100  0.55666900  0.70091300  1
  C  C15  1  0.55724900  0.44333100  0.29908700  1
  O  O0  1  0.65303100  0.24976900  0.61355900  1
  O  O1  1  0.34696900  0.75023100  0.38644100  1
  O  O2  1  0.84231500  0.09935400  0.59130500  1
  O  O3  1  0.15768500  0.90064600  0.40869500  1
  O  O4  1  0.84571800  0.42554400  0.79368800  1
  O  O5  1  0.15428200  0.57445600  0.20631200  1
  O  O6  1  0.03373100  0.26874500  0.79070200  1
  O  O7  1  0.96626900  0.73125500  0.20929800  1
  O  O8  1  0.13550100  0.03343400  0.65191900  1
  O  O9  1  0.86449900  0.96656600  0.34808100  1
  O  O10  1  0.36487300  0.15582600  0.74856400  1
  O  O11  1  0.63512700  0.84417400  0.25143600  1
  O  O12  1  0.06547000  0.98555500  0.87783200  1
  O  O13  1  0.93453000  0.01444500  0.12216800  1
  O  O14  1  0.98723700  0.72558600  0.91919500  1
  O  O15  1  0.01276300  0.27441400  0.08080500  1
  O  O16  1  0.88940900  0.77987000  0.53773300  1
  O  O17  1  0.11059100  0.22013000  0.46226700  1
  O  O18  1  0.84729800  0.78687700  0.70786000  1
  O  O19  1  0.15270200  0.21312300  0.29214000  1
  O  O20  1  0.58230800  0.28305400  0.92115700  1
  O  O21  1  0.41769200  0.71694600  0.07884300  1
  O  O22  1  0.70515800  0.53462900  0.97710900  1
  O  O23  1  0.29484200  0.46537100  0.02289100  1
  O  O24  1  0.67487300  0.83265000  0.89496400  1
  O  O25  1  0.32512700  0.16735000  0.10503600  1
  O  O26  1  0.70572500  0.05178500  0.79672800  1
  O  O27  1  0.29427500  0.94821500  0.20327200  1
  O  O28  1  0.56689500  0.50801800  0.75098800  1
  O  O29  1  0.43310500  0.49198200  0.24901200  1
  O  O30  1  0.41457700  0.69257900  0.70418800  1
  O  O31  1  0.58542300  0.30742100  0.29581200  1
loop_
_geom_bond_atom_site_label_1
_geom_bond_atom_site_label_2
_geom_bond_distance
_geom_bond_site_symmetry_2
Na0 O12 2.424954 1_545
Na0 O10 2.452706 1_555
Na0 O23 2.454609 1_556
Na0 O6 2.493566 1_555
Na0 O25 2.575551 1_556
Na0 O20 2.586826 1_555
Na1 O13 2.424954 1_565
Na1 O11 2.452706 1_555
Na1 O22 2.454609 1_554
Na1 O7 2.493566 1_555
Na1 O24 2.575551 1_554
Na1 O21 2.586826 1_555
Co0 O17 2.028219 1_555
Co0 O16 2.028219 1_445
Co0 O2 2.153755 1_455
Co0 O3 2.153755 1_545
Co0 O8 2.162773 1_555
Co0 O9 2.162773 1_445
Co1 O0 2.035194 1_555
Co1 O20 2.081592 1_555
Co1 O4 2.120282 1_555
Co1 O28 2.133599 1_555
Co1 O10 2.158571 1_555
Co1 O26 2.195023 1_555
Co2 O1 2.035194 1_555
Co2 O21 2.081592 1_555
Co2 O5 2.120282 1_555
Co2 O29 2.133599 1_555
Co2 O11 2.158571 1_555
Co2 O27 2.195023 1_555
Co3 O12 2.084061 1_645
Co3 O6 2.090720 1_655
Co3 O18 2.128233 1_545
Co3 O26 2.128857 1_555
Co3 O2 2.142223 1_555
Co3 O8 2.190451 1_655
Co4 O13 2.084061 1_465
Co4 O7 2.090720 1_455
Co4 O19 2.128233 1_565
Co4 O27 2.128857 1_555
Co4 O3 2.142223 1_555
Co4 O9 2.190451 1_455
Co5 O14 2.038857 1_555
Co5 O28 2.075223 1_555
Co5 O24 2.092852 1_555
Co5 O22 2.134233 1_555
Co5 O18 2.167435 1_555
Co5 O4 2.177631 1_555
Co6 O15 2.038857 1_555
Co6 O29 2.075223 1_555
Co6 O25 2.092852 1_555
Co6 O23 2.134233 1_555
Co6 O19 2.167435 1_555
Co6 O5 2.177631 1_555
C0 H0 1.106062 1_555
C0 O0 1.256042 1_555
C0 O2 1.285753 1_555
C1 H1 1.106062 1_555
C1 O1 1.256042 1_555
C1 O3 1.285753 1_555
C2 H2 1.103166 1_655
C2 O6 1.260244 1_655
C2 O4 1.274450 1_555
C3 H3 1.103166 1_455
C3 O7 1.260244 1_455
C3 O5 1.274450 1_555
C4 H4 1.105062 1_555
C4 O10 1.265093 1_555
C4 O8 1.277548 1_555
C5 H5 1.105062 1_555
C5 O11 1.265093 1_555
C5 O9 1.277548 1_555
C6 H6 1.107155 1_555
C6 O14 1.263139 1_455
C6 O12 1.269170 1_555
C7 H7 1.107155 1_555
C7 O15 1.263139 1_655
C7 O13 1.269170 1_555
C8 H8 1.101487 1_555
C8 O16 1.253469 1_555
C8 O18 1.287672 1_555
C9 H9 1.101487 1_555
C9 O17 1.253469 1_555
C9 O19 1.287672 1_555
C10 H10 1.107094 1_556
C10 O22 1.265094 1_555
C10 O20 1.274463 1_555
C11 H11 1.107094 1_554
C11 O23 1.265094 1_555
C11 O21 1.274463 1_555
C12 H12 1.101931 1_555
C12 O24 1.256952 1_555
C12 O26 1.283472 1_565
C13 H13 1.101931 1_555
C13 O25 1.256952 1_555
C13 O27 1.283472 1_545
C14 H14 1.111245 1_555
C14 O30 1.230844 1_555
C14 O28 1.313543 1_555
C15 H15 1.111245 1_555
C15 O31 1.230844 1_555
C15 O29 1.313543 1_555
