# generated using pymatgen
data_PrIn2Ni9
_symmetry_space_group_name_H-M   'P 1'
_cell_length_a   8.21883164
_cell_length_b   8.21883164
_cell_length_c   4.86190639
_cell_angle_alpha   90.00000000
_cell_angle_beta   90.00000000
_cell_angle_gamma   90.00000000
_symmetry_Int_Tables_number   1
_chemical_formula_structural   PrIn2Ni9
_chemical_formula_sum   'Pr2 In4 Ni18'
_cell_volume   328.41785565
_cell_formula_units_Z   2
loop_
 _symmetry_equiv_pos_site_id
 _symmetry_equiv_pos_as_xyz
  1  'x, y, z'
loop_
 _atom_site_type_symbol
 _atom_site_label
 _atom_site_symmetry_multiplicity
 _atom_site_fract_x
 _atom_site_fract_y
 _atom_site_fract_z
 _atom_site_occupancy
  Pr  Pr0  1  0.50000000  0.50000000  -0.00000000  1
  Pr  Pr1  1  -0.00000000  0.00000000  -0.00000000  1
  In  In0  1  0.12383102  0.62383102  -0.00000000  1
  In  In1  1  0.87616898  0.37616898  0.00000000  1
  In  In2  1  0.37616898  0.12383102  -0.00000000  1
  In  In3  1  0.62383102  0.87616898  0.00000000  1
  Ni  Ni0  1  -0.00000000  0.50000000  0.50000000  1
  Ni  Ni1  1  0.50000000  0.00000000  0.50000000  1
  Ni  Ni2  1  0.56616780  0.70999054  0.50000000  1
  Ni  Ni3  1  0.43383220  0.29000946  0.50000000  1
  Ni  Ni4  1  0.93383220  0.20999054  0.50000000  1
  Ni  Ni5  1  0.06616780  0.79000946  0.50000000  1
  Ni  Ni6  1  0.70999054  0.43383220  0.50000000  1
  Ni  Ni7  1  0.29000946  0.56616780  0.50000000  1
  Ni  Ni8  1  0.20999054  0.06616780  0.50000000  1
  Ni  Ni9  1  0.79000946  0.93383220  0.50000000  1
  Ni  Ni10  1  0.32403138  0.82403138  0.74637784  1
  Ni  Ni11  1  0.67596862  0.17596862  0.74637784  1
  Ni  Ni12  1  0.17596862  0.32403138  0.74637784  1
  Ni  Ni13  1  0.82403138  0.67596862  0.74637784  1
  Ni  Ni14  1  0.67596862  0.17596862  0.25362216  1
  Ni  Ni15  1  0.32403138  0.82403138  0.25362216  1
  Ni  Ni16  1  0.82403138  0.67596862  0.25362216  1
  Ni  Ni17  1  0.17596862  0.32403138  0.25362216  1
loop_
_geom_bond_atom_site_label_1
_geom_bond_atom_site_label_2
_geom_bond_distance
_geom_bond_site_symmetry_2
In0 Ni15 2.633491 1_555
In0 Ni10 2.633491 1_554
In0 Ni16 2.788447 1_455
In0 Ni13 2.788447 1_454
In0 Ni17 2.788447 1_555
In0 Ni12 2.788447 1_554
In0 Ni0 2.825093 1_554
In0 Ni0 2.825093 1_555
In0 Ni5 2.828344 1_555
In0 Ni7 2.828344 1_554
In0 Ni7 2.828344 1_555
In0 Ni5 2.828344 1_554
In0 In1 2.878621 1_455
In0 Pr1 3.254878 1_565
In0 Pr0 3.254878 1_555
In1 Ni11 2.633491 1_554
In1 Ni14 2.633491 1_555
In1 Ni17 2.788447 1_655
In1 Ni12 2.788447 1_654
In1 Ni13 2.788447 1_554
In1 Ni16 2.788447 1_555
In1 Ni0 2.825093 1_655
In1 Ni0 2.825093 1_654
In1 Ni6 2.828344 1_554
In1 Ni4 2.828344 1_554
In1 Ni6 2.828344 1_555
In1 Ni4 2.828344 1_555
In1 Pr1 3.254878 1_655
In1 Pr0 3.254878 1_555
In2 Ni17 2.633491 1_555
In2 Ni12 2.633491 1_554
In2 Ni10 2.788447 1_544
In2 Ni14 2.788447 1_555
In2 Ni15 2.788447 1_545
In2 Ni11 2.788447 1_554
In2 Ni1 2.825093 1_554
In2 Ni1 2.825093 1_555
In2 Ni3 2.828344 1_554
In2 Ni8 2.828344 1_555
In2 Ni3 2.828344 1_555
In2 Ni8 2.828344 1_554
In2 In3 2.878621 1_545
In2 Pr1 3.254878 1_555
In2 Pr0 3.254878 1_555
In3 Ni16 2.633491 1_555
In3 Ni13 2.633491 1_554
In3 Ni14 2.788447 1_565
In3 Ni11 2.788447 1_564
In3 Ni10 2.788447 1_554
In3 Ni15 2.788447 1_555
In3 Ni1 2.825093 1_564
In3 Ni1 2.825093 1_565
In3 Ni9 2.828344 1_554
In3 Ni9 2.828344 1_555
In3 Ni2 2.828344 1_555
In3 Ni2 2.828344 1_554
In3 Pr1 3.254878 1_665
In3 Pr0 3.254878 1_555
Ni0 Ni13 2.370274 1_455
Ni0 Ni12 2.370274 1_555
Ni0 Ni17 2.370274 1_555
Ni0 Ni16 2.370274 1_455
Ni0 Ni7 2.444790 1_555
Ni0 Ni4 2.444790 1_455
Ni0 Ni6 2.444790 1_455
Ni0 Ni5 2.444790 1_555
Ni1 Ni11 2.370274 1_555
Ni1 Ni10 2.370274 1_545
Ni1 Ni14 2.370274 1_555
Ni1 Ni15 2.370274 1_545
Ni1 Ni3 2.444790 1_555
Ni1 Ni8 2.444790 1_555
Ni1 Ni9 2.444790 1_545
Ni1 Ni2 2.444790 1_545
Ni2 Ni6 2.559060 1_555
Ni2 Ni7 2.559060 1_555
Ni2 Ni9 2.601753 1_555
Ni2 Pr0 3.030499 1_555
Ni2 Pr0 3.030499 1_556
Ni3 Ni6 2.559060 1_555
Ni3 Ni7 2.559060 1_555
Ni3 Ni8 2.601753 1_555
Ni3 Pr0 3.030499 1_555
Ni3 Pr0 3.030499 1_556
Ni4 Ni9 2.559060 1_545
Ni4 Ni8 2.559060 1_655
Ni4 Ni6 2.601753 1_555
Ni4 Pr1 3.030499 1_656
Ni4 Pr1 3.030499 1_655
Ni5 Ni9 2.559060 1_455
Ni5 Ni8 2.559060 1_565
Ni5 Ni7 2.601753 1_555
Ni5 Pr1 3.030499 1_566
Ni5 Pr1 3.030499 1_565
Ni6 Pr0 3.030499 1_555
Ni6 Pr0 3.030499 1_556
Ni7 Pr0 3.030499 1_555
Ni7 Pr0 3.030499 1_556
Ni8 Pr1 3.030499 1_555
Ni8 Pr1 3.030499 1_556
Ni9 Pr1 3.030499 1_666
Ni9 Pr1 3.030499 1_665
Ni10 Ni15 2.395732 1_555
Ni10 Ni7 2.450441 1_555
Ni10 Ni5 2.450441 1_555
Ni10 Ni15 2.466174 1_556
Ni10 Ni2 2.504754 1_555
Ni10 Ni8 2.504754 1_565
Ni10 Pr1 3.271785 1_566
Ni10 Pr0 3.271785 1_556
Ni11 Ni14 2.395732 1_555
Ni11 Ni4 2.450441 1_555
Ni11 Ni6 2.450441 1_555
Ni11 Ni14 2.466174 1_556
Ni11 Ni3 2.504754 1_555
Ni11 Ni9 2.504754 1_545
Ni11 Pr1 3.271785 1_656
Ni11 Pr0 3.271785 1_556
Ni12 Ni17 2.395732 1_555
Ni12 Ni8 2.450441 1_555
Ni12 Ni3 2.450441 1_555
Ni12 Ni17 2.466174 1_556
Ni12 Ni4 2.504754 1_455
Ni12 Ni7 2.504754 1_555
Ni12 Pr0 3.271785 1_556
Ni12 Pr1 3.271785 1_556
Ni13 Ni16 2.395732 1_555
Ni13 Ni9 2.450441 1_555
Ni13 Ni2 2.450441 1_555
Ni13 Ni16 2.466174 1_556
Ni13 Ni6 2.504754 1_555
Ni13 Ni5 2.504754 1_655
Ni13 Pr0 3.271785 1_556
Ni13 Pr1 3.271785 1_666
Ni14 Ni6 2.450441 1_555
Ni14 Ni4 2.450441 1_555
Ni14 Ni3 2.504754 1_555
Ni14 Ni9 2.504754 1_545
Ni14 Pr1 3.271785 1_655
Ni14 Pr0 3.271785 1_555
Ni15 Ni7 2.450441 1_555
Ni15 Ni5 2.450441 1_555
Ni15 Ni2 2.504754 1_555
Ni15 Ni8 2.504754 1_565
Ni15 Pr1 3.271785 1_565
Ni15 Pr0 3.271785 1_555
Ni16 Ni2 2.450441 1_555
Ni16 Ni9 2.450441 1_555
Ni16 Ni6 2.504754 1_555
Ni16 Ni5 2.504754 1_655
Ni16 Pr0 3.271785 1_555
Ni16 Pr1 3.271785 1_665
Ni17 Ni3 2.450441 1_555
Ni17 Ni8 2.450441 1_555
Ni17 Ni7 2.504754 1_555
Ni17 Ni4 2.504754 1_455
Ni17 Pr1 3.271785 1_555
Ni17 Pr0 3.271785 1_555
