# generated using pymatgen
data_Ca2LaSbO6
_symmetry_space_group_name_H-M   'P 1'
_cell_length_a   5.72494839
_cell_length_b   5.93395100
_cell_length_c   8.26259129
_cell_angle_alpha   90.00000000
_cell_angle_beta   89.96365208
_cell_angle_gamma   90.00000000
_symmetry_Int_Tables_number   1
_chemical_formula_structural   Ca2LaSbO6
_chemical_formula_sum   'Ca4 La2 Sb2 O12'
_cell_volume   280.69308598
_cell_formula_units_Z   2
loop_
 _symmetry_equiv_pos_site_id
 _symmetry_equiv_pos_as_xyz
  1  'x, y, z'
loop_
 _atom_site_type_symbol
 _atom_site_label
 _atom_site_symmetry_multiplicity
 _atom_site_fract_x
 _atom_site_fract_y
 _atom_site_fract_z
 _atom_site_occupancy
  Ca  Ca0  1  0.51334700  0.94965800  0.24779600  1
  Ca  Ca1  1  0.01334700  0.55034200  0.74779600  1
  Ca  Ca2  1  0.99939900  0.99671000  0.49908800  1
  Ca  Ca3  1  0.49939900  0.50329000  0.99908800  1
  La  La0  1  0.48565200  0.05135600  0.75204600  1
  La  La1  1  0.98565200  0.44864400  0.25204600  1
  Sb  Sb0  1  0.49969600  0.50040900  0.50086900  1
  Sb  Sb1  1  0.99969600  0.99959100  0.00086900  1
  O  O0  1  0.82565000  0.71633600  0.06511200  1
  O  O1  1  0.32565000  0.78366400  0.56511200  1
  O  O2  1  0.17516600  0.28228300  0.93451500  1
  O  O3  1  0.67516500  0.21771700  0.43451500  1
  O  O4  1  0.78557100  0.68118900  0.44611800  1
  O  O5  1  0.28557100  0.81881100  0.94611800  1
  O  O6  1  0.21329100  0.31910100  0.55405900  1
  O  O7  1  0.71329100  0.18089900  0.05405900  1
  O  O8  1  0.38794400  0.55119200  0.27062400  1
  O  O9  1  0.88794400  0.94880800  0.77062400  1
  O  O10  1  0.61428300  0.45227700  0.72977400  1
  O  O11  1  0.11428300  0.04772300  0.22977400  1
loop_
_geom_bond_atom_site_label_1
_geom_bond_atom_site_label_2
_geom_bond_distance
_geom_bond_site_symmetry_2
Ca0 O11 2.362355 1_565
Ca0 O7 2.398596 1_565
Ca0 O3 2.402160 1_565
Ca0 O8 2.478221 1_555
Ca0 O0 2.718188 1_555
Ca0 O4 2.766796 1_555
Ca0 O5 2.919020 1_554
Ca0 O1 2.999238 1_555
Ca1 O10 2.362355 1_455
Ca1 O6 2.398596 1_555
Ca1 O2 2.402162 1_555
Ca1 O9 2.478221 1_455
Ca1 O1 2.718188 1_555
Ca1 O5 2.766796 1_555
Ca1 O4 2.919020 1_455
Ca1 O0 2.999238 1_456
Ca2 O4 2.279527 1_555
Ca2 O6 2.316512 1_665
Ca2 O1 2.320705 1_655
Ca2 O3 2.334817 1_565
Ca2 O11 2.339660 1_665
Ca2 O9 2.349430 1_555
Ca3 O5 2.279527 1_555
Ca3 O7 2.316512 1_556
Ca3 O0 2.320705 1_556
Ca3 O2 2.334813 1_555
Ca3 O10 2.339660 1_555
Ca3 O8 2.349430 1_556
La0 O9 2.387169 1_545
La0 O1 2.397866 1_545
La0 O5 2.405248 1_545
La0 O10 2.497167 1_555
La0 O2 2.703141 1_555
La0 O6 2.763126 1_555
La0 O7 2.918987 1_556
La0 O3 3.005239 1_555
La1 O8 2.387169 1_655
La1 O0 2.397866 1_555
La1 O4 2.405248 1_555
La1 O11 2.497167 1_655
La1 O3 2.703145 1_555
La1 O7 2.763126 1_555
La1 O6 2.918987 1_655
La1 O2 3.005241 1_654
O0 Sb1 2.024617 1_555
O1 Sb0 2.024617 1_555
O2 Sb1 2.030508 1_446
O3 Sb0 2.030505 1_555
O4 Sb0 2.008235 1_555
O5 Sb1 2.008235 1_456
O6 Sb0 2.009528 1_555
O7 Sb1 2.009528 1_545
O8 Sb0 2.029992 1_555
O9 Sb1 2.029992 1_556
O10 Sb0 2.022545 1_555
O11 Sb1 2.022545 1_445
