# generated using pymatgen
data_MgSi
_symmetry_space_group_name_H-M   'P 1'
_cell_length_a   5.51904800
_cell_length_b   5.69542565
_cell_length_c   7.62898421
_cell_angle_alpha   96.64643973
_cell_angle_beta   95.19749989
_cell_angle_gamma   111.42731090
_symmetry_Int_Tables_number   1
_chemical_formula_structural   MgSi
_chemical_formula_sum   'Mg6 Si6'
_cell_volume   219.42786477
_cell_formula_units_Z   6
loop_
 _symmetry_equiv_pos_site_id
 _symmetry_equiv_pos_as_xyz
  1  'x, y, z'
loop_
 _atom_site_type_symbol
 _atom_site_label
 _atom_site_symmetry_multiplicity
 _atom_site_fract_x
 _atom_site_fract_y
 _atom_site_fract_z
 _atom_site_occupancy
  Mg  Mg0  1  0.40246300  0.97453600  0.68562100  1
  Mg  Mg1  1  0.73718800  0.79613100  0.97650800  1
  Mg  Mg2  1  0.59753700  0.02546400  0.31437900  1
  Mg  Mg3  1  0.18866900  0.48285100  0.35731200  1
  Mg  Mg4  1  0.26281200  0.20386900  0.02349200  1
  Mg  Mg5  1  0.81133100  0.51714900  0.64268800  1
  Si  Si0  1  0.92213300  0.05468200  0.64029000  1
  Si  Si1  1  0.80217200  0.31648600  0.01326800  1
  Si  Si2  1  0.19782800  0.68351400  0.98673200  1
  Si  Si3  1  0.29952200  0.46304900  0.71980500  1
  Si  Si4  1  0.07786700  0.94531800  0.35971000  1
  Si  Si5  1  0.70047800  0.53695100  0.28019500  1
loop_
_geom_bond_atom_site_label_1
_geom_bond_atom_site_label_2
_geom_bond_distance
_geom_bond_site_symmetry_2
Mg0 Si0 2.795276 1_565
Mg0 Si3 2.805460 1_555
Mg0 Si0 2.847831 1_465
Mg0 Si4 2.880704 1_555
Mg0 Si3 3.024193 1_565
Mg0 Si2 3.046886 1_555
Mg0 Si1 3.105238 1_566
Mg0 Mg5 3.165903 1_565
Mg0 Mg3 3.306706 1_555
Mg0 Mg5 3.307036 1_455
Mg1 Si2 2.817300 1_555
Mg1 Si1 2.828999 1_566
Mg1 Si2 2.836865 1_655
Mg1 Si3 2.864193 1_555
Mg1 Si5 2.871569 1_556
Mg1 Si1 2.923162 1_556
Mg1 Mg5 2.984122 1_555
Mg1 Si0 3.168599 1_565
Mg1 Si4 3.172626 1_656
Mg2 Si4 2.795276 1_545
Mg2 Si5 2.805460 1_555
Mg2 Si4 2.847831 1_645
Mg2 Si0 2.880704 1_555
Mg2 Si5 3.024193 1_545
Mg2 Si1 3.046886 1_555
Mg2 Si2 3.105238 1_544
Mg2 Mg3 3.165903 1_545
Mg2 Mg5 3.306706 1_555
Mg2 Mg3 3.307036 1_655
Mg3 Si3 2.801933 1_555
Mg3 Si5 2.839353 1_455
Mg3 Si5 2.850811 1_555
Mg3 Si4 2.897251 1_545
Mg3 Si4 2.911991 1_555
Mg3 Mg4 2.984122 1_555
Mg3 Si1 3.044696 1_455
Mg3 Si2 3.167503 1_554
Mg3 Mg5 3.183597 1_455
Mg4 Si1 2.817300 1_555
Mg4 Si2 2.828999 1_544
Mg4 Si1 2.836865 1_455
Mg4 Si5 2.864193 1_555
Mg4 Si3 2.871569 1_554
Mg4 Si2 2.923162 1_554
Mg4 Si4 3.168599 1_545
Mg4 Si0 3.172626 1_454
Mg5 Si5 2.801933 1_555
Mg5 Si3 2.839353 1_655
Mg5 Si3 2.850811 1_555
Mg5 Si0 2.897251 1_565
Mg5 Si0 2.911991 1_555
Mg5 Si2 3.044696 1_655
Mg5 Si1 3.167503 1_556
Si0 Si3 2.453704 1_655
Si0 Si4 2.474770 1_645
Si1 Si2 2.453958 1_654
Si1 Si5 2.483662 1_555
Si2 Si3 2.483662 1_555
Si4 Si5 2.453704 1_455
