# generated using pymatgen
data_Er4MnS7
_symmetry_space_group_name_H-M   'P 1'
_cell_length_a   6.49008722
_cell_length_b   6.49008722
_cell_length_c   11.36721285
_cell_angle_alpha   75.67620513
_cell_angle_beta   75.67620513
_cell_angle_gamma   33.64638511
_symmetry_Int_Tables_number   1
_chemical_formula_structural   Er4MnS7
_chemical_formula_sum   'Er4 Mn1 S7'
_cell_volume   256.27305359
_cell_formula_units_Z   1
loop_
 _symmetry_equiv_pos_site_id
 _symmetry_equiv_pos_as_xyz
  1  'x, y, z'
loop_
 _atom_site_type_symbol
 _atom_site_label
 _atom_site_symmetry_multiplicity
 _atom_site_fract_x
 _atom_site_fract_y
 _atom_site_fract_z
 _atom_site_occupancy
  Er  Er0  1  0.69319464  0.69319464  0.20353658  1
  Er  Er1  1  0.30676892  0.30676892  0.80152880  1
  Er  Er2  1  0.11357995  0.11357995  0.56809230  1
  Er  Er3  1  0.99987779  0.99987779  0.00542013  1
  Mn  Mn0  1  0.88488938  0.88488938  0.42166957  1
  S  S0  1  0.03588818  0.03588818  0.22338871  1
  S  S1  1  0.96243393  0.96243393  0.78510540  1
  S  S2  1  0.33952332  0.33952332  0.05117426  1
  S  S3  1  0.65961976  0.65961976  0.94809552  1
  S  S4  1  0.74286614  0.74286614  0.64098075  1
  S  S5  1  0.26607718  0.26607718  0.35313828  1
  S  S6  1  0.49528181  0.49528181  0.49786871  1
loop_
_geom_bond_atom_site_label_1
_geom_bond_atom_site_label_2
_geom_bond_distance
_geom_bond_site_symmetry_2
Er0 S0 2.677898 1_655
Er0 S0 2.677898 1_565
Er0 S5 2.834808 1_655
Er0 S5 2.834808 1_565
Er0 S2 2.864533 1_655
Er0 S2 2.864533 1_565
Er0 S3 3.038315 1_554
Er1 S1 2.667791 1_545
Er1 S1 2.667791 1_455
Er1 S3 2.841126 1_455
Er1 S3 2.841126 1_545
Er1 S4 2.870225 1_545
Er1 S4 2.870225 1_455
Er1 S2 2.969100 1_556
Er2 S6 2.632920 1_545
Er2 S6 2.632920 1_455
Er2 S5 2.677154 1_555
Er2 S1 2.686490 1_445
Er2 S4 2.735507 1_455
Er2 S4 2.735507 1_545
Er3 S0 2.629106 1_665
Er3 S1 2.662808 1_554
Er3 S3 2.687654 1_564
Er3 S3 2.687654 1_654
Er3 S2 2.689337 1_565
Er3 S2 2.689337 1_655
Mn0 S0 2.532587 1_665
Mn0 S6 2.602663 1_565
Mn0 S6 2.602663 1_655
Mn0 S5 2.628440 1_655
Mn0 S5 2.628440 1_565
Mn0 S4 2.656055 1_555
