# generated using pymatgen
data_NaGaBP2H3O10
_symmetry_space_group_name_H-M   'P 1'
_cell_length_a   8.56205882
_cell_length_b   8.56205882
_cell_length_c   7.97734137
_cell_angle_alpha   65.42099244
_cell_angle_beta   65.42099244
_cell_angle_gamma   61.18082065
_symmetry_Int_Tables_number   1
_chemical_formula_structural   NaGaBP2H3O10
_chemical_formula_sum   'Na2 Ga2 B2 P4 H6 O20'
_cell_volume   448.59369704
_cell_formula_units_Z   2
loop_
 _symmetry_equiv_pos_site_id
 _symmetry_equiv_pos_as_xyz
  1  'x, y, z'
loop_
 _atom_site_type_symbol
 _atom_site_label
 _atom_site_symmetry_multiplicity
 _atom_site_fract_x
 _atom_site_fract_y
 _atom_site_fract_z
 _atom_site_occupancy
  Na  Na0  1  0.07113900  0.92886100  0.25000000  1
  Na  Na1  1  0.92886100  0.07113900  0.75000000  1
  Ga  Ga0  1  0.00000000  0.50000000  0.00000000  1
  Ga  Ga1  1  0.50000000  0.00000000  0.50000000  1
  B  B0  1  0.60588300  0.39411700  0.75000000  1
  B  B1  1  0.39411700  0.60588300  0.25000000  1
  P  P0  1  0.26189700  0.13888400  0.82457100  1
  P  P1  1  0.86111600  0.73810300  0.67542900  1
  P  P2  1  0.73810300  0.86111600  0.17542900  1
  P  P3  1  0.13888400  0.26189700  0.32457100  1
  H  H0  1  0.50000000  0.00000000  0.00000000  1
  H  H1  1  0.00000000  0.50000000  0.50000000  1
  H  H2  1  0.27007700  0.48514700  0.13065500  1
  H  H3  1  0.51485300  0.72992300  0.36934500  1
  H  H4  1  0.72992300  0.51485300  0.86934500  1
  H  H5  1  0.48514700  0.27007700  0.63065500  1
  O  O0  1  0.20554100  0.40126900  0.12031600  1
  O  O1  1  0.59873100  0.79445900  0.37968400  1
  O  O2  1  0.79445900  0.59873100  0.87968400  1
  O  O3  1  0.40126900  0.20554100  0.62031600  1
  O  O4  1  0.57331900  0.34263800  0.64613100  1
  O  O5  1  0.65736200  0.42668100  0.85386900  1
  O  O6  1  0.42668100  0.65736200  0.35386900  1
  O  O7  1  0.34263800  0.57331900  0.14613100  1
  O  O8  1  0.21065500  0.01803700  0.77726700  1
  O  O9  1  0.98196300  0.78934500  0.72273300  1
  O  O10  1  0.78934500  0.98196300  0.22273300  1
  O  O11  1  0.01803700  0.21065500  0.27726700  1
  O  O12  1  0.35444000  0.02627800  0.98862900  1
  O  O13  1  0.97372200  0.64556000  0.51137100  1
  O  O14  1  0.64556000  0.97372200  0.01137100  1
  O  O15  1  0.02627800  0.35444000  0.48862900  1
  O  O16  1  0.10481800  0.32204600  0.86427100  1
  O  O17  1  0.67795400  0.89518200  0.63572900  1
  O  O18  1  0.89518200  0.67795400  0.13572900  1
  O  O19  1  0.32204600  0.10481800  0.36427100  1
loop_
_geom_bond_atom_site_label_1
_geom_bond_atom_site_label_2
_geom_bond_distance
_geom_bond_site_symmetry_2
Na0 O11 2.317770 1_565
Na0 O10 2.317770 1_455
Na0 O13 2.687615 1_455
Na0 O12 2.687615 1_564
Na1 O8 2.317770 1_655
Na1 O9 2.317770 1_545
Na1 O14 2.687615 1_546
Na1 O15 2.687615 1_655
Ga0 O18 1.882826 1_455
Ga0 O16 1.882826 1_554
Ga0 O0 2.007198 1_555
Ga0 O2 2.007198 1_454
Ga1 O17 1.882826 1_545
Ga1 O19 1.882826 1_555
Ga1 O3 2.007198 1_555
Ga1 O1 2.007198 1_545
B0 O4 1.254225 1_555
B0 O5 1.254225 1_555
B1 O6 1.254225 1_555
B1 O7 1.254225 1_555
H0 O12 1.191145 1_554
H0 O14 1.191145 1_545
H1 O15 1.191145 1_555
H1 O13 1.191145 1_455
H2 O0 1.139150 1_555
H2 O7 1.250866 1_555
H3 O1 1.139150 1_555
H3 O6 1.250866 1_555
H4 O2 1.139150 1_555
H4 O5 1.250866 1_555
H5 O3 1.139150 1_555
H5 O4 1.250866 1_555
O0 P3 1.634058 1_555
O1 P2 1.634058 1_555
O2 P1 1.634058 1_555
O3 P0 1.634058 1_555
O8 P0 1.518454 1_555
O9 P1 1.518454 1_555
O10 P2 1.518454 1_555
O11 P3 1.518454 1_555
O12 P0 1.531886 1_555
O13 P1 1.531886 1_555
O14 P2 1.531886 1_555
O15 P3 1.531886 1_555
O16 P0 1.547225 1_555
O17 P1 1.547225 1_555
O18 P2 1.547225 1_555
O19 P3 1.547225 1_555
