# generated using pymatgen
data_ErTl2P2Se7
_symmetry_space_group_name_H-M   'P 1'
_cell_length_a   12.50262398
_cell_length_b   12.50262398
_cell_length_c   19.14844682
_cell_angle_alpha   62.13114486
_cell_angle_beta   62.13114486
_cell_angle_gamma   32.55934450
_symmetry_Int_Tables_number   1
_chemical_formula_structural   ErTl2P2Se7
_chemical_formula_sum   'Er4 Tl8 P8 Se28'
_cell_volume   1406.95068643
_cell_formula_units_Z   4
loop_
 _symmetry_equiv_pos_site_id
 _symmetry_equiv_pos_as_xyz
  1  'x, y, z'
loop_
 _atom_site_type_symbol
 _atom_site_label
 _atom_site_symmetry_multiplicity
 _atom_site_fract_x
 _atom_site_fract_y
 _atom_site_fract_z
 _atom_site_occupancy
  Er  Er0  1  0.89144780  0.78612610  0.24053194  1
  Er  Er1  1  0.21387390  0.10855220  0.25946806  1
  Er  Er2  1  0.10855220  0.21387390  0.75946806  1
  Er  Er3  1  0.78612610  0.89144780  0.74053194  1
  Tl  Tl0  1  0.83425597  0.82110094  0.01917942  1
  Tl  Tl1  1  0.17889906  0.16574403  0.48082058  1
  Tl  Tl2  1  0.16574403  0.17889906  0.98082058  1
  Tl  Tl3  1  0.82110094  0.83425597  0.51917942  1
  Tl  Tl4  1  0.54099759  0.46588994  0.12802178  1
  Tl  Tl5  1  0.53411006  0.45900241  0.37197822  1
  Tl  Tl6  1  0.45900241  0.53411006  0.87197822  1
  Tl  Tl7  1  0.46588994  0.54099759  0.62802178  1
  P  P0  1  0.68220141  0.65756957  0.35821737  1
  P  P1  1  0.34243043  0.31779859  0.14178263  1
  P  P2  1  0.31779859  0.34243043  0.64178263  1
  P  P3  1  0.65756957  0.68220141  0.85821737  1
  P  P4  1  0.98565090  0.92039637  0.30663699  1
  P  P5  1  0.07960363  0.01434910  0.19336301  1
  P  P6  1  0.01434910  0.07960363  0.69336301  1
  P  P7  1  0.92039637  0.98565090  0.80663699  1
  Se  Se0  1  0.00500945  0.94725237  0.40217989  1
  Se  Se1  1  0.05274763  0.99498955  0.09782011  1
  Se  Se2  1  0.99499055  0.05274763  0.59782011  1
  Se  Se3  1  0.94725237  0.00501045  0.90217989  1
  Se  Se4  1  0.19192204  0.61371841  0.30215038  1
  Se  Se5  1  0.38628159  0.80807796  0.19784962  1
  Se  Se6  1  0.80807796  0.38628159  0.69784962  1
  Se  Se7  1  0.61371841  0.19192204  0.80215038  1
  Se  Se8  1  0.16919469  0.62584468  0.09096902  1
  Se  Se9  1  0.37415532  0.83080531  0.40903098  1
  Se  Se10  1  0.83080531  0.37415532  0.90903098  1
  Se  Se11  1  0.62584468  0.16919469  0.59096902  1
  Se  Se12  1  0.22452492  0.32578748  0.27162894  1
  Se  Se13  1  0.67421252  0.77547508  0.22837106  1
  Se  Se14  1  0.77547508  0.67421252  0.72837106  1
  Se  Se15  1  0.32578748  0.22452492  0.77162894  1
  Se  Se16  1  0.76416649  0.71098987  0.40373933  1
  Se  Se17  1  0.28901013  0.23583351  0.09626067  1
  Se  Se18  1  0.23583351  0.28901013  0.59626067  1
  Se  Se19  1  0.71098987  0.76416649  0.90373933  1
  Se  Se20  1  0.87987017  0.33878229  0.38931863  1
  Se  Se21  1  0.66121771  0.12012983  0.11068137  1
  Se  Se22  1  0.12012983  0.66121771  0.61068137  1
  Se  Se23  1  0.33878229  0.87987017  0.88931863  1
  Se  Se24  1  0.88849799  0.31390946  0.19794533  1
  Se  Se25  1  0.68609054  0.11150201  0.30205467  1
  Se  Se26  1  0.11150201  0.68609054  0.80205467  1
  Se  Se27  1  0.31390946  0.88849799  0.69794533  1
loop_
_geom_bond_atom_site_label_1
_geom_bond_atom_site_label_2
_geom_bond_distance
_geom_bond_site_symmetry_2
Er0 Se4 2.875327 1_655
Er0 Se16 2.882246 1_555
Er0 Se25 2.928353 1_565
Er0 Se8 2.934955 1_655
Er0 Se21 2.937361 1_565
Er0 Se13 2.945949 1_555
Er0 Se12 3.087747 1_655
Er1 Se5 2.875327 1_545
Er1 Se17 2.882246 1_555
Er1 Se24 2.928353 1_455
Er1 Se9 2.934955 1_545
Er1 Se20 2.937361 1_455
Er1 Se12 2.945949 1_555
Er1 Se13 3.087747 1_545
Er2 Se6 2.875327 1_455
Er2 Se18 2.882246 1_555
Er2 Se27 2.928353 1_545
Er2 Se10 2.934955 1_455
Er2 Se23 2.937361 1_545
Er2 Se15 2.945949 1_555
Er2 Se14 3.087747 1_455
Er3 Se7 2.875327 1_565
Er3 Se19 2.882246 1_555
Er3 Se26 2.928353 1_655
Er3 Se11 2.934955 1_565
Er3 Se22 2.937361 1_655
Er3 Se14 2.945949 1_555
Er3 Se15 3.087747 1_565
P0 Se16 2.188429 1_555
P0 Se9 2.208265 1_555
P0 Se20 2.213787 1_555
P0 Se13 2.218643 1_555
P1 Se17 2.188429 1_555
P1 Se8 2.208265 1_555
P1 Se21 2.213787 1_555
P1 Se12 2.218643 1_555
P2 Se18 2.188429 1_555
P2 Se11 2.208265 1_555
P2 Se22 2.213787 1_555
P2 Se15 2.218643 1_555
P3 Se19 2.188429 1_555
P3 Se10 2.208265 1_555
P3 Se23 2.213787 1_555
P3 Se14 2.218643 1_555
P4 Se0 2.154912 1_655
P4 Se25 2.184133 1_565
P4 Se4 2.189137 1_655
P4 P5 2.241925 1_665
P5 Se1 2.154920 1_545
P5 Se24 2.184133 1_455
P5 Se5 2.189137 1_545
P6 Se2 2.154912 1_455
P6 Se27 2.184133 1_545
P6 Se6 2.189137 1_455
P6 P7 2.241925 1_445
P7 Se3 2.154920 1_565
P7 Se26 2.184133 1_655
P7 Se7 2.189137 1_565
Se0 Tl3 3.162712 1_455
Se1 Tl2 3.162722 1_564
Se2 Tl1 3.162712 1_655
Se3 Tl0 3.162722 1_546
Se8 Tl0 3.224495 1_455
Se9 Tl1 3.224495 1_565
Se10 Tl2 3.224495 1_655
Se11 Tl3 3.224495 1_545
Se20 Tl1 3.267096 1_655
Se20 Tl5 3.313535 1_555
Se21 Tl0 3.267096 1_545
Se21 Tl4 3.313535 1_555
Se22 Tl3 3.267096 1_455
Se22 Tl7 3.313535 1_555
Se23 Tl2 3.267096 1_565
Se23 Tl6 3.313535 1_555
