# generated using pymatgen
data_YSi3Ni
_symmetry_space_group_name_H-M   'P 1'
_cell_length_a   3.91619474
_cell_length_b   3.96013567
_cell_length_c   10.65076275
_cell_angle_alpha   90.00000000
_cell_angle_beta   100.59383679
_cell_angle_gamma   90.00000000
_symmetry_Int_Tables_number   1
_chemical_formula_structural   YSi3Ni
_chemical_formula_sum   'Y2 Si6 Ni2'
_cell_volume   162.36362860
_cell_formula_units_Z   2
loop_
 _symmetry_equiv_pos_site_id
 _symmetry_equiv_pos_as_xyz
  1  'x, y, z'
loop_
 _atom_site_type_symbol
 _atom_site_label
 _atom_site_symmetry_multiplicity
 _atom_site_fract_x
 _atom_site_fract_y
 _atom_site_fract_z
 _atom_site_occupancy
  Y  Y0  1  0.33123766  0.50000000  0.66247532  1
  Y  Y1  1  0.66876234  0.50000000  0.33752468  1
  Si  Si0  1  0.44383174  -0.00000000  0.88766248  1
  Si  Si1  1  0.55616826  -0.00000000  0.11233652  1
  Si  Si2  1  0.21752986  -0.00000000  0.43505873  1
  Si  Si3  1  0.78247014  0.00000000  0.56494127  1
  Si  Si4  1  0.94381545  0.50000000  0.88763090  1
  Si  Si5  1  0.05618355  0.50000000  0.11236910  1
  Ni  Ni0  1  0.10983114  -0.00000000  0.21966329  1
  Ni  Ni1  1  0.89016886  0.00000000  0.78033671  1
loop_
_geom_bond_atom_site_label_1
_geom_bond_atom_site_label_2
_geom_bond_distance
_geom_bond_site_symmetry_2
Si0 Si1 2.352162 1_556
Si0 Si4 2.784745 1_555
Si0 Si4 2.784745 1_545
Si0 Si4 2.784748 1_455
Si0 Si4 2.784748 1_445
Si0 Y0 3.078739 1_555
Si0 Y0 3.078739 1_545
Si1 Si5 2.784744 1_655
Si1 Si5 2.784744 1_645
Si1 Si5 2.784749 1_545
Si1 Si5 2.784749 1_555
Si1 Y1 3.078748 1_555
Si1 Y1 3.078748 1_545
Si2 Si3 2.383926 1_555
Si2 Si3 2.383932 1_455
Si2 Y1 2.966052 1_545
Si2 Y1 2.966052 1_555
Si2 Y1 2.966054 1_455
Si2 Y1 2.966054 1_445
Si2 Y0 3.096649 1_555
Si2 Y0 3.096649 1_545
Si3 Y0 2.966052 1_555
Si3 Y0 2.966052 1_545
Si3 Y0 2.966054 1_655
Si3 Y0 2.966054 1_645
Si3 Y1 3.096649 1_555
Si3 Y1 3.096649 1_545
Si4 Si5 2.352834 1_656
Si4 Y0 3.064401 1_655
Si4 Y0 3.064401 1_555
Si5 Y1 3.064399 1_455
Si5 Y1 3.064404 1_555
Ni0 Si2 2.255023 1_555
Ni0 Si1 2.257582 1_455
Ni0 Si1 2.257585 1_555
Ni0 Si5 2.276498 1_545
Ni0 Si5 2.276498 1_555
Ni0 Y1 3.045875 1_455
Ni0 Y1 3.045875 1_445
Ni0 Y1 3.045878 1_545
Ni0 Y1 3.045878 1_555
Ni1 Si3 2.255023 1_555
Ni1 Si0 2.257578 1_555
Ni1 Si0 2.257579 1_655
Ni1 Si4 2.276498 1_555
Ni1 Si4 2.276498 1_545
Ni1 Y0 3.045875 1_655
Ni1 Y0 3.045875 1_645
Ni1 Y0 3.045878 1_555
Ni1 Y0 3.045878 1_545
