# generated using pymatgen
data_Sr(B2Pt3)2
_symmetry_space_group_name_H-M   'P 1'
_cell_length_a   6.16675967
_cell_length_b   6.16675967
_cell_length_c   5.27287385
_cell_angle_alpha   90.00000000
_cell_angle_beta   90.00000000
_cell_angle_gamma   119.99999348
_symmetry_Int_Tables_number   1
_chemical_formula_structural   Sr(B2Pt3)2
_chemical_formula_sum   'Sr1 B4 Pt6'
_cell_volume   173.65691790
_cell_formula_units_Z   1
loop_
 _symmetry_equiv_pos_site_id
 _symmetry_equiv_pos_as_xyz
  1  'x, y, z'
loop_
 _atom_site_type_symbol
 _atom_site_label
 _atom_site_symmetry_multiplicity
 _atom_site_fract_x
 _atom_site_fract_y
 _atom_site_fract_z
 _atom_site_occupancy
  Sr  Sr0  1  -0.00000000  -0.00000000  0.50000000  1
  B  B0  1  0.33333300  0.66666700  0.42342466  1
  B  B1  1  0.66666700  0.33333300  0.57657534  1
  B  B2  1  0.66666700  0.33333300  0.92551497  1
  B  B3  1  0.33333300  0.66666700  0.07448503  1
  Pt  Pt0  1  0.51819485  0.48180515  0.24915988  1
  Pt  Pt1  1  0.51819485  0.03638970  0.24915988  1
  Pt  Pt2  1  0.96361030  0.48180515  0.24915988  1
  Pt  Pt3  1  0.48180515  0.51819485  0.75084012  1
  Pt  Pt4  1  0.48180515  0.96361030  0.75084012  1
  Pt  Pt5  1  0.03638970  0.51819485  0.75084012  1
loop_
_geom_bond_atom_site_label_1
_geom_bond_atom_site_label_2
_geom_bond_distance
_geom_bond_site_symmetry_2
B0 B3 1.839915 1_555
B0 Pt1 2.177867 1_565
B0 Pt2 2.177867 1_455
B0 Pt0 2.177871 1_555
B0 Pt4 2.344235 1_555
B0 Pt5 2.344235 1_555
B0 Pt3 2.344238 1_555
B1 B2 1.839915 1_555
B1 Pt5 2.177867 1_655
B1 Pt4 2.177867 1_545
B1 Pt3 2.177871 1_555
B1 Pt1 2.344235 1_555
B1 Pt2 2.344235 1_555
B1 Pt0 2.344238 1_555
B2 Pt5 2.178780 1_655
B2 Pt4 2.178780 1_545
B2 Pt3 2.178785 1_555
B2 Pt1 2.329632 1_556
B2 Pt2 2.329632 1_556
B2 Pt0 2.329635 1_556
B3 Pt2 2.178780 1_455
B3 Pt1 2.178780 1_565
B3 Pt0 2.178785 1_555
B3 Pt5 2.329632 1_554
B3 Pt4 2.329632 1_554
B3 Pt3 2.329635 1_554
Pt0 Sr0 3.360714 1_665
Pt0 Sr0 3.360714 1_555
Pt1 Sr0 3.360714 1_655
Pt1 Sr0 3.360714 1_555
Pt2 Sr0 3.360714 1_655
Pt2 Sr0 3.360714 1_665
Pt3 Sr0 3.360714 1_665
Pt3 Sr0 3.360714 1_555
Pt4 Sr0 3.360714 1_565
Pt4 Sr0 3.360714 1_665
Pt5 Sr0 3.360714 1_565
Pt5 Sr0 3.360714 1_555
