# generated using pymatgen
data_CaAl2O12
_symmetry_space_group_name_H-M   'P 1'
_cell_length_a   16.06861270
_cell_length_b   16.06861270
_cell_length_c   9.06529800
_cell_angle_alpha   90.00000000
_cell_angle_beta   90.00000000
_cell_angle_gamma   120.00000287
_symmetry_Int_Tables_number   1
_chemical_formula_structural   CaAl2O12
_chemical_formula_sum   'Ca6 Al12 O72'
_cell_volume   2027.07337930
_cell_formula_units_Z   6
loop_
 _symmetry_equiv_pos_site_id
 _symmetry_equiv_pos_as_xyz
  1  'x, y, z'
loop_
 _atom_site_type_symbol
 _atom_site_label
 _atom_site_symmetry_multiplicity
 _atom_site_fract_x
 _atom_site_fract_y
 _atom_site_fract_z
 _atom_site_occupancy
  Ca  Ca0  1  0.72879800  0.24775700  0.75000000  1
  Ca  Ca1  1  0.27120200  0.75224300  0.25000000  1
  Ca  Ca2  1  0.51896000  0.27120200  0.75000000  1
  Ca  Ca3  1  0.48104000  0.72879800  0.25000000  1
  Ca  Ca4  1  0.75224300  0.48104000  0.75000000  1
  Ca  Ca5  1  0.24775700  0.51896000  0.25000000  1
  Al  Al0  1  0.92588200  0.48238700  0.90463200  1
  Al  Al1  1  0.07411800  0.51761300  0.09536800  1
  Al  Al2  1  0.55650500  0.07411800  0.90463200  1
  Al  Al3  1  0.07411800  0.51761300  0.40463200  1
  Al  Al4  1  0.44349500  0.92588200  0.09536800  1
  Al  Al5  1  0.92588200  0.48238700  0.59536800  1
  Al  Al6  1  0.51761300  0.44349500  0.90463200  1
  Al  Al7  1  0.44349500  0.92588200  0.40463200  1
  Al  Al8  1  0.48238700  0.55650500  0.09536800  1
  Al  Al9  1  0.55650500  0.07411800  0.59536800  1
  Al  Al10  1  0.48238700  0.55650500  0.40463200  1
  Al  Al11  1  0.51761300  0.44349500  0.59536800  1
  O  O0  1  0.80548900  0.38573600  0.88551500  1
  O  O1  1  0.19451100  0.61426400  0.11448500  1
  O  O2  1  0.58024700  0.19451100  0.88551500  1
  O  O3  1  0.19451100  0.61426400  0.38551500  1
  O  O4  1  0.41975300  0.80548900  0.11448500  1
  O  O5  1  0.80548900  0.38573600  0.61448500  1
  O  O6  1  0.61426400  0.41975300  0.88551500  1
  O  O7  1  0.41975300  0.80548900  0.38551500  1
  O  O8  1  0.38573600  0.58024700  0.11448500  1
  O  O9  1  0.58024700  0.19451100  0.61448500  1
  O  O10  1  0.38573600  0.58024700  0.38551500  1
  O  O11  1  0.61426400  0.41975300  0.61448500  1
  O  O12  1  0.91188100  0.23421500  0.89366500  1
  O  O13  1  0.08811900  0.76578500  0.10633500  1
  O  O14  1  0.32233400  0.08811900  0.89366500  1
  O  O15  1  0.08811900  0.76578500  0.39366500  1
  O  O16  1  0.67766600  0.91188100  0.10633500  1
  O  O17  1  0.91188100  0.23421500  0.60633500  1
  O  O18  1  0.76578500  0.67766600  0.89366500  1
  O  O19  1  0.67766600  0.91188100  0.39366500  1
  O  O20  1  0.23421500  0.32233400  0.10633500  1
  O  O21  1  0.32233400  0.08811900  0.60633500  1
  O  O22  1  0.23421500  0.32233400  0.39366500  1
  O  O23  1  0.76578500  0.67766600  0.60633500  1
  O  O24  1  0.92848500  0.55004300  0.75000000  1
  O  O25  1  0.07151500  0.44995700  0.25000000  1
  O  O26  1  0.62155900  0.07151500  0.75000000  1
  O  O27  1  0.37844100  0.92848500  0.25000000  1
  O  O28  1  0.44995700  0.37844100  0.75000000  1
  O  O29  1  0.55004300  0.62155900  0.25000000  1
  O  O30  1  0.82560200  0.18908700  0.93497100  1
  O  O31  1  0.17439800  0.81091300  0.06502900  1
  O  O32  1  0.36348400  0.17439800  0.93497100  1
  O  O33  1  0.17439800  0.81091300  0.43497100  1
  O  O34  1  0.63651600  0.82560200  0.06502900  1
  O  O35  1  0.82560200  0.18908700  0.56502900  1
  O  O36  1  0.81091300  0.63651600  0.93497100  1
  O  O37  1  0.63651600  0.82560200  0.43497100  1
  O  O38  1  0.18908700  0.36348400  0.06502900  1
  O  O39  1  0.36348400  0.17439800  0.56502900  1
  O  O40  1  0.18908700  0.36348400  0.43497100  1
  O  O41  1  0.81091300  0.63651600  0.56502900  1
  O  O42  1  0.92017800  0.00423800  0.96647500  1
  O  O43  1  0.07982200  0.99576200  0.03352500  1
  O  O44  1  0.08406100  0.07982200  0.96647500  1
  O  O45  1  0.07982200  0.99576200  0.46647500  1
  O  O46  1  0.91593900  0.92017800  0.03352500  1
  O  O47  1  0.92017800  0.00423800  0.53352500  1
  O  O48  1  0.99576200  0.91593900  0.96647500  1
  O  O49  1  0.91593900  0.92017800  0.46647500  1
  O  O50  1  0.00423800  0.08406100  0.03352500  1
  O  O51  1  0.08406100  0.07982200  0.53352500  1
  O  O52  1  0.00423800  0.08406100  0.46647500  1
  O  O53  1  0.99576200  0.91593900  0.53352500  1
  O  O54  1  0.54157300  0.56472200  0.92514800  1
  O  O55  1  0.45842700  0.43527800  0.07485200  1
  O  O56  1  0.02314900  0.45842700  0.92514800  1
  O  O57  1  0.45842700  0.43527800  0.42514800  1
  O  O58  1  0.97685100  0.54157300  0.07485200  1
  O  O59  1  0.54157300  0.56472200  0.57485200  1
  O  O60  1  0.43527800  0.97685100  0.92514800  1
  O  O61  1  0.97685100  0.54157300  0.42514800  1
  O  O62  1  0.56472200  0.02314900  0.07485200  1
  O  O63  1  0.02314900  0.45842700  0.57485200  1
  O  O64  1  0.56472200  0.02314900  0.42514800  1
  O  O65  1  0.43527800  0.97685100  0.57485200  1
  O  O66  1  0.92629100  0.29901700  0.75000000  1
  O  O67  1  0.07370900  0.70098300  0.25000000  1
  O  O68  1  0.37272700  0.07370900  0.75000000  1
  O  O69  1  0.62727300  0.92629100  0.25000000  1
  O  O70  1  0.70098300  0.62727300  0.75000000  1
  O  O71  1  0.29901700  0.37272700  0.25000000  1
loop_
_geom_bond_atom_site_label_1
_geom_bond_atom_site_label_2
_geom_bond_distance
_geom_bond_site_symmetry_2
Ca0 O0 2.282814 1_555
Ca0 O5 2.282814 1_555
Ca0 O2 2.428315 1_555
Ca0 O9 2.428315 1_555
Ca0 O26 2.471718 1_555
Ca0 O30 2.754366 1_555
Ca0 O35 2.754366 1_555
Ca0 O66 2.852239 1_555
Ca1 O3 2.282814 1_555
Ca1 O1 2.282814 1_555
Ca1 O7 2.428315 1_555
Ca1 O4 2.428315 1_555
Ca1 O27 2.471718 1_555
Ca1 O31 2.754366 1_555
Ca1 O33 2.754366 1_555
Ca1 O67 2.852239 1_555
Ca2 O2 2.282803 1_555
Ca2 O9 2.282803 1_555
Ca2 O6 2.428313 1_555
Ca2 O11 2.428313 1_555
Ca2 O28 2.471718 1_555
Ca2 O32 2.754386 1_555
Ca2 O39 2.754386 1_555
Ca2 O68 2.852239 1_555
Ca3 O7 2.282803 1_555
Ca3 O4 2.282803 1_555
Ca3 O10 2.428313 1_555
Ca3 O8 2.428313 1_555
Ca3 O29 2.471718 1_555
Ca3 O37 2.754386 1_555
Ca3 O34 2.754386 1_555
Ca3 O69 2.852239 1_555
Ca4 O6 2.282815 1_555
Ca4 O11 2.282815 1_555
Ca4 O0 2.428303 1_555
Ca4 O5 2.428303 1_555
Ca4 O24 2.471718 1_555
Ca4 O41 2.754389 1_555
Ca4 O36 2.754389 1_555
Ca4 O70 2.852239 1_555
Ca5 O10 2.282815 1_555
Ca5 O8 2.282815 1_555
Ca5 O3 2.428303 1_555
Ca5 O1 2.428303 1_555
Ca5 O25 2.471718 1_555
Ca5 O40 2.754389 1_555
Ca5 O38 2.754389 1_555
Ca5 O71 2.852239 1_555
Al0 O24 1.761576 1_555
Al0 O58 1.782548 1_556
Al0 O0 1.783262 1_555
Al0 O56 1.796485 1_655
Al1 O25 1.761576 1_555
Al1 O56 1.782548 1_554
Al1 O1 1.783262 1_555
Al1 O58 1.796485 1_455
Al2 O26 1.761585 1_555
Al2 O62 1.782548 1_556
Al2 O2 1.783262 1_555
Al2 O60 1.796485 1_545
Al3 O25 1.761576 1_555
Al3 O63 1.782548 1_555
Al3 O3 1.783262 1_555
Al3 O61 1.796485 1_455
Al4 O27 1.761585 1_555
Al4 O60 1.782548 1_554
Al4 O4 1.783262 1_555
Al4 O62 1.796485 1_565
Al5 O24 1.761576 1_555
Al5 O61 1.782548 1_555
Al5 O5 1.783262 1_555
Al5 O63 1.796485 1_655
Al6 O28 1.761580 1_555
Al6 O55 1.782548 1_556
Al6 O6 1.783262 1_555
Al6 O54 1.796485 1_555
Al7 O27 1.761585 1_555
Al7 O65 1.782548 1_555
Al7 O7 1.783262 1_555
Al7 O64 1.796485 1_565
Al8 O29 1.761580 1_555
Al8 O54 1.782548 1_554
Al8 O8 1.783262 1_555
Al8 O55 1.796485 1_555
Al9 O26 1.761585 1_555
Al9 O64 1.782548 1_555
Al9 O9 1.783262 1_555
Al9 O65 1.796485 1_545
Al10 O29 1.761580 1_555
Al10 O59 1.782548 1_555
Al10 O10 1.783262 1_555
Al10 O57 1.796485 1_555
Al11 O28 1.761580 1_555
Al11 O57 1.782548 1_555
Al11 O11 1.783262 1_555
Al11 O59 1.796485 1_555
O12 O30 1.258086 1_555
O12 O66 1.610256 1_555
O13 O31 1.258086 1_555
O13 O67 1.610256 1_555
O14 O32 1.258086 1_555
O14 O68 1.610266 1_555
O15 O33 1.258086 1_555
O15 O67 1.610256 1_555
O16 O34 1.258086 1_555
O16 O69 1.610266 1_555
O17 O35 1.258086 1_555
O17 O66 1.610256 1_555
O18 O36 1.258073 1_555
O18 O70 1.610259 1_555
O19 O37 1.258086 1_555
O19 O69 1.610266 1_555
O20 O38 1.258073 1_555
O20 O71 1.610259 1_555
O21 O39 1.258086 1_555
O21 O68 1.610266 1_555
O22 O40 1.258073 1_555
O22 O71 1.610259 1_555
O23 O41 1.258073 1_555
O23 O70 1.610259 1_555
O42 O46 1.451398 1_546
O42 O50 1.451411 1_656
O43 O44 1.451398 1_564
O43 O48 1.451411 1_454
O44 O50 1.451427 1_556
O45 O51 1.451398 1_565
O45 O53 1.451411 1_455
O46 O48 1.451427 1_554
O47 O49 1.451398 1_545
O47 O52 1.451411 1_655
O49 O53 1.451427 1_555
O51 O52 1.451427 1_555
