# generated using pymatgen
data_Nd2SiTeO4
_symmetry_space_group_name_H-M   'P 1'
_cell_length_a   6.43374884
_cell_length_b   8.71365890
_cell_length_c   9.86818881
_cell_angle_alpha   94.74707259
_cell_angle_beta   90.00000000
_cell_angle_gamma   90.00000000
_symmetry_Int_Tables_number   1
_chemical_formula_structural   Nd2SiTeO4
_chemical_formula_sum   'Nd8 Si4 Te4 O16'
_cell_volume   551.32768472
_cell_formula_units_Z   4
loop_
 _symmetry_equiv_pos_site_id
 _symmetry_equiv_pos_as_xyz
  1  'x, y, z'
loop_
 _atom_site_type_symbol
 _atom_site_label
 _atom_site_symmetry_multiplicity
 _atom_site_fract_x
 _atom_site_fract_y
 _atom_site_fract_z
 _atom_site_occupancy
  Nd  Nd0  1  0.69557961  0.16455102  0.65420010  1
  Nd  Nd1  1  0.80442039  0.66455102  0.65420010  1
  Nd  Nd2  1  0.30442039  0.83544898  0.34579990  1
  Nd  Nd3  1  0.19557961  0.33544898  0.34579990  1
  Nd  Nd4  1  0.84792733  0.69398558  0.10462624  1
  Nd  Nd5  1  0.34792733  0.80601442  0.89537376  1
  Nd  Nd6  1  0.15207267  0.30601442  0.89537376  1
  Nd  Nd7  1  0.65207267  0.19398558  0.10462624  1
  Si  Si0  1  0.19042054  0.05699344  0.12454060  1
  Si  Si1  1  0.80957946  0.94300656  0.87545940  1
  Si  Si2  1  0.69042054  0.44300556  0.87545940  1
  Si  Si3  1  0.30957946  0.55699344  0.12454060  1
  Te  Te0  1  0.28617793  0.61641505  0.59400724  1
  Te  Te1  1  0.78617893  0.88358495  0.40599276  1
  Te  Te2  1  0.71382107  0.38358495  0.40599276  1
  Te  Te3  1  0.21382107  0.11641505  0.59400724  1
  O  O0  1  0.14106139  0.59092048  0.24793873  1
  O  O1  1  0.64106139  0.90907952  0.75206127  1
  O  O2  1  0.85893861  0.40907952  0.75206127  1
  O  O3  1  0.35893861  0.09092048  0.24793873  1
  O  O4  1  0.48888044  0.68456410  0.15329182  1
  O  O5  1  0.98888044  0.81543590  0.84670818  1
  O  O6  1  0.51111956  0.31543590  0.84670818  1
  O  O7  1  0.01111956  0.18456410  0.15329182  1
  O  O8  1  0.13320459  0.87619603  0.12476503  1
  O  O9  1  0.80731110  0.42180359  0.01932386  1
  O  O10  1  0.86679541  0.12380397  0.87523497  1
  O  O11  1  0.36679541  0.37619603  0.12476503  1
  O  O12  1  0.69268890  0.92180359  0.01932386  1
  O  O13  1  0.19268890  0.57819641  0.98067614  1
  O  O14  1  0.30731110  0.07819641  0.98067614  1
  O  O15  1  0.63320459  0.62380397  0.87523497  1
loop_
_geom_bond_atom_site_label_1
_geom_bond_atom_site_label_2
_geom_bond_distance
_geom_bond_site_symmetry_2
Nd0 O10 2.495070 1_555
Nd0 O2 2.497337 1_555
Nd0 O6 2.516446 1_555
Nd0 O1 2.523278 1_545
Nd0 Te3 3.177185 1_555
Nd0 Te2 3.229485 1_555
Nd0 Te1 3.367562 1_545
Nd0 Te3 3.406560 1_655
Nd1 O15 2.495070 1_555
Nd1 O1 2.497337 1_555
Nd1 O5 2.516446 1_555
Nd1 O2 2.523278 1_555
Nd1 Te0 3.177179 1_655
Nd1 Te1 3.229485 1_555
Nd1 Te2 3.367562 1_555
Nd1 Te0 3.406566 1_555
Nd2 O8 2.495070 1_555
Nd2 O0 2.497337 1_555
Nd2 O4 2.516446 1_555
Nd2 O3 2.523278 1_565
Nd2 Te1 3.177185 1_555
Nd2 Te0 3.229486 1_555
Nd2 Te3 3.367562 1_565
Nd2 Te1 3.406560 1_455
Nd3 O11 2.495070 1_555
Nd3 O3 2.497337 1_555
Nd3 O7 2.516446 1_555
Nd3 O0 2.523278 1_555
Nd3 Te2 3.177185 1_455
Nd3 Te3 3.229485 1_555
Nd3 Te0 3.367561 1_555
Nd3 Te2 3.406560 1_555
Nd4 O4 2.362219 1_555
Nd4 O8 2.424216 1_655
Nd4 O12 2.433812 1_555
Nd4 O9 2.464022 1_555
Nd4 O0 2.563908 1_655
Nd4 O15 2.679095 1_554
Nd4 O13 2.688838 1_654
Nd4 O5 2.977602 1_554
Nd4 Te1 3.304298 1_555
Nd5 O5 2.362219 1_455
Nd5 O15 2.424216 1_555
Nd5 O13 2.433812 1_555
Nd5 O14 2.464022 1_565
Nd5 O1 2.563908 1_555
Nd5 O8 2.679095 1_556
Nd5 O12 2.688838 1_556
Nd5 O4 2.977602 1_556
Nd5 Te0 3.304299 1_555
Nd6 O6 2.362219 1_555
Nd6 O10 2.424216 1_455
Nd6 O14 2.433812 1_555
Nd6 O13 2.464022 1_555
Nd6 O2 2.563908 1_455
Nd6 O11 2.679095 1_556
Nd6 O9 2.688838 1_456
Nd6 O7 2.977602 1_556
Nd6 Te3 3.304298 1_555
Nd7 O7 2.362219 1_655
Nd7 O11 2.424216 1_555
Nd7 O9 2.433812 1_555
Nd7 O12 2.464022 1_545
Nd7 O3 2.563908 1_555
Nd7 O10 2.679095 1_554
Nd7 O14 2.688838 1_554
Nd7 O6 2.977602 1_554
Nd7 Te2 3.304298 1_555
O0 Si3 1.638945 1_555
O1 Si1 1.638945 1_555
O2 Si2 1.638944 1_555
O3 Si0 1.638945 1_555
O4 Si3 1.610810 1_555
O5 Si1 1.610810 1_555
O6 Si2 1.610804 1_555
O7 Si0 1.610810 1_555
O8 Si0 1.618022 1_565
O9 Si2 1.630524 1_554
O10 Si1 1.618022 1_545
O11 Si3 1.618022 1_555
O12 Si1 1.630526 1_554
O13 Si3 1.630526 1_556
O14 Si0 1.630526 1_556
O15 Si2 1.618031 1_555
