# generated using pymatgen
data_CsLu(MoO4)2
_symmetry_space_group_name_H-M   'P 1'
_cell_length_a   6.00179394
_cell_length_b   6.00179394
_cell_length_c   8.16538600
_cell_angle_alpha   90.00000000
_cell_angle_beta   90.00000000
_cell_angle_gamma   119.99999931
_symmetry_Int_Tables_number   1
_chemical_formula_structural   CsLu(MoO4)2
_chemical_formula_sum   'Cs1 Lu1 Mo2 O8'
_cell_volume   254.72379448
_cell_formula_units_Z   1
loop_
 _symmetry_equiv_pos_site_id
 _symmetry_equiv_pos_as_xyz
  1  'x, y, z'
loop_
 _atom_site_type_symbol
 _atom_site_label
 _atom_site_symmetry_multiplicity
 _atom_site_fract_x
 _atom_site_fract_y
 _atom_site_fract_z
 _atom_site_occupancy
  Cs  Cs0  1  0.00000000  0.00000000  0.00000000  1
  Lu  Lu0  1  0.00000000  0.00000000  0.50000000  1
  Mo  Mo0  1  0.33333300  0.66666700  0.26600100  1
  Mo  Mo1  1  0.66666700  0.33333300  0.73399900  1
  O  O0  1  0.16824900  0.83175100  0.33667800  1
  O  O1  1  0.83175100  0.16824900  0.66332200  1
  O  O2  1  0.16824900  0.33649800  0.33667800  1
  O  O3  1  0.83175100  0.66350200  0.66332200  1
  O  O4  1  0.66350200  0.83175100  0.33667800  1
  O  O5  1  0.33649800  0.16824900  0.66332200  1
  O  O6  1  0.33333300  0.66666700  0.05103200  1
  O  O7  1  0.66666700  0.33333300  0.94896800  1
loop_
_geom_bond_atom_site_label_1
_geom_bond_atom_site_label_2
_geom_bond_distance
_geom_bond_site_symmetry_2
Cs0 O0 3.258319 1_545
Cs0 O1 3.258319 1_454
Cs0 O2 3.258319 1_555
Cs0 O5 3.258319 1_554
Cs0 O4 3.258319 1_445
Cs0 O3 3.258319 1_444
Cs0 O6 3.490099 1_545
Cs0 O7 3.490099 1_454
Cs0 O6 3.490104 1_445
Cs0 O6 3.490104 1_555
Cs0 O7 3.490104 1_444
Cs0 O7 3.490104 1_554
Lu0 O1 2.199436 1_455
Lu0 O0 2.199436 1_545
Lu0 O5 2.199436 1_555
Lu0 O2 2.199436 1_555
Lu0 O3 2.199436 1_445
Lu0 O4 2.199436 1_445
Mo0 O6 1.755305 1_555
Mo0 O0 1.810554 1_555
Mo0 O4 1.810559 1_555
Mo0 O2 1.810559 1_555
Mo1 O7 1.755305 1_555
Mo1 O1 1.810554 1_555
Mo1 O3 1.810559 1_555
Mo1 O5 1.810559 1_555
