# generated using pymatgen
data_Na3Rh
_symmetry_space_group_name_H-M   'P 1'
_cell_length_a   5.07573600
_cell_length_b   8.79162600
_cell_length_c   9.02044400
_cell_angle_alpha   90.00000000
_cell_angle_beta   90.00000000
_cell_angle_gamma   90.00000000
_symmetry_Int_Tables_number   1
_chemical_formula_structural   Na3Rh
_chemical_formula_sum   'Na12 Rh4'
_cell_volume   402.52804578
_cell_formula_units_Z   4
loop_
 _symmetry_equiv_pos_site_id
 _symmetry_equiv_pos_as_xyz
  1  'x, y, z'
loop_
 _atom_site_type_symbol
 _atom_site_label
 _atom_site_symmetry_multiplicity
 _atom_site_fract_x
 _atom_site_fract_y
 _atom_site_fract_z
 _atom_site_occupancy
  Na  Na0  1  0.25000000  0.88179300  0.55432900  1
  Na  Na1  1  0.25000000  0.61820700  0.05432900  1
  Na  Na2  1  0.75000000  0.11820700  0.44567100  1
  Na  Na3  1  0.75000000  0.38179300  0.94567100  1
  Na  Na4  1  0.25000000  0.96168600  0.90135100  1
  Na  Na5  1  0.25000000  0.53831400  0.40135100  1
  Na  Na6  1  0.75000000  0.03831400  0.09864900  1
  Na  Na7  1  0.75000000  0.46168600  0.59864900  1
  Na  Na8  1  0.25000000  0.25833000  0.70924200  1
  Na  Na9  1  0.25000000  0.24167000  0.20924200  1
  Na  Na10  1  0.75000000  0.74167000  0.29075800  1
  Na  Na11  1  0.75000000  0.75833000  0.79075800  1
  Rh  Rh0  1  0.25000000  0.59230300  0.73213100  1
  Rh  Rh1  1  0.25000000  0.90769700  0.23213100  1
  Rh  Rh2  1  0.75000000  0.40769700  0.26786900  1
  Rh  Rh3  1  0.75000000  0.09230300  0.76786900  1
loop_
_geom_bond_atom_site_label_1
_geom_bond_atom_site_label_2
_geom_bond_distance
_geom_bond_site_symmetry_2
Na0 Rh1 2.915278 1_555
Na0 Rh0 3.008291 1_555
Na0 Na4 3.208128 1_555
Na0 Na5 3.320095 1_555
Na0 Na2 3.423663 1_465
Na0 Na2 3.423663 1_565
Na0 Na11 3.488172 1_555
Na0 Na11 3.488172 1_455
Na0 Na8 3.593223 1_565
Na0 Rh3 3.684603 1_565
Na0 Rh3 3.684603 1_465
Na0 Na10 3.689310 1_455
Na0 Na10 3.689310 1_555
Na1 Rh0 2.915278 1_554
Na1 Rh1 3.008291 1_555
Na1 Na5 3.208128 1_555
Na1 Na4 3.320095 1_554
Na1 Na3 3.423663 1_554
Na1 Na3 3.423663 1_454
Na1 Na10 3.488172 1_455
Na1 Na10 3.488172 1_555
Na1 Na9 3.593223 1_555
Na1 Rh2 3.684603 1_455
Na1 Rh2 3.684603 1_555
Na1 Na11 3.689310 1_454
Na1 Na11 3.689310 1_554
Na2 Rh3 2.915278 1_555
Na2 Rh2 3.008291 1_555
Na2 Na6 3.208128 1_555
Na2 Na7 3.320095 1_555
Na2 Na9 3.488172 1_555
Na2 Na9 3.488172 1_655
Na2 Rh1 3.684603 1_545
Na2 Rh1 3.684603 1_645
Na2 Na8 3.689310 1_555
Na2 Na8 3.689310 1_655
Na3 Rh2 2.915278 1_556
Na3 Rh3 3.008291 1_555
Na3 Na7 3.208128 1_555
Na3 Na6 3.320095 1_556
Na3 Na8 3.488172 1_555
Na3 Na8 3.488172 1_655
Na3 Rh0 3.684603 1_655
Na3 Rh0 3.684603 1_555
Na3 Na9 3.689310 1_656
Na3 Na9 3.689310 1_556
Na4 Rh1 3.021300 1_556
Na4 Rh3 3.034671 1_465
Na4 Rh3 3.034671 1_565
Na4 Na8 3.131221 1_565
Na4 Na6 3.172068 1_466
Na4 Na6 3.172068 1_566
Na4 Rh0 3.588332 1_555
Na4 Na9 3.711135 1_566
Na5 Rh0 3.021300 1_555
Na5 Rh2 3.034671 1_555
Na5 Rh2 3.034671 1_455
Na5 Na9 3.131221 1_555
Na5 Na7 3.172068 1_555
Na5 Na7 3.172068 1_455
Na5 Rh1 3.588332 1_555
Na5 Na8 3.711135 1_555
Na6 Rh3 3.021300 1_554
Na6 Rh1 3.034671 1_645
Na6 Rh1 3.034671 1_545
Na6 Na9 3.260723 1_555
Na6 Na9 3.260723 1_655
Na6 Rh2 3.588332 1_555
Na7 Rh2 3.021300 1_555
Na7 Rh0 3.034671 1_655
Na7 Rh0 3.034671 1_555
Na7 Na8 3.260723 1_555
Na7 Na8 3.260723 1_655
Na7 Rh3 3.588332 1_555
Na8 Rh0 2.943416 1_555
Na8 Rh3 2.975066 1_555
Na8 Rh3 2.975066 1_455
Na9 Rh1 2.943416 1_545
Na9 Rh2 2.975066 1_555
Na9 Rh2 2.975066 1_455
Na10 Rh2 2.943416 1_555
Na10 Rh1 2.975066 1_655
Na10 Rh1 2.975066 1_555
Na10 Na6 3.131221 1_565
Na10 Na5 3.260723 1_655
Na10 Na5 3.260723 1_555
Na10 Na2 3.593223 1_565
Na10 Na7 3.711135 1_555
Na11 Rh3 2.943416 1_565
Na11 Rh0 2.975066 1_655
Na11 Rh0 2.975066 1_555
Na11 Na7 3.131221 1_555
Na11 Na4 3.260723 1_555
Na11 Na4 3.260723 1_655
Na11 Na3 3.593223 1_555
Na11 Na6 3.711135 1_566
