# generated using pymatgen
data_As4Se3
_symmetry_space_group_name_H-M   'P 1'
_cell_length_a   8.35569139
_cell_length_b   9.79604634
_cell_length_c   10.68721376
_cell_angle_alpha   90.00000000
_cell_angle_beta   90.00000000
_cell_angle_gamma   90.00000000
_symmetry_Int_Tables_number   1
_chemical_formula_structural   As4Se3
_chemical_formula_sum   'As16 Se12'
_cell_volume   874.77772985
_cell_formula_units_Z   4
loop_
 _symmetry_equiv_pos_site_id
 _symmetry_equiv_pos_as_xyz
  1  'x, y, z'
loop_
 _atom_site_type_symbol
 _atom_site_label
 _atom_site_symmetry_multiplicity
 _atom_site_fract_x
 _atom_site_fract_y
 _atom_site_fract_z
 _atom_site_occupancy
  As  As0  1  0.25000000  0.01393665  0.91792213  1
  As  As1  1  0.25000000  0.51393665  0.58207787  1
  As  As2  1  0.75000000  0.98606335  0.08207787  1
  As  As3  1  0.75000000  0.48606335  0.41792213  1
  As  As4  1  0.25000000  0.16824060  0.43747549  1
  As  As5  1  0.25000000  0.66824060  0.06252451  1
  As  As6  1  0.75000000  0.83175940  0.56252451  1
  As  As7  1  0.75000000  0.33175940  0.93747549  1
  As  As8  1  0.10081515  0.35298116  0.71856537  1
  As  As9  1  0.39918485  0.85298116  0.78143463  1
  As  As10  1  0.60081515  0.64701884  0.28143463  1
  As  As11  1  0.89918485  0.14701884  0.21856537  1
  As  As12  1  0.89918485  0.64701884  0.28143463  1
  As  As13  1  0.60081515  0.14701884  0.21856537  1
  As  As14  1  0.39918485  0.35298116  0.71856537  1
  As  As15  1  0.10081515  0.85298116  0.78143463  1
  Se  Se0  1  0.03508840  0.17046600  0.58435010  1
  Se  Se1  1  0.46491160  0.67046600  0.91564990  1
  Se  Se2  1  0.53508840  0.82953400  0.41564990  1
  Se  Se3  1  0.96491160  0.32953400  0.08435010  1
  Se  Se4  1  0.96491160  0.82953400  0.41564990  1
  Se  Se5  1  0.53508840  0.32953400  0.08435010  1
  Se  Se6  1  0.46491160  0.17046600  0.58435010  1
  Se  Se7  1  0.03508840  0.67046600  0.91564990  1
  Se  Se8  1  0.25000000  0.40506405  0.38545728  1
  Se  Se9  1  0.25000000  0.90506405  0.11454272  1
  Se  Se10  1  0.75000000  0.59493595  0.61454272  1
  Se  Se11  1  0.75000000  0.09493595  0.88545728  1
loop_
_geom_bond_atom_site_label_1
_geom_bond_atom_site_label_2
_geom_bond_distance
_geom_bond_site_symmetry_2
As0 Se9 2.356489 1_546
As0 As9 2.483477 1_545
As0 As15 2.483477 1_545
As1 Se8 2.356489 1_555
As1 As8 2.483477 1_555
As1 As14 2.483477 1_555
As2 Se11 2.356489 1_564
As3 Se10 2.356489 1_555
As4 Se6 2.385170 1_555
As4 Se0 2.385170 1_555
As4 Se8 2.385613 1_555
As5 Se7 2.385170 1_554
As5 Se1 2.385170 1_554
As5 Se9 2.385613 1_555
As6 Se4 2.385170 1_555
As6 Se2 2.385170 1_555
As6 Se10 2.385613 1_555
As7 Se3 2.385170 1_556
As7 Se5 2.385170 1_556
As7 Se11 2.385613 1_555
As8 Se0 2.357066 1_555
As9 Se1 2.357066 1_555
As10 Se2 2.357066 1_555
As10 As3 2.483477 1_555
As11 Se3 2.357066 1_555
As11 As2 2.483477 1_545
As12 Se4 2.357066 1_555
As12 As3 2.483477 1_555
As13 Se5 2.357066 1_555
As13 As2 2.483477 1_545
As14 Se6 2.357066 1_555
As15 Se7 2.357066 1_555
