# generated using pymatgen
data_SrCa7Mn7CrO21
_symmetry_space_group_name_H-M   'P 1'
_cell_length_a   11.02800465
_cell_length_b   15.52988994
_cell_length_c   11.02102014
_cell_angle_alpha   90.04053953
_cell_angle_beta   91.49737624
_cell_angle_gamma   90.47498166
_symmetry_Int_Tables_number   1
_chemical_formula_structural   SrCa7Mn7CrO21
_chemical_formula_sum   'Sr4 Ca28 Mn28 Cr4 O84'
_cell_volume   1886.79049022
_cell_formula_units_Z   4
loop_
 _symmetry_equiv_pos_site_id
 _symmetry_equiv_pos_as_xyz
  1  'x, y, z'
loop_
 _atom_site_type_symbol
 _atom_site_label
 _atom_site_symmetry_multiplicity
 _atom_site_fract_x
 _atom_site_fract_y
 _atom_site_fract_z
 _atom_site_occupancy
  Sr  Sr0  1  0.99658215  0.11082182  0.50873606  1
  Sr  Sr1  1  0.51062022  0.38479618  0.98728561  1
  Sr  Sr2  1  0.24007853  0.38736302  0.24664643  1
  Sr  Sr3  1  0.23079781  0.11981651  0.24217267  1
  Ca  Ca0  1  0.99263070  0.11103895  0.00642681  1
  Ca  Ca1  1  0.00832404  0.62388525  0.51015012  1
  Ca  Ca2  1  0.01214295  0.62156153  0.99413866  1
  Ca  Ca3  1  0.54246177  0.12566597  0.47668600  1
  Ca  Ca4  1  0.54855516  0.12868523  0.98624238  1
  Ca  Ca5  1  0.52921428  0.62997583  0.51239258  1
  Ca  Ca6  1  0.53320104  0.62163733  0.97363360  1
  Ca  Ca7  1  0.49916529  0.38003812  0.51398897  1
  Ca  Ca8  1  0.51777744  0.85924702  0.98264612  1
  Ca  Ca9  1  0.49331056  0.86786440  0.51023742  1
  Ca  Ca10  1  0.96544983  0.38860958  0.00412638  1
  Ca  Ca11  1  0.95832315  0.38936926  0.50240840  1
  Ca  Ca12  1  0.95611444  0.87951800  0.00218591  1
  Ca  Ca13  1  0.96807381  0.87254233  0.51055675  1
  Ca  Ca14  1  0.23510285  0.40619505  0.76232435  1
  Ca  Ca15  1  0.22839019  0.88749962  0.27188136  1
  Ca  Ca16  1  0.22062621  0.87160825  0.73689772  1
  Ca  Ca17  1  0.76070936  0.38489057  0.25203263  1
  Ca  Ca18  1  0.73668075  0.38483870  0.75345041  1
  Ca  Ca19  1  0.76445806  0.86876381  0.25853503  1
  Ca  Ca20  1  0.73891067  0.86698451  0.74962500  1
  Ca  Ca21  1  0.22236179  0.10761089  0.73771396  1
  Ca  Ca22  1  0.23758577  0.62584186  0.26129494  1
  Ca  Ca23  1  0.26832680  0.63085406  0.73842923  1
  Ca  Ca24  1  0.77657597  0.11347330  0.25129968  1
  Ca  Ca25  1  0.78248544  0.12202590  0.75456720  1
  Ca  Ca26  1  0.78130767  0.62193864  0.25237849  1
  Ca  Ca27  1  0.77148644  0.62312531  0.75817772  1
  Mn  Mn0  1  0.99387550  0.99161311  0.75752727  1
  Mn  Mn1  1  0.00211621  0.50256240  0.25256643  1
  Mn  Mn2  1  0.99652557  0.50116688  0.75356109  1
  Mn  Mn3  1  0.50545351  0.98124353  0.22865197  1
  Mn  Mn4  1  0.50775498  0.99330855  0.73606985  1
  Mn  Mn5  1  0.50919126  0.49544648  0.24519342  1
  Mn  Mn6  1  0.49570985  0.50257587  0.74670140  1
  Mn  Mn7  1  0.24171591  0.99911254  0.51465199  1
  Mn  Mn8  1  0.25152757  0.52055736  0.00838376  1
  Mn  Mn9  1  0.23753672  0.49790916  0.50980617  1
  Mn  Mn10  1  0.74296039  0.99952861  0.99531204  1
  Mn  Mn11  1  0.74298371  0.99751621  0.49710665  1
  Mn  Mn12  1  0.75270082  0.50407387  0.00072008  1
  Mn  Mn13  1  0.74377051  0.50441086  0.50270567  1
  Mn  Mn14  1  0.26735555  0.24563767  0.46355410  1
  Mn  Mn15  1  0.25964188  0.75561213  0.97526667  1
  Mn  Mn16  1  0.24856502  0.75149360  0.49863887  1
  Mn  Mn17  1  0.75973854  0.24951599  0.00443254  1
  Mn  Mn18  1  0.74852631  0.25079330  0.50579507  1
  Mn  Mn19  1  0.75412731  0.74646358  0.99989889  1
  Mn  Mn20  1  0.75252669  0.74594694  0.50559822  1
  Mn  Mn21  1  0.99543480  0.25696331  0.76411663  1
  Mn  Mn22  1  0.99795326  0.75034297  0.26311549  1
  Mn  Mn23  1  0.99675897  0.74990265  0.74895279  1
  Mn  Mn24  1  0.52358559  0.25706562  0.25735134  1
  Mn  Mn25  1  0.51155300  0.24808429  0.74995666  1
  Mn  Mn26  1  0.52032843  0.74896072  0.26252030  1
  Mn  Mn27  1  0.50393632  0.74753462  0.74798414  1
  Cr  Cr0  1  0.99374828  0.99562151  0.25335456  1
  Cr  Cr1  1  0.23648815  0.99168610  0.01310833  1
  Cr  Cr2  1  0.26642707  0.23160499  0.94013999  1
  Cr  Cr3  1  0.98517325  0.25311325  0.26906141  1
  O  O0  1  0.09831476  0.77106540  0.60810570  1
  O  O1  1  0.59294849  0.25624911  0.10115801  1
  O  O2  1  0.57600927  0.25108380  0.58749470  1
  O  O3  1  0.59671078  0.75436266  0.10827579  1
  O  O4  1  0.60310330  0.76233277  0.60205726  1
  O  O5  1  0.40380600  0.20081447  0.35053450  1
  O  O6  1  0.39451301  0.18198494  0.85730808  1
  O  O7  1  0.40702510  0.69648137  0.36009036  1
  O  O8  1  0.40885632  0.72989912  0.89694907  1
  O  O9  1  0.90872755  0.24051957  0.40835669  1
  O  O10  1  0.91135346  0.23696573  0.92135541  1
  O  O11  1  0.89302095  0.72997919  0.40734041  1
  O  O12  1  0.89804775  0.73313631  0.90074545  1
  O  O13  1  0.14753036  0.25128913  0.31345853  1
  O  O14  1  0.17852894  0.25275385  0.80111855  1
  O  O15  1  0.15995620  0.74943421  0.33676838  1
  O  O16  1  0.14521345  0.73778109  0.84699733  1
  O  O17  1  0.65950026  0.22020023  0.34688689  1
  O  O18  1  0.65799341  0.22880143  0.85773052  1
  O  O19  1  0.65918492  0.72163746  0.35433257  1
  O  O20  1  0.64914804  0.72780367  0.85485210  1
  O  O21  1  0.35583067  0.76521909  0.64351233  1
  O  O22  1  0.86503312  0.27615287  0.15023995  1
  O  O23  1  0.85837732  0.27608277  0.65095657  1
  O  O24  1  0.86649410  0.76999334  0.14098625  1
  O  O25  1  0.85191222  0.77072605  0.64724102  1
  O  O26  1  0.36104260  0.51686067  0.16014568  1
  O  O27  1  0.35054538  0.49643136  0.64294450  1
  O  O28  1  0.34976809  0.00252588  0.16033870  1
  O  O29  1  0.34712816  0.99604767  0.66302409  1
  O  O30  1  0.86133317  0.48690990  0.14303172  1
  O  O31  1  0.85332241  0.47983963  0.64478602  1
  O  O32  1  0.84545572  0.97791316  0.14075982  1
  O  O33  1  0.85257136  0.97966593  0.64785230  1
  O  O34  1  0.14535452  0.00868937  0.36622431  1
  O  O35  1  0.14971494  0.00288602  0.86109742  1
  O  O36  1  0.14859148  0.51127840  0.35782562  1
  O  O37  1  0.14697140  0.52644037  0.85991195  1
  O  O38  1  0.62556426  0.02346951  0.33986479  1
  O  O39  1  0.63557780  0.03150539  0.84825138  1
  O  O40  1  0.62534943  0.53005659  0.36435067  1
  O  O41  1  0.64071488  0.51430782  0.85743357  1
  O  O42  1  0.38796571  0.51302167  0.89923394  1
  O  O43  1  0.87919145  0.01101396  0.38736133  1
  O  O44  1  0.88716309  0.01153250  0.89592364  1
  O  O45  1  0.88810557  0.52020227  0.39064339  1
  O  O46  1  0.89213806  0.51689718  0.89512475  1
  O  O47  1  0.11148324  0.48153306  0.10401942  1
  O  O48  1  0.09683303  0.47633557  0.61651485  1
  O  O49  1  0.09956574  0.97224411  0.11040107  1
  O  O50  1  0.09781888  0.97835272  0.62138499  1
  O  O51  1  0.61543808  0.49511962  0.10974816  1
  O  O52  1  0.60117570  0.48823731  0.60928320  1
  O  O53  1  0.58756751  0.99225955  0.07767781  1
  O  O54  1  0.59086434  0.99444706  0.58200433  1
  O  O55  1  0.99373151  0.38093735  0.29075353  1
  O  O56  1  0.01480887  0.37906121  0.79836529  1
  O  O57  1  0.99839836  0.87152894  0.29293879  1
  O  O58  1  0.00055433  0.87154519  0.79481280  1
  O  O59  1  0.47821389  0.37823250  0.29136075  1
  O  O60  1  0.48570362  0.37519966  0.76144089  1
  O  O61  1  0.47312828  0.86947709  0.29234835  1
  O  O62  1  0.51788391  0.87077114  0.77626219  1
  O  O63  1  0.48908615  0.62540387  0.72028320  1
  O  O64  1  0.99312157  0.12767885  0.21972087  1
  O  O65  1  0.00194984  0.12839714  0.73521328  1
  O  O66  1  0.00618891  0.62824651  0.21632976  1
  O  O67  1  0.98575262  0.62534897  0.71694827  1
  O  O68  1  0.21352462  0.13584192  0.01862930  1
  O  O69  1  0.23639623  0.12816552  0.53180010  1
  O  O70  1  0.22487004  0.65385990  0.05535493  1
  O  O71  1  0.22906654  0.62586566  0.52384822  1
  O  O72  1  0.75523261  0.12474415  0.03885421  1
  O  O73  1  0.75280306  0.12487610  0.53811411  1
  O  O74  1  0.74944891  0.62555043  0.03571563  1
  O  O75  1  0.74487226  0.62529884  0.54728463  1
  O  O76  1  0.28209559  0.37239019  0.48460988  1
  O  O77  1  0.29311172  0.32664275  0.02191962  1
  O  O78  1  0.28159583  0.88060625  0.47466104  1
  O  O79  1  0.29588643  0.87604677  0.98826574  1
  O  O80  1  0.73885221  0.37811349  0.46427152  1
  O  O81  1  0.75022888  0.37653367  0.97091516  1
  O  O82  1  0.74428792  0.87130088  0.46641044  1
  O  O83  1  0.73993251  0.87269572  0.96509627  1
loop_
_geom_bond_atom_site_label_1
_geom_bond_atom_site_label_2
_geom_bond_distance
_geom_bond_site_symmetry_2
Ca0 O44 2.262191 1_554
Ca0 O10 2.344070 1_554
Ca0 O64 2.364558 1_555
Ca0 O68 2.463309 1_655
Ca0 O72 2.661789 1_555
Ca0 O49 2.706447 1_645
Ca0 O35 2.928623 1_654
Ca0 O65 3.005725 1_654
Ca0 O32 3.028970 1_545
Ca1 O67 2.299253 1_455
Ca1 O11 2.361667 1_455
Ca1 O71 2.435023 1_555
Ca1 O45 2.440374 1_455
Ca1 O0 2.697713 1_555
Ca1 O48 2.749296 1_555
Ca1 O36 2.906148 1_555
Ca1 O75 2.944861 1_455
Ca2 O46 2.338927 1_455
Ca2 O12 2.369810 1_455
Ca2 O66 2.453514 1_556
Ca2 O70 2.471349 1_556
Ca2 O37 2.594161 1_555
Ca2 O47 2.714698 1_556
Ca2 O16 2.850523 1_555
Ca2 O74 2.945959 1_456
Ca3 O2 2.320123 1_555
Ca3 O5 2.356671 1_555
Ca3 O38 2.392805 1_555
Ca3 O73 2.399509 1_555
Ca3 O54 2.402890 1_545
Ca3 O17 2.436325 1_555
Ca4 O72 2.338415 1_556
Ca4 O6 2.342866 1_555
Ca4 O39 2.368235 1_555
Ca4 O53 2.384291 1_546
Ca4 O1 2.390859 1_556
Ca4 O18 2.437476 1_555
Ca5 O63 2.345852 1_555
Ca5 O7 2.367965 1_555
Ca5 O75 2.400929 1_555
Ca5 O4 2.406827 1_555
Ca5 O40 2.511570 1_555
Ca5 O52 2.569682 1_555
Ca5 O19 2.686151 1_555
Ca6 O8 2.324021 1_555
Ca6 O41 2.435820 1_555
Ca6 O42 2.442848 1_555
Ca6 O74 2.463997 1_556
Ca6 O20 2.474403 1_555
Ca6 O3 2.618872 1_556
Ca6 O51 2.626010 1_556
Ca6 O63 2.822425 1_555
Ca7 O52 2.257534 1_555
Ca7 O2 2.319390 1_555
Ca7 O76 2.409184 1_555
Ca7 O59 2.458545 1_555
Ca7 O80 2.713849 1_555
Ca7 O60 2.736132 1_555
Ca7 O27 2.853187 1_555
Ca8 O62 2.281748 1_555
Ca8 O3 2.300347 1_556
Ca8 O53 2.425847 1_556
Ca8 O79 2.465415 1_555
Ca8 O83 2.469719 1_555
Ca8 O8 2.503596 1_555
Ca8 O20 2.898457 1_555
Ca9 O4 2.268755 1_555
Ca9 O54 2.359170 1_555
Ca9 O78 2.367291 1_555
Ca9 O61 2.406021 1_555
Ca9 O21 2.660222 1_555
Ca9 O82 2.822094 1_555
Ca10 O56 2.350768 1_654
Ca10 O81 2.397825 1_554
Ca10 O47 2.398891 1_655
Ca10 O46 2.458729 1_554
Ca10 O30 2.471853 1_555
Ca10 O10 2.584445 1_554
Ca10 O22 2.633367 1_555
Ca11 O48 2.366804 1_655
Ca11 O55 2.378847 1_555
Ca11 O31 2.428146 1_555
Ca11 O80 2.450492 1_555
Ca11 O45 2.494986 1_555
Ca11 O9 2.581312 1_555
Ca11 O23 2.656423 1_555
Ca12 O58 2.353295 1_654
Ca12 O83 2.409742 1_554
Ca12 O49 2.420729 1_655
Ca12 O44 2.477019 1_564
Ca12 O24 2.502949 1_555
Ca12 O32 2.506325 1_555
Ca12 O12 2.600508 1_554
Ca13 O0 2.379398 1_655
Ca13 O57 2.430272 1_555
Ca13 O50 2.471075 1_655
Ca13 O82 2.502823 1_555
Ca13 O25 2.545801 1_555
Ca13 O11 2.607235 1_555
Ca13 O33 2.609976 1_555
Ca13 O43 2.719963 1_565
Ca14 O27 2.318663 1_555
Ca14 O37 2.381260 1_555
Ca14 O48 2.448665 1_555
Ca14 O14 2.498222 1_555
Ca14 O56 2.504203 1_555
Ca14 O42 2.772726 1_555
Ca14 O60 2.809428 1_555
Ca15 O78 2.298498 1_555
Ca15 O34 2.353159 1_565
Ca15 O15 2.383661 1_555
Ca15 O28 2.558014 1_565
Ca15 O57 2.562980 1_455
Ca15 O49 2.611474 1_555
Ca15 O61 2.719277 1_555
Ca16 O21 2.476063 1_555
Ca16 O0 2.476705 1_555
Ca16 O50 2.480535 1_555
Ca16 O29 2.522028 1_555
Ca16 O58 2.525556 1_555
Ca16 O16 2.551682 1_555
Ca16 O35 2.592300 1_565
Ca16 O79 2.871751 1_555
Ca16 O78 2.987466 1_555
Ca17 O30 2.286458 1_555
Ca17 O22 2.351769 1_555
Ca17 O80 2.360066 1_555
Ca17 O55 2.595175 1_555
Ca17 O51 2.806058 1_555
Ca18 O31 2.305878 1_555
Ca18 O81 2.401061 1_555
Ca18 O23 2.458423 1_555
Ca18 O41 2.563479 1_555
Ca18 O52 2.693583 1_555
Ca18 O60 2.774282 1_555
Ca18 O18 2.822613 1_555
Ca19 O82 2.307890 1_555
Ca19 O32 2.322625 1_555
Ca19 O24 2.323652 1_555
Ca19 O57 2.597784 1_555
Ca19 O19 2.776069 1_555
Ca19 O43 2.890042 1_565
Ca19 O3 3.016993 1_555
Ca20 O25 2.272194 1_555
Ca20 O83 2.376035 1_555
Ca20 O33 2.435437 1_555
Ca20 O62 2.463883 1_555
Ca20 O20 2.650439 1_555
Ca20 O4 2.712571 1_555
Ca21 O35 2.274743 1_555
Ca21 O69 2.300978 1_555
Ca21 O29 2.381016 1_545
Ca21 O14 2.415825 1_555
Ca21 O65 2.454141 1_555
Ca21 O6 2.550742 1_555
Ca21 O50 2.723640 1_545
Ca22 O15 2.273981 1_555
Ca22 O36 2.299721 1_555
Ca22 O70 2.312177 1_555
Ca22 O7 2.395533 1_555
Ca22 O26 2.464881 1_555
Ca22 O66 2.587355 1_555
Ca23 O71 2.394137 1_555
Ca23 O63 2.450094 1_555
Ca23 O16 2.480316 1_555
Ca23 O37 2.504741 1_555
Ca23 O27 2.523019 1_555
Ca23 O21 2.530250 1_555
Ca23 O8 2.763159 1_555
Ca23 O42 2.855277 1_555
Ca24 O72 2.353825 1_555
Ca24 O17 2.372346 1_555
Ca24 O38 2.393353 1_555
Ca24 O64 2.430527 1_555
Ca24 O43 2.450640 1_555
Ca24 O32 2.562113 1_545
Ca24 O22 2.931672 1_555
Ca25 O39 2.391376 1_555
Ca25 O73 2.399888 1_555
Ca25 O65 2.436382 1_655
Ca25 O18 2.458427 1_555
Ca25 O44 2.578130 1_555
Ca25 O33 2.634495 1_545
Ca25 O23 2.783701 1_555
Ca25 O10 2.898549 1_555
Ca26 O19 2.363222 1_555
Ca26 O74 2.405216 1_555
Ca26 O45 2.479090 1_555
Ca26 O66 2.522958 1_655
Ca26 O40 2.567057 1_555
Ca26 O30 2.590591 1_555
Ca26 O11 2.664844 1_555
Ca26 O24 2.775751 1_555
Ca27 O75 2.335396 1_555
Ca27 O20 2.388962 1_555
Ca27 O67 2.417825 1_555
Ca27 O41 2.485339 1_555
Ca27 O46 2.589370 1_555
Ca27 O12 2.679126 1_555
Ca27 O31 2.723248 1_555
Ca27 O25 2.750039 1_555
Mn0 O58 1.911270 1_655
Mn0 O50 1.923806 1_655
Mn0 O33 1.954536 1_555
Mn0 O44 1.976420 1_565
Mn0 O35 2.044343 1_665
Mn0 O65 2.139989 1_665
Mn1 O55 1.937419 1_455
Mn1 O30 1.955042 1_455
Mn1 O36 1.967633 1_555
Mn1 O66 1.992952 1_555
Mn1 O45 2.019086 1_455
Mn1 O47 2.085792 1_555
Mn2 O48 1.935771 1_655
Mn2 O56 1.970494 1_655
Mn2 O67 1.974481 1_555
Mn2 O46 1.979153 1_555
Mn2 O31 1.983101 1_555
Mn2 O37 2.041433 1_655
Mn3 O28 1.888391 1_565
Mn3 O38 1.893791 1_565
Mn3 O61 1.907132 1_555
Mn3 O53 1.922083 1_555
Mn4 O29 1.927304 1_555
Mn4 O39 1.939465 1_565
Mn4 O54 1.950516 1_555
Mn4 O62 1.957601 1_555
Mn5 O40 1.885230 1_555
Mn5 O26 1.894154 1_555
Mn5 O59 1.920740 1_555
Mn5 O51 1.921632 1_555
Mn6 O63 1.931494 1_555
Mn6 O27 1.944519 1_555
Mn6 O52 1.947277 1_555
Mn6 O60 1.987302 1_555
Mn6 O41 1.993129 1_555
Mn6 O42 2.090770 1_555
Mn7 O34 1.933761 1_565
Mn7 O78 1.948617 1_555
Mn7 O29 1.982231 1_555
Mn7 O69 2.014419 1_565
Mn7 O50 2.023732 1_555
Mn8 O42 1.955000 1_554
Mn8 O37 1.979578 1_554
Mn8 O47 1.983398 1_555
Mn8 O26 2.038412 1_555
Mn8 O70 2.157905 1_555
Mn9 O27 1.900440 1_555
Mn9 O36 1.931013 1_555
Mn9 O71 1.996206 1_555
Mn9 O48 1.997583 1_555
Mn9 O76 2.034842 1_555
Mn10 O44 1.962124 1_565
Mn10 O53 1.962569 1_556
Mn10 O32 1.967796 1_556
Mn10 O83 1.997281 1_555
Mn10 O72 2.005225 1_566
Mn10 O39 2.046073 1_565
Mn11 O54 1.942357 1_555
Mn11 O43 1.962966 1_565
Mn11 O82 1.989088 1_555
Mn11 O73 2.029935 1_565
Mn11 O33 2.049104 1_555
Mn11 O38 2.175950 1_565
Mn12 O74 1.926085 1_555
Mn12 O51 1.961219 1_555
Mn12 O46 1.961468 1_554
Mn12 O30 1.968217 1_555
Mn12 O41 1.986424 1_554
Mn12 O81 2.007355 1_554
Mn13 O75 1.940123 1_555
Mn13 O31 1.991677 1_555
Mn13 O52 2.001507 1_555
Mn13 O80 2.006303 1_555
Mn13 O40 2.023510 1_555
Mn13 O45 2.053232 1_555
Mn14 O76 1.986745 1_555
Mn14 O69 2.003870 1_555
Mn14 O13 2.092408 1_555
Mn14 O5 2.101071 1_555
Mn15 O70 1.852775 1_556
Mn15 O16 1.888907 1_555
Mn15 O79 1.913813 1_555
Mn15 O8 1.922732 1_555
Mn16 O21 1.972481 1_555
Mn16 O71 1.981595 1_555
Mn16 O15 2.011659 1_555
Mn16 O78 2.053446 1_555
Mn16 O0 2.098975 1_555
Mn16 O7 2.505506 1_555
Mn17 O10 1.938318 1_554
Mn17 O18 1.968503 1_554
Mn17 O72 1.975213 1_555
Mn17 O22 1.998833 1_555
Mn17 O81 2.010205 1_554
Mn17 O1 2.153155 1_555
Mn18 O73 1.988626 1_555
Mn18 O23 2.017724 1_555
Mn18 O80 2.032886 1_555
Mn18 O17 2.039118 1_555
Mn18 O9 2.098444 1_555
Mn18 O2 2.126031 1_555
Mn19 O74 1.919635 1_556
Mn19 O12 1.962605 1_555
Mn19 O20 1.968944 1_555
Mn19 O24 1.994463 1_556
Mn19 O83 2.004418 1_555
Mn19 O3 2.137066 1_556
Mn20 O25 1.920667 1_555
Mn20 O11 1.930906 1_555
Mn20 O75 1.931163 1_555
Mn20 O19 1.970874 1_555
Mn20 O82 1.996653 1_555
Mn20 O4 2.002097 1_555
Mn21 O56 1.942068 1_655
Mn21 O23 1.958957 1_555
Mn21 O10 2.009790 1_555
Mn21 O65 2.023806 1_655
Mn21 O14 2.051045 1_655
Mn22 O57 1.910206 1_555
Mn22 O15 1.943084 1_655
Mn22 O66 1.968096 1_655
Mn22 O24 1.977997 1_555
Mn22 O11 2.014054 1_555
Mn23 O16 1.948397 1_655
Mn23 O58 1.955024 1_655
Mn23 O25 1.956588 1_555
Mn23 O0 1.964018 1_655
Mn23 O67 1.968143 1_555
Mn23 O12 2.035323 1_555
Mn24 O17 1.867037 1_555
Mn24 O5 1.901499 1_555
Mn24 O1 1.901969 1_555
Mn24 O59 1.988992 1_555
Mn25 O2 1.944069 1_555
Mn25 O60 2.001291 1_555
Mn25 O18 2.004199 1_555
Mn25 O6 2.044266 1_555
Mn26 O7 1.853750 1_555
Mn26 O19 1.865271 1_555
Mn26 O3 1.918389 1_555
Mn26 O61 1.976397 1_555
Mn27 O63 1.925831 1_555
Mn27 O62 1.943033 1_555
Mn27 O4 1.980806 1_555
Mn27 O8 1.988874 1_555
Mn27 O20 1.988877 1_555
Mn27 O21 1.994597 1_555
Cr0 O57 1.976991 1_555
Cr0 O43 1.984031 1_565
Cr0 O49 2.019423 1_655
Cr0 O32 2.043508 1_555
Cr0 O34 2.066203 1_665
Cr0 O64 2.084360 1_565
Cr1 O49 1.896965 1_555
Cr1 O35 1.916258 1_564
Cr1 O79 1.938391 1_554
Cr1 O28 2.027826 1_565
Cr1 O68 2.256043 1_565
Cr2 O77 1.747668 1_556
Cr2 O68 1.820492 1_556
Cr2 O14 1.823012 1_555
Cr2 O6 1.872666 1_555
Cr3 O9 1.780750 1_555
Cr3 O13 1.844205 1_655
Cr3 O22 1.875133 1_555
Cr3 O55 2.000426 1_555
Cr3 O64 2.025300 1_555
O1 Sr1 2.521638 1_554
O5 Sr3 2.547107 1_555
O9 Sr0 2.489782 1_555
O13 Sr3 2.386576 1_555
O13 Sr2 2.460741 1_555
O26 Sr2 2.599524 1_555
O28 Sr3 2.439633 1_555
O34 Sr3 2.403977 1_555
O34 Sr0 2.801546 1_455
O36 Sr2 2.513175 1_555
O41 Sr1 2.866224 1_555
O42 Sr1 2.591430 1_555
O43 Sr0 2.396065 1_555
O47 Sr2 2.557714 1_555
O50 Sr0 2.643715 1_465
O51 Sr1 2.444495 1_554
O55 Sr2 2.773336 1_655
O59 Sr2 2.664263 1_555
O60 Sr1 2.501216 1_555
O64 Sr3 2.630157 1_655
O65 Sr0 2.509804 1_455
O68 Sr3 2.478921 1_555
O69 Sr0 2.661654 1_455
O73 Sr0 2.726732 1_555
O76 Sr2 2.661944 1_555
O77 Sr1 2.593728 1_554
O77 Sr2 2.728908 1_555
O81 Sr1 2.657410 1_555
