# generated using pymatgen
data_Zr10(GaSb)3
_symmetry_space_group_name_H-M   'P 1'
_cell_length_a   5.71745841
_cell_length_b   8.31685809
_cell_length_c   8.31682769
_cell_angle_alpha   59.99979603
_cell_angle_beta   89.99992932
_cell_angle_gamma   89.99997809
_symmetry_Int_Tables_number   1
_chemical_formula_structural   Zr10(GaSb)3
_chemical_formula_sum   'Zr10 Ga3 Sb3'
_cell_volume   342.49146106
_cell_formula_units_Z   1
loop_
 _symmetry_equiv_pos_site_id
 _symmetry_equiv_pos_as_xyz
  1  'x, y, z'
loop_
 _atom_site_type_symbol
 _atom_site_label
 _atom_site_symmetry_multiplicity
 _atom_site_fract_x
 _atom_site_fract_y
 _atom_site_fract_z
 _atom_site_occupancy
  Zr  Zr0  1  0.50766171  0.33333348  0.33333325  1
  Zr  Zr1  1  0.50766233  0.66666805  0.66666628  1
  Zr  Zr2  1  0.99233799  0.66666833  0.66666525  1
  Zr  Zr3  1  0.99233601  0.33333264  0.33333519  1
  Zr  Zr4  1  0.74999813  0.25239252  0.74760838  1
  Zr  Zr5  1  0.74999948  0.74760317  0.00000163  1
  Zr  Zr6  1  0.75000079  -0.00000042  0.25239616  1
  Zr  Zr7  1  0.25000163  0.75335540  0.24663902  1
  Zr  Zr8  1  0.25000224  0.24665241  -0.00000311  1
  Zr  Zr9  1  0.25000223  0.00000086  0.75334966  1
  Ga  Ga0  1  0.74999804  0.61308559  0.38690932  1
  Ga  Ga1  1  0.75000109  0.38689952  0.00002180  1
  Ga  Ga2  1  0.75000000  0.00000675  0.61309100  1
  Sb  Sb0  1  0.25000210  0.39465846  0.60534958  1
  Sb  Sb1  1  0.24999292  0.60534812  -0.00001051  1
  Sb  Sb2  1  0.25000231  0.99999711  0.39464510  1
loop_
_geom_bond_atom_site_label_1
_geom_bond_atom_site_label_2
_geom_bond_distance
_geom_bond_site_symmetry_2
Ga0 Zr5 2.829510 1_555
Ga0 Zr6 2.829577 1_565
Ga0 Zr0 2.927176 1_555
Ga0 Zr3 2.927176 1_555
Ga0 Zr1 2.927230 1_555
Ga0 Zr2 2.927238 1_555
Ga0 Zr4 2.999843 1_555
Ga0 Zr7 3.087584 1_555
Ga0 Zr7 3.087621 1_655
Ga1 Zr6 2.829444 1_555
Ga1 Zr4 2.829635 1_554
Ga1 Zr0 2.927077 1_555
Ga1 Zr3 2.927080 1_555
Ga1 Zr2 2.927337 1_554
Ga1 Zr1 2.927339 1_554
Ga1 Zr5 2.999837 1_555
Ga1 Zr8 3.087566 1_555
Ga1 Zr8 3.087577 1_655
Ga2 Zr4 2.829489 1_555
Ga2 Zr5 2.829547 1_546
Ga2 Zr3 2.927163 1_555
Ga2 Zr0 2.927180 1_555
Ga2 Zr1 2.927256 1_545
Ga2 Zr2 2.927257 1_545
Ga2 Zr6 2.999867 1_555
Ga2 Zr9 3.087545 1_555
Ga2 Zr9 3.087571 1_655
Sb0 Zr8 2.871916 1_556
Sb0 Zr9 2.872015 1_555
Sb0 Zr1 2.949879 1_555
Sb0 Zr2 2.949886 1_455
Sb0 Zr0 2.949955 1_555
Sb0 Zr3 2.949967 1_455
Sb0 Zr7 2.983274 1_555
Sb0 Zr4 3.093881 1_555
Sb0 Zr4 3.093921 1_455
Sb1 Zr9 2.871957 1_564
Sb1 Zr7 2.871999 1_555
Sb1 Zr2 2.949831 1_454
Sb1 Zr1 2.949863 1_554
Sb1 Zr3 2.949959 1_455
Sb1 Zr0 2.949985 1_555
Sb1 Zr8 2.983191 1_555
Sb1 Zr5 3.093864 1_455
Sb1 Zr5 3.093934 1_555
Sb2 Zr7 2.871934 1_555
Sb2 Zr8 2.871938 1_565
Sb2 Zr1 2.949911 1_555
Sb2 Zr2 2.949917 1_455
Sb2 Zr0 2.949958 1_565
Sb2 Zr3 2.949977 1_465
Sb2 Zr9 2.983300 1_565
Sb2 Zr6 3.093846 1_565
Sb2 Zr6 3.093864 1_465
