# generated using pymatgen
data_TeMo2S3
_symmetry_space_group_name_H-M   'P 1'
_cell_length_a   3.27793543
_cell_length_b   3.27789800
_cell_length_c   13.67903900
_cell_angle_alpha   90.00003005
_cell_angle_beta   90.00041191
_cell_angle_gamma   60.00030236
_symmetry_Int_Tables_number   1
_chemical_formula_structural   TeMo2S3
_chemical_formula_sum   'Te1 Mo2 S3'
_cell_volume   127.28680100
_cell_formula_units_Z   1
loop_
 _symmetry_equiv_pos_site_id
 _symmetry_equiv_pos_as_xyz
  1  'x, y, z'
loop_
 _atom_site_type_symbol
 _atom_site_label
 _atom_site_symmetry_multiplicity
 _atom_site_fract_x
 _atom_site_fract_y
 _atom_site_fract_z
 _atom_site_occupancy
  Te  Te0  1  0.33333800  0.33333100  0.11903700  1
  Mo  Mo0  1  0.33332000  0.33334000  0.74884200  1
  Mo  Mo1  1  0.66668000  0.66666000  0.26206300  1
  S  S0  1  0.66666000  0.66667000  0.86128400  1
  S  S1  1  0.66665300  0.66667400  0.63625400  1
  S  S2  1  0.33334900  0.33332600  0.37251900  1
loop_
_geom_bond_atom_site_label_1
_geom_bond_atom_site_label_2
_geom_bond_distance
_geom_bond_site_symmetry_2
Mo0 S0 2.438713 1_545
Mo0 S0 2.438714 1_555
Mo0 S0 2.438722 1_455
Mo0 S1 2.439973 1_545
Mo0 S1 2.439978 1_555
Mo0 S1 2.439978 1_455
Mo1 S2 2.421671 1_565
Mo1 S2 2.421671 1_555
Mo1 S2 2.421681 1_655
Mo1 Te0 2.722005 1_565
Mo1 Te0 2.722005 1_555
Mo1 Te0 2.722010 1_655
