# generated using pymatgen
data_ZrCuGe2
_symmetry_space_group_name_H-M   'P 1'
_cell_length_a   3.78755731
_cell_length_b   3.78755731
_cell_length_c   9.18288022
_cell_angle_alpha   90.00000000
_cell_angle_beta   90.00000000
_cell_angle_gamma   90.00000000
_symmetry_Int_Tables_number   1
_chemical_formula_structural   ZrCuGe2
_chemical_formula_sum   'Zr2 Cu2 Ge4'
_cell_volume   131.73383811
_cell_formula_units_Z   2
loop_
 _symmetry_equiv_pos_site_id
 _symmetry_equiv_pos_as_xyz
  1  'x, y, z'
loop_
 _atom_site_type_symbol
 _atom_site_label
 _atom_site_symmetry_multiplicity
 _atom_site_fract_x
 _atom_site_fract_y
 _atom_site_fract_z
 _atom_site_occupancy
  Zr  Zr0  1  0.00000000  0.50000000  0.76286244  1
  Zr  Zr1  1  0.50000000  -0.00000000  0.23713756  1
  Cu  Cu0  1  0.50000000  0.50000000  0.50000000  1
  Cu  Cu1  1  0.00000000  -0.00000000  0.50000000  1
  Ge  Ge0  1  0.50000000  0.50000000  0.00000000  1
  Ge  Ge1  1  0.00000000  -0.00000000  -0.00000000  1
  Ge  Ge2  1  0.00000000  0.50000000  0.32956753  1
  Ge  Ge3  1  0.50000000  0.00000000  0.67043247  1
loop_
_geom_bond_atom_site_label_1
_geom_bond_atom_site_label_2
_geom_bond_distance
_geom_bond_site_symmetry_2
Cu0 Ge2 2.456789 1_655
Cu0 Ge3 2.456789 1_555
Cu0 Ge3 2.456789 1_565
Cu0 Ge2 2.456789 1_555
Cu0 Cu1 2.678207 1_565
Cu0 Cu1 2.678207 1_655
Cu0 Cu1 2.678207 1_555
Cu0 Cu1 2.678207 1_665
Cu0 Zr1 3.068060 1_555
Cu0 Zr0 3.068060 1_655
Cu0 Zr1 3.068060 1_565
Cu0 Zr0 3.068060 1_555
Cu1 Ge3 2.456789 1_555
Cu1 Ge2 2.456789 1_545
Cu1 Ge2 2.456789 1_555
Cu1 Ge3 2.456789 1_455
Cu1 Zr1 3.068060 1_555
Cu1 Zr1 3.068060 1_455
Cu1 Zr0 3.068060 1_545
Cu1 Zr0 3.068060 1_555
Ge0 Ge1 2.678207 1_555
Ge0 Ge1 2.678207 1_655
Ge0 Ge1 2.678207 1_565
Ge0 Ge1 2.678207 1_665
Ge0 Zr1 2.885891 1_565
Ge0 Zr0 2.885891 1_554
Ge0 Zr1 2.885891 1_555
Ge0 Zr0 2.885891 1_654
Ge1 Zr0 2.885891 1_554
Ge1 Zr1 2.885891 1_555
Ge1 Zr1 2.885891 1_455
Ge1 Zr0 2.885891 1_544
Ge2 Zr1 2.809486 1_565
Ge2 Zr1 2.809486 1_555
Ge2 Zr1 2.809486 1_455
Ge2 Zr1 2.809486 1_465
Ge3 Zr0 2.809486 1_655
Ge3 Zr0 2.809486 1_545
Ge3 Zr0 2.809486 1_645
Ge3 Zr0 2.809486 1_555
