# generated using pymatgen
data_NiPdO3
_symmetry_space_group_name_H-M   'P 1'
_cell_length_a   3.69008600
_cell_length_b   3.69008600
_cell_length_c   3.69008600
_cell_angle_alpha   90.00000000
_cell_angle_beta   90.00000000
_cell_angle_gamma   90.00000000
_symmetry_Int_Tables_number   1
_chemical_formula_structural   NiPdO3
_chemical_formula_sum   'Ni1 Pd1 O3'
_cell_volume   50.24692204
_cell_formula_units_Z   1
loop_
 _symmetry_equiv_pos_site_id
 _symmetry_equiv_pos_as_xyz
  1  'x, y, z'
loop_
 _atom_site_type_symbol
 _atom_site_label
 _atom_site_symmetry_multiplicity
 _atom_site_fract_x
 _atom_site_fract_y
 _atom_site_fract_z
 _atom_site_occupancy
  Ni  Ni0  1  0.50000000  0.50000000  0.50000000  1
  Pd  Pd0  1  0.00000000  0.00000000  0.00000000  1
  O  O0  1  0.50000000  0.50000000  0.00000000  1
  O  O1  1  0.50000000  0.00000000  0.50000000  1
  O  O2  1  0.00000000  0.50000000  0.50000000  1
loop_
_geom_bond_atom_site_label_1
_geom_bond_atom_site_label_2
_geom_bond_distance
_geom_bond_site_symmetry_2
Ni0 O0 1.845043 1_556
Ni0 O1 1.845043 1_555
Ni0 O0 1.845043 1_555
Ni0 O2 1.845043 1_555
Ni0 O1 1.845043 1_565
Ni0 O2 1.845043 1_655
O0 Pd0 2.609285 1_565
O0 Pd0 2.609285 1_655
O0 Pd0 2.609285 1_555
O0 Pd0 2.609285 1_665
O1 Pd0 2.609285 1_655
O1 Pd0 2.609285 1_555
O1 Pd0 2.609285 1_556
O1 Pd0 2.609285 1_656
O2 Pd0 2.609285 1_565
O2 Pd0 2.609285 1_555
O2 Pd0 2.609285 1_566
O2 Pd0 2.609285 1_556
