# generated using pymatgen
data_Li5OsO6
_symmetry_space_group_name_H-M   'P 1'
_cell_length_a   5.00778627
_cell_length_b   5.00778737
_cell_length_c   14.03097293
_cell_angle_alpha   90.00143321
_cell_angle_beta   89.99844884
_cell_angle_gamma   119.99941977
_symmetry_Int_Tables_number   1
_chemical_formula_structural   Li5OsO6
_chemical_formula_sum   'Li15 Os3 O18'
_cell_volume   304.72818383
_cell_formula_units_Z   3
loop_
 _symmetry_equiv_pos_site_id
 _symmetry_equiv_pos_as_xyz
  1  'x, y, z'
loop_
 _atom_site_type_symbol
 _atom_site_label
 _atom_site_symmetry_multiplicity
 _atom_site_fract_x
 _atom_site_fract_y
 _atom_site_fract_z
 _atom_site_occupancy
  Li  Li0  1  0.55365234  0.77682127  0.99996751  1
  Li  Li1  1  0.22314289  0.77681047  0.33333180  1
  Li  Li2  1  0.22320067  0.44634365  0.66669920  1
  Li  Li3  1  0.89032136  0.44525554  0.50001047  1
  Li  Li4  1  0.55489016  0.44518564  0.83333574  1
  Li  Li5  1  0.55484303  0.10964429  0.16664879  1
  Li  Li6  1  0.53044021  0.76514672  0.50000230  1
  Li  Li7  1  0.23472300  0.76513104  0.83335741  1
  Li  Li8  1  0.23475347  0.46960761  0.16663479  1
  Li  Li9  1  0.88961690  0.44479525  0.99999728  1
  Li  Li10  1  0.55519844  0.44483378  0.33332208  1
  Li  Li11  1  0.55517498  0.11039138  0.66668447  1
  Li  Li12  1  0.24713235  0.12359164  0.49999671  1
  Li  Li13  1  0.87651713  0.12368253  0.83337001  1
  Li  Li14  1  0.87648308  0.75283056  0.16663640  1
  Os  Os0  1  0.22072343  0.11035296  -0.00000763  1
  Os  Os1  1  0.88961629  0.11035228  0.33329996  1
  Os  Os2  1  0.88961730  0.77924398  0.66670391  1
  O  O0  1  0.22349990  0.42317394  0.92084044  1
  O  O1  1  0.57684430  0.80034672  0.25414070  1
  O  O2  1  0.22350395  0.80032951  0.07914938  1
  O  O3  1  0.19955656  0.77647968  0.58753923  1
  O  O4  1  0.57695224  0.77648990  0.74587873  1
  O  O5  1  0.19965790  0.42317277  0.41246018  1
  O  O6  1  0.91545713  0.11294407  0.07742758  1
  O  O7  1  0.88704520  0.80250171  0.41073676  1
  O  O8  1  0.91551771  0.80256489  0.92257769  1
  O  O9  1  0.19733510  0.08438580  0.74412889  1
  O  O10  1  0.88705039  0.08431952  0.58929956  1
  O  O11  1  0.19743643  0.11297071  0.25587055  1
  O  O12  1  0.53228392  0.11181644  0.92169073  1
  O  O13  1  0.88816487  0.42046178  0.25498819  1
  O  O14  1  0.53221496  0.42040834  0.07828906  1
  O  O15  1  0.57969836  0.46786877  0.58840395  1
  O  O16  1  0.88816241  0.46792809  0.74499208  1
  O  O17  1  0.57957365  0.11181377  0.41159712  1
loop_
_geom_bond_atom_site_label_1
_geom_bond_atom_site_label_2
_geom_bond_distance
_geom_bond_site_symmetry_2
Li0 O0 2.043170 1_555
Li0 O2 2.043562 1_556
Li0 O12 2.052222 1_565
Li0 O14 2.052634 1_556
Li0 O8 2.060547 1_555
Li0 O6 2.060965 1_566
Li1 O5 2.043169 1_555
Li1 O1 2.043771 1_555
Li1 O17 2.052299 1_565
Li1 O13 2.052646 1_455
Li1 O7 2.060430 1_455
Li1 O11 2.061197 1_565
Li2 O3 2.043708 1_555
Li2 O4 2.043803 1_555
Li2 O15 2.052579 1_555
Li2 O16 2.052973 1_455
Li2 O9 2.061051 1_555
Li2 O10 2.061084 1_455
Li3 O3 2.022145 1_655
Li3 O5 2.022897 1_655
Li3 O15 2.036359 1_555
Li3 O17 2.037240 1_555
Li3 O7 2.190730 1_555
Li3 O10 2.192564 1_555
Li4 O4 2.021735 1_555
Li4 O0 2.022523 1_555
Li4 O16 2.035850 1_555
Li4 O12 2.036622 1_555
Li4 O8 2.190954 1_555
Li4 O9 2.191387 1_555
Li5 O1 2.022119 1_545
Li5 O2 2.022292 1_545
Li5 O13 2.036473 1_555
Li5 O14 2.036716 1_555
Li5 O6 2.190585 1_555
Li5 O11 2.191023 1_555
Li6 O15 2.045217 1_555
Li6 O17 2.045953 1_565
Li6 O5 2.085356 1_555
Li6 O3 2.085982 1_555
Li6 O7 2.111546 1_555
Li6 O10 2.111735 1_565
Li7 O16 2.044845 1_455
Li7 O12 2.045413 1_565
Li7 O0 2.084750 1_555
Li7 O4 2.085504 1_555
Li7 O8 2.111169 1_455
Li7 O9 2.111384 1_565
Li8 O13 2.045137 1_455
Li8 O14 2.045268 1_555
Li8 O2 2.084777 1_555
Li8 O1 2.085223 1_555
Li8 O6 2.111311 1_455
Li8 O11 2.111540 1_555
Li9 O6 2.043015 1_556
Li9 O8 2.043153 1_555
Li9 O12 2.050854 1_555
Li9 O14 2.050932 1_556
Li9 O0 2.054707 1_655
Li9 O2 2.054788 1_656
Li10 O7 2.042825 1_555
Li10 O11 2.043356 1_555
Li10 O17 2.050847 1_555
Li10 O13 2.051005 1_555
Li10 O5 2.054645 1_555
Li10 O1 2.054933 1_555
Li11 O10 2.043275 1_555
Li11 O9 2.043392 1_555
Li11 O15 2.050955 1_555
Li11 O16 2.051350 1_555
Li11 O3 2.054980 1_545
Li11 O4 2.055478 1_545
Li12 O5 2.042679 1_555
Li12 O3 2.042796 1_545
Li12 O17 2.100362 1_555
Li12 O15 2.100828 1_555
Li12 O10 2.122627 1_455
Li12 O7 2.122792 1_445
Li13 O0 2.041799 1_655
Li13 O4 2.042589 1_545
Li13 O12 2.099598 1_555
Li13 O16 2.100596 1_555
Li13 O9 2.122201 1_655
Li13 O8 2.122487 1_545
Li14 O2 2.042038 1_655
Li14 O1 2.042683 1_555
Li14 O13 2.099522 1_555
Li14 O14 2.100039 1_555
Li14 O11 2.122470 1_665
Li14 O6 2.122521 1_565
O0 Os0 1.914663 1_556
O1 Os1 1.914533 1_565
O2 Os0 1.914627 1_565
O3 Os2 1.914265 1_455
O4 Os2 1.914211 1_555
O5 Os1 1.914714 1_455
O6 Os0 1.880778 1_655
O7 Os1 1.880850 1_565
O8 Os0 1.880383 1_666
O9 Os2 1.880192 1_445
O10 Os2 1.879745 1_545
O11 Os1 1.880524 1_455
O12 Os0 1.905221 1_556
O13 Os1 1.905376 1_555
O14 Os0 1.904992 1_555
O15 Os2 1.904501 1_555
O16 Os2 1.904176 1_555
O17 Os1 1.904958 1_555
