# generated using pymatgen
data_HfMg30BO31
_symmetry_space_group_name_H-M   'P 1'
_cell_length_a   8.51680800
_cell_length_b   8.60505300
_cell_length_c   8.66475300
_cell_angle_alpha   90.00000000
_cell_angle_beta   90.00000000
_cell_angle_gamma   90.00000000
_symmetry_Int_Tables_number   1
_chemical_formula_structural   HfMg30BO31
_chemical_formula_sum   'Hf1 Mg30 B1 O31'
_cell_volume   635.01881533
_cell_formula_units_Z   1
loop_
 _symmetry_equiv_pos_site_id
 _symmetry_equiv_pos_as_xyz
  1  'x, y, z'
loop_
 _atom_site_type_symbol
 _atom_site_label
 _atom_site_symmetry_multiplicity
 _atom_site_fract_x
 _atom_site_fract_y
 _atom_site_fract_z
 _atom_site_occupancy
  Hf  Hf0  1  0.99143200  0.00000000  0.50000000  1
  Mg  Mg0  1  0.99213200  0.50000000  0.00000000  1
  Mg  Mg1  1  0.99704200  0.50000000  0.50000000  1
  Mg  Mg2  1  0.49195900  0.00000000  0.00000000  1
  Mg  Mg3  1  0.50108700  0.00000000  0.50000000  1
  Mg  Mg4  1  0.49941800  0.50000000  0.00000000  1
  Mg  Mg5  1  0.49886500  0.50000000  0.50000000  1
  Mg  Mg6  1  0.99794100  0.24811400  0.23390100  1
  Mg  Mg7  1  0.99794100  0.24811400  0.76609900  1
  Mg  Mg8  1  0.99794100  0.75188600  0.23390100  1
  Mg  Mg9  1  0.99794100  0.75188600  0.76609900  1
  Mg  Mg10  1  0.49701300  0.25015300  0.24723200  1
  Mg  Mg11  1  0.49701300  0.25015300  0.75276800  1
  Mg  Mg12  1  0.49701300  0.74984700  0.24723200  1
  Mg  Mg13  1  0.49701300  0.74984700  0.75276800  1
  Mg  Mg14  1  0.25045000  0.00000000  0.25546700  1
  Mg  Mg15  1  0.25045000  0.00000000  0.74453300  1
  Mg  Mg16  1  0.24662800  0.50000000  0.25121900  1
  Mg  Mg17  1  0.24662800  0.50000000  0.74878100  1
  Mg  Mg18  1  0.74601800  0.00000000  0.23403700  1
  Mg  Mg19  1  0.74601800  0.00000000  0.76596300  1
  Mg  Mg20  1  0.74834500  0.50000000  0.24667700  1
  Mg  Mg21  1  0.74834500  0.50000000  0.75332300  1
  Mg  Mg22  1  0.24335200  0.26159900  0.00000000  1
  Mg  Mg23  1  0.25210200  0.25862600  0.50000000  1
  Mg  Mg24  1  0.24335200  0.73840100  0.00000000  1
  Mg  Mg25  1  0.25210200  0.74137400  0.50000000  1
  Mg  Mg26  1  0.74989600  0.24495100  0.00000000  1
  Mg  Mg27  1  0.74219800  0.25667500  0.50000000  1
  Mg  Mg28  1  0.74989600  0.75504900  0.00000000  1
  Mg  Mg29  1  0.74219800  0.74332500  0.50000000  1
  B  B0  1  0.21578800  0.00000000  0.00000000  1
  O  O0  1  0.24320800  0.00000000  0.50000000  1
  O  O1  1  0.25004800  0.50000000  0.00000000  1
  O  O2  1  0.24750200  0.50000000  0.50000000  1
  O  O3  1  0.72724500  0.00000000  0.00000000  1
  O  O4  1  0.74860300  0.00000000  0.50000000  1
  O  O5  1  0.74279700  0.50000000  0.00000000  1
  O  O6  1  0.74815600  0.50000000  0.50000000  1
  O  O7  1  0.24654700  0.25313700  0.25642600  1
  O  O8  1  0.24654700  0.25313700  0.74357400  1
  O  O9  1  0.24654700  0.74686300  0.25642600  1
  O  O10  1  0.24654700  0.74686300  0.74357400  1
  O  O11  1  0.74769900  0.24837900  0.25110000  1
  O  O12  1  0.74769900  0.24837900  0.74890000  1
  O  O13  1  0.74769900  0.75162100  0.25110000  1
  O  O14  1  0.74769900  0.75162100  0.74890000  1
  O  O15  1  0.99369500  0.00000000  0.26617900  1
  O  O16  1  0.99369500  0.00000000  0.73382100  1
  O  O17  1  0.99684200  0.50000000  0.25592600  1
  O  O18  1  0.99684200  0.50000000  0.74407400  1
  O  O19  1  0.49713700  0.00000000  0.25733200  1
  O  O20  1  0.49713700  0.00000000  0.74266800  1
  O  O21  1  0.49799300  0.50000000  0.25252900  1
  O  O22  1  0.49799300  0.50000000  0.74747100  1
  O  O23  1  0.99397000  0.27067700  0.00000000  1
  O  O24  1  0.99630200  0.24479700  0.50000000  1
  O  O25  1  0.99397000  0.72932300  0.00000000  1
  O  O26  1  0.99630200  0.75520300  0.50000000  1
  O  O27  1  0.49614200  0.25409500  0.00000000  1
  O  O28  1  0.49788800  0.24952200  0.50000000  1
  O  O29  1  0.49614200  0.74590500  0.00000000  1
  O  O30  1  0.49788800  0.75047800  0.50000000  1
loop_
_geom_bond_atom_site_label_1
_geom_bond_atom_site_label_2
_geom_bond_distance
_geom_bond_site_symmetry_2
Hf0 O16 2.026093 1_555
Hf0 O15 2.026093 1_555
Hf0 O4 2.068128 1_555
Hf0 O24 2.106899 1_555
Hf0 O26 2.106899 1_545
Hf0 O0 2.144328 1_655
Mg0 O25 1.973399 1_555
Mg0 O23 1.973399 1_555
Mg0 O5 2.123538 1_555
Mg0 O1 2.196621 1_655
Mg0 O18 2.217898 1_554
Mg0 O17 2.217898 1_555
Mg1 O17 2.114842 1_555
Mg1 O18 2.114842 1_555
Mg1 O6 2.119714 1_555
Mg1 O2 2.133120 1_655
Mg1 O26 2.196044 1_555
Mg1 O24 2.196044 1_555
Mg2 O3 2.003886 1_555
Mg2 O27 2.186791 1_555
Mg2 O29 2.186791 1_545
Mg2 O19 2.230154 1_555
Mg2 O20 2.230154 1_554
Mg3 O20 2.102927 1_555
Mg3 O19 2.102927 1_555
Mg3 O4 2.108046 1_555
Mg3 O28 2.147323 1_555
Mg3 O30 2.147323 1_545
Mg3 O0 2.196306 1_555
Mg4 O5 2.072812 1_555
Mg4 O29 2.116209 1_555
Mg4 O27 2.116209 1_555
Mg4 O1 2.123836 1_555
Mg4 O22 2.188135 1_554
Mg4 O21 2.188135 1_555
Mg5 O6 2.123164 1_555
Mg5 O2 2.140810 1_555
Mg5 O22 2.144288 1_555
Mg5 O21 2.144288 1_555
Mg5 O30 2.155393 1_555
Mg5 O28 2.155393 1_555
Mg6 O23 2.036254 1_555
Mg6 O7 2.126745 1_655
Mg6 O11 2.136468 1_555
Mg6 O15 2.153578 1_555
Mg6 O17 2.175898 1_555
Mg6 O24 2.305901 1_555
Mg7 O23 2.036254 1_556
Mg7 O8 2.126745 1_655
Mg7 O12 2.136468 1_555
Mg7 O16 2.153578 1_555
Mg7 O18 2.175898 1_555
Mg7 O24 2.305901 1_555
Mg8 O25 2.036254 1_555
Mg8 O9 2.126745 1_655
Mg8 O13 2.136468 1_555
Mg8 O15 2.153578 1_565
Mg8 O17 2.175898 1_555
Mg8 O26 2.305901 1_555
Mg9 O25 2.036254 1_556
Mg9 O10 2.126745 1_655
Mg9 O14 2.136468 1_555
Mg9 O16 2.153578 1_565
Mg9 O18 2.175898 1_555
Mg9 O26 2.305901 1_555
Mg10 O7 2.134812 1_555
Mg10 O11 2.135362 1_555
Mg10 O27 2.142486 1_555
Mg10 O21 2.150453 1_555
Mg10 O19 2.154358 1_555
Mg10 O28 2.190192 1_555
Mg11 O8 2.134812 1_555
Mg11 O12 2.135362 1_555
Mg11 O27 2.142486 1_556
Mg11 O22 2.150453 1_555
Mg11 O20 2.154358 1_555
Mg11 O28 2.190192 1_555
Mg12 O9 2.134812 1_555
Mg12 O13 2.135362 1_555
Mg12 O29 2.142486 1_555
Mg12 O21 2.150453 1_555
Mg12 O19 2.154358 1_565
Mg12 O30 2.190192 1_555
Mg13 O10 2.134812 1_555
Mg13 O14 2.135362 1_555
Mg13 O29 2.142486 1_556
Mg13 O22 2.150453 1_555
Mg13 O20 2.154358 1_565
Mg13 O30 2.190192 1_555
Mg14 O19 2.101048 1_555
Mg14 O0 2.119716 1_555
Mg14 O7 2.178527 1_555
Mg14 O9 2.178527 1_545
Mg14 O15 2.188702 1_455
Mg15 O20 2.101048 1_555
Mg15 O0 2.119716 1_555
Mg15 O8 2.178527 1_555
Mg15 O10 2.178527 1_545
Mg15 O16 2.188702 1_455
Mg16 O9 2.124748 1_555
Mg16 O7 2.124748 1_555
Mg16 O17 2.127770 1_455
Mg16 O21 2.140858 1_555
Mg16 O2 2.155639 1_555
Mg16 O1 2.176945 1_555
Mg17 O10 2.124748 1_555
Mg17 O8 2.124748 1_555
Mg17 O18 2.127770 1_455
Mg17 O22 2.140858 1_555
Mg17 O2 2.155639 1_555
Mg17 O1 2.176945 1_556
Mg18 O3 2.034166 1_555
Mg18 O15 2.127723 1_555
Mg18 O19 2.129260 1_555
Mg18 O13 2.142470 1_545
Mg18 O11 2.142470 1_555
Mg18 O4 2.304609 1_555
Mg19 O3 2.034166 1_556
Mg19 O16 2.127723 1_555
Mg19 O20 2.129260 1_555
Mg19 O14 2.142470 1_545
Mg19 O12 2.142470 1_555
Mg19 O4 2.304609 1_555
Mg20 O17 2.117918 1_555
Mg20 O21 2.132803 1_555
Mg20 O5 2.137918 1_555
Mg20 O13 2.165558 1_555
Mg20 O11 2.165558 1_555
Mg20 O6 2.194982 1_555
Mg21 O18 2.117918 1_555
Mg21 O22 2.132803 1_555
Mg21 O5 2.137918 1_556
Mg21 O12 2.165558 1_555
Mg21 O14 2.165558 1_555
Mg21 O6 2.194982 1_555
Mg22 O1 2.052246 1_555
Mg22 O23 2.125375 1_455
Mg22 O27 2.153932 1_555
Mg22 O7 2.223227 1_555
Mg22 O8 2.223227 1_554
Mg23 O2 2.077406 1_555
Mg23 O28 2.094778 1_555
Mg23 O8 2.111567 1_555
Mg23 O7 2.111567 1_555
Mg23 O24 2.181847 1_455
Mg23 O0 2.226779 1_555
Mg24 O1 2.052246 1_555
Mg24 O25 2.125375 1_455
Mg24 O29 2.153932 1_555
Mg24 O9 2.223227 1_555
Mg24 O10 2.223227 1_554
Mg25 O2 2.077406 1_555
Mg25 O30 2.094778 1_555
Mg25 O10 2.111567 1_555
Mg25 O9 2.111567 1_555
Mg25 O26 2.181847 1_455
Mg25 O0 2.226779 1_565
Mg26 O23 2.090486 1_555
Mg26 O3 2.116626 1_555
Mg26 O27 2.162606 1_555
Mg26 O12 2.176000 1_554
Mg26 O11 2.176000 1_555
Mg26 O5 2.195543 1_555
Mg27 O28 2.081652 1_555
Mg27 O6 2.094439 1_555
Mg27 O12 2.158347 1_555
Mg27 O11 2.158347 1_555
Mg27 O24 2.166567 1_555
Mg27 O4 2.209376 1_555
Mg28 O25 2.090486 1_555
Mg28 O3 2.116626 1_565
Mg28 O29 2.162606 1_555
Mg28 O13 2.176000 1_555
Mg28 O14 2.176000 1_554
Mg28 O5 2.195543 1_555
Mg29 O30 2.081652 1_555
Mg29 O6 2.094439 1_555
Mg29 O13 2.158347 1_555
Mg29 O14 2.158347 1_555
Mg29 O26 2.166567 1_555
Mg29 O4 2.209376 1_565
B0 Mg15 2.233157 1_554
B0 Mg14 2.233157 1_555
B0 Mg22 2.263281 1_555
B0 Mg24 2.263281 1_545
B0 Mg2 2.352095 1_555
