# generated using pymatgen
data_Nd(MnCo2)4
_symmetry_space_group_name_H-M   'P 1'
_cell_length_a   4.53716900
_cell_length_b   6.39541803
_cell_length_c   6.39541803
_cell_angle_alpha   82.77151034
_cell_angle_beta   69.22369299
_cell_angle_gamma   69.22369299
_symmetry_Int_Tables_number   1
_chemical_formula_structural   Nd(MnCo2)4
_chemical_formula_sum   'Nd1 Mn4 Co8'
_cell_volume   162.22599591
_cell_formula_units_Z   1
loop_
 _symmetry_equiv_pos_site_id
 _symmetry_equiv_pos_as_xyz
  1  'x, y, z'
loop_
 _atom_site_type_symbol
 _atom_site_label
 _atom_site_symmetry_multiplicity
 _atom_site_fract_x
 _atom_site_fract_y
 _atom_site_fract_z
 _atom_site_occupancy
  Nd  Nd0  1  0.00000000  0.00000000  0.00000000  1
  Mn  Mn0  1  0.00000000  0.00000000  0.50000000  1
  Mn  Mn1  1  0.50000000  0.00000000  0.50000000  1
  Mn  Mn2  1  0.50000000  0.50000000  0.00000000  1
  Mn  Mn3  1  0.00000000  0.50000000  0.00000000  1
  Co  Co0  1  0.00000000  0.36082800  0.63917200  1
  Co  Co1  1  0.00000000  0.63917200  0.36082800  1
  Co  Co2  1  0.63917200  0.36082800  0.36082800  1
  Co  Co3  1  0.36082800  0.63917200  0.63917200  1
  Co  Co4  1  0.50000000  0.76806700  0.23193300  1
  Co  Co5  1  0.50000000  0.23193300  0.76806700  1
  Co  Co6  1  0.73193300  0.76806700  0.76806700  1
  Co  Co7  1  0.26806700  0.23193300  0.23193300  1
loop_
_geom_bond_atom_site_label_1
_geom_bond_atom_site_label_2
_geom_bond_distance
_geom_bond_site_symmetry_2
Mn0 Mn1 2.268585 1_555
Mn0 Mn1 2.268585 1_455
Mn0 Nd0 3.197709 1_556
Mn0 Nd0 3.197709 1_555
Mn1 Nd0 3.197709 1_655
Mn1 Nd0 3.197709 1_556
Mn2 Mn3 2.268585 1_555
Mn2 Mn3 2.268585 1_655
Mn2 Nd0 3.197709 1_565
Mn2 Nd0 3.197709 1_655
Mn3 Nd0 3.197709 1_565
Mn3 Nd0 3.197709 1_555
Co0 Co1 2.353773 1_555
Co0 Co5 2.516850 1_555
Co0 Co5 2.516850 1_455
Co0 Co6 2.554163 1_455
Co0 Co7 2.554163 1_555
Co0 Mn1 2.575718 1_555
Co0 Mn2 2.575718 1_456
Co0 Mn0 2.575718 1_555
Co0 Mn3 2.575718 1_556
Co0 Co2 2.813645 1_555
Co0 Co3 2.813645 1_455
Co0 Co3 2.813645 1_555
Co0 Co2 2.813645 1_455
Co0 Nd0 3.051286 1_556
Co1 Co4 2.516850 1_555
Co1 Co4 2.516850 1_455
Co1 Co6 2.554163 1_455
Co1 Co7 2.554163 1_555
Co1 Mn2 2.575718 1_555
Co1 Mn1 2.575718 1_465
Co1 Mn3 2.575718 1_555
Co1 Mn0 2.575718 1_565
Co1 Co2 2.813645 1_555
Co1 Co3 2.813645 1_455
Co1 Co3 2.813645 1_555
Co1 Co2 2.813645 1_455
Co1 Nd0 3.051286 1_565
Co2 Co3 2.353773 1_555
Co2 Co7 2.516850 1_655
Co2 Co7 2.516850 1_555
Co2 Co4 2.554163 1_555
Co2 Co5 2.554163 1_555
Co2 Mn0 2.575718 1_655
Co2 Mn3 2.575718 1_655
Co2 Mn1 2.575718 1_555
Co2 Mn2 2.575718 1_555
Co2 Nd0 3.051286 1_655
Co3 Co6 2.516850 1_455
Co3 Co6 2.516850 1_555
Co3 Co4 2.554163 1_555
Co3 Co5 2.554163 1_555
Co3 Mn3 2.575718 1_556
Co3 Mn0 2.575718 1_565
Co3 Mn1 2.575718 1_565
Co3 Mn2 2.575718 1_556
Co3 Nd0 3.051286 1_566
Co4 Mn3 2.404022 1_655
Co4 Mn0 2.404022 1_565
Co4 Mn2 2.404022 1_555
Co4 Mn1 2.404022 1_565
Co4 Co7 2.773705 1_565
Co4 Co6 2.773705 1_554
Co4 Nd0 2.998866 1_565
Co4 Nd0 2.998866 1_665
Co5 Mn0 2.404022 1_655
Co5 Mn3 2.404022 1_556
Co5 Mn1 2.404022 1_555
Co5 Mn2 2.404022 1_556
Co5 Co6 2.773705 1_545
Co5 Co7 2.773705 1_556
Co5 Nd0 2.998866 1_556
Co5 Nd0 2.998866 1_656
Co6 Mn3 2.404022 1_656
Co6 Mn0 2.404022 1_665
Co6 Mn2 2.404022 1_556
Co6 Mn1 2.404022 1_565
Co6 Nd0 2.998866 1_566
Co6 Nd0 2.998866 1_666
Co7 Mn0 2.404022 1_555
Co7 Mn3 2.404022 1_555
Co7 Mn2 2.404022 1_555
Co7 Mn1 2.404022 1_555
Co7 Nd0 2.998866 1_655
Co7 Nd0 2.998866 1_555
