# generated using pymatgen
data_CeMg6W
_symmetry_space_group_name_H-M   'P 1'
_cell_length_a   5.16943700
_cell_length_b   5.79083700
_cell_length_c   11.80588800
_cell_angle_alpha   90.00000000
_cell_angle_beta   90.00000000
_cell_angle_gamma   90.00000000
_symmetry_Int_Tables_number   1
_chemical_formula_structural   CeMg6W
_chemical_formula_sum   'Ce2 Mg12 W2'
_cell_volume   353.41359062
_cell_formula_units_Z   2
loop_
 _symmetry_equiv_pos_site_id
 _symmetry_equiv_pos_as_xyz
  1  'x, y, z'
loop_
 _atom_site_type_symbol
 _atom_site_label
 _atom_site_symmetry_multiplicity
 _atom_site_fract_x
 _atom_site_fract_y
 _atom_site_fract_z
 _atom_site_occupancy
  Ce  Ce0  1  0.50000000  0.00000000  0.17762400  1
  Ce  Ce1  1  0.50000000  0.50000000  0.67762400  1
  Mg  Mg0  1  0.50000000  0.25014100  0.42572200  1
  Mg  Mg1  1  0.50000000  0.74985900  0.42572200  1
  Mg  Mg2  1  0.00000000  0.73985200  0.08162600  1
  Mg  Mg3  1  0.00000000  0.26014800  0.08162600  1
  Mg  Mg4  1  0.00000000  0.00000000  0.33630400  1
  Mg  Mg5  1  0.00000000  0.50000000  0.30310500  1
  Mg  Mg6  1  0.50000000  0.75014100  0.92572200  1
  Mg  Mg7  1  0.50000000  0.24985900  0.92572200  1
  Mg  Mg8  1  0.00000000  0.23985200  0.58162600  1
  Mg  Mg9  1  0.00000000  0.76014800  0.58162600  1
  Mg  Mg10  1  0.00000000  0.50000000  0.83630400  1
  Mg  Mg11  1  0.00000000  0.00000000  0.80310500  1
  W  W0  1  0.50000000  0.50000000  0.16826900  1
  W  W1  1  0.50000000  0.00000000  0.66826900  1
loop_
_geom_bond_atom_site_label_1
_geom_bond_atom_site_label_2
_geom_bond_distance
_geom_bond_site_symmetry_2
Ce0 W0 2.897524 1_545
Ce0 W0 2.897524 1_555
Ce0 Mg4 3.192216 1_555
Ce0 Mg4 3.192216 1_655
Ce0 Mg0 3.267624 1_555
Ce0 Mg1 3.267624 1_545
Ce0 Mg6 3.307225 1_544
Ce0 Mg7 3.307225 1_554
Ce1 W1 2.897524 1_565
Ce1 W1 2.897524 1_555
Ce1 Mg10 3.192216 1_655
Ce1 Mg10 3.192216 1_555
Ce1 Mg7 3.267624 1_555
Ce1 Mg6 3.267624 1_555
Ce1 Mg1 3.307225 1_555
Ce1 Mg0 3.307225 1_555
Mg0 Mg1 2.893785 1_555
Mg0 Mg1 2.897052 1_545
Mg0 Mg4 3.145380 1_555
Mg0 Mg4 3.145380 1_655
Mg0 Mg8 3.173653 1_555
Mg0 Mg8 3.173653 1_655
Mg0 W1 3.209012 1_555
Mg0 Mg5 3.296941 1_555
Mg0 Mg5 3.296941 1_655
Mg0 W0 3.366277 1_555
Mg1 Mg4 3.145380 1_665
Mg1 Mg4 3.145380 1_565
Mg1 Mg9 3.173653 1_555
Mg1 Mg9 3.173653 1_655
Mg1 W1 3.209012 1_565
Mg1 Mg5 3.296941 1_555
Mg1 Mg5 3.296941 1_655
Mg1 W0 3.366277 1_555
Mg2 W0 3.107451 1_455
Mg2 W0 3.107451 1_555
Mg2 Mg6 3.173653 1_554
Mg2 Mg6 3.173653 1_454
Mg2 Mg4 3.362991 1_565
Mg3 W0 3.107451 1_455
Mg3 W0 3.107451 1_555
Mg3 Mg7 3.173653 1_454
Mg3 Mg7 3.173653 1_554
Mg3 Mg4 3.362991 1_555
Mg4 Mg5 2.921826 1_555
Mg4 Mg5 2.921826 1_545
Mg4 Mg8 3.212070 1_555
Mg4 Mg9 3.212070 1_545
Mg5 W0 3.035586 1_455
Mg5 W0 3.035586 1_555
Mg6 Mg7 2.893785 1_565
Mg6 Mg7 2.897052 1_555
Mg6 W0 3.209012 1_556
Mg6 W1 3.366277 1_565
Mg7 W0 3.209012 1_556
Mg7 W1 3.366277 1_555
Mg8 W1 3.107451 1_555
Mg8 W1 3.107451 1_455
Mg9 W1 3.107451 1_565
Mg9 W1 3.107451 1_465
Mg10 Mg11 2.921826 1_555
Mg10 Mg11 2.921826 1_565
Mg10 Mg7 3.145380 1_555
Mg10 Mg7 3.145380 1_455
Mg10 Mg6 3.145380 1_455
Mg10 Mg6 3.145380 1_555
Mg10 Mg2 3.212070 1_556
Mg10 Mg3 3.212070 1_556
Mg10 Mg9 3.362991 1_555
Mg10 Mg8 3.362991 1_555
Mg11 W1 3.035586 1_555
Mg11 W1 3.035586 1_455
Mg11 Mg6 3.296941 1_445
Mg11 Mg6 3.296941 1_545
Mg11 Mg7 3.296941 1_555
Mg11 Mg7 3.296941 1_455
