# generated using pymatgen
data_Na2Nd2B2O7
_symmetry_space_group_name_H-M   'P 1'
_cell_length_a   6.49235400
_cell_length_b   10.57917600
_cell_length_c   10.91425281
_cell_angle_alpha   62.22403660
_cell_angle_beta   90.00000000
_cell_angle_gamma   90.00000000
_symmetry_Int_Tables_number   1
_chemical_formula_structural   Na2Nd2B2O7
_chemical_formula_sum   'Na8 Nd8 B8 O28'
_cell_volume   663.25670580
_cell_formula_units_Z   4
loop_
 _symmetry_equiv_pos_site_id
 _symmetry_equiv_pos_as_xyz
  1  'x, y, z'
loop_
 _atom_site_type_symbol
 _atom_site_label
 _atom_site_symmetry_multiplicity
 _atom_site_fract_x
 _atom_site_fract_y
 _atom_site_fract_z
 _atom_site_occupancy
  Na  Na0  1  0.26342400  0.95413200  0.10889200  1
  Na  Na1  1  0.73657600  0.04586800  0.89110800  1
  Na  Na2  1  0.76342400  0.54586800  0.89110800  1
  Na  Na3  1  0.23657600  0.45413200  0.10889200  1
  Na  Na4  1  0.94260200  0.73756100  0.02261200  1
  Na  Na5  1  0.05739800  0.26243900  0.97738800  1
  Na  Na6  1  0.44260200  0.76243900  0.97738800  1
  Na  Na7  1  0.55739800  0.23756100  0.02261200  1
  Nd  Nd0  1  0.95981500  0.67959300  0.51865500  1
  Nd  Nd1  1  0.04018500  0.32040700  0.48134500  1
  Nd  Nd2  1  0.45981500  0.82040700  0.48134500  1
  Nd  Nd3  1  0.54018500  0.17959300  0.51865500  1
  Nd  Nd4  1  0.58235700  0.59000500  0.31311600  1
  Nd  Nd5  1  0.41764300  0.40999500  0.68688400  1
  Nd  Nd6  1  0.08235700  0.90999500  0.68688400  1
  Nd  Nd7  1  0.91764300  0.09000500  0.31311600  1
  B  B0  1  0.74861500  0.92103300  0.18065500  1
  B  B1  1  0.25138500  0.07896700  0.81934500  1
  B  B2  1  0.24861500  0.57896700  0.81934500  1
  B  B3  1  0.75138500  0.42103300  0.18065500  1
  B  B4  1  0.65280200  0.84975500  0.71066400  1
  B  B5  1  0.34719800  0.15024500  0.28933600  1
  B  B6  1  0.15280200  0.65024500  0.28933600  1
  B  B7  1  0.84719800  0.34975500  0.71066400  1
  O  O0  1  0.75560700  0.77260900  0.65362600  1
  O  O1  1  0.24439300  0.22739100  0.34637400  1
  O  O2  1  0.25560700  0.72739100  0.34637400  1
  O  O3  1  0.74439300  0.27260900  0.65362600  1
  O  O4  1  0.96363800  0.58860000  0.34735700  1
  O  O5  1  0.03636200  0.41140000  0.65264300  1
  O  O6  1  0.46363800  0.91140000  0.65264300  1
  O  O7  1  0.53636200  0.08860000  0.34735700  1
  O  O8  1  0.65026900  0.84284000  0.12612700  1
  O  O9  1  0.34973100  0.15716000  0.87387300  1
  O  O10  1  0.15026900  0.65716000  0.87387300  1
  O  O11  1  0.84973100  0.34284000  0.12612700  1
  O  O12  1  0.62286200  0.59718000  0.52693500  1
  O  O13  1  0.37713800  0.40282000  0.47306500  1
  O  O14  1  0.12286200  0.90282000  0.47306500  1
  O  O15  1  0.87713800  0.09718000  0.52693500  1
  O  O16  1  0.76202800  0.86662700  0.32636800  1
  O  O17  1  0.23797200  0.13337300  0.67363200  1
  O  O18  1  0.26202800  0.63337300  0.67363200  1
  O  O19  1  0.73797200  0.36662700  0.32636800  1
  O  O20  1  0.24135900  0.63631200  0.18257500  1
  O  O21  1  0.75864100  0.36368800  0.81742500  1
  O  O22  1  0.74135900  0.86368800  0.81742500  1
  O  O23  1  0.25864100  0.13631200  0.18257500  1
  O  O24  1  0.66526000  0.55436200  0.10092500  1
  O  O25  1  0.33474000  0.44563800  0.89907500  1
  O  O26  1  0.16526000  0.94563800  0.89907500  1
  O  O27  1  0.83474000  0.05436200  0.10092500  1
loop_
_geom_bond_atom_site_label_1
_geom_bond_atom_site_label_2
_geom_bond_distance
_geom_bond_site_symmetry_2
Na0 O23 2.409735 1_565
Na0 O26 2.418702 1_554
Na0 O9 2.524262 1_564
Na0 O2 2.584543 1_555
Na0 O8 2.742807 1_555
Na0 O27 2.965130 1_465
Na1 O22 2.409735 1_545
Na1 O27 2.418702 1_556
Na1 O8 2.524262 1_546
Na1 O3 2.584543 1_555
Na1 O9 2.742807 1_555
Na1 O26 2.965130 1_645
Na2 O21 2.409735 1_555
Na2 O24 2.418702 1_556
Na2 O11 2.524262 1_556
Na2 O0 2.584543 1_555
Na2 O10 2.742807 1_655
Na2 O25 2.965130 1_555
Na3 O20 2.409735 1_555
Na3 O25 2.418702 1_554
Na3 O10 2.524262 1_554
Na3 O1 2.584543 1_555
Na3 O11 2.742807 1_455
Na3 O24 2.965130 1_555
Na4 O22 2.391149 1_554
Na4 O26 2.446834 1_654
Na4 O24 2.486964 1_555
Na4 O20 2.492918 1_655
Na4 O10 2.542351 1_654
Na4 O8 2.700338 1_555
Na5 O23 2.391149 1_556
Na5 O27 2.446834 1_456
Na5 O25 2.486964 1_555
Na5 O21 2.492918 1_455
Na5 O11 2.542351 1_456
Na5 O9 2.700338 1_555
Na6 O20 2.391149 1_556
Na6 O24 2.446834 1_556
Na6 O26 2.486964 1_555
Na6 O22 2.492918 1_555
Na6 O8 2.542351 1_556
Na6 O10 2.700338 1_555
Na7 O21 2.391149 1_554
Na7 O25 2.446834 1_554
Na7 O27 2.486964 1_555
Na7 O23 2.492918 1_555
Na7 O9 2.542351 1_554
Na7 O11 2.700338 1_555
Nd0 O12 2.341057 1_555
Nd0 O14 2.418655 1_655
Nd0 O16 2.469440 1_555
Nd0 O4 2.469826 1_555
Nd0 O18 2.485759 1_655
Nd0 O0 2.499429 1_555
Nd0 O5 2.562898 1_655
Nd0 O2 2.567683 1_655
Nd1 O13 2.341057 1_555
Nd1 O15 2.418655 1_455
Nd1 O17 2.469440 1_555
Nd1 O5 2.469826 1_555
Nd1 O19 2.485759 1_455
Nd1 O1 2.499429 1_555
Nd1 O4 2.562898 1_455
Nd1 O3 2.567683 1_455
Nd2 O14 2.341057 1_555
Nd2 O12 2.418655 1_555
Nd2 O18 2.469440 1_555
Nd2 O6 2.469826 1_555
Nd2 O16 2.485759 1_555
Nd2 O2 2.499429 1_555
Nd2 O7 2.562898 1_565
Nd2 O0 2.567683 1_555
Nd3 O15 2.341057 1_555
Nd3 O13 2.418655 1_555
Nd3 O19 2.469440 1_555
Nd3 O7 2.469826 1_555
Nd3 O17 2.485759 1_555
Nd3 O3 2.499429 1_555
Nd3 O6 2.562898 1_545
Nd3 O1 2.567683 1_555
Nd4 O13 2.349923 1_555
Nd4 O12 2.384545 1_555
Nd4 O4 2.502472 1_555
Nd4 O19 2.511489 1_555
Nd4 O8 2.534983 1_555
Nd4 O20 2.553557 1_555
Nd4 O24 2.570839 1_555
Nd4 O2 2.690014 1_555
Nd5 O12 2.349923 1_555
Nd5 O13 2.384545 1_555
Nd5 O5 2.502472 1_555
Nd5 O18 2.511489 1_555
Nd5 O9 2.534983 1_555
Nd5 O21 2.553557 1_555
Nd5 O25 2.570839 1_555
Nd5 O3 2.690014 1_555
Nd6 O15 2.349923 1_465
Nd6 O14 2.384545 1_555
Nd6 O6 2.502472 1_555
Nd6 O17 2.511489 1_565
Nd6 O10 2.534983 1_555
Nd6 O22 2.553557 1_455
Nd6 O26 2.570839 1_555
Nd6 O0 2.690014 1_455
Nd7 O14 2.349923 1_645
Nd7 O15 2.384545 1_555
Nd7 O7 2.502472 1_555
Nd7 O16 2.511489 1_545
Nd7 O11 2.534983 1_555
Nd7 O23 2.553557 1_655
Nd7 O27 2.570839 1_555
Nd7 O1 2.690014 1_655
B0 O8 1.380215 1_555
B0 O27 1.383994 1_565
B0 O16 1.419483 1_555
B1 O9 1.380215 1_555
B1 O26 1.383994 1_545
B1 O17 1.419483 1_555
B2 O10 1.380215 1_555
B2 O25 1.383994 1_555
B2 O18 1.419483 1_555
B3 O11 1.380215 1_555
B3 O24 1.383994 1_555
B3 O19 1.419483 1_555
B4 O22 1.367514 1_555
B4 O6 1.396311 1_555
B4 O0 1.404510 1_555
B5 O23 1.367514 1_555
B5 O7 1.396311 1_555
B5 O1 1.404510 1_555
B6 O20 1.367514 1_555
B6 O4 1.396311 1_455
B6 O2 1.404510 1_555
B7 O21 1.367514 1_555
B7 O5 1.396311 1_655
B7 O3 1.404510 1_555
