# generated using pymatgen
data_Zr3Co8Si
_symmetry_space_group_name_H-M   'P 1'
_cell_length_a   8.25587429
_cell_length_b   8.25587429
_cell_length_c   8.25587358
_cell_angle_alpha   34.19268322
_cell_angle_beta   34.19268322
_cell_angle_gamma   34.19268155
_symmetry_Int_Tables_number   1
_chemical_formula_structural   Zr3Co8Si
_chemical_formula_sum   'Zr3 Co8 Si1'
_cell_volume   158.46306061
_cell_formula_units_Z   1
loop_
 _symmetry_equiv_pos_site_id
 _symmetry_equiv_pos_as_xyz
  1  'x, y, z'
loop_
 _atom_site_type_symbol
 _atom_site_label
 _atom_site_symmetry_multiplicity
 _atom_site_fract_x
 _atom_site_fract_y
 _atom_site_fract_z
 _atom_site_occupancy
  Zr  Zr0  1  0.62255100  0.62255100  0.62255100  1
  Zr  Zr1  1  0.00948400  0.00948400  0.00948400  1
  Zr  Zr2  1  0.49408400  0.49408400  0.49408400  1
  Co  Co0  1  0.56220000  0.06072700  0.56220000  1
  Co  Co1  1  0.06020300  0.56031300  0.06020300  1
  Co  Co2  1  0.06072700  0.56220000  0.56220000  1
  Co  Co3  1  0.56031300  0.06020300  0.06020300  1
  Co  Co4  1  0.80979500  0.80979500  0.80979500  1
  Co  Co5  1  0.31028800  0.31028800  0.31028800  1
  Co  Co6  1  0.56220000  0.56220000  0.06072700  1
  Co  Co7  1  0.06020300  0.06020300  0.56031300  1
  Si  Si0  1  0.13795100  0.13795100  0.13795100  1
loop_
_geom_bond_atom_site_label_1
_geom_bond_atom_site_label_2
_geom_bond_distance
_geom_bond_site_symmetry_2
Co0 Co4 2.355826 1_545
Co0 Co2 2.419906 1_645
Co0 Co6 2.419906 1_546
Co0 Co5 2.423600 1_555
Co0 Co2 2.434206 1_555
Co0 Co6 2.434206 1_555
Co0 Zr2 2.701679 1_555
Co0 Zr1 2.714947 1_655
Co0 Zr1 2.714947 1_556
Co0 Zr0 2.833750 1_545
Co0 Si0 3.007578 1_556
Co0 Si0 3.007578 1_655
Co1 Co5 2.395382 1_555
Co1 Co4 2.402516 1_454
Co1 Co3 2.426522 1_465
Co1 Co7 2.426522 1_564
Co1 Co3 2.427590 1_555
Co1 Co7 2.427590 1_555
Co1 Si0 2.501837 1_555
Co1 Zr0 2.828061 1_455
Co1 Zr0 2.828061 1_554
Co1 Zr2 2.875061 1_554
Co1 Zr2 2.875061 1_455
Co1 Zr1 3.042151 1_565
Co2 Co4 2.355826 1_455
Co2 Co6 2.419906 1_456
Co2 Co5 2.423600 1_555
Co2 Co6 2.434206 1_555
Co2 Zr2 2.701679 1_555
Co2 Zr1 2.714947 1_565
Co2 Zr1 2.714947 1_556
Co2 Zr0 2.833750 1_455
Co2 Si0 3.007578 1_556
Co2 Si0 3.007578 1_565
Co3 Co5 2.395382 1_555
Co3 Co4 2.402516 1_544
Co3 Co7 2.426522 1_654
Co3 Co7 2.427590 1_555
Co3 Si0 2.501837 1_555
Co3 Zr0 2.828061 1_545
Co3 Zr0 2.828061 1_554
Co3 Zr2 2.875061 1_554
Co3 Zr2 2.875061 1_545
Co3 Zr1 3.042151 1_655
Co4 Co6 2.355826 1_556
Co4 Co7 2.402516 1_665
Co4 Si0 2.805117 1_665
Co4 Si0 2.805117 1_566
Co4 Si0 2.805117 1_656
Co4 Zr2 2.832434 1_556
Co4 Zr2 2.832434 1_565
Co4 Zr2 2.832434 1_655
Co5 Co7 2.395382 1_555
Co5 Co6 2.423601 1_555
Co5 Zr0 2.845187 1_554
Co5 Zr0 2.845188 1_455
Co5 Zr0 2.845188 1_545
Co5 Zr1 2.903179 1_556
Co5 Zr1 2.903179 1_565
Co5 Zr1 2.903179 1_655
Co6 Zr2 2.701679 1_555
Co6 Zr1 2.714947 1_655
Co6 Zr1 2.714947 1_565
Co6 Zr0 2.833750 1_554
Co6 Si0 3.007578 1_565
Co6 Si0 3.007578 1_655
Co7 Si0 2.501837 1_555
Co7 Zr0 2.828061 1_545
Co7 Zr0 2.828061 1_455
Co7 Zr2 2.875061 1_545
Co7 Zr2 2.875061 1_455
Co7 Zr1 3.042151 1_556
Si0 Zr2 2.852414 1_545
Si0 Zr2 2.852414 1_455
Si0 Zr2 2.852415 1_554
Si0 Zr1 2.992889 1_555
