# generated using pymatgen
data_HfMg6Zn
_symmetry_space_group_name_H-M   'P 1'
_cell_length_a   4.97551000
_cell_length_b   6.09032500
_cell_length_c   11.18388300
_cell_angle_alpha   90.00000000
_cell_angle_beta   90.00000000
_cell_angle_gamma   90.00000000
_symmetry_Int_Tables_number   1
_chemical_formula_structural   HfMg6Zn
_chemical_formula_sum   'Hf2 Mg12 Zn2'
_cell_volume   338.89931198
_cell_formula_units_Z   2
loop_
 _symmetry_equiv_pos_site_id
 _symmetry_equiv_pos_as_xyz
  1  'x, y, z'
loop_
 _atom_site_type_symbol
 _atom_site_label
 _atom_site_symmetry_multiplicity
 _atom_site_fract_x
 _atom_site_fract_y
 _atom_site_fract_z
 _atom_site_occupancy
  Hf  Hf0  1  0.50000000  0.50000000  0.17269400  1
  Hf  Hf1  1  0.50000000  0.00000000  0.67269400  1
  Mg  Mg0  1  0.50000000  0.25106900  0.42094700  1
  Mg  Mg1  1  0.50000000  0.74893100  0.42094700  1
  Mg  Mg2  1  0.00000000  0.74887300  0.08311100  1
  Mg  Mg3  1  0.00000000  0.25112700  0.08311100  1
  Mg  Mg4  1  0.00000000  0.00000000  0.32534100  1
  Mg  Mg5  1  0.00000000  0.50000000  0.33020300  1
  Mg  Mg6  1  0.50000000  0.75106900  0.92094700  1
  Mg  Mg7  1  0.50000000  0.24893100  0.92094700  1
  Mg  Mg8  1  0.00000000  0.24887300  0.58311100  1
  Mg  Mg9  1  0.00000000  0.75112700  0.58311100  1
  Mg  Mg10  1  0.00000000  0.50000000  0.82534100  1
  Mg  Mg11  1  0.00000000  0.00000000  0.83020300  1
  Zn  Zn0  1  0.50000000  0.00000000  0.16364200  1
  Zn  Zn1  1  0.50000000  0.50000000  0.66364200  1
loop_
_geom_bond_atom_site_label_1
_geom_bond_atom_site_label_2
_geom_bond_distance
_geom_bond_site_symmetry_2
Hf0 Zn0 3.046845 1_555
Hf0 Zn0 3.046845 1_565
Hf0 Mg5 3.048283 1_555
Hf0 Mg5 3.048283 1_655
Hf0 Mg3 3.080601 1_655
Hf0 Mg3 3.080601 1_555
Hf0 Mg2 3.080601 1_655
Hf0 Mg2 3.080601 1_555
Hf0 Mg0 3.163392 1_555
Hf0 Mg1 3.163392 1_555
Hf0 Mg7 3.203937 1_554
Hf0 Mg6 3.203937 1_554
Hf1 Zn1 3.046845 1_545
Hf1 Zn1 3.046845 1_555
Hf1 Mg11 3.048283 1_655
Hf1 Mg11 3.048283 1_555
Hf1 Mg8 3.080601 1_555
Hf1 Mg8 3.080601 1_655
Hf1 Mg9 3.080601 1_545
Hf1 Mg9 3.080601 1_645
Hf1 Mg6 3.163392 1_545
Hf1 Mg7 3.163392 1_555
Hf1 Mg0 3.203937 1_555
Hf1 Mg1 3.203937 1_545
Mg0 Mg1 3.032141 1_555
Mg0 Mg1 3.058184 1_545
Mg0 Mg8 3.078690 1_555
Mg0 Mg8 3.078690 1_655
Mg0 Mg5 3.085021 1_555
Mg0 Mg5 3.085021 1_655
Mg0 Zn1 3.108978 1_555
Mg0 Mg4 3.109716 1_655
Mg0 Mg4 3.109716 1_555
Mg0 Zn0 3.258696 1_555
Mg1 Mg9 3.078690 1_655
Mg1 Mg9 3.078690 1_555
Mg1 Mg5 3.085021 1_555
Mg1 Mg5 3.085021 1_655
Mg1 Zn1 3.108978 1_555
Mg1 Mg4 3.109716 1_665
Mg1 Mg4 3.109716 1_565
Mg1 Zn0 3.258696 1_565
Mg2 Mg3 3.031435 1_555
Mg2 Zn0 3.056026 1_565
Mg2 Zn0 3.056026 1_465
Mg2 Mg3 3.058890 1_565
Mg2 Mg6 3.078690 1_554
Mg2 Mg6 3.078690 1_454
Mg2 Mg4 3.110992 1_565
Mg2 Mg5 3.151832 1_555
Mg3 Zn0 3.056026 1_455
Mg3 Zn0 3.056026 1_555
Mg3 Mg7 3.078690 1_454
Mg3 Mg7 3.078690 1_554
Mg3 Mg4 3.110992 1_555
Mg3 Mg5 3.151832 1_555
Mg4 Mg5 3.045648 1_545
Mg4 Mg5 3.045648 1_555
Mg4 Zn0 3.075600 1_455
Mg4 Zn0 3.075600 1_555
Mg4 Mg8 3.257044 1_555
Mg4 Mg9 3.257044 1_545
Mg5 Mg9 3.215521 1_555
Mg5 Mg8 3.215521 1_555
Mg6 Mg7 3.032141 1_565
Mg6 Mg7 3.058184 1_555
Mg6 Zn0 3.108978 1_566
Mg6 Zn1 3.258696 1_555
Mg7 Zn0 3.108978 1_556
Mg7 Zn1 3.258696 1_555
Mg8 Mg9 3.031435 1_545
Mg8 Zn1 3.056026 1_455
Mg8 Zn1 3.056026 1_555
Mg8 Mg9 3.058890 1_555
Mg9 Zn1 3.056026 1_455
Mg9 Zn1 3.056026 1_555
Mg10 Mg11 3.045648 1_565
Mg10 Mg11 3.045648 1_555
Mg10 Zn1 3.075600 1_455
Mg10 Zn1 3.075600 1_555
Mg10 Mg6 3.109716 1_455
Mg10 Mg6 3.109716 1_555
Mg10 Mg7 3.109716 1_555
Mg10 Mg7 3.109716 1_455
Mg10 Mg8 3.110992 1_555
Mg10 Mg9 3.110992 1_555
Mg10 Mg2 3.257044 1_556
Mg10 Mg3 3.257044 1_556
Mg11 Mg6 3.085021 1_445
Mg11 Mg6 3.085021 1_545
Mg11 Mg7 3.085021 1_455
Mg11 Mg7 3.085021 1_555
Mg11 Mg8 3.151832 1_555
Mg11 Mg9 3.151832 1_545
Mg11 Mg3 3.215521 1_556
Mg11 Mg2 3.215521 1_546
