# generated using pymatgen
data_LiAu
_symmetry_space_group_name_H-M   'P 1'
_cell_length_a   9.18688888
_cell_length_b   9.18688888
_cell_length_c   9.18688846
_cell_angle_alpha   37.53373504
_cell_angle_beta   37.53373504
_cell_angle_gamma   37.53374090
_symmetry_Int_Tables_number   1
_chemical_formula_structural   LiAu
_chemical_formula_sum   'Li8 Au8'
_cell_volume   258.10719288
_cell_formula_units_Z   8
loop_
 _symmetry_equiv_pos_site_id
 _symmetry_equiv_pos_as_xyz
  1  'x, y, z'
loop_
 _atom_site_type_symbol
 _atom_site_label
 _atom_site_symmetry_multiplicity
 _atom_site_fract_x
 _atom_site_fract_y
 _atom_site_fract_z
 _atom_site_occupancy
  Li  Li0_0  1  0.25000000  0.25000000  0.25000000  1
  Li  Li0_1  1  0.25000000  0.25000000  0.75000000  1
  Li  Li0_2  1  0.25000000  0.75000000  0.25000000  1
  Li  Li0_3  1  0.25000000  0.75000000  0.75000000  1
  Li  Li0_4  1  0.75000000  0.25000000  0.25000000  1
  Li  Li0_5  1  0.75000000  0.25000000  0.75000000  1
  Li  Li0_6  1  0.75000000  0.75000000  0.25000000  1
  Li  Li0_7  1  0.75000000  0.75000000  0.75000000  1
  Au  Au0_0  1  0.00000000  0.00000000  0.00000000  1
  Au  Au0_1  1  0.00000000  0.00000000  0.50000000  1
  Au  Au0_2  1  0.00000000  0.50000000  0.00000000  1
  Au  Au0_3  1  0.00000000  0.50000000  0.50000000  1
  Au  Au0_4  1  0.50000000  0.00000000  0.00000000  1
  Au  Au0_5  1  0.50000000  0.00000000  0.50000000  1
  Au  Au0_6  1  0.50000000  0.50000000  0.00000000  1
  Au  Au0_7  1  0.50000000  0.50000000  0.50000000  1
loop_
_geom_bond_atom_site_label_1
_geom_bond_atom_site_label_2
_geom_bond_distance
_geom_bond_site_symmetry_2
Li0_0 Li0_3 2.955589 1_554
Li0_0 Li0_5 2.955589 1_554
Li0_0 Li0_5 2.955589 1_455
Li0_0 Li0_3 2.955589 1_545
Li0_0 Li0_6 2.955590 1_455
Li0_0 Li0_6 2.955590 1_545
Li0_1 Li0_4 2.955589 1_555
Li0_1 Li0_2 2.955589 1_555
Li0_1 Li0_4 2.955589 1_456
Li0_1 Li0_2 2.955589 1_546
Li0_1 Li0_7 2.955590 1_455
Li0_1 Li0_7 2.955590 1_545
Li0_2 Li0_7 2.955589 1_554
Li0_2 Li0_7 2.955589 1_455
Li0_2 Li0_4 2.955590 1_555
Li0_2 Li0_4 2.955590 1_465
Li0_3 Li0_6 2.955589 1_456
Li0_3 Li0_6 2.955589 1_555
Li0_3 Li0_5 2.955590 1_555
Li0_3 Li0_5 2.955590 1_465
Li0_4 Li0_7 2.955589 1_545
Li0_4 Li0_7 2.955589 1_554
Li0_5 Li0_6 2.955589 1_546
Li0_5 Li0_6 2.955589 1_555
Au0_0 Li0_1 2.731082 1_554
Au0_0 Li0_6 2.731082 1_445
Au0_0 Li0_4 2.731082 1_455
Au0_0 Li0_2 2.731082 1_545
Au0_0 Li0_3 2.731082 1_544
Au0_0 Li0_5 2.731082 1_454
Au0_0 Au0_3 2.955589 1_554
Au0_0 Au0_5 2.955589 1_455
Au0_0 Au0_5 2.955589 1_554
Au0_0 Au0_3 2.955589 1_545
Au0_0 Au0_6 2.955590 1_455
Au0_0 Au0_6 2.955590 1_545
Au0_1 Li0_0 2.731082 1_555
Au0_1 Li0_7 2.731082 1_445
Au0_1 Li0_3 2.731082 1_545
Au0_1 Li0_5 2.731082 1_455
Au0_1 Li0_2 2.731082 1_545
Au0_1 Li0_4 2.731082 1_455
Au0_1 Au0_2 2.955589 1_555
Au0_1 Au0_4 2.955589 1_456
Au0_1 Au0_2 2.955589 1_546
Au0_1 Au0_4 2.955589 1_555
Au0_1 Au0_7 2.955590 1_545
Au0_1 Au0_7 2.955590 1_455
Au0_2 Li0_3 2.731082 1_554
Au0_2 Li0_4 2.731082 1_455
Au0_2 Li0_0 2.731082 1_555
Au0_2 Li0_6 2.731082 1_455
Au0_2 Li0_1 2.731082 1_554
Au0_2 Li0_7 2.731082 1_454
Au0_2 Au0_7 2.955589 1_455
Au0_2 Au0_7 2.955589 1_554
Au0_2 Au0_4 2.955590 1_555
Au0_2 Au0_4 2.955590 1_465
Au0_3 Li0_2 2.731082 1_555
Au0_3 Li0_5 2.731082 1_455
Au0_3 Li0_7 2.731082 1_455
Au0_3 Li0_1 2.731082 1_555
Au0_3 Li0_0 2.731082 1_555
Au0_3 Li0_6 2.731082 1_455
Au0_3 Au0_6 2.955589 1_456
Au0_3 Au0_6 2.955589 1_555
Au0_3 Au0_5 2.955590 1_555
Au0_3 Au0_5 2.955590 1_465
Au0_4 Li0_5 2.731082 1_554
Au0_4 Li0_2 2.731082 1_545
Au0_4 Li0_6 2.731082 1_545
Au0_4 Li0_0 2.731082 1_555
Au0_4 Li0_1 2.731082 1_554
Au0_4 Li0_7 2.731082 1_544
Au0_4 Au0_7 2.955589 1_554
Au0_4 Au0_7 2.955589 1_545
Au0_5 Li0_4 2.731082 1_555
Au0_5 Li0_3 2.731082 1_545
Au0_5 Li0_7 2.731082 1_545
Au0_5 Li0_1 2.731082 1_555
Au0_5 Li0_6 2.731082 1_545
Au0_5 Li0_0 2.731082 1_555
Au0_5 Au0_6 2.955589 1_546
Au0_5 Au0_6 2.955589 1_555
Au0_6 Li0_7 2.731082 1_554
Au0_6 Li0_0 2.731082 1_555
Au0_6 Li0_2 2.731082 1_555
Au0_6 Li0_4 2.731082 1_555
Au0_6 Li0_5 2.731082 1_554
Au0_6 Li0_3 2.731082 1_554
Au0_7 Li0_6 2.731082 1_555
Au0_7 Li0_1 2.731082 1_555
Au0_7 Li0_3 2.731082 1_555
Au0_7 Li0_5 2.731082 1_555
Au0_7 Li0_4 2.731082 1_555
Au0_7 Li0_2 2.731082 1_555
