# generated using pymatgen
data_Ca(NiO2)2
_symmetry_space_group_name_H-M   'P 1'
_cell_length_a   6.11938712
_cell_length_b   6.11938712
_cell_length_c   6.06743271
_cell_angle_alpha   60.41140004
_cell_angle_beta   60.41140004
_cell_angle_gamma   59.57986605
_symmetry_Int_Tables_number   1
_chemical_formula_structural   Ca(NiO2)2
_chemical_formula_sum   'Ca2 Ni4 O8'
_cell_volume   161.12536698
_cell_formula_units_Z   2
loop_
 _symmetry_equiv_pos_site_id
 _symmetry_equiv_pos_as_xyz
  1  'x, y, z'
loop_
 _atom_site_type_symbol
 _atom_site_label
 _atom_site_symmetry_multiplicity
 _atom_site_fract_x
 _atom_site_fract_y
 _atom_site_fract_z
 _atom_site_occupancy
  Ca  Ca0  1  0.87596300  0.87596300  0.87568500  1
  Ca  Ca1  1  0.12403700  0.12403700  0.12431500  1
  Ni  Ni0  1  0.00000000  0.50000000  0.50000000  1
  Ni  Ni1  1  0.50000000  0.00000000  0.50000000  1
  Ni  Ni2  1  0.50000000  0.50000000  0.00000000  1
  Ni  Ni3  1  0.50000000  0.50000000  0.50000000  1
  O  O0  1  0.27137900  0.68642800  0.26053400  1
  O  O1  1  0.28102200  0.28102200  0.69197200  1
  O  O2  1  0.25617500  0.25617500  0.29334800  1
  O  O3  1  0.31357200  0.72862100  0.73946600  1
  O  O4  1  0.74382500  0.74382500  0.70665200  1
  O  O5  1  0.71897800  0.71897800  0.30802800  1
  O  O6  1  0.68642800  0.27137900  0.26053400  1
  O  O7  1  0.72862100  0.31357200  0.73946600  1
loop_
_geom_bond_atom_site_label_1
_geom_bond_atom_site_label_2
_geom_bond_distance
_geom_bond_site_symmetry_2
Ca0 O4 2.158607 1_555
Ca0 O5 2.164328 1_556
Ca0 O7 2.184563 1_565
Ca0 O3 2.184563 1_655
Ca1 O2 2.158607 1_555
Ca1 O1 2.164328 1_554
Ca1 O6 2.184563 1_455
Ca1 O0 2.184563 1_545
Ni0 O4 1.947723 1_455
Ni0 O2 1.947723 1_555
Ni0 O0 2.017230 1_555
Ni0 O7 2.017230 1_455
Ni0 O1 2.052502 1_555
Ni0 O5 2.052502 1_455
Ni1 O4 1.947723 1_545
Ni1 O2 1.947723 1_555
Ni1 O6 2.017230 1_555
Ni1 O3 2.017230 1_545
Ni1 O1 2.052502 1_555
Ni1 O5 2.052502 1_545
Ni2 O6 1.933457 1_555
Ni2 O0 1.933457 1_555
Ni2 O3 1.933457 1_554
Ni2 O7 1.933457 1_554
Ni2 O4 2.151679 1_554
Ni2 O2 2.151679 1_555
Ni3 O5 1.919278 1_555
Ni3 O1 1.919278 1_555
Ni3 O3 2.030761 1_555
Ni3 O7 2.030761 1_555
Ni3 O6 2.030761 1_555
Ni3 O0 2.030761 1_555
