# generated using pymatgen
data_Cs2CoI4
_symmetry_space_group_name_H-M   'P 1'
_cell_length_a   8.36564600
_cell_length_b   11.13107200
_cell_length_c   14.64496000
_cell_angle_alpha   90.00000000
_cell_angle_beta   90.00000000
_cell_angle_gamma   90.00000000
_symmetry_Int_Tables_number   1
_chemical_formula_structural   Cs2CoI4
_chemical_formula_sum   'Cs8 Co4 I16'
_cell_volume   1363.71828872
_cell_formula_units_Z   4
loop_
 _symmetry_equiv_pos_site_id
 _symmetry_equiv_pos_as_xyz
  1  'x, y, z'
loop_
 _atom_site_type_symbol
 _atom_site_label
 _atom_site_symmetry_multiplicity
 _atom_site_fract_x
 _atom_site_fract_y
 _atom_site_fract_z
 _atom_site_occupancy
  Cs  Cs0  1  0.25000000  0.52280400  0.33647000  1
  Cs  Cs1  1  0.25000000  0.02280400  0.16353000  1
  Cs  Cs2  1  0.75000000  0.47719600  0.66353000  1
  Cs  Cs3  1  0.75000000  0.97719600  0.83647000  1
  Cs  Cs4  1  0.25000000  0.86836600  0.60197800  1
  Cs  Cs5  1  0.25000000  0.36836600  0.89802200  1
  Cs  Cs6  1  0.75000000  0.13163400  0.39802200  1
  Cs  Cs7  1  0.75000000  0.63163400  0.10197800  1
  Co  Co0  1  0.25000000  0.26118100  0.57757100  1
  Co  Co1  1  0.25000000  0.76118100  0.92242900  1
  Co  Co2  1  0.75000000  0.73881900  0.42242900  1
  Co  Co3  1  0.75000000  0.23881900  0.07757100  1
  I  I0  1  0.25000000  0.49220000  0.60248900  1
  I  I1  1  0.25000000  0.99220000  0.89751100  1
  I  I2  1  0.75000000  0.50780000  0.39751100  1
  I  I3  1  0.75000000  0.00780000  0.10248900  1
  I  I4  1  0.25000000  0.18846700  0.40929900  1
  I  I5  1  0.25000000  0.68846700  0.09070100  1
  I  I6  1  0.75000000  0.81153300  0.59070100  1
  I  I7  1  0.75000000  0.31153300  0.90929900  1
  I  I8  1  0.50335700  0.17135700  0.65111100  1
  I  I9  1  0.99664300  0.67135700  0.84888900  1
  I  I10  1  0.00335700  0.82864300  0.34888900  1
  I  I11  1  0.49664300  0.32864300  0.15111100  1
  I  I12  1  0.49664300  0.82864300  0.34888900  1
  I  I13  1  0.00335700  0.32864300  0.15111100  1
  I  I14  1  0.99664300  0.17135700  0.65111100  1
  I  I15  1  0.50335700  0.67135700  0.84888900  1
loop_
_geom_bond_atom_site_label_1
_geom_bond_atom_site_label_2
_geom_bond_distance
_geom_bond_site_symmetry_2
Cs0 I4 3.871352 1_555
Cs0 I0 3.910703 1_555
Cs0 I12 3.984943 1_555
Cs0 I10 3.984943 1_555
Cs0 I11 4.036968 1_555
Cs0 I13 4.036968 1_555
Cs0 I5 4.044151 1_555
Cs0 I2 4.280541 1_455
Cs0 I2 4.280541 1_555
Cs1 I5 3.871352 1_545
Cs1 I1 3.910703 1_544
Cs1 I11 3.984943 1_555
Cs1 I13 3.984943 1_555
Cs1 I12 4.036968 1_545
Cs1 I10 4.036968 1_545
Cs1 I4 4.044151 1_555
Cs1 I3 4.280541 1_555
Cs1 I3 4.280541 1_455
Cs2 I6 3.871352 1_555
Cs2 I2 3.910703 1_555
Cs2 I8 3.984943 1_555
Cs2 I14 3.984943 1_555
Cs2 I15 4.036968 1_555
Cs2 I9 4.036968 1_555
Cs2 I7 4.044151 1_555
Cs2 I0 4.280541 1_655
Cs2 I0 4.280541 1_555
Cs3 I7 3.871352 1_565
Cs3 I3 3.910703 1_566
Cs3 I9 3.984943 1_555
Cs3 I15 3.984943 1_555
Cs3 I8 4.036968 1_565
Cs3 I14 4.036968 1_565
Cs3 I6 4.044151 1_555
Cs3 I1 4.280541 1_655
Cs3 I1 4.280541 1_555
Cs4 I14 4.047782 1_465
Cs4 I8 4.047782 1_565
Cs4 I0 4.187138 1_555
Cs4 I6 4.233613 1_455
Cs4 I6 4.233613 1_555
Cs4 I10 4.265068 1_555
Cs4 I12 4.265068 1_555
Cs5 I9 4.047782 1_455
Cs5 I15 4.047782 1_555
Cs5 I1 4.187138 1_545
Cs5 I7 4.233613 1_455
Cs5 I7 4.233613 1_555
Cs5 I13 4.265068 1_556
Cs5 I11 4.265068 1_556
Cs6 I12 4.047782 1_545
Cs6 I10 4.047782 1_645
Cs6 I2 4.187138 1_555
Cs6 I4 4.233613 1_655
Cs6 I4 4.233613 1_555
Cs6 I8 4.265068 1_555
Cs6 I14 4.265068 1_555
Cs7 I13 4.047782 1_655
Cs7 I11 4.047782 1_555
Cs7 I3 4.187138 1_565
Cs7 I5 4.233613 1_555
Cs7 I5 4.233613 1_655
Cs7 I15 4.265068 1_554
Cs7 I9 4.265068 1_554
Co0 I8 2.579117 1_555
Co0 I14 2.579117 1_455
Co0 I4 2.593850 1_555
Co0 I0 2.597253 1_555
Co1 I9 2.579117 1_455
Co1 I15 2.579117 1_555
Co1 I5 2.593850 1_556
Co1 I1 2.597253 1_555
Co2 I12 2.579117 1_555
Co2 I10 2.579117 1_655
Co2 I6 2.593850 1_555
Co2 I2 2.597253 1_555
Co3 I11 2.579117 1_555
Co3 I13 2.579117 1_655
Co3 I7 2.593850 1_554
Co3 I3 2.597253 1_555
