# generated using pymatgen
data_Tm2Be2GeO7
_symmetry_space_group_name_H-M   'P 1'
_cell_length_a   7.37474800
_cell_length_b   7.37474800
_cell_length_c   4.78514000
_cell_angle_alpha   90.00000000
_cell_angle_beta   90.00000000
_cell_angle_gamma   90.00000000
_symmetry_Int_Tables_number   1
_chemical_formula_structural   Tm2Be2GeO7
_chemical_formula_sum   'Tm4 Be4 Ge2 O14'
_cell_volume   260.24896925
_cell_formula_units_Z   2
loop_
 _symmetry_equiv_pos_site_id
 _symmetry_equiv_pos_as_xyz
  1  'x, y, z'
loop_
 _atom_site_type_symbol
 _atom_site_label
 _atom_site_symmetry_multiplicity
 _atom_site_fract_x
 _atom_site_fract_y
 _atom_site_fract_z
 _atom_site_occupancy
  Tm  Tm0  1  0.15763700  0.34236300  0.50701500  1
  Tm  Tm1  1  0.84236300  0.65763700  0.50701500  1
  Tm  Tm2  1  0.65763700  0.15763700  0.49298500  1
  Tm  Tm3  1  0.34236300  0.84236300  0.49298500  1
  Be  Be0  1  0.63557800  0.86442200  0.94964300  1
  Be  Be1  1  0.36442200  0.13557800  0.94964300  1
  Be  Be2  1  0.13557800  0.63557800  0.05035700  1
  Be  Be3  1  0.86442200  0.36442200  0.05035700  1
  Ge  Ge0  1  0.00000000  0.00000000  0.00000000  1
  Ge  Ge1  1  0.50000000  0.50000000  0.00000000  1
  O  O0  1  0.00000000  0.50000000  0.19391600  1
  O  O1  1  0.50000000  0.00000000  0.80608400  1
  O  O2  1  0.64226000  0.85774000  0.28172500  1
  O  O3  1  0.35774000  0.14226000  0.28172500  1
  O  O4  1  0.14226000  0.64226000  0.71827500  1
  O  O5  1  0.85774000  0.35774000  0.71827500  1
  O  O6  1  0.08273800  0.82885700  0.22182600  1
  O  O7  1  0.91726200  0.17114300  0.22182600  1
  O  O8  1  0.17114300  0.08273800  0.77817400  1
  O  O9  1  0.41726200  0.32885700  0.77817400  1
  O  O10  1  0.82885700  0.91726200  0.77817400  1
  O  O11  1  0.58273800  0.67114300  0.77817400  1
  O  O12  1  0.32885700  0.58273800  0.22182600  1
  O  O13  1  0.67114300  0.41726200  0.22182600  1
loop_
_geom_bond_atom_site_label_1
_geom_bond_atom_site_label_2
_geom_bond_distance
_geom_bond_site_symmetry_2
Be0 O1 1.572042 1_565
Be0 O2 1.590586 1_556
Be0 O10 1.690206 1_555
Be0 O11 1.690206 1_555
Be1 O1 1.572042 1_555
Be1 O3 1.590586 1_556
Be1 O8 1.690206 1_555
Be1 O9 1.690206 1_555
Be2 O0 1.572042 1_555
Be2 O4 1.590586 1_554
Be2 O12 1.690206 1_555
Be2 O6 1.690206 1_555
Be3 O0 1.572042 1_655
Be3 O5 1.590586 1_554
Be3 O7 1.690206 1_555
Be3 O13 1.690206 1_555
Ge0 O6 1.758412 1_545
Ge0 O8 1.758412 1_554
Ge0 O7 1.758412 1_455
Ge0 O10 1.758412 1_444
Ge1 O13 1.758412 1_555
Ge1 O11 1.758412 1_554
Ge1 O12 1.758412 1_555
Ge1 O9 1.758412 1_554
O0 Tm1 2.224329 1_455
O0 Tm0 2.224329 1_555
O1 Tm2 2.224329 1_555
O1 Tm3 2.224329 1_545
O2 Tm1 2.348960 1_555
O2 Tm2 2.434391 1_565
O2 Tm3 2.434391 1_555
O3 Tm0 2.348960 1_555
O3 Tm2 2.434391 1_555
O3 Tm3 2.434391 1_545
O4 Tm3 2.348960 1_555
O4 Tm1 2.434391 1_455
O4 Tm0 2.434391 1_555
O5 Tm2 2.348960 1_555
O5 Tm1 2.434391 1_555
O5 Tm0 2.434391 1_655
O6 Tm3 2.315053 1_555
O6 Tm1 2.568896 1_455
O7 Tm2 2.315053 1_555
O7 Tm0 2.568896 1_655
O8 Tm0 2.315053 1_555
O8 Tm3 2.568896 1_545
O9 Tm0 2.315053 1_555
O9 Tm2 2.568896 1_555
O10 Tm1 2.315053 1_555
O10 Tm2 2.568896 1_565
O11 Tm1 2.315053 1_555
O11 Tm3 2.568896 1_555
O12 Tm3 2.315053 1_555
O12 Tm0 2.568896 1_555
O13 Tm2 2.315053 1_555
O13 Tm1 2.568896 1_555
