# generated using pymatgen
data_RbGa7
_symmetry_space_group_name_H-M   'P 1'
_cell_length_a   10.21594020
_cell_length_b   10.21594058
_cell_length_c   10.21594012
_cell_angle_alpha   37.84809680
_cell_angle_beta   37.84809905
_cell_angle_gamma   37.84809272
_symmetry_Int_Tables_number   1
_chemical_formula_structural   RbGa7
_chemical_formula_sum   'Rb2 Ga14'
_cell_volume   360.20272682
_cell_formula_units_Z   2
loop_
 _symmetry_equiv_pos_site_id
 _symmetry_equiv_pos_as_xyz
  1  'x, y, z'
loop_
 _atom_site_type_symbol
 _atom_site_label
 _atom_site_symmetry_multiplicity
 _atom_site_fract_x
 _atom_site_fract_y
 _atom_site_fract_z
 _atom_site_occupancy
  Rb  Rb0  1  0.19538159  0.19538159  0.19538159  1
  Rb  Rb1  1  0.80461841  0.80461841  0.80461841  1
  Ga  Ga0  1  0.45547478  0.45547478  0.45547478  1
  Ga  Ga1  1  0.54452522  0.54452522  0.54452522  1
  Ga  Ga2  1  0.18182774  0.58030271  0.18182774  1
  Ga  Ga3  1  0.18182774  0.18182774  0.58030271  1
  Ga  Ga4  1  0.58030271  0.18182774  0.18182774  1
  Ga  Ga5  1  0.41969729  0.81817226  0.81817226  1
  Ga  Ga6  1  0.81817226  0.41969729  0.81817226  1
  Ga  Ga7  1  0.81817226  0.81817226  0.41969729  1
  Ga  Ga8  1  0.21600095  0.79849612  0.21600095  1
  Ga  Ga9  1  0.21600095  0.21600095  0.79849612  1
  Ga  Ga10  1  0.79849612  0.21600095  0.21600095  1
  Ga  Ga11  1  0.20150388  0.78399905  0.78399905  1
  Ga  Ga12  1  0.78399905  0.20150388  0.78399905  1
  Ga  Ga13  1  0.78399905  0.78399905  0.20150388  1
loop_
_geom_bond_atom_site_label_1
_geom_bond_atom_site_label_2
_geom_bond_distance
_geom_bond_site_symmetry_2
Ga0 Ga1 2.530605 1_555
Ga0 Ga8 2.573694 1_555
Ga0 Ga10 2.573695 1_555
Ga0 Ga9 2.573695 1_555
Ga0 Rb1 3.852019 1_545
Ga0 Rb1 3.852020 1_455
Ga0 Rb1 3.852020 1_554
Ga1 Ga12 2.573694 1_555
Ga1 Ga11 2.573695 1_555
Ga1 Ga13 2.573695 1_555
Ga1 Rb0 3.852019 1_565
Ga1 Rb0 3.852020 1_655
Ga1 Rb0 3.852020 1_556
Ga2 Ga7 2.534382 1_455
Ga2 Ga5 2.534382 1_554
Ga2 Ga4 2.640436 1_555
Ga2 Ga3 2.640437 1_555
Ga2 Ga8 2.804079 1_555
Ga2 Rb0 3.716456 1_555
Ga3 Ga5 2.534382 1_545
Ga3 Ga6 2.534382 1_455
Ga3 Ga4 2.640437 1_555
Ga3 Ga9 2.804079 1_555
Ga3 Rb0 3.716456 1_555
Ga4 Ga7 2.534382 1_545
Ga4 Ga6 2.534382 1_554
Ga4 Rb0 3.716456 1_555
Ga5 Ga9 2.627216 1_565
Ga5 Ga8 2.627216 1_556
Ga5 Ga6 2.640436 1_555
Ga5 Ga7 2.640437 1_555
Ga5 Rb1 3.716456 1_555
Ga6 Ga9 2.627216 1_655
Ga6 Ga7 2.640437 1_555
Ga6 Rb1 3.716456 1_555
Ga7 Ga8 2.627216 1_655
Ga7 Rb1 3.716456 1_555
Ga8 Ga9 2.766535 1_564
Ga8 Rb0 3.728352 1_565
Ga8 Rb1 3.754123 1_455
Ga8 Rb1 3.754123 1_554
Ga9 Rb0 3.728352 1_556
Ga9 Rb1 3.754122 1_545
Ga9 Rb1 3.754122 1_455
Ga10 Ga6 2.627216 1_554
Ga10 Ga7 2.627217 1_545
Ga10 Ga8 2.766535 1_645
Ga10 Ga9 2.766535 1_654
Ga10 Ga4 2.804079 1_555
Ga10 Rb0 3.728352 1_655
Ga10 Rb1 3.754122 1_545
Ga10 Rb1 3.754123 1_554
Ga11 Ga2 2.627216 1_556
Ga11 Ga3 2.627217 1_565
Ga11 Ga12 2.766535 1_465
Ga11 Ga13 2.766535 1_456
Ga11 Ga5 2.804079 1_555
Ga11 Rb1 3.728352 1_455
Ga11 Rb0 3.754122 1_565
Ga11 Rb0 3.754123 1_556
Ga12 Ga4 2.627216 1_556
Ga12 Ga3 2.627216 1_655
Ga12 Ga13 2.766535 1_546
Ga12 Ga6 2.804079 1_555
Ga12 Rb1 3.728352 1_545
Ga12 Rb0 3.754123 1_655
Ga12 Rb0 3.754123 1_556
Ga13 Ga2 2.627216 1_655
Ga13 Ga4 2.627216 1_565
Ga13 Ga7 2.804079 1_555
Ga13 Rb1 3.728352 1_554
Ga13 Rb0 3.754122 1_565
Ga13 Rb0 3.754122 1_655
