# generated using pymatgen
data_Mo3C8Se13N2
_symmetry_space_group_name_H-M   'P 1'
_cell_length_a   11.02827144
_cell_length_b   11.02827144
_cell_length_c   6.70568361
_cell_angle_alpha   86.44512791
_cell_angle_beta   86.44512791
_cell_angle_gamma   121.50851109
_symmetry_Int_Tables_number   1
_chemical_formula_structural   Mo3C8Se13N2
_chemical_formula_sum   'Mo3 C8 Se13 N2'
_cell_volume   689.69666145
_cell_formula_units_Z   1
loop_
 _symmetry_equiv_pos_site_id
 _symmetry_equiv_pos_as_xyz
  1  'x, y, z'
loop_
 _atom_site_type_symbol
 _atom_site_label
 _atom_site_symmetry_multiplicity
 _atom_site_fract_x
 _atom_site_fract_y
 _atom_site_fract_z
 _atom_site_occupancy
  Mo  Mo0  1  0.99765600  0.14195100  0.53450300  1
  Mo  Mo1  1  0.84341100  0.84341100  0.56200000  1
  Mo  Mo2  1  0.14195100  0.99765600  0.53450300  1
  C  C0  1  0.36380100  0.73461400  0.86530400  1
  C  C1  1  0.73461400  0.36380100  0.86530400  1
  C  C2  1  0.22409900  0.60367100  0.96887100  1
  C  C3  1  0.35714900  0.60936800  0.04128300  1
  C  C4  1  0.46537100  0.68982900  0.87200000  1
  C  C5  1  0.60367100  0.22409900  0.96887100  1
  C  C6  1  0.68982900  0.46537100  0.87200000  1
  C  C7  1  0.60936800  0.35714900  0.04128300  1
  Se  Se0  1  0.71644400  0.98782900  0.60584400  1
  Se  Se1  1  0.98782900  0.71644400  0.60584400  1
  Se  Se2  1  0.27730400  0.27730400  0.55073100  1
  Se  Se3  1  0.82010900  0.99971800  0.28743500  1
  Se  Se4  1  0.99971800  0.82010900  0.28743500  1
  Se  Se5  1  0.19064600  0.19064600  0.25177800  1
  Se  Se6  1  0.00478800  0.37583600  0.39938500  1
  Se  Se7  1  0.61997800  0.61997800  0.45091000  1
  Se  Se8  1  0.37583600  0.00478800  0.39938500  1
  Se  Se9  1  0.99583100  0.33628800  0.73645700  1
  Se  Se10  1  0.61493200  0.61493200  0.79829900  1
  Se  Se11  1  0.33628800  0.99583100  0.73645700  1
  Se  Se12  1  0.98537400  0.98537400  0.83743700  1
  N  N0  1  0.32355500  0.72044900  0.08739300  1
  N  N1  1  0.72044900  0.32355500  0.08739300  1
loop_
_geom_bond_atom_site_label_1
_geom_bond_atom_site_label_2
_geom_bond_distance
_geom_bond_site_symmetry_2
Mo0 Se12 2.532393 1_545
Mo0 Se3 2.559970 1_545
Mo0 Se5 2.567338 1_655
Mo0 Se9 2.613295 1_555
Mo0 Se0 2.634615 1_545
Mo0 Se6 2.639972 1_655
Mo0 Se2 2.645973 1_655
Mo1 Se12 2.543379 1_555
Mo1 Se4 2.560363 1_555
Mo1 Se3 2.560363 1_555
Mo1 Se7 2.609047 1_555
Mo1 Se1 2.630922 1_555
Mo1 Se0 2.630922 1_555
Mo1 Se10 2.753594 1_555
Mo2 Se12 2.532393 1_455
Mo2 Se4 2.559970 1_455
Mo2 Se5 2.567338 1_565
Mo2 Se11 2.613295 1_555
Mo2 Se1 2.634615 1_455
Mo2 Se8 2.639972 1_565
Mo2 Se2 2.645973 1_565
C0 C4 1.443063 1_555
C0 N0 1.501998 1_556
C0 C2 1.535825 1_555
C0 C3 1.728290 1_556
C1 C6 1.443063 1_555
C1 N1 1.501998 1_556
C1 C5 1.535825 1_555
C1 C7 1.728290 1_556
C2 N0 1.500609 1_556
C2 C3 1.545480 1_556
C3 C4 1.449318 1_554
C3 N0 1.496904 1_555
C4 Se10 2.240665 1_555
C5 N1 1.500609 1_556
C5 C7 1.545480 1_556
C6 C7 1.449318 1_556
C6 Se10 2.240665 1_555
C7 N1 1.496904 1_555
Se0 Se3 2.321415 1_555
Se1 Se4 2.321415 1_555
Se2 Se5 2.316449 1_555
Se6 Se9 2.261406 1_455
Se10 Se7 2.323206 1_555
Se11 Se8 2.261406 1_565
