# generated using pymatgen
data_CeSb2
_symmetry_space_group_name_H-M   'P 1'
_cell_length_a   4.42047855
_cell_length_b   4.42047855
_cell_length_c   18.20375191
_cell_angle_alpha   90.00000000
_cell_angle_beta   90.00000000
_cell_angle_gamma   91.15484241
_symmetry_Int_Tables_number   1
_chemical_formula_structural   CeSb2
_chemical_formula_sum   'Ce4 Sb8'
_cell_volume   355.64053938
_cell_formula_units_Z   4
loop_
 _symmetry_equiv_pos_site_id
 _symmetry_equiv_pos_as_xyz
  1  'x, y, z'
loop_
 _atom_site_type_symbol
 _atom_site_label
 _atom_site_symmetry_multiplicity
 _atom_site_fract_x
 _atom_site_fract_y
 _atom_site_fract_z
 _atom_site_occupancy
  Ce  Ce0  1  0.36235173  0.36235173  0.88925622  1
  Ce  Ce1  1  0.63764827  0.63764827  0.11074378  1
  Ce  Ce2  1  0.13764827  0.13764827  0.38925622  1
  Ce  Ce3  1  0.86235173  0.86235173  0.61074378  1
  Sb  Sb0  1  0.36667627  0.36667627  0.56418213  1
  Sb  Sb1  1  0.63332373  0.63332373  0.43581787  1
  Sb  Sb2  1  0.13332373  0.13332373  0.06418213  1
  Sb  Sb3  1  0.86667627  0.86667627  0.93581787  1
  Sb  Sb4  1  0.87134706  0.37134706  0.75000000  1
  Sb  Sb5  1  0.62865294  0.12865294  0.25000000  1
  Sb  Sb6  1  0.12865294  0.62865294  0.25000000  1
  Sb  Sb7  1  0.37134706  0.87134706  0.75000000  1
loop_
_geom_bond_atom_site_label_1
_geom_bond_atom_site_label_2
_geom_bond_distance
_geom_bond_site_symmetry_2
Ce0 Sb3 3.182284 1_445
Ce0 Sb3 3.233905 1_555
Ce0 Sb3 3.269001 1_455
Ce0 Sb3 3.269001 1_545
Ce0 Sb7 3.337990 1_545
Ce0 Sb4 3.337990 1_455
Ce0 Sb4 3.389195 1_555
Ce0 Sb7 3.389195 1_555
Ce0 Sb2 3.485464 1_556
Ce1 Sb2 3.182284 1_665
Ce1 Sb2 3.233905 1_555
Ce1 Sb2 3.269001 1_655
Ce1 Sb2 3.269001 1_565
Ce1 Sb6 3.337990 1_655
Ce1 Sb5 3.337990 1_565
Ce1 Sb5 3.389195 1_555
Ce1 Sb6 3.389195 1_555
Ce1 Sb3 3.485464 1_554
Ce2 Sb1 3.182284 1_555
Ce2 Sb1 3.233905 1_445
Ce2 Sb1 3.269001 1_455
Ce2 Sb1 3.269001 1_545
Ce2 Sb5 3.337990 1_555
Ce2 Sb6 3.337990 1_555
Ce2 Sb6 3.389195 1_545
Ce2 Sb5 3.389195 1_455
Ce2 Sb0 3.485464 1_555
Ce3 Sb0 3.182284 1_555
Ce3 Sb0 3.233905 1_665
Ce3 Sb0 3.269001 1_565
Ce3 Sb0 3.269001 1_655
Ce3 Sb4 3.337990 1_555
Ce3 Sb7 3.337990 1_555
Ce3 Sb4 3.389195 1_565
Ce3 Sb7 3.389195 1_655
Ce3 Sb1 3.485464 1_555
Sb0 Sb1 2.860582 1_555
Sb2 Sb3 2.860582 1_444
Sb4 Sb7 3.094091 1_655
Sb4 Sb7 3.094091 1_545
Sb4 Sb7 3.157092 1_645
Sb4 Sb7 3.157092 1_555
Sb5 Sb6 3.094091 1_545
Sb5 Sb6 3.094091 1_655
Sb5 Sb6 3.157092 1_555
Sb5 Sb6 3.157092 1_645
