# generated using pymatgen
data_Hf6Al16Ir7
_symmetry_space_group_name_H-M   'P 1'
_cell_length_a   8.64884914
_cell_length_b   8.64887893
_cell_length_c   8.64894897
_cell_angle_alpha   60.00028713
_cell_angle_beta   60.00017547
_cell_angle_gamma   59.99990261
_symmetry_Int_Tables_number   1
_chemical_formula_structural   Hf6Al16Ir7
_chemical_formula_sum   'Hf6 Al16 Ir7'
_cell_volume   457.47532557
_cell_formula_units_Z   1
loop_
 _symmetry_equiv_pos_site_id
 _symmetry_equiv_pos_as_xyz
  1  'x, y, z'
loop_
 _atom_site_type_symbol
 _atom_site_label
 _atom_site_symmetry_multiplicity
 _atom_site_fract_x
 _atom_site_fract_y
 _atom_site_fract_z
 _atom_site_occupancy
  Hf  Hf0  1  0.68560062  0.31438888  0.31442289  1
  Hf  Hf1  1  0.31440005  0.68561096  0.68557597  1
  Hf  Hf2  1  0.31438210  0.68559292  0.31443107  1
  Hf  Hf3  1  0.68561807  0.31440707  0.68556942  1
  Hf  Hf4  1  0.31439896  0.31441320  0.68557610  1
  Hf  Hf5  1  0.68560102  0.68558690  0.31442386  1
  Al  Al0  1  0.33770936  0.33770837  0.33770675  1
  Al  Al1  1  0.66229048  0.66229169  0.66229328  1
  Al  Al2  1  0.33771239  0.33771184  0.98686440  1
  Al  Al3  1  0.33770953  0.98687548  0.33770673  1
  Al  Al4  1  0.66228731  0.66228844  0.01313573  1
  Al  Al5  1  0.66229041  0.01312480  0.66229310  1
  Al  Al6  1  0.98688015  0.33770736  0.33770547  1
  Al  Al7  1  0.01311972  0.66229268  0.66229468  1
  Al  Al8  1  0.11984430  0.11984911  0.11986000  1
  Al  Al9  1  0.88015563  0.88015099  0.88014025  1
  Al  Al10  1  0.11984995  0.11985442  0.64044174  1
  Al  Al11  1  0.11984454  0.64044643  0.11986021  1
  Al  Al12  1  0.88014996  0.88014573  0.35955804  1
  Al  Al13  1  0.88015536  0.35955342  0.88013997  1
  Al  Al14  1  0.64044819  0.11984702  0.11985827  1
  Al  Al15  1  0.35955134  0.88015308  0.88014196  1
  Ir  Ir0  1  0.50000013  -0.00000002  0.00000007  1
  Ir  Ir1  1  0.00000008  0.49999978  0.50000010  1
  Ir  Ir2  1  0.00000002  0.49999966  0.00000008  1
  Ir  Ir3  1  0.50000013  -0.00000004  0.49999979  1
  Ir  Ir4  1  0.00000015  -0.00000005  0.49999986  1
  Ir  Ir5  1  0.50000039  0.49999953  0.00000012  1
  Ir  Ir6  1  -0.00000035  0.00000035  0.00000009  1
loop_
_geom_bond_atom_site_label_1
_geom_bond_atom_site_label_2
_geom_bond_distance
_geom_bond_site_symmetry_2
Hf0 Ir4 3.157545 1_655
Hf0 Ir3 3.157626 1_555
Hf0 Ir2 3.157757 1_655
Hf0 Ir5 3.157838 1_555
Hf0 Hf3 3.210182 1_555
Hf0 Hf4 3.210285 1_555
Hf0 Hf5 3.210453 1_555
Hf0 Hf2 3.210551 1_555
Hf1 Ir4 3.157543 1_565
Hf1 Ir3 3.157626 1_565
Hf1 Ir2 3.157765 1_556
Hf1 Ir5 3.157847 1_556
Hf1 Hf2 3.210169 1_555
Hf1 Hf5 3.210277 1_555
Hf1 Hf4 3.210449 1_555
Hf1 Hf3 3.210548 1_555
Hf2 Ir1 3.157538 1_555
Hf2 Ir4 3.157543 1_565
Hf2 Ir5 3.157847 1_555
Hf2 Ir0 3.157852 1_565
Hf2 Hf4 3.210165 1_555
Hf2 Hf5 3.210559 1_555
Hf3 Ir1 3.157535 1_655
Hf3 Ir4 3.157547 1_655
Hf3 Ir5 3.157840 1_556
Hf3 Ir0 3.157851 1_556
Hf3 Hf5 3.210168 1_555
Hf3 Hf4 3.210563 1_555
Hf4 Ir1 3.157535 1_555
Hf4 Ir3 3.157627 1_555
Hf4 Ir2 3.157759 1_556
Hf4 Ir0 3.157851 1_556
Hf5 Ir1 3.157537 1_655
Hf5 Ir3 3.157624 1_565
Hf5 Ir2 3.157762 1_655
Hf5 Ir0 3.157848 1_565
Al0 Ir1 2.498440 1_555
Al0 Ir3 2.498442 1_555
Al0 Ir5 2.498450 1_555
Al0 Hf4 2.821596 1_555
Al0 Hf2 2.821711 1_555
Al0 Hf0 2.821756 1_555
Al1 Ir3 2.498441 1_565
Al1 Ir1 2.498442 1_655
Al1 Ir5 2.498452 1_556
Al1 Hf5 2.821596 1_555
Al1 Hf3 2.821708 1_555
Al1 Hf1 2.821754 1_555
Al2 Ir2 2.498431 1_556
Al2 Ir5 2.498432 1_556
Al2 Ir0 2.498436 1_556
Al2 Hf1 2.821827 1_555
Al2 Hf4 2.821832 1_555
Al2 Hf3 2.821873 1_555
Al3 Ir3 2.498439 1_565
Al3 Ir4 2.498440 1_565
Al3 Ir0 2.498450 1_565
Al3 Hf1 2.821599 1_555
Al3 Hf2 2.821719 1_555
Al3 Hf5 2.821760 1_555
Al4 Ir5 2.498433 1_555
Al4 Ir2 2.498434 1_655
Al4 Ir0 2.498434 1_565
Al4 Hf0 2.821825 1_555
Al4 Hf5 2.821831 1_555
Al4 Hf2 2.821872 1_555
Al5 Ir3 2.498441 1_555
Al5 Ir4 2.498442 1_655
Al5 Ir0 2.498452 1_556
Al5 Hf0 2.821602 1_555
Al5 Hf3 2.821721 1_555
Al5 Hf4 2.821759 1_555
Al6 Ir1 2.498443 1_655
Al6 Ir4 2.498447 1_655
Al6 Ir2 2.498454 1_655
Al6 Hf3 2.821556 1_555
Al6 Hf5 2.821669 1_555
Al6 Hf0 2.821675 1_555
Al7 Ir1 2.498445 1_555
Al7 Ir4 2.498447 1_565
Al7 Ir2 2.498454 1_556
Al7 Hf2 2.821555 1_555
Al7 Hf4 2.821669 1_555
Al7 Hf1 2.821675 1_555
Al8 Ir6 2.539088 1_555
Al8 Ir4 2.686466 1_555
Al8 Ir2 2.686511 1_555
Al8 Ir0 2.686535 1_555
Al8 Hf0 3.155979 1_455
Al8 Hf2 3.156073 1_545
Al8 Hf4 3.156277 1_554
Al9 Ir6 2.539087 1_666
Al9 Ir4 2.686470 1_665
Al9 Ir2 2.686517 1_656
Al9 Ir0 2.686533 1_566
Al9 Hf1 3.155986 1_655
Al9 Hf3 3.156072 1_565
Al9 Hf5 3.156275 1_556
Al10 Ir6 2.539152 1_556
Al10 Ir1 2.686475 1_555
Al10 Ir4 2.686479 1_555
Al10 Ir3 2.686496 1_555
Al10 Hf3 3.155907 1_455
Al10 Hf4 3.155983 1_555
Al10 Hf1 3.155994 1_545
Al11 Ir6 2.539093 1_565
Al11 Ir1 2.686466 1_555
Al11 Ir2 2.686516 1_555
Al11 Ir5 2.686536 1_555
Al11 Hf5 3.155978 1_455
Al11 Hf2 3.156064 1_555
Al11 Hf1 3.156280 1_554
Al12 Ir6 2.539149 1_665
Al12 Ir1 2.686479 1_655
Al12 Ir4 2.686480 1_665
Al12 Ir3 2.686493 1_565
Al12 Hf2 3.155910 1_655
Al12 Hf5 3.155982 1_555
Al12 Hf0 3.155990 1_565
Al13 Ir6 2.539087 1_656
Al13 Ir1 2.686466 1_655
Al13 Ir2 2.686513 1_656
Al13 Ir5 2.686529 1_556
Al13 Hf4 3.155979 1_655
Al13 Hf3 3.156059 1_555
Al13 Hf0 3.156271 1_556
Al14 Ir6 2.539064 1_655
Al14 Ir3 2.686478 1_555
Al14 Ir5 2.686525 1_555
Al14 Ir0 2.686529 1_555
Al14 Hf0 3.156086 1_555
Al14 Hf5 3.156095 1_545
Al14 Hf3 3.156308 1_554
Al15 Ir6 2.539066 1_566
Al15 Ir3 2.686482 1_565
Al15 Ir5 2.686532 1_556
Al15 Ir0 2.686533 1_566
Al15 Hf1 3.156092 1_555
Al15 Hf4 3.156096 1_565
Al15 Hf2 3.156311 1_556
