# generated using pymatgen
data_SmAgH4C2SO10
_symmetry_space_group_name_H-M   'P 1'
_cell_length_a   14.20465600
_cell_length_b   6.69623400
_cell_length_c   9.06257768
_cell_angle_alpha   82.38615773
_cell_angle_beta   90.00000000
_cell_angle_gamma   90.00000000
_symmetry_Int_Tables_number   1
_chemical_formula_structural   SmAgH4C2SO10
_chemical_formula_sum   'Sm4 Ag4 H16 C8 S4 O40'
_cell_volume   854.41167538
_cell_formula_units_Z   4
loop_
 _symmetry_equiv_pos_site_id
 _symmetry_equiv_pos_as_xyz
  1  'x, y, z'
loop_
 _atom_site_type_symbol
 _atom_site_label
 _atom_site_symmetry_multiplicity
 _atom_site_fract_x
 _atom_site_fract_y
 _atom_site_fract_z
 _atom_site_occupancy
  Sm  Sm0  1  0.90978200  0.22579500  0.21410300  1
  Sm  Sm1  1  0.40978200  0.77420500  0.28589700  1
  Sm  Sm2  1  0.09021800  0.77420500  0.78589700  1
  Sm  Sm3  1  0.59021800  0.22579500  0.71410300  1
  Ag  Ag0  1  0.74543800  0.71566700  0.22698000  1
  Ag  Ag1  1  0.24543800  0.28433300  0.27302000  1
  Ag  Ag2  1  0.25456200  0.28433300  0.77302000  1
  Ag  Ag3  1  0.75456200  0.71566700  0.72698000  1
  H  H0  1  0.09868900  0.32361700  0.04652900  1
  H  H1  1  0.59868900  0.67638300  0.45347100  1
  H  H2  1  0.90131100  0.67638300  0.95347100  1
  H  H3  1  0.40131100  0.32361700  0.54652900  1
  H  H4  1  0.09771000  0.09043800  0.09841400  1
  H  H5  1  0.59771000  0.90956200  0.40158600  1
  H  H6  1  0.90229000  0.90956200  0.90158600  1
  H  H7  1  0.40229000  0.09043800  0.59841400  1
  H  H8  1  0.02339300  0.20248300  0.52256000  1
  H  H9  1  0.52339300  0.79751700  0.97744000  1
  H  H10  1  0.97660700  0.79751700  0.47744000  1
  H  H11  1  0.47660700  0.20248300  0.02256000  1
  H  H12  1  0.05013300  0.39880000  0.41045100  1
  H  H13  1  0.55013300  0.60120000  0.08954900  1
  H  H14  1  0.94986700  0.60120000  0.58954900  1
  H  H15  1  0.44986700  0.39880000  0.91045100  1
  C  C0  1  0.77825100  0.12333900  0.51689000  1
  C  C1  1  0.27825100  0.87666100  0.98311000  1
  C  C2  1  0.22174900  0.87666100  0.48311000  1
  C  C3  1  0.72174900  0.12333900  0.01689000  1
  C  C4  1  0.76325200  0.35121900  0.47460800  1
  C  C5  1  0.26325200  0.64878100  0.02539200  1
  C  C6  1  0.23674800  0.64878100  0.52539200  1
  C  C7  1  0.73674800  0.35121900  0.97460800  1
  S  S0  1  0.97339700  0.27204800  0.80767500  1
  S  S1  1  0.47339700  0.72795200  0.69232500  1
  S  S2  1  0.02660300  0.72795200  0.19232500  1
  S  S3  1  0.52660300  0.27204800  0.30767500  1
  O  O0  1  0.70593600  0.43924600  0.55061100  1
  O  O1  1  0.20593600  0.56075400  0.94938900  1
  O  O2  1  0.29406400  0.56075400  0.44938900  1
  O  O3  1  0.79406400  0.43924600  0.05061100  1
  O  O4  1  0.83308400  0.03580200  0.43790100  1
  O  O5  1  0.33308400  0.96419800  0.06209900  1
  O  O6  1  0.16691600  0.96419800  0.56209900  1
  O  O7  1  0.66691600  0.03580200  0.93790100  1
  O  O8  1  0.09085600  0.22285900  0.13515900  1
  O  O9  1  0.59085600  0.77714100  0.36484100  1
  O  O10  1  0.90914400  0.77714100  0.86484100  1
  O  O11  1  0.40914400  0.22285900  0.63515900  1
  O  O12  1  0.92732900  0.16628400  0.94523400  1
  O  O13  1  0.42732900  0.83371600  0.55476600  1
  O  O14  1  0.07267100  0.83371600  0.05476600  1
  O  O15  1  0.57267100  0.16628400  0.44523400  1
  O  O16  1  0.03755700  0.43143900  0.85215800  1
  O  O17  1  0.53755700  0.56856100  0.64784200  1
  O  O18  1  0.96244300  0.56856100  0.14784200  1
  O  O19  1  0.46244300  0.43143900  0.35215800  1
  O  O20  1  0.90358200  0.36212800  0.69981300  1
  O  O21  1  0.40358200  0.63787200  0.80018700  1
  O  O22  1  0.09641800  0.63787200  0.30018700  1
  O  O23  1  0.59641800  0.36212800  0.19981300  1
  O  O24  1  0.03186600  0.11910200  0.74129800  1
  O  O25  1  0.53186600  0.88089800  0.75870200  1
  O  O26  1  0.96813400  0.88089800  0.25870200  1
  O  O27  1  0.46813400  0.11910200  0.24129800  1
  O  O28  1  0.01227100  0.27404400  0.42255300  1
  O  O29  1  0.51227100  0.72595600  0.07744700  1
  O  O30  1  0.98772900  0.72595600  0.57744700  1
  O  O31  1  0.48772900  0.27404400  0.92255300  1
  O  O32  1  0.73037100  0.04154500  0.62850300  1
  O  O33  1  0.23037100  0.95845500  0.87149700  1
  O  O34  1  0.26962900  0.95845500  0.37149700  1
  O  O35  1  0.76962900  0.04154500  0.12850300  1
  O  O36  1  0.80897300  0.43160100  0.36140700  1
  O  O37  1  0.30897300  0.56839900  0.13859300  1
  O  O38  1  0.19102700  0.56839900  0.63859300  1
  O  O39  1  0.69102700  0.43160100  0.86140700  1
loop_
_geom_bond_atom_site_label_1
_geom_bond_atom_site_label_2
_geom_bond_distance
_geom_bond_site_symmetry_2
Ag0 O35 2.271628 1_565
Ag0 O36 2.302786 1_555
Ag0 O9 2.586145 1_555
Ag0 O3 2.691087 1_555
Ag1 O34 2.271628 1_545
Ag1 O37 2.302786 1_555
Ag1 O8 2.586145 1_555
Ag1 O2 2.691087 1_555
Ag2 O33 2.271628 1_545
Ag2 O38 2.302786 1_555
Ag2 O11 2.586145 1_555
Ag2 O1 2.691087 1_555
Ag3 O32 2.271628 1_565
Ag3 O39 2.302786 1_555
Ag3 O10 2.586145 1_555
Ag3 O0 2.691087 1_555
H0 O8 0.984453 1_555
H1 O9 0.984453 1_555
H2 O10 0.984453 1_555
H3 O11 0.984453 1_555
H4 O8 0.992418 1_555
H5 O9 0.992418 1_555
H6 O10 0.992418 1_555
H7 O11 0.992418 1_555
H8 O28 0.980262 1_555
H9 O29 0.980262 1_556
H10 O30 0.980262 1_555
H11 O31 0.980262 1_554
H12 O28 0.987361 1_555
H13 O29 0.987361 1_555
H14 O30 0.987361 1_555
H15 O31 0.987361 1_555
C0 O4 1.254543 1_555
C0 O32 1.280186 1_555
C1 O5 1.254543 1_556
C1 O33 1.280186 1_555
C2 O6 1.254543 1_555
C2 O34 1.280186 1_555
C3 O7 1.254543 1_554
C3 O35 1.280186 1_555
C4 O0 1.261866 1_555
C4 O36 1.271863 1_555
C5 O1 1.261866 1_554
C5 O37 1.271863 1_555
C6 O2 1.261866 1_555
C6 O38 1.271863 1_555
C7 O3 1.261866 1_556
C7 O39 1.271863 1_555
O0 Sm3 2.525656 1_555
O1 Sm2 2.525656 1_555
O2 Sm1 2.525656 1_555
O3 Sm0 2.525656 1_555
O4 Sm0 2.497059 1_555
O5 Sm1 2.497059 1_555
O6 Sm2 2.497059 1_555
O7 Sm3 2.497059 1_555
O8 Sm0 2.670511 1_455
O9 Sm1 2.670511 1_555
O10 Sm2 2.670511 1_655
O11 Sm3 2.670511 1_555
O12 S0 1.499980 1_555
O12 Sm0 2.532880 1_556
O13 S1 1.499980 1_555
O13 Sm1 2.532880 1_555
O14 S2 1.499980 1_555
O14 Sm2 2.532880 1_554
O15 S3 1.499980 1_555
O15 Sm3 2.532880 1_555
O16 S0 1.498766 1_455
O16 Sm2 2.413099 1_555
O17 S1 1.498766 1_555
O17 Sm3 2.413099 1_555
O18 S2 1.498766 1_655
O18 Sm0 2.413099 1_555
O19 S3 1.498766 1_555
O19 Sm1 2.413099 1_555
O20 S0 1.465123 1_555
O21 S1 1.465123 1_555
O22 S2 1.465123 1_555
O23 S3 1.465123 1_555
O24 S0 1.504595 1_455
O24 Sm2 2.436569 1_545
O25 S1 1.504595 1_555
O25 Sm3 2.436569 1_565
O26 S2 1.504595 1_655
O26 Sm0 2.436569 1_565
O27 S3 1.504595 1_555
O27 Sm1 2.436569 1_545
O28 Sm0 2.440125 1_455
O29 Sm1 2.440125 1_555
O30 Sm2 2.440125 1_655
O31 Sm3 2.440125 1_555
O32 Sm3 2.518139 1_555
O33 Sm2 2.518139 1_555
O34 Sm1 2.518139 1_555
O35 Sm0 2.518139 1_555
O36 Sm0 2.493862 1_555
O37 Sm1 2.493862 1_555
O38 Sm2 2.493862 1_555
O39 Sm3 2.493862 1_555
