# generated using pymatgen
data_Li9Mn2Co5O16
_symmetry_space_group_name_H-M   'P 1'
_cell_length_a   4.97713900
_cell_length_b   7.77502286
_cell_length_c   7.79989488
_cell_angle_alpha   98.26209985
_cell_angle_beta   101.30078410
_cell_angle_gamma   102.32921972
_symmetry_Int_Tables_number   1
_chemical_formula_structural   Li9Mn2Co5O16
_chemical_formula_sum   'Li9 Mn2 Co5 O16'
_cell_volume   283.68184280
_cell_formula_units_Z   1
loop_
 _symmetry_equiv_pos_site_id
 _symmetry_equiv_pos_as_xyz
  1  'x, y, z'
loop_
 _atom_site_type_symbol
 _atom_site_label
 _atom_site_symmetry_multiplicity
 _atom_site_fract_x
 _atom_site_fract_y
 _atom_site_fract_z
 _atom_site_occupancy
  Li  Li0  1  0.50286600  0.74129800  0.74535800  1
  Li  Li1  1  0.00270500  0.37987100  0.12107300  1
  Li  Li2  1  0.51356000  0.00497700  0.50441200  1
  Li  Li3  1  0.00159800  0.87643400  0.62467300  1
  Li  Li4  1  0.48921800  0.49945600  0.99352800  1
  Li  Li5  1  0.99895800  0.13196000  0.38785800  1
  Li  Li6  1  0.00388400  0.60948400  0.86806300  1
  Li  Li7  1  0.49824700  0.25632600  0.25698000  1
  Li  Li8  1  0.00288200  0.25154500  0.74904500  1
  Mn  Mn0  1  0.99599700  0.00045700  0.99901600  1
  Mn  Mn1  1  0.49923900  0.12722400  0.87251200  1
  Co  Co0  1  0.50297900  0.62828100  0.37288500  1
  Co  Co1  1  0.49295300  0.87603600  0.12301100  1
  Co  Co2  1  0.00038800  0.49715200  0.50565300  1
  Co  Co3  1  0.99976800  0.74809600  0.24838500  1
  Co  Co4  1  0.50217700  0.37123300  0.63091800  1
  O  O0  1  0.75030700  0.77227000  0.01121300  1
  O  O1  1  0.25212800  0.39352200  0.38032500  1
  O  O2  1  0.75172900  0.00297000  0.77572900  1
  O  O3  1  0.25693100  0.89233300  0.89313100  1
  O  O4  1  0.74785400  0.51611400  0.25916500  1
  O  O5  1  0.27541000  0.12101100  0.64424500  1
  O  O6  1  0.25298300  0.64412000  0.12362000  1
  O  O7  1  0.74067300  0.26151100  0.50484800  1
  O  O8  1  0.25803000  0.73969300  0.48291400  1
  O  O9  1  0.72688100  0.35564500  0.87785500  1
  O  O10  1  0.23404100  0.98993000  0.22911800  1
  O  O11  1  0.72825600  0.86626500  0.35190900  1
  O  O12  1  0.26504200  0.49279500  0.73792500  1
  O  O13  1  0.73754600  0.10749400  0.10814700  1
  O  O14  1  0.76720200  0.61960400  0.61982900  1
  O  O15  1  0.24756700  0.22488900  0.99665900  1
loop_
_geom_bond_atom_site_label_1
_geom_bond_atom_site_label_2
_geom_bond_distance
_geom_bond_site_symmetry_2
Li0 O12 2.025282 1_555
Li0 O14 2.086868 1_555
Li0 O2 2.097578 1_565
Li0 O0 2.145610 1_556
Li0 O8 2.164251 1_555
Li0 O3 2.232397 1_555
Li1 O9 2.070067 1_454
Li1 O1 2.130639 1_555
Li1 O15 2.152567 1_554
Li1 O6 2.158435 1_555
Li1 O4 2.161598 1_455
Li1 O13 2.220270 1_455
Li2 O5 2.022124 1_555
Li2 O7 2.071164 1_555
Li2 O11 2.083633 1_545
Li2 O8 2.143978 1_545
Li2 O2 2.217686 1_555
Li2 O10 2.290721 1_545
Li3 O5 2.055456 1_565
Li3 O14 2.077512 1_455
Li3 O2 2.160176 1_465
Li3 O8 2.185530 1_555
Li3 O3 2.197838 1_555
Li3 O11 2.270425 1_455
Li4 O9 2.038782 1_555
Li4 O12 2.072723 1_555
Li4 O6 2.093205 1_556
Li4 O4 2.184752 1_556
Li4 O0 2.208033 1_556
Li4 O15 2.221347 1_555
Li5 O7 2.061157 1_555
Li5 O11 2.158288 1_545
Li5 O1 2.167016 1_655
Li5 O10 2.201833 1_645
Li5 O5 2.218146 1_655
Li5 O13 2.269674 1_555
Li6 O12 2.073413 1_555
Li6 O6 2.077866 1_556
Li6 O14 2.081395 1_455
Li6 O9 2.173543 1_455
Li6 O3 2.248958 1_555
Li6 O0 2.295599 1_456
Li7 O7 2.058611 1_555
Li7 O1 2.070979 1_555
Li7 O15 2.115067 1_554
Li7 O4 2.129244 1_555
Li7 O10 2.159148 1_545
Li7 O13 2.202184 1_555
Li8 O12 2.067436 1_555
Li8 O5 2.078962 1_555
Li8 O9 2.081726 1_455
Li8 O7 2.109141 1_455
Li8 O2 2.127667 1_455
Li8 O15 2.134768 1_555
Mn0 O15 1.923062 1_655
Mn0 O2 1.923993 1_555
Mn0 O13 1.937663 1_556
Mn0 O3 1.939724 1_645
Mn0 O0 1.954383 1_546
Mn0 O10 1.970242 1_646
Mn1 O9 1.881606 1_555
Mn1 O5 1.894297 1_555
Mn1 O15 1.937408 1_555
Mn1 O2 1.939867 1_555
Mn1 O3 2.008843 1_545
Mn1 O13 2.027976 1_556
Co0 O8 1.902788 1_555
Co0 O4 1.920426 1_555
Co0 O1 1.994834 1_555
Co0 O11 1.995136 1_555
Co0 O14 2.127552 1_555
Co0 O6 2.128279 1_555
Co1 O0 1.931024 1_555
Co1 O6 1.939807 1_555
Co1 O11 1.955101 1_555
Co1 O10 1.955606 1_555
Co1 O13 1.978298 1_565
Co1 O3 1.978474 1_554
Co2 O14 1.918282 1_455
Co2 O1 1.964547 1_555
Co2 O7 2.002430 1_455
Co2 O12 2.029749 1_555
Co2 O8 2.093913 1_555
Co2 O4 2.123999 1_455
Co3 O6 1.969404 1_655
Co3 O4 1.987826 1_555
Co3 O11 2.016672 1_555
Co3 O10 2.032526 1_655
Co3 O8 2.037532 1_655
Co3 O0 2.073282 1_555
Co4 O12 1.902282 1_555
Co4 O7 1.937155 1_555
Co4 O5 2.058140 1_555
Co4 O9 2.063009 1_555
Co4 O14 2.116938 1_555
Co4 O1 2.153005 1_555
