# generated using pymatgen
data_NaCa2GeO4F
_symmetry_space_group_name_H-M   'P 1'
_cell_length_a   5.55342868
_cell_length_b   7.39620651
_cell_length_c   12.70011497
_cell_angle_alpha   89.90406342
_cell_angle_beta   90.31856619
_cell_angle_gamma   90.07766950
_symmetry_Int_Tables_number   1
_chemical_formula_structural   NaCa2GeO4F
_chemical_formula_sum   'Na4 Ca8 Ge4 O16 F4'
_cell_volume   521.63913299
_cell_formula_units_Z   4
loop_
 _symmetry_equiv_pos_site_id
 _symmetry_equiv_pos_as_xyz
  1  'x, y, z'
loop_
 _atom_site_type_symbol
 _atom_site_label
 _atom_site_symmetry_multiplicity
 _atom_site_fract_x
 _atom_site_fract_y
 _atom_site_fract_z
 _atom_site_occupancy
  Na  Na0  1  0.23209100  0.23660500  0.41559500  1
  Na  Na1  1  0.22790500  0.00223700  0.66248700  1
  Na  Na2  1  0.73306400  0.50150500  0.82824400  1
  Na  Na3  1  0.77506100  0.00141600  0.34016900  1
  Ca  Ca0  1  0.22433500  0.50713100  0.66841100  1
  Ca  Ca1  1  0.27487200  0.01569800  0.17783200  1
  Ca  Ca2  1  0.27366900  0.49543600  0.17297800  1
  Ca  Ca3  1  0.27238600  0.74389600  0.90385800  1
  Ca  Ca4  1  0.73008600  0.25196800  0.08985800  1
  Ca  Ca5  1  0.72546700  0.98923600  0.82448500  1
  Ca  Ca6  1  0.77993100  0.47809100  0.33793400  1
  Ca  Ca7  1  0.77195300  0.75700000  0.59290400  1
  Ge  Ge0  1  0.20168300  0.24577200  0.91618200  1
  Ge  Ge1  1  0.29634900  0.74530100  0.41586200  1
  Ge  Ge2  1  0.69818700  0.25511300  0.58258300  1
  Ge  Ge3  1  0.79597300  0.75703000  0.08271800  1
  O  O0  1  0.12367300  0.75547100  0.08137600  1
  O  O1  1  0.18128900  0.74352800  0.54641500  1
  O  O2  1  0.21664700  0.94222700  0.34560400  1
  O  O3  1  0.18845400  0.55354300  0.34375800  1
  O  O4  1  0.31313800  0.04745200  0.85606100  1
  O  O5  1  0.28472200  0.44589000  0.84919600  1
  O  O6  1  0.31012100  0.25768300  0.04955800  1
  O  O7  1  0.37843000  0.26551100  0.58643700  1
  O  O8  1  0.62002000  0.72744500  0.42394900  1
  O  O9  1  0.68952700  0.75272400  0.95116100  1
  O  O10  1  0.69992400  0.55743300  0.15153300  1
  O  O11  1  0.69492500  0.95417100  0.14856300  1
  O  O12  1  0.78952000  0.05525900  0.65165400  1
  O  O13  1  0.81174500  0.45336600  0.64793100  1
  O  O14  1  0.80138300  0.24821300  0.45171700  1
  O  O15  1  0.87911100  0.23160400  0.92200000  1
  F  F0  1  0.00678600  0.25918000  0.22642200  1
  F  F1  1  0.49568800  0.74708300  0.73824000  1
  F  F2  1  0.50505500  0.26260500  0.25216000  1
  F  F3  1  0.99683000  0.75618000  0.76416300  1
loop_
_geom_bond_atom_site_label_1
_geom_bond_atom_site_label_2
_geom_bond_distance
_geom_bond_site_symmetry_2
Na0 O7 2.322777 1_555
Na0 O2 2.354393 1_545
Na0 O14 2.439658 1_455
Na0 O3 2.525469 1_555
Na1 O7 2.328433 1_555
Na1 O1 2.430078 1_545
Na1 O12 2.469491 1_455
Na1 O4 2.523699 1_555
Na2 O13 2.361367 1_555
Na2 O9 2.441907 1_555
Na2 O15 2.458921 1_555
Na2 O5 2.538407 1_555
Na3 O14 2.316443 1_555
Na3 O8 2.444950 1_545
Na3 O2 2.492227 1_645
Na3 O11 2.496410 1_545
Ca0 O7 2.242782 1_555
Ca0 O13 2.338170 1_455
Ca0 O1 2.345775 1_555
Ca0 O5 2.361687 1_555
Ca0 F1 2.488009 1_555
Ca0 F3 2.549312 1_455
Ca1 O2 2.223316 1_545
Ca1 O11 2.408318 1_545
Ca1 F2 2.417869 1_555
Ca1 F0 2.421068 1_555
Ca1 O6 2.426599 1_555
Ca1 O0 2.429444 1_545
Ca2 O3 2.264504 1_555
Ca2 O6 2.367238 1_555
Ca2 F2 2.369347 1_555
Ca2 F0 2.389760 1_555
Ca2 O0 2.394227 1_555
Ca2 O10 2.427297 1_555
Ca3 O5 2.313181 1_555
Ca3 O4 2.335817 1_565
Ca3 F3 2.338213 1_455
Ca3 O9 2.390790 1_555
Ca3 O0 2.407009 1_556
Ca3 F1 2.447713 1_555
Ca4 O15 2.296362 1_554
Ca4 F0 2.311408 1_655
Ca4 O11 2.332434 1_545
Ca4 O6 2.385379 1_555
Ca4 O10 2.398823 1_555
Ca4 F2 2.417880 1_555
Ca5 O12 2.277613 1_565
Ca5 O15 2.338111 1_565
Ca5 O4 2.367074 1_565
Ca5 O9 2.383546 1_555
Ca5 F3 2.419398 1_555
Ca5 F1 2.453696 1_555
Ca6 O14 2.232388 1_555
Ca6 O8 2.324930 1_555
Ca6 O3 2.336398 1_655
Ca6 F2 2.457180 1_555
Ca6 O10 2.475948 1_555
Ca6 F0 2.499478 1_655
Ca7 O8 2.311897 1_555
Ca7 O12 2.331677 1_565
Ca7 O1 2.354098 1_655
Ca7 O13 2.361132 1_555
Ca7 F1 2.407666 1_555
Ca7 F3 2.502013 1_555
Ge0 O5 1.767890 1_555
Ge0 O4 1.768933 1_555
Ge0 O15 1.796224 1_455
Ge0 O6 1.796855 1_556
Ge1 O2 1.762525 1_555
Ge1 O1 1.780236 1_555
Ge1 O3 1.790266 1_555
Ge1 O8 1.804850 1_555
Ge2 O14 1.761897 1_555
Ge2 O7 1.778465 1_555
Ge2 O12 1.790102 1_555
Ge2 O13 1.797867 1_555
Ge3 O9 1.769503 1_554
Ge3 O11 1.775320 1_555
Ge3 O10 1.796217 1_555
Ge3 O0 1.820085 1_655
F0 Na0 2.707639 1_555
F0 Na3 2.717047 1_455
F1 Na2 2.515207 1_555
F1 Na1 2.585368 1_565
F2 Na0 2.583805 1_555
F2 Na3 2.685433 1_555
F3 Na2 2.521247 1_555
F3 Na1 2.574960 1_665
