# generated using pymatgen
data_Mg5Si9
_symmetry_space_group_name_H-M   'P 1'
_cell_length_a   5.50241500
_cell_length_b   7.24743946
_cell_length_c   13.27934385
_cell_angle_alpha   96.54917168
_cell_angle_beta   95.41297731
_cell_angle_gamma   109.82997782
_symmetry_Int_Tables_number   1
_chemical_formula_structural   Mg5Si9
_chemical_formula_sum   'Mg10 Si18'
_cell_volume   489.86821373
_cell_formula_units_Z   2
loop_
 _symmetry_equiv_pos_site_id
 _symmetry_equiv_pos_as_xyz
  1  'x, y, z'
loop_
 _atom_site_type_symbol
 _atom_site_label
 _atom_site_symmetry_multiplicity
 _atom_site_fract_x
 _atom_site_fract_y
 _atom_site_fract_z
 _atom_site_occupancy
  Mg  Mg0  1  0.46675100  0.46872800  0.70114600  1
  Mg  Mg1  1  0.77219100  0.91726100  0.39801300  1
  Mg  Mg2  1  0.55608100  0.14843900  0.53888000  1
  Mg  Mg3  1  0.17925700  0.74260400  0.39444300  1
  Mg  Mg4  1  0.02976300  0.68288100  0.60853400  1
  Mg  Mg5  1  0.10994800  0.34021500  0.46091700  1
  Mg  Mg6  1  0.66447600  0.62715900  0.02484100  1
  Mg  Mg7  1  0.17249100  0.24508100  0.88579300  1
  Mg  Mg8  1  0.35954200  0.80977100  0.18210200  1
  Mg  Mg9  1  0.61580100  0.02399300  0.96709300  1
  Si  Si0  1  0.07727200  0.31740400  0.10080900  1
  Si  Si1  1  0.72008000  0.35811500  0.87029000  1
  Si  Si2  1  0.30824000  0.10688700  0.32918400  1
  Si  Si3  1  0.73248900  0.92709200  0.69929000  1
  Si  Si4  1  0.73449000  0.20635900  0.26892800  1
  Si  Si5  1  0.39402000  0.02983700  0.75597100  1
  Si  Si6  1  0.75529100  0.61310900  0.24156200  1
  Si  Si7  1  0.23857200  0.70165100  0.81937900  1
  Si  Si8  1  0.92606700  0.96747600  0.19271200  1
  Si  Si9  1  0.09449000  0.10356500  0.62017800  1
  Si  Si10  1  0.84457200  0.77941200  0.84574200  1
  Si  Si11  1  0.11605500  0.98758000  0.02960600  1
  Si  Si12  1  0.30283600  0.45923800  0.27997000  1
  Si  Si13  1  0.92034000  0.36298900  0.71344200  1
  Si  Si14  1  0.55666700  0.29497300  0.11521200  1
  Si  Si15  1  0.15141600  0.60043300  0.99006500  1
  Si  Si16  1  0.51385900  0.69190200  0.54151300  1
  Si  Si17  1  0.68690700  0.48574600  0.42421300  1
loop_
_geom_bond_atom_site_label_1
_geom_bond_atom_site_label_2
_geom_bond_distance
_geom_bond_site_symmetry_2
Mg0 Si9 2.759202 1_555
Mg0 Si16 2.788958 1_555
Mg0 Si13 2.844721 1_555
Mg0 Si7 2.845419 1_555
Mg0 Si10 2.857200 1_555
Mg0 Si1 2.865122 1_555
Mg0 Si13 2.865556 1_455
Mg0 Si3 3.147067 1_555
Mg1 Si6 2.822017 1_555
Mg1 Si16 2.822277 1_555
Mg1 Si4 2.901451 1_565
Mg1 Mg3 2.924275 1_655
Mg1 Si8 2.955436 1_555
Mg1 Mg2 2.962571 1_565
Mg1 Mg5 2.967474 1_665
Mg1 Mg3 3.066612 1_555
Mg1 Si17 3.066769 1_555
Mg1 Si2 3.077175 1_665
Mg1 Si9 3.186141 1_665
Mg1 Mg8 3.323418 1_555
Mg2 Si9 2.785531 1_555
Mg2 Si13 2.827588 1_555
Mg2 Si2 2.918594 1_555
Mg2 Si17 2.945325 1_555
Mg2 Si3 3.082046 1_545
Mg2 Si9 3.190349 1_655
Mg3 Si16 2.698749 1_555
Mg3 Si12 2.724167 1_555
Mg3 Si2 2.755286 1_565
Mg3 Si6 2.762408 1_455
Mg3 Si17 2.812353 1_455
Mg4 Si13 2.761555 1_455
Mg4 Si17 2.844949 1_455
Mg4 Si16 2.869501 1_555
Mg4 Si7 2.894493 1_555
Mg4 Si16 2.918427 1_455
Mg4 Si9 2.931174 1_565
Mg4 Si5 2.981713 1_565
Mg4 Si3 3.018305 1_455
Mg5 Si16 2.768952 1_555
Mg5 Si12 2.824376 1_555
Mg5 Si2 2.836778 1_555
Mg5 Si9 2.860757 1_555
Mg5 Si17 2.887446 1_455
Mg5 Si4 2.965028 1_455
Mg5 Si17 3.092890 1_555
Mg6 Si14 2.722595 1_555
Mg6 Si15 2.753749 1_554
Mg6 Si1 2.778145 1_554
Mg6 Si15 2.827511 1_654
Mg6 Si10 2.856118 1_554
Mg6 Si6 2.893527 1_555
Mg6 Si11 2.920682 1_655
Mg6 Si8 2.975951 1_555
Mg7 Si11 2.785324 1_546
Mg7 Si5 2.822134 1_555
Mg7 Si15 2.825393 1_555
Mg7 Si1 2.869795 1_455
Mg7 Si1 2.876259 1_555
Mg7 Si13 2.923152 1_455
Mg7 Si0 2.971362 1_556
Mg7 Si10 3.194769 1_445
Mg8 Si15 2.739356 1_554
Mg8 Si2 2.844004 1_565
Mg8 Si8 2.916609 1_555
Mg8 Si12 2.920993 1_555
Mg8 Si4 2.935845 1_565
Mg8 Si11 2.968367 1_555
Mg8 Si8 2.981850 1_455
Mg8 Si6 3.071613 1_555
Mg9 Si14 2.739477 1_556
Mg9 Si1 2.784249 1_555
Mg9 Si11 2.882450 1_546
Mg9 Si11 2.906425 1_646
Mg9 Si7 2.917240 1_545
Mg9 Si10 2.927185 1_545
Mg9 Si0 2.957544 1_656
Mg9 Si5 2.961018 1_555
Si0 Si12 2.505361 1_555
Si0 Si11 2.553833 1_545
Si0 Si15 2.601968 1_554
Si0 Si14 2.687751 1_555
Si0 Si14 2.839607 1_455
Si0 Si8 2.842422 1_445
Si1 Si13 2.444804 1_555
Si1 Si5 2.636310 1_555
Si1 Si15 2.658886 1_655
Si2 Si4 2.449365 1_555
Si2 Si8 2.479720 1_445
Si3 Si5 2.380560 1_565
Si3 Si9 2.383257 1_665
Si4 Si8 2.484491 1_545
Si5 Si7 2.512040 1_545
Si5 Si9 2.551496 1_555
Si6 Si8 2.599504 1_555
Si10 Si3 2.450400 1_555
Si10 Si7 2.463189 1_655
Si10 Si11 2.722416 1_656
Si11 Si8 2.490224 1_455
Si11 Si14 2.714983 1_565
Si11 Si15 2.870507 1_554
Si12 Si6 2.487470 1_555
Si12 Si17 2.654969 1_555
Si12 Si2 2.716177 1_555
Si13 Si7 2.627000 1_655
Si13 Si9 2.627198 1_655
Si14 Si4 2.425918 1_555
Si14 Si6 2.527382 1_555
Si15 Si7 2.500252 1_555
Si16 Si3 2.461903 1_555
Si16 Si17 2.505889 1_555
Si17 Si6 2.706261 1_555
Si17 Si4 2.815991 1_555
Si17 Si2 2.881842 1_555
