# generated using pymatgen
data_Th(BIr)4
_symmetry_space_group_name_H-M   'P 1'
_cell_length_a   3.94575907
_cell_length_b   7.74690738
_cell_length_c   7.74690738
_cell_angle_alpha   90.00000000
_cell_angle_beta   90.00000000
_cell_angle_gamma   90.00000000
_symmetry_Int_Tables_number   1
_chemical_formula_structural   Th(BIr)4
_chemical_formula_sum   'Th2 B8 Ir8'
_cell_volume   236.80304951
_cell_formula_units_Z   2
loop_
 _symmetry_equiv_pos_site_id
 _symmetry_equiv_pos_as_xyz
  1  'x, y, z'
loop_
 _atom_site_type_symbol
 _atom_site_label
 _atom_site_symmetry_multiplicity
 _atom_site_fract_x
 _atom_site_fract_y
 _atom_site_fract_z
 _atom_site_occupancy
  Th  Th0  1  0.25000000  0.25000000  0.25000000  1
  Th  Th1  1  0.75000000  0.75000000  0.75000000  1
  B  B0  1  0.35761700  0.90898811  0.02995760  1
  B  B1  1  0.35761700  0.59101189  0.47004240  1
  B  B2  1  0.85761700  0.52995760  0.09101189  1
  B  B3  1  0.85761700  0.97004240  0.40898811  1
  B  B4  1  0.64238300  0.09101189  0.97004240  1
  B  B5  1  0.64238300  0.40898811  0.52995760  1
  B  B6  1  0.14238300  0.47004240  0.90898811  1
  B  B7  1  0.14238300  0.02995760  0.59101189  1
  Ir  Ir0  1  0.13986716  0.41567403  0.64370987  1
  Ir  Ir1  1  0.13986716  0.08432597  0.85629013  1
  Ir  Ir2  1  0.63986716  0.14370987  0.58432597  1
  Ir  Ir3  1  0.63986716  0.35629013  0.91567403  1
  Ir  Ir4  1  0.86013284  0.58432597  0.35629013  1
  Ir  Ir5  1  0.86013284  0.91567403  0.14370987  1
  Ir  Ir6  1  0.36013284  0.85629013  0.41567403  1
  Ir  Ir7  1  0.36013284  0.64370987  0.08432597  1
loop_
_geom_bond_atom_site_label_1
_geom_bond_atom_site_label_2
_geom_bond_distance
_geom_bond_site_symmetry_2
B0 B4 1.861828 1_564
B0 Ir1 2.096024 1_564
B0 Ir7 2.097826 1_555
B0 Ir5 2.152308 1_455
B0 Ir5 2.170430 1_555
B0 Th1 2.935608 1_554
B0 Th0 3.172566 1_565
B0 Th1 3.459592 1_454
B1 B5 1.861828 1_555
B1 Ir0 2.096024 1_555
B1 Ir6 2.097826 1_555
B1 Ir4 2.152308 1_455
B1 Ir4 2.170430 1_555
B1 Th1 2.935608 1_555
B1 Th0 3.172566 1_555
B1 Th1 3.459592 1_455
B2 B6 1.861828 1_654
B2 Ir3 2.096024 1_554
B2 Ir4 2.097826 1_555
B2 Ir7 2.152308 1_555
B2 Ir7 2.170430 1_655
B2 Th0 2.935608 1_655
B2 Th1 3.172566 1_554
B2 Th0 3.459592 1_555
B3 B7 1.861828 1_665
B3 Ir2 2.096024 1_565
B3 Ir5 2.097826 1_555
B3 Ir6 2.152308 1_555
B3 Ir6 2.170430 1_655
B3 Th0 2.935608 1_665
B3 Th1 3.172566 1_555
B3 Th0 3.459592 1_565
B4 Ir5 2.096024 1_546
B4 Ir3 2.097826 1_555
B4 Ir1 2.152308 1_655
B4 Ir1 2.170430 1_555
B4 Th0 2.935608 1_556
B4 Th1 3.172566 1_545
B4 Th0 3.459592 1_656
B5 Ir4 2.096024 1_555
B5 Ir2 2.097826 1_555
B5 Ir0 2.152308 1_655
B5 Ir0 2.170430 1_555
B5 Th0 2.935608 1_555
B5 Th1 3.172566 1_555
B5 Th0 3.459592 1_655
B6 Ir7 2.096024 1_556
B6 Ir0 2.097826 1_555
B6 Ir3 2.152308 1_555
B6 Ir3 2.170430 1_455
B6 Th1 2.935608 1_455
B6 Th0 3.172566 1_556
B6 Th1 3.459592 1_555
B7 Ir6 2.096024 1_545
B7 Ir1 2.097826 1_555
B7 Ir2 2.152308 1_555
B7 Ir2 2.170430 1_455
B7 Th1 2.935608 1_445
B7 Th0 3.172566 1_555
B7 Th1 3.459592 1_545
Ir0 Th1 3.122902 1_455
Ir0 Th0 3.337487 1_555
Ir1 Th1 3.122902 1_445
Ir1 Th0 3.337487 1_556
Ir2 Th0 3.122902 1_555
Ir2 Th1 3.337487 1_545
Ir3 Th0 3.122902 1_556
Ir3 Th1 3.337487 1_555
Ir4 Th0 3.122902 1_655
Ir4 Th1 3.337487 1_555
Ir5 Th0 3.122902 1_665
Ir5 Th1 3.337487 1_554
Ir6 Th1 3.122902 1_555
Ir6 Th0 3.337487 1_565
Ir7 Th1 3.122902 1_554
Ir7 Th0 3.337487 1_555
