# generated using pymatgen
data_Sr3Mn3N5
_symmetry_space_group_name_H-M   'P 1'
_cell_length_a   5.63751467
_cell_length_b   7.08332095
_cell_length_c   8.57177505
_cell_angle_alpha   107.87920769
_cell_angle_beta   102.82357458
_cell_angle_gamma   95.12958254
_symmetry_Int_Tables_number   1
_chemical_formula_structural   Sr3Mn3N5
_chemical_formula_sum   'Sr6 Mn6 N10'
_cell_volume   313.02382031
_cell_formula_units_Z   2
loop_
 _symmetry_equiv_pos_site_id
 _symmetry_equiv_pos_as_xyz
  1  'x, y, z'
loop_
 _atom_site_type_symbol
 _atom_site_label
 _atom_site_symmetry_multiplicity
 _atom_site_fract_x
 _atom_site_fract_y
 _atom_site_fract_z
 _atom_site_occupancy
  Sr  Sr0  1  0.82067300  0.41755100  0.61523000  1
  Sr  Sr1  1  0.17932700  0.58244900  0.38477000  1
  Sr  Sr2  1  0.65936800  0.86787100  0.87967100  1
  Sr  Sr3  1  0.34063200  0.13212900  0.12032900  1
  Sr  Sr4  1  0.65276300  0.67655200  0.20770500  1
  Sr  Sr5  1  0.34723700  0.32344800  0.79229500  1
  Mn  Mn0  1  0.91229800  0.32238000  0.97602000  1
  Mn  Mn1  1  0.08770200  0.67762000  0.02398000  1
  Mn  Mn2  1  0.68580700  0.95915600  0.57183400  1
  Mn  Mn3  1  0.31419300  0.04084400  0.42816600  1
  Mn  Mn4  1  0.09317200  0.89070200  0.70065000  1
  Mn  Mn5  1  0.90682800  0.10929800  0.29935000  1
  N  N0  1  0.92317600  0.12222200  0.77738400  1
  N  N1  1  0.07682400  0.87777700  0.22261600  1
  N  N2  1  0.82316200  0.72934500  0.52440900  1
  N  N3  1  0.17683800  0.27065500  0.47559100  1
  N  N4  1  0.76412100  0.53361900  0.92265200  1
  N  N5  1  0.23587900  0.46638100  0.07734800  1
  N  N6  1  0.36621800  0.94139000  0.61354400  1
  N  N7  1  0.63378200  0.05861000  0.38645600  1
  N  N8  1  0.16352900  0.77822600  0.86791000  1
  N  N9  1  0.83647100  0.22177400  0.13209000  1
loop_
_geom_bond_atom_site_label_1
_geom_bond_atom_site_label_2
_geom_bond_distance
_geom_bond_site_symmetry_2
Mn0 N9 1.806939 1_556
Mn0 N0 1.868843 1_555
Mn0 N5 1.882141 1_656
Mn0 N4 1.902650 1_555
Mn1 N8 1.806939 1_554
Mn1 N1 1.868840 1_555
Mn1 N4 1.882141 1_454
Mn1 N5 1.902650 1_555
Mn2 N2 1.836704 1_555
Mn2 N7 1.903859 1_565
Mn2 N0 1.912231 1_565
Mn2 N6 1.913835 1_555
Mn3 N3 1.836704 1_555
Mn3 N6 1.903859 1_545
Mn3 N1 1.912233 1_545
Mn3 N7 1.913835 1_555
Mn4 N8 1.831130 1_555
Mn4 N2 1.874434 1_455
Mn4 N6 1.905731 1_555
Mn4 N0 1.984685 1_465
Mn5 N9 1.831130 1_555
Mn5 N3 1.874434 1_655
Mn5 N7 1.905731 1_555
Mn5 N1 1.984691 1_645
N0 Sr5 2.627992 1_655
N0 Sr2 2.701140 1_545
N0 Sr0 2.878706 1_555
N1 Sr4 2.627989 1_455
N1 Sr3 2.701145 1_565
N1 Sr1 2.878700 1_555
N2 Sr0 2.557129 1_555
N2 Sr4 2.566542 1_555
N2 Sr1 2.687503 1_655
N3 Sr1 2.557129 1_555
N3 Sr5 2.566542 1_555
N3 Sr0 2.687503 1_455
N4 Sr5 2.485045 1_555
N4 Sr4 2.581664 1_556
N4 Sr2 2.603674 1_555
N4 Sr0 2.609813 1_555
N5 Sr4 2.485045 1_555
N5 Sr5 2.581664 1_554
N5 Sr3 2.603674 1_555
N5 Sr1 2.609813 1_555
N6 Sr1 2.638618 1_555
N6 Sr5 2.694690 1_565
N6 Sr2 2.723237 1_555
N7 Sr0 2.638618 1_555
N7 Sr4 2.694690 1_545
N7 Sr3 2.723237 1_555
N8 Sr3 2.688035 1_566
N8 Sr2 2.783033 1_555
N8 Sr0 2.969009 1_455
N8 Sr2 2.983649 1_455
N9 Sr2 2.688035 1_544
N9 Sr3 2.783033 1_555
N9 Sr1 2.969009 1_655
N9 Sr3 2.983649 1_655
