# generated using pymatgen
data_KMgNbO15
_symmetry_space_group_name_H-M   'P 1'
_cell_length_a   9.35691658
_cell_length_b   12.05864828
_cell_length_c   12.63494543
_cell_angle_alpha   90.00000000
_cell_angle_beta   90.00000000
_cell_angle_gamma   102.79639157
_symmetry_Int_Tables_number   1
_chemical_formula_structural   KMgNbO15
_chemical_formula_sum   'K4 Mg4 Nb4 O60'
_cell_volume   1390.21543787
_cell_formula_units_Z   4
loop_
 _symmetry_equiv_pos_site_id
 _symmetry_equiv_pos_as_xyz
  1  'x, y, z'
loop_
 _atom_site_type_symbol
 _atom_site_label
 _atom_site_symmetry_multiplicity
 _atom_site_fract_x
 _atom_site_fract_y
 _atom_site_fract_z
 _atom_site_occupancy
  K  K0  1  0.31216062  0.27031144  0.53171778  1
  K  K1  1  0.18783938  0.22968856  0.03171778  1
  K  K2  1  0.68783938  0.72968856  0.46828222  1
  K  K3  1  0.81216062  0.77031144  0.96828222  1
  Mg  Mg0  1  0.50000000  0.00000000  0.50000000  1
  Mg  Mg1  1  0.00000000  0.50000000  -0.00000000  1
  Mg  Mg2  1  0.00000000  0.50000000  0.50000000  1
  Mg  Mg3  1  0.50000000  0.00000000  0.00000000  1
  Nb  Nb0  1  0.42947013  0.58202168  0.74254062  1
  Nb  Nb1  1  0.07052987  0.91797832  0.24254062  1
  Nb  Nb2  1  0.57052987  0.41797832  0.25745938  1
  Nb  Nb3  1  0.92947013  0.08202168  0.75745938  1
  O  O0  1  0.24329661  0.45905002  0.76786113  1
  O  O1  1  0.25670339  0.04094998  0.26786113  1
  O  O2  1  0.75670339  0.54094998  0.23213887  1
  O  O3  1  0.74329661  0.95905002  0.73213887  1
  O  O4  1  0.36383236  0.41144864  0.73534036  1
  O  O5  1  0.13616764  0.08855136  0.23534036  1
  O  O6  1  0.63616764  0.58855136  0.26465964  1
  O  O7  1  0.86383236  0.91144864  0.76465964  1
  O  O8  1  0.64992602  0.57689005  0.71581470  1
  O  O9  1  0.85007398  0.92310995  0.21581470  1
  O  O10  1  0.35007398  0.42310995  0.28418530  1
  O  O11  1  0.14992602  0.07689005  0.78418530  1
  O  O12  1  0.64854124  0.68265021  0.75375342  1
  O  O13  1  0.85145876  0.81734979  0.25375342  1
  O  O14  1  0.35145876  0.31734979  0.24624658  1
  O  O15  1  0.14854124  0.18265021  0.74624658  1
  O  O16  1  0.46734313  0.59938825  0.91042545  1
  O  O17  1  0.03265687  0.90061175  0.41042545  1
  O  O18  1  0.53265687  0.40061175  0.08957455  1
  O  O19  1  0.96734313  0.09938825  0.58957455  1
  O  O20  1  0.37361937  0.66396907  0.87868611  1
  O  O21  1  0.12638063  0.83603093  0.37868611  1
  O  O22  1  0.62638063  0.33603093  0.12131389  1
  O  O23  1  0.87361937  0.16396907  0.62131389  1
  O  O24  1  0.42986639  0.61363633  0.58575199  1
  O  O25  1  0.07013361  0.88636367  0.08575199  1
  O  O26  1  0.57013361  0.38636367  0.41424801  1
  O  O27  1  0.92986639  0.11363633  0.91424801  1
  O  O28  1  0.34786029  0.68298375  0.64431030  1
  O  O29  1  0.15213971  0.81701625  0.14431030  1
  O  O30  1  0.65213971  0.31701625  0.35568970  1
  O  O31  1  0.84786029  0.18298375  0.85568970  1
  O  O32  1  0.34303116  0.02866061  0.63656237  1
  O  O33  1  0.15696884  0.47133939  0.13656237  1
  O  O34  1  0.65696884  0.97133939  0.36343763  1
  O  O35  1  0.84303116  0.52866061  0.86343763  1
  O  O36  1  0.80683350  0.54501174  0.49855161  1
  O  O37  1  0.69316650  0.95498826  0.99855161  1
  O  O38  1  0.19316650  0.45498826  0.50144839  1
  O  O39  1  0.30683350  0.04501174  0.00144839  1
  O  O40  1  0.63623553  0.91496899  0.55302152  1
  O  O41  1  0.86376447  0.58503101  0.05302152  1
  O  O42  1  0.36376447  0.08503101  0.44697848  1
  O  O43  1  0.13623553  0.41496899  0.94697848  1
  O  O44  1  0.09923962  0.39011317  0.57324173  1
  O  O45  1  0.40076038  0.10988683  0.07324173  1
  O  O46  1  0.90076038  0.60988683  0.42675827  1
  O  O47  1  0.59923962  0.89011317  0.92675827  1
  O  O48  1  0.47518307  0.08543351  0.65127863  1
  O  O49  1  0.02481693  0.41456649  0.15127863  1
  O  O50  1  0.52481693  0.91456649  0.34872137  1
  O  O51  1  0.97518307  0.58543351  0.84872137  1
  O  O52  1  0.05810174  0.64374507  0.62381262  1
  O  O53  1  0.44189826  0.85625493  0.12381262  1
  O  O54  1  0.94189826  0.35625493  0.37618738  1
  O  O55  1  0.55810174  0.14374507  0.87618738  1
  O  O56  1  0.52167743  0.23648981  0.87787451  1
  O  O57  1  0.97832257  0.26351019  0.37787451  1
  O  O58  1  0.47832257  0.76351019  0.12212549  1
  O  O59  1  0.02167743  0.73648981  0.62212549  1
loop_
_geom_bond_atom_site_label_1
_geom_bond_atom_site_label_2
_geom_bond_distance
_geom_bond_site_symmetry_2
K0 O42 2.617092 1_555
K0 O38 2.728306 1_555
K0 O44 2.757971 1_555
K0 O26 2.914027 1_555
K0 O4 3.063478 1_555
K0 O15 3.176717 1_555
K1 O43 2.617092 1_554
K1 O39 2.728306 1_555
K1 O45 2.757971 1_555
K1 O27 2.914027 1_454
K1 O5 3.063478 1_555
K1 O14 3.176717 1_555
K2 O40 2.617092 1_555
K2 O36 2.728306 1_555
K2 O46 2.757971 1_555
K2 O24 2.914027 1_555
K2 O6 3.063478 1_555
K2 O13 3.176717 1_555
K3 O41 2.617092 1_556
K3 O37 2.728306 1_555
K3 O47 2.757971 1_555
K3 O25 2.914027 1_656
K3 O7 3.063478 1_555
K3 O12 3.176717 1_555
Mg0 O42 1.924612 1_555
Mg0 O40 1.924612 1_545
Mg0 O50 2.207865 1_545
Mg0 O48 2.207865 1_555
Mg0 O34 2.340666 1_545
Mg0 O32 2.340666 1_555
Mg1 O43 1.924612 1_554
Mg1 O41 1.924612 1_455
Mg1 O51 2.207865 1_454
Mg1 O49 2.207865 1_555
Mg1 O35 2.340666 1_454
Mg1 O33 2.340666 1_555
Mg2 O38 1.999093 1_555
Mg2 O36 1.999093 1_455
Mg2 O44 2.004879 1_555
Mg2 O46 2.004879 1_455
Mg2 O54 2.308666 1_455
Mg2 O52 2.308666 1_555
Mg3 O37 1.999093 1_544
Mg3 O39 1.999093 1_555
Mg3 O47 2.004879 1_544
Mg3 O45 2.004879 1_555
Mg3 O55 2.308666 1_554
Mg3 O53 2.308666 1_545
Nb0 O28 2.004388 1_555
Nb0 O4 2.014110 1_555
Nb0 O24 2.017213 1_555
Nb0 O0 2.047334 1_555
Nb0 O8 2.104636 1_555
Nb0 O20 2.106515 1_555
Nb0 O12 2.143009 1_555
Nb0 O16 2.153165 1_555
Nb1 O29 2.004388 1_555
Nb1 O5 2.014110 1_565
Nb1 O25 2.017213 1_555
Nb1 O1 2.047334 1_565
Nb1 O9 2.104636 1_455
Nb1 O21 2.106515 1_555
Nb1 O13 2.143009 1_455
Nb1 O17 2.153165 1_555
Nb2 O30 2.004388 1_555
Nb2 O6 2.014110 1_555
Nb2 O26 2.017213 1_555
Nb2 O2 2.047334 1_555
Nb2 O10 2.104636 1_555
Nb2 O22 2.106515 1_555
Nb2 O14 2.143009 1_555
Nb2 O18 2.153165 1_555
Nb3 O31 2.004388 1_555
Nb3 O7 2.014110 1_545
Nb3 O27 2.017213 1_555
Nb3 O3 2.047334 1_545
Nb3 O11 2.104636 1_655
Nb3 O23 2.106515 1_555
Nb3 O15 2.143009 1_655
Nb3 O19 2.153165 1_555
O0 O4 1.434270 1_555
O1 O5 1.434270 1_555
O2 O6 1.434270 1_555
O3 O7 1.434270 1_555
O10 O14 1.365182 1_555
O11 O15 1.365182 1_555
O12 O8 1.365182 1_555
O13 O9 1.365182 1_555
O16 O20 1.356053 1_555
O17 O21 1.356053 1_555
O18 O22 1.356053 1_555
O19 O23 1.356053 1_555
O24 O28 1.455933 1_555
O25 O29 1.455933 1_555
O26 O30 1.455933 1_555
O27 O31 1.455933 1_555
O32 O48 1.287354 1_555
O33 O49 1.287354 1_555
O34 O50 1.287354 1_555
O35 O51 1.287354 1_555
O36 O46 1.379378 1_555
O37 O47 1.379378 1_555
O38 O44 1.379378 1_555
O39 O45 1.379378 1_555
O52 O59 1.239445 1_555
O53 O58 1.239445 1_555
O54 O57 1.239445 1_555
O55 O56 1.239445 1_555
