# generated using pymatgen
data_K2Li14Zr3O14
_symmetry_space_group_name_H-M   'P 1'
_cell_length_a   8.31551793
_cell_length_b   8.31551793
_cell_length_c   8.31551793
_cell_angle_alpha   127.47877281
_cell_angle_beta   123.25099623
_cell_angle_gamma   80.98023154
_symmetry_Int_Tables_number   1
_chemical_formula_structural   K2Li14Zr3O14
_chemical_formula_sum   'K2 Li14 Zr3 O14'
_cell_volume   367.80077591
_cell_formula_units_Z   1
loop_
 _symmetry_equiv_pos_site_id
 _symmetry_equiv_pos_as_xyz
  1  'x, y, z'
loop_
 _atom_site_type_symbol
 _atom_site_label
 _atom_site_symmetry_multiplicity
 _atom_site_fract_x
 _atom_site_fract_y
 _atom_site_fract_z
 _atom_site_occupancy
  K  K0  1  0.50000000  0.75922100  0.25922100  1
  K  K1  1  0.50000000  0.24077900  0.74077900  1
  Li  Li0  1  0.70576600  0.13622300  0.11294300  1
  Li  Li1  1  0.97672000  0.86377700  0.56954300  1
  Li  Li2  1  0.02328000  0.59282300  0.88705700  1
  Li  Li3  1  0.29423400  0.40717700  0.43045700  1
  Li  Li4  1  0.02328000  0.13622300  0.43045700  1
  Li  Li5  1  0.84555200  0.50000000  0.34555200  1
  Li  Li6  1  0.15444800  0.50000000  0.65444800  1
  Li  Li7  1  0.41345400  0.77092400  0.64253000  1
  Li  Li8  1  0.58654600  0.22907600  0.35747000  1
  Li  Li9  1  0.87160600  0.22907600  0.64253000  1
  Li  Li10  1  0.12839400  0.77092400  0.35747000  1
  Li  Li11  1  0.70576600  0.59282300  0.56954300  1
  Li  Li12  1  0.29423400  0.86377700  0.88705700  1
  Li  Li13  1  0.97672000  0.40717700  0.11294300  1
  Zr  Zr0  1  0.00000000  0.00000000  0.00000000  1
  Zr  Zr1  1  0.27214800  0.27214800  0.00000000  1
  Zr  Zr2  1  0.72785200  0.72785200  0.00000000  1
  O  O0  1  0.05172100  0.87243000  0.17929100  1
  O  O1  1  0.42065900  0.62933700  0.79132200  1
  O  O2  1  0.83801500  0.62933700  0.20867800  1
  O  O3  1  0.57934100  0.37066300  0.20867800  1
  O  O4  1  0.16198500  0.37066300  0.79132200  1
  O  O5  1  0.74466500  0.03041600  0.28575100  1
  O  O6  1  0.25533500  0.54108700  0.28575100  1
  O  O7  1  0.25533500  0.96958400  0.71424900  1
  O  O8  1  0.74466500  0.45891300  0.71424900  1
  O  O9  1  0.00000000  0.71225700  0.71225700  1
  O  O10  1  0.00000000  0.28774300  0.28774300  1
  O  O11  1  0.69313900  0.87243000  0.82070900  1
  O  O12  1  0.30686100  0.12757000  0.17929100  1
  O  O13  1  0.94827900  0.12757000  0.82070900  1
loop_
_geom_bond_atom_site_label_1
_geom_bond_atom_site_label_2
_geom_bond_distance
_geom_bond_site_symmetry_2
K0 O2 3.005791 1_555
K0 O1 3.005791 1_554
K0 O3 3.005791 1_555
K0 O4 3.005791 1_554
K0 O6 3.100718 1_555
K0 O5 3.100724 1_565
K1 O1 3.005791 1_555
K1 O2 3.005791 1_556
K1 O4 3.005791 1_555
K1 O3 3.005791 1_556
K1 O8 3.100718 1_555
K1 O7 3.100724 1_545
Li0 O5 1.970613 1_555
Li0 O3 1.981413 1_555
Li0 O11 2.008367 1_544
Li0 O10 2.127102 1_655
Li1 O7 1.970613 1_655
Li1 O2 1.981413 1_555
Li1 O13 2.008367 1_565
Li1 O9 2.127102 1_655
Li2 O8 1.970616 1_455
Li2 O4 1.981413 1_555
Li2 O0 2.008367 1_556
Li2 O9 2.127102 1_555
Li3 O6 1.970621 1_555
Li3 O1 1.981413 1_555
Li3 O12 2.008367 1_555
Li3 O10 2.127102 1_555
Li4 O5 1.970613 1_455
Li4 O4 1.981413 1_555
Li4 O0 2.008367 1_545
Li4 O10 2.127102 1_555
Li5 O2 1.961223 1_555
Li5 O3 1.961223 1_555
Li5 O9 1.982322 1_655
Li5 O10 1.982322 1_655
Li6 O1 1.961223 1_555
Li6 O4 1.961223 1_555
Li6 O9 1.982322 1_555
Li6 O10 1.982322 1_555
Li7 O11 1.905652 1_555
Li7 O6 1.947660 1_555
Li7 O7 1.947661 1_555
Li7 O1 2.142429 1_555
Li8 O12 1.905652 1_555
Li8 O8 1.947660 1_555
Li8 O5 1.947661 1_555
Li8 O3 2.142429 1_555
Li9 O13 1.905652 1_555
Li9 O8 1.947656 1_555
Li9 O5 1.947661 1_555
Li9 O4 2.142429 1_655
Li10 O0 1.905652 1_555
Li10 O6 1.947656 1_555
Li10 O7 1.947661 1_555
Li10 O2 2.142429 1_455
Li11 O8 1.970621 1_555
Li11 O3 1.981413 1_555
Li11 O11 2.008367 1_555
Li11 O9 2.127102 1_655
Li12 O7 1.970613 1_555
Li12 O1 1.981413 1_555
Li12 O12 2.008367 1_566
Li12 O9 2.127102 1_555
Li13 O6 1.970616 1_655
Li13 O2 1.981413 1_555
Li13 O13 2.008367 1_554
Li13 O10 2.127102 1_655
O0 Zr0 2.147441 1_565
O0 Zr2 2.313436 1_455
O1 Zr2 2.067083 1_556
O2 Zr2 2.067083 1_555
O3 Zr1 2.067083 1_555
O4 Zr1 2.067083 1_556
O5 Zr2 2.113420 1_545
O6 Zr1 2.113423 1_555
O7 Zr1 2.113420 1_566
O8 Zr2 2.113423 1_556
O9 Zr0 2.117352 1_566
O10 Zr0 2.117352 1_555
O11 Zr0 2.147441 1_666
O11 Zr2 2.313436 1_556
O12 Zr0 2.147441 1_555
O12 Zr1 2.313436 1_555
O13 Zr0 2.147441 1_656
O13 Zr1 2.313436 1_656
