# generated using pymatgen
data_Li3Mn2CoO6
_symmetry_space_group_name_H-M   'P 1'
_cell_length_a   2.86416829
_cell_length_b   9.82105564
_cell_length_c   8.25157341
_cell_angle_alpha   95.26322624
_cell_angle_beta   99.65555106
_cell_angle_gamma   90.52729574
_symmetry_Int_Tables_number   1
_chemical_formula_structural   Li3Mn2CoO6
_chemical_formula_sum   'Li6 Mn4 Co2 O12'
_cell_volume   227.78545207
_cell_formula_units_Z   2
loop_
 _symmetry_equiv_pos_site_id
 _symmetry_equiv_pos_as_xyz
  1  'x, y, z'
loop_
 _atom_site_type_symbol
 _atom_site_label
 _atom_site_symmetry_multiplicity
 _atom_site_fract_x
 _atom_site_fract_y
 _atom_site_fract_z
 _atom_site_occupancy
  Li  Li0  1  0.24723700  0.24618600  0.49396500  1
  Li  Li1  1  0.75279000  0.75382100  0.50604200  1
  Li  Li2  1  0.58331400  0.24466800  0.15806500  1
  Li  Li3  1  0.07706700  0.74450300  0.15752600  1
  Li  Li4  1  0.92296600  0.25549400  0.84247200  1
  Li  Li5  1  0.41671100  0.75533100  0.84193700  1
  Mn  Mn0  1  0.66400300  0.99542100  0.32810700  1
  Mn  Mn1  1  0.33603700  0.00457600  0.67189000  1
  Mn  Mn2  1  0.16584700  0.49424200  0.32825800  1
  Mn  Mn3  1  0.83410200  0.50576400  0.67174200  1
  Co  Co0  1  0.00002100  0.99999800  0.00000000  1
  Co  Co1  1  0.49998600  0.49999800  0.00000000  1
  O  O0  1  0.46929000  0.11247500  0.92913400  1
  O  O1  1  0.93346800  0.62219700  0.92893100  1
  O  O2  1  0.06652400  0.37780000  0.07107000  1
  O  O3  1  0.53075100  0.88752100  0.07086400  1
  O  O4  1  0.13185500  0.11230700  0.25635400  1
  O  O5  1  0.62636500  0.60644000  0.24465500  1
  O  O6  1  0.37353900  0.39356400  0.75534200  1
  O  O7  1  0.86818900  0.88768900  0.74364400  1
  O  O8  1  0.80178200  0.11920500  0.59520500  1
  O  O9  1  0.29631700  0.61732300  0.58965000  1
  O  O10  1  0.70357400  0.38268300  0.41035100  1
  O  O11  1  0.19826700  0.88079400  0.40479700  1
loop_
_geom_bond_atom_site_label_1
_geom_bond_atom_site_label_2
_geom_bond_distance
_geom_bond_site_symmetry_2
Li0 O8 2.097689 1_455
Li0 O10 2.102699 1_555
Li0 O10 2.132017 1_455
Li0 O8 2.135024 1_555
Li0 O4 2.232464 1_555
Li0 O6 2.456305 1_555
Li1 O11 2.097705 1_655
Li1 O9 2.102942 1_555
Li1 O9 2.131745 1_655
Li1 O11 2.134945 1_555
Li1 O7 2.232350 1_555
Li1 O5 2.456384 1_555
Li2 O2 2.065709 1_555
Li2 O4 2.129285 1_555
Li2 O2 2.147661 1_655
Li2 O4 2.149316 1_655
Li2 O0 2.167015 1_554
Li2 O10 2.350063 1_555
Li3 O5 2.116546 1_455
Li3 O1 2.117775 1_454
Li3 O3 2.152935 1_555
Li3 O5 2.160861 1_555
Li3 O3 2.186784 1_455
Li3 O11 2.308262 1_555
Li4 O6 2.116352 1_655
Li4 O2 2.117791 1_656
Li4 O0 2.152926 1_555
Li4 O6 2.161159 1_555
Li4 O0 2.186806 1_655
Li4 O8 2.308226 1_555
Li5 O1 2.065657 1_555
Li5 O7 2.129320 1_555
Li5 O1 2.147735 1_455
Li5 O7 2.149271 1_455
Li5 O3 2.166974 1_556
Li5 O9 2.350033 1_555
Mn0 O4 1.956136 1_665
Mn0 O11 1.957912 1_555
Mn0 O4 1.961015 1_565
Mn0 O11 1.961361 1_655
Mn0 O3 2.254421 1_555
Mn0 O8 2.387259 1_565
Mn1 O7 1.956138 1_445
Mn1 O8 1.957923 1_555
Mn1 O7 1.961031 1_545
Mn1 O8 1.961344 1_455
Mn1 O0 2.254425 1_555
Mn1 O11 2.387215 1_545
Mn2 O10 1.955156 1_455
Mn2 O5 1.961580 1_555
Mn2 O10 1.961772 1_555
Mn2 O5 1.972527 1_455
Mn2 O2 2.288823 1_555
Mn2 O9 2.344352 1_555
Mn3 O9 1.955031 1_655
Mn3 O6 1.961673 1_555
Mn3 O9 1.961891 1_555
Mn3 O6 1.972438 1_655
Mn3 O1 2.288789 1_555
Mn3 O10 2.344345 1_555
Co0 O3 1.929635 1_455
Co0 O0 1.929641 1_564
Co0 O3 1.929793 1_555
Co0 O0 1.929799 1_464
Co0 O4 2.264975 1_565
Co0 O7 2.264989 1_454
Co1 O2 1.916103 1_555
Co1 O1 1.916146 1_554
Co1 O1 2.064656 1_454
Co1 O2 2.064694 1_655
Co1 O6 2.158710 1_554
Co1 O5 2.158718 1_555
