# generated using pymatgen
data_Ca2Mn3O8
_symmetry_space_group_name_H-M   'P 1'
_cell_length_a   5.98283100
_cell_length_b   5.98283107
_cell_length_c   10.54223900
_cell_angle_alpha   90.00000000
_cell_angle_beta   90.00000000
_cell_angle_gamma   119.99999409
_symmetry_Int_Tables_number   1
_chemical_formula_structural   Ca2Mn3O8
_chemical_formula_sum   'Ca4 Mn6 O16'
_cell_volume   326.79619467
_cell_formula_units_Z   2
loop_
 _symmetry_equiv_pos_site_id
 _symmetry_equiv_pos_as_xyz
  1  'x, y, z'
loop_
 _atom_site_type_symbol
 _atom_site_label
 _atom_site_symmetry_multiplicity
 _atom_site_fract_x
 _atom_site_fract_y
 _atom_site_fract_z
 _atom_site_occupancy
  Ca  Ca0  1  0.66666700  0.33333400  0.02666100  1
  Ca  Ca1  1  0.33333300  0.66666600  0.52666200  1
  Ca  Ca2  1  0.66666700  0.33333400  0.43067700  1
  Ca  Ca3  1  0.33333300  0.66666600  0.93067800  1
  Mn  Mn0  1  0.67118600  0.83559300  0.24587000  1
  Mn  Mn1  1  0.83559400  0.16440800  0.74587000  1
  Mn  Mn2  1  0.16440800  0.32881500  0.24587000  1
  Mn  Mn3  1  0.83559200  0.67118600  0.74587000  1
  Mn  Mn4  1  0.32881500  0.16440800  0.74587000  1
  Mn  Mn5  1  0.16440800  0.83559300  0.24587000  1
  O  O0  1  0.84560800  0.15439300  0.15515100  1
  O  O1  1  0.69121500  0.84560800  0.65515000  1
  O  O2  1  0.15439300  0.30878600  0.65515000  1
  O  O3  1  0.84560700  0.69121500  0.15515100  1
  O  O4  1  0.30878500  0.15439300  0.15515100  1
  O  O5  1  0.15439300  0.84560800  0.65515000  1
  O  O6  1  0.52211700  0.47788200  0.84752600  1
  O  O7  1  0.04423500  0.52211700  0.34752500  1
  O  O8  1  0.47788300  0.95576600  0.34752500  1
  O  O9  1  0.52211700  0.04423500  0.84752600  1
  O  O10  1  0.00000000  0.00000000  0.34142900  1
  O  O11  1  0.00000000  0.00000000  0.84142900  1
  O  O12  1  0.33333300  0.66666600  0.14909500  1
  O  O13  1  0.95576400  0.47788200  0.84752600  1
  O  O14  1  0.47788200  0.52211700  0.34752500  1
  O  O15  1  0.66666700  0.33333400  0.64909500  1
loop_
_geom_bond_atom_site_label_1
_geom_bond_atom_site_label_2
_geom_bond_distance
_geom_bond_site_symmetry_2
Ca0 O3 2.296352 1_555
Ca0 O0 2.296356 1_555
Ca0 O4 2.296356 1_555
Ca0 O13 2.410406 1_554
Ca0 O6 2.410409 1_554
Ca0 O9 2.410412 1_554
Ca1 O2 2.296335 1_555
Ca1 O5 2.296343 1_555
Ca1 O1 2.296344 1_555
Ca1 O14 2.410426 1_555
Ca1 O7 2.410426 1_555
Ca1 O8 2.410432 1_555
Ca2 O14 2.143712 1_555
Ca2 O7 2.143712 1_655
Ca2 O8 2.143712 1_545
Ca2 O15 2.302615 1_555
Ca3 O6 2.143712 1_555
Ca3 O13 2.143717 1_455
Ca3 O9 2.143717 1_565
Ca3 O12 2.302604 1_556
Mn0 O3 1.910797 1_555
Mn0 O0 1.910802 1_565
Mn0 O8 1.958159 1_555
Mn0 O14 1.958160 1_555
Mn0 O10 1.979239 1_665
Mn0 O12 2.026118 1_555
Mn1 O2 1.910803 1_655
Mn1 O1 1.910807 1_545
Mn1 O13 1.958158 1_555
Mn1 O9 1.958170 1_555
Mn1 O11 1.979239 1_655
Mn1 O15 2.026118 1_555
Mn2 O4 1.910797 1_555
Mn2 O0 1.910802 1_455
Mn2 O14 1.958151 1_555
Mn2 O7 1.958155 1_555
Mn2 O10 1.979244 1_555
Mn2 O12 2.026109 1_555
Mn3 O1 1.910803 1_555
Mn3 O5 1.910812 1_655
Mn3 O6 1.958162 1_555
Mn3 O13 1.958166 1_555
Mn3 O11 1.979239 1_665
Mn3 O15 2.026113 1_555
Mn4 O2 1.910807 1_555
Mn4 O5 1.910807 1_545
Mn4 O6 1.958157 1_555
Mn4 O9 1.958160 1_555
Mn4 O11 1.979244 1_555
Mn4 O15 2.026113 1_555
Mn5 O4 1.910802 1_565
Mn5 O3 1.910807 1_455
Mn5 O8 1.958155 1_555
Mn5 O7 1.958159 1_555
Mn5 O10 1.979243 1_565
Mn5 O12 2.026113 1_555
