# generated using pymatgen
data_Ho2Fe17C
_symmetry_space_group_name_H-M   'P 1'
_cell_length_a   6.44943430
_cell_length_b   6.44943430
_cell_length_c   6.40582529
_cell_angle_alpha   83.18539419
_cell_angle_beta   83.18539419
_cell_angle_gamma   83.67792809
_symmetry_Int_Tables_number   1
_chemical_formula_structural   Ho2Fe17C
_chemical_formula_sum   'Ho2 Fe17 C1'
_cell_volume   261.45080387
_cell_formula_units_Z   1
loop_
 _symmetry_equiv_pos_site_id
 _symmetry_equiv_pos_as_xyz
  1  'x, y, z'
loop_
 _atom_site_type_symbol
 _atom_site_label
 _atom_site_symmetry_multiplicity
 _atom_site_fract_x
 _atom_site_fract_y
 _atom_site_fract_z
 _atom_site_occupancy
  Ho  Ho0  1  0.33942100  0.33942100  0.34718600  1
  Ho  Ho1  1  0.66057900  0.66057900  0.65281400  1
  Fe  Fe0  1  0.71457500  0.28542500  0.00000000  1
  Fe  Fe1  1  0.29107800  0.99992200  0.70826800  1
  Fe  Fe2  1  0.00007800  0.70892200  0.29173200  1
  Fe  Fe3  1  0.70892200  0.00007800  0.29173200  1
  Fe  Fe4  1  0.99992200  0.29107800  0.70826800  1
  Fe  Fe5  1  0.28542500  0.71457500  0.00000000  1
  Fe  Fe6  1  0.09691500  0.09691500  0.09689400  1
  Fe  Fe7  1  0.90308500  0.90308500  0.90310600  1
  Fe  Fe8  1  0.00000000  0.00000000  0.50000000  1
  Fe  Fe9  1  0.00000000  0.50000000  0.00000000  1
  Fe  Fe10  1  0.50000000  0.00000000  0.00000000  1
  Fe  Fe11  1  0.15077200  0.65816700  0.65675400  1
  Fe  Fe12  1  0.65743500  0.65743500  0.15124700  1
  Fe  Fe13  1  0.65816700  0.15077200  0.65675400  1
  Fe  Fe14  1  0.84922800  0.34183300  0.34324600  1
  Fe  Fe15  1  0.34256500  0.34256500  0.84875300  1
  Fe  Fe16  1  0.34183300  0.84922800  0.34324600  1
  C  C0  1  0.50000000  0.50000000  0.00000000  1
loop_
_geom_bond_atom_site_label_1
_geom_bond_atom_site_label_2
_geom_bond_distance
_geom_bond_site_symmetry_2
Fe0 Fe10 2.421744 1_555
Fe0 Fe9 2.421744 1_655
Fe0 Fe3 2.462302 1_555
Fe0 Fe4 2.462302 1_554
Fe0 Fe14 2.536474 1_555
Fe0 Fe13 2.536474 1_554
Fe0 Fe7 2.732729 1_544
Fe0 Fe6 2.732729 1_655
Fe1 Fe8 2.428602 1_565
Fe1 Fe10 2.430198 1_566
Fe1 Fe5 2.462302 1_556
Fe1 Fe4 2.505121 1_465
Fe1 Fe11 2.543350 1_555
Fe1 Fe15 2.551088 1_565
Fe1 Fe16 2.608987 1_555
Fe1 Fe13 2.627973 1_565
Fe1 Fe6 2.759370 1_566
Fe1 Fe7 2.761796 1_455
Fe1 Ho0 3.003143 1_565
Fe1 Ho1 3.070835 1_555
Fe2 Fe8 2.428602 1_565
Fe2 Fe9 2.430198 1_555
Fe2 Fe5 2.462302 1_555
Fe2 Fe3 2.505121 1_465
Fe2 Fe7 2.759370 1_454
Fe2 Fe6 2.761796 1_565
Fe2 Ho1 3.003143 1_455
Fe2 Ho0 3.070835 1_555
Fe3 Fe8 2.428602 1_655
Fe3 Fe7 2.759370 1_544
Fe3 Fe6 2.761796 1_655
Fe3 Ho1 3.003143 1_545
Fe3 Ho0 3.070835 1_555
Fe4 Fe8 2.428602 1_655
Fe4 Fe9 2.430198 1_656
Fe4 Fe6 2.759370 1_656
Fe4 Fe7 2.761796 1_545
Fe4 Ho0 3.003143 1_655
Fe4 Ho1 3.070835 1_555
Fe5 Fe9 2.421744 1_555
Fe5 Fe7 2.732729 1_454
Fe5 Fe6 2.732729 1_565
Fe6 Fe7 2.397329 1_444
Fe6 Fe8 2.601778 1_555
Fe6 Fe9 2.624024 1_555
Fe6 Ho0 3.031822 1_555
Fe7 Fe8 2.601778 1_665
Fe7 Fe9 2.624024 1_656
Fe7 Ho1 3.031822 1_555
Fe8 Ho0 3.252788 1_555
Fe8 Ho1 3.252788 1_445
Fe9 Ho1 3.304589 1_454
Fe9 Ho0 3.304589 1_555
Fe10 Fe5 2.421744 1_545
Fe10 Fe3 2.430198 1_555
Fe10 Fe16 2.449391 1_545
Fe10 Fe13 2.449391 1_554
Fe10 Fe12 2.466235 1_545
Fe10 Fe15 2.466235 1_554
Fe10 Fe6 2.624024 1_555
Fe10 Fe7 2.624024 1_544
Fe10 Ho1 3.304589 1_544
Fe10 Ho0 3.304589 1_555
Fe11 Fe9 2.449391 1_556
Fe11 Fe8 2.459363 1_565
Fe11 Fe16 2.495965 1_555
Fe11 Fe15 2.529478 1_555
Fe11 Fe5 2.536474 1_556
Fe11 Fe2 2.608987 1_555
Fe11 Fe4 2.627973 1_455
Fe11 Fe7 2.640995 1_455
Fe11 Ho0 3.079415 1_555
Fe11 Ho1 3.162873 1_455
Fe11 Ho1 3.286804 1_555
Fe12 Fe9 2.466235 1_655
Fe12 Fe16 2.529478 1_555
Fe12 Fe14 2.529478 1_555
Fe12 Fe2 2.551088 1_655
Fe12 Fe3 2.551088 1_565
Fe12 Fe7 2.627588 1_554
Fe13 Fe8 2.459363 1_655
Fe13 Fe14 2.495965 1_555
Fe13 Fe15 2.529478 1_555
Fe13 Fe4 2.543350 1_555
Fe13 Fe3 2.608987 1_555
Fe13 Fe7 2.640995 1_545
Fe13 Ho0 3.079415 1_555
Fe13 Ho1 3.162873 1_545
Fe13 Ho1 3.286804 1_555
Fe14 Fe9 2.449391 1_655
Fe14 Fe8 2.459363 1_655
Fe14 Fe3 2.543350 1_555
Fe14 Fe4 2.608987 1_555
Fe14 Fe2 2.627973 1_655
Fe14 Fe6 2.640995 1_655
Fe14 Ho1 3.079415 1_555
Fe14 Ho0 3.162873 1_655
Fe14 Ho0 3.286804 1_555
Fe15 Fe9 2.466235 1_556
Fe15 Fe4 2.551088 1_455
Fe15 Fe6 2.627588 1_556
Fe16 Fe8 2.459363 1_565
Fe16 Fe5 2.536474 1_555
Fe16 Fe2 2.543350 1_555
Fe16 Fe3 2.627973 1_565
Fe16 Fe6 2.640995 1_565
Fe16 Ho1 3.079415 1_555
Fe16 Ho0 3.162873 1_565
Fe16 Ho0 3.286804 1_555
C0 Fe5 1.846214 1_555
C0 Fe0 1.846214 1_555
C0 Fe12 1.922135 1_555
C0 Fe15 1.922135 1_554
C0 Ho0 2.496870 1_555
C0 Ho1 2.496870 1_554
