# generated using pymatgen
data_La2MgFe2(TeO6)2
_symmetry_space_group_name_H-M   'P 1'
_cell_length_a   5.46632088
_cell_length_b   5.43672305
_cell_length_c   10.10078930
_cell_angle_alpha   89.77354558
_cell_angle_beta   89.83724697
_cell_angle_gamma   60.06221905
_symmetry_Int_Tables_number   1
_chemical_formula_structural   La2MgFe2(TeO6)2
_chemical_formula_sum   'La2 Mg1 Fe2 Te2 O12'
_cell_volume   260.12770502
_cell_formula_units_Z   1
loop_
 _symmetry_equiv_pos_site_id
 _symmetry_equiv_pos_as_xyz
  1  'x, y, z'
loop_
 _atom_site_type_symbol
 _atom_site_label
 _atom_site_symmetry_multiplicity
 _atom_site_fract_x
 _atom_site_fract_y
 _atom_site_fract_z
 _atom_site_occupancy
  La  La0  1  0.99957800  0.99898000  0.49835800  1
  La  La1  1  0.00104800  0.99883800  0.99458700  1
  Mg  Mg0  1  0.66612900  0.66748200  0.01881700  1
  Fe  Fe0  1  0.32766400  0.33548100  0.75722300  1
  Fe  Fe1  1  0.66780200  0.66569300  0.28238800  1
  Te  Te0  1  0.66729900  0.66558600  0.73854300  1
  Te  Te1  1  0.33331000  0.33272600  0.24078800  1
  O  O0  1  0.97814200  0.37376100  0.64201800  1
  O  O1  1  0.64791700  0.97607200  0.64091400  1
  O  O2  1  0.37254800  0.64341700  0.64570400  1
  O  O3  1  0.61320300  0.01116600  0.13012600  1
  O  O4  1  0.37523200  0.61443700  0.13021000  1
  O  O5  1  0.01087600  0.37573700  0.13048500  1
  O  O6  1  0.04127200  0.62646300  0.34982000  1
  O  O7  1  0.33217400  0.03792500  0.34979200  1
  O  O8  1  0.62698500  0.33030200  0.34997300  1
  O  O9  1  0.39462400  0.95804400  0.86715500  1
  O  O10  1  0.65472900  0.39588300  0.87085900  1
  O  O11  1  0.95196800  0.65450700  0.86848800  1
loop_
_geom_bond_atom_site_label_1
_geom_bond_atom_site_label_2
_geom_bond_distance
_geom_bond_site_symmetry_2
La0 O6 2.442557 1_655
La0 O7 2.443020 1_665
La0 O8 2.444071 1_565
La0 O1 2.450699 1_555
La0 O0 2.460731 1_565
La0 O2 2.483807 1_655
La1 O10 2.391372 1_465
La1 O11 2.391836 1_455
La1 O9 2.417607 1_555
La1 O4 2.480846 1_556
La1 O3 2.493183 1_466
La1 O5 2.493682 1_566
Mg0 O3 2.077092 1_565
Mg0 O4 2.079103 1_555
Mg0 O5 2.086597 1_655
Mg0 O10 2.127811 1_554
Mg0 O11 2.151596 1_554
Mg0 O9 2.167616 1_554
Fe0 O2 2.127291 1_555
Fe0 O0 2.159085 1_455
Fe0 O9 2.193712 1_545
Fe0 O1 2.203441 1_545
Fe0 O11 2.221706 1_455
Fe0 O10 2.285243 1_555
Fe1 O7 2.054966 1_565
Fe1 O8 2.058171 1_555
Fe1 O6 2.061386 1_655
Fe1 O3 2.324320 1_565
Fe1 O5 2.325559 1_655
Fe1 O4 2.336721 1_555
O0 Te0 1.914941 1_555
O1 Te0 1.908413 1_555
O2 Te0 1.921764 1_555
O3 Te1 1.995641 1_555
O4 Te1 1.995276 1_555
O5 Te1 2.000058 1_555
O6 Te1 1.941893 1_555
O7 Te1 1.943465 1_555
O8 Te1 1.944826 1_555
O9 Te0 2.019223 1_555
O10 Te0 2.006372 1_555
O11 Te0 2.016248 1_555
