# generated using pymatgen
data_SnPO4
_symmetry_space_group_name_H-M   'P 1'
_cell_length_a   15.55415400
_cell_length_b   4.38565800
_cell_length_c   5.09948484
_cell_angle_alpha   89.21810146
_cell_angle_beta   90.00000000
_cell_angle_gamma   90.00000000
_symmetry_Int_Tables_number   1
_chemical_formula_structural   SnPO4
_chemical_formula_sum   'Sn4 P4 O16'
_cell_volume   347.82998656
_cell_formula_units_Z   4
loop_
 _symmetry_equiv_pos_site_id
 _symmetry_equiv_pos_as_xyz
  1  'x, y, z'
loop_
 _atom_site_type_symbol
 _atom_site_label
 _atom_site_symmetry_multiplicity
 _atom_site_fract_x
 _atom_site_fract_y
 _atom_site_fract_z
 _atom_site_occupancy
  Sn  Sn0  1  0.33354300  0.07385100  0.58131000  1
  Sn  Sn1  1  0.83354300  0.92614900  0.91869000  1
  Sn  Sn2  1  0.66645700  0.92614900  0.41869000  1
  Sn  Sn3  1  0.16645700  0.07385100  0.08131000  1
  P  P0  1  0.34873100  0.57480100  0.08270100  1
  P  P1  1  0.84873100  0.42519900  0.41729900  1
  P  P2  1  0.65126900  0.42519900  0.91729900  1
  P  P3  1  0.15126900  0.57480100  0.58270100  1
  O  O0  1  0.29062500  0.32795100  0.94147300  1
  O  O1  1  0.79062500  0.67204900  0.55852700  1
  O  O2  1  0.70937500  0.67204900  0.05852700  1
  O  O3  1  0.20937500  0.32795100  0.44147300  1
  O  O4  1  0.40176600  0.41630300  0.30086200  1
  O  O5  1  0.90176600  0.58369700  0.19913800  1
  O  O6  1  0.59823400  0.58369700  0.69913800  1
  O  O7  1  0.09823400  0.41630300  0.80086200  1
  O  O8  1  0.40100500  0.74009200  0.86735800  1
  O  O9  1  0.90100500  0.25990800  0.63264200  1
  O  O10  1  0.59899500  0.25990800  0.13264200  1
  O  O11  1  0.09899500  0.74009200  0.36735800  1
  O  O12  1  0.28803900  0.81380500  0.22488700  1
  O  O13  1  0.78803900  0.18619500  0.27511300  1
  O  O14  1  0.71196100  0.18619500  0.77511300  1
  O  O15  1  0.21196100  0.81380500  0.72488700  1
loop_
_geom_bond_atom_site_label_1
_geom_bond_atom_site_label_2
_geom_bond_distance
_geom_bond_site_symmetry_2
O0 P0 1.590224 1_556
O0 Sn0 2.261998 1_555
O0 Sn3 2.336391 1_556
O1 P1 1.590224 1_555
O1 Sn1 2.261998 1_555
O1 Sn2 2.336391 1_555
O2 P2 1.590224 1_554
O2 Sn2 2.261998 1_555
O2 Sn1 2.336391 1_554
O3 P3 1.590224 1_555
O3 Sn3 2.261998 1_555
O3 Sn0 2.336391 1_555
O4 P0 1.542804 1_555
O4 Sn0 2.316971 1_555
O5 P1 1.542804 1_555
O5 Sn1 2.316971 1_554
O6 P2 1.542804 1_555
O6 Sn2 2.316971 1_555
O7 P3 1.542804 1_555
O7 Sn3 2.316971 1_556
O8 P0 1.539731 1_556
O8 Sn0 2.305029 1_565
O9 P1 1.539731 1_555
O9 Sn1 2.305029 1_545
O10 P2 1.539731 1_554
O10 Sn2 2.305029 1_545
O11 P3 1.539731 1_555
O11 Sn3 2.305029 1_565
O12 P0 1.592589 1_555
O12 Sn0 2.271954 1_565
O12 Sn3 2.321689 1_565
O13 P1 1.592589 1_555
O13 Sn1 2.271954 1_544
O13 Sn2 2.321689 1_545
O14 P2 1.592589 1_555
O14 Sn2 2.271954 1_545
O14 Sn1 2.321689 1_545
O15 P3 1.592589 1_555
O15 Sn3 2.271954 1_566
O15 Sn0 2.321689 1_565
