# generated using pymatgen
data_CuGe7N10
_symmetry_space_group_name_H-M   'P 1'
_cell_length_a   6.99857280
_cell_length_b   7.37824100
_cell_length_c   10.26334513
_cell_angle_alpha   90.00000000
_cell_angle_beta   102.83117220
_cell_angle_gamma   90.00000000
_symmetry_Int_Tables_number   1
_chemical_formula_structural   CuGe7N10
_chemical_formula_sum   'Cu2 Ge14 N20'
_cell_volume   516.73590945
_cell_formula_units_Z   2
loop_
 _symmetry_equiv_pos_site_id
 _symmetry_equiv_pos_as_xyz
  1  'x, y, z'
loop_
 _atom_site_type_symbol
 _atom_site_label
 _atom_site_symmetry_multiplicity
 _atom_site_fract_x
 _atom_site_fract_y
 _atom_site_fract_z
 _atom_site_occupancy
  Cu  Cu0  1  0.94944400  0.89697800  0.67288900  1
  Cu  Cu1  1  0.94944400  0.10302200  0.17288900  1
  Ge  Ge0  1  0.54972200  0.98093500  0.82351500  1
  Ge  Ge1  1  0.54972200  0.01906500  0.32351500  1
  Ge  Ge2  1  0.34137500  0.01722700  0.02415400  1
  Ge  Ge3  1  0.34137500  0.98277300  0.52415400  1
  Ge  Ge4  1  0.11744500  0.39600200  0.07316400  1
  Ge  Ge5  1  0.11744500  0.60399800  0.57316400  1
  Ge  Ge6  1  0.65741700  0.35760200  0.99162400  1
  Ge  Ge7  1  0.65741700  0.64239800  0.49162400  1
  Ge  Ge8  1  0.84639300  0.61755400  0.81382200  1
  Ge  Ge9  1  0.84639300  0.38244600  0.31382200  1
  Ge  Ge10  1  0.30435500  0.62696200  0.88182200  1
  Ge  Ge11  1  0.30435500  0.37303800  0.38182200  1
  Ge  Ge12  1  0.48893700  0.36475900  0.68630900  1
  Ge  Ge13  1  0.48893700  0.63524100  0.18630900  1
  N  N0  1  0.76949400  0.85830000  0.79941800  1
  N  N1  1  0.76949400  0.14170000  0.29941800  1
  N  N2  1  0.55467100  0.13197500  0.97250900  1
  N  N3  1  0.55467100  0.86802500  0.47250900  1
  N  N4  1  0.32418900  0.87264300  0.86870900  1
  N  N5  1  0.32418900  0.12735700  0.36870900  1
  N  N6  1  0.12970600  0.14748400  0.04930700  1
  N  N7  1  0.12970600  0.85251600  0.54930700  1
  N  N8  1  0.29312300  0.51235300  0.72171100  1
  N  N9  1  0.29312300  0.48764700  0.22171100  1
  N  N10  1  0.44787000  0.12113100  0.67433300  1
  N  N11  1  0.44787000  0.87886900  0.17433300  1
  N  N12  1  0.88095100  0.37805300  0.13169000  1
  N  N13  1  0.88095100  0.62194700  0.63169000  1
  N  N14  1  0.07833600  0.57414000  0.93994100  1
  N  N15  1  0.07833600  0.42586000  0.43994100  1
  N  N16  1  0.70591500  0.40938000  0.82412200  1
  N  N17  1  0.70591500  0.59062000  0.32412200  1
  N  N18  1  0.50295800  0.54608900  0.02026000  1
  N  N19  1  0.50295800  0.45391100  0.52026000  1
loop_
_geom_bond_atom_site_label_1
_geom_bond_atom_site_label_2
_geom_bond_distance
_geom_bond_site_symmetry_2
Cu0 N7 2.004659 1_655
Cu0 N0 2.019976 1_555
Cu0 N13 2.106272 1_555
Cu1 N6 2.004659 1_655
Cu1 N1 2.019976 1_555
Cu1 N12 2.106272 1_555
Ge0 N0 1.847853 1_555
Ge0 N10 1.854083 1_565
Ge0 N2 1.886257 1_565
Ge0 N4 1.915754 1_555
Ge1 N1 1.847853 1_555
Ge1 N11 1.854083 1_545
Ge1 N3 1.886257 1_545
Ge1 N5 1.915754 1_555
Ge2 N6 1.831568 1_555
Ge2 N11 1.860938 1_545
Ge2 N2 1.891439 1_554
Ge2 N4 1.900659 1_544
Ge3 N7 1.831568 1_555
Ge3 N10 1.860938 1_565
Ge3 N3 1.891439 1_555
Ge3 N5 1.900659 1_565
Ge4 N6 1.854409 1_555
Ge4 N9 1.860292 1_555
Ge4 N14 1.872363 1_554
Ge4 N12 1.886623 1_455
Ge5 N7 1.854409 1_555
Ge5 N8 1.860292 1_555
Ge5 N15 1.872363 1_555
Ge5 N13 1.886623 1_455
Ge6 N2 1.806717 1_555
Ge6 N18 1.824853 1_556
Ge6 N16 1.864331 1_555
Ge6 N12 1.880913 1_556
Ge7 N3 1.806717 1_555
Ge7 N19 1.824853 1_555
Ge7 N17 1.864331 1_555
Ge7 N13 1.880913 1_555
Ge8 N16 1.839315 1_555
Ge8 N0 1.852387 1_555
Ge8 N14 1.865433 1_655
Ge8 N13 1.937671 1_555
Ge9 N17 1.839315 1_555
Ge9 N1 1.852387 1_555
Ge9 N15 1.865433 1_655
Ge9 N12 1.937671 1_555
Ge10 N4 1.825250 1_555
Ge10 N8 1.834180 1_555
Ge10 N14 1.851730 1_555
Ge10 N18 1.851918 1_556
Ge11 N5 1.825250 1_555
Ge11 N9 1.834180 1_555
Ge11 N15 1.851730 1_555
Ge11 N19 1.851918 1_555
Ge12 N10 1.820218 1_555
Ge12 N8 1.848543 1_555
Ge12 N19 1.849580 1_555
Ge12 N16 1.860362 1_555
Ge13 N11 1.820218 1_555
Ge13 N9 1.848543 1_555
Ge13 N18 1.849580 1_555
Ge13 N17 1.860362 1_555
