# generated using pymatgen
data_HgClO6
_symmetry_space_group_name_H-M   'P 1'
_cell_length_a   8.83469600
_cell_length_b   6.13899000
_cell_length_c   12.25781274
_cell_angle_alpha   104.50185298
_cell_angle_beta   111.12292084
_cell_angle_gamma   90.00000000
_symmetry_Int_Tables_number   1
_chemical_formula_structural   HgClO6
_chemical_formula_sum   'Hg4 Cl4 O24'
_cell_volume   597.38363797
_cell_formula_units_Z   4
loop_
 _symmetry_equiv_pos_site_id
 _symmetry_equiv_pos_as_xyz
  1  'x, y, z'
loop_
 _atom_site_type_symbol
 _atom_site_label
 _atom_site_symmetry_multiplicity
 _atom_site_fract_x
 _atom_site_fract_y
 _atom_site_fract_z
 _atom_site_occupancy
  Hg  Hg0  1  0.56897600  0.62031900  0.24063700  1
  Hg  Hg1  1  0.43102400  0.37968100  0.75936300  1
  Hg  Hg2  1  0.17166100  0.12031900  0.24063700  1
  Hg  Hg3  1  0.82833900  0.87968100  0.75936300  1
  Cl  Cl0  1  0.07303700  0.65158000  0.30316000  1
  Cl  Cl1  1  0.92696300  0.34842000  0.69684000  1
  Cl  Cl2  1  0.73012400  0.15158000  0.30316000  1
  Cl  Cl3  1  0.26987600  0.84842000  0.69684000  1
  O  O0  1  0.18100100  0.48670800  0.35761400  1
  O  O1  1  0.81899900  0.12909500  0.64238600  1
  O  O2  1  0.67661300  0.98670800  0.35761400  1
  O  O3  1  0.32338700  0.62909500  0.64238600  1
  O  O4  1  0.81899900  0.51329200  0.64238600  1
  O  O5  1  0.18100100  0.87090500  0.35761400  1
  O  O6  1  0.32338700  0.01329200  0.64238600  1
  O  O7  1  0.67661300  0.37090500  0.35761400  1
  O  O8  1  0.02260400  0.58645400  0.17290700  1
  O  O9  1  0.97739600  0.41354600  0.82709300  1
  O  O10  1  0.65030400  0.08645400  0.17290700  1
  O  O11  1  0.34969600  0.91354600  0.82709300  1
  O  O12  1  0.93671000  0.67100400  0.34200700  1
  O  O13  1  0.06329000  0.32899600  0.65799300  1
  O  O14  1  0.90529700  0.17100400  0.34200700  1
  O  O15  1  0.09470300  0.82899600  0.65799300  1
  O  O16  1  0.32262500  0.55278500  0.10557000  1
  O  O17  1  0.67737500  0.44721500  0.89443000  1
  O  O18  1  0.28294500  0.05278500  0.10557000  1
  O  O19  1  0.71705500  0.94721500  0.89443000  1
  O  O20  1  0.27696400  0.27696400  0.05392900  1
  O  O21  1  0.72303600  0.22303600  0.94607100  1
  O  O22  1  0.27696400  0.77696400  0.05392900  1
  O  O23  1  0.72303600  0.72303600  0.94607100  1
loop_
_geom_bond_atom_site_label_1
_geom_bond_atom_site_label_2
_geom_bond_distance
_geom_bond_site_symmetry_2
Hg0 O16 2.170023 1_555
Hg0 O2 2.328406 1_555
Hg0 O7 2.328416 1_555
Hg1 O17 2.170023 1_555
Hg1 O6 2.328406 1_555
Hg1 O3 2.328416 1_555
Hg2 O18 2.170023 1_555
Hg2 O0 2.328406 1_555
Hg2 O5 2.328416 1_545
Hg3 O19 2.170023 1_555
Hg3 O4 2.328406 1_555
Hg3 O1 2.328416 1_565
Cl0 O8 1.440533 1_555
Cl0 O12 1.441000 1_455
Cl0 O5 1.503076 1_555
Cl0 O0 1.503081 1_555
Cl1 O9 1.440533 1_555
Cl1 O13 1.441000 1_655
Cl1 O1 1.503076 1_555
Cl1 O4 1.503081 1_555
Cl2 O10 1.440533 1_555
Cl2 O14 1.440991 1_555
Cl2 O7 1.503080 1_555
Cl2 O2 1.503085 1_545
Cl3 O11 1.440533 1_555
Cl3 O15 1.440991 1_555
Cl3 O3 1.503080 1_555
Cl3 O6 1.503085 1_565
O16 O22 1.646116 1_555
O16 O20 1.646122 1_555
O17 O21 1.646116 1_555
O17 O23 1.646122 1_555
O18 O20 1.646115 1_555
O18 O22 1.646121 1_545
O19 O23 1.646115 1_555
O19 O21 1.646121 1_565
