# generated using pymatgen
data_HfMg
_symmetry_space_group_name_H-M   'P 1'
_cell_length_a   11.50913028
_cell_length_b   11.50913028
_cell_length_c   11.50912979
_cell_angle_alpha   30.70167065
_cell_angle_beta   30.70167065
_cell_angle_gamma   30.70167479
_symmetry_Int_Tables_number   1
_chemical_formula_structural   HfMg
_chemical_formula_sum   'Hf8 Mg8'
_cell_volume   352.38565048
_cell_formula_units_Z   8
loop_
 _symmetry_equiv_pos_site_id
 _symmetry_equiv_pos_as_xyz
  1  'x, y, z'
loop_
 _atom_site_type_symbol
 _atom_site_label
 _atom_site_symmetry_multiplicity
 _atom_site_fract_x
 _atom_site_fract_y
 _atom_site_fract_z
 _atom_site_occupancy
  Hf  Hf0_0  1  0.00000000  0.00000000  0.00000000  1
  Hf  Hf0_1  1  0.00000000  0.00000000  0.50000000  1
  Hf  Hf0_2  1  0.00000000  0.50000000  0.00000000  1
  Hf  Hf0_3  1  0.00000000  0.50000000  0.50000000  1
  Hf  Hf0_4  1  0.50000000  0.00000000  0.00000000  1
  Hf  Hf0_5  1  0.50000000  0.00000000  0.50000000  1
  Hf  Hf0_6  1  0.50000000  0.50000000  0.00000000  1
  Hf  Hf0_7  1  0.50000000  0.50000000  0.50000000  1
  Mg  Mg0_0  1  0.25000000  0.25000000  0.25000000  1
  Mg  Mg0_1  1  0.25000000  0.25000000  0.75000000  1
  Mg  Mg0_2  1  0.25000000  0.75000000  0.25000000  1
  Mg  Mg0_3  1  0.25000000  0.75000000  0.75000000  1
  Mg  Mg0_4  1  0.75000000  0.25000000  0.25000000  1
  Mg  Mg0_5  1  0.75000000  0.25000000  0.75000000  1
  Mg  Mg0_6  1  0.75000000  0.75000000  0.25000000  1
  Mg  Mg0_7  1  0.75000000  0.75000000  0.75000000  1
loop_
_geom_bond_atom_site_label_1
_geom_bond_atom_site_label_2
_geom_bond_distance
_geom_bond_site_symmetry_2
Hf0_0 Hf0_3 3.046798 1_545
Hf0_0 Hf0_5 3.046798 1_455
Hf0_0 Hf0_5 3.046798 1_554
Hf0_0 Hf0_3 3.046798 1_554
Hf0_0 Hf0_6 3.046798 1_545
Hf0_0 Hf0_6 3.046798 1_455
Hf0_0 Mg0_6 3.255687 1_445
Hf0_0 Mg0_1 3.255687 1_554
Hf0_0 Mg0_2 3.255687 1_545
Hf0_0 Mg0_3 3.255687 1_544
Hf0_0 Mg0_4 3.255687 1_455
Hf0_0 Mg0_5 3.255687 1_454
Hf0_1 Hf0_2 3.046798 1_546
Hf0_1 Hf0_4 3.046798 1_555
Hf0_1 Hf0_4 3.046798 1_456
Hf0_1 Hf0_2 3.046798 1_555
Hf0_1 Hf0_7 3.046798 1_545
Hf0_1 Hf0_7 3.046798 1_455
Hf0_1 Mg0_7 3.255687 1_445
Hf0_1 Mg0_0 3.255687 1_555
Hf0_1 Mg0_3 3.255687 1_545
Hf0_1 Mg0_5 3.255687 1_455
Hf0_1 Mg0_2 3.255687 1_545
Hf0_1 Mg0_4 3.255687 1_455
Hf0_2 Hf0_7 3.046798 1_455
Hf0_2 Hf0_7 3.046798 1_554
Hf0_2 Hf0_4 3.046798 1_465
Hf0_2 Hf0_4 3.046798 1_555
Hf0_2 Mg0_4 3.255687 1_455
Hf0_2 Mg0_3 3.255687 1_554
Hf0_2 Mg0_1 3.255687 1_554
Hf0_2 Mg0_7 3.255687 1_454
Hf0_2 Mg0_6 3.255687 1_455
Hf0_2 Mg0_0 3.255687 1_555
Hf0_3 Hf0_6 3.046798 1_555
Hf0_3 Hf0_6 3.046798 1_456
Hf0_3 Hf0_5 3.046798 1_555
Hf0_3 Hf0_5 3.046798 1_465
Hf0_3 Mg0_2 3.255687 1_555
Hf0_3 Mg0_5 3.255687 1_455
Hf0_3 Mg0_0 3.255687 1_555
Hf0_3 Mg0_6 3.255687 1_455
Hf0_3 Mg0_7 3.255687 1_455
Hf0_3 Mg0_1 3.255687 1_555
Hf0_4 Hf0_7 3.046798 1_545
Hf0_4 Hf0_7 3.046798 1_554
Hf0_4 Mg0_5 3.255687 1_554
Hf0_4 Mg0_2 3.255687 1_545
Hf0_4 Mg0_1 3.255687 1_554
Hf0_4 Mg0_7 3.255687 1_544
Hf0_4 Mg0_6 3.255687 1_545
Hf0_4 Mg0_0 3.255687 1_555
Hf0_5 Hf0_6 3.046798 1_555
Hf0_5 Hf0_6 3.046798 1_546
Hf0_5 Mg0_4 3.255687 1_555
Hf0_5 Mg0_3 3.255687 1_545
Hf0_5 Mg0_0 3.255687 1_555
Hf0_5 Mg0_6 3.255687 1_545
Hf0_5 Mg0_7 3.255687 1_545
Hf0_5 Mg0_1 3.255687 1_555
Hf0_6 Mg0_0 3.255687 1_555
Hf0_6 Mg0_7 3.255687 1_554
Hf0_6 Mg0_4 3.255687 1_555
Hf0_6 Mg0_5 3.255687 1_554
Hf0_6 Mg0_3 3.255687 1_554
Hf0_6 Mg0_2 3.255687 1_555
Hf0_7 Mg0_6 3.255687 1_555
Hf0_7 Mg0_1 3.255687 1_555
Hf0_7 Mg0_5 3.255687 1_555
Hf0_7 Mg0_3 3.255687 1_555
Hf0_7 Mg0_4 3.255687 1_555
Hf0_7 Mg0_2 3.255687 1_555
Mg0_0 Mg0_3 3.046798 1_554
Mg0_0 Mg0_5 3.046798 1_554
Mg0_0 Mg0_3 3.046798 1_545
Mg0_0 Mg0_5 3.046798 1_455
Mg0_0 Mg0_6 3.046798 1_545
Mg0_0 Mg0_6 3.046798 1_455
Mg0_1 Mg0_4 3.046798 1_555
Mg0_1 Mg0_2 3.046798 1_555
Mg0_1 Mg0_4 3.046798 1_456
Mg0_1 Mg0_2 3.046798 1_546
Mg0_1 Mg0_7 3.046798 1_545
Mg0_1 Mg0_7 3.046798 1_455
Mg0_2 Mg0_7 3.046798 1_554
Mg0_2 Mg0_7 3.046798 1_455
Mg0_2 Mg0_4 3.046798 1_555
Mg0_2 Mg0_4 3.046798 1_465
Mg0_3 Mg0_6 3.046798 1_555
Mg0_3 Mg0_6 3.046798 1_456
Mg0_3 Mg0_5 3.046798 1_555
Mg0_3 Mg0_5 3.046798 1_465
Mg0_4 Mg0_7 3.046798 1_554
Mg0_4 Mg0_7 3.046798 1_545
Mg0_5 Mg0_6 3.046798 1_555
Mg0_5 Mg0_6 3.046798 1_546
