# generated using pymatgen
data_Li9Mn2Co5O16
_symmetry_space_group_name_H-M   'P 1'
_cell_length_a   2.97873200
_cell_length_b   8.08419498
_cell_length_c   11.95958854
_cell_angle_alpha   90.74325827
_cell_angle_beta   94.34807954
_cell_angle_gamma   91.01879400
_symmetry_Int_Tables_number   1
_chemical_formula_structural   Li9Mn2Co5O16
_chemical_formula_sum   'Li9 Mn2 Co5 O16'
_cell_volume   287.09076531
_cell_formula_units_Z   1
loop_
 _symmetry_equiv_pos_site_id
 _symmetry_equiv_pos_as_xyz
  1  'x, y, z'
loop_
 _atom_site_type_symbol
 _atom_site_label
 _atom_site_symmetry_multiplicity
 _atom_site_fract_x
 _atom_site_fract_y
 _atom_site_fract_z
 _atom_site_occupancy
  Li  Li0  1  0.99341000  0.00392400  0.25613400  1
  Li  Li1  1  0.49234500  0.75541300  0.62600000  1
  Li  Li2  1  0.99992400  0.49947000  0.99958400  1
  Li  Li3  1  0.49983100  0.24014900  0.37877400  1
  Li  Li4  1  0.00526200  0.00240800  0.74933400  1
  Li  Li5  1  0.50394700  0.74850800  0.12250600  1
  Li  Li6  1  0.00284300  0.49595900  0.49994600  1
  Li  Li7  1  0.50076000  0.25227100  0.87304800  1
  Li  Li8  1  0.00717700  0.00543700  0.49476000  1
  Mn  Mn0  1  0.99925600  0.00033100  0.00002300  1
  Mn  Mn1  1  0.49752800  0.75735300  0.37825600  1
  Co  Co0  1  0.99995800  0.49813600  0.74906600  1
  Co  Co1  1  0.49610300  0.25145700  0.12651400  1
  Co  Co2  1  0.50200000  0.74776900  0.87303700  1
  Co  Co3  1  0.98991600  0.49829300  0.25217800  1
  Co  Co4  1  0.50434400  0.24062800  0.62061100  1
  O  O0  1  0.47181400  0.01149900  0.12106000  1
  O  O1  1  0.02622500  0.74871000  0.48459900  1
  O  O2  1  0.47426400  0.51231200  0.86765900  1
  O  O3  1  0.97613900  0.26249100  0.24261000  1
  O  O4  1  0.49672200  0.02572600  0.62859900  1
  O  O5  1  0.97426900  0.75627600  0.99421200  1
  O  O6  1  0.47082200  0.51010700  0.36662000  1
  O  O7  1  0.97589200  0.26368100  0.74361600  1
  O  O8  1  0.50625200  0.98243000  0.37294300  1
  O  O9  1  0.02581900  0.73656300  0.75344000  1
  O  O10  1  0.52572100  0.49003900  0.13284000  1
  O  O11  1  0.02681800  0.25225300  0.51129500  1
  O  O12  1  0.52730000  0.98629400  0.87753000  1
  O  O13  1  0.97330700  0.73908500  0.26501800  1
  O  O14  1  0.52652000  0.48147200  0.63232200  1
  O  O15  1  0.02751700  0.24355600  0.00585900  1
loop_
_geom_bond_atom_site_label_1
_geom_bond_atom_site_label_2
_geom_bond_distance
_geom_bond_site_symmetry_2
Li0 O8 2.001883 1_645
Li0 O8 2.095761 1_545
Li0 O3 2.099886 1_555
Li0 O13 2.145019 1_545
Li0 O0 2.157013 1_555
Li0 O0 2.234417 1_655
Li1 O1 2.104626 1_555
Li1 O9 2.125735 1_655
Li1 O9 2.144059 1_555
Li1 O4 2.184874 1_565
Li1 O14 2.220742 1_555
Li1 O1 2.408366 1_655
Li2 O15 2.074055 1_656
Li2 O5 2.080479 1_555
Li2 O2 2.141797 1_555
Li2 O10 2.151181 1_656
Li2 O2 2.198538 1_655
Li2 O10 2.209420 1_556
Li3 O8 2.084189 1_545
Li3 O11 2.144497 1_655
Li3 O3 2.179539 1_455
Li3 O6 2.191909 1_555
Li3 O11 2.201404 1_555
Li3 O3 2.246409 1_555
Li4 O4 2.025016 1_455
Li4 O12 2.106306 1_545
Li4 O7 2.117322 1_455
Li4 O4 2.140410 1_555
Li4 O9 2.152194 1_545
Li4 O12 2.173507 1_445
Li5 O10 2.096629 1_555
Li5 O5 2.118126 1_454
Li5 O13 2.123969 1_555
Li5 O0 2.130159 1_565
Li5 O5 2.155496 1_554
Li5 O13 2.411787 1_455
Li6 O11 1.978775 1_555
Li6 O1 2.054306 1_555
Li6 O14 2.142483 1_555
Li6 O6 2.166802 1_455
Li6 O6 2.198836 1_555
Li6 O14 2.207425 1_455
Li7 O2 2.106743 1_555
Li7 O7 2.119170 1_455
Li7 O15 2.149133 1_656
Li7 O12 2.154279 1_545
Li7 O7 2.176918 1_555
Li7 O15 2.203157 1_556
Li8 O11 2.001910 1_555
Li8 O8 2.009229 1_445
Li8 O1 2.079445 1_545
Li8 O4 2.084751 1_555
Li8 O8 2.167560 1_545
Li8 O4 2.296096 1_455
Mn0 O0 1.941157 1_655
Mn0 O12 1.952714 1_544
Mn0 O15 1.966690 1_655
Mn0 O5 1.973192 1_544
Mn0 O0 2.217756 1_555
Mn0 O12 2.232588 1_644
Mn1 O8 1.821292 1_555
Mn1 O1 1.950656 1_655
Mn1 O1 1.965414 1_555
Mn1 O13 1.990016 1_455
Mn1 O6 2.001571 1_555
Mn1 O13 2.039037 1_555
Co0 O7 1.895549 1_555
Co0 O14 1.909488 1_555
Co0 O2 1.925369 1_655
Co0 O9 1.927533 1_655
Co0 O14 2.182292 1_655
Co0 O2 2.194482 1_555
Co1 O3 1.916142 1_555
Co1 O10 1.929432 1_555
Co1 O15 1.929652 1_555
Co1 O0 1.939996 1_555
Co1 O3 2.159270 1_455
Co1 O15 2.222506 1_655
Co2 O2 1.903845 1_555
Co2 O12 1.928308 1_555
Co2 O9 1.936594 1_555
Co2 O5 1.941326 1_555
Co2 O9 2.197433 1_655
Co2 O5 2.218715 1_455
Co3 O6 1.904963 1_655
Co3 O3 1.907744 1_555
Co3 O10 1.910066 1_555
Co3 O13 1.952470 1_555
Co3 O6 2.143835 1_555
Co3 O10 2.221585 1_655
Co4 O4 1.741011 1_555
Co4 O11 1.862071 1_555
Co4 O14 1.949834 1_555
Co4 O7 1.960112 1_555
Co4 O11 2.108712 1_655
Co4 O7 2.243017 1_455
