# generated using pymatgen
data_BaCaSnF7
_symmetry_space_group_name_H-M   'P 1'
_cell_length_a   10.79982700
_cell_length_b   5.91530700
_cell_length_c   9.95213221
_cell_angle_alpha   88.32958365
_cell_angle_beta   90.00000000
_cell_angle_gamma   90.00000000
_symmetry_Int_Tables_number   1
_chemical_formula_structural   BaCaSnF7
_chemical_formula_sum   'Ba4 Ca4 Sn4 F28'
_cell_volume   635.51474255
_cell_formula_units_Z   4
loop_
 _symmetry_equiv_pos_site_id
 _symmetry_equiv_pos_as_xyz
  1  'x, y, z'
loop_
 _atom_site_type_symbol
 _atom_site_label
 _atom_site_symmetry_multiplicity
 _atom_site_fract_x
 _atom_site_fract_y
 _atom_site_fract_z
 _atom_site_occupancy
  Ba  Ba0  1  0.32012200  0.73159100  0.50241400  1
  Ba  Ba1  1  0.82012200  0.26840900  0.99758600  1
  Ba  Ba2  1  0.67987800  0.26840900  0.49758600  1
  Ba  Ba3  1  0.17987800  0.73159100  0.00241400  1
  Ca  Ca0  1  0.41545200  0.28752200  0.81837400  1
  Ca  Ca1  1  0.91545200  0.71247800  0.68162600  1
  Ca  Ca2  1  0.08454800  0.28752200  0.31837400  1
  Ca  Ca3  1  0.58454800  0.71247800  0.18162600  1
  Sn  Sn0  1  0.60774000  0.78069700  0.79317900  1
  Sn  Sn1  1  0.39226000  0.21930300  0.20682100  1
  Sn  Sn2  1  0.89226000  0.78069700  0.29317900  1
  Sn  Sn3  1  0.10774000  0.21930300  0.70682100  1
  F  F0  1  0.41579200  0.90663100  0.10653300  1
  F  F1  1  0.05132700  0.64500100  0.39891100  1
  F  F2  1  0.74108900  0.49330400  0.74899100  1
  F  F3  1  0.25891100  0.50669600  0.25100900  1
  F  F4  1  0.49273900  0.00864500  0.35733700  1
  F  F5  1  0.79263900  0.71767600  0.48486800  1
  F  F6  1  0.77004300  0.98051700  0.72622700  1
  F  F7  1  0.99273900  0.99135500  0.14266300  1
  F  F8  1  0.44867300  0.64500100  0.89891100  1
  F  F9  1  0.24108900  0.50669600  0.75100900  1
  F  F10  1  0.08420800  0.90663100  0.60653300  1
  F  F11  1  0.58420800  0.09336900  0.89346700  1
  F  F12  1  0.27004300  0.01948300  0.77377300  1
  F  F13  1  0.99638400  0.51365200  0.85899100  1
  F  F14  1  0.50726100  0.99135500  0.64266300  1
  F  F15  1  0.00726100  0.00864500  0.85733700  1
  F  F16  1  0.22995700  0.01948300  0.27377300  1
  F  F17  1  0.91579200  0.09336900  0.39346700  1
  F  F18  1  0.49638400  0.48634800  0.64100900  1
  F  F19  1  0.94867300  0.35499900  0.60108900  1
  F  F20  1  0.00361600  0.48634800  0.14100900  1
  F  F21  1  0.72995700  0.98051700  0.22622700  1
  F  F22  1  0.50361600  0.51365200  0.35899100  1
  F  F23  1  0.29263900  0.28232400  0.01513200  1
  F  F24  1  0.20736100  0.28232400  0.51513200  1
  F  F25  1  0.70736100  0.71767600  0.98486800  1
  F  F26  1  0.55132700  0.35499900  0.10108900  1
  F  F27  1  0.75891100  0.49330400  0.24899100  1
loop_
_geom_bond_atom_site_label_1
_geom_bond_atom_site_label_2
_geom_bond_distance
_geom_bond_site_symmetry_2
Ba0 F18 2.741175 1_555
Ba0 F22 2.780966 1_555
Ba0 F4 2.847439 1_565
Ba0 F9 2.902988 1_555
Ba0 F14 2.918739 1_555
Ba0 F24 2.922675 1_555
Ba0 F3 2.942942 1_555
Ba0 F10 2.949542 1_555
Ba0 F16 2.966505 1_565
Ba0 F1 3.127496 1_555
Ba0 F12 3.279327 1_565
Ba1 F13 2.741175 1_555
Ba1 F20 2.780966 1_656
Ba1 F7 2.847439 1_546
Ba1 F2 2.902988 1_555
Ba1 F15 2.918739 1_655
Ba1 F25 2.922675 1_555
Ba1 F27 2.942942 1_556
Ba1 F11 2.949542 1_555
Ba1 F21 2.966505 1_546
Ba1 F26 3.127496 1_556
Ba1 F6 3.279327 1_545
Ba2 F22 2.741175 1_555
Ba2 F18 2.780966 1_555
Ba2 F14 2.847439 1_545
Ba2 F27 2.902988 1_555
Ba2 F4 2.918739 1_555
Ba2 F5 2.922675 1_555
Ba2 F2 2.942942 1_555
Ba2 F17 2.949542 1_555
Ba2 F6 2.966505 1_545
Ba2 F19 3.127496 1_555
Ba2 F21 3.279327 1_545
Ba3 F20 2.741175 1_555
Ba3 F13 2.780966 1_454
Ba3 F15 2.847439 1_564
Ba3 F3 2.902988 1_555
Ba3 F7 2.918739 1_455
Ba3 F23 2.922675 1_555
Ba3 F9 2.942942 1_554
Ba3 F0 2.949542 1_555
Ba3 F12 2.966505 1_564
Ba3 F8 3.127496 1_554
Ba3 F16 3.279327 1_565
Ca0 F18 2.267592 1_555
Ca0 F11 2.269163 1_555
Ca0 F12 2.284316 1_555
Ca0 F8 2.311166 1_555
Ca0 F23 2.364542 1_556
Ca0 F9 2.371854 1_555
Ca0 F14 2.699794 1_545
Ca1 F13 2.267592 1_555
Ca1 F10 2.269163 1_655
Ca1 F6 2.284316 1_555
Ca1 F19 2.311166 1_555
Ca1 F5 2.364542 1_555
Ca1 F2 2.371854 1_555
Ca1 F15 2.699794 1_665
Ca2 F20 2.267592 1_555
Ca2 F17 2.269163 1_455
Ca2 F16 2.284316 1_555
Ca2 F1 2.311166 1_555
Ca2 F24 2.364542 1_555
Ca2 F3 2.371854 1_555
Ca2 F7 2.699794 1_445
Ca3 F22 2.267592 1_555
Ca3 F0 2.269163 1_555
Ca3 F21 2.284316 1_555
Ca3 F26 2.311166 1_555
Ca3 F25 2.364542 1_554
Ca3 F27 2.371854 1_555
Ca3 F4 2.699794 1_565
F0 Sn1 2.142244 1_565
F1 Sn2 2.157191 1_455
F2 Sn0 2.280583 1_555
F3 Sn1 2.280583 1_555
F4 Sn1 2.205763 1_555
F5 Sn2 2.212334 1_555
F6 Sn0 2.206273 1_555
F7 Sn2 2.205763 1_555
F8 Sn0 2.157191 1_555
F9 Sn3 2.280583 1_555
F10 Sn3 2.142244 1_565
F11 Sn0 2.142244 1_545
F12 Sn3 2.206273 1_555
F13 Sn3 2.631567 1_655
F14 Sn0 2.205763 1_555
F15 Sn3 2.205763 1_555
F16 Sn1 2.206273 1_555
F17 Sn2 2.142244 1_545
F18 Sn0 2.631567 1_555
F19 Sn3 2.157191 1_655
F20 Sn2 2.631567 1_455
F21 Sn2 2.206273 1_555
F22 Sn1 2.631567 1_555
F23 Sn1 2.212334 1_555
F24 Sn3 2.212334 1_555
F25 Sn0 2.212334 1_555
F26 Sn1 2.157191 1_555
F27 Sn2 2.280583 1_555
