# generated using pymatgen
data_KAsSe3O
_symmetry_space_group_name_H-M   'P 1'
_cell_length_a   10.79977289
_cell_length_b   10.79977289
_cell_length_c   11.73541932
_cell_angle_alpha   89.96503714
_cell_angle_beta   89.96503714
_cell_angle_gamma   28.10067637
_symmetry_Int_Tables_number   1
_chemical_formula_structural   KAsSe3O
_chemical_formula_sum   'K4 As4 Se12 O4'
_cell_volume   644.71716817
_cell_formula_units_Z   4
loop_
 _symmetry_equiv_pos_site_id
 _symmetry_equiv_pos_as_xyz
  1  'x, y, z'
loop_
 _atom_site_type_symbol
 _atom_site_label
 _atom_site_symmetry_multiplicity
 _atom_site_fract_x
 _atom_site_fract_y
 _atom_site_fract_z
 _atom_site_occupancy
  K  K0  1  0.53411900  0.33300300  0.09210800  1
  K  K1  1  0.68048400  0.46422200  0.41453500  1
  K  K2  1  0.46422200  0.68048400  0.91453500  1
  K  K3  1  0.33300300  0.53411900  0.59210800  1
  As  As0  1  0.83652700  0.79076800  0.34351100  1
  As  As1  1  0.20870900  0.16144200  0.16300900  1
  As  As2  1  0.16144200  0.20870900  0.66300900  1
  As  As3  1  0.79076800  0.83652700  0.84351100  1
  Se  Se0  1  0.34297800  0.29281200  0.37518400  1
  Se  Se1  1  0.68302500  0.68785900  0.12534400  1
  Se  Se2  1  0.68785900  0.68302500  0.62534400  1
  Se  Se3  1  0.29281200  0.34297800  0.87518400  1
  Se  Se4  1  0.83194200  0.76870300  0.13746800  1
  Se  Se5  1  0.23396700  0.17071300  0.36959700  1
  Se  Se6  1  0.17071300  0.23396700  0.86959700  1
  Se  Se7  1  0.76870300  0.83194300  0.63746800  1
  Se  Se8  1  0.92431700  0.93629900  0.33367900  1
  Se  Se9  1  0.10036500  0.03373800  0.16358300  1
  Se  Se10  1  0.03373800  0.10036500  0.66358300  1
  Se  Se11  1  0.93629900  0.92431700  0.83367900  1
  O  O0  1  0.28114800  0.60611700  0.85864900  1
  O  O1  1  0.60611700  0.28114800  0.35864900  1
  O  O2  1  0.19030700  0.90543500  0.53993400  1
  O  O3  1  0.90543500  0.19030700  0.03993400  1
loop_
_geom_bond_atom_site_label_1
_geom_bond_atom_site_label_2
_geom_bond_distance
_geom_bond_site_symmetry_2
K0 O3 2.815350 1_555
K0 O0 3.074504 1_554
K0 O1 3.151986 1_555
K0 Se3 3.577174 1_554
K0 Se4 3.631121 1_545
K1 O1 2.790713 1_555
K1 O2 2.896772 1_555
K1 O2 3.205916 1_645
K1 Se2 3.471309 1_555
K1 Se10 3.476946 1_655
K1 Se5 3.553352 1_655
K1 Se9 3.695531 1_655
K2 O0 2.790713 1_555
K2 O3 2.896772 1_556
K2 O3 3.205916 1_466
K2 Se1 3.471309 1_556
K2 Se9 3.476946 1_566
K2 Se6 3.553352 1_565
K2 Se10 3.695531 1_565
K3 O2 2.815350 1_555
K3 O1 3.074504 1_555
K3 O0 3.151986 1_555
K3 Se0 3.577174 1_555
K3 Se7 3.631114 1_455
As0 Se4 2.434673 1_555
As0 Se8 2.451756 1_555
As0 Se0 2.638192 1_565
As0 Se0 2.661060 1_655
As1 Se5 2.451820 1_555
As1 Se9 2.473524 1_555
As1 Se1 2.524314 1_545
As1 Se1 2.793710 1_455
As2 Se6 2.451820 1_555
As2 Se10 2.473524 1_555
As2 Se2 2.524314 1_455
As2 Se2 2.793710 1_545
As3 Se7 2.434672 1_555
As3 Se11 2.451756 1_555
As3 Se3 2.638192 1_655
As3 Se3 2.661060 1_565
Se0 Se5 2.422436 1_555
Se1 Se4 2.418018 1_555
Se2 Se7 2.418028 1_555
Se3 Se6 2.422436 1_555
O0 Se11 1.784976 1_455
O1 Se8 1.784976 1_545
O2 Se10 1.765562 1_565
O3 Se9 1.765562 1_655
