# generated using pymatgen
data_TbLu
_symmetry_space_group_name_H-M   'P 1'
_cell_length_a   7.17204267
_cell_length_b   7.17204267
_cell_length_c   11.06457402
_cell_angle_alpha   90.00000000
_cell_angle_beta   90.00000000
_cell_angle_gamma   120.00000616
_symmetry_Int_Tables_number   1
_chemical_formula_structural   TbLu
_chemical_formula_sum   'Tb8 Lu8'
_cell_volume   492.89116369
_cell_formula_units_Z   8
loop_
 _symmetry_equiv_pos_site_id
 _symmetry_equiv_pos_as_xyz
  1  'x, y, z'
loop_
 _atom_site_type_symbol
 _atom_site_label
 _atom_site_symmetry_multiplicity
 _atom_site_fract_x
 _atom_site_fract_y
 _atom_site_fract_z
 _atom_site_occupancy
  Tb  Tb0_0  1  0.00000000  0.00000000  0.25000000  1
  Tb  Tb0_1  1  0.00000000  0.00000000  0.75000000  1
  Tb  Tb0_2  1  0.00000000  0.50000000  0.25000000  1
  Tb  Tb0_3  1  0.00000000  0.50000000  0.75000000  1
  Tb  Tb0_4  1  0.50000000  0.00000000  0.25000000  1
  Tb  Tb0_5  1  0.50000000  0.00000000  0.75000000  1
  Tb  Tb0_6  1  0.50000000  0.50000000  0.25000000  1
  Tb  Tb0_7  1  0.50000000  0.50000000  0.75000000  1
  Lu  Lu0_0  1  0.16666650  0.33333350  0.00000000  1
  Lu  Lu0_1  1  0.16666650  0.33333350  0.50000000  1
  Lu  Lu0_2  1  0.16666650  0.83333350  0.00000000  1
  Lu  Lu0_3  1  0.16666650  0.83333350  0.50000000  1
  Lu  Lu0_4  1  0.66666650  0.33333350  0.00000000  1
  Lu  Lu0_5  1  0.66666650  0.33333350  0.50000000  1
  Lu  Lu0_6  1  0.66666650  0.83333350  0.00000000  1
  Lu  Lu0_7  1  0.66666650  0.83333350  0.50000000  1
loop_
_geom_bond_atom_site_label_1
_geom_bond_atom_site_label_2
_geom_bond_distance
_geom_bond_site_symmetry_2
Tb0_0 Tb0_6 3.586021 1_555
Tb0_0 Tb0_6 3.586021 1_445
Tb0_0 Tb0_4 3.586021 1_455
Tb0_0 Tb0_2 3.586021 1_545
Tb0_0 Tb0_4 3.586021 1_555
Tb0_0 Tb0_2 3.586021 1_555
Tb0_1 Tb0_7 3.586021 1_445
Tb0_1 Tb0_7 3.586021 1_555
Tb0_1 Tb0_5 3.586021 1_555
Tb0_1 Tb0_3 3.586021 1_545
Tb0_1 Tb0_3 3.586021 1_555
Tb0_1 Tb0_5 3.586021 1_455
Tb0_2 Tb0_4 3.586021 1_565
Tb0_2 Tb0_4 3.586021 1_455
Tb0_2 Tb0_6 3.586021 1_455
Tb0_2 Tb0_6 3.586021 1_555
Tb0_3 Tb0_5 3.586021 1_455
Tb0_3 Tb0_5 3.586021 1_565
Tb0_3 Tb0_7 3.586021 1_555
Tb0_3 Tb0_7 3.586021 1_455
Tb0_4 Tb0_6 3.586021 1_555
Tb0_4 Tb0_6 3.586021 1_545
Tb0_5 Tb0_7 3.586021 1_545
Tb0_5 Tb0_7 3.586021 1_555
Lu0_0 Tb0_3 3.455149 1_554
Lu0_0 Tb0_2 3.455149 1_555
Lu0_0 Tb0_0 3.455151 1_555
Lu0_0 Tb0_6 3.455151 1_555
Lu0_0 Tb0_7 3.455151 1_554
Lu0_0 Tb0_1 3.455151 1_554
Lu0_0 Lu0_6 3.586021 1_555
Lu0_0 Lu0_6 3.586021 1_445
Lu0_0 Lu0_4 3.586021 1_555
Lu0_0 Lu0_2 3.586021 1_555
Lu0_0 Lu0_4 3.586021 1_455
Lu0_0 Lu0_2 3.586021 1_545
Lu0_1 Tb0_3 3.455149 1_555
Lu0_1 Tb0_2 3.455149 1_555
Lu0_1 Tb0_0 3.455151 1_555
Lu0_1 Tb0_6 3.455151 1_555
Lu0_1 Tb0_7 3.455151 1_555
Lu0_1 Tb0_1 3.455151 1_555
Lu0_1 Lu0_7 3.586021 1_555
Lu0_1 Lu0_7 3.586021 1_445
Lu0_1 Lu0_5 3.586021 1_555
Lu0_1 Lu0_3 3.586021 1_555
Lu0_1 Lu0_3 3.586021 1_545
Lu0_1 Lu0_5 3.586021 1_455
Lu0_2 Tb0_0 3.455149 1_565
Lu0_2 Tb0_1 3.455149 1_564
Lu0_2 Tb0_3 3.455151 1_554
Lu0_2 Tb0_2 3.455151 1_555
Lu0_2 Tb0_5 3.455151 1_564
Lu0_2 Tb0_4 3.455151 1_565
Lu0_2 Lu0_4 3.586021 1_565
Lu0_2 Lu0_4 3.586021 1_455
Lu0_2 Lu0_6 3.586021 1_555
Lu0_2 Lu0_6 3.586021 1_455
Lu0_3 Tb0_0 3.455149 1_565
Lu0_3 Tb0_1 3.455149 1_565
Lu0_3 Tb0_2 3.455151 1_555
Lu0_3 Tb0_5 3.455151 1_565
Lu0_3 Tb0_3 3.455151 1_555
Lu0_3 Tb0_4 3.455151 1_565
Lu0_3 Lu0_5 3.586021 1_565
Lu0_3 Lu0_5 3.586021 1_455
Lu0_3 Lu0_7 3.586021 1_555
Lu0_3 Lu0_7 3.586021 1_455
Lu0_4 Tb0_7 3.455149 1_554
Lu0_4 Tb0_6 3.455149 1_555
Lu0_4 Tb0_4 3.455151 1_555
Lu0_4 Tb0_5 3.455151 1_554
Lu0_4 Tb0_3 3.455151 1_654
Lu0_4 Tb0_2 3.455151 1_655
Lu0_4 Lu0_6 3.586021 1_545
Lu0_4 Lu0_6 3.586021 1_555
Lu0_5 Tb0_6 3.455149 1_555
Lu0_5 Tb0_7 3.455149 1_555
Lu0_5 Tb0_5 3.455151 1_555
Lu0_5 Tb0_4 3.455151 1_555
Lu0_5 Tb0_2 3.455151 1_655
Lu0_5 Tb0_3 3.455151 1_655
Lu0_5 Lu0_7 3.586021 1_545
Lu0_5 Lu0_7 3.586021 1_555
Lu0_6 Tb0_4 3.455149 1_565
Lu0_6 Tb0_5 3.455149 1_564
Lu0_6 Tb0_6 3.455151 1_555
Lu0_6 Tb0_7 3.455151 1_554
Lu0_6 Tb0_1 3.455151 1_664
Lu0_6 Tb0_0 3.455151 1_665
Lu0_7 Tb0_4 3.455149 1_565
Lu0_7 Tb0_5 3.455149 1_565
Lu0_7 Tb0_6 3.455151 1_555
Lu0_7 Tb0_7 3.455151 1_555
Lu0_7 Tb0_1 3.455151 1_665
Lu0_7 Tb0_0 3.455151 1_665
