# generated using pymatgen
data_Mg3(AlCu2)2
_symmetry_space_group_name_H-M   'P 1'
_cell_length_a   5.01579200
_cell_length_b   5.05674963
_cell_length_c   12.49612581
_cell_angle_alpha   89.36252740
_cell_angle_beta   88.83827576
_cell_angle_gamma   60.75617201
_symmetry_Int_Tables_number   1
_chemical_formula_structural   Mg3(AlCu2)2
_chemical_formula_sum   'Mg6 Al4 Cu8'
_cell_volume   276.49437466
_cell_formula_units_Z   2
loop_
 _symmetry_equiv_pos_site_id
 _symmetry_equiv_pos_as_xyz
  1  'x, y, z'
loop_
 _atom_site_type_symbol
 _atom_site_label
 _atom_site_symmetry_multiplicity
 _atom_site_fract_x
 _atom_site_fract_y
 _atom_site_fract_z
 _atom_site_occupancy
  Mg  Mg0  1  0.66877100  0.66411800  0.70994600  1
  Mg  Mg1  1  0.00100700  0.00143600  0.37315100  1
  Mg  Mg2  1  0.33442400  0.33370000  0.04152000  1
  Mg  Mg3  1  0.66557600  0.66630000  0.95848000  1
  Mg  Mg4  1  0.99899300  0.99856400  0.62684900  1
  Mg  Mg5  1  0.33122900  0.33588200  0.29005400  1
  Al  Al0  1  0.50000000  0.50000000  0.50000000  1
  Al  Al1  1  0.83313100  0.83349100  0.16661600  1
  Al  Al2  1  0.16686900  0.16650900  0.83338400  1
  Al  Al3  1  0.50000000  0.00000000  0.50000000  1
  Cu  Cu0  1  0.83360900  0.33326300  0.16694400  1
  Cu  Cu1  1  0.16639100  0.66673700  0.83305600  1
  Cu  Cu2  1  0.66531200  0.66828000  0.33327900  1
  Cu  Cu3  1  0.00000000  0.00000000  0.00000000  1
  Cu  Cu4  1  0.33468800  0.33172000  0.66672100  1
  Cu  Cu5  1  0.00000000  0.50000000  0.50000000  1
  Cu  Cu6  1  0.33351500  0.83331500  0.16688700  1
  Cu  Cu7  1  0.66648500  0.16668500  0.83311300  1
loop_
_geom_bond_atom_site_label_1
_geom_bond_atom_site_label_2
_geom_bond_distance
_geom_bond_site_symmetry_2
Mg0 Mg4 3.051222 1_555
Mg0 Mg3 3.105543 1_555
Mg0 Mg4 3.116092 1_545
Mg0 Mg4 3.126603 1_455
Mg1 Mg5 3.051222 1_555
Mg1 Mg5 3.116092 1_545
Mg1 Mg5 3.126603 1_455
Mg1 Mg4 3.169948 1_445
Mg2 Mg3 3.047149 1_554
Mg2 Mg5 3.105543 1_555
Mg2 Mg3 3.122437 1_454
Mg2 Mg3 3.123535 1_544
Al0 Cu5 2.507896 1_655
Al0 Cu5 2.507896 1_555
Al0 Cu4 2.516337 1_555
Al0 Cu2 2.516337 1_555
Al0 Al3 2.528375 1_565
Al0 Al3 2.528375 1_555
Al0 Mg4 2.986783 1_455
Al0 Mg1 2.986783 1_655
Al0 Mg4 3.012813 1_545
Al0 Mg1 3.012813 1_565
Al0 Mg0 3.018785 1_555
Al0 Mg5 3.018785 1_555
Al1 Cu6 2.506338 1_555
Al1 Cu6 2.509458 1_655
Al1 Cu2 2.514192 1_555
Al1 Cu3 2.514624 1_665
Al1 Cu0 2.528315 1_555
Al1 Cu0 2.528443 1_565
Al1 Mg5 2.975193 1_565
Al1 Mg2 2.978723 1_655
Al1 Mg5 2.979990 1_655
Al1 Mg1 2.987778 1_665
Al1 Mg2 2.997887 1_565
Al1 Mg3 3.002918 1_554
Al2 Cu7 2.506338 1_555
Al2 Cu7 2.509458 1_455
Al2 Cu4 2.514192 1_555
Al2 Cu3 2.514624 1_556
Al2 Cu1 2.528315 1_555
Al2 Cu1 2.528443 1_545
Al2 Mg0 2.975193 1_545
Al2 Mg3 2.978723 1_455
Al2 Mg0 2.979990 1_455
Al2 Mg4 2.987778 1_445
Al2 Mg3 2.997887 1_545
Al2 Mg2 3.002918 1_556
Al3 Cu5 2.546923 1_555
Al3 Cu5 2.546923 1_645
Al3 Cu2 2.547637 1_545
Al3 Cu4 2.547637 1_555
Al3 Mg1 2.946798 1_655
Al3 Mg4 2.946798 1_445
Al3 Mg1 2.986595 1_555
Al3 Mg4 2.986595 1_545
Al3 Mg0 3.011697 1_545
Al3 Mg5 3.011697 1_555
Cu0 Cu6 2.546546 1_645
Cu0 Cu6 2.547299 1_555
Cu0 Cu2 2.552027 1_555
Cu0 Cu3 2.553820 1_655
Cu0 Mg5 2.920114 1_555
Cu0 Mg2 2.934662 1_655
Cu0 Mg1 2.962324 1_655
Cu0 Mg5 2.963967 1_655
Cu0 Mg2 2.979794 1_555
Cu0 Mg3 2.989493 1_554
Cu1 Cu7 2.546546 1_465
Cu1 Cu7 2.547299 1_555
Cu1 Cu4 2.552027 1_555
Cu1 Cu3 2.553820 1_566
Cu1 Mg0 2.920114 1_555
Cu1 Mg3 2.934662 1_455
Cu1 Mg4 2.962324 1_455
Cu1 Mg0 2.963967 1_455
Cu1 Mg3 2.979794 1_555
Cu1 Mg2 2.989493 1_556
Cu2 Cu6 2.556191 1_555
Cu2 Cu5 2.566960 1_655
Cu2 Mg1 2.942024 1_565
Cu2 Mg5 2.955306 1_555
Cu2 Mg5 2.955494 1_655
Cu2 Mg1 2.957324 1_665
Cu2 Mg1 2.983835 1_655
Cu2 Mg5 2.994218 1_565
Cu3 Cu7 2.565659 1_454
Cu3 Cu6 2.565659 1_545
Cu3 Mg3 2.950707 1_544
Cu3 Mg2 2.950707 1_455
Cu3 Mg2 2.958149 1_555
Cu3 Mg3 2.958149 1_444
Cu3 Mg3 2.984882 1_454
Cu3 Mg2 2.984882 1_545
Cu4 Cu7 2.556191 1_555
Cu4 Cu5 2.566960 1_555
Cu4 Mg4 2.942024 1_545
Cu4 Mg0 2.955306 1_555
Cu4 Mg0 2.955494 1_455
Cu4 Mg4 2.957324 1_445
Cu4 Mg4 2.983835 1_455
Cu4 Mg0 2.994218 1_545
Cu5 Mg0 2.975951 1_455
Cu5 Mg5 2.975951 1_555
Cu5 Mg4 2.977388 1_445
Cu5 Mg1 2.977388 1_565
Cu5 Mg4 2.990786 1_455
Cu5 Mg1 2.990786 1_555
Cu6 Mg1 2.938861 1_565
Cu6 Mg5 2.938965 1_555
Cu6 Mg3 2.961129 1_554
Cu6 Mg2 2.963033 1_565
Cu6 Mg5 2.980827 1_565
Cu6 Mg2 2.985570 1_555
Cu7 Mg4 2.938861 1_545
Cu7 Mg0 2.938965 1_555
Cu7 Mg2 2.961129 1_556
Cu7 Mg3 2.963033 1_545
Cu7 Mg0 2.980827 1_545
Cu7 Mg3 2.985570 1_555
