# generated using pymatgen
data_Mg(ZnN)2
_symmetry_space_group_name_H-M   'P 1'
_cell_length_a   3.31465393
_cell_length_b   3.31466078
_cell_length_c   5.72484367
_cell_angle_alpha   89.99999769
_cell_angle_beta   89.99993503
_cell_angle_gamma   120.00009855
_symmetry_Int_Tables_number   1
_chemical_formula_structural   Mg(ZnN)2
_chemical_formula_sum   'Mg1 Zn2 N2'
_cell_volume   54.47172316
_cell_formula_units_Z   1
loop_
 _symmetry_equiv_pos_site_id
 _symmetry_equiv_pos_as_xyz
  1  'x, y, z'
loop_
 _atom_site_type_symbol
 _atom_site_label
 _atom_site_symmetry_multiplicity
 _atom_site_fract_x
 _atom_site_fract_y
 _atom_site_fract_z
 _atom_site_occupancy
  Mg  Mg0  1  -0.00000000  -0.00000000  0.00000000  1
  Zn  Zn0  1  0.66666700  0.33333400  0.34784842  1
  Zn  Zn1  1  0.33333300  0.66666600  0.65215158  1
  N  N0  1  0.66666700  0.33333300  0.76641611  1
  N  N1  1  0.33333300  0.66666700  0.23358389  1
loop_
_geom_bond_atom_site_label_1
_geom_bond_atom_site_label_2
_geom_bond_distance
_geom_bond_site_symmetry_2
Mg0 N0 2.334628 1_554
Mg0 N1 2.334628 1_445
Mg0 N1 2.334632 1_545
Mg0 N0 2.334632 1_454
Mg0 N1 2.334633 1_555
Mg0 N0 2.334633 1_444
N0 Zn1 2.022424 1_655
N0 Zn1 2.022432 1_545
N0 Zn1 2.022433 1_555
N0 Zn0 2.396235 1_555
N1 Zn0 2.022424 1_455
N1 Zn0 2.022432 1_565
N1 Zn0 2.022433 1_555
N1 Zn1 2.396235 1_555
