# generated using pymatgen
data_KCr3S5
_symmetry_space_group_name_H-M   'P 1'
_cell_length_a   3.52263849
_cell_length_b   9.84991486
_cell_length_c   10.76015805
_cell_angle_alpha   72.40266879
_cell_angle_beta   80.57846729
_cell_angle_gamma   79.69226198
_symmetry_Int_Tables_number   1
_chemical_formula_structural   KCr3S5
_chemical_formula_sum   'K2 Cr6 S10'
_cell_volume   347.73859313
_cell_formula_units_Z   2
loop_
 _symmetry_equiv_pos_site_id
 _symmetry_equiv_pos_as_xyz
  1  'x, y, z'
loop_
 _atom_site_type_symbol
 _atom_site_label
 _atom_site_symmetry_multiplicity
 _atom_site_fract_x
 _atom_site_fract_y
 _atom_site_fract_z
 _atom_site_occupancy
  K  K0  1  0.74455108  0.33353700  0.17411992  1
  K  K1  1  0.25534513  0.66647325  0.82590821  1
  Cr  Cr0  1  0.50000113  0.00001793  -0.00001639  1
  Cr  Cr1  1  0.50002426  0.49997072  0.50000546  1
  Cr  Cr2  1  0.83556095  0.93954560  0.38893368  1
  Cr  Cr3  1  0.16443661  0.06047544  0.61108634  1
  Cr  Cr4  1  0.02086149  0.73235058  0.22507608  1
  Cr  Cr5  1  0.97915636  0.26764474  0.77491120  1
  S  S0  1  0.92745563  0.99291975  0.15220777  1
  S  S1  1  0.07256651  0.00708647  0.84776804  1
  S  S2  1  0.59678182  0.73230746  0.07396941  1
  S  S3  1  0.40324746  0.26768792  0.92599594  1
  S  S4  1  0.42719923  0.75635984  0.38910314  1
  S  S5  1  0.57283425  0.24362068  0.61089441  1
  S  S6  1  0.25648594  0.10421613  0.38235747  1
  S  S7  1  0.74348672  0.89580859  0.61767721  1
  S  S8  1  0.08326070  0.48658975  0.34669514  1
  S  S9  1  0.91674673  0.51338615  0.65330698  1
loop_
_geom_bond_atom_site_label_1
_geom_bond_atom_site_label_2
_geom_bond_distance
_geom_bond_site_symmetry_2
K0 S6 3.185427 1_555
K0 S8 3.188596 1_555
K0 S6 3.190571 1_655
K0 S8 3.194734 1_655
K0 S3 3.372145 1_554
K0 S0 3.373731 1_545
K0 S3 3.378328 1_654
K0 S2 3.708489 1_555
K1 S7 3.185631 1_555
K1 S9 3.189156 1_555
K1 S7 3.190437 1_455
K1 S9 3.194979 1_455
K1 S2 3.371703 1_556
K1 S1 3.373500 1_565
K1 S2 3.377541 1_456
K1 S3 3.708631 1_555
Cr0 S0 2.378070 1_445
Cr0 S1 2.378080 1_654
Cr0 S1 2.378129 1_554
Cr0 S0 2.378168 1_545
Cr0 S3 2.489847 1_554
Cr0 S2 2.490220 1_545
Cr1 S8 2.425847 1_655
Cr1 S9 2.425936 1_455
Cr1 S9 2.426392 1_555
Cr1 S8 2.426447 1_555
Cr1 S5 2.431450 1_555
Cr1 S4 2.431813 1_555
Cr2 S7 2.344434 1_555
Cr2 S6 2.364472 1_565
Cr2 S6 2.364614 1_665
Cr2 S0 2.418819 1_555
Cr2 S4 2.500217 1_555
Cr2 S4 2.500559 1_655
Cr3 S6 2.344277 1_555
Cr3 S7 2.364382 1_545
Cr3 S7 2.364606 1_445
Cr3 S1 2.418348 1_555
Cr3 S5 2.499902 1_555
Cr3 S5 2.500222 1_455
Cr4 S8 2.368346 1_555
Cr4 S2 2.381427 1_455
Cr4 S2 2.383208 1_555
Cr4 S0 2.424013 1_455
Cr4 S4 2.532063 1_455
Cr4 S4 2.533865 1_555
Cr5 S9 2.368144 1_555
Cr5 S3 2.381272 1_655
Cr5 S3 2.383050 1_555
Cr5 S1 2.423909 1_655
Cr5 S5 2.532059 1_655
Cr5 S5 2.533796 1_555
