# generated using pymatgen
data_Li3P2WO8
_symmetry_space_group_name_H-M   'P 1'
_cell_length_a   5.08707657
_cell_length_b   5.08707657
_cell_length_c   6.26778374
_cell_angle_alpha   89.79487999
_cell_angle_beta   89.79487999
_cell_angle_gamma   66.97007971
_symmetry_Int_Tables_number   1
_chemical_formula_structural   Li3P2WO8
_chemical_formula_sum   'Li3 P2 W1 O8'
_cell_volume   149.27129413
_cell_formula_units_Z   1
loop_
 _symmetry_equiv_pos_site_id
 _symmetry_equiv_pos_as_xyz
  1  'x, y, z'
loop_
 _atom_site_type_symbol
 _atom_site_label
 _atom_site_symmetry_multiplicity
 _atom_site_fract_x
 _atom_site_fract_y
 _atom_site_fract_z
 _atom_site_occupancy
  Li  Li0  1  0.66801500  0.66801500  0.71914500  1
  Li  Li1  1  0.99094800  0.00905200  0.50000000  1
  Li  Li2  1  0.33198500  0.33198500  0.28085500  1
  P  P0  1  0.64912000  0.64912000  0.23524700  1
  P  P1  1  0.35088000  0.35088000  0.76475300  1
  W  W0  1  0.00000000  0.00000000  0.00000000  1
  O  O0  1  0.24279300  0.24279300  0.57189500  1
  O  O1  1  0.25487900  0.25487900  0.97701000  1
  O  O2  1  0.31111500  0.75561900  0.23755700  1
  O  O3  1  0.75561900  0.31111500  0.23755700  1
  O  O4  1  0.24438100  0.68888500  0.76244300  1
  O  O5  1  0.68888500  0.24438100  0.76244300  1
  O  O6  1  0.74512100  0.74512100  0.02299000  1
  O  O7  1  0.75720700  0.75720700  0.42810500  1
loop_
_geom_bond_atom_site_label_1
_geom_bond_atom_site_label_2
_geom_bond_distance
_geom_bond_site_symmetry_2
Li0 O7 1.971947 1_555
Li0 O6 2.016348 1_556
Li0 O4 2.132182 1_555
Li0 O5 2.132182 1_555
Li1 O0 2.111437 1_655
Li1 O7 2.111437 1_545
Li1 O3 2.248743 1_555
Li1 O5 2.248743 1_555
Li1 O2 2.318129 1_645
Li1 O4 2.318129 1_645
Li2 O0 1.971947 1_555
Li2 O1 2.016348 1_554
Li2 O3 2.132182 1_555
Li2 O2 2.132182 1_555
O0 P1 1.520497 1_555
O1 P1 1.556990 1_555
O1 W0 2.166966 1_556
O2 P0 1.587850 1_555
O2 W0 2.175200 1_565
O3 P0 1.587850 1_555
O3 W0 2.175200 1_655
O4 P1 1.587850 1_555
O4 W0 2.175200 1_566
O5 P1 1.587850 1_555
O5 W0 2.175200 1_656
O6 P0 1.556990 1_555
O6 W0 2.166966 1_665
O7 P0 1.520497 1_555
