# generated using pymatgen
data_LiMg14Bi
_symmetry_space_group_name_H-M   'P 1'
_cell_length_a   6.40442040
_cell_length_b   6.40441987
_cell_length_c   10.45232087
_cell_angle_alpha   90.00000000
_cell_angle_beta   90.00000000
_cell_angle_gamma   120.00000274
_symmetry_Int_Tables_number   1
_chemical_formula_structural   LiMg14Bi
_chemical_formula_sum   'Li1 Mg14 Bi1'
_cell_volume   371.28121922
_cell_formula_units_Z   1
loop_
 _symmetry_equiv_pos_site_id
 _symmetry_equiv_pos_as_xyz
  1  'x, y, z'
loop_
 _atom_site_type_symbol
 _atom_site_label
 _atom_site_symmetry_multiplicity
 _atom_site_fract_x
 _atom_site_fract_y
 _atom_site_fract_z
 _atom_site_occupancy
  Li  Li0  1  0.16666700  0.33333300  0.12500000  1
  Mg  Mg0  1  0.16837402  0.83418651  0.12500000  1
  Mg  Mg1  1  0.16418075  0.83208988  0.62500000  1
  Mg  Mg2  1  0.66581349  0.33162598  0.12500000  1
  Mg  Mg3  1  0.66791012  0.33581925  0.62500000  1
  Mg  Mg4  1  0.66581349  0.83418651  0.12500000  1
  Mg  Mg5  1  0.66791012  0.83208988  0.62500000  1
  Mg  Mg6  1  0.33541477  0.16458523  0.36962766  1
  Mg  Mg7  1  0.33541477  0.16458523  0.88037234  1
  Mg  Mg8  1  0.33541477  0.67083054  0.36962766  1
  Mg  Mg9  1  0.33541477  0.67083054  0.88037234  1
  Mg  Mg10  1  0.82916946  0.16458523  0.36962766  1
  Mg  Mg11  1  0.82916946  0.16458523  0.88037234  1
  Mg  Mg12  1  0.83333300  0.66666700  0.37446672  1
  Mg  Mg13  1  0.83333300  0.66666700  0.87553328  1
  Bi  Bi0  1  0.16666700  0.33333300  0.62500000  1
loop_
_geom_bond_atom_site_label_1
_geom_bond_atom_site_label_2
_geom_bond_distance
_geom_bond_site_symmetry_2
Li0 Mg6 3.168883 1_555
Li0 Mg7 3.168883 1_554
Li0 Mg9 3.168889 1_554
Li0 Mg8 3.168889 1_555
Li0 Mg11 3.168889 1_454
Li0 Mg10 3.168889 1_455
Li0 Mg0 3.202224 1_555
Li0 Mg4 3.202224 1_555
Li0 Mg4 3.202224 1_445
Li0 Mg0 3.202224 1_545
Li0 Mg2 3.202224 1_455
Li0 Mg2 3.202224 1_555
Mg0 Mg9 3.145807 1_554
Mg0 Mg8 3.145807 1_555
Mg0 Mg6 3.145814 1_565
Mg0 Mg7 3.145814 1_564
Mg0 Mg2 3.185811 1_565
Mg0 Mg4 3.185811 1_555
Mg0 Mg13 3.201913 1_454
Mg0 Mg12 3.201913 1_455
Mg0 Mg2 3.218609 1_455
Mg0 Mg4 3.218609 1_455
Mg1 Mg3 3.178325 1_455
Mg1 Mg5 3.178326 1_455
Mg1 Mg13 3.197595 1_455
Mg1 Mg12 3.197595 1_455
Mg1 Mg3 3.226094 1_565
Mg1 Mg5 3.226095 1_555
Mg1 Mg9 3.244484 1_555
Mg1 Mg8 3.244484 1_555
Mg1 Mg6 3.244490 1_565
Mg1 Mg7 3.244490 1_565
Mg2 Mg7 3.145814 1_554
Mg2 Mg6 3.145814 1_555
Mg2 Mg4 3.185811 1_545
Mg2 Mg4 3.218609 1_555
Mg3 Mg5 3.178325 1_555
Mg3 Mg5 3.226094 1_545
Mg3 Mg6 3.244490 1_555
Mg3 Mg7 3.244490 1_555
Mg4 Mg9 3.145814 1_554
Mg4 Mg8 3.145814 1_555
Mg5 Mg9 3.244490 1_555
Mg5 Mg8 3.244490 1_555
Mg6 Mg8 3.162212 1_545
Mg6 Mg8 3.242208 1_555
Mg7 Mg9 3.162212 1_545
Mg7 Mg9 3.242208 1_555
Mg10 Mg2 3.145807 1_555
Mg10 Mg4 3.145814 1_545
Mg10 Mg8 3.162212 1_545
Mg10 Mg6 3.162213 1_555
Mg10 Mg12 3.202693 1_555
Mg10 Mg12 3.202693 1_545
Mg10 Mg8 3.242208 1_655
Mg10 Mg6 3.242208 1_655
Mg10 Mg3 3.244484 1_555
Mg10 Mg5 3.244490 1_545
Mg11 Mg2 3.145807 1_556
Mg11 Mg4 3.145814 1_546
Mg11 Mg9 3.162212 1_545
Mg11 Mg7 3.162213 1_555
Mg11 Mg13 3.202693 1_555
Mg11 Mg13 3.202693 1_545
Mg11 Mg9 3.242208 1_655
Mg11 Mg7 3.242208 1_655
Mg11 Mg3 3.244484 1_555
Mg11 Mg5 3.244490 1_545
Mg12 Mg5 3.197589 1_555
Mg12 Mg3 3.197595 1_555
Mg12 Mg4 3.201907 1_555
Mg12 Mg2 3.201913 1_555
Mg12 Mg6 3.202693 1_555
Mg12 Mg6 3.202693 1_665
Mg12 Mg8 3.202693 1_555
Mg12 Mg8 3.202693 1_655
Mg13 Mg5 3.197589 1_555
Mg13 Mg3 3.197595 1_555
Mg13 Mg4 3.201907 1_556
Mg13 Mg2 3.201913 1_556
Mg13 Mg7 3.202693 1_555
Mg13 Mg7 3.202693 1_665
Mg13 Mg9 3.202693 1_555
Mg13 Mg9 3.202693 1_655
Bi0 Mg1 3.202240 1_545
Bi0 Mg5 3.202240 1_445
Bi0 Mg5 3.202240 1_555
Bi0 Mg1 3.202240 1_555
Bi0 Mg3 3.202240 1_555
Bi0 Mg3 3.202240 1_455
Bi0 Mg6 3.260176 1_555
Bi0 Mg7 3.260176 1_555
Bi0 Mg8 3.260183 1_555
Bi0 Mg9 3.260183 1_555
Bi0 Mg11 3.260183 1_455
Bi0 Mg10 3.260183 1_455
