# generated using pymatgen
data_CsHo(MoO4)2
_symmetry_space_group_name_H-M   'P 1'
_cell_length_a   7.58234464
_cell_length_b   7.58234464
_cell_length_c   7.76981746
_cell_angle_alpha   62.09266781
_cell_angle_beta   62.09266781
_cell_angle_gamma   88.72318668
_symmetry_Int_Tables_number   1
_chemical_formula_structural   CsHo(MoO4)2
_chemical_formula_sum   'Cs2 Ho2 Mo4 O16'
_cell_volume   337.58903475
_cell_formula_units_Z   2
loop_
 _symmetry_equiv_pos_site_id
 _symmetry_equiv_pos_as_xyz
  1  'x, y, z'
loop_
 _atom_site_type_symbol
 _atom_site_label
 _atom_site_symmetry_multiplicity
 _atom_site_fract_x
 _atom_site_fract_y
 _atom_site_fract_z
 _atom_site_occupancy
  Cs  Cs0  1  0.19697600  0.80302400  0.75000000  1
  Cs  Cs1  1  0.80302400  0.19697600  0.25000000  1
  Ho  Ho0  1  0.77063600  0.22936400  0.75000000  1
  Ho  Ho1  1  0.22936400  0.77063600  0.25000000  1
  Mo  Mo0  1  0.69653200  0.69316200  0.76640400  1
  Mo  Mo1  1  0.30346800  0.30683800  0.23359600  1
  Mo  Mo2  1  0.30683800  0.30346800  0.73359600  1
  Mo  Mo3  1  0.69316200  0.69653200  0.26640400  1
  O  O0  1  0.61697000  0.75890400  0.56578400  1
  O  O1  1  0.38303000  0.24109600  0.43421600  1
  O  O2  1  0.24109600  0.38303000  0.93421600  1
  O  O3  1  0.75890400  0.61697000  0.06578400  1
  O  O4  1  0.38144000  0.06773400  0.87721000  1
  O  O5  1  0.61856000  0.93226600  0.12279000  1
  O  O6  1  0.93226600  0.61856000  0.62279000  1
  O  O7  1  0.06773400  0.38144000  0.37721000  1
  O  O8  1  0.58566700  0.36853700  0.96617400  1
  O  O9  1  0.41433300  0.63146300  0.03382600  1
  O  O10  1  0.63146300  0.41433300  0.53382600  1
  O  O11  1  0.36853700  0.58566700  0.46617400  1
  O  O12  1  0.78795200  0.94936300  0.69875300  1
  O  O13  1  0.21204800  0.05063700  0.30124700  1
  O  O14  1  0.05063700  0.21204800  0.80124700  1
  O  O15  1  0.94936300  0.78795200  0.19875300  1
loop_
_geom_bond_atom_site_label_1
_geom_bond_atom_site_label_2
_geom_bond_distance
_geom_bond_site_symmetry_2
Cs0 O3 2.895357 1_456
Cs0 O1 2.895357 1_565
Cs0 O2 2.904454 1_555
Cs0 O0 2.904454 1_555
Cs0 O15 3.033805 1_456
Cs0 O13 3.033805 1_565
Cs0 O9 3.145289 1_556
Cs0 O11 3.145289 1_555
Cs0 O6 3.199685 1_455
Cs0 O4 3.199685 1_565
Cs0 O14 3.405468 1_565
Cs0 O12 3.405468 1_455
Cs1 O0 2.895357 1_545
Cs1 O2 2.895357 1_654
Cs1 O3 2.904454 1_555
Cs1 O1 2.904454 1_555
Cs1 O14 3.033805 1_654
Cs1 O12 3.033805 1_545
Cs1 O8 3.145289 1_554
Cs1 O10 3.145289 1_555
Cs1 O5 3.199685 1_545
Cs1 O7 3.199685 1_655
Cs1 O13 3.405468 1_655
Cs1 O15 3.405468 1_545
Ho0 O8 2.299961 1_555
Ho0 O10 2.299961 1_555
Ho0 O14 2.326619 1_655
Ho0 O12 2.326619 1_545
Ho0 O7 2.382311 1_655
Ho0 O5 2.382311 1_546
Ho0 O4 2.735744 1_555
Ho0 O6 2.735744 1_555
Ho1 O9 2.299961 1_555
Ho1 O11 2.299961 1_555
Ho1 O15 2.326619 1_455
Ho1 O13 2.326619 1_565
Ho1 O6 2.382311 1_455
Ho1 O4 2.382311 1_564
Ho1 O7 2.735744 1_555
Ho1 O5 2.735744 1_555
Mo0 O0 1.783735 1_555
Mo0 O12 1.814828 1_555
Mo0 O6 1.854381 1_555
Mo0 O9 2.021760 1_556
Mo0 O8 2.113982 1_555
Mo0 O3 2.393311 1_556
Mo1 O1 1.783735 1_555
Mo1 O13 1.814828 1_555
Mo1 O7 1.854381 1_555
Mo1 O8 2.021760 1_554
Mo1 O9 2.113982 1_555
Mo1 O2 2.393311 1_554
Mo2 O2 1.783735 1_555
Mo2 O14 1.814828 1_555
Mo2 O4 1.854381 1_555
Mo2 O11 2.021760 1_555
Mo2 O10 2.113982 1_555
Mo2 O1 2.393311 1_555
Mo3 O3 1.783735 1_555
Mo3 O15 1.814828 1_555
Mo3 O5 1.854381 1_555
Mo3 O10 2.021760 1_555
Mo3 O11 2.113982 1_555
Mo3 O0 2.393311 1_555
