# generated using pymatgen
data_Na2CaAl10(H3O10)2
_symmetry_space_group_name_H-M   'P 1'
_cell_length_a   6.99320608
_cell_length_b   13.58049647
_cell_length_c   13.57137056
_cell_angle_alpha   90.00000000
_cell_angle_beta   90.00000000
_cell_angle_gamma   90.00000000
_symmetry_Int_Tables_number   1
_chemical_formula_structural   Na2CaAl10(H3O10)2
_chemical_formula_sum   'Na4 Ca2 Al20 H12 O40'
_cell_volume   1288.88949000
_cell_formula_units_Z   2
loop_
 _symmetry_equiv_pos_site_id
 _symmetry_equiv_pos_as_xyz
  1  'x, y, z'
loop_
 _atom_site_type_symbol
 _atom_site_label
 _atom_site_symmetry_multiplicity
 _atom_site_fract_x
 _atom_site_fract_y
 _atom_site_fract_z
 _atom_site_occupancy
  Na  Na0  1  0.79992582  -0.00000000  0.56710097  1
  Na  Na1  1  0.20007418  0.00000000  0.43289903  1
  Na  Na2  1  0.20007418  0.50000000  0.06710097  1
  Na  Na3  1  0.79992582  0.50000000  0.93289903  1
  Ca  Ca0  1  0.00000000  0.00000000  -0.00000000  1
  Ca  Ca1  1  -0.00000000  0.50000000  0.50000000  1
  Al  Al0  1  0.38515535  0.75000000  0.75000000  1
  Al  Al1  1  0.61484465  0.25000000  0.25000000  1
  Al  Al2  1  0.61484465  0.75000000  0.25000000  1
  Al  Al3  1  0.38515535  0.25000000  0.75000000  1
  Al  Al4  1  0.76893914  0.88287502  0.81469046  1
  Al  Al5  1  0.23106086  0.11712498  0.18530954  1
  Al  Al6  1  0.23106086  0.61712498  0.31469046  1
  Al  Al7  1  0.76893914  0.61712498  0.68530954  1
  Al  Al8  1  0.76893914  0.38287502  0.68530954  1
  Al  Al9  1  0.23106086  0.38287502  0.31469046  1
  Al  Al10  1  0.23106086  0.88287502  0.18530954  1
  Al  Al11  1  0.76893914  0.11712498  0.81469046  1
  Al  Al12  1  0.99875545  0.69283106  0.88715133  1
  Al  Al13  1  0.00124455  0.30716894  0.11284867  1
  Al  Al14  1  0.00124455  0.80716894  0.38715133  1
  Al  Al15  1  0.99875545  0.80716894  0.61284867  1
  Al  Al16  1  0.99875545  0.19283106  0.61284867  1
  Al  Al17  1  0.00124455  0.19283106  0.38715133  1
  Al  Al18  1  0.00124455  0.69283106  0.11284867  1
  Al  Al19  1  0.99875545  0.30716894  0.88715133  1
  H  H0  1  0.36650261  0.00000000  0.63807794  1
  H  H1  1  0.63349739  -0.00000000  0.36192206  1
  H  H2  1  0.63349739  0.50000000  0.13807794  1
  H  H3  1  0.36650261  0.50000000  0.86192206  1
  H  H4  1  0.50000000  0.65818116  -0.00000000  1
  H  H5  1  0.50000000  0.34181884  -0.00000000  1
  H  H6  1  0.50000000  0.84181884  0.50000000  1
  H  H7  1  0.50000000  0.15818116  0.50000000  1
  H  H8  1  0.30587014  -0.00000000  0.88457606  1
  H  H9  1  0.69412986  -0.00000000  0.11542394  1
  H  H10  1  0.69412986  0.50000000  0.38457606  1
  H  H11  1  0.30587014  0.50000000  0.61542394  1
  O  O0  1  0.78923546  0.00000000  0.86880810  1
  O  O1  1  0.21076454  -0.00000000  0.13119190  1
  O  O2  1  0.21076454  0.50000000  0.36880810  1
  O  O3  1  0.78923546  0.50000000  0.63119190  1
  O  O4  1  0.85082119  0.87970690  0.69098729  1
  O  O5  1  0.14917881  0.12029310  0.30901271  1
  O  O6  1  0.14917881  0.62029310  0.19098729  1
  O  O7  1  0.85082119  0.62029310  0.80901271  1
  O  O8  1  0.85082119  0.37970690  0.80901271  1
  O  O9  1  0.14917881  0.37970690  0.19098729  1
  O  O10  1  0.14917881  0.87970690  0.30901271  1
  O  O11  1  0.85082119  0.12029310  0.69098729  1
  O  O12  1  -0.00000000  0.62862485  -0.00000000  1
  O  O13  1  0.00000000  0.37137515  -0.00000000  1
  O  O14  1  0.00000000  0.87137515  0.50000000  1
  O  O15  1  -0.00000000  0.12862485  0.50000000  1
  O  O16  1  0.91427355  0.81452232  0.89534072  1
  O  O17  1  0.08572645  0.18547768  0.10465928  1
  O  O18  1  0.08572645  0.68547768  0.39534072  1
  O  O19  1  0.91427355  0.68547768  0.60465928  1
  O  O20  1  0.91427355  0.31452232  0.60465928  1
  O  O21  1  0.08572645  0.31452232  0.39534072  1
  O  O22  1  0.08572645  0.81452232  0.10465928  1
  O  O23  1  0.91427355  0.18547768  0.89534072  1
  O  O24  1  0.77195266  0.80221020  0.33571496  1
  O  O25  1  0.22804734  0.19778980  0.66428504  1
  O  O26  1  0.22804734  0.69778980  0.83571496  1
  O  O27  1  0.77195266  0.69778980  0.16428504  1
  O  O28  1  0.77195266  0.30221020  0.16428504  1
  O  O29  1  0.22804734  0.30221020  0.83571496  1
  O  O30  1  0.22804734  0.80221020  0.66428504  1
  O  O31  1  0.77195266  0.19778980  0.33571496  1
  O  O32  1  0.53456034  0.83881442  0.80293548  1
  O  O33  1  0.46543966  0.16118558  0.19706452  1
  O  O34  1  0.46543966  0.66118558  0.30293548  1
  O  O35  1  0.53456034  0.66118558  0.69706452  1
  O  O36  1  0.53456034  0.33881442  0.69706452  1
  O  O37  1  0.46543966  0.33881442  0.30293548  1
  O  O38  1  0.46543966  0.83881442  0.19706452  1
  O  O39  1  0.53456034  0.16118558  0.80293548  1
loop_
_geom_bond_atom_site_label_1
_geom_bond_atom_site_label_2
_geom_bond_distance
_geom_bond_site_symmetry_2
Na0 O11 2.371129 1_555
Na0 O4 2.371129 1_545
Na0 O15 2.416239 1_655
Na0 O14 2.416239 1_645
Na1 O5 2.371129 1_555
Na1 O10 2.371129 1_545
Na1 O15 2.416239 1_555
Na1 O14 2.416239 1_545
Na2 O6 2.371129 1_555
Na2 O9 2.371129 1_555
Na2 O13 2.416239 1_555
Na2 O12 2.416239 1_555
Na3 O7 2.371129 1_555
Na3 O8 2.371129 1_555
Na3 O12 2.416239 1_656
Na3 O13 2.416239 1_656
Ca0 O1 2.311375 1_555
Ca0 O0 2.311375 1_454
Ca0 H9 2.651259 1_455
Ca0 H8 2.651259 1_554
Ca0 O17 2.953236 1_555
Ca0 O16 2.953236 1_444
Ca0 O23 2.953236 1_454
Ca0 O22 2.953236 1_545
Ca1 O3 2.311375 1_455
Ca1 O2 2.311375 1_555
Ca1 H11 2.651259 1_555
Ca1 H10 2.651259 1_455
Ca1 O18 2.953236 1_555
Ca1 O21 2.953236 1_555
Ca1 O19 2.953236 1_455
Ca1 O20 2.953236 1_455
Al0 O35 1.750012 1_555
Al0 O32 1.750012 1_555
Al0 O30 1.750157 1_555
Al0 O26 1.750157 1_555
Al1 O37 1.750012 1_555
Al1 O33 1.750012 1_555
Al1 O28 1.750157 1_555
Al1 O31 1.750157 1_555
Al2 O34 1.750012 1_555
Al2 O38 1.750012 1_555
Al2 O27 1.750157 1_555
Al2 O24 1.750157 1_555
Al3 O39 1.750012 1_555
Al3 O36 1.750012 1_555
Al3 O29 1.750157 1_555
Al3 O25 1.750157 1_555
Al4 O32 1.752143 1_555
Al4 O0 1.757732 1_565
Al4 O16 1.758594 1_555
Al4 O4 1.774312 1_555
Al5 O33 1.752143 1_555
Al5 O1 1.757732 1_555
Al5 O17 1.758594 1_555
Al5 O5 1.774312 1_555
Al6 O34 1.752143 1_555
Al6 O2 1.757732 1_555
Al6 O18 1.758594 1_555
Al6 O6 1.774312 1_555
Al7 O35 1.752143 1_555
Al7 O3 1.757732 1_555
Al7 O19 1.758594 1_555
Al7 O7 1.774312 1_555
Al8 O36 1.752143 1_555
Al8 O3 1.757732 1_555
Al8 O20 1.758594 1_555
Al8 O8 1.774312 1_555
Al9 O37 1.752143 1_555
Al9 O2 1.757732 1_555
Al9 O21 1.758594 1_555
Al9 O9 1.774312 1_555
Al10 O38 1.752143 1_555
Al10 O1 1.757732 1_565
Al10 O22 1.758594 1_555
Al10 O10 1.774312 1_555
Al11 O39 1.752143 1_555
Al11 O0 1.757732 1_555
Al11 O23 1.758594 1_555
Al11 O11 1.774312 1_555
Al12 O26 1.750140 1_655
Al12 O16 1.758572 1_555
Al12 O12 1.762357 1_656
Al12 O7 1.779111 1_555
Al13 O28 1.750140 1_455
Al13 O17 1.758572 1_555
Al13 O13 1.762357 1_555
Al13 O9 1.779111 1_555
Al14 O24 1.750140 1_455
Al14 O18 1.758572 1_555
Al14 O14 1.762357 1_555
Al14 O10 1.779111 1_555
Al15 O30 1.750140 1_655
Al15 O19 1.758572 1_555
Al15 O14 1.762357 1_655
Al15 O4 1.779111 1_555
Al16 O25 1.750140 1_655
Al16 O20 1.758572 1_555
Al16 O15 1.762357 1_655
Al16 O11 1.779111 1_555
Al17 O31 1.750140 1_455
Al17 O21 1.758572 1_555
Al17 O15 1.762357 1_555
Al17 O5 1.779111 1_555
Al18 O27 1.750140 1_455
Al18 O22 1.758572 1_555
Al18 O12 1.762357 1_555
Al18 O6 1.779111 1_555
Al19 O29 1.750140 1_655
Al19 O23 1.758572 1_555
Al19 O13 1.762357 1_656
Al19 O8 1.779111 1_555
