# generated using pymatgen
data_YSi2Ru3
_symmetry_space_group_name_H-M   'P 1'
_cell_length_a   3.63554800
_cell_length_b   5.57388971
_cell_length_c   5.57388971
_cell_angle_alpha   119.99999653
_cell_angle_beta   90.00000000
_cell_angle_gamma   90.00000000
_symmetry_Int_Tables_number   1
_chemical_formula_structural   YSi2Ru3
_chemical_formula_sum   'Y1 Si2 Ru3'
_cell_volume   97.81766052
_cell_formula_units_Z   1
loop_
 _symmetry_equiv_pos_site_id
 _symmetry_equiv_pos_as_xyz
  1  'x, y, z'
loop_
 _atom_site_type_symbol
 _atom_site_label
 _atom_site_symmetry_multiplicity
 _atom_site_fract_x
 _atom_site_fract_y
 _atom_site_fract_z
 _atom_site_occupancy
  Y  Y0  1  0.00000000  0.00000000  0.00000000  1
  Si  Si0  1  0.00000000  0.33333300  0.66666700  1
  Si  Si1  1  0.00000000  0.66666700  0.33333300  1
  Ru  Ru0  1  0.50000000  0.50000000  0.00000000  1
  Ru  Ru1  1  0.50000000  0.50000000  0.50000000  1
  Ru  Ru2  1  0.50000000  0.00000000  0.50000000  1
loop_
_geom_bond_atom_site_label_1
_geom_bond_atom_site_label_2
_geom_bond_distance
_geom_bond_site_symmetry_2
Si0 Y0 3.218083 1_556
Si0 Y0 3.218088 1_555
Si0 Y0 3.218088 1_566
Si1 Y0 3.218083 1_565
Si1 Y0 3.218088 1_555
Si1 Y0 3.218088 1_566
Ru0 Si0 2.427616 1_654
Ru0 Si1 2.427616 1_655
Ru0 Si1 2.427616 1_555
Ru0 Si0 2.427616 1_554
Ru0 Y0 3.327366 1_655
Ru0 Y0 3.327366 1_555
Ru0 Y0 3.327366 1_565
Ru0 Y0 3.327366 1_665
Ru1 Si1 2.427619 1_555
Ru1 Si1 2.427619 1_655
Ru1 Si0 2.427619 1_655
Ru1 Si0 2.427619 1_555
Ru1 Y0 3.327366 1_566
Ru1 Y0 3.327366 1_655
Ru1 Y0 3.327366 1_666
Ru1 Y0 3.327366 1_555
Ru2 Si1 2.427616 1_645
Ru2 Si1 2.427616 1_545
Ru2 Si0 2.427616 1_555
Ru2 Si0 2.427616 1_655
Ru2 Y0 3.327366 1_655
Ru2 Y0 3.327366 1_556
Ru2 Y0 3.327366 1_555
Ru2 Y0 3.327366 1_656
