# generated using pymatgen
data_DyFeGe2
_symmetry_space_group_name_H-M   'P 1'
_cell_length_a   8.40548571
_cell_length_b   8.40548571
_cell_length_c   4.32332500
_cell_angle_alpha   90.00000000
_cell_angle_beta   90.00000000
_cell_angle_gamma   151.32476289
_symmetry_Int_Tables_number   1
_chemical_formula_structural   DyFeGe2
_chemical_formula_sum   'Dy2 Fe2 Ge4'
_cell_volume   146.56960022
_cell_formula_units_Z   2
loop_
 _symmetry_equiv_pos_site_id
 _symmetry_equiv_pos_as_xyz
  1  'x, y, z'
loop_
 _atom_site_type_symbol
 _atom_site_label
 _atom_site_symmetry_multiplicity
 _atom_site_fract_x
 _atom_site_fract_y
 _atom_site_fract_z
 _atom_site_occupancy
  Dy  Dy0  1  0.89396600  0.10603400  0.25000000  1
  Dy  Dy1  1  0.10603400  0.89396600  0.75000000  1
  Fe  Fe0  1  0.68452700  0.31547300  0.25000000  1
  Fe  Fe1  1  0.31547300  0.68452700  0.75000000  1
  Ge  Ge0  1  0.54379500  0.45620500  0.25000000  1
  Ge  Ge1  1  0.45620500  0.54379500  0.75000000  1
  Ge  Ge2  1  0.25268000  0.74732000  0.25000000  1
  Ge  Ge3  1  0.74732000  0.25268000  0.75000000  1
loop_
_geom_bond_atom_site_label_1
_geom_bond_atom_site_label_2
_geom_bond_distance
_geom_bond_site_symmetry_2
Dy0 Ge2 3.102907 1_545
Dy0 Ge2 3.102907 1_655
Dy0 Ge1 3.167492 1_544
Dy0 Ge1 3.167492 1_545
Dy0 Ge1 3.167492 1_655
Dy0 Ge1 3.167492 1_654
Dy0 Ge0 3.207457 1_545
Dy0 Ge0 3.207457 1_655
Dy0 Ge3 3.221429 1_555
Dy0 Ge3 3.221429 1_554
Dy0 Fe1 3.261874 1_544
Dy0 Fe1 3.261874 1_545
Dy0 Fe1 3.261874 1_655
Dy0 Fe1 3.261874 1_654
Dy1 Ge3 3.102907 1_455
Dy1 Ge3 3.102907 1_565
Dy1 Ge0 3.167492 1_455
Dy1 Ge0 3.167492 1_456
Dy1 Ge0 3.167492 1_566
Dy1 Ge0 3.167492 1_565
Dy1 Ge1 3.207457 1_455
Dy1 Ge1 3.207457 1_565
Dy1 Ge2 3.221429 1_555
Dy1 Ge2 3.221429 1_556
Dy1 Fe0 3.261874 1_456
Dy1 Fe0 3.261874 1_455
Dy1 Fe0 3.261874 1_565
Dy1 Fe0 3.261874 1_566
Fe0 Ge0 2.292154 1_555
Fe0 Ge2 2.358981 1_545
Fe0 Ge2 2.358981 1_655
Fe0 Ge3 2.391394 1_555
Fe0 Ge3 2.391394 1_554
Fe1 Ge1 2.292154 1_555
Fe1 Ge3 2.358981 1_455
Fe1 Ge3 2.358981 1_565
Fe1 Ge2 2.391394 1_555
Fe1 Ge2 2.391394 1_556
Ge0 Ge1 2.589981 1_555
Ge0 Ge1 2.589981 1_554
