# generated using pymatgen
data_LiNi9O13
_symmetry_space_group_name_H-M   'P 1'
_cell_length_a   2.88262646
_cell_length_b   5.15958157
_cell_length_c   16.22830226
_cell_angle_alpha   99.13606333
_cell_angle_beta   90.04792796
_cell_angle_gamma   106.05274671
_symmetry_Int_Tables_number   1
_chemical_formula_structural   LiNi9O13
_chemical_formula_sum   'Li1 Ni9 O13'
_cell_volume   228.75713393
_cell_formula_units_Z   1
loop_
 _symmetry_equiv_pos_site_id
 _symmetry_equiv_pos_as_xyz
  1  'x, y, z'
loop_
 _atom_site_type_symbol
 _atom_site_label
 _atom_site_symmetry_multiplicity
 _atom_site_fract_x
 _atom_site_fract_y
 _atom_site_fract_z
 _atom_site_occupancy
  Li  Li0  1  0.94848100  0.90128600  0.35220200  1
  Ni  Ni0  1  0.49349400  0.98937900  0.51815800  1
  Ni  Ni1  1  0.63665200  0.27082200  0.04227100  1
  Ni  Ni2  1  0.33882200  0.67525800  0.95065500  1
  Ni  Ni3  1  0.73730100  0.47581200  0.43384000  1
  Ni  Ni4  1  0.24498600  0.49266400  0.60434400  1
  Ni  Ni5  1  0.91451600  0.82696900  0.11725500  1
  Ni  Ni6  1  0.05177900  0.10260100  0.87846300  1
  Ni  Ni7  1  0.10675300  0.21292500  0.24177200  1
  Ni  Ni8  1  0.99824800  0.99805600  0.67978600  1
  O  O0  1  0.98768100  0.97291700  0.99110900  1
  O  O1  1  0.89997200  0.79785800  0.23320600  1
  O  O2  1  0.11745700  0.23465200  0.77875800  1
  O  O3  1  0.28569400  0.56846800  0.06388300  1
  O  O4  1  0.68624200  0.36878500  0.92432700  1
  O  O5  1  0.57543900  0.15005900  0.15423700  1
  O  O6  1  0.42462800  0.84846600  0.84972800  1
  O  O7  1  0.62713400  0.25341100  0.32047500  1
  O  O8  1  0.38619700  0.77227600  0.70777800  1
  O  O9  1  0.36479100  0.73283400  0.41466000  1
  O  O10  1  0.60895200  0.22125300  0.63001400  1
  O  O11  1  0.12642000  0.25335200  0.48535000  1
  O  O12  1  0.87585900  0.75489600  0.56939500  1
loop_
_geom_bond_atom_site_label_1
_geom_bond_atom_site_label_2
_geom_bond_distance
_geom_bond_site_symmetry_2
Li0 O1 1.914293 1_555
Li0 O9 2.019278 1_655
Li0 O9 2.021786 1_555
Li0 O7 2.377185 1_565
Li0 O7 2.392933 1_665
Li0 O11 2.543254 1_665
Ni0 O9 1.931875 1_555
Ni0 O10 1.981486 1_565
Ni0 O11 2.069905 1_565
Ni0 O11 2.079632 1_665
Ni0 O12 2.103653 1_555
Ni0 O12 2.110831 1_455
Ni1 O5 2.005040 1_555
Ni1 O3 2.047869 1_555
Ni1 O4 2.051133 1_554
Ni1 O3 2.054440 1_655
Ni1 O0 2.128883 1_544
Ni1 O0 2.133888 1_444
Ni2 O6 1.971225 1_555
Ni2 O3 1.994683 1_556
Ni2 O4 2.085166 1_555
Ni2 O0 2.086838 1_455
Ni2 O4 2.088229 1_455
Ni2 O0 2.092182 1_555
Ni3 O9 1.981568 1_555
Ni3 O7 1.982239 1_555
Ni3 O9 1.983114 1_655
Ni3 O11 2.071119 1_655
Ni3 O11 2.075200 1_555
Ni3 O12 2.397245 1_555
Ni4 O8 1.992399 1_555
Ni4 O10 2.057284 1_555
Ni4 O10 2.064628 1_455
Ni4 O12 2.079278 1_455
Ni4 O12 2.084257 1_555
Ni4 O11 2.092552 1_555
Ni5 O1 1.910882 1_555
Ni5 O3 2.024319 1_655
Ni5 O3 2.026892 1_555
Ni5 O5 2.163072 1_565
Ni5 O5 2.166286 1_665
Ni5 O0 2.281386 1_554
Ni6 O2 1.843196 1_555
Ni6 O6 1.917813 1_545
Ni6 O6 1.923148 1_445
Ni6 O4 2.006872 1_455
Ni6 O4 2.017201 1_555
Ni6 O0 2.035745 1_445
Ni7 O7 1.914127 1_555
Ni7 O7 1.914248 1_455
Ni7 O5 2.011016 1_455
Ni7 O5 2.011898 1_555
Ni7 O1 2.039682 1_445
Ni8 O2 1.825497 1_665
Ni8 O8 1.923985 1_655
Ni8 O8 1.925860 1_555
Ni8 O12 1.987017 1_555
Ni8 O10 2.060702 1_565
Ni8 O10 2.062590 1_665
