# generated using pymatgen
data_Sr2AlCu2SbO7
_symmetry_space_group_name_H-M   'P 1'
_cell_length_a   5.31317293
_cell_length_b   5.34158726
_cell_length_c   12.68612676
_cell_angle_alpha   102.13422467
_cell_angle_beta   102.07027743
_cell_angle_gamma   90.00226801
_symmetry_Int_Tables_number   1
_chemical_formula_structural   Sr2AlCu2SbO7
_chemical_formula_sum   'Sr4 Al2 Cu4 Sb2 O14'
_cell_volume   343.85133055
_cell_formula_units_Z   2
loop_
 _symmetry_equiv_pos_site_id
 _symmetry_equiv_pos_as_xyz
  1  'x, y, z'
loop_
 _atom_site_type_symbol
 _atom_site_label
 _atom_site_symmetry_multiplicity
 _atom_site_fract_x
 _atom_site_fract_y
 _atom_site_fract_z
 _atom_site_occupancy
  Sr  Sr0  1  0.33774400  0.36359200  0.71735300  1
  Sr  Sr1  1  0.62184000  0.63966800  0.28404100  1
  Sr  Sr2  1  0.83845200  0.85509600  0.71731800  1
  Sr  Sr3  1  0.12216700  0.14845700  0.28405800  1
  Al  Al0  1  0.99001700  0.99909100  0.00068300  1
  Al  Al1  1  0.48598100  0.49757800  0.00067500  1
  Cu  Cu0  1  0.92950300  0.44228700  0.88781400  1
  Cu  Cu1  1  0.04250300  0.55691800  0.11312100  1
  Cu  Cu2  1  0.43032100  0.94180200  0.88765200  1
  Cu  Cu3  1  0.54482200  0.05713600  0.11395000  1
  Sb  Sb0  1  0.24040800  0.74835100  0.50071600  1
  Sb  Sb1  1  0.74015800  0.25494800  0.50069200  1
  O  O0  1  0.10677000  0.38468300  0.50074300  1
  O  O1  1  0.60705000  0.61866300  0.50061400  1
  O  O2  1  0.25747900  0.26888000  0.89668100  1
  O  O3  1  0.36123000  0.72930500  0.10359400  1
  O  O4  1  0.75838600  0.12381700  0.89776200  1
  O  O5  1  0.86379400  0.87626200  0.10468200  1
  O  O6  1  0.61021600  0.62255200  0.89683700  1
  O  O7  1  0.71542500  0.37736500  0.10560100  1
  O  O8  1  0.11043400  0.76974300  0.89572300  1
  O  O9  1  0.21621600  0.22988700  0.10455700  1
  O  O10  1  0.33120900  0.83105700  0.67813000  1
  O  O11  1  0.65327200  0.17132000  0.32323600  1
  O  O12  1  0.83009000  0.34824200  0.67809100  1
  O  O13  1  0.15377800  0.65458100  0.32345600  1
loop_
_geom_bond_atom_site_label_1
_geom_bond_atom_site_label_2
_geom_bond_distance
_geom_bond_site_symmetry_2
Al0 O8 1.831317 1_654
Al0 O5 1.831619 1_555
Al0 O9 1.831746 1_665
Al0 O4 1.832208 1_564
Al1 O6 1.830285 1_554
Al1 O7 1.830589 1_555
Al1 O3 1.832687 1_555
Al1 O2 1.832832 1_554
Cu0 O6 1.962944 1_555
Cu0 O2 1.967031 1_655
Cu0 O4 1.968376 1_555
Cu0 O8 1.969624 1_655
Cu0 O12 2.541723 1_555
Cu1 O7 1.959863 1_455
Cu1 O5 1.963973 1_455
Cu1 O3 1.965339 1_555
Cu1 O9 1.969133 1_555
Cu1 O13 2.548862 1_555
Cu2 O4 1.963146 1_565
Cu2 O8 1.963690 1_555
Cu2 O2 1.966944 1_565
Cu2 O6 1.967815 1_555
Cu2 O10 2.538874 1_555
Cu3 O5 1.963460 1_545
Cu3 O9 1.968082 1_555
Cu3 O7 1.968494 1_555
Cu3 O3 1.970992 1_545
Cu3 O11 2.536250 1_555
O0 Sb1 2.067274 1_455
O0 Sb0 2.068330 1_555
O0 Sr0 2.791004 1_555
O0 Sr3 2.791261 1_555
O1 Sb1 2.067686 1_555
O1 Sb0 2.067729 1_555
O1 Sr1 2.790566 1_555
O1 Sr2 2.791236 1_555
O2 Sr0 2.550086 1_555
O3 Sr1 2.553831 1_555
O4 Sr2 2.550964 1_545
O5 Sr3 2.545430 1_665
O6 Sr0 2.547718 1_555
O7 Sr1 2.544043 1_555
O8 Sr2 2.546475 1_455
O9 Sr3 2.552782 1_555
O10 Sb0 2.149745 1_555
O10 Sr2 2.634355 1_555
O10 Sr0 2.645555 1_555
O10 Sr2 2.763266 1_455
O10 Sr0 2.781755 1_565
O11 Sb1 2.150176 1_555
O11 Sr3 2.638367 1_655
O11 Sr1 2.649906 1_555
O11 Sr3 2.759110 1_555
O11 Sr1 2.776969 1_545
O12 Sb1 2.149463 1_555
O12 Sr0 2.636463 1_655
O12 Sr2 2.646505 1_555
O12 Sr0 2.761451 1_555
O12 Sr2 2.780359 1_545
O13 Sb0 2.147827 1_555
O13 Sr1 2.635213 1_555
O13 Sr3 2.642678 1_555
O13 Sr1 2.763408 1_455
O13 Sr3 2.785092 1_565
