# generated using pymatgen
data_Cd4SiS6
_symmetry_space_group_name_H-M   'P 1'
_cell_length_a   7.24483721
_cell_length_b   7.24483721
_cell_length_c   12.61519497
_cell_angle_alpha   72.21117317
_cell_angle_beta   72.21117317
_cell_angle_gamma   59.46898064
_symmetry_Int_Tables_number   1
_chemical_formula_structural   Cd4SiS6
_chemical_formula_sum   'Cd8 Si2 S12'
_cell_volume   533.87272944
_cell_formula_units_Z   2
loop_
 _symmetry_equiv_pos_site_id
 _symmetry_equiv_pos_as_xyz
  1  'x, y, z'
loop_
 _atom_site_type_symbol
 _atom_site_label
 _atom_site_symmetry_multiplicity
 _atom_site_fract_x
 _atom_site_fract_y
 _atom_site_fract_z
 _atom_site_occupancy
  Cd  Cd0  1  0.63290500  0.42199700  0.68893300  1
  Cd  Cd1  1  0.42199700  0.63290500  0.18893300  1
  Cd  Cd2  1  0.25811800  0.10868100  0.69242200  1
  Cd  Cd3  1  0.10868100  0.25811800  0.19242200  1
  Cd  Cd4  1  0.01459000  0.61813100  0.84771400  1
  Cd  Cd5  1  0.61813100  0.01459000  0.34771400  1
  Cd  Cd6  1  0.11307500  0.89198800  0.49929800  1
  Cd  Cd7  1  0.89198800  0.11307500  0.99929800  1
  Si  Si0  1  0.02503500  0.47939200  0.43728200  1
  Si  Si1  1  0.47939200  0.02503500  0.93728200  1
  S  S0  1  0.30564800  0.33558700  0.98584900  1
  S  S1  1  0.33558700  0.30564800  0.48584900  1
  S  S2  1  0.83367300  0.30992400  0.49097000  1
  S  S3  1  0.30992400  0.83367300  0.99097000  1
  S  S4  1  0.90282100  0.36293100  0.80620700  1
  S  S5  1  0.36293100  0.90282100  0.30620700  1
  S  S6  1  0.58854900  0.05825500  0.75765300  1
  S  S7  1  0.05825500  0.58854900  0.25765300  1
  S  S8  1  0.76705300  0.82953700  0.01228100  1
  S  S9  1  0.82953700  0.76705300  0.51228100  1
  S  S10  1  0.75530900  0.25800100  0.18509100  1
  S  S11  1  0.25800100  0.75530900  0.68509100  1
loop_
_geom_bond_atom_site_label_1
_geom_bond_atom_site_label_2
_geom_bond_distance
_geom_bond_site_symmetry_2
Cd0 S11 2.560454 1_555
Cd0 S4 2.593547 1_555
Cd0 S2 2.613656 1_555
Cd0 S6 2.663389 1_555
Cd1 S10 2.560454 1_555
Cd1 S5 2.593547 1_555
Cd1 S3 2.613656 1_554
Cd1 S7 2.663389 1_555
Cd2 S4 2.572899 1_455
Cd2 S6 2.583197 1_555
Cd2 S11 2.590309 1_545
Cd2 S1 2.605800 1_555
Cd3 S5 2.572899 1_545
Cd3 S7 2.583197 1_555
Cd3 S10 2.590309 1_455
Cd3 S0 2.605800 1_554
Cd4 S11 2.574995 1_555
Cd4 S4 2.592284 1_455
Cd4 S8 2.597919 1_456
Cd4 S0 2.711724 1_555
Cd5 S10 2.574995 1_555
Cd5 S5 2.592284 1_545
Cd5 S9 2.597919 1_545
Cd5 S1 2.711724 1_555
Cd6 S5 2.559240 1_555
Cd6 S11 2.570147 1_555
Cd6 S9 2.580446 1_455
Cd6 S2 2.642898 1_465
Cd7 S4 2.559240 1_555
Cd7 S10 2.570147 1_556
Cd7 S8 2.580446 1_546
Cd7 S3 2.642898 1_645
S0 Si1 2.124976 1_555
S1 Si0 2.124976 1_555
S2 Si0 2.129738 1_655
S3 Si1 2.129738 1_565
S6 Si1 2.140910 1_555
S7 Si0 2.140910 1_555
S8 Si1 2.152090 1_564
S9 Si0 2.152090 1_655
