# generated using pymatgen
data_MnFePd6
_symmetry_space_group_name_H-M   'P 1'
_cell_length_a   3.88244032
_cell_length_b   3.88243826
_cell_length_c   7.75924238
_cell_angle_alpha   90.00000000
_cell_angle_beta   90.00000000
_cell_angle_gamma   90.00000000
_symmetry_Int_Tables_number   1
_chemical_formula_structural   MnFePd6
_chemical_formula_sum   'Mn1 Fe1 Pd6'
_cell_volume   116.95765850
_cell_formula_units_Z   1
loop_
 _symmetry_equiv_pos_site_id
 _symmetry_equiv_pos_as_xyz
  1  'x, y, z'
loop_
 _atom_site_type_symbol
 _atom_site_label
 _atom_site_symmetry_multiplicity
 _atom_site_fract_x
 _atom_site_fract_y
 _atom_site_fract_z
 _atom_site_occupancy
  Mn  Mn0  1  0.00000000  -0.00000000  0.50000000  1
  Fe  Fe0  1  0.00000000  -0.00000000  0.00000000  1
  Pd  Pd0  1  0.50000000  0.50000000  0.00000000  1
  Pd  Pd1  1  0.50000000  0.50000000  0.50000000  1
  Pd  Pd2  1  0.50000000  -0.00000000  0.24509172  1
  Pd  Pd3  1  0.50000000  -0.00000000  0.75490828  1
  Pd  Pd4  1  0.00000000  0.50000000  0.24509172  1
  Pd  Pd5  1  0.00000000  0.50000000  0.75490828  1
loop_
_geom_bond_atom_site_label_1
_geom_bond_atom_site_label_2
_geom_bond_distance
_geom_bond_site_symmetry_2
Mn0 Pd1 2.745299 1_455
Mn0 Pd1 2.745299 1_555
Mn0 Pd1 2.745299 1_545
Mn0 Pd1 2.745299 1_445
Mn0 Pd5 2.771354 1_555
Mn0 Pd4 2.771354 1_545
Mn0 Pd4 2.771354 1_555
Mn0 Pd5 2.771354 1_545
Mn0 Pd2 2.771354 1_455
Mn0 Pd3 2.771354 1_555
Mn0 Pd3 2.771354 1_455
Mn0 Pd2 2.771354 1_555
Fe0 Pd5 2.717516 1_544
Fe0 Pd5 2.717516 1_554
Fe0 Pd4 2.717516 1_545
Fe0 Pd4 2.717516 1_555
Fe0 Pd3 2.717517 1_554
Fe0 Pd2 2.717517 1_555
Fe0 Pd3 2.717517 1_454
Fe0 Pd2 2.717517 1_455
Fe0 Pd0 2.745299 1_445
Fe0 Pd0 2.745299 1_545
Fe0 Pd0 2.745299 1_455
Fe0 Pd0 2.745299 1_555
Pd0 Pd3 2.717516 1_564
Pd0 Pd3 2.717516 1_554
Pd0 Pd2 2.717516 1_555
Pd0 Pd2 2.717516 1_565
Pd0 Pd5 2.717517 1_654
Pd0 Pd4 2.717517 1_655
Pd0 Pd5 2.717517 1_554
Pd0 Pd4 2.717517 1_555
Pd1 Pd2 2.771354 1_555
Pd1 Pd2 2.771354 1_565
Pd1 Pd3 2.771354 1_565
Pd1 Pd3 2.771354 1_555
Pd1 Pd4 2.771354 1_555
Pd1 Pd4 2.771354 1_655
Pd1 Pd5 2.771354 1_555
Pd1 Pd5 2.771354 1_655
Pd2 Pd4 2.745299 1_655
Pd2 Pd4 2.745299 1_545
Pd2 Pd4 2.745299 1_555
Pd2 Pd4 2.745299 1_645
Pd3 Pd5 2.745299 1_555
Pd3 Pd5 2.745299 1_545
Pd3 Pd5 2.745299 1_655
Pd3 Pd5 2.745299 1_645
