# generated using pymatgen
data_Mg3Tl
_symmetry_space_group_name_H-M   'P 1'
_cell_length_a   4.47311272
_cell_length_b   4.47311272
_cell_length_c   4.47311272
_cell_angle_alpha   90.00000000
_cell_angle_beta   90.00000000
_cell_angle_gamma   90.00000000
_symmetry_Int_Tables_number   1
_chemical_formula_structural   Mg3Tl
_chemical_formula_sum   'Mg3 Tl1'
_cell_volume   89.50133780
_cell_formula_units_Z   1
loop_
 _symmetry_equiv_pos_site_id
 _symmetry_equiv_pos_as_xyz
  1  'x, y, z'
loop_
 _atom_site_type_symbol
 _atom_site_label
 _atom_site_symmetry_multiplicity
 _atom_site_fract_x
 _atom_site_fract_y
 _atom_site_fract_z
 _atom_site_occupancy
  Mg  Mg0  1  0.50000000  0.50000000  -0.00000000  1
  Mg  Mg1  1  0.50000000  -0.00000000  0.50000000  1
  Mg  Mg2  1  0.00000000  0.50000000  0.50000000  1
  Tl  Tl0  1  0.00000000  0.00000000  0.00000000  1
loop_
_geom_bond_atom_site_label_1
_geom_bond_atom_site_label_2
_geom_bond_distance
_geom_bond_site_symmetry_2
Mg0 Tl0 3.162968 1_565
Mg0 Mg1 3.162968 1_555
Mg0 Tl0 3.162968 1_655
Mg0 Mg2 3.162968 1_555
Mg0 Mg1 3.162968 1_564
Mg0 Mg1 3.162968 1_565
Mg0 Tl0 3.162968 1_665
Mg0 Mg2 3.162968 1_654
Mg0 Mg1 3.162968 1_554
Mg0 Mg2 3.162968 1_655
Mg0 Mg2 3.162968 1_554
Mg0 Tl0 3.162968 1_555
Mg1 Mg2 3.162968 1_645
Mg1 Tl0 3.162968 1_655
Mg1 Mg2 3.162968 1_555
Mg1 Tl0 3.162968 1_656
Mg1 Mg2 3.162968 1_545
Mg1 Mg2 3.162968 1_655
Mg1 Tl0 3.162968 1_555
Mg1 Tl0 3.162968 1_556
Mg2 Tl0 3.162968 1_565
Mg2 Tl0 3.162968 1_566
Mg2 Tl0 3.162968 1_555
Mg2 Tl0 3.162968 1_556
