# generated using pymatgen
data_LaCrAsO
_symmetry_space_group_name_H-M   'P 1'
_cell_length_a   4.23395283
_cell_length_b   4.23329895
_cell_length_c   17.86191668
_cell_angle_alpha   89.97054180
_cell_angle_beta   90.01160869
_cell_angle_gamma   89.92930248
_symmetry_Int_Tables_number   1
_chemical_formula_structural   LaCrAsO
_chemical_formula_sum   'La4 Cr4 As4 O4'
_cell_volume   320.14934358
_cell_formula_units_Z   4
loop_
 _symmetry_equiv_pos_site_id
 _symmetry_equiv_pos_as_xyz
  1  'x, y, z'
loop_
 _atom_site_type_symbol
 _atom_site_label
 _atom_site_symmetry_multiplicity
 _atom_site_fract_x
 _atom_site_fract_y
 _atom_site_fract_z
 _atom_site_occupancy
  La  La0  1  0.75001800  0.74998300  0.43559300  1
  La  La1  1  0.75002800  0.74998900  0.93545000  1
  La  La2  1  0.25001400  0.25001500  0.06442800  1
  La  La3  1  0.25001600  0.24999700  0.56456800  1
  Cr  Cr0  1  0.74951200  0.24990100  0.74996600  1
  Cr  Cr1  1  0.25035300  0.75013200  0.74992000  1
  Cr  Cr2  1  0.74988600  0.25034800  0.24999000  1
  Cr  Cr3  1  0.24984300  0.74981700  0.24999600  1
  As  As0  1  0.75005900  0.74986200  0.16473700  1
  As  As1  1  0.75002500  0.75002500  0.66475200  1
  As  As2  1  0.25008000  0.25002800  0.33529500  1
  As  As3  1  0.24998800  0.25002000  0.83527000  1
  O  O0  1  0.75005700  0.25001600  0.99996400  1
  O  O1  1  0.75007300  0.25001400  0.50004500  1
  O  O2  1  0.25001900  0.74993100  0.99997200  1
  O  O3  1  0.25002800  0.74992200  0.50005300  1
loop_
_geom_bond_atom_site_label_1
_geom_bond_atom_site_label_2
_geom_bond_distance
_geom_bond_site_symmetry_2
La0 O1 2.408835 1_555
La0 O3 2.409658 1_655
La0 O3 2.409994 1_555
La0 O1 2.410106 1_565
La1 O0 2.409379 1_555
La1 O2 2.410117 1_655
La1 O2 2.410594 1_555
La1 O0 2.410621 1_565
La2 O2 2.408673 1_554
La2 O0 2.409496 1_454
La2 O0 2.410225 1_554
La2 O2 2.410337 1_544
La3 O3 2.409210 1_555
La3 O1 2.409947 1_455
La3 O1 2.410781 1_555
La3 O3 2.410808 1_545
As0 Cr2 2.605198 1_555
As0 Cr3 2.606838 1_655
As0 Cr3 2.608824 1_555
As0 Cr2 2.609808 1_565
As0 La2 3.486986 1_565
As0 La2 3.487529 1_655
As0 La2 3.490366 1_665
As0 La2 3.490488 1_555
As1 Cr1 2.606004 1_555
As1 Cr0 2.606890 1_555
As1 Cr0 2.607304 1_565
As1 Cr1 2.607760 1_655
As1 La3 3.485283 1_565
As1 La3 3.486938 1_655
As1 La3 3.488848 1_665
As1 La3 3.489715 1_555
As2 Cr3 2.606621 1_555
As2 Cr2 2.607896 1_555
As2 Cr2 2.608725 1_455
As2 Cr3 2.609344 1_545
As2 La0 3.486333 1_545
As2 La0 3.487980 1_455
As2 La0 3.490263 1_445
As2 La0 3.490389 1_555
As3 Cr0 2.606915 1_555
As3 Cr1 2.608266 1_555
As3 Cr1 2.608765 1_545
As3 Cr0 2.609686 1_455
As3 La1 3.485478 1_545
As3 La1 3.486671 1_455
As3 La1 3.488883 1_445
As3 La1 3.489606 1_555
