# generated using pymatgen
data_Pr2Mg
_symmetry_space_group_name_H-M   'P 1'
_cell_length_a   13.88376437
_cell_length_b   13.88376437
_cell_length_c   15.64219786
_cell_angle_alpha   73.63816730
_cell_angle_beta   73.63816730
_cell_angle_gamma   32.71811768
_symmetry_Int_Tables_number   1
_chemical_formula_structural   Pr2Mg
_chemical_formula_sum   'Pr32 Mg16'
_cell_volume   1557.90181187
_cell_formula_units_Z   16
loop_
 _symmetry_equiv_pos_site_id
 _symmetry_equiv_pos_as_xyz
  1  'x, y, z'
loop_
 _atom_site_type_symbol
 _atom_site_label
 _atom_site_symmetry_multiplicity
 _atom_site_fract_x
 _atom_site_fract_y
 _atom_site_fract_z
 _atom_site_occupancy
  Pr  Pr0_0  1  0.42438966  0.42438966  0.28502882  1
  Pr  Pr0_1  1  0.42438966  0.42438966  0.78502882  1
  Pr  Pr0_2  1  0.42438966  0.92438966  0.28502882  1
  Pr  Pr0_3  1  0.42438966  0.92438966  0.78502882  1
  Pr  Pr0_4  1  0.92438966  0.42438966  0.28502882  1
  Pr  Pr0_5  1  0.92438966  0.42438967  0.78502882  1
  Pr  Pr0_6  1  0.92438966  0.92438966  0.28502882  1
  Pr  Pr0_7  1  0.92438966  0.92438966  0.78502882  1
  Pr  Pr1_0  1  0.07561033  0.07561033  0.21497118  1
  Pr  Pr1_1  1  0.07561033  0.07561033  0.71497118  1
  Pr  Pr1_2  1  0.07561033  0.57561033  0.21497118  1
  Pr  Pr1_3  1  0.07561033  0.57561033  0.71497118  1
  Pr  Pr1_4  1  0.57561034  0.07561034  0.21497118  1
  Pr  Pr1_5  1  0.57561033  0.07561034  0.71497118  1
  Pr  Pr1_6  1  0.57561033  0.57561034  0.21497118  1
  Pr  Pr1_7  1  0.57561033  0.57561033  0.71497118  1
  Pr  Pr2_0  1  0.42095254  0.42095255  0.04203777  1
  Pr  Pr2_1  1  0.42095254  0.42095254  0.54203777  1
  Pr  Pr2_2  1  0.42095254  0.92095255  0.04203777  1
  Pr  Pr2_3  1  0.42095254  0.92095254  0.54203777  1
  Pr  Pr2_4  1  0.92095255  0.42095255  0.04203777  1
  Pr  Pr2_5  1  0.92095254  0.42095254  0.54203777  1
  Pr  Pr2_6  1  0.92095254  0.92095255  0.04203777  1
  Pr  Pr2_7  1  0.92095254  0.92095255  0.54203777  1
  Pr  Pr3_0  1  0.07904745  0.07904746  0.45796223  1
  Pr  Pr3_1  1  0.07904745  0.07904745  0.95796223  1
  Pr  Pr3_2  1  0.07904745  0.57904745  0.45796223  1
  Pr  Pr3_3  1  0.07904745  0.57904745  0.95796223  1
  Pr  Pr3_4  1  0.57904745  0.07904746  0.45796223  1
  Pr  Pr3_5  1  0.57904745  0.07904745  0.95796223  1
  Pr  Pr3_6  1  0.57904745  0.57904746  0.45796223  1
  Pr  Pr3_7  1  0.57904745  0.57904745  0.95796223  1
  Mg  Mg0_0  1  0.24793529  0.24793529  0.37900730  1
  Mg  Mg0_1  1  0.24793529  0.24793529  0.87900730  1
  Mg  Mg0_2  1  0.24793529  0.74793529  0.37900730  1
  Mg  Mg0_3  1  0.24793529  0.74793529  0.87900730  1
  Mg  Mg0_4  1  0.74793529  0.24793529  0.37900730  1
  Mg  Mg0_5  1  0.74793529  0.24793529  0.87900730  1
  Mg  Mg0_6  1  0.74793529  0.74793529  0.37900730  1
  Mg  Mg0_7  1  0.74793529  0.74793529  0.87900730  1
  Mg  Mg1_0  1  0.25206471  0.25206471  0.12099271  1
  Mg  Mg1_1  1  0.25206471  0.25206471  0.62099271  1
  Mg  Mg1_2  1  0.25206471  0.75206471  0.12099271  1
  Mg  Mg1_3  1  0.25206471  0.75206471  0.62099271  1
  Mg  Mg1_4  1  0.75206471  0.25206471  0.12099271  1
  Mg  Mg1_5  1  0.75206471  0.25206471  0.62099271  1
  Mg  Mg1_6  1  0.75206471  0.75206471  0.12099271  1
  Mg  Mg1_7  1  0.75206471  0.75206471  0.62099271  1
loop_
_geom_bond_atom_site_label_1
_geom_bond_atom_site_label_2
_geom_bond_distance
_geom_bond_site_symmetry_2
Pr0_0 Pr3_4 3.682155 1_555
Pr0_0 Pr3_2 3.682155 1_555
Pr0_0 Pr1_4 3.693739 1_555
Pr0_0 Pr1_2 3.693739 1_555
Pr0_0 Pr2_0 3.828801 1_555
Pr0_0 Pr1_6 3.852461 1_555
Pr0_0 Pr0_6 3.910444 1_545
Pr0_0 Pr0_6 3.910444 1_455
Pr0_0 Pr2_1 3.994259 1_555
Pr0_1 Pr3_5 3.682155 1_555
Pr0_1 Pr3_3 3.682155 1_555
Pr0_1 Pr1_5 3.693739 1_555
Pr0_1 Pr1_3 3.693739 1_555
Pr0_1 Pr2_1 3.828801 1_555
Pr0_1 Pr1_7 3.852461 1_555
Pr0_1 Pr0_7 3.910444 1_545
Pr0_1 Pr0_7 3.910444 1_455
Pr0_1 Pr2_0 3.994259 1_556
Pr0_2 Pr3_6 3.682155 1_555
Pr0_2 Pr3_0 3.682155 1_565
Pr0_2 Pr1_6 3.693739 1_555
Pr0_2 Pr1_0 3.693739 1_565
Pr0_2 Pr2_2 3.828801 1_555
Pr0_2 Pr1_4 3.852461 1_565
Pr0_2 Pr0_4 3.910444 1_465
Pr0_2 Pr0_4 3.910444 1_555
Pr0_2 Pr2_3 3.994259 1_555
Pr0_3 Pr3_7 3.682155 1_555
Pr0_3 Pr3_1 3.682155 1_565
Pr0_3 Pr1_1 3.693739 1_565
Pr0_3 Pr1_7 3.693739 1_555
Pr0_3 Pr2_3 3.828801 1_555
Pr0_3 Pr1_5 3.852461 1_565
Pr0_3 Pr0_5 3.910444 1_465
Pr0_3 Pr0_5 3.910444 1_555
Pr0_3 Pr2_2 3.994259 1_556
Pr0_4 Pr3_6 3.682155 1_555
Pr0_4 Pr3_0 3.682155 1_655
Pr0_4 Pr1_6 3.693739 1_555
Pr0_4 Pr1_0 3.693739 1_655
Pr0_4 Pr2_4 3.828801 1_555
Pr0_4 Pr1_2 3.852461 1_655
Pr0_4 Pr2_5 3.994259 1_555
Pr0_5 Pr3_1 3.682155 1_655
Pr0_5 Pr3_7 3.682155 1_555
Pr0_5 Pr1_1 3.693739 1_655
Pr0_5 Pr1_7 3.693739 1_555
Pr0_5 Pr2_5 3.828801 1_555
Pr0_5 Pr1_3 3.852461 1_655
Pr0_5 Pr2_4 3.994259 1_556
Pr0_6 Pr3_4 3.682155 1_565
Pr0_6 Pr3_2 3.682155 1_655
Pr0_6 Pr1_4 3.693739 1_565
Pr0_6 Pr1_2 3.693739 1_655
Pr0_6 Pr2_6 3.828801 1_555
Pr0_6 Pr1_0 3.852461 1_665
Pr0_6 Pr2_7 3.994259 1_555
Pr0_7 Pr3_5 3.682155 1_565
Pr0_7 Pr3_3 3.682155 1_655
Pr0_7 Pr1_5 3.693739 1_565
Pr0_7 Pr1_3 3.693739 1_655
Pr0_7 Pr2_7 3.828801 1_555
Pr0_7 Pr1_1 3.852461 1_665
Pr0_7 Pr2_6 3.994259 1_556
Pr1_0 Pr2_2 3.682155 1_545
Pr1_0 Pr2_4 3.682155 1_455
Pr1_0 Pr3_0 3.828801 1_555
Pr1_0 Pr1_6 3.910444 1_545
Pr1_0 Pr1_6 3.910444 1_455
Pr1_0 Pr3_1 3.994259 1_554
Pr1_1 Pr2_3 3.682155 1_545
Pr1_1 Pr2_5 3.682155 1_455
Pr1_1 Pr3_1 3.828801 1_555
Pr1_1 Pr1_7 3.910444 1_545
Pr1_1 Pr1_7 3.910444 1_455
Pr1_1 Pr3_0 3.994259 1_555
Pr1_2 Pr2_0 3.682155 1_555
Pr1_2 Pr2_6 3.682155 1_455
Pr1_2 Pr3_2 3.828801 1_555
Pr1_2 Pr1_4 3.910444 1_465
Pr1_2 Pr1_4 3.910444 1_555
Pr1_2 Pr3_3 3.994259 1_554
Pr1_3 Pr2_1 3.682155 1_555
Pr1_3 Pr2_7 3.682155 1_455
Pr1_3 Pr3_3 3.828801 1_555
Pr1_3 Pr1_5 3.910444 1_555
Pr1_3 Pr1_5 3.910444 1_465
Pr1_3 Pr3_2 3.994259 1_555
Pr1_4 Pr2_6 3.682155 1_545
Pr1_4 Pr2_0 3.682155 1_555
Pr1_4 Pr3_4 3.828801 1_555
Pr1_4 Pr3_5 3.994259 1_554
Pr1_5 Pr2_1 3.682155 1_555
Pr1_5 Pr2_7 3.682155 1_545
Pr1_5 Pr3_5 3.828801 1_555
Pr1_5 Pr3_4 3.994259 1_555
Pr1_6 Pr2_2 3.682155 1_555
Pr1_6 Pr2_4 3.682155 1_555
Pr1_6 Pr3_6 3.828801 1_555
Pr1_6 Pr3_7 3.994259 1_554
Pr1_7 Pr2_3 3.682155 1_555
Pr1_7 Pr2_5 3.682155 1_555
Pr1_7 Pr3_7 3.828801 1_555
Pr1_7 Pr3_6 3.994259 1_555
Pr2_0 Pr3_5 3.665962 1_554
Pr2_0 Pr3_3 3.665962 1_554
Pr2_0 Pr2_6 3.910444 1_545
Pr2_0 Pr2_6 3.910444 1_455
Pr2_0 Pr3_7 4.027324 1_554
Pr2_1 Pr3_4 3.665962 1_555
Pr2_1 Pr3_2 3.665962 1_555
Pr2_1 Pr2_7 3.910444 1_545
Pr2_1 Pr2_7 3.910444 1_455
Pr2_1 Pr3_6 4.027324 1_555
Pr2_2 Pr3_1 3.665962 1_564
Pr2_2 Pr3_7 3.665962 1_554
Pr2_2 Pr2_4 3.910444 1_465
Pr2_2 Pr2_4 3.910444 1_555
Pr2_2 Pr3_5 4.027324 1_564
Pr2_3 Pr3_6 3.665962 1_555
Pr2_3 Pr3_0 3.665962 1_565
Pr2_3 Pr2_5 3.910444 1_465
Pr2_3 Pr2_5 3.910444 1_555
Pr2_3 Pr3_4 4.027324 1_565
Pr2_4 Pr3_1 3.665962 1_654
Pr2_4 Pr3_7 3.665962 1_554
Pr2_4 Pr3_3 4.027324 1_654
Pr2_5 Pr3_6 3.665962 1_555
Pr2_5 Pr3_0 3.665962 1_655
Pr2_5 Pr3_2 4.027324 1_655
Pr2_6 Pr3_5 3.665962 1_564
Pr2_6 Pr3_3 3.665962 1_654
Pr2_6 Pr3_1 4.027324 1_664
Pr2_7 Pr3_4 3.665962 1_565
Pr2_7 Pr3_2 3.665962 1_655
Pr2_7 Pr3_0 4.027324 1_665
Pr3_0 Pr3_6 3.910444 1_545
Pr3_0 Pr3_6 3.910444 1_455
Pr3_1 Pr3_7 3.910444 1_545
Pr3_1 Pr3_7 3.910444 1_455
Pr3_2 Pr3_4 3.910444 1_465
Pr3_2 Pr3_4 3.910444 1_555
Pr3_3 Pr3_5 3.910444 1_555
Pr3_3 Pr3_5 3.910444 1_465
Mg0_0 Pr2_5 3.385535 1_455
Mg0_0 Pr2_3 3.385535 1_545
Mg0_0 Pr0_2 3.393363 1_545
Mg0_0 Pr0_4 3.393363 1_455
Mg0_0 Pr1_2 3.401704 1_555
Mg0_0 Pr1_4 3.401704 1_555
Mg0_0 Pr3_2 3.403783 1_555
Mg0_0 Pr3_4 3.403783 1_555
Mg0_1 Pr2_4 3.385535 1_456
Mg0_1 Pr2_2 3.385535 1_546
Mg0_1 Pr0_5 3.393363 1_455
Mg0_1 Pr0_3 3.393363 1_545
Mg0_1 Pr1_3 3.401704 1_555
Mg0_1 Pr1_5 3.401704 1_555
Mg0_1 Pr3_3 3.403783 1_555
Mg0_1 Pr3_5 3.403783 1_555
Mg0_2 Pr2_7 3.385535 1_455
Mg0_2 Pr2_1 3.385535 1_555
Mg0_2 Pr0_0 3.393363 1_555
Mg0_2 Pr0_6 3.393363 1_455
Mg0_2 Pr1_0 3.401704 1_565
Mg0_2 Pr1_6 3.401704 1_555
Mg0_2 Pr3_0 3.403783 1_565
Mg0_2 Pr3_6 3.403783 1_555
Mg0_3 Pr2_0 3.385535 1_556
Mg0_3 Pr2_6 3.385535 1_456
Mg0_3 Pr0_1 3.393363 1_555
Mg0_3 Pr0_7 3.393363 1_455
Mg0_3 Pr1_7 3.401704 1_555
Mg0_3 Pr1_1 3.401704 1_565
Mg0_3 Pr3_7 3.403783 1_555
Mg0_3 Pr3_1 3.403783 1_565
Mg0_4 Pr2_7 3.385535 1_545
Mg0_4 Pr2_1 3.385535 1_555
Mg0_4 Pr0_0 3.393363 1_555
Mg0_4 Pr0_6 3.393363 1_545
Mg0_4 Pr1_0 3.401704 1_655
Mg0_4 Pr1_6 3.401704 1_555
Mg0_4 Pr3_0 3.403783 1_655
Mg0_4 Pr3_6 3.403783 1_555
Mg0_5 Pr2_0 3.385535 1_556
Mg0_5 Pr2_6 3.385535 1_546
Mg0_5 Pr0_1 3.393363 1_555
Mg0_5 Pr0_7 3.393363 1_545
Mg0_5 Pr1_7 3.401704 1_555
Mg0_5 Pr1_1 3.401704 1_655
Mg0_5 Pr3_7 3.403783 1_555
Mg0_5 Pr3_1 3.403783 1_655
Mg0_6 Pr2_5 3.385535 1_555
Mg0_6 Pr2_3 3.385535 1_555
Mg0_6 Pr0_4 3.393363 1_555
Mg0_6 Pr0_2 3.393363 1_555
Mg0_6 Pr1_4 3.401704 1_565
Mg0_6 Pr1_2 3.401704 1_655
Mg0_6 Pr3_2 3.403783 1_655
Mg0_6 Pr3_4 3.403783 1_565
Mg0_7 Pr2_2 3.385535 1_556
Mg0_7 Pr2_4 3.385535 1_556
Mg0_7 Pr0_5 3.393363 1_555
Mg0_7 Pr0_3 3.393363 1_555
Mg0_7 Pr1_5 3.401704 1_565
Mg0_7 Pr1_3 3.401704 1_655
Mg0_7 Pr3_3 3.403783 1_655
Mg0_7 Pr3_5 3.403783 1_565
Mg1_0 Pr3_3 3.385535 1_554
Mg1_0 Pr3_5 3.385535 1_554
Mg1_0 Pr1_2 3.393363 1_555
Mg1_0 Pr1_4 3.393363 1_555
Mg1_0 Pr0_2 3.401704 1_545
Mg1_0 Pr0_4 3.401704 1_455
Mg1_0 Pr2_4 3.403783 1_455
Mg1_0 Pr2_2 3.403783 1_545
Mg1_1 Pr3_2 3.385535 1_555
Mg1_1 Pr3_4 3.385535 1_555
Mg1_1 Pr1_3 3.393363 1_555
Mg1_1 Pr1_5 3.393363 1_555
Mg1_1 Pr0_5 3.401704 1_455
Mg1_1 Pr0_3 3.401704 1_545
Mg1_1 Pr2_5 3.403783 1_455
Mg1_1 Pr2_3 3.403783 1_545
Mg1_2 Pr3_7 3.385535 1_554
Mg1_2 Pr3_1 3.385535 1_564
Mg1_2 Pr1_0 3.393363 1_565
Mg1_2 Pr1_6 3.393363 1_555
Mg1_2 Pr0_0 3.401704 1_555
Mg1_2 Pr0_6 3.401704 1_455
Mg1_2 Pr2_0 3.403783 1_555
Mg1_2 Pr2_6 3.403783 1_455
Mg1_3 Pr3_0 3.385535 1_565
Mg1_3 Pr3_6 3.385535 1_555
Mg1_3 Pr1_7 3.393363 1_555
Mg1_3 Pr1_1 3.393363 1_565
Mg1_3 Pr0_1 3.401704 1_555
Mg1_3 Pr0_7 3.401704 1_455
Mg1_3 Pr2_1 3.403783 1_555
Mg1_3 Pr2_7 3.403783 1_455
Mg1_4 Pr3_7 3.385535 1_554
Mg1_4 Pr3_1 3.385535 1_654
Mg1_4 Pr1_6 3.393363 1_555
Mg1_4 Pr1_0 3.393363 1_655
Mg1_4 Pr0_0 3.401704 1_555
Mg1_4 Pr0_6 3.401704 1_545
Mg1_4 Pr2_0 3.403783 1_555
Mg1_4 Pr2_6 3.403783 1_545
Mg1_5 Pr3_0 3.385535 1_655
Mg1_5 Pr3_6 3.385535 1_555
Mg1_5 Pr1_7 3.393363 1_555
Mg1_5 Pr1_1 3.393363 1_655
Mg1_5 Pr0_1 3.401704 1_555
Mg1_5 Pr0_7 3.401704 1_545
Mg1_5 Pr2_1 3.403783 1_555
Mg1_5 Pr2_7 3.403783 1_545
Mg1_6 Pr3_3 3.385535 1_654
Mg1_6 Pr3_5 3.385535 1_564
Mg1_6 Pr1_2 3.393363 1_655
Mg1_6 Pr1_4 3.393363 1_565
Mg1_6 Pr0_2 3.401704 1_555
Mg1_6 Pr0_4 3.401704 1_555
Mg1_6 Pr2_2 3.403783 1_555
Mg1_6 Pr2_4 3.403783 1_555
Mg1_7 Pr3_2 3.385535 1_655
Mg1_7 Pr3_4 3.385535 1_565
Mg1_7 Pr1_5 3.393363 1_565
Mg1_7 Pr1_3 3.393363 1_655
Mg1_7 Pr0_5 3.401704 1_555
Mg1_7 Pr0_3 3.401704 1_555
Mg1_7 Pr2_5 3.403783 1_555
Mg1_7 Pr2_3 3.403783 1_555
