# generated using pymatgen
data_LaPrC4
_symmetry_space_group_name_H-M   'P 1'
_cell_length_a   3.91262755
_cell_length_b   3.91262755
_cell_length_c   6.54559447
_cell_angle_alpha   90.00000000
_cell_angle_beta   90.00000000
_cell_angle_gamma   90.00000000
_symmetry_Int_Tables_number   1
_chemical_formula_structural   LaPrC4
_chemical_formula_sum   'La1 Pr1 C4'
_cell_volume   100.20424322
_cell_formula_units_Z   1
loop_
 _symmetry_equiv_pos_site_id
 _symmetry_equiv_pos_as_xyz
  1  'x, y, z'
loop_
 _atom_site_type_symbol
 _atom_site_label
 _atom_site_symmetry_multiplicity
 _atom_site_fract_x
 _atom_site_fract_y
 _atom_site_fract_z
 _atom_site_occupancy
  La  La0  1  0.50000000  0.50000000  0.50000000  1
  Pr  Pr0  1  -0.00000000  0.00000000  -0.00000000  1
  C  C0  1  -0.00000000  0.00000000  0.59845366  1
  C  C1  1  0.50000000  0.50000000  0.09857331  1
  C  C2  1  0.50000000  0.50000000  0.90142669  1
  C  C3  1  -0.00000000  -0.00000000  0.40154634  1
loop_
_geom_bond_atom_site_label_1
_geom_bond_atom_site_label_2
_geom_bond_distance
_geom_bond_site_symmetry_2
C0 C3 1.288875 1_555
C0 Pr0 2.628360 1_556
C0 La0 2.840709 1_545
C0 La0 2.840709 1_555
C0 La0 2.840709 1_445
C0 La0 2.840709 1_455
C1 C2 1.290442 1_554
C1 La0 2.627576 1_555
C1 Pr0 2.840887 1_665
C1 Pr0 2.840887 1_655
C1 Pr0 2.840887 1_565
C1 Pr0 2.840887 1_555
C2 La0 2.627576 1_555
C2 Pr0 2.840887 1_656
C2 Pr0 2.840887 1_556
C2 Pr0 2.840887 1_666
C2 Pr0 2.840887 1_566
C3 Pr0 2.628360 1_555
C3 La0 2.840709 1_545
C3 La0 2.840709 1_555
C3 La0 2.840709 1_445
C3 La0 2.840709 1_455
