# generated using pymatgen
data_TlN2Cl5O
_symmetry_space_group_name_H-M   'P 1'
_cell_length_a   7.72822300
_cell_length_b   10.91863400
_cell_length_c   16.70794300
_cell_angle_alpha   90.00000000
_cell_angle_beta   90.00000000
_cell_angle_gamma   90.00000000
_symmetry_Int_Tables_number   1
_chemical_formula_structural   TlN2Cl5O
_chemical_formula_sum   'Tl4 N8 Cl20 O4'
_cell_volume   1409.84360476
_cell_formula_units_Z   4
loop_
 _symmetry_equiv_pos_site_id
 _symmetry_equiv_pos_as_xyz
  1  'x, y, z'
loop_
 _atom_site_type_symbol
 _atom_site_label
 _atom_site_symmetry_multiplicity
 _atom_site_fract_x
 _atom_site_fract_y
 _atom_site_fract_z
 _atom_site_occupancy
  Tl  Tl0  1  0.73931400  0.75000000  0.64641200  1
  Tl  Tl1  1  0.26068600  0.25000000  0.35358800  1
  Tl  Tl2  1  0.23931400  0.25000000  0.85358800  1
  Tl  Tl3  1  0.76068600  0.75000000  0.14641200  1
  N  N0  1  0.84268100  0.49236600  0.85842000  1
  N  N1  1  0.15731900  0.50763400  0.14158000  1
  N  N2  1  0.34268100  0.50763400  0.64158000  1
  N  N3  1  0.15731900  0.99236600  0.14158000  1
  N  N4  1  0.65731900  0.49236600  0.35842000  1
  N  N5  1  0.84268100  0.00763400  0.85842000  1
  N  N6  1  0.65731900  0.00763400  0.35842000  1
  N  N7  1  0.34268100  0.99236600  0.64158000  1
  Cl  Cl0  1  0.63201800  0.75000000  0.51255000  1
  Cl  Cl1  1  0.36798200  0.25000000  0.48745000  1
  Cl  Cl2  1  0.13201800  0.25000000  0.98745000  1
  Cl  Cl3  1  0.86798200  0.75000000  0.01255000  1
  Cl  Cl4  1  0.04485800  0.75000000  0.67268100  1
  Cl  Cl5  1  0.95514200  0.25000000  0.32731900  1
  Cl  Cl6  1  0.54485800  0.25000000  0.82731900  1
  Cl  Cl7  1  0.45514200  0.75000000  0.17268100  1
  Cl  Cl8  1  0.83317200  0.38132900  0.56805000  1
  Cl  Cl9  1  0.16682800  0.61867100  0.43195000  1
  Cl  Cl10  1  0.33317200  0.61867100  0.93195000  1
  Cl  Cl11  1  0.16682800  0.88132900  0.43195000  1
  Cl  Cl12  1  0.66682800  0.38132900  0.06805000  1
  Cl  Cl13  1  0.83317200  0.11867100  0.56805000  1
  Cl  Cl14  1  0.66682800  0.11867100  0.06805000  1
  Cl  Cl15  1  0.33317200  0.88132900  0.93195000  1
  Cl  Cl16  1  0.55872300  0.75000000  0.76326600  1
  Cl  Cl17  1  0.44127700  0.25000000  0.23673400  1
  Cl  Cl18  1  0.05872300  0.25000000  0.73673400  1
  Cl  Cl19  1  0.94127700  0.75000000  0.26326600  1
  O  O0  1  0.13399700  0.75000000  0.48637200  1
  O  O1  1  0.86600300  0.25000000  0.51362800  1
  O  O2  1  0.63399700  0.25000000  0.01362800  1
  O  O3  1  0.36600300  0.75000000  0.98637200  1
loop_
_geom_bond_atom_site_label_1
_geom_bond_atom_site_label_2
_geom_bond_distance
_geom_bond_site_symmetry_2
Cl0 Tl0 2.385326 1_555
Cl1 Tl1 2.385326 1_555
Cl2 Tl2 2.385326 1_555
Cl3 Tl3 2.385326 1_555
Cl4 Tl0 2.401755 1_455
Cl5 Tl1 2.401755 1_655
Cl6 Tl2 2.401755 1_555
Cl7 Tl3 2.401755 1_555
Cl8 O1 1.716779 1_555
Cl9 O0 1.716779 1_555
Cl10 O3 1.716779 1_555
Cl11 O0 1.716779 1_555
Cl12 O2 1.716779 1_555
Cl13 O1 1.716779 1_555
Cl14 O2 1.716779 1_555
Cl15 O3 1.716779 1_555
Cl16 Tl0 2.399929 1_555
Cl17 Tl1 2.399929 1_555
Cl18 Tl2 2.399929 1_555
Cl19 Tl3 2.399929 1_555
