# generated using pymatgen
data_Ti3Nb(AlC)2
_symmetry_space_group_name_H-M   'P 1'
_cell_length_a   6.13578056
_cell_length_b   6.13578056
_cell_length_c   27.72256800
_cell_angle_alpha   90.00000000
_cell_angle_beta   90.00000000
_cell_angle_gamma   120.00000605
_symmetry_Int_Tables_number   1
_chemical_formula_structural   Ti3Nb(AlC)2
_chemical_formula_sum   'Ti24 Nb8 Al16 C16'
_cell_volume   903.86527330
_cell_formula_units_Z   8
loop_
 _symmetry_equiv_pos_site_id
 _symmetry_equiv_pos_as_xyz
  1  'x, y, z'
loop_
 _atom_site_type_symbol
 _atom_site_label
 _atom_site_symmetry_multiplicity
 _atom_site_fract_x
 _atom_site_fract_y
 _atom_site_fract_z
 _atom_site_occupancy
  Ti  Ti0_0  1  0.16666650  0.33333350  0.29313750  1
  Ti  Ti0_1  1  0.16666650  0.33333350  0.79313750  1
  Ti  Ti0_2  1  0.16666650  0.83333350  0.29313750  1
  Ti  Ti0_3  1  0.16666650  0.83333350  0.79313750  1
  Ti  Ti0_4  1  0.66666650  0.33333350  0.29313750  1
  Ti  Ti0_5  1  0.66666650  0.33333350  0.79313750  1
  Ti  Ti0_6  1  0.66666650  0.83333350  0.29313750  1
  Ti  Ti0_7  1  0.66666650  0.83333350  0.79313750  1
  Ti  Ti1_0  1  0.16666650  0.33333350  0.45822950  1
  Ti  Ti1_1  1  0.16666650  0.33333350  0.95822950  1
  Ti  Ti1_2  1  0.16666650  0.83333350  0.45822950  1
  Ti  Ti1_3  1  0.16666650  0.83333350  0.95822950  1
  Ti  Ti1_4  1  0.66666650  0.33333350  0.45822950  1
  Ti  Ti1_5  1  0.66666650  0.33333350  0.95822950  1
  Ti  Ti1_6  1  0.66666650  0.83333350  0.45822950  1
  Ti  Ti1_7  1  0.66666650  0.83333350  0.95822950  1
  Ti  Ti2_0  1  0.33333350  0.16666650  0.04155500  1
  Ti  Ti2_1  1  0.33333350  0.16666650  0.54155500  1
  Ti  Ti2_2  1  0.33333350  0.66666650  0.04155500  1
  Ti  Ti2_3  1  0.33333350  0.66666650  0.54155500  1
  Ti  Ti2_4  1  0.83333350  0.16666650  0.04155500  1
  Ti  Ti2_5  1  0.83333350  0.16666650  0.54155500  1
  Ti  Ti2_6  1  0.83333350  0.66666650  0.04155500  1
  Ti  Ti2_7  1  0.83333350  0.66666650  0.54155500  1
  Nb  Nb0_0  1  0.33333350  0.16666650  0.20556600  1
  Nb  Nb0_1  1  0.33333350  0.16666650  0.70556600  1
  Nb  Nb0_2  1  0.33333350  0.66666650  0.20556600  1
  Nb  Nb0_3  1  0.33333350  0.66666650  0.70556600  1
  Nb  Nb0_4  1  0.83333350  0.16666650  0.20556600  1
  Nb  Nb0_5  1  0.83333350  0.16666650  0.70556600  1
  Nb  Nb0_6  1  0.83333350  0.66666650  0.20556600  1
  Nb  Nb0_7  1  0.83333350  0.66666650  0.70556600  1
  Al  Al0_0  1  0.33333350  0.16666650  0.37576400  1
  Al  Al0_1  1  0.33333350  0.16666650  0.87576400  1
  Al  Al0_2  1  0.33333350  0.66666650  0.37576400  1
  Al  Al0_3  1  0.33333350  0.66666650  0.87576400  1
  Al  Al0_4  1  0.83333350  0.16666650  0.37576400  1
  Al  Al0_5  1  0.83333350  0.16666650  0.87576400  1
  Al  Al0_6  1  0.83333350  0.66666650  0.37576400  1
  Al  Al0_7  1  0.83333350  0.66666650  0.87576400  1
  Al  Al1_0  1  0.16666650  0.33333350  0.12345950  1
  Al  Al1_1  1  0.16666650  0.33333350  0.62345950  1
  Al  Al1_2  1  0.16666650  0.83333350  0.12345950  1
  Al  Al1_3  1  0.16666650  0.83333350  0.62345950  1
  Al  Al1_4  1  0.66666650  0.33333350  0.12345950  1
  Al  Al1_5  1  0.66666650  0.33333350  0.62345950  1
  Al  Al1_6  1  0.66666650  0.83333350  0.12345950  1
  Al  Al1_7  1  0.66666650  0.83333350  0.62345950  1
  C  C0_0  1  0.00000000  0.00000000  0.25243100  1
  C  C0_1  1  0.00000000  0.00000000  0.75243100  1
  C  C0_2  1  0.00000000  0.50000000  0.25243100  1
  C  C0_3  1  0.00000000  0.50000000  0.75243100  1
  C  C0_4  1  0.50000000  0.00000000  0.25243100  1
  C  C0_5  1  0.50000000  0.00000000  0.75243100  1
  C  C0_6  1  0.50000000  0.50000000  0.25243100  1
  C  C0_7  1  0.50000000  0.50000000  0.75243100  1
  C  C1_0  1  0.00000000  0.00000000  0.49985800  1
  C  C1_1  1  0.00000000  0.00000000  0.99985800  1
  C  C1_2  1  0.00000000  0.50000000  0.49985800  1
  C  C1_3  1  0.00000000  0.50000000  0.99985800  1
  C  C1_4  1  0.50000000  0.00000000  0.49985800  1
  C  C1_5  1  0.50000000  0.00000000  0.99985800  1
  C  C1_6  1  0.50000000  0.50000000  0.49985800  1
  C  C1_7  1  0.50000000  0.50000000  0.99985800  1
loop_
_geom_bond_atom_site_label_1
_geom_bond_atom_site_label_2
_geom_bond_distance
_geom_bond_site_symmetry_2
Al0_0 Ti1_4 2.892026 1_555
Al0_0 Ti1_2 2.892026 1_545
Al0_0 Ti1_0 2.892030 1_555
Al0_0 Ti0_2 2.895556 1_545
Al0_0 Ti0_4 2.895556 1_555
Al0_0 Ti0_0 2.895559 1_555
Al0_0 Al0_6 3.067890 1_445
Al0_0 Al0_6 3.067890 1_555
Al0_0 Al0_2 3.067890 1_555
Al0_0 Al0_4 3.067890 1_455
Al0_0 Al0_2 3.067890 1_545
Al0_0 Al0_4 3.067890 1_555
Al0_1 Ti1_3 2.892026 1_545
Al0_1 Ti1_5 2.892026 1_555
Al0_1 Ti1_1 2.892030 1_555
Al0_1 Ti0_3 2.895556 1_545
Al0_1 Ti0_5 2.895556 1_555
Al0_1 Ti0_1 2.895559 1_555
Al0_1 Al0_7 3.067890 1_445
Al0_1 Al0_7 3.067890 1_555
Al0_1 Al0_3 3.067890 1_555
Al0_1 Al0_5 3.067890 1_455
Al0_1 Al0_5 3.067890 1_555
Al0_1 Al0_3 3.067890 1_545
Al0_2 Ti1_0 2.892026 1_555
Al0_2 Ti1_6 2.892026 1_555
Al0_2 Ti1_2 2.892030 1_555
Al0_2 Ti0_0 2.895556 1_555
Al0_2 Ti0_6 2.895556 1_555
Al0_2 Ti0_2 2.895559 1_555
Al0_2 Al0_4 3.067890 1_455
Al0_2 Al0_4 3.067890 1_565
Al0_2 Al0_6 3.067890 1_455
Al0_2 Al0_6 3.067890 1_555
Al0_3 Ti1_1 2.892026 1_555
Al0_3 Ti1_7 2.892026 1_555
Al0_3 Ti1_3 2.892030 1_555
Al0_3 Ti0_1 2.895556 1_555
Al0_3 Ti0_7 2.895556 1_555
Al0_3 Ti0_3 2.895559 1_555
Al0_3 Al0_5 3.067890 1_455
Al0_3 Al0_5 3.067890 1_565
Al0_3 Al0_7 3.067890 1_455
Al0_3 Al0_7 3.067890 1_555
Al0_4 Ti1_0 2.892026 1_655
Al0_4 Ti1_6 2.892026 1_545
Al0_4 Ti1_4 2.892030 1_555
Al0_4 Ti0_0 2.895556 1_655
Al0_4 Ti0_6 2.895556 1_545
Al0_4 Ti0_4 2.895559 1_555
Al0_4 Al0_6 3.067890 1_555
Al0_4 Al0_6 3.067890 1_545
Al0_5 Ti1_1 2.892026 1_655
Al0_5 Ti1_7 2.892026 1_545
Al0_5 Ti1_5 2.892030 1_555
Al0_5 Ti0_7 2.895556 1_545
Al0_5 Ti0_1 2.895556 1_655
Al0_5 Ti0_5 2.895559 1_555
Al0_5 Al0_7 3.067890 1_555
Al0_5 Al0_7 3.067890 1_545
Al0_6 Ti1_4 2.892026 1_555
Al0_6 Ti1_2 2.892026 1_655
Al0_6 Ti1_6 2.892030 1_555
Al0_6 Ti0_4 2.895556 1_555
Al0_6 Ti0_2 2.895556 1_655
Al0_6 Ti0_6 2.895559 1_555
Al0_7 Ti1_5 2.892026 1_555
Al0_7 Ti1_3 2.892026 1_655
Al0_7 Ti1_7 2.892030 1_555
Al0_7 Ti0_5 2.895556 1_555
Al0_7 Ti0_3 2.895556 1_655
Al0_7 Ti0_7 2.895559 1_555
Al1_0 Ti2_4 2.879748 1_455
Al1_0 Ti2_2 2.879748 1_555
Al1_0 Ti2_0 2.879751 1_555
Al1_0 Nb0_2 2.884165 1_555
Al1_0 Nb0_4 2.884165 1_455
Al1_0 Nb0_0 2.884169 1_555
Al1_0 Al1_6 3.067890 1_445
Al1_0 Al1_6 3.067890 1_555
Al1_0 Al1_4 3.067890 1_455
Al1_0 Al1_2 3.067890 1_555
Al1_0 Al1_4 3.067890 1_555
Al1_0 Al1_2 3.067890 1_545
Al1_1 Ti2_3 2.879748 1_555
Al1_1 Ti2_5 2.879748 1_455
Al1_1 Ti2_1 2.879751 1_555
Al1_1 Nb0_3 2.884165 1_555
Al1_1 Nb0_5 2.884165 1_455
Al1_1 Nb0_1 2.884169 1_555
Al1_1 Al1_7 3.067890 1_445
Al1_1 Al1_7 3.067890 1_555
Al1_1 Al1_5 3.067890 1_455
Al1_1 Al1_3 3.067890 1_555
Al1_1 Al1_3 3.067890 1_545
Al1_1 Al1_5 3.067890 1_555
Al1_2 Ti2_6 2.879748 1_455
Al1_2 Ti2_0 2.879748 1_565
Al1_2 Ti2_2 2.879751 1_555
Al1_2 Nb0_6 2.884165 1_455
Al1_2 Nb0_0 2.884165 1_565
Al1_2 Nb0_2 2.884169 1_555
Al1_2 Al1_4 3.067890 1_565
Al1_2 Al1_4 3.067890 1_455
Al1_2 Al1_6 3.067890 1_455
Al1_2 Al1_6 3.067890 1_555
Al1_3 Ti2_7 2.879748 1_455
Al1_3 Ti2_1 2.879748 1_565
Al1_3 Ti2_3 2.879751 1_555
Al1_3 Nb0_1 2.884165 1_565
Al1_3 Nb0_7 2.884165 1_455
Al1_3 Nb0_3 2.884169 1_555
Al1_3 Al1_5 3.067890 1_455
Al1_3 Al1_5 3.067890 1_565
Al1_3 Al1_7 3.067890 1_555
Al1_3 Al1_7 3.067890 1_455
Al1_4 Ti2_6 2.879748 1_555
Al1_4 Ti2_0 2.879748 1_555
Al1_4 Ti2_4 2.879751 1_555
Al1_4 Nb0_6 2.884165 1_555
Al1_4 Nb0_0 2.884165 1_555
Al1_4 Nb0_4 2.884169 1_555
Al1_4 Al1_6 3.067890 1_555
Al1_4 Al1_6 3.067890 1_545
Al1_5 Ti2_7 2.879748 1_555
Al1_5 Ti2_1 2.879748 1_555
Al1_5 Ti2_5 2.879751 1_555
Al1_5 Nb0_7 2.884165 1_555
Al1_5 Nb0_1 2.884165 1_555
Al1_5 Nb0_5 2.884169 1_555
Al1_5 Al1_7 3.067890 1_555
Al1_5 Al1_7 3.067890 1_545
Al1_6 Ti2_4 2.879748 1_565
Al1_6 Ti2_2 2.879748 1_555
Al1_6 Ti2_6 2.879751 1_555
Al1_6 Nb0_2 2.884165 1_555
Al1_6 Nb0_4 2.884165 1_565
Al1_6 Nb0_6 2.884169 1_555
Al1_7 Ti2_3 2.879748 1_555
Al1_7 Ti2_5 2.879748 1_565
Al1_7 Ti2_7 2.879751 1_555
Al1_7 Nb0_5 2.884165 1_565
Al1_7 Nb0_3 2.884165 1_555
Al1_7 Nb0_7 2.884169 1_555
C0_0 Ti0_2 2.100190 1_545
C0_0 Ti0_6 2.100192 1_445
C0_0 Ti0_0 2.100192 1_555
C0_0 Nb0_4 2.196652 1_455
C0_0 Nb0_0 2.196654 1_555
C0_0 Nb0_6 2.196654 1_445
C0_1 Ti0_3 2.100190 1_545
C0_1 Ti0_7 2.100192 1_445
C0_1 Ti0_1 2.100192 1_555
C0_1 Nb0_5 2.196652 1_455
C0_1 Nb0_1 2.196654 1_555
C0_1 Nb0_7 2.196654 1_445
C0_2 Ti0_0 2.100190 1_555
C0_2 Ti0_4 2.100192 1_455
C0_2 Ti0_2 2.100192 1_555
C0_2 Nb0_6 2.196652 1_455
C0_2 Nb0_2 2.196654 1_555
C0_2 Nb0_4 2.196654 1_455
C0_3 Ti0_1 2.100190 1_555
C0_3 Ti0_5 2.100192 1_455
C0_3 Ti0_3 2.100192 1_555
C0_3 Nb0_7 2.196652 1_455
C0_3 Nb0_5 2.196654 1_455
C0_3 Nb0_3 2.196654 1_555
C0_4 Ti0_6 2.100190 1_545
C0_4 Ti0_2 2.100192 1_545
C0_4 Ti0_4 2.100192 1_555
C0_4 Nb0_0 2.196652 1_555
C0_4 Nb0_2 2.196654 1_545
C0_4 Nb0_4 2.196654 1_555
C0_5 Ti0_7 2.100190 1_545
C0_5 Ti0_3 2.100192 1_545
C0_5 Ti0_5 2.100192 1_555
C0_5 Nb0_1 2.196652 1_555
C0_5 Nb0_5 2.196654 1_555
C0_5 Nb0_3 2.196654 1_545
C0_6 Ti0_4 2.100190 1_555
C0_6 Ti0_0 2.100192 1_555
C0_6 Ti0_6 2.100192 1_555
C0_6 Nb0_2 2.196652 1_555
C0_6 Nb0_0 2.196654 1_555
C0_6 Nb0_6 2.196654 1_555
C0_7 Ti0_5 2.100190 1_555
C0_7 Ti0_7 2.100192 1_555
C0_7 Ti0_1 2.100192 1_555
C0_7 Nb0_3 2.196652 1_555
C0_7 Nb0_1 2.196654 1_555
C0_7 Nb0_7 2.196654 1_555
C1_0 Ti1_2 2.114034 1_545
C1_0 Ti1_6 2.114036 1_445
C1_0 Ti1_0 2.114036 1_555
C1_0 Ti2_5 2.115071 1_455
C1_0 Ti2_1 2.115073 1_555
C1_0 Ti2_7 2.115073 1_445
C1_1 Ti1_3 2.114034 1_545
C1_1 Ti1_7 2.114036 1_445
C1_1 Ti1_1 2.114036 1_555
C1_1 Ti2_4 2.115071 1_456
C1_1 Ti2_0 2.115073 1_556
C1_1 Ti2_6 2.115073 1_446
C1_2 Ti1_0 2.114034 1_555
C1_2 Ti1_2 2.114036 1_555
C1_2 Ti1_4 2.114036 1_455
C1_2 Ti2_7 2.115071 1_455
C1_2 Ti2_5 2.115073 1_455
C1_2 Ti2_3 2.115073 1_555
C1_3 Ti1_1 2.114034 1_555
C1_3 Ti1_5 2.114036 1_455
C1_3 Ti1_3 2.114036 1_555
C1_3 Ti2_6 2.115071 1_456
C1_3 Ti2_4 2.115073 1_456
C1_3 Ti2_2 2.115073 1_556
C1_4 Ti1_6 2.114034 1_545
C1_4 Ti1_2 2.114036 1_545
C1_4 Ti1_4 2.114036 1_555
C1_4 Ti2_1 2.115071 1_555
C1_4 Ti2_5 2.115073 1_555
C1_4 Ti2_3 2.115073 1_545
C1_5 Ti1_7 2.114034 1_545
C1_5 Ti1_3 2.114036 1_545
C1_5 Ti1_5 2.114036 1_555
C1_5 Ti2_0 2.115071 1_556
C1_5 Ti2_2 2.115073 1_546
C1_5 Ti2_4 2.115073 1_556
C1_6 Ti1_4 2.114034 1_555
C1_6 Ti1_6 2.114036 1_555
C1_6 Ti1_0 2.114036 1_555
C1_6 Ti2_3 2.115071 1_555
C1_6 Ti2_1 2.115073 1_555
C1_6 Ti2_7 2.115073 1_555
C1_7 Ti1_5 2.114034 1_555
C1_7 Ti1_7 2.114036 1_555
C1_7 Ti1_1 2.114036 1_555
C1_7 Ti2_2 2.115071 1_556
C1_7 Ti2_0 2.115073 1_556
C1_7 Ti2_6 2.115073 1_556
