# generated using pymatgen
data_NiCl
_symmetry_space_group_name_H-M   'P 1'
_cell_length_a   3.50560066
_cell_length_b   3.50560066
_cell_length_c   3.50560066
_cell_angle_alpha   60.00000000
_cell_angle_beta   60.00000000
_cell_angle_gamma   60.00000000
_symmetry_Int_Tables_number   1
_chemical_formula_structural   NiCl
_chemical_formula_sum   'Ni1 Cl1'
_cell_volume   30.46297603
_cell_formula_units_Z   1
loop_
 _symmetry_equiv_pos_site_id
 _symmetry_equiv_pos_as_xyz
  1  'x, y, z'
loop_
 _atom_site_type_symbol
 _atom_site_label
 _atom_site_symmetry_multiplicity
 _atom_site_fract_x
 _atom_site_fract_y
 _atom_site_fract_z
 _atom_site_occupancy
  Ni  Ni0  1  0.00000000  0.00000000  0.00000000  1
  Cl  Cl0  1  0.50000000  0.50000000  0.50000000  1
loop_
_geom_bond_atom_site_label_1
_geom_bond_atom_site_label_2
_geom_bond_distance
_geom_bond_site_symmetry_2
Cl0 Ni0 2.478834 1_556
Cl0 Ni0 2.478834 1_656
Cl0 Ni0 2.478834 1_565
Cl0 Ni0 2.478834 1_566
Cl0 Ni0 2.478834 1_655
Cl0 Ni0 2.478834 1_665
