# generated using pymatgen
data_Ba2NdBiO6
_symmetry_space_group_name_H-M   'P 1'
_cell_length_a   8.86545566
_cell_length_b   8.86545566
_cell_length_c   8.86545566
_cell_angle_alpha   90.00000000
_cell_angle_beta   90.00000000
_cell_angle_gamma   90.00000000
_symmetry_Int_Tables_number   1
_chemical_formula_structural   Ba2NdBiO6
_chemical_formula_sum   'Ba8 Nd4 Bi4 O24'
_cell_volume   696.79204868
_cell_formula_units_Z   4
loop_
 _symmetry_equiv_pos_site_id
 _symmetry_equiv_pos_as_xyz
  1  'x, y, z'
loop_
 _atom_site_type_symbol
 _atom_site_label
 _atom_site_symmetry_multiplicity
 _atom_site_fract_x
 _atom_site_fract_y
 _atom_site_fract_z
 _atom_site_occupancy
  Ba  Ba0  1  0.50000000  0.50000000  0.50000000  1
  Ba  Ba1  1  -0.00000000  -0.00000000  0.00000000  1
  Ba  Ba2  1  -0.00000000  -0.00000000  0.50000000  1
  Ba  Ba3  1  -0.00000000  0.50000000  0.00000000  1
  Ba  Ba4  1  0.50000000  -0.00000000  0.00000000  1
  Ba  Ba5  1  0.50000000  0.50000000  0.00000000  1
  Ba  Ba6  1  0.50000000  -0.00000000  0.50000000  1
  Ba  Ba7  1  -0.00000000  0.50000000  0.50000000  1
  Nd  Nd0  1  0.25000000  0.25000000  0.25000000  1
  Nd  Nd1  1  0.25000000  0.75000000  0.75000000  1
  Nd  Nd2  1  0.75000000  0.25000000  0.75000000  1
  Nd  Nd3  1  0.75000000  0.75000000  0.25000000  1
  Bi  Bi0  1  0.75000000  0.75000000  0.75000000  1
  Bi  Bi1  1  0.75000000  0.25000000  0.25000000  1
  Bi  Bi2  1  0.25000000  0.75000000  0.25000000  1
  Bi  Bi3  1  0.25000000  0.25000000  0.75000000  1
  O  O0  1  0.22620542  0.27690999  0.51072812  1
  O  O1  1  0.22620542  0.72309001  0.48927188  1
  O  O2  1  0.77379458  0.27690999  0.48927188  1
  O  O3  1  0.77379458  0.72309001  0.51072812  1
  O  O4  1  0.27690999  0.51072812  0.22620542  1
  O  O5  1  0.72309001  0.48927188  0.22620542  1
  O  O6  1  0.27690999  0.48927188  0.77379458  1
  O  O7  1  0.72309001  0.51072812  0.77379458  1
  O  O8  1  0.51072812  0.22620542  0.27690999  1
  O  O9  1  0.48927188  0.22620542  0.72309001  1
  O  O10  1  0.48927188  0.77379458  0.27690999  1
  O  O11  1  0.51072812  0.77379458  0.72309001  1
  O  O12  1  0.27379458  0.22309001  0.98927188  1
  O  O13  1  0.27379458  0.77690999  0.01072812  1
  O  O14  1  0.72620542  0.22309001  0.01072812  1
  O  O15  1  0.72620542  0.77690999  0.98927188  1
  O  O16  1  0.22309001  0.98927188  0.27379458  1
  O  O17  1  0.77690999  0.01072812  0.27379458  1
  O  O18  1  0.22309001  0.01072812  0.72620542  1
  O  O19  1  0.77690999  0.98927188  0.72620542  1
  O  O20  1  0.98927188  0.27379458  0.22309001  1
  O  O21  1  0.01072812  0.27379458  0.77690999  1
  O  O22  1  0.01072812  0.72620542  0.22309001  1
  O  O23  1  0.98927188  0.72620542  0.77690999  1
loop_
_geom_bond_atom_site_label_1
_geom_bond_atom_site_label_2
_geom_bond_distance
_geom_bond_site_symmetry_2
Ba0 O11 3.132502 1_555
Ba0 O4 3.132502 1_555
Ba0 O1 3.132502 1_555
Ba0 O6 3.132502 1_555
Ba0 O8 3.132502 1_555
Ba0 O5 3.132502 1_555
Ba0 O7 3.132502 1_555
Ba0 O9 3.132502 1_555
Ba0 O10 3.132502 1_555
Ba0 O2 3.132502 1_555
Ba0 O0 3.132502 1_555
Ba0 O3 3.132502 1_555
Ba1 O13 3.132502 1_545
Ba1 O17 3.132502 1_455
Ba1 O15 3.132502 1_444
Ba1 O19 3.132502 1_444
Ba1 O21 3.132502 1_554
Ba1 O23 3.132502 1_444
Ba1 O22 3.132502 1_545
Ba1 O16 3.132502 1_545
Ba1 O18 3.132502 1_554
Ba1 O12 3.132502 1_554
Ba1 O20 3.132502 1_455
Ba1 O14 3.132502 1_455
Ba2 O17 2.818227 1_455
Ba2 O19 2.818227 1_445
Ba2 O18 2.818227 1_555
Ba2 O16 2.818227 1_545
Ba2 O1 3.171345 1_545
Ba2 O2 3.171345 1_455
Ba2 O3 3.171345 1_445
Ba2 O0 3.171345 1_555
Ba3 O23 2.818227 1_454
Ba3 O21 2.818227 1_554
Ba3 O22 2.818227 1_555
Ba3 O20 2.818227 1_455
Ba3 O7 3.171345 1_454
Ba3 O5 3.171345 1_455
Ba3 O6 3.171345 1_554
Ba3 O4 3.171345 1_555
Ba4 O15 2.818227 1_544
Ba4 O13 2.818227 1_545
Ba4 O12 2.818227 1_554
Ba4 O14 2.818227 1_555
Ba4 O9 3.171345 1_554
Ba4 O11 3.171345 1_544
Ba4 O10 3.171345 1_545
Ba4 O8 3.171345 1_555
Ba5 O6 2.818227 1_554
Ba5 O7 2.818227 1_554
Ba5 O4 2.818227 1_555
Ba5 O5 2.818227 1_555
Ba5 O12 3.171345 1_554
Ba5 O14 3.171345 1_555
Ba5 O15 3.171345 1_554
Ba5 O13 3.171345 1_555
Ba6 O10 2.818227 1_545
Ba6 O11 2.818227 1_545
Ba6 O8 2.818227 1_555
Ba6 O9 2.818227 1_555
Ba6 O18 3.171345 1_555
Ba6 O16 3.171345 1_545
Ba6 O17 3.171345 1_555
Ba6 O19 3.171345 1_545
Ba7 O2 2.818227 1_455
Ba7 O0 2.818227 1_555
Ba7 O3 2.818227 1_455
Ba7 O1 2.818227 1_555
Ba7 O22 3.171345 1_555
Ba7 O20 3.171345 1_455
Ba7 O23 3.171345 1_455
Ba7 O21 3.171345 1_555
Nd0 O4 2.333308 1_555
Nd0 O16 2.333308 1_545
Nd0 O8 2.333308 1_555
Nd0 O12 2.333308 1_554
Nd0 O0 2.333308 1_555
Nd0 O20 2.333308 1_455
Nd1 O11 2.333308 1_555
Nd1 O6 2.333308 1_555
Nd1 O18 2.333308 1_565
Nd1 O23 2.333308 1_455
Nd1 O13 2.333308 1_556
Nd1 O1 2.333308 1_555
Nd2 O21 2.333308 1_655
Nd2 O7 2.333308 1_555
Nd2 O19 2.333308 1_545
Nd2 O9 2.333308 1_555
Nd2 O2 2.333308 1_555
Nd2 O14 2.333308 1_556
Nd3 O15 2.333308 1_554
Nd3 O5 2.333308 1_555
Nd3 O10 2.333308 1_555
Nd3 O3 2.333308 1_555
Nd3 O22 2.333308 1_655
Nd3 O17 2.333308 1_565
Bi0 O7 2.145026 1_555
Bi0 O19 2.145026 1_555
Bi0 O3 2.145026 1_555
Bi0 O11 2.145026 1_555
Bi0 O23 2.145026 1_555
Bi0 O15 2.145026 1_555
Bi1 O2 2.145026 1_555
Bi1 O17 2.145026 1_555
Bi1 O20 2.145026 1_555
Bi1 O5 2.145026 1_555
Bi1 O14 2.145026 1_555
Bi1 O8 2.145026 1_555
Bi2 O22 2.145026 1_555
Bi2 O16 2.145026 1_555
Bi2 O13 2.145026 1_555
Bi2 O10 2.145026 1_555
Bi2 O4 2.145026 1_555
Bi2 O1 2.145026 1_555
Bi3 O12 2.145026 1_555
Bi3 O0 2.145026 1_555
Bi3 O9 2.145026 1_555
Bi3 O18 2.145026 1_555
Bi3 O21 2.145026 1_555
Bi3 O6 2.145026 1_555
