# generated using pymatgen
data_Na2TiAuF6
_symmetry_space_group_name_H-M   'P 1'
_cell_length_a   6.46853222
_cell_length_b   6.46853222
_cell_length_c   6.46853222
_cell_angle_alpha   60.00000000
_cell_angle_beta   60.00000000
_cell_angle_gamma   60.00000000
_symmetry_Int_Tables_number   1
_chemical_formula_structural   Na2TiAuF6
_chemical_formula_sum   'Na2 Ti1 Au1 F6'
_cell_volume   191.38250739
_cell_formula_units_Z   1
loop_
 _symmetry_equiv_pos_site_id
 _symmetry_equiv_pos_as_xyz
  1  'x, y, z'
loop_
 _atom_site_type_symbol
 _atom_site_label
 _atom_site_symmetry_multiplicity
 _atom_site_fract_x
 _atom_site_fract_y
 _atom_site_fract_z
 _atom_site_occupancy
  Na  Na0  1  0.75000000  0.75000000  0.75000000  1
  Na  Na1  1  0.25000000  0.25000000  0.25000000  1
  Ti  Ti0  1  0.00000000  0.00000000  0.00000000  1
  Au  Au0  1  0.50000000  0.50000000  0.50000000  1
  F  F0  1  0.79322400  0.20677600  0.20677600  1
  F  F1  1  0.20677600  0.20677600  0.79322400  1
  F  F2  1  0.20677600  0.79322400  0.79322400  1
  F  F3  1  0.20677600  0.79322400  0.20677600  1
  F  F4  1  0.79322400  0.20677600  0.79322400  1
  F  F5  1  0.79322400  0.79322400  0.20677600  1
loop_
_geom_bond_atom_site_label_1
_geom_bond_atom_site_label_2
_geom_bond_distance
_geom_bond_site_symmetry_2
Au0 F5 2.682380 1_555
Au0 F2 2.682380 1_555
Au0 F3 2.682380 1_555
Au0 F0 2.682380 1_555
Au0 F1 2.682380 1_555
Au0 F4 2.682380 1_555
F0 Ti0 1.891563 1_655
F1 Ti0 1.891563 1_556
F2 Ti0 1.891563 1_566
F3 Ti0 1.891563 1_565
F4 Ti0 1.891563 1_656
F5 Ti0 1.891563 1_665
