# generated using pymatgen
data_Ni2GeP
_symmetry_space_group_name_H-M   'P 1'
_cell_length_a   4.98342700
_cell_length_b   6.10036800
_cell_length_c   13.98651600
_cell_angle_alpha   90.00000000
_cell_angle_beta   90.00000000
_cell_angle_gamma   90.00000000
_symmetry_Int_Tables_number   1
_chemical_formula_structural   Ni2GeP
_chemical_formula_sum   'Ni16 Ge8 P8'
_cell_volume   425.20041686
_cell_formula_units_Z   8
loop_
 _symmetry_equiv_pos_site_id
 _symmetry_equiv_pos_as_xyz
  1  'x, y, z'
loop_
 _atom_site_type_symbol
 _atom_site_label
 _atom_site_symmetry_multiplicity
 _atom_site_fract_x
 _atom_site_fract_y
 _atom_site_fract_z
 _atom_site_occupancy
  Ni  Ni0  1  0.99665100  0.26813200  0.07539600  1
  Ni  Ni1  1  0.50437700  0.24014100  0.80203100  1
  Ni  Ni2  1  0.49562300  0.25985900  0.30203100  1
  Ni  Ni3  1  0.00437700  0.75985900  0.69796900  1
  Ni  Ni4  1  0.99562300  0.24014100  0.30203100  1
  Ni  Ni5  1  0.49562300  0.75985900  0.19796900  1
  Ni  Ni6  1  0.50437700  0.74014100  0.69796900  1
  Ni  Ni7  1  0.00437700  0.25985900  0.80203100  1
  Ni  Ni8  1  0.99665100  0.76813200  0.42460400  1
  Ni  Ni9  1  0.50334900  0.76813200  0.92460400  1
  Ni  Ni10  1  0.00334900  0.23186800  0.57539600  1
  Ni  Ni11  1  0.00334900  0.73186800  0.92460400  1
  Ni  Ni12  1  0.50334900  0.26813200  0.57539600  1
  Ni  Ni13  1  0.49665100  0.23186800  0.07539600  1
  Ni  Ni14  1  0.99562300  0.74014100  0.19796900  1
  Ni  Ni15  1  0.49665100  0.73186800  0.42460400  1
  Ge  Ge0  1  0.77022600  0.40803500  0.44034800  1
  Ge  Ge1  1  0.27022600  0.59196500  0.05965200  1
  Ge  Ge2  1  0.72977400  0.90803500  0.55965200  1
  Ge  Ge3  1  0.22977400  0.09196500  0.94034800  1
  Ge  Ge4  1  0.22977400  0.59196500  0.55965200  1
  Ge  Ge5  1  0.72977400  0.40803500  0.94034800  1
  Ge  Ge6  1  0.27022600  0.09196500  0.44034800  1
  Ge  Ge7  1  0.77022600  0.90803500  0.05965200  1
  P  P0  1  0.73508000  0.43036900  0.18646700  1
  P  P1  1  0.76492000  0.43036900  0.68646700  1
  P  P2  1  0.26492000  0.56963100  0.81353300  1
  P  P3  1  0.26492000  0.06963100  0.68646700  1
  P  P4  1  0.76492000  0.93036900  0.81353300  1
  P  P5  1  0.23508000  0.56963100  0.31353300  1
  P  P6  1  0.73508000  0.93036900  0.31353300  1
  P  P7  1  0.23508000  0.06963100  0.18646700  1
loop_
_geom_bond_atom_site_label_1
_geom_bond_atom_site_label_2
_geom_bond_distance
_geom_bond_site_symmetry_2
Ni0 P0 2.256553 1_555
Ni0 P7 2.300327 1_655
Ni0 Ni13 2.501515 1_555
Ni0 Ni13 2.501515 1_655
Ni1 P3 2.262413 1_555
Ni1 P4 2.298427 1_545
Ni1 P2 2.343080 1_555
Ni1 P1 2.375932 1_555
Ni1 Ni7 2.494615 1_555
Ni1 Ni7 2.494615 1_655
Ni2 P0 2.262413 1_555
Ni2 P5 2.298427 1_555
Ni2 P6 2.343080 1_545
Ni2 P7 2.375932 1_555
Ni2 Ni4 2.494615 1_455
Ni2 Ni4 2.494615 1_555
Ni3 P4 2.262413 1_455
Ni3 P3 2.298427 1_565
Ni3 P1 2.343080 1_455
Ni3 P2 2.375932 1_555
Ni3 Ni6 2.494615 1_555
Ni3 Ni6 2.494615 1_455
Ni4 P7 2.262413 1_655
Ni4 P6 2.298427 1_545
Ni4 P5 2.343080 1_655
Ni4 P0 2.375932 1_555
Ni5 P6 2.262413 1_555
Ni5 P7 2.298427 1_565
Ni5 P0 2.343080 1_555
Ni5 P5 2.375932 1_555
Ni6 P2 2.262413 1_555
Ni6 P1 2.298427 1_555
Ni6 P3 2.343080 1_565
Ni6 P4 2.375932 1_555
Ni7 P1 2.262413 1_455
Ni7 P2 2.298427 1_555
Ni7 P4 2.343080 1_445
Ni7 P3 2.375932 1_555
Ni8 P6 2.256553 1_555
Ni8 P5 2.300327 1_655
Ni9 P4 2.256553 1_555
Ni9 P2 2.300327 1_555
Ni10 P3 2.256553 1_555
Ni10 P1 2.300327 1_455
Ni10 Ni12 2.501515 1_455
Ni10 Ni12 2.501515 1_555
Ni11 P2 2.256553 1_555
Ni11 P4 2.300327 1_455
Ni11 Ni9 2.501515 1_455
Ni11 Ni9 2.501515 1_555
Ni12 P1 2.256553 1_555
Ni12 P3 2.300327 1_555
Ni13 P7 2.256553 1_555
Ni13 P0 2.300327 1_555
Ni14 P5 2.262413 1_655
Ni14 P0 2.298427 1_555
Ni14 P7 2.343080 1_665
Ni14 P6 2.375932 1_555
Ni14 Ni5 2.494615 1_655
Ni14 Ni5 2.494615 1_555
Ni15 P5 2.256553 1_555
Ni15 P6 2.300327 1_555
Ni15 Ni8 2.501515 1_555
Ni15 Ni8 2.501515 1_455
Ge0 Ni15 2.410351 1_555
Ge0 Ni4 2.460341 1_555
Ge0 Ni12 2.462712 1_555
Ge0 Ni10 2.464218 1_655
Ge0 Ni8 2.479377 1_555
Ge0 Ni2 2.536208 1_555
Ge1 Ni0 2.410351 1_455
Ge1 Ni5 2.460341 1_555
Ge1 Ni11 2.462712 1_554
Ge1 Ni9 2.464218 1_554
Ge1 Ni13 2.479377 1_555
Ge1 Ni14 2.536208 1_455
Ge2 Ni10 2.410351 1_665
Ge2 Ni6 2.460341 1_555
Ge2 Ni8 2.462712 1_555
Ge2 Ni15 2.464218 1_555
Ge2 Ni12 2.479377 1_565
Ge2 Ni3 2.536208 1_655
Ge3 Ni9 2.410351 1_545
Ge3 Ni7 2.460341 1_555
Ge3 Ni13 2.462712 1_556
Ge3 Ni0 2.464218 1_456
Ge3 Ni11 2.479377 1_545
Ge3 Ni1 2.536208 1_555
Ge4 Ni12 2.410351 1_555
Ge4 Ni3 2.460341 1_555
Ge4 Ni15 2.462712 1_555
Ge4 Ni8 2.464218 1_455
Ge4 Ni10 2.479377 1_555
Ge4 Ni6 2.536208 1_555
Ge5 Ni11 2.410351 1_655
Ge5 Ni1 2.460341 1_555
Ge5 Ni0 2.462712 1_556
Ge5 Ni13 2.464218 1_556
Ge5 Ni9 2.479377 1_555
Ge5 Ni7 2.536208 1_655
Ge6 Ni8 2.410351 1_445
Ge6 Ni2 2.460341 1_555
Ge6 Ni10 2.462712 1_555
Ge6 Ni12 2.464218 1_555
Ge6 Ni15 2.479377 1_545
Ge6 Ni4 2.536208 1_455
Ge7 Ni13 2.410351 1_565
Ge7 Ni14 2.460341 1_555
Ge7 Ni9 2.462712 1_554
Ge7 Ni11 2.464218 1_654
Ge7 Ni0 2.479377 1_565
Ge7 Ni5 2.536208 1_555
