# generated using pymatgen
data_Rb2Ca2Be3F12
_symmetry_space_group_name_H-M   'P 1'
_cell_length_a   10.48843324
_cell_length_b   10.48843324
_cell_length_c   10.48843324
_cell_angle_alpha   90.00000000
_cell_angle_beta   90.00000000
_cell_angle_gamma   90.00000000
_symmetry_Int_Tables_number   1
_chemical_formula_structural   Rb2Ca2Be3F12
_chemical_formula_sum   'Rb8 Ca8 Be12 F48'
_cell_volume   1153.80350697
_cell_formula_units_Z   4
loop_
 _symmetry_equiv_pos_site_id
 _symmetry_equiv_pos_as_xyz
  1  'x, y, z'
loop_
 _atom_site_type_symbol
 _atom_site_label
 _atom_site_symmetry_multiplicity
 _atom_site_fract_x
 _atom_site_fract_y
 _atom_site_fract_z
 _atom_site_occupancy
  Rb  Rb0  1  0.04376255  0.04376255  0.04376255  1
  Rb  Rb1  1  0.45623745  0.95623745  0.54376255  1
  Rb  Rb2  1  0.95623745  0.54376255  0.45623745  1
  Rb  Rb3  1  0.54376255  0.45623745  0.95623745  1
  Rb  Rb4  1  0.80695894  0.80695894  0.80695894  1
  Rb  Rb5  1  0.69304106  0.19304106  0.30695894  1
  Rb  Rb6  1  0.19304106  0.30695894  0.69304106  1
  Rb  Rb7  1  0.30695894  0.69304106  0.19304106  1
  Ca  Ca0  1  0.32578659  0.32578659  0.32578659  1
  Ca  Ca1  1  0.17421341  0.67421341  0.82578659  1
  Ca  Ca2  1  0.67421341  0.82578659  0.17421341  1
  Ca  Ca3  1  0.82578659  0.17421341  0.67421341  1
  Ca  Ca4  1  0.58660080  0.58660080  0.58660080  1
  Ca  Ca5  1  0.91339920  0.41339920  0.08660080  1
  Ca  Ca6  1  0.41339920  0.08660080  0.91339920  1
  Ca  Ca7  1  0.08660080  0.91339920  0.41339920  1
  Be  Be0  1  0.00690144  0.22493172  0.37456863  1
  Be  Be1  1  0.49309856  0.77506828  0.87456863  1
  Be  Be2  1  0.99309856  0.72493172  0.12543137  1
  Be  Be3  1  0.37456863  0.00690144  0.22493172  1
  Be  Be4  1  0.50690144  0.27506828  0.62543137  1
  Be  Be5  1  0.87456863  0.49309856  0.77506828  1
  Be  Be6  1  0.12543137  0.99309856  0.72493172  1
  Be  Be7  1  0.62543137  0.50690144  0.27506828  1
  Be  Be8  1  0.22493172  0.37456863  0.00690144  1
  Be  Be9  1  0.72493172  0.12543137  0.99309856  1
  Be  Be10  1  0.27506828  0.62543137  0.50690144  1
  Be  Be11  1  0.77506828  0.87456863  0.49309856  1
  F  F0  1  0.00474958  0.08862729  0.31726772  1
  F  F1  1  0.49525042  0.91137271  0.81726772  1
  F  F2  1  0.99525042  0.58862729  0.18273228  1
  F  F3  1  0.31726772  0.00474958  0.08862729  1
  F  F4  1  0.50474958  0.41137271  0.68273228  1
  F  F5  1  0.81726772  0.49525042  0.91137271  1
  F  F6  1  0.18273228  0.99525042  0.58862729  1
  F  F7  1  0.68273228  0.50474958  0.41137271  1
  F  F8  1  0.08862729  0.31726772  0.00474958  1
  F  F9  1  0.58862729  0.18273228  0.99525042  1
  F  F10  1  0.41137271  0.68273228  0.50474958  1
  F  F11  1  0.91137271  0.81726772  0.49525042  1
  F  F12  1  0.26774179  0.51052520  0.41482456  1
  F  F13  1  0.23225821  0.48947480  0.91482456  1
  F  F14  1  0.73225821  0.01052520  0.08517544  1
  F  F15  1  0.41482456  0.26774179  0.51052520  1
  F  F16  1  0.76774179  0.98947480  0.58517544  1
  F  F17  1  0.91482456  0.23225821  0.48947480  1
  F  F18  1  0.08517544  0.73225821  0.01052520  1
  F  F19  1  0.58517544  0.76774179  0.98947480  1
  F  F20  1  0.51052520  0.41482456  0.26774179  1
  F  F21  1  0.01052520  0.08517544  0.73225821  1
  F  F22  1  0.98947480  0.58517544  0.76774179  1
  F  F23  1  0.48947480  0.91482456  0.23225821  1
  F  F24  1  0.04223754  0.82237641  0.22502525  1
  F  F25  1  0.45776246  0.17762359  0.72502525  1
  F  F26  1  0.95776246  0.32237641  0.27497475  1
  F  F27  1  0.22502525  0.04223754  0.82237641  1
  F  F28  1  0.54223754  0.67762359  0.77497475  1
  F  F29  1  0.72502525  0.45776246  0.17762359  1
  F  F30  1  0.27497475  0.95776246  0.32237641  1
  F  F31  1  0.77497475  0.54223754  0.67762359  1
  F  F32  1  0.82237641  0.22502525  0.04223754  1
  F  F33  1  0.32237641  0.27497475  0.95776246  1
  F  F34  1  0.67762359  0.77497475  0.54223754  1
  F  F35  1  0.17762359  0.72502525  0.45776246  1
  F  F36  1  0.14313120  0.26045688  0.41784530  1
  F  F37  1  0.35686880  0.73954312  0.91784530  1
  F  F38  1  0.85686880  0.76045688  0.08215470  1
  F  F39  1  0.41784530  0.14313120  0.26045688  1
  F  F40  1  0.64313120  0.23954312  0.58215470  1
  F  F41  1  0.91784530  0.35686880  0.73954312  1
  F  F42  1  0.08215470  0.85686880  0.76045688  1
  F  F43  1  0.58215470  0.64313120  0.23954312  1
  F  F44  1  0.26045688  0.41784530  0.14313120  1
  F  F45  1  0.76045688  0.08215470  0.85686880  1
  F  F46  1  0.23954312  0.58215470  0.64313120  1
  F  F47  1  0.73954312  0.91784530  0.35686880  1
loop_
_geom_bond_atom_site_label_1
_geom_bond_atom_site_label_2
_geom_bond_distance
_geom_bond_site_symmetry_2
Ca0 F15 2.235422 1_555
Ca0 F12 2.235422 1_555
Ca0 F20 2.235422 1_555
Ca0 F44 2.252103 1_555
Ca0 F39 2.252103 1_555
Ca0 F36 2.252103 1_555
Ca1 F18 2.235422 1_556
Ca1 F22 2.235422 1_455
Ca1 F13 2.235422 1_555
Ca1 F42 2.252103 1_555
Ca1 F37 2.252103 1_555
Ca1 F46 2.252103 1_555
Ca2 F19 2.235422 1_554
Ca2 F14 2.235422 1_565
Ca2 F23 2.235422 1_555
Ca2 F47 2.252103 1_555
Ca2 F38 2.252103 1_555
Ca2 F43 2.252103 1_555
Ca3 F16 2.235422 1_545
Ca3 F21 2.235422 1_655
Ca3 F17 2.235422 1_555
Ca3 F41 2.252103 1_555
Ca3 F45 2.252103 1_555
Ca3 F40 2.252103 1_555
Ca4 F31 2.243103 1_555
Ca4 F34 2.243103 1_555
Ca4 F28 2.243103 1_555
Ca4 F7 2.265253 1_555
Ca4 F4 2.265253 1_555
Ca4 F10 2.265253 1_555
Ca5 F32 2.243103 1_555
Ca5 F26 2.243103 1_555
Ca5 F29 2.243103 1_555
Ca5 F8 2.265253 1_655
Ca5 F5 2.265253 1_554
Ca5 F2 2.265253 1_555
Ca6 F27 2.243103 1_555
Ca6 F33 2.243103 1_555
Ca6 F25 2.243103 1_555
Ca6 F3 2.265253 1_556
Ca6 F1 2.265253 1_545
Ca6 F9 2.265253 1_555
Ca7 F24 2.243103 1_555
Ca7 F30 2.243103 1_555
Ca7 F35 2.243103 1_555
Ca7 F0 2.265253 1_565
Ca7 F11 2.265253 1_455
Ca7 F6 2.265253 1_555
Be0 F36 1.544810 1_555
Be0 F17 1.546297 1_455
Be0 F26 1.549630 1_455
Be0 F0 1.550974 1_555
Be1 F37 1.544810 1_555
Be1 F19 1.546297 1_555
Be1 F28 1.549630 1_555
Be1 F1 1.550974 1_555
Be2 F38 1.544810 1_555
Be2 F18 1.546297 1_655
Be2 F24 1.549630 1_655
Be2 F2 1.550974 1_555
Be3 F39 1.544810 1_555
Be3 F23 1.546297 1_545
Be3 F30 1.549630 1_545
Be3 F3 1.550974 1_555
Be4 F40 1.544810 1_555
Be4 F15 1.546297 1_555
Be4 F25 1.549630 1_555
Be4 F4 1.550974 1_555
Be5 F41 1.544810 1_555
Be5 F22 1.546297 1_555
Be5 F31 1.549630 1_555
Be5 F5 1.550974 1_555
Be6 F42 1.544810 1_555
Be6 F21 1.546297 1_565
Be6 F27 1.549630 1_565
Be6 F6 1.550974 1_555
Be7 F43 1.544810 1_555
Be7 F20 1.546297 1_555
Be7 F29 1.549630 1_555
Be7 F7 1.550974 1_555
Be8 F44 1.544810 1_555
Be8 F13 1.546297 1_554
Be8 F33 1.549630 1_554
Be8 F8 1.550974 1_555
Be9 F45 1.544810 1_555
Be9 F14 1.546297 1_556
Be9 F32 1.549630 1_556
Be9 F9 1.550974 1_555
Be10 F46 1.544810 1_555
Be10 F12 1.546297 1_555
Be10 F35 1.549630 1_555
Be10 F10 1.550974 1_555
Be11 F47 1.544810 1_555
Be11 F16 1.546297 1_555
Be11 F34 1.549630 1_555
Be11 F11 1.550974 1_555
F0 Rb0 2.935636 1_555
F1 Rb1 2.935636 1_555
F2 Rb2 2.935636 1_555
F3 Rb0 2.935636 1_555
F4 Rb3 2.935636 1_555
F5 Rb3 2.935636 1_555
F6 Rb1 2.935636 1_555
F7 Rb2 2.935636 1_555
F8 Rb0 2.935636 1_555
F9 Rb3 2.935636 1_555
F10 Rb1 2.935636 1_555
F11 Rb2 2.935636 1_555
F12 Rb7 3.040523 1_555
F12 Rb2 3.314323 1_455
F13 Rb6 3.040523 1_555
F13 Rb3 3.314323 1_555
F14 Rb5 3.040523 1_555
F14 Rb0 3.314323 1_655
F15 Rb6 3.040523 1_555
F15 Rb1 3.314323 1_545
F16 Rb4 3.040523 1_555
F16 Rb1 3.314323 1_555
F17 Rb5 3.040523 1_555
F17 Rb2 3.314323 1_555
F18 Rb7 3.040523 1_555
F18 Rb0 3.314323 1_565
F19 Rb4 3.040523 1_555
F19 Rb3 3.314323 1_555
F20 Rb5 3.040523 1_555
F20 Rb3 3.314323 1_554
F21 Rb6 3.040523 1_555
F21 Rb0 3.314323 1_556
F22 Rb4 3.040523 1_555
F22 Rb2 3.314323 1_555
F23 Rb7 3.040523 1_555
F23 Rb1 3.314323 1_555
F24 Rb0 3.001054 1_565
F24 Rb7 3.108331 1_555
F25 Rb1 3.001054 1_545
F25 Rb6 3.108331 1_555
F26 Rb2 3.001054 1_555
F26 Rb5 3.108331 1_555
F27 Rb0 3.001054 1_556
F27 Rb6 3.108331 1_555
F28 Rb3 3.001054 1_555
F28 Rb4 3.108331 1_555
F29 Rb3 3.001054 1_554
F29 Rb5 3.108331 1_555
F30 Rb1 3.001054 1_555
F30 Rb7 3.108331 1_555
F31 Rb2 3.001054 1_555
F31 Rb4 3.108331 1_555
F32 Rb0 3.001054 1_655
F32 Rb5 3.108331 1_555
F33 Rb3 3.001054 1_555
F33 Rb6 3.108331 1_555
F34 Rb1 3.001054 1_555
F34 Rb4 3.108331 1_555
F35 Rb2 3.001054 1_455
F35 Rb7 3.108331 1_555
F36 Rb6 2.973728 1_555
F37 Rb7 2.973728 1_556
F38 Rb4 2.973728 1_554
F39 Rb5 2.973728 1_555
F40 Rb5 2.973728 1_555
F41 Rb6 2.973728 1_655
F42 Rb4 2.973728 1_455
F43 Rb7 2.973728 1_555
F44 Rb7 2.973728 1_555
F45 Rb4 2.973728 1_545
F46 Rb6 2.973728 1_555
F47 Rb5 2.973728 1_565
