# generated using pymatgen
data_Hf9CoW4
_symmetry_space_group_name_H-M   'P 1'
_cell_length_a   8.67413785
_cell_length_b   8.67413776
_cell_length_c   8.40117654
_cell_angle_alpha   89.99999423
_cell_angle_beta   90.00000658
_cell_angle_gamma   120.00001157
_symmetry_Int_Tables_number   1
_chemical_formula_structural   Hf9CoW4
_chemical_formula_sum   'Hf18 Co2 W8'
_cell_volume   547.42336147
_cell_formula_units_Z   2
loop_
 _symmetry_equiv_pos_site_id
 _symmetry_equiv_pos_as_xyz
  1  'x, y, z'
loop_
 _atom_site_type_symbol
 _atom_site_label
 _atom_site_symmetry_multiplicity
 _atom_site_fract_x
 _atom_site_fract_y
 _atom_site_fract_z
 _atom_site_occupancy
  Hf  Hf0  1  0.20143337  0.79856647  0.43904776  1
  Hf  Hf1  1  0.20143401  0.40286736  0.43904780  1
  Hf  Hf2  1  0.59713292  0.79856621  0.43904778  1
  Hf  Hf3  1  0.79858037  0.20141975  0.56092805  1
  Hf  Hf4  1  0.79858028  0.59716052  0.56092799  1
  Hf  Hf5  1  0.40283992  0.20141994  0.56092816  1
  Hf  Hf6  1  0.79858019  0.20141981  0.93907165  1
  Hf  Hf7  1  0.79858019  0.59716042  0.93907190  1
  Hf  Hf8  1  0.40283985  0.20141989  0.93907170  1
  Hf  Hf9  1  0.20143344  0.79856629  0.06095251  1
  Hf  Hf10  1  0.20143401  0.40286748  0.06095242  1
  Hf  Hf11  1  0.59713281  0.79856600  0.06095231  1
  Hf  Hf12  1  0.54200649  0.45799420  0.25000027  1
  Hf  Hf13  1  0.54200579  0.08401172  0.25000030  1
  Hf  Hf14  1  0.91598833  0.45799451  0.25000053  1
  Hf  Hf15  1  0.45797964  0.54202067  0.74999964  1
  Hf  Hf16  1  0.45797948  0.91595869  0.74999970  1
  Hf  Hf17  1  0.08404120  0.54202077  0.74999959  1
  Co  Co0  1  0.33333330  0.66666682  0.25000028  1
  Co  Co1  1  0.66666690  0.33333337  0.74999974  1
  W  W0  1  0.88841946  0.11158047  0.25000020  1
  W  W1  1  0.88841943  0.77683863  0.25000031  1
  W  W2  1  0.22316105  0.11158029  0.25000021  1
  W  W3  1  0.11155905  0.88844049  0.74999981  1
  W  W4  1  0.11155901  0.22311830  0.74999984  1
  W  W5  1  0.77688163  0.88844052  0.74999969  1
  W  W6  1  -0.00000010  -0.00000035  0.50004370  1
  W  W7  1  -0.00000001  -0.00000025  -0.00004384  1
loop_
_geom_bond_atom_site_label_1
_geom_bond_atom_site_label_2
_geom_bond_distance
_geom_bond_site_symmetry_2
Hf0 W3 2.940694 1_555
Hf0 W1 3.068901 1_455
Hf0 W2 3.068901 1_565
Hf0 W6 3.069422 1_565
Hf0 Hf14 3.172630 1_455
Hf0 Hf13 3.172634 1_565
Hf0 Hf17 3.247668 1_555
Hf0 Hf16 3.247671 1_555
Hf1 W4 2.940696 1_555
Hf1 W2 3.068906 1_555
Hf1 W0 3.068907 1_455
Hf1 W6 3.069429 1_555
Hf1 Hf12 3.172636 1_555
Hf1 Hf14 3.172636 1_455
Hf1 Hf15 3.247668 1_555
Hf1 Hf17 3.247671 1_555
Hf2 W5 2.940694 1_555
Hf2 W1 3.068904 1_555
Hf2 W0 3.068904 1_565
Hf2 W6 3.069424 1_665
Hf3 W0 2.940272 1_555
Hf3 W4 3.068842 1_655
Hf3 W5 3.068845 1_545
Hf3 W6 3.069065 1_655
Hf4 W1 2.940270 1_555
Hf4 W5 3.068842 1_555
Hf4 W3 3.068842 1_655
Hf4 W6 3.069061 1_665
Hf5 W2 2.940274 1_555
Hf5 W3 3.068847 1_545
Hf5 W4 3.068848 1_555
Hf5 W6 3.069068 1_555
Hf6 W0 2.940278 1_556
Hf6 W4 3.068844 1_655
Hf6 W5 3.068848 1_545
Hf6 W7 3.069067 1_656
Hf7 W1 2.940275 1_556
Hf7 W3 3.068844 1_655
Hf7 W5 3.068844 1_555
Hf7 W7 3.069062 1_666
Hf8 W2 2.940278 1_556
Hf8 W4 3.068848 1_555
Hf8 W3 3.068848 1_545
Hf8 W7 3.069067 1_556
Hf9 W3 2.940699 1_554
Hf9 W2 3.068904 1_565
Hf9 W1 3.068904 1_455
Hf9 W7 3.069424 1_565
Hf10 W4 2.940701 1_554
Hf10 W2 3.068908 1_555
Hf10 W0 3.068908 1_455
Hf10 W7 3.069430 1_555
Hf10 Hf12 3.172637 1_555
Hf10 Hf14 3.172640 1_455
Hf10 Hf15 3.247675 1_554
Hf10 Hf17 3.247677 1_554
Hf11 W5 2.940700 1_554
Hf11 W1 3.068906 1_555
Hf11 W0 3.068907 1_565
Hf11 W7 3.069426 1_665
Hf11 Hf12 3.172634 1_555
Hf11 Hf13 3.172639 1_565
Hf11 Hf15 3.247673 1_554
Hf11 Hf16 3.247675 1_554
Hf12 W1 2.892689 1_555
Hf12 W2 2.892698 1_555
Hf12 Hf2 3.172633 1_555
Hf12 Hf14 3.243969 1_555
Hf12 Hf13 3.243973 1_555
Hf12 Hf4 3.247630 1_555
Hf12 Hf5 3.247634 1_555
Hf12 Hf7 3.247635 1_554
Hf12 Hf8 3.247639 1_554
Hf13 W2 2.892693 1_555
Hf13 W0 2.892695 1_555
Hf13 Hf9 3.172635 1_545
Hf13 Hf2 3.172636 1_545
Hf13 Hf14 3.243977 1_555
Hf13 Hf5 3.247633 1_555
Hf13 Hf3 3.247634 1_555
Hf13 Hf8 3.247638 1_554
Hf13 Hf6 3.247640 1_554
Hf14 W1 2.892689 1_555
Hf14 W0 2.892698 1_555
Hf14 Hf9 3.172633 1_655
Hf14 Hf4 3.247630 1_555
Hf14 Hf3 3.247633 1_555
Hf14 Hf7 3.247638 1_554
Hf14 Hf6 3.247642 1_554
Hf15 W5 2.892941 1_555
Hf15 W4 2.892946 1_555
Hf15 Hf4 3.172911 1_555
Hf15 Hf5 3.172911 1_555
Hf15 Hf7 3.172913 1_555
Hf15 Hf8 3.172914 1_555
Hf15 Hf16 3.243591 1_555
Hf15 Hf17 3.243594 1_555
Hf15 Hf2 3.247668 1_555
Hf16 W5 2.892944 1_555
Hf16 W3 2.892945 1_555
Hf16 Hf5 3.172912 1_565
Hf16 Hf3 3.172912 1_565
Hf16 Hf6 3.172913 1_565
Hf16 Hf8 3.172914 1_565
Hf16 Hf17 3.243590 1_555
Hf16 Hf2 3.247670 1_555
Hf16 Hf9 3.247677 1_556
Hf17 W3 2.892940 1_555
Hf17 W4 2.892945 1_555
Hf17 Hf4 3.172911 1_455
Hf17 Hf3 3.172912 1_455
Hf17 Hf6 3.172914 1_455
Hf17 Hf7 3.172915 1_455
Hf17 Hf9 3.247675 1_556
Co0 Hf1 2.539577 1_555
Co0 Hf9 2.539578 1_555
Co0 Hf2 2.539578 1_555
Co0 Hf0 2.539578 1_555
Co0 Hf10 2.539579 1_555
Co0 Hf11 2.539580 1_555
Co0 Hf13 3.135104 1_565
Co0 Hf14 3.135105 1_455
Co0 Hf12 3.135112 1_555
Co1 Hf5 2.539865 1_555
Co1 Hf6 2.539866 1_555
Co1 Hf3 2.539867 1_555
Co1 Hf4 2.539867 1_555
Co1 Hf8 2.539868 1_555
Co1 Hf7 2.539869 1_555
Co1 Hf17 3.135325 1_655
Co1 Hf15 3.135328 1_555
Co1 Hf16 3.135328 1_545
W0 W6 2.687576 1_655
W0 W7 2.687579 1_655
W0 W2 2.903595 1_655
W0 W1 2.903597 1_545
W1 W6 2.687574 1_665
W1 W7 2.687579 1_665
W1 W2 2.903595 1_665
W2 W6 2.687575 1_555
W2 W7 2.687578 1_555
W3 W6 2.686800 1_565
W3 W7 2.686802 1_566
W3 W5 2.903038 1_455
W3 W4 2.903042 1_565
W4 W6 2.686802 1_555
W4 W7 2.686803 1_556
W4 W5 2.903039 1_445
W5 W6 2.686800 1_665
W5 W7 2.686803 1_666
