# generated using pymatgen
data_CsH6Rh(N3O4)2
_symmetry_space_group_name_H-M   'P 1'
_cell_length_a   10.38442400
_cell_length_b   10.70031200
_cell_length_c   15.22248152
_cell_angle_alpha   90.00000000
_cell_angle_beta   131.77426946
_cell_angle_gamma   90.00000000
_symmetry_Int_Tables_number   1
_chemical_formula_structural   CsH6Rh(N3O4)2
_chemical_formula_sum   'Cs4 H24 Rh4 N24 O32'
_cell_volume   1261.45649327
_cell_formula_units_Z   4
loop_
 _symmetry_equiv_pos_site_id
 _symmetry_equiv_pos_as_xyz
  1  'x, y, z'
loop_
 _atom_site_type_symbol
 _atom_site_label
 _atom_site_symmetry_multiplicity
 _atom_site_fract_x
 _atom_site_fract_y
 _atom_site_fract_z
 _atom_site_occupancy
  Cs  Cs0  1  0.85576000  0.62283000  0.61654100  1
  Cs  Cs1  1  0.85576000  0.87717000  0.11654100  1
  Cs  Cs2  1  0.14424000  0.37717000  0.38345900  1
  Cs  Cs3  1  0.14424000  0.12283000  0.88345900  1
  H  H0  1  0.34099800  0.68416600  0.23587700  1
  H  H1  1  0.34099800  0.81583400  0.73587700  1
  H  H2  1  0.65900200  0.31583400  0.76412300  1
  H  H3  1  0.65900200  0.18416600  0.26412300  1
  H  H4  1  0.32949300  0.53638000  0.19819200  1
  H  H5  1  0.32949300  0.96362000  0.69819200  1
  H  H6  1  0.67050700  0.46362000  0.80180800  1
  H  H7  1  0.67050700  0.03638000  0.30180800  1
  H  H8  1  0.15327900  0.62709000  0.11963600  1
  H  H9  1  0.15327900  0.87291000  0.61963600  1
  H  H10  1  0.84672100  0.37291000  0.88036400  1
  H  H11  1  0.84672100  0.12709000  0.38036400  1
  H  H12  1  0.59816400  0.58081000  0.10925400  1
  H  H13  1  0.59816400  0.91919000  0.60925400  1
  H  H14  1  0.40183600  0.41919000  0.89074600  1
  H  H15  1  0.40183600  0.08081000  0.39074600  1
  H  H16  1  0.64541900  0.66312400  0.22089000  1
  H  H17  1  0.64541900  0.83687600  0.72089000  1
  H  H18  1  0.35458100  0.33687600  0.77911000  1
  H  H19  1  0.35458100  0.16312400  0.27911000  1
  H  H20  1  0.56141700  0.52011500  0.19018700  1
  H  H21  1  0.56141700  0.97988500  0.69018700  1
  H  H22  1  0.43858300  0.47988500  0.80981300  1
  H  H23  1  0.43858300  0.02011500  0.30981300  1
  Rh  Rh0  1  0.30993100  0.68483600  0.04486100  1
  Rh  Rh1  1  0.30993100  0.81516400  0.54486100  1
  Rh  Rh2  1  0.69006900  0.31516400  0.95513900  1
  Rh  Rh3  1  0.69006900  0.18483600  0.45513900  1
  N  N0  1  0.20178800  0.51673600  0.95731800  1
  N  N1  1  0.20178800  0.98326400  0.45731800  1
  N  N2  1  0.79821200  0.48326400  0.04268200  1
  N  N3  1  0.79821200  0.01673600  0.54268200  1
  N  N4  1  0.06994200  0.76663900  0.94369100  1
  N  N5  1  0.06994200  0.73336100  0.44369100  1
  N  N6  1  0.93005800  0.23336100  0.05630900  1
  N  N7  1  0.93005800  0.26663900  0.55630900  1
  N  N8  1  0.42381500  0.84989200  0.14073300  1
  N  N9  1  0.42381500  0.65010800  0.64073300  1
  N  N10  1  0.57618500  0.15010800  0.85926700  1
  N  N11  1  0.57618500  0.34989200  0.35926700  1
  N  N12  1  0.33911900  0.73780000  0.93023900  1
  N  N13  1  0.33911900  0.76220000  0.43023900  1
  N  N14  1  0.66088100  0.26220000  0.06976100  1
  N  N15  1  0.66088100  0.23780000  0.56976100  1
  N  N16  1  0.28310600  0.62508400  0.16551000  1
  N  N17  1  0.28310600  0.87491600  0.66551000  1
  N  N18  1  0.71689400  0.37491600  0.83449000  1
  N  N19  1  0.71689400  0.12508400  0.33449000  1
  N  N20  1  0.55929800  0.60162300  0.15423300  1
  N  N21  1  0.55929800  0.89837700  0.65423300  1
  N  N22  1  0.44070200  0.39837700  0.84576700  1
  N  N23  1  0.44070200  0.10162300  0.34576700  1
  O  O0  1  0.29924400  0.42783200  0.98101800  1
  O  O1  1  0.29924400  0.07216800  0.48101800  1
  O  O2  1  0.70075600  0.57216800  0.01898200  1
  O  O3  1  0.70075600  0.92783200  0.51898200  1
  O  O4  1  0.04150400  0.50347900  0.88322300  1
  O  O5  1  0.04150400  0.99652100  0.38322300  1
  O  O6  1  0.95849600  0.49652100  0.11677700  1
  O  O7  1  0.95849600  0.00347900  0.61677700  1
  O  O8  1  0.00182900  0.81338900  0.84554300  1
  O  O9  1  0.00182900  0.68661100  0.34554300  1
  O  O10  1  0.99817100  0.18661100  0.15445700  1
  O  O11  1  0.99817100  0.31338900  0.65445700  1
  O  O12  1  0.99437200  0.77044700  0.98158100  1
  O  O13  1  0.99437200  0.72955300  0.48158100  1
  O  O14  1  0.00562800  0.22955300  0.01841900  1
  O  O15  1  0.00562800  0.27044700  0.51841900  1
  O  O16  1  0.33544200  0.94648200  0.11120400  1
  O  O17  1  0.33544200  0.55351800  0.61120400  1
  O  O18  1  0.66455800  0.05351800  0.88879600  1
  O  O19  1  0.66455800  0.44648200  0.38879600  1
  O  O20  1  0.58180800  0.85089900  0.23145600  1
  O  O21  1  0.58180800  0.64910100  0.73145600  1
  O  O22  1  0.41819200  0.14910100  0.76854400  1
  O  O23  1  0.41819200  0.35089900  0.26854400  1
  O  O24  1  0.26957200  0.67535500  0.83849300  1
  O  O25  1  0.26957200  0.82464500  0.33849300  1
  O  O26  1  0.73042800  0.32464500  0.16150700  1
  O  O27  1  0.73042800  0.17535500  0.66150700  1
  O  O28  1  0.43051100  0.83073000  0.95366800  1
  O  O29  1  0.43051100  0.66927000  0.45366800  1
  O  O30  1  0.56948900  0.16927000  0.04633200  1
  O  O31  1  0.56948900  0.33073000  0.54633200  1
loop_
_geom_bond_atom_site_label_1
_geom_bond_atom_site_label_2
_geom_bond_distance
_geom_bond_site_symmetry_2
Cs0 O19 3.217213 1_555
Cs0 O24 3.294298 1_655
Cs0 O29 3.362566 1_555
Cs0 O4 3.376158 1_655
Cs0 O13 3.396579 1_555
Cs0 O8 3.400774 1_655
Cs0 O3 3.501796 1_555
Cs0 O11 3.513738 1_555
Cs1 O18 3.217213 1_564
Cs1 O25 3.294298 1_655
Cs1 O28 3.362566 1_554
Cs1 O5 3.376158 1_655
Cs1 O12 3.396579 1_554
Cs1 O9 3.400774 1_655
Cs1 O2 3.501796 1_555
Cs1 O10 3.513738 1_565
Cs2 O17 3.217213 1_555
Cs2 O26 3.294298 1_455
Cs2 O31 3.362566 1_555
Cs2 O6 3.376158 1_455
Cs2 O15 3.396579 1_555
Cs2 O10 3.400774 1_455
Cs2 O1 3.501796 1_555
Cs2 O9 3.513738 1_555
Cs3 O16 3.217213 1_546
Cs3 O27 3.294298 1_455
Cs3 O30 3.362566 1_556
Cs3 O7 3.376158 1_455
Cs3 O14 3.396579 1_556
Cs3 O11 3.400774 1_455
Cs3 O0 3.501796 1_555
Cs3 O8 3.513738 1_545
H0 N16 1.024922 1_555
H1 N17 1.024922 1_555
H2 N18 1.024922 1_555
H3 N19 1.024922 1_555
H4 N16 1.030119 1_555
H5 N17 1.030119 1_555
H6 N18 1.030119 1_555
H7 N19 1.030119 1_555
H8 N16 1.025330 1_555
H9 N17 1.025330 1_555
H10 N18 1.025330 1_555
H11 N19 1.025330 1_555
H12 N20 1.024447 1_555
H13 N21 1.024447 1_555
H14 N22 1.024447 1_555
H15 N23 1.024447 1_555
H16 N20 1.026341 1_555
H17 N21 1.026341 1_555
H18 N22 1.026341 1_555
H19 N23 1.026341 1_555
H20 N20 1.022081 1_555
H21 N21 1.022081 1_555
H22 N22 1.022081 1_555
H23 N23 1.022081 1_555
N0 O4 1.249535 1_555
N0 O0 1.254134 1_555
N0 Rh0 2.068439 1_556
N1 O5 1.249535 1_555
N1 O1 1.254134 1_565
N1 Rh1 2.068439 1_555
N2 O6 1.249535 1_555
N2 O2 1.254134 1_555
N2 Rh2 2.068439 1_554
N3 O7 1.249535 1_555
N3 O3 1.254134 1_545
N3 Rh3 2.068439 1_555
N4 O12 1.246294 1_455
N4 O8 1.254873 1_555
N4 Rh0 2.057901 1_556
N5 O13 1.246294 1_455
N5 O9 1.254873 1_555
N5 Rh1 2.057901 1_555
N6 O14 1.246294 1_655
N6 O10 1.254873 1_555
N6 Rh2 2.057901 1_554
N7 O15 1.246294 1_655
N7 O11 1.254873 1_555
N7 Rh3 2.057901 1_555
N8 O16 1.250126 1_555
N8 O20 1.257057 1_555
N8 Rh0 2.085219 1_555
N9 O17 1.250126 1_555
N9 O21 1.257057 1_555
N9 Rh1 2.085219 1_555
N10 O18 1.250126 1_555
N10 O22 1.257057 1_555
N10 Rh2 2.085219 1_555
N11 O19 1.250126 1_555
N11 O23 1.257057 1_555
N11 Rh3 2.085219 1_555
N12 O28 1.251281 1_555
N12 O24 1.254848 1_555
N12 Rh0 2.040132 1_556
N13 O29 1.251281 1_555
N13 O25 1.254848 1_555
N13 Rh1 2.040132 1_555
N14 O30 1.251281 1_555
N14 O26 1.254848 1_555
N14 Rh2 2.040132 1_554
N15 O31 1.251281 1_555
N15 O27 1.254848 1_555
N15 Rh3 2.040132 1_555
N16 Rh0 2.130975 1_555
N17 Rh1 2.130975 1_555
N18 Rh2 2.130975 1_555
N19 Rh3 2.130975 1_555
N20 Rh0 2.127444 1_555
N21 Rh1 2.127444 1_555
N22 Rh2 2.127444 1_555
N23 Rh3 2.127444 1_555
