# generated using pymatgen
data_Ca(CuO2)2
_symmetry_space_group_name_H-M   'P 1'
_cell_length_a   7.50138850
_cell_length_b   7.50138850
_cell_length_c   7.50138850
_cell_angle_alpha   136.71956960
_cell_angle_beta   136.71956960
_cell_angle_gamma   62.86980948
_symmetry_Int_Tables_number   1
_chemical_formula_structural   Ca(CuO2)2
_chemical_formula_sum   'Ca2 Cu4 O8'
_cell_volume   195.92079207
_cell_formula_units_Z   2
loop_
 _symmetry_equiv_pos_site_id
 _symmetry_equiv_pos_as_xyz
  1  'x, y, z'
loop_
 _atom_site_type_symbol
 _atom_site_label
 _atom_site_symmetry_multiplicity
 _atom_site_fract_x
 _atom_site_fract_y
 _atom_site_fract_z
 _atom_site_occupancy
  Ca  Ca0  1  0.50000000  0.50000000  0.00000000  1
  Ca  Ca1  1  0.25000000  0.75000000  0.50000000  1
  Cu  Cu0  1  0.87500000  0.12500000  0.25000000  1
  Cu  Cu1  1  0.37500000  0.12500000  0.25000000  1
  Cu  Cu2  1  0.87500000  0.62500000  0.75000000  1
  Cu  Cu3  1  0.87500000  0.12500000  0.75000000  1
  O  O0  1  0.65895400  0.87956500  0.77938800  1
  O  O1  1  0.12043500  0.89982300  0.77938800  1
  O  O2  1  0.12043500  0.34104600  0.22061200  1
  O  O3  1  0.09104600  0.37043500  0.72061200  1
  O  O4  1  0.64982300  0.37043500  0.27938800  1
  O  O5  1  0.62956500  0.35017700  0.72061200  1
  O  O6  1  0.10017700  0.87956500  0.22061200  1
  O  O7  1  0.62956500  0.90895400  0.27938800  1
loop_
_geom_bond_atom_site_label_1
_geom_bond_atom_site_label_2
_geom_bond_distance
_geom_bond_site_symmetry_2
Ca0 O4 2.267192 1_555
Ca0 O5 2.267192 1_554
Ca0 O3 2.267198 1_554
Ca0 O7 2.267198 1_555
Ca1 O1 2.267192 1_555
Ca1 O6 2.267192 1_555
Ca1 O2 2.267198 1_555
Ca1 O0 2.267198 1_555
Cu0 O6 1.845638 1_645
Cu0 O4 1.845638 1_555
Cu0 O3 1.845638 1_655
Cu0 O0 1.845638 1_544
Cu1 O2 1.845634 1_555
Cu1 O7 1.845634 1_545
Cu1 O5 1.845638 1_555
Cu1 O1 1.845638 1_544
Cu2 O3 1.845634 1_655
Cu2 O0 1.845634 1_555
Cu2 O4 1.845638 1_555
Cu2 O6 1.845638 1_656
Cu3 O1 1.845638 1_645
Cu3 O5 1.845638 1_555
Cu3 O7 1.845638 1_545
Cu3 O2 1.845638 1_656
