# generated using pymatgen
data_CoPPd
_symmetry_space_group_name_H-M   'P 1'
_cell_length_a   3.58899816
_cell_length_b   3.58899816
_cell_length_c   5.79414752
_cell_angle_alpha   90.00000000
_cell_angle_beta   90.00000000
_cell_angle_gamma   90.00000000
_symmetry_Int_Tables_number   1
_chemical_formula_structural   CoPPd
_chemical_formula_sum   'Co2 P2 Pd2'
_cell_volume   74.63387994
_cell_formula_units_Z   2
loop_
 _symmetry_equiv_pos_site_id
 _symmetry_equiv_pos_as_xyz
  1  'x, y, z'
loop_
 _atom_site_type_symbol
 _atom_site_label
 _atom_site_symmetry_multiplicity
 _atom_site_fract_x
 _atom_site_fract_y
 _atom_site_fract_z
 _atom_site_occupancy
  Co  Co0  1  0.75000000  0.25000000  0.00000000  1
  Co  Co1  1  0.25000000  0.75000000  0.00000000  1
  P  P0  1  0.75000000  0.75000000  0.78076018  1
  P  P1  1  0.25000000  0.25000000  0.21923982  1
  Pd  Pd0  1  0.75000000  0.75000000  0.38068458  1
  Pd  Pd1  1  0.25000000  0.25000000  0.61931542  1
loop_
_geom_bond_atom_site_label_1
_geom_bond_atom_site_label_2
_geom_bond_distance
_geom_bond_site_symmetry_2
Co0 P0 2.198615 1_544
Co0 P0 2.198615 1_554
Co0 P1 2.198615 1_555
Co0 P1 2.198615 1_655
Co0 Pd0 2.843506 1_545
Co0 Pd1 2.843506 1_554
Co0 Pd1 2.843506 1_654
Co0 Pd0 2.843506 1_555
Co1 P0 2.198615 1_454
Co1 P0 2.198615 1_554
Co1 P1 2.198615 1_565
Co1 P1 2.198615 1_555
Co1 Pd0 2.843506 1_455
Co1 Pd1 2.843506 1_564
Co1 Pd1 2.843506 1_554
Co1 Pd0 2.843506 1_555
P0 Pd0 2.318097 1_555
P0 Pd1 2.704717 1_565
P0 Pd1 2.704717 1_655
P0 Pd1 2.704717 1_665
P0 Pd1 2.704717 1_555
P1 Pd1 2.318097 1_555
P1 Pd0 2.704717 1_455
P1 Pd0 2.704717 1_545
P1 Pd0 2.704717 1_555
P1 Pd0 2.704717 1_445
Pd0 Pd1 2.890019 1_665
Pd0 Pd1 2.890019 1_555
Pd0 Pd1 2.890019 1_565
Pd0 Pd1 2.890019 1_655
