# generated using pymatgen
data_Ta3Te4ClO15
_symmetry_space_group_name_H-M   'P 1'
_cell_length_a   10.28792410
_cell_length_b   10.28792410
_cell_length_c   21.26679137
_cell_angle_alpha   65.46642204
_cell_angle_beta   65.46642204
_cell_angle_gamma   44.26774918
_symmetry_Int_Tables_number   1
_chemical_formula_structural   Ta3Te4ClO15
_chemical_formula_sum   'Ta12 Te16 Cl4 O60'
_cell_volume   1404.46504328
_cell_formula_units_Z   4
loop_
 _symmetry_equiv_pos_site_id
 _symmetry_equiv_pos_as_xyz
  1  'x, y, z'
loop_
 _atom_site_type_symbol
 _atom_site_label
 _atom_site_symmetry_multiplicity
 _atom_site_fract_x
 _atom_site_fract_y
 _atom_site_fract_z
 _atom_site_occupancy
  Ta  Ta0  1  0.75263244  0.00195845  0.49050038  1
  Ta  Ta1  1  0.24736756  0.99804155  0.50949962  1
  Ta  Ta2  1  0.99804155  0.24736756  0.00949962  1
  Ta  Ta3  1  0.00195845  0.75263244  0.99050038  1
  Ta  Ta4  1  0.49242603  0.75023136  0.00545881  1
  Ta  Ta5  1  0.50757397  0.24976864  0.99454119  1
  Ta  Ta6  1  0.24976864  0.50757397  0.49454119  1
  Ta  Ta7  1  0.75023136  0.49242603  0.50545881  1
  Ta  Ta8  1  0.14233668  0.36347212  0.25314389  1
  Ta  Ta9  1  0.85766332  0.63652788  0.74685611  1
  Ta  Ta10  1  0.63652788  0.85766332  0.24685611  1
  Ta  Ta11  1  0.36347212  0.14233668  0.75314389  1
  Te  Te0  1  0.73518869  0.60403616  0.12502958  1
  Te  Te1  1  0.26481131  0.39596384  0.87497042  1
  Te  Te2  1  0.39596384  0.26481131  0.37497042  1
  Te  Te3  1  0.60403616  0.73518869  0.62502958  1
  Te  Te4  1  0.12990551  0.00532879  0.36308939  1
  Te  Te5  1  0.87009449  0.99467121  0.63691061  1
  Te  Te6  1  0.99467121  0.87009449  0.13691061  1
  Te  Te7  1  0.00532879  0.12990551  0.86308939  1
  Te  Te8  1  0.23175884  0.11942293  0.14489038  1
  Te  Te9  1  0.76824116  0.88057707  0.85510962  1
  Te  Te10  1  0.88057707  0.76824116  0.35510962  1
  Te  Te11  1  0.11942293  0.23175884  0.64489038  1
  Te  Te12  1  0.51386600  0.39267972  0.12974373  1
  Te  Te13  1  0.48613400  0.60732028  0.87025627  1
  Te  Te14  1  0.60732028  0.48613400  0.37025627  1
  Te  Te15  1  0.39267972  0.51386600  0.62974373  1
  Cl  Cl0  1  0.44945572  0.55054428  0.25000000  1
  Cl  Cl1  1  0.55054428  0.44945572  0.75000000  1
  Cl  Cl2  1  0.95388897  0.04611103  0.25000000  1
  Cl  Cl3  1  0.04611103  0.95388897  0.75000000  1
  O  O0  1  0.07725402  0.34037721  0.18288162  1
  O  O1  1  0.92274598  0.65962279  0.81711838  1
  O  O2  1  0.65962279  0.92274598  0.31711838  1
  O  O3  1  0.34037721  0.07725402  0.68288162  1
  O  O4  1  0.99248934  0.25745721  0.50300912  1
  O  O5  1  0.00751066  0.74254279  0.49699088  1
  O  O6  1  0.74254279  0.00751066  0.99699088  1
  O  O7  1  0.25745721  0.99248934  0.00300912  1
  O  O8  1  0.75869418  0.03987090  0.57093291  1
  O  O9  1  0.24130582  0.96012910  0.42906709  1
  O  O10  1  0.96012910  0.24130582  0.92906709  1
  O  O11  1  0.03987090  0.75869418  0.07093291  1
  O  O12  1  0.38066731  0.08090344  0.24741607  1
  O  O13  1  0.61933269  0.91909656  0.75258393  1
  O  O14  1  0.91909656  0.61933269  0.25258393  1
  O  O15  1  0.08090344  0.38066731  0.74741607  1
  O  O16  1  0.76395638  0.94599110  0.40747151  1
  O  O17  1  0.23604362  0.05400890  0.59252849  1
  O  O18  1  0.05400890  0.23604362  0.09252849  1
  O  O19  1  0.94599110  0.76395638  0.90747151  1
  O  O20  1  0.52720716  0.80146286  0.07780807  1
  O  O21  1  0.47279284  0.19853714  0.92219193  1
  O  O22  1  0.19853714  0.47279284  0.42219193  1
  O  O23  1  0.80146286  0.52720716  0.57780807  1
  O  O24  1  0.62896633  0.90260086  0.55183897  1
  O  O25  1  0.37103367  0.09739914  0.44816103  1
  O  O26  1  0.09739914  0.37103367  0.94816103  1
  O  O27  1  0.90260086  0.62896633  0.05183897  1
  O  O28  1  0.74063734  0.47502424  0.03509030  1
  O  O29  1  0.25936266  0.52497576  0.96490970  1
  O  O30  1  0.52497576  0.25936266  0.46490970  1
  O  O31  1  0.47502424  0.74063734  0.53509030  1
  O  O32  1  0.01962099  0.26339448  0.32843011  1
  O  O33  1  0.98037901  0.73660552  0.67156989  1
  O  O34  1  0.73660552  0.98037901  0.17156989  1
  O  O35  1  0.26339448  0.01962099  0.82843011  1
  O  O36  1  0.52387312  0.33515768  0.05432877  1
  O  O37  1  0.47612688  0.66484232  0.94567123  1
  O  O38  1  0.66484232  0.47612688  0.44567123  1
  O  O39  1  0.33515768  0.52387312  0.55432877  1
  O  O40  1  0.22362912  0.34496437  0.32700645  1
  O  O41  1  0.77637088  0.65503563  0.67299355  1
  O  O42  1  0.65503563  0.77637088  0.17299355  1
  O  O43  1  0.34496437  0.22362912  0.82700645  1
  O  O44  1  0.37043566  0.65334714  0.08960557  1
  O  O45  1  0.62956434  0.34665286  0.91039443  1
  O  O46  1  0.34665286  0.62956434  0.41039443  1
  O  O47  1  0.65334714  0.37043566  0.58960557  1
  O  O48  1  0.29309159  0.42809364  0.18111290  1
  O  O49  1  0.70690841  0.57190636  0.81888710  1
  O  O50  1  0.57190636  0.70690841  0.31888710  1
  O  O51  1  0.42809364  0.29309159  0.68111290  1
  O  O52  1  0.36308252  0.19077165  0.07163448  1
  O  O53  1  0.63691748  0.80922835  0.92836552  1
  O  O54  1  0.80922835  0.63691748  0.42836552  1
  O  O55  1  0.19077165  0.36308252  0.57163448  1
  O  O56  1  0.90241482  0.08187672  0.42430694  1
  O  O57  1  0.09758518  0.91812328  0.57569306  1
  O  O58  1  0.91812328  0.09758518  0.07569306  1
  O  O59  1  0.08187672  0.90241482  0.92430694  1
loop_
_geom_bond_atom_site_label_1
_geom_bond_atom_site_label_2
_geom_bond_distance
_geom_bond_site_symmetry_2
O0 Te8 1.905397 1_555
O0 Ta8 2.022649 1_555
O1 Te9 1.905397 1_555
O1 Ta9 2.022649 1_555
O2 Te10 1.905397 1_555
O2 Ta10 2.022649 1_555
O3 Te11 1.905397 1_555
O3 Ta11 2.022649 1_555
O4 Ta7 1.850988 1_555
O4 Ta1 1.997409 1_645
O5 Ta6 1.850988 1_555
O5 Ta0 1.997409 1_465
O6 Ta5 1.850988 1_555
O6 Ta3 1.997409 1_645
O7 Ta4 1.850988 1_555
O7 Ta2 1.997409 1_465
O8 Te5 1.878526 1_545
O8 Ta0 1.938933 1_555
O9 Te4 1.878526 1_565
O9 Ta1 1.938933 1_555
O10 Te7 1.878526 1_655
O10 Ta2 1.938933 1_556
O11 Te6 1.878526 1_455
O11 Ta3 1.938933 1_554
O12 Ta10 1.882086 1_545
O12 Ta8 2.077357 1_555
O13 Ta11 1.882086 1_565
O13 Ta9 2.077357 1_555
O14 Ta8 1.882086 1_655
O14 Ta10 2.077357 1_555
O15 Ta9 1.882086 1_455
O15 Ta11 2.077357 1_555
O16 Te10 1.860900 1_555
O16 Ta0 2.010081 1_565
O17 Te11 1.860900 1_555
O17 Ta1 2.010081 1_545
O18 Te8 1.860900 1_555
O18 Ta2 2.010081 1_455
O19 Te9 1.860900 1_555
O19 Ta3 2.010081 1_655
O20 Te0 1.891727 1_555
O20 Ta4 2.043044 1_555
O21 Te1 1.891727 1_555
O21 Ta5 2.043044 1_555
O22 Te2 1.891727 1_555
O22 Ta6 2.043044 1_555
O23 Te3 1.891727 1_555
O23 Ta7 2.043044 1_555
O24 Te3 1.878767 1_555
O24 Ta0 1.934454 1_565
O25 Te2 1.878767 1_555
O25 Ta1 1.934454 1_545
O26 Te1 1.878767 1_555
O26 Ta2 1.934454 1_456
O27 Te0 1.878767 1_555
O27 Ta3 1.934454 1_654
O28 Ta2 1.942515 1_555
O28 Ta4 2.105775 1_555
O29 Ta3 1.942515 1_555
O29 Ta5 2.105775 1_555
O30 Ta0 1.942515 1_555
O30 Ta6 2.105775 1_555
O31 Ta1 1.942515 1_555
O31 Ta7 2.105775 1_555
O32 Te4 1.906473 1_555
O32 Ta8 2.007840 1_555
O33 Te5 1.906473 1_555
O33 Ta9 2.007840 1_555
O34 Te6 1.906473 1_555
O34 Ta10 2.007840 1_555
O35 Te7 1.906473 1_555
O35 Ta11 2.007840 1_555
O36 Te12 1.870003 1_555
O36 Ta5 1.931877 1_554
O37 Te13 1.870003 1_555
O37 Ta4 1.931877 1_556
O38 Te14 1.870003 1_555
O38 Ta7 1.931877 1_555
O39 Te15 1.870003 1_555
O39 Ta6 1.931877 1_555
O40 Te2 1.890339 1_555
O40 Ta8 1.953898 1_555
O41 Te3 1.890339 1_555
O41 Ta9 1.953898 1_555
O42 Te0 1.890339 1_555
O42 Ta10 1.953898 1_555
O43 Te1 1.890339 1_555
O43 Ta11 1.953898 1_555
O44 Te12 1.890866 1_555
O44 Ta4 2.053328 1_555
O45 Te13 1.890866 1_555
O45 Ta5 2.053328 1_555
O46 Te14 1.890866 1_555
O46 Ta6 2.053328 1_555
O47 Te15 1.890866 1_555
O47 Ta7 2.053328 1_555
O48 Te12 1.889400 1_555
O48 Ta8 1.962653 1_555
O49 Te13 1.889400 1_555
O49 Ta9 1.962653 1_555
O50 Te14 1.889400 1_555
O50 Ta10 1.962653 1_555
O51 Te15 1.889400 1_555
O51 Ta11 1.962653 1_555
O52 Te8 1.874543 1_555
O52 Ta5 1.925614 1_554
O53 Te9 1.874543 1_555
O53 Ta4 1.925614 1_556
O54 Te10 1.874543 1_555
O54 Ta7 1.925614 1_555
O55 Te11 1.874543 1_555
O55 Ta6 1.925614 1_555
O56 Te4 1.863880 1_655
O56 Ta0 2.020912 1_555
O57 Te5 1.863880 1_455
O57 Ta1 2.020912 1_555
O58 Te6 1.863880 1_545
O58 Ta2 2.020912 1_555
O59 Te7 1.863880 1_565
O59 Ta3 2.020912 1_555
