# generated using pymatgen
data_SrTl2Pd
_symmetry_space_group_name_H-M   'P 1'
_cell_length_a   6.05354017
_cell_length_b   6.05354017
_cell_length_c   8.26602467
_cell_angle_alpha   90.00000000
_cell_angle_beta   90.00000000
_cell_angle_gamma   136.70334290
_symmetry_Int_Tables_number   1
_chemical_formula_structural   SrTl2Pd
_chemical_formula_sum   'Sr2 Tl4 Pd2'
_cell_volume   207.72930458
_cell_formula_units_Z   2
loop_
 _symmetry_equiv_pos_site_id
 _symmetry_equiv_pos_as_xyz
  1  'x, y, z'
loop_
 _atom_site_type_symbol
 _atom_site_label
 _atom_site_symmetry_multiplicity
 _atom_site_fract_x
 _atom_site_fract_y
 _atom_site_fract_z
 _atom_site_occupancy
  Sr  Sr0  1  0.56451971  0.43548029  0.75000000  1
  Sr  Sr1  1  0.43548029  0.56451971  0.25000000  1
  Tl  Tl0  1  0.85283149  0.14716851  0.94867897  1
  Tl  Tl1  1  0.14716851  0.85283149  0.05132103  1
  Tl  Tl2  1  0.85283149  0.14716851  0.55132103  1
  Tl  Tl3  1  0.14716851  0.85283149  0.44867897  1
  Pd  Pd0  1  0.71880275  0.28119725  0.25000000  1
  Pd  Pd1  1  0.28119725  0.71880275  0.75000000  1
loop_
_geom_bond_atom_site_label_1
_geom_bond_atom_site_label_2
_geom_bond_distance
_geom_bond_site_symmetry_2
Sr0 Tl3 3.472164 1_655
Sr0 Tl1 3.472164 1_656
Sr0 Tl1 3.472164 1_546
Sr0 Tl3 3.472164 1_545
Sr0 Tl2 3.636381 1_555
Sr0 Tl0 3.636381 1_555
Sr0 Tl2 3.654989 1_565
Sr0 Tl0 3.654989 1_565
Sr0 Tl2 3.654989 1_455
Sr0 Tl0 3.654989 1_455
Sr1 Tl0 3.472164 1_564
Sr1 Tl2 3.472164 1_565
Sr1 Tl0 3.472164 1_454
Sr1 Tl2 3.472164 1_455
Sr1 Tl3 3.636381 1_555
Sr1 Tl1 3.636381 1_555
Sr1 Tl1 3.654989 1_545
Sr1 Tl3 3.654989 1_545
Sr1 Tl3 3.654989 1_655
Sr1 Tl1 3.654989 1_655
Tl0 Tl2 3.284571 1_555
Tl0 Tl1 3.326148 1_546
Tl0 Tl1 3.326148 1_656
Tl0 Tl1 3.419149 1_646
Tl1 Tl3 3.284571 1_555
Tl2 Tl3 3.326148 1_545
Tl2 Tl3 3.326148 1_655
Tl2 Tl3 3.419149 1_645
Pd0 Tl1 2.886886 1_545
Pd0 Tl1 2.886886 1_655
Pd0 Tl3 2.886886 1_655
Pd0 Tl3 2.886886 1_545
Pd0 Tl2 2.911788 1_555
Pd0 Tl0 2.911788 1_554
Pd0 Sr1 3.188260 1_555
Pd0 Sr1 3.306432 1_545
Pd0 Sr1 3.306432 1_655
Pd1 Tl2 2.886886 1_565
Pd1 Tl0 2.886886 1_455
Pd1 Tl2 2.886886 1_455
Pd1 Tl0 2.886886 1_565
Pd1 Tl3 2.911788 1_555
Pd1 Tl1 2.911788 1_556
Pd1 Sr0 3.188260 1_555
Pd1 Sr0 3.306432 1_455
Pd1 Sr0 3.306432 1_565
