# generated using pymatgen
data_LaMg6Al
_symmetry_space_group_name_H-M   'P 1'
_cell_length_a   5.06508600
_cell_length_b   6.69841900
_cell_length_c   11.57165500
_cell_angle_alpha   90.00000000
_cell_angle_beta   90.00000000
_cell_angle_gamma   90.00000000
_symmetry_Int_Tables_number   1
_chemical_formula_structural   LaMg6Al
_chemical_formula_sum   'La2 Mg12 Al2'
_cell_volume   392.60390117
_cell_formula_units_Z   2
loop_
 _symmetry_equiv_pos_site_id
 _symmetry_equiv_pos_as_xyz
  1  'x, y, z'
loop_
 _atom_site_type_symbol
 _atom_site_label
 _atom_site_symmetry_multiplicity
 _atom_site_fract_x
 _atom_site_fract_y
 _atom_site_fract_z
 _atom_site_occupancy
  La  La0  1  0.50000000  0.50000000  0.17362100  1
  La  La1  1  0.50000000  0.00000000  0.67362100  1
  Mg  Mg0  1  0.00000000  0.23678900  0.07838600  1
  Mg  Mg1  1  0.00000000  0.76321100  0.07838600  1
  Mg  Mg2  1  0.00000000  0.50000000  0.83267600  1
  Mg  Mg3  1  0.50000000  0.24093900  0.91917200  1
  Mg  Mg4  1  0.50000000  0.75906100  0.91917200  1
  Mg  Mg5  1  0.50000000  0.50000000  0.66365200  1
  Mg  Mg6  1  0.00000000  0.73678900  0.57838600  1
  Mg  Mg7  1  0.00000000  0.26321100  0.57838600  1
  Mg  Mg8  1  0.00000000  0.00000000  0.33267600  1
  Mg  Mg9  1  0.50000000  0.74093900  0.41917200  1
  Mg  Mg10  1  0.50000000  0.25906100  0.41917200  1
  Mg  Mg11  1  0.50000000  0.00000000  0.16365200  1
  Al  Al0  1  0.00000000  0.50000000  0.33493500  1
  Al  Al1  1  0.00000000  0.00000000  0.83493500  1
loop_
_geom_bond_atom_site_label_1
_geom_bond_atom_site_label_2
_geom_bond_distance
_geom_bond_site_symmetry_2
La0 Mg9 3.267788 1_555
La0 Mg10 3.267788 1_555
La0 Mg0 3.276698 1_555
La0 Mg0 3.276698 1_655
La0 Mg1 3.276698 1_555
La0 Mg1 3.276698 1_655
La0 Mg11 3.351196 1_555
La0 Mg11 3.351196 1_565
La0 Mg3 3.417708 1_554
La0 Mg4 3.417708 1_554
La1 Mg3 3.267788 1_555
La1 Mg4 3.267788 1_545
La1 Mg7 3.276698 1_655
La1 Mg6 3.276698 1_545
La1 Mg6 3.276698 1_645
La1 Mg7 3.276698 1_555
La1 Mg5 3.351196 1_545
La1 Mg5 3.351196 1_555
La1 Mg9 3.417708 1_545
La1 Mg10 3.417708 1_555
Mg0 Mg3 3.131912 1_454
Mg0 Mg3 3.131912 1_554
Mg0 Mg11 3.146910 1_455
Mg0 Mg11 3.146910 1_555
Mg0 Mg1 3.172224 1_545
Mg0 Mg8 3.342811 1_555
Mg0 Mg2 3.345550 1_554
Mg1 Mg4 3.131912 1_554
Mg1 Mg4 3.131912 1_454
Mg1 Mg11 3.146910 1_565
Mg1 Mg11 3.146910 1_465
Mg1 Mg8 3.342811 1_565
Mg1 Mg2 3.345550 1_554
Mg2 Mg5 3.199886 1_455
Mg2 Mg5 3.199886 1_555
Mg2 Mg3 3.229062 1_455
Mg2 Mg4 3.229062 1_455
Mg2 Mg4 3.229062 1_555
Mg2 Mg3 3.229062 1_555
Mg2 Mg7 3.342811 1_555
Mg2 Mg6 3.342811 1_555
Mg3 Mg4 3.227821 1_545
Mg3 Mg5 3.428391 1_555
Mg3 Mg4 3.470598 1_555
Mg4 Mg5 3.428391 1_555
Mg5 Mg6 3.146910 1_655
Mg5 Mg7 3.146910 1_655
Mg5 Mg6 3.146910 1_555
Mg5 Mg7 3.146910 1_555
Mg5 Mg9 3.257018 1_555
Mg6 Mg9 3.131912 1_455
Mg6 Mg9 3.131912 1_555
Mg6 Mg7 3.172224 1_555
Mg6 Mg8 3.345550 1_565
Mg7 Mg8 3.345550 1_555
Mg8 Mg9 3.229062 1_545
Mg8 Mg9 3.229062 1_445
Mg10 Mg7 3.131912 1_655
Mg10 Mg7 3.131912 1_555
Mg10 Mg9 3.227821 1_555
Mg10 Mg8 3.229062 1_555
Mg10 Mg8 3.229062 1_655
Mg10 Mg5 3.257018 1_555
Mg10 Mg11 3.428391 1_555
Mg10 Mg9 3.470598 1_545
Mg11 Mg8 3.199886 1_555
Mg11 Mg8 3.199886 1_655
Mg11 Mg3 3.257018 1_554
Mg11 Mg4 3.257018 1_544
Mg11 Mg9 3.428391 1_545
Al0 La0 3.146145 1_455
Al0 La0 3.146145 1_555
Al0 Mg10 3.157315 1_455
Al0 Mg9 3.157315 1_455
Al0 Mg9 3.157315 1_555
Al0 Mg10 3.157315 1_555
Al0 Mg7 3.232952 1_555
Al0 Mg6 3.232952 1_555
Al0 Mg8 3.349312 1_555
Al0 Mg8 3.349312 1_565
Al1 La1 3.146145 1_455
Al1 La1 3.146145 1_555
Al1 Mg3 3.157315 1_555
Al1 Mg4 3.157315 1_545
Al1 Mg3 3.157315 1_455
Al1 Mg4 3.157315 1_445
Al1 Mg0 3.232952 1_556
Al1 Mg1 3.232952 1_546
Al1 Mg2 3.349312 1_555
Al1 Mg2 3.349312 1_545
