# generated using pymatgen
data_Nd2Al3Ga
_symmetry_space_group_name_H-M   'P 1'
_cell_length_a   5.68950457
_cell_length_b   5.68950457
_cell_length_c   5.68950508
_cell_angle_alpha   59.72576546
_cell_angle_beta   59.72576546
_cell_angle_gamma   59.72577711
_symmetry_Int_Tables_number   1
_chemical_formula_structural   Nd2Al3Ga
_chemical_formula_sum   'Nd2 Al3 Ga1'
_cell_volume   129.41812140
_cell_formula_units_Z   1
loop_
 _symmetry_equiv_pos_site_id
 _symmetry_equiv_pos_as_xyz
  1  'x, y, z'
loop_
 _atom_site_type_symbol
 _atom_site_label
 _atom_site_symmetry_multiplicity
 _atom_site_fract_x
 _atom_site_fract_y
 _atom_site_fract_z
 _atom_site_occupancy
  Nd  Nd0  1  0.12468000  0.12468000  0.12468000  1
  Nd  Nd1  1  0.87532000  0.87532000  0.87532000  1
  Al  Al0  1  0.50000000  0.00000000  0.50000000  1
  Al  Al1  1  0.00000000  0.50000000  0.50000000  1
  Al  Al2  1  0.50000000  0.50000000  0.00000000  1
  Ga  Ga0  1  0.50000000  0.50000000  0.50000000  1
loop_
_geom_bond_atom_site_label_1
_geom_bond_atom_site_label_2
_geom_bond_distance
_geom_bond_site_symmetry_2
Al0 Al2 2.832953 1_546
Al0 Al2 2.832953 1_555
Al0 Al1 2.832953 1_645
Al0 Al1 2.832953 1_555
Al0 Ga0 2.844752 1_545
Al0 Ga0 2.844752 1_555
Al0 Nd1 3.325256 1_445
Al0 Nd0 3.325256 1_655
Al0 Nd1 3.325257 1_544
Al0 Nd0 3.325257 1_556
Al0 Nd0 3.341547 1_555
Al0 Nd1 3.341547 1_545
Al1 Al2 2.832953 1_555
Al1 Al2 2.832953 1_456
Al1 Ga0 2.844752 1_455
Al1 Ga0 2.844752 1_555
Al1 Nd1 3.325256 1_445
Al1 Nd0 3.325256 1_565
Al1 Nd1 3.325257 1_454
Al1 Nd0 3.325257 1_556
Al1 Nd0 3.341547 1_555
Al1 Nd1 3.341547 1_455
Al2 Ga0 2.844753 1_555
Al2 Ga0 2.844753 1_554
Al2 Nd1 3.325257 1_454
Al2 Nd1 3.325257 1_544
Al2 Nd0 3.325257 1_565
Al2 Nd0 3.325257 1_655
Al2 Nd0 3.341546 1_555
Al2 Nd1 3.341546 1_554
Ga0 Nd0 3.323347 1_556
Ga0 Nd1 3.323347 1_554
Ga0 Nd0 3.323347 1_565
Ga0 Nd1 3.323347 1_545
Ga0 Nd0 3.323347 1_655
Ga0 Nd1 3.323347 1_455
