# generated using pymatgen
data_YWO3
_symmetry_space_group_name_H-M   'P 1'
_cell_length_a   6.21515378
_cell_length_b   6.21515378
_cell_length_c   12.63184900
_cell_angle_alpha   90.00000000
_cell_angle_beta   90.00000000
_cell_angle_gamma   119.99999767
_symmetry_Int_Tables_number   1
_chemical_formula_structural   YWO3
_chemical_formula_sum   'Y6 W6 O18'
_cell_volume   422.57259175
_cell_formula_units_Z   6
loop_
 _symmetry_equiv_pos_site_id
 _symmetry_equiv_pos_as_xyz
  1  'x, y, z'
loop_
 _atom_site_type_symbol
 _atom_site_label
 _atom_site_symmetry_multiplicity
 _atom_site_fract_x
 _atom_site_fract_y
 _atom_site_fract_z
 _atom_site_occupancy
  Y  Y0  1  0.66666700  0.33333300  0.23623000  1
  Y  Y1  1  0.33333300  0.66666700  0.73623000  1
  Y  Y2  1  0.66666700  0.33333300  0.73623000  1
  Y  Y3  1  0.33333300  0.66666700  0.23623000  1
  Y  Y4  1  0.00000000  0.00000000  0.77028200  1
  Y  Y5  1  0.00000000  0.00000000  0.27028200  1
  W  W0  1  0.66559300  0.00000000  0.50035600  1
  W  W1  1  0.66559300  0.66559300  0.00035600  1
  W  W2  1  0.00000000  0.33440700  0.00035600  1
  W  W3  1  0.00000000  0.66559300  0.50035600  1
  W  W4  1  0.33440700  0.33440700  0.50035600  1
  W  W5  1  0.33440700  0.00000000  0.00035600  1
  O  O0  1  0.66666700  0.33333300  0.02719300  1
  O  O1  1  0.33333300  0.66666700  0.52719300  1
  O  O2  1  0.66666700  0.33333300  0.52719300  1
  O  O3  1  0.33333300  0.66666700  0.02719300  1
  O  O4  1  0.00000000  0.00000000  0.97270000  1
  O  O5  1  0.00000000  0.00000000  0.47270000  1
  O  O6  1  0.35734100  0.00000000  0.83190600  1
  O  O7  1  0.35734100  0.35734100  0.33190600  1
  O  O8  1  0.00000000  0.64265900  0.33190600  1
  O  O9  1  0.00000000  0.35734100  0.83190600  1
  O  O10  1  0.64265900  0.64265900  0.83190600  1
  O  O11  1  0.64265900  0.00000000  0.33190600  1
  O  O12  1  0.30866400  0.00000000  0.16946200  1
  O  O13  1  0.30866400  0.30866400  0.66946200  1
  O  O14  1  0.00000000  0.69133600  0.66946200  1
  O  O15  1  0.00000000  0.30866400  0.16946200  1
  O  O16  1  0.69133600  0.69133600  0.16946200  1
  O  O17  1  0.69133600  0.00000000  0.66946200  1
loop_
_geom_bond_atom_site_label_1
_geom_bond_atom_site_label_2
_geom_bond_distance
_geom_bond_site_symmetry_2
O0 W2 2.095983 1_655
O0 W5 2.095986 1_555
O0 W1 2.095989 1_555
O0 Y0 2.640524 1_555
O1 W3 2.095983 1_555
O1 W0 2.095986 1_565
O1 W4 2.095989 1_555
O1 Y1 2.640524 1_555
O2 W0 2.095983 1_555
O2 W3 2.095986 1_655
O2 W4 2.095989 1_555
O2 Y2 2.640524 1_555
O3 W5 2.095983 1_565
O3 W2 2.095986 1_555
O3 W1 2.095989 1_555
O3 Y3 2.640524 1_555
O4 W2 2.107546 1_556
O4 W5 2.107546 1_556
O4 W1 2.107546 1_446
O4 Y4 2.556914 1_555
O5 W3 2.107546 1_545
O5 W0 2.107546 1_455
O5 W4 2.107546 1_555
O5 Y5 2.556914 1_555
O6 W5 2.132604 1_556
O6 Y1 2.337899 1_545
O6 Y2 2.337902 1_555
O6 Y4 2.353396 1_555
O7 W4 2.132604 1_555
O7 Y3 2.337904 1_555
O7 Y0 2.337904 1_555
O7 Y5 2.353396 1_555
O8 W3 2.132604 1_555
O8 Y3 2.337899 1_555
O8 Y0 2.337902 1_455
O8 Y5 2.353396 1_565
O9 W2 2.132604 1_556
O9 Y2 2.337899 1_455
O9 Y1 2.337902 1_555
O9 Y4 2.353396 1_555
O10 W1 2.132604 1_556
O10 Y2 2.337904 1_555
O10 Y1 2.337904 1_555
O10 Y4 2.353396 1_665
O11 W0 2.132604 1_555
O11 Y0 2.337899 1_555
O11 Y3 2.337902 1_545
O11 Y5 2.353396 1_655
O12 W5 2.142105 1_555
O12 Y5 2.302639 1_555
O12 Y3 2.311814 1_545
O12 Y0 2.311817 1_555
O13 W4 2.142105 1_555
O13 Y4 2.302639 1_555
O13 Y1 2.311819 1_555
O13 Y2 2.311819 1_555
O14 W3 2.142105 1_555
O14 Y4 2.302639 1_565
O14 Y1 2.311814 1_555
O14 Y2 2.311817 1_455
O15 W2 2.142105 1_555
O15 Y5 2.302639 1_555
O15 Y0 2.311814 1_455
O15 Y3 2.311817 1_555
O16 W1 2.142105 1_555
O16 Y5 2.302639 1_665
O16 Y3 2.311819 1_555
O16 Y0 2.311819 1_555
O17 W0 2.142105 1_555
O17 Y4 2.302639 1_655
O17 Y2 2.311814 1_555
O17 Y1 2.311817 1_545
