# generated using pymatgen
data_Mo3(SeS)2
_symmetry_space_group_name_H-M   'P 1'
_cell_length_a   6.53865400
_cell_length_b   6.60924352
_cell_length_c   6.60983169
_cell_angle_alpha   91.67843397
_cell_angle_beta   91.62315922
_cell_angle_gamma   91.65694468
_symmetry_Int_Tables_number   1
_chemical_formula_structural   Mo3(SeS)2
_chemical_formula_sum   'Mo6 Se4 S4'
_cell_volume   285.28393569
_cell_formula_units_Z   2
loop_
 _symmetry_equiv_pos_site_id
 _symmetry_equiv_pos_as_xyz
  1  'x, y, z'
loop_
 _atom_site_type_symbol
 _atom_site_label
 _atom_site_symmetry_multiplicity
 _atom_site_fract_x
 _atom_site_fract_y
 _atom_site_fract_z
 _atom_site_occupancy
  Mo  Mo0  1  0.59343400  0.45458400  0.77978900  1
  Mo  Mo1  1  0.44792900  0.77945800  0.59028600  1
  Mo  Mo2  1  0.78815900  0.59831800  0.44845400  1
  Mo  Mo3  1  0.40867900  0.55102000  0.21366400  1
  Mo  Mo4  1  0.54721500  0.21386800  0.41130300  1
  Mo  Mo5  1  0.20986400  0.41085500  0.54871200  1
  Se  Se0  1  0.75117500  0.37772800  0.12726500  1
  Se  Se1  1  0.37366800  0.12763400  0.75013000  1
  Se  Se2  1  0.79201300  0.79357700  0.78786300  1
  Se  Se3  1  0.20776600  0.21163400  0.21142900  1
  S  S0  1  0.86232300  0.27771900  0.60690400  1
  S  S1  1  0.27201400  0.60984700  0.86432600  1
  S  S2  1  0.61048100  0.86605900  0.27452600  1
  S  S3  1  0.13528000  0.72769800  0.38534900  1
loop_
_geom_bond_atom_site_label_1
_geom_bond_atom_site_label_2
_geom_bond_distance
_geom_bond_site_symmetry_2
Mo0 S0 2.432669 1_555
Mo0 S1 2.437184 1_555
Mo0 Se2 2.555271 1_555
Mo0 Se1 2.559772 1_555
Mo0 Se0 2.561518 1_556
Mo1 S3 2.430365 1_555
Mo1 S2 2.444144 1_555
Mo1 S1 2.454209 1_555
Mo1 Se2 2.567156 1_555
Mo1 Se1 2.568802 1_565
Mo2 S2 2.442364 1_555
Mo2 S0 2.445918 1_555
Mo2 S3 2.453371 1_655
Mo2 Se0 2.541733 1_555
Mo2 Se2 2.554288 1_555
Mo3 S2 2.449562 1_555
Mo3 S3 2.450528 1_555
Mo3 S1 2.497453 1_554
Mo3 Se3 2.565932 1_555
Mo3 Se0 2.614493 1_555
Mo4 S0 2.421089 1_555
Mo4 S2 2.495432 1_545
Mo4 Se3 2.550061 1_555
Mo4 Se0 2.579466 1_555
Mo4 Se1 2.609527 1_555
Mo5 S3 2.439409 1_555
Mo5 S1 2.450968 1_555
Mo5 S0 2.457633 1_455
Mo5 Se3 2.555250 1_555
Mo5 Se1 2.569961 1_555
