# generated using pymatgen
data_ZrTiZn2
_symmetry_space_group_name_H-M   'P 1'
_cell_length_a   11.11083306
_cell_length_b   11.11083306
_cell_length_c   11.11083306
_cell_angle_alpha   120.42115103
_cell_angle_beta   119.03724661
_cell_angle_gamma   90.47382901
_symmetry_Int_Tables_number   1
_chemical_formula_structural   ZrTiZn2
_chemical_formula_sum   'Zr1 Ti1 Zn2'
_cell_volume   973.65345410
_cell_formula_units_Z   1
loop_
 _symmetry_equiv_pos_site_id
 _symmetry_equiv_pos_as_xyz
  1  'x, y, z'
loop_
 _atom_site_type_symbol
 _atom_site_label
 _atom_site_symmetry_multiplicity
 _atom_site_fract_x
 _atom_site_fract_y
 _atom_site_fract_z
 _atom_site_occupancy
  Zr  Zr0  1  0.00000000  0.50000000  0.50000000  1
  Ti  Ti0  1  0.00000000  0.00000000  0.00000000  1
  Zn  Zn0  1  0.00000000  0.24554600  0.24554600  1
  Zn  Zn1  1  0.00000000  0.75445400  0.75445400  1
loop_
_geom_bond_atom_site_label_1
_geom_bond_atom_site_label_2
_geom_bond_distance
_geom_bond_site_symmetry_2
Ti0 Zn0 2.710835 1_555
Ti0 Zn1 2.710835 1_544
Zn0 Zr0 2.809180 1_555
Zn1 Zr0 2.809180 1_555
