# generated using pymatgen
data_CsZrOF5
_symmetry_space_group_name_H-M   'P 1'
_cell_length_a   5.32585400
_cell_length_b   7.22488933
_cell_length_c   8.43208506
_cell_angle_alpha   71.54805346
_cell_angle_beta   79.92621351
_cell_angle_gamma   84.32116883
_symmetry_Int_Tables_number   1
_chemical_formula_structural   CsZrOF5
_chemical_formula_sum   'Cs2 Zr2 O2 F10'
_cell_volume   302.70018072
_cell_formula_units_Z   2
loop_
 _symmetry_equiv_pos_site_id
 _symmetry_equiv_pos_as_xyz
  1  'x, y, z'
loop_
 _atom_site_type_symbol
 _atom_site_label
 _atom_site_symmetry_multiplicity
 _atom_site_fract_x
 _atom_site_fract_y
 _atom_site_fract_z
 _atom_site_occupancy
  Cs  Cs0  1  0.34761800  0.63944400  0.72752600  1
  Cs  Cs1  1  0.65238200  0.36055600  0.27247400  1
  Zr  Zr0  1  0.77550000  0.08363400  0.84689800  1
  Zr  Zr1  1  0.22450000  0.91636600  0.15310200  1
  O  O0  1  0.00483000  0.25890600  0.60003500  1
  O  O1  1  0.99517000  0.74109400  0.39996500  1
  F  F0  1  0.58148500  0.26326200  0.65466600  1
  F  F1  1  0.41851500  0.73673800  0.34533400  1
  F  F2  1  0.80854000  0.90327800  0.70176400  1
  F  F3  1  0.19146000  0.09672200  0.29823600  1
  F  F4  1  0.14782800  0.96410000  0.88351200  1
  F  F5  1  0.85217200  0.03590000  0.11648800  1
  F  F6  1  0.89865200  0.35156500  0.83908700  1
  F  F7  1  0.10134800  0.64843500  0.16091300  1
  F  F8  1  0.57096400  0.82683700  0.01328000  1
  F  F9  1  0.42903600  0.17316300  0.98672000  1
loop_
_geom_bond_atom_site_label_1
_geom_bond_atom_site_label_2
_geom_bond_distance
_geom_bond_site_symmetry_2
Cs0 F1 3.035649 1_555
Cs0 F4 3.055070 1_555
Cs0 F0 3.071643 1_555
Cs0 F6 3.144388 1_455
Cs0 F2 3.191257 1_555
Cs0 F2 3.285818 1_455
Cs0 F9 3.419845 1_555
Cs0 O1 3.456651 1_455
Cs0 F6 3.513223 1_555
Cs0 F8 3.527049 1_556
Cs0 F7 3.679058 1_556
Cs1 F0 3.035649 1_555
Cs1 F5 3.055070 1_555
Cs1 F1 3.071643 1_555
Cs1 F7 3.144388 1_655
Cs1 F3 3.191257 1_555
Cs1 F3 3.285818 1_655
Cs1 F8 3.419845 1_555
Cs1 O0 3.456651 1_655
Cs1 F7 3.513223 1_555
Cs1 F9 3.527049 1_554
Cs1 F6 3.679058 1_554
O0 Zr0 2.275160 1_455
O1 Zr1 2.275160 1_655
F0 Zr0 2.090036 1_555
F1 Zr1 2.090036 1_555
F2 Zr0 2.028616 1_565
F3 Zr1 2.028616 1_545
F4 Zr0 2.116548 1_465
F4 Zr1 2.292104 1_556
F5 Zr1 2.116548 1_645
F5 Zr0 2.292104 1_554
F6 Zr0 2.082593 1_555
F7 Zr1 2.082593 1_555
F8 Zr1 2.167654 1_555
F8 Zr0 2.194261 1_564
F9 Zr0 2.167654 1_555
F9 Zr1 2.194261 1_546
