# generated using pymatgen
data_MgGa2
_symmetry_space_group_name_H-M   'P 1'
_cell_length_a   6.12618043
_cell_length_b   6.12618043
_cell_length_c   29.51082000
_cell_angle_alpha   90.00000000
_cell_angle_beta   90.00000000
_cell_angle_gamma   120.00000460
_symmetry_Int_Tables_number   1
_chemical_formula_structural   MgGa2
_chemical_formula_sum   'Mg16 Ga32'
_cell_volume   959.16087541
_cell_formula_units_Z   16
loop_
 _symmetry_equiv_pos_site_id
 _symmetry_equiv_pos_as_xyz
  1  'x, y, z'
loop_
 _atom_site_type_symbol
 _atom_site_label
 _atom_site_symmetry_multiplicity
 _atom_site_fract_x
 _atom_site_fract_y
 _atom_site_fract_z
 _atom_site_occupancy
  Mg  Mg0_0  1  0.00000000  0.00000000  0.08325000  1
  Mg  Mg0_1  1  0.00000000  0.00000000  0.58325000  1
  Mg  Mg0_2  1  0.00000000  0.50000000  0.08325000  1
  Mg  Mg0_3  1  0.00000000  0.50000000  0.58325000  1
  Mg  Mg0_4  1  0.50000000  0.00000000  0.08325000  1
  Mg  Mg0_5  1  0.50000000  0.00000000  0.58325000  1
  Mg  Mg0_6  1  0.50000000  0.50000000  0.08325000  1
  Mg  Mg0_7  1  0.50000000  0.50000000  0.58325000  1
  Mg  Mg1_0  1  0.00000000  0.00000000  0.41675000  1
  Mg  Mg1_1  1  0.00000000  0.00000000  0.91675000  1
  Mg  Mg1_2  1  0.00000000  0.50000000  0.41675000  1
  Mg  Mg1_3  1  0.00000000  0.50000000  0.91675000  1
  Mg  Mg1_4  1  0.50000000  0.00000000  0.41675000  1
  Mg  Mg1_5  1  0.50000000  0.00000000  0.91675000  1
  Mg  Mg1_6  1  0.50000000  0.50000000  0.41675000  1
  Mg  Mg1_7  1  0.50000000  0.50000000  0.91675000  1
  Ga  Ga0_0  1  0.00000000  0.00000000  0.25000000  1
  Ga  Ga0_1  1  0.00000000  0.00000000  0.75000000  1
  Ga  Ga0_2  1  0.00000000  0.50000000  0.25000000  1
  Ga  Ga0_3  1  0.00000000  0.50000000  0.75000000  1
  Ga  Ga0_4  1  0.50000000  0.00000000  0.25000000  1
  Ga  Ga0_5  1  0.50000000  0.00000000  0.75000000  1
  Ga  Ga0_6  1  0.50000000  0.50000000  0.25000000  1
  Ga  Ga0_7  1  0.50000000  0.50000000  0.75000000  1
  Ga  Ga1_0  1  0.33333350  0.16666650  0.16481900  1
  Ga  Ga1_1  1  0.33333350  0.16666650  0.66481900  1
  Ga  Ga1_2  1  0.33333350  0.66666650  0.16481900  1
  Ga  Ga1_3  1  0.33333350  0.66666650  0.66481900  1
  Ga  Ga1_4  1  0.83333350  0.16666650  0.16481900  1
  Ga  Ga1_5  1  0.83333350  0.16666650  0.66481900  1
  Ga  Ga1_6  1  0.83333350  0.66666650  0.16481900  1
  Ga  Ga1_7  1  0.83333350  0.66666650  0.66481900  1
  Ga  Ga2_0  1  0.33333350  0.16666650  0.00000000  1
  Ga  Ga2_1  1  0.33333350  0.16666650  0.50000000  1
  Ga  Ga2_2  1  0.33333350  0.66666650  0.00000000  1
  Ga  Ga2_3  1  0.33333350  0.66666650  0.50000000  1
  Ga  Ga2_4  1  0.83333350  0.16666650  0.00000000  1
  Ga  Ga2_5  1  0.83333350  0.16666650  0.50000000  1
  Ga  Ga2_6  1  0.83333350  0.66666650  0.00000000  1
  Ga  Ga2_7  1  0.83333350  0.66666650  0.50000000  1
  Ga  Ga3_0  1  0.33333350  0.16666650  0.33518100  1
  Ga  Ga3_1  1  0.33333350  0.16666650  0.83518100  1
  Ga  Ga3_2  1  0.33333350  0.66666650  0.33518100  1
  Ga  Ga3_3  1  0.33333350  0.66666650  0.83518100  1
  Ga  Ga3_4  1  0.83333350  0.16666650  0.33518100  1
  Ga  Ga3_5  1  0.83333350  0.16666650  0.83518100  1
  Ga  Ga3_6  1  0.83333350  0.66666650  0.33518100  1
  Ga  Ga3_7  1  0.83333350  0.66666650  0.83518100  1
loop_
_geom_bond_atom_site_label_1
_geom_bond_atom_site_label_2
_geom_bond_distance
_geom_bond_site_symmetry_2
Mg0_0 Mg0_6 3.063090 1_445
Mg0_0 Mg0_6 3.063090 1_555
Mg0_0 Mg0_4 3.063090 1_455
Mg0_0 Mg0_4 3.063090 1_555
Mg0_0 Mg0_2 3.063090 1_555
Mg0_0 Mg0_2 3.063090 1_545
Mg0_1 Mg0_7 3.063090 1_555
Mg0_1 Mg0_7 3.063090 1_445
Mg0_1 Mg0_3 3.063090 1_545
Mg0_1 Mg0_3 3.063090 1_555
Mg0_1 Mg0_5 3.063090 1_455
Mg0_1 Mg0_5 3.063090 1_555
Mg0_2 Mg0_4 3.063090 1_565
Mg0_2 Mg0_4 3.063090 1_455
Mg0_2 Mg0_6 3.063090 1_455
Mg0_2 Mg0_6 3.063090 1_555
Mg0_3 Mg0_5 3.063090 1_455
Mg0_3 Mg0_5 3.063090 1_565
Mg0_3 Mg0_7 3.063090 1_455
Mg0_3 Mg0_7 3.063090 1_555
Mg0_4 Mg0_6 3.063090 1_555
Mg0_4 Mg0_6 3.063090 1_545
Mg0_5 Mg0_7 3.063090 1_545
Mg0_5 Mg0_7 3.063090 1_555
Mg1_0 Mg1_6 3.063090 1_555
Mg1_0 Mg1_6 3.063090 1_445
Mg1_0 Mg1_2 3.063090 1_545
Mg1_0 Mg1_2 3.063090 1_555
Mg1_0 Mg1_4 3.063090 1_455
Mg1_0 Mg1_4 3.063090 1_555
Mg1_1 Mg1_7 3.063090 1_445
Mg1_1 Mg1_7 3.063090 1_555
Mg1_1 Mg1_5 3.063090 1_555
Mg1_1 Mg1_5 3.063090 1_455
Mg1_1 Mg1_3 3.063090 1_555
Mg1_1 Mg1_3 3.063090 1_545
Mg1_2 Mg1_4 3.063090 1_565
Mg1_2 Mg1_4 3.063090 1_455
Mg1_2 Mg1_6 3.063090 1_455
Mg1_2 Mg1_6 3.063090 1_555
Mg1_3 Mg1_5 3.063090 1_565
Mg1_3 Mg1_5 3.063090 1_455
Mg1_3 Mg1_7 3.063090 1_455
Mg1_3 Mg1_7 3.063090 1_555
Mg1_4 Mg1_6 3.063090 1_545
Mg1_4 Mg1_6 3.063090 1_555
Mg1_5 Mg1_7 3.063090 1_545
Mg1_5 Mg1_7 3.063090 1_555
Ga0_0 Ga0_6 3.063090 1_445
Ga0_0 Ga0_6 3.063090 1_555
Ga0_0 Ga0_4 3.063090 1_455
Ga0_0 Ga0_2 3.063090 1_545
Ga0_0 Ga0_2 3.063090 1_555
Ga0_0 Ga0_4 3.063090 1_555
Ga0_0 Ga1_4 3.073515 1_455
Ga0_0 Ga3_4 3.073515 1_455
Ga0_0 Ga1_0 3.073517 1_555
Ga0_0 Ga1_6 3.073517 1_445
Ga0_0 Ga3_0 3.073517 1_555
Ga0_0 Ga3_6 3.073517 1_445
Ga0_1 Ga0_7 3.063090 1_555
Ga0_1 Ga0_7 3.063090 1_445
Ga0_1 Ga0_5 3.063090 1_555
Ga0_1 Ga0_3 3.063090 1_555
Ga0_1 Ga0_5 3.063090 1_455
Ga0_1 Ga0_3 3.063090 1_545
Ga0_1 Ga3_5 3.073515 1_455
Ga0_1 Ga1_5 3.073515 1_455
Ga0_1 Ga3_7 3.073517 1_445
Ga0_1 Ga3_1 3.073517 1_555
Ga0_1 Ga1_7 3.073517 1_445
Ga0_1 Ga1_1 3.073517 1_555
Ga0_2 Ga0_4 3.063090 1_565
Ga0_2 Ga0_4 3.063090 1_455
Ga0_2 Ga0_6 3.063090 1_555
Ga0_2 Ga0_6 3.063090 1_455
Ga0_2 Ga1_6 3.073515 1_455
Ga0_2 Ga3_6 3.073515 1_455
Ga0_2 Ga1_2 3.073517 1_555
Ga0_2 Ga1_4 3.073517 1_455
Ga0_2 Ga3_2 3.073517 1_555
Ga0_2 Ga3_4 3.073517 1_455
Ga0_3 Ga0_5 3.063090 1_455
Ga0_3 Ga0_5 3.063090 1_565
Ga0_3 Ga0_7 3.063090 1_455
Ga0_3 Ga0_7 3.063090 1_555
Ga0_3 Ga3_7 3.073515 1_455
Ga0_3 Ga1_7 3.073515 1_455
Ga0_3 Ga3_5 3.073517 1_455
Ga0_3 Ga3_3 3.073517 1_555
Ga0_3 Ga1_3 3.073517 1_555
Ga0_3 Ga1_5 3.073517 1_455
Ga0_4 Ga0_6 3.063090 1_545
Ga0_4 Ga0_6 3.063090 1_555
Ga0_4 Ga1_0 3.073515 1_555
Ga0_4 Ga3_0 3.073515 1_555
Ga0_4 Ga1_4 3.073517 1_555
Ga0_4 Ga1_2 3.073517 1_545
Ga0_4 Ga3_4 3.073517 1_555
Ga0_4 Ga3_2 3.073517 1_545
Ga0_5 Ga0_7 3.063090 1_555
Ga0_5 Ga0_7 3.063090 1_545
Ga0_5 Ga3_1 3.073515 1_555
Ga0_5 Ga1_1 3.073515 1_555
Ga0_5 Ga3_5 3.073517 1_555
Ga0_5 Ga3_3 3.073517 1_545
Ga0_5 Ga1_3 3.073517 1_545
Ga0_5 Ga1_5 3.073517 1_555
Ga0_6 Ga1_2 3.073515 1_555
Ga0_6 Ga3_2 3.073515 1_555
Ga0_6 Ga1_0 3.073517 1_555
Ga0_6 Ga1_6 3.073517 1_555
Ga0_6 Ga3_0 3.073517 1_555
Ga0_6 Ga3_6 3.073517 1_555
Ga0_7 Ga3_3 3.073515 1_555
Ga0_7 Ga1_3 3.073515 1_555
Ga0_7 Ga3_7 3.073517 1_555
Ga0_7 Ga3_1 3.073517 1_555
Ga0_7 Ga1_7 3.073517 1_555
Ga0_7 Ga1_1 3.073517 1_555
Ga1_0 Mg0_4 2.986965 1_555
Ga1_0 Mg0_6 2.986966 1_555
Ga1_0 Mg0_0 2.986966 1_555
Ga1_0 Ga1_6 3.063090 1_555
Ga1_0 Ga1_6 3.063090 1_445
Ga1_0 Ga1_4 3.063090 1_455
Ga1_0 Ga1_2 3.063090 1_555
Ga1_0 Ga1_2 3.063090 1_545
Ga1_0 Ga1_4 3.063090 1_555
Ga1_1 Mg0_5 2.986965 1_555
Ga1_1 Mg0_1 2.986966 1_555
Ga1_1 Mg0_7 2.986966 1_555
Ga1_1 Ga1_7 3.063090 1_555
Ga1_1 Ga1_7 3.063090 1_445
Ga1_1 Ga1_5 3.063090 1_455
Ga1_1 Ga1_3 3.063090 1_555
Ga1_1 Ga1_3 3.063090 1_545
Ga1_1 Ga1_5 3.063090 1_555
Ga1_2 Mg0_6 2.986965 1_555
Ga1_2 Mg0_2 2.986966 1_555
Ga1_2 Mg0_4 2.986966 1_565
Ga1_2 Ga1_4 3.063090 1_455
Ga1_2 Ga1_4 3.063090 1_565
Ga1_2 Ga1_6 3.063090 1_455
Ga1_2 Ga1_6 3.063090 1_555
Ga1_3 Mg0_7 2.986965 1_555
Ga1_3 Mg0_3 2.986966 1_555
Ga1_3 Mg0_5 2.986966 1_565
Ga1_3 Ga1_5 3.063090 1_455
Ga1_3 Ga1_5 3.063090 1_565
Ga1_3 Ga1_7 3.063090 1_455
Ga1_3 Ga1_7 3.063090 1_555
Ga1_4 Mg0_0 2.986965 1_655
Ga1_4 Mg0_2 2.986966 1_655
Ga1_4 Mg0_4 2.986966 1_555
Ga1_4 Ga1_6 3.063090 1_545
Ga1_4 Ga1_6 3.063090 1_555
Ga1_5 Mg0_1 2.986965 1_655
Ga1_5 Mg0_3 2.986966 1_655
Ga1_5 Mg0_5 2.986966 1_555
Ga1_5 Ga1_7 3.063090 1_555
Ga1_5 Ga1_7 3.063090 1_545
Ga1_6 Mg0_2 2.986965 1_655
Ga1_6 Mg0_0 2.986966 1_665
Ga1_6 Mg0_6 2.986966 1_555
Ga1_7 Mg0_3 2.986965 1_655
Ga1_7 Mg0_7 2.986966 1_555
Ga1_7 Mg0_1 2.986966 1_665
Ga2_0 Mg0_4 3.027086 1_555
Ga2_0 Mg1_5 3.027086 1_554
Ga2_0 Mg0_6 3.027087 1_555
Ga2_0 Mg0_0 3.027087 1_555
Ga2_0 Mg1_7 3.027087 1_554
Ga2_0 Mg1_1 3.027087 1_554
Ga2_0 Ga2_6 3.063090 1_555
Ga2_0 Ga2_6 3.063090 1_445
Ga2_0 Ga2_2 3.063090 1_555
Ga2_0 Ga2_4 3.063090 1_455
Ga2_0 Ga2_4 3.063090 1_555
Ga2_0 Ga2_2 3.063090 1_545
Ga2_1 Mg1_4 3.027086 1_555
Ga2_1 Mg0_5 3.027086 1_555
Ga2_1 Mg1_0 3.027087 1_555
Ga2_1 Mg1_6 3.027087 1_555
Ga2_1 Mg0_1 3.027087 1_555
Ga2_1 Mg0_7 3.027087 1_555
Ga2_1 Ga2_7 3.063090 1_555
Ga2_1 Ga2_7 3.063090 1_445
Ga2_1 Ga2_3 3.063090 1_555
Ga2_1 Ga2_5 3.063090 1_455
Ga2_1 Ga2_5 3.063090 1_555
Ga2_1 Ga2_3 3.063090 1_545
Ga2_2 Mg0_6 3.027086 1_555
Ga2_2 Mg1_7 3.027086 1_554
Ga2_2 Mg0_2 3.027087 1_555
Ga2_2 Mg0_4 3.027087 1_565
Ga2_2 Mg1_3 3.027087 1_554
Ga2_2 Mg1_5 3.027087 1_564
Ga2_2 Ga2_4 3.063090 1_455
Ga2_2 Ga2_4 3.063090 1_565
Ga2_2 Ga2_6 3.063090 1_455
Ga2_2 Ga2_6 3.063090 1_555
Ga2_3 Mg1_6 3.027086 1_555
Ga2_3 Mg0_7 3.027086 1_555
Ga2_3 Mg1_2 3.027087 1_555
Ga2_3 Mg1_4 3.027087 1_565
Ga2_3 Mg0_3 3.027087 1_555
Ga2_3 Mg0_5 3.027087 1_565
Ga2_3 Ga2_5 3.063090 1_455
Ga2_3 Ga2_5 3.063090 1_565
Ga2_3 Ga2_7 3.063090 1_455
Ga2_3 Ga2_7 3.063090 1_555
Ga2_4 Mg0_0 3.027086 1_655
Ga2_4 Mg1_1 3.027086 1_654
Ga2_4 Mg0_2 3.027087 1_655
Ga2_4 Mg0_4 3.027087 1_555
Ga2_4 Mg1_3 3.027087 1_654
Ga2_4 Mg1_5 3.027087 1_554
Ga2_4 Ga2_6 3.063090 1_555
Ga2_4 Ga2_6 3.063090 1_545
Ga2_5 Mg1_0 3.027086 1_655
Ga2_5 Mg0_1 3.027086 1_655
Ga2_5 Mg1_2 3.027087 1_655
Ga2_5 Mg1_4 3.027087 1_555
Ga2_5 Mg0_5 3.027087 1_555
Ga2_5 Mg0_3 3.027087 1_655
Ga2_5 Ga2_7 3.063090 1_555
Ga2_5 Ga2_7 3.063090 1_545
Ga2_6 Mg0_2 3.027086 1_655
Ga2_6 Mg1_3 3.027086 1_654
Ga2_6 Mg0_0 3.027087 1_665
Ga2_6 Mg0_6 3.027087 1_555
Ga2_6 Mg1_1 3.027087 1_664
Ga2_6 Mg1_7 3.027087 1_554
Ga2_7 Mg1_2 3.027086 1_655
Ga2_7 Mg0_3 3.027086 1_655
Ga2_7 Mg1_6 3.027087 1_555
Ga2_7 Mg1_0 3.027087 1_665
Ga2_7 Mg0_1 3.027087 1_665
Ga2_7 Mg0_7 3.027087 1_555
Ga3_0 Mg1_4 2.986965 1_555
Ga3_0 Mg1_0 2.986966 1_555
Ga3_0 Mg1_6 2.986966 1_555
Ga3_0 Ga3_6 3.063090 1_445
Ga3_0 Ga3_6 3.063090 1_555
Ga3_0 Ga3_2 3.063090 1_555
Ga3_0 Ga3_4 3.063090 1_455
Ga3_0 Ga3_4 3.063090 1_555
Ga3_0 Ga3_2 3.063090 1_545
Ga3_1 Mg1_5 2.986965 1_555
Ga3_1 Mg1_1 2.986966 1_555
Ga3_1 Mg1_7 2.986966 1_555
Ga3_1 Ga3_7 3.063090 1_555
Ga3_1 Ga3_7 3.063090 1_445
Ga3_1 Ga3_5 3.063090 1_455
Ga3_1 Ga3_3 3.063090 1_555
Ga3_1 Ga3_3 3.063090 1_545
Ga3_1 Ga3_5 3.063090 1_555
Ga3_2 Mg1_6 2.986965 1_555
Ga3_2 Mg1_2 2.986966 1_555
Ga3_2 Mg1_4 2.986966 1_565
Ga3_2 Ga3_4 3.063090 1_455
Ga3_2 Ga3_4 3.063090 1_565
Ga3_2 Ga3_6 3.063090 1_455
Ga3_2 Ga3_6 3.063090 1_555
Ga3_3 Mg1_7 2.986965 1_555
Ga3_3 Mg1_3 2.986966 1_555
Ga3_3 Mg1_5 2.986966 1_565
Ga3_3 Ga3_5 3.063090 1_455
Ga3_3 Ga3_5 3.063090 1_565
Ga3_3 Ga3_7 3.063090 1_455
Ga3_3 Ga3_7 3.063090 1_555
Ga3_4 Mg1_0 2.986965 1_655
Ga3_4 Mg1_2 2.986966 1_655
Ga3_4 Mg1_4 2.986966 1_555
Ga3_4 Ga3_6 3.063090 1_555
Ga3_4 Ga3_6 3.063090 1_545
Ga3_5 Mg1_1 2.986965 1_655
Ga3_5 Mg1_5 2.986966 1_555
Ga3_5 Mg1_3 2.986966 1_655
Ga3_5 Ga3_7 3.063090 1_555
Ga3_5 Ga3_7 3.063090 1_545
Ga3_6 Mg1_2 2.986965 1_655
Ga3_6 Mg1_0 2.986966 1_665
Ga3_6 Mg1_6 2.986966 1_555
Ga3_7 Mg1_3 2.986965 1_655
Ga3_7 Mg1_1 2.986966 1_665
Ga3_7 Mg1_7 2.986966 1_555
