# generated using pymatgen
data_SrTbEuVO6
_symmetry_space_group_name_H-M   'P 1'
_cell_length_a   5.75424013
_cell_length_b   5.75421235
_cell_length_c   5.75424404
_cell_angle_alpha   59.99981785
_cell_angle_beta   59.99997752
_cell_angle_gamma   60.00018024
_symmetry_Int_Tables_number   1
_chemical_formula_structural   SrTbEuVO6
_chemical_formula_sum   'Sr1 Tb1 Eu1 V1 O6'
_cell_volume   134.72465025
_cell_formula_units_Z   1
loop_
 _symmetry_equiv_pos_site_id
 _symmetry_equiv_pos_as_xyz
  1  'x, y, z'
loop_
 _atom_site_type_symbol
 _atom_site_label
 _atom_site_symmetry_multiplicity
 _atom_site_fract_x
 _atom_site_fract_y
 _atom_site_fract_z
 _atom_site_occupancy
  Sr  Sr0  1  0.25000084  0.24999940  0.24999988  1
  Tb  Tb0  1  0.99999956  0.99999966  0.00000039  1
  Eu  Eu0  1  0.74999211  0.75000233  0.75000278  1
  V  V0  1  0.49999983  0.49999999  0.50000009  1
  O  O0  1  0.73070621  0.26929407  0.26929355  1
  O  O1  1  0.26929608  0.73070628  0.73070549  1
  O  O2  1  0.73070621  0.26929407  0.73070616  1
  O  O3  1  0.26929608  0.73070628  0.26929214  1
  O  O4  1  0.73070355  0.73070400  0.26929623  1
  O  O5  1  0.26929953  0.26929392  0.73070328  1
loop_
_geom_bond_atom_site_label_1
_geom_bond_atom_site_label_2
_geom_bond_distance
_geom_bond_site_symmetry_2
Eu0 O5 2.881358 1_565
Eu0 O3 2.881360 1_556
Eu0 O1 2.881360 1_555
Eu0 O0 2.881384 1_556
Eu0 O2 2.881384 1_555
Eu0 O2 2.881388 1_565
Eu0 O0 2.881388 1_565
Eu0 O4 2.881403 1_555
Eu0 O4 2.881403 1_556
Eu0 O1 2.881445 1_655
Eu0 O3 2.881445 1_655
Eu0 O5 2.881451 1_655
O0 V0 1.877425 1_555
O0 Tb0 2.191440 1_545
O0 Sr0 2.881398 1_555
O0 Sr0 2.881404 1_655
O1 V0 1.877422 1_555
O1 Tb0 2.191443 1_456
O1 Sr0 2.881383 1_565
O1 Sr0 2.881391 1_556
O2 V0 1.877425 1_555
O2 Tb0 2.191440 1_546
O2 Sr0 2.881398 1_556
O2 Sr0 2.881404 1_655
O3 V0 1.877422 1_555
O3 Tb0 2.191443 1_455
O3 Sr0 2.881383 1_565
O3 Sr0 2.881391 1_555
O4 V0 1.877394 1_555
O4 Tb0 2.191444 1_555
O4 Sr0 2.881396 1_565
O4 Sr0 2.881409 1_655
O5 V0 1.877389 1_555
O5 Tb0 2.191454 1_446
O5 Sr0 2.881404 1_556
O5 Sr0 2.881404 1_555
