# generated using pymatgen
data_Li8Nd7Ge10
_symmetry_space_group_name_H-M   'P 1'
_cell_length_a   17.07104246
_cell_length_b   17.07104246
_cell_length_c   4.42711543
_cell_angle_alpha   90.00000000
_cell_angle_beta   90.00000000
_cell_angle_gamma   156.73860097
_symmetry_Int_Tables_number   1
_chemical_formula_structural   Li8Nd7Ge10
_chemical_formula_sum   'Li8 Nd7 Ge10'
_cell_volume   509.51545743
_cell_formula_units_Z   1
loop_
 _symmetry_equiv_pos_site_id
 _symmetry_equiv_pos_as_xyz
  1  'x, y, z'
loop_
 _atom_site_type_symbol
 _atom_site_label
 _atom_site_symmetry_multiplicity
 _atom_site_fract_x
 _atom_site_fract_y
 _atom_site_fract_z
 _atom_site_occupancy
  Li  Li0  1  0.26533934  0.11494717  0.50000000  1
  Li  Li1  1  0.73466066  0.88505283  0.50000000  1
  Li  Li2  1  0.11494717  0.26533934  0.50000000  1
  Li  Li3  1  0.88505283  0.73466066  0.50000000  1
  Li  Li4  1  0.45572455  0.16917829  -0.00000000  1
  Li  Li5  1  0.54427545  0.83082171  -0.00000000  1
  Li  Li6  1  0.16917829  0.45572455  -0.00000000  1
  Li  Li7  1  0.83082171  0.54427545  0.00000000  1
  Nd  Nd0  1  0.16057620  0.83942380  0.50000000  1
  Nd  Nd1  1  0.83942380  0.16057620  0.50000000  1
  Nd  Nd2  1  0.27932104  0.72067896  0.50000000  1
  Nd  Nd3  1  0.72067896  0.27932104  0.50000000  1
  Nd  Nd4  1  0.44237556  0.55762444  -0.00000000  1
  Nd  Nd5  1  0.55762444  0.44237556  -0.00000000  1
  Nd  Nd6  1  0.00000000  0.00000000  -0.00000000  1
  Ge  Ge0  1  0.39743122  0.96643437  -0.00000000  1
  Ge  Ge1  1  0.60256878  0.03356563  0.00000000  1
  Ge  Ge2  1  0.96643437  0.39743122  -0.00000000  1
  Ge  Ge3  1  0.03356563  0.60256878  0.00000000  1
  Ge  Ge4  1  0.37328971  0.62671029  0.50000000  1
  Ge  Ge5  1  0.62671029  0.37328971  0.50000000  1
  Ge  Ge6  1  0.09385043  0.90614957  0.00000000  1
  Ge  Ge7  1  0.90614957  0.09385043  -0.00000000  1
  Ge  Ge8  1  0.31626398  0.31626398  0.50000000  1
  Ge  Ge9  1  0.68373602  0.68373602  0.50000000  1
loop_
_geom_bond_atom_site_label_1
_geom_bond_atom_site_label_2
_geom_bond_distance
_geom_bond_site_symmetry_2
Li0 Nd5 3.129522 1_556
Li0 Nd5 3.129522 1_555
Li0 Nd0 3.140873 1_545
Li1 Nd4 3.129522 1_556
Li1 Nd4 3.129522 1_555
Li1 Nd1 3.140873 1_565
Li2 Nd4 3.129522 1_556
Li2 Nd4 3.129522 1_555
Li2 Nd1 3.140873 1_455
Li3 Nd5 3.129522 1_556
Li3 Nd5 3.129522 1_555
Li3 Nd0 3.140873 1_655
Li4 Nd0 3.140053 1_544
Li4 Nd0 3.140053 1_545
Li4 Nd5 3.141660 1_555
Li5 Nd1 3.140053 1_564
Li5 Nd1 3.140053 1_565
Li5 Nd4 3.141660 1_555
Li6 Nd1 3.140053 1_454
Li6 Nd1 3.140053 1_455
Li6 Nd4 3.141660 1_555
Li7 Nd0 3.140053 1_655
Li7 Nd0 3.140053 1_654
Li7 Nd5 3.141660 1_555
Ge0 Ge1 2.490535 1_565
Ge0 Ge3 2.504537 1_555
Ge0 Li4 2.576957 1_565
Ge0 Nd3 3.118155 1_565
Ge0 Nd3 3.118155 1_564
Ge0 Nd0 3.137089 1_554
Ge0 Nd0 3.137089 1_555
Ge0 Nd2 3.320125 1_555
Ge0 Nd2 3.320125 1_554
Ge1 Ge2 2.504537 1_555
Ge1 Li5 2.576957 1_545
Ge1 Nd2 3.118155 1_545
Ge1 Nd2 3.118155 1_544
Ge1 Nd1 3.137089 1_555
Ge1 Nd1 3.137089 1_554
Ge1 Nd3 3.320125 1_555
Ge1 Nd3 3.320125 1_554
Ge2 Ge3 2.490535 1_655
Ge2 Li6 2.576957 1_655
Ge2 Nd2 3.118155 1_654
Ge2 Nd2 3.118155 1_655
Ge2 Nd1 3.137089 1_554
Ge2 Nd1 3.137089 1_555
Ge2 Nd3 3.320125 1_554
Ge2 Nd3 3.320125 1_555
Ge3 Li7 2.576957 1_455
Ge3 Nd3 3.118155 1_455
Ge3 Nd3 3.118155 1_454
Ge3 Nd0 3.137089 1_554
Ge3 Nd0 3.137089 1_555
Ge3 Nd2 3.320125 1_554
Ge3 Nd2 3.320125 1_555
Ge4 Li6 2.621660 1_556
Ge4 Li6 2.621660 1_555
Ge4 Li5 2.621660 1_555
Ge4 Li5 2.621660 1_556
Ge4 Li1 2.741612 1_555
Ge4 Li2 2.741612 1_555
Ge4 Nd2 3.142412 1_555
Ge4 Nd4 3.199585 1_556
Ge4 Nd4 3.199585 1_555
Ge5 Li4 2.621660 1_555
Ge5 Li4 2.621660 1_556
Ge5 Li7 2.621660 1_556
Ge5 Li7 2.621660 1_555
Ge5 Li3 2.741612 1_555
Ge5 Li0 2.741612 1_555
Ge5 Nd3 3.142412 1_555
Ge5 Nd5 3.199585 1_555
Ge5 Nd5 3.199585 1_556
Ge6 Li3 2.646111 1_455
Ge6 Li3 2.646111 1_454
Ge6 Li0 2.646111 1_564
Ge6 Li0 2.646111 1_565
Ge6 Li4 2.712352 1_565
Ge6 Li7 2.712352 1_455
Ge6 Nd6 3.138458 1_565
Ge6 Nd0 3.143071 1_554
Ge6 Nd0 3.143071 1_555
Ge7 Li1 2.646111 1_544
Ge7 Li2 2.646111 1_655
Ge7 Li2 2.646111 1_654
Ge7 Li1 2.646111 1_545
Ge7 Li6 2.712352 1_655
Ge7 Li5 2.712352 1_545
Ge7 Nd6 3.138458 1_655
Ge7 Nd1 3.143071 1_554
Ge7 Nd1 3.143071 1_555
Ge8 Ge9 2.529361 1_555
Ge8 Li0 2.660264 1_555
Ge8 Li2 2.660264 1_555
Ge8 Nd6 3.104623 1_555
Ge8 Nd6 3.104623 1_556
Ge8 Nd4 3.195727 1_556
Ge8 Nd4 3.195727 1_555
Ge8 Nd5 3.195727 1_556
Ge8 Nd5 3.195727 1_555
Ge9 Li3 2.660264 1_555
Ge9 Li1 2.660264 1_555
Ge9 Nd6 3.104623 1_665
Ge9 Nd6 3.104623 1_666
Ge9 Nd4 3.195727 1_556
Ge9 Nd4 3.195727 1_555
Ge9 Nd5 3.195727 1_556
Ge9 Nd5 3.195727 1_555
