# generated using pymatgen
data_Ti2Zn
_symmetry_space_group_name_H-M   'P 1'
_cell_length_a   6.04205168
_cell_length_b   6.04204960
_cell_length_c   11.41408957
_cell_angle_alpha   105.34762967
_cell_angle_beta   105.34762978
_cell_angle_gamma   90.00000000
_symmetry_Int_Tables_number   1
_chemical_formula_structural   Ti2Zn
_chemical_formula_sum   'Ti16 Zn8'
_cell_volume   386.39596809
_cell_formula_units_Z   8
loop_
 _symmetry_equiv_pos_site_id
 _symmetry_equiv_pos_as_xyz
  1  'x, y, z'
loop_
 _atom_site_type_symbol
 _atom_site_label
 _atom_site_symmetry_multiplicity
 _atom_site_fract_x
 _atom_site_fract_y
 _atom_site_fract_z
 _atom_site_occupancy
  Ti  Ti0_0  1  0.33187024  0.33187024  0.16373999  1
  Ti  Ti0_1  1  0.33187024  0.33187024  0.66373998  1
  Ti  Ti0_2  1  0.33187024  0.83187024  0.16373999  1
  Ti  Ti0_3  1  0.33187024  0.83187024  0.66373998  1
  Ti  Ti0_4  1  0.83187024  0.33187024  0.16373999  1
  Ti  Ti0_5  1  0.83187024  0.33187024  0.66373998  1
  Ti  Ti0_6  1  0.83187024  0.83187024  0.16373999  1
  Ti  Ti0_7  1  0.83187024  0.83187024  0.66373998  1
  Ti  Ti1_0  1  0.16812976  0.16812976  0.33626002  1
  Ti  Ti1_1  1  0.16812976  0.16812976  0.83626002  1
  Ti  Ti1_2  1  0.16812976  0.66812976  0.33626002  1
  Ti  Ti1_3  1  0.16812976  0.66812976  0.83626002  1
  Ti  Ti1_4  1  0.66812976  0.16812976  0.33626002  1
  Ti  Ti1_5  1  0.66812976  0.16812976  0.83626002  1
  Ti  Ti1_6  1  0.66812976  0.66812976  0.33626002  1
  Ti  Ti1_7  1  0.66812976  0.66812976  0.83626002  1
  Zn  Zn0_0  1  0.00000000  0.00000000  0.00000000  1
  Zn  Zn0_1  1  0.00000000  0.00000000  0.50000000  1
  Zn  Zn0_2  1  0.00000000  0.50000000  0.00000000  1
  Zn  Zn0_3  1  0.00000000  0.50000000  0.50000000  1
  Zn  Zn0_4  1  0.50000000  0.00000000  0.00000000  1
  Zn  Zn0_5  1  0.50000000  0.00000000  0.50000000  1
  Zn  Zn0_6  1  0.50000000  0.50000000  0.00000000  1
  Zn  Zn0_7  1  0.50000000  0.50000000  0.50000000  1
loop_
_geom_bond_atom_site_label_1
_geom_bond_atom_site_label_2
_geom_bond_distance
_geom_bond_site_symmetry_2
Ti0_0 Zn0_6 2.750791 1_555
Ti0_0 Zn0_4 2.750793 1_555
Ti0_0 Zn0_2 2.750793 1_555
Ti0_0 Zn0_0 2.750795 1_555
Ti0_0 Ti1_6 2.810267 1_555
Ti0_0 Ti1_2 2.810269 1_555
Ti0_0 Ti1_4 2.810269 1_555
Ti0_0 Ti1_0 2.810272 1_555
Ti0_0 Ti0_2 3.021025 1_555
Ti0_0 Ti0_2 3.021025 1_545
Ti0_0 Ti0_4 3.021026 1_555
Ti0_0 Ti0_4 3.021026 1_455
Ti0_1 Zn0_7 2.750791 1_555
Ti0_1 Zn0_5 2.750793 1_555
Ti0_1 Zn0_3 2.750793 1_555
Ti0_1 Zn0_1 2.750795 1_555
Ti0_1 Ti1_7 2.810267 1_555
Ti0_1 Ti1_3 2.810269 1_555
Ti0_1 Ti1_5 2.810269 1_555
Ti0_1 Ti1_1 2.810272 1_555
Ti0_1 Ti0_3 3.021025 1_545
Ti0_1 Ti0_3 3.021025 1_555
Ti0_1 Ti0_5 3.021026 1_555
Ti0_1 Ti0_5 3.021026 1_455
Ti0_2 Zn0_4 2.750791 1_565
Ti0_2 Zn0_6 2.750793 1_555
Ti0_2 Zn0_0 2.750793 1_565
Ti0_2 Zn0_2 2.750795 1_555
Ti0_2 Ti1_4 2.810267 1_565
Ti0_2 Ti1_0 2.810269 1_565
Ti0_2 Ti1_6 2.810269 1_555
Ti0_2 Ti1_2 2.810272 1_555
Ti0_2 Ti0_6 3.021026 1_555
Ti0_2 Ti0_6 3.021026 1_455
Ti0_3 Zn0_5 2.750791 1_565
Ti0_3 Zn0_7 2.750793 1_555
Ti0_3 Zn0_1 2.750793 1_565
Ti0_3 Zn0_3 2.750795 1_555
Ti0_3 Ti1_5 2.810267 1_565
Ti0_3 Ti1_1 2.810269 1_565
Ti0_3 Ti1_7 2.810269 1_555
Ti0_3 Ti1_3 2.810272 1_555
Ti0_3 Ti0_7 3.021026 1_555
Ti0_3 Ti0_7 3.021026 1_455
Ti0_4 Zn0_2 2.750791 1_655
Ti0_4 Zn0_0 2.750793 1_655
Ti0_4 Zn0_6 2.750793 1_555
Ti0_4 Zn0_4 2.750795 1_555
Ti0_4 Ti1_2 2.810267 1_655
Ti0_4 Ti1_6 2.810269 1_555
Ti0_4 Ti1_0 2.810269 1_655
Ti0_4 Ti1_4 2.810272 1_555
Ti0_4 Ti0_6 3.021025 1_555
Ti0_4 Ti0_6 3.021025 1_545
Ti0_5 Zn0_3 2.750791 1_655
Ti0_5 Zn0_1 2.750793 1_655
Ti0_5 Zn0_7 2.750793 1_555
Ti0_5 Zn0_5 2.750795 1_555
Ti0_5 Ti1_3 2.810267 1_655
Ti0_5 Ti1_7 2.810269 1_555
Ti0_5 Ti1_1 2.810269 1_655
Ti0_5 Ti1_5 2.810272 1_555
Ti0_5 Ti0_7 3.021025 1_555
Ti0_5 Ti0_7 3.021025 1_545
Ti0_6 Zn0_0 2.750791 1_665
Ti0_6 Zn0_2 2.750793 1_655
Ti0_6 Zn0_4 2.750793 1_565
Ti0_6 Zn0_6 2.750795 1_555
Ti0_6 Ti1_0 2.810267 1_665
Ti0_6 Ti1_4 2.810269 1_565
Ti0_6 Ti1_2 2.810269 1_655
Ti0_6 Ti1_6 2.810272 1_555
Ti0_7 Zn0_1 2.750791 1_665
Ti0_7 Zn0_3 2.750793 1_655
Ti0_7 Zn0_5 2.750793 1_565
Ti0_7 Zn0_7 2.750795 1_555
Ti0_7 Ti1_1 2.810267 1_665
Ti0_7 Ti1_5 2.810269 1_565
Ti0_7 Ti1_3 2.810269 1_655
Ti0_7 Ti1_7 2.810272 1_555
Ti1_0 Zn0_1 2.750791 1_555
Ti1_0 Zn0_3 2.750793 1_555
Ti1_0 Zn0_5 2.750793 1_555
Ti1_0 Zn0_7 2.750795 1_555
Ti1_0 Ti1_2 3.021025 1_545
Ti1_0 Ti1_2 3.021025 1_555
Ti1_0 Ti1_4 3.021026 1_555
Ti1_0 Ti1_4 3.021026 1_455
Ti1_1 Zn0_0 2.750791 1_556
Ti1_1 Zn0_2 2.750793 1_556
Ti1_1 Zn0_4 2.750793 1_556
Ti1_1 Zn0_6 2.750795 1_556
Ti1_1 Ti1_3 3.021025 1_545
Ti1_1 Ti1_3 3.021025 1_555
Ti1_1 Ti1_5 3.021026 1_455
Ti1_1 Ti1_5 3.021026 1_555
Ti1_2 Zn0_3 2.750791 1_555
Ti1_2 Zn0_1 2.750793 1_565
Ti1_2 Zn0_7 2.750793 1_555
Ti1_2 Zn0_5 2.750795 1_565
Ti1_2 Ti1_6 3.021026 1_555
Ti1_2 Ti1_6 3.021026 1_455
Ti1_3 Zn0_2 2.750791 1_556
Ti1_3 Zn0_0 2.750793 1_566
Ti1_3 Zn0_6 2.750793 1_556
Ti1_3 Zn0_4 2.750795 1_566
Ti1_3 Ti1_7 3.021026 1_555
Ti1_3 Ti1_7 3.021026 1_455
Ti1_4 Zn0_5 2.750791 1_555
Ti1_4 Zn0_7 2.750793 1_555
Ti1_4 Zn0_1 2.750793 1_655
Ti1_4 Zn0_3 2.750795 1_655
Ti1_4 Ti1_6 3.021025 1_545
Ti1_4 Ti1_6 3.021025 1_555
Ti1_5 Zn0_4 2.750791 1_556
Ti1_5 Zn0_6 2.750793 1_556
Ti1_5 Zn0_0 2.750793 1_656
Ti1_5 Zn0_2 2.750795 1_656
Ti1_5 Ti1_7 3.021025 1_555
Ti1_5 Ti1_7 3.021025 1_545
Ti1_6 Zn0_7 2.750791 1_555
Ti1_6 Zn0_5 2.750793 1_565
Ti1_6 Zn0_3 2.750793 1_655
Ti1_6 Zn0_1 2.750795 1_665
Ti1_7 Zn0_6 2.750791 1_556
Ti1_7 Zn0_4 2.750793 1_566
Ti1_7 Zn0_2 2.750793 1_656
Ti1_7 Zn0_0 2.750795 1_666
Zn0_0 Zn0_2 3.021025 1_555
Zn0_0 Zn0_2 3.021025 1_545
Zn0_0 Zn0_4 3.021026 1_555
Zn0_0 Zn0_4 3.021026 1_455
Zn0_1 Zn0_3 3.021025 1_545
Zn0_1 Zn0_3 3.021025 1_555
Zn0_1 Zn0_5 3.021026 1_555
Zn0_1 Zn0_5 3.021026 1_455
Zn0_2 Zn0_6 3.021026 1_555
Zn0_2 Zn0_6 3.021026 1_455
Zn0_3 Zn0_7 3.021026 1_455
Zn0_3 Zn0_7 3.021026 1_555
Zn0_4 Zn0_6 3.021025 1_545
Zn0_4 Zn0_6 3.021025 1_555
Zn0_5 Zn0_7 3.021025 1_545
Zn0_5 Zn0_7 3.021025 1_555
