# generated using pymatgen
data_NbAlZn
_symmetry_space_group_name_H-M   'P 1'
_cell_length_a   5.02221354
_cell_length_b   5.02226131
_cell_length_c   8.31295142
_cell_angle_alpha   90.00046036
_cell_angle_beta   90.00048932
_cell_angle_gamma   60.67927370
_symmetry_Int_Tables_number   1
_chemical_formula_structural   NbAlZn
_chemical_formula_sum   'Nb4 Al4 Zn4'
_cell_volume   182.81528669
_cell_formula_units_Z   4
loop_
 _symmetry_equiv_pos_site_id
 _symmetry_equiv_pos_as_xyz
  1  'x, y, z'
loop_
 _atom_site_type_symbol
 _atom_site_label
 _atom_site_symmetry_multiplicity
 _atom_site_fract_x
 _atom_site_fract_y
 _atom_site_fract_z
 _atom_site_occupancy
  Nb  Nb0  1  0.33496063  0.33495578  0.56466328  1
  Nb  Nb1  1  0.66350140  0.66350215  0.44095643  1
  Nb  Nb2  1  0.66350148  0.66350433  0.05906921  1
  Nb  Nb3  1  0.33495674  0.33495226  0.93534060  1
  Al  Al0  1  0.99719560  0.99719417  0.49210480  1
  Al  Al1  1  0.99719479  0.99719383  0.00790396  1
  Al  Al2  1  0.83271388  0.34578144  0.75000193  1
  Al  Al3  1  0.34576158  0.83269636  0.75000192  1
  Zn  Zn0  1  0.83329271  0.83328612  0.75003905  1
  Zn  Zn1  1  0.17233860  0.65248427  0.24997305  1
  Zn  Zn2  1  0.65248046  0.17234083  0.24997221  1
  Zn  Zn3  1  0.17210414  0.17210747  0.24997256  1
loop_
_geom_bond_atom_site_label_1
_geom_bond_atom_site_label_2
_geom_bond_distance
_geom_bond_site_symmetry_2
Nb0 Zn2 2.962760 1_555
Nb0 Zn1 2.962777 1_555
Nb0 Zn0 2.968261 1_455
Nb0 Zn0 2.968268 1_545
Nb0 Zn3 2.972616 1_555
Nb0 Nb1 3.028075 1_555
Nb0 Nb3 3.081423 1_555
Nb0 Nb1 3.114854 1_455
Nb0 Nb1 3.114859 1_545
Nb1 Zn1 2.956686 1_555
Nb1 Zn2 2.956710 1_555
Nb1 Zn0 2.961092 1_555
Nb1 Zn1 2.985925 1_655
Nb1 Zn2 2.985949 1_565
Nb1 Zn3 2.993622 1_655
Nb1 Zn3 2.993633 1_565
Nb1 Nb2 3.174610 1_555
Nb2 Zn1 2.956359 1_555
Nb2 Zn2 2.956379 1_555
Nb2 Zn0 2.960733 1_554
Nb2 Zn1 2.985546 1_655
Nb2 Zn2 2.985559 1_565
Nb2 Zn3 2.993269 1_655
Nb2 Zn3 2.993274 1_565
Nb2 Nb3 3.028157 1_554
Nb2 Nb3 3.114903 1_564
Nb2 Nb3 3.114908 1_654
Nb3 Zn2 2.962319 1_556
Nb3 Zn1 2.962350 1_556
Nb3 Zn0 2.967938 1_455
Nb3 Zn0 2.967949 1_545
Nb3 Zn3 2.972195 1_556
Al0 Zn1 2.516124 1_655
Al0 Zn2 2.516134 1_565
Al0 Zn3 2.520050 1_665
Al0 Zn0 2.572257 1_555
Al0 Al3 2.631882 1_655
Al0 Al2 2.631948 1_565
Al0 Nb1 2.923812 1_555
Al0 Nb1 2.948695 1_655
Al0 Nb1 2.948731 1_565
Al0 Nb0 2.962656 1_565
Al0 Nb0 2.962697 1_655
Al0 Nb0 2.989495 1_665
Al1 Zn2 2.515716 1_565
Al1 Zn1 2.515717 1_655
Al1 Zn3 2.519607 1_665
Al1 Zn0 2.571751 1_554
Al1 Al3 2.631931 1_654
Al1 Al2 2.631993 1_564
Al1 Nb2 2.923826 1_555
Al1 Nb2 2.948715 1_655
Al1 Nb2 2.948759 1_565
Al1 Nb3 2.962671 1_564
Al1 Nb3 2.962713 1_654
Al1 Nb3 2.989488 1_664
Al2 Zn0 2.449801 1_555
Al2 Al3 2.470562 1_555
Al2 Zn0 2.572463 1_545
Al2 Al3 2.603152 1_645
Al2 Nb1 2.922410 1_555
Al2 Nb2 2.922564 1_556
Al2 Nb3 2.933374 1_655
Al2 Nb0 2.933420 1_655
Al2 Nb0 2.959545 1_555
Al2 Nb3 2.959592 1_555
Al3 Zn0 2.449937 1_555
Al3 Zn0 2.572279 1_455
Al3 Nb1 2.922442 1_555
Al3 Nb2 2.922589 1_556
Al3 Nb3 2.933500 1_565
Al3 Nb0 2.933544 1_565
Al3 Nb0 2.959458 1_555
Al3 Nb3 2.959503 1_555
Zn1 Zn3 2.413155 1_555
Zn1 Zn2 2.436106 1_555
Zn1 Zn3 2.609107 1_565
Zn1 Zn2 2.637607 1_465
Zn2 Zn3 2.413127 1_555
Zn2 Zn3 2.609087 1_655
