# generated using pymatgen
data_Ga4Ge(PbS3)4
_symmetry_space_group_name_H-M   'P 1'
_cell_length_a   12.84567200
_cell_length_b   12.84567200
_cell_length_c   6.21316800
_cell_angle_alpha   90.00000000
_cell_angle_beta   90.00000000
_cell_angle_gamma   90.00000000
_symmetry_Int_Tables_number   1
_chemical_formula_structural   Ga4Ge(PbS3)4
_chemical_formula_sum   'Ga8 Ge2 Pb8 S24'
_cell_volume   1025.24286127
_cell_formula_units_Z   2
loop_
 _symmetry_equiv_pos_site_id
 _symmetry_equiv_pos_as_xyz
  1  'x, y, z'
loop_
 _atom_site_type_symbol
 _atom_site_label
 _atom_site_symmetry_multiplicity
 _atom_site_fract_x
 _atom_site_fract_y
 _atom_site_fract_z
 _atom_site_occupancy
  Ga  Ga0  1  0.26368400  0.64797300  0.45172600  1
  Ga  Ga1  1  0.76368400  0.85202700  0.04827400  1
  Ga  Ga2  1  0.73631600  0.35202700  0.45172600  1
  Ga  Ga3  1  0.23631600  0.14797300  0.04827400  1
  Ga  Ga4  1  0.35202700  0.26368400  0.54827400  1
  Ga  Ga5  1  0.14797300  0.76368400  0.95172600  1
  Ga  Ga6  1  0.64797300  0.73631600  0.54827400  1
  Ga  Ga7  1  0.85202700  0.23631600  0.95172600  1
  Ge  Ge0  1  0.50000000  0.50000000  0.50000000  1
  Ge  Ge1  1  0.00000000  0.00000000  0.00000000  1
  Pb  Pb0  1  0.49064500  0.81486700  0.08988000  1
  Pb  Pb1  1  0.99064500  0.68513300  0.41012000  1
  Pb  Pb2  1  0.50935500  0.18513300  0.08988000  1
  Pb  Pb3  1  0.00935500  0.31486700  0.41012000  1
  Pb  Pb4  1  0.18513300  0.49064500  0.91012000  1
  Pb  Pb5  1  0.31486700  0.99064500  0.58988000  1
  Pb  Pb6  1  0.81486700  0.50935500  0.91012000  1
  Pb  Pb7  1  0.68513300  0.00935500  0.58988000  1
  S  S0  1  0.14013800  0.51873200  0.46474500  1
  S  S1  1  0.64013800  0.98126800  0.03525500  1
  S  S2  1  0.85986200  0.48126800  0.46474500  1
  S  S3  1  0.35986200  0.01873100  0.03525500  1
  S  S4  1  0.48126800  0.14013800  0.53525500  1
  S  S5  1  0.01873100  0.64013800  0.96474500  1
  S  S6  1  0.51873200  0.85986200  0.53525500  1
  S  S7  1  0.98126800  0.35986200  0.96474500  1
  S  S8  1  0.40742100  0.59497300  0.26384500  1
  S  S9  1  0.90742100  0.90502700  0.23615500  1
  S  S10  1  0.59257900  0.40502700  0.26384500  1
  S  S11  1  0.09257900  0.09497300  0.23615500  1
  S  S12  1  0.40502700  0.40742100  0.73615500  1
  S  S13  1  0.09497300  0.90742100  0.76384500  1
  S  S14  1  0.59497300  0.59257900  0.73615500  1
  S  S15  1  0.90502700  0.09257900  0.76384500  1
  S  S16  1  0.19071900  0.79588000  0.30567400  1
  S  S17  1  0.69071900  0.70412000  0.19432600  1
  S  S18  1  0.80928100  0.20412000  0.30567400  1
  S  S19  1  0.30928100  0.29588000  0.19432600  1
  S  S20  1  0.20412000  0.19071900  0.69432600  1
  S  S21  1  0.29588000  0.69071900  0.80567400  1
  S  S22  1  0.79588000  0.80928100  0.69432600  1
  S  S23  1  0.70412000  0.30928100  0.80567400  1
loop_
_geom_bond_atom_site_label_1
_geom_bond_atom_site_label_2
_geom_bond_distance
_geom_bond_site_symmetry_2
Ga0 S8 2.288095 1_555
Ga0 S0 2.298137 1_555
Ga0 S21 2.304077 1_555
Ga0 S16 2.304740 1_555
Ga1 S9 2.288095 1_555
Ga1 S1 2.298137 1_555
Ga1 S22 2.304077 1_554
Ga1 S17 2.304740 1_555
Ga2 S10 2.288095 1_555
Ga2 S2 2.298137 1_555
Ga2 S23 2.304077 1_555
Ga2 S18 2.304740 1_555
Ga3 S11 2.288095 1_555
Ga3 S3 2.298146 1_555
Ga3 S20 2.304077 1_554
Ga3 S19 2.304740 1_555
Ga4 S12 2.288095 1_555
Ga4 S4 2.298137 1_555
Ga4 S19 2.304077 1_555
Ga4 S20 2.304740 1_555
Ga5 S13 2.288095 1_555
Ga5 S5 2.298146 1_555
Ga5 S16 2.304077 1_556
Ga5 S21 2.304740 1_555
Ga6 S14 2.288095 1_555
Ga6 S6 2.298137 1_555
Ga6 S17 2.304077 1_555
Ga6 S22 2.304740 1_555
Ga7 S15 2.288095 1_555
Ga7 S7 2.298137 1_555
Ga7 S18 2.304077 1_556
Ga7 S23 2.304740 1_555
Ge0 S14 2.248456 1_555
Ge0 S8 2.248456 1_555
Ge0 S10 2.248456 1_555
Ge0 S12 2.248456 1_555
Ge1 S11 2.248456 1_555
Ge1 S13 2.248456 1_544
Ge1 S15 2.248456 1_454
Ge1 S9 2.248456 1_445
Pb0 S6 2.849840 1_555
Pb0 S1 2.893429 1_555
Pb0 S17 3.008373 1_555
Pb0 S3 3.129781 1_565
Pb0 S8 3.207810 1_555
Pb1 S5 2.849838 1_654
Pb1 S0 2.893429 1_655
Pb1 S16 3.008373 1_655
Pb1 S2 3.129792 1_555
Pb1 S9 3.207810 1_555
Pb2 S4 2.849840 1_555
Pb2 S3 2.893439 1_555
Pb2 S19 3.008373 1_555
Pb2 S1 3.129792 1_545
Pb2 S10 3.207810 1_555
Pb3 S7 2.849840 1_454
Pb3 S2 2.893429 1_455
Pb3 S18 3.008373 1_455
Pb3 S0 3.129792 1_555
Pb3 S11 3.207810 1_555
Pb4 S0 2.849840 1_555
Pb4 S5 2.893439 1_555
Pb4 S21 3.008373 1_555
Pb4 S7 3.129792 1_455
Pb4 S12 3.207810 1_555
Pb5 S3 2.849838 1_566
Pb5 S4 2.893429 1_565
Pb5 S20 3.008373 1_565
Pb5 S6 3.129792 1_555
Pb5 S13 3.207810 1_555
Pb6 S2 2.849840 1_555
Pb6 S7 2.893429 1_555
Pb6 S23 3.008373 1_555
Pb6 S5 3.129781 1_655
Pb6 S14 3.207810 1_555
Pb7 S1 2.849840 1_546
Pb7 S6 2.893429 1_545
Pb7 S22 3.008373 1_545
Pb7 S4 3.129792 1_555
Pb7 S15 3.207810 1_555
