# generated using pymatgen
data_Ti(CdN)4
_symmetry_space_group_name_H-M   'P 1'
_cell_length_a   5.89613190
_cell_length_b   5.84135099
_cell_length_c   8.95717903
_cell_angle_alpha   69.55847801
_cell_angle_beta   85.10553715
_cell_angle_gamma   69.69926922
_symmetry_Int_Tables_number   1
_chemical_formula_structural   Ti(CdN)4
_chemical_formula_sum   'Ti2 Cd8 N8'
_cell_volume   270.88972325
_cell_formula_units_Z   2
loop_
 _symmetry_equiv_pos_site_id
 _symmetry_equiv_pos_as_xyz
  1  'x, y, z'
loop_
 _atom_site_type_symbol
 _atom_site_label
 _atom_site_symmetry_multiplicity
 _atom_site_fract_x
 _atom_site_fract_y
 _atom_site_fract_z
 _atom_site_occupancy
  Ti  Ti0  1  0.71400100  0.84797400  0.76745900  1
  Ti  Ti1  1  0.28599900  0.15202600  0.23254100  1
  Cd  Cd0  1  0.72339300  0.63769000  0.18808300  1
  Cd  Cd1  1  0.27660700  0.36231000  0.81191700  1
  Cd  Cd2  1  0.75986000  0.24121600  0.99611700  1
  Cd  Cd3  1  0.24014000  0.75878400  0.00388300  1
  Cd  Cd4  1  0.75101800  0.46979000  0.58124800  1
  Cd  Cd5  1  0.24898200  0.53021000  0.41875200  1
  Cd  Cd6  1  0.25364400  0.93115200  0.58982800  1
  Cd  Cd7  1  0.74635600  0.06884800  0.41017200  1
  N  N0  1  0.96625600  0.70544100  0.62507400  1
  N  N1  1  0.03374400  0.29455900  0.37492600  1
  N  N2  1  0.83887900  0.85167800  0.95753300  1
  N  N3  1  0.16112100  0.14832200  0.04246700  1
  N  N4  1  0.49664400  0.64656600  0.81148300  1
  N  N5  1  0.50335600  0.35343400  0.18851700  1
  N  N6  1  0.46928800  0.79980400  0.36773500  1
  N  N7  1  0.53071200  0.20019600  0.63226500  1
loop_
_geom_bond_atom_site_label_1
_geom_bond_atom_site_label_2
_geom_bond_distance
_geom_bond_site_symmetry_2
Cd0 N2 2.199602 1_554
Cd0 N6 2.323664 1_555
Cd0 N1 2.408572 1_655
Cd0 N5 2.435088 1_555
Cd1 N3 2.199602 1_556
Cd1 N7 2.323664 1_555
Cd1 N0 2.408572 1_455
Cd1 N4 2.435088 1_555
Cd2 N3 2.276766 1_656
Cd2 N2 2.302235 1_545
Cd2 N5 2.311573 1_556
Cd2 N4 2.429596 1_555
Cd3 N2 2.276766 1_454
Cd3 N3 2.302235 1_565
Cd3 N4 2.311573 1_554
Cd3 N5 2.429596 1_555
Cd4 N7 2.278495 1_555
Cd4 N0 2.309562 1_555
Cd4 N6 2.424445 1_555
Cd4 N1 2.617928 1_655
Cd4 N4 2.730140 1_555
Cd5 N6 2.278495 1_555
Cd5 N1 2.309562 1_555
Cd5 N7 2.424445 1_555
Cd5 N0 2.617928 1_455
Cd5 N5 2.730140 1_555
Cd6 N4 2.299003 1_555
Cd6 N1 2.356786 1_565
Cd6 N0 2.424345 1_455
Cd6 N6 2.473928 1_555
Cd6 N7 2.754601 1_565
Cd7 N5 2.299003 1_555
Cd7 N0 2.356786 1_545
Cd7 N1 2.424345 1_655
Cd7 N7 2.473928 1_555
Cd7 N6 2.754601 1_545
N0 Ti0 2.022537 1_555
N1 Ti1 2.022537 1_555
N2 Ti0 1.921430 1_555
N3 Ti1 1.921430 1_555
N4 Ti0 1.953965 1_555
N5 Ti1 1.953965 1_555
N6 Ti1 1.951300 1_565
N7 Ti0 1.951300 1_545
