# generated using pymatgen
data_SmZrNO2
_symmetry_space_group_name_H-M   'P 1'
_cell_length_a   5.69426000
_cell_length_b   5.84500600
_cell_length_c   8.33495300
_cell_angle_alpha   90.00000000
_cell_angle_beta   90.00000000
_cell_angle_gamma   90.00000000
_symmetry_Int_Tables_number   1
_chemical_formula_structural   SmZrNO2
_chemical_formula_sum   'Sm4 Zr4 N4 O8'
_cell_volume   277.41210622
_cell_formula_units_Z   4
loop_
 _symmetry_equiv_pos_site_id
 _symmetry_equiv_pos_as_xyz
  1  'x, y, z'
loop_
 _atom_site_type_symbol
 _atom_site_label
 _atom_site_symmetry_multiplicity
 _atom_site_fract_x
 _atom_site_fract_y
 _atom_site_fract_z
 _atom_site_occupancy
  Sm  Sm0  1  0.48665200  0.54649500  0.25000000  1
  Sm  Sm1  1  0.01334800  0.04649500  0.25000000  1
  Sm  Sm2  1  0.51334800  0.45350500  0.75000000  1
  Sm  Sm3  1  0.98665200  0.95350500  0.75000000  1
  Zr  Zr0  1  0.50000000  0.00000000  0.00000000  1
  Zr  Zr1  1  0.00000000  0.50000000  0.50000000  1
  Zr  Zr2  1  0.50000000  0.00000000  0.50000000  1
  Zr  Zr3  1  0.00000000  0.50000000  0.00000000  1
  N  N0  1  0.40605600  0.95519600  0.25000000  1
  N  N1  1  0.09394400  0.45519600  0.25000000  1
  N  N2  1  0.59394400  0.04480400  0.75000000  1
  N  N3  1  0.90605600  0.54480400  0.75000000  1
  O  O0  1  0.82570300  0.82317600  0.04494100  1
  O  O1  1  0.67429700  0.32317600  0.45505900  1
  O  O2  1  0.17429700  0.17682400  0.54494100  1
  O  O3  1  0.32570300  0.67682400  0.95505900  1
  O  O4  1  0.17429700  0.17682400  0.95505900  1
  O  O5  1  0.32570300  0.67682400  0.54494100  1
  O  O6  1  0.82570300  0.82317600  0.45505900  1
  O  O7  1  0.67429700  0.32317600  0.04494100  1
loop_
_geom_bond_atom_site_label_1
_geom_bond_atom_site_label_2
_geom_bond_distance
_geom_bond_site_symmetry_2
N0 Zr2 2.167189 1_565
N0 Zr0 2.167189 1_565
N0 Sm1 2.298974 1_565
N0 Sm0 2.432544 1_555
N1 Zr1 2.167189 1_555
N1 Zr3 2.167189 1_555
N1 Sm0 2.298974 1_555
N1 Sm1 2.432544 1_555
N2 Zr2 2.167189 1_555
N2 Zr0 2.167189 1_556
N2 Sm3 2.298974 1_545
N2 Sm2 2.432544 1_555
N3 Zr3 2.167189 1_656
N3 Zr1 2.167189 1_655
N3 Sm2 2.298974 1_555
N3 Sm3 2.432544 1_555
O0 Zr0 2.155966 1_565
O0 Zr3 2.166459 1_655
O0 Sm1 2.401399 1_665
O0 Sm3 2.731955 1_554
O0 Sm0 3.043674 1_555
O1 Zr1 2.155966 1_655
O1 Zr2 2.166459 1_555
O1 Sm0 2.401399 1_555
O1 Sm2 2.731955 1_555
O1 Sm1 3.043674 1_655
O2 Zr2 2.155966 1_555
O2 Zr1 2.166459 1_555
O2 Sm3 2.401399 1_445
O2 Sm1 2.731955 1_555
O2 Sm2 3.043674 1_555
O3 Zr3 2.155966 1_556
O3 Zr0 2.166459 1_566
O3 Sm2 2.401399 1_555
O3 Sm0 2.731955 1_556
O3 Sm3 3.043674 1_455
O4 Zr0 2.155966 1_556
O4 Zr3 2.166459 1_556
O4 Sm3 2.401399 1_445
O4 Sm1 2.731955 1_556
O4 Sm2 3.043674 1_555
O5 Zr1 2.155966 1_555
O5 Zr2 2.166459 1_565
O5 Sm2 2.401399 1_555
O5 Sm0 2.731955 1_555
O5 Sm3 3.043674 1_455
O6 Zr2 2.155966 1_565
O6 Zr1 2.166459 1_655
O6 Sm1 2.401399 1_665
O6 Sm3 2.731955 1_555
O6 Sm0 3.043674 1_555
O7 Zr3 2.155966 1_655
O7 Zr0 2.166459 1_555
O7 Sm0 2.401399 1_555
O7 Sm2 2.731955 1_554
O7 Sm1 3.043674 1_655
