# generated using pymatgen
data_EuCu3Pd2
_symmetry_space_group_name_H-M   'P 1'
_cell_length_a   4.30316300
_cell_length_b   5.20627130
_cell_length_c   5.20814732
_cell_angle_alpha   119.98807500
_cell_angle_beta   90.00000000
_cell_angle_gamma   90.00000000
_symmetry_Int_Tables_number   1
_chemical_formula_structural   EuCu3Pd2
_chemical_formula_sum   'Eu1 Cu3 Pd2'
_cell_volume   101.06031750
_cell_formula_units_Z   1
loop_
 _symmetry_equiv_pos_site_id
 _symmetry_equiv_pos_as_xyz
  1  'x, y, z'
loop_
 _atom_site_type_symbol
 _atom_site_label
 _atom_site_symmetry_multiplicity
 _atom_site_fract_x
 _atom_site_fract_y
 _atom_site_fract_z
 _atom_site_occupancy
  Eu  Eu0  1  0.00000000  0.99998400  0.00000000  1
  Cu  Cu0  1  0.50000000  0.49999000  0.00000000  1
  Cu  Cu1  1  0.50000000  0.49999100  0.49999900  1
  Cu  Cu2  1  0.50000000  0.99999200  0.50000100  1
  Pd  Pd0  1  0.00000000  0.33327800  0.66661300  1
  Pd  Pd1  1  0.00000000  0.66666500  0.33338700  1
loop_
_geom_bond_atom_site_label_1
_geom_bond_atom_site_label_2
_geom_bond_distance
_geom_bond_site_symmetry_2
Eu0 Pd0 3.006268 1_564
Eu0 Pd1 3.006268 1_565
Eu0 Pd1 3.006381 1_555
Eu0 Pd0 3.006381 1_554
Eu0 Pd0 3.007044 1_565
Eu0 Pd1 3.007044 1_554
Cu0 Cu1 2.604066 1_555
Cu0 Cu2 2.604066 1_544
Cu0 Cu1 2.604081 1_554
Cu0 Cu2 2.604082 1_555
Cu0 Pd1 2.625066 1_655
Cu0 Pd1 2.625066 1_555
Cu0 Pd0 2.625066 1_654
Cu0 Pd0 2.625066 1_554
Cu0 Eu0 3.377196 1_555
Cu0 Eu0 3.377196 1_655
Cu0 Eu0 3.377245 1_545
Cu0 Eu0 3.377245 1_645
Cu1 Cu2 2.603136 1_545
Cu1 Cu2 2.603136 1_555
Cu1 Pd1 2.624495 1_655
Cu1 Pd1 2.624495 1_555
Cu1 Pd0 2.624601 1_655
Cu1 Pd0 2.624601 1_555
Cu1 Eu0 3.377932 1_656
Cu1 Eu0 3.377932 1_556
Cu1 Eu0 3.377956 1_645
Cu1 Eu0 3.377956 1_545
Cu2 Pd0 2.624495 1_565
Cu2 Pd0 2.624495 1_665
Cu2 Pd1 2.624601 1_655
Cu2 Pd1 2.624601 1_555
Cu2 Eu0 3.377932 1_655
Cu2 Eu0 3.377932 1_555
Cu2 Eu0 3.377956 1_656
Cu2 Eu0 3.377956 1_556
Pd0 Pd1 3.005961 1_555
Pd0 Pd1 3.005961 1_545
Pd0 Pd1 3.007771 1_556
