# generated using pymatgen
data_LiAs2H3O7
_symmetry_space_group_name_H-M   'P 1'
_cell_length_a   7.29941367
_cell_length_b   7.29941367
_cell_length_c   5.60866393
_cell_angle_alpha   70.29228013
_cell_angle_beta   70.29228013
_cell_angle_gamma   77.03323359
_symmetry_Int_Tables_number   1
_chemical_formula_structural   LiAs2H3O7
_chemical_formula_sum   'Li2 As4 H6 O14'
_cell_volume   262.78136456
_cell_formula_units_Z   2
loop_
 _symmetry_equiv_pos_site_id
 _symmetry_equiv_pos_as_xyz
  1  'x, y, z'
loop_
 _atom_site_type_symbol
 _atom_site_label
 _atom_site_symmetry_multiplicity
 _atom_site_fract_x
 _atom_site_fract_y
 _atom_site_fract_z
 _atom_site_occupancy
  Li  Li0  1  0.15266277  0.84733723  -0.00000000  1
  Li  Li1  1  0.84733723  0.15266277  -0.00000000  1
  As  As0  1  0.27191834  0.27191834  0.95853302  1
  As  As1  1  0.72808166  0.72808166  0.04146698  1
  As  As2  1  0.34467376  0.65532624  0.50000000  1
  As  As3  1  0.65532624  0.34467376  0.50000000  1
  H  H0  1  0.01440800  0.71805342  0.50879845  1
  H  H1  1  0.71805342  0.01440800  0.50879845  1
  H  H2  1  0.98559200  0.28194658  0.49120155  1
  H  H3  1  0.28194658  0.98559200  0.49120155  1
  H  H4  1  0.31316219  0.31316219  0.33299757  1
  H  H5  1  0.68683781  0.68683781  0.66700243  1
  O  O0  1  0.13370603  0.13370603  0.93455297  1
  O  O1  1  0.86629397  0.86629397  0.06544703  1
  O  O2  1  0.20995431  0.52183835  0.84310208  1
  O  O3  1  0.52183835  0.20995431  0.84310208  1
  O  O4  1  0.79004569  0.47816165  0.15689792  1
  O  O5  1  0.47816165  0.79004569  0.15689792  1
  O  O6  1  0.23311218  0.23311218  0.29395798  1
  O  O7  1  0.76688782  0.76688782  0.70604202  1
  O  O8  1  0.14002797  0.70545614  0.37416543  1
  O  O9  1  0.70545614  0.14002797  0.37416543  1
  O  O10  1  0.85997203  0.29454386  0.62583457  1
  O  O11  1  0.29454386  0.85997203  0.62583457  1
  O  O12  1  0.42067377  0.42067377  0.41645902  1
  O  O13  1  0.57932623  0.57932623  0.58354098  1
loop_
_geom_bond_atom_site_label_1
_geom_bond_atom_site_label_2
_geom_bond_distance
_geom_bond_site_symmetry_2
Li0 O0 1.977447 1_564
Li0 O1 1.977447 1_455
Li0 O8 1.982818 1_555
Li0 O11 1.982818 1_554
Li1 O0 1.977447 1_654
Li1 O1 1.977447 1_545
Li1 O9 1.982818 1_555
Li1 O10 1.982818 1_554
As0 O0 1.641194 1_555
As0 O3 1.726942 1_555
As0 O2 1.726942 1_555
As0 O6 1.736923 1_556
As1 O1 1.641194 1_555
As1 O5 1.726942 1_555
As1 O4 1.726942 1_555
As1 O7 1.736923 1_554
As2 O8 1.776228 1_555
As2 O11 1.776228 1_555
As2 O12 1.844074 1_555
As2 O13 1.844074 1_555
As2 O2 1.873140 1_555
As2 O5 1.873140 1_555
As3 O9 1.776228 1_555
As3 O10 1.776228 1_555
As3 O12 1.844074 1_555
As3 O13 1.844074 1_555
As3 O3 1.873140 1_555
As3 O4 1.873140 1_555
H0 O8 0.980538 1_555
H1 O9 0.980538 1_555
H2 O10 0.980538 1_555
H3 O11 0.980538 1_555
H4 O6 1.027911 1_555
H4 O12 1.490894 1_555
H5 O7 1.027911 1_555
H5 O13 1.490894 1_555
