# generated using pymatgen
data_Nd2Sn4Rh
_symmetry_space_group_name_H-M   'P 1'
_cell_length_a   4.59969500
_cell_length_b   4.59761700
_cell_length_c   9.02342155
_cell_angle_alpha   75.24062154
_cell_angle_beta   90.00000000
_cell_angle_gamma   90.00000000
_symmetry_Int_Tables_number   1
_chemical_formula_structural   Nd2Sn4Rh
_chemical_formula_sum   'Nd2 Sn4 Rh1'
_cell_volume   184.52765189
_cell_formula_units_Z   1
loop_
 _symmetry_equiv_pos_site_id
 _symmetry_equiv_pos_as_xyz
  1  'x, y, z'
loop_
 _atom_site_type_symbol
 _atom_site_label
 _atom_site_symmetry_multiplicity
 _atom_site_fract_x
 _atom_site_fract_y
 _atom_site_fract_z
 _atom_site_occupancy
  Nd  Nd0  1  0.25000000  0.89494600  0.21010700  1
  Nd  Nd1  1  0.75000000  0.10358200  0.79283700  1
  Sn  Sn0  1  0.25000000  0.54243300  0.91513300  1
  Sn  Sn1  1  0.75000000  0.43325000  0.13350000  1
  Sn  Sn2  1  0.25000000  0.26100600  0.47798900  1
  Sn  Sn3  1  0.75000000  0.76028400  0.47943100  1
  Rh  Rh0  1  0.25000000  0.68949900  0.62100200  1
loop_
_geom_bond_atom_site_label_1
_geom_bond_atom_site_label_2
_geom_bond_distance
_geom_bond_site_symmetry_2
Nd0 Sn2 3.278444 1_555
Nd0 Sn2 3.278450 1_565
Nd0 Sn3 3.288156 1_455
Nd0 Sn3 3.288156 1_555
Nd0 Sn1 3.319734 1_455
Nd0 Sn1 3.319734 1_555
Nd0 Sn1 3.319737 1_465
Nd0 Sn1 3.319737 1_565
Nd0 Sn0 3.450975 1_564
Nd0 Sn0 3.450975 1_554
Nd1 Sn0 3.422358 1_555
Nd1 Sn0 3.422358 1_655
Nd1 Sn0 3.422364 1_645
Nd1 Sn0 3.422364 1_545
Nd1 Sn3 3.572532 1_555
Nd1 Sn3 3.572539 1_545
Nd1 Rh0 3.580774 1_655
Nd1 Rh0 3.580774 1_555
Nd1 Rh0 3.580777 1_545
Nd1 Rh0 3.580777 1_645
Nd1 Sn2 3.582843 1_555
Nd1 Sn2 3.582843 1_655
Nd1 Sn1 3.757709 1_556
Nd1 Sn1 3.757712 1_546
Sn0 Sn1 2.986613 1_456
Sn0 Sn1 2.986613 1_556
Rh0 Sn0 2.566495 1_555
Rh0 Sn3 2.610608 1_555
Rh0 Sn3 2.610608 1_455
Rh0 Sn2 2.615670 1_555
Rh0 Sn2 2.615674 1_565
