# generated using pymatgen
data_Mn4Be3Si3SeO12
_symmetry_space_group_name_H-M   'P 1'
_cell_length_a   8.33403105
_cell_length_b   8.33403105
_cell_length_c   8.33403105
_cell_angle_alpha   90.00000000
_cell_angle_beta   90.00000000
_cell_angle_gamma   90.00000000
_symmetry_Int_Tables_number   1
_chemical_formula_structural   Mn4Be3Si3SeO12
_chemical_formula_sum   'Mn8 Be6 Si6 Se2 O24'
_cell_volume   578.84907351
_cell_formula_units_Z   2
loop_
 _symmetry_equiv_pos_site_id
 _symmetry_equiv_pos_as_xyz
  1  'x, y, z'
loop_
 _atom_site_type_symbol
 _atom_site_label
 _atom_site_symmetry_multiplicity
 _atom_site_fract_x
 _atom_site_fract_y
 _atom_site_fract_z
 _atom_site_occupancy
  Mn  Mn0  1  0.67655749  0.67655749  0.67655749  1
  Mn  Mn1  1  0.17655749  0.17655749  0.17655749  1
  Mn  Mn2  1  0.32344251  0.67655749  0.32344251  1
  Mn  Mn3  1  0.32344251  0.32344251  0.67655749  1
  Mn  Mn4  1  0.67655749  0.32344251  0.32344251  1
  Mn  Mn5  1  0.82344251  0.17655749  0.82344251  1
  Mn  Mn6  1  0.17655749  0.82344251  0.82344251  1
  Mn  Mn7  1  0.82344251  0.82344251  0.17655749  1
  Be  Be0  1  0.25000000  0.50000000  -0.00000000  1
  Be  Be1  1  0.50000000  0.00000000  0.75000000  1
  Be  Be2  1  0.50000000  0.00000000  0.25000000  1
  Be  Be3  1  -0.00000000  0.25000000  0.50000000  1
  Be  Be4  1  -0.00000000  0.75000000  0.50000000  1
  Be  Be5  1  0.75000000  0.50000000  -0.00000000  1
  Si  Si0  1  0.75000000  0.00000000  0.50000000  1
  Si  Si1  1  0.25000000  0.00000000  0.50000000  1
  Si  Si2  1  -0.00000000  0.50000000  0.75000000  1
  Si  Si3  1  -0.00000000  0.50000000  0.25000000  1
  Si  Si4  1  0.50000000  0.25000000  -0.00000000  1
  Si  Si5  1  0.50000000  0.75000000  -0.00000000  1
  Se  Se0  1  -0.00000000  0.00000000  -0.00000000  1
  Se  Se1  1  0.50000000  0.50000000  0.50000000  1
  O  O0  1  0.14181694  0.85852588  0.58093085  1
  O  O1  1  0.64181694  0.08093085  0.35852588  1
  O  O2  1  0.91906915  0.64147412  0.64181694  1
  O  O3  1  0.08093085  0.64147412  0.35818306  1
  O  O4  1  0.64147412  0.64181694  0.91906915  1
  O  O5  1  0.35852588  0.35818306  0.91906915  1
  O  O6  1  0.85818306  0.85852588  0.41906915  1
  O  O7  1  0.85818306  0.14147412  0.58093085  1
  O  O8  1  0.64181694  0.91906915  0.64147412  1
  O  O9  1  0.14147412  0.58093085  0.85818306  1
  O  O10  1  0.58093085  0.14181694  0.85852588  1
  O  O11  1  0.58093085  0.85818306  0.14147412  1
  O  O12  1  0.85852588  0.41906915  0.85818306  1
  O  O13  1  0.41906915  0.85818306  0.85852588  1
  O  O14  1  0.14181694  0.14147412  0.41906915  1
  O  O15  1  0.35818306  0.91906915  0.35852588  1
  O  O16  1  0.35818306  0.08093085  0.64147412  1
  O  O17  1  0.85852588  0.58093085  0.14181694  1
  O  O18  1  0.91906915  0.35852588  0.35818306  1
  O  O19  1  0.64147412  0.35818306  0.08093085  1
  O  O20  1  0.35852588  0.64181694  0.08093085  1
  O  O21  1  0.41906915  0.14181694  0.14147412  1
  O  O22  1  0.14147412  0.41906915  0.14181694  1
  O  O23  1  0.08093085  0.35852588  0.64181694  1
loop_
_geom_bond_atom_site_label_1
_geom_bond_atom_site_label_2
_geom_bond_distance
_geom_bond_site_symmetry_2
Mn0 O2 2.062562 1_555
Mn0 O4 2.062562 1_555
Mn0 O8 2.062562 1_555
Mn0 Se1 2.548601 1_555
Mn1 O21 2.062562 1_555
Mn1 O14 2.062562 1_555
Mn1 O22 2.062562 1_555
Mn1 Se0 2.548601 1_555
Mn2 O3 2.062562 1_555
Mn2 O15 2.062562 1_555
Mn2 O20 2.062562 1_555
Mn2 Se1 2.548601 1_555
Mn3 O16 2.062562 1_555
Mn3 O5 2.062562 1_555
Mn3 O23 2.062562 1_555
Mn3 Se1 2.548601 1_555
Mn4 O19 2.062562 1_555
Mn4 O1 2.062562 1_555
Mn4 O18 2.062562 1_555
Mn4 Se1 2.548601 1_555
Mn5 O12 2.062562 1_555
Mn5 O10 2.062562 1_555
Mn5 O7 2.062562 1_555
Mn5 Se0 2.548601 1_656
Mn6 O13 2.062562 1_555
Mn6 O9 2.062562 1_555
Mn6 O0 2.062562 1_555
Mn6 Se0 2.548601 1_566
Mn7 O6 2.062562 1_555
Mn7 O11 2.062562 1_555
Mn7 O17 2.062562 1_555
Mn7 Se0 2.548601 1_665
Be0 O9 1.633974 1_554
Be0 O5 1.633974 1_554
Be0 O20 1.633974 1_555
Be0 O22 1.633974 1_555
Be1 O13 1.633974 1_545
Be1 O16 1.633974 1_555
Be1 O10 1.633974 1_555
Be1 O8 1.633974 1_545
Be2 O21 1.633974 1_555
Be2 O1 1.633974 1_555
Be2 O11 1.633974 1_545
Be2 O15 1.633974 1_545
Be3 O18 1.633974 1_455
Be3 O7 1.633974 1_455
Be3 O14 1.633974 1_555
Be3 O23 1.633974 1_555
Be4 O0 1.633974 1_555
Be4 O6 1.633974 1_455
Be4 O3 1.633974 1_555
Be4 O2 1.633974 1_455
Be5 O19 1.633974 1_555
Be5 O4 1.633974 1_554
Be5 O17 1.633974 1_555
Be5 O12 1.633974 1_554
O0 Si1 1.630327 1_565
O1 Si0 1.630327 1_555
O2 Si2 1.630327 1_655
O3 Si3 1.630327 1_555
O4 Si5 1.630327 1_556
O5 Si4 1.630327 1_556
O6 Si0 1.630327 1_565
O7 Si0 1.630327 1_555
O8 Si0 1.630327 1_565
O9 Si2 1.630327 1_555
O10 Si4 1.630327 1_556
O11 Si5 1.630327 1_555
O12 Si2 1.630327 1_655
O13 Si5 1.630327 1_556
O14 Si1 1.630327 1_555
O15 Si1 1.630327 1_565
O16 Si1 1.630327 1_555
O17 Si3 1.630327 1_655
O18 Si3 1.630327 1_655
O19 Si4 1.630327 1_555
O20 Si5 1.630327 1_555
O21 Si4 1.630327 1_555
O22 Si3 1.630327 1_555
O23 Si2 1.630327 1_555
