# generated using pymatgen
data_HoCo3Cu2
_symmetry_space_group_name_H-M   'P 1'
_cell_length_a   4.06787900
_cell_length_b   4.88165231
_cell_length_c   4.88165200
_cell_angle_alpha   60.00000209
_cell_angle_beta   90.00000000
_cell_angle_gamma   90.00000000
_symmetry_Int_Tables_number   1
_chemical_formula_structural   HoCo3Cu2
_chemical_formula_sum   'Ho1 Co3 Cu2'
_cell_volume   83.95224755
_cell_formula_units_Z   1
loop_
 _symmetry_equiv_pos_site_id
 _symmetry_equiv_pos_as_xyz
  1  'x, y, z'
loop_
 _atom_site_type_symbol
 _atom_site_label
 _atom_site_symmetry_multiplicity
 _atom_site_fract_x
 _atom_site_fract_y
 _atom_site_fract_z
 _atom_site_occupancy
  Ho  Ho0  1  0.00000000  0.00000000  0.00000000  1
  Co  Co0  1  0.50000000  0.00000000  0.50000000  1
  Co  Co1  1  0.50000000  0.50000000  0.50000000  1
  Co  Co2  1  0.50000000  0.50000000  0.00000000  1
  Cu  Cu0  1  0.00000000  0.33333400  0.33333300  1
  Cu  Cu1  1  0.00000000  0.66666600  0.66666700  1
loop_
_geom_bond_atom_site_label_1
_geom_bond_atom_site_label_2
_geom_bond_distance
_geom_bond_site_symmetry_2
Co0 Co1 2.440826 1_545
Co0 Co2 2.440826 1_555
Co0 Co2 2.440826 1_546
Co0 Co1 2.440826 1_555
Co0 Cu0 2.474428 1_555
Co0 Cu0 2.474428 1_655
Co0 Cu1 2.474428 1_545
Co0 Cu1 2.474428 1_645
Co0 Ho0 3.177191 1_655
Co0 Ho0 3.177191 1_656
Co0 Ho0 3.177191 1_555
Co0 Ho0 3.177191 1_556
Co1 Co2 2.440826 1_556
Co1 Co2 2.440826 1_555
Co1 Cu1 2.474426 1_655
Co1 Cu1 2.474426 1_555
Co1 Cu0 2.474426 1_555
Co1 Cu0 2.474426 1_655
Co1 Ho0 3.177191 1_665
Co1 Ho0 3.177191 1_656
Co1 Ho0 3.177191 1_556
Co1 Ho0 3.177191 1_565
Co2 Cu1 2.474426 1_554
Co2 Cu0 2.474426 1_555
Co2 Cu0 2.474426 1_655
Co2 Cu1 2.474426 1_654
Co2 Ho0 3.177191 1_665
Co2 Ho0 3.177191 1_555
Co2 Ho0 3.177191 1_565
Co2 Ho0 3.177191 1_655
Cu0 Ho0 2.818421 1_565
Cu0 Ho0 2.818425 1_555
Cu0 Ho0 2.818425 1_556
Cu1 Ho0 2.818421 1_556
Cu1 Ho0 2.818425 1_565
Cu1 Ho0 2.818425 1_566
