# generated using pymatgen
data_K3Na2SnP3
_symmetry_space_group_name_H-M   'P 1'
_cell_length_a   10.60505973
_cell_length_b   10.60505973
_cell_length_c   15.15119100
_cell_angle_alpha   90.00000000
_cell_angle_beta   90.00000000
_cell_angle_gamma   143.09635649
_symmetry_Int_Tables_number   1
_chemical_formula_structural   K3Na2SnP3
_chemical_formula_sum   'K12 Na8 Sn4 P12'
_cell_volume   1023.21077309
_cell_formula_units_Z   4
loop_
 _symmetry_equiv_pos_site_id
 _symmetry_equiv_pos_as_xyz
  1  'x, y, z'
loop_
 _atom_site_type_symbol
 _atom_site_label
 _atom_site_symmetry_multiplicity
 _atom_site_fract_x
 _atom_site_fract_y
 _atom_site_fract_z
 _atom_site_occupancy
  K  K0  1  0.10274800  0.43670600  0.67680900  1
  K  K1  1  0.74086600  0.74086600  0.68003200  1
  K  K2  1  0.24086600  0.24086600  0.81996800  1
  K  K3  1  0.75913400  0.75913400  0.18003200  1
  K  K4  1  0.93670600  0.60274800  0.82319100  1
  K  K5  1  0.56329400  0.89725200  0.32319100  1
  K  K6  1  0.39725200  0.06329400  0.17680900  1
  K  K7  1  0.06329400  0.39725200  0.17680900  1
  K  K8  1  0.89725200  0.56329400  0.32319100  1
  K  K9  1  0.43670600  0.10274800  0.67680900  1
  K  K10  1  0.60274800  0.93670700  0.82319100  1
  K  K11  1  0.25913400  0.25913400  0.31996800  1
  Na  Na0  1  0.91917500  0.08082500  0.00000000  1
  Na  Na1  1  0.58082500  0.41917500  0.50000000  1
  Na  Na2  1  0.08082500  0.91917500  0.00000000  1
  Na  Na3  1  0.41917500  0.58082500  0.50000000  1
  Na  Na4  1  0.75519300  0.24480700  0.00000000  1
  Na  Na5  1  0.74480700  0.25519300  0.50000000  1
  Na  Na6  1  0.24480700  0.75519300  0.00000000  1
  Na  Na7  1  0.25519300  0.74480700  0.50000000  1
  Sn  Sn0  1  0.08815000  0.91185000  0.50000000  1
  Sn  Sn1  1  0.41185000  0.58815000  0.00000000  1
  Sn  Sn2  1  0.91185000  0.08815000  0.50000000  1
  Sn  Sn3  1  0.58815000  0.41185000  0.00000000  1
  P  P0  1  0.87696600  0.56148800  0.10357600  1
  P  P1  1  0.43851200  0.12303400  0.89642400  1
  P  P2  1  0.62303400  0.93851200  0.60357600  1
  P  P3  1  0.93851200  0.62303400  0.60357600  1
  P  P4  1  0.12303400  0.43851200  0.89642400  1
  P  P5  1  0.56148800  0.87696600  0.10357600  1
  P  P6  1  0.37696600  0.06148800  0.39642400  1
  P  P7  1  0.20337600  0.20337600  0.59243900  1
  P  P8  1  0.70337600  0.70337600  0.90756100  1
  P  P9  1  0.29662400  0.29662400  0.09243900  1
  P  P10  1  0.06148800  0.37696600  0.39642400  1
  P  P11  1  0.79662400  0.79662400  0.40756100  1
loop_
_geom_bond_atom_site_label_1
_geom_bond_atom_site_label_2
_geom_bond_distance
_geom_bond_site_symmetry_2
K0 P4 3.333443 1_555
K0 P2 3.469871 1_445
K0 P2 3.610486 1_555
K0 P7 3.622040 1_555
K0 P3 3.697798 1_455
K1 P7 3.376641 1_665
K1 P2 3.389070 1_555
K1 P3 3.389070 1_555
K1 P8 3.456510 1_555
K2 P8 3.376641 1_555
K2 P4 3.389070 1_555
K2 P1 3.389070 1_555
K2 P7 3.456510 1_555
K3 P9 3.376641 1_555
K3 P0 3.389070 1_555
K3 P5 3.389070 1_555
K3 P11 3.456510 1_555
K4 P3 3.333443 1_555
K4 P1 3.469871 1_555
K4 P1 3.610486 1_665
K4 P8 3.622040 1_555
K4 P4 3.697798 1_655
K5 P5 3.333443 1_555
K5 P10 3.469871 1_665
K5 P10 3.610486 1_555
K5 P11 3.622040 1_555
K5 P6 3.697798 1_565
K6 P6 3.333443 1_555
K6 P0 3.469871 1_555
K6 P0 3.610486 1_445
K6 P9 3.622040 1_555
K6 P5 3.697798 1_545
K7 P10 3.333443 1_555
K7 P5 3.469871 1_555
K7 P5 3.610486 1_445
K7 P9 3.622040 1_555
K7 P0 3.697798 1_455
K8 P0 3.333443 1_555
K8 P6 3.469871 1_665
K8 P6 3.610486 1_555
K8 P11 3.622040 1_555
K8 P10 3.697798 1_655
K9 P1 3.333443 1_555
K9 P3 3.469871 1_445
K9 P3 3.610486 1_555
K9 P7 3.622040 1_555
K9 P2 3.697798 1_545
K10 P2 3.333443 1_555
K10 P4 3.469875 1_555
K10 P4 3.610484 1_665
K10 P8 3.622050 1_555
K10 P1 3.697788 1_565
K11 P11 3.376641 1_445
K11 P6 3.389070 1_555
K11 P10 3.389070 1_555
K11 P9 3.456510 1_555
Na0 P4 2.900028 1_654
Na0 P5 2.900028 1_545
Na0 P9 2.927665 1_655
Na0 P8 2.927665 1_544
Na1 P3 2.900028 1_555
Na1 P6 2.900028 1_555
Na1 P11 2.927665 1_555
Na1 P7 2.927665 1_555
Na2 P0 2.900028 1_455
Na2 P1 2.900028 1_564
Na2 P9 2.927665 1_565
Na2 P8 2.927665 1_454
Na3 P2 2.900028 1_555
Na3 P10 2.900028 1_555
Na3 P11 2.927665 1_555
Na3 P7 2.927665 1_555
Na4 P0 2.910866 1_555
Na4 P1 2.910866 1_554
Na4 P5 3.013999 1_545
Na4 P4 3.013999 1_654
Na5 P2 2.910866 1_545
Na5 P10 2.910866 1_655
Na5 P3 3.013999 1_555
Na5 P6 3.013999 1_555
Na6 P4 2.910866 1_554
Na6 P5 2.910866 1_555
Na6 P0 3.013999 1_455
Na6 P1 3.013999 1_564
Na7 P3 2.910866 1_455
Na7 P6 2.910866 1_565
Na7 P10 3.013999 1_555
Na7 P2 3.013999 1_555
P0 Sn3 2.566890 1_555
P1 Sn3 2.566890 1_556
P2 Sn2 2.566890 1_565
P3 Sn0 2.566890 1_655
P4 Sn1 2.566890 1_556
P5 Sn1 2.566890 1_555
P6 Sn0 2.566890 1_545
P7 Sn2 2.640282 1_455
P7 Sn0 2.640282 1_545
P8 Sn3 2.640282 1_556
P8 Sn1 2.640282 1_556
P9 Sn1 2.640282 1_555
P9 Sn3 2.640282 1_555
P10 Sn2 2.566890 1_455
P11 Sn0 2.640282 1_655
P11 Sn2 2.640282 1_565
