# generated using pymatgen
data_K2Ca2MgH2(SO4)4
_symmetry_space_group_name_H-M   'P 1'
_cell_length_a   6.96354500
_cell_length_b   6.99418040
_cell_length_c   8.93603160
_cell_angle_alpha   100.05423621
_cell_angle_beta   104.62397481
_cell_angle_gamma   113.96657959
_symmetry_Int_Tables_number   1
_chemical_formula_structural   K2Ca2MgH2(SO4)4
_chemical_formula_sum   'K2 Ca2 Mg1 H2 S4 O16'
_cell_volume   365.42374717
_cell_formula_units_Z   1
loop_
 _symmetry_equiv_pos_site_id
 _symmetry_equiv_pos_as_xyz
  1  'x, y, z'
loop_
 _atom_site_type_symbol
 _atom_site_label
 _atom_site_symmetry_multiplicity
 _atom_site_fract_x
 _atom_site_fract_y
 _atom_site_fract_z
 _atom_site_occupancy
  K  K0  1  0.71343500  0.48115400  0.43360000  1
  K  K1  1  0.28656500  0.51884600  0.56640000  1
  Ca  Ca0  1  0.87469700  0.13639000  0.75232500  1
  Ca  Ca1  1  0.12530300  0.86361000  0.24767500  1
  Mg  Mg0  1  0.50000000  0.00000000  0.00000000  1
  H  H0  1  0.46222200  0.66676600  0.91906000  1
  H  H1  1  0.53777800  0.33323400  0.08094000  1
  S  S0  1  0.68718300  0.94661300  0.35782900  1
  S  S1  1  0.31281700  0.05338700  0.64217100  1
  S  S2  1  0.93511000  0.68724600  0.85946900  1
  S  S3  1  0.06489000  0.31275400  0.14053100  1
  O  O0  1  0.17231000  0.87076400  0.95818600  1
  O  O1  1  0.82769000  0.12923600  0.04181400  1
  O  O2  1  0.81052900  0.77144700  0.75134500  1
  O  O3  1  0.18947100  0.22855300  0.24865500  1
  O  O4  1  0.78061100  0.82868000  0.27043800  1
  O  O5  1  0.21938900  0.17132000  0.72956200  1
  O  O6  1  0.51245900  0.97217300  0.23107300  1
  O  O7  1  0.48754100  0.02782700  0.76892700  1
  O  O8  1  0.83062600  0.62301300  0.97937500  1
  O  O9  1  0.16937400  0.37698700  0.02062500  1
  O  O10  1  0.94597500  0.50360800  0.75633600  1
  O  O11  1  0.05402500  0.49639200  0.24366400  1
  O  O12  1  0.57603400  0.82121300  0.45561100  1
  O  O13  1  0.42396600  0.17878700  0.54438900  1
  O  O14  1  0.13791900  0.82961500  0.53179600  1
  O  O15  1  0.86208100  0.17038500  0.46820400  1
loop_
_geom_bond_atom_site_label_1
_geom_bond_atom_site_label_2
_geom_bond_distance
_geom_bond_site_symmetry_2
K0 O14 2.745579 1_655
K0 O13 2.791277 1_555
K0 O15 2.791478 1_555
K0 O10 2.870761 1_555
K0 O12 2.896819 1_555
K0 O2 2.923022 1_555
K0 O4 2.985101 1_555
K0 O3 3.140705 1_555
K0 O6 3.214173 1_545
K0 O11 3.226077 1_655
K1 O15 2.745579 1_455
K1 O12 2.791277 1_555
K1 O14 2.791478 1_555
K1 O11 2.870761 1_555
K1 O13 2.896819 1_555
K1 O3 2.923022 1_555
K1 O5 2.985101 1_555
K1 O2 3.140705 1_555
K1 O7 3.214173 1_565
K1 O10 3.226077 1_455
Ca0 O5 2.376949 1_655
Ca0 O10 2.401556 1_555
Ca0 O2 2.403854 1_545
Ca0 O9 2.468283 1_656
Ca0 O7 2.538718 1_555
Ca0 O15 2.573996 1_555
Ca0 O1 2.694640 1_556
Ca0 O12 2.768592 1_545
Ca1 O4 2.376949 1_455
Ca1 O11 2.401556 1_555
Ca1 O3 2.403854 1_565
Ca1 O8 2.468283 1_454
Ca1 O6 2.538718 1_555
Ca1 O14 2.573996 1_555
Ca1 O0 2.694640 1_554
Ca1 O13 2.768592 1_565
Mg0 O0 1.984822 1_544
Mg0 O1 1.984822 1_555
Mg0 O6 2.091100 1_545
Mg0 O7 2.091100 1_554
H0 Mg0 2.200388 1_566
H0 K1 2.895657 1_555
H1 Mg0 2.200388 1_555
H1 K0 2.895657 1_555
O0 S2 1.516734 1_455
O1 S3 1.516734 1_655
O2 S2 1.491124 1_555
O3 S3 1.491124 1_555
O4 S0 1.476851 1_555
O5 S1 1.476851 1_555
O6 S0 1.531936 1_555
O7 S1 1.531936 1_555
O8 S2 1.474943 1_555
O9 S3 1.474943 1_555
O10 S2 1.485126 1_555
O11 S3 1.485126 1_555
O12 S0 1.479661 1_555
O13 S1 1.479661 1_555
O14 S1 1.487122 1_565
O15 S0 1.487122 1_545
