# generated using pymatgen
data_LiFePO4
_symmetry_space_group_name_H-M   'P 1'
_cell_length_a   4.94256003
_cell_length_b   7.46420302
_cell_length_c   9.24799107
_cell_angle_alpha   89.99450866
_cell_angle_beta   89.98742935
_cell_angle_gamma   89.99719656
_symmetry_Int_Tables_number   1
_chemical_formula_structural   LiFePO4
_chemical_formula_sum   'Li4 Fe4 P4 O16'
_cell_volume   341.17938691
_cell_formula_units_Z   4
loop_
 _symmetry_equiv_pos_site_id
 _symmetry_equiv_pos_as_xyz
  1  'x, y, z'
loop_
 _atom_site_type_symbol
 _atom_site_label
 _atom_site_symmetry_multiplicity
 _atom_site_fract_x
 _atom_site_fract_y
 _atom_site_fract_z
 _atom_site_occupancy
  Li  Li0  1  0.91787100  0.13022500  0.01753700  1
  Li  Li1  1  0.08205300  0.63025300  0.48244500  1
  Li  Li2  1  0.58205600  0.86961400  0.51750700  1
  Li  Li3  1  0.41793500  0.36964400  0.98254400  1
  Fe  Fe0  1  0.17176800  0.23144900  0.62501500  1
  Fe  Fe1  1  0.82873400  0.73127200  0.87468700  1
  Fe  Fe2  1  0.32902000  0.76866400  0.12529600  1
  Fe  Fe3  1  0.67112200  0.26871200  0.37456000  1
  P  P0  1  0.86547400  0.50215600  0.16239500  1
  P  P1  1  0.13432600  0.00214400  0.33762300  1
  P  P2  1  0.63444400  0.49786600  0.66242300  1
  P  P3  1  0.36570800  0.99783800  0.83763600  1
  O  O0  1  0.71150200  0.66846000  0.09735700  1
  O  O1  1  0.28827400  0.16848000  0.40260800  1
  O  O2  1  0.78837900  0.33152800  0.59741500  1
  O  O3  1  0.21160400  0.83150600  0.90263600  1
  O  O4  1  0.72428200  0.32292900  0.12220600  1
  O  O5  1  0.27568200  0.82301100  0.37783600  1
  O  O6  1  0.77568200  0.67704100  0.62216200  1
  O  O7  1  0.22437900  0.17695200  0.87783400  1
  O  O8  1  0.15739400  0.51421000  0.10248100  1
  O  O9  1  0.84237300  0.01417100  0.39768800  1
  O  O10  1  0.34261400  0.48584000  0.60241700  1
  O  O11  1  0.65776900  0.98583000  0.89761800  1
  O  O12  1  0.14217400  0.00900300  0.16964600  1
  O  O13  1  0.85747700  0.50898000  0.33033800  1
  O  O14  1  0.35783300  0.99111600  0.66968700  1
  O  O15  1  0.64207300  0.49110400  0.83040200  1
loop_
_geom_bond_atom_site_label_1
_geom_bond_atom_site_label_2
_geom_bond_distance
_geom_bond_site_symmetry_2
Li0 O4 1.980193 1_555
Li0 O12 2.006720 1_655
Li0 O11 2.011274 1_544
Li0 O7 2.021131 1_654
Li1 O5 1.980243 1_555
Li1 O13 2.007795 1_455
Li1 O10 2.012886 1_555
Li1 O6 2.020802 1_455
Li2 O6 1.979578 1_555
Li2 O14 2.007686 1_555
Li2 O9 2.011667 1_565
Li2 O5 2.020754 1_555
Li3 O7 1.980508 1_555
Li3 O15 2.006994 1_555
Li3 O8 2.013058 1_556
Li3 O4 2.020676 1_556
Fe0 O2 2.052789 1_455
Fe0 O14 2.057748 1_545
Fe0 O10 2.088602 1_555
Fe0 O1 2.186925 1_555
Fe0 O7 2.387409 1_555
Fe1 O3 2.051334 1_655
Fe1 O15 2.057425 1_555
Fe1 O11 2.090245 1_555
Fe1 O0 2.189835 1_556
Fe1 O6 2.384728 1_555
Fe2 O0 2.049299 1_555
Fe2 O12 2.058907 1_565
Fe2 O8 2.090866 1_555
Fe2 O3 2.190264 1_554
Fe2 O5 2.385049 1_555
Fe3 O1 2.051221 1_555
Fe3 O13 2.057133 1_555
Fe3 O9 2.090887 1_555
Fe3 O2 2.191806 1_555
Fe3 O4 2.383031 1_555
O0 P0 1.575363 1_555
O1 P1 1.575457 1_555
O2 P2 1.575333 1_555
O3 P3 1.575640 1_555
O4 P0 1.554061 1_555
O5 P1 1.553754 1_565
O6 P2 1.553854 1_555
O7 P3 1.553527 1_545
O8 P0 1.548070 1_455
O9 P1 1.548709 1_655
O10 P2 1.548181 1_555
O11 P3 1.549143 1_555
O12 P1 1.554764 1_555
O13 P0 1.554469 1_555
O14 P3 1.554502 1_555
O15 P2 1.554749 1_555
