# generated using pymatgen
data_K23(Sn3Au4)3
_symmetry_space_group_name_H-M   'P 1'
_cell_length_a   15.32932302
_cell_length_b   15.32932302
_cell_length_c   15.32932302
_cell_angle_alpha   92.98731994
_cell_angle_beta   92.98731994
_cell_angle_gamma   153.60751880
_symmetry_Int_Tables_number   1
_chemical_formula_structural   K23(Sn3Au4)3
_chemical_formula_sum   'K23 Sn9 Au12'
_cell_volume   1558.96281896
_cell_formula_units_Z   1
loop_
 _symmetry_equiv_pos_site_id
 _symmetry_equiv_pos_as_xyz
  1  'x, y, z'
loop_
 _atom_site_type_symbol
 _atom_site_label
 _atom_site_symmetry_multiplicity
 _atom_site_fract_x
 _atom_site_fract_y
 _atom_site_fract_z
 _atom_site_occupancy
  K  K0  1  0.29537000  0.08153200  0.86961200  1
  K  K1  1  0.21192000  0.42575800  0.13038800  1
  K  K2  1  0.70463000  0.57424200  0.78616100  1
  K  K3  1  0.78808000  0.91846800  0.21383900  1
  K  K4  1  0.91846800  0.78808000  0.21383900  1
  K  K5  1  0.57424200  0.70463000  0.78616100  1
  K  K6  1  0.08153200  0.29537000  0.86961200  1
  K  K7  1  0.42575800  0.21192000  0.13038800  1
  K  K8  1  0.86363600  0.62114800  0.56077300  1
  K  K9  1  0.06037500  0.30286300  0.43922700  1
  K  K10  1  0.13636400  0.69713700  0.75751200  1
  K  K11  1  0.93962500  0.37885200  0.24248800  1
  K  K12  1  0.37885200  0.93962500  0.24248800  1
  K  K13  1  0.69713700  0.13636400  0.75751200  1
  K  K14  1  0.62114800  0.86363600  0.56077300  1
  K  K15  1  0.30286300  0.06037500  0.43922700  1
  K  K16  1  0.00000000  0.00000000  0.00000000  1
  K  K17  1  0.42508600  0.42508600  0.56468700  1
  K  K18  1  0.86040000  0.86040000  0.43531300  1
  K  K19  1  0.57491400  0.13960000  0.00000000  1
  K  K20  1  0.13960000  0.57491400  0.00000000  1
  K  K21  1  0.75000000  0.25000000  0.50000000  1
  K  K22  1  0.25000000  0.75000000  0.50000000  1
  Sn  Sn0  1  0.50000000  0.50000000  0.00000000  1
  Sn  Sn1  1  0.98095000  0.98095000  0.67098700  1
  Sn  Sn2  1  0.30996400  0.30996400  0.32901300  1
  Sn  Sn3  1  0.01905000  0.69003600  0.00000000  1
  Sn  Sn4  1  0.69003600  0.01905000  0.00000000  1
  Sn  Sn5  1  0.50000000  0.16961900  0.66961900  1
  Sn  Sn6  1  0.50000000  0.83038100  0.33038100  1
  Sn  Sn7  1  0.83038100  0.50000000  0.33038100  1
  Sn  Sn8  1  0.16961900  0.50000000  0.66961900  1
  Au  Au0  1  0.23649000  0.23649000  0.83478500  1
  Au  Au1  1  0.40170500  0.40170500  0.16521500  1
  Au  Au2  1  0.76351000  0.59829500  0.00000000  1
  Au  Au3  1  0.59829500  0.76351000  0.00000000  1
  Au  Au4  1  0.25860700  0.09859700  0.65716500  1
  Au  Au5  1  0.44143300  0.60144200  0.34283500  1
  Au  Au6  1  0.74139300  0.39855800  0.83999000  1
  Au  Au7  1  0.55856700  0.90140300  0.16001000  1
  Au  Au8  1  0.90140300  0.55856700  0.16001000  1
  Au  Au9  1  0.39855800  0.74139300  0.83999000  1
  Au  Au10  1  0.09859700  0.25860700  0.65716500  1
  Au  Au11  1  0.60144200  0.44143300  0.34283500  1
loop_
_geom_bond_atom_site_label_1
_geom_bond_atom_site_label_2
_geom_bond_distance
_geom_bond_site_symmetry_2
K0 Sn3 3.813681 1_546
K1 Sn4 3.813681 1_455
K2 Sn1 3.813663 1_555
K3 Sn2 3.813673 1_665
K4 Sn2 3.813673 1_665
K5 Sn1 3.813663 1_555
K6 Sn4 3.813681 1_456
K7 Sn3 3.813681 1_545
K8 Sn7 3.689807 1_555
K8 Sn5 3.849100 1_555
K9 Sn8 3.689807 1_555
K9 Sn6 3.849100 1_445
K10 Sn8 3.689807 1_555
K10 Sn5 3.849100 1_565
K11 Sn7 3.689807 1_555
K11 Sn6 3.849100 1_655
K12 Sn6 3.689807 1_555
K12 Sn7 3.849100 1_565
K13 Sn5 3.689807 1_555
K13 Sn8 3.849100 1_655
K14 Sn6 3.689807 1_555
K14 Sn8 3.849100 1_555
K15 Sn5 3.689807 1_555
K15 Sn7 3.849100 1_445
K16 Sn0 3.499485 1_445
K16 Sn0 3.499485 1_555
K17 Sn2 3.517376 1_555
K17 Sn1 3.859613 1_555
K18 Sn1 3.517376 1_555
K18 Sn2 3.859613 1_665
K19 Sn4 3.517346 1_555
K19 Sn3 3.859613 1_545
K20 Sn3 3.517346 1_555
K20 Sn4 3.859613 1_455
K21 K22 3.499485 1_655
K21 K22 3.499485 1_545
K21 Sn5 3.984775 1_555
K21 Sn8 3.984775 1_655
K21 Sn7 3.984775 1_555
K21 Sn6 3.984775 1_545
K22 Sn5 3.984775 1_565
K22 Sn8 3.984775 1_555
K22 Sn7 3.984775 1_455
K22 Sn6 3.984775 1_555
Au0 Sn1 2.730034 1_445
Au0 Sn0 2.771831 1_556
Au0 K0 3.265772 1_555
Au0 K6 3.265772 1_555
Au0 K16 3.326834 1_556
Au0 K2 3.640845 1_555
Au0 K5 3.640845 1_555
Au1 Sn2 2.730031 1_555
Au1 Sn0 2.771831 1_555
Au1 K1 3.265772 1_555
Au1 K7 3.265772 1_555
Au1 K16 3.326834 1_555
Au1 K3 3.640840 1_555
Au1 K4 3.640840 1_555
Au2 Sn3 2.730046 1_655
Au2 Sn0 2.771831 1_555
Au2 K4 3.265786 1_555
Au2 K2 3.265787 1_554
Au2 K16 3.326834 1_665
Au2 K7 3.640839 1_555
Au2 K0 3.640839 1_554
Au3 Sn4 2.730046 1_565
Au3 Sn0 2.771831 1_555
Au3 K3 3.265786 1_555
Au3 K5 3.265787 1_554
Au3 K16 3.326834 1_665
Au3 K6 3.640839 1_554
Au3 K1 3.640839 1_555
Au4 Sn5 2.757136 1_555
Au4 Sn1 2.792008 1_445
Au4 K8 3.310564 1_445
Au4 K0 3.339690 1_555
Au4 K2 3.405382 1_555
Au4 K17 3.435876 1_555
Au4 K15 3.564984 1_555
Au5 Sn6 2.757149 1_555
Au5 Sn2 2.791993 1_555
Au5 K9 3.310572 1_555
Au5 K1 3.339694 1_555
Au5 K3 3.405372 1_555
Au5 K18 3.435868 1_555
Au5 K14 3.564988 1_555
Au6 Sn5 2.757136 1_555
Au6 Sn3 2.792005 1_656
Au6 K10 3.310564 1_655
Au6 K2 3.339694 1_555
Au6 K0 3.405388 1_555
Au6 K19 3.435884 1_556
Au6 K13 3.564984 1_555
Au7 Sn6 2.757136 1_555
Au7 Sn4 2.792008 1_565
Au7 K11 3.310560 1_565
Au7 K3 3.339708 1_555
Au7 K1 3.405393 1_555
Au7 K20 3.435876 1_555
Au7 K12 3.564969 1_555
Au8 Sn7 2.757136 1_555
Au8 Sn3 2.792008 1_655
Au8 K12 3.310560 1_655
Au8 K4 3.339708 1_555
Au8 K7 3.405393 1_555
Au8 K19 3.435876 1_555
Au8 K11 3.564969 1_555
Au9 Sn8 2.757136 1_555
Au9 Sn4 2.792005 1_566
Au9 K13 3.310564 1_565
Au9 K5 3.339694 1_555
Au9 K6 3.405388 1_555
Au9 K20 3.435884 1_556
Au9 K10 3.564984 1_555
Au10 Sn8 2.757136 1_555
Au10 Sn1 2.792008 1_445
Au10 K14 3.310564 1_445
Au10 K6 3.339690 1_555
Au10 K5 3.405382 1_555
Au10 K17 3.435876 1_555
Au10 K9 3.564984 1_555
Au11 Sn7 2.757149 1_555
Au11 Sn2 2.791993 1_555
Au11 K15 3.310572 1_555
Au11 K7 3.339694 1_555
Au11 K4 3.405372 1_555
Au11 K18 3.435868 1_555
Au11 K8 3.564988 1_555
