# generated using pymatgen
data_K2FeI4
_symmetry_space_group_name_H-M   'P 1'
_cell_length_a   8.24886383
_cell_length_b   7.78895219
_cell_length_c   9.64617123
_cell_angle_alpha   71.76274975
_cell_angle_beta   90.00000000
_cell_angle_gamma   90.00000000
_symmetry_Int_Tables_number   1
_chemical_formula_structural   K2FeI4
_chemical_formula_sum   'K4 Fe2 I8'
_cell_volume   588.63493479
_cell_formula_units_Z   2
loop_
 _symmetry_equiv_pos_site_id
 _symmetry_equiv_pos_as_xyz
  1  'x, y, z'
loop_
 _atom_site_type_symbol
 _atom_site_label
 _atom_site_symmetry_multiplicity
 _atom_site_fract_x
 _atom_site_fract_y
 _atom_site_fract_z
 _atom_site_occupancy
  K  K0  1  0.75000000  0.78757081  0.55137278  1
  K  K1  1  0.25000000  0.21242919  0.44862722  1
  K  K2  1  0.75000000  0.75235806  0.06399406  1
  K  K3  1  0.25000000  0.24764194  0.93600594  1
  Fe  Fe0  1  0.75000000  0.23366496  0.69686504  1
  Fe  Fe1  1  0.25000000  0.76633504  0.30313496  1
  I  I0  1  0.75000000  0.40494160  0.41717696  1
  I  I1  1  0.25000000  0.59505840  0.58282304  1
  I  I2  1  0.00071126  -0.00522911  0.24314789  1
  I  I3  1  -0.00071126  0.00522911  0.75685211  1
  I  I4  1  0.50071126  0.00522911  0.75685211  1
  I  I5  1  0.49928874  -0.00522911  0.24314789  1
  I  I6  1  0.75000000  0.41795809  0.88146289  1
  I  I7  1  0.25000000  0.58204191  0.11853711  1
loop_
_geom_bond_atom_site_label_1
_geom_bond_atom_site_label_2
_geom_bond_distance
_geom_bond_site_symmetry_2
Fe0 I0 2.608781 1_555
Fe0 I6 2.613642 1_555
Fe0 I3 2.661731 1_655
Fe0 I4 2.661731 1_555
Fe1 I1 2.608781 1_555
Fe1 I7 2.613642 1_555
Fe1 I2 2.661731 1_565
Fe1 I5 2.661731 1_565
I0 K0 3.601725 1_555
I0 K2 3.627531 1_555
I1 K1 3.601725 1_555
I1 K3 3.627531 1_555
I2 K0 3.566244 1_445
I2 K2 3.587599 1_445
I2 K1 3.624171 1_555
I2 K3 3.637764 1_554
I3 K1 3.566244 1_555
I3 K3 3.587599 1_555
I3 K0 3.624171 1_445
I3 K2 3.637764 1_446
I4 K1 3.566244 1_555
I4 K3 3.587599 1_555
I4 K0 3.624171 1_545
I4 K2 3.637764 1_546
I5 K0 3.566244 1_545
I5 K2 3.587599 1_545
I5 K1 3.624171 1_555
I5 K3 3.637764 1_554
I6 K0 3.562174 1_555
I6 K2 3.571366 1_556
I7 K1 3.562174 1_555
I7 K3 3.571366 1_554
