# generated using pymatgen
data_CaMnP2O7
_symmetry_space_group_name_H-M   'P 1'
_cell_length_a   6.63549700
_cell_length_b   6.66743473
_cell_length_c   6.81939865
_cell_angle_alpha   66.25575965
_cell_angle_beta   86.17902578
_cell_angle_gamma   82.36933346
_symmetry_Int_Tables_number   1
_chemical_formula_structural   CaMnP2O7
_chemical_formula_sum   'Ca2 Mn2 P4 O14'
_cell_volume   273.68920756
_cell_formula_units_Z   2
loop_
 _symmetry_equiv_pos_site_id
 _symmetry_equiv_pos_as_xyz
  1  'x, y, z'
loop_
 _atom_site_type_symbol
 _atom_site_label
 _atom_site_symmetry_multiplicity
 _atom_site_fract_x
 _atom_site_fract_y
 _atom_site_fract_z
 _atom_site_occupancy
  Ca  Ca0  1  0.85787700  0.27442700  0.16968700  1
  Ca  Ca1  1  0.14212300  0.72557300  0.83031300  1
  Mn  Mn0  1  0.65047400  0.10332400  0.76723800  1
  Mn  Mn1  1  0.34952600  0.89667600  0.23276200  1
  P  P0  1  0.14580000  0.22848300  0.74831800  1
  P  P1  1  0.85420000  0.77151700  0.25168200  1
  P  P2  1  0.63080600  0.64039100  0.67196500  1
  P  P3  1  0.36919400  0.35960900  0.32803500  1
  O  O0  1  0.77335000  0.60930400  0.47917600  1
  O  O1  1  0.22665000  0.39069600  0.52082400  1
  O  O2  1  0.98094200  0.10270500  0.71561100  1
  O  O3  1  0.01905800  0.89729500  0.28438900  1
  O  O4  1  0.58200400  0.25916400  0.42295000  1
  O  O5  1  0.41799600  0.74083600  0.57705000  1
  O  O6  1  0.36925800  0.59649600  0.15957200  1
  O  O7  1  0.63074200  0.40350400  0.84042800  1
  O  O8  1  0.93045800  0.61878600  0.14049600  1
  O  O9  1  0.06954200  0.38121400  0.85950400  1
  O  O10  1  0.67444900  0.94719300  0.13814100  1
  O  O11  1  0.32555100  0.05280700  0.86185900  1
  O  O12  1  0.26603200  0.20906500  0.25756300  1
  O  O13  1  0.73396800  0.79093500  0.74243700  1
loop_
_geom_bond_atom_site_label_1
_geom_bond_atom_site_label_2
_geom_bond_distance
_geom_bond_site_symmetry_2
Ca0 O8 2.335802 1_555
Ca0 O9 2.368686 1_654
Ca0 O4 2.414691 1_555
Ca0 O3 2.427303 1_645
Ca0 O7 2.569854 1_554
Ca0 O10 2.721420 1_545
Ca0 O12 2.752550 1_655
Ca1 O9 2.335802 1_555
Ca1 O8 2.368686 1_456
Ca1 O5 2.414691 1_555
Ca1 O2 2.427303 1_465
Ca1 O6 2.569854 1_556
Ca1 O11 2.721420 1_565
Ca1 O13 2.752550 1_455
Mn0 O13 2.153713 1_545
Mn0 O2 2.197339 1_555
Mn0 O4 2.202410 1_555
Mn0 O7 2.235650 1_555
Mn0 O11 2.238453 1_555
Mn0 O10 2.322878 1_546
Mn1 O12 2.153713 1_565
Mn1 O3 2.197339 1_555
Mn1 O5 2.202410 1_555
Mn1 O6 2.235650 1_555
Mn1 O10 2.238453 1_555
Mn1 O11 2.322878 1_564
O0 P1 1.598832 1_555
O0 P2 1.633307 1_555
O1 P0 1.598832 1_555
O1 P3 1.633307 1_555
O2 P0 1.541575 1_655
O3 P1 1.541575 1_455
O4 P3 1.543719 1_555
O5 P2 1.543719 1_555
O6 P3 1.534039 1_555
O7 P2 1.534039 1_555
O8 P1 1.517149 1_555
O9 P0 1.517149 1_555
O10 P1 1.554286 1_555
O11 P0 1.554286 1_555
O12 P3 1.523750 1_555
O13 P2 1.523750 1_555
