# generated using pymatgen
data_Tl3V(SeS)2
_symmetry_space_group_name_H-M   'P 1'
_cell_length_a   7.80280198
_cell_length_b   6.77598162
_cell_length_c   6.74181486
_cell_angle_alpha   70.51059748
_cell_angle_beta   54.94957201
_cell_angle_gamma   54.53983051
_symmetry_Int_Tables_number   1
_chemical_formula_structural   Tl3V(SeS)2
_chemical_formula_sum   'Tl3 V1 Se2 S2'
_cell_volume   237.68258967
_cell_formula_units_Z   1
loop_
 _symmetry_equiv_pos_site_id
 _symmetry_equiv_pos_as_xyz
  1  'x, y, z'
loop_
 _atom_site_type_symbol
 _atom_site_label
 _atom_site_symmetry_multiplicity
 _atom_site_fract_x
 _atom_site_fract_y
 _atom_site_fract_z
 _atom_site_occupancy
  Tl  Tl0  1  0.49459400  0.00540600  0.00540600  1
  Tl  Tl1  1  0.99459400  0.50540600  0.50540600  1
  Tl  Tl2  1  0.50470000  0.49530000  0.49530000  1
  V  V0  1  0.99415400  0.00584600  0.00584600  1
  Se  Se0  1  0.99903100  0.66180700  0.00096900  1
  Se  Se1  1  0.33819300  0.00096900  0.66180700  1
  S  S0  1  0.99814600  0.00185400  0.32341100  1
  S  S1  1  0.67658900  0.32341100  0.00185400  1
loop_
_geom_bond_atom_site_label_1
_geom_bond_atom_site_label_2
_geom_bond_distance
_geom_bond_site_symmetry_2
Se0 V0 2.320304 1_565
Se0 Tl0 3.192546 1_565
Se0 Tl1 3.192546 1_555
Se0 Tl2 3.227162 1_654
Se1 V0 2.320304 1_456
Se1 Tl1 3.192546 1_455
Se1 Tl0 3.192546 1_556
Se1 Tl2 3.227162 1_545
S0 V0 2.149979 1_555
S0 Tl2 3.141748 1_555
S0 Tl0 3.183901 1_655
S0 Tl1 3.183901 1_545
S1 V0 2.149979 1_555
S1 Tl2 3.141748 1_555
S1 Tl1 3.183901 1_554
S1 Tl0 3.183901 1_555
