# generated using pymatgen
data_YCuSb2
_symmetry_space_group_name_H-M   'P 1'
_cell_length_a   4.29677066
_cell_length_b   4.29677066
_cell_length_c   9.89177612
_cell_angle_alpha   90.00000000
_cell_angle_beta   90.00000000
_cell_angle_gamma   90.00000000
_symmetry_Int_Tables_number   1
_chemical_formula_structural   YCuSb2
_chemical_formula_sum   'Y2 Cu2 Sb4'
_cell_volume   182.62432601
_cell_formula_units_Z   2
loop_
 _symmetry_equiv_pos_site_id
 _symmetry_equiv_pos_as_xyz
  1  'x, y, z'
loop_
 _atom_site_type_symbol
 _atom_site_label
 _atom_site_symmetry_multiplicity
 _atom_site_fract_x
 _atom_site_fract_y
 _atom_site_fract_z
 _atom_site_occupancy
  Y  Y0  1  0.75000000  0.75000000  0.75302615  1
  Y  Y1  1  0.25000000  0.25000000  0.24697385  1
  Cu  Cu0  1  0.25000000  0.75000000  0.50000000  1
  Cu  Cu1  1  0.75000000  0.25000000  0.50000000  1
  Sb  Sb0  1  0.75000000  0.25000000  0.00000000  1
  Sb  Sb1  1  0.25000000  0.75000000  0.00000000  1
  Sb  Sb2  1  0.25000000  0.25000000  0.65678937  1
  Sb  Sb3  1  0.75000000  0.75000000  0.34321063  1
loop_
_geom_bond_atom_site_label_1
_geom_bond_atom_site_label_2
_geom_bond_distance
_geom_bond_site_symmetry_2
Cu0 Sb3 2.649704 1_555
Cu0 Sb3 2.649704 1_455
Cu0 Sb2 2.649704 1_555
Cu0 Sb2 2.649704 1_565
Cu0 Cu1 3.038276 1_555
Cu0 Cu1 3.038276 1_465
Cu0 Cu1 3.038276 1_455
Cu0 Cu1 3.038276 1_565
Cu0 Y0 3.298478 1_555
Cu0 Y1 3.298478 1_555
Cu0 Y1 3.298478 1_565
Cu0 Y0 3.298478 1_455
Cu1 Sb3 2.649704 1_545
Cu1 Sb3 2.649704 1_555
Cu1 Sb2 2.649704 1_555
Cu1 Sb2 2.649704 1_655
Cu1 Y0 3.298478 1_555
Cu1 Y0 3.298478 1_545
Cu1 Y1 3.298478 1_555
Cu1 Y1 3.298478 1_655
Sb0 Sb1 3.038276 1_555
Sb0 Sb1 3.038276 1_545
Sb0 Sb1 3.038276 1_645
Sb0 Sb1 3.038276 1_655
Sb0 Y1 3.253284 1_555
Sb0 Y1 3.253284 1_655
Sb0 Y0 3.253284 1_544
Sb0 Y0 3.253284 1_554
Sb1 Y1 3.253284 1_565
Sb1 Y1 3.253284 1_555
Sb1 Y0 3.253284 1_454
Sb1 Y0 3.253284 1_554
Sb2 Y0 3.183918 1_445
Sb2 Y0 3.183918 1_545
Sb2 Y0 3.183918 1_455
Sb2 Y0 3.183918 1_555
Sb3 Y1 3.183918 1_665
Sb3 Y1 3.183918 1_555
Sb3 Y1 3.183918 1_655
Sb3 Y1 3.183918 1_565
