# generated using pymatgen
data_Ba2YbCu3O7
_symmetry_space_group_name_H-M   'P 1'
_cell_length_a   3.83803500
_cell_length_b   3.87561800
_cell_length_c   11.88327500
_cell_angle_alpha   90.00000000
_cell_angle_beta   90.00000000
_cell_angle_gamma   90.00000000
_symmetry_Int_Tables_number   1
_chemical_formula_structural   Ba2YbCu3O7
_chemical_formula_sum   'Ba2 Yb1 Cu3 O7'
_cell_volume   176.76083429
_cell_formula_units_Z   1
loop_
 _symmetry_equiv_pos_site_id
 _symmetry_equiv_pos_as_xyz
  1  'x, y, z'
loop_
 _atom_site_type_symbol
 _atom_site_label
 _atom_site_symmetry_multiplicity
 _atom_site_fract_x
 _atom_site_fract_y
 _atom_site_fract_z
 _atom_site_occupancy
  Ba  Ba0  1  0.50000000  0.50000000  0.18861900  1
  Ba  Ba1  1  0.50000000  0.50000000  0.81138100  1
  Yb  Yb0  1  0.50000000  0.50000000  0.50000000  1
  Cu  Cu0  1  0.00000000  0.00000000  0.35698800  1
  Cu  Cu1  1  0.00000000  0.00000000  0.64301200  1
  Cu  Cu2  1  0.00000000  0.00000000  0.00000000  1
  O  O0  1  0.50000000  0.00000000  0.37535500  1
  O  O1  1  0.50000000  0.00000000  0.62464500  1
  O  O2  1  0.00000000  0.50000000  0.37407900  1
  O  O3  1  0.00000000  0.50000000  0.62592100  1
  O  O4  1  0.00000000  0.00000000  0.15674900  1
  O  O5  1  0.00000000  0.00000000  0.84325100  1
  O  O6  1  0.00000000  0.50000000  0.00000000  1
loop_
_geom_bond_atom_site_label_1
_geom_bond_atom_site_label_2
_geom_bond_distance
_geom_bond_site_symmetry_2
Ba0 O4 2.753391 1_555
Ba0 O4 2.753391 1_655
Ba0 O4 2.753391 1_665
Ba0 O4 2.753391 1_565
Ba0 O2 2.922273 1_555
Ba0 O2 2.922273 1_655
Ba0 O0 2.946052 1_555
Ba0 O0 2.946052 1_565
Ba0 O6 2.950687 1_555
Ba0 O6 2.950687 1_655
Ba1 O5 2.753391 1_655
Ba1 O5 2.753391 1_565
Ba1 O5 2.753391 1_665
Ba1 O5 2.753391 1_555
Ba1 O3 2.922273 1_555
Ba1 O3 2.922273 1_655
Ba1 O1 2.946052 1_555
Ba1 O1 2.946052 1_565
Ba1 O6 2.950687 1_556
Ba1 O6 2.950687 1_656
Cu0 O0 1.931390 1_455
Cu0 O0 1.931390 1_555
Cu0 O2 1.948423 1_555
Cu0 O2 1.948423 1_545
Cu0 O4 2.379495 1_555
Cu1 O1 1.931390 1_555
Cu1 O1 1.931390 1_455
Cu1 O3 1.948423 1_545
Cu1 O3 1.948423 1_555
Cu1 O5 2.379495 1_555
Cu2 O4 1.862691 1_555
Cu2 O5 1.862691 1_554
Cu2 O6 1.937809 1_545
Cu2 O6 1.937809 1_555
O0 Yb0 2.439063 1_555
O0 Yb0 2.439063 1_545
O1 Yb0 2.439063 1_555
O1 Yb0 2.439063 1_545
O2 Yb0 2.433455 1_455
O2 Yb0 2.433455 1_555
O3 Yb0 2.433455 1_455
O3 Yb0 2.433455 1_555
