# generated using pymatgen
data_YCo4B
_symmetry_space_group_name_H-M   'P 1'
_cell_length_a   4.99161218
_cell_length_b   4.99308264
_cell_length_c   3.50456100
_cell_angle_alpha   90.00000000
_cell_angle_beta   90.00000000
_cell_angle_gamma   119.99023949
_symmetry_Int_Tables_number   1
_chemical_formula_structural   YCo4B
_chemical_formula_sum   'Y1 Co4 B1'
_cell_volume   75.65132701
_cell_formula_units_Z   1
loop_
 _symmetry_equiv_pos_site_id
 _symmetry_equiv_pos_as_xyz
  1  'x, y, z'
loop_
 _atom_site_type_symbol
 _atom_site_label
 _atom_site_symmetry_multiplicity
 _atom_site_fract_x
 _atom_site_fract_y
 _atom_site_fract_z
 _atom_site_occupancy
  Y  Y0  1  0.00002000  0.00004100  0.00000000  1
  Co  Co0  1  0.49107700  0.98211300  0.50000000  1
  Co  Co1  1  0.49121200  0.50903100  0.50000000  1
  Co  Co2  1  0.01779700  0.50900000  0.50000000  1
  Co  Co3  1  0.66647800  0.33303300  0.00000000  1
  B  B0  1  0.33331700  0.66678200  0.00000000  1
loop_
_geom_bond_atom_site_label_1
_geom_bond_atom_site_label_2
_geom_bond_distance
_geom_bond_site_symmetry_2
Co0 Co3 2.318086 1_565
Co0 Co3 2.318086 1_566
Co0 Co1 2.362474 1_555
Co0 Co2 2.362710 1_555
Co0 Co2 2.630375 1_665
Co0 Co1 2.630608 1_565
Co0 Y0 3.050414 1_665
Co0 Y0 3.050414 1_666
Co0 Y0 3.050585 1_566
Co0 Y0 3.050585 1_565
Co1 Co3 2.318768 1_555
Co1 Co3 2.318768 1_556
Co1 Co2 2.363027 1_555
Co1 Co2 2.628585 1_655
Co1 Y0 3.050693 1_666
Co1 Y0 3.050693 1_665
Co1 Y0 3.051480 1_556
Co1 Y0 3.051480 1_555
Co2 Co3 2.318924 1_455
Co2 Co3 2.318924 1_456
Co2 Y0 3.050774 1_566
Co2 Y0 3.050774 1_565
Co2 Y0 3.051393 1_555
Co2 Y0 3.051393 1_556
Co3 Y0 2.881290 1_555
Co3 Y0 2.881618 1_655
Co3 Y0 2.884517 1_665
B0 Co0 2.220378 1_554
B0 Co0 2.220378 1_555
B0 Co2 2.220633 1_554
B0 Co2 2.220633 1_555
B0 Co1 2.220968 1_555
B0 Co1 2.220968 1_554
B0 Y0 2.881713 1_565
B0 Y0 2.882349 1_665
B0 Y0 2.883363 1_555
