# generated using pymatgen
data_CeScSi
_symmetry_space_group_name_H-M   'P 1'
_cell_length_a   8.48675731
_cell_length_b   8.48675731
_cell_length_c   8.48675731
_cell_angle_alpha   151.06745933
_cell_angle_beta   151.06745933
_cell_angle_gamma   41.37671030
_symmetry_Int_Tables_number   1
_chemical_formula_structural   CeScSi
_chemical_formula_sum   'Ce2 Sc2 Si2'
_cell_volume   142.74345182
_cell_formula_units_Z   2
loop_
 _symmetry_equiv_pos_site_id
 _symmetry_equiv_pos_as_xyz
  1  'x, y, z'
loop_
 _atom_site_type_symbol
 _atom_site_label
 _atom_site_symmetry_multiplicity
 _atom_site_fract_x
 _atom_site_fract_y
 _atom_site_fract_z
 _atom_site_occupancy
  Ce  Ce0  1  0.67894600  0.67894600  0.00000000  1
  Ce  Ce1  1  0.32105400  0.32105400  0.00000000  1
  Sc  Sc0  1  0.00000000  0.50000000  0.50000000  1
  Sc  Sc1  1  0.50000000  0.00000000  0.50000000  1
  Si  Si0  1  0.87710000  0.87710000  0.00000000  1
  Si  Si1  1  0.12290000  0.12290000  0.00000000  1
loop_
_geom_bond_atom_site_label_1
_geom_bond_atom_site_label_2
_geom_bond_distance
_geom_bond_site_symmetry_2
Ce0 Si1 3.127534 1_554
Ce0 Si1 3.127534 1_666
Ce0 Si1 3.127534 1_655
Ce0 Si1 3.127534 1_565
Ce0 Si0 3.146486 1_555
Ce1 Si0 3.127534 1_444
Ce1 Si0 3.127534 1_455
Ce1 Si0 3.127534 1_545
Ce1 Si0 3.127534 1_556
Ce1 Si1 3.146486 1_555
Sc0 Si1 2.881525 1_566
Sc0 Si0 2.881525 1_445
Sc0 Si0 2.881525 1_456
Sc0 Si1 2.881525 1_555
Sc1 Si1 2.881525 1_656
Sc1 Si0 2.881525 1_546
Sc1 Si0 2.881525 1_445
Sc1 Si1 2.881525 1_555
