# generated using pymatgen
data_U3TiSn5
_symmetry_space_group_name_H-M   'P 1'
_cell_length_a   9.13673335
_cell_length_b   9.13673335
_cell_length_c   6.05924600
_cell_angle_alpha   90.00000000
_cell_angle_beta   90.00000000
_cell_angle_gamma   119.99999529
_symmetry_Int_Tables_number   1
_chemical_formula_structural   U3TiSn5
_chemical_formula_sum   'U6 Ti2 Sn10'
_cell_volume   438.05751786
_cell_formula_units_Z   2
loop_
 _symmetry_equiv_pos_site_id
 _symmetry_equiv_pos_as_xyz
  1  'x, y, z'
loop_
 _atom_site_type_symbol
 _atom_site_label
 _atom_site_symmetry_multiplicity
 _atom_site_fract_x
 _atom_site_fract_y
 _atom_site_fract_z
 _atom_site_occupancy
  U  U0  1  0.60916000  0.00000000  0.75000000  1
  U  U1  1  0.39084000  0.00000000  0.25000000  1
  U  U2  1  0.00000000  0.60916000  0.75000000  1
  U  U3  1  0.00000000  0.39084000  0.25000000  1
  U  U4  1  0.39084000  0.39084000  0.75000000  1
  U  U5  1  0.60916000  0.60916000  0.25000000  1
  Ti  Ti0  1  0.00000000  0.00000000  0.50000000  1
  Ti  Ti1  1  0.00000000  0.00000000  0.00000000  1
  Sn  Sn0  1  0.26328100  0.00000000  0.75000000  1
  Sn  Sn1  1  0.73671900  0.00000000  0.25000000  1
  Sn  Sn2  1  0.00000000  0.26328100  0.75000000  1
  Sn  Sn3  1  0.00000000  0.73671900  0.25000000  1
  Sn  Sn4  1  0.73671900  0.73671900  0.75000000  1
  Sn  Sn5  1  0.26328100  0.26328100  0.25000000  1
  Sn  Sn6  1  0.33333300  0.66666700  0.50000000  1
  Sn  Sn7  1  0.66666700  0.33333300  0.50000000  1
  Sn  Sn8  1  0.66666700  0.33333300  0.00000000  1
  Sn  Sn9  1  0.33333300  0.66666700  0.00000000  1
loop_
_geom_bond_atom_site_label_1
_geom_bond_atom_site_label_2
_geom_bond_distance
_geom_bond_site_symmetry_2
Ti0 Ti1 3.029623 1_556
Ti0 Ti1 3.029623 1_555
Sn0 Ti0 2.842749 1_555
Sn0 Ti1 2.842749 1_556
Sn0 U4 3.154120 1_555
Sn0 U2 3.154120 1_545
Sn0 U0 3.160204 1_555
Sn0 U1 3.246066 1_556
Sn0 U1 3.246066 1_555
Sn1 Ti0 2.842749 1_655
Sn1 Ti1 2.842749 1_655
Sn1 U5 3.154120 1_545
Sn1 U3 3.154120 1_655
Sn1 U1 3.160204 1_555
Sn1 U0 3.246066 1_555
Sn1 U0 3.246066 1_554
Sn2 Ti0 2.842749 1_555
Sn2 Ti1 2.842749 1_556
Sn2 U4 3.154120 1_555
Sn2 U0 3.154120 1_455
Sn2 U2 3.160204 1_555
Sn2 U3 3.246066 1_555
Sn2 U3 3.246066 1_556
Sn3 Ti0 2.842749 1_565
Sn3 Ti1 2.842749 1_565
Sn3 U5 3.154120 1_455
Sn3 U1 3.154120 1_565
Sn3 U3 3.160204 1_555
Sn3 U2 3.246066 1_555
Sn3 U2 3.246066 1_554
Sn4 Ti0 2.842749 1_665
Sn4 Ti1 2.842749 1_666
Sn4 U2 3.154119 1_655
Sn4 U0 3.154119 1_565
Sn4 U4 3.160204 1_555
Sn4 U5 3.246066 1_556
Sn4 U5 3.246066 1_555
Sn5 Ti0 2.842749 1_555
Sn5 Ti1 2.842749 1_555
Sn5 U3 3.154119 1_555
Sn5 U1 3.154119 1_555
Sn5 U5 3.160204 1_555
Sn5 U4 3.246066 1_554
Sn5 U4 3.246066 1_555
Sn6 Sn9 3.029623 1_555
Sn6 Sn9 3.029623 1_556
Sn6 U1 3.200942 1_565
Sn6 U2 3.200942 1_555
Sn6 U3 3.200945 1_555
Sn6 U0 3.200945 1_565
Sn6 U5 3.200950 1_555
Sn6 U4 3.200950 1_555
Sn7 Sn8 3.029623 1_555
Sn7 Sn8 3.029623 1_556
Sn7 U3 3.200942 1_655
Sn7 U0 3.200942 1_555
Sn7 U1 3.200945 1_555
Sn7 U2 3.200945 1_655
Sn7 U4 3.200950 1_555
Sn7 U5 3.200950 1_555
Sn8 U0 3.200942 1_554
Sn8 U3 3.200942 1_655
Sn8 U1 3.200945 1_555
Sn8 U2 3.200945 1_654
Sn8 U4 3.200950 1_554
Sn8 U5 3.200950 1_555
Sn9 U1 3.200942 1_565
Sn9 U2 3.200942 1_554
Sn9 U3 3.200945 1_555
Sn9 U0 3.200945 1_564
Sn9 U5 3.200950 1_555
Sn9 U4 3.200950 1_554
