# generated using pymatgen
data_ErPd3S4
_symmetry_space_group_name_H-M   'P 1'
_cell_length_a   6.65205578
_cell_length_b   6.65205578
_cell_length_c   6.65205681
_cell_angle_alpha   90.00000000
_cell_angle_beta   90.00000000
_cell_angle_gamma   90.00000000
_symmetry_Int_Tables_number   1
_chemical_formula_structural   ErPd3S4
_chemical_formula_sum   'Er2 Pd6 S8'
_cell_volume   294.35249009
_cell_formula_units_Z   2
loop_
 _symmetry_equiv_pos_site_id
 _symmetry_equiv_pos_as_xyz
  1  'x, y, z'
loop_
 _atom_site_type_symbol
 _atom_site_label
 _atom_site_symmetry_multiplicity
 _atom_site_fract_x
 _atom_site_fract_y
 _atom_site_fract_z
 _atom_site_occupancy
  Er  Er0  1  0.50000000  0.50000000  0.50000000  1
  Er  Er1  1  0.00000000  0.00000000  -0.00000000  1
  Pd  Pd0  1  0.50000000  -0.00000000  0.75000000  1
  Pd  Pd1  1  0.00000000  0.25000000  0.50000000  1
  Pd  Pd2  1  0.75000000  0.50000000  0.00000000  1
  Pd  Pd3  1  0.50000000  0.00000000  0.25000000  1
  Pd  Pd4  1  0.00000000  0.75000000  0.50000000  1
  Pd  Pd5  1  0.25000000  0.50000000  -0.00000000  1
  S  S0  1  0.75000200  0.25000200  0.75000000  1
  S  S1  1  0.25000000  0.75000000  0.25000000  1
  S  S2  1  0.75000000  0.75000000  0.25000000  1
  S  S3  1  0.24999800  0.25000200  0.75000000  1
  S  S4  1  0.24999800  0.74999800  0.75000000  1
  S  S5  1  0.75000000  0.25000000  0.25000000  1
  S  S6  1  0.25000000  0.25000000  0.25000000  1
  S  S7  1  0.75000200  0.74999800  0.75000000  1
loop_
_geom_bond_atom_site_label_1
_geom_bond_atom_site_label_2
_geom_bond_distance
_geom_bond_site_symmetry_2
Er0 S6 2.880425 1_555
Er0 S1 2.880425 1_555
Er0 S5 2.880425 1_555
Er0 S2 2.880425 1_555
Er0 S0 2.880425 1_555
Er0 S3 2.880425 1_555
Er0 S4 2.880425 1_555
Er0 S7 2.880425 1_555
Er1 S1 2.880425 1_545
Er1 S2 2.880425 1_445
Er1 S6 2.880425 1_555
Er1 S5 2.880425 1_455
Er1 S4 2.880425 1_544
Er1 S3 2.880425 1_554
Er1 S0 2.880425 1_454
Er1 S7 2.880425 1_444
Pd0 S7 2.351876 1_545
Pd0 S4 2.351876 1_545
Pd0 S3 2.351876 1_555
Pd0 S0 2.351876 1_555
Pd1 S3 2.351848 1_555
Pd1 S0 2.351848 1_455
Pd1 S6 2.351857 1_555
Pd1 S5 2.351857 1_455
Pd2 S0 2.351848 1_554
Pd2 S7 2.351848 1_554
Pd2 S5 2.351857 1_555
Pd2 S2 2.351857 1_555
Pd3 S5 2.351857 1_555
Pd3 S2 2.351857 1_545
Pd3 S1 2.351857 1_545
Pd3 S6 2.351857 1_555
Pd4 S7 2.351848 1_455
Pd4 S4 2.351848 1_555
Pd4 S1 2.351857 1_555
Pd4 S2 2.351857 1_455
Pd5 S3 2.351848 1_554
Pd5 S4 2.351848 1_554
Pd5 S6 2.351857 1_555
Pd5 S1 2.351857 1_555
