# generated using pymatgen
data_SrHfMg6
_symmetry_space_group_name_H-M   'P 1'
_cell_length_a   6.65721136
_cell_length_b   6.65721136
_cell_length_c   5.33813700
_cell_angle_alpha   90.00000000
_cell_angle_beta   90.00000000
_cell_angle_gamma   120.05482403
_symmetry_Int_Tables_number   1
_chemical_formula_structural   SrHfMg6
_chemical_formula_sum   'Sr1 Hf1 Mg6'
_cell_volume   204.76930206
_cell_formula_units_Z   1
loop_
 _symmetry_equiv_pos_site_id
 _symmetry_equiv_pos_as_xyz
  1  'x, y, z'
loop_
 _atom_site_type_symbol
 _atom_site_label
 _atom_site_symmetry_multiplicity
 _atom_site_fract_x
 _atom_site_fract_y
 _atom_site_fract_z
 _atom_site_occupancy
  Sr  Sr0  1  0.66534500  0.33465500  0.50000000  1
  Hf  Hf0  1  0.84403800  0.15596200  0.00000000  1
  Mg  Mg0  1  0.15177000  0.32378800  0.50000000  1
  Mg  Mg1  1  0.67621200  0.84823000  0.50000000  1
  Mg  Mg2  1  0.16620600  0.83379400  0.50000000  1
  Mg  Mg3  1  0.32400300  0.16271400  0.00000000  1
  Mg  Mg4  1  0.83728600  0.67599700  0.00000000  1
  Mg  Mg5  1  0.33514100  0.66485900  0.00000000  1
loop_
_geom_bond_atom_site_label_1
_geom_bond_atom_site_label_2
_geom_bond_distance
_geom_bond_site_symmetry_2
Hf0 Mg4 3.172955 1_545
Hf0 Mg3 3.172955 1_655
Hf0 Mg1 3.205691 1_545
Hf0 Mg1 3.205691 1_544
Hf0 Mg0 3.205691 1_654
Hf0 Mg0 3.205691 1_655
Hf0 Mg5 3.327430 1_545
Hf0 Mg5 3.327430 1_655
Hf0 Sr0 3.372194 1_555
Hf0 Sr0 3.372194 1_554
Hf0 Mg3 3.484712 1_555
Hf0 Mg4 3.484712 1_555
Mg0 Mg1 3.163266 1_445
Mg0 Sr0 3.275065 1_455
Mg0 Mg3 3.289372 1_556
Mg0 Mg3 3.289372 1_555
Mg0 Mg2 3.311170 1_545
Mg0 Mg5 3.315613 1_555
Mg0 Mg5 3.315613 1_556
Mg0 Mg2 3.348120 1_555
Mg0 Sr0 3.383325 1_555
Mg0 Mg1 3.488428 1_555
Mg1 Sr0 3.275065 1_565
Mg1 Mg4 3.289372 1_556
Mg1 Mg4 3.289372 1_555
Mg1 Mg2 3.311170 1_655
Mg1 Mg5 3.315613 1_556
Mg1 Mg5 3.315613 1_555
Mg1 Mg2 3.348120 1_555
Mg1 Sr0 3.383325 1_555
Mg2 Mg4 3.273857 1_455
Mg2 Mg3 3.273857 1_566
Mg2 Mg3 3.273857 1_565
Mg2 Mg4 3.273857 1_456
Mg2 Mg5 3.304609 1_556
Mg2 Mg5 3.304609 1_555
Mg2 Sr0 3.325862 1_565
Mg2 Sr0 3.325862 1_455
Mg3 Mg4 3.237493 1_445
Mg3 Mg5 3.306373 1_555
Mg3 Sr0 3.315493 1_555
Mg3 Sr0 3.315493 1_554
Mg3 Mg5 3.352076 1_545
Mg3 Mg4 3.414201 1_555
Mg4 Mg5 3.306373 1_555
Mg4 Sr0 3.315493 1_554
Mg4 Sr0 3.315493 1_555
Mg4 Mg5 3.352076 1_655
