# generated using pymatgen
data_BaMg30NbO32
_symmetry_space_group_name_H-M   'P 1'
_cell_length_a   8.66332900
_cell_length_b   8.66332900
_cell_length_c   8.78137100
_cell_angle_alpha   90.00000000
_cell_angle_beta   90.00000000
_cell_angle_gamma   90.00000000
_symmetry_Int_Tables_number   1
_chemical_formula_structural   BaMg30NbO32
_chemical_formula_sum   'Ba1 Mg30 Nb1 O32'
_cell_volume   659.07060303
_cell_formula_units_Z   1
loop_
 _symmetry_equiv_pos_site_id
 _symmetry_equiv_pos_as_xyz
  1  'x, y, z'
loop_
 _atom_site_type_symbol
 _atom_site_label
 _atom_site_symmetry_multiplicity
 _atom_site_fract_x
 _atom_site_fract_y
 _atom_site_fract_z
 _atom_site_occupancy
  Ba  Ba0  1  0.00000000  0.00000000  0.00000000  1
  Mg  Mg0  1  0.00000000  0.50000000  0.00000000  1
  Mg  Mg1  1  0.00000000  0.50000000  0.50000000  1
  Mg  Mg2  1  0.50000000  0.00000000  0.00000000  1
  Mg  Mg3  1  0.50000000  0.00000000  0.50000000  1
  Mg  Mg4  1  0.50000000  0.50000000  0.00000000  1
  Mg  Mg5  1  0.50000000  0.50000000  0.50000000  1
  Mg  Mg6  1  0.00000000  0.25919600  0.25428700  1
  Mg  Mg7  1  0.00000000  0.25919600  0.74571300  1
  Mg  Mg8  1  0.00000000  0.74080400  0.25428700  1
  Mg  Mg9  1  0.00000000  0.74080400  0.74571300  1
  Mg  Mg10  1  0.50000000  0.25101000  0.25047200  1
  Mg  Mg11  1  0.50000000  0.25101000  0.74952800  1
  Mg  Mg12  1  0.50000000  0.74899000  0.25047200  1
  Mg  Mg13  1  0.50000000  0.74899000  0.74952800  1
  Mg  Mg14  1  0.25919600  0.00000000  0.25428700  1
  Mg  Mg15  1  0.25919600  0.00000000  0.74571300  1
  Mg  Mg16  1  0.25101000  0.50000000  0.25047200  1
  Mg  Mg17  1  0.25101000  0.50000000  0.74952800  1
  Mg  Mg18  1  0.74080400  0.00000000  0.25428700  1
  Mg  Mg19  1  0.74080400  0.00000000  0.74571300  1
  Mg  Mg20  1  0.74899000  0.50000000  0.25047200  1
  Mg  Mg21  1  0.74899000  0.50000000  0.74952800  1
  Mg  Mg22  1  0.25744300  0.25744300  0.00000000  1
  Mg  Mg23  1  0.25242500  0.25242500  0.50000000  1
  Mg  Mg24  1  0.25744300  0.74255700  0.00000000  1
  Mg  Mg25  1  0.25242500  0.74757500  0.50000000  1
  Mg  Mg26  1  0.74255700  0.25744300  0.00000000  1
  Mg  Mg27  1  0.74757500  0.25242500  0.50000000  1
  Mg  Mg28  1  0.74255700  0.74255700  0.00000000  1
  Mg  Mg29  1  0.74757500  0.74757500  0.50000000  1
  Nb  Nb0  1  0.00000000  0.00000000  0.50000000  1
  O  O0  1  0.28001300  0.00000000  0.00000000  1
  O  O1  1  0.26261000  0.00000000  0.50000000  1
  O  O2  1  0.25604100  0.50000000  0.00000000  1
  O  O3  1  0.25225500  0.50000000  0.50000000  1
  O  O4  1  0.71998700  0.00000000  0.00000000  1
  O  O5  1  0.73739000  0.00000000  0.50000000  1
  O  O6  1  0.74395900  0.50000000  0.00000000  1
  O  O7  1  0.74774500  0.50000000  0.50000000  1
  O  O8  1  0.24934000  0.24934000  0.24981100  1
  O  O9  1  0.24934000  0.24934000  0.75018900  1
  O  O10  1  0.24934000  0.75066000  0.24981100  1
  O  O11  1  0.24934000  0.75066000  0.75018900  1
  O  O12  1  0.75066000  0.24934000  0.24981100  1
  O  O13  1  0.75066000  0.24934000  0.75018900  1
  O  O14  1  0.75066000  0.75066000  0.24981100  1
  O  O15  1  0.75066000  0.75066000  0.75018900  1
  O  O16  1  0.00000000  0.00000000  0.26543700  1
  O  O17  1  0.00000000  0.00000000  0.73456300  1
  O  O18  1  0.00000000  0.50000000  0.25538500  1
  O  O19  1  0.00000000  0.50000000  0.74461500  1
  O  O20  1  0.50000000  0.00000000  0.25538500  1
  O  O21  1  0.50000000  0.00000000  0.74461500  1
  O  O22  1  0.50000000  0.50000000  0.25140300  1
  O  O23  1  0.50000000  0.50000000  0.74859700  1
  O  O24  1  0.00000000  0.28001300  0.00000000  1
  O  O25  1  0.00000000  0.26261000  0.50000000  1
  O  O26  1  0.00000000  0.71998700  0.00000000  1
  O  O27  1  0.00000000  0.73739000  0.50000000  1
  O  O28  1  0.50000000  0.25604100  0.00000000  1
  O  O29  1  0.50000000  0.25225500  0.50000000  1
  O  O30  1  0.50000000  0.74395900  0.00000000  1
  O  O31  1  0.50000000  0.74774500  0.50000000  1
loop_
_geom_bond_atom_site_label_1
_geom_bond_atom_site_label_2
_geom_bond_distance
_geom_bond_site_symmetry_2
Ba0 O16 2.330901 1_555
Ba0 O17 2.330901 1_554
Ba0 O26 2.425845 1_545
Ba0 O4 2.425845 1_455
Ba0 O0 2.425845 1_555
Ba0 O24 2.425845 1_555
Mg0 O24 1.905820 1_555
Mg0 O26 1.905820 1_555
Mg0 O6 2.218167 1_455
Mg0 O2 2.218167 1_555
Mg0 O19 2.242630 1_554
Mg0 O18 2.242630 1_555
Mg1 O27 2.056588 1_555
Mg1 O25 2.056588 1_555
Mg1 O18 2.148055 1_555
Mg1 O19 2.148055 1_555
Mg1 O7 2.185368 1_455
Mg1 O3 2.185368 1_555
Mg2 O0 1.905820 1_555
Mg2 O4 1.905820 1_555
Mg2 O30 2.218167 1_545
Mg2 O28 2.218167 1_555
Mg2 O21 2.242630 1_554
Mg2 O20 2.242630 1_555
Mg3 O5 2.056588 1_555
Mg3 O1 2.056588 1_555
Mg3 O21 2.148055 1_555
Mg3 O20 2.148055 1_555
Mg3 O31 2.185368 1_545
Mg3 O29 2.185368 1_555
Mg4 O28 2.113497 1_555
Mg4 O2 2.113497 1_555
Mg4 O30 2.113497 1_555
Mg4 O6 2.113497 1_555
Mg4 O22 2.207663 1_555
Mg4 O23 2.207663 1_554
Mg5 O29 2.146296 1_555
Mg5 O7 2.146296 1_555
Mg5 O31 2.146296 1_555
Mg5 O3 2.146296 1_555
Mg5 O23 2.183022 1_555
Mg5 O22 2.183022 1_555
Mg6 O18 2.086187 1_555
Mg6 O25 2.157900 1_555
Mg6 O12 2.162159 1_455
Mg6 O8 2.162159 1_555
Mg6 O24 2.240259 1_555
Mg6 O16 2.247634 1_555
Mg7 O19 2.086187 1_555
Mg7 O25 2.157900 1_555
Mg7 O9 2.162159 1_555
Mg7 O13 2.162159 1_455
Mg7 O24 2.240259 1_556
Mg7 O17 2.247634 1_555
Mg8 O18 2.086187 1_555
Mg8 O27 2.157900 1_555
Mg8 O10 2.162159 1_555
Mg8 O14 2.162159 1_455
Mg8 O26 2.240259 1_555
Mg8 O16 2.247634 1_565
Mg9 O19 2.086187 1_555
Mg9 O27 2.157900 1_555
Mg9 O11 2.162159 1_555
Mg9 O15 2.162159 1_455
Mg9 O26 2.240259 1_556
Mg9 O17 2.247634 1_565
Mg10 O22 2.157098 1_555
Mg10 O8 2.171606 1_555
Mg10 O12 2.171606 1_555
Mg10 O20 2.175010 1_555
Mg10 O29 2.191224 1_555
Mg10 O28 2.199919 1_555
Mg11 O23 2.157098 1_555
Mg11 O9 2.171606 1_555
Mg11 O13 2.171606 1_555
Mg11 O21 2.175010 1_555
Mg11 O29 2.191224 1_555
Mg11 O28 2.199919 1_556
Mg12 O22 2.157098 1_555
Mg12 O14 2.171606 1_555
Mg12 O10 2.171606 1_555
Mg12 O20 2.175010 1_565
Mg12 O31 2.191224 1_555
Mg12 O30 2.199919 1_555
Mg13 O23 2.157098 1_555
Mg13 O11 2.171606 1_555
Mg13 O15 2.171606 1_555
Mg13 O21 2.175010 1_565
Mg13 O31 2.191224 1_555
Mg13 O30 2.199919 1_556
Mg14 O20 2.086187 1_555
Mg14 O1 2.157900 1_555
Mg14 O8 2.162159 1_555
Mg14 O10 2.162159 1_545
Mg14 O0 2.240259 1_555
Mg14 O16 2.247634 1_555
Mg15 O21 2.086187 1_555
Mg15 O1 2.157900 1_555
Mg15 O9 2.162159 1_555
Mg15 O11 2.162159 1_545
Mg15 O0 2.240259 1_556
Mg15 O17 2.247634 1_555
Mg16 O22 2.157098 1_555
Mg16 O8 2.171606 1_555
Mg16 O10 2.171606 1_555
Mg16 O18 2.175010 1_555
Mg16 O3 2.191224 1_555
Mg16 O2 2.199919 1_555
Mg17 O23 2.157098 1_555
Mg17 O11 2.171606 1_555
Mg17 O9 2.171606 1_555
Mg17 O19 2.175010 1_555
Mg17 O3 2.191224 1_555
Mg17 O2 2.199919 1_556
Mg18 O20 2.086187 1_555
Mg18 O5 2.157900 1_555
Mg18 O14 2.162159 1_545
Mg18 O12 2.162159 1_555
Mg18 O4 2.240259 1_555
Mg18 O16 2.247634 1_655
Mg19 O21 2.086187 1_555
Mg19 O5 2.157900 1_555
Mg19 O13 2.162159 1_555
Mg19 O15 2.162159 1_545
Mg19 O4 2.240259 1_556
Mg19 O17 2.247634 1_655
Mg20 O22 2.157098 1_555
Mg20 O14 2.171606 1_555
Mg20 O12 2.171606 1_555
Mg20 O18 2.175010 1_655
Mg20 O7 2.191224 1_555
Mg20 O6 2.199919 1_555
Mg21 O23 2.157098 1_555
Mg21 O15 2.171606 1_555
Mg21 O13 2.171606 1_555
Mg21 O19 2.175010 1_655
Mg21 O7 2.191224 1_555
Mg21 O6 2.199919 1_556
Mg22 O2 2.101386 1_555
Mg22 O28 2.101386 1_555
Mg22 O8 2.195928 1_555
Mg22 O9 2.195928 1_554
Mg22 O0 2.238868 1_555
Mg22 O24 2.238868 1_555
Mg23 O3 2.144824 1_555
Mg23 O29 2.144824 1_555
Mg23 O1 2.188620 1_555
Mg23 O25 2.188620 1_555
Mg23 O9 2.197328 1_555
Mg23 O8 2.197328 1_555
Mg24 O30 2.101386 1_555
Mg24 O2 2.101386 1_555
Mg24 O11 2.195928 1_554
Mg24 O10 2.195928 1_555
Mg24 O26 2.238868 1_555
Mg24 O0 2.238868 1_565
Mg25 O3 2.144824 1_555
Mg25 O31 2.144824 1_555
Mg25 O27 2.188620 1_555
Mg25 O1 2.188620 1_565
Mg25 O10 2.197328 1_555
Mg25 O11 2.197328 1_555
Mg26 O28 2.101386 1_555
Mg26 O6 2.101386 1_555
Mg26 O13 2.195928 1_554
Mg26 O12 2.195928 1_555
Mg26 O24 2.238868 1_655
Mg26 O4 2.238868 1_555
Mg27 O7 2.144824 1_555
Mg27 O29 2.144824 1_555
Mg27 O25 2.188620 1_655
Mg27 O5 2.188620 1_555
Mg27 O13 2.197328 1_555
Mg27 O12 2.197328 1_555
Mg28 O30 2.101386 1_555
Mg28 O6 2.101386 1_555
Mg28 O14 2.195928 1_555
Mg28 O15 2.195928 1_554
Mg28 O26 2.238868 1_655
Mg28 O4 2.238868 1_565
Mg29 O7 2.144824 1_555
Mg29 O31 2.144824 1_555
Mg29 O27 2.188620 1_655
Mg29 O5 2.188620 1_565
Mg29 O14 2.197328 1_555
Mg29 O15 2.197328 1_555
Nb0 O17 2.059785 1_555
Nb0 O16 2.059785 1_555
Nb0 O25 2.275077 1_555
Nb0 O27 2.275077 1_545
Nb0 O1 2.275077 1_555
Nb0 O5 2.275077 1_455
