# generated using pymatgen
data_BaCaLaSbO6
_symmetry_space_group_name_H-M   'P 1'
_cell_length_a   6.00925679
_cell_length_b   6.07406669
_cell_length_c   8.58505669
_cell_angle_alpha   90.44743009
_cell_angle_beta   90.69125084
_cell_angle_gamma   90.15771961
_symmetry_Int_Tables_number   1
_chemical_formula_structural   BaCaLaSbO6
_chemical_formula_sum   'Ba2 Ca2 La2 Sb2 O12'
_cell_volume   313.32631849
_cell_formula_units_Z   2
loop_
 _symmetry_equiv_pos_site_id
 _symmetry_equiv_pos_as_xyz
  1  'x, y, z'
loop_
 _atom_site_type_symbol
 _atom_site_label
 _atom_site_symmetry_multiplicity
 _atom_site_fract_x
 _atom_site_fract_y
 _atom_site_fract_z
 _atom_site_occupancy
  Ba  Ba0  1  0.50504982  0.53149046  0.25078386  1
  Ba  Ba1  1  0.49495018  0.46850954  0.74921614  1
  Ca  Ca0  1  0.99063330  0.03989995  0.25546078  1
  Ca  Ca1  1  0.00936670  0.96010005  0.74453922  1
  La  La0  1  -0.00000000  0.50000000  0.00000000  1
  La  La1  1  0.50000000  -0.00000000  0.50000000  1
  Sb  Sb0  1  0.50000000  -0.00000000  0.00000000  1
  Sb  Sb1  1  -0.00000000  0.50000000  0.50000000  1
  O  O0  1  0.23170903  0.18555076  0.93419894  1
  O  O1  1  0.27222928  0.69084541  0.52589815  1
  O  O2  1  0.76829097  0.81444924  0.06580106  1
  O  O3  1  0.72777072  0.30915459  0.47410185  1
  O  O4  1  0.30966711  0.73169175  0.95888421  1
  O  O5  1  0.17648246  0.22171750  0.55638828  1
  O  O6  1  0.69033289  0.26830825  0.04111579  1
  O  O7  1  0.82351754  0.77828250  0.44361172  1
  O  O8  1  0.38680203  0.99978599  0.22608028  1
  O  O9  1  0.06296856  0.43669014  0.27185397  1
  O  O10  1  0.61319797  0.00021401  0.77391972  1
  O  O11  1  0.93703144  0.56330986  0.72814603  1
loop_
_geom_bond_atom_site_label_1
_geom_bond_atom_site_label_2
_geom_bond_distance
_geom_bond_site_symmetry_2
Ba0 O6 2.654888 1_555
Ba0 O3 2.698000 1_555
Ba0 O9 2.725162 1_555
Ba0 O2 2.840180 1_555
Ba0 O7 2.918738 1_555
Ba0 O1 2.919629 1_555
Ba0 O8 2.942407 1_555
Ba0 O4 3.020205 1_554
Ba1 O4 2.654888 1_555
Ba1 O1 2.698000 1_555
Ba1 O11 2.725162 1_555
Ba1 O0 2.840180 1_555
Ba1 O5 2.918738 1_555
Ba1 O3 2.919629 1_555
Ba1 O10 2.942407 1_555
Ba1 O6 3.020205 1_556
Ca0 O8 2.409844 1_645
Ca0 O9 2.450498 1_655
Ca0 O7 2.492644 1_545
Ca0 O2 2.492837 1_545
Ca0 O6 2.922506 1_555
Ca0 O3 2.954835 1_555
Ca0 O5 3.003384 1_655
Ca1 O10 2.409844 1_465
Ca1 O11 2.450498 1_455
Ca1 O5 2.492644 1_565
Ca1 O0 2.492837 1_565
Ca1 O4 2.922506 1_555
Ca1 O1 2.954835 1_555
Ca1 O7 3.003384 1_455
La0 O4 2.361598 1_554
La0 O6 2.361598 1_455
La0 O9 2.394070 1_555
La0 O11 2.394070 1_454
La0 O0 2.433661 1_554
La0 O2 2.433661 1_455
La1 O3 2.334268 1_555
La1 O1 2.334268 1_545
La1 O5 2.419605 1_555
La1 O7 2.419605 1_545
La1 O10 2.440117 1_555
La1 O8 2.440117 1_545
O0 Sb0 2.046121 1_556
O1 Sb1 2.011494 1_555
O2 Sb0 2.046121 1_565
O3 Sb1 2.011494 1_655
O4 Sb0 2.014891 1_566
O5 Sb1 2.055837 1_555
O6 Sb0 2.014891 1_555
O7 Sb1 2.055837 1_655
O8 Sb0 2.064401 1_565
O9 Sb1 2.033292 1_555
O10 Sb0 2.064401 1_556
O11 Sb1 2.033292 1_655
