# generated using pymatgen
data_Sr2FeSnO6
_symmetry_space_group_name_H-M   'P 1'
_cell_length_a   5.68883531
_cell_length_b   8.14543908
_cell_length_c   12.09684521
_cell_angle_alpha   70.33613914
_cell_angle_beta   90.00816136
_cell_angle_gamma   90.01174070
_symmetry_Int_Tables_number   1
_chemical_formula_structural   Sr2FeSnO6
_chemical_formula_sum   'Sr8 Fe4 Sn4 O24'
_cell_volume   527.85506676
_cell_formula_units_Z   4
loop_
 _symmetry_equiv_pos_site_id
 _symmetry_equiv_pos_as_xyz
  1  'x, y, z'
loop_
 _atom_site_type_symbol
 _atom_site_label
 _atom_site_symmetry_multiplicity
 _atom_site_fract_x
 _atom_site_fract_y
 _atom_site_fract_z
 _atom_site_occupancy
  Sr  Sr0  1  0.99998800  0.75098300  0.50000800  1
  Sr  Sr1  1  0.99999000  0.50001800  0.99995700  1
  Sr  Sr2  1  0.99999100  0.24896900  0.50010300  1
  Sr  Sr3  1  0.99999000  0.00002700  0.99994400  1
  Sr  Sr4  1  0.50004100  0.62586500  0.75002000  1
  Sr  Sr5  1  0.49999400  0.37414500  0.24997900  1
  Sr  Sr6  1  0.50004000  0.12412100  0.75003400  1
  Sr  Sr7  1  0.49996800  0.87587300  0.24996100  1
  Fe  Fe0  1  0.99999800  0.12496400  0.25002100  1
  Fe  Fe1  1  0.00006500  0.87503800  0.75000200  1
  Fe  Fe2  1  0.00001100  0.37515000  0.74997600  1
  Fe  Fe3  1  0.99999000  0.62491300  0.25001400  1
  Sn  Sn0  1  0.49999100  0.50004000  0.49993300  1
  Sn  Sn1  1  0.50000600  0.25016300  0.99958300  1
  Sn  Sn2  1  0.50002400  0.00002500  0.49995600  1
  Sn  Sn3  1  0.50001000  0.74975300  0.00052700  1
  O  O0  1  0.49997400  0.75007100  0.49996200  1
  O  O1  1  0.49998800  0.49998500  0.00001100  1
  O  O2  1  0.49999000  0.24996100  0.50000200  1
  O  O3  1  0.49999200  0.99998900  0.00000900  1
  O  O4  1  0.99999500  0.63192900  0.74986600  1
  O  O5  1  0.99998700  0.36815300  0.25013100  1
  O  O6  1  0.00004200  0.11811900  0.74991900  1
  O  O7  1  0.99999400  0.88178600  0.25008300  1
  O  O8  1  0.24508900  0.31361700  0.87260200  1
  O  O9  1  0.24483300  0.06359000  0.37281200  1
  O  O10  1  0.24608100  0.81386100  0.87197300  1
  O  O11  1  0.24491000  0.56365300  0.37257300  1
  O  O12  1  0.75507400  0.43637200  0.62739100  1
  O  O13  1  0.75392100  0.18611500  0.12805900  1
  O  O14  1  0.75522100  0.93642400  0.62718000  1
  O  O15  1  0.75487000  0.68635100  0.12744500  1
  O  O16  1  0.24479800  0.43634800  0.62740800  1
  O  O17  1  0.24596900  0.18607500  0.12811000  1
  O  O18  1  0.24472300  0.93639600  0.62722200  1
  O  O19  1  0.24503300  0.68635900  0.12746200  1
  O  O20  1  0.75499000  0.31363100  0.87254600  1
  O  O21  1  0.75526000  0.06361300  0.37275000  1
  O  O22  1  0.75404500  0.81389200  0.87192500  1
  O  O23  1  0.75512500  0.56366600  0.37253900  1
loop_
_geom_bond_atom_site_label_1
_geom_bond_atom_site_label_2
_geom_bond_distance
_geom_bond_site_symmetry_2
Fe0 O17 1.971523 1_655
Fe0 O13 1.972206 1_555
Fe0 O21 1.973141 1_555
Fe0 O9 1.973877 1_655
Fe0 O7 1.980539 1_545
Fe0 O5 1.981329 1_555
Fe1 O22 1.971817 1_455
Fe1 O10 1.972033 1_555
Fe1 O18 1.973232 1_555
Fe1 O14 1.974164 1_455
Fe1 O6 1.979664 1_565
Fe1 O4 1.980784 1_455
Fe2 O16 1.972039 1_555
Fe2 O12 1.972625 1_455
Fe2 O20 1.972996 1_455
Fe2 O8 1.973523 1_555
Fe2 O4 2.091130 1_455
Fe2 O6 2.093863 1_555
Fe3 O23 1.972006 1_555
Fe3 O11 1.972347 1_655
Fe3 O19 1.972939 1_655
Fe3 O15 1.973232 1_555
Fe3 O5 2.090947 1_555
Fe3 O7 2.092624 1_555
O0 Sn2 2.035961 1_565
O0 Sn0 2.036730 1_555
O0 Sr0 2.844350 1_455
O0 Sr0 2.844506 1_555
O0 Sr7 2.847868 1_555
O0 Sr4 2.848516 1_555
O1 Sn3 2.036579 1_555
O1 Sn1 2.036658 1_554
O1 Sr1 2.844406 1_454
O1 Sr1 2.844429 1_554
O1 Sr5 2.847494 1_555
O1 Sr4 2.847756 1_554
O2 Sn2 2.036026 1_555
O2 Sn0 2.036723 1_555
O2 Sr2 2.844421 1_455
O2 Sr2 2.844435 1_555
O2 Sr5 2.848117 1_555
O2 Sr6 2.848222 1_555
O3 Sn1 2.036049 1_564
O3 Sn3 2.036182 1_555
O3 Sr3 2.844406 1_564
O3 Sr3 2.844429 1_464
O3 Sr7 2.847309 1_555
O3 Sr6 2.847571 1_564
O4 Sr4 2.844565 1_555
O4 Sr4 2.845108 1_655
O4 Sr0 2.846624 1_555
O4 Sr1 2.849444 1_555
O5 Sr5 2.844796 1_555
O5 Sr5 2.844856 1_655
O5 Sr2 2.847913 1_555
O5 Sr1 2.850375 1_554
O6 Sr6 2.844825 1_555
O6 Sr6 2.844868 1_455
O6 Sr2 2.846173 1_455
O6 Sr3 2.848681 1_455
O7 Sr7 2.844696 1_655
O7 Sr7 2.844972 1_555
O7 Sr0 2.847400 1_555
O7 Sr3 2.849964 1_564
O8 Sn1 2.048178 1_555
O8 Sr3 2.862293 1_455
O8 Sr1 2.863316 1_455
O8 Sr6 2.868129 1_555
O8 Sr4 2.869183 1_555
O9 Sn2 2.050593 1_555
O9 Sr0 2.855477 1_445
O9 Sr2 2.856131 1_455
O9 Sr5 2.860650 1_555
O9 Sr7 2.860752 1_545
O10 Sn3 2.056920 1_556
O10 Sr4 2.851385 1_555
O10 Sr6 2.853093 1_565
O10 Sr1 2.868364 1_455
O10 Sr3 2.870049 1_465
O11 Sn0 2.051888 1_555
O11 Sr2 2.868679 1_455
O11 Sr5 2.868801 1_555
O11 Sr0 2.868908 1_455
O11 Sr7 2.869404 1_555
O12 Sn0 2.052686 1_555
O12 Sr0 2.867820 1_555
O12 Sr2 2.868044 1_555
O12 Sr4 2.868863 1_555
O12 Sr6 2.869597 1_555
O13 Sn1 2.056231 1_554
O13 Sr5 2.851208 1_555
O13 Sr7 2.852873 1_545
O13 Sr1 2.868992 1_554
O13 Sr3 2.870786 1_554
O14 Sn2 2.051260 1_565
O14 Sr2 2.854566 1_565
O14 Sr0 2.855249 1_555
O14 Sr4 2.860746 1_555
O14 Sr6 2.860794 1_565
O15 Sn3 2.047441 1_555
O15 Sr3 2.863308 1_564
O15 Sr1 2.864133 1_554
O15 Sr7 2.867700 1_555
O15 Sr5 2.868593 1_555
O16 Sn0 2.053425 1_555
O16 Sr2 2.867231 1_455
O16 Sr0 2.868017 1_455
O16 Sr4 2.868929 1_555
O16 Sr6 2.870325 1_555
O17 Sn1 2.057293 1_554
O17 Sr5 2.850760 1_555
O17 Sr7 2.852950 1_545
O17 Sr1 2.869418 1_454
O17 Sr3 2.870230 1_454
O18 Sn2 2.052177 1_565
O18 Sr0 2.854847 1_455
O18 Sr2 2.855039 1_465
O18 Sr6 2.860460 1_565
O18 Sr4 2.861182 1_555
O19 Sn3 2.048209 1_555
O19 Sr3 2.863393 1_464
O19 Sr1 2.863597 1_454
O19 Sr7 2.867071 1_555
O19 Sr5 2.869153 1_555
O20 Sn1 2.049058 1_555
O20 Sr3 2.862557 1_555
O20 Sr1 2.862929 1_555
O20 Sr6 2.867201 1_555
O20 Sr4 2.869258 1_555
O21 Sn2 2.051433 1_555
O21 Sr2 2.855712 1_555
O21 Sr0 2.855760 1_545
O21 Sr7 2.860280 1_545
O21 Sr5 2.860965 1_555
O22 Sn3 2.057893 1_556
O22 Sr4 2.850755 1_555
O22 Sr6 2.853230 1_565
O22 Sr1 2.868573 1_555
O22 Sr3 2.869363 1_565
O23 Sn0 2.052536 1_555
O23 Sr5 2.868191 1_555
O23 Sr0 2.868447 1_555
O23 Sr2 2.869002 1_555
O23 Sr7 2.869837 1_555
