# generated using pymatgen
data_Ba3Tm4O9
_symmetry_space_group_name_H-M   'P 1'
_cell_length_a   9.11345394
_cell_length_b   9.11345394
_cell_length_c   9.11345371
_cell_angle_alpha   38.93567821
_cell_angle_beta   38.93567821
_cell_angle_gamma   38.93567995
_symmetry_Int_Tables_number   1
_chemical_formula_structural   Ba3Tm4O9
_chemical_formula_sum   'Ba3 Tm4 O9'
_cell_volume   268.81082744
_cell_formula_units_Z   1
loop_
 _symmetry_equiv_pos_site_id
 _symmetry_equiv_pos_as_xyz
  1  'x, y, z'
loop_
 _atom_site_type_symbol
 _atom_site_label
 _atom_site_symmetry_multiplicity
 _atom_site_fract_x
 _atom_site_fract_y
 _atom_site_fract_z
 _atom_site_occupancy
  Ba  Ba0  1  0.00046100  0.00046100  0.00046100  1
  Ba  Ba1  1  0.83616100  0.83616100  0.83616100  1
  Ba  Ba2  1  0.42133200  0.42133200  0.42133200  1
  Tm  Tm0  1  0.57502400  0.57502400  0.57502400  1
  Tm  Tm1  1  0.13623100  0.13623100  0.13623100  1
  Tm  Tm2  1  0.26142900  0.26142900  0.26142900  1
  Tm  Tm3  1  0.69983200  0.69983200  0.69983200  1
  O  O0  1  0.53294800  0.42871100  0.95950800  1
  O  O1  1  0.42871100  0.95950800  0.53294800  1
  O  O2  1  0.95950800  0.53294800  0.42871100  1
  O  O3  1  0.39900100  0.31150600  0.87377200  1
  O  O4  1  0.31150600  0.87377200  0.39900100  1
  O  O5  1  0.87377200  0.39900100  0.31150600  1
  O  O6  1  0.96972200  0.41910700  0.86575600  1
  O  O7  1  0.86575600  0.96972200  0.41910700  1
  O  O8  1  0.41910700  0.86575600  0.96972200  1
loop_
_geom_bond_atom_site_label_1
_geom_bond_atom_site_label_2
_geom_bond_distance
_geom_bond_site_symmetry_2
Ba0 O7 2.779896 1_445
Ba0 O6 2.779896 1_454
Ba0 O8 2.779896 1_544
Ba0 O1 2.804129 1_544
Ba0 O2 2.804129 1_445
Ba0 O0 2.804129 1_454
Ba1 O7 2.778334 1_555
Ba1 O8 2.778334 1_555
Ba1 O6 2.778334 1_555
Ba1 O5 2.844690 1_556
Ba1 O4 2.844690 1_655
Ba1 O3 2.844690 1_565
Ba2 O8 2.722689 1_554
Ba2 O6 2.722689 1_455
Ba2 O7 2.722689 1_545
O0 Tm2 2.183768 1_556
O0 Tm3 2.273486 1_555
O0 Tm0 2.374742 1_555
O1 Tm2 2.183768 1_565
O1 Tm3 2.273486 1_555
O1 Tm0 2.374742 1_555
O2 Tm2 2.183768 1_655
O2 Tm3 2.273486 1_555
O2 Tm0 2.374742 1_555
O3 Tm0 2.186380 1_555
O3 Tm1 2.259102 1_556
O3 Tm2 2.398449 1_556
O4 Tm0 2.186380 1_555
O4 Tm1 2.259102 1_565
O4 Tm2 2.398449 1_565
O5 Tm0 2.186380 1_555
O5 Tm1 2.259102 1_655
O5 Tm2 2.398449 1_655
O6 Tm3 2.204503 1_555
O6 Tm1 2.207266 1_656
O7 Tm3 2.204503 1_555
O7 Tm1 2.207266 1_665
O8 Tm3 2.204503 1_555
O8 Tm1 2.207266 1_566
