# generated using pymatgen
data_TaTiN2
_symmetry_space_group_name_H-M   'P 1'
_cell_length_a   3.07713800
_cell_length_b   3.07713800
_cell_length_c   4.33434200
_cell_angle_alpha   90.00000000
_cell_angle_beta   90.00000000
_cell_angle_gamma   90.00000000
_symmetry_Int_Tables_number   1
_chemical_formula_structural   TaTiN2
_chemical_formula_sum   'Ta1 Ti1 N2'
_cell_volume   41.04092335
_cell_formula_units_Z   1
loop_
 _symmetry_equiv_pos_site_id
 _symmetry_equiv_pos_as_xyz
  1  'x, y, z'
loop_
 _atom_site_type_symbol
 _atom_site_label
 _atom_site_symmetry_multiplicity
 _atom_site_fract_x
 _atom_site_fract_y
 _atom_site_fract_z
 _atom_site_occupancy
  Ta  Ta0  1  0.00000000  0.00000000  0.00000000  1
  Ti  Ti0  1  0.50000000  0.50000000  0.50000000  1
  N  N0  1  0.00000000  0.00000000  0.50000000  1
  N  N1  1  0.50000000  0.50000000  0.00000000  1
loop_
_geom_bond_atom_site_label_1
_geom_bond_atom_site_label_2
_geom_bond_distance
_geom_bond_site_symmetry_2
N0 Ta0 2.167171 1_556
N0 Ta0 2.167171 1_555
N0 Ti0 2.175865 1_555
N0 Ti0 2.175865 1_545
N0 Ti0 2.175865 1_455
N0 Ti0 2.175865 1_445
N1 Ti0 2.167171 1_555
N1 Ti0 2.167171 1_554
N1 Ta0 2.175865 1_555
N1 Ta0 2.175865 1_665
N1 Ta0 2.175865 1_655
N1 Ta0 2.175865 1_565
