# generated using pymatgen
data_Yb2EuO4
_symmetry_space_group_name_H-M   'P 1'
_cell_length_a   3.34541200
_cell_length_b   9.70245900
_cell_length_c   11.79215100
_cell_angle_alpha   90.00000000
_cell_angle_beta   90.00000000
_cell_angle_gamma   90.00000000
_symmetry_Int_Tables_number   1
_chemical_formula_structural   Yb2EuO4
_chemical_formula_sum   'Yb8 Eu4 O16'
_cell_volume   382.75816015
_cell_formula_units_Z   4
loop_
 _symmetry_equiv_pos_site_id
 _symmetry_equiv_pos_as_xyz
  1  'x, y, z'
loop_
 _atom_site_type_symbol
 _atom_site_label
 _atom_site_symmetry_multiplicity
 _atom_site_fract_x
 _atom_site_fract_y
 _atom_site_fract_z
 _atom_site_occupancy
  Yb  Yb0  1  0.75000000  0.91774500  0.60601900  1
  Yb  Yb1  1  0.25000000  0.08225500  0.39398100  1
  Yb  Yb2  1  0.25000000  0.58225500  0.10601900  1
  Yb  Yb3  1  0.75000000  0.41774500  0.89398100  1
  Yb  Yb4  1  0.75000000  0.42256500  0.39158600  1
  Yb  Yb5  1  0.25000000  0.57743500  0.60841400  1
  Yb  Yb6  1  0.25000000  0.07743500  0.89158600  1
  Yb  Yb7  1  0.75000000  0.92256500  0.10841400  1
  Eu  Eu0  1  0.75000000  0.75327400  0.33832400  1
  Eu  Eu1  1  0.25000000  0.24672600  0.66167600  1
  Eu  Eu2  1  0.25000000  0.74672600  0.83832400  1
  Eu  Eu3  1  0.75000000  0.25327400  0.16167600  1
  O  O0  1  0.75000000  0.52396200  0.22138900  1
  O  O1  1  0.25000000  0.47603800  0.77861100  1
  O  O2  1  0.25000000  0.97603800  0.72138900  1
  O  O3  1  0.75000000  0.02396200  0.27861100  1
  O  O4  1  0.75000000  0.71071100  0.69377800  1
  O  O5  1  0.25000000  0.28928900  0.30622200  1
  O  O6  1  0.25000000  0.78928900  0.19377800  1
  O  O7  1  0.75000000  0.21071100  0.80622200  1
  O  O8  1  0.75000000  0.63842900  0.96502800  1
  O  O9  1  0.25000000  0.36157100  0.03497200  1
  O  O10  1  0.25000000  0.86157100  0.46502800  1
  O  O11  1  0.75000000  0.13842900  0.53497200  1
  O  O12  1  0.75000000  0.90874900  0.91356600  1
  O  O13  1  0.25000000  0.09125100  0.08643400  1
  O  O14  1  0.25000000  0.59125100  0.41356600  1
  O  O15  1  0.75000000  0.40874900  0.58643400  1
loop_
_geom_bond_atom_site_label_1
_geom_bond_atom_site_label_2
_geom_bond_distance
_geom_bond_site_symmetry_2
Eu0 O6 2.413586 1_655
Eu0 O6 2.413586 1_555
Eu0 O14 2.460983 1_555
Eu0 O14 2.460983 1_655
Eu0 O10 2.476770 1_555
Eu0 O10 2.476770 1_655
Eu0 O0 2.617545 1_555
Eu0 O3 2.719095 1_565
Eu1 O7 2.413586 1_555
Eu1 O7 2.413586 1_455
Eu1 O15 2.460983 1_455
Eu1 O15 2.460983 1_555
Eu1 O11 2.476770 1_555
Eu1 O11 2.476770 1_455
Eu1 O1 2.617545 1_555
Eu1 O2 2.719095 1_545
Eu2 O4 2.413586 1_455
Eu2 O4 2.413586 1_555
Eu2 O12 2.460983 1_455
Eu2 O12 2.460983 1_555
Eu2 O8 2.476770 1_455
Eu2 O8 2.476770 1_555
Eu2 O2 2.617545 1_555
Eu2 O1 2.719095 1_555
Eu3 O5 2.413586 1_555
Eu3 O5 2.413586 1_655
Eu3 O13 2.460983 1_555
Eu3 O13 2.460983 1_655
Eu3 O9 2.476770 1_555
Eu3 O9 2.476770 1_655
Eu3 O3 2.617545 1_555
Eu3 O0 2.719095 1_555
O0 Yb2 2.229055 1_655
O0 Yb2 2.229055 1_555
O0 Yb4 2.235144 1_555
O1 Yb3 2.229055 1_555
O1 Yb3 2.229055 1_455
O1 Yb5 2.235144 1_555
O2 Yb0 2.229055 1_455
O2 Yb0 2.229055 1_555
O2 Yb6 2.235144 1_565
O3 Yb1 2.229055 1_555
O3 Yb1 2.229055 1_655
O3 Yb7 2.235144 1_545
O4 Yb0 2.259642 1_555
O4 Yb5 2.341658 1_555
O4 Yb5 2.341658 1_655
O5 Yb1 2.259642 1_555
O5 Yb4 2.341658 1_455
O5 Yb4 2.341658 1_555
O6 Yb2 2.259642 1_555
O6 Yb7 2.341658 1_455
O6 Yb7 2.341658 1_555
O7 Yb3 2.259642 1_555
O7 Yb6 2.341658 1_555
O7 Yb6 2.341658 1_655
O8 Yb3 2.299249 1_555
O8 Yb2 2.420577 1_556
O8 Yb2 2.420577 1_656
O9 Yb2 2.299249 1_555
O9 Yb3 2.420577 1_454
O9 Yb3 2.420577 1_554
O10 Yb1 2.299249 1_565
O10 Yb0 2.420577 1_455
O10 Yb0 2.420577 1_555
O11 Yb0 2.299249 1_545
O11 Yb1 2.420577 1_655
O11 Yb1 2.420577 1_555
O12 Yb7 2.301584 1_556
O12 Yb6 2.354530 1_565
O12 Yb6 2.354530 1_665
O13 Yb6 2.301584 1_554
O13 Yb7 2.354530 1_445
O13 Yb7 2.354530 1_545
O14 Yb5 2.301584 1_555
O14 Yb4 2.354530 1_455
O14 Yb4 2.354530 1_555
O15 Yb4 2.301584 1_555
O15 Yb5 2.354530 1_555
O15 Yb5 2.354530 1_655
