# generated using pymatgen
data_BaMg14TiO16
_symmetry_space_group_name_H-M   'P 1'
_cell_length_a   8.76956571
_cell_length_b   8.76956571
_cell_length_c   4.49826048
_cell_angle_alpha   90.00000000
_cell_angle_beta   90.00000000
_cell_angle_gamma   90.00000000
_symmetry_Int_Tables_number   1
_chemical_formula_structural   BaMg14TiO16
_chemical_formula_sum   'Ba1 Mg14 Ti1 O16'
_cell_volume   345.93999406
_cell_formula_units_Z   1
loop_
 _symmetry_equiv_pos_site_id
 _symmetry_equiv_pos_as_xyz
  1  'x, y, z'
loop_
 _atom_site_type_symbol
 _atom_site_label
 _atom_site_symmetry_multiplicity
 _atom_site_fract_x
 _atom_site_fract_y
 _atom_site_fract_z
 _atom_site_occupancy
  Ba  Ba0  1  0.50000000  0.50000000  -0.00000000  1
  Mg  Mg0  1  -0.00000000  0.50000000  -0.00000000  1
  Mg  Mg1  1  0.50000000  0.00000000  -0.00000000  1
  Mg  Mg2  1  -0.00000000  0.24955870  0.50000000  1
  Mg  Mg3  1  -0.00000000  0.75044130  0.50000000  1
  Mg  Mg4  1  0.50000000  0.23557790  0.50000000  1
  Mg  Mg5  1  0.50000000  0.76442210  0.50000000  1
  Mg  Mg6  1  0.24955870  0.00000000  0.50000000  1
  Mg  Mg7  1  0.23557790  0.50000000  0.50000000  1
  Mg  Mg8  1  0.75044130  0.00000000  0.50000000  1
  Mg  Mg9  1  0.76442210  0.50000000  0.50000000  1
  Mg  Mg10  1  0.24293881  0.24293881  -0.00000000  1
  Mg  Mg11  1  0.24293881  0.75706119  -0.00000000  1
  Mg  Mg12  1  0.75706119  0.24293881  -0.00000000  1
  Mg  Mg13  1  0.75706119  0.75706119  -0.00000000  1
  Ti  Ti0  1  -0.00000000  0.00000000  -0.00000000  1
  O  O0  1  0.24724256  0.00000000  -0.00000000  1
  O  O1  1  0.21919017  0.50000000  0.00000000  1
  O  O2  1  0.75275744  0.00000000  0.00000000  1
  O  O3  1  0.78080983  0.50000000  -0.00000000  1
  O  O4  1  0.24904722  0.24904722  0.50000000  1
  O  O5  1  0.24904722  0.75095278  0.50000000  1
  O  O6  1  0.75095278  0.24904722  0.50000000  1
  O  O7  1  0.75095278  0.75095278  0.50000000  1
  O  O8  1  -0.00000000  0.00000000  0.50000000  1
  O  O9  1  -0.00000000  0.50000000  0.50000000  1
  O  O10  1  0.50000000  0.00000000  0.50000000  1
  O  O11  1  0.50000000  0.50000000  0.50000000  1
  O  O12  1  -0.00000000  0.24724256  -0.00000000  1
  O  O13  1  -0.00000000  0.75275744  0.00000000  1
  O  O14  1  0.50000000  0.21919017  0.00000000  1
  O  O15  1  0.50000000  0.78080983  -0.00000000  1
loop_
_geom_bond_atom_site_label_1
_geom_bond_atom_site_label_2
_geom_bond_distance
_geom_bond_site_symmetry_2
Ba0 O11 2.249130 1_554
Ba0 O11 2.249130 1_555
Ba0 O1 2.462580 1_555
Ba0 O14 2.462580 1_555
Ba0 O3 2.462580 1_555
Ba0 O15 2.462580 1_555
Mg0 O3 1.922203 1_455
Mg0 O1 1.922203 1_555
Mg0 O12 2.216573 1_555
Mg0 O13 2.216573 1_555
Mg0 O9 2.249130 1_554
Mg0 O9 2.249130 1_555
Mg1 O15 1.922203 1_545
Mg1 O14 1.922203 1_555
Mg1 O2 2.216573 1_555
Mg1 O0 2.216573 1_555
Mg1 O10 2.249130 1_555
Mg1 O10 2.249130 1_554
Mg2 O4 2.184041 1_555
Mg2 O6 2.184041 1_455
Mg2 O8 2.188521 1_555
Mg2 O9 2.196261 1_555
Mg2 O12 2.249222 1_556
Mg2 O12 2.249222 1_555
Mg3 O7 2.184041 1_455
Mg3 O5 2.184041 1_555
Mg3 O8 2.188521 1_565
Mg3 O9 2.196261 1_555
Mg3 O13 2.249222 1_555
Mg3 O13 2.249222 1_556
Mg4 O10 2.065916 1_555
Mg4 O4 2.203915 1_555
Mg4 O6 2.203915 1_555
Mg4 O14 2.253717 1_556
Mg4 O14 2.253717 1_555
Mg4 O11 2.318867 1_555
Mg5 O10 2.065916 1_565
Mg5 O7 2.203915 1_555
Mg5 O5 2.203915 1_555
Mg5 O15 2.253717 1_556
Mg5 O15 2.253717 1_555
Mg5 O11 2.318867 1_555
Mg6 O4 2.184041 1_555
Mg6 O5 2.184041 1_545
Mg6 O8 2.188521 1_555
Mg6 O10 2.196261 1_555
Mg6 O0 2.249222 1_555
Mg6 O0 2.249222 1_556
Mg7 O9 2.065916 1_555
Mg7 O4 2.203915 1_555
Mg7 O5 2.203915 1_555
Mg7 O1 2.253717 1_556
Mg7 O1 2.253717 1_555
Mg7 O11 2.318867 1_555
Mg8 O7 2.184041 1_545
Mg8 O6 2.184041 1_555
Mg8 O8 2.188521 1_655
Mg8 O10 2.196261 1_555
Mg8 O2 2.249222 1_556
Mg8 O2 2.249222 1_555
Mg9 O9 2.065916 1_655
Mg9 O6 2.203915 1_555
Mg9 O7 2.203915 1_555
Mg9 O3 2.253717 1_556
Mg9 O3 2.253717 1_555
Mg9 O11 2.318867 1_555
Mg10 O0 2.130802 1_555
Mg10 O12 2.130802 1_555
Mg10 O4 2.250406 1_554
Mg10 O4 2.250406 1_555
Mg10 O1 2.263915 1_555
Mg10 O14 2.263915 1_555
Mg11 O0 2.130802 1_565
Mg11 O13 2.130802 1_555
Mg11 O5 2.250406 1_554
Mg11 O5 2.250406 1_555
Mg11 O15 2.263915 1_555
Mg11 O1 2.263915 1_555
Mg12 O12 2.130802 1_655
Mg12 O2 2.130802 1_555
Mg12 O6 2.250406 1_554
Mg12 O6 2.250406 1_555
Mg12 O3 2.263915 1_555
Mg12 O14 2.263915 1_555
Mg13 O13 2.130802 1_655
Mg13 O2 2.130802 1_565
Mg13 O7 2.250406 1_554
Mg13 O7 2.250406 1_555
Mg13 O15 2.263915 1_555
Mg13 O3 2.263915 1_555
O0 Ti0 2.168210 1_555
O2 Ti0 2.168210 1_655
O8 Ti0 2.249130 1_556
O8 Ti0 2.249130 1_555
O12 Ti0 2.168210 1_555
O13 Ti0 2.168210 1_565
