# generated using pymatgen
data_Sm3Fe5O12
_symmetry_space_group_name_H-M   'P 1'
_cell_length_a   10.99193217
_cell_length_b   10.99193217
_cell_length_c   10.99193217
_cell_angle_alpha   109.47122063
_cell_angle_beta   109.47122063
_cell_angle_gamma   109.47122063
_symmetry_Int_Tables_number   1
_chemical_formula_structural   Sm3Fe5O12
_chemical_formula_sum   'Sm12 Fe20 O48'
_cell_volume   1022.35147766
_cell_formula_units_Z   4
loop_
 _symmetry_equiv_pos_site_id
 _symmetry_equiv_pos_as_xyz
  1  'x, y, z'
loop_
 _atom_site_type_symbol
 _atom_site_label
 _atom_site_symmetry_multiplicity
 _atom_site_fract_x
 _atom_site_fract_y
 _atom_site_fract_z
 _atom_site_occupancy
  Sm  Sm0  1  0.25000000  0.37500000  0.12500000  1
  Sm  Sm1  1  0.37500000  0.75000000  0.12500000  1
  Sm  Sm2  1  0.12500000  0.25000000  0.37500000  1
  Sm  Sm3  1  0.37500000  0.12500000  0.25000000  1
  Sm  Sm4  1  0.12500000  0.37500000  0.75000000  1
  Sm  Sm5  1  0.75000000  0.12500000  0.37500000  1
  Sm  Sm6  1  0.75000000  0.62500000  0.87500000  1
  Sm  Sm7  1  0.62500000  0.25000000  0.87500000  1
  Sm  Sm8  1  0.87500000  0.75000000  0.62500000  1
  Sm  Sm9  1  0.62500000  0.87500000  0.75000000  1
  Sm  Sm10  1  0.87500000  0.62500000  0.25000000  1
  Sm  Sm11  1  0.25000000  0.87500000  0.62500000  1
  Fe  Fe0  1  0.00000000  0.00000000  0.00000000  1
  Fe  Fe1  1  0.00000000  0.50000000  0.00000000  1
  Fe  Fe2  1  0.00000000  0.00000000  0.50000000  1
  Fe  Fe3  1  0.50000000  0.00000000  0.00000000  1
  Fe  Fe4  1  0.00000000  0.50000000  0.50000000  1
  Fe  Fe5  1  0.50000000  0.00000000  0.50000000  1
  Fe  Fe6  1  0.50000000  0.50000000  0.00000000  1
  Fe  Fe7  1  0.50000000  0.50000000  0.50000000  1
  Fe  Fe8  1  0.25000000  0.62500000  0.37500000  1
  Fe  Fe9  1  0.62500000  0.75000000  0.37500000  1
  Fe  Fe10  1  0.87500000  0.25000000  0.12500000  1
  Fe  Fe11  1  0.12500000  0.87500000  0.25000000  1
  Fe  Fe12  1  0.25000000  0.12500000  0.87500000  1
  Fe  Fe13  1  0.75000000  0.87500000  0.12500000  1
  Fe  Fe14  1  0.37500000  0.25000000  0.62500000  1
  Fe  Fe15  1  0.62500000  0.37500000  0.25000000  1
  Fe  Fe16  1  0.12500000  0.75000000  0.87500000  1
  Fe  Fe17  1  0.87500000  0.12500000  0.75000000  1
  Fe  Fe18  1  0.75000000  0.37500000  0.62500000  1
  Fe  Fe19  1  0.37500000  0.62500000  0.75000000  1
  O  O0  1  0.79441000  0.41716100  0.82233400  1
  O  O1  1  0.08283900  0.87724900  0.40517300  1
  O  O2  1  0.67766600  0.09482700  0.97207600  1
  O  O3  1  0.70559000  0.52792400  0.62275100  1
  O  O4  1  0.70559000  0.67766600  0.08283900  1
  O  O5  1  0.52792400  0.62275100  0.70559000  1
  O  O6  1  0.09482700  0.62275100  0.41716100  1
  O  O7  1  0.62275100  0.70559000  0.52792400  1
  O  O8  1  0.40517300  0.82233400  0.52792400  1
  O  O9  1  0.87724900  0.97207600  0.79441000  1
  O  O10  1  0.97207600  0.79441000  0.87724900  1
  O  O11  1  0.08283900  0.70559000  0.67766600  1
  O  O12  1  0.62275100  0.41716100  0.09482700  1
  O  O13  1  0.52792400  0.40517300  0.82233400  1
  O  O14  1  0.67766600  0.08283900  0.70559000  1
  O  O15  1  0.41716100  0.09482700  0.62275100  1
  O  O16  1  0.82233400  0.52792400  0.40517300  1
  O  O17  1  0.40517300  0.08283900  0.87724900  1
  O  O18  1  0.09482700  0.97207600  0.67766600  1
  O  O19  1  0.59482700  0.17766600  0.47207600  1
  O  O20  1  0.97207600  0.67766600  0.09482700  1
  O  O21  1  0.82233400  0.79441000  0.41716100  1
  O  O22  1  0.87724900  0.40517300  0.08283900  1
  O  O23  1  0.79441000  0.87724900  0.97207600  1
  O  O24  1  0.20559000  0.58283900  0.17766600  1
  O  O25  1  0.91716100  0.12275100  0.59482700  1
  O  O26  1  0.32233400  0.90517300  0.02792400  1
  O  O27  1  0.29441000  0.47207600  0.37724900  1
  O  O28  1  0.29441000  0.32233400  0.91716100  1
  O  O29  1  0.47207600  0.37724900  0.29441000  1
  O  O30  1  0.90517300  0.37724900  0.58283900  1
  O  O31  1  0.37724900  0.29441000  0.47207600  1
  O  O32  1  0.20559000  0.12275100  0.02792400  1
  O  O33  1  0.12275100  0.59482700  0.91716100  1
  O  O34  1  0.17766600  0.20559000  0.58283900  1
  O  O35  1  0.58283900  0.17766600  0.20559000  1
  O  O36  1  0.02792400  0.32233400  0.90517300  1
  O  O37  1  0.90517300  0.02792400  0.32233400  1
  O  O38  1  0.59482700  0.91716100  0.12275100  1
  O  O39  1  0.17766600  0.47207600  0.59482700  1
  O  O40  1  0.58283900  0.90517300  0.37724900  1
  O  O41  1  0.32233400  0.91716100  0.29441000  1
  O  O42  1  0.47207600  0.59482700  0.17766600  1
  O  O43  1  0.37724900  0.58283900  0.90517300  1
  O  O44  1  0.91716100  0.29441000  0.32233400  1
  O  O45  1  0.02792400  0.20559000  0.12275100  1
  O  O46  1  0.12275100  0.02792400  0.20559000  1
  O  O47  1  0.41716100  0.82233400  0.79441000  1
loop_
_geom_bond_atom_site_label_1
_geom_bond_atom_site_label_2
_geom_bond_distance
_geom_bond_site_symmetry_2
Fe0 O46 2.061629 1_555
Fe0 O45 2.061629 1_555
Fe0 O32 2.061629 1_555
Fe0 O10 2.061629 1_444
Fe0 O9 2.061629 1_444
Fe0 O23 2.061629 1_444
Fe1 O33 2.061629 1_554
Fe1 O36 2.061629 1_554
Fe1 O24 2.061629 1_555
Fe1 O20 2.061629 1_455
Fe1 O0 2.061629 1_454
Fe1 O22 2.061629 1_455
Fe2 O18 2.061629 1_545
Fe2 O37 2.061629 1_455
Fe2 O25 2.061629 1_455
Fe2 O21 2.061629 1_445
Fe2 O34 2.061629 1_555
Fe2 O1 2.061629 1_545
Fe3 O2 2.061629 1_554
Fe3 O26 2.061629 1_545
Fe3 O38 2.061629 1_545
Fe3 O35 2.061629 1_555
Fe3 O47 2.061629 1_544
Fe3 O17 2.061629 1_554
Fe4 O30 2.061629 1_455
Fe4 O39 2.061629 1_555
Fe4 O16 2.061629 1_455
Fe4 O44 2.061629 1_455
Fe4 O11 2.061629 1_555
Fe4 O6 2.061629 1_555
Fe5 O8 2.061629 1_545
Fe5 O40 2.061629 1_545
Fe5 O41 2.061629 1_545
Fe5 O19 2.061629 1_555
Fe5 O15 2.061629 1_555
Fe5 O14 2.061629 1_555
Fe6 O13 2.061629 1_554
Fe6 O42 2.061629 1_555
Fe6 O43 2.061629 1_554
Fe6 O28 2.061629 1_554
Fe6 O4 2.061629 1_555
Fe6 O12 2.061629 1_555
Fe7 O27 2.061629 1_555
Fe7 O29 2.061629 1_555
Fe7 O31 2.061629 1_555
Fe7 O3 2.061629 1_555
Fe7 O7 2.061629 1_555
Fe7 O5 2.061629 1_555
Fe8 O8 1.905550 1_555
Fe8 O24 1.905550 1_555
Fe8 O27 1.905550 1_555
Fe8 O6 1.905550 1_555
Fe9 O7 1.905550 1_555
Fe9 O40 1.905550 1_555
Fe9 O42 1.905550 1_555
Fe9 O21 1.905550 1_555
Fe10 O2 1.905550 1_554
Fe10 O44 1.905550 1_555
Fe10 O22 1.905550 1_555
Fe10 O45 1.905550 1_655
Fe11 O41 1.905550 1_555
Fe11 O20 1.905550 1_455
Fe11 O1 1.905550 1_555
Fe11 O46 1.905550 1_565
Fe12 O28 1.905550 1_555
Fe12 O18 1.905550 1_545
Fe12 O17 1.905550 1_555
Fe12 O32 1.905550 1_556
Fe13 O23 1.905550 1_554
Fe13 O38 1.905550 1_555
Fe13 O4 1.905550 1_555
Fe13 O37 1.905550 1_565
Fe14 O34 1.905550 1_555
Fe14 O31 1.905550 1_555
Fe14 O13 1.905550 1_555
Fe14 O15 1.905550 1_555
Fe15 O16 1.905550 1_555
Fe15 O29 1.905550 1_555
Fe15 O35 1.905550 1_555
Fe15 O12 1.905550 1_555
Fe16 O10 1.905550 1_455
Fe16 O33 1.905550 1_555
Fe16 O11 1.905550 1_555
Fe16 O26 1.905550 1_556
Fe17 O9 1.905550 1_545
Fe17 O25 1.905550 1_555
Fe17 O14 1.905550 1_555
Fe17 O36 1.905550 1_655
Fe18 O3 1.905550 1_555
Fe18 O19 1.905550 1_555
Fe18 O30 1.905550 1_555
Fe18 O0 1.905550 1_555
Fe19 O5 1.905550 1_555
Fe19 O43 1.905550 1_555
Fe19 O39 1.905550 1_555
Fe19 O47 1.905550 1_555
O0 Sm6 2.417184 1_555
O0 Sm7 2.515071 1_555
O1 Sm10 2.417184 1_455
O1 Sm11 2.515071 1_555
O2 Sm7 2.417184 1_555
O2 Sm9 2.515071 1_545
O3 Sm6 2.417184 1_555
O3 Sm8 2.515071 1_555
O4 Sm6 2.417184 1_554
O4 Sm10 2.515071 1_555
O5 Sm9 2.417184 1_555
O5 Sm6 2.515071 1_555
O6 Sm11 2.417184 1_555
O6 Sm10 2.515071 1_455
O7 Sm8 2.417184 1_555
O7 Sm9 2.515071 1_555
O8 Sm11 2.417184 1_555
O8 Sm9 2.515071 1_555
O9 Sm9 2.417184 1_555
O9 Sm8 2.515071 1_555
O10 Sm8 2.417184 1_555
O10 Sm6 2.515071 1_555
O11 Sm8 2.417184 1_455
O11 Sm11 2.515071 1_555
O12 Sm10 2.417184 1_555
O12 Sm7 2.515071 1_554
O13 Sm7 2.417184 1_555
O13 Sm6 2.515071 1_555
O14 Sm9 2.417184 1_545
O14 Sm7 2.515071 1_555
O15 Sm7 2.417184 1_555
O15 Sm11 2.515071 1_545
O16 Sm10 2.417184 1_555
O16 Sm8 2.515071 1_555
O17 Sm11 2.417184 1_545
O17 Sm7 2.515071 1_555
O18 Sm11 2.417184 1_555
O18 Sm8 2.515071 1_455
O19 Sm5 2.417184 1_555
O19 Sm3 2.515071 1_555
O20 Sm10 2.417184 1_555
O20 Sm6 2.515071 1_554
O21 Sm8 2.417184 1_555
O21 Sm10 2.515071 1_555
O22 Sm7 2.417184 1_554
O22 Sm10 2.515071 1_555
O23 Sm6 2.417184 1_555
O23 Sm9 2.515071 1_555
O24 Sm0 2.417184 1_555
O24 Sm1 2.515071 1_555
O25 Sm4 2.417184 1_655
O25 Sm5 2.515071 1_555
O26 Sm1 2.417184 1_555
O26 Sm3 2.515071 1_565
O27 Sm0 2.417184 1_555
O27 Sm2 2.515071 1_555
O28 Sm0 2.417184 1_556
O28 Sm4 2.515071 1_555
O29 Sm3 2.417184 1_555
O29 Sm0 2.515071 1_555
O30 Sm5 2.417184 1_555
O30 Sm4 2.515071 1_655
O31 Sm2 2.417184 1_555
O31 Sm3 2.515071 1_555
O32 Sm0 2.417184 1_555
O32 Sm3 2.515071 1_555
O33 Sm1 2.417184 1_556
O33 Sm4 2.515071 1_555
O34 Sm2 2.417184 1_555
O34 Sm4 2.515071 1_555
O35 Sm3 2.417184 1_555
O35 Sm5 2.515071 1_555
O36 Sm4 2.417184 1_555
O36 Sm0 2.515071 1_556
O37 Sm5 2.417184 1_555
O37 Sm2 2.515071 1_655
O38 Sm5 2.417184 1_565
O38 Sm1 2.515071 1_555
O39 Sm4 2.417184 1_555
O39 Sm2 2.515071 1_555
O40 Sm1 2.417184 1_555
O40 Sm5 2.515071 1_565
O41 Sm3 2.417184 1_565
O41 Sm1 2.515071 1_555
O42 Sm1 2.417184 1_555
O42 Sm0 2.515071 1_555
O43 Sm4 2.417184 1_555
O43 Sm1 2.515071 1_556
O44 Sm2 2.417184 1_655
O44 Sm5 2.515071 1_555
O45 Sm2 2.417184 1_555
O45 Sm0 2.515071 1_555
O46 Sm3 2.417184 1_555
O46 Sm2 2.515071 1_555
O47 Sm9 2.417184 1_555
O47 Sm11 2.515071 1_555
