# generated using pymatgen
data_Ba2PrV3O11
_symmetry_space_group_name_H-M   'P 1'
_cell_length_a   7.87696000
_cell_length_b   12.58219753
_cell_length_c   11.47360310
_cell_angle_alpha   103.12684151
_cell_angle_beta   90.00000000
_cell_angle_gamma   90.00000000
_symmetry_Int_Tables_number   1
_chemical_formula_structural   Ba2PrV3O11
_chemical_formula_sum   'Ba8 Pr4 V12 O44'
_cell_volume   1107.42878206
_cell_formula_units_Z   4
loop_
 _symmetry_equiv_pos_site_id
 _symmetry_equiv_pos_as_xyz
  1  'x, y, z'
loop_
 _atom_site_type_symbol
 _atom_site_label
 _atom_site_symmetry_multiplicity
 _atom_site_fract_x
 _atom_site_fract_y
 _atom_site_fract_z
 _atom_site_occupancy
  Ba  Ba0  1  0.27411200  0.76442100  0.94111700  1
  Ba  Ba1  1  0.72588800  0.23557900  0.05888300  1
  Ba  Ba2  1  0.77411200  0.23557900  0.55888300  1
  Ba  Ba3  1  0.22588800  0.76442100  0.44111700  1
  Ba  Ba4  1  0.74729300  0.55375400  0.88926300  1
  Ba  Ba5  1  0.25270700  0.44624600  0.11073700  1
  Ba  Ba6  1  0.24729300  0.44624600  0.61073700  1
  Ba  Ba7  1  0.75270700  0.55375400  0.38926300  1
  Pr  Pr0  1  0.50077700  0.99770600  0.71071900  1
  Pr  Pr1  1  0.49922300  0.00229400  0.28928100  1
  Pr  Pr2  1  0.00077700  0.00229400  0.78928100  1
  Pr  Pr3  1  0.99922300  0.99770600  0.21071900  1
  V  V0  1  0.75046300  0.90346000  0.97546700  1
  V  V1  1  0.24953700  0.09654000  0.02453300  1
  V  V2  1  0.25046300  0.09654000  0.52453300  1
  V  V3  1  0.74953700  0.90346000  0.47546700  1
  V  V4  1  0.51997700  0.68238200  0.67360800  1
  V  V5  1  0.48002300  0.31761800  0.32639200  1
  V  V6  1  0.01997700  0.31761800  0.82639200  1
  V  V7  1  0.98002300  0.68238200  0.17360800  1
  V  V8  1  0.98044400  0.68574900  0.67003800  1
  V  V9  1  0.01955600  0.31425100  0.32996200  1
  V  V10  1  0.48044400  0.31425100  0.82996200  1
  V  V11  1  0.51955600  0.68574900  0.17003800  1
  O  O0  1  0.44192100  0.81399900  0.71961100  1
  O  O1  1  0.55807900  0.18600100  0.28038900  1
  O  O2  1  0.94192100  0.18600100  0.78038900  1
  O  O3  1  0.05807900  0.81399900  0.21961100  1
  O  O4  1  0.55237000  0.18155900  0.81039900  1
  O  O5  1  0.44763000  0.81844100  0.18960100  1
  O  O6  1  0.05237000  0.81844100  0.68960100  1
  O  O7  1  0.94763000  0.18155900  0.31039900  1
  O  O8  1  0.75024900  0.66708300  0.66752000  1
  O  O9  1  0.24975100  0.33291700  0.33248000  1
  O  O10  1  0.25024900  0.33291700  0.83248000  1
  O  O11  1  0.74975100  0.66708300  0.16752000  1
  O  O12  1  0.94553800  0.37557700  0.96569000  1
  O  O13  1  0.05446200  0.62442300  0.03431000  1
  O  O14  1  0.44553800  0.62442300  0.53431000  1
  O  O15  1  0.55446200  0.37557700  0.46569000  1
  O  O16  1  0.94271000  0.39374600  0.73209800  1
  O  O17  1  0.05729000  0.60625400  0.26790200  1
  O  O18  1  0.44271000  0.60625400  0.76790200  1
  O  O19  1  0.55729000  0.39374600  0.23209800  1
  O  O20  1  0.78610500  0.98562900  0.62097300  1
  O  O21  1  0.21389500  0.01437100  0.37902700  1
  O  O22  1  0.28610500  0.01437100  0.87902700  1
  O  O23  1  0.71389500  0.98562900  0.12097300  1
  O  O24  1  0.96869900  0.88190400  0.97284900  1
  O  O25  1  0.03130100  0.11809600  0.02715100  1
  O  O26  1  0.46869900  0.11809600  0.52715100  1
  O  O27  1  0.53130100  0.88190400  0.47284900  1
  O  O28  1  0.63742600  0.78528600  0.94651900  1
  O  O29  1  0.36257400  0.21471400  0.05348100  1
  O  O30  1  0.13742600  0.21471400  0.55348100  1
  O  O31  1  0.86257400  0.78528600  0.44651900  1
  O  O32  1  0.71615600  0.98226000  0.86717400  1
  O  O33  1  0.28384400  0.01774000  0.13282600  1
  O  O34  1  0.21615600  0.01774000  0.63282600  1
  O  O35  1  0.78384400  0.98226000  0.36717400  1
  O  O36  1  0.55812400  0.37060100  0.71954400  1
  O  O37  1  0.44187600  0.62939900  0.28045600  1
  O  O38  1  0.05812400  0.62939900  0.78045600  1
  O  O39  1  0.94187600  0.37060100  0.21954400  1
  O  O40  1  0.56159400  0.38891600  0.96169400  1
  O  O41  1  0.43840600  0.61108400  0.03830600  1
  O  O42  1  0.06159400  0.61108400  0.53830600  1
  O  O43  1  0.93840600  0.38891600  0.46169400  1
loop_
_geom_bond_atom_site_label_1
_geom_bond_atom_site_label_2
_geom_bond_distance
_geom_bond_site_symmetry_2
Ba0 O41 2.760021 1_556
Ba0 O38 2.785001 1_555
Ba0 O24 2.803690 1_455
Ba0 O18 2.806677 1_555
Ba0 O13 2.845197 1_556
Ba0 O28 2.873209 1_555
Ba0 O0 3.052135 1_555
Ba0 O5 3.094861 1_556
Ba0 O22 3.380028 1_565
Ba0 O33 3.437823 1_566
Ba1 O40 2.760021 1_554
Ba1 O39 2.785001 1_555
Ba1 O25 2.803690 1_655
Ba1 O19 2.806677 1_555
Ba1 O12 2.845197 1_554
Ba1 O29 2.873209 1_555
Ba1 O1 3.052135 1_555
Ba1 O4 3.094861 1_554
Ba1 O23 3.380028 1_545
Ba1 O32 3.437823 1_544
Ba2 O43 2.760021 1_555
Ba2 O36 2.785001 1_555
Ba2 O26 2.803690 1_555
Ba2 O16 2.806677 1_555
Ba2 O15 2.845197 1_555
Ba2 O30 2.873209 1_655
Ba2 O2 3.052135 1_555
Ba2 O7 3.094861 1_555
Ba2 O20 3.380028 1_545
Ba2 O35 3.437823 1_545
Ba3 O42 2.760021 1_555
Ba3 O37 2.785001 1_555
Ba3 O27 2.803690 1_555
Ba3 O17 2.806677 1_555
Ba3 O14 2.845197 1_555
Ba3 O31 2.873209 1_455
Ba3 O3 3.052135 1_555
Ba3 O6 3.094861 1_555
Ba3 O21 3.380028 1_565
Ba3 O34 3.437823 1_565
Ba4 O40 2.813311 1_555
Ba4 O16 2.832901 1_555
Ba4 O18 2.923893 1_555
Ba4 O13 2.956747 1_656
Ba4 O28 2.966121 1_555
Ba4 O41 2.967200 1_556
Ba4 O38 2.999799 1_655
Ba4 O12 3.020975 1_555
Ba4 O36 3.047057 1_555
Ba4 O8 3.186619 1_555
Ba4 O11 3.187259 1_556
Ba5 O41 2.813311 1_555
Ba5 O17 2.832901 1_555
Ba5 O19 2.923893 1_555
Ba5 O12 2.956747 1_454
Ba5 O29 2.966121 1_555
Ba5 O40 2.967200 1_554
Ba5 O39 2.999799 1_455
Ba5 O13 3.020975 1_555
Ba5 O37 3.047057 1_555
Ba5 O9 3.186619 1_555
Ba5 O10 3.187259 1_554
Ba6 O42 2.813311 1_555
Ba6 O18 2.832901 1_555
Ba6 O16 2.923893 1_455
Ba6 O15 2.956747 1_555
Ba6 O30 2.966121 1_555
Ba6 O43 2.967200 1_455
Ba6 O36 2.999799 1_555
Ba6 O14 3.020975 1_555
Ba6 O38 3.047057 1_555
Ba6 O10 3.186619 1_555
Ba6 O9 3.187259 1_555
Ba7 O43 2.813311 1_555
Ba7 O19 2.832901 1_555
Ba7 O17 2.923893 1_655
Ba7 O14 2.956747 1_555
Ba7 O31 2.966121 1_555
Ba7 O42 2.967200 1_655
Ba7 O37 2.999799 1_555
Ba7 O15 3.020975 1_555
Ba7 O39 3.047057 1_555
Ba7 O11 3.186619 1_555
Ba7 O8 3.187259 1_555
O0 V4 1.732640 1_555
O0 Pr0 2.382267 1_555
O1 V5 1.732640 1_555
O1 Pr1 2.382267 1_555
O2 V6 1.732640 1_655
O2 Pr2 2.382267 1_655
O3 V7 1.732640 1_455
O3 Pr3 2.382267 1_455
O4 V10 1.728750 1_555
O4 Pr0 2.371228 1_545
O5 V11 1.728750 1_555
O5 Pr1 2.371228 1_565
O6 V8 1.728750 1_455
O6 Pr2 2.371228 1_565
O7 V9 1.728750 1_655
O7 Pr3 2.371228 1_545
O8 V4 1.823692 1_555
O8 V8 1.827769 1_555
O9 V5 1.823692 1_555
O9 V9 1.827769 1_555
O10 V6 1.823692 1_555
O10 V10 1.827769 1_555
O11 V7 1.823692 1_555
O11 V11 1.827769 1_555
O12 V6 1.703121 1_655
O13 V7 1.703121 1_455
O14 V4 1.703121 1_555
O15 V5 1.703121 1_555
O16 V6 1.711465 1_655
O17 V7 1.711465 1_455
O18 V4 1.711465 1_555
O19 V5 1.711465 1_555
O20 V3 1.776239 1_555
O20 Pr0 2.462449 1_555
O20 Pr2 2.539399 1_665
O21 V2 1.776239 1_555
O21 Pr1 2.462449 1_555
O21 Pr3 2.539399 1_445
O22 V1 1.776239 1_556
O22 Pr2 2.462449 1_555
O22 Pr0 2.539399 1_545
O23 V0 1.776239 1_554
O23 Pr3 2.462449 1_555
O23 Pr1 2.539399 1_565
O24 V0 1.739497 1_555
O24 Pr3 2.797003 1_556
O24 Pr2 2.871153 1_665
O25 V1 1.739497 1_555
O25 Pr2 2.797003 1_554
O25 Pr3 2.871153 1_445
O26 V2 1.739497 1_555
O26 Pr1 2.797003 1_555
O26 Pr0 2.871153 1_545
O27 V3 1.739497 1_555
O27 Pr0 2.797003 1_555
O27 Pr1 2.871153 1_565
O28 V0 1.699891 1_555
O29 V1 1.699891 1_555
O30 V2 1.699891 1_555
O31 V3 1.699891 1_555
O32 V0 1.777483 1_555
O32 Pr2 2.447636 1_665
O32 Pr0 2.509351 1_555
O33 V1 1.777483 1_555
O33 Pr3 2.447636 1_445
O33 Pr1 2.509351 1_555
O34 V2 1.777483 1_555
O34 Pr0 2.447636 1_545
O34 Pr2 2.509351 1_555
O35 V3 1.777483 1_555
O35 Pr1 2.447636 1_565
O35 Pr3 2.509351 1_555
O36 V10 1.700029 1_555
O37 V11 1.700029 1_555
O38 V8 1.700029 1_455
O39 V9 1.700029 1_655
O40 V10 1.711918 1_555
O41 V11 1.711918 1_555
O42 V8 1.711918 1_455
O43 V9 1.711918 1_655
