# generated using pymatgen
data_Bi2(Br3N)3
_symmetry_space_group_name_H-M   'P 1'
_cell_length_a   7.79010043
_cell_length_b   7.79010043
_cell_length_c   9.75619100
_cell_angle_alpha   90.00000000
_cell_angle_beta   90.00000000
_cell_angle_gamma   120.00000369
_symmetry_Int_Tables_number   1
_chemical_formula_structural   Bi2(Br3N)3
_chemical_formula_sum   'Bi2 Br9 N3'
_cell_volume   512.73979260
_cell_formula_units_Z   1
loop_
 _symmetry_equiv_pos_site_id
 _symmetry_equiv_pos_as_xyz
  1  'x, y, z'
loop_
 _atom_site_type_symbol
 _atom_site_label
 _atom_site_symmetry_multiplicity
 _atom_site_fract_x
 _atom_site_fract_y
 _atom_site_fract_z
 _atom_site_occupancy
  Bi  Bi0  1  0.33333300  0.66666700  0.80880500  1
  Bi  Bi1  1  0.66666700  0.33333300  0.19119500  1
  Br  Br0  1  0.00000000  0.50000000  0.00000000  1
  Br  Br1  1  0.50000000  0.00000000  0.00000000  1
  Br  Br2  1  0.50000000  0.50000000  0.00000000  1
  Br  Br3  1  0.16399500  0.83600500  0.66932300  1
  Br  Br4  1  0.67201000  0.83600500  0.66932300  1
  Br  Br5  1  0.16399500  0.32799000  0.66932300  1
  Br  Br6  1  0.83600500  0.16399500  0.33067700  1
  Br  Br7  1  0.32799000  0.16399500  0.33067700  1
  Br  Br8  1  0.83600500  0.67201000  0.33067700  1
  N  N0  1  0.00000000  0.00000000  0.00000000  1
  N  N1  1  0.33333300  0.66666700  0.31656100  1
  N  N2  1  0.66666700  0.33333300  0.68343900  1
loop_
_geom_bond_atom_site_label_1
_geom_bond_atom_site_label_2
_geom_bond_distance
_geom_bond_site_symmetry_2
Bi0 Br3 2.659391 1_555
Bi0 Br5 2.659397 1_555
Bi0 Br4 2.659397 1_555
Bi0 Br1 2.921747 1_566
Bi0 Br0 2.921747 1_556
Bi0 Br2 2.921752 1_556
Bi1 Br6 2.659391 1_555
Bi1 Br7 2.659397 1_555
Bi1 Br8 2.659397 1_555
Bi1 Br0 2.921747 1_655
Bi1 Br1 2.921747 1_555
Bi1 Br2 2.921752 1_555
