# generated using pymatgen
data_HoTe2
_symmetry_space_group_name_H-M   'P 1'
_cell_length_a   4.42915861
_cell_length_b   4.42915861
_cell_length_c   8.83490017
_cell_angle_alpha   90.00000000
_cell_angle_beta   90.00000000
_cell_angle_gamma   90.00000000
_symmetry_Int_Tables_number   1
_chemical_formula_structural   HoTe2
_chemical_formula_sum   'Ho2 Te4'
_cell_volume   173.31817693
_cell_formula_units_Z   2
loop_
 _symmetry_equiv_pos_site_id
 _symmetry_equiv_pos_as_xyz
  1  'x, y, z'
loop_
 _atom_site_type_symbol
 _atom_site_label
 _atom_site_symmetry_multiplicity
 _atom_site_fract_x
 _atom_site_fract_y
 _atom_site_fract_z
 _atom_site_occupancy
  Ho  Ho0  1  0.75000000  0.75000000  0.72912342  1
  Ho  Ho1  1  0.25000000  0.25000000  0.27087658  1
  Te  Te0  1  0.75000000  0.75000000  0.37215739  1
  Te  Te1  1  0.25000000  0.25000000  0.62784261  1
  Te  Te2  1  0.75000000  0.25000000  0.00000000  1
  Te  Te3  1  0.25000000  0.75000000  0.00000000  1
loop_
_geom_bond_atom_site_label_1
_geom_bond_atom_site_label_2
_geom_bond_distance
_geom_bond_site_symmetry_2
Ho0 Te0 3.153759 1_555
Ho0 Te1 3.257207 1_665
Ho0 Te1 3.257207 1_555
Ho0 Te1 3.257207 1_565
Ho0 Te1 3.257207 1_655
Ho0 Te3 3.260615 1_556
Ho0 Te3 3.260615 1_656
Ho0 Te2 3.260615 1_566
Ho0 Te2 3.260615 1_556
Ho1 Te1 3.153759 1_555
Ho1 Te0 3.257207 1_445
Ho1 Te0 3.257207 1_455
Ho1 Te0 3.257207 1_545
Ho1 Te0 3.257207 1_555
Ho1 Te2 3.260615 1_555
Ho1 Te3 3.260615 1_545
Ho1 Te3 3.260615 1_555
Ho1 Te2 3.260615 1_455
Te2 Te3 3.131888 1_645
Te2 Te3 3.131888 1_545
Te2 Te3 3.131888 1_655
Te2 Te3 3.131888 1_555
