# generated using pymatgen
data_Co3B11HO20
_symmetry_space_group_name_H-M   'P 1'
_cell_length_a   7.74903800
_cell_length_b   8.24368200
_cell_length_c   17.62177800
_cell_angle_alpha   90.00000000
_cell_angle_beta   90.00000000
_cell_angle_gamma   90.00000000
_symmetry_Int_Tables_number   1
_chemical_formula_structural   Co3B11HO20
_chemical_formula_sum   'Co12 B44 H4 O80'
_cell_volume   1125.68984119
_cell_formula_units_Z   4
loop_
 _symmetry_equiv_pos_site_id
 _symmetry_equiv_pos_as_xyz
  1  'x, y, z'
loop_
 _atom_site_type_symbol
 _atom_site_label
 _atom_site_symmetry_multiplicity
 _atom_site_fract_x
 _atom_site_fract_y
 _atom_site_fract_z
 _atom_site_occupancy
  Co  Co0  1  0.00000000  0.67441800  0.84345000  1
  Co  Co1  1  0.50000000  0.32558200  0.34345000  1
  Co  Co2  1  0.50000000  0.96118100  0.20476900  1
  Co  Co3  1  0.00000000  0.03881900  0.70476900  1
  Co  Co4  1  0.50000000  0.85467900  0.75637600  1
  Co  Co5  1  0.00000000  0.14532100  0.25637600  1
  Co  Co6  1  0.50000000  0.22693400  0.62699200  1
  Co  Co7  1  0.00000000  0.77306600  0.12699200  1
  Co  Co8  1  0.00000000  0.26406800  0.95980100  1
  Co  Co9  1  0.50000000  0.73593200  0.45980100  1
  Co  Co10  1  0.50000000  0.43993500  0.89876100  1
  Co  Co11  1  0.00000000  0.56006500  0.39876100  1
  B  B0  1  0.66481500  0.78940500  0.90995700  1
  B  B1  1  0.33518500  0.78940500  0.90995700  1
  B  B2  1  0.83518500  0.21059500  0.40995700  1
  B  B3  1  0.16481500  0.21059500  0.40995700  1
  B  B4  1  0.82495700  0.01864300  0.84273200  1
  B  B5  1  0.17504300  0.01864300  0.84273200  1
  B  B6  1  0.67504300  0.98135700  0.34273200  1
  B  B7  1  0.32495700  0.98135700  0.34273200  1
  B  B8  1  0.83125100  0.60094300  0.99948300  1
  B  B9  1  0.16874900  0.60094300  0.99948300  1
  B  B10  1  0.66874900  0.39905700  0.49948300  1
  B  B11  1  0.33125100  0.39905700  0.49948300  1
  B  B12  1  0.66298700  0.08556500  0.96126500  1
  B  B13  1  0.33701300  0.08556500  0.96126500  1
  B  B14  1  0.83701300  0.91443500  0.46126500  1
  B  B15  1  0.16298700  0.91443500  0.46126500  1
  B  B16  1  0.66864400  0.35093200  0.03895400  1
  B  B17  1  0.33135600  0.35093200  0.03895400  1
  B  B18  1  0.83135600  0.64906800  0.53895400  1
  B  B19  1  0.16864400  0.64906800  0.53895400  1
  B  B20  1  0.83564400  0.14830900  0.55816900  1
  B  B21  1  0.16435600  0.14830900  0.55816900  1
  B  B22  1  0.66435600  0.85169100  0.05816900  1
  B  B23  1  0.33564400  0.85169100  0.05816900  1
  B  B24  1  0.83282400  0.10179800  0.09512800  1
  B  B25  1  0.16717600  0.10179800  0.09512800  1
  B  B26  1  0.66717600  0.89820200  0.59512800  1
  B  B27  1  0.33282400  0.89820200  0.59512800  1
  B  B28  1  0.66505300  0.50629300  0.75326100  1
  B  B29  1  0.33494700  0.50629300  0.75326100  1
  B  B30  1  0.83494700  0.49370700  0.25326100  1
  B  B31  1  0.16505300  0.49370700  0.25326100  1
  B  B32  1  0.83114900  0.71404000  0.68544600  1
  B  B33  1  0.16885100  0.71404000  0.68544600  1
  B  B34  1  0.66885100  0.28596000  0.18544600  1
  B  B35  1  0.33114900  0.28596000  0.18544600  1
  B  B36  1  0.66100300  0.58677700  0.13435900  1
  B  B37  1  0.33899700  0.58677700  0.13435900  1
  B  B38  1  0.83899700  0.41322300  0.63435900  1
  B  B39  1  0.16100300  0.41322300  0.63435900  1
  B  B40  1  0.66965100  0.23998000  0.76319000  1
  B  B41  1  0.33034900  0.23998000  0.76319000  1
  B  B42  1  0.83034900  0.76002000  0.26319000  1
  B  B43  1  0.16965100  0.76002000  0.26319000  1
  H  H0  1  0.89262100  0.37673900  0.83400700  1
  H  H1  1  0.10737900  0.37673900  0.83400700  1
  H  H2  1  0.60737900  0.62326100  0.33400700  1
  H  H3  1  0.39262100  0.62326100  0.33400700  1
  O  O0  1  0.80633400  0.67677100  0.92474200  1
  O  O1  1  0.19366600  0.67677100  0.92474200  1
  O  O2  1  0.69366600  0.32322900  0.42474200  1
  O  O3  1  0.30633400  0.32322900  0.42474200  1
  O  O4  1  0.69606700  0.87499400  0.27257300  1
  O  O5  1  0.30393300  0.87499400  0.27257300  1
  O  O6  1  0.80393300  0.12500600  0.77257300  1
  O  O7  1  0.19606700  0.12500600  0.77257300  1
  O  O8  1  0.69514000  0.83241100  0.67187800  1
  O  O9  1  0.30486000  0.83241100  0.67187800  1
  O  O10  1  0.80486000  0.16758900  0.17187800  1
  O  O11  1  0.19514000  0.16758900  0.17187800  1
  O  O12  1  0.50000000  0.58482700  0.74673600  1
  O  O13  1  0.00000000  0.41517300  0.24673600  1
  O  O14  1  0.50000000  0.20576500  0.18548100  1
  O  O15  1  0.00000000  0.79423500  0.68548100  1
  O  O16  1  0.00000000  0.94156900  0.83379400  1
  O  O17  1  0.50000000  0.05843100  0.33379400  1
  O  O18  1  0.50000000  0.89270500  0.09348800  1
  O  O19  1  0.00000000  0.10729500  0.59348800  1
  O  O20  1  0.80666700  0.61872600  0.75402700  1
  O  O21  1  0.19333300  0.61872600  0.75402700  1
  O  O22  1  0.69333300  0.38127400  0.25402700  1
  O  O23  1  0.30666700  0.38127400  0.25402700  1
  O  O24  1  0.50000000  0.39419100  0.00864200  1
  O  O25  1  0.00000000  0.60580900  0.50864200  1
  O  O26  1  0.80827500  0.11832500  0.91161000  1
  O  O27  1  0.19172500  0.11832500  0.91161000  1
  O  O28  1  0.69172500  0.88167500  0.41161000  1
  O  O29  1  0.30827500  0.88167500  0.41161000  1
  O  O30  1  0.00000000  0.14568700  0.06350400  1
  O  O31  1  0.50000000  0.85431300  0.56350400  1
  O  O32  1  0.80127200  0.42676500  0.99404000  1
  O  O33  1  0.19872800  0.42676500  0.99404000  1
  O  O34  1  0.69872800  0.57323500  0.49404000  1
  O  O35  1  0.30127200  0.57323500  0.49404000  1
  O  O36  1  0.50000000  0.69987400  0.90635600  1
  O  O37  1  0.00000000  0.30012600  0.40635600  1
  O  O38  1  0.69153400  0.88889700  0.84227600  1
  O  O39  1  0.30846600  0.88889700  0.84227600  1
  O  O40  1  0.80846600  0.11110300  0.34227600  1
  O  O41  1  0.19153400  0.11110300  0.34227600  1
  O  O42  1  0.67421200  0.38212100  0.81513100  1
  O  O43  1  0.32578800  0.38212100  0.81513100  1
  O  O44  1  0.82578800  0.61787900  0.31513100  1
  O  O45  1  0.17421200  0.61787900  0.31513100  1
  O  O46  1  0.69516600  0.36931500  0.68940200  1
  O  O47  1  0.30483400  0.36931500  0.68940200  1
  O  O48  1  0.80483400  0.63068500  0.18940200  1
  O  O49  1  0.19516600  0.63068500  0.18940200  1
  O  O50  1  0.50000000  0.36035900  0.53178600  1
  O  O51  1  0.00000000  0.63964100  0.03178600  1
  O  O52  1  0.69375900  0.07408800  0.59837100  1
  O  O53  1  0.30624100  0.07408800  0.59837100  1
  O  O54  1  0.80624100  0.92591200  0.09837100  1
  O  O55  1  0.19375900  0.92591200  0.09837100  1
  O  O56  1  0.66518400  0.90613400  0.97819900  1
  O  O57  1  0.33481600  0.90613400  0.97819900  1
  O  O58  1  0.83481600  0.09386700  0.47819900  1
  O  O59  1  0.16518400  0.09386700  0.47819900  1
  O  O60  1  0.69708500  0.17057000  0.03926000  1
  O  O61  1  0.30291500  0.17057000  0.03926000  1
  O  O62  1  0.80291500  0.82943000  0.53926000  1
  O  O63  1  0.19708500  0.82943000  0.53926000  1
  O  O64  1  0.68035100  0.40867100  0.11919200  1
  O  O65  1  0.31964900  0.40867100  0.11919200  1
  O  O66  1  0.81964900  0.59132900  0.61919200  1
  O  O67  1  0.18035100  0.59132900  0.61919200  1
  O  O68  1  0.69658200  0.67016000  0.05792800  1
  O  O69  1  0.30341800  0.67016000  0.05792800  1
  O  O70  1  0.80341800  0.32984000  0.55792800  1
  O  O71  1  0.19658200  0.32984000  0.55792800  1
  O  O72  1  0.50000000  0.13599400  0.93082500  1
  O  O73  1  0.00000000  0.86400600  0.43082500  1
  O  O74  1  0.50000000  0.16723400  0.74879400  1
  O  O75  1  0.00000000  0.83276600  0.24879400  1
  O  O76  1  0.00000000  0.41156200  0.86036000  1
  O  O77  1  0.50000000  0.58843800  0.36036000  1
  O  O78  1  0.50000000  0.62821900  0.16572600  1
  O  O79  1  0.00000000  0.37178100  0.66572600  1
loop_
_geom_bond_atom_site_label_1
_geom_bond_atom_site_label_2
_geom_bond_distance
_geom_bond_site_symmetry_2
Co0 O1 2.074762 1_555
Co0 O0 2.074762 1_455
Co0 O76 2.187294 1_555
Co0 O16 2.208871 1_555
Co0 O20 2.222237 1_455
Co0 O21 2.222237 1_555
Co1 O2 2.074762 1_555
Co1 O3 2.074762 1_555
Co1 O77 2.187294 1_555
Co1 O17 2.208871 1_555
Co1 O23 2.222237 1_555
Co1 O22 2.222237 1_555
Co2 O18 2.040601 1_555
Co2 O14 2.044720 1_565
Co2 O5 2.059317 1_555
Co2 O4 2.059317 1_555
Co2 O17 2.410851 1_565
Co3 O19 2.040601 1_555
Co3 O15 2.044720 1_545
Co3 O7 2.059317 1_555
Co3 O6 2.059317 1_455
Co3 O16 2.410851 1_545
Co4 O9 2.130123 1_555
Co4 O8 2.130123 1_555
Co4 O38 2.138633 1_555
Co4 O39 2.138633 1_555
Co4 O12 2.231051 1_555
Co4 O74 2.580066 1_565
Co5 O11 2.130123 1_555
Co5 O10 2.130123 1_455
Co5 O40 2.138633 1_455
Co5 O41 2.138633 1_555
Co5 O13 2.231051 1_555
Co5 O75 2.580066 1_545
Co6 O50 2.006111 1_555
Co6 O53 2.023943 1_555
Co6 O52 2.023943 1_555
Co6 O74 2.202068 1_555
Co6 O46 2.207799 1_555
Co6 O47 2.207799 1_555
Co7 O51 2.006111 1_555
Co7 O55 2.023943 1_555
Co7 O54 2.023943 1_455
Co7 O75 2.202068 1_555
Co7 O48 2.207799 1_455
Co7 O49 2.207799 1_555
Co8 O30 2.071684 1_556
Co8 O26 2.090914 1_455
Co8 O27 2.090914 1_555
Co8 O32 2.129404 1_455
Co8 O33 2.129404 1_555
Co8 O76 2.132850 1_555
Co9 O31 2.071684 1_555
Co9 O28 2.090914 1_555
Co9 O29 2.090914 1_555
Co9 O34 2.129404 1_555
Co9 O35 2.129404 1_555
Co9 O77 2.132850 1_555
Co10 O24 1.972677 1_556
Co10 O42 2.054605 1_555
Co10 O43 2.054605 1_555
Co10 O36 2.147030 1_555
Co10 O72 2.568511 1_555
Co11 O25 1.972677 1_555
Co11 O45 2.054605 1_555
Co11 O44 2.054605 1_455
Co11 O37 2.147030 1_555
Co11 O73 2.568511 1_555
B0 O0 1.460355 1_555
B0 O38 1.462190 1_555
B0 O36 1.476448 1_555
B0 O56 1.540162 1_555
B1 O1 1.460355 1_555
B1 O39 1.462190 1_555
B1 O36 1.476448 1_555
B1 O57 1.540162 1_555
B2 O2 1.460355 1_555
B2 O40 1.462190 1_555
B2 O37 1.476448 1_655
B2 O58 1.540157 1_555
B3 O3 1.460355 1_555
B3 O41 1.462190 1_555
B3 O37 1.476448 1_555
B3 O59 1.540157 1_555
B4 O26 1.471453 1_555
B4 O38 1.487624 1_545
B4 O16 1.506110 1_645
B4 O6 1.524422 1_555
B5 O27 1.471453 1_555
B5 O39 1.487624 1_545
B5 O16 1.506110 1_545
B5 O7 1.524422 1_555
B6 O28 1.471453 1_555
B6 O40 1.487624 1_565
B6 O17 1.506110 1_565
B6 O4 1.524422 1_555
B7 O29 1.471453 1_555
B7 O41 1.487624 1_565
B7 O17 1.506110 1_565
B7 O5 1.524422 1_555
B8 O32 1.457698 1_555
B8 O51 1.461413 1_656
B8 O0 1.470614 1_555
B8 O68 1.573308 1_556
B9 O33 1.457698 1_555
B9 O51 1.461413 1_556
B9 O1 1.470614 1_555
B9 O69 1.573308 1_556
B10 O34 1.457698 1_555
B10 O50 1.461413 1_555
B10 O2 1.470614 1_555
B10 O70 1.573308 1_555
B11 O35 1.457698 1_555
B11 O50 1.461413 1_555
B11 O3 1.470614 1_555
B11 O71 1.573308 1_555
B12 O72 1.433773 1_555
B12 O26 1.451240 1_555
B12 O56 1.509068 1_545
B12 O60 1.565208 1_556
B13 O72 1.433773 1_555
B13 O27 1.451240 1_555
B13 O57 1.509068 1_545
B13 O61 1.565208 1_556
B14 O73 1.433773 1_655
B14 O28 1.451240 1_555
B14 O58 1.509076 1_565
B14 O62 1.565208 1_555
B15 O73 1.433773 1_555
B15 O29 1.451240 1_555
B15 O59 1.509076 1_565
B15 O63 1.565208 1_555
B16 O32 1.439954 1_554
B16 O24 1.456122 1_555
B16 O64 1.494659 1_555
B16 O60 1.503102 1_555
B17 O33 1.439954 1_554
B17 O24 1.456122 1_555
B17 O65 1.494659 1_555
B17 O61 1.503102 1_555
B18 O34 1.439954 1_555
B18 O25 1.456122 1_655
B18 O66 1.494659 1_555
B18 O62 1.503102 1_555
B19 O35 1.439954 1_555
B19 O25 1.456122 1_555
B19 O67 1.494659 1_555
B19 O63 1.503102 1_555
B20 O52 1.443980 1_555
B20 O19 1.457305 1_655
B20 O58 1.478968 1_555
B20 O70 1.517182 1_555
B21 O53 1.443980 1_555
B21 O19 1.457305 1_555
B21 O59 1.478968 1_555
B21 O71 1.517182 1_555
B22 O54 1.443980 1_555
B22 O18 1.457305 1_555
B22 O56 1.478971 1_554
B22 O68 1.517182 1_555
B23 O55 1.443980 1_555
B23 O18 1.457305 1_555
B23 O57 1.478971 1_554
B23 O69 1.517182 1_555
B24 O30 1.455903 1_655
B24 O54 1.465622 1_545
B24 O10 1.473190 1_555
B24 O60 1.548232 1_555
B25 O30 1.455903 1_555
B25 O55 1.465622 1_545
B25 O11 1.473190 1_555
B25 O61 1.548232 1_555
B26 O31 1.455903 1_555
B26 O52 1.465622 1_565
B26 O8 1.473190 1_555
B26 O62 1.548232 1_555
B27 O31 1.455903 1_555
B27 O53 1.465622 1_565
B27 O9 1.473190 1_555
B27 O63 1.548232 1_555
B28 O20 1.436482 1_555
B28 O12 1.438126 1_555
B28 O42 1.497174 1_555
B28 O46 1.611171 1_555
B29 O21 1.436482 1_555
B29 O12 1.438126 1_555
B29 O43 1.497174 1_555
B29 O47 1.611171 1_555
B30 O22 1.436482 1_555
B30 O13 1.438126 1_655
B30 O44 1.497174 1_555
B30 O48 1.611171 1_555
B31 O23 1.436482 1_555
B31 O13 1.438126 1_555
B31 O45 1.497174 1_555
B31 O49 1.611171 1_555
B32 O20 1.453924 1_555
B32 O8 1.456078 1_555
B32 O15 1.465965 1_655
B32 O66 1.547367 1_555
B33 O21 1.453924 1_555
B33 O9 1.456078 1_555
B33 O15 1.465965 1_555
B33 O67 1.547367 1_555
B34 O22 1.453924 1_555
B34 O10 1.456078 1_555
B34 O14 1.465965 1_555
B34 O64 1.547367 1_555
B35 O23 1.453924 1_555
B35 O11 1.456078 1_555
B35 O14 1.465965 1_555
B35 O65 1.547367 1_555
B36 O78 1.406695 1_555
B36 O64 1.499889 1_555
B36 O48 1.521203 1_555
B36 O68 1.537047 1_555
B37 O78 1.406695 1_555
B37 O65 1.499889 1_555
B37 O49 1.521203 1_555
B37 O69 1.537047 1_555
B38 O79 1.406695 1_655
B38 O66 1.499889 1_555
B38 O46 1.521203 1_555
B38 O70 1.537047 1_555
B39 O79 1.406695 1_555
B39 O67 1.499889 1_555
B39 O47 1.521203 1_555
B39 O71 1.537047 1_555
B40 O6 1.417194 1_555
B40 O74 1.467054 1_555
B40 O42 1.487294 1_555
B40 O46 1.693099 1_555
B41 O7 1.417194 1_555
B41 O74 1.467054 1_555
B41 O43 1.487294 1_555
B41 O47 1.693099 1_555
B42 O4 1.417194 1_555
B42 O75 1.467054 1_655
B42 O44 1.487294 1_555
B42 O48 1.693099 1_555
B43 O5 1.417194 1_555
B43 O75 1.467054 1_555
B43 O45 1.487294 1_555
B43 O49 1.693099 1_555
H0 O76 0.995202 1_655
H0 O42 1.725407 1_555
H1 O76 0.995202 1_555
H1 O43 1.725407 1_555
H2 O77 0.995202 1_555
H2 O44 1.725407 1_555
H3 O77 0.995202 1_555
H3 O45 1.725407 1_555
