# generated using pymatgen
data_Sm2(Al3Rh)3
_symmetry_space_group_name_H-M   'P 1'
_cell_length_a   7.54062529
_cell_length_b   7.54062529
_cell_length_c   9.51747439
_cell_angle_alpha   90.00000000
_cell_angle_beta   90.00000000
_cell_angle_gamma   119.26665720
_symmetry_Int_Tables_number   1
_chemical_formula_structural   Sm2(Al3Rh)3
_chemical_formula_sum   'Sm4 Al18 Rh6'
_cell_volume   472.09473039
_cell_formula_units_Z   2
loop_
 _symmetry_equiv_pos_site_id
 _symmetry_equiv_pos_as_xyz
  1  'x, y, z'
loop_
 _atom_site_type_symbol
 _atom_site_label
 _atom_site_symmetry_multiplicity
 _atom_site_fract_x
 _atom_site_fract_y
 _atom_site_fract_z
 _atom_site_occupancy
  Sm  Sm0  1  0.99451967  0.67159249  0.25000000  1
  Sm  Sm1  1  0.00548033  0.32840751  0.75000000  1
  Sm  Sm2  1  0.67159249  0.99451967  0.25000000  1
  Sm  Sm3  1  0.32840751  0.00548033  0.75000000  1
  Al  Al0  1  0.13120338  0.13120338  0.25000000  1
  Al  Al1  1  0.86879662  0.86879662  0.75000000  1
  Al  Al2  1  0.00254946  0.33561538  0.07301467  1
  Al  Al3  1  0.99745054  0.66438462  0.92698533  1
  Al  Al4  1  0.99745054  0.66438462  0.57301467  1
  Al  Al5  1  0.33561538  0.00254946  0.42698533  1
  Al  Al6  1  0.00254946  0.33561538  0.42698533  1
  Al  Al7  1  0.66438462  0.99745054  0.57301467  1
  Al  Al8  1  0.66438462  0.99745054  0.92698533  1
  Al  Al9  1  0.33561538  0.00254946  0.07301467  1
  Al  Al10  1  0.33397232  0.33397232  0.54486322  1
  Al  Al11  1  0.66602768  0.66602768  0.45513678  1
  Al  Al12  1  0.66602768  0.66602768  0.04486322  1
  Al  Al13  1  0.33397232  0.33397232  0.95513678  1
  Al  Al14  1  0.33992933  0.54788214  0.25000000  1
  Al  Al15  1  0.66007067  0.45211786  0.75000000  1
  Al  Al16  1  0.54788214  0.33992933  0.25000000  1
  Al  Al17  1  0.45211786  0.66007067  0.75000000  1
  Rh  Rh0  1  0.67166376  0.32833624  -0.00000000  1
  Rh  Rh1  1  0.32833624  0.67166376  -0.00000000  1
  Rh  Rh2  1  0.32833624  0.67166376  0.50000000  1
  Rh  Rh3  1  0.67166376  0.32833624  0.50000000  1
  Rh  Rh4  1  0.00000000  0.00000000  -0.00000000  1
  Rh  Rh5  1  0.00000000  0.00000000  0.50000000  1
loop_
_geom_bond_atom_site_label_1
_geom_bond_atom_site_label_2
_geom_bond_distance
_geom_bond_site_symmetry_2
Al0 Rh4 2.581085 1_555
Al0 Rh5 2.581085 1_555
Al0 Sm0 3.095342 1_445
Al0 Sm2 3.095342 1_445
Al1 Rh4 2.581085 1_666
Al1 Rh5 2.581085 1_665
Al1 Sm3 3.095342 1_665
Al1 Sm1 3.095342 1_665
Al2 Rh0 2.564657 1_455
Al2 Rh4 2.615416 1_555
Al2 Rh1 2.617739 1_555
Al2 Sm2 3.066754 1_445
Al2 Sm0 3.067498 1_455
Al2 Sm1 3.075035 1_554
Al3 Rh1 2.564657 1_656
Al3 Rh4 2.615416 1_666
Al3 Rh0 2.617739 1_556
Al3 Sm3 3.066754 1_665
Al3 Sm1 3.067498 1_655
Al3 Sm0 3.075035 1_556
Al4 Rh2 2.564657 1_655
Al4 Rh5 2.615416 1_665
Al4 Rh3 2.617739 1_555
Al4 Sm3 3.066754 1_665
Al4 Sm1 3.067498 1_655
Al4 Sm0 3.075035 1_555
Al5 Rh2 2.564657 1_545
Al5 Rh5 2.615416 1_555
Al5 Rh3 2.617739 1_555
Al5 Sm0 3.066754 1_445
Al5 Sm2 3.067498 1_545
Al5 Sm3 3.075035 1_555
Al6 Rh3 2.564657 1_455
Al6 Rh5 2.615416 1_555
Al6 Rh2 2.617739 1_555
Al6 Sm2 3.066754 1_445
Al6 Sm0 3.067498 1_455
Al6 Sm1 3.075035 1_555
Al7 Rh3 2.564657 1_565
Al7 Rh5 2.615416 1_665
Al7 Rh2 2.617739 1_555
Al7 Sm1 3.066754 1_665
Al7 Sm3 3.067498 1_565
Al7 Sm2 3.075035 1_555
Al8 Rh0 2.564657 1_566
Al8 Rh4 2.615416 1_666
Al8 Rh1 2.617739 1_556
Al8 Sm1 3.066754 1_665
Al8 Sm3 3.067498 1_565
Al8 Sm2 3.075035 1_556
Al9 Rh1 2.564657 1_545
Al9 Rh4 2.615416 1_555
Al9 Rh0 2.617739 1_555
Al9 Sm0 3.066754 1_445
Al9 Sm2 3.067498 1_545
Al9 Sm3 3.075035 1_554
Al10 Rh5 2.581776 1_555
Al10 Rh2 2.602712 1_555
Al10 Rh3 2.602712 1_555
Al10 Sm1 3.138095 1_555
Al10 Sm3 3.138095 1_555
Al11 Rh5 2.581776 1_665
Al11 Rh2 2.602712 1_555
Al11 Rh3 2.602712 1_555
Al11 Sm2 3.138095 1_555
Al11 Sm0 3.138095 1_555
Al12 Rh4 2.581776 1_665
Al12 Rh1 2.602712 1_555
Al12 Rh0 2.602712 1_555
Al12 Sm2 3.138095 1_555
Al12 Sm0 3.138095 1_555
Al13 Rh4 2.581776 1_556
Al13 Rh1 2.602712 1_556
Al13 Rh0 2.602712 1_556
Al13 Sm1 3.138095 1_555
Al13 Sm3 3.138095 1_555
Al14 Rh2 2.572943 1_555
Al14 Rh1 2.572943 1_555
Al14 Sm2 3.059750 1_555
Al14 Sm0 3.166991 1_455
Al15 Rh0 2.572943 1_556
Al15 Rh3 2.572943 1_555
Al15 Sm3 3.059750 1_555
Al15 Sm1 3.166991 1_655
Al16 Rh3 2.572943 1_555
Al16 Rh0 2.572943 1_555
Al16 Sm0 3.059750 1_555
Al16 Sm2 3.166991 1_545
Al17 Rh2 2.572943 1_555
Al17 Rh1 2.572943 1_556
Al17 Sm1 3.059750 1_555
Al17 Sm3 3.166991 1_565
Rh0 Sm1 3.463567 1_654
Rh0 Sm2 3.463567 1_545
Rh0 Sm0 3.482347 1_555
Rh0 Sm3 3.482347 1_554
Rh1 Sm3 3.463567 1_564
Rh1 Sm0 3.463567 1_455
Rh1 Sm2 3.482347 1_555
Rh1 Sm1 3.482347 1_554
Rh2 Sm3 3.463567 1_565
Rh2 Sm0 3.463567 1_455
Rh2 Sm2 3.482347 1_555
Rh2 Sm1 3.482347 1_555
Rh3 Sm1 3.463567 1_655
Rh3 Sm2 3.463567 1_545
Rh3 Sm0 3.482347 1_555
Rh3 Sm3 3.482347 1_555
Rh4 Sm2 3.419881 1_445
Rh4 Sm1 3.419881 1_554
Rh4 Sm3 3.419881 1_554
Rh4 Sm0 3.419881 1_445
Rh5 Sm2 3.419881 1_445
Rh5 Sm1 3.419881 1_555
Rh5 Sm3 3.419881 1_555
Rh5 Sm0 3.419881 1_445
