# generated using pymatgen
data_Fe(CN)6
_symmetry_space_group_name_H-M   'P 1'
_cell_length_a   6.01234200
_cell_length_b   6.84332449
_cell_length_c   6.84332449
_cell_angle_alpha   120.00000477
_cell_angle_beta   90.00000000
_cell_angle_gamma   90.00000000
_symmetry_Int_Tables_number   1
_chemical_formula_structural   Fe(CN)6
_chemical_formula_sum   'Fe1 C6 N6'
_cell_volume   243.84202410
_cell_formula_units_Z   1
loop_
 _symmetry_equiv_pos_site_id
 _symmetry_equiv_pos_as_xyz
  1  'x, y, z'
loop_
 _atom_site_type_symbol
 _atom_site_label
 _atom_site_symmetry_multiplicity
 _atom_site_fract_x
 _atom_site_fract_y
 _atom_site_fract_z
 _atom_site_occupancy
  Fe  Fe0  1  0.00000000  0.00000000  0.00000000  1
  C  C0  1  0.81200500  0.77528800  0.77528800  1
  C  C1  1  0.18799500  0.22471200  0.22471200  1
  C  C2  1  0.81200500  0.00000000  0.22471200  1
  C  C3  1  0.18799500  0.00000000  0.77528800  1
  C  C4  1  0.81200500  0.22471200  0.00000000  1
  C  C5  1  0.18799500  0.77528800  0.00000000  1
  N  N0  1  0.69423800  0.63682800  0.63682800  1
  N  N1  1  0.30576200  0.36317200  0.36317200  1
  N  N2  1  0.69423800  0.00000000  0.36317200  1
  N  N3  1  0.30576200  0.00000000  0.63682800  1
  N  N4  1  0.69423800  0.36317200  0.00000000  1
  N  N5  1  0.30576200  0.63682800  0.00000000  1
loop_
_geom_bond_atom_site_label_1
_geom_bond_atom_site_label_2
_geom_bond_distance
_geom_bond_site_symmetry_2
C0 N0 1.182856 1_555
C0 Fe0 1.908485 1_666
C1 N1 1.182856 1_555
C1 Fe0 1.908485 1_555
C2 N2 1.182856 1_555
C2 Fe0 1.908485 1_655
C3 N3 1.182856 1_555
C3 Fe0 1.908485 1_556
C4 N4 1.182856 1_555
C4 Fe0 1.908485 1_655
C5 N5 1.182856 1_555
C5 Fe0 1.908485 1_565
