# generated using pymatgen
data_ZnCr2O4
_symmetry_space_group_name_H-M   'P 1'
_cell_length_a   6.00801532
_cell_length_b   6.00801532
_cell_length_c   20.23669712
_cell_angle_alpha   79.35020651
_cell_angle_beta   79.35020651
_cell_angle_gamma   60.17063275
_symmetry_Int_Tables_number   1
_chemical_formula_structural   ZnCr2O4
_chemical_formula_sum   'Zn8 Cr16 O32'
_cell_volume   619.06760710
_cell_formula_units_Z   8
loop_
 _symmetry_equiv_pos_site_id
 _symmetry_equiv_pos_as_xyz
  1  'x, y, z'
loop_
 _atom_site_type_symbol
 _atom_site_label
 _atom_site_symmetry_multiplicity
 _atom_site_fract_x
 _atom_site_fract_y
 _atom_site_fract_z
 _atom_site_occupancy
  Zn  Zn0  1  0.65460100  0.65460100  0.03038600  1
  Zn  Zn1  1  0.12267100  0.12267100  0.12488000  1
  Zn  Zn2  1  0.90235500  0.90235500  0.28107000  1
  Zn  Zn3  1  0.37292300  0.37292300  0.37425300  1
  Zn  Zn4  1  0.62583700  0.62583700  0.62418700  1
  Zn  Zn5  1  0.50004300  0.50004300  0.49890000  1
  Zn  Zn6  1  0.87711900  0.87711900  0.87459100  1
  Zn  Zn7  1  0.74939700  0.74939700  0.75074400  1
  Cr  Cr0  1  0.62783900  0.12386500  0.12507100  1
  Cr  Cr1  1  0.25005800  0.25005800  0.25079800  1
  Cr  Cr2  1  0.12386500  0.62783900  0.12507100  1
  Cr  Cr3  1  0.15432900  0.15432900  0.53128100  1
  Cr  Cr4  1  0.87507000  0.37323700  0.37384600  1
  Cr  Cr5  1  0.59666500  0.59666500  0.21955900  1
  Cr  Cr6  1  0.40800400  0.40800400  0.78044300  1
  Cr  Cr7  1  0.37323700  0.87507000  0.37384600  1
  Cr  Cr8  1  0.12484900  0.62487500  0.62453700  1
  Cr  Cr9  1  0.84440300  0.84440300  0.46689500  1
  Cr  Cr10  1  0.62487500  0.12484900  0.62453700  1
  Cr  Cr11  1  0.87628300  0.37799000  0.87633300  1
  Cr  Cr12  1  0.37799000  0.87628300  0.87633300  1
  Cr  Cr13  1  0.09423300  0.09423300  0.71865300  1
  Cr  Cr14  1  0.00025100  0.00025100  0.00204800  1
  Cr  Cr15  1  0.34720100  0.34720100  0.97131100  1
  O  O0  1  0.28241000  0.82194200  0.06265800  1
  O  O1  1  0.93119000  0.93119000  0.17973400  1
  O  O2  1  0.82194200  0.28241000  0.06265800  1
  O  O3  1  0.82407800  0.82407800  0.06727300  1
  O  O4  1  0.42730000  0.42730000  0.18193300  1
  O  O5  1  0.52763100  0.07619400  0.31248300  1
  O  O6  1  0.43121800  0.95979900  0.18850800  1
  O  O7  1  0.17000600  0.17000600  0.43287200  1
  O  O8  1  0.07619400  0.52763100  0.31248300  1
  O  O9  1  0.31903900  0.31903900  0.06935900  1
  O  O10  1  0.07407400  0.07407400  0.31581300  1
  O  O11  1  0.95979900  0.43121800  0.18850800  1
  O  O12  1  0.79496100  0.31990400  0.56378600  1
  O  O13  1  0.68550500  0.68550500  0.42725500  1
  O  O14  1  0.67834600  0.20265200  0.43452300  1
  O  O15  1  0.42470000  0.42470000  0.68190100  1
  O  O16  1  0.31990400  0.79496100  0.56378600  1
  O  O17  1  0.57343300  0.57343300  0.31713300  1
  O  O18  1  0.31410900  0.31410900  0.57093500  1
  O  O19  1  0.20265200  0.67834600  0.43452300  1
  O  O20  1  0.93613000  0.93613000  0.67872600  1
  O  O21  1  0.05110900  0.56536000  0.81419000  1
  O  O22  1  0.92929400  0.45389400  0.68616100  1
  O  O23  1  0.68718800  0.68718800  0.92888000  1
  O  O24  1  0.56536000  0.05110900  0.81419000  1
  O  O25  1  0.82583000  0.82583000  0.56685300  1
  O  O26  1  0.56438200  0.56438200  0.82296200  1
  O  O27  1  0.45389400  0.92929400  0.68616100  1
  O  O28  1  0.17702200  0.17702200  0.93402100  1
  O  O29  1  0.18370500  0.71144600  0.94014000  1
  O  O30  1  0.07199800  0.07199800  0.81987900  1
  O  O31  1  0.71144600  0.18370500  0.94014000  1
loop_
_geom_bond_atom_site_label_1
_geom_bond_atom_site_label_2
_geom_bond_distance
_geom_bond_site_symmetry_2
Cr0 O2 1.994633 1_555
Cr0 O1 2.014534 1_545
Cr0 O6 2.036004 1_545
Cr0 O3 2.039250 1_545
Cr0 O4 2.043777 1_555
Cr0 O9 2.051424 1_555
Cr1 O8 1.996239 1_555
Cr1 O5 1.996239 1_555
Cr1 O10 2.012630 1_555
Cr1 O11 2.057148 1_455
Cr1 O6 2.057148 1_545
Cr1 O4 2.059397 1_555
Cr2 O0 1.994633 1_555
Cr2 O1 2.014534 1_455
Cr2 O11 2.036004 1_455
Cr2 O3 2.039250 1_455
Cr2 O4 2.043777 1_555
Cr2 O9 2.051424 1_555
Cr3 O16 1.914194 1_545
Cr3 O12 1.914194 1_455
Cr3 O7 1.963129 1_555
Cr3 O18 1.993293 1_555
Cr4 O8 1.999332 1_655
Cr4 O17 2.034239 1_555
Cr4 O7 2.036763 1_655
Cr4 O13 2.038110 1_555
Cr4 O14 2.039259 1_555
Cr4 O10 2.040244 1_655
Cr5 O6 1.926002 1_555
Cr5 O11 1.926002 1_555
Cr5 O17 1.937410 1_555
Cr5 O4 2.062371 1_555
Cr6 O24 1.907512 1_555
Cr6 O21 1.907512 1_555
Cr6 O15 1.964423 1_555
Cr6 O26 1.995370 1_555
Cr7 O5 1.999332 1_565
Cr7 O17 2.034239 1_555
Cr7 O7 2.036763 1_565
Cr7 O13 2.038110 1_555
Cr7 O19 2.039259 1_555
Cr7 O10 2.040244 1_565
Cr8 O16 2.030639 1_555
Cr8 O18 2.033768 1_555
Cr8 O15 2.034931 1_555
Cr8 O25 2.035728 1_455
Cr8 O20 2.043076 1_455
Cr8 O22 2.043641 1_455
Cr9 O19 1.908226 1_655
Cr9 O14 1.908226 1_565
Cr9 O13 1.984700 1_555
Cr9 O25 1.990536 1_555
Cr10 O12 2.030639 1_555
Cr10 O18 2.033768 1_555
Cr10 O15 2.034931 1_555
Cr10 O25 2.035728 1_545
Cr10 O20 2.043076 1_545
Cr10 O27 2.043641 1_545
Cr11 O23 2.014056 1_555
Cr11 O21 2.028995 1_655
Cr11 O31 2.032460 1_555
Cr11 O26 2.036040 1_555
Cr11 O28 2.042962 1_655
Cr11 O30 2.048603 1_655
Cr12 O23 2.014056 1_555
Cr12 O24 2.028995 1_565
Cr12 O29 2.032460 1_555
Cr12 O26 2.036040 1_555
Cr12 O28 2.042962 1_565
Cr12 O30 2.048603 1_565
Cr13 O22 1.915473 1_455
Cr13 O27 1.915473 1_545
Cr13 O20 1.980502 1_445
Cr13 O30 2.011821 1_555
Cr14 O2 2.000499 1_455
Cr14 O0 2.000499 1_545
Cr14 O3 2.016096 1_445
Cr14 O29 2.045873 1_544
Cr14 O31 2.045873 1_454
Cr14 O28 2.047521 1_554
Cr15 O29 1.931867 1_555
Cr15 O31 1.931867 1_555
Cr15 O9 1.942804 1_556
Cr15 O28 2.066532 1_555
O0 Zn0 1.975838 1_555
O0 Zn1 2.107180 1_565
O1 Zn2 2.008148 1_555
O1 Zn1 2.061988 1_665
O2 Zn0 1.975838 1_555
O2 Zn1 2.107180 1_655
O3 Zn0 2.055249 1_555
O5 Zn2 1.985118 1_545
O5 Zn3 2.085771 1_555
O6 Zn1 2.159592 1_565
O7 Zn3 2.188445 1_555
O8 Zn2 1.985118 1_455
O8 Zn3 2.085771 1_555
O9 Zn1 2.109735 1_555
O10 Zn2 2.053824 1_445
O11 Zn1 2.159592 1_655
O12 Zn4 2.101972 1_555
O12 Zn5 2.112333 1_555
O13 Zn5 2.150853 1_555
O14 Zn3 2.097578 1_555
O14 Zn5 2.116028 1_555
O15 Zn4 2.166602 1_555
O16 Zn4 2.101972 1_555
O16 Zn5 2.112333 1_555
O17 Zn3 2.157073 1_555
O18 Zn5 2.158358 1_555
O19 Zn3 2.097578 1_555
O19 Zn5 2.116028 1_555
O20 Zn7 2.164442 1_555
O21 Zn7 2.120961 1_455
O21 Zn6 2.126311 1_455
O22 Zn7 2.110647 1_555
O22 Zn4 2.111067 1_555
O23 Zn0 2.009234 1_556
O23 Zn6 2.044485 1_555
O24 Zn7 2.120961 1_545
O24 Zn6 2.126311 1_545
O25 Zn4 2.153930 1_555
O26 Zn7 2.152992 1_555
O27 Zn7 2.110647 1_555
O27 Zn4 2.111067 1_555
O29 Zn6 2.175849 1_455
O30 Zn6 2.091192 1_445
O31 Zn6 2.175849 1_545
