# generated using pymatgen
data_Sr3Nb2CoO9
_symmetry_space_group_name_H-M   'P 1'
_cell_length_a   5.67729500
_cell_length_b   13.44850999
_cell_length_c   15.95108931
_cell_angle_alpha   67.32850125
_cell_angle_beta   90.00000000
_cell_angle_gamma   90.00000000
_symmetry_Int_Tables_number   1
_chemical_formula_structural   Sr3Nb2CoO9
_chemical_formula_sum   'Sr12 Nb8 Co4 O36'
_cell_volume   1123.77816800
_cell_formula_units_Z   4
loop_
 _symmetry_equiv_pos_site_id
 _symmetry_equiv_pos_as_xyz
  1  'x, y, z'
loop_
 _atom_site_type_symbol
 _atom_site_label
 _atom_site_symmetry_multiplicity
 _atom_site_fract_x
 _atom_site_fract_y
 _atom_site_fract_z
 _atom_site_occupancy
  Sr  Sr0  1  0.98222300  0.06215100  0.26909300  1
  Sr  Sr1  1  0.48033200  0.10311900  0.56177500  1
  Sr  Sr2  1  0.00260500  0.26042300  0.40536500  1
  Sr  Sr3  1  0.48222300  0.43784900  0.23090700  1
  Sr  Sr4  1  0.01777700  0.93784900  0.73090700  1
  Sr  Sr5  1  0.50260500  0.23957700  0.09463500  1
  Sr  Sr6  1  0.01966800  0.60311900  0.06177500  1
  Sr  Sr7  1  0.51966800  0.89688100  0.43822500  1
  Sr  Sr8  1  0.49739500  0.76042300  0.90536500  1
  Sr  Sr9  1  0.98033200  0.39688100  0.93822500  1
  Sr  Sr10  1  0.99739500  0.73957700  0.59463500  1
  Sr  Sr11  1  0.51777700  0.56215100  0.76909300  1
  Nb  Nb0  1  0.52685600  0.67656500  0.32990900  1
  Nb  Nb1  1  0.02685600  0.82343500  0.17009100  1
  Nb  Nb2  1  0.97314400  0.17656500  0.82990900  1
  Nb  Nb3  1  0.00777300  0.66328400  0.83547800  1
  Nb  Nb4  1  0.50777300  0.83671600  0.66452200  1
  Nb  Nb5  1  0.99222700  0.33671600  0.16452200  1
  Nb  Nb6  1  0.47314400  0.32343500  0.67009100  1
  Nb  Nb7  1  0.49222700  0.16328400  0.33547800  1
  Co  Co0  1  0.00000000  0.00000000  0.00000000  1
  Co  Co1  1  0.50000000  0.50000000  0.50000000  1
  Co  Co2  1  0.00000000  0.00000000  0.50000000  1
  Co  Co3  1  0.50000000  0.50000000  0.00000000  1
  O  O0  1  0.30894900  0.92524400  0.56224900  1
  O  O1  1  0.96973600  0.55759200  0.77354600  1
  O  O2  1  0.71885500  0.26233600  0.75770900  1
  O  O3  1  0.44875100  0.27706200  0.38523200  1
  O  O4  1  0.80638900  0.23821800  0.27628800  1
  O  O5  1  0.55124900  0.72293800  0.61476800  1
  O  O6  1  0.69105100  0.07475600  0.43775100  1
  O  O7  1  0.80293400  0.90356100  0.60662700  1
  O  O8  1  0.51446100  0.29252100  0.57045300  1
  O  O9  1  0.69706600  0.40356100  0.10662700  1
  O  O10  1  0.45187100  0.47314900  0.63009600  1
  O  O11  1  0.78114500  0.76233600  0.25770900  1
  O  O12  1  0.01446100  0.20747900  0.92954700  1
  O  O13  1  0.47022400  0.60297300  0.05909900  1
  O  O14  1  0.21885500  0.23766400  0.74229100  1
  O  O15  1  0.54812900  0.52685100  0.36990400  1
  O  O16  1  0.28114500  0.73766400  0.24229100  1
  O  O17  1  0.19706600  0.09643900  0.39337300  1
  O  O18  1  0.05124900  0.77706200  0.88523200  1
  O  O19  1  0.03026400  0.44240800  0.22645400  1
  O  O20  1  0.80894900  0.57475600  0.93775100  1
  O  O21  1  0.69361100  0.73821800  0.77628800  1
  O  O22  1  0.30293400  0.59643900  0.89337300  1
  O  O23  1  0.95187100  0.02685100  0.86990400  1
  O  O24  1  0.30638900  0.26178200  0.22371200  1
  O  O25  1  0.53026400  0.05759200  0.27354600  1
  O  O26  1  0.04812900  0.97314900  0.13009600  1
  O  O27  1  0.02977600  0.10297300  0.55909900  1
  O  O28  1  0.97022400  0.89702700  0.44090100  1
  O  O29  1  0.19105100  0.42524400  0.06224900  1
  O  O30  1  0.94875100  0.22293800  0.11476800  1
  O  O31  1  0.52977600  0.39702700  0.94090100  1
  O  O32  1  0.48553900  0.70747900  0.42954700  1
  O  O33  1  0.19361100  0.76178200  0.72371200  1
  O  O34  1  0.98553900  0.79252100  0.07045300  1
  O  O35  1  0.46973600  0.94240800  0.72645400  1
loop_
_geom_bond_atom_site_label_1
_geom_bond_atom_site_label_2
_geom_bond_distance
_geom_bond_site_symmetry_2
Nb0 O32 1.806441 1_555
Nb0 O15 1.866889 1_555
Nb0 O16 1.920710 1_555
Nb0 O11 1.927950 1_555
Nb1 O34 1.806441 1_455
Nb1 O26 1.866889 1_555
Nb1 O11 1.920710 1_455
Nb1 O16 1.927950 1_555
Nb2 O12 1.806441 1_655
Nb2 O23 1.866889 1_555
Nb2 O14 1.920710 1_655
Nb2 O2 1.927950 1_555
Nb3 O22 1.956786 1_555
Nb3 O20 1.963590 1_455
Nb3 O18 1.992050 1_555
Nb3 O1 2.031107 1_455
Nb3 O33 2.055641 1_555
Nb3 O21 2.086789 1_455
Nb4 O7 1.956786 1_555
Nb4 O0 1.963590 1_555
Nb4 O5 1.992050 1_555
Nb4 O35 2.031107 1_555
Nb4 O21 2.055641 1_555
Nb4 O33 2.086789 1_555
Nb5 O9 1.956786 1_555
Nb5 O29 1.963590 1_655
Nb5 O30 1.992050 1_555
Nb5 O19 2.031107 1_655
Nb5 O4 2.055641 1_555
Nb5 O24 2.086789 1_655
Nb6 O8 1.806441 1_555
Nb6 O10 1.866889 1_555
Nb6 O2 1.920710 1_555
Nb6 O14 1.927950 1_555
Nb7 O17 1.956786 1_555
Nb7 O6 1.963590 1_555
Nb7 O3 1.992050 1_555
Nb7 O25 2.031107 1_555
Nb7 O24 2.055641 1_555
Nb7 O4 2.086789 1_555
Co0 O23 1.983362 1_454
Co0 O26 1.983362 1_545
Co0 O34 2.576439 1_445
Co0 O12 2.576439 1_554
Co1 O10 1.983362 1_555
Co1 O15 1.983362 1_555
Co1 O32 2.576439 1_555
Co1 O8 2.576439 1_555
Co2 O28 1.959947 1_445
Co2 O27 1.959947 1_555
Co2 O7 2.031279 1_445
Co2 O17 2.031279 1_555
Co2 O0 2.074516 1_545
Co2 O6 2.074516 1_455
Co3 O13 1.959947 1_555
Co3 O31 1.959947 1_554
Co3 O9 2.031279 1_555
Co3 O22 2.031279 1_554
Co3 O29 2.074516 1_555
Co3 O20 2.074516 1_554
O0 Sr7 2.464169 1_555
O0 Sr1 2.579773 1_565
O0 Sr10 2.938676 1_455
O0 Sr4 3.217226 1_555
O1 Sr11 2.566966 1_555
O1 Sr9 2.682984 1_555
O1 Sr10 2.962186 1_555
O1 Sr11 3.112266 1_655
O3 Sr2 2.552137 1_555
O3 Sr3 2.582277 1_555
O3 Sr1 2.890713 1_555
O3 Sr2 3.159907 1_655
O4 Sr2 2.458301 1_655
O4 Sr0 2.612633 1_555
O4 Sr3 3.101721 1_555
O5 Sr10 2.552137 1_555
O5 Sr11 2.582277 1_555
O5 Sr7 2.890713 1_555
O5 Sr10 3.159907 1_455
O6 Sr1 2.464169 1_555
O6 Sr7 2.579773 1_545
O6 Sr2 2.938676 1_655
O6 Sr0 3.217226 1_555
O7 Sr4 2.516939 1_655
O7 Sr10 2.538535 1_555
O7 Sr1 3.096556 1_565
O7 Sr7 3.161646 1_555
O8 Sr1 2.610864 1_555
O9 Sr3 2.516939 1_555
O9 Sr5 2.538535 1_555
O9 Sr6 3.096556 1_655
O9 Sr9 3.161646 1_554
O10 Sr11 2.921344 1_555
O12 Sr9 2.610864 1_455
O13 Sr8 2.553037 1_554
O13 Sr6 2.558309 1_555
O13 Sr3 2.784778 1_555
O13 Sr6 3.119659 1_655
O15 Sr3 2.921344 1_555
O17 Sr0 2.516939 1_455
O17 Sr2 2.538535 1_555
O17 Sr7 3.096556 1_545
O17 Sr1 3.161646 1_555
O18 Sr8 2.552137 1_555
O18 Sr4 2.582277 1_555
O18 Sr6 2.890713 1_556
O18 Sr8 3.159907 1_455
O19 Sr3 2.566966 1_555
O19 Sr6 2.682984 1_555
O19 Sr2 2.962186 1_555
O19 Sr3 3.112266 1_455
O20 Sr6 2.464169 1_656
O20 Sr9 2.579773 1_555
O20 Sr8 2.938676 1_555
O20 Sr11 3.217226 1_555
O21 Sr8 2.458301 1_555
O21 Sr11 2.612633 1_555
O21 Sr4 3.101721 1_655
O22 Sr11 2.516939 1_555
O22 Sr8 2.538535 1_555
O22 Sr9 3.096556 1_455
O22 Sr6 3.161646 1_556
O23 Sr4 2.921344 1_645
O24 Sr5 2.458301 1_555
O24 Sr3 2.612633 1_555
O24 Sr0 3.101721 1_455
O25 Sr0 2.566966 1_555
O25 Sr7 2.682984 1_545
O25 Sr5 2.962186 1_555
O25 Sr0 3.112266 1_455
O26 Sr0 2.921344 1_465
O27 Sr2 2.553037 1_555
O27 Sr1 2.558309 1_555
O27 Sr4 2.784778 1_545
O27 Sr1 3.119659 1_455
O28 Sr10 2.553037 1_555
O28 Sr7 2.558309 1_555
O28 Sr0 2.784778 1_565
O28 Sr7 3.119659 1_655
O29 Sr9 2.464169 1_454
O29 Sr6 2.579773 1_555
O29 Sr5 2.938676 1_555
O29 Sr3 3.217226 1_555
O30 Sr5 2.552137 1_555
O30 Sr0 2.582277 1_555
O30 Sr9 2.890713 1_554
O30 Sr5 3.159907 1_655
O31 Sr5 2.553037 1_556
O31 Sr9 2.558309 1_555
O31 Sr11 2.784778 1_555
O31 Sr9 3.119659 1_455
O32 Sr7 2.610864 1_555
O33 Sr10 2.458301 1_455
O33 Sr4 2.612633 1_555
O33 Sr11 3.101721 1_555
O34 Sr6 2.610864 1_655
O35 Sr4 2.566966 1_555
O35 Sr1 2.682984 1_565
O35 Sr8 2.962186 1_555
O35 Sr4 3.112266 1_655
