# generated using pymatgen
data_NaSr6H17Pd2O17
_symmetry_space_group_name_H-M   'P 1'
_cell_length_a   7.03498050
_cell_length_b   13.68165720
_cell_length_c   19.76009222
_cell_angle_alpha   90.00000000
_cell_angle_beta   90.00000000
_cell_angle_gamma   89.64133082
_symmetry_Int_Tables_number   1
_chemical_formula_structural   NaSr6H17Pd2O17
_chemical_formula_sum   'Na4 Sr24 H68 Pd8 O68'
_cell_volume   1901.87539821
_cell_formula_units_Z   4
loop_
 _symmetry_equiv_pos_site_id
 _symmetry_equiv_pos_as_xyz
  1  'x, y, z'
loop_
 _atom_site_type_symbol
 _atom_site_label
 _atom_site_symmetry_multiplicity
 _atom_site_fract_x
 _atom_site_fract_y
 _atom_site_fract_z
 _atom_site_occupancy
  Na  Na0  1  0.24788641  0.25190642  0.99979283  1
  Na  Na1  1  0.75211359  0.24809358  0.49979283  1
  Na  Na2  1  0.75211359  0.74809358  0.00020717  1
  Na  Na3  1  0.24788641  0.75190642  0.50020717  1
  Sr  Sr0  1  0.06435699  0.44888711  0.91334401  1
  Sr  Sr1  1  0.56217355  0.05678979  0.58357486  1
  Sr  Sr2  1  0.93564301  0.05111289  0.41334401  1
  Sr  Sr3  1  0.43782645  0.44321021  0.08357486  1
  Sr  Sr4  1  0.93564301  0.55111289  0.08665599  1
  Sr  Sr5  1  0.43782645  0.94321021  0.41642514  1
  Sr  Sr6  1  0.06435699  0.94888711  0.58665599  1
  Sr  Sr7  1  0.56217355  0.55678979  0.91642514  1
  Sr  Sr8  1  0.44841088  0.25219648  0.71411108  1
  Sr  Sr9  1  0.94810617  0.24885757  0.78582918  1
  Sr  Sr10  1  0.55158912  0.24780352  0.21411108  1
  Sr  Sr11  1  0.05189383  0.25114243  0.28582918  1
  Sr  Sr12  1  0.55158912  0.74780352  0.28588892  1
  Sr  Sr13  1  0.05189383  0.75114243  0.21417082  1
  Sr  Sr14  1  0.44841088  0.75219648  0.78588892  1
  Sr  Sr15  1  0.94810617  0.74885757  0.71417082  1
  Sr  Sr16  1  0.08242685  0.06409917  0.91469057  1
  Sr  Sr17  1  0.58293268  0.43564854  0.58561197  1
  Sr  Sr18  1  0.91757315  0.43590083  0.41469057  1
  Sr  Sr19  1  0.41706732  0.06435146  0.08561197  1
  Sr  Sr20  1  0.91757315  0.93590083  0.08530943  1
  Sr  Sr21  1  0.41706732  0.56435146  0.41438803  1
  Sr  Sr22  1  0.08242685  0.56409917  0.58530943  1
  Sr  Sr23  1  0.58293268  0.93564854  0.91438803  1
  H  H0  1  0.32549943  0.36715934  0.83456625  1
  H  H1  1  0.82460177  0.13305868  0.66517051  1
  H  H2  1  0.67450057  0.13284066  0.33456625  1
  H  H3  1  0.17539823  0.36694132  0.16517051  1
  H  H4  1  0.67450057  0.63284066  0.16543375  1
  H  H5  1  0.17539823  0.86694132  0.33482949  1
  H  H6  1  0.32549943  0.86715934  0.66543375  1
  H  H7  1  0.82460177  0.63305868  0.83482949  1
  H  H8  1  0.36335267  0.14884916  0.82252364  1
  H  H9  1  0.86324828  0.35053843  0.67783335  1
  H  H10  1  0.63664733  0.35115084  0.32252364  1
  H  H11  1  0.13675172  0.14946157  0.17783335  1
  H  H12  1  0.63664733  0.85115084  0.17747636  1
  H  H13  1  0.13675172  0.64946157  0.32216665  1
  H  H14  1  0.36335267  0.64884916  0.67747636  1
  H  H15  1  0.86324828  0.85053843  0.82216665  1
  H  H16  1  0.37436132  0.25109308  0.57131620  1
  H  H17  1  0.86945202  0.24569694  0.92681429  1
  H  H18  1  0.62563868  0.24890692  0.07131620  1
  H  H19  1  0.13054798  0.25430306  0.42681429  1
  H  H20  1  0.62563868  0.74890692  0.42868380  1
  H  H21  1  0.13054798  0.75430306  0.07318571  1
  H  H22  1  0.37436132  0.75109308  0.92868380  1
  H  H23  1  0.86945202  0.74569694  0.57318571  1
  H  H24  1  0.52249153  0.36940253  0.94492743  1
  H  H25  1  0.02446323  0.13310164  0.55665387  1
  H  H26  1  0.47750847  0.13059747  0.44492743  1
  H  H27  1  0.97553677  0.36689836  0.05665387  1
  H  H28  1  0.47750847  0.63059747  0.05507257  1
  H  H29  1  0.97553677  0.86689836  0.44334613  1
  H  H30  1  0.52249153  0.86940253  0.55507257  1
  H  H31  1  0.02446323  0.63310164  0.94334613  1
  H  H32  1  0.02059876  0.22962398  0.63318908  1
  H  H33  1  0.52000085  0.27098460  0.86733580  1
  H  H34  1  0.97940124  0.27037602  0.13318908  1
  H  H35  1  0.47999915  0.22901540  0.36733580  1
  H  H36  1  0.97940124  0.77037602  0.36681092  1
  H  H37  1  0.47999915  0.72901540  0.13266420  1
  H  H38  1  0.02059876  0.72962398  0.86681092  1
  H  H39  1  0.52000085  0.77098460  0.63266420  1
  H  H40  1  0.18481703  0.12564063  0.66450760  1
  H  H41  1  0.68338800  0.37633135  0.83613214  1
  H  H42  1  0.81518297  0.37435937  0.16450760  1
  H  H43  1  0.31661200  0.12366865  0.33613214  1
  H  H44  1  0.81518297  0.87435937  0.33549240  1
  H  H45  1  0.31661200  0.62366865  0.16386786  1
  H  H46  1  0.18481703  0.62564063  0.83549240  1
  H  H47  1  0.68338800  0.87633135  0.66386786  1
  H  H48  1  0.49484308  0.13793959  0.92944373  1
  H  H49  1  0.99545659  0.36166496  0.57038251  1
  H  H50  1  0.50515692  0.36206041  0.42944373  1
  H  H51  1  0.00454341  0.13833504  0.07038251  1
  H  H52  1  0.50515692  0.86206041  0.07055627  1
  H  H53  1  0.00454341  0.63833504  0.42961749  1
  H  H54  1  0.49484308  0.63793959  0.57055627  1
  H  H55  1  0.99545659  0.86166496  0.92961749  1
  H  H56  1  0.18813191  0.37217328  0.65520513  1
  H  H57  1  0.68869873  0.12803245  0.84464487  1
  H  H58  1  0.81186809  0.12782672  0.15520513  1
  H  H59  1  0.31130127  0.37196755  0.34464487  1
  H  H60  1  0.81186809  0.62782672  0.34479487  1
  H  H61  1  0.31130127  0.87196755  0.15535513  1
  H  H62  1  0.18813191  0.87217328  0.84479487  1
  H  H63  1  0.68869873  0.62803245  0.65535513  1
  H  H64  1  0.23041521  0.63374633  0.01154235  1
  H  H65  1  0.76958479  0.86625367  0.51154235  1
  H  H66  1  0.76958479  0.36625367  0.98845765  1
  H  H67  1  0.23041521  0.13374633  0.48845765  1
  Pd  Pd0  1  0.25828626  0.99922621  0.75387856  1
  Pd  Pd1  1  0.75828322  0.50140032  0.74643796  1
  Pd  Pd2  1  0.74171374  0.50077379  0.25387856  1
  Pd  Pd3  1  0.24171678  0.99859968  0.24643796  1
  Pd  Pd4  1  0.74171374  0.00077379  0.24612144  1
  Pd  Pd5  1  0.24171678  0.49859968  0.25356204  1
  Pd  Pd6  1  0.25828626  0.49922621  0.74612144  1
  Pd  Pd7  1  0.75828322  0.00140032  0.75356204  1
  O  O0  1  0.24124447  0.13362163  0.80053538  1
  O  O1  1  0.74138144  0.36668951  0.70011251  1
  O  O2  1  0.75875553  0.36637837  0.30053538  1
  O  O3  1  0.25861856  0.13331049  0.20011251  1
  O  O4  1  0.75875553  0.86637837  0.19946462  1
  O  O5  1  0.25861856  0.63331049  0.29988749  1
  O  O6  1  0.24124447  0.63362163  0.69946462  1
  O  O7  1  0.74138144  0.86668951  0.79988749  1
  O  O8  1  0.27028532  0.43255497  0.65280895  1
  O  O9  1  0.77106939  0.06732870  0.84719438  1
  O  O10  1  0.72971468  0.06744503  0.15280895  1
  O  O11  1  0.22893061  0.43267130  0.34719438  1
  O  O12  1  0.72971468  0.56744503  0.34719105  1
  O  O13  1  0.22893061  0.93267130  0.15280562  1
  O  O14  1  0.27028532  0.93255497  0.84719105  1
  O  O15  1  0.77106939  0.56732870  0.65280562  1
  O  O16  1  0.50720594  0.24654724  0.58495205  1
  O  O17  1  0.00286287  0.25660708  0.91619643  1
  O  O18  1  0.49279406  0.25345276  0.08495205  1
  O  O19  1  0.99713713  0.24339292  0.41619643  1
  O  O20  1  0.49279406  0.75345276  0.41504795  1
  O  O21  1  0.99713713  0.74339292  0.08380357  1
  O  O22  1  0.50720594  0.74654724  0.91504795  1
  O  O23  1  0.00286287  0.75660708  0.58380357  1
  O  O24  1  0.26609640  0.06677274  0.66136149  1
  O  O25  1  0.76300713  0.43519262  0.83950454  1
  O  O26  1  0.73390360  0.43322726  0.16136149  1
  O  O27  1  0.23699287  0.06480738  0.33950454  1
  O  O28  1  0.73390360  0.93322726  0.33863851  1
  O  O29  1  0.23699287  0.56480738  0.16049546  1
  O  O30  1  0.26609640  0.56677274  0.83863851  1
  O  O31  1  0.76300713  0.93519262  0.66049546  1
  O  O32  1  0.24179580  0.36621364  0.79422683  1
  O  O33  1  0.74326808  0.13479664  0.70626421  1
  O  O34  1  0.75820420  0.13378636  0.29422683  1
  O  O35  1  0.25673192  0.36520336  0.20626421  1
  O  O36  1  0.75820420  0.63378636  0.20577317  1
  O  O37  1  0.25673192  0.86520336  0.29373579  1
  O  O38  1  0.24179580  0.86621364  0.70577317  1
  O  O39  1  0.74326808  0.63479664  0.79373579  1
  O  O40  1  0.39261855  0.37661905  0.92856761  1
  O  O41  1  0.89612536  0.12675209  0.57462961  1
  O  O42  1  0.60738145  0.12338095  0.42856761  1
  O  O43  1  0.10387464  0.37324791  0.07462961  1
  O  O44  1  0.60738145  0.62338095  0.07143239  1
  O  O45  1  0.10387464  0.87324791  0.42537039  1
  O  O46  1  0.39261855  0.87661905  0.57143239  1
  O  O47  1  0.89612536  0.62675209  0.92537039  1
  O  O48  1  0.24870168  0.56508845  0.00043215  1
  O  O49  1  0.75129832  0.93491155  0.50043215  1
  O  O50  1  0.75129832  0.43491155  0.99956785  1
  O  O51  1  0.24870168  0.06508845  0.49956785  1
  O  O52  1  0.09572448  0.26432139  0.66738590  1
  O  O53  1  0.59616396  0.23687034  0.83305401  1
  O  O54  1  0.90427552  0.23567861  0.16738590  1
  O  O55  1  0.40383604  0.26312966  0.33305401  1
  O  O56  1  0.90427552  0.73567861  0.33261410  1
  O  O57  1  0.40383604  0.76312966  0.16694599  1
  O  O58  1  0.09572448  0.76432139  0.83261410  1
  O  O59  1  0.59616396  0.73687034  0.66694599  1
  O  O60  1  0.42239466  0.09295836  0.95731047  1
  O  O61  1  0.92416200  0.40759929  0.54250938  1
  O  O62  1  0.57760534  0.40704164  0.45731047  1
  O  O63  1  0.07583800  0.09240071  0.04250938  1
  O  O64  1  0.57760534  0.90704164  0.04268953  1
  O  O65  1  0.07583800  0.59240071  0.45749062  1
  O  O66  1  0.42239466  0.59295836  0.54268953  1
  O  O67  1  0.92416200  0.90759929  0.95749062  1
loop_
_geom_bond_atom_site_label_1
_geom_bond_atom_site_label_2
_geom_bond_distance
_geom_bond_site_symmetry_2
Na0 O17 2.388032 1_555
Na0 O18 2.408531 1_556
Na0 O43 2.438905 1_556
Na0 O40 2.439397 1_555
Na0 O60 2.628235 1_555
Na0 O63 2.640635 1_556
Na1 O19 2.388032 1_555
Na1 O16 2.408531 1_555
Na1 O41 2.438905 1_555
Na1 O42 2.439397 1_555
Na1 O62 2.628235 1_555
Na1 O61 2.640635 1_555
Na2 O21 2.388032 1_555
Na2 O22 2.408531 1_554
Na2 O47 2.438905 1_554
Na2 O44 2.439397 1_555
Na2 O64 2.628235 1_555
Na2 O67 2.640635 1_554
Na3 O23 2.388032 1_555
Na3 O20 2.408531 1_555
Na3 O45 2.438905 1_555
Na3 O46 2.439397 1_555
Na3 O66 2.628235 1_555
Na3 O65 2.640635 1_555
H0 O32 0.991159 1_555
H0 Sr0 2.650060 1_555
H1 O33 0.993557 1_555
H2 O34 0.991159 1_555
H2 Sr2 2.650060 1_555
H3 O35 0.993557 1_555
H4 O36 0.991159 1_555
H4 Sr4 2.650060 1_555
H5 O37 0.993557 1_555
H6 O38 0.991159 1_555
H6 Sr6 2.650060 1_555
H7 O39 0.993557 1_555
H8 O0 0.986082 1_555
H8 Sr8 2.637640 1_555
H9 O1 0.987564 1_555
H9 Sr9 2.614441 1_555
H10 O2 0.986082 1_555
H10 Sr10 2.637640 1_555
H11 O3 0.987564 1_555
H11 Sr11 2.614441 1_555
H12 O4 0.986082 1_555
H12 Sr12 2.637640 1_555
H13 O5 0.987564 1_555
H13 Sr13 2.614441 1_555
H14 O6 0.986082 1_555
H14 Sr14 2.637640 1_555
H15 O7 0.987564 1_555
H15 Sr15 2.614441 1_555
H16 O16 0.974239 1_555
H17 O17 0.974124 1_655
H18 O18 0.974239 1_555
H19 O19 0.974124 1_455
H20 O20 0.974239 1_555
H21 O21 0.974124 1_455
H22 O22 0.974239 1_555
H23 O23 0.974124 1_655
H24 O40 0.973595 1_555
H25 O41 0.974599 1_455
H25 Sr6 2.602612 1_545
H26 O42 0.973595 1_555
H27 O43 0.974599 1_655
H27 Sr4 2.602612 1_555
H28 O44 0.973595 1_555
H29 O45 0.974599 1_655
H29 Sr2 2.602612 1_565
H30 O46 0.973595 1_555
H31 O47 0.974599 1_455
H31 Sr0 2.602612 1_555
H32 O52 0.982056 1_555
H33 O53 0.980147 1_555
H34 O54 0.982056 1_555
H35 O55 0.980147 1_555
H36 O56 0.982056 1_555
H37 O57 0.980147 1_555
H38 O58 0.982056 1_555
H39 O59 0.980147 1_555
H40 O24 0.986782 1_555
H40 Sr8 2.727218 1_555
H41 O25 0.986084 1_555
H41 Sr9 2.730785 1_555
H42 O26 0.986782 1_555
H42 Sr10 2.727218 1_555
H43 O27 0.986084 1_555
H43 Sr11 2.730785 1_555
H44 O28 0.986782 1_555
H44 Sr12 2.727218 1_555
H45 O29 0.986084 1_555
H45 Sr13 2.730785 1_555
H46 O30 0.986782 1_555
H46 Sr14 2.727218 1_555
H47 O31 0.986084 1_555
H47 Sr15 2.730785 1_555
H48 O60 0.972444 1_555
H49 O61 0.972587 1_555
H50 O62 0.972444 1_555
H51 O63 0.972587 1_555
H52 O64 0.972444 1_555
H53 O65 0.972587 1_555
H54 O66 0.972444 1_555
H55 O67 0.972587 1_555
H56 O8 1.012284 1_555
H56 O52 1.633991 1_555
H56 Sr8 2.713755 1_555
H57 O9 1.010981 1_555
H57 O53 1.637518 1_555
H57 Sr9 2.729751 1_555
H58 O10 1.012284 1_555
H58 O54 1.633991 1_555
H58 Sr10 2.713755 1_555
H59 O11 1.010981 1_555
H59 O55 1.637518 1_555
H59 Sr11 2.729751 1_555
H60 O12 1.012284 1_555
H60 O56 1.633991 1_555
H60 Sr12 2.713755 1_555
H61 O13 1.010981 1_555
H61 O57 1.637518 1_555
H61 Sr13 2.729751 1_555
H62 O14 1.012284 1_555
H62 O58 1.633991 1_555
H62 Sr14 2.713755 1_555
H63 O15 1.010981 1_555
H63 O59 1.637518 1_555
H63 Sr15 2.729751 1_555
H64 O48 0.972429 1_555
H64 Sr4 2.794786 1_455
H65 O49 0.972429 1_555
H65 Sr6 2.794786 1_655
H66 O50 0.972429 1_555
H66 Sr0 2.794786 1_655
H67 O51 0.972429 1_555
H67 Sr2 2.794786 1_455
O0 Pd0 2.059758 1_545
O0 Sr9 2.604271 1_455
O0 Sr16 2.693441 1_555
O0 Sr8 2.775234 1_555
O1 Pd1 2.061972 1_555
O1 Sr8 2.611247 1_555
O1 Sr17 2.690463 1_555
O1 Sr9 2.748361 1_555
O2 Pd2 2.059758 1_555
O2 Sr11 2.604271 1_655
O2 Sr18 2.693441 1_555
O2 Sr10 2.775234 1_555
O3 Pd3 2.061972 1_545
O3 Sr10 2.611247 1_555
O3 Sr19 2.690463 1_555
O3 Sr11 2.748361 1_555
O4 Pd4 2.059758 1_565
O4 Sr13 2.604271 1_655
O4 Sr20 2.693441 1_555
O4 Sr12 2.775234 1_555
O5 Pd5 2.061972 1_555
O5 Sr12 2.611247 1_555
O5 Sr21 2.690463 1_555
O5 Sr13 2.748361 1_555
O6 Pd6 2.059758 1_555
O6 Sr15 2.604271 1_455
O6 Sr22 2.693441 1_555
O6 Sr14 2.775234 1_555
O7 Pd7 2.061972 1_565
O7 Sr14 2.611247 1_555
O7 Sr23 2.690463 1_555
O7 Sr15 2.748361 1_555
O8 Pd6 2.058653 1_555
O8 Sr17 2.569770 1_555
O8 Sr22 2.595166 1_555
O9 Pd7 2.060560 1_555
O9 Sr16 2.564645 1_655
O9 Sr23 2.605822 1_545
O10 Pd4 2.058653 1_555
O10 Sr19 2.569770 1_555
O10 Sr20 2.595166 1_545
O11 Pd5 2.060560 1_555
O11 Sr18 2.564645 1_455
O11 Sr21 2.605822 1_555
O12 Pd2 2.058653 1_555
O12 Sr21 2.569770 1_555
O12 Sr18 2.595166 1_555
O13 Pd3 2.060560 1_555
O13 Sr20 2.564645 1_455
O13 Sr19 2.605822 1_565
O14 Pd0 2.058653 1_555
O14 Sr23 2.569770 1_555
O14 Sr16 2.595166 1_565
O15 Pd1 2.060560 1_555
O15 Sr22 2.564645 1_655
O15 Sr17 2.605822 1_555
O16 Sr8 2.586572 1_555
O16 Sr1 2.622583 1_555
O16 Sr17 2.644794 1_555
O17 Sr9 2.606966 1_455
O17 Sr0 2.669309 1_555
O17 Sr16 2.689382 1_555
O18 Sr10 2.586572 1_555
O18 Sr3 2.622583 1_555
O18 Sr19 2.644794 1_555
O19 Sr11 2.606966 1_655
O19 Sr2 2.669309 1_555
O19 Sr18 2.689382 1_555
O20 Sr12 2.586572 1_555
O20 Sr5 2.622583 1_555
O20 Sr21 2.644794 1_555
O21 Sr13 2.606966 1_655
O21 Sr4 2.669309 1_555
O21 Sr20 2.689382 1_555
O22 Sr14 2.586572 1_555
O22 Sr7 2.622583 1_555
O22 Sr23 2.644794 1_555
O23 Sr15 2.606966 1_455
O23 Sr6 2.669309 1_555
O23 Sr22 2.689382 1_555
O24 Pd0 2.049347 1_545
O24 Sr1 2.591552 1_555
O24 Sr6 2.612157 1_545
O25 Pd1 2.050169 1_555
O25 Sr0 2.581344 1_655
O25 Sr7 2.654195 1_555
O26 Pd2 2.049347 1_555
O26 Sr3 2.591552 1_555
O26 Sr4 2.612157 1_555
O27 Pd3 2.050169 1_545
O27 Sr2 2.581344 1_455
O27 Sr5 2.654195 1_545
O28 Pd4 2.049347 1_565
O28 Sr5 2.591552 1_555
O28 Sr2 2.612157 1_565
O29 Pd5 2.050169 1_555
O29 Sr4 2.581344 1_455
O29 Sr3 2.654195 1_555
O30 Pd6 2.049347 1_555
O30 Sr7 2.591552 1_555
O30 Sr0 2.612157 1_555
O31 Pd7 2.050169 1_565
O31 Sr6 2.581344 1_655
O31 Sr1 2.654195 1_565
O32 Pd6 2.057053 1_555
O32 Sr9 2.629805 1_455
O32 Sr8 2.650280 1_555
O32 Sr0 2.891392 1_555
O33 Pd7 2.052600 1_555
O33 Sr8 2.620127 1_555
O33 Sr9 2.647993 1_555
O34 Pd4 2.057053 1_555
O34 Sr11 2.629805 1_655
O34 Sr10 2.650280 1_555
O34 Sr2 2.891392 1_555
O35 Pd5 2.052600 1_555
O35 Sr10 2.620127 1_555
O35 Sr11 2.647993 1_555
O36 Pd2 2.057053 1_555
O36 Sr13 2.629805 1_655
O36 Sr12 2.650280 1_555
O36 Sr4 2.891392 1_555
O37 Pd3 2.052600 1_555
O37 Sr12 2.620127 1_555
O37 Sr13 2.647993 1_555
O38 Pd0 2.057053 1_555
O38 Sr15 2.629805 1_455
O38 Sr14 2.650280 1_555
O38 Sr6 2.891392 1_555
O39 Pd1 2.052600 1_555
O39 Sr14 2.620127 1_555
O39 Sr15 2.647993 1_555
O40 Sr0 2.524372 1_555
O41 Sr1 2.548539 1_555
O41 Sr6 2.709791 1_645
O42 Sr2 2.524372 1_555
O43 Sr3 2.548539 1_555
O43 Sr4 2.709791 1_455
O44 Sr4 2.524372 1_555
O45 Sr5 2.548539 1_555
O45 Sr2 2.709791 1_465
O46 Sr6 2.524372 1_555
O47 Sr7 2.548539 1_555
O47 Sr0 2.709791 1_655
O48 Sr0 2.682649 1_554
O48 Sr3 2.687399 1_555
O48 Sr7 2.761978 1_554
O48 Sr4 2.791977 1_455
O49 Sr2 2.682649 1_565
O49 Sr1 2.687399 1_565
O49 Sr5 2.761978 1_555
O49 Sr6 2.791977 1_655
O50 Sr4 2.682649 1_556
O50 Sr7 2.687399 1_555
O50 Sr3 2.761978 1_556
O50 Sr0 2.791977 1_655
O51 Sr6 2.682649 1_545
O51 Sr5 2.687399 1_545
O51 Sr1 2.761978 1_555
O51 Sr2 2.791977 1_455
O52 Sr9 2.569764 1_455
O52 Sr8 2.651585 1_555
O53 Sr8 2.577925 1_555
O53 Sr9 2.651961 1_555
O54 Sr11 2.569764 1_655
O54 Sr10 2.651585 1_555
O55 Sr10 2.577925 1_555
O55 Sr11 2.651961 1_555
O56 Sr13 2.569764 1_655
O56 Sr12 2.651585 1_555
O57 Sr12 2.577925 1_555
O57 Sr13 2.651961 1_555
O58 Sr15 2.569764 1_455
O58 Sr14 2.651585 1_555
O59 Sr14 2.577925 1_555
O59 Sr15 2.651961 1_555
O60 Sr19 2.565592 1_556
O60 Sr23 2.568395 1_545
O60 Sr16 2.568472 1_555
O61 Sr18 2.555597 1_555
O61 Sr22 2.563082 1_655
O61 Sr17 2.573665 1_555
O62 Sr17 2.565592 1_555
O62 Sr21 2.568395 1_555
O62 Sr18 2.568472 1_555
O63 Sr16 2.555597 1_554
O63 Sr20 2.563082 1_445
O63 Sr19 2.573665 1_555
O64 Sr23 2.565592 1_554
O64 Sr19 2.568395 1_565
O64 Sr20 2.568472 1_555
O65 Sr22 2.555597 1_555
O65 Sr18 2.563082 1_455
O65 Sr21 2.573665 1_555
O66 Sr21 2.565592 1_555
O66 Sr17 2.568395 1_555
O66 Sr22 2.568472 1_555
O67 Sr20 2.555597 1_556
O67 Sr16 2.563082 1_665
O67 Sr23 2.573665 1_555
