# generated using pymatgen
data_NdDyFe14C
_symmetry_space_group_name_H-M   'P 1'
_cell_length_a   8.74535800
_cell_length_b   8.74535800
_cell_length_c   11.82508900
_cell_angle_alpha   90.00000000
_cell_angle_beta   90.00000000
_cell_angle_gamma   90.00000000
_symmetry_Int_Tables_number   1
_chemical_formula_structural   NdDyFe14C
_chemical_formula_sum   'Nd4 Dy4 Fe56 C4'
_cell_volume   904.39802027
_cell_formula_units_Z   4
loop_
 _symmetry_equiv_pos_site_id
 _symmetry_equiv_pos_as_xyz
  1  'x, y, z'
loop_
 _atom_site_type_symbol
 _atom_site_label
 _atom_site_symmetry_multiplicity
 _atom_site_fract_x
 _atom_site_fract_y
 _atom_site_fract_z
 _atom_site_occupancy
  Nd  Nd0  1  0.24303900  0.75696100  0.50000000  1
  Nd  Nd1  1  0.75696100  0.24303900  0.50000000  1
  Nd  Nd2  1  0.25696100  0.25696100  0.00000000  1
  Nd  Nd3  1  0.74303900  0.74303900  0.00000000  1
  Dy  Dy0  1  0.64696800  0.64696800  0.50000000  1
  Dy  Dy1  1  0.35303200  0.35303200  0.50000000  1
  Dy  Dy2  1  0.85303200  0.14696800  0.00000000  1
  Dy  Dy3  1  0.14696800  0.85303200  0.00000000  1
  Fe  Fe0  1  0.50000000  0.50000000  0.10850200  1
  Fe  Fe1  1  0.00000000  0.00000000  0.60850200  1
  Fe  Fe2  1  0.50000000  0.50000000  0.89149800  1
  Fe  Fe3  1  0.00000000  0.00000000  0.39149800  1
  Fe  Fe4  1  0.14142400  0.53391200  0.32369300  1
  Fe  Fe5  1  0.85857600  0.46608800  0.32369300  1
  Fe  Fe6  1  0.35857600  0.03391200  0.82369300  1
  Fe  Fe7  1  0.64142400  0.96608800  0.82369300  1
  Fe  Fe8  1  0.85857600  0.46608800  0.67630700  1
  Fe  Fe9  1  0.14142400  0.53391200  0.67630700  1
  Fe  Fe10  1  0.64142400  0.96608800  0.17630700  1
  Fe  Fe11  1  0.35857600  0.03391200  0.17630700  1
  Fe  Fe12  1  0.53391200  0.14142400  0.32369300  1
  Fe  Fe13  1  0.46608800  0.85857600  0.32369300  1
  Fe  Fe14  1  0.03391200  0.35857600  0.82369300  1
  Fe  Fe15  1  0.96608800  0.64142400  0.82369300  1
  Fe  Fe16  1  0.46608800  0.85857600  0.67630700  1
  Fe  Fe17  1  0.53391200  0.14142400  0.67630700  1
  Fe  Fe18  1  0.96608800  0.64142400  0.17630700  1
  Fe  Fe19  1  0.03391200  0.35857600  0.17630700  1
  Fe  Fe20  1  0.93548300  0.72639000  0.37883900  1
  Fe  Fe21  1  0.06451700  0.27361000  0.37883900  1
  Fe  Fe22  1  0.56451700  0.22639000  0.87883900  1
  Fe  Fe23  1  0.43548300  0.77361000  0.87883900  1
  Fe  Fe24  1  0.06451700  0.27361000  0.62116100  1
  Fe  Fe25  1  0.93548300  0.72639000  0.62116100  1
  Fe  Fe26  1  0.43548300  0.77361000  0.12116100  1
  Fe  Fe27  1  0.56451700  0.22639000  0.12116100  1
  Fe  Fe28  1  0.72639000  0.93548300  0.37883900  1
  Fe  Fe29  1  0.27361000  0.06451700  0.37883900  1
  Fe  Fe30  1  0.22639000  0.56451700  0.87883900  1
  Fe  Fe31  1  0.77361000  0.43548300  0.87883900  1
  Fe  Fe32  1  0.27361000  0.06451700  0.62116100  1
  Fe  Fe33  1  0.72639000  0.93548300  0.62116100  1
  Fe  Fe34  1  0.77361000  0.43548300  0.12116100  1
  Fe  Fe35  1  0.22639000  0.56451700  0.12116100  1
  Fe  Fe36  1  0.18517200  0.81482800  0.25238600  1
  Fe  Fe37  1  0.81482800  0.18517200  0.25238600  1
  Fe  Fe38  1  0.31482800  0.31482800  0.75238600  1
  Fe  Fe39  1  0.68517200  0.68517200  0.75238600  1
  Fe  Fe40  1  0.81482800  0.18517200  0.74761400  1
  Fe  Fe41  1  0.18517200  0.81482800  0.74761400  1
  Fe  Fe42  1  0.68517200  0.68517200  0.24761400  1
  Fe  Fe43  1  0.31482800  0.31482800  0.24761400  1
  Fe  Fe44  1  0.40336000  0.59664000  0.29575600  1
  Fe  Fe45  1  0.59664000  0.40336000  0.29575600  1
  Fe  Fe46  1  0.09664000  0.09664000  0.79575600  1
  Fe  Fe47  1  0.90336000  0.90336000  0.79575600  1
  Fe  Fe48  1  0.59664000  0.40336000  0.70424400  1
  Fe  Fe49  1  0.40336000  0.59664000  0.70424400  1
  Fe  Fe50  1  0.90336000  0.90336000  0.20424400  1
  Fe  Fe51  1  0.09664000  0.09664000  0.20424400  1
  Fe  Fe52  1  0.00000000  0.50000000  0.50000000  1
  Fe  Fe53  1  0.50000000  0.00000000  0.00000000  1
  Fe  Fe54  1  0.50000000  0.00000000  0.50000000  1
  Fe  Fe55  1  0.00000000  0.50000000  0.00000000  1
  C  C0  1  0.87405100  0.87405100  0.50000000  1
  C  C1  1  0.12594900  0.12594900  0.50000000  1
  C  C2  1  0.62594900  0.37405100  0.00000000  1
  C  C3  1  0.37405100  0.62594900  0.00000000  1
loop_
_geom_bond_atom_site_label_1
_geom_bond_atom_site_label_2
_geom_bond_distance
_geom_bond_site_symmetry_2
Dy0 Fe25 2.983546 1_555
Dy0 Fe33 2.983546 1_555
Dy0 Fe28 2.983546 1_555
Dy0 Fe20 2.983546 1_555
Dy0 Fe39 3.021658 1_555
Dy0 Fe42 3.021658 1_555
Dy0 Fe8 3.205236 1_555
Dy0 Fe16 3.205236 1_555
Dy0 Fe5 3.205236 1_555
Dy0 Fe13 3.205236 1_555
Dy0 Fe48 3.250492 1_555
Dy0 Fe49 3.250492 1_555
Dy0 Fe45 3.250492 1_555
Dy0 Fe44 3.250492 1_555
Dy0 Fe54 3.344241 1_565
Dy0 Fe52 3.344241 1_655
Dy0 Dy1 3.635343 1_555
Dy0 Nd1 3.661132 1_555
Dy0 Nd0 3.661132 1_555
Dy1 Fe32 2.983546 1_555
Dy1 Fe24 2.983546 1_555
Dy1 Fe21 2.983546 1_555
Dy1 Fe29 2.983546 1_555
Dy1 Fe43 3.021658 1_555
Dy1 Fe38 3.021658 1_555
Dy1 Fe17 3.205236 1_555
Dy1 Fe4 3.205236 1_555
Dy1 Fe12 3.205236 1_555
Dy1 Fe9 3.205236 1_555
Dy1 Fe48 3.250492 1_555
Dy1 Fe49 3.250492 1_555
Dy1 Fe45 3.250492 1_555
Dy1 Fe44 3.250492 1_555
Dy1 Fe54 3.344241 1_555
Dy1 Fe52 3.344241 1_555
Dy1 Nd1 3.661132 1_555
Dy1 Nd0 3.661132 1_555
Dy2 Fe34 2.983546 1_555
Dy2 Fe31 2.983546 1_554
Dy2 Fe27 2.983546 1_555
Dy2 Fe22 2.983546 1_554
Dy2 Fe37 3.021658 1_555
Dy2 Fe40 3.021658 1_554
Dy2 Fe19 3.205236 1_655
Dy2 Fe14 3.205236 1_654
Dy2 Fe10 3.205236 1_545
Dy2 Fe7 3.205236 1_544
Dy2 Fe50 3.250492 1_545
Dy2 Fe51 3.250492 1_655
Dy2 Fe47 3.250492 1_544
Dy2 Fe46 3.250492 1_654
Dy2 Fe55 3.344241 1_655
Dy2 Fe53 3.344241 1_555
Dy2 Dy3 3.635343 1_645
Dy2 Nd2 3.661132 1_655
Dy2 Nd3 3.661132 1_545
Dy3 Fe26 2.983546 1_555
Dy3 Fe23 2.983546 1_554
Dy3 Fe35 2.983546 1_555
Dy3 Fe30 2.983546 1_554
Dy3 Fe36 3.021658 1_555
Dy3 Fe41 3.021658 1_554
Dy3 Fe11 3.205236 1_565
Dy3 Fe6 3.205236 1_564
Dy3 Fe15 3.205236 1_454
Dy3 Fe18 3.205236 1_455
Dy3 Fe50 3.250492 1_455
Dy3 Fe51 3.250492 1_565
Dy3 Fe47 3.250492 1_454
Dy3 Fe46 3.250492 1_564
Dy3 Fe55 3.344241 1_555
Dy3 Fe53 3.344241 1_565
Dy3 Nd3 3.661132 1_455
Dy3 Nd2 3.661132 1_565
Fe0 Fe45 2.516280 1_555
Fe0 Fe44 2.516280 1_555
Fe0 Fe42 2.819742 1_555
Fe0 Fe43 2.819742 1_555
Fe0 Nd3 3.268240 1_555
Fe0 Nd2 3.268240 1_555
Fe1 Fe47 2.516280 1_445
Fe1 Fe46 2.516280 1_555
Fe1 Fe41 2.819742 1_545
Fe1 Fe40 2.819742 1_455
Fe1 Nd0 3.268240 1_545
Fe1 Nd1 3.268240 1_455
Fe2 Fe48 2.516280 1_555
Fe2 Fe49 2.516280 1_555
Fe2 Fe38 2.819742 1_555
Fe2 Fe39 2.819742 1_555
Fe2 Nd3 3.268240 1_556
Fe2 Nd2 3.268240 1_556
Fe3 Fe50 2.516280 1_445
Fe3 Fe51 2.516280 1_555
Fe3 Fe36 2.819742 1_545
Fe3 Fe37 2.819742 1_455
Fe3 Nd1 3.268240 1_455
Fe3 Nd0 3.268240 1_545
Fe4 Fe44 2.378548 1_555
Fe4 Fe52 2.442175 1_555
Fe4 Fe5 2.543728 1_455
Fe4 Fe43 2.603843 1_555
Fe4 Nd0 2.990202 1_555
Fe5 Fe52 2.442175 1_655
Fe5 Nd1 2.990202 1_555
Fe6 Fe7 2.543728 1_545
Fe6 Nd2 2.990202 1_556
Fe7 Nd3 2.990202 1_556
Fe8 Fe9 2.543728 1_655
Fe8 Nd1 2.990202 1_555
Fe9 Nd0 2.990202 1_555
Fe10 Fe50 2.378548 1_555
Fe10 Fe53 2.442175 1_565
Fe10 Fe27 2.461658 1_565
Fe10 Fe13 2.504558 1_555
Fe10 Fe12 2.504558 1_565
Fe10 Fe28 2.521825 1_555
Fe10 Fe11 2.543728 1_565
Fe10 Fe26 2.549982 1_555
Fe10 Fe37 2.603843 1_565
Fe10 Fe42 2.625416 1_555
Fe10 Nd3 2.990202 1_555
Fe11 Fe51 2.378548 1_555
Fe11 Fe53 2.442175 1_555
Fe11 Fe26 2.461658 1_545
Fe11 Fe12 2.504558 1_555
Fe11 Fe13 2.504558 1_545
Fe11 Fe29 2.521825 1_555
Fe11 Fe27 2.549982 1_555
Fe11 Fe36 2.603843 1_545
Fe11 Fe43 2.625416 1_555
Fe11 Nd2 2.990202 1_555
Fe12 Fe45 2.378548 1_555
Fe12 Fe54 2.442175 1_555
Fe12 Fe29 2.461658 1_555
Fe12 Fe27 2.521825 1_555
Fe12 Fe13 2.543728 1_545
Fe12 Fe28 2.549982 1_545
Fe12 Fe43 2.603843 1_555
Fe12 Fe37 2.625416 1_555
Fe12 Nd1 2.990202 1_555
Fe13 Fe44 2.378548 1_555
Fe13 Fe54 2.442175 1_565
Fe13 Fe28 2.461658 1_555
Fe13 Fe26 2.521825 1_555
Fe13 Fe29 2.549982 1_565
Fe13 Fe42 2.603843 1_555
Fe13 Fe36 2.625416 1_555
Fe13 Nd0 2.990202 1_555
Fe14 Fe46 2.378548 1_555
Fe14 Fe55 2.442175 1_556
Fe14 Fe31 2.461658 1_455
Fe14 Fe9 2.504558 1_555
Fe14 Fe8 2.504558 1_455
Fe14 Fe24 2.521825 1_555
Fe14 Fe15 2.543728 1_455
Fe14 Fe30 2.549982 1_555
Fe14 Fe40 2.603843 1_455
Fe14 Fe38 2.625416 1_555
Fe14 Nd2 2.990202 1_556
Fe15 Fe47 2.378548 1_555
Fe15 Fe55 2.442175 1_656
Fe15 Fe30 2.461658 1_655
Fe15 Fe8 2.504558 1_555
Fe15 Fe9 2.504558 1_655
Fe15 Fe25 2.521825 1_555
Fe15 Fe31 2.549982 1_555
Fe15 Fe41 2.603843 1_655
Fe15 Fe39 2.625416 1_555
Fe15 Nd3 2.990202 1_556
Fe16 Fe49 2.378548 1_555
Fe16 Fe54 2.442175 1_565
Fe16 Fe33 2.461658 1_555
Fe16 Fe7 2.504558 1_555
Fe16 Fe6 2.504558 1_565
Fe16 Fe23 2.521825 1_555
Fe16 Fe17 2.543728 1_565
Fe16 Fe32 2.549982 1_565
Fe16 Fe39 2.603843 1_555
Fe16 Fe41 2.625416 1_555
Fe16 Nd0 2.990202 1_555
Fe17 Fe48 2.378548 1_555
Fe17 Fe54 2.442175 1_555
Fe17 Fe32 2.461658 1_555
Fe17 Fe6 2.504558 1_555
Fe17 Fe7 2.504558 1_545
Fe17 Fe22 2.521825 1_555
Fe17 Fe33 2.549982 1_545
Fe17 Fe38 2.603843 1_555
Fe17 Fe40 2.625416 1_555
Fe17 Nd1 2.990202 1_555
Fe18 Fe50 2.378548 1_555
Fe18 Fe55 2.442175 1_655
Fe18 Fe35 2.461658 1_655
Fe18 Fe5 2.504558 1_555
Fe18 Fe4 2.504558 1_655
Fe18 Fe20 2.521825 1_555
Fe18 Fe19 2.543728 1_655
Fe18 Fe34 2.549982 1_555
Fe18 Fe36 2.603843 1_655
Fe18 Fe42 2.625416 1_555
Fe18 Nd3 2.990202 1_555
Fe19 Fe51 2.378548 1_555
Fe19 Fe55 2.442175 1_555
Fe19 Fe34 2.461658 1_455
Fe19 Fe4 2.504558 1_555
Fe19 Fe5 2.504558 1_455
Fe19 Fe21 2.521825 1_555
Fe19 Fe35 2.549982 1_555
Fe19 Fe37 2.603843 1_455
Fe19 Fe43 2.625416 1_555
Fe19 Nd2 2.990202 1_555
Fe20 Fe5 2.461658 1_555
Fe20 Fe52 2.508175 1_655
Fe20 Fe4 2.549982 1_655
Fe20 Fe50 2.595529 1_555
Fe20 Fe42 2.707367 1_555
Fe20 Fe36 2.757236 1_655
Fe20 Nd0 3.059189 1_655
Fe21 Fe4 2.461658 1_555
Fe21 Fe52 2.508175 1_555
Fe21 Fe5 2.549982 1_455
Fe21 Fe51 2.595529 1_555
Fe21 Fe43 2.707367 1_555
Fe21 Fe37 2.757236 1_455
Fe21 Nd1 3.059189 1_455
Fe22 Fe7 2.461658 1_545
Fe22 Fe53 2.508175 1_556
Fe22 Fe6 2.549982 1_555
Fe22 Fe48 2.595529 1_555
Fe22 Fe40 2.707367 1_555
Fe22 Fe38 2.757236 1_555
Fe22 Nd2 3.059189 1_556
Fe23 Fe6 2.461658 1_565
Fe23 Fe53 2.508175 1_566
Fe23 Fe7 2.549982 1_555
Fe23 Fe49 2.595529 1_555
Fe23 Fe41 2.707367 1_555
Fe23 Fe39 2.757236 1_555
Fe23 Nd3 3.059189 1_556
Fe24 Fe9 2.461658 1_555
Fe24 Fe52 2.508175 1_555
Fe24 Fe8 2.549982 1_455
Fe24 Fe46 2.595529 1_555
Fe24 Fe38 2.707367 1_555
Fe24 Fe40 2.757236 1_455
Fe24 Nd1 3.059189 1_455
Fe25 Fe8 2.461658 1_555
Fe25 Fe52 2.508175 1_655
Fe25 Fe9 2.549982 1_655
Fe25 Fe47 2.595529 1_555
Fe25 Fe39 2.707367 1_555
Fe25 Fe41 2.757236 1_655
Fe25 Nd0 3.059189 1_655
Fe26 Fe53 2.508175 1_565
Fe26 Fe44 2.595529 1_555
Fe26 Fe36 2.707367 1_555
Fe26 Fe42 2.757236 1_555
Fe26 Nd3 3.059189 1_555
Fe27 Fe53 2.508175 1_555
Fe27 Fe45 2.595529 1_555
Fe27 Fe37 2.707367 1_555
Fe27 Fe43 2.757236 1_555
Fe27 Nd2 3.059189 1_555
Fe28 Fe54 2.508175 1_565
Fe28 Fe50 2.595529 1_555
Fe28 Fe42 2.707367 1_555
Fe28 Fe37 2.757236 1_565
Fe28 Nd1 3.059189 1_565
Fe29 Fe54 2.508175 1_555
Fe29 Fe51 2.595529 1_555
Fe29 Fe43 2.707367 1_555
Fe29 Fe36 2.757236 1_545
Fe29 Nd0 3.059189 1_545
Fe30 Fe55 2.508175 1_556
Fe30 Fe9 2.521825 1_555
Fe30 Fe49 2.595529 1_555
Fe30 Fe41 2.707367 1_555
Fe30 Fe38 2.757236 1_555
Fe30 Nd2 3.059189 1_556
Fe31 Fe55 2.508175 1_656
Fe31 Fe8 2.521825 1_555
Fe31 Fe48 2.595529 1_555
Fe31 Fe40 2.707367 1_555
Fe31 Fe39 2.757236 1_555
Fe31 Nd3 3.059189 1_556
Fe32 Fe54 2.508175 1_555
Fe32 Fe6 2.521825 1_555
Fe32 Fe46 2.595529 1_555
Fe32 Fe38 2.707367 1_555
Fe32 Fe41 2.757236 1_545
Fe32 Nd0 3.059189 1_545
Fe33 Fe54 2.508175 1_565
Fe33 Fe7 2.521825 1_555
Fe33 Fe47 2.595529 1_555
Fe33 Fe39 2.707367 1_555
Fe33 Fe40 2.757236 1_565
Fe33 Nd1 3.059189 1_565
Fe34 Fe55 2.508175 1_655
Fe34 Fe5 2.521825 1_555
Fe34 Fe45 2.595529 1_555
Fe34 Fe37 2.707367 1_555
Fe34 Fe42 2.757236 1_555
Fe34 Nd3 3.059189 1_555
Fe35 Fe55 2.508175 1_555
Fe35 Fe4 2.521825 1_555
Fe35 Fe44 2.595529 1_555
Fe35 Fe36 2.707367 1_555
Fe35 Fe43 2.757236 1_555
Fe35 Nd2 3.059189 1_555
Fe36 Fe4 2.625416 1_555
Fe36 Fe50 2.645284 1_455
Fe36 Fe51 2.645284 1_565
Fe36 Fe44 2.746808 1_555
Fe36 Nd0 3.014254 1_555
Fe37 Fe5 2.625416 1_555
Fe37 Fe50 2.645284 1_545
Fe37 Fe51 2.645284 1_655
Fe37 Fe45 2.746808 1_555
Fe37 Nd1 3.014254 1_555
Fe38 Fe9 2.603843 1_555
Fe38 Fe6 2.625416 1_555
Fe38 Fe49 2.645284 1_555
Fe38 Fe48 2.645284 1_555
Fe38 Fe46 2.746808 1_555
Fe38 Nd2 3.014254 1_556
Fe39 Fe8 2.603843 1_555
Fe39 Fe7 2.625416 1_555
Fe39 Fe49 2.645284 1_555
Fe39 Fe48 2.645284 1_555
Fe39 Fe47 2.746808 1_555
Fe39 Nd3 3.014254 1_556
Fe40 Fe7 2.603843 1_545
Fe40 Fe8 2.625416 1_555
Fe40 Fe47 2.645284 1_545
Fe40 Fe46 2.645284 1_655
Fe40 Fe48 2.746808 1_555
Fe40 Nd1 3.014254 1_555
Fe41 Fe6 2.603843 1_565
Fe41 Fe9 2.625416 1_555
Fe41 Fe47 2.645284 1_455
Fe41 Fe46 2.645284 1_565
Fe41 Fe49 2.746808 1_555
Fe41 Nd0 3.014254 1_555
Fe42 Fe5 2.603843 1_555
Fe42 Fe45 2.645284 1_555
Fe42 Fe44 2.645284 1_555
Fe42 Fe50 2.746808 1_555
Fe42 Nd3 3.014254 1_555
Fe43 Fe44 2.645284 1_555
Fe43 Fe45 2.645284 1_555
Fe43 Fe51 2.746808 1_555
Fe43 Nd2 3.014254 1_555
Fe44 Fe45 2.390449 1_555
Fe44 Nd0 3.124864 1_555
Fe45 Fe5 2.378548 1_555
Fe45 Nd1 3.124864 1_555
Fe46 Fe6 2.378548 1_555
Fe46 Fe47 2.390449 1_445
Fe46 Nd2 3.124864 1_556
Fe47 Fe7 2.378548 1_555
Fe47 Nd3 3.124864 1_556
Fe48 Fe8 2.378548 1_555
Fe48 Fe49 2.390449 1_555
Fe48 Nd1 3.124864 1_555
Fe49 Fe9 2.378548 1_555
Fe49 Nd0 3.124864 1_555
Fe50 Fe51 2.390449 1_665
Fe50 Nd3 3.124864 1_555
Fe51 Nd2 3.124864 1_555
Fe52 Fe9 2.442175 1_555
Fe52 Fe8 2.442175 1_455
Fe52 Nd0 3.093149 1_555
Fe52 Nd1 3.093149 1_455
Fe53 Fe7 2.442175 1_544
Fe53 Fe6 2.442175 1_554
Fe53 Nd2 3.093149 1_555
Fe53 Nd3 3.093149 1_545
Fe54 Nd1 3.093149 1_555
Fe54 Nd0 3.093149 1_545
Fe55 Nd2 3.093149 1_555
Fe55 Nd3 3.093149 1_455
C0 Fe33 2.002238 1_555
C0 Fe25 2.002238 1_555
C0 Fe28 2.002238 1_555
C0 Fe20 2.002238 1_555
C0 Fe1 2.018087 1_665
C0 Fe3 2.018087 1_665
C0 Dy0 2.808518 1_555
C1 Fe32 2.002238 1_555
C1 Fe24 2.002238 1_555
C1 Fe29 2.002238 1_555
C1 Fe21 2.002238 1_555
C1 Fe1 2.018087 1_555
C1 Fe3 2.018087 1_555
C1 Dy1 2.808518 1_555
C2 Fe27 2.002238 1_555
C2 Fe34 2.002238 1_555
C2 Fe22 2.002238 1_554
C2 Fe31 2.002238 1_554
C2 Fe2 2.018087 1_554
C2 Fe0 2.018087 1_555
C2 Dy2 2.808518 1_555
C3 Fe35 2.002238 1_555
C3 Fe26 2.002238 1_555
C3 Fe30 2.002238 1_554
C3 Fe23 2.002238 1_554
C3 Fe2 2.018087 1_554
C3 Fe0 2.018087 1_555
C3 Dy3 2.808518 1_555
