# generated using pymatgen
data_Sm8Ga21Ru11
_symmetry_space_group_name_H-M   'P 1'
_cell_length_a   11.33363232
_cell_length_b   11.33363232
_cell_length_c   5.58938911
_cell_angle_alpha   90.00000000
_cell_angle_beta   90.00000000
_cell_angle_gamma   90.20957904
_symmetry_Int_Tables_number   1
_chemical_formula_structural   Sm8Ga21Ru11
_chemical_formula_sum   'Sm8 Ga21 Ru11'
_cell_volume   717.95905577
_cell_formula_units_Z   1
loop_
 _symmetry_equiv_pos_site_id
 _symmetry_equiv_pos_as_xyz
  1  'x, y, z'
loop_
 _atom_site_type_symbol
 _atom_site_label
 _atom_site_symmetry_multiplicity
 _atom_site_fract_x
 _atom_site_fract_y
 _atom_site_fract_z
 _atom_site_occupancy
  Sm  Sm0  1  0.73697583  0.92114069  0.74442719  1
  Sm  Sm1  1  0.26302417  0.07885931  0.74442719  1
  Sm  Sm2  1  0.23543959  0.57789300  0.24525836  1
  Sm  Sm3  1  0.76456041  0.42210700  0.24525836  1
  Sm  Sm4  1  0.42210700  0.76456041  0.75474164  1
  Sm  Sm5  1  0.57789300  0.23543959  0.75474164  1
  Sm  Sm6  1  0.07885931  0.26302417  0.25557281  1
  Sm  Sm7  1  0.92114069  0.73697583  0.25557281  1
  Ga  Ga0  1  -0.00000000  0.50000000  0.49807694  1
  Ga  Ga1  1  0.50000000  0.00000000  -0.00114565  1
  Ga  Ga2  1  -0.00000000  0.50000000  0.00114565  1
  Ga  Ga3  1  0.50000000  0.00000000  0.50192306  1
  Ga  Ga4  1  0.81483979  0.18516021  0.50000000  1
  Ga  Ga5  1  0.18516021  0.81483979  0.50000000  1
  Ga  Ga6  1  0.32322887  0.32322887  0.00000000  1
  Ga  Ga7  1  0.67677113  0.67677113  0.00000000  1
  Ga  Ga8  1  0.67456720  0.67456720  0.50000000  1
  Ga  Ga9  1  0.32543280  0.32543280  0.50000000  1
  Ga  Ga10  1  0.82514396  0.17485604  0.00000000  1
  Ga  Ga11  1  0.17485604  0.82514396  0.00000000  1
  Ga  Ga12  1  0.97552987  0.81027062  0.76445833  1
  Ga  Ga13  1  0.02447013  0.18972938  0.76445833  1
  Ga  Ga14  1  0.47398514  0.68591159  0.25237616  1
  Ga  Ga15  1  0.52601486  0.31408841  0.25237616  1
  Ga  Ga16  1  0.31408841  0.52601486  0.74762384  1
  Ga  Ga17  1  0.68591159  0.47398514  0.74762384  1
  Ga  Ga18  1  0.18972938  0.02447013  0.23554167  1
  Ga  Ga19  1  0.81027062  0.97552987  0.23554167  1
  Ga  Ga20  1  -0.00000000  0.00000000  0.50000000  1
  Ru  Ru0  1  0.85489644  0.62210038  0.74882870  1
  Ru  Ru1  1  0.14510356  0.37789962  0.74882870  1
  Ru  Ru2  1  0.35667481  0.87727060  0.25247317  1
  Ru  Ru3  1  0.64332519  0.12272940  0.25247317  1
  Ru  Ru4  1  0.12272940  0.64332519  0.74752683  1
  Ru  Ru5  1  0.87727060  0.35667481  0.74752683  1
  Ru  Ru6  1  0.37789962  0.14510356  0.25117130  1
  Ru  Ru7  1  0.62210038  0.85489644  0.25117130  1
  Ru  Ru8  1  0.50000000  0.50000000  0.00000000  1
  Ru  Ru9  1  0.50000000  0.50000000  0.50000000  1
  Ru  Ru10  1  -0.00000000  0.00000000  0.00000000  1
loop_
_geom_bond_atom_site_label_1
_geom_bond_atom_site_label_2
_geom_bond_distance
_geom_bond_site_symmetry_2
Ga0 Ru5 2.549691 1_455
Ga0 Ru4 2.549691 1_555
Ga0 Ru1 2.569154 1_555
Ga0 Ru0 2.569154 1_455
Ga0 Ga2 2.777542 1_555
Ga0 Ga2 2.811847 1_556
Ga0 Sm6 3.141198 1_555
Ga0 Sm7 3.141198 1_455
Ga0 Sm2 3.143129 1_555
Ga0 Sm3 3.143129 1_455
Ga1 Ru3 2.562507 1_555
Ga1 Ru2 2.562507 1_545
Ga1 Ru6 2.573937 1_555
Ga1 Ru7 2.573937 1_545
Ga1 Ga3 2.777542 1_554
Ga1 Ga3 2.811847 1_555
Ga1 Sm5 3.121555 1_554
Ga1 Sm4 3.121555 1_544
Ga1 Sm0 3.170524 1_544
Ga1 Sm1 3.170524 1_554
Ga2 Ru4 2.562507 1_554
Ga2 Ru5 2.562507 1_454
Ga2 Ru1 2.573937 1_554
Ga2 Ru0 2.573937 1_454
Ga2 Sm3 3.121555 1_455
Ga2 Sm2 3.121555 1_555
Ga2 Sm6 3.170524 1_555
Ga2 Sm7 3.170524 1_455
Ga3 Ru3 2.549691 1_555
Ga3 Ru2 2.549691 1_545
Ga3 Ru6 2.569154 1_555
Ga3 Ru7 2.569154 1_545
Ga3 Sm1 3.141198 1_555
Ga3 Sm0 3.141198 1_545
Ga3 Sm5 3.143129 1_555
Ga3 Sm4 3.143129 1_545
Ga4 Ru3 2.486646 1_555
Ga4 Ru5 2.486646 1_555
Ga4 Sm5 3.094351 1_555
Ga4 Sm3 3.094351 1_555
Ga4 Sm6 3.402913 1_655
Ga4 Sm0 3.402913 1_545
Ga5 Ru4 2.486646 1_555
Ga5 Ru2 2.486646 1_555
Ga5 Sm2 3.094351 1_555
Ga5 Sm4 3.094351 1_555
Ga5 Sm1 3.402913 1_565
Ga5 Sm7 3.402913 1_455
Ga6 Ru6 2.537632 1_555
Ga6 Ru1 2.537632 1_554
Ga6 Ga9 2.794917 1_555
Ga6 Ga9 2.794917 1_554
Ga6 Ru8 2.828132 1_555
Ga6 Sm1 3.187948 1_554
Ga6 Sm6 3.187948 1_555
Ga6 Sm2 3.349738 1_555
Ga6 Sm5 3.349738 1_554
Ga7 Ru0 2.537632 1_554
Ga7 Ru7 2.537632 1_555
Ga7 Ga8 2.794917 1_555
Ga7 Ga8 2.794917 1_554
Ga7 Ru8 2.828132 1_555
Ga7 Sm7 3.187948 1_555
Ga7 Sm0 3.187948 1_554
Ga7 Sm4 3.349738 1_554
Ga7 Sm3 3.349738 1_555
Ga8 Ru0 2.544380 1_555
Ga8 Ru7 2.544380 1_555
Ga8 Ru9 2.792872 1_555
Ga8 Sm7 3.187785 1_555
Ga8 Sm0 3.187785 1_555
Ga8 Sm3 3.357973 1_555
Ga8 Sm4 3.357973 1_555
Ga9 Ru6 2.544380 1_555
Ga9 Ru1 2.544380 1_555
Ga9 Ru9 2.792872 1_555
Ga9 Sm1 3.187785 1_555
Ga9 Sm6 3.187785 1_555
Ga9 Sm2 3.357973 1_555
Ga9 Sm5 3.357973 1_555
Ga10 Ru5 2.564736 1_554
Ga10 Ru3 2.564736 1_555
Ga10 Ga19 2.619614 1_545
Ga10 Ga13 2.619614 1_654
Ga10 Ga4 2.799588 1_555
Ga10 Ga4 2.799588 1_554
Ga10 Ru10 2.807745 1_655
Ga10 Sm5 3.196462 1_554
Ga10 Sm3 3.196462 1_555
Ga10 Sm6 3.359569 1_655
Ga10 Sm0 3.359569 1_544
Ga11 Ru2 2.564736 1_555
Ga11 Ru4 2.564736 1_554
Ga11 Ga12 2.619614 1_454
Ga11 Ga18 2.619614 1_565
Ga11 Ga5 2.799588 1_554
Ga11 Ga5 2.799588 1_555
Ga11 Ru10 2.807745 1_565
Ga11 Sm2 3.196462 1_555
Ga11 Sm4 3.196462 1_554
Ga11 Sm1 3.359569 1_564
Ga11 Sm7 3.359569 1_455
Ga12 Ru4 2.528898 1_655
Ga12 Ru0 2.530570 1_555
Ga12 Ru10 2.535686 1_666
Ga12 Ga20 2.623242 1_665
Ga12 Ga5 2.798484 1_655
Ga12 Sm7 2.932828 1_556
Ga12 Sm0 2.987681 1_555
Ga12 Sm7 3.025999 1_555
Ga13 Ru5 2.528898 1_455
Ga13 Ru1 2.530570 1_555
Ga13 Ru10 2.535686 1_556
Ga13 Ga20 2.623242 1_555
Ga13 Ga4 2.798484 1_455
Ga13 Sm6 2.932828 1_556
Ga13 Sm1 2.987681 1_555
Ga13 Sm6 3.025999 1_555
Ga14 Ru9 2.539053 1_555
Ga14 Ru7 2.542153 1_555
Ga14 Ru2 2.548032 1_555
Ga14 Ru8 2.553630 1_555
Ga14 Ga8 2.665015 1_555
Ga14 Ga7 2.698988 1_555
Ga14 Sm2 2.964039 1_555
Ga14 Sm4 2.980048 1_554
Ga14 Sm4 3.004744 1_555
Ga15 Ru9 2.539053 1_555
Ga15 Ru6 2.542153 1_555
Ga15 Ru3 2.548032 1_555
Ga15 Ru8 2.553630 1_555
Ga15 Ga9 2.665015 1_555
Ga15 Ga6 2.698988 1_555
Ga15 Sm3 2.964039 1_555
Ga15 Sm5 2.980048 1_554
Ga15 Sm5 3.004744 1_555
Ga16 Ru9 2.539053 1_555
Ga16 Ru1 2.542153 1_555
Ga16 Ru4 2.548032 1_555
Ga16 Ru8 2.553630 1_556
Ga16 Ga9 2.665015 1_555
Ga16 Ga6 2.698988 1_556
Ga16 Sm4 2.964039 1_555
Ga16 Sm2 2.980048 1_556
Ga16 Sm2 3.004744 1_555
Ga17 Ru9 2.539053 1_555
Ga17 Ru0 2.542153 1_555
Ga17 Ru5 2.548032 1_555
Ga17 Ru8 2.553630 1_556
Ga17 Ga8 2.665015 1_555
Ga17 Ga7 2.698988 1_556
Ga17 Sm5 2.964039 1_555
Ga17 Sm3 2.980048 1_556
Ga17 Sm3 3.004744 1_555
Ga18 Ru2 2.528898 1_545
Ga18 Ru6 2.530570 1_555
Ga18 Ru10 2.535686 1_555
Ga18 Ga20 2.623242 1_555
Ga18 Ga5 2.798484 1_545
Ga18 Sm1 2.932828 1_554
Ga18 Sm6 2.987681 1_555
Ga18 Sm1 3.025999 1_555
Ga19 Ru3 2.528898 1_565
Ga19 Ru7 2.530570 1_555
Ga19 Ru10 2.535686 1_665
Ga19 Ga20 2.623242 1_665
Ga19 Ga4 2.798484 1_565
Ga19 Sm0 2.932828 1_554
Ga19 Sm7 2.987681 1_555
Ga19 Sm0 3.025999 1_555
Ga20 Ru10 2.794695 1_556
Ga20 Ru10 2.794695 1_555
Ga20 Ga4 2.973203 1_455
Ga20 Ga5 2.973203 1_545
Ga20 Sm7 3.395923 1_445
Ga20 Sm1 3.395923 1_555
Ga20 Sm6 3.395923 1_555
Ga20 Sm0 3.395923 1_445
Ru0 Sm7 3.138896 1_555
Ru0 Sm7 3.205317 1_556
Ru1 Sm6 3.138896 1_555
Ru1 Sm6 3.205317 1_556
Ru2 Sm4 3.150917 1_554
Ru2 Sm4 3.173329 1_555
Ru3 Sm5 3.150917 1_554
Ru3 Sm5 3.173329 1_555
Ru4 Sm2 3.150917 1_556
Ru4 Sm2 3.173329 1_555
Ru5 Sm3 3.150917 1_556
Ru5 Sm3 3.173329 1_555
Ru6 Sm1 3.138896 1_555
Ru6 Sm1 3.205317 1_554
Ru7 Sm0 3.138896 1_555
Ru7 Sm0 3.205317 1_554
Ru8 Sm2 3.415921 1_555
Ru8 Sm3 3.415921 1_555
Ru8 Sm4 3.415921 1_554
Ru8 Sm5 3.415921 1_554
Ru9 Sm3 3.437536 1_555
Ru9 Sm4 3.437536 1_555
Ru9 Sm2 3.437536 1_555
Ru9 Sm5 3.437536 1_555
Ru10 Sm1 3.421461 1_554
Ru10 Sm0 3.421461 1_444
Ru10 Sm7 3.421461 1_445
Ru10 Sm6 3.421461 1_555
