# generated using pymatgen
data_La3SmV2Cr2O10
_symmetry_space_group_name_H-M   'P 1'
_cell_length_a   10.96289105
_cell_length_b   11.23147226
_cell_length_c   17.92143922
_cell_angle_alpha   108.35968128
_cell_angle_beta   107.92589218
_cell_angle_gamma   89.94126740
_symmetry_Int_Tables_number   1
_chemical_formula_structural   La3SmV2Cr2O10
_chemical_formula_sum   'La24 Sm8 V16 Cr16 O80'
_cell_volume   1981.39039000
_cell_formula_units_Z   8
loop_
 _symmetry_equiv_pos_site_id
 _symmetry_equiv_pos_as_xyz
  1  'x, y, z'
loop_
 _atom_site_type_symbol
 _atom_site_label
 _atom_site_symmetry_multiplicity
 _atom_site_fract_x
 _atom_site_fract_y
 _atom_site_fract_z
 _atom_site_occupancy
  La  La0  1  0.31296700  0.05913900  0.62211400  1
  La  La1  1  0.31039200  0.55962700  0.62257400  1
  La  La2  1  0.81071600  0.06004800  0.62274800  1
  La  La3  1  0.81358100  0.55991100  0.62445100  1
  La  La4  1  0.18991700  0.43922600  0.37800700  1
  La  La5  1  0.18289100  0.44303900  0.87624000  1
  La  La6  1  0.18775700  0.93966800  0.37568500  1
  La  La7  1  0.68967600  0.44058900  0.37811900  1
  La  La8  1  0.68978900  0.93978900  0.37816600  1
  La  La9  1  0.68662600  0.94148900  0.87667300  1
  La  La10  1  0.05874300  0.31706400  0.12477500  1
  La  La11  1  0.06154100  0.31161500  0.62143900  1
  La  La12  1  0.06061000  0.81636400  0.62474100  1
  La  La13  1  0.55969300  0.31488900  0.12420400  1
  La  La14  1  0.56025900  0.31593700  0.62438700  1
  La  La15  1  0.55658600  0.81707100  0.12435200  1
  La  La16  1  0.56149400  0.81261800  0.62241200  1
  La  La17  1  0.43827000  0.18587200  0.37595500  1
  La  La18  1  0.43630000  0.18543600  0.87639200  1
  La  La19  1  0.43587900  0.68408000  0.37470000  1
  La  La20  1  0.43502700  0.68328700  0.87629400  1
  La  La21  1  0.93567300  0.18450600  0.37501600  1
  La  La22  1  0.93689500  0.18316700  0.87579800  1
  La  La23  1  0.93722300  0.68471900  0.37489000  1
  Sm  Sm0  1  0.30111500  0.05824200  0.12288900  1
  Sm  Sm1  1  0.30353200  0.55803600  0.12161000  1
  Sm  Sm2  1  0.80365800  0.05782200  0.12098700  1
  Sm  Sm3  1  0.80400900  0.55916100  0.12239900  1
  Sm  Sm4  1  0.18899700  0.94109800  0.87951900  1
  Sm  Sm5  1  0.68907200  0.44125600  0.87992700  1
  Sm  Sm6  1  0.05685500  0.81358700  0.12238800  1
  Sm  Sm7  1  0.93428800  0.68603700  0.87783100  1
  V  V0  1  0.11427300  0.13249300  0.24792700  1
  V  V1  1  0.11947300  0.13336700  0.75129200  1
  V  V2  1  0.11625500  0.63464100  0.24814400  1
  V  V3  1  0.11702400  0.63646200  0.75144300  1
  V  V4  1  0.61480600  0.13358000  0.24891500  1
  V  V5  1  0.61882200  0.13509900  0.75090500  1
  V  V6  1  0.61577700  0.63404600  0.24862100  1
  V  V7  1  0.61954600  0.63340900  0.75183000  1
  V  V8  1  0.36771400  0.36563000  0.24840200  1
  V  V9  1  0.36823600  0.36670300  0.75076500  1
  V  V10  1  0.36495400  0.86446800  0.24816100  1
  V  V11  1  0.36706500  0.86547800  0.75093600  1
  V  V12  1  0.86728400  0.36577600  0.24867900  1
  V  V13  1  0.86633300  0.36662800  0.75159300  1
  V  V14  1  0.86699600  0.86558400  0.24764700  1
  V  V15  1  0.87042100  0.86534500  0.75155300  1
  Cr  Cr0  1  0.00343300  0.99932600  0.00125500  1
  Cr  Cr1  1  0.00183400  0.99953600  0.49974900  1
  Cr  Cr2  1  0.00117500  0.50164600  0.00034600  1
  Cr  Cr3  1  0.00120600  0.50051700  0.49960800  1
  Cr  Cr4  1  0.50150600  0.00024900  0.00083200  1
  Cr  Cr5  1  0.50105500  0.99988000  0.49939300  1
  Cr  Cr6  1  0.50333600  0.50083800  0.00075100  1
  Cr  Cr7  1  0.50206500  0.50018500  0.50012000  1
  Cr  Cr8  1  0.25191400  0.24959800  0.00045000  1
  Cr  Cr9  1  0.25096600  0.24913700  0.49911300  1
  Cr  Cr10  1  0.25060700  0.75123900  0.00107700  1
  Cr  Cr11  1  0.25086800  0.74985300  0.49967000  1
  Cr  Cr12  1  0.75250900  0.25103900  0.00103400  1
  Cr  Cr13  1  0.75115100  0.25061000  0.50030700  1
  Cr  Cr14  1  0.75438300  0.74943400  0.00039800  1
  Cr  Cr15  1  0.75132600  0.74987200  0.49977400  1
  O  O0  1  0.11262000  0.11260000  0.47361300  1
  O  O1  1  0.11435400  0.10760600  0.97007400  1
  O  O2  1  0.11293200  0.61196500  0.47296000  1
  O  O3  1  0.10733600  0.61453500  0.96897500  1
  O  O4  1  0.61283800  0.11283800  0.47371700  1
  O  O5  1  0.61233300  0.11241800  0.97219300  1
  O  O6  1  0.61276200  0.61367000  0.47428500  1
  O  O7  1  0.61532100  0.60969700  0.97049800  1
  O  O8  1  0.14040900  0.38860300  0.02893600  1
  O  O9  1  0.13875300  0.38715600  0.52530000  1
  O  O10  1  0.13993800  0.88706300  0.03298200  1
  O  O11  1  0.13906200  0.88687900  0.52628600  1
  O  O12  1  0.64126700  0.38831500  0.02962600  1
  O  O13  1  0.63963500  0.38809700  0.52695200  1
  O  O14  1  0.64066100  0.88637200  0.02811000  1
  O  O15  1  0.63953700  0.88783500  0.52612400  1
  O  O16  1  0.36238600  0.11028100  0.47277100  1
  O  O17  1  0.36089300  0.10812400  0.97105000  1
  O  O18  1  0.36369700  0.61165100  0.47403000  1
  O  O19  1  0.36303000  0.61126600  0.97359700  1
  O  O20  1  0.86431500  0.11255600  0.47487500  1
  O  O21  1  0.86390600  0.11022900  0.97318200  1
  O  O22  1  0.86345100  0.61195600  0.47310200  1
  O  O23  1  0.86138900  0.60812000  0.96863300  1
  O  O24  1  0.38926100  0.39514200  0.03095100  1
  O  O25  1  0.38828300  0.38820400  0.52437200  1
  O  O26  1  0.38672800  0.89728900  0.03181400  1
  O  O27  1  0.38906700  0.88817100  0.52525000  1
  O  O28  1  0.88802500  0.39789900  0.03197100  1
  O  O29  1  0.88841600  0.38982900  0.52552500  1
  O  O30  1  0.89224100  0.89465400  0.03324500  1
  O  O31  1  0.88832200  0.88904200  0.52526800  1
  O  O32  1  0.07867700  0.10690400  0.12225400  1
  O  O33  1  0.06740300  0.10144500  0.62289400  1
  O  O34  1  0.07911700  0.60873900  0.12151500  1
  O  O35  1  0.06442500  0.60405500  0.62261500  1
  O  O36  1  0.58046500  0.10325700  0.12250700  1
  O  O37  1  0.56448700  0.10384600  0.62231000  1
  O  O38  1  0.58087700  0.60609700  0.12240400  1
  O  O39  1  0.56664500  0.60171400  0.62329900  1
  O  O40  1  0.44400000  0.39776000  0.37700300  1
  O  O41  1  0.45300700  0.39684300  0.87823700  1
  O  O42  1  0.44256800  0.89638200  0.37657100  1
  O  O43  1  0.44420800  0.89414100  0.87877500  1
  O  O44  1  0.94293000  0.39668400  0.37689000  1
  O  O45  1  0.94341200  0.39321200  0.87890600  1
  O  O46  1  0.94248600  0.89740200  0.37648400  1
  O  O47  1  0.95257500  0.89129200  0.87922800  1
  O  O48  1  0.31836800  0.26144400  0.12150400  1
  O  O49  1  0.31654200  0.27020000  0.62208200  1
  O  O50  1  0.31820000  0.76098700  0.12153800  1
  O  O51  1  0.31669000  0.77016900  0.62248400  1
  O  O52  1  0.81861200  0.26206600  0.12190000  1
  O  O53  1  0.81749100  0.27176100  0.62318300  1
  O  O54  1  0.82814700  0.76145100  0.12147000  1
  O  O55  1  0.81686400  0.76952000  0.62253400  1
  O  O56  1  0.19245600  0.22733200  0.37628800  1
  O  O57  1  0.19624700  0.23509200  0.87864500  1
  O  O58  1  0.19195600  0.72996400  0.37693600  1
  O  O59  1  0.19835900  0.73715700  0.87935900  1
  O  O60  1  0.69228300  0.22946400  0.37738400  1
  O  O61  1  0.69773900  0.23598600  0.87901000  1
  O  O62  1  0.69208200  0.72900600  0.37706800  1
  O  O63  1  0.70659900  0.73432300  0.87847500  1
  O  O64  1  0.44332100  0.03717100  0.24410100  1
  O  O65  1  0.45131800  0.03738000  0.75022200  1
  O  O66  1  0.44471900  0.53738600  0.24303500  1
  O  O67  1  0.44993300  0.53827200  0.74886000  1
  O  O68  1  0.94254900  0.03907400  0.24373300  1
  O  O69  1  0.95120500  0.03646900  0.74845200  1
  O  O70  1  0.94531200  0.53736100  0.24331800  1
  O  O71  1  0.95056700  0.54314700  0.75624800  1
  O  O72  1  0.20166300  0.46347700  0.25152100  1
  O  O73  1  0.20017600  0.46278200  0.74968800  1
  O  O74  1  0.19338300  0.95631000  0.24492300  1
  O  O75  1  0.20176600  0.96189900  0.75664000  1
  O  O76  1  0.70079200  0.46280500  0.25124400  1
  O  O77  1  0.69918900  0.46035100  0.75596400  1
  O  O78  1  0.69982900  0.96197900  0.25116500  1
  O  O79  1  0.70285000  0.96232600  0.75049800  1
loop_
_geom_bond_atom_site_label_1
_geom_bond_atom_site_label_2
_geom_bond_distance
_geom_bond_site_symmetry_2
La0 O49 2.371073 1_555
La0 O65 2.416689 1_555
La0 O27 2.486981 1_545
La0 O11 2.495242 1_545
La0 O33 2.736729 1_555
La0 O37 2.801979 1_555
La1 O51 2.366298 1_555
La1 O67 2.393718 1_555
La1 O9 2.488564 1_555
La1 O25 2.514066 1_555
La1 O35 2.741968 1_555
La1 O39 2.844647 1_555
La2 O53 2.376567 1_555
La2 O69 2.399269 1_555
La2 O15 2.481636 1_545
La2 O31 2.502503 1_545
La2 O37 2.741418 1_555
La2 O33 2.851726 1_655
La3 O55 2.365735 1_555
La3 O71 2.442498 1_555
La3 O29 2.494795 1_555
La3 O13 2.499142 1_555
La3 O39 2.741993 1_555
La3 O35 2.806785 1_655
La4 O56 2.370604 1_555
La4 O72 2.407885 1_555
La4 O2 2.484556 1_555
La4 O18 2.496254 1_555
La4 O44 2.742910 1_455
La4 O40 2.828261 1_555
La5 O57 2.353067 1_555
La5 O73 2.410463 1_555
La5 O3 2.446573 1_555
La5 O19 2.514768 1_555
La5 O45 2.702808 1_455
La6 O58 2.362709 1_555
La6 O74 2.428045 1_555
La6 O16 2.494206 1_565
La6 O0 2.504052 1_565
La6 O46 2.736097 1_455
La6 O42 2.831048 1_555
La7 O60 2.367321 1_555
La7 O76 2.403173 1_555
La7 O22 2.485707 1_555
La7 O6 2.498161 1_555
La7 O40 2.729322 1_555
La7 O44 2.824893 1_555
La8 O62 2.361452 1_555
La8 O78 2.401292 1_555
La8 O4 2.492151 1_565
La8 O20 2.505510 1_565
La8 O42 2.744126 1_555
La8 O46 2.818105 1_555
La9 O63 2.346237 1_555
La9 O79 2.404295 1_555
La9 O5 2.462545 1_565
La9 O21 2.496760 1_565
La9 O43 2.724741 1_555
La10 O32 2.357786 1_555
La10 O72 2.404171 1_555
La10 O28 2.474839 1_455
La10 O8 2.492919 1_555
La10 O52 2.685930 1_455
La10 O48 2.927586 1_555
La11 O33 2.369449 1_555
La11 O73 2.423194 1_555
La11 O9 2.495001 1_555
La11 O29 2.503627 1_455
La11 O53 2.724399 1_455
La11 O49 2.830630 1_555
La12 O35 2.373349 1_555
La12 O75 2.444081 1_555
La12 O31 2.500529 1_455
La12 O11 2.509209 1_555
La12 O55 2.709895 1_455
La12 O51 2.864592 1_555
La13 O36 2.379125 1_555
La13 O76 2.406420 1_555
La13 O24 2.473825 1_555
La13 O12 2.483536 1_555
La13 O48 2.695945 1_555
La13 O52 2.909302 1_555
La14 O37 2.371262 1_555
La14 O77 2.428126 1_555
La14 O25 2.501846 1_555
La14 O13 2.508297 1_555
La14 O49 2.706628 1_555
La14 O53 2.868261 1_555
La15 O38 2.374702 1_555
La15 O78 2.399604 1_555
La15 O26 2.463017 1_555
La15 O14 2.501219 1_555
La15 O50 2.670471 1_555
La16 O39 2.374315 1_555
La16 O79 2.425302 1_555
La16 O27 2.495341 1_555
La16 O15 2.500426 1_555
La16 O51 2.726722 1_555
La16 O55 2.840098 1_555
La17 O40 2.374708 1_555
La17 O64 2.443444 1_555
La17 O16 2.498269 1_555
La17 O4 2.498625 1_555
La17 O56 2.735794 1_555
La17 O60 2.818867 1_555
La18 O41 2.370691 1_555
La18 O65 2.401044 1_555
La18 O17 2.471414 1_555
La18 O5 2.487709 1_555
La18 O57 2.699370 1_555
La18 O61 2.905685 1_555
La19 O42 2.375005 1_555
La19 O66 2.446041 1_555
La19 O18 2.497508 1_555
La19 O6 2.515240 1_555
La19 O58 2.732788 1_555
La19 O62 2.839258 1_555
La20 O43 2.356243 1_555
La20 O67 2.404399 1_555
La20 O19 2.460764 1_555
La20 O7 2.502337 1_555
La20 O59 2.676646 1_555
La21 O44 2.373776 1_555
La21 O68 2.428423 1_555
La21 O20 2.498377 1_555
La21 O0 2.514619 1_655
La21 O60 2.725769 1_555
La21 O56 2.848323 1_655
La22 O45 2.342807 1_555
La22 O69 2.408089 1_555
La22 O21 2.473655 1_555
La22 O1 2.497237 1_655
La22 O61 2.701388 1_555
La22 O57 2.884810 1_655
La23 O46 2.380445 1_555
La23 O70 2.444787 1_555
La23 O22 2.490718 1_555
La23 O2 2.506932 1_655
La23 O62 2.742435 1_555
La23 O58 2.826020 1_655
Cr0 O30 2.013557 1_455
Cr0 O21 2.015325 1_464
Cr0 O10 2.019053 1_555
Cr0 O32 2.023118 1_565
Cr0 O1 2.029632 1_564
Cr0 O47 2.035895 1_454
Cr1 O31 2.002220 1_455
Cr1 O20 2.005435 1_465
Cr1 O11 2.006288 1_555
Cr1 O0 2.008762 1_565
Cr1 O33 2.032533 1_565
Cr1 O46 2.034613 1_455
Cr2 O23 1.997445 1_454
Cr2 O28 2.017295 1_455
Cr2 O45 2.025908 1_454
Cr2 O34 2.026543 1_555
Cr2 O8 2.031953 1_555
Cr2 O3 2.032991 1_554
Cr3 O22 2.000491 1_455
Cr3 O29 2.002658 1_455
Cr3 O2 2.008713 1_555
Cr3 O9 2.011180 1_555
Cr3 O44 2.031232 1_455
Cr3 O35 2.034335 1_555
Cr4 O17 2.006542 1_554
Cr4 O26 2.016531 1_545
Cr4 O36 2.023270 1_555
Cr4 O43 2.028102 1_544
Cr4 O5 2.030052 1_554
Cr4 O14 2.032960 1_545
Cr5 O16 1.999633 1_565
Cr5 O27 2.003947 1_555
Cr5 O4 2.010258 1_565
Cr5 O15 2.011499 1_555
Cr5 O42 2.031818 1_555
Cr5 O37 2.034183 1_565
Cr6 O19 2.014089 1_554
Cr6 O12 2.019376 1_555
Cr6 O24 2.022527 1_555
Cr6 O38 2.027563 1_555
Cr6 O7 2.031362 1_554
Cr6 O41 2.032118 1_554
Cr7 O25 2.002001 1_555
Cr7 O18 2.003804 1_555
Cr7 O13 2.005417 1_555
Cr7 O6 2.008115 1_555
Cr7 O39 2.031893 1_555
Cr7 O40 2.033434 1_555
Cr8 O1 2.016571 1_554
Cr8 O8 2.017551 1_555
Cr8 O17 2.021379 1_554
Cr8 O48 2.024960 1_555
Cr8 O57 2.029834 1_554
Cr8 O24 2.042948 1_555
Cr9 O0 1.999355 1_555
Cr9 O9 2.007426 1_555
Cr9 O16 2.008573 1_555
Cr9 O25 2.012624 1_555
Cr9 O56 2.026889 1_555
Cr9 O49 2.031281 1_555
Cr10 O10 1.999957 1_555
Cr10 O3 2.011869 1_554
Cr10 O50 2.021924 1_555
Cr10 O19 2.028542 1_554
Cr10 O59 2.031047 1_554
Cr10 O26 2.037370 1_555
Cr11 O11 1.998004 1_555
Cr11 O2 2.001612 1_555
Cr11 O18 2.011748 1_555
Cr11 O27 2.011867 1_555
Cr11 O58 2.030128 1_555
Cr11 O51 2.030632 1_555
Cr12 O12 2.002531 1_555
Cr12 O5 2.015369 1_554
Cr12 O52 2.024194 1_555
Cr12 O21 2.028718 1_554
Cr12 O61 2.032341 1_554
Cr12 O28 2.038900 1_555
Cr13 O13 1.999523 1_555
Cr13 O4 2.004038 1_555
Cr13 O20 2.012453 1_555
Cr13 O29 2.013626 1_555
Cr13 O53 2.029682 1_555
Cr13 O60 2.030141 1_555
Cr14 O7 2.011647 1_554
Cr14 O23 2.014298 1_554
Cr14 O14 2.015560 1_555
Cr14 O54 2.028733 1_555
Cr14 O63 2.034592 1_554
Cr14 O30 2.035546 1_555
Cr15 O6 1.998437 1_555
Cr15 O15 2.004334 1_555
Cr15 O22 2.007536 1_555
Cr15 O31 2.010005 1_555
Cr15 O62 2.027093 1_555
Cr15 O55 2.031385 1_555
O1 Sm4 2.388127 1_545
O3 Sm7 2.414072 1_455
O7 Sm5 2.395346 1_555
O8 Sm1 2.401126 1_555
O10 Sm0 2.391150 1_565
O10 Sm6 2.410570 1_555
O12 Sm3 2.408453 1_555
O14 Sm2 2.414264 1_565
O17 Sm4 2.434555 1_545
O23 Sm7 2.398284 1_555
O23 Sm5 2.426931 1_555
O24 Sm1 2.436013 1_555
O26 Sm0 2.427687 1_565
O28 Sm3 2.412779 1_555
O30 Sm6 2.403379 1_655
O30 Sm2 2.428003 1_565
O32 V0 2.087798 1_555
O32 Sm0 2.495904 1_555
O33 V1 2.102729 1_555
O34 V2 2.101436 1_555
O34 Sm6 2.309060 1_555
O34 Sm1 2.524327 1_555
O35 V3 2.108787 1_555
O36 V4 2.092615 1_555
O36 Sm2 2.505572 1_555
O37 V5 2.105948 1_555
O38 V6 2.093255 1_555
O38 Sm3 2.501823 1_555
O39 V7 2.104879 1_555
O40 V8 2.105123 1_555
O41 V9 2.098498 1_555
O41 Sm5 2.625287 1_555
O42 V10 2.103339 1_555
O43 V11 2.100243 1_555
O43 Sm4 2.849877 1_555
O44 V12 2.100695 1_555
O45 V13 2.096084 1_555
O45 Sm5 2.843982 1_555
O46 V14 2.109116 1_555
O47 V15 2.107959 1_555
O47 Sm7 2.305818 1_555
O47 Sm4 2.650197 1_655
O48 V8 2.097957 1_555
O48 Sm0 2.298815 1_555
O49 V9 2.106302 1_555
O50 V10 2.094478 1_555
O50 Sm1 2.285702 1_555
O50 Sm6 2.928439 1_555
O51 V11 2.101552 1_555
O52 V12 2.095602 1_555
O52 Sm2 2.294531 1_555
O53 V13 2.101404 1_555
O54 V14 2.098749 1_555
O54 Sm3 2.293497 1_555
O54 Sm6 2.569292 1_655
O55 V15 2.108858 1_555
O56 V0 2.098967 1_555
O57 V1 2.097530 1_555
O58 V2 2.104379 1_555
O59 V3 2.107110 1_555
O59 Sm4 2.291890 1_555
O60 V4 2.101936 1_555
O61 V5 2.108028 1_555
O61 Sm5 2.302433 1_555
O62 V6 2.099070 1_555
O63 V7 2.096442 1_555
O63 Sm7 2.556546 1_555
O64 V4 2.135347 1_555
O64 V10 2.153294 1_545
O64 Sm0 2.333179 1_555
O65 V5 2.135100 1_555
O65 V11 2.146497 1_545
O66 V6 2.127318 1_555
O66 V8 2.147895 1_555
O66 Sm1 2.329981 1_555
O67 V7 2.123548 1_555
O67 V9 2.140177 1_555
O68 V0 2.125548 1_655
O68 V14 2.147786 1_545
O68 Sm2 2.330478 1_555
O69 V1 2.121641 1_655
O69 V15 2.140673 1_545
O70 V2 2.134978 1_655
O70 V12 2.150695 1_555
O70 Sm3 2.328676 1_555
O71 V3 2.143232 1_655
O71 V13 2.154630 1_555
O71 Sm7 2.321874 1_555
O72 V8 2.131793 1_555
O72 V2 2.147275 1_555
O73 V9 2.132259 1_555
O73 V3 2.147672 1_555
O74 V10 2.138173 1_555
O74 V0 2.151465 1_565
O74 Sm6 2.322991 1_555
O75 V11 2.123065 1_555
O75 V1 2.142764 1_565
O75 Sm4 2.331879 1_555
O76 V12 2.130075 1_555
O76 V6 2.143875 1_555
O77 V13 2.122330 1_555
O77 V7 2.143174 1_555
O77 Sm5 2.333593 1_555
O78 V14 2.135117 1_555
O78 V4 2.146434 1_565
O79 V15 2.132859 1_555
O79 V5 2.146094 1_565
