# generated using pymatgen
data_Dy2Co7
_symmetry_space_group_name_H-M   'P 1'
_cell_length_a   4.94785464
_cell_length_b   4.94785400
_cell_length_c   12.39730740
_cell_angle_alpha   78.48914552
_cell_angle_beta   78.48914366
_cell_angle_gamma   60.00000429
_symmetry_Int_Tables_number   1
_chemical_formula_structural   Dy2Co7
_chemical_formula_sum   'Dy4 Co14'
_cell_volume   255.76723923
_cell_formula_units_Z   2
loop_
 _symmetry_equiv_pos_site_id
 _symmetry_equiv_pos_as_xyz
  1  'x, y, z'
loop_
 _atom_site_type_symbol
 _atom_site_label
 _atom_site_symmetry_multiplicity
 _atom_site_fract_x
 _atom_site_fract_y
 _atom_site_fract_z
 _atom_site_occupancy
  Dy  Dy0  1  0.94821600  0.94821600  0.15535100  1
  Dy  Dy1  1  0.05178400  0.05178400  0.84464900  1
  Dy  Dy2  1  0.85153900  0.85153900  0.44538300  1
  Dy  Dy3  1  0.14846100  0.14846100  0.55461700  1
  Co  Co0  1  0.50000000  0.50000000  0.50000000  1
  Co  Co1  1  0.72131900  0.72131900  0.83604200  1
  Co  Co2  1  0.27868100  0.27868100  0.16395800  1
  Co  Co3  1  0.61159000  0.61159000  0.16523100  1
  Co  Co4  1  0.38841000  0.38841000  0.83476900  1
  Co  Co5  1  0.00000000  0.50000000  0.00000000  1
  Co  Co6  1  0.50000000  0.00000000  0.00000000  1
  Co  Co7  1  0.50000000  0.50000000  0.00000000  1
  Co  Co8  1  0.39096700  0.39096700  0.32692600  1
  Co  Co9  1  0.89114100  0.39096700  0.32692600  1
  Co  Co10  1  0.39096700  0.89114100  0.32692600  1
  Co  Co11  1  0.60903300  0.60903300  0.67307400  1
  Co  Co12  1  0.10885900  0.60903300  0.67307400  1
  Co  Co13  1  0.60903300  0.10885900  0.67307400  1
loop_
_geom_bond_atom_site_label_1
_geom_bond_atom_site_label_2
_geom_bond_distance
_geom_bond_site_symmetry_2
Dy0 Dy2 3.498858 1_555
Dy1 Dy3 3.498858 1_555
Dy2 Dy3 3.145938 1_665
Dy2 Dy3 3.145938 1_655
Dy2 Dy3 3.145939 1_565
Co0 Co11 2.529999 1_555
Co0 Co8 2.529999 1_555
Co0 Co13 2.530002 1_555
Co0 Co10 2.530002 1_555
Co0 Co12 2.530002 1_555
Co0 Co9 2.530002 1_555
Co0 Dy2 2.931646 1_555
Co0 Dy3 2.931646 1_565
Co0 Dy2 2.931646 1_545
Co0 Dy3 2.931646 1_555
Co0 Dy3 2.931646 1_655
Co0 Dy2 2.931646 1_455
Co1 Co11 2.429780 1_555
Co1 Co13 2.429780 1_565
Co1 Co12 2.429780 1_655
Co1 Co7 2.439742 1_556
Co1 Co6 2.439745 1_566
Co1 Co5 2.439745 1_656
Co1 Co4 2.856686 1_555
Co1 Co4 2.856686 1_565
Co1 Co4 2.856687 1_655
Co1 Dy1 2.858529 1_655
Co1 Dy1 2.858529 1_565
Co1 Dy1 2.858537 1_665
Co2 Co8 2.429780 1_555
Co2 Co9 2.429780 1_455
Co2 Co7 2.439742 1_555
Co2 Co6 2.439745 1_555
Co2 Co5 2.439745 1_555
Co2 Co3 2.856686 1_545
Co2 Co3 2.856686 1_555
Co2 Co3 2.856687 1_455
Co2 Dy0 2.858529 1_455
Co2 Dy0 2.858529 1_545
Co2 Dy0 2.858537 1_445
Co3 Co8 2.417958 1_555
Co3 Co9 2.417958 1_555
Co3 Co6 2.452210 1_565
Co3 Co5 2.452210 1_655
Co3 Co7 2.452212 1_555
Co3 Dy0 2.859125 1_555
Co3 Dy0 2.859133 1_545
Co3 Dy0 2.859134 1_455
Co4 Co6 2.452210 1_556
Co4 Co5 2.452210 1_556
Co4 Co7 2.452212 1_556
Co4 Dy1 2.859125 1_555
Co4 Dy1 2.859133 1_565
Co4 Dy1 2.859134 1_655
Co5 Co7 2.473927 1_455
Co5 Co7 2.473927 1_555
Co5 Co6 2.473927 1_465
Co5 Co6 2.473927 1_555
Co6 Co7 2.473927 1_545
Co6 Co7 2.473927 1_555
Co8 Co9 2.473066 1_455
Co8 Co9 2.474788 1_555
Co8 Dy2 2.856999 1_455
Co8 Dy2 2.856999 1_545
Co8 Dy3 3.095736 1_555
Co8 Dy0 3.225602 1_545
Co8 Dy0 3.225602 1_455
Co9 Dy2 2.856996 1_555
Co9 Dy2 2.857001 1_545
Co9 Dy3 3.095734 1_655
Co9 Dy0 3.225598 1_555
Co9 Dy0 3.225606 1_545
Co10 Co3 2.417958 1_555
Co10 Co2 2.429780 1_565
Co10 Co8 2.473066 1_565
Co10 Co9 2.473066 1_465
Co10 Co8 2.474788 1_555
Co10 Co9 2.474788 1_555
Co10 Dy2 2.856997 1_555
Co10 Dy2 2.857001 1_455
Co10 Dy3 3.095734 1_565
Co10 Dy0 3.225598 1_555
Co10 Dy0 3.225606 1_455
Co11 Co4 2.417958 1_555
Co11 Co13 2.473066 1_565
Co11 Co12 2.473066 1_655
Co11 Co13 2.474788 1_555
Co11 Co12 2.474788 1_555
Co11 Dy3 2.856999 1_655
Co11 Dy3 2.856999 1_565
Co11 Dy2 3.095736 1_555
Co11 Dy1 3.225602 1_565
Co11 Dy1 3.225602 1_655
Co12 Co4 2.417958 1_555
Co12 Co13 2.473066 1_465
Co12 Co13 2.474788 1_555
Co12 Dy3 2.856996 1_555
Co12 Dy3 2.857001 1_565
Co12 Dy2 3.095734 1_455
Co12 Dy1 3.225598 1_555
Co12 Dy1 3.225606 1_565
Co13 Co4 2.417958 1_555
Co13 Dy3 2.856997 1_555
Co13 Dy3 2.857001 1_655
Co13 Dy2 3.095734 1_545
Co13 Dy1 3.225598 1_555
Co13 Dy1 3.225606 1_655
