# generated using pymatgen
data_Al4Cu13Si2(SbO14)2
_symmetry_space_group_name_H-M   'P 1'
_cell_length_a   5.44010425
_cell_length_b   8.49890050
_cell_length_c   11.96500120
_cell_angle_alpha   87.68188542
_cell_angle_beta   77.01576317
_cell_angle_gamma   80.54458095
_symmetry_Int_Tables_number   1
_chemical_formula_structural   Al4Cu13Si2(SbO14)2
_chemical_formula_sum   'Al4 Cu13 Si2 Sb2 O28'
_cell_volume   531.72904046
_cell_formula_units_Z   1
loop_
 _symmetry_equiv_pos_site_id
 _symmetry_equiv_pos_as_xyz
  1  'x, y, z'
loop_
 _atom_site_type_symbol
 _atom_site_label
 _atom_site_symmetry_multiplicity
 _atom_site_fract_x
 _atom_site_fract_y
 _atom_site_fract_z
 _atom_site_occupancy
  Al  Al0  1  0.07520500  0.66627500  0.42869600  1
  Al  Al1  1  0.49619000  0.33084400  0.42906300  1
  Al  Al2  1  0.92486600  0.33295600  0.57162300  1
  Al  Al3  1  0.50391400  0.66731900  0.57154600  1
  Cu  Cu0  1  0.91646300  0.63835900  0.71308900  1
  Cu  Cu1  1  0.68046900  0.35722600  0.14188800  1
  Cu  Cu2  1  0.37163300  0.36054300  0.71271200  1
  Cu  Cu3  1  0.08798400  0.36066900  0.28700500  1
  Cu  Cu4  1  0.33422000  0.64208400  0.85835200  1
  Cu  Cu5  1  0.29197900  0.99893700  0.41795800  1
  Cu  Cu6  1  0.19272200  0.64215400  0.14148300  1
  Cu  Cu7  1  0.00162300  0.99832900  0.99963300  1
  Cu  Cu8  1  0.43141100  0.99733400  0.14481100  1
  Cu  Cu9  1  0.80703900  0.35546100  0.85804100  1
  Cu  Cu10  1  0.63023400  0.63984400  0.28910300  1
  Cu  Cu11  1  0.57400200  0.99873300  0.85449800  1
  Cu  Cu12  1  0.70935600  0.99986500  0.58212600  1
  Si  Si0  1  0.22379800  0.31420200  0.00058400  1
  Si  Si1  1  0.78025800  0.68202300  0.00014000  1
  Sb  Sb0  1  0.86139900  0.00043900  0.28040300  1
  Sb  Sb1  1  0.14090500  0.99944900  0.71975900  1
  O  O0  1  0.66117000  0.40640300  0.29930100  1
  O  O1  1  0.16061700  0.36520900  0.44879400  1
  O  O2  1  0.91753300  0.34509300  0.99907700  1
  O  O3  1  0.30328600  0.11507100  0.00057700  1
  O  O4  1  0.83959700  0.63420400  0.55163700  1
  O  O5  1  0.33479200  0.59367900  0.70097500  1
  O  O6  1  0.99640200  0.11637100  0.58947800  1
  O  O7  1  0.00430500  0.88288000  0.41071200  1
  O  O8  1  0.69962200  0.88109000  0.00127600  1
  O  O9  1  0.12547600  0.87900500  0.15176700  1
  O  O10  1  0.27068200  0.38876100  0.11815800  1
  O  O11  1  0.03438600  0.59403100  0.29892000  1
  O  O12  1  0.41421500  0.88375200  0.58896000  1
  O  O13  1  0.71587000  0.12567300  0.15420000  1
  O  O14  1  0.61619300  0.60567200  0.11801400  1
  O  O15  1  0.08608900  0.65045000  0.99963600  1
  O  O16  1  0.28076900  0.87781900  0.84765700  1
  O  O17  1  0.87421200  0.11907400  0.84873100  1
  O  O18  1  0.58700000  0.11470000  0.41188900  1
  O  O19  1  0.13917100  0.13069100  0.28084200  1
  O  O20  1  0.86208600  0.86883400  0.71940200  1
  O  O21  1  0.39056500  0.38757600  0.88276600  1
  O  O22  1  0.41876800  0.13038000  0.71969800  1
  O  O23  1  0.60898900  0.36471400  0.55165400  1
  O  O24  1  0.72769200  0.60996900  0.88269600  1
  O  O25  1  0.58304600  0.86986200  0.27885400  1
  O  O26  1  0.96545600  0.40503600  0.70138000  1
  O  O27  1  0.39111400  0.63610400  0.44838700  1
loop_
_geom_bond_atom_site_label_1
_geom_bond_atom_site_label_2
_geom_bond_distance
_geom_bond_site_symmetry_2
Al0 O27 1.762681 1_555
Al0 O11 1.764727 1_555
Al0 O4 1.765234 1_455
Al0 O7 1.831927 1_555
Al1 O23 1.762834 1_555
Al1 O1 1.763634 1_555
Al1 O0 1.763805 1_555
Al1 O18 1.829630 1_555
Al2 O23 1.763446 1_555
Al2 O26 1.763480 1_555
Al2 O1 1.765156 1_655
Al2 O6 1.831823 1_555
Al3 O5 1.762647 1_555
Al3 O27 1.763487 1_555
Al3 O4 1.764046 1_555
Al3 O12 1.831797 1_555
Cu0 O20 1.934320 1_555
Cu0 O26 1.963403 1_555
Cu0 O4 2.069110 1_555
Cu0 O24 2.082399 1_555
Cu0 O5 2.217330 1_655
Cu1 O2 1.890480 1_554
Cu1 O0 1.921843 1_555
Cu1 O13 1.948429 1_555
Cu1 O14 2.101399 1_555
Cu1 O10 2.281254 1_555
Cu2 O22 1.931526 1_555
Cu2 O5 1.960994 1_555
Cu2 O23 2.067238 1_555
Cu2 O21 2.084020 1_555
Cu2 O26 2.213562 1_455
Cu3 O19 1.930516 1_555
Cu3 O11 1.962929 1_555
Cu3 O1 2.063912 1_555
Cu3 O10 2.064683 1_555
Cu3 O0 2.262432 1_455
Cu4 O15 1.907256 1_555
Cu4 O5 1.942836 1_555
Cu4 O16 1.979764 1_555
Cu4 O21 2.151581 1_555
Cu4 O24 2.196130 1_555
Cu5 O7 2.001157 1_555
Cu5 O18 2.002438 1_565
Cu5 O19 2.189717 1_565
Cu5 O25 2.207608 1_555
Cu5 O12 2.412941 1_555
Cu5 O6 2.439035 1_465
Cu6 O15 1.908210 1_554
Cu6 O11 1.944728 1_555
Cu6 O9 1.989696 1_555
Cu6 O10 2.142645 1_555
Cu6 O14 2.227960 1_555
Cu7 O8 2.052837 1_456
Cu7 O3 2.054725 1_566
Cu7 O17 2.229861 1_465
Cu7 O9 2.230054 1_556
Cu7 O16 2.249535 1_555
Cu7 O13 2.307680 1_466
Cu8 O13 2.059044 1_565
Cu8 O9 2.066194 1_555
Cu8 O25 2.141671 1_555
Cu8 O8 2.142904 1_555
Cu8 O3 2.153376 1_565
Cu8 O19 2.203548 1_565
Cu9 O2 1.908693 1_555
Cu9 O26 1.939921 1_555
Cu9 O17 1.985131 1_555
Cu9 O24 2.153998 1_555
Cu9 O21 2.190297 1_555
Cu10 O25 1.931952 1_555
Cu10 O0 1.964529 1_555
Cu10 O27 2.054268 1_555
Cu10 O14 2.099135 1_555
Cu10 O11 2.197829 1_655
Cu11 O17 2.051958 1_565
Cu11 O16 2.052205 1_555
Cu11 O3 2.169360 1_566
Cu11 O22 2.173022 1_565
Cu11 O8 2.173406 1_556
Cu11 O20 2.173775 1_555
Cu12 O6 2.000862 1_565
Cu12 O12 2.003381 1_555
Cu12 O20 2.188515 1_555
Cu12 O22 2.200264 1_565
Cu12 O18 2.404055 1_565
Cu12 O7 2.435482 1_655
O2 Si0 1.647600 1_656
O3 Si0 1.676524 1_555
O6 Sb1 2.050368 1_645
O7 Sb0 2.048666 1_465
O8 Si1 1.676398 1_555
O9 Sb0 2.036087 1_465
O10 Si0 1.652891 1_555
O12 Sb1 2.055555 1_555
O13 Sb0 2.042085 1_555
O14 Si1 1.660543 1_555
O15 Si1 1.639833 1_456
O16 Sb1 2.031296 1_555
O17 Sb1 2.038650 1_645
O18 Sb0 2.058736 1_555
O19 Sb0 2.015583 1_455
O20 Sb1 2.022256 1_655
O21 Si0 1.655065 1_556
O22 Sb1 2.018737 1_545
O24 Si1 1.655036 1_556
O25 Sb0 2.022706 1_565
