# generated using pymatgen
data_ScCuGe
_symmetry_space_group_name_H-M   'P 1'
_cell_length_a   6.49864126
_cell_length_b   6.49864126
_cell_length_c   3.96695883
_cell_angle_alpha   90.00000000
_cell_angle_beta   90.00000000
_cell_angle_gamma   120.00000749
_symmetry_Int_Tables_number   1
_chemical_formula_structural   ScCuGe
_chemical_formula_sum   'Sc3 Cu3 Ge3'
_cell_volume   145.08864299
_cell_formula_units_Z   3
loop_
 _symmetry_equiv_pos_site_id
 _symmetry_equiv_pos_as_xyz
  1  'x, y, z'
loop_
 _atom_site_type_symbol
 _atom_site_label
 _atom_site_symmetry_multiplicity
 _atom_site_fract_x
 _atom_site_fract_y
 _atom_site_fract_z
 _atom_site_occupancy
  Sc  Sc0  1  0.42812439  0.42812439  0.00000000  1
  Sc  Sc1  1  0.57187561  -0.00000000  0.00000000  1
  Sc  Sc2  1  -0.00000000  0.57187561  -0.00000000  1
  Cu  Cu0  1  0.75730690  0.75730690  0.50000000  1
  Cu  Cu1  1  0.24269310  0.00000000  0.50000000  1
  Cu  Cu2  1  0.00000000  0.24269310  0.50000000  1
  Ge  Ge0  1  0.33333300  0.66666700  0.50000000  1
  Ge  Ge1  1  0.66666700  0.33333300  0.50000000  1
  Ge  Ge2  1  -0.00000000  -0.00000000  -0.00000000  1
loop_
_geom_bond_atom_site_label_1
_geom_bond_atom_site_label_2
_geom_bond_distance
_geom_bond_site_symmetry_2
Cu0 Ge1 2.513055 1_555
Cu0 Ge0 2.513055 1_555
Cu0 Ge2 2.534102 1_665
Cu0 Ge2 2.534102 1_666
Cu0 Cu1 2.731748 1_665
Cu0 Cu2 2.731748 1_665
Cu0 Sc0 2.917282 1_555
Cu0 Sc0 2.917282 1_556
Cu0 Sc1 3.126404 1_565
Cu0 Sc2 3.126404 1_656
Cu0 Sc2 3.126404 1_655
Cu0 Sc1 3.126404 1_566
Cu1 Ge0 2.513049 1_545
Cu1 Ge1 2.513053 1_555
Cu1 Ge2 2.534102 1_556
Cu1 Ge2 2.534102 1_555
Cu1 Cu2 2.731748 1_555
Cu1 Sc1 2.917282 1_555
Cu1 Sc1 2.917282 1_556
Cu1 Sc2 3.126403 1_546
Cu1 Sc2 3.126403 1_545
Cu1 Sc0 3.126403 1_555
Cu1 Sc0 3.126403 1_556
Cu2 Ge1 2.513049 1_455
Cu2 Ge0 2.513053 1_555
Cu2 Ge2 2.534102 1_556
Cu2 Ge2 2.534102 1_555
Cu2 Sc2 2.917282 1_556
Cu2 Sc2 2.917282 1_555
Cu2 Sc1 3.126403 1_456
Cu2 Sc1 3.126403 1_455
Cu2 Sc0 3.126403 1_555
Cu2 Sc0 3.126403 1_556
Ge0 Sc2 2.769787 1_556
Ge0 Sc2 2.769787 1_555
Ge0 Sc1 2.769788 1_565
Ge0 Sc1 2.769788 1_566
Ge0 Sc0 2.769791 1_555
Ge0 Sc0 2.769791 1_556
Ge1 Sc1 2.769787 1_555
Ge1 Sc1 2.769787 1_556
Ge1 Sc2 2.769788 1_656
Ge1 Sc2 2.769788 1_655
Ge1 Sc0 2.769791 1_555
Ge1 Sc0 2.769791 1_556
Ge2 Sc0 2.782227 1_555
Ge2 Sc2 2.782227 1_545
Ge2 Sc1 2.782227 1_455
