# generated using pymatgen
data_EuI2
_symmetry_space_group_name_H-M   'P 1'
_cell_length_a   4.88592076
_cell_length_b   8.42455016
_cell_length_c   12.37140700
_cell_angle_alpha   90.00000000
_cell_angle_beta   90.00000000
_cell_angle_gamma   90.00000000
_symmetry_Int_Tables_number   1
_chemical_formula_structural   EuI2
_chemical_formula_sum   'Eu4 I8'
_cell_volume   509.22795201
_cell_formula_units_Z   4
loop_
 _symmetry_equiv_pos_site_id
 _symmetry_equiv_pos_as_xyz
  1  'x, y, z'
loop_
 _atom_site_type_symbol
 _atom_site_label
 _atom_site_symmetry_multiplicity
 _atom_site_fract_x
 _atom_site_fract_y
 _atom_site_fract_z
 _atom_site_occupancy
  Eu  Eu0  1  0.75000000  0.87066302  0.82844056  1
  Eu  Eu1  1  0.75000000  0.62933698  0.32844056  1
  Eu  Eu2  1  0.25000000  0.12933698  0.17155944  1
  Eu  Eu3  1  0.25000000  0.37066302  0.67155944  1
  I  I0  1  0.25000000  0.12588249  0.89267808  1
  I  I1  1  0.25000000  0.37411751  0.39267808  1
  I  I2  1  0.75000000  0.87411751  0.10732192  1
  I  I3  1  0.75000000  0.62588249  0.60732192  1
  I  I4  1  0.25000000  0.61969034  0.87775088  1
  I  I5  1  0.25000000  0.88030966  0.37775088  1
  I  I6  1  0.75000000  0.38030966  0.12224912  1
  I  I7  1  0.75000000  0.11969034  0.62224912  1
loop_
_geom_bond_atom_site_label_1
_geom_bond_atom_site_label_2
_geom_bond_distance
_geom_bond_site_symmetry_2
Eu0 I4 3.287948 1_655
Eu0 I4 3.287948 1_555
Eu0 I7 3.302778 1_565
Eu0 I0 3.350013 1_565
Eu0 I0 3.350013 1_665
Eu0 I3 3.425749 1_555
Eu0 I2 3.450278 1_556
Eu1 I5 3.287948 1_655
Eu1 I5 3.287948 1_555
Eu1 I6 3.302778 1_555
Eu1 I1 3.350013 1_655
Eu1 I1 3.350013 1_555
Eu1 I2 3.425749 1_555
Eu1 I3 3.450278 1_555
Eu2 I6 3.287948 1_455
Eu2 I6 3.287948 1_555
Eu2 I5 3.302778 1_545
Eu2 I2 3.350013 1_445
Eu2 I2 3.350013 1_545
Eu2 I1 3.425749 1_555
Eu2 I0 3.450278 1_554
Eu3 I7 3.287948 1_555
Eu3 I7 3.287948 1_455
Eu3 I4 3.302778 1_555
Eu3 I3 3.350013 1_455
Eu3 I3 3.350013 1_555
Eu3 I0 3.425749 1_555
Eu3 I1 3.450278 1_555
