# generated using pymatgen
data_VCrP2(HO5)2
_symmetry_space_group_name_H-M   'P 1'
_cell_length_a   5.16143900
_cell_length_b   5.24340850
_cell_length_c   7.35337197
_cell_angle_alpha   109.68806925
_cell_angle_beta   104.95221286
_cell_angle_gamma   98.67571129
_symmetry_Int_Tables_number   1
_chemical_formula_structural   VCrP2(HO5)2
_chemical_formula_sum   'V1 Cr1 P2 H2 O10'
_cell_volume   174.73682885
_cell_formula_units_Z   1
loop_
 _symmetry_equiv_pos_site_id
 _symmetry_equiv_pos_as_xyz
  1  'x, y, z'
loop_
 _atom_site_type_symbol
 _atom_site_label
 _atom_site_symmetry_multiplicity
 _atom_site_fract_x
 _atom_site_fract_y
 _atom_site_fract_z
 _atom_site_occupancy
  V  V0  1  0.50000000  0.50000000  0.50000000  1
  Cr  Cr0  1  0.00000000  0.00000000  0.00000000  1
  P  P0  1  0.87222100  0.54343400  0.78091000  1
  P  P1  1  0.12777900  0.45656600  0.21909000  1
  H  H0  1  0.30515600  0.99112900  0.66041700  1
  H  H1  1  0.69484400  0.00887100  0.33958300  1
  O  O0  1  0.68418200  0.85333500  0.28781700  1
  O  O1  1  0.19682400  0.65260700  0.62139500  1
  O  O2  1  0.31200700  0.38382000  0.34828300  1
  O  O3  1  0.82872500  0.70040900  0.92775500  1
  O  O4  1  0.78956900  0.23447100  0.88245400  1
  O  O5  1  0.21043100  0.76552900  0.11754600  1
  O  O6  1  0.17127500  0.29959100  0.07224500  1
  O  O7  1  0.68799300  0.61618000  0.65171700  1
  O  O8  1  0.80317600  0.34739300  0.37860500  1
  O  O9  1  0.31581800  0.14666500  0.71218300  1
loop_
_geom_bond_atom_site_label_1
_geom_bond_atom_site_label_2
_geom_bond_distance
_geom_bond_site_symmetry_2
Cr0 O6 1.519141 1_555
Cr0 O3 1.519141 1_444
Cr0 O5 2.018093 1_545
Cr0 O4 2.018093 1_454
H0 O9 0.761254 1_565
H0 O1 1.679359 1_555
H1 O0 0.761254 1_545
H1 O8 1.679359 1_555
O1 V0 2.122049 1_555
O1 P0 2.384906 1_455
O2 V0 1.167213 1_555
O2 P1 1.356323 1_555
O3 P0 1.214841 1_555
O4 P0 2.033456 1_555
O5 P1 2.033456 1_555
O6 P1 1.214841 1_555
O7 V0 1.167213 1_555
O7 P0 1.356323 1_555
O8 V0 2.122049 1_555
O8 P1 2.384906 1_655
