# generated using pymatgen
data_AlV4(CuO4)3
_symmetry_space_group_name_H-M   'P 1'
_cell_length_a   6.38061229
_cell_length_b   6.38061229
_cell_length_c   6.38061275
_cell_angle_alpha   109.60916332
_cell_angle_beta   109.60916332
_cell_angle_gamma   109.60916726
_symmetry_Int_Tables_number   1
_chemical_formula_structural   AlV4(CuO4)3
_chemical_formula_sum   'Al1 V4 Cu3 O12'
_cell_volume   198.94231788
_cell_formula_units_Z   1
loop_
 _symmetry_equiv_pos_site_id
 _symmetry_equiv_pos_as_xyz
  1  'x, y, z'
loop_
 _atom_site_type_symbol
 _atom_site_label
 _atom_site_symmetry_multiplicity
 _atom_site_fract_x
 _atom_site_fract_y
 _atom_site_fract_z
 _atom_site_occupancy
  Al  Al0  1  0.00000000  0.00000000  0.00000000  1
  V  V0  1  0.50000000  0.00000000  0.00000000  1
  V  V1  1  0.50000000  0.50000000  0.50000000  1
  V  V2  1  0.00000000  0.00000000  0.50000000  1
  V  V3  1  0.00000000  0.50000000  0.00000000  1
  Cu  Cu0  1  0.00000000  0.50000000  0.50000000  1
  Cu  Cu1  1  0.50000000  0.00000000  0.50000000  1
  Cu  Cu2  1  0.50000000  0.50000000  0.00000000  1
  O  O0  1  0.28923300  0.11807800  0.82180000  1
  O  O1  1  0.71076700  0.88192200  0.17820000  1
  O  O2  1  0.70641800  0.53095500  0.82960700  1
  O  O3  1  0.88192200  0.17820000  0.71076700  1
  O  O4  1  0.82180000  0.28923300  0.11807800  1
  O  O5  1  0.17039300  0.29358200  0.46904500  1
  O  O6  1  0.46904500  0.17039300  0.29358200  1
  O  O7  1  0.17820000  0.71076700  0.88192200  1
  O  O8  1  0.29358200  0.46904500  0.17039300  1
  O  O9  1  0.11807800  0.82180000  0.28923300  1
  O  O10  1  0.82960700  0.70641800  0.53095500  1
  O  O11  1  0.53095500  0.82960700  0.70641800  1
loop_
_geom_bond_atom_site_label_1
_geom_bond_atom_site_label_2
_geom_bond_distance
_geom_bond_site_symmetry_2
Al0 O1 2.513251 1_445
Al0 O0 2.513251 1_554
Al0 O4 2.513251 1_455
Al0 O7 2.513251 1_544
Al0 O3 2.513251 1_454
Al0 O9 2.513251 1_545
Al0 O8 2.516744 1_555
Al0 O2 2.516744 1_444
Al0 O6 2.516744 1_555
Al0 O11 2.516744 1_444
Al0 O5 2.516744 1_555
Al0 O10 2.516744 1_444
Cu0 O5 1.971388 1_555
Cu0 O10 1.971388 1_455
Cu0 O4 1.988480 1_455
Cu0 O7 1.988480 1_555
Cu1 O6 1.971388 1_555
Cu1 O11 1.971388 1_545
Cu1 O3 1.988480 1_555
Cu1 O9 1.988480 1_545
Cu2 O8 1.971388 1_555
Cu2 O2 1.971388 1_554
Cu2 O1 1.988480 1_555
Cu2 O0 1.988480 1_554
O0 V2 1.916881 1_555
O0 V0 1.974263 1_556
O1 V2 1.916881 1_665
O1 V0 1.974263 1_565
O2 V3 1.937920 1_656
O2 V1 1.970811 1_555
O3 V3 1.916881 1_656
O3 V2 1.974263 1_655
O4 V0 1.916881 1_555
O4 V3 1.974263 1_655
O5 V2 1.937920 1_555
O5 V1 1.970811 1_555
O6 V0 1.937920 1_555
O6 V1 1.970811 1_555
O7 V0 1.916881 1_566
O7 V3 1.974263 1_556
O8 V3 1.937920 1_555
O8 V1 1.970811 1_555
O9 V3 1.916881 1_555
O9 V2 1.974263 1_565
O10 V2 1.937920 1_665
O10 V1 1.970811 1_555
O11 V0 1.937920 1_566
O11 V1 1.970811 1_555
