# generated using pymatgen
data_ZnGeN2
_symmetry_space_group_name_H-M   'P 1'
_cell_length_a   6.44915000
_cell_length_b   5.52410200
_cell_length_c   5.54989909
_cell_angle_alpha   88.69745363
_cell_angle_beta   90.00000000
_cell_angle_gamma   90.00000000
_symmetry_Int_Tables_number   1
_chemical_formula_structural   ZnGeN2
_chemical_formula_sum   'Zn4 Ge4 N8'
_cell_volume   197.66829585
_cell_formula_units_Z   4
loop_
 _symmetry_equiv_pos_site_id
 _symmetry_equiv_pos_as_xyz
  1  'x, y, z'
loop_
 _atom_site_type_symbol
 _atom_site_label
 _atom_site_symmetry_multiplicity
 _atom_site_fract_x
 _atom_site_fract_y
 _atom_site_fract_z
 _atom_site_occupancy
  Zn  Zn0  1  0.13278900  0.40586900  0.32408100  1
  Zn  Zn1  1  0.63278900  0.09413100  0.67591900  1
  Zn  Zn2  1  0.86721100  0.59413100  0.67591900  1
  Zn  Zn3  1  0.36721100  0.90586900  0.32408100  1
  Ge  Ge0  1  0.63731000  0.41570200  0.16749000  1
  Ge  Ge1  1  0.13731000  0.08429800  0.83251000  1
  Ge  Ge2  1  0.36269000  0.58429800  0.83251000  1
  Ge  Ge3  1  0.86269000  0.91570200  0.16749000  1
  N  N0  1  0.12181100  0.07644500  0.17805300  1
  N  N1  1  0.62181100  0.42355500  0.82194700  1
  N  N2  1  0.87818900  0.92355500  0.82194700  1
  N  N3  1  0.37818900  0.57644500  0.17805300  1
  N  N4  1  0.64714300  0.10102800  0.29740500  1
  N  N5  1  0.14714300  0.39897200  0.70259500  1
  N  N6  1  0.35285700  0.89897200  0.70259500  1
  N  N7  1  0.85285700  0.60102800  0.29740500  1
loop_
_geom_bond_atom_site_label_1
_geom_bond_atom_site_label_2
_geom_bond_distance
_geom_bond_site_symmetry_2
Ge0 N4 1.867769 1_555
Ge0 N7 1.879859 1_555
Ge0 N3 1.893908 1_555
Ge0 N1 1.919837 1_554
Ge1 N5 1.867769 1_555
Ge1 N6 1.879859 1_545
Ge1 N2 1.893908 1_445
Ge1 N0 1.919837 1_556
Ge2 N6 1.867769 1_555
Ge2 N5 1.879859 1_555
Ge2 N1 1.893908 1_555
Ge2 N3 1.919837 1_556
Ge3 N7 1.867769 1_555
Ge3 N4 1.879859 1_565
Ge3 N0 1.893908 1_665
Ge3 N2 1.919837 1_554
N0 Zn3 2.003666 1_545
N0 Zn0 2.010086 1_555
N1 Zn2 2.003666 1_555
N1 Zn1 2.010086 1_555
N2 Zn1 2.003666 1_565
N2 Zn2 2.010086 1_555
N3 Zn0 2.003666 1_555
N3 Zn3 2.010086 1_555
N4 Zn1 2.102233 1_555
N4 Zn3 2.106207 1_545
N5 Zn0 2.102233 1_555
N5 Zn2 2.106207 1_455
N6 Zn3 2.102233 1_555
N6 Zn1 2.106207 1_565
N7 Zn2 2.102233 1_555
N7 Zn0 2.106207 1_655
