# generated using pymatgen
data_CaNp(PO4)2
_symmetry_space_group_name_H-M   'P 1'
_cell_length_a   6.37451800
_cell_length_b   6.69404045
_cell_length_c   6.90581866
_cell_angle_alpha   89.42594351
_cell_angle_beta   89.69770689
_cell_angle_gamma   76.06472085
_symmetry_Int_Tables_number   1
_chemical_formula_structural   CaNp(PO4)2
_chemical_formula_sum   'Ca2 Np2 P4 O16'
_cell_volume   285.99161798
_cell_formula_units_Z   2
loop_
 _symmetry_equiv_pos_site_id
 _symmetry_equiv_pos_as_xyz
  1  'x, y, z'
loop_
 _atom_site_type_symbol
 _atom_site_label
 _atom_site_symmetry_multiplicity
 _atom_site_fract_x
 _atom_site_fract_y
 _atom_site_fract_z
 _atom_site_occupancy
  Ca  Ca0  1  0.90698500  0.28614000  0.34978400  1
  Ca  Ca1  1  0.09301500  0.71386000  0.65021600  1
  Np  Np0  1  0.39154100  0.78092100  0.16647700  1
  Np  Np1  1  0.60845900  0.21907900  0.83352300  1
  P  P0  1  0.38704100  0.30335700  0.33498100  1
  P  P1  1  0.88462100  0.80684100  0.16110200  1
  P  P2  1  0.61295900  0.69664300  0.66501900  1
  P  P3  1  0.11537900  0.19315900  0.83889800  1
  O  O0  1  0.19077500  0.47579300  0.38702300  1
  O  O1  1  0.68379800  0.97796000  0.09352400  1
  O  O2  1  0.80922500  0.52420700  0.61297700  1
  O  O3  1  0.31620200  0.02204000  0.90647600  1
  O  O4  1  0.30017500  0.11270400  0.28752000  1
  O  O5  1  0.77118700  0.63306300  0.21112800  1
  O  O6  1  0.69982500  0.88729600  0.71248000  1
  O  O7  1  0.22881300  0.36693700  0.78887200  1
  O  O8  1  0.93388700  0.25208800  0.99411200  1
  O  O9  1  0.44034700  0.74731800  0.50158100  1
  O  O10  1  0.06611300  0.74791200  0.00588800  1
  O  O11  1  0.55965300  0.25268200  0.49841900  1
  O  O12  1  0.49916600  0.38369700  0.15675800  1
  O  O13  1  0.99916300  0.88631800  0.33081600  1
  O  O14  1  0.50083400  0.61630300  0.84324200  1
  O  O15  1  0.00083700  0.11368200  0.66918400  1
loop_
_geom_bond_atom_site_label_1
_geom_bond_atom_site_label_2
_geom_bond_distance
_geom_bond_site_symmetry_2
Ca0 O2 2.408172 1_555
Ca0 O5 2.460750 1_555
Ca0 O0 2.463347 1_655
Ca0 O8 2.470276 1_554
Ca0 O15 2.487185 1_655
Ca0 O11 2.493218 1_555
Ca0 O4 2.532169 1_655
Ca0 O13 2.602771 1_545
Ca0 O12 2.857091 1_555
Ca1 O0 2.408172 1_555
Ca1 O7 2.460750 1_555
Ca1 O2 2.463347 1_455
Ca1 O10 2.470276 1_556
Ca1 O13 2.487185 1_455
Ca1 O9 2.493218 1_555
Ca1 O6 2.532169 1_455
Ca1 O15 2.602771 1_565
Ca1 O14 2.857091 1_555
Np0 O4 2.319413 1_565
Np0 O9 2.337995 1_555
Np0 O3 2.374320 1_564
Np0 O5 2.404053 1_555
Np0 O10 2.414952 1_555
Np0 O14 2.519032 1_554
Np0 O1 2.573836 1_555
Np0 O12 2.582649 1_555
Np0 O13 2.679178 1_455
Np1 O6 2.319413 1_545
Np1 O11 2.337995 1_555
Np1 O1 2.374320 1_546
Np1 O7 2.404053 1_555
Np1 O8 2.414952 1_555
Np1 O12 2.519032 1_556
Np1 O3 2.573836 1_555
Np1 O14 2.582649 1_555
Np1 O15 2.679178 1_655
O0 P0 1.528008 1_555
O1 P1 1.567801 1_555
O2 P2 1.528008 1_555
O3 P3 1.567801 1_555
O4 P0 1.547094 1_555
O5 P1 1.545921 1_555
O6 P2 1.547094 1_555
O7 P3 1.545921 1_555
O8 P3 1.555179 1_655
O9 P2 1.557347 1_555
O10 P1 1.555179 1_455
O11 P0 1.557347 1_555
O12 P0 1.574004 1_555
O13 P1 1.548680 1_555
O14 P2 1.574004 1_555
O15 P3 1.548680 1_555
