# generated using pymatgen
data_KMn4(PO4)3
_symmetry_space_group_name_H-M   'P 1'
_cell_length_a   6.44943800
_cell_length_b   10.02931400
_cell_length_c   16.88958700
_cell_angle_alpha   90.00000000
_cell_angle_beta   90.00000000
_cell_angle_gamma   90.00000000
_symmetry_Int_Tables_number   1
_chemical_formula_structural   KMn4(PO4)3
_chemical_formula_sum   'K4 Mn16 P12 O48'
_cell_volume   1092.47656750
_cell_formula_units_Z   4
loop_
 _symmetry_equiv_pos_site_id
 _symmetry_equiv_pos_as_xyz
  1  'x, y, z'
loop_
 _atom_site_type_symbol
 _atom_site_label
 _atom_site_symmetry_multiplicity
 _atom_site_fract_x
 _atom_site_fract_y
 _atom_site_fract_z
 _atom_site_occupancy
  K  K0  1  0.50000000  0.78817000  0.03552700  1
  K  K1  1  0.00000000  0.71183000  0.53552700  1
  K  K2  1  0.00000000  0.28817000  0.46447300  1
  K  K3  1  0.50000000  0.21183000  0.96447300  1
  Mn  Mn0  1  0.25234000  0.24728100  0.20135700  1
  Mn  Mn1  1  0.75234000  0.25271900  0.70135700  1
  Mn  Mn2  1  0.74766000  0.24728100  0.20135700  1
  Mn  Mn3  1  0.74766000  0.75271900  0.79864300  1
  Mn  Mn4  1  0.50000000  0.47676500  0.36116200  1
  Mn  Mn5  1  0.50000000  0.52323500  0.63883800  1
  Mn  Mn6  1  0.00000000  0.97676500  0.13883800  1
  Mn  Mn7  1  0.00000000  0.02323500  0.86116200  1
  Mn  Mn8  1  0.50000000  0.04049700  0.40398200  1
  Mn  Mn9  1  0.50000000  0.95950300  0.59601800  1
  Mn  Mn10  1  0.00000000  0.54049700  0.09601800  1
  Mn  Mn11  1  0.00000000  0.45950300  0.90398200  1
  Mn  Mn12  1  0.25234000  0.75271900  0.79864300  1
  Mn  Mn13  1  0.24766000  0.74728100  0.29864300  1
  Mn  Mn14  1  0.24766000  0.25271900  0.70135700  1
  Mn  Mn15  1  0.75234000  0.74728100  0.29864300  1
  P  P0  1  0.50000000  0.71598200  0.46390600  1
  P  P1  1  0.50000000  0.28401800  0.53609400  1
  P  P2  1  0.00000000  0.21598200  0.03609400  1
  P  P3  1  0.00000000  0.78401800  0.96390600  1
  P  P4  1  0.00000000  0.45813100  0.28568600  1
  P  P5  1  0.00000000  0.54186900  0.71431400  1
  P  P6  1  0.50000000  0.95813100  0.21431400  1
  P  P7  1  0.50000000  0.45913600  0.83153000  1
  P  P8  1  0.50000000  0.04186900  0.78568600  1
  P  P9  1  0.00000000  0.95913600  0.66847000  1
  P  P10  1  0.50000000  0.54086400  0.16847000  1
  P  P11  1  0.00000000  0.04086400  0.33153000  1
  O  O0  1  0.50000000  0.86952400  0.47800500  1
  O  O1  1  0.50000000  0.13047600  0.52199500  1
  O  O2  1  0.00000000  0.36952400  0.02199500  1
  O  O3  1  0.00000000  0.63047600  0.97800500  1
  O  O4  1  0.80187800  0.59181400  0.67313100  1
  O  O5  1  0.80187800  0.40818600  0.32686900  1
  O  O6  1  0.69812200  0.09181400  0.82686900  1
  O  O7  1  0.69812200  0.90818600  0.17313100  1
  O  O8  1  0.19812200  0.40818600  0.32686900  1
  O  O9  1  0.19812200  0.59181400  0.67313100  1
  O  O10  1  0.30187800  0.90818600  0.17313100  1
  O  O11  1  0.30187800  0.09181400  0.82686900  1
  O  O12  1  0.30668200  0.32739200  0.58610400  1
  O  O13  1  0.30668200  0.67260800  0.41389600  1
  O  O14  1  0.19331800  0.82739200  0.91389600  1
  O  O15  1  0.19331800  0.17260800  0.08610400  1
  O  O16  1  0.69331800  0.67260800  0.41389600  1
  O  O17  1  0.69331800  0.32739200  0.58610400  1
  O  O18  1  0.80668200  0.17260800  0.08610400  1
  O  O19  1  0.19537200  0.91666400  0.62337300  1
  O  O20  1  0.80668200  0.82739200  0.91389600  1
  O  O21  1  0.50000000  0.64813800  0.54483500  1
  O  O22  1  0.00000000  0.85186200  0.04483500  1
  O  O23  1  0.00000000  0.14813800  0.95516500  1
  O  O24  1  0.00000000  0.11207700  0.24650000  1
  O  O25  1  0.00000000  0.88792300  0.75350000  1
  O  O26  1  0.50000000  0.61207700  0.25350000  1
  O  O27  1  0.50000000  0.38792300  0.74650000  1
  O  O28  1  0.50000000  0.89326100  0.30048100  1
  O  O29  1  0.50000000  0.10673900  0.69951900  1
  O  O30  1  0.00000000  0.39326100  0.19951900  1
  O  O31  1  0.00000000  0.60673900  0.80048100  1
  O  O32  1  0.50000000  0.61389800  0.81562300  1
  O  O33  1  0.50000000  0.38610200  0.18437700  1
  O  O34  1  0.00000000  0.11389800  0.68437700  1
  O  O35  1  0.00000000  0.88610200  0.31562300  1
  O  O36  1  0.50000000  0.88678000  0.77531400  1
  O  O37  1  0.50000000  0.11322000  0.22468600  1
  O  O38  1  0.00000000  0.38678000  0.72468600  1
  O  O39  1  0.00000000  0.61322000  0.27531400  1
  O  O40  1  0.69537200  0.41666400  0.87662700  1
  O  O41  1  0.69537200  0.58333600  0.12337300  1
  O  O42  1  0.80462800  0.91666400  0.62337300  1
  O  O43  1  0.80462800  0.08333600  0.37662700  1
  O  O44  1  0.30462800  0.58333600  0.12337300  1
  O  O45  1  0.30462800  0.41666400  0.87662700  1
  O  O46  1  0.19537200  0.08333600  0.37662700  1
  O  O47  1  0.50000000  0.35186200  0.45516500  1
loop_
_geom_bond_atom_site_label_1
_geom_bond_atom_site_label_2
_geom_bond_distance
_geom_bond_site_symmetry_2
K0 O44 2.830079 1_555
K0 O41 2.830079 1_555
K0 O20 2.878727 1_554
K0 O14 2.878727 1_554
K0 O10 2.912538 1_555
K0 O7 2.912538 1_555
K1 O19 2.830079 1_555
K1 O42 2.830079 1_455
K1 O13 2.878727 1_555
K1 O16 2.878727 1_455
K1 O9 2.912538 1_555
K1 O4 2.912538 1_455
K2 O43 2.830079 1_455
K2 O46 2.830079 1_555
K2 O12 2.878727 1_555
K2 O17 2.878727 1_455
K2 O5 2.912538 1_455
K2 O8 2.912538 1_555
K3 O45 2.830079 1_555
K3 O40 2.830079 1_555
K3 O15 2.878727 1_556
K3 O18 2.878727 1_556
K3 O11 2.912538 1_555
K3 O6 2.912538 1_555
Mn0 O15 2.120127 1_555
Mn0 O37 2.124689 1_555
Mn0 O33 2.138212 1_555
Mn0 O30 2.189312 1_555
Mn0 O24 2.251370 1_555
Mn0 O8 2.687055 1_555
Mn1 O17 2.120127 1_555
Mn1 O38 2.124689 1_655
Mn1 O34 2.138212 1_655
Mn1 O29 2.189312 1_555
Mn1 O27 2.251370 1_555
Mn1 O6 2.687055 1_555
Mn2 O18 2.120127 1_555
Mn2 O37 2.124689 1_555
Mn2 O33 2.138212 1_555
Mn2 O30 2.189312 1_655
Mn2 O24 2.251370 1_655
Mn2 O5 2.687055 1_555
Mn3 O20 2.120127 1_555
Mn3 O36 2.124689 1_555
Mn3 O32 2.138212 1_555
Mn3 O31 2.189312 1_655
Mn3 O25 2.251370 1_655
Mn3 O4 2.687055 1_555
Mn4 O47 2.022359 1_555
Mn4 O5 2.144557 1_555
Mn4 O8 2.144557 1_555
Mn4 O26 2.268952 1_555
Mn4 O16 2.491129 1_555
Mn4 O13 2.491129 1_555
Mn5 O21 2.022359 1_555
Mn5 O9 2.144557 1_555
Mn5 O4 2.144557 1_555
Mn5 O27 2.268952 1_555
Mn5 O12 2.491129 1_555
Mn5 O17 2.491129 1_555
Mn6 O22 2.022359 1_555
Mn6 O10 2.144557 1_555
Mn6 O7 2.144557 1_455
Mn6 O24 2.268952 1_565
Mn6 O15 2.491129 1_565
Mn6 O18 2.491129 1_465
Mn7 O23 2.022359 1_555
Mn7 O11 2.144557 1_555
Mn7 O6 2.144557 1_455
Mn7 O25 2.268952 1_545
Mn7 O20 2.491129 1_445
Mn7 O14 2.491129 1_545
Mn8 O46 2.063497 1_555
Mn8 O43 2.063497 1_555
Mn8 O0 2.122118 1_545
Mn8 O1 2.187964 1_555
Mn8 O28 2.288316 1_545
Mn9 O19 2.063497 1_555
Mn9 O42 2.063497 1_555
Mn9 O1 2.122118 1_565
Mn9 O0 2.187964 1_555
Mn9 O29 2.288316 1_565
Mn10 O41 2.063497 1_455
Mn10 O44 2.063497 1_555
Mn10 O2 2.122118 1_555
Mn10 O3 2.187964 1_554
Mn10 O30 2.288316 1_555
Mn11 O45 2.063497 1_555
Mn11 O40 2.063497 1_455
Mn11 O3 2.122118 1_555
Mn11 O2 2.187964 1_556
Mn11 O31 2.288316 1_555
Mn12 O14 2.120127 1_555
Mn12 O36 2.124689 1_555
Mn12 O32 2.138212 1_555
Mn12 O31 2.189312 1_555
Mn12 O25 2.251370 1_555
Mn12 O9 2.687055 1_555
Mn13 O13 2.120127 1_555
Mn13 O39 2.124689 1_555
Mn13 O35 2.138212 1_555
Mn13 O28 2.189312 1_555
Mn13 O26 2.251370 1_555
Mn13 O10 2.687055 1_555
Mn14 O12 2.120127 1_555
Mn14 O38 2.124689 1_555
Mn14 O34 2.138212 1_555
Mn14 O29 2.189312 1_555
Mn14 O27 2.251370 1_555
Mn14 O11 2.687055 1_555
Mn15 O16 2.120127 1_555
Mn15 O39 2.124689 1_655
Mn15 O35 2.138212 1_655
Mn15 O28 2.189312 1_555
Mn15 O26 2.251370 1_555
Mn15 O7 2.687055 1_555
O0 P0 1.558224 1_555
O1 P1 1.558224 1_555
O2 P2 1.558224 1_555
O3 P3 1.558224 1_555
O4 P5 1.538647 1_655
O5 P4 1.538647 1_655
O6 P8 1.538647 1_555
O7 P6 1.538647 1_555
O8 P4 1.538647 1_555
O9 P5 1.538647 1_555
O10 P6 1.538647 1_555
O11 P8 1.538647 1_555
O12 P1 1.567532 1_555
O13 P0 1.567532 1_555
O14 P3 1.567532 1_555
O15 P2 1.567532 1_555
O16 P0 1.567532 1_555
O17 P1 1.567532 1_555
O18 P2 1.567532 1_655
O19 P9 1.532738 1_555
O20 P3 1.567532 1_655
O21 P0 1.526854 1_555
O22 P3 1.526854 1_554
O23 P2 1.526854 1_556
O24 P11 1.603918 1_555
O25 P9 1.603918 1_555
O26 P10 1.603918 1_555
O27 P7 1.603918 1_555
O28 P6 1.594131 1_555
O29 P8 1.594131 1_555
O30 P4 1.594131 1_555
O31 P5 1.594131 1_555
O32 P7 1.575236 1_555
O33 P10 1.575236 1_555
O34 P9 1.575236 1_545
O35 P11 1.575236 1_565
O36 P8 1.565270 1_565
O37 P6 1.565270 1_545
O38 P5 1.565270 1_555
O39 P4 1.565270 1_555
O40 P7 1.532738 1_555
O41 P10 1.532738 1_555
O42 P9 1.532738 1_655
O43 P11 1.532738 1_655
O44 P10 1.532738 1_555
O45 P7 1.532738 1_555
O46 P11 1.532738 1_555
O47 P1 1.526854 1_555
