# generated using pymatgen
data_Mn5VO8
_symmetry_space_group_name_H-M   'P 1'
_cell_length_a   10.21374807
_cell_length_b   10.21374807
_cell_length_c   5.40351884
_cell_angle_alpha   80.51259475
_cell_angle_beta   80.51259475
_cell_angle_gamma   35.26158856
_symmetry_Int_Tables_number   1
_chemical_formula_structural   Mn5VO8
_chemical_formula_sum   'Mn10 V2 O16'
_cell_volume   320.52473981
_cell_formula_units_Z   2
loop_
 _symmetry_equiv_pos_site_id
 _symmetry_equiv_pos_as_xyz
  1  'x, y, z'
loop_
 _atom_site_type_symbol
 _atom_site_label
 _atom_site_symmetry_multiplicity
 _atom_site_fract_x
 _atom_site_fract_y
 _atom_site_fract_z
 _atom_site_occupancy
  Mn  Mn0  1  0.63335912  0.63335912  0.24004030  1
  Mn  Mn1  1  0.36664088  0.36664088  0.75995970  1
  Mn  Mn2  1  0.75238146  0.24761854  0.50000000  1
  Mn  Mn3  1  0.24761854  0.75238146  0.50000000  1
  Mn  Mn4  1  0.88963348  0.37708803  0.74290329  1
  Mn  Mn5  1  0.37708803  0.88963348  0.74290329  1
  Mn  Mn6  1  0.11036652  0.62291197  0.25709671  1
  Mn  Mn7  1  0.62291197  0.11036652  0.25709671  1
  Mn  Mn8  1  -0.00000000  0.00000000  0.00000000  1
  Mn  Mn9  1  0.50000000  0.50000000  0.00000000  1
  V  V0  1  0.21350890  0.21350890  0.19594872  1
  V  V1  1  0.78649110  0.78649110  0.80405128  1
  O  O0  1  0.41196678  0.95455065  0.36648305  1
  O  O1  1  0.95455065  0.41196678  0.36648305  1
  O  O2  1  0.58803322  0.04544935  0.63351695  1
  O  O3  1  0.04544935  0.58803322  0.63351695  1
  O  O4  1  0.33550684  0.78051909  0.10406341  1
  O  O5  1  0.78051909  0.33550684  0.10406341  1
  O  O6  1  0.66449316  0.21948091  0.89593659  1
  O  O7  1  0.21948091  0.66449316  0.89593659  1
  O  O8  1  0.43008289  0.43008289  0.39474281  1
  O  O9  1  0.56991711  0.56991711  0.60525719  1
  O  O10  1  0.94441895  0.94441895  0.32646892  1
  O  O11  1  0.05558105  0.05558105  0.67353108  1
  O  O12  1  0.18374827  0.18374827  0.91040268  1
  O  O13  1  0.81625173  0.81625173  0.08959732  1
  O  O14  1  0.69301962  0.69301962  0.86753476  1
  O  O15  1  0.30698038  0.30698038  0.13246524  1
loop_
_geom_bond_atom_site_label_1
_geom_bond_atom_site_label_2
_geom_bond_distance
_geom_bond_site_symmetry_2
Mn0 O1 2.111285 1_555
Mn0 O0 2.111285 1_555
Mn0 O9 2.139358 1_555
Mn0 O14 2.142861 1_554
Mn0 O5 2.226996 1_555
Mn0 O4 2.226996 1_555
Mn1 O3 2.111285 1_555
Mn1 O2 2.111285 1_555
Mn1 O8 2.139358 1_555
Mn1 O15 2.142861 1_556
Mn1 O6 2.226996 1_555
Mn1 O7 2.226996 1_555
Mn2 O10 2.179038 1_545
Mn2 O11 2.179038 1_655
Mn2 O8 2.209598 1_555
Mn2 O9 2.209598 1_555
Mn2 O6 2.247473 1_555
Mn2 O5 2.247473 1_555
Mn3 O10 2.179038 1_455
Mn3 O11 2.179038 1_565
Mn3 O8 2.209598 1_555
Mn3 O9 2.209598 1_555
Mn3 O4 2.247473 1_555
Mn3 O7 2.247473 1_555
Mn4 O12 2.088664 1_655
Mn4 O1 2.099034 1_555
Mn4 O14 2.141758 1_555
Mn4 O11 2.214424 1_655
Mn4 O9 2.215984 1_555
Mn4 O5 2.239113 1_556
Mn5 O12 2.088664 1_565
Mn5 O0 2.099034 1_555
Mn5 O14 2.141758 1_555
Mn5 O11 2.214424 1_565
Mn5 O9 2.215984 1_555
Mn5 O4 2.239113 1_556
Mn6 O13 2.088664 1_455
Mn6 O3 2.099034 1_555
Mn6 O15 2.141758 1_555
Mn6 O10 2.214424 1_455
Mn6 O8 2.215984 1_555
Mn6 O7 2.239113 1_554
Mn7 O13 2.088664 1_545
Mn7 O2 2.099034 1_555
Mn7 O15 2.141758 1_555
Mn7 O10 2.214424 1_545
Mn7 O8 2.215984 1_555
Mn7 O6 2.239113 1_554
Mn8 O10 1.903296 1_445
Mn8 O11 1.903296 1_554
Mn8 O6 2.181538 1_454
Mn8 O7 2.181538 1_544
Mn8 O4 2.181538 1_545
Mn8 O5 2.181538 1_455
Mn9 O5 1.925261 1_555
Mn9 O6 1.925261 1_554
Mn9 O7 1.925261 1_554
Mn9 O4 1.925261 1_555
Mn9 O9 2.323385 1_554
Mn9 O8 2.323385 1_555
O0 V0 1.735105 1_565
O1 V0 1.735105 1_655
O2 V1 1.735105 1_545
O3 V1 1.735105 1_455
O12 V0 1.739429 1_556
O13 V1 1.739429 1_554
O14 V1 1.792501 1_555
O15 V0 1.792501 1_555
