# generated using pymatgen
data_Ba4Sm(CuO3)3
_symmetry_space_group_name_H-M   'P 1'
_cell_length_a   8.22741700
_cell_length_b   8.22741700
_cell_length_c   8.22741700
_cell_angle_alpha   90.00000000
_cell_angle_beta   90.00000000
_cell_angle_gamma   90.00000000
_symmetry_Int_Tables_number   1
_chemical_formula_structural   Ba4Sm(CuO3)3
_chemical_formula_sum   'Ba8 Sm2 Cu6 O18'
_cell_volume   556.91706947
_cell_formula_units_Z   2
loop_
 _symmetry_equiv_pos_site_id
 _symmetry_equiv_pos_as_xyz
  1  'x, y, z'
loop_
 _atom_site_type_symbol
 _atom_site_label
 _atom_site_symmetry_multiplicity
 _atom_site_fract_x
 _atom_site_fract_y
 _atom_site_fract_z
 _atom_site_occupancy
  Ba  Ba0  1  0.25000000  0.25000000  0.25000000  1
  Ba  Ba1  1  0.75000000  0.75000000  0.75000000  1
  Ba  Ba2  1  0.75000000  0.75000000  0.25000000  1
  Ba  Ba3  1  0.75000000  0.25000000  0.75000000  1
  Ba  Ba4  1  0.25000000  0.25000000  0.75000000  1
  Ba  Ba5  1  0.25000000  0.75000000  0.25000000  1
  Ba  Ba6  1  0.25000000  0.75000000  0.75000000  1
  Ba  Ba7  1  0.75000000  0.25000000  0.25000000  1
  Sm  Sm0  1  0.00000000  0.00000000  0.00000000  1
  Sm  Sm1  1  0.50000000  0.50000000  0.50000000  1
  Cu  Cu0  1  0.00000000  0.50000000  0.50000000  1
  Cu  Cu1  1  0.50000000  0.00000000  0.50000000  1
  Cu  Cu2  1  0.00000000  0.50000000  0.00000000  1
  Cu  Cu3  1  0.50000000  0.50000000  0.00000000  1
  Cu  Cu4  1  0.50000000  0.00000000  0.00000000  1
  Cu  Cu5  1  0.00000000  0.00000000  0.50000000  1
  O  O0  1  0.27623500  0.00000000  0.00000000  1
  O  O1  1  0.72376500  0.00000000  0.00000000  1
  O  O2  1  0.00000000  0.27623500  0.00000000  1
  O  O3  1  0.50000000  0.77623500  0.50000000  1
  O  O4  1  0.00000000  0.72376500  0.00000000  1
  O  O5  1  0.50000000  0.22376500  0.50000000  1
  O  O6  1  0.00000000  0.00000000  0.27623500  1
  O  O7  1  0.77623500  0.50000000  0.50000000  1
  O  O8  1  0.00000000  0.00000000  0.72376500  1
  O  O9  1  0.22376500  0.50000000  0.50000000  1
  O  O10  1  0.50000000  0.50000000  0.77623500  1
  O  O11  1  0.50000000  0.50000000  0.22376500  1
  O  O12  1  0.25000000  0.00000000  0.50000000  1
  O  O13  1  0.75000000  0.00000000  0.50000000  1
  O  O14  1  0.50000000  0.25000000  0.00000000  1
  O  O15  1  0.50000000  0.75000000  0.00000000  1
  O  O16  1  0.00000000  0.50000000  0.25000000  1
  O  O17  1  0.00000000  0.50000000  0.75000000  1
loop_
_geom_bond_atom_site_label_1
_geom_bond_atom_site_label_2
_geom_bond_distance
_geom_bond_site_symmetry_2
Ba0 O12 2.908831 1_555
Ba0 O14 2.908831 1_555
Ba0 O16 2.908831 1_555
Ba0 O5 2.916828 1_555
Ba0 O9 2.916828 1_555
Ba0 O0 2.916828 1_555
Ba0 O2 2.916828 1_555
Ba0 O11 2.916828 1_555
Ba0 O6 2.916828 1_555
Ba1 O13 2.908831 1_565
Ba1 O15 2.908831 1_556
Ba1 O17 2.908831 1_655
Ba1 O7 2.916828 1_555
Ba1 O10 2.916828 1_555
Ba1 O8 2.916828 1_665
Ba1 O3 2.916828 1_555
Ba1 O1 2.916828 1_566
Ba1 O4 2.916828 1_656
Ba2 O13 2.908831 1_565
Ba2 O16 2.908831 1_655
Ba2 O15 2.908831 1_555
Ba2 O7 2.916828 1_555
Ba2 O3 2.916828 1_555
Ba2 O6 2.916828 1_665
Ba2 O11 2.916828 1_555
Ba2 O1 2.916828 1_565
Ba2 O4 2.916828 1_655
Ba3 O14 2.908831 1_556
Ba3 O17 2.908831 1_655
Ba3 O13 2.908831 1_555
Ba3 O7 2.916828 1_555
Ba3 O5 2.916828 1_555
Ba3 O8 2.916828 1_655
Ba3 O2 2.916828 1_656
Ba3 O10 2.916828 1_555
Ba3 O1 2.916828 1_556
Ba4 O12 2.908831 1_555
Ba4 O17 2.908831 1_555
Ba4 O14 2.908831 1_556
Ba4 O5 2.916828 1_555
Ba4 O9 2.916828 1_555
Ba4 O10 2.916828 1_555
Ba4 O0 2.916828 1_556
Ba4 O2 2.916828 1_556
Ba4 O8 2.916828 1_555
Ba5 O12 2.908831 1_565
Ba5 O15 2.908831 1_555
Ba5 O16 2.908831 1_555
Ba5 O9 2.916828 1_555
Ba5 O3 2.916828 1_555
Ba5 O6 2.916828 1_565
Ba5 O0 2.916828 1_565
Ba5 O11 2.916828 1_555
Ba5 O4 2.916828 1_555
Ba6 O12 2.908831 1_565
Ba6 O17 2.908831 1_555
Ba6 O15 2.908831 1_556
Ba6 O8 2.916828 1_565
Ba6 O9 2.916828 1_555
Ba6 O10 2.916828 1_555
Ba6 O3 2.916828 1_555
Ba6 O4 2.916828 1_556
Ba6 O0 2.916828 1_566
Ba7 O16 2.908831 1_655
Ba7 O14 2.908831 1_555
Ba7 O13 2.908831 1_555
Ba7 O5 2.916828 1_555
Ba7 O7 2.916828 1_555
Ba7 O2 2.916828 1_655
Ba7 O6 2.916828 1_655
Ba7 O11 2.916828 1_555
Ba7 O1 2.916828 1_555
Cu0 O9 1.841008 1_555
Cu0 O7 1.841008 1_455
Cu0 O17 2.056854 1_555
Cu0 O16 2.056854 1_555
Cu1 O5 1.841008 1_555
Cu1 O3 1.841008 1_545
Cu1 O12 2.056854 1_555
Cu1 O13 2.056854 1_555
Cu2 O4 1.841008 1_555
Cu2 O2 1.841008 1_555
Cu2 O16 2.056854 1_555
Cu2 O17 2.056854 1_554
Cu3 O10 1.841008 1_554
Cu3 O11 1.841008 1_555
Cu3 O14 2.056854 1_555
Cu3 O15 2.056854 1_555
Cu4 O0 1.841008 1_555
Cu4 O1 1.841008 1_555
Cu4 O14 2.056854 1_555
Cu4 O15 2.056854 1_545
Cu5 O6 1.841008 1_555
Cu5 O8 1.841008 1_555
Cu5 O13 2.056854 1_455
Cu5 O12 2.056854 1_555
O0 Sm0 2.272701 1_555
O1 Sm0 2.272701 1_655
O2 Sm0 2.272701 1_555
O3 Sm1 2.272701 1_555
O4 Sm0 2.272701 1_565
O5 Sm1 2.272701 1_555
O6 Sm0 2.272701 1_555
O7 Sm1 2.272701 1_555
O8 Sm0 2.272701 1_556
O9 Sm1 2.272701 1_555
O10 Sm1 2.272701 1_555
O11 Sm1 2.272701 1_555
