# generated using pymatgen
data_Li2EuSiO4
_symmetry_space_group_name_H-M   'P 1'
_cell_length_a   5.05078155
_cell_length_b   5.05078155
_cell_length_c   12.48835900
_cell_angle_alpha   90.00000000
_cell_angle_beta   90.00000000
_cell_angle_gamma   119.99999409
_symmetry_Int_Tables_number   1
_chemical_formula_structural   Li2EuSiO4
_chemical_formula_sum   'Li6 Eu3 Si3 O12'
_cell_volume   275.90095445
_cell_formula_units_Z   3
loop_
 _symmetry_equiv_pos_site_id
 _symmetry_equiv_pos_as_xyz
  1  'x, y, z'
loop_
 _atom_site_type_symbol
 _atom_site_label
 _atom_site_symmetry_multiplicity
 _atom_site_fract_x
 _atom_site_fract_y
 _atom_site_fract_z
 _atom_site_occupancy
  Li  Li0  1  0.40693600  0.07304200  0.07924200  1
  Li  Li1  1  0.92695800  0.33389300  0.41257600  1
  Li  Li2  1  0.66610700  0.59306400  0.74590900  1
  Li  Li3  1  0.33389300  0.92695800  0.58742400  1
  Li  Li4  1  0.59306400  0.66610700  0.25409100  1
  Li  Li5  1  0.07304200  0.40693600  0.92075800  1
  Eu  Eu0  1  0.00000000  0.42116200  0.16666700  1
  Eu  Eu1  1  0.42116200  0.00000000  0.83333300  1
  Eu  Eu2  1  0.57883800  0.57883800  0.50000000  1
  Si  Si0  1  0.72281400  0.72281400  0.00000000  1
  Si  Si1  1  0.00000000  0.27718600  0.66666700  1
  Si  Si2  1  0.27718600  0.00000000  0.33333300  1
  O  O0  1  0.23943900  0.30814200  0.32927000  1
  O  O1  1  0.06870300  0.76056100  0.99593700  1
  O  O2  1  0.54946500  0.51355300  0.10681500  1
  O  O3  1  0.69185800  0.93129700  0.66260400  1
  O  O4  1  0.30814200  0.23943900  0.67073000  1
  O  O5  1  0.93129700  0.69185800  0.33739600  1
  O  O6  1  0.03591200  0.48644700  0.55985200  1
  O  O7  1  0.48644700  0.03591200  0.44014800  1
  O  O8  1  0.96408800  0.45053500  0.77348100  1
  O  O9  1  0.51355300  0.54946500  0.89318500  1
  O  O10  1  0.45053500  0.96408800  0.22651900  1
  O  O11  1  0.76056100  0.06870300  0.00406300  1
loop_
_geom_bond_atom_site_label_1
_geom_bond_atom_site_label_2
_geom_bond_distance
_geom_bond_site_symmetry_2
Li0 O1 1.948194 1_544
Li0 O10 1.963502 1_545
Li0 O2 1.996349 1_555
Li0 O11 2.027604 1_555
Li1 O0 1.948198 1_655
Li1 O6 1.963492 1_655
Li1 O7 1.996346 1_555
Li1 O5 2.027614 1_555
Li2 O3 1.948196 1_555
Li2 O9 1.963492 1_555
Li2 O8 1.996342 1_555
Li2 O4 2.027606 1_555
Li3 O4 1.948198 1_565
Li3 O7 1.963492 1_565
Li3 O6 1.996346 1_555
Li3 O3 2.027614 1_555
Li4 O5 1.948196 1_555
Li4 O2 1.963492 1_555
Li4 O10 1.996342 1_555
Li4 O0 2.027606 1_555
Li5 O11 1.948194 1_456
Li5 O8 1.963502 1_455
Li5 O9 1.996349 1_555
Li5 O1 2.027604 1_555
Eu0 O0 2.569486 1_555
Eu0 O11 2.569496 1_455
Eu0 O5 2.647661 1_455
Eu0 O1 2.647671 1_554
Eu0 O2 2.648862 1_455
Eu0 O10 2.648862 1_555
Eu0 O2 2.680165 1_555
Eu0 O10 2.680165 1_445
Eu1 O4 2.569486 1_555
Eu1 O1 2.569496 1_545
Eu1 O3 2.647661 1_545
Eu1 O11 2.647671 1_556
Eu1 O9 2.648862 1_545
Eu1 O8 2.648862 1_555
Eu1 O9 2.680165 1_555
Eu1 O8 2.680165 1_445
Eu2 O3 2.569496 1_555
Eu2 O5 2.569496 1_555
Eu2 O0 2.647671 1_555
Eu2 O4 2.647671 1_555
Eu2 O6 2.648862 1_555
Eu2 O7 2.648862 1_555
Eu2 O6 2.680165 1_655
Eu2 O7 2.680165 1_565
O0 Si2 1.660691 1_555
O1 Si0 1.660691 1_456
O2 Si0 1.654600 1_555
O3 Si1 1.660691 1_665
O4 Si1 1.660691 1_555
O5 Si2 1.660691 1_665
O6 Si1 1.654600 1_555
O7 Si2 1.654600 1_555
O8 Si1 1.654590 1_655
O9 Si0 1.654600 1_556
O10 Si2 1.654590 1_565
O11 Si0 1.660691 1_545
