# generated using pymatgen
data_ThTaN3
_symmetry_space_group_name_H-M   'P 1'
_cell_length_a   5.67700396
_cell_length_b   5.74887351
_cell_length_c   8.05416669
_cell_angle_alpha   90.00000000
_cell_angle_beta   90.00000000
_cell_angle_gamma   90.00000000
_symmetry_Int_Tables_number   1
_chemical_formula_structural   ThTaN3
_chemical_formula_sum   'Th4 Ta4 N12'
_cell_volume   262.85882601
_cell_formula_units_Z   4
loop_
 _symmetry_equiv_pos_site_id
 _symmetry_equiv_pos_as_xyz
  1  'x, y, z'
loop_
 _atom_site_type_symbol
 _atom_site_label
 _atom_site_symmetry_multiplicity
 _atom_site_fract_x
 _atom_site_fract_y
 _atom_site_fract_z
 _atom_site_occupancy
  Th  Th0  1  0.50546230  0.54148431  0.25000000  1
  Th  Th1  1  0.99453770  0.04148431  0.25000000  1
  Th  Th2  1  0.49453770  0.45851569  0.75000000  1
  Th  Th3  1  0.00546230  0.95851569  0.75000000  1
  Ta  Ta0  1  0.00000000  0.50000000  0.00000000  1
  Ta  Ta1  1  0.50000000  0.00000000  0.50000000  1
  Ta  Ta2  1  0.00000000  0.50000000  0.50000000  1
  Ta  Ta3  1  0.50000000  0.00000000  0.00000000  1
  N  N0  1  0.41049318  0.97466535  0.25000000  1
  N  N1  1  0.08950682  0.47466535  0.25000000  1
  N  N2  1  0.58950682  0.02533465  0.75000000  1
  N  N3  1  0.91049318  0.52533465  0.75000000  1
  N  N4  1  0.79737899  0.79902832  0.04660874  1
  N  N5  1  0.70262101  0.29902832  0.45339126  1
  N  N6  1  0.20262101  0.20097168  0.54660874  1
  N  N7  1  0.29737899  0.70097168  0.95339126  1
  N  N8  1  0.20262101  0.20097168  0.95339126  1
  N  N9  1  0.29737899  0.70097168  0.54660874  1
  N  N10  1  0.79737899  0.79902832  0.45339126  1
  N  N11  1  0.70262101  0.29902832  0.04660874  1
loop_
_geom_bond_atom_site_label_1
_geom_bond_atom_site_label_2
_geom_bond_distance
_geom_bond_site_symmetry_2
N0 Ta3 2.081768 1_565
N0 Ta1 2.081768 1_565
N0 Th1 2.392421 1_465
N0 Th0 2.547996 1_555
N1 Ta2 2.081768 1_555
N1 Ta0 2.081768 1_555
N1 Th0 2.392421 1_555
N1 Th1 2.547996 1_455
N2 Ta3 2.081768 1_556
N2 Ta1 2.081768 1_555
N2 Th3 2.392421 1_645
N2 Th2 2.547996 1_555
N3 Ta2 2.081768 1_655
N3 Ta0 2.081768 1_656
N3 Th2 2.392421 1_555
N3 Th3 2.547996 1_655
N4 Ta3 2.079873 1_565
N4 Ta0 2.102210 1_655
N4 Th1 2.424687 1_565
N4 Th0 2.760800 1_555
N4 Th3 2.818354 1_654
N5 Ta2 2.079873 1_655
N5 Ta1 2.102210 1_555
N5 Th0 2.424687 1_555
N5 Th1 2.760800 1_555
N5 Th2 2.818354 1_555
N6 Ta1 2.079873 1_555
N6 Ta2 2.102210 1_555
N6 Th3 2.424687 1_545
N6 Th2 2.760800 1_555
N6 Th1 2.818354 1_455
N7 Ta0 2.079873 1_556
N7 Ta3 2.102210 1_566
N7 Th2 2.424687 1_555
N7 Th3 2.760800 1_555
N7 Th0 2.818354 1_556
N8 Ta3 2.079873 1_556
N8 Ta0 2.102210 1_556
N8 Th3 2.424687 1_545
N8 Th2 2.760800 1_555
N8 Th1 2.818354 1_456
N9 Ta2 2.079873 1_555
N9 Ta1 2.102210 1_565
N9 Th2 2.424687 1_555
N9 Th3 2.760800 1_555
N9 Th0 2.818354 1_555
N10 Ta1 2.079873 1_565
N10 Ta2 2.102210 1_655
N10 Th1 2.424687 1_565
N10 Th0 2.760800 1_555
N10 Th3 2.818354 1_655
N11 Ta0 2.079873 1_655
N11 Ta3 2.102210 1_555
N11 Th0 2.424687 1_555
N11 Th1 2.760800 1_555
N11 Th2 2.818354 1_554
