# generated using pymatgen
data_Yb(HoSe2)2
_symmetry_space_group_name_H-M   'P 1'
_cell_length_a   4.04247600
_cell_length_b   13.48153200
_cell_length_c   13.77705600
_cell_angle_alpha   90.00000000
_cell_angle_beta   90.00000000
_cell_angle_gamma   90.00000000
_symmetry_Int_Tables_number   1
_chemical_formula_structural   Yb(HoSe2)2
_chemical_formula_sum   'Yb4 Ho8 Se16'
_cell_volume   750.83260007
_cell_formula_units_Z   4
loop_
 _symmetry_equiv_pos_site_id
 _symmetry_equiv_pos_as_xyz
  1  'x, y, z'
loop_
 _atom_site_type_symbol
 _atom_site_label
 _atom_site_symmetry_multiplicity
 _atom_site_fract_x
 _atom_site_fract_y
 _atom_site_fract_z
 _atom_site_occupancy
  Yb  Yb0  1  0.75000000  0.12907200  0.91839200  1
  Yb  Yb1  1  0.75000000  0.62907200  0.58160800  1
  Yb  Yb2  1  0.25000000  0.87092800  0.08160800  1
  Yb  Yb3  1  0.25000000  0.37092800  0.41839200  1
  Ho  Ho0  1  0.75000000  0.39185200  0.08247100  1
  Ho  Ho1  1  0.75000000  0.89185200  0.41752900  1
  Ho  Ho2  1  0.25000000  0.60814800  0.91752900  1
  Ho  Ho3  1  0.25000000  0.10814800  0.58247100  1
  Ho  Ho4  1  0.75000000  0.35182300  0.70325800  1
  Ho  Ho5  1  0.75000000  0.85182300  0.79674200  1
  Ho  Ho6  1  0.25000000  0.64817700  0.29674200  1
  Ho  Ho7  1  0.25000000  0.14817700  0.20325800  1
  Se  Se0  1  0.75000000  0.28563400  0.26418800  1
  Se  Se1  1  0.75000000  0.78563400  0.23581200  1
  Se  Se2  1  0.25000000  0.71436600  0.73581200  1
  Se  Se3  1  0.25000000  0.21436600  0.76418800  1
  Se  Se4  1  0.75000000  0.24478600  0.52446300  1
  Se  Se5  1  0.75000000  0.74478600  0.97553700  1
  Se  Se6  1  0.25000000  0.75521400  0.47553700  1
  Se  Se7  1  0.25000000  0.25521400  0.02446300  1
  Se  Se8  1  0.75000000  0.02970800  0.11614500  1
  Se  Se9  1  0.75000000  0.52970800  0.38385500  1
  Se  Se10  1  0.25000000  0.97029200  0.88385500  1
  Se  Se11  1  0.25000000  0.47029200  0.61614500  1
  Se  Se12  1  0.75000000  0.46487800  0.88182200  1
  Se  Se13  1  0.75000000  0.96487800  0.61817800  1
  Se  Se14  1  0.25000000  0.53512200  0.11817800  1
  Se  Se15  1  0.25000000  0.03512200  0.38182200  1
loop_
_geom_bond_atom_site_label_1
_geom_bond_atom_site_label_2
_geom_bond_distance
_geom_bond_site_symmetry_2
Ho0 Se14 2.838678 1_655
Ho0 Se14 2.838678 1_555
Ho0 Se7 2.849102 1_655
Ho0 Se7 2.849102 1_555
Ho0 Se0 2.884131 1_555
Ho0 Se12 2.934432 1_554
Ho1 Se15 2.838678 1_565
Ho1 Se15 2.838678 1_665
Ho1 Se6 2.849102 1_655
Ho1 Se6 2.849102 1_555
Ho1 Se1 2.884131 1_555
Ho1 Se13 2.934432 1_555
Ho2 Se12 2.838678 1_455
Ho2 Se12 2.838678 1_555
Ho2 Se5 2.849102 1_455
Ho2 Se5 2.849102 1_555
Ho2 Se2 2.884131 1_555
Ho2 Se14 2.934432 1_556
Ho3 Se13 2.838678 1_445
Ho3 Se13 2.838678 1_545
Ho3 Se4 2.849102 1_455
Ho3 Se4 2.849102 1_555
Ho3 Se3 2.884131 1_555
Ho3 Se15 2.934432 1_555
Ho4 Se11 2.841946 1_655
Ho4 Se11 2.841946 1_555
Ho4 Se4 2.854822 1_555
Ho4 Se3 2.867778 1_555
Ho4 Se3 2.867778 1_655
Ho4 Se12 2.893972 1_555
Ho5 Se10 2.841946 1_655
Ho5 Se10 2.841946 1_555
Ho5 Se5 2.854822 1_555
Ho5 Se2 2.867778 1_555
Ho5 Se2 2.867778 1_655
Ho5 Se13 2.893972 1_555
Ho6 Se9 2.841946 1_555
Ho6 Se9 2.841946 1_455
Ho6 Se6 2.854822 1_555
Ho6 Se1 2.867778 1_455
Ho6 Se1 2.867778 1_555
Ho6 Se14 2.893972 1_555
Ho7 Se8 2.841946 1_455
Ho7 Se8 2.841946 1_555
Ho7 Se7 2.854822 1_555
Ho7 Se0 2.867778 1_555
Ho7 Se0 2.867778 1_455
Ho7 Se15 2.893972 1_555
Se0 Yb3 3.149772 1_555
Se0 Yb3 3.149772 1_655
Se1 Yb2 3.149772 1_555
Se1 Yb2 3.149772 1_655
Se2 Yb1 3.149772 1_455
Se2 Yb1 3.149772 1_555
Se3 Yb0 3.149772 1_455
Se3 Yb0 3.149772 1_555
Se4 Yb3 3.018763 1_555
Se4 Yb3 3.018763 1_655
Se5 Yb2 3.018763 1_556
Se5 Yb2 3.018763 1_656
Se6 Yb1 3.018763 1_455
Se6 Yb1 3.018763 1_555
Se7 Yb0 3.018763 1_454
Se7 Yb0 3.018763 1_554
Se8 Yb2 2.982275 1_545
Se8 Yb2 2.982275 1_645
Se8 Yb0 3.035971 1_554
Se9 Yb3 2.982275 1_555
Se9 Yb3 2.982275 1_655
Se9 Yb1 3.035971 1_555
Se10 Yb0 2.982275 1_565
Se10 Yb0 2.982275 1_465
Se10 Yb2 3.035971 1_556
Se11 Yb1 2.982275 1_455
Se11 Yb1 2.982275 1_555
Se11 Yb3 3.035971 1_555
