# generated using pymatgen
data_In4(Co4C)3
_symmetry_space_group_name_H-M   'P 1'
_cell_length_a   3.82839200
_cell_length_b   3.82839200
_cell_length_c   15.17993700
_cell_angle_alpha   90.00000000
_cell_angle_beta   90.00000000
_cell_angle_gamma   90.00000000
_symmetry_Int_Tables_number   1
_chemical_formula_structural   In4(Co4C)3
_chemical_formula_sum   'In4 Co12 C3'
_cell_volume   222.48604158
_cell_formula_units_Z   1
loop_
 _symmetry_equiv_pos_site_id
 _symmetry_equiv_pos_as_xyz
  1  'x, y, z'
loop_
 _atom_site_type_symbol
 _atom_site_label
 _atom_site_symmetry_multiplicity
 _atom_site_fract_x
 _atom_site_fract_y
 _atom_site_fract_z
 _atom_site_occupancy
  In  In0  1  0.00000000  0.00000000  0.87717000  1
  In  In1  1  0.00000000  0.00000000  0.12283000  1
  In  In2  1  0.00000000  0.00000000  0.37469800  1
  In  In3  1  0.00000000  0.00000000  0.62530200  1
  Co  Co0  1  0.50000000  0.50000000  0.88026600  1
  Co  Co1  1  0.50000000  0.50000000  0.11973400  1
  Co  Co2  1  0.50000000  0.50000000  0.37371200  1
  Co  Co3  1  0.50000000  0.50000000  0.62628800  1
  Co  Co4  1  0.50000000  0.00000000  0.00000000  1
  Co  Co5  1  0.50000000  0.00000000  0.25010000  1
  Co  Co6  1  0.50000000  0.00000000  0.50000000  1
  Co  Co7  1  0.50000000  0.00000000  0.74990000  1
  Co  Co8  1  0.00000000  0.50000000  0.00000000  1
  Co  Co9  1  0.00000000  0.50000000  0.25010000  1
  Co  Co10  1  0.00000000  0.50000000  0.50000000  1
  Co  Co11  1  0.00000000  0.50000000  0.74990000  1
  C  C0  1  0.50000000  0.50000000  0.24351700  1
  C  C1  1  0.50000000  0.50000000  0.50000000  1
  C  C2  1  0.50000000  0.50000000  0.75648300  1
loop_
_geom_bond_atom_site_label_1
_geom_bond_atom_site_label_2
_geom_bond_distance
_geom_bond_site_symmetry_2
Co0 Co4 2.639631 1_566
Co0 Co8 2.639631 1_556
Co0 Co4 2.639631 1_556
Co0 Co8 2.639631 1_656
Co0 In0 2.707490 1_555
Co0 In0 2.707490 1_655
Co0 In0 2.707490 1_565
Co0 In0 2.707490 1_665
Co1 Co4 2.639631 1_555
Co1 Co8 2.639631 1_555
Co1 Co4 2.639631 1_565
Co1 Co8 2.639631 1_655
Co1 In1 2.707490 1_555
Co1 In1 2.707490 1_565
Co1 In1 2.707490 1_655
Co1 In1 2.707490 1_665
Co2 In2 2.707123 1_555
Co2 In2 2.707123 1_655
Co2 In2 2.707123 1_565
Co2 In2 2.707123 1_665
Co3 In3 2.707123 1_655
Co3 In3 2.707123 1_555
Co3 In3 2.707123 1_565
Co3 In3 2.707123 1_665
Co4 In0 2.672209 1_654
Co4 In0 2.672209 1_554
Co4 In1 2.672209 1_555
Co4 In1 2.672209 1_655
Co4 Co8 2.707082 1_655
Co4 Co8 2.707082 1_645
Co4 Co8 2.707082 1_545
Co4 Co8 2.707082 1_555
Co5 In2 2.691004 1_555
Co5 In2 2.691004 1_655
Co5 In1 2.719665 1_555
Co5 In1 2.719665 1_655
Co6 In3 2.698526 1_655
Co6 In2 2.698526 1_555
Co6 In3 2.698526 1_555
Co6 In2 2.698526 1_655
Co7 In3 2.691004 1_555
Co7 In3 2.691004 1_655
Co7 In0 2.719665 1_555
Co7 In0 2.719665 1_655
Co8 In0 2.672209 1_564
Co8 In0 2.672209 1_554
Co8 In1 2.672209 1_555
Co8 In1 2.672209 1_565
Co9 In2 2.691004 1_555
Co9 In2 2.691004 1_565
Co9 In1 2.719665 1_555
Co9 In1 2.719665 1_565
Co10 In2 2.698526 1_555
Co10 In3 2.698526 1_555
Co10 In3 2.698526 1_565
Co10 In2 2.698526 1_565
Co11 In3 2.691004 1_555
Co11 In3 2.691004 1_565
Co11 In0 2.719665 1_555
Co11 In0 2.719665 1_565
C0 Co1 1.879018 1_555
C0 Co5 1.916803 1_555
C0 Co9 1.916803 1_555
C0 Co9 1.916803 1_655
C0 Co5 1.916803 1_565
C0 Co2 1.976352 1_555
C1 Co10 1.914196 1_555
C1 Co10 1.914196 1_655
C1 Co6 1.914196 1_565
C1 Co6 1.914196 1_555
C1 Co3 1.917044 1_555
C1 Co2 1.917044 1_555
C2 Co0 1.879018 1_555
C2 Co7 1.916803 1_555
C2 Co11 1.916803 1_555
C2 Co7 1.916803 1_565
C2 Co11 1.916803 1_655
C2 Co3 1.976352 1_555
