# generated using pymatgen
data_SnH10C3SN3Cl2
_symmetry_space_group_name_H-M   'P 1'
_cell_length_a   13.84895700
_cell_length_b   6.36796300
_cell_length_c   13.79515230
_cell_angle_alpha   90.00000000
_cell_angle_beta   109.23913558
_cell_angle_gamma   90.00000000
_symmetry_Int_Tables_number   1
_chemical_formula_structural   SnH10C3SN3Cl2
_chemical_formula_sum   'Sn4 H40 C12 S4 N12 Cl8'
_cell_volume   1148.64491385
_cell_formula_units_Z   4
loop_
 _symmetry_equiv_pos_site_id
 _symmetry_equiv_pos_as_xyz
  1  'x, y, z'
loop_
 _atom_site_type_symbol
 _atom_site_label
 _atom_site_symmetry_multiplicity
 _atom_site_fract_x
 _atom_site_fract_y
 _atom_site_fract_z
 _atom_site_occupancy
  Sn  Sn0  1  0.17946100  0.34641200  0.04574800  1
  Sn  Sn1  1  0.82053900  0.34641200  0.45425200  1
  Sn  Sn2  1  0.82053900  0.65358800  0.95425200  1
  Sn  Sn3  1  0.17946100  0.65358800  0.54574800  1
  H  H0  1  0.46879700  0.03164000  0.12434900  1
  H  H1  1  0.53120300  0.03164000  0.37565100  1
  H  H2  1  0.53120300  0.96836000  0.87565100  1
  H  H3  1  0.46879700  0.96836000  0.62434900  1
  H  H4  1  0.30562200  0.93254900  0.09115100  1
  H  H5  1  0.69437800  0.93254900  0.40884900  1
  H  H6  1  0.69437800  0.06745100  0.90884900  1
  H  H7  1  0.30562200  0.06745100  0.59115100  1
  H  H8  1  0.58440900  0.26496300  0.14398400  1
  H  H9  1  0.41559100  0.26496300  0.35601600  1
  H  H10  1  0.41559100  0.73503700  0.85601600  1
  H  H11  1  0.58440900  0.73503700  0.64398400  1
  H  H12  1  0.56155900  0.54420500  0.13727800  1
  H  H13  1  0.43844100  0.54420500  0.36272200  1
  H  H14  1  0.43844100  0.45579500  0.86272200  1
  H  H15  1  0.56155900  0.45579500  0.63727800  1
  H  H16  1  0.15851900  0.10644900  0.20009000  1
  H  H17  1  0.84148100  0.10644900  0.29991000  1
  H  H18  1  0.84148100  0.89355100  0.79991000  1
  H  H19  1  0.15851900  0.89355100  0.70009000  1
  H  H20  1  0.20831000  0.35989900  0.24870800  1
  H  H21  1  0.79169000  0.35989900  0.25129200  1
  H  H22  1  0.79169000  0.64010100  0.75129200  1
  H  H23  1  0.20831000  0.64010100  0.74870800  1
  H  H24  1  0.07451300  0.33051700  0.17839600  1
  H  H25  1  0.92548700  0.33051700  0.32160400  1
  H  H26  1  0.92548700  0.66948300  0.82160400  1
  H  H27  1  0.07451300  0.66948300  0.67839600  1
  H  H28  1  0.06270800  0.11498700  0.88664100  1
  H  H29  1  0.93729200  0.11498700  0.61335900  1
  H  H30  1  0.93729200  0.88501300  0.11335900  1
  H  H31  1  0.06270800  0.88501300  0.38664100  1
  H  H32  1  0.07591600  0.37740600  0.84460300  1
  H  H33  1  0.92408400  0.37740600  0.65539700  1
  H  H34  1  0.92408400  0.62259400  0.15539700  1
  H  H35  1  0.07591600  0.62259400  0.34460300  1
  H  H36  1  0.17881500  0.19117000  0.86358900  1
  H  H37  1  0.82118500  0.19117000  0.63641100  1
  H  H38  1  0.82118500  0.80883000  0.13641100  1
  H  H39  1  0.17881500  0.80883000  0.36358900  1
  C  C0  1  0.43565500  0.35198800  0.10575700  1
  C  C1  1  0.56434500  0.35198800  0.39424300  1
  C  C2  1  0.56434500  0.64801200  0.89424300  1
  C  C3  1  0.43565500  0.64801200  0.60575700  1
  C  C4  1  0.15146300  0.27583500  0.18639100  1
  C  C5  1  0.84853700  0.27583500  0.31360900  1
  C  C6  1  0.84853700  0.72416500  0.81360900  1
  C  C7  1  0.15146300  0.72416500  0.68639100  1
  C  C8  1  0.11613900  0.24336600  0.88973100  1
  C  C9  1  0.88386100  0.24336600  0.61026900  1
  C  C10  1  0.88386100  0.75663400  0.11026900  1
  C  C11  1  0.11613900  0.75663400  0.38973100  1
  S  S0  1  0.34559500  0.54668400  0.07440200  1
  S  S1  1  0.65440500  0.54668400  0.42559800  1
  S  S2  1  0.65440500  0.45331600  0.92559800  1
  S  S3  1  0.34559500  0.45331600  0.57440200  1
  N  N0  1  0.31154100  0.09217600  0.08350600  1
  N  N1  1  0.68845900  0.09217600  0.41649400  1
  N  N2  1  0.68845900  0.90782400  0.91649400  1
  N  N3  1  0.31154100  0.90782400  0.58350600  1
  N  N4  1  0.40806100  0.14582500  0.10635200  1
  N  N5  1  0.59193900  0.14582500  0.39364800  1
  N  N6  1  0.59193900  0.85417500  0.89364800  1
  N  N7  1  0.40806100  0.85417500  0.60635200  1
  N  N8  1  0.53516500  0.39072100  0.13110500  1
  N  N9  1  0.46483500  0.39072100  0.36889500  1
  N  N10  1  0.46483500  0.60927900  0.86889500  1
  N  N11  1  0.53516500  0.60927900  0.63110500  1
  Cl  Cl0  1  0.11131700  0.71636500  0.02347500  1
  Cl  Cl1  1  0.88868300  0.71636500  0.47652500  1
  Cl  Cl2  1  0.88868300  0.28363500  0.97652500  1
  Cl  Cl3  1  0.11131700  0.28363500  0.52347500  1
  Cl  Cl4  1  0.39820000  0.10940700  0.84421900  1
  Cl  Cl5  1  0.60180000  0.10940700  0.65578100  1
  Cl  Cl6  1  0.60180000  0.89059300  0.15578100  1
  Cl  Cl7  1  0.39820000  0.89059300  0.34421900  1
loop_
_geom_bond_atom_site_label_1
_geom_bond_atom_site_label_2
_geom_bond_distance
_geom_bond_site_symmetry_2
H0 N4 1.077139 1_555
H1 N5 1.077139 1_555
H2 N6 1.077139 1_555
H3 N7 1.077139 1_555
H4 N0 1.028012 1_565
H5 N1 1.028012 1_565
H6 N2 1.028012 1_545
H7 N3 1.028012 1_545
H8 N8 1.028652 1_555
H9 N9 1.028652 1_555
H10 N10 1.028652 1_555
H11 N11 1.028652 1_555
H12 N8 1.037122 1_555
H13 N9 1.037122 1_555
H14 N10 1.037122 1_555
H15 N11 1.037122 1_555
C0 N8 1.328427 1_555
C0 N4 1.368107 1_555
C0 S0 1.710061 1_555
C1 N9 1.328427 1_555
C1 N5 1.368107 1_555
C1 S1 1.710061 1_555
C2 N10 1.328427 1_555
C2 N6 1.368107 1_555
C2 S2 1.710061 1_555
C3 N11 1.328427 1_555
C3 N7 1.368107 1_555
C3 S3 1.710061 1_555
C4 H24 1.091616 1_555
C4 H16 1.093876 1_555
C4 H20 1.095159 1_555
C4 Sn0 2.147663 1_555
C5 H25 1.091616 1_555
C5 H17 1.093876 1_555
C5 H21 1.095159 1_555
C5 Sn1 2.147663 1_555
C6 H26 1.091616 1_555
C6 H18 1.093876 1_555
C6 H22 1.095159 1_555
C6 Sn2 2.147663 1_555
C7 H27 1.091616 1_555
C7 H19 1.093876 1_555
C7 H23 1.095159 1_555
C7 Sn3 2.147663 1_555
C8 H28 1.094031 1_555
C8 H32 1.094483 1_555
C8 H36 1.095557 1_555
C8 Sn0 2.141976 1_556
C9 H29 1.094031 1_555
C9 H33 1.094483 1_555
C9 H37 1.095557 1_555
C9 Sn1 2.141976 1_555
C10 H30 1.094031 1_555
C10 H34 1.094483 1_555
C10 H38 1.095557 1_555
C10 Sn2 2.141976 1_554
C11 H31 1.094031 1_555
C11 H35 1.094483 1_555
C11 H39 1.095557 1_555
C11 Sn3 2.141976 1_555
S0 Sn0 2.544984 1_555
S1 Sn1 2.544984 1_555
S2 Sn2 2.544984 1_555
S3 Sn3 2.544984 1_555
N0 N4 1.313461 1_555
N0 Sn0 2.368613 1_555
N1 N5 1.313461 1_555
N1 Sn1 2.368613 1_555
N2 N6 1.313461 1_555
N2 Sn2 2.368613 1_555
N3 N7 1.313461 1_555
N3 Sn3 2.368613 1_555
Cl0 Sn0 2.518718 1_555
Cl1 Sn1 2.518718 1_555
Cl2 Sn2 2.518718 1_555
Cl3 Sn3 2.518718 1_555
Cl4 H2 1.964990 1_545
Cl5 H3 1.964990 1_545
Cl6 H0 1.964990 1_565
Cl7 H1 1.964990 1_565
