# generated using pymatgen
data_Mn3Ga4Ni9
_symmetry_space_group_name_H-M   'P 1'
_cell_length_a   5.29345100
_cell_length_b   5.29345100
_cell_length_c   6.77028700
_cell_angle_alpha   90.00000000
_cell_angle_beta   90.00000000
_cell_angle_gamma   90.00000000
_symmetry_Int_Tables_number   1
_chemical_formula_structural   Mn3Ga4Ni9
_chemical_formula_sum   'Mn3 Ga4 Ni9'
_cell_volume   189.70766294
_cell_formula_units_Z   1
loop_
 _symmetry_equiv_pos_site_id
 _symmetry_equiv_pos_as_xyz
  1  'x, y, z'
loop_
 _atom_site_type_symbol
 _atom_site_label
 _atom_site_symmetry_multiplicity
 _atom_site_fract_x
 _atom_site_fract_y
 _atom_site_fract_z
 _atom_site_occupancy
  Mn  Mn0  1  0.50000000  0.00000000  0.00000000  1
  Mn  Mn1  1  0.00000000  0.00000000  0.50000000  1
  Mn  Mn2  1  0.00000000  0.50000000  0.00000000  1
  Ga  Ga0  1  0.00000000  0.00000000  0.00000000  1
  Ga  Ga1  1  0.00000000  0.50000000  0.50000000  1
  Ga  Ga2  1  0.50000000  0.00000000  0.50000000  1
  Ga  Ga3  1  0.50000000  0.50000000  0.00000000  1
  Ni  Ni0  1  0.24774600  0.24774600  0.25035100  1
  Ni  Ni1  1  0.24774600  0.75225400  0.74964900  1
  Ni  Ni2  1  0.75225400  0.24774600  0.74964900  1
  Ni  Ni3  1  0.75225400  0.75225400  0.25035100  1
  Ni  Ni4  1  0.24774600  0.24774600  0.74964900  1
  Ni  Ni5  1  0.24774600  0.75225400  0.25035100  1
  Ni  Ni6  1  0.75225400  0.24774600  0.25035100  1
  Ni  Ni7  1  0.75225400  0.75225400  0.74964900  1
  Ni  Ni8  1  0.50000000  0.50000000  0.50000000  1
loop_
_geom_bond_atom_site_label_1
_geom_bond_atom_site_label_2
_geom_bond_distance
_geom_bond_site_symmetry_2
Mn0 Ni0 2.525017 1_555
Mn0 Ni4 2.525017 1_554
Mn0 Ni6 2.525017 1_555
Mn0 Ni3 2.525017 1_545
Mn0 Ni7 2.525017 1_544
Mn0 Ni2 2.525017 1_554
Mn0 Ni1 2.525017 1_544
Mn0 Ni5 2.525017 1_545
Mn1 Ni4 2.509276 1_555
Mn1 Ni7 2.509276 1_445
Mn1 Ni1 2.509276 1_545
Mn1 Ni2 2.509276 1_455
Mn1 Ni6 2.509276 1_455
Mn1 Ni5 2.509276 1_545
Mn1 Ni3 2.509276 1_445
Mn1 Ni0 2.509276 1_555
Mn2 Ni1 2.525017 1_554
Mn2 Ni0 2.525017 1_555
Mn2 Ni4 2.525017 1_554
Mn2 Ni7 2.525017 1_454
Mn2 Ni3 2.525017 1_455
Mn2 Ni6 2.525017 1_455
Mn2 Ni5 2.525017 1_555
Mn2 Ni2 2.525017 1_454
Ga0 Ni6 2.512480 1_455
Ga0 Ni2 2.512480 1_454
Ga0 Ni5 2.512480 1_545
Ga0 Ni3 2.512480 1_445
Ga0 Ni0 2.512480 1_555
Ga0 Ni4 2.512480 1_554
Ga0 Ni1 2.512480 1_544
Ga0 Ni7 2.512480 1_444
Ga0 Mn2 2.646726 1_555
Ga0 Mn0 2.646726 1_555
Ga0 Mn0 2.646726 1_455
Ga0 Mn2 2.646726 1_545
Ga1 Ni0 2.521829 1_555
Ga1 Ni4 2.521829 1_555
Ga1 Ni3 2.521829 1_455
Ga1 Ni2 2.521829 1_455
Ga1 Ni6 2.521829 1_455
Ga1 Ni7 2.521829 1_455
Ga1 Ni1 2.521829 1_555
Ga1 Ni5 2.521829 1_555
Ga1 Mn1 2.646726 1_555
Ga1 Mn1 2.646726 1_565
Ga1 Ni8 2.646726 1_555
Ga1 Ni8 2.646726 1_455
Ga2 Ni0 2.521829 1_555
Ga2 Ni4 2.521829 1_555
Ga2 Ni1 2.521829 1_545
Ga2 Ni7 2.521829 1_545
Ga2 Ni2 2.521829 1_555
Ga2 Ni5 2.521829 1_545
Ga2 Ni3 2.521829 1_545
Ga2 Ni6 2.521829 1_555
Ga2 Mn1 2.646726 1_655
Ga2 Mn1 2.646726 1_555
Ga2 Ni8 2.646726 1_545
Ga2 Ni8 2.646726 1_555
Ga3 Ni6 2.537493 1_555
Ga3 Ni0 2.537493 1_555
Ga3 Ni7 2.537493 1_554
Ga3 Ni4 2.537493 1_554
Ga3 Ni3 2.537493 1_555
Ga3 Ni2 2.537493 1_554
Ga3 Ni5 2.537493 1_555
Ga3 Ni1 2.537493 1_554
Ga3 Mn0 2.646726 1_565
Ga3 Mn2 2.646726 1_555
Ga3 Mn0 2.646726 1_555
Ga3 Mn2 2.646726 1_655
Ni0 Ni8 2.534321 1_555
Ni0 Ni6 2.622863 1_455
Ni0 Ni5 2.622863 1_545
Ni0 Ni5 2.670588 1_555
Ni0 Ni6 2.670588 1_555
Ni1 Ni8 2.534321 1_555
Ni1 Ni7 2.622863 1_455
Ni1 Ni4 2.622863 1_565
Ni1 Ni4 2.670588 1_555
Ni1 Ni7 2.670588 1_555
Ni2 Ni8 2.534321 1_555
Ni2 Ni7 2.622863 1_545
Ni2 Ni4 2.622863 1_655
Ni2 Ni4 2.670588 1_555
Ni2 Ni7 2.670588 1_555
Ni3 Ni8 2.534321 1_555
Ni3 Ni5 2.622863 1_655
Ni3 Ni6 2.622863 1_565
Ni3 Ni5 2.670588 1_555
Ni3 Ni6 2.670588 1_555
Ni4 Ni8 2.534321 1_555
Ni5 Ni8 2.534321 1_555
Ni6 Ni8 2.534321 1_555
Ni7 Ni8 2.534321 1_555
