# generated using pymatgen
data_Lu2CdPd2
_symmetry_space_group_name_H-M   'P 1'
_cell_length_a   7.60178728
_cell_length_b   7.60178728
_cell_length_c   3.57592645
_cell_angle_alpha   90.00000000
_cell_angle_beta   90.00000000
_cell_angle_gamma   90.00000000
_symmetry_Int_Tables_number   1
_chemical_formula_structural   Lu2CdPd2
_chemical_formula_sum   'Lu4 Cd2 Pd4'
_cell_volume   206.64266914
_cell_formula_units_Z   2
loop_
 _symmetry_equiv_pos_site_id
 _symmetry_equiv_pos_as_xyz
  1  'x, y, z'
loop_
 _atom_site_type_symbol
 _atom_site_label
 _atom_site_symmetry_multiplicity
 _atom_site_fract_x
 _atom_site_fract_y
 _atom_site_fract_z
 _atom_site_occupancy
  Lu  Lu0  1  0.66871967  0.16871967  0.50000000  1
  Lu  Lu1  1  0.33128033  0.83128033  0.50000000  1
  Lu  Lu2  1  0.16871967  0.33128033  0.50000000  1
  Lu  Lu3  1  0.83128033  0.66871967  0.50000000  1
  Cd  Cd0  1  -0.00000000  0.00000000  0.00000000  1
  Cd  Cd1  1  0.50000000  0.50000000  0.00000000  1
  Pd  Pd0  1  0.13163374  0.63163374  0.00000000  1
  Pd  Pd1  1  0.86836626  0.36836626  -0.00000000  1
  Pd  Pd2  1  0.63163374  0.86836626  -0.00000000  1
  Pd  Pd3  1  0.36836626  0.13163374  0.00000000  1
loop_
_geom_bond_atom_site_label_1
_geom_bond_atom_site_label_2
_geom_bond_distance
_geom_bond_site_symmetry_2
Lu0 Pd1 2.793468 1_556
Lu0 Pd1 2.793468 1_555
Lu0 Pd2 2.913657 1_546
Lu0 Pd2 2.913657 1_545
Lu0 Pd3 2.913657 1_556
Lu0 Pd3 2.913657 1_555
Lu1 Pd0 2.793468 1_555
Lu1 Pd0 2.793468 1_556
Lu1 Pd2 2.913657 1_556
Lu1 Pd2 2.913657 1_555
Lu1 Pd3 2.913657 1_566
Lu1 Pd3 2.913657 1_565
Lu2 Pd3 2.793468 1_555
Lu2 Pd3 2.793468 1_556
Lu2 Pd1 2.913657 1_456
Lu2 Pd1 2.913657 1_455
Lu2 Pd0 2.913657 1_555
Lu2 Pd0 2.913657 1_556
Lu3 Pd2 2.793468 1_555
Lu3 Pd2 2.793468 1_556
Lu3 Pd1 2.913657 1_556
Lu3 Pd1 2.913657 1_555
Lu3 Pd0 2.913657 1_655
Lu3 Pd0 2.913657 1_656
Cd0 Pd0 2.973661 1_545
Cd0 Pd1 2.973661 1_455
Cd0 Pd2 2.973661 1_445
Cd0 Pd3 2.973661 1_555
Cd0 Lu1 3.344211 1_544
Cd0 Lu1 3.344211 1_545
Cd0 Lu0 3.344211 1_455
Cd0 Lu0 3.344211 1_454
Cd0 Lu2 3.344211 1_555
Cd0 Lu2 3.344211 1_554
Cd0 Lu3 3.344211 1_444
Cd0 Lu3 3.344211 1_445
Cd1 Pd0 2.973661 1_555
Cd1 Pd3 2.973661 1_555
Cd1 Pd2 2.973661 1_555
Cd1 Pd1 2.973661 1_555
Cd1 Lu3 3.344211 1_554
Cd1 Lu1 3.344211 1_555
Cd1 Lu0 3.344211 1_554
Cd1 Lu1 3.344211 1_554
Cd1 Lu2 3.344211 1_555
Cd1 Lu2 3.344211 1_554
Cd1 Lu3 3.344211 1_555
Cd1 Lu0 3.344211 1_555
