# generated using pymatgen
data_MgSO6
_symmetry_space_group_name_H-M   'P 1'
_cell_length_a   9.52556300
_cell_length_b   9.94297200
_cell_length_c   11.19445900
_cell_angle_alpha   90.00000000
_cell_angle_beta   90.00000000
_cell_angle_gamma   90.00000000
_symmetry_Int_Tables_number   1
_chemical_formula_structural   MgSO6
_chemical_formula_sum   'Mg8 S8 O48'
_cell_volume   1060.25414792
_cell_formula_units_Z   8
loop_
 _symmetry_equiv_pos_site_id
 _symmetry_equiv_pos_as_xyz
  1  'x, y, z'
loop_
 _atom_site_type_symbol
 _atom_site_label
 _atom_site_symmetry_multiplicity
 _atom_site_fract_x
 _atom_site_fract_y
 _atom_site_fract_z
 _atom_site_occupancy
  Mg  Mg0  1  0.81536600  0.58849700  0.51617900  1
  Mg  Mg1  1  0.68463400  0.41150300  0.01617900  1
  Mg  Mg2  1  0.18463400  0.08849700  0.98382100  1
  Mg  Mg3  1  0.31536600  0.91150300  0.48382100  1
  Mg  Mg4  1  0.64298400  0.06781100  0.75861500  1
  Mg  Mg5  1  0.85701600  0.93218900  0.25861500  1
  Mg  Mg6  1  0.35701600  0.56781100  0.74138500  1
  Mg  Mg7  1  0.14298400  0.43218900  0.24138500  1
  S  S0  1  0.66986100  0.88623400  0.51349700  1
  S  S1  1  0.83013900  0.11376600  0.01349700  1
  S  S2  1  0.33013900  0.38623400  0.98650300  1
  S  S3  1  0.16986100  0.61376600  0.48650300  1
  S  S4  1  0.66706400  0.40284600  0.72464000  1
  S  S5  1  0.83293600  0.59715400  0.22464000  1
  S  S6  1  0.33293600  0.90284600  0.77536000  1
  S  S7  1  0.16706400  0.09715400  0.27536000  1
  O  O0  1  0.52061900  0.90341300  0.48025200  1
  O  O1  1  0.97938100  0.09658700  0.98025200  1
  O  O2  1  0.47938100  0.40341300  0.01974800  1
  O  O3  1  0.02061900  0.59658700  0.51974800  1
  O  O4  1  0.70565100  0.97584200  0.61424000  1
  O  O5  1  0.79434900  0.02415800  0.11424000  1
  O  O6  1  0.29434900  0.47584200  0.88576000  1
  O  O7  1  0.20565100  0.52415800  0.38576000  1
  O  O8  1  0.75941900  0.92196400  0.41063400  1
  O  O9  1  0.74058100  0.07803600  0.91063400  1
  O  O10  1  0.24058100  0.42196400  0.08936600  1
  O  O11  1  0.25941900  0.57803600  0.58936600  1
  O  O12  1  0.69608900  0.74500600  0.54956700  1
  O  O13  1  0.80391100  0.25499400  0.04956700  1
  O  O14  1  0.30391100  0.24500600  0.95043300  1
  O  O15  1  0.19608900  0.75499400  0.45043300  1
  O  O16  1  0.76909100  0.45201300  0.63508400  1
  O  O17  1  0.73090900  0.54798700  0.13508400  1
  O  O18  1  0.23090900  0.95201300  0.86491600  1
  O  O19  1  0.26909100  0.04798700  0.36491600  1
  O  O20  1  0.53220400  0.47406600  0.70834900  1
  O  O21  1  0.96779600  0.52593400  0.20834900  1
  O  O22  1  0.46779600  0.97406600  0.79165100  1
  O  O23  1  0.03220400  0.02593400  0.29165100  1
  O  O24  1  0.72411800  0.42993100  0.84539400  1
  O  O25  1  0.77588200  0.57006900  0.34539400  1
  O  O26  1  0.27588200  0.92993100  0.65460600  1
  O  O27  1  0.22411800  0.07006900  0.15460600  1
  O  O28  1  0.64581100  0.25680500  0.70730300  1
  O  O29  1  0.85418900  0.74319500  0.20730300  1
  O  O30  1  0.35418900  0.75680500  0.79269700  1
  O  O31  1  0.14581100  0.24319500  0.29269700  1
  O  O32  1  0.78382400  0.25733800  0.42219500  1
  O  O33  1  0.71617600  0.74266200  0.92219500  1
  O  O34  1  0.21617600  0.75733800  0.07780500  1
  O  O35  1  0.28382400  0.24266200  0.57780500  1
  O  O36  1  0.51181500  0.42776500  0.44245100  1
  O  O37  1  0.98818500  0.57223500  0.94245100  1
  O  O38  1  0.48818500  0.92776500  0.05754900  1
  O  O39  1  0.01181500  0.07223500  0.55754900  1
  O  O40  1  0.98984100  0.07775700  0.66576000  1
  O  O41  1  0.51015900  0.92224300  0.16576000  1
  O  O42  1  0.01015900  0.57775700  0.83424000  1
  O  O43  1  0.48984100  0.42224300  0.33424000  1
  O  O44  1  0.74345200  0.77944100  0.81971800  1
  O  O45  1  0.75654800  0.22055900  0.31971800  1
  O  O46  1  0.25654800  0.27944100  0.68028200  1
  O  O47  1  0.24345200  0.72055900  0.18028200  1
loop_
_geom_bond_atom_site_label_1
_geom_bond_atom_site_label_2
_geom_bond_distance
_geom_bond_site_symmetry_2
Mg0 O16 1.951325 1_555
Mg0 O25 1.957085 1_555
Mg0 O3 1.957212 1_655
Mg0 O12 1.962715 1_555
Mg1 O17 1.951325 1_555
Mg1 O24 1.957085 1_554
Mg1 O2 1.957212 1_555
Mg1 O13 1.962715 1_555
Mg2 O18 1.951325 1_545
Mg2 O27 1.957085 1_556
Mg2 O1 1.957212 1_455
Mg2 O14 1.962715 1_555
Mg3 O19 1.951325 1_565
Mg3 O26 1.957085 1_555
Mg3 O0 1.957212 1_555
Mg3 O15 1.962715 1_555
Mg4 O9 1.941813 1_555
Mg4 O22 1.946884 1_545
Mg4 O4 1.950551 1_545
Mg4 O28 1.965177 1_555
Mg5 O8 1.941813 1_555
Mg5 O23 1.946884 1_665
Mg5 O5 1.950551 1_565
Mg5 O29 1.965177 1_555
Mg6 O11 1.941813 1_555
Mg6 O20 1.946884 1_555
Mg6 O6 1.950551 1_555
Mg6 O30 1.965177 1_555
Mg7 O10 1.941813 1_555
Mg7 O21 1.946884 1_455
Mg7 O7 1.950551 1_555
Mg7 O31 1.965177 1_555
O0 S0 1.479414 1_555
O1 S1 1.479414 1_556
O2 S2 1.479414 1_554
O3 S3 1.479414 1_555
O4 S0 1.477127 1_555
O5 S1 1.477127 1_555
O6 S2 1.477127 1_555
O7 S3 1.477127 1_555
O8 S0 1.476454 1_555
O9 S1 1.476454 1_556
O10 S2 1.476454 1_554
O11 S3 1.476454 1_555
O12 S0 1.482333 1_555
O13 S1 1.482333 1_555
O14 S2 1.482333 1_555
O15 S3 1.482333 1_555
O16 S4 1.479385 1_555
O17 S5 1.479385 1_555
O18 S6 1.479385 1_555
O19 S7 1.479385 1_555
O20 S4 1.478161 1_555
O21 S5 1.478161 1_555
O22 S6 1.478161 1_555
O23 S7 1.478161 1_555
O24 S4 1.481615 1_555
O25 S5 1.481615 1_555
O26 S6 1.481615 1_555
O27 S7 1.481615 1_555
O28 S4 1.478916 1_555
O29 S5 1.478916 1_555
O30 S6 1.478916 1_555
O31 S7 1.478916 1_555
O32 O45 1.231766 1_555
O33 O44 1.231766 1_555
O34 O47 1.231766 1_555
O35 O46 1.231766 1_555
O36 O43 1.230540 1_555
O37 O42 1.230540 1_655
O38 O41 1.230540 1_555
O39 O40 1.230540 1_455
