# generated using pymatgen
data_Li2Se2O7
_symmetry_space_group_name_H-M   'P 1'
_cell_length_a   5.21591600
_cell_length_b   8.67153700
_cell_length_c   14.14958300
_cell_angle_alpha   90.00000000
_cell_angle_beta   90.00000000
_cell_angle_gamma   90.00000000
_symmetry_Int_Tables_number   1
_chemical_formula_structural   Li2Se2O7
_chemical_formula_sum   'Li8 Se8 O28'
_cell_volume   639.98576053
_cell_formula_units_Z   4
loop_
 _symmetry_equiv_pos_site_id
 _symmetry_equiv_pos_as_xyz
  1  'x, y, z'
loop_
 _atom_site_type_symbol
 _atom_site_label
 _atom_site_symmetry_multiplicity
 _atom_site_fract_x
 _atom_site_fract_y
 _atom_site_fract_z
 _atom_site_occupancy
  Li  Li0  1  0.40883200  0.43314100  0.10155600  1
  Li  Li1  1  0.09116800  0.06685900  0.60155600  1
  Li  Li2  1  0.59116800  0.93314100  0.89844400  1
  Li  Li3  1  0.90883200  0.56685900  0.39844400  1
  Li  Li4  1  0.59116800  0.56685900  0.89844400  1
  Li  Li5  1  0.90883200  0.93314100  0.39844400  1
  Li  Li6  1  0.40883200  0.06685900  0.10155600  1
  Li  Li7  1  0.09116800  0.43314100  0.60155600  1
  Se  Se0  1  0.23737900  0.75000000  0.21859500  1
  Se  Se1  1  0.26262100  0.75000000  0.71859500  1
  Se  Se2  1  0.76262100  0.25000000  0.78140500  1
  Se  Se3  1  0.73737900  0.25000000  0.28140500  1
  Se  Se4  1  0.39004800  0.75000000  0.50300400  1
  Se  Se5  1  0.10995200  0.75000000  0.00300400  1
  Se  Se6  1  0.60995200  0.25000000  0.49699600  1
  Se  Se7  1  0.89004800  0.25000000  0.99699600  1
  O  O0  1  0.39922200  0.59015100  0.20477700  1
  O  O1  1  0.10077800  0.90984900  0.70477700  1
  O  O2  1  0.60077800  0.09015100  0.79522300  1
  O  O3  1  0.89922200  0.40984900  0.29522300  1
  O  O4  1  0.60077800  0.40984900  0.79522300  1
  O  O5  1  0.89922200  0.09015100  0.29522300  1
  O  O6  1  0.39922200  0.90984900  0.20477700  1
  O  O7  1  0.10077800  0.59015100  0.70477700  1
  O  O8  1  0.04888400  0.75000000  0.31234700  1
  O  O9  1  0.45111600  0.75000000  0.81234700  1
  O  O10  1  0.95111600  0.25000000  0.68765300  1
  O  O11  1  0.54888400  0.25000000  0.18765300  1
  O  O12  1  0.21927200  0.59043100  0.49198800  1
  O  O13  1  0.28072800  0.90956900  0.99198800  1
  O  O14  1  0.78072800  0.09043100  0.50801200  1
  O  O15  1  0.71927200  0.40956900  0.00801200  1
  O  O16  1  0.78072800  0.40956900  0.50801200  1
  O  O17  1  0.71927200  0.09043100  0.00801200  1
  O  O18  1  0.21927200  0.90956900  0.49198800  1
  O  O19  1  0.28072800  0.59043100  0.99198800  1
  O  O20  1  0.65856200  0.75000000  0.44175100  1
  O  O21  1  0.84143800  0.75000000  0.94175100  1
  O  O22  1  0.34143800  0.25000000  0.55824900  1
  O  O23  1  0.15856200  0.25000000  0.05824900  1
  O  O24  1  0.99068000  0.75000000  0.12287200  1
  O  O25  1  0.50932000  0.75000000  0.62287200  1
  O  O26  1  0.00932000  0.25000000  0.87712800  1
  O  O27  1  0.49068000  0.25000000  0.37712800  1
loop_
_geom_bond_atom_site_label_1
_geom_bond_atom_site_label_2
_geom_bond_distance
_geom_bond_site_symmetry_2
Li0 O0 1.997349 1_555
Li0 O15 2.101339 1_555
Li0 O11 2.130689 1_555
Li0 O23 2.145143 1_555
Li0 O19 2.170339 1_554
Li1 O1 1.997349 1_545
Li1 O14 2.101339 1_455
Li1 O10 2.130689 1_455
Li1 O22 2.145143 1_555
Li1 O18 2.170339 1_545
Li2 O2 1.997349 1_565
Li2 O13 2.101339 1_555
Li2 O9 2.130689 1_555
Li2 O21 2.145143 1_555
Li2 O17 2.170339 1_566
Li3 O3 1.997349 1_555
Li3 O12 2.101339 1_655
Li3 O8 2.130689 1_655
Li3 O20 2.145143 1_555
Li3 O16 2.170339 1_555
Li4 O4 1.997349 1_555
Li4 O19 2.101339 1_555
Li4 O9 2.130689 1_555
Li4 O21 2.145143 1_555
Li4 O15 2.170339 1_556
Li5 O5 1.997349 1_565
Li5 O18 2.101339 1_655
Li5 O8 2.130689 1_655
Li5 O20 2.145143 1_555
Li5 O14 2.170339 1_565
Li6 O6 1.997349 1_545
Li6 O17 2.101339 1_555
Li6 O11 2.130689 1_555
Li6 O23 2.145143 1_555
Li6 O13 2.170339 1_544
Li7 O7 1.997349 1_555
Li7 O16 2.101339 1_455
Li7 O10 2.130689 1_455
Li7 O22 2.145143 1_555
Li7 O12 2.170339 1_555
O0 Se0 1.634689 1_555
O1 Se1 1.634689 1_555
O2 Se2 1.634689 1_555
O3 Se3 1.634689 1_555
O4 Se2 1.634689 1_555
O5 Se3 1.634689 1_555
O6 Se0 1.634689 1_555
O7 Se1 1.634689 1_555
O8 Se0 1.651173 1_555
O9 Se1 1.651173 1_555
O10 Se2 1.651173 1_555
O11 Se3 1.651173 1_555
O12 Se4 1.652993 1_555
O13 Se5 1.652993 1_556
O14 Se6 1.652993 1_555
O15 Se7 1.652993 1_554
O16 Se6 1.652993 1_555
O17 Se7 1.652993 1_554
O18 Se4 1.652993 1_555
O19 Se5 1.652993 1_556
O20 Se4 1.647030 1_555
O21 Se5 1.647030 1_656
O22 Se6 1.647030 1_555
O23 Se7 1.647030 1_454
O24 Se5 1.806577 1_655
O24 Se0 1.868225 1_655
O25 Se4 1.806577 1_555
O25 Se1 1.868225 1_555
O26 Se7 1.806577 1_455
O26 Se2 1.868225 1_455
O27 Se6 1.806577 1_555
O27 Se3 1.868225 1_555
