# generated using pymatgen
data_Mg(AgO2)2
_symmetry_space_group_name_H-M   'P 1'
_cell_length_a   3.18526600
_cell_length_b   9.82492100
_cell_length_c   10.82439900
_cell_angle_alpha   90.00000000
_cell_angle_beta   90.00000000
_cell_angle_gamma   90.00000000
_symmetry_Int_Tables_number   1
_chemical_formula_structural   Mg(AgO2)2
_chemical_formula_sum   'Mg4 Ag8 O16'
_cell_volume   338.74942397
_cell_formula_units_Z   4
loop_
 _symmetry_equiv_pos_site_id
 _symmetry_equiv_pos_as_xyz
  1  'x, y, z'
loop_
 _atom_site_type_symbol
 _atom_site_label
 _atom_site_symmetry_multiplicity
 _atom_site_fract_x
 _atom_site_fract_y
 _atom_site_fract_z
 _atom_site_occupancy
  Mg  Mg0  1  0.34415800  0.75000000  0.85141600  1
  Mg  Mg1  1  0.34415800  0.25000000  0.64858400  1
  Mg  Mg2  1  0.65584200  0.75000000  0.35141600  1
  Mg  Mg3  1  0.65584200  0.25000000  0.14858400  1
  Ag  Ag0  1  0.83451000  0.57151600  0.61537800  1
  Ag  Ag1  1  0.83451000  0.07151600  0.88462200  1
  Ag  Ag2  1  0.16549000  0.07151600  0.38462200  1
  Ag  Ag3  1  0.83451000  0.42848400  0.88462200  1
  Ag  Ag4  1  0.16549000  0.42848400  0.38462200  1
  Ag  Ag5  1  0.83451000  0.92848400  0.61537800  1
  Ag  Ag6  1  0.16549000  0.92848400  0.11537800  1
  Ag  Ag7  1  0.16549000  0.57151600  0.11537800  1
  O  O0  1  0.13273700  0.87496600  0.45023300  1
  O  O1  1  0.86726300  0.12503400  0.54976700  1
  O  O2  1  0.46359100  0.00000000  0.75000000  1
  O  O3  1  0.86726300  0.87496600  0.95023300  1
  O  O4  1  0.86726300  0.62503400  0.95023300  1
  O  O5  1  0.83609600  0.25000000  0.78478200  1
  O  O6  1  0.13273700  0.12503400  0.04976700  1
  O  O7  1  0.16390400  0.25000000  0.28478200  1
  O  O8  1  0.46359100  0.50000000  0.75000000  1
  O  O9  1  0.53640900  0.00000000  0.25000000  1
  O  O10  1  0.13273700  0.62503400  0.45023300  1
  O  O11  1  0.16390400  0.75000000  0.21521800  1
  O  O12  1  0.83609600  0.75000000  0.71521800  1
  O  O13  1  0.53640900  0.50000000  0.25000000  1
  O  O14  1  0.13273700  0.37496600  0.04976700  1
  O  O15  1  0.86726300  0.37496600  0.54976700  1
loop_
_geom_bond_atom_site_label_1
_geom_bond_atom_site_label_2
_geom_bond_distance
_geom_bond_site_symmetry_2
Mg0 O12 2.151462 1_555
Mg0 O12 2.189151 1_455
Mg0 O3 2.226890 1_455
Mg0 O4 2.226890 1_455
Mg0 O3 2.329782 1_555
Mg0 O4 2.329782 1_555
Mg0 O2 2.717146 1_565
Mg0 O8 2.717146 1_555
Mg1 O5 2.151462 1_555
Mg1 O5 2.189151 1_455
Mg1 O15 2.226890 1_455
Mg1 O1 2.226890 1_455
Mg1 O1 2.329782 1_555
Mg1 O15 2.329782 1_555
Mg1 O2 2.717146 1_555
Mg1 O8 2.717146 1_555
Mg2 O11 2.151462 1_555
Mg2 O11 2.189151 1_655
Mg2 O10 2.226890 1_655
Mg2 O0 2.226890 1_655
Mg2 O10 2.329782 1_555
Mg2 O0 2.329782 1_555
Mg2 O9 2.717146 1_565
Mg2 O13 2.717146 1_555
Mg3 O7 2.151462 1_555
Mg3 O7 2.189151 1_655
Mg3 O14 2.226890 1_655
Mg3 O6 2.226890 1_655
Mg3 O14 2.329782 1_555
Mg3 O6 2.329782 1_555
Mg3 O9 2.717146 1_555
Mg3 O13 2.717146 1_555
Ag0 O8 2.003254 1_555
Ag0 O12 2.059863 1_555
Ag0 O15 2.060187 1_555
Ag0 O10 2.091493 1_655
Ag0 O8 2.575328 1_655
Ag1 O2 2.003254 1_555
Ag1 O5 2.059863 1_555
Ag1 O3 2.060187 1_545
Ag1 O6 2.091493 1_656
Ag1 O2 2.575328 1_655
Ag2 O9 2.003254 1_555
Ag2 O7 2.059863 1_555
Ag2 O0 2.060187 1_545
Ag2 O1 2.091493 1_455
Ag2 O9 2.575328 1_455
Ag3 O8 2.003254 1_555
Ag3 O5 2.059863 1_555
Ag3 O4 2.060187 1_555
Ag3 O14 2.091493 1_656
Ag3 O8 2.575328 1_655
Ag4 O13 2.003254 1_555
Ag4 O7 2.059863 1_555
Ag4 O10 2.060187 1_555
Ag4 O15 2.091493 1_455
Ag4 O13 2.575328 1_455
Ag5 O2 2.003254 1_565
Ag5 O12 2.059863 1_555
Ag5 O1 2.060187 1_565
Ag5 O0 2.091493 1_655
Ag5 O2 2.575328 1_665
Ag6 O9 2.003254 1_565
Ag6 O11 2.059863 1_555
Ag6 O6 2.060187 1_565
Ag6 O3 2.091493 1_454
Ag6 O9 2.575328 1_465
Ag7 O13 2.003254 1_555
Ag7 O11 2.059863 1_555
Ag7 O14 2.060187 1_555
Ag7 O4 2.091493 1_454
Ag7 O13 2.575328 1_455
