# generated using pymatgen
data_CaLa3(FeO3)4
_symmetry_space_group_name_H-M   'P 1'
_cell_length_a   7.86406400
_cell_length_b   5.55936600
_cell_length_c   5.56820098
_cell_angle_alpha   89.94068947
_cell_angle_beta   90.00000000
_cell_angle_gamma   90.00000000
_symmetry_Int_Tables_number   1
_chemical_formula_structural   CaLa3(FeO3)4
_chemical_formula_sum   'Ca1 La3 Fe4 O12'
_cell_volume   243.43721781
_cell_formula_units_Z   1
loop_
 _symmetry_equiv_pos_site_id
 _symmetry_equiv_pos_as_xyz
  1  'x, y, z'
loop_
 _atom_site_type_symbol
 _atom_site_label
 _atom_site_symmetry_multiplicity
 _atom_site_fract_x
 _atom_site_fract_y
 _atom_site_fract_z
 _atom_site_occupancy
  Ca  Ca0  1  0.00000000  0.49249200  0.46812500  1
  La  La0  1  0.00000000  0.00709800  0.96951800  1
  La  La1  1  0.50000000  0.50653700  0.52997800  1
  La  La2  1  0.50000000  0.99475400  0.03115000  1
  Fe  Fe0  1  0.24564900  0.00077500  0.49973800  1
  Fe  Fe1  1  0.75384400  0.49955000  0.00055000  1
  Fe  Fe2  1  0.75435100  0.00077500  0.49973800  1
  Fe  Fe3  1  0.24615600  0.49955000  0.00055000  1
  O  O0  1  0.78715100  0.21330300  0.21318800  1
  O  O1  1  0.20801600  0.28403900  0.71539400  1
  O  O2  1  0.29157800  0.78372900  0.78410600  1
  O  O3  1  0.70609400  0.72011800  0.28098000  1
  O  O4  1  0.70842200  0.78372900  0.78410600  1
  O  O5  1  0.29390600  0.72011800  0.28098000  1
  O  O6  1  0.21284900  0.21330300  0.21318800  1
  O  O7  1  0.79198400  0.28403900  0.71539400  1
  O  O8  1  0.00000000  0.57718700  0.02199200  1
  O  O9  1  0.00000000  0.91680000  0.51679900  1
  O  O10  1  0.50000000  0.42676600  0.98593000  1
  O  O11  1  0.50000000  0.07533900  0.48859400  1
loop_
_geom_bond_atom_site_label_1
_geom_bond_atom_site_label_2
_geom_bond_distance
_geom_bond_site_symmetry_2
Ca0 O9 2.374681 1_555
Ca0 O1 2.431332 1_555
Ca0 O7 2.431332 1_455
Ca0 O8 2.527908 1_555
Ca0 O6 2.688962 1_555
Ca0 O0 2.688962 1_455
Ca0 O5 2.833130 1_555
Ca0 O3 2.833130 1_455
La0 O8 2.407526 1_546
La0 O6 2.441331 1_556
La0 O0 2.441331 1_456
La0 O9 2.570838 1_545
La0 O1 2.654087 1_555
La0 O7 2.654087 1_455
La0 O2 2.805060 1_545
La0 O4 2.805060 1_445
La1 O11 2.408475 1_555
La1 O5 2.440397 1_555
La1 O3 2.440397 1_555
La1 O10 2.576822 1_555
La1 O2 2.658575 1_555
La1 O4 2.658575 1_555
La1 O7 2.804597 1_555
La1 O1 2.804597 1_555
La2 O10 2.414616 1_564
La2 O4 2.440978 1_554
La2 O2 2.440978 1_554
La2 O11 2.586695 1_565
La2 O3 2.624630 1_555
La2 O5 2.624630 1_555
La2 O0 2.757815 1_565
La2 O6 2.757815 1_565
Fe0 O9 1.989655 1_545
Fe0 O6 2.001115 1_555
Fe0 O1 2.003336 1_555
Fe0 O5 2.016470 1_545
Fe0 O2 2.022298 1_545
Fe0 O11 2.043664 1_555
Fe1 O8 1.986937 1_655
Fe1 O0 1.999747 1_555
Fe1 O7 2.012581 1_554
Fe1 O4 2.017947 1_554
Fe1 O3 2.021592 1_555
Fe1 O10 2.038484 1_554
Fe2 O9 1.989655 1_645
Fe2 O0 2.001115 1_555
Fe2 O7 2.003336 1_555
Fe2 O3 2.016470 1_545
Fe2 O4 2.022298 1_545
Fe2 O11 2.043664 1_555
Fe3 O8 1.986937 1_555
Fe3 O6 1.999747 1_555
Fe3 O1 2.012581 1_554
Fe3 O2 2.017947 1_554
Fe3 O5 2.021592 1_555
Fe3 O10 2.038484 1_554
