# generated using pymatgen
data_BaCaEuSbO6
_symmetry_space_group_name_H-M   'P 1'
_cell_length_a   5.96818006
_cell_length_b   6.01453449
_cell_length_c   8.48603775
_cell_angle_alpha   90.35592885
_cell_angle_beta   90.62243953
_cell_angle_gamma   89.93313843
_symmetry_Int_Tables_number   1
_chemical_formula_structural   BaCaEuSbO6
_chemical_formula_sum   'Ba2 Ca2 Eu2 Sb2 O12'
_cell_volume   304.58928803
_cell_formula_units_Z   2
loop_
 _symmetry_equiv_pos_site_id
 _symmetry_equiv_pos_as_xyz
  1  'x, y, z'
loop_
 _atom_site_type_symbol
 _atom_site_label
 _atom_site_symmetry_multiplicity
 _atom_site_fract_x
 _atom_site_fract_y
 _atom_site_fract_z
 _atom_site_occupancy
  Ba  Ba0  1  0.50557499  0.52960429  0.24998098  1
  Ba  Ba1  1  0.49442501  0.47039571  0.75001902  1
  Ca  Ca0  1  0.99065684  0.03944310  0.25454626  1
  Ca  Ca1  1  0.00934316  0.96055690  0.74545374  1
  Eu  Eu0  1  -0.00000000  0.50000000  -0.00000000  1
  Eu  Eu1  1  0.50000000  0.00000000  0.50000000  1
  Sb  Sb0  1  0.50000000  0.00000000  -0.00000000  1
  Sb  Sb1  1  -0.00000000  0.50000000  0.50000000  1
  O  O0  1  0.22814832  0.19000694  0.94038320  1
  O  O1  1  0.26992654  0.69785870  0.52559701  1
  O  O2  1  0.77185168  0.80999306  0.05961680  1
  O  O3  1  0.73007346  0.30214130  0.47440299  1
  O  O4  1  0.30113504  0.73432547  0.96293563  1
  O  O5  1  0.18204821  0.22083566  0.55308032  1
  O  O6  1  0.69886496  0.26567453  0.03706437  1
  O  O7  1  0.81795179  0.77916434  0.44691968  1
  O  O8  1  0.39573016  0.00398957  0.22975749  1
  O  O9  1  0.05886136  0.44388636  0.26794772  1
  O  O10  1  0.60426984  0.99601043  0.77024251  1
  O  O11  1  0.94113864  0.55611364  0.73205228  1
loop_
_geom_bond_atom_site_label_1
_geom_bond_atom_site_label_2
_geom_bond_distance
_geom_bond_site_symmetry_2
Ba0 O6 2.668450 1_555
Ba0 O3 2.695634 1_555
Ba0 O9 2.722127 1_555
Ba0 O2 2.841656 1_555
Ba0 O7 2.903332 1_555
Ba0 O1 2.917390 1_555
Ba0 O8 2.932455 1_565
Ba0 O4 2.984546 1_554
Ba0 O8 3.232472 1_555
Ba0 O9 3.343509 1_655
Ba1 O4 2.668450 1_555
Ba1 O1 2.695634 1_555
Ba1 O11 2.722127 1_555
Ba1 O0 2.841656 1_555
Ba1 O5 2.903332 1_555
Ba1 O3 2.917390 1_555
Ba1 O10 2.932455 1_545
Ba1 O6 2.984546 1_556
Ba1 O10 3.232472 1_555
Ba1 O11 3.343509 1_455
Ca0 O8 2.437942 1_655
Ca0 O9 2.468550 1_655
Ca0 O7 2.500032 1_545
Ca0 O2 2.504997 1_545
Ca0 O6 2.871598 1_555
Ca0 O3 2.901148 1_555
Ca0 O5 2.969627 1_655
Ca1 O10 2.437942 1_455
Ca1 O11 2.468550 1_455
Ca1 O5 2.500032 1_565
Ca1 O0 2.504997 1_565
Ca1 O4 2.871598 1_555
Ca1 O1 2.901148 1_555
Ca1 O7 2.969627 1_455
Eu0 O4 2.310617 1_554
Eu0 O6 2.310617 1_455
Eu0 O11 2.323671 1_454
Eu0 O9 2.323671 1_555
Eu0 O2 2.362950 1_455
Eu0 O0 2.362950 1_554
Eu1 O3 2.291770 1_555
Eu1 O1 2.291770 1_545
Eu1 O5 2.360761 1_555
Eu1 O7 2.360761 1_545
Eu1 O8 2.369947 1_555
Eu1 O10 2.369947 1_545
O0 Sb0 2.044344 1_556
O1 Sb1 2.013016 1_555
O2 Sb0 2.044344 1_565
O3 Sb1 2.013016 1_655
O4 Sb0 2.012698 1_566
O5 Sb1 2.048674 1_555
O6 Sb0 2.012698 1_555
O7 Sb1 2.048674 1_655
O8 Sb0 2.053054 1_555
O9 Sb1 2.030166 1_555
O10 Sb0 2.053054 1_566
O11 Sb1 2.030166 1_655
