# generated using pymatgen
data_Er2CrGe4
_symmetry_space_group_name_H-M   'P 1'
_cell_length_a   4.28839900
_cell_length_b   4.31527000
_cell_length_c   7.94168232
_cell_angle_alpha   74.23544841
_cell_angle_beta   90.00000000
_cell_angle_gamma   90.00000000
_symmetry_Int_Tables_number   1
_chemical_formula_structural   Er2CrGe4
_chemical_formula_sum   'Er2 Cr1 Ge4'
_cell_volume   141.43766819
_cell_formula_units_Z   1
loop_
 _symmetry_equiv_pos_site_id
 _symmetry_equiv_pos_as_xyz
  1  'x, y, z'
loop_
 _atom_site_type_symbol
 _atom_site_label
 _atom_site_symmetry_multiplicity
 _atom_site_fract_x
 _atom_site_fract_y
 _atom_site_fract_z
 _atom_site_occupancy
  Er  Er0  1  0.25000000  0.59860900  0.80278300  1
  Er  Er1  1  0.75000000  0.39663700  0.20672600  1
  Cr  Cr0  1  0.25000000  0.79272600  0.41454800  1
  Ge  Ge0  1  0.25000000  0.94751900  0.10496200  1
  Ge  Ge1  1  0.75000000  0.05819600  0.88360800  1
  Ge  Ge2  1  0.25000000  0.24196000  0.51607900  1
  Ge  Ge3  1  0.75000000  0.74715300  0.50569400  1
loop_
_geom_bond_atom_site_label_1
_geom_bond_atom_site_label_2
_geom_bond_distance
_geom_bond_site_symmetry_2
Er0 Ge2 3.075228 1_565
Er0 Ge2 3.075234 1_555
Er0 Ge1 3.103962 1_565
Er0 Ge1 3.103962 1_465
Er0 Ge1 3.103965 1_555
Er0 Ge1 3.103965 1_455
Er0 Ge3 3.123044 1_555
Er0 Ge3 3.123044 1_455
Er0 Ge0 3.160597 1_556
Er0 Ge0 3.160600 1_546
Er1 Ge0 3.139732 1_645
Er1 Ge0 3.139732 1_555
Er1 Ge0 3.139732 1_655
Er1 Ge0 3.139732 1_545
Er1 Ge3 3.142710 1_555
Er1 Ge3 3.142710 1_545
Er1 Ge2 3.191842 1_655
Er1 Ge2 3.191842 1_555
Er1 Ge1 3.279362 1_564
Er1 Ge1 3.279362 1_554
Cr0 Ge3 2.254524 1_455
Cr0 Ge3 2.254524 1_555
Cr0 Ge2 2.292935 1_565
Cr0 Ge2 2.292939 1_555
Cr0 Ge0 2.366155 1_555
Cr0 Er0 2.967267 1_555
Ge0 Ge1 2.731260 1_564
Ge0 Ge1 2.731260 1_464
