# generated using pymatgen
data_VBi
_symmetry_space_group_name_H-M   'P 1'
_cell_length_a   6.98279800
_cell_length_b   14.60095800
_cell_length_c   13.36794800
_cell_angle_alpha   90.00000000
_cell_angle_beta   90.00000000
_cell_angle_gamma   90.00000000
_symmetry_Int_Tables_number   1
_chemical_formula_structural   VBi
_chemical_formula_sum   'V32 Bi32'
_cell_volume   1362.93636132
_cell_formula_units_Z   32
loop_
 _symmetry_equiv_pos_site_id
 _symmetry_equiv_pos_as_xyz
  1  'x, y, z'
loop_
 _atom_site_type_symbol
 _atom_site_label
 _atom_site_symmetry_multiplicity
 _atom_site_fract_x
 _atom_site_fract_y
 _atom_site_fract_z
 _atom_site_occupancy
  V  V0_0  1  0.12931650  0.00057850  0.07298900  1
  V  V0_1  1  0.12931650  0.00057850  0.57298900  1
  V  V0_2  1  0.12931650  0.50057850  0.07298900  1
  V  V0_3  1  0.12931650  0.50057850  0.57298900  1
  V  V0_4  1  0.62931650  0.00057850  0.07298900  1
  V  V0_5  1  0.62931650  0.00057850  0.57298900  1
  V  V0_6  1  0.62931650  0.50057850  0.07298900  1
  V  V0_7  1  0.62931650  0.50057850  0.57298900  1
  V  V1_0  1  0.37931650  0.49942150  0.42701100  1
  V  V1_1  1  0.37931650  0.49942150  0.92701100  1
  V  V1_2  1  0.37931650  0.99942150  0.42701100  1
  V  V1_3  1  0.37931650  0.99942150  0.92701100  1
  V  V1_4  1  0.87931650  0.49942150  0.42701100  1
  V  V1_5  1  0.87931650  0.49942150  0.92701100  1
  V  V1_6  1  0.87931650  0.99942150  0.42701100  1
  V  V1_7  1  0.87931650  0.99942150  0.92701100  1
  V  V2_0  1  0.37931650  0.24942150  0.32298900  1
  V  V2_1  1  0.37931650  0.24942150  0.82298900  1
  V  V2_2  1  0.37931650  0.74942150  0.32298900  1
  V  V2_3  1  0.37931650  0.74942150  0.82298900  1
  V  V2_4  1  0.87931650  0.24942150  0.32298900  1
  V  V2_5  1  0.87931650  0.24942150  0.82298900  1
  V  V2_6  1  0.87931650  0.74942150  0.32298900  1
  V  V2_7  1  0.87931650  0.74942150  0.82298900  1
  V  V3_0  1  0.12931650  0.25057850  0.17701100  1
  V  V3_1  1  0.12931650  0.25057850  0.67701100  1
  V  V3_2  1  0.12931650  0.75057850  0.17701100  1
  V  V3_3  1  0.12931650  0.75057850  0.67701100  1
  V  V3_4  1  0.62931650  0.25057850  0.17701100  1
  V  V3_5  1  0.62931650  0.25057850  0.67701100  1
  V  V3_6  1  0.62931650  0.75057850  0.17701100  1
  V  V3_7  1  0.62931650  0.75057850  0.67701100  1
  Bi  Bi0_0  1  0.12933350  0.09373650  0.28918550  1
  Bi  Bi0_1  1  0.12933350  0.09373650  0.78918550  1
  Bi  Bi0_2  1  0.12933350  0.59373650  0.28918550  1
  Bi  Bi0_3  1  0.12933350  0.59373650  0.78918550  1
  Bi  Bi0_4  1  0.62933350  0.09373650  0.28918550  1
  Bi  Bi0_5  1  0.62933350  0.09373650  0.78918550  1
  Bi  Bi0_6  1  0.62933350  0.59373650  0.28918550  1
  Bi  Bi0_7  1  0.62933350  0.59373650  0.78918550  1
  Bi  Bi1_0  1  0.37933350  0.40626350  0.21081450  1
  Bi  Bi1_1  1  0.37933350  0.40626350  0.71081450  1
  Bi  Bi1_2  1  0.37933350  0.90626350  0.21081450  1
  Bi  Bi1_3  1  0.37933350  0.90626350  0.71081450  1
  Bi  Bi1_4  1  0.87933350  0.40626350  0.21081450  1
  Bi  Bi1_5  1  0.87933350  0.40626350  0.71081450  1
  Bi  Bi1_6  1  0.87933350  0.90626350  0.21081450  1
  Bi  Bi1_7  1  0.87933350  0.90626350  0.71081450  1
  Bi  Bi2_0  1  0.37933350  0.15626350  0.03918550  1
  Bi  Bi2_1  1  0.37933350  0.15626350  0.53918550  1
  Bi  Bi2_2  1  0.37933350  0.65626350  0.03918550  1
  Bi  Bi2_3  1  0.37933350  0.65626350  0.53918550  1
  Bi  Bi2_4  1  0.87933350  0.15626350  0.03918550  1
  Bi  Bi2_5  1  0.87933350  0.15626350  0.53918550  1
  Bi  Bi2_6  1  0.87933350  0.65626350  0.03918550  1
  Bi  Bi2_7  1  0.87933350  0.65626350  0.53918550  1
  Bi  Bi3_0  1  0.12933350  0.34373650  0.46081450  1
  Bi  Bi3_1  1  0.12933350  0.34373650  0.96081450  1
  Bi  Bi3_2  1  0.12933350  0.84373650  0.46081450  1
  Bi  Bi3_3  1  0.12933350  0.84373650  0.96081450  1
  Bi  Bi3_4  1  0.62933350  0.34373650  0.46081450  1
  Bi  Bi3_5  1  0.62933350  0.34373650  0.96081450  1
  Bi  Bi3_6  1  0.62933350  0.84373650  0.46081450  1
  Bi  Bi3_7  1  0.62933350  0.84373650  0.96081450  1
loop_
_geom_bond_atom_site_label_1
_geom_bond_atom_site_label_2
_geom_bond_distance
_geom_bond_site_symmetry_2
V0_0 V1_3 2.618361 1_544
V0_0 V1_7 2.618361 1_444
V0_1 V1_2 2.618361 1_545
V0_1 V1_6 2.618361 1_445
V0_2 V1_1 2.618361 1_554
V0_2 V1_5 2.618361 1_454
V0_3 V1_0 2.618361 1_555
V0_3 V1_4 2.618361 1_455
V0_4 V1_7 2.618361 1_544
V0_4 V1_3 2.618361 1_544
V0_5 V1_2 2.618361 1_545
V0_5 V1_6 2.618361 1_545
V0_6 V1_1 2.618361 1_554
V0_6 V1_5 2.618361 1_554
V0_7 V1_0 2.618361 1_555
V0_7 V1_4 2.618361 1_555
V2_0 V3_0 2.618361 1_555
V2_0 V3_4 2.618361 1_555
V2_1 V3_1 2.618361 1_555
V2_1 V3_5 2.618361 1_555
V2_2 V3_2 2.618361 1_555
V2_2 V3_6 2.618361 1_555
V2_3 V3_3 2.618361 1_555
V2_3 V3_7 2.618361 1_555
V2_4 V3_4 2.618361 1_555
V2_4 V3_0 2.618361 1_655
V2_5 V3_5 2.618361 1_555
V2_5 V3_1 2.618361 1_655
V2_6 V3_6 2.618361 1_555
V2_6 V3_2 2.618361 1_655
V2_7 V3_7 2.618361 1_555
V2_7 V3_3 2.618361 1_655
Bi0_0 V3_0 2.737321 1_555
Bi0_0 V1_2 2.887564 1_545
Bi0_0 V1_6 2.887708 1_445
Bi0_0 V2_0 2.901459 1_555
Bi0_0 V2_4 2.901602 1_455
Bi0_0 V0_0 3.194187 1_555
Bi0_0 Bi1_2 3.411420 1_545
Bi0_0 Bi1_6 3.411420 1_445
Bi0_0 Bi0_4 3.491399 1_455
Bi0_0 Bi0_4 3.491399 1_555
Bi0_1 V3_1 2.737321 1_555
Bi0_1 V1_3 2.887564 1_545
Bi0_1 V1_7 2.887708 1_445
Bi0_1 V2_1 2.901459 1_555
Bi0_1 V2_5 2.901602 1_455
Bi0_1 V0_1 3.194187 1_555
Bi0_1 Bi1_3 3.411420 1_545
Bi0_1 Bi1_7 3.411420 1_445
Bi0_1 Bi0_5 3.491399 1_455
Bi0_1 Bi0_5 3.491399 1_555
Bi0_2 V3_2 2.737321 1_555
Bi0_2 V1_0 2.887564 1_555
Bi0_2 V1_4 2.887708 1_455
Bi0_2 V2_2 2.901459 1_555
Bi0_2 V2_6 2.901602 1_455
Bi0_2 V0_2 3.194187 1_555
Bi0_2 Bi1_4 3.411420 1_455
Bi0_2 Bi1_0 3.411420 1_555
Bi0_2 Bi0_6 3.491399 1_455
Bi0_2 Bi0_6 3.491399 1_555
Bi0_3 V3_3 2.737321 1_555
Bi0_3 V1_1 2.887564 1_555
Bi0_3 V1_5 2.887708 1_455
Bi0_3 V2_3 2.901459 1_555
Bi0_3 V2_7 2.901602 1_455
Bi0_3 V0_3 3.194187 1_555
Bi0_3 Bi1_5 3.411420 1_455
Bi0_3 Bi1_1 3.411420 1_555
Bi0_3 Bi0_7 3.491399 1_555
Bi0_3 Bi0_7 3.491399 1_455
Bi0_4 V3_4 2.737321 1_555
Bi0_4 V1_6 2.887564 1_545
Bi0_4 V1_2 2.887708 1_545
Bi0_4 V2_4 2.901459 1_555
Bi0_4 V2_0 2.901602 1_555
Bi0_4 V0_4 3.194187 1_555
Bi0_4 Bi1_2 3.411420 1_545
Bi0_4 Bi1_6 3.411420 1_545
Bi0_5 V3_5 2.737321 1_555
Bi0_5 V1_7 2.887564 1_545
Bi0_5 V1_3 2.887708 1_545
Bi0_5 V2_5 2.901459 1_555
Bi0_5 V2_1 2.901602 1_555
Bi0_5 V0_5 3.194187 1_555
Bi0_5 Bi1_3 3.411420 1_545
Bi0_5 Bi1_7 3.411420 1_545
Bi0_6 V3_6 2.737321 1_555
Bi0_6 V1_4 2.887564 1_555
Bi0_6 V1_0 2.887708 1_555
Bi0_6 V2_6 2.901459 1_555
Bi0_6 V2_2 2.901602 1_555
Bi0_6 V0_6 3.194187 1_555
Bi0_6 Bi1_4 3.411420 1_555
Bi0_6 Bi1_0 3.411420 1_555
Bi0_7 V3_7 2.737321 1_555
Bi0_7 V1_5 2.887564 1_555
Bi0_7 V1_1 2.887708 1_555
Bi0_7 V2_7 2.901459 1_555
Bi0_7 V2_3 2.901602 1_555
Bi0_7 V0_7 3.194187 1_555
Bi0_7 Bi1_5 3.411420 1_555
Bi0_7 Bi1_1 3.411420 1_555
Bi1_0 V2_0 2.737321 1_555
Bi1_0 V0_6 2.887564 1_555
Bi1_0 V0_2 2.887708 1_555
Bi1_0 V3_4 2.901459 1_555
Bi1_0 V3_0 2.901602 1_555
Bi1_0 V1_0 3.194187 1_555
Bi1_0 Bi1_4 3.491399 1_555
Bi1_0 Bi1_4 3.491399 1_455
Bi1_1 V2_1 2.737321 1_555
Bi1_1 V0_7 2.887564 1_555
Bi1_1 V0_3 2.887708 1_555
Bi1_1 V3_5 2.901459 1_555
Bi1_1 V3_1 2.901602 1_555
Bi1_1 V1_1 3.194187 1_555
Bi1_1 Bi1_5 3.491399 1_555
Bi1_1 Bi1_5 3.491399 1_455
Bi1_2 V2_2 2.737321 1_555
Bi1_2 V0_4 2.887564 1_565
Bi1_2 V0_0 2.887708 1_565
Bi1_2 V3_6 2.901459 1_555
Bi1_2 V3_2 2.901602 1_555
Bi1_2 V1_2 3.194187 1_555
Bi1_2 Bi1_6 3.491399 1_555
Bi1_2 Bi1_6 3.491399 1_455
Bi1_3 V2_3 2.737321 1_555
Bi1_3 V0_5 2.887564 1_565
Bi1_3 V0_1 2.887708 1_565
Bi1_3 V3_7 2.901459 1_555
Bi1_3 V3_3 2.901602 1_555
Bi1_3 V1_3 3.194187 1_555
Bi1_3 Bi1_7 3.491399 1_555
Bi1_3 Bi1_7 3.491399 1_455
Bi1_4 V2_4 2.737321 1_555
Bi1_4 V0_2 2.887564 1_655
Bi1_4 V0_6 2.887708 1_555
Bi1_4 V3_0 2.901459 1_655
Bi1_4 V3_4 2.901602 1_555
Bi1_4 V1_4 3.194187 1_555
Bi1_5 V2_5 2.737321 1_555
Bi1_5 V0_3 2.887564 1_655
Bi1_5 V0_7 2.887708 1_555
Bi1_5 V3_1 2.901459 1_655
Bi1_5 V3_5 2.901602 1_555
Bi1_5 V1_5 3.194187 1_555
Bi1_6 V2_6 2.737321 1_555
Bi1_6 V0_0 2.887564 1_665
Bi1_6 V0_4 2.887708 1_565
Bi1_6 V3_2 2.901459 1_655
Bi1_6 V3_6 2.901602 1_555
Bi1_6 V1_6 3.194187 1_555
Bi1_7 V2_7 2.737321 1_555
Bi1_7 V0_1 2.887564 1_665
Bi1_7 V0_5 2.887708 1_565
Bi1_7 V3_3 2.901459 1_655
Bi1_7 V3_7 2.901602 1_555
Bi1_7 V1_7 3.194187 1_555
Bi2_0 V1_3 2.737321 1_544
Bi2_0 V3_4 2.887564 1_555
Bi2_0 V3_0 2.887708 1_555
Bi2_0 V0_4 2.901459 1_555
Bi2_0 V0_0 2.901602 1_555
Bi2_0 V2_1 3.194187 1_554
Bi2_0 Bi3_5 3.411420 1_554
Bi2_0 Bi3_1 3.411420 1_554
Bi2_0 Bi2_4 3.491399 1_555
Bi2_0 Bi2_4 3.491399 1_455
Bi2_1 V1_2 2.737321 1_545
Bi2_1 V3_5 2.887564 1_555
Bi2_1 V3_1 2.887708 1_555
Bi2_1 V0_5 2.901459 1_555
Bi2_1 V0_1 2.901602 1_555
Bi2_1 V2_0 3.194187 1_555
Bi2_1 Bi3_4 3.411420 1_555
Bi2_1 Bi3_0 3.411420 1_555
Bi2_1 Bi2_5 3.491399 1_555
Bi2_1 Bi2_5 3.491399 1_455
Bi2_2 V1_1 2.737321 1_554
Bi2_2 V3_6 2.887564 1_555
Bi2_2 V3_2 2.887708 1_555
Bi2_2 V0_6 2.901459 1_555
Bi2_2 V0_2 2.901602 1_555
Bi2_2 V2_3 3.194187 1_554
Bi2_2 Bi3_3 3.411420 1_554
Bi2_2 Bi3_7 3.411420 1_554
Bi2_2 Bi2_6 3.491399 1_555
Bi2_2 Bi2_6 3.491399 1_455
Bi2_3 V1_0 2.737321 1_555
Bi2_3 V3_7 2.887564 1_555
Bi2_3 V3_3 2.887708 1_555
Bi2_3 V0_7 2.901459 1_555
Bi2_3 V0_3 2.901602 1_555
Bi2_3 V2_2 3.194187 1_555
Bi2_3 Bi3_2 3.411420 1_555
Bi2_3 Bi3_6 3.411420 1_555
Bi2_3 Bi2_7 3.491399 1_555
Bi2_3 Bi2_7 3.491399 1_455
Bi2_4 V1_7 2.737321 1_544
Bi2_4 V3_0 2.887564 1_655
Bi2_4 V3_4 2.887708 1_555
Bi2_4 V0_0 2.901459 1_655
Bi2_4 V0_4 2.901602 1_555
Bi2_4 V2_5 3.194187 1_554
Bi2_4 Bi3_5 3.411420 1_554
Bi2_4 Bi3_1 3.411420 1_654
Bi2_5 V1_6 2.737321 1_545
Bi2_5 V3_1 2.887564 1_655
Bi2_5 V3_5 2.887708 1_555
Bi2_5 V0_1 2.901459 1_655
Bi2_5 V0_5 2.901602 1_555
Bi2_5 V2_4 3.194187 1_555
Bi2_5 Bi3_4 3.411420 1_555
Bi2_5 Bi3_0 3.411420 1_655
Bi2_6 V1_5 2.737321 1_554
Bi2_6 V3_2 2.887564 1_655
Bi2_6 V3_6 2.887708 1_555
Bi2_6 V0_2 2.901459 1_655
Bi2_6 V0_6 2.901602 1_555
Bi2_6 V2_7 3.194187 1_554
Bi2_6 Bi3_7 3.411420 1_554
Bi2_6 Bi3_3 3.411420 1_654
Bi2_7 V1_4 2.737321 1_555
Bi2_7 V3_3 2.887564 1_655
Bi2_7 V3_7 2.887708 1_555
Bi2_7 V0_3 2.901459 1_655
Bi2_7 V0_7 2.901602 1_555
Bi2_7 V2_6 3.194187 1_555
Bi2_7 Bi3_6 3.411420 1_555
Bi2_7 Bi3_2 3.411420 1_655
Bi3_0 V0_3 2.737321 1_555
Bi3_0 V2_0 2.887564 1_555
Bi3_0 V2_4 2.887708 1_455
Bi3_0 V1_0 2.901459 1_555
Bi3_0 V1_4 2.901602 1_455
Bi3_0 V3_1 3.194187 1_555
Bi3_0 Bi3_4 3.491399 1_555
Bi3_0 Bi3_4 3.491399 1_455
Bi3_1 V0_2 2.737321 1_556
Bi3_1 V2_1 2.887564 1_555
Bi3_1 V2_5 2.887708 1_455
Bi3_1 V1_1 2.901459 1_555
Bi3_1 V1_5 2.901602 1_455
Bi3_1 V3_0 3.194187 1_556
Bi3_1 Bi3_5 3.491399 1_555
Bi3_1 Bi3_5 3.491399 1_455
Bi3_2 V0_1 2.737321 1_565
Bi3_2 V2_2 2.887564 1_555
Bi3_2 V2_6 2.887708 1_455
Bi3_2 V1_2 2.901459 1_555
Bi3_2 V1_6 2.901602 1_455
Bi3_2 V3_3 3.194187 1_555
Bi3_2 Bi3_6 3.491399 1_455
Bi3_2 Bi3_6 3.491399 1_555
Bi3_3 V0_0 2.737321 1_566
Bi3_3 V2_3 2.887564 1_555
Bi3_3 V2_7 2.887708 1_455
Bi3_3 V1_3 2.901459 1_555
Bi3_3 V1_7 2.901602 1_455
Bi3_3 V3_2 3.194187 1_556
Bi3_3 Bi3_7 3.491399 1_455
Bi3_3 Bi3_7 3.491399 1_555
Bi3_4 V0_7 2.737321 1_555
Bi3_4 V2_4 2.887564 1_555
Bi3_4 V2_0 2.887708 1_555
Bi3_4 V1_4 2.901459 1_555
Bi3_4 V1_0 2.901602 1_555
Bi3_4 V3_5 3.194187 1_555
Bi3_5 V0_6 2.737321 1_556
Bi3_5 V2_5 2.887564 1_555
Bi3_5 V2_1 2.887708 1_555
Bi3_5 V1_5 2.901459 1_555
Bi3_5 V1_1 2.901602 1_555
Bi3_5 V3_4 3.194187 1_556
Bi3_6 V0_5 2.737321 1_565
Bi3_6 V2_6 2.887564 1_555
Bi3_6 V2_2 2.887708 1_555
Bi3_6 V1_6 2.901459 1_555
Bi3_6 V1_2 2.901602 1_555
Bi3_6 V3_7 3.194187 1_555
Bi3_7 V0_4 2.737321 1_566
Bi3_7 V2_7 2.887564 1_555
Bi3_7 V2_3 2.887708 1_555
Bi3_7 V1_7 2.901459 1_555
Bi3_7 V1_3 2.901602 1_555
Bi3_7 V3_6 3.194187 1_556
