# generated using pymatgen
data_BaSr3Co2(CuO5)2
_symmetry_space_group_name_H-M   'P 1'
_cell_length_a   11.14520354
_cell_length_b   11.09882857
_cell_length_c   17.91156818
_cell_angle_alpha   108.10982459
_cell_angle_beta   108.21403318
_cell_angle_gamma   89.71109436
_symmetry_Int_Tables_number   1
_chemical_formula_structural   BaSr3Co2(CuO5)2
_chemical_formula_sum   'Ba8 Sr24 Co16 Cu16 O80'
_cell_volume   1989.92735558
_cell_formula_units_Z   8
loop_
 _symmetry_equiv_pos_site_id
 _symmetry_equiv_pos_as_xyz
  1  'x, y, z'
loop_
 _atom_site_type_symbol
 _atom_site_label
 _atom_site_symmetry_multiplicity
 _atom_site_fract_x
 _atom_site_fract_y
 _atom_site_fract_z
 _atom_site_occupancy
  Ba  Ba0  1  0.30834244  0.05618583  0.11895859  1
  Ba  Ba1  1  0.30957595  0.55707610  0.11881536  1
  Ba  Ba2  1  0.80836529  0.05937412  0.12017096  1
  Ba  Ba3  1  0.80703724  0.55681855  0.12002021  1
  Ba  Ba4  1  0.18324643  0.93970371  0.87408431  1
  Ba  Ba5  1  0.05774392  0.81125512  0.11863970  1
  Ba  Ba6  1  0.55642531  0.31315302  0.11884227  1
  Ba  Ba7  1  0.93298856  0.68502794  0.87444933  1
  Sr  Sr0  1  0.30270352  0.05865817  0.61458200  1
  Sr  Sr1  1  0.30655664  0.55965261  0.61243536  1
  Sr  Sr2  1  0.80616815  0.05583062  0.61364302  1
  Sr  Sr3  1  0.80470145  0.55742687  0.61117538  1
  Sr  Sr4  1  0.19197951  0.44525065  0.38796420  1
  Sr  Sr5  1  0.19125513  0.43938761  0.88412222  1
  Sr  Sr6  1  0.19016288  0.94623055  0.38719942  1
  Sr  Sr7  1  0.69139124  0.44371450  0.38717423  1
  Sr  Sr8  1  0.68873912  0.44234866  0.88454792  1
  Sr  Sr9  1  0.69094023  0.94457332  0.38774872  1
  Sr  Sr10  1  0.69043189  0.94209536  0.88414047  1
  Sr  Sr11  1  0.05674532  0.30815032  0.11233633  1
  Sr  Sr12  1  0.05035722  0.30663423  0.61433803  1
  Sr  Sr13  1  0.05447685  0.80443470  0.61176036  1
  Sr  Sr14  1  0.55841774  0.30650415  0.61477534  1
  Sr  Sr15  1  0.55853322  0.80593004  0.11177480  1
  Sr  Sr16  1  0.55712983  0.80319607  0.61281105  1
  Sr  Sr17  1  0.43766703  0.19643141  0.39003112  1
  Sr  Sr18  1  0.43728288  0.19717808  0.88383656  1
  Sr  Sr19  1  0.44472033  0.69469540  0.38958036  1
  Sr  Sr20  1  0.44448573  0.69108321  0.88376209  1
  Sr  Sr21  1  0.94557029  0.19400694  0.39031027  1
  Sr  Sr22  1  0.93981016  0.19309375  0.88344568  1
  Sr  Sr23  1  0.94116206  0.69597553  0.38984382  1
  Co  Co0  1  0.99017087  0.99889323  0.99029677  1
  Co  Co1  1  0.99854980  0.00072809  0.50104054  1
  Co  Co2  1  0.99384963  0.49349353  0.99066613  1
  Co  Co3  1  0.00001341  0.49882087  0.49936589  1
  Co  Co4  1  0.49287146  0.99360302  0.98787412  1
  Co  Co5  1  0.49809600  -0.00002536  0.50000030  1
  Co  Co6  1  0.49167160  0.49593839  0.98839667  1
  Co  Co7  1  0.49903176  0.49913048  0.49958179  1
  Co  Co8  1  0.24334990  0.24615081  0.98942212  1
  Co  Co9  1  0.24960337  0.25209258  0.50259926  1
  Co  Co10  1  0.24631492  0.74333128  0.98822088  1
  Co  Co11  1  0.25113784  0.75199626  0.49999594  1
  Co  Co12  1  0.73989829  0.24511886  0.98688673  1
  Co  Co13  1  0.74727906  0.24869557  0.49832618  1
  Co  Co14  1  0.74069874  0.74444294  0.99031160  1
  Co  Co15  1  0.74949038  0.74991158  0.49954083  1
  Cu  Cu0  1  0.12050190  0.11263607  0.25620937  1
  Cu  Cu1  1  0.11452165  0.10563604  0.74496290  1
  Cu  Cu2  1  0.12205651  0.60453334  0.25537110  1
  Cu  Cu3  1  0.11939585  0.59381747  0.74594567  1
  Cu  Cu4  1  0.62176231  0.10500771  0.25601311  1
  Cu  Cu5  1  0.61324457  0.10240869  0.74811417  1
  Cu  Cu6  1  0.62171847  0.61281831  0.25751458  1
  Cu  Cu7  1  0.61151003  0.60047782  0.74747377  1
  Cu  Cu8  1  0.36791644  0.39631987  0.25563597  1
  Cu  Cu9  1  0.36523515  0.39639192  0.74697299  1
  Cu  Cu10  1  0.37626907  0.89876091  0.25713550  1
  Cu  Cu11  1  0.36952050  0.89869899  0.74621426  1
  Cu  Cu12  1  0.87640615  0.39834507  0.25809139  1
  Cu  Cu13  1  0.86345874  0.38892802  0.74557817  1
  Cu  Cu14  1  0.86737951  0.89608194  0.25585985  1
  Cu  Cu15  1  0.85965924  0.90184069  0.74798160  1
  O  O0  1  0.11259307  0.11624783  0.49614005  1
  O  O1  1  0.10880950  0.11729630  0.99443552  1
  O  O2  1  0.11458963  0.61634093  0.49570959  1
  O  O3  1  0.11258515  0.60988568  0.99357805  1
  O  O4  1  0.61139408  0.11543380  0.49553993  1
  O  O5  1  0.60846380  0.11523275  0.99095593  1
  O  O6  1  0.61528455  0.61462528  0.49611169  1
  O  O7  1  0.61308567  0.61857940  0.99290626  1
  O  O8  1  0.12651731  0.36191609  0.99789202  1
  O  O9  1  0.13476286  0.36994655  0.50729899  1
  O  O10  1  0.13300821  0.86148113  0.99814080  1
  O  O11  1  0.13508406  0.86941934  0.50524994  1
  O  O12  1  0.62624331  0.36784384  0.99681018  1
  O  O13  1  0.63280195  0.36736983  0.50370347  1
  O  O14  1  0.63142232  0.86743942  0.99936743  1
  O  O15  1  0.63517872  0.86873722  0.50682311  1
  O  O16  1  0.36229789  0.13053943  0.49641103  1
  O  O17  1  0.35970521  0.12842966  0.99187187  1
  O  O18  1  0.36598751  0.63122500  0.49624961  1
  O  O19  1  0.36620461  0.62736558  0.99351664  1
  O  O20  1  0.86164674  0.12854027  0.49574866  1
  O  O21  1  0.86061757  0.13437281  0.99470783  1
  O  O22  1  0.86455180  0.62921536  0.49633079  1
  O  O23  1  0.85933132  0.62891483  0.99194740  1
  O  O24  1  0.37509804  0.38065012  0.99657583  1
  O  O25  1  0.38439600  0.38821829  0.50670001  1
  O  O26  1  0.38532884  0.87946697  0.99791219  1
  O  O27  1  0.38478951  0.88829505  0.50652138  1
  O  O28  1  0.87885212  0.38295739  0.99672584  1
  O  O29  1  0.88501665  0.38740949  0.50682487  1
  O  O30  1  0.87982218  0.88599842  0.99971832  1
  O  O31  1  0.88461372  0.88538227  0.50598163  1
  O  O32  1  0.07205836  0.09402809  0.14498808  1
  O  O33  1  0.06617684  0.08851088  0.63285086  1
  O  O34  1  0.07134048  0.57712483  0.14229370  1
  O  O35  1  0.08177883  0.58926549  0.63709092  1
  O  O36  1  0.57230627  0.08161330  0.14416482  1
  O  O37  1  0.57637087  0.08831318  0.63747918  1
  O  O38  1  0.57339240  0.59403784  0.14693895  1
  O  O39  1  0.57847166  0.58388385  0.63633690  1
  O  O40  1  0.43700375  0.41208240  0.36748062  1
  O  O41  1  0.43743525  0.41562040  0.85938250  1
  O  O42  1  0.43960873  0.90963371  0.36794858  1
  O  O43  1  0.43765465  0.91204413  0.85851854  1
  O  O44  1  0.94205174  0.40923879  0.36879658  1
  O  O45  1  0.93812742  0.41004830  0.85865966  1
  O  O46  1  0.93540483  0.91202224  0.36761281  1
  O  O47  1  0.92468691  0.92572867  0.86237481  1
  O  O48  1  0.32016611  0.31063747  0.14337635  1
  O  O49  1  0.32726595  0.29927849  0.63589767  1
  O  O50  1  0.33758425  0.81277182  0.14569560  1
  O  O51  1  0.33175378  0.80003570  0.63567935  1
  O  O52  1  0.83422529  0.31442528  0.14633252  1
  O  O53  1  0.81629787  0.29306576  0.63422635  1
  O  O54  1  0.82067240  0.81012358  0.14357011  1
  O  O55  1  0.82791362  0.80009004  0.63809847  1
  O  O56  1  0.18806538  0.20683441  0.36806708  1
  O  O57  1  0.18721490  0.19844484  0.85866626  1
  O  O58  1  0.19626081  0.70567233  0.36547396  1
  O  O59  1  0.19026003  0.68560622  0.85937602  1
  O  O60  1  0.69696960  0.20434042  0.36644805  1
  O  O61  1  0.68756943  0.19847516  0.86060560  1
  O  O62  1  0.69013297  0.70686429  0.36930732  1
  O  O63  1  0.67527485  0.69801554  0.86052970  1
  O  O64  1  0.47467859  0.04744877  0.26662446  1
  O  O65  1  0.45430999  0.05450667  0.74903371  1
  O  O66  1  0.47694928  0.53572759  0.26292893  1
  O  O67  1  0.44999403  0.54781759  0.74617803  1
  O  O68  1  0.97757190  0.03503492  0.26361662  1
  O  O69  1  0.95705461  0.04651741  0.74923766  1
  O  O70  1  0.97603805  0.54555551  0.26631104  1
  O  O71  1  0.96049768  0.52155904  0.73438162  1
  O  O72  1  0.21097237  0.45316840  0.25334692  1
  O  O73  1  0.20492181  0.43931643  0.74759556  1
  O  O74  1  0.22692179  0.97488585  0.26034580  1
  O  O75  1  0.21074823  0.96176836  0.73508254  1
  O  O76  1  0.72748339  0.47522965  0.26164411  1
  O  O77  1  0.70801142  0.45486108  0.75053994  1
  O  O78  1  0.71025413  0.95342143  0.25298145  1
  O  O79  1  0.69631596  0.94442539  0.74655719  1
loop_
_geom_bond_atom_site_label_1
_geom_bond_atom_site_label_2
_geom_bond_distance
_geom_bond_site_symmetry_2
Ba0 O48 2.717375 1_555
Ba0 O64 2.744853 1_555
Ba0 O10 2.768273 1_544
Ba0 O26 2.790389 1_544
Ba0 O32 2.821948 1_555
Ba0 O36 2.835009 1_555
Ba0 O17 2.847135 1_554
Ba0 O1 2.864389 1_554
Ba0 O50 2.886545 1_545
Ba1 O50 2.729212 1_555
Ba1 O24 2.735180 1_554
Ba1 O66 2.750389 1_555
Ba1 O34 2.812516 1_555
Ba1 O8 2.812654 1_554
Ba1 O3 2.814489 1_554
Ba1 O19 2.832440 1_554
Ba1 O38 2.832865 1_555
Ba1 O48 2.898450 1_555
Ba2 O52 2.723060 1_555
Ba2 O30 2.733050 1_544
Ba2 O14 2.760115 1_544
Ba2 O68 2.761922 1_555
Ba2 O36 2.793158 1_555
Ba2 O21 2.840430 1_554
Ba2 O32 2.840982 1_655
Ba2 O5 2.891256 1_554
Ba2 O54 2.920345 1_545
Ba3 O54 2.707753 1_555
Ba3 O70 2.746866 1_555
Ba3 O28 2.771527 1_554
Ba3 O12 2.777544 1_554
Ba3 O38 2.798973 1_555
Ba3 O34 2.846634 1_655
Ba3 O7 2.864439 1_554
Ba3 O23 2.867755 1_554
Ba3 O52 2.870939 1_555
Ba4 O75 2.685069 1_555
Ba4 O17 2.721544 1_565
Ba4 O59 2.752765 1_555
Ba4 O1 2.771337 1_565
Ba4 O47 2.824657 1_455
Ba4 O10 2.826075 1_555
Ba4 O26 2.867538 1_555
Ba4 O43 2.940043 1_555
Ba4 O57 2.971020 1_565
Ba5 O74 2.733654 1_555
Ba5 O10 2.749045 1_554
Ba5 O34 2.755972 1_555
Ba5 O30 2.756628 1_454
Ba5 O54 2.814645 1_455
Ba5 O3 2.848897 1_554
Ba5 O23 2.861524 1_454
Ba5 O50 3.002187 1_555
Ba5 O32 3.022452 1_565
Ba6 O36 2.740597 1_555
Ba6 O76 2.745664 1_555
Ba6 O12 2.764861 1_554
Ba6 O24 2.771160 1_554
Ba6 O48 2.803415 1_555
Ba6 O5 2.845757 1_554
Ba6 O17 2.865677 1_554
Ba6 O52 2.978558 1_555
Ba6 O38 2.996479 1_555
Ba7 O71 2.706557 1_555
Ba7 O23 2.718650 1_555
Ba7 O47 2.745253 1_555
Ba7 O3 2.770310 1_655
Ba7 O63 2.811295 1_555
Ba7 O10 2.823582 1_655
Ba7 O30 2.840304 1_555
Ba7 O59 2.963072 1_655
Ba7 O45 2.978160 1_555
Ba7 O77 3.286309 1_555
Co0 O1 1.837520 1_665
Co0 O30 1.840592 1_555
Co0 O47 2.060566 1_555
Co0 O21 2.080302 1_565
Co0 O10 2.202027 1_655
Co0 O32 2.497015 1_666
Co1 O31 1.848333 1_545
Co1 O0 1.850201 1_655
Co1 O20 2.078646 1_555
Co1 O11 2.102242 1_645
Co1 O33 2.134551 1_655
Co1 O46 2.160786 1_545
Co2 O28 1.828976 1_555
Co2 O3 1.831645 1_655
Co2 O8 2.076479 1_655
Co2 O23 2.117695 1_555
Co2 O45 2.135534 1_555
Co2 O34 2.440921 1_656
Co3 O29 1.848042 1_455
Co3 O2 1.859684 1_555
Co3 O9 2.071913 1_555
Co3 O22 2.086222 1_455
Co3 O44 2.119396 1_455
Co3 O35 2.233384 1_555
Co4 O26 1.834470 1_555
Co4 O5 1.847127 1_565
Co4 O14 2.084776 1_555
Co4 O43 2.092086 1_555
Co4 O17 2.103465 1_565
Co4 O36 2.516760 1_566
Co5 O27 1.828321 1_545
Co5 O4 1.840121 1_555
Co5 O16 2.090387 1_555
Co5 O15 2.107672 1_545
Co5 O42 2.143150 1_545
Co5 O37 2.225046 1_555
Co6 O7 1.890057 1_555
Co6 O24 1.897118 1_555
Co6 O19 2.016931 1_555
Co6 O12 2.064903 1_555
Co6 O41 2.086057 1_555
Co6 O38 2.559320 1_556
Co7 O25 1.838269 1_555
Co7 O6 1.855366 1_555
Co7 O18 2.080591 1_555
Co7 O13 2.084017 1_555
Co7 O40 2.138447 1_555
Co7 O39 2.211106 1_555
Co8 O8 1.831623 1_555
Co8 O17 1.836770 1_555
Co8 O24 2.046089 1_555
Co8 O57 2.115032 1_555
Co8 O1 2.118355 1_555
Co8 O48 2.480469 1_556
Co9 O9 1.827094 1_555
Co9 O16 1.840346 1_555
Co9 O0 2.103018 1_555
Co9 O25 2.104714 1_555
Co9 O49 2.158551 1_555
Co9 O56 2.178787 1_555
Co10 O10 1.823347 1_555
Co10 O19 1.852112 1_555
Co10 O59 2.076127 1_555
Co10 O26 2.099040 1_555
Co10 O3 2.150414 1_555
Co10 O50 2.539181 1_556
Co11 O11 1.833898 1_555
Co11 O18 1.849368 1_555
Co11 O27 2.079638 1_555
Co11 O2 2.113534 1_555
Co11 O58 2.180796 1_555
Co11 O51 2.198216 1_555
Co12 O21 1.820218 1_555
Co12 O12 1.861264 1_555
Co12 O61 2.043215 1_555
Co12 O5 2.093481 1_555
Co12 O28 2.110812 1_555
Co12 O52 2.572690 1_556
Co13 O13 1.831120 1_555
Co13 O20 1.840293 1_555
Co13 O4 2.100747 1_555
Co13 O29 2.117086 1_555
Co13 O60 2.142044 1_555
Co13 O53 2.201715 1_555
Co14 O14 1.828176 1_555
Co14 O23 1.837165 1_555
Co14 O7 2.019449 1_555
Co14 O63 2.097728 1_555
Co14 O30 2.144215 1_555
Co14 O54 2.468679 1_556
Co15 O15 1.832882 1_555
Co15 O22 1.850187 1_555
Co15 O31 2.085276 1_555
Co15 O6 2.098449 1_555
Co15 O62 2.110206 1_555
Co15 O55 2.241201 1_555
Cu0 O32 1.837327 1_555
Cu0 O56 1.853876 1_555
Cu0 O68 1.874568 1_455
Cu0 O74 1.935687 1_545
Cu1 O33 1.856416 1_555
Cu1 O57 1.880942 1_555
Cu1 O69 1.908736 1_455
Cu1 O75 1.912290 1_545
Cu2 O70 1.845308 1_455
Cu2 O34 1.848588 1_555
Cu2 O58 1.856556 1_555
Cu2 O72 1.942545 1_555
Cu3 O35 1.846037 1_555
Cu3 O71 1.871923 1_455
Cu3 O59 1.872895 1_555
Cu3 O73 1.961467 1_555
Cu4 O36 1.836440 1_555
Cu4 O64 1.847238 1_555
Cu4 O60 1.856843 1_555
Cu4 O78 1.940664 1_545
Cu5 O37 1.849082 1_555
Cu5 O65 1.858445 1_555
Cu5 O61 1.874240 1_555
Cu5 O79 1.975312 1_545
Cu6 O38 1.825889 1_555
Cu6 O62 1.853283 1_555
Cu6 O66 1.873001 1_555
Cu6 O76 1.929893 1_555
Cu7 O39 1.856524 1_555
Cu7 O63 1.876945 1_555
Cu7 O67 1.886442 1_555
Cu7 O77 1.942299 1_555
Cu8 O48 1.837953 1_555
Cu8 O72 1.849192 1_555
Cu8 O40 1.859016 1_555
Cu8 O66 1.918816 1_555
Cu9 O73 1.849337 1_555
Cu9 O49 1.855862 1_555
Cu9 O41 1.862454 1_555
Cu9 O67 1.938156 1_555
Cu10 O50 1.833809 1_555
Cu10 O42 1.851626 1_555
Cu10 O74 1.871680 1_555
Cu10 O64 1.918999 1_565
Cu11 O51 1.852563 1_555
Cu11 O43 1.872407 1_555
Cu11 O75 1.874771 1_555
Cu11 O65 1.954058 1_565
Cu12 O52 1.831028 1_555
Cu12 O44 1.851145 1_555
Cu12 O76 1.872179 1_555
Cu12 O70 1.921137 1_555
Cu13 O53 1.848597 1_555
Cu13 O45 1.871656 1_555
Cu13 O77 1.894193 1_555
Cu13 O71 1.926656 1_555
Cu14 O54 1.839573 1_555
Cu14 O78 1.851233 1_555
Cu14 O46 1.856149 1_555
Cu14 O68 1.919695 1_565
Cu15 O55 1.860421 1_555
Cu15 O79 1.872972 1_555
Cu15 O47 1.878750 1_555
Cu15 O69 1.933147 1_565
O0 Sr21 2.568697 1_455
O0 Sr6 2.620070 1_545
O0 Sr0 2.723594 1_555
O0 Sr12 2.747803 1_555
O1 Sr22 2.624978 1_455
O1 Sr11 2.693706 1_556
O2 Sr4 2.611527 1_555
O2 Sr23 2.616554 1_455
O2 Sr13 2.699362 1_555
O2 Sr1 2.711539 1_555
O3 Sr5 2.635297 1_555
O4 Sr17 2.622928 1_555
O4 Sr9 2.624252 1_545
O4 Sr14 2.714224 1_555
O4 Sr2 2.758575 1_555
O5 Sr18 2.631995 1_555
O5 Sr10 2.641399 1_545
O6 Sr19 2.610376 1_555
O6 Sr7 2.615814 1_555
O6 Sr3 2.680913 1_555
O6 Sr16 2.698735 1_555
O7 Sr20 2.581980 1_555
O7 Sr8 2.636288 1_555
O7 Sr15 2.696439 1_556
O8 Sr11 2.631428 1_556
O8 Sr22 2.651032 1_455
O8 Sr5 2.725292 1_555
O9 Sr1 2.639534 1_555
O9 Sr12 2.650701 1_555
O9 Sr21 2.717680 1_455
O9 Sr4 2.764427 1_555
O11 Sr13 2.626835 1_555
O11 Sr0 2.632849 1_565
O11 Sr23 2.724911 1_455
O11 Sr6 2.740793 1_555
O12 Sr18 2.666683 1_555
O12 Sr8 2.669698 1_555
O13 Sr14 2.640804 1_555
O13 Sr3 2.652653 1_555
O13 Sr17 2.710501 1_555
O13 Sr7 2.730925 1_555
O14 Sr15 2.657500 1_556
O14 Sr20 2.698920 1_555
O14 Sr10 2.701102 1_555
O15 Sr16 2.605190 1_555
O15 Sr2 2.625834 1_565
O15 Sr19 2.716622 1_555
O15 Sr9 2.755621 1_555
O16 Sr17 2.596956 1_555
O16 Sr6 2.626310 1_545
O16 Sr0 2.737101 1_555
O16 Sr14 2.767442 1_555
O17 Sr18 2.654206 1_555
O18 Sr19 2.609161 1_555
O18 Sr4 2.642643 1_555
O18 Sr1 2.700989 1_555
O18 Sr16 2.706191 1_555
O19 Sr20 2.658699 1_555
O19 Sr5 2.665569 1_555
O19 Sr15 2.757524 1_556
O20 Sr9 2.610319 1_545
O20 Sr21 2.633198 1_555
O20 Sr2 2.715398 1_555
O20 Sr12 2.735224 1_655
O21 Sr22 2.662363 1_555
O21 Sr10 2.671912 1_545
O21 Sr11 2.752152 1_656
O22 Sr23 2.611339 1_555
O22 Sr7 2.639094 1_555
O22 Sr3 2.682030 1_555
O22 Sr13 2.709851 1_655
O23 Sr8 2.622988 1_555
O24 Sr5 2.627399 1_555
O24 Sr18 2.647448 1_555
O25 Sr1 2.594221 1_555
O25 Sr14 2.656721 1_555
O25 Sr17 2.692198 1_555
O25 Sr4 2.737657 1_555
O26 Sr15 2.666413 1_556
O26 Sr20 2.675423 1_555
O27 Sr0 2.640612 1_565
O27 Sr16 2.649440 1_555
O27 Sr19 2.740921 1_555
O27 Sr6 2.762005 1_555
O28 Sr8 2.666294 1_555
O28 Sr22 2.684824 1_555
O28 Sr11 2.719196 1_656
O29 Sr3 2.586832 1_555
O29 Sr12 2.597336 1_655
O29 Sr21 2.738505 1_555
O29 Sr7 2.751057 1_555
O30 Sr10 2.680506 1_555
O31 Sr13 2.603794 1_655
O31 Sr2 2.613661 1_565
O31 Sr23 2.689109 1_555
O31 Sr9 2.751116 1_555
O32 Sr11 2.610848 1_555
O33 Sr12 2.541667 1_555
O33 Sr0 2.762085 1_555
O33 Sr2 2.820856 1_455
O33 Sr13 3.055072 1_545
O34 Sr11 2.860227 1_555
O35 Sr13 2.565454 1_555
O35 Sr1 2.678083 1_555
O35 Sr3 2.981532 1_455
O35 Sr12 3.042338 1_555
O36 Sr15 2.927077 1_545
O37 Sr14 2.574168 1_555
O37 Sr2 2.729512 1_555
O37 Sr0 2.953596 1_555
O37 Sr16 3.055067 1_545
O38 Sr15 2.608947 1_555
O39 Sr16 2.593875 1_555
O39 Sr3 2.695795 1_555
O39 Sr1 2.926672 1_555
O39 Sr14 2.981719 1_555
O40 Sr17 2.547722 1_555
O40 Sr7 2.755703 1_555
O40 Sr4 2.874001 1_555
O40 Sr19 3.035186 1_555
O41 Sr18 2.594325 1_555
O41 Sr8 2.696641 1_555
O41 Sr5 2.911026 1_555
O41 Sr20 2.948733 1_555
O42 Sr19 2.530561 1_555
O42 Sr9 2.725248 1_555
O42 Sr6 2.917839 1_555
O42 Sr17 3.084008 1_565
O43 Sr20 2.624975 1_555
O43 Sr10 2.713825 1_555
O43 Sr18 3.054431 1_565
O44 Sr21 2.533450 1_555
O44 Sr4 2.713798 1_655
O44 Sr7 2.923201 1_555
O44 Sr23 3.086473 1_555
O45 Sr22 2.579643 1_555
O45 Sr5 2.717643 1_655
O45 Sr8 2.959962 1_555
O46 Sr23 2.547252 1_555
O46 Sr6 2.763039 1_655
O46 Sr9 2.864867 1_555
O46 Sr21 3.026039 1_565
O47 Sr10 2.754787 1_555
O47 Sr22 2.871511 1_565
O48 Sr11 2.810718 1_555
O49 Sr0 2.580889 1_555
O49 Sr14 2.723380 1_555
O49 Sr12 2.992069 1_555
O49 Sr1 3.044460 1_555
O50 Sr15 2.709919 1_555
O51 Sr1 2.571807 1_555
O51 Sr16 2.670481 1_555
O51 Sr13 2.986596 1_555
O51 Sr0 3.012529 1_565
O52 Sr11 2.728028 1_655
O53 Sr2 2.540672 1_555
O53 Sr12 2.751875 1_655
O53 Sr14 2.793965 1_555
O53 Sr3 3.084160 1_555
O54 Sr15 2.794096 1_555
O55 Sr3 2.583568 1_555
O55 Sr13 2.713121 1_655
O55 Sr16 2.910059 1_555
O55 Sr2 3.001149 1_565
O56 Sr4 2.556589 1_555
O56 Sr17 2.692155 1_555
O56 Sr21 2.862800 1_455
O56 Sr6 3.015703 1_545
O57 Sr5 2.567399 1_555
O57 Sr18 2.681269 1_555
O57 Sr22 2.930314 1_455
O58 Sr6 2.579398 1_555
O58 Sr19 2.674176 1_555
O58 Sr23 3.015559 1_455
O58 Sr4 3.042381 1_555
O59 Sr20 2.726569 1_555
O59 Sr5 2.900704 1_555
O60 Sr7 2.568993 1_555
O60 Sr21 2.675745 1_555
O60 Sr9 3.027247 1_545
O60 Sr17 3.053992 1_555
O61 Sr8 2.604918 1_555
O61 Sr22 2.714540 1_555
O61 Sr18 2.946924 1_555
O61 Sr10 3.002011 1_545
O62 Sr9 2.554678 1_555
O62 Sr23 2.712620 1_555
O62 Sr19 2.878606 1_555
O62 Sr7 3.034911 1_555
O63 Sr10 2.606491 1_555
O63 Sr20 2.736106 1_555
O63 Sr8 2.995638 1_555
O64 Sr17 2.465993 1_555
O64 Sr9 3.172270 1_545
O65 Sr0 2.486202 1_555
O65 Sr18 2.505972 1_555
O66 Sr19 2.530400 1_555
O66 Sr7 3.125839 1_555
O67 Sr1 2.472044 1_555
O67 Sr20 2.502532 1_555
O68 Sr21 2.529908 1_555
O68 Sr6 3.088582 1_645
O69 Sr22 2.513283 1_555
O69 Sr2 2.517619 1_555
O70 Sr23 2.463490 1_555
O70 Sr4 3.159488 1_655
O71 Sr3 2.487424 1_555
O71 Sr12 3.074067 1_655
O72 Sr4 2.513451 1_555
O72 Sr11 2.590578 1_555
O73 Sr12 2.470476 1_555
O73 Sr5 2.496971 1_555
O74 Sr6 2.542464 1_555
O74 Sr17 3.171031 1_565
O75 Sr13 2.487900 1_555
O75 Sr0 3.114816 1_565
O76 Sr7 2.528911 1_555
O76 Sr23 3.176428 1_555
O77 Sr8 2.521241 1_555
O77 Sr14 2.531467 1_555
O78 Sr9 2.520966 1_555
O78 Sr15 2.591611 1_555
O79 Sr16 2.443207 1_555
O79 Sr10 2.493705 1_555
