# generated using pymatgen
data_Dy3AlNi8
_symmetry_space_group_name_H-M   'P 1'
_cell_length_a   5.05821998
_cell_length_b   5.05821998
_cell_length_c   15.99088300
_cell_angle_alpha   90.00000000
_cell_angle_beta   90.00000000
_cell_angle_gamma   119.99999980
_symmetry_Int_Tables_number   1
_chemical_formula_structural   Dy3AlNi8
_chemical_formula_sum   'Dy6 Al2 Ni16'
_cell_volume   354.32231475
_cell_formula_units_Z   2
loop_
 _symmetry_equiv_pos_site_id
 _symmetry_equiv_pos_as_xyz
  1  'x, y, z'
loop_
 _atom_site_type_symbol
 _atom_site_label
 _atom_site_symmetry_multiplicity
 _atom_site_fract_x
 _atom_site_fract_y
 _atom_site_fract_z
 _atom_site_occupancy
  Dy  Dy0  1  0.33333300  0.66666700  0.95502500  1
  Dy  Dy1  1  0.66666700  0.33333300  0.04497500  1
  Dy  Dy2  1  0.66666700  0.33333300  0.45502500  1
  Dy  Dy3  1  0.33333300  0.66666700  0.54497500  1
  Dy  Dy4  1  0.33333300  0.66666700  0.75000000  1
  Dy  Dy5  1  0.66666700  0.33333300  0.25000000  1
  Al  Al0  1  0.00000000  0.00000000  0.50000000  1
  Al  Al1  1  0.00000000  0.00000000  0.00000000  1
  Ni  Ni0  1  0.16925600  0.83074400  0.37463500  1
  Ni  Ni1  1  0.16925600  0.33851200  0.37463500  1
  Ni  Ni2  1  0.66148800  0.83074400  0.37463500  1
  Ni  Ni3  1  0.83074400  0.16925600  0.62536500  1
  Ni  Ni4  1  0.83074400  0.66148800  0.62536500  1
  Ni  Ni5  1  0.33851200  0.16925600  0.62536500  1
  Ni  Ni6  1  0.83074400  0.16925600  0.87463500  1
  Ni  Ni7  1  0.83074400  0.66148800  0.87463500  1
  Ni  Ni8  1  0.33851200  0.16925600  0.87463500  1
  Ni  Ni9  1  0.16925600  0.83074400  0.12536500  1
  Ni  Ni10  1  0.16925600  0.33851200  0.12536500  1
  Ni  Ni11  1  0.66148800  0.83074400  0.12536500  1
  Ni  Ni12  1  0.33333300  0.66666700  0.25000000  1
  Ni  Ni13  1  0.66666700  0.33333300  0.75000000  1
  Ni  Ni14  1  0.00000000  0.00000000  0.25000000  1
  Ni  Ni15  1  0.00000000  0.00000000  0.75000000  1
loop_
_geom_bond_atom_site_label_1
_geom_bond_atom_site_label_2
_geom_bond_distance
_geom_bond_site_symmetry_2
Dy0 Ni7 2.837151 1_455
Dy0 Ni8 2.837151 1_565
Dy0 Ni6 2.837154 1_455
Dy0 Ni6 2.837154 1_565
Dy0 Ni8 2.837156 1_555
Dy0 Ni7 2.837156 1_555
Dy0 Ni9 3.079927 1_556
Dy0 Ni10 3.079929 1_556
Dy0 Ni11 3.079929 1_556
Dy1 Ni11 2.837151 1_545
Dy1 Ni10 2.837151 1_655
Dy1 Ni9 2.837154 1_545
Dy1 Ni9 2.837154 1_655
Dy1 Ni10 2.837156 1_555
Dy1 Ni11 2.837156 1_555
Dy1 Ni6 3.079927 1_554
Dy1 Ni7 3.079929 1_554
Dy1 Ni8 3.079929 1_554
Dy2 Ni2 2.837151 1_545
Dy2 Ni1 2.837151 1_655
Dy2 Ni0 2.837154 1_545
Dy2 Ni0 2.837154 1_655
Dy2 Ni1 2.837156 1_555
Dy2 Ni2 2.837156 1_555
Dy2 Ni3 3.079927 1_555
Dy2 Ni5 3.079929 1_555
Dy2 Ni4 3.079929 1_555
Dy3 Ni4 2.837151 1_455
Dy3 Ni5 2.837151 1_565
Dy3 Ni3 2.837154 1_455
Dy3 Ni3 2.837154 1_565
Dy3 Ni4 2.837156 1_555
Dy3 Ni5 2.837156 1_555
Dy3 Ni0 3.079927 1_555
Dy3 Ni2 3.079929 1_555
Dy3 Ni1 3.079929 1_555
Dy4 Ni15 2.920362 1_565
Dy4 Ni13 2.920362 1_455
Dy4 Ni13 2.920362 1_565
Dy4 Ni15 2.920366 1_555
Dy4 Ni15 2.920366 1_665
Dy4 Ni13 2.920371 1_555
Dy4 Ni4 3.220100 1_455
Dy4 Ni7 3.220100 1_455
Dy4 Ni8 3.220100 1_565
Dy4 Ni5 3.220100 1_565
Dy4 Ni3 3.220102 1_455
Dy4 Ni6 3.220102 1_455
Dy4 Ni3 3.220102 1_565
Dy4 Ni6 3.220102 1_565
Dy4 Ni8 3.220104 1_555
Dy4 Ni5 3.220104 1_555
Dy4 Ni7 3.220104 1_555
Dy4 Ni4 3.220104 1_555
Dy5 Ni14 2.920362 1_655
Dy5 Ni12 2.920362 1_545
Dy5 Ni12 2.920362 1_655
Dy5 Ni14 2.920366 1_665
Dy5 Ni14 2.920366 1_555
Dy5 Ni12 2.920371 1_555
Dy5 Ni2 3.220100 1_545
Dy5 Ni11 3.220100 1_545
Dy5 Ni10 3.220100 1_655
Dy5 Ni1 3.220100 1_655
Dy5 Ni0 3.220102 1_545
Dy5 Ni9 3.220102 1_545
Dy5 Ni0 3.220102 1_655
Dy5 Ni9 3.220102 1_655
Dy5 Ni11 3.220104 1_555
Dy5 Ni2 3.220104 1_555
Dy5 Ni10 3.220104 1_555
Dy5 Ni1 3.220104 1_555
Al0 Ni3 2.493533 1_455
Al0 Ni0 2.493533 1_545
Al0 Ni4 2.493533 1_445
Al0 Ni5 2.493533 1_555
Al0 Ni1 2.493533 1_555
Al0 Ni2 2.493533 1_445
Al0 Dy2 3.007615 1_455
Al0 Dy3 3.007615 1_545
Al0 Dy3 3.007619 1_445
Al0 Dy3 3.007619 1_555
Al0 Dy2 3.007619 1_445
Al0 Dy2 3.007619 1_555
Al1 Ni6 2.493533 1_454
Al1 Ni9 2.493533 1_545
Al1 Ni8 2.493533 1_554
Al1 Ni7 2.493533 1_444
Al1 Ni10 2.493533 1_555
Al1 Ni11 2.493533 1_445
Al1 Dy0 3.007615 1_544
Al1 Dy1 3.007615 1_455
Al1 Dy0 3.007619 1_444
Al1 Dy1 3.007619 1_445
Al1 Dy1 3.007619 1_555
Al1 Dy0 3.007619 1_554
Ni0 Ni12 2.457343 1_555
Ni0 Ni14 2.484158 1_565
Ni0 Ni2 2.489818 1_555
Ni0 Ni1 2.489818 1_555
Ni0 Ni1 2.568402 1_565
Ni0 Ni2 2.568402 1_455
Ni1 Ni12 2.457345 1_555
Ni1 Ni14 2.484158 1_555
Ni1 Ni2 2.489818 1_555
Ni1 Ni2 2.568402 1_445
Ni3 Ni4 2.489818 1_555
Ni3 Ni5 2.489818 1_555
Ni3 Ni5 2.568402 1_655
Ni3 Ni4 2.568402 1_545
Ni4 Ni5 2.489818 1_555
Ni4 Ni5 2.568402 1_665
Ni6 Ni7 2.489818 1_555
Ni6 Ni8 2.489818 1_555
Ni6 Ni8 2.568402 1_655
Ni6 Ni7 2.568402 1_545
Ni7 Ni8 2.489818 1_555
Ni7 Ni8 2.568402 1_665
Ni10 Ni12 2.457345 1_555
Ni10 Ni14 2.484158 1_555
Ni10 Ni9 2.489818 1_555
Ni10 Ni11 2.489818 1_555
Ni10 Ni9 2.568402 1_545
Ni10 Ni11 2.568402 1_445
Ni11 Ni12 2.457345 1_555
Ni11 Ni14 2.484158 1_665
Ni11 Ni9 2.489818 1_555
Ni11 Ni9 2.568402 1_655
Ni12 Ni9 2.457343 1_555
Ni12 Ni2 2.457345 1_555
Ni13 Ni3 2.457343 1_555
Ni13 Ni6 2.457343 1_555
Ni13 Ni7 2.457345 1_555
Ni13 Ni4 2.457345 1_555
Ni13 Ni8 2.457345 1_555
Ni13 Ni5 2.457345 1_555
Ni14 Ni9 2.484158 1_545
Ni14 Ni2 2.484158 1_445
Ni15 Ni3 2.484158 1_455
Ni15 Ni6 2.484158 1_455
Ni15 Ni4 2.484158 1_445
Ni15 Ni7 2.484158 1_445
Ni15 Ni8 2.484158 1_555
Ni15 Ni5 2.484158 1_555
