# generated using pymatgen
data_Ti5MnSn3
_symmetry_space_group_name_H-M   'P 1'
_cell_length_a   8.25239190
_cell_length_b   8.25239190
_cell_length_c   5.48639100
_cell_angle_alpha   90.00000000
_cell_angle_beta   90.00000000
_cell_angle_gamma   119.99999921
_symmetry_Int_Tables_number   1
_chemical_formula_structural   Ti5MnSn3
_chemical_formula_sum   'Ti10 Mn2 Sn6'
_cell_volume   323.57657880
_cell_formula_units_Z   2
loop_
 _symmetry_equiv_pos_site_id
 _symmetry_equiv_pos_as_xyz
  1  'x, y, z'
loop_
 _atom_site_type_symbol
 _atom_site_label
 _atom_site_symmetry_multiplicity
 _atom_site_fract_x
 _atom_site_fract_y
 _atom_site_fract_z
 _atom_site_occupancy
  Ti  Ti0  1  0.24558600  0.00000000  0.75000000  1
  Ti  Ti1  1  0.75441400  0.00000000  0.25000000  1
  Ti  Ti2  1  0.00000000  0.24558600  0.75000000  1
  Ti  Ti3  1  0.00000000  0.75441400  0.25000000  1
  Ti  Ti4  1  0.75441400  0.75441400  0.75000000  1
  Ti  Ti5  1  0.24558600  0.24558600  0.25000000  1
  Ti  Ti6  1  0.33333300  0.66666700  0.50000000  1
  Ti  Ti7  1  0.66666700  0.33333300  0.50000000  1
  Ti  Ti8  1  0.66666700  0.33333300  0.00000000  1
  Ti  Ti9  1  0.33333300  0.66666700  0.00000000  1
  Mn  Mn0  1  0.00000000  0.00000000  0.50000000  1
  Mn  Mn1  1  0.00000000  0.00000000  0.00000000  1
  Sn  Sn0  1  0.60519400  0.00000000  0.75000000  1
  Sn  Sn1  1  0.39480600  0.00000000  0.25000000  1
  Sn  Sn2  1  0.00000000  0.60519400  0.75000000  1
  Sn  Sn3  1  0.00000000  0.39480600  0.25000000  1
  Sn  Sn4  1  0.39480600  0.39480600  0.75000000  1
  Sn  Sn5  1  0.60519400  0.60519400  0.25000000  1
loop_
_geom_bond_atom_site_label_1
_geom_bond_atom_site_label_2
_geom_bond_distance
_geom_bond_site_symmetry_2
Ti6 Ti9 2.743196 1_555
Ti6 Ti9 2.743196 1_556
Ti7 Ti8 2.743196 1_556
Ti7 Ti8 2.743196 1_555
Mn0 Ti2 2.447178 1_555
Mn0 Ti0 2.447178 1_555
Mn0 Ti3 2.447178 1_545
Mn0 Ti1 2.447178 1_455
Mn0 Ti5 2.447178 1_555
Mn0 Ti4 2.447178 1_445
Mn0 Mn1 2.743196 1_556
Mn0 Mn1 2.743196 1_555
Mn1 Ti0 2.447178 1_554
Mn1 Ti2 2.447178 1_554
Mn1 Ti3 2.447178 1_545
Mn1 Ti1 2.447178 1_455
Mn1 Ti5 2.447178 1_555
Mn1 Ti4 2.447178 1_444
Sn0 Ti4 2.849471 1_545
Sn0 Ti2 2.849471 1_655
Sn0 Ti8 2.882712 1_556
Sn0 Ti7 2.882712 1_555
Sn0 Ti6 2.882714 1_545
Sn0 Ti9 2.882714 1_546
Sn0 Ti0 2.967626 1_555
Sn0 Ti1 3.006912 1_555
Sn0 Ti1 3.006912 1_556
Sn0 Sn1 3.246464 1_555
Sn0 Sn1 3.246464 1_556
Sn1 Ti5 2.849471 1_555
Sn1 Ti3 2.849471 1_545
Sn1 Ti9 2.882712 1_545
Sn1 Ti6 2.882712 1_545
Sn1 Ti7 2.882714 1_555
Sn1 Ti8 2.882714 1_555
Sn1 Ti1 2.967626 1_555
Sn1 Ti0 3.006912 1_555
Sn1 Ti0 3.006912 1_554
Sn2 Ti4 2.849471 1_455
Sn2 Ti0 2.849471 1_565
Sn2 Ti9 2.882712 1_556
Sn2 Ti6 2.882712 1_555
Sn2 Ti7 2.882714 1_455
Sn2 Ti8 2.882714 1_456
Sn2 Ti2 2.967626 1_555
Sn2 Ti3 3.006912 1_556
Sn2 Ti3 3.006912 1_555
Sn2 Sn3 3.246464 1_556
Sn2 Sn3 3.246464 1_555
Sn3 Ti5 2.849471 1_555
Sn3 Ti1 2.849471 1_455
Sn3 Ti7 2.882712 1_455
Sn3 Ti8 2.882712 1_455
Sn3 Ti6 2.882714 1_555
Sn3 Ti9 2.882714 1_555
Sn3 Ti3 2.967626 1_555
Sn3 Ti2 3.006912 1_554
Sn3 Ti2 3.006912 1_555
Sn4 Ti2 2.849471 1_555
Sn4 Ti0 2.849471 1_555
Sn4 Ti7 2.882719 1_555
Sn4 Ti8 2.882719 1_556
Sn4 Ti9 2.882719 1_556
Sn4 Ti6 2.882719 1_555
Sn4 Ti4 2.967626 1_555
Sn4 Ti5 3.006912 1_555
Sn4 Ti5 3.006912 1_556
Sn4 Sn5 3.246464 1_555
Sn4 Sn5 3.246464 1_556
Sn5 Ti1 2.849471 1_565
Sn5 Ti3 2.849471 1_655
Sn5 Ti7 2.882719 1_555
Sn5 Ti8 2.882719 1_555
Sn5 Ti9 2.882719 1_555
Sn5 Ti6 2.882719 1_555
Sn5 Ti5 2.967626 1_555
Sn5 Ti4 3.006912 1_554
Sn5 Ti4 3.006912 1_555
