# generated using pymatgen
data_Li5Mn2CoO8
_symmetry_space_group_name_H-M   'P 1'
_cell_length_a   9.82181713
_cell_length_b   9.82181713
_cell_length_c   5.13306946
_cell_angle_alpha   85.44870719
_cell_angle_beta   85.44870719
_cell_angle_gamma   16.81907287
_symmetry_Int_Tables_number   1
_chemical_formula_structural   Li5Mn2CoO8
_chemical_formula_sum   'Li5 Mn2 Co1 O8'
_cell_volume   142.81811651
_cell_formula_units_Z   1
loop_
 _symmetry_equiv_pos_site_id
 _symmetry_equiv_pos_as_xyz
  1  'x, y, z'
loop_
 _atom_site_type_symbol
 _atom_site_label
 _atom_site_symmetry_multiplicity
 _atom_site_fract_x
 _atom_site_fract_y
 _atom_site_fract_z
 _atom_site_occupancy
  Li  Li0  1  0.38051000  0.38051000  0.87666000  1
  Li  Li1  1  0.11448000  0.11448000  0.61050900  1
  Li  Li2  1  0.88834600  0.88834600  0.39583800  1
  Li  Li3  1  0.61812000  0.61812000  0.12344300  1
  Li  Li4  1  0.50081700  0.50081700  0.50054300  1
  Mn  Mn0  1  0.99984200  0.99984200  0.00172700  1
  Mn  Mn1  1  0.74987400  0.74987400  0.74689900  1
  Co  Co0  1  0.24952300  0.24952300  0.24888300  1
  O  O0  1  0.44396600  0.44396600  0.17187600  1
  O  O1  1  0.19367300  0.19367300  0.90091800  1
  O  O2  1  0.94170800  0.94170800  0.71742700  1
  O  O3  1  0.69638700  0.69638700  0.44293500  1
  O  O4  1  0.30678300  0.30678300  0.59081100  1
  O  O5  1  0.05930900  0.05930900  0.28450100  1
  O  O6  1  0.80162700  0.80162700  0.05439000  1
  O  O7  1  0.55503300  0.55503300  0.83264000  1
loop_
_geom_bond_atom_site_label_1
_geom_bond_atom_site_label_2
_geom_bond_distance
_geom_bond_site_symmetry_2
Li0 O2 1.997419 1_455
Li0 O2 1.997419 1_545
Li0 O0 2.028953 1_556
Li0 O4 2.131380 1_555
Li0 O6 2.240755 1_456
Li0 O6 2.240755 1_546
Li1 O5 2.058537 1_555
Li1 O7 2.118150 1_455
Li1 O7 2.118150 1_545
Li1 O1 2.226754 1_555
Li1 O3 2.262057 1_545
Li1 O3 2.262057 1_455
Li2 O2 2.018619 1_555
Li2 O0 2.086568 1_565
Li2 O0 2.086568 1_655
Li2 O4 2.307067 1_655
Li2 O4 2.307067 1_565
Li2 O6 2.526949 1_555
Li3 O5 1.975165 1_565
Li3 O5 1.975165 1_655
Li3 O7 2.006160 1_554
Li3 O1 2.292271 1_564
Li3 O1 2.292271 1_654
Li3 O3 2.324405 1_555
Li4 O7 2.074611 1_555
Li4 O0 2.089424 1_555
Li4 O5 2.093519 1_655
Li4 O5 2.093519 1_565
Li4 O2 2.101642 1_455
Li4 O2 2.101642 1_545
Mn0 O2 1.915807 1_554
Mn0 O5 1.926480 1_665
Mn0 O7 1.953847 1_654
Mn0 O7 1.953847 1_564
Mn0 O0 1.962890 1_565
Mn0 O0 1.962890 1_655
Mn1 O1 1.934565 1_565
Mn1 O1 1.934565 1_655
Mn1 O6 1.938381 1_556
Mn1 O3 1.942916 1_555
Mn1 O4 1.945780 1_565
Mn1 O4 1.945780 1_655
Co0 O6 1.980656 1_455
Co0 O6 1.980656 1_545
Co0 O3 1.989135 1_455
Co0 O3 1.989135 1_545
Co0 O4 2.152191 1_555
Co0 O1 2.163128 1_554
