# generated using pymatgen
data_Th5OF19
_symmetry_space_group_name_H-M   'P 1'
_cell_length_a   12.42313011
_cell_length_b   12.42313011
_cell_length_c   8.30286200
_cell_angle_alpha   90.00000000
_cell_angle_beta   90.00000000
_cell_angle_gamma   145.71890829
_symmetry_Int_Tables_number   1
_chemical_formula_structural   Th5OF19
_chemical_formula_sum   'Th10 O2 F38'
_cell_volume   721.76148935
_cell_formula_units_Z   2
loop_
 _symmetry_equiv_pos_site_id
 _symmetry_equiv_pos_as_xyz
  1  'x, y, z'
loop_
 _atom_site_type_symbol
 _atom_site_label
 _atom_site_symmetry_multiplicity
 _atom_site_fract_x
 _atom_site_fract_y
 _atom_site_fract_z
 _atom_site_occupancy
  Th  Th0  1  0.13043600  0.13043600  0.25000000  1
  Th  Th1  1  0.86956400  0.86956400  0.75000000  1
  Th  Th2  1  0.82207800  0.20950700  0.25000000  1
  Th  Th3  1  0.17792200  0.79049300  0.75000000  1
  Th  Th4  1  0.20950700  0.82207800  0.25000000  1
  Th  Th5  1  0.79049300  0.17792200  0.75000000  1
  Th  Th6  1  0.63275500  0.36724500  0.00000000  1
  Th  Th7  1  0.36724500  0.63275500  0.00000000  1
  Th  Th8  1  0.36724500  0.63275500  0.50000000  1
  Th  Th9  1  0.63275500  0.36724500  0.50000000  1
  O  O0  1  0.83012400  0.83012400  0.25000000  1
  O  O1  1  0.16987600  0.16987600  0.75000000  1
  F  F0  1  0.99267400  0.66123300  0.01284500  1
  F  F1  1  0.00732600  0.33876700  0.98715500  1
  F  F2  1  0.00732600  0.33876700  0.51284500  1
  F  F3  1  0.66123300  0.99267400  0.48715500  1
  F  F4  1  0.99267400  0.66123300  0.48715500  1
  F  F5  1  0.33876700  0.00732600  0.51284500  1
  F  F6  1  0.33876700  0.00732600  0.98715500  1
  F  F7  1  0.66123300  0.99267400  0.01284500  1
  F  F8  1  0.94837800  0.48798100  0.25000000  1
  F  F9  1  0.05162200  0.51201900  0.75000000  1
  F  F10  1  0.48798100  0.94837800  0.25000000  1
  F  F11  1  0.51201900  0.05162200  0.75000000  1
  F  F12  1  0.00000000  0.00000000  0.00000000  1
  F  F13  1  0.00000000  0.00000000  0.50000000  1
  F  F14  1  0.73803900  0.26196100  0.00000000  1
  F  F15  1  0.26196100  0.73803900  0.00000000  1
  F  F16  1  0.26196100  0.73803900  0.50000000  1
  F  F17  1  0.73803900  0.26196100  0.50000000  1
  F  F18  1  0.92970000  0.13396000  0.25000000  1
  F  F19  1  0.07030000  0.86604000  0.75000000  1
  F  F20  1  0.13396000  0.92970000  0.25000000  1
  F  F21  1  0.86604000  0.07030000  0.75000000  1
  F  F22  1  0.26858900  0.38971200  0.08494000  1
  F  F23  1  0.73141100  0.61028700  0.91506000  1
  F  F24  1  0.73141100  0.61028700  0.58494000  1
  F  F25  1  0.38971300  0.26858900  0.41506000  1
  F  F26  1  0.26858900  0.38971200  0.41506000  1
  F  F27  1  0.61028700  0.73141100  0.58494000  1
  F  F28  1  0.61028700  0.73141100  0.91506000  1
  F  F29  1  0.38971300  0.26858900  0.08494000  1
  F  F30  1  0.74877200  0.52044700  0.25000000  1
  F  F31  1  0.25122800  0.47955300  0.75000000  1
  F  F32  1  0.52044700  0.74877200  0.25000000  1
  F  F33  1  0.47955300  0.25122800  0.75000000  1
  F  F34  1  0.17873100  0.51901600  0.25000000  1
  F  F35  1  0.82126900  0.48098400  0.75000000  1
  F  F36  1  0.51901600  0.17873100  0.25000000  1
  F  F37  1  0.48098400  0.82126900  0.75000000  1
loop_
_geom_bond_atom_site_label_1
_geom_bond_atom_site_label_2
_geom_bond_distance
_geom_bond_site_symmetry_2
O0 Th0 2.199066 1_665
O1 Th1 2.199066 1_445
F0 Th4 2.496217 1_655
F0 Th6 2.521099 1_555
F0 Th3 2.555476 1_654
F1 Th5 2.496217 1_455
F1 Th7 2.521099 1_556
F1 Th2 2.555476 1_456
F2 Th5 2.496217 1_455
F2 Th8 2.521099 1_555
F2 Th2 2.555476 1_455
F3 Th2 2.496217 1_565
F3 Th8 2.521099 1_555
F3 Th5 2.555476 1_565
F4 Th4 2.496217 1_655
F4 Th9 2.521099 1_555
F4 Th3 2.555476 1_655
F5 Th3 2.496217 1_545
F5 Th9 2.521099 1_555
F5 Th4 2.555476 1_545
F6 Th3 2.496217 1_545
F6 Th6 2.521099 1_556
F6 Th4 2.555476 1_546
F7 Th2 2.496217 1_565
F7 Th7 2.521099 1_555
F7 Th5 2.555476 1_564
F8 Th2 2.336623 1_555
F8 Th4 2.345147 1_655
F9 Th3 2.336623 1_555
F9 Th5 2.345147 1_455
F10 Th4 2.336623 1_555
F10 Th2 2.345147 1_565
F11 Th5 2.336623 1_555
F11 Th3 2.345147 1_545
F12 Th0 2.284923 1_555
F12 Th1 2.284923 1_444
F13 Th1 2.284923 1_445
F13 Th0 2.284923 1_555
F14 Th6 2.499727 1_555
F14 Th5 2.635816 1_554
F14 Th2 2.635816 1_555
F15 Th7 2.499727 1_555
F15 Th3 2.635816 1_554
F15 Th4 2.635816 1_555
F16 Th8 2.499727 1_555
F16 Th4 2.635816 1_555
F16 Th3 2.635816 1_555
F17 Th9 2.499727 1_555
F17 Th5 2.635816 1_555
F17 Th2 2.635816 1_555
F18 Th2 2.177633 1_555
F18 Th0 2.530064 1_655
F19 Th3 2.177633 1_555
F19 Th1 2.530064 1_455
F20 Th4 2.177633 1_555
F20 Th0 2.530064 1_565
F21 Th5 2.177633 1_555
F21 Th1 2.530064 1_545
F22 Th7 2.236194 1_555
F22 Th0 2.462330 1_555
F23 Th6 2.236183 1_556
F23 Th1 2.462339 1_555
F24 Th9 2.236183 1_555
F24 Th1 2.462339 1_555
F25 Th9 2.236183 1_555
F25 Th0 2.462339 1_555
F26 Th8 2.236194 1_555
F26 Th0 2.462330 1_555
F27 Th8 2.236183 1_555
F27 Th1 2.462339 1_555
F28 Th7 2.236183 1_556
F28 Th1 2.462339 1_555
F29 Th6 2.236183 1_555
F29 Th0 2.462339 1_555
F30 Th6 2.339883 1_555
F30 Th9 2.339883 1_555
F31 Th8 2.339883 1_555
F31 Th7 2.339883 1_556
F32 Th7 2.339883 1_555
F32 Th8 2.339883 1_555
F33 Th9 2.339883 1_555
F33 Th6 2.339883 1_556
F34 Th2 2.502408 1_455
F34 Th8 2.514204 1_555
F34 Th7 2.514204 1_555
F35 Th3 2.502408 1_655
F35 Th9 2.514204 1_555
F35 Th6 2.514204 1_556
F36 Th4 2.502408 1_545
F36 Th9 2.514204 1_555
F36 Th6 2.514204 1_555
F37 Th5 2.502408 1_565
F37 Th8 2.514204 1_555
F37 Th7 2.514204 1_556
