# generated using pymatgen
data_BaNaSc(BO3)2
_symmetry_space_group_name_H-M   'P 1'
_cell_length_a   12.02432538
_cell_length_b   12.02432538
_cell_length_c   12.02432492
_cell_angle_alpha   25.42715750
_cell_angle_beta   25.42715750
_cell_angle_gamma   25.42715560
_symmetry_Int_Tables_number   1
_chemical_formula_structural   BaNaSc(BO3)2
_chemical_formula_sum   'Ba2 Na2 Sc2 B4 O12'
_cell_volume   282.11568439
_cell_formula_units_Z   2
loop_
 _symmetry_equiv_pos_site_id
 _symmetry_equiv_pos_as_xyz
  1  'x, y, z'
loop_
 _atom_site_type_symbol
 _atom_site_label
 _atom_site_symmetry_multiplicity
 _atom_site_fract_x
 _atom_site_fract_y
 _atom_site_fract_z
 _atom_site_occupancy
  Ba  Ba0  1  0.89683100  0.89683100  0.89683100  1
  Ba  Ba1  1  0.10316900  0.10316900  0.10316900  1
  Na  Na0  1  0.62066300  0.62066300  0.62066300  1
  Na  Na1  1  0.37933700  0.37933700  0.37933700  1
  Sc  Sc0  1  0.00000000  0.00000000  0.00000000  1
  Sc  Sc1  1  0.50000000  0.50000000  0.50000000  1
  B  B0  1  0.29579500  0.29579500  0.29579500  1
  B  B1  1  0.70420500  0.70420500  0.70420500  1
  B  B2  1  0.20295000  0.20295000  0.20295000  1
  B  B3  1  0.79705000  0.79705000  0.79705000  1
  O  O0  1  0.18205500  0.10937400  0.59637500  1
  O  O1  1  0.59637500  0.18205500  0.10937400  1
  O  O2  1  0.10937400  0.59637500  0.18205500  1
  O  O3  1  0.81794500  0.89062600  0.40362500  1
  O  O4  1  0.40362500  0.81794500  0.89062600  1
  O  O5  1  0.89062600  0.40362500  0.81794500  1
  O  O6  1  0.35395300  0.35446300  0.90199000  1
  O  O7  1  0.90199000  0.35395300  0.35446300  1
  O  O8  1  0.35446300  0.90199000  0.35395300  1
  O  O9  1  0.64604700  0.64553700  0.09801000  1
  O  O10  1  0.09801000  0.64604700  0.64553700  1
  O  O11  1  0.64553700  0.09801000  0.64604700  1
loop_
_geom_bond_atom_site_label_1
_geom_bond_atom_site_label_2
_geom_bond_distance
_geom_bond_site_symmetry_2
Ba0 O6 2.807927 1_655
Ba0 O7 2.807927 1_565
Ba0 O8 2.807927 1_556
Ba0 O6 2.810469 1_565
Ba0 O8 2.810469 1_655
Ba0 O7 2.810469 1_556
Ba0 O2 2.849575 1_656
Ba0 O1 2.849575 1_566
Ba0 O0 2.849575 1_665
Ba1 O9 2.807927 1_455
Ba1 O10 2.807927 1_545
Ba1 O11 2.807927 1_554
Ba1 O9 2.810469 1_545
Ba1 O11 2.810469 1_455
Ba1 O10 2.810469 1_554
Ba1 O5 2.849575 1_454
Ba1 O4 2.849575 1_544
Ba1 O3 2.849575 1_445
Na0 O0 2.476837 1_565
Na0 O1 2.476837 1_556
Na0 O2 2.476837 1_655
Na0 O0 2.858427 1_655
Na0 O2 2.858427 1_556
Na0 O1 2.858427 1_565
Na1 O3 2.476837 1_545
Na1 O4 2.476837 1_554
Na1 O5 2.476837 1_455
Na1 O3 2.858427 1_455
Na1 O5 2.858427 1_554
Na1 O4 2.858427 1_545
B0 O2 1.390442 1_555
B0 O1 1.390442 1_555
B0 O0 1.390442 1_555
B0 Na1 2.914677 1_555
B1 O5 1.390442 1_555
B1 O4 1.390442 1_555
B1 O3 1.390442 1_555
B1 Na0 2.914677 1_555
B2 O8 1.381945 1_545
B2 O7 1.381945 1_455
B2 O6 1.381945 1_554
B3 O11 1.381945 1_565
B3 O10 1.381945 1_655
B3 O9 1.381945 1_556
O0 Sc0 2.134752 1_556
O1 Sc0 2.134752 1_655
O2 Sc0 2.134752 1_565
O3 Sc0 2.134752 1_665
O4 Sc0 2.134752 1_566
O5 Sc0 2.134752 1_656
O6 Sc1 2.109580 1_555
O7 Sc1 2.109580 1_555
O8 Sc1 2.109580 1_555
O9 Sc1 2.109580 1_555
O10 Sc1 2.109580 1_555
O11 Sc1 2.109580 1_555
