# generated using pymatgen
data_Li9Mn7O16
_symmetry_space_group_name_H-M   'P 1'
_cell_length_a   5.99460100
_cell_length_b   7.67358901
_cell_length_c   7.77069048
_cell_angle_alpha   64.21749698
_cell_angle_beta   70.81055494
_cell_angle_gamma   70.97172065
_symmetry_Int_Tables_number   1
_chemical_formula_structural   Li9Mn7O16
_chemical_formula_sum   'Li9 Mn7 O16'
_cell_volume   296.85784422
_cell_formula_units_Z   1
loop_
 _symmetry_equiv_pos_site_id
 _symmetry_equiv_pos_as_xyz
  1  'x, y, z'
loop_
 _atom_site_type_symbol
 _atom_site_label
 _atom_site_symmetry_multiplicity
 _atom_site_fract_x
 _atom_site_fract_y
 _atom_site_fract_z
 _atom_site_occupancy
  Li  Li0  1  0.00000000  0.50000000  0.00000000  1
  Li  Li1  1  0.86679300  0.13221600  0.12273800  1
  Li  Li2  1  0.24784800  0.25016100  0.75128300  1
  Li  Li3  1  0.13320700  0.86778400  0.87726200  1
  Li  Li4  1  0.50000000  0.00000000  0.50000000  1
  Li  Li5  1  0.37819100  0.62492900  0.63648000  1
  Li  Li6  1  0.75215200  0.74983900  0.24871700  1
  Li  Li7  1  0.62180900  0.37507100  0.36352000  1
  Li  Li8  1  0.50000000  0.50000000  0.00000000  1
  Mn  Mn0  1  0.61931100  0.87402500  0.87446100  1
  Mn  Mn1  1  0.13151200  0.37755100  0.36826500  1
  Mn  Mn2  1  0.38068900  0.12597500  0.12553900  1
  Mn  Mn3  1  0.25723400  0.74782000  0.24600700  1
  Mn  Mn4  1  0.00000000  0.00000000  0.50000000  1
  Mn  Mn5  1  0.86848800  0.62244900  0.63173500  1
  Mn  Mn6  1  0.74276600  0.25218000  0.75399300  1
  O  O0  1  0.58575400  0.65092500  0.12654200  1
  O  O1  1  0.49160100  0.23602400  0.25013800  1
  O  O2  1  0.87809300  0.37530900  0.85749700  1
  O  O3  1  0.75548100  0.00552800  0.97631000  1
  O  O4  1  0.08448300  0.14183800  0.62184600  1
  O  O5  1  0.00520500  0.75032200  0.73290300  1
  O  O6  1  0.37312600  0.87546100  0.35901200  1
  O  O7  1  0.25285400  0.50572100  0.47534700  1
  O  O8  1  0.41424600  0.34907500  0.87345800  1
  O  O9  1  0.24451900  0.99447200  0.02369000  1
  O  O10  1  0.62687400  0.12453900  0.64098800  1
  O  O11  1  0.50839900  0.76397600  0.74986200  1
  O  O12  1  0.91551700  0.85816200  0.37815400  1
  O  O13  1  0.74714600  0.49427900  0.52465300  1
  O  O14  1  0.12190700  0.62469100  0.14250300  1
  O  O15  1  0.99479500  0.24967800  0.26709700  1
loop_
_geom_bond_atom_site_label_1
_geom_bond_atom_site_label_2
_geom_bond_distance
_geom_bond_site_symmetry_2
Li0 O5 2.127640 1_554
Li0 O15 2.127640 1_455
Li0 O14 2.141358 1_555
Li0 O2 2.141358 1_454
Li0 O0 2.446390 1_455
Li0 O8 2.446390 1_554
Li1 O2 2.092472 1_554
Li1 O15 2.134480 1_555
Li1 O3 2.137615 1_554
Li1 O1 2.174214 1_555
Li1 O12 2.190144 1_545
Li1 O9 2.199578 1_645
Li2 O8 2.053178 1_555
Li2 O4 2.137118 1_555
Li2 O2 2.148334 1_455
Li2 O9 2.171554 1_546
Li2 O7 2.186885 1_555
Li2 O10 2.199238 1_555
Li3 O14 2.092472 1_556
Li3 O5 2.134480 1_555
Li3 O9 2.137615 1_556
Li3 O11 2.174214 1_555
Li3 O4 2.190144 1_565
Li3 O3 2.199578 1_465
Li4 O11 1.999586 1_545
Li4 O1 1.999586 1_555
Li4 O10 2.150472 1_555
Li4 O6 2.150472 1_545
Li4 O12 2.421522 1_545
Li4 O4 2.421522 1_555
Li5 O11 2.082526 1_555
Li5 O8 2.119184 1_555
Li5 O5 2.146976 1_555
Li5 O13 2.168070 1_555
Li5 O6 2.178256 1_555
Li5 O7 2.243229 1_555
Li6 O0 2.053178 1_555
Li6 O12 2.137118 1_555
Li6 O14 2.148334 1_655
Li6 O3 2.171554 1_564
Li6 O13 2.186885 1_555
Li6 O6 2.199238 1_555
Li7 O1 2.082526 1_555
Li7 O0 2.119184 1_555
Li7 O15 2.146976 1_555
Li7 O7 2.168070 1_555
Li7 O10 2.178256 1_555
Li7 O13 2.243229 1_555
Li8 O0 2.069695 1_555
Li8 O8 2.069695 1_554
Li8 O1 2.112095 1_555
Li8 O11 2.112095 1_554
Li8 O2 2.266385 1_554
Li8 O14 2.266385 1_555
Mn0 O11 1.895576 1_555
Mn0 O0 1.963842 1_556
Mn0 O10 1.989420 1_565
Mn0 O3 1.991868 1_565
Mn0 O9 2.261047 1_556
Mn0 O5 2.294783 1_655
Mn1 O7 1.940397 1_555
Mn1 O14 1.943839 1_555
Mn1 O15 1.967624 1_455
Mn1 O4 2.025037 1_555
Mn1 O1 2.171994 1_555
Mn1 O13 2.312688 1_455
Mn2 O1 1.895576 1_555
Mn2 O8 1.963842 1_554
Mn2 O6 1.989420 1_545
Mn2 O9 1.991868 1_545
Mn2 O3 2.261047 1_554
Mn2 O15 2.294783 1_455
Mn3 O9 1.928908 1_555
Mn3 O0 1.933072 1_555
Mn3 O7 1.936216 1_555
Mn3 O14 1.946155 1_555
Mn3 O6 1.950912 1_555
Mn3 O12 2.051862 1_455
Mn4 O4 1.977049 1_555
Mn4 O12 1.977049 1_445
Mn4 O15 1.982152 1_455
Mn4 O5 1.982152 1_545
Mn4 O6 2.241117 1_545
Mn4 O10 2.241117 1_455
Mn5 O13 1.940397 1_555
Mn5 O2 1.943839 1_555
Mn5 O5 1.967624 1_655
Mn5 O12 2.025037 1_555
Mn5 O11 2.171994 1_555
Mn5 O7 2.312688 1_655
Mn6 O3 1.928908 1_555
Mn6 O8 1.933072 1_555
Mn6 O13 1.936216 1_555
Mn6 O2 1.946155 1_555
Mn6 O10 1.950912 1_555
Mn6 O4 2.051862 1_655
