# generated using pymatgen
data_YSiAg
_symmetry_space_group_name_H-M   'P 1'
_cell_length_a   7.03751582
_cell_length_b   7.03751582
_cell_length_c   4.19389547
_cell_angle_alpha   90.00000000
_cell_angle_beta   90.00000000
_cell_angle_gamma   119.99999168
_symmetry_Int_Tables_number   1
_chemical_formula_structural   YSiAg
_chemical_formula_sum   'Y3 Si3 Ag3'
_cell_volume   179.88172247
_cell_formula_units_Z   3
loop_
 _symmetry_equiv_pos_site_id
 _symmetry_equiv_pos_as_xyz
  1  'x, y, z'
loop_
 _atom_site_type_symbol
 _atom_site_label
 _atom_site_symmetry_multiplicity
 _atom_site_fract_x
 _atom_site_fract_y
 _atom_site_fract_z
 _atom_site_occupancy
  Y  Y0  1  0.00000000  0.41727006  0.50000000  1
  Y  Y1  1  0.58272994  0.58272994  0.50000000  1
  Y  Y2  1  0.41727006  0.00000000  0.50000000  1
  Si  Si0  1  0.33333300  0.66666700  0.00000000  1
  Si  Si1  1  0.66666700  0.33333300  -0.00000000  1
  Si  Si2  1  -0.00000000  -0.00000000  0.50000000  1
  Ag  Ag0  1  -0.00000000  0.75026464  -0.00000000  1
  Ag  Ag1  1  0.24973536  0.24973536  0.00000000  1
  Ag  Ag2  1  0.75026464  -0.00000000  0.00000000  1
loop_
_geom_bond_atom_site_label_1
_geom_bond_atom_site_label_2
_geom_bond_distance
_geom_bond_site_symmetry_2
Si0 Y2 2.977141 1_565
Si0 Y2 2.977141 1_564
Si0 Y0 2.977143 1_555
Si0 Y0 2.977143 1_554
Si0 Y1 2.977146 1_554
Si0 Y1 2.977146 1_555
Si1 Y0 2.977141 1_655
Si1 Y0 2.977141 1_654
Si1 Y2 2.977143 1_554
Si1 Y2 2.977143 1_555
Si1 Y1 2.977146 1_554
Si1 Y1 2.977146 1_555
Si2 Y2 2.936545 1_555
Si2 Y0 2.936545 1_555
Si2 Y1 2.936545 1_445
Ag0 Si0 2.688711 1_555
Ag0 Si1 2.688716 1_455
Ag0 Si2 2.736065 1_564
Ag0 Si2 2.736065 1_565
Ag0 Ag2 3.044108 1_465
Ag0 Ag1 3.044108 1_565
Ag0 Y0 3.144673 1_554
Ag0 Y0 3.144673 1_555
Ag0 Y1 3.308825 1_455
Ag0 Y1 3.308825 1_454
Ag0 Y2 3.308825 1_565
Ag0 Y2 3.308825 1_564
Ag1 Si1 2.688718 1_555
Ag1 Si0 2.688718 1_555
Ag1 Si2 2.736066 1_555
Ag1 Si2 2.736066 1_554
Ag1 Ag2 3.044108 1_455
Ag1 Y1 3.144673 1_554
Ag1 Y1 3.144673 1_555
Ag1 Y0 3.308825 1_555
Ag1 Y0 3.308825 1_554
Ag1 Y2 3.308825 1_555
Ag1 Y2 3.308825 1_554
Ag2 Si1 2.688711 1_555
Ag2 Si0 2.688716 1_545
Ag2 Si2 2.736065 1_654
Ag2 Si2 2.736065 1_655
Ag2 Y2 3.144673 1_555
Ag2 Y2 3.144673 1_554
Ag2 Y1 3.308825 1_544
Ag2 Y1 3.308825 1_545
Ag2 Y0 3.308825 1_655
Ag2 Y0 3.308825 1_654
