# generated using pymatgen
data_Y2MnNiO6
_symmetry_space_group_name_H-M   'P 1'
_cell_length_a   5.27990658
_cell_length_b   5.59981800
_cell_length_c   7.57945299
_cell_angle_alpha   90.00028672
_cell_angle_beta   89.59375380
_cell_angle_gamma   89.99991616
_symmetry_Int_Tables_number   1
_chemical_formula_structural   Y2MnNiO6
_chemical_formula_sum   'Y4 Mn2 Ni2 O12'
_cell_volume   224.09238418
_cell_formula_units_Z   2
loop_
 _symmetry_equiv_pos_site_id
 _symmetry_equiv_pos_as_xyz
  1  'x, y, z'
loop_
 _atom_site_type_symbol
 _atom_site_label
 _atom_site_symmetry_multiplicity
 _atom_site_fract_x
 _atom_site_fract_y
 _atom_site_fract_z
 _atom_site_occupancy
  Y  Y0  1  0.48090000  0.42928200  0.74871400  1
  Y  Y1  1  0.01909900  0.92928300  0.75128700  1
  Y  Y2  1  0.51910000  0.57071800  0.25128600  1
  Y  Y3  1  0.98090100  0.07071700  0.24871300  1
  Mn  Mn0  1  0.50000000  0.00000000  0.00000000  1
  Mn  Mn1  1  0.00000000  0.50000000  0.50000000  1
  Ni  Ni0  1  0.50000000  0.00000000  0.50000000  1
  Ni  Ni1  1  0.00000000  0.50000000  0.00000000  1
  O  O0  1  0.20201900  0.18805500  0.94745500  1
  O  O1  1  0.29798100  0.68805400  0.55254500  1
  O  O2  1  0.79798100  0.81194500  0.05254500  1
  O  O3  1  0.70201900  0.31194600  0.44745500  1
  O  O4  1  0.18353800  0.20725900  0.55752200  1
  O  O5  1  0.31646100  0.70725800  0.94247800  1
  O  O6  1  0.81646100  0.79274100  0.44247800  1
  O  O7  1  0.68353900  0.29274200  0.05752200  1
  O  O8  1  0.10807200  0.46276500  0.25762000  1
  O  O9  1  0.39192800  0.96276500  0.24238100  1
  O  O10  1  0.89192800  0.53723500  0.74238000  1
  O  O11  1  0.60807200  0.03723500  0.75761900  1
loop_
_geom_bond_atom_site_label_1
_geom_bond_atom_site_label_2
_geom_bond_distance
_geom_bond_site_symmetry_2
Mn0 O9 1.931115 1_545
Mn0 O11 1.931115 1_554
Mn0 O2 1.936949 1_545
Mn0 O0 1.936949 1_554
Mn0 O7 1.955116 1_555
Mn0 O5 1.955116 1_544
Mn1 O8 1.931105 1_555
Mn1 O10 1.931105 1_455
Mn1 O1 1.936946 1_555
Mn1 O3 1.936946 1_455
Mn1 O4 1.955110 1_555
Mn1 O6 1.955112 1_455
Ni0 O11 2.048794 1_555
Ni0 O9 2.048794 1_545
Ni0 O6 2.078129 1_545
Ni0 O4 2.078133 1_555
Ni0 O3 2.083693 1_555
Ni0 O1 2.083693 1_545
Ni1 O8 2.048803 1_555
Ni1 O10 2.048803 1_454
Ni1 O5 2.078131 1_554
Ni1 O7 2.078131 1_455
Ni1 O2 2.083683 1_455
Ni1 O0 2.083683 1_554
O0 Y1 2.294264 1_545
O0 Y0 2.496106 1_555
O0 Y3 2.640219 1_456
O1 Y0 2.294275 1_555
O1 Y1 2.496110 1_555
O1 Y2 2.640218 1_555
O2 Y3 2.294264 1_565
O2 Y2 2.496106 1_555
O2 Y1 2.640219 1_654
O3 Y2 2.294275 1_555
O3 Y3 2.496110 1_555
O3 Y0 2.640218 1_555
O4 Y1 2.305578 1_545
O4 Y0 2.478514 1_555
O4 Y3 2.691328 1_455
O5 Y0 2.305561 1_555
O5 Y1 2.478521 1_555
O5 Y2 2.691328 1_556
O6 Y3 2.305580 1_565
O6 Y2 2.478511 1_555
O6 Y1 2.691330 1_655
O7 Y2 2.305561 1_555
O7 Y3 2.478521 1_555
O7 Y0 2.691328 1_554
O8 Y2 2.252997 1_555
O8 Y3 2.296915 1_455
O9 Y3 2.252988 1_465
O9 Y2 2.296910 1_555
O10 Y0 2.252997 1_555
O10 Y1 2.296915 1_655
O11 Y1 2.252988 1_645
O11 Y0 2.296910 1_555
