# generated using pymatgen
data_Nb6AlGe
_symmetry_space_group_name_H-M   'P 1'
_cell_length_a   5.19378900
_cell_length_b   5.19378900
_cell_length_c   5.19378900
_cell_angle_alpha   90.00000000
_cell_angle_beta   90.00000000
_cell_angle_gamma   90.00000000
_symmetry_Int_Tables_number   1
_chemical_formula_structural   Nb6AlGe
_chemical_formula_sum   'Nb6 Al1 Ge1'
_cell_volume   140.10476523
_cell_formula_units_Z   1
loop_
 _symmetry_equiv_pos_site_id
 _symmetry_equiv_pos_as_xyz
  1  'x, y, z'
loop_
 _atom_site_type_symbol
 _atom_site_label
 _atom_site_symmetry_multiplicity
 _atom_site_fract_x
 _atom_site_fract_y
 _atom_site_fract_z
 _atom_site_occupancy
  Nb  Nb0  1  0.00000000  0.50000000  0.74995000  1
  Nb  Nb1  1  0.50000000  0.25005000  0.00000000  1
  Nb  Nb2  1  0.74995000  0.00000000  0.50000000  1
  Nb  Nb3  1  0.00000000  0.50000000  0.25005000  1
  Nb  Nb4  1  0.50000000  0.74995000  0.00000000  1
  Nb  Nb5  1  0.25005000  0.00000000  0.50000000  1
  Al  Al0  1  0.50000000  0.50000000  0.50000000  1
  Ge  Ge0  1  0.00000000  0.00000000  0.00000000  1
loop_
_geom_bond_atom_site_label_1
_geom_bond_atom_site_label_2
_geom_bond_distance
_geom_bond_site_symmetry_2
Nb0 Nb3 2.596375 1_555
Nb0 Nb3 2.597414 1_556
Nb0 Nb1 3.180533 1_456
Nb0 Nb4 3.180533 1_556
Nb0 Nb1 3.180533 1_556
Nb0 Nb2 3.180533 1_465
Nb0 Nb2 3.180533 1_455
Nb0 Nb5 3.180533 1_555
Nb0 Nb5 3.180533 1_565
Nb0 Nb4 3.180533 1_456
Nb1 Nb4 2.596375 1_555
Nb1 Nb4 2.597414 1_545
Nb1 Nb3 3.180533 1_655
Nb1 Nb5 3.180533 1_555
Nb1 Nb5 3.180533 1_554
Nb1 Nb3 3.180533 1_555
Nb1 Nb2 3.180533 1_555
Nb1 Nb2 3.180533 1_554
Nb2 Nb5 2.596375 1_555
Nb2 Nb5 2.597414 1_655
Nb2 Nb3 3.180533 1_655
Nb2 Nb3 3.180533 1_645
Nb2 Nb4 3.180533 1_545
Nb2 Nb4 3.180533 1_546
Nb3 Nb5 3.180533 1_555
Nb3 Nb5 3.180533 1_565
Nb3 Nb4 3.180533 1_455
Nb3 Nb4 3.180533 1_555
Nb4 Nb5 3.180533 1_564
Nb4 Nb5 3.180533 1_565
Al0 Nb3 2.903300 1_555
Al0 Nb1 2.903300 1_555
Al0 Nb1 2.903300 1_556
Al0 Nb3 2.903300 1_655
Al0 Nb5 2.903300 1_555
Al0 Nb5 2.903300 1_565
Al0 Nb2 2.903300 1_555
Al0 Nb0 2.903300 1_555
Al0 Nb0 2.903300 1_655
Al0 Nb2 2.903300 1_565
Al0 Nb4 2.903300 1_556
Al0 Nb4 2.903300 1_555
Ge0 Nb2 2.903532 1_455
Ge0 Nb2 2.903532 1_454
Ge0 Nb3 2.903532 1_545
Ge0 Nb4 2.903532 1_545
Ge0 Nb0 2.903532 1_544
Ge0 Nb1 2.903532 1_555
Ge0 Nb4 2.903532 1_445
Ge0 Nb5 2.903532 1_554
Ge0 Nb5 2.903532 1_555
Ge0 Nb0 2.903532 1_554
Ge0 Nb3 2.903532 1_555
Ge0 Nb1 2.903532 1_455
