# generated using pymatgen
data_FeH9(SO6)2
_symmetry_space_group_name_H-M   'P 1'
_cell_length_a   5.55984700
_cell_length_b   9.76487400
_cell_length_c   18.36930800
_cell_angle_alpha   90.00000000
_cell_angle_beta   90.00000000
_cell_angle_gamma   90.00000000
_symmetry_Int_Tables_number   1
_chemical_formula_structural   FeH9(SO6)2
_chemical_formula_sum   'Fe4 H36 S8 O48'
_cell_volume   997.29187395
_cell_formula_units_Z   4
loop_
 _symmetry_equiv_pos_site_id
 _symmetry_equiv_pos_as_xyz
  1  'x, y, z'
loop_
 _atom_site_type_symbol
 _atom_site_label
 _atom_site_symmetry_multiplicity
 _atom_site_fract_x
 _atom_site_fract_y
 _atom_site_fract_z
 _atom_site_occupancy
  Fe  Fe0  1  0.50000000  0.50000000  0.00000000  1
  Fe  Fe1  1  0.00000000  0.00000000  0.50000000  1
  Fe  Fe2  1  0.50000000  0.50000000  0.50000000  1
  Fe  Fe3  1  0.00000000  0.00000000  0.00000000  1
  H  H0  1  0.93585100  0.99467100  0.25000000  1
  H  H1  1  0.56414900  0.49467100  0.25000000  1
  H  H2  1  0.06414900  0.00532900  0.75000000  1
  H  H3  1  0.43585100  0.50532900  0.75000000  1
  H  H4  1  0.66393400  0.91310800  0.09730000  1
  H  H5  1  0.83606600  0.41310800  0.40270000  1
  H  H6  1  0.33606600  0.08689200  0.59730000  1
  H  H7  1  0.16393400  0.58689200  0.90270000  1
  H  H8  1  0.33606600  0.08689200  0.90270000  1
  H  H9  1  0.16393400  0.58689200  0.59730000  1
  H  H10  1  0.66393400  0.91310800  0.40270000  1
  H  H11  1  0.83606600  0.41310800  0.09730000  1
  H  H12  1  0.94696600  0.83098100  0.20499500  1
  H  H13  1  0.55303400  0.33098100  0.29500500  1
  H  H14  1  0.05303400  0.16901900  0.70499500  1
  H  H15  1  0.44696600  0.66901900  0.79500500  1
  H  H16  1  0.05303400  0.16901900  0.79500500  1
  H  H17  1  0.44696600  0.66901900  0.70499500  1
  H  H18  1  0.94696600  0.83098100  0.29500500  1
  H  H19  1  0.55303400  0.33098100  0.20499500  1
  H  H20  1  0.68460600  0.07474500  0.10264200  1
  H  H21  1  0.81539400  0.57474500  0.39735800  1
  H  H22  1  0.31539400  0.92525500  0.60264200  1
  H  H23  1  0.18460600  0.42525500  0.89735800  1
  H  H24  1  0.31539400  0.92525500  0.89735800  1
  H  H25  1  0.18460600  0.42525500  0.60264200  1
  H  H26  1  0.68460600  0.07474500  0.39735800  1
  H  H27  1  0.81539400  0.57474500  0.10264200  1
  H  H28  1  0.99749200  0.18676500  0.20631000  1
  H  H29  1  0.50250800  0.68676500  0.29369000  1
  H  H30  1  0.00250800  0.81323500  0.70631000  1
  H  H31  1  0.49749200  0.31323500  0.79369000  1
  H  H32  1  0.00250800  0.81323500  0.79369000  1
  H  H33  1  0.49749200  0.31323500  0.70631000  1
  H  H34  1  0.99749200  0.18676500  0.29369000  1
  H  H35  1  0.50250800  0.68676500  0.20631000  1
  S  S0  1  0.21198000  0.73615700  0.08870300  1
  S  S1  1  0.28802000  0.23615700  0.41129700  1
  S  S2  1  0.78802000  0.26384300  0.58870300  1
  S  S3  1  0.71198000  0.76384300  0.91129700  1
  S  S4  1  0.78802000  0.26384300  0.91129700  1
  S  S5  1  0.71198000  0.76384300  0.58870300  1
  S  S6  1  0.21198000  0.73615700  0.41129700  1
  S  S7  1  0.28802000  0.23615700  0.08870300  1
  O  O0  1  0.95084600  0.13359200  0.25000000  1
  O  O1  1  0.54915400  0.63359200  0.25000000  1
  O  O2  1  0.04915400  0.86640800  0.75000000  1
  O  O3  1  0.45084600  0.36640800  0.75000000  1
  O  O4  1  0.16419400  0.82368600  0.02298400  1
  O  O5  1  0.33580600  0.32368600  0.47701600  1
  O  O6  1  0.83580600  0.17631400  0.52298400  1
  O  O7  1  0.66419400  0.67631400  0.97701600  1
  O  O8  1  0.83580600  0.17631400  0.97701600  1
  O  O9  1  0.66419400  0.67631400  0.52298400  1
  O  O10  1  0.16419400  0.82368600  0.47701600  1
  O  O11  1  0.33580600  0.32368600  0.02298400  1
  O  O12  1  0.77771500  0.99040000  0.09196000  1
  O  O13  1  0.72228500  0.49040000  0.40804000  1
  O  O14  1  0.22228500  0.00960000  0.59196000  1
  O  O15  1  0.27771500  0.50960000  0.90804000  1
  O  O16  1  0.22228500  0.00960000  0.90804000  1
  O  O17  1  0.27771500  0.50960000  0.59196000  1
  O  O18  1  0.77771500  0.99040000  0.40804000  1
  O  O19  1  0.72228500  0.49040000  0.09196000  1
  O  O20  1  0.42390600  0.78746600  0.12842000  1
  O  O21  1  0.07609400  0.28746600  0.37158000  1
  O  O22  1  0.57609400  0.21253400  0.62842000  1
  O  O23  1  0.92390600  0.71253400  0.87158000  1
  O  O24  1  0.57609400  0.21253400  0.87158000  1
  O  O25  1  0.92390600  0.71253400  0.62842000  1
  O  O26  1  0.42390600  0.78746600  0.37158000  1
  O  O27  1  0.07609400  0.28746600  0.12842000  1
  O  O28  1  0.25322100  0.59349200  0.06081800  1
  O  O29  1  0.24677900  0.09349200  0.43918200  1
  O  O30  1  0.74677900  0.40650800  0.56081800  1
  O  O31  1  0.75322100  0.90650800  0.93918200  1
  O  O32  1  0.74677900  0.40650800  0.93918200  1
  O  O33  1  0.75322100  0.90650800  0.56081800  1
  O  O34  1  0.25322100  0.59349200  0.43918200  1
  O  O35  1  0.24677900  0.09349200  0.06081800  1
  O  O36  1  0.99548900  0.72807600  0.13558800  1
  O  O37  1  0.50451100  0.22807600  0.36441200  1
  O  O38  1  0.00451100  0.27192400  0.63558800  1
  O  O39  1  0.49548900  0.77192400  0.86441200  1
  O  O40  1  0.00451100  0.27192400  0.86441200  1
  O  O41  1  0.49548900  0.77192400  0.63558800  1
  O  O42  1  0.99548900  0.72807600  0.36441200  1
  O  O43  1  0.50451100  0.22807600  0.13558800  1
  O  O44  1  0.90084200  0.88385300  0.25000000  1
  O  O45  1  0.59915800  0.38385300  0.25000000  1
  O  O46  1  0.09915800  0.11614700  0.75000000  1
  O  O47  1  0.40084200  0.61614700  0.75000000  1
loop_
_geom_bond_atom_site_label_1
_geom_bond_atom_site_label_2
_geom_bond_distance
_geom_bond_site_symmetry_2
Fe0 O28 1.991002 1_555
Fe0 O32 1.991002 1_554
Fe0 O11 1.993947 1_555
Fe0 O7 1.993947 1_554
Fe0 O15 2.095161 1_554
Fe0 O19 2.095161 1_555
Fe1 O33 1.991002 1_445
Fe1 O29 1.991002 1_555
Fe1 O6 1.993947 1_455
Fe1 O10 1.993947 1_545
Fe1 O14 2.095161 1_555
Fe1 O18 2.095161 1_445
Fe2 O30 1.991002 1_555
Fe2 O34 1.991002 1_555
Fe2 O9 1.993947 1_555
Fe2 O5 1.993947 1_555
Fe2 O13 2.095161 1_555
Fe2 O17 2.095161 1_555
Fe3 O35 1.991002 1_555
Fe3 O31 1.991002 1_444
Fe3 O4 1.993947 1_545
Fe3 O8 1.993947 1_454
Fe3 O16 2.095161 1_554
Fe3 O12 2.095161 1_445
H0 O44 1.099490 1_555
H0 O0 1.359105 1_565
H1 O45 1.099490 1_555
H1 O1 1.359105 1_555
H2 O46 1.099490 1_555
H2 O2 1.359105 1_545
H3 O47 1.099490 1_555
H3 O3 1.359105 1_555
H4 O12 0.989673 1_555
H5 O13 0.989673 1_555
H6 O14 0.989673 1_555
H7 O15 0.989673 1_555
H8 O16 0.989673 1_555
H9 O17 0.989673 1_555
H10 O18 0.989673 1_555
H11 O19 0.989673 1_555
H12 O44 1.007853 1_555
H12 O36 1.645610 1_555
H13 O45 1.007853 1_555
H13 O37 1.645610 1_555
H14 O46 1.007853 1_555
H14 O38 1.645610 1_555
H15 O47 1.007853 1_555
H15 O39 1.645610 1_555
H16 O46 1.007853 1_555
H16 O40 1.645610 1_555
H17 O47 1.007853 1_555
H17 O41 1.645610 1_555
H18 O44 1.007853 1_555
H18 O42 1.645610 1_555
H19 O45 1.007853 1_555
H19 O43 1.645610 1_555
H20 O12 0.992388 1_545
H21 O13 0.992388 1_555
H22 O14 0.992388 1_565
H23 O15 0.992388 1_555
H24 O16 0.992388 1_565
H25 O17 0.992388 1_555
H26 O18 0.992388 1_545
H27 O19 0.992388 1_555
H28 O0 0.990430 1_555
H29 O1 0.990430 1_555
H30 O2 0.990430 1_555
H31 O3 0.990430 1_555
H32 O2 0.990430 1_555
H33 O3 0.990430 1_555
H34 O0 0.990430 1_555
H35 O1 0.990430 1_555
O4 S0 1.502823 1_555
O5 S1 1.502823 1_555
O6 S2 1.502823 1_555
O7 S3 1.502823 1_555
O8 S4 1.502823 1_555
O9 S5 1.502823 1_555
O10 S6 1.502823 1_555
O11 S7 1.502823 1_555
O20 S0 1.473648 1_555
O21 S1 1.473648 1_555
O22 S2 1.473648 1_555
O23 S3 1.473648 1_555
O24 S4 1.473648 1_555
O25 S5 1.473648 1_555
O26 S6 1.473648 1_555
O27 S7 1.473648 1_555
O28 S0 1.501898 1_555
O29 S1 1.501898 1_555
O30 S2 1.501898 1_555
O31 S3 1.501898 1_555
O32 S4 1.501898 1_555
O33 S5 1.501898 1_555
O34 S6 1.501898 1_555
O35 S7 1.501898 1_555
O36 S0 1.482147 1_655
O37 S1 1.482147 1_555
O38 S2 1.482147 1_455
O39 S3 1.482147 1_555
O40 S4 1.482147 1_455
O41 S5 1.482147 1_555
O42 S6 1.482147 1_655
O43 S7 1.482147 1_555
