# generated using pymatgen
data_Cu3SbSe4
_symmetry_space_group_name_H-M   'P 1'
_cell_length_a   13.67849301
_cell_length_b   13.67849301
_cell_length_c   13.67849277
_cell_angle_alpha   16.80663330
_cell_angle_beta   16.80663330
_cell_angle_gamma   16.80663341
_symmetry_Int_Tables_number   1
_chemical_formula_structural   Cu3SbSe4
_chemical_formula_sum   'Cu3 Sb1 Se4'
_cell_volume   186.62597916
_cell_formula_units_Z   1
loop_
 _symmetry_equiv_pos_site_id
 _symmetry_equiv_pos_as_xyz
  1  'x, y, z'
loop_
 _atom_site_type_symbol
 _atom_site_label
 _atom_site_symmetry_multiplicity
 _atom_site_fract_x
 _atom_site_fract_y
 _atom_site_fract_z
 _atom_site_occupancy
  Cu  Cu0  1  0.99374100  0.99374100  0.99374100  1
  Cu  Cu1  1  0.25026800  0.25026800  0.25026800  1
  Cu  Cu2  1  0.51238100  0.51238100  0.51238100  1
  Sb  Sb0  1  0.74247200  0.74247200  0.74247200  1
  Se  Se0  1  0.93493000  0.93493000  0.93493000  1
  Se  Se1  1  0.19064400  0.19064400  0.19064400  1
  Se  Se2  1  0.45101000  0.45101000  0.45101000  1
  Se  Se3  1  0.67455300  0.67455300  0.67455300  1
loop_
_geom_bond_atom_site_label_1
_geom_bond_atom_site_label_2
_geom_bond_distance
_geom_bond_site_symmetry_2
Cu0 Se3 2.378073 1_556
Cu0 Se3 2.378073 1_655
Cu0 Se3 2.378073 1_565
Cu0 Se0 2.378728 1_555
Cu1 Se1 2.411612 1_555
Cu1 Se0 2.420261 1_445
Cu1 Se0 2.420261 1_454
Cu1 Se0 2.420261 1_544
Cu2 Se1 2.355395 1_556
Cu2 Se1 2.355395 1_655
Cu2 Se1 2.355395 1_565
Cu2 Se2 2.482273 1_555
Sb0 Se3 2.747120 1_555
Sb0 Se2 2.862877 1_556
Sb0 Se2 2.862878 1_655
Sb0 Se2 2.862878 1_565
