# generated using pymatgen
data_Ca5Cu2(RhO6)2
_symmetry_space_group_name_H-M   'P 1'
_cell_length_a   6.57109811
_cell_length_b   6.53425852
_cell_length_c   6.40682473
_cell_angle_alpha   90.98684604
_cell_angle_beta   90.52511473
_cell_angle_gamma   91.90318214
_symmetry_Int_Tables_number   1
_chemical_formula_structural   Ca5Cu2(RhO6)2
_chemical_formula_sum   'Ca5 Cu2 Rh2 O12'
_cell_volume   274.88588172
_cell_formula_units_Z   1
loop_
 _symmetry_equiv_pos_site_id
 _symmetry_equiv_pos_as_xyz
  1  'x, y, z'
loop_
 _atom_site_type_symbol
 _atom_site_label
 _atom_site_symmetry_multiplicity
 _atom_site_fract_x
 _atom_site_fract_y
 _atom_site_fract_z
 _atom_site_occupancy
  Ca  Ca0  1  0.75449500  0.61910100  0.37499200  1
  Ca  Ca1  1  0.08131500  0.89449100  0.75201300  1
  Ca  Ca2  1  0.38839400  0.22743100  0.12814600  1
  Ca  Ca3  1  0.89796700  0.09441300  0.23885100  1
  Ca  Ca4  1  0.23911400  0.38907300  0.63141800  1
  Cu  Cu0  1  0.31473200  0.68859800  0.24231000  1
  Cu  Cu1  1  0.68495800  0.32628500  0.75212900  1
  Rh  Rh0  1  0.50189800  0.00096400  0.50804300  1
  Rh  Rh1  1  0.99898400  0.49893000  0.00333000  1
  O  O0  1  0.79105600  0.92771800  0.54739400  1
  O  O1  1  0.46995400  0.13831600  0.78907100  1
  O  O2  1  0.93125100  0.77920200  0.08004900  1
  O  O3  1  0.08480000  0.20759800  0.93694000  1
  O  O4  1  0.71366800  0.36814200  0.04578300  1
  O  O5  1  0.38216800  0.70983100  0.52875100  1
  O  O6  1  0.11882300  0.47326500  0.29346700  1
  O  O7  1  0.21296300  0.08112400  0.43945600  1
  O  O8  1  0.52166800  0.89161500  0.21245900  1
  O  O9  1  0.61138500  0.29634400  0.46168600  1
  O  O10  1  0.28362900  0.60689300  0.95593200  1
  O  O11  1  0.90243000  0.51661600  0.70171600  1
loop_
_geom_bond_atom_site_label_1
_geom_bond_atom_site_label_2
_geom_bond_distance
_geom_bond_site_symmetry_2
Ca0 O0 2.287048 1_555
Ca0 O9 2.357715 1_555
Ca0 O11 2.414414 1_555
Ca0 O2 2.458015 1_555
Ca0 O8 2.609878 1_555
Ca0 O4 2.655362 1_555
Ca0 O6 2.658872 1_655
Ca0 O5 2.725464 1_555
Ca1 O0 2.322735 1_455
Ca1 O3 2.345838 1_565
Ca1 O2 2.449503 1_456
Ca1 O7 2.508256 1_565
Ca1 O10 2.687836 1_555
Ca1 O11 2.712021 1_455
Ca1 O5 2.749738 1_555
Ca1 O1 2.970207 1_565
Ca2 O1 2.311730 1_554
Ca2 O3 2.330204 1_554
Ca2 O4 2.366261 1_555
Ca2 O8 2.456325 1_545
Ca2 O7 2.501105 1_555
Ca2 O9 2.604222 1_555
Ca2 O6 2.646652 1_555
Ca2 O10 2.834240 1_554
Ca3 O2 2.299354 1_545
Ca3 O0 2.374114 1_545
Ca3 O3 2.414166 1_654
Ca3 O7 2.431207 1_655
Ca3 O4 2.527540 1_555
Ca3 O9 2.734035 1_555
Ca3 O8 2.768715 1_545
Ca3 O6 2.842363 1_655
Ca4 O7 2.340735 1_555
Ca4 O5 2.374262 1_555
Ca4 O6 2.377825 1_555
Ca4 O11 2.433073 1_455
Ca4 O1 2.489948 1_555
Ca4 O10 2.508639 1_555
Ca4 O3 2.510446 1_555
Ca4 O9 2.767348 1_555
Cu0 O8 1.881247 1_555
Cu0 O5 1.885664 1_555
Cu0 O10 1.909276 1_554
Cu0 O6 1.909904 1_555
Cu1 O1 1.860513 1_555
Cu1 O11 1.896686 1_555
Cu1 O4 1.903251 1_556
Cu1 O9 1.923365 1_555
O0 Rh0 1.989656 1_565
O1 Rh0 2.013734 1_555
O2 Rh1 1.954674 1_555
O3 Rh1 2.042194 1_456
O4 Rh1 2.056764 1_555
O5 Rh0 2.041244 1_565
O6 Rh1 2.023924 1_455
O7 Rh0 2.032460 1_555
O8 Rh0 2.019352 1_565
O9 Rh0 2.064580 1_555
O10 Rh1 2.004630 1_456
O11 Rh1 2.034727 1_556
