# generated using pymatgen
data_SrCdGe
_symmetry_space_group_name_H-M   'P 1'
_cell_length_a   4.63471288
_cell_length_b   7.84081607
_cell_length_c   8.48489011
_cell_angle_alpha   90.00000000
_cell_angle_beta   90.00000000
_cell_angle_gamma   90.00000000
_symmetry_Int_Tables_number   1
_chemical_formula_structural   SrCdGe
_chemical_formula_sum   'Sr4 Cd4 Ge4'
_cell_volume   308.34032309
_cell_formula_units_Z   4
loop_
 _symmetry_equiv_pos_site_id
 _symmetry_equiv_pos_as_xyz
  1  'x, y, z'
loop_
 _atom_site_type_symbol
 _atom_site_label
 _atom_site_symmetry_multiplicity
 _atom_site_fract_x
 _atom_site_fract_y
 _atom_site_fract_z
 _atom_site_occupancy
  Sr  Sr0  1  0.25000000  0.51221290  0.31035592  1
  Sr  Sr1  1  0.25000000  0.01221290  0.18964408  1
  Sr  Sr2  1  0.75000000  0.48778710  0.68964408  1
  Sr  Sr3  1  0.75000000  0.98778710  0.81035592  1
  Cd  Cd0  1  0.25000000  0.65517801  0.93120523  1
  Cd  Cd1  1  0.25000000  0.15517801  0.56879477  1
  Cd  Cd2  1  0.75000000  0.34482199  0.06879477  1
  Cd  Cd3  1  0.75000000  0.84482199  0.43120523  1
  Ge  Ge0  1  0.25000000  0.27867255  0.89265687  1
  Ge  Ge1  1  0.25000000  0.77867255  0.60734313  1
  Ge  Ge2  1  0.75000000  0.72132745  0.10734313  1
  Ge  Ge3  1  0.75000000  0.22132745  0.39265687  1
loop_
_geom_bond_atom_site_label_1
_geom_bond_atom_site_label_2
_geom_bond_distance
_geom_bond_site_symmetry_2
Cd0 Ge2 2.805836 1_556
Cd0 Ge2 2.805836 1_456
Cd0 Ge1 2.913545 1_555
Cd0 Ge0 2.970174 1_555
Cd0 Sr2 3.360609 1_555
Cd0 Sr2 3.360609 1_455
Cd0 Sr0 3.406755 1_556
Cd0 Sr1 3.556034 1_566
Cd0 Sr3 3.636324 1_455
Cd0 Sr3 3.636324 1_555
Cd1 Ge3 2.805836 1_455
Cd1 Ge3 2.805836 1_555
Cd1 Ge0 2.913545 1_555
Cd1 Ge1 2.970174 1_545
Cd1 Sr3 3.360609 1_545
Cd1 Sr3 3.360609 1_445
Cd1 Sr1 3.406755 1_555
Cd1 Sr0 3.556034 1_555
Cd1 Sr2 3.636324 1_455
Cd1 Sr2 3.636324 1_555
Cd2 Ge0 2.805836 1_554
Cd2 Ge0 2.805836 1_654
Cd2 Ge3 2.913545 1_555
Cd2 Ge2 2.970174 1_555
Cd2 Sr0 3.360609 1_655
Cd2 Sr0 3.360609 1_555
Cd2 Sr2 3.406755 1_554
Cd2 Sr3 3.556034 1_544
Cd2 Sr1 3.636324 1_555
Cd2 Sr1 3.636324 1_655
Cd3 Ge1 2.805836 1_555
Cd3 Ge1 2.805836 1_655
Cd3 Ge2 2.913545 1_555
Cd3 Ge3 2.970174 1_565
Cd3 Sr1 3.360609 1_565
Cd3 Sr1 3.360609 1_665
Cd3 Sr3 3.406755 1_555
Cd3 Sr2 3.556034 1_555
Cd3 Sr0 3.636324 1_555
Cd3 Sr0 3.636324 1_655
Ge0 Sr1 3.273366 1_556
Ge0 Sr2 3.320493 1_555
Ge0 Sr2 3.320493 1_455
Ge0 Sr3 3.325618 1_545
Ge0 Sr3 3.325618 1_445
Ge1 Sr0 3.273366 1_555
Ge1 Sr3 3.320493 1_455
Ge1 Sr3 3.320493 1_555
Ge1 Sr2 3.325618 1_555
Ge1 Sr2 3.325618 1_455
Ge2 Sr3 3.273366 1_554
Ge2 Sr0 3.320493 1_555
Ge2 Sr0 3.320493 1_655
Ge2 Sr1 3.325618 1_565
Ge2 Sr1 3.325618 1_665
Ge3 Sr2 3.273366 1_555
Ge3 Sr1 3.320493 1_655
Ge3 Sr1 3.320493 1_555
Ge3 Sr0 3.325618 1_655
Ge3 Sr0 3.325618 1_555
