# generated using pymatgen
data_HfP3
_symmetry_space_group_name_H-M   'P 1'
_cell_length_a   5.57469210
_cell_length_b   5.57469210
_cell_length_c   4.92798800
_cell_angle_alpha   90.00000000
_cell_angle_beta   90.00000000
_cell_angle_gamma   120.00000113
_symmetry_Int_Tables_number   1
_chemical_formula_structural   HfP3
_chemical_formula_sum   'Hf2 P6'
_cell_volume   132.63008217
_cell_formula_units_Z   2
loop_
 _symmetry_equiv_pos_site_id
 _symmetry_equiv_pos_as_xyz
  1  'x, y, z'
loop_
 _atom_site_type_symbol
 _atom_site_label
 _atom_site_symmetry_multiplicity
 _atom_site_fract_x
 _atom_site_fract_y
 _atom_site_fract_z
 _atom_site_occupancy
  Hf  Hf0  1  0.33333300  0.66666700  0.75000000  1
  Hf  Hf1  1  0.66666700  0.33333300  0.25000000  1
  P  P0  1  0.19087500  0.38175000  0.25000000  1
  P  P1  1  0.61825000  0.80912500  0.25000000  1
  P  P2  1  0.19087500  0.80912500  0.25000000  1
  P  P3  1  0.80912500  0.61825000  0.75000000  1
  P  P4  1  0.38175000  0.19087500  0.75000000  1
  P  P5  1  0.80912500  0.19087500  0.75000000  1
loop_
_geom_bond_atom_site_label_1
_geom_bond_atom_site_label_2
_geom_bond_distance
_geom_bond_site_symmetry_2
Hf0 P4 2.797127 1_565
Hf0 P3 2.797127 1_455
Hf0 P5 2.797130 1_565
Hf0 P5 2.797130 1_455
Hf0 P3 2.797133 1_555
Hf0 P4 2.797133 1_555
Hf0 P2 2.821938 1_556
Hf0 P2 2.821938 1_555
Hf0 P1 2.821940 1_555
Hf0 P1 2.821940 1_556
Hf0 P0 2.821940 1_555
Hf0 P0 2.821940 1_556
Hf1 P0 2.797127 1_655
Hf1 P1 2.797127 1_545
Hf1 P2 2.797130 1_655
Hf1 P2 2.797130 1_545
Hf1 P0 2.797133 1_555
Hf1 P1 2.797133 1_555
Hf1 P5 2.821938 1_554
Hf1 P5 2.821938 1_555
Hf1 P3 2.821940 1_555
Hf1 P3 2.821940 1_554
Hf1 P4 2.821940 1_555
Hf1 P4 2.821940 1_554
P0 P1 2.382484 1_555
P0 P2 2.382484 1_555
P1 P2 2.382484 1_555
P3 P4 2.382484 1_555
P3 P5 2.382484 1_555
P4 P5 2.382484 1_555
