# generated using pymatgen
data_YCr2O4
_symmetry_space_group_name_H-M   'P 1'
_cell_length_a   6.45065776
_cell_length_b   6.45065776
_cell_length_c   6.45065776
_cell_angle_alpha   126.72315348
_cell_angle_beta   126.72315348
_cell_angle_gamma   78.70280137
_symmetry_Int_Tables_number   1
_chemical_formula_structural   YCr2O4
_chemical_formula_sum   'Y2 Cr4 O8'
_cell_volume   166.89954268
_cell_formula_units_Z   2
loop_
 _symmetry_equiv_pos_site_id
 _symmetry_equiv_pos_as_xyz
  1  'x, y, z'
loop_
 _atom_site_type_symbol
 _atom_site_label
 _atom_site_symmetry_multiplicity
 _atom_site_fract_x
 _atom_site_fract_y
 _atom_site_fract_z
 _atom_site_occupancy
  Y  Y0  1  0.00000000  0.00000000  0.00000000  1
  Y  Y1  1  0.75000000  0.25000000  0.50000000  1
  Cr  Cr0  1  0.87500000  0.62500000  0.25000000  1
  Cr  Cr1  1  0.37500000  0.62500000  0.75000000  1
  Cr  Cr2  1  0.37500000  0.12500000  0.75000000  1
  Cr  Cr3  1  0.37500000  0.62500000  0.25000000  1
  O  O0  1  0.41565200  0.85594400  0.15956400  1
  O  O1  1  0.69638000  0.25608800  0.84043600  1
  O  O2  1  0.33434800  0.39405600  0.34043600  1
  O  O3  1  0.05362000  0.99391200  0.65956400  1
  O  O4  1  0.00608800  0.66565200  0.05970800  1
  O  O5  1  0.60594400  0.94638000  0.94029200  1
  O  O6  1  0.14405600  0.30362000  0.55970800  1
  O  O7  1  0.74391200  0.58434800  0.44029200  1
loop_
_geom_bond_atom_site_label_1
_geom_bond_atom_site_label_2
_geom_bond_distance
_geom_bond_site_symmetry_2
Cr0 O3 1.971221 1_655
Cr0 O1 1.971221 1_554
Cr0 O7 2.000936 1_555
Cr0 O4 2.000936 1_655
Cr1 O2 1.971221 1_555
Cr1 O0 1.971221 1_556
Cr1 O6 2.000936 1_555
Cr1 O5 2.000936 1_555
Cr2 O5 1.971221 1_545
Cr2 O6 1.971221 1_555
Cr2 O1 2.000936 1_555
Cr2 O3 2.000936 1_545
Cr3 O4 1.971221 1_555
Cr3 O7 1.971221 1_555
Cr3 O2 2.000936 1_555
Cr3 O0 2.000936 1_555
O0 Y1 2.396595 1_565
O0 Y0 2.445243 1_565
O1 Y1 2.396595 1_555
O1 Y0 2.445243 1_656
O2 Y0 2.396595 1_555
O2 Y1 2.445243 1_555
O3 Y0 2.396595 1_566
O3 Y1 2.445243 1_465
O4 Y0 2.396595 1_565
O4 Y1 2.445243 1_454
O5 Y0 2.396595 1_666
O5 Y1 2.445243 1_566
O6 Y1 2.396595 1_455
O6 Y0 2.445243 1_555
O7 Y1 2.396595 1_555
O7 Y0 2.445243 1_666
