# generated using pymatgen
data_TiAu
_symmetry_space_group_name_H-M   'P 1'
_cell_length_a   5.97295185
_cell_length_b   5.97295185
_cell_length_c   9.10803600
_cell_angle_alpha   90.00000000
_cell_angle_beta   90.00000000
_cell_angle_gamma   119.99999839
_symmetry_Int_Tables_number   1
_chemical_formula_structural   TiAu
_chemical_formula_sum   'Ti8 Au8'
_cell_volume   281.40603400
_cell_formula_units_Z   8
loop_
 _symmetry_equiv_pos_site_id
 _symmetry_equiv_pos_as_xyz
  1  'x, y, z'
loop_
 _atom_site_type_symbol
 _atom_site_label
 _atom_site_symmetry_multiplicity
 _atom_site_fract_x
 _atom_site_fract_y
 _atom_site_fract_z
 _atom_site_occupancy
  Ti  Ti0_0  1  0.00000000  0.00000000  0.00000000  1
  Ti  Ti0_1  1  0.00000000  0.00000000  0.50000000  1
  Ti  Ti0_2  1  0.00000000  0.50000000  0.00000000  1
  Ti  Ti0_3  1  0.00000000  0.50000000  0.50000000  1
  Ti  Ti0_4  1  0.50000000  0.00000000  0.00000000  1
  Ti  Ti0_5  1  0.50000000  0.00000000  0.50000000  1
  Ti  Ti0_6  1  0.50000000  0.50000000  0.00000000  1
  Ti  Ti0_7  1  0.50000000  0.50000000  0.50000000  1
  Au  Au0_0  1  0.16666650  0.33333350  0.25000000  1
  Au  Au0_1  1  0.16666650  0.33333350  0.75000000  1
  Au  Au0_2  1  0.16666650  0.83333350  0.25000000  1
  Au  Au0_3  1  0.16666650  0.83333350  0.75000000  1
  Au  Au0_4  1  0.66666650  0.33333350  0.25000000  1
  Au  Au0_5  1  0.66666650  0.33333350  0.75000000  1
  Au  Au0_6  1  0.66666650  0.83333350  0.25000000  1
  Au  Au0_7  1  0.66666650  0.83333350  0.75000000  1
loop_
_geom_bond_atom_site_label_1
_geom_bond_atom_site_label_2
_geom_bond_distance
_geom_bond_site_symmetry_2
Ti0_0 Ti0_2 2.986476 1_545
Ti0_0 Ti0_4 2.986476 1_455
Ti0_0 Ti0_4 2.986476 1_555
Ti0_0 Ti0_2 2.986476 1_555
Ti0_0 Ti0_6 2.986476 1_445
Ti0_0 Ti0_6 2.986476 1_555
Ti0_1 Ti0_3 2.986476 1_545
Ti0_1 Ti0_3 2.986476 1_555
Ti0_1 Ti0_5 2.986476 1_455
Ti0_1 Ti0_5 2.986476 1_555
Ti0_1 Ti0_7 2.986476 1_555
Ti0_1 Ti0_7 2.986476 1_445
Ti0_2 Ti0_6 2.986476 1_455
Ti0_2 Ti0_6 2.986476 1_555
Ti0_2 Ti0_4 2.986476 1_565
Ti0_2 Ti0_4 2.986476 1_455
Ti0_3 Ti0_7 2.986476 1_455
Ti0_3 Ti0_7 2.986476 1_555
Ti0_3 Ti0_5 2.986476 1_455
Ti0_3 Ti0_5 2.986476 1_565
Ti0_4 Ti0_6 2.986476 1_555
Ti0_4 Ti0_6 2.986476 1_545
Ti0_5 Ti0_7 2.986476 1_545
Ti0_5 Ti0_7 2.986476 1_555
Au0_0 Ti0_3 2.856182 1_555
Au0_0 Ti0_2 2.856182 1_555
Au0_0 Ti0_6 2.856184 1_555
Au0_0 Ti0_7 2.856184 1_555
Au0_0 Ti0_1 2.856184 1_555
Au0_0 Ti0_0 2.856184 1_555
Au0_0 Au0_2 2.986476 1_555
Au0_0 Au0_4 2.986476 1_555
Au0_0 Au0_4 2.986476 1_455
Au0_0 Au0_2 2.986476 1_545
Au0_0 Au0_6 2.986476 1_555
Au0_0 Au0_6 2.986476 1_445
Au0_1 Ti0_2 2.856182 1_556
Au0_1 Ti0_3 2.856182 1_555
Au0_1 Ti0_6 2.856184 1_556
Au0_1 Ti0_0 2.856184 1_556
Au0_1 Ti0_7 2.856184 1_555
Au0_1 Ti0_1 2.856184 1_555
Au0_1 Au0_5 2.986476 1_555
Au0_1 Au0_3 2.986476 1_555
Au0_1 Au0_5 2.986476 1_455
Au0_1 Au0_3 2.986476 1_545
Au0_1 Au0_7 2.986476 1_445
Au0_1 Au0_7 2.986476 1_555
Au0_2 Ti0_1 2.856182 1_565
Au0_2 Ti0_0 2.856182 1_565
Au0_2 Ti0_3 2.856184 1_555
Au0_2 Ti0_2 2.856184 1_555
Au0_2 Ti0_4 2.856184 1_565
Au0_2 Ti0_5 2.856184 1_565
Au0_2 Au0_6 2.986476 1_555
Au0_2 Au0_6 2.986476 1_455
Au0_2 Au0_4 2.986476 1_565
Au0_2 Au0_4 2.986476 1_455
Au0_3 Ti0_0 2.856182 1_566
Au0_3 Ti0_1 2.856182 1_565
Au0_3 Ti0_2 2.856184 1_556
Au0_3 Ti0_4 2.856184 1_566
Au0_3 Ti0_3 2.856184 1_555
Au0_3 Ti0_5 2.856184 1_565
Au0_3 Au0_7 2.986476 1_555
Au0_3 Au0_7 2.986476 1_455
Au0_3 Au0_5 2.986476 1_565
Au0_3 Au0_5 2.986476 1_455
Au0_4 Ti0_6 2.856182 1_555
Au0_4 Ti0_7 2.856182 1_555
Au0_4 Ti0_5 2.856184 1_555
Au0_4 Ti0_4 2.856184 1_555
Au0_4 Ti0_3 2.856184 1_655
Au0_4 Ti0_2 2.856184 1_655
Au0_4 Au0_6 2.986476 1_545
Au0_4 Au0_6 2.986476 1_555
Au0_5 Ti0_6 2.856182 1_556
Au0_5 Ti0_7 2.856182 1_555
Au0_5 Ti0_4 2.856184 1_556
Au0_5 Ti0_2 2.856184 1_656
Au0_5 Ti0_5 2.856184 1_555
Au0_5 Ti0_3 2.856184 1_655
Au0_5 Au0_7 2.986476 1_545
Au0_5 Au0_7 2.986476 1_555
Au0_6 Ti0_5 2.856182 1_565
Au0_6 Ti0_4 2.856182 1_565
Au0_6 Ti0_7 2.856184 1_555
Au0_6 Ti0_0 2.856184 1_665
Au0_6 Ti0_1 2.856184 1_665
Au0_6 Ti0_6 2.856184 1_555
Au0_7 Ti0_4 2.856182 1_566
Au0_7 Ti0_5 2.856182 1_565
Au0_7 Ti0_0 2.856184 1_666
Au0_7 Ti0_6 2.856184 1_556
Au0_7 Ti0_1 2.856184 1_665
Au0_7 Ti0_7 2.856184 1_555
