# generated using pymatgen
data_CeMn10Cu
_symmetry_space_group_name_H-M   'P 1'
_cell_length_a   4.74348300
_cell_length_b   8.20966742
_cell_length_c   8.20966742
_cell_angle_alpha   89.75077749
_cell_angle_beta   90.00000000
_cell_angle_gamma   90.00000000
_symmetry_Int_Tables_number   1
_chemical_formula_structural   CeMn10Cu
_chemical_formula_sum   'Ce2 Mn20 Cu2'
_cell_volume   319.70127427
_cell_formula_units_Z   2
loop_
 _symmetry_equiv_pos_site_id
 _symmetry_equiv_pos_as_xyz
  1  'x, y, z'
loop_
 _atom_site_type_symbol
 _atom_site_label
 _atom_site_symmetry_multiplicity
 _atom_site_fract_x
 _atom_site_fract_y
 _atom_site_fract_z
 _atom_site_occupancy
  Ce  Ce0  1  0.99409900  0.50000000  0.50000000  1
  Ce  Ce1  1  0.99409900  0.00000000  0.00000000  1
  Mn  Mn0  1  0.00026100  0.11288800  0.61288800  1
  Mn  Mn1  1  0.00026100  0.88711200  0.38711200  1
  Mn  Mn2  1  0.99852400  0.38217500  0.11782500  1
  Mn  Mn3  1  0.99852400  0.61782500  0.88217500  1
  Mn  Mn4  1  0.49408100  0.57220400  0.71803700  1
  Mn  Mn5  1  0.49408100  0.42779600  0.28196300  1
  Mn  Mn6  1  0.49244700  0.93685300  0.22083300  1
  Mn  Mn7  1  0.49244700  0.06314700  0.77916700  1
  Mn  Mn8  1  0.49244700  0.72083300  0.43685300  1
  Mn  Mn9  1  0.49244700  0.27916700  0.56314700  1
  Mn  Mn10  1  0.49408100  0.21803700  0.07220400  1
  Mn  Mn11  1  0.49408100  0.78196300  0.92779600  1
  Mn  Mn12  1  0.76972800  0.17668900  0.32331100  1
  Mn  Mn13  1  0.76972800  0.82331100  0.67668900  1
  Mn  Mn14  1  0.26166100  0.67814300  0.17814300  1
  Mn  Mn15  1  0.26166100  0.32185700  0.82185700  1
  Mn  Mn16  1  0.23016000  0.82288600  0.67711400  1
  Mn  Mn17  1  0.23016000  0.17711400  0.32288600  1
  Mn  Mn18  1  0.49805900  0.00000000  0.50000000  1
  Mn  Mn19  1  0.49826900  0.50000000  0.00000000  1
  Cu  Cu0  1  0.77434800  0.32109900  0.82109900  1
  Cu  Cu1  1  0.77434800  0.67890100  0.17890100  1
loop_
_geom_bond_atom_site_label_1
_geom_bond_atom_site_label_2
_geom_bond_distance
_geom_bond_site_symmetry_2
Ce0 Mn8 3.022494 1_655
Ce0 Mn9 3.022494 1_655
Ce0 Mn5 3.031419 1_655
Ce0 Mn4 3.031419 1_655
Ce0 Mn4 3.031553 1_555
Ce0 Mn5 3.031553 1_555
Ce0 Mn8 3.034767 1_555
Ce0 Mn9 3.034767 1_555
Ce0 Cu1 3.187338 1_555
Ce0 Cu0 3.187338 1_555
Ce0 Mn12 3.211779 1_555
Ce0 Mn13 3.211779 1_555
Ce0 Mn16 3.229287 1_655
Ce0 Mn17 3.229287 1_655
Ce0 Mn15 3.270785 1_655
Ce0 Mn14 3.270785 1_655
Ce0 Mn2 3.287341 1_555
Ce0 Mn3 3.287341 1_555
Ce0 Mn1 3.306692 1_655
Ce0 Mn0 3.306692 1_655
Ce1 Mn6 3.022494 1_645
Ce1 Mn7 3.022494 1_654
Ce1 Mn10 3.031419 1_655
Ce1 Mn11 3.031419 1_644
Ce1 Mn10 3.031553 1_555
Ce1 Mn11 3.031553 1_544
Ce1 Mn7 3.034767 1_554
Ce1 Mn6 3.034767 1_545
Ce1 Cu0 3.187338 1_554
Ce1 Cu1 3.187338 1_545
Ce1 Mn13 3.211779 1_544
Ce1 Mn12 3.211779 1_555
Ce1 Mn17 3.229287 1_655
Ce1 Mn16 3.229287 1_644
Ce1 Mn14 3.270785 1_645
Ce1 Mn15 3.270785 1_654
Ce1 Mn2 3.287341 1_555
Ce1 Mn3 3.287341 1_544
Ce1 Mn1 3.306692 1_645
Ce1 Mn0 3.306692 1_654
Mn0 Mn1 2.627005 1_545
Mn0 Mn12 2.666651 1_455
Mn0 Mn13 2.666651 1_445
Mn0 Mn17 2.669202 1_555
Mn0 Mn16 2.669202 1_545
Mn0 Mn18 2.702038 1_555
Mn0 Mn18 2.720313 1_455
Mn0 Mn15 2.729360 1_555
Mn0 Mn7 2.734246 1_555
Mn0 Mn9 2.734246 1_555
Mn0 Mn9 2.797810 1_455
Mn0 Mn7 2.797810 1_455
Mn1 Mn13 2.666651 1_455
Mn1 Mn12 2.666651 1_465
Mn1 Mn17 2.669202 1_565
Mn1 Mn16 2.669202 1_555
Mn1 Mn18 2.702038 1_565
Mn1 Mn18 2.720313 1_465
Mn1 Mn14 2.729360 1_555
Mn1 Mn8 2.734246 1_555
Mn1 Mn6 2.734246 1_555
Mn1 Mn8 2.797810 1_455
Mn1 Mn6 2.797810 1_455
Mn2 Mn3 2.729992 1_554
Mn2 Mn5 2.736074 1_655
Mn2 Mn5 2.772371 1_555
Mn3 Mn4 2.736074 1_655
Mn3 Mn4 2.772371 1_555
Mn4 Mn8 2.606390 1_555
Mn4 Mn9 2.726022 1_555
Mn5 Mn9 2.606390 1_555
Mn5 Mn8 2.726022 1_555
Mn6 Mn8 2.502580 1_555
Mn7 Mn9 2.502580 1_555
Mn10 Mn19 2.387098 1_555
Mn10 Mn17 2.430957 1_555
Mn10 Mn5 2.440640 1_555
Mn10 Mn12 2.463447 1_555
Mn10 Mn15 2.480081 1_554
Mn10 Mn6 2.606390 1_545
Mn10 Mn7 2.726022 1_554
Mn10 Mn2 2.736074 1_455
Mn10 Mn2 2.772371 1_555
Mn11 Mn19 2.387098 1_556
Mn11 Mn16 2.430957 1_555
Mn11 Mn4 2.440640 1_555
Mn11 Mn13 2.463447 1_555
Mn11 Mn14 2.480081 1_556
Mn11 Mn7 2.606390 1_565
Mn11 Mn6 2.726022 1_556
Mn11 Mn3 2.736074 1_455
Mn11 Mn3 2.772371 1_555
Mn12 Mn17 2.184057 1_655
Mn12 Mn18 2.418795 1_555
Mn12 Mn5 2.463447 1_555
Mn12 Mn6 2.515756 1_545
Mn12 Mn9 2.515756 1_555
Mn12 Mn17 2.559436 1_555
Mn12 Mn2 2.616265 1_555
Mn13 Mn16 2.184057 1_655
Mn13 Mn18 2.418795 1_565
Mn13 Mn4 2.463447 1_555
Mn13 Mn8 2.515756 1_555
Mn13 Mn7 2.515756 1_565
Mn13 Mn16 2.559436 1_555
Mn13 Mn3 2.616265 1_555
Mn14 Mn19 2.357127 1_555
Mn14 Mn8 2.416358 1_555
Mn14 Mn6 2.416358 1_555
Mn14 Mn5 2.480081 1_555
Mn14 Mn2 2.778052 1_455
Mn14 Mn3 2.778052 1_454
Mn15 Mn19 2.357127 1_556
Mn15 Mn7 2.416358 1_555
Mn15 Mn9 2.416358 1_555
Mn15 Mn4 2.480081 1_555
Mn15 Mn3 2.778052 1_455
Mn15 Mn2 2.778052 1_456
Mn16 Mn18 2.413500 1_565
Mn16 Mn4 2.430957 1_555
Mn16 Mn8 2.480897 1_555
Mn16 Mn7 2.480897 1_565
Mn16 Mn3 2.617413 1_455
Mn17 Mn18 2.413500 1_555
Mn17 Mn5 2.430957 1_555
Mn17 Mn6 2.480897 1_545
Mn17 Mn9 2.480897 1_555
Mn17 Mn2 2.617413 1_455
Mn18 Mn6 2.352118 1_545
Mn18 Mn9 2.352118 1_555
Mn18 Mn8 2.352118 1_545
Mn18 Mn7 2.352118 1_555
Mn19 Mn4 2.387098 1_554
Mn19 Mn5 2.387098 1_555
Mn19 Mn2 2.735441 1_455
Mn19 Mn3 2.735441 1_454
Mn19 Mn3 2.737537 1_554
Mn19 Mn2 2.737537 1_555
Cu0 Mn15 2.311578 1_655
Cu0 Mn15 2.431938 1_555
Cu0 Mn19 2.459272 1_556
Cu0 Mn7 2.529345 1_555
Cu0 Mn9 2.529345 1_555
Cu0 Mn10 2.591885 1_556
Cu0 Mn4 2.591885 1_555
Cu0 Mn0 2.649053 1_655
Cu0 Mn2 2.706845 1_556
Cu0 Mn3 2.706845 1_555
Cu1 Mn14 2.311578 1_655
Cu1 Mn14 2.431938 1_555
Cu1 Mn19 2.459272 1_555
Cu1 Mn8 2.529345 1_555
Cu1 Mn6 2.529345 1_555
Cu1 Mn5 2.591885 1_555
Cu1 Mn11 2.591885 1_554
Cu1 Mn1 2.649053 1_655
Cu1 Mn3 2.706845 1_554
Cu1 Mn2 2.706845 1_555
