# generated using pymatgen
data_NaNd(FeO3)4
_symmetry_space_group_name_H-M   'P 1'
_cell_length_a   5.37851638
_cell_length_b   5.37851638
_cell_length_c   7.66081013
_cell_angle_alpha   90.00000000
_cell_angle_beta   90.00000000
_cell_angle_gamma   90.00000000
_symmetry_Int_Tables_number   1
_chemical_formula_structural   NaNd(FeO3)4
_chemical_formula_sum   'Na1 Nd1 Fe4 O12'
_cell_volume   221.61527432
_cell_formula_units_Z   1
loop_
 _symmetry_equiv_pos_site_id
 _symmetry_equiv_pos_as_xyz
  1  'x, y, z'
loop_
 _atom_site_type_symbol
 _atom_site_label
 _atom_site_symmetry_multiplicity
 _atom_site_fract_x
 _atom_site_fract_y
 _atom_site_fract_z
 _atom_site_occupancy
  Na  Na0  1  0.50000000  0.50000000  -0.00000000  1
  Nd  Nd0  1  0.00000000  0.00000000  0.50000000  1
  Fe  Fe0  1  -0.00000000  0.50000000  0.75529083  1
  Fe  Fe1  1  -0.00000000  0.50000000  0.24470917  1
  Fe  Fe2  1  0.50000000  0.00000000  0.24470917  1
  Fe  Fe3  1  0.50000000  -0.00000000  0.75529083  1
  O  O0  1  0.24194020  0.24194020  0.26185151  1
  O  O1  1  0.24194020  0.24194020  0.73814849  1
  O  O2  1  0.75805980  0.75805980  0.73814849  1
  O  O3  1  0.75805980  0.75805980  0.26185151  1
  O  O4  1  0.75805980  0.24194020  0.73814849  1
  O  O5  1  0.75805980  0.24194020  0.26185151  1
  O  O6  1  0.24194020  0.75805980  0.73814849  1
  O  O7  1  0.24194020  0.75805980  0.26185151  1
  O  O8  1  0.00000000  0.50000000  0.50000000  1
  O  O9  1  -0.00000000  0.50000000  0.00000000  1
  O  O10  1  0.50000000  0.00000000  0.50000000  1
  O  O11  1  0.50000000  -0.00000000  0.00000000  1
loop_
_geom_bond_atom_site_label_1
_geom_bond_atom_site_label_2
_geom_bond_distance
_geom_bond_site_symmetry_2
Na0 O11 2.689258 1_565
Na0 O9 2.689258 1_555
Na0 O9 2.689258 1_655
Na0 O11 2.689258 1_555
Na0 O2 2.806597 1_554
Na0 O6 2.806597 1_554
Na0 O4 2.806597 1_554
Na0 O0 2.806597 1_555
Na0 O1 2.806597 1_554
Na0 O7 2.806597 1_555
Na0 O5 2.806597 1_555
Na0 O3 2.806597 1_555
Nd0 O7 2.591357 1_545
Nd0 O5 2.591357 1_455
Nd0 O0 2.591357 1_555
Nd0 O6 2.591357 1_545
Nd0 O1 2.591357 1_555
Nd0 O2 2.591357 1_445
Nd0 O4 2.591357 1_455
Nd0 O3 2.591357 1_445
Nd0 O10 2.689258 1_555
Nd0 O10 2.689258 1_455
Nd0 O8 2.689258 1_545
Nd0 O8 2.689258 1_555
Fe0 O9 1.874670 1_556
Fe0 O6 1.907108 1_555
Fe0 O1 1.907108 1_555
Fe0 O2 1.907108 1_455
Fe0 O4 1.907108 1_455
Fe0 O8 1.955735 1_555
Fe1 O9 1.874670 1_555
Fe1 O7 1.907108 1_555
Fe1 O5 1.907108 1_455
Fe1 O0 1.907108 1_555
Fe1 O3 1.907108 1_455
Fe1 O8 1.955735 1_555
Fe2 O11 1.874670 1_555
Fe2 O5 1.907108 1_555
Fe2 O0 1.907108 1_555
Fe2 O3 1.907108 1_545
Fe2 O7 1.907108 1_545
Fe2 O10 1.955735 1_555
Fe3 O11 1.874670 1_556
Fe3 O2 1.907108 1_545
Fe3 O1 1.907108 1_555
Fe3 O4 1.907108 1_555
Fe3 O6 1.907108 1_545
Fe3 O10 1.955735 1_555
