# generated using pymatgen
data_La4CuNiO8
_symmetry_space_group_name_H-M   'P 1'
_cell_length_a   3.87605100
_cell_length_b   6.98737777
_cell_length_c   15.18926052
_cell_angle_alpha   83.15235066
_cell_angle_beta   82.67104215
_cell_angle_gamma   106.10510052
_symmetry_Int_Tables_number   1
_chemical_formula_structural   La4CuNiO8
_chemical_formula_sum   'La8 Cu2 Ni2 O16'
_cell_volume   386.80888859
_cell_formula_units_Z   2
loop_
 _symmetry_equiv_pos_site_id
 _symmetry_equiv_pos_as_xyz
  1  'x, y, z'
loop_
 _atom_site_type_symbol
 _atom_site_label
 _atom_site_symmetry_multiplicity
 _atom_site_fract_x
 _atom_site_fract_y
 _atom_site_fract_z
 _atom_site_occupancy
  La  La0  1  0.48424300  0.12752300  0.15878100  1
  La  La1  1  0.98450300  0.62765400  0.65870100  1
  La  La2  1  0.01540400  0.37225100  0.34140400  1
  La  La3  1  0.51557500  0.87239900  0.84128500  1
  La  La4  1  0.22769200  0.86012100  0.40520000  1
  La  La5  1  0.72765000  0.36009300  0.90521900  1
  La  La6  1  0.27229800  0.63975400  0.09481100  1
  La  La7  1  0.77238300  0.13981000  0.59493300  1
  Cu  Cu0  1  0.50009600  0.49979800  0.49997600  1
  Cu  Cu1  1  0.00013200  0.00030600  0.99995800  1
  Ni  Ni0  1  0.75005500  0.74938100  0.24992500  1
  Ni  Ni1  1  0.24967300  0.25026900  0.74999700  1
  O  O0  1  0.50015800  0.00005000  0.99997900  1
  O  O1  1  0.00026200  0.49997800  0.49999500  1
  O  O2  1  0.24987800  0.75003500  0.25000900  1
  O  O3  1  0.74966800  0.25005800  0.75000300  1
  O  O4  1  0.61174400  0.43790800  0.21388700  1
  O  O5  1  0.11184100  0.93805200  0.71380300  1
  O  O6  1  0.88790300  0.06208700  0.28619600  1
  O  O7  1  0.38806600  0.56225700  0.78604000  1
  O  O8  1  0.37111200  0.17952800  0.43745700  1
  O  O9  1  0.87124800  0.67948100  0.93737200  1
  O  O10  1  0.12880500  0.32048800  0.06261000  1
  O  O11  1  0.62904700  0.82058500  0.56254000  1
  O  O12  1  0.87017000  0.86051800  0.12002200  1
  O  O13  1  0.37037100  0.36062500  0.62004800  1
  O  O14  1  0.63004300  0.63939600  0.37996400  1
  O  O15  1  0.12997900  0.13959600  0.87988600  1
loop_
_geom_bond_atom_site_label_1
_geom_bond_atom_site_label_2
_geom_bond_distance
_geom_bond_site_symmetry_2
La0 O4 2.364784 1_555
La0 O10 2.631334 1_655
La0 O10 2.631391 1_555
La0 O0 2.668361 1_554
La0 O2 2.679643 1_545
La0 O6 2.712693 1_455
La0 O6 2.713120 1_555
La0 O12 2.765558 1_445
La0 O12 2.765953 1_545
La1 O5 2.364836 1_655
La1 O11 2.631183 1_655
La1 O11 2.631217 1_555
La1 O1 2.667624 1_655
La1 O3 2.680670 1_555
La1 O7 2.711900 1_655
La1 O7 2.712329 1_555
La1 O13 2.765147 1_555
La1 O13 2.765575 1_655
La2 O6 2.364152 1_455
La2 O8 2.629586 1_455
La2 O8 2.630157 1_555
La2 O1 2.666141 1_555
La2 O2 2.682262 1_555
La2 O4 2.713363 1_555
La2 O4 2.714685 1_455
La2 O14 2.764571 1_455
La2 O14 2.766330 1_555
La3 O7 2.364289 1_555
La3 O9 2.630128 1_455
La3 O9 2.631152 1_555
La3 O0 2.667374 1_565
La3 O3 2.680926 1_565
La3 O5 2.712852 1_655
La3 O5 2.714475 1_555
La3 O15 2.765658 1_565
La3 O15 2.766109 1_665
La4 O8 2.274207 1_565
La4 O14 2.505435 1_455
La4 O14 2.506117 1_555
La4 O2 2.563788 1_555
La4 O1 2.600820 1_555
La4 O6 2.831154 1_565
La4 O6 2.832620 1_465
La4 O11 3.039325 1_555
La4 O11 3.040413 1_455
La5 O9 2.273508 1_555
La5 O15 2.504983 1_655
La5 O15 2.505408 1_555
La5 O3 2.564000 1_555
La5 O0 2.600046 1_555
La5 O7 2.833169 1_655
La5 O7 2.834535 1_555
La5 O10 3.039549 1_656
La5 O10 3.041329 1_556
La6 O10 2.272972 1_555
La6 O12 2.505612 1_455
La6 O12 2.506076 1_555
La6 O2 2.564460 1_555
La6 O0 2.601906 1_564
La6 O4 2.831946 1_555
La6 O4 2.832428 1_455
La6 O9 3.040022 1_454
La6 O9 3.041900 1_554
La7 O11 2.273765 1_545
La7 O13 2.505338 1_555
La7 O13 2.506056 1_655
La7 O3 2.562515 1_555
La7 O1 2.601820 1_655
La7 O5 2.829642 1_645
La7 O5 2.830840 1_545
La7 O8 3.041031 1_555
La7 O8 3.041748 1_655
Cu0 O13 1.896467 1_555
Cu0 O14 1.896644 1_555
Cu0 O1 1.937695 1_555
Cu0 O1 1.938357 1_655
Cu0 O8 2.483313 1_555
Cu0 O11 2.486884 1_555
Cu1 O15 1.896733 1_555
Cu1 O12 1.897761 1_446
Cu1 O0 1.937389 1_455
Cu1 O0 1.938664 1_555
Cu1 O10 2.483807 1_556
Cu1 O9 2.487293 1_445
Ni0 O2 1.936240 1_655
Ni0 O2 1.939822 1_555
Ni0 O12 1.978056 1_555
Ni0 O14 1.978299 1_555
Ni0 O4 2.243948 1_555
Ni0 O6 2.253366 1_565
Ni1 O3 1.937625 1_455
Ni1 O3 1.938427 1_555
Ni1 O15 1.977188 1_555
Ni1 O13 1.977571 1_555
Ni1 O7 2.247335 1_555
Ni1 O5 2.249722 1_545
