# generated using pymatgen
data_Tb3Np
_symmetry_space_group_name_H-M   'P 1'
_cell_length_a   7.01086955
_cell_length_b   7.01086955
_cell_length_c   5.62481000
_cell_angle_alpha   90.00000000
_cell_angle_beta   90.00000000
_cell_angle_gamma   119.99999573
_symmetry_Int_Tables_number   1
_chemical_formula_structural   Tb3Np
_chemical_formula_sum   'Tb6 Np2'
_cell_volume   239.43204771
_cell_formula_units_Z   2
loop_
 _symmetry_equiv_pos_site_id
 _symmetry_equiv_pos_as_xyz
  1  'x, y, z'
loop_
 _atom_site_type_symbol
 _atom_site_label
 _atom_site_symmetry_multiplicity
 _atom_site_fract_x
 _atom_site_fract_y
 _atom_site_fract_z
 _atom_site_occupancy
  Tb  Tb0  1  0.83091700  0.16908300  0.75000000  1
  Tb  Tb1  1  0.33816600  0.16908300  0.75000000  1
  Tb  Tb2  1  0.83091700  0.66183400  0.75000000  1
  Tb  Tb3  1  0.16908300  0.83091700  0.25000000  1
  Tb  Tb4  1  0.66183400  0.83091700  0.25000000  1
  Tb  Tb5  1  0.16908300  0.33816600  0.25000000  1
  Np  Np0  1  0.66666700  0.33333300  0.25000000  1
  Np  Np1  1  0.33333300  0.66666700  0.75000000  1
loop_
_geom_bond_atom_site_label_1
_geom_bond_atom_site_label_2
_geom_bond_distance
_geom_bond_site_symmetry_2
Tb0 Tb2 3.454613 1_555
Tb0 Tb1 3.454613 1_555
Tb0 Tb5 3.482137 1_656
Tb0 Tb5 3.482137 1_655
Tb0 Tb4 3.482137 1_546
Tb0 Tb4 3.482137 1_545
Tb0 Tb1 3.556257 1_655
Tb0 Tb2 3.556257 1_545
Tb1 Tb2 3.454613 1_555
Tb1 Tb5 3.482137 1_556
Tb1 Tb5 3.482137 1_555
Tb1 Tb3 3.482137 1_545
Tb1 Tb3 3.482137 1_546
Tb1 Tb2 3.556257 1_445
Tb2 Tb4 3.482137 1_555
Tb2 Tb4 3.482137 1_556
Tb2 Tb3 3.482137 1_655
Tb2 Tb3 3.482137 1_656
Tb3 Tb4 3.454613 1_555
Tb3 Tb5 3.454613 1_555
Tb3 Tb5 3.556257 1_565
Tb3 Tb4 3.556257 1_455
Tb4 Tb5 3.454613 1_555
Tb4 Tb5 3.556257 1_665
Np0 Tb0 3.447858 1_555
Np0 Tb0 3.447858 1_554
Np0 Tb2 3.447861 1_555
Np0 Tb2 3.447861 1_554
Np0 Tb1 3.447861 1_554
Np0 Tb1 3.447861 1_555
Np0 Tb5 3.505554 1_655
Np0 Tb4 3.505554 1_545
Np0 Tb3 3.505558 1_655
Np0 Tb3 3.505558 1_545
Np0 Tb4 3.505561 1_555
Np0 Tb5 3.505561 1_555
Np1 Tb3 3.447858 1_556
Np1 Tb3 3.447858 1_555
Np1 Tb4 3.447861 1_555
Np1 Tb4 3.447861 1_556
Np1 Tb5 3.447861 1_555
Np1 Tb5 3.447861 1_556
Np1 Tb1 3.505554 1_565
Np1 Tb2 3.505554 1_455
Np1 Tb0 3.505558 1_565
Np1 Tb0 3.505558 1_455
Np1 Tb2 3.505561 1_555
Np1 Tb1 3.505561 1_555
