# generated using pymatgen
data_Nd(P3Ru)4
_symmetry_space_group_name_H-M   'P 1'
_cell_length_a   6.98524331
_cell_length_b   6.98524331
_cell_length_c   6.98524331
_cell_angle_alpha   109.47120704
_cell_angle_beta   109.47120704
_cell_angle_gamma   109.47120704
_symmetry_Int_Tables_number   1
_chemical_formula_structural   Nd(P3Ru)4
_chemical_formula_sum   'Nd1 P12 Ru4'
_cell_volume   262.37529590
_cell_formula_units_Z   1
loop_
 _symmetry_equiv_pos_site_id
 _symmetry_equiv_pos_as_xyz
  1  'x, y, z'
loop_
 _atom_site_type_symbol
 _atom_site_label
 _atom_site_symmetry_multiplicity
 _atom_site_fract_x
 _atom_site_fract_y
 _atom_site_fract_z
 _atom_site_occupancy
  Nd  Nd0  1  0.00000000  0.00000000  -0.00000000  1
  P  P0  1  0.35815379  0.21496353  0.85680974  1
  P  P1  1  0.64184621  0.78503647  0.14319026  1
  P  P2  1  0.64184621  0.49865595  0.85680774  1
  P  P3  1  0.35815379  0.50134405  0.14319226  1
  P  P4  1  0.21496353  0.85680974  0.35815379  1
  P  P5  1  0.78503647  0.14319026  0.64184621  1
  P  P6  1  0.49865595  0.85680774  0.64184621  1
  P  P7  1  0.50134405  0.14319226  0.35815379  1
  P  P8  1  0.85680974  0.35815379  0.21496353  1
  P  P9  1  0.14319026  0.64184621  0.78503647  1
  P  P10  1  0.85680774  0.64184621  0.49865595  1
  P  P11  1  0.14319226  0.35815379  0.50134405  1
  Ru  Ru0  1  0.00000000  -0.00000000  0.50000000  1
  Ru  Ru1  1  0.50000000  0.00000000  -0.00000000  1
  Ru  Ru2  1  0.00000000  0.50000000  -0.00000000  1
  Ru  Ru3  1  0.50000000  0.50000000  0.50000000  1
loop_
_geom_bond_atom_site_label_1
_geom_bond_atom_site_label_2
_geom_bond_distance
_geom_bond_site_symmetry_2
Nd0 P2 3.111137 1_444
Nd0 P6 3.111137 1_444
Nd0 P10 3.111137 1_444
Nd0 P11 3.111137 1_555
Nd0 P7 3.111137 1_555
Nd0 P3 3.111137 1_555
Nd0 P9 3.111141 1_544
Nd0 P8 3.111141 1_455
Nd0 P1 3.111141 1_445
Nd0 P0 3.111141 1_554
Nd0 P4 3.111141 1_545
Nd0 P5 3.111141 1_454
P0 P2 2.288233 1_555
P0 P3 2.309915 1_556
P0 Ru1 2.359945 1_556
P0 Ru0 2.359946 1_555
P1 P3 2.288233 1_555
P1 P2 2.309915 1_554
P1 Ru1 2.359945 1_565
P1 Ru0 2.359946 1_665
P2 Ru3 2.359933 1_555
P2 Ru2 2.359946 1_656
P3 Ru3 2.359933 1_555
P3 Ru2 2.359946 1_555
P4 P6 2.288233 1_555
P4 P7 2.309915 1_565
P4 Ru0 2.359945 1_565
P4 Ru2 2.359946 1_555
P5 P7 2.288233 1_555
P5 P6 2.309915 1_545
P5 Ru0 2.359945 1_655
P5 Ru2 2.359946 1_656
P6 Ru3 2.359933 1_555
P6 Ru1 2.359946 1_566
P7 Ru3 2.359933 1_555
P7 Ru1 2.359946 1_555
P8 Ru2 2.359945 1_655
P8 Ru1 2.359946 1_555
P9 Ru2 2.359945 1_556
P9 Ru1 2.359946 1_566
P10 P8 2.288233 1_555
P10 P9 2.309915 1_655
P10 Ru3 2.359933 1_555
P10 Ru0 2.359946 1_665
P11 P9 2.288233 1_555
P11 P8 2.309915 1_455
P11 Ru3 2.359933 1_555
P11 Ru0 2.359946 1_555
