# generated using pymatgen
data_Yb3PrS6
_symmetry_space_group_name_H-M   'P 1'
_cell_length_a   4.16333100
_cell_length_b   11.21218200
_cell_length_c   11.30189390
_cell_angle_alpha   76.15379523
_cell_angle_beta   90.00000000
_cell_angle_gamma   90.00000000
_symmetry_Int_Tables_number   1
_chemical_formula_structural   Yb3PrS6
_chemical_formula_sum   'Yb6 Pr2 S12'
_cell_volume   512.24227294
_cell_formula_units_Z   2
loop_
 _symmetry_equiv_pos_site_id
 _symmetry_equiv_pos_as_xyz
  1  'x, y, z'
loop_
 _atom_site_type_symbol
 _atom_site_label
 _atom_site_symmetry_multiplicity
 _atom_site_fract_x
 _atom_site_fract_y
 _atom_site_fract_z
 _atom_site_occupancy
  Yb  Yb0  1  0.25000000  0.96245900  0.20034800  1
  Yb  Yb1  1  0.75000000  0.03754100  0.79965200  1
  Yb  Yb2  1  0.25000000  0.65771100  0.94726900  1
  Yb  Yb3  1  0.75000000  0.34228900  0.05273100  1
  Yb  Yb4  1  0.25000000  0.42311300  0.67925800  1
  Yb  Yb5  1  0.75000000  0.57688700  0.32074200  1
  Pr  Pr0  1  0.25000000  0.81923800  0.53607700  1
  Pr  Pr1  1  0.75000000  0.18076200  0.46392300  1
  S  S0  1  0.25000000  0.91676100  0.96323200  1
  S  S1  1  0.75000000  0.08323900  0.03676800  1
  S  S2  1  0.25000000  0.72427900  0.32405900  1
  S  S3  1  0.75000000  0.27572100  0.67594100  1
  S  S4  1  0.25000000  0.42599000  0.90857400  1
  S  S5  1  0.75000000  0.57401000  0.09142600  1
  S  S6  1  0.25000000  0.37649500  0.38573200  1
  S  S7  1  0.75000000  0.62350500  0.61426800  1
  S  S8  1  0.25000000  0.25961300  0.26264900  1
  S  S9  1  0.75000000  0.74038700  0.73735100  1
  S  S10  1  0.25000000  0.04203800  0.61700400  1
  S  S11  1  0.75000000  0.95796200  0.38299600  1
loop_
_geom_bond_atom_site_label_1
_geom_bond_atom_site_label_2
_geom_bond_distance
_geom_bond_site_symmetry_2
Pr0 S2 2.845432 1_555
Pr0 S10 2.858409 1_565
Pr0 S11 2.908240 1_455
Pr0 S11 2.908240 1_555
Pr0 S7 3.000377 1_555
Pr0 S7 3.000377 1_455
Pr0 S9 3.054010 1_455
Pr0 S9 3.054010 1_555
Pr1 S3 2.845432 1_555
Pr1 S11 2.858409 1_545
Pr1 S10 2.908240 1_555
Pr1 S10 2.908240 1_655
Pr1 S6 3.000377 1_555
Pr1 S6 3.000377 1_655
Pr1 S8 3.054010 1_655
Pr1 S8 3.054010 1_555
S0 Yb0 2.846293 1_556
S0 Yb1 2.896002 1_565
S0 Yb1 2.896002 1_465
S0 Yb2 2.952892 1_555
S1 Yb1 2.846293 1_554
S1 Yb0 2.896002 1_645
S1 Yb0 2.896002 1_545
S1 Yb3 2.952892 1_555
S2 Yb5 2.663725 1_455
S2 Yb5 2.663725 1_555
S2 Yb0 2.701741 1_555
S3 Yb4 2.663725 1_555
S3 Yb4 2.663725 1_655
S3 Yb1 2.701741 1_555
S4 Yb4 2.599614 1_555
S4 Yb3 2.671456 1_456
S4 Yb3 2.671456 1_556
S4 Yb2 2.735909 1_555
S5 Yb5 2.599614 1_555
S5 Yb2 2.671456 1_654
S5 Yb2 2.671456 1_554
S5 Yb3 2.735909 1_555
S6 S8 2.127215 1_555
S6 Yb5 3.021786 1_455
S6 Yb5 3.021786 1_555
S6 Yb4 3.479695 1_555
S7 S9 2.127215 1_555
S7 Yb4 3.021786 1_655
S7 Yb4 3.021786 1_555
S7 Yb5 3.479695 1_555
S8 Yb3 3.125478 1_555
S8 Yb3 3.125478 1_455
S8 Yb0 3.566392 1_545
S9 Yb2 3.125478 1_555
S9 Yb2 3.125478 1_655
S9 Yb1 3.566392 1_565
S10 Yb1 2.923570 1_455
S10 Yb1 2.923570 1_555
S11 Yb0 2.923570 1_555
S11 Yb0 2.923570 1_655
