# generated using pymatgen
data_SnO2
_symmetry_space_group_name_H-M   'P 1'
_cell_length_a   4.73514617
_cell_length_b   5.24711425
_cell_length_c   5.75091223
_cell_angle_alpha   90.00000000
_cell_angle_beta   90.00000000
_cell_angle_gamma   90.00000000
_symmetry_Int_Tables_number   1
_chemical_formula_structural   SnO2
_chemical_formula_sum   'Sn4 O8'
_cell_volume   142.88631956
_cell_formula_units_Z   4
loop_
 _symmetry_equiv_pos_site_id
 _symmetry_equiv_pos_as_xyz
  1  'x, y, z'
loop_
 _atom_site_type_symbol
 _atom_site_label
 _atom_site_symmetry_multiplicity
 _atom_site_fract_x
 _atom_site_fract_y
 _atom_site_fract_z
 _atom_site_occupancy
  Sn  Sn0  1  0.50000000  0.75000000  0.33455225  1
  Sn  Sn1  1  -0.00000000  0.25000000  0.16544775  1
  Sn  Sn2  1  0.50000000  0.25000000  0.66544775  1
  Sn  Sn3  1  -0.00000000  0.75000000  0.83455225  1
  O  O0  1  0.73030504  0.07860358  0.39287653  1
  O  O1  1  0.23030504  0.92139642  0.10712347  1
  O  O2  1  0.76969496  0.57860358  0.10712347  1
  O  O3  1  0.26969496  0.42139642  0.39287653  1
  O  O4  1  0.73030504  0.57860358  0.60712347  1
  O  O5  1  0.23030504  0.42139642  0.89287653  1
  O  O6  1  0.76969496  0.07860358  0.89287653  1
  O  O7  1  0.26969496  0.92139642  0.60712347  1
loop_
_geom_bond_atom_site_label_1
_geom_bond_atom_site_label_2
_geom_bond_distance
_geom_bond_site_symmetry_2
O0 Sn1 2.037232 1_655
O0 Sn0 2.067533 1_545
O0 Sn2 2.110739 1_555
O1 Sn0 2.037232 1_555
O1 Sn1 2.067533 1_565
O1 Sn3 2.110739 1_554
O2 Sn0 2.037232 1_555
O2 Sn1 2.067533 1_655
O2 Sn3 2.110739 1_654
O3 Sn1 2.037232 1_555
O3 Sn0 2.067533 1_555
O3 Sn2 2.110739 1_555
O4 Sn3 2.037232 1_655
O4 Sn2 2.067533 1_555
O4 Sn0 2.110739 1_555
O5 Sn2 2.037232 1_555
O5 Sn3 2.067533 1_555
O5 Sn1 2.110739 1_556
O6 Sn2 2.037232 1_555
O6 Sn3 2.067533 1_645
O6 Sn1 2.110739 1_656
O7 Sn3 2.037232 1_555
O7 Sn2 2.067533 1_565
O7 Sn0 2.110739 1_555
