# generated using pymatgen
data_Li3Nd2(N3O10)3
_symmetry_space_group_name_H-M   'P 1'
_cell_length_a   13.29426943
_cell_length_b   13.29426943
_cell_length_c   13.29426943
_cell_angle_alpha   90.00000000
_cell_angle_beta   90.00000000
_cell_angle_gamma   90.00000000
_symmetry_Int_Tables_number   1
_chemical_formula_structural   Li3Nd2(N3O10)3
_chemical_formula_sum   'Li12 Nd8 N36 O120'
_cell_volume   2349.59726852
_cell_formula_units_Z   4
loop_
 _symmetry_equiv_pos_site_id
 _symmetry_equiv_pos_as_xyz
  1  'x, y, z'
loop_
 _atom_site_type_symbol
 _atom_site_label
 _atom_site_symmetry_multiplicity
 _atom_site_fract_x
 _atom_site_fract_y
 _atom_site_fract_z
 _atom_site_occupancy
  Li  Li0  1  0.20122004  0.54906072  0.47227838  1
  Li  Li1  1  0.29877996  0.45093928  0.97227838  1
  Li  Li2  1  0.79877996  0.04906072  0.02772162  1
  Li  Li3  1  0.47227838  0.20122004  0.54906072  1
  Li  Li4  1  0.70122004  0.95093928  0.52772162  1
  Li  Li5  1  0.97227838  0.29877996  0.45093928  1
  Li  Li6  1  0.02772162  0.79877996  0.04906072  1
  Li  Li7  1  0.52772162  0.70122004  0.95093928  1
  Li  Li8  1  0.54906072  0.47227838  0.20122004  1
  Li  Li9  1  0.04906072  0.02772162  0.79877996  1
  Li  Li10  1  0.95093928  0.52772162  0.70122004  1
  Li  Li11  1  0.45093928  0.97227838  0.29877996  1
  Nd  Nd0  1  0.21578871  0.21578871  0.21578871  1
  Nd  Nd1  1  0.28421129  0.78421129  0.71578871  1
  Nd  Nd2  1  0.78421129  0.71578871  0.28421129  1
  Nd  Nd3  1  0.71578871  0.28421129  0.78421129  1
  Nd  Nd4  1  0.52853394  0.52853394  0.52853394  1
  Nd  Nd5  1  0.97146606  0.47146606  0.02853394  1
  Nd  Nd6  1  0.47146606  0.02853394  0.97146606  1
  Nd  Nd7  1  0.02853394  0.97146606  0.47146606  1
  N  N0  1  0.10419192  0.17228472  0.54245490  1
  N  N1  1  0.39580808  0.82771528  0.04245490  1
  N  N2  1  0.89580808  0.67228472  0.95754510  1
  N  N3  1  0.54245490  0.10419192  0.17228472  1
  N  N4  1  0.60419192  0.32771528  0.45754510  1
  N  N5  1  0.04245490  0.39580808  0.82771528  1
  N  N6  1  0.95754510  0.89580808  0.67228472  1
  N  N7  1  0.45754510  0.60419192  0.32771528  1
  N  N8  1  0.17228472  0.54245490  0.10419192  1
  N  N9  1  0.67228472  0.95754510  0.89580808  1
  N  N10  1  0.32771528  0.45754510  0.60419192  1
  N  N11  1  0.82771528  0.04245490  0.39580808  1
  N  N12  1  0.00990694  0.25935708  0.12369646  1
  N  N13  1  0.49009306  0.74064292  0.62369646  1
  N  N14  1  0.99009306  0.75935708  0.37630354  1
  N  N15  1  0.12369646  0.00990694  0.25935708  1
  N  N16  1  0.50990694  0.24064292  0.87630354  1
  N  N17  1  0.62369646  0.49009306  0.74064292  1
  N  N18  1  0.37630354  0.99009306  0.75935708  1
  N  N19  1  0.87630354  0.50990694  0.24064292  1
  N  N20  1  0.25935708  0.12369646  0.00990694  1
  N  N21  1  0.75935708  0.37630354  0.99009306  1
  N  N22  1  0.24064292  0.87630354  0.50990694  1
  N  N23  1  0.74064292  0.62369646  0.49009306  1
  N  N24  1  0.13703354  0.37958469  0.35612140  1
  N  N25  1  0.36296646  0.62041531  0.85612140  1
  N  N26  1  0.86296646  0.87958469  0.14387860  1
  N  N27  1  0.35612140  0.13703354  0.37958469  1
  N  N28  1  0.63703354  0.12041531  0.64387860  1
  N  N29  1  0.85612140  0.36296646  0.62041531  1
  N  N30  1  0.14387860  0.86296646  0.87958469  1
  N  N31  1  0.64387860  0.63703354  0.12041531  1
  N  N32  1  0.37958469  0.35612140  0.13703354  1
  N  N33  1  0.87958469  0.14387860  0.86296646  1
  N  N34  1  0.12041531  0.64387860  0.63703354  1
  N  N35  1  0.62041531  0.85612140  0.36296646  1
  O  O0  1  0.09146559  0.55411942  0.15449134  1
  O  O1  1  0.40853441  0.44588058  0.65449134  1
  O  O2  1  0.90853441  0.05411942  0.34550866  1
  O  O3  1  0.15449134  0.09146559  0.55411942  1
  O  O4  1  0.59146559  0.94588058  0.84550866  1
  O  O5  1  0.65449134  0.40853441  0.44588058  1
  O  O6  1  0.34550866  0.90853441  0.05411942  1
  O  O7  1  0.84550866  0.59146559  0.94588058  1
  O  O8  1  0.55411942  0.15449134  0.09146559  1
  O  O9  1  0.05411942  0.34550866  0.90853441  1
  O  O10  1  0.94588058  0.84550866  0.59146559  1
  O  O11  1  0.44588058  0.65449134  0.40853441  1
  O  O12  1  0.13725745  0.25646662  0.56135018  1
  O  O13  1  0.36274255  0.74353338  0.06135018  1
  O  O14  1  0.86274255  0.75646662  0.93864982  1
  O  O15  1  0.56135018  0.13725745  0.25646662  1
  O  O16  1  0.63725745  0.24353338  0.43864982  1
  O  O17  1  0.06135018  0.36274255  0.74353338  1
  O  O18  1  0.93864982  0.86274255  0.75646662  1
  O  O19  1  0.43864982  0.63725745  0.24353338  1
  O  O20  1  0.25646662  0.56135018  0.13725745  1
  O  O21  1  0.75646662  0.93864982  0.86274255  1
  O  O22  1  0.24353338  0.43864982  0.63725745  1
  O  O23  1  0.74353338  0.06135018  0.36274255  1
  O  O24  1  0.08906655  0.29599632  0.34453282  1
  O  O25  1  0.41093345  0.70400368  0.84453282  1
  O  O26  1  0.91093345  0.79599632  0.15546718  1
  O  O27  1  0.34453282  0.08906655  0.29599632  1
  O  O28  1  0.58906655  0.20400368  0.65546718  1
  O  O29  1  0.84453282  0.41093345  0.70400368  1
  O  O30  1  0.15546718  0.91093345  0.79599632  1
  O  O31  1  0.65546718  0.58906655  0.20400368  1
  O  O32  1  0.29599632  0.34453282  0.08906655  1
  O  O33  1  0.79599632  0.15546718  0.91093345  1
  O  O34  1  0.20400368  0.65546718  0.58906655  1
  O  O35  1  0.70400368  0.84453282  0.41093345  1
  O  O36  1  0.01303482  0.16099652  0.50696646  1
  O  O37  1  0.48696518  0.83900348  0.00696646  1
  O  O38  1  0.98696518  0.66099652  0.99303354  1
  O  O39  1  0.50696646  0.01303482  0.16099652  1
  O  O40  1  0.51303482  0.33900348  0.49303354  1
  O  O41  1  0.00696646  0.48696518  0.83900348  1
  O  O42  1  0.99303354  0.98696518  0.66099652  1
  O  O43  1  0.49303354  0.51303482  0.33900348  1
  O  O44  1  0.16099652  0.50696646  0.01303482  1
  O  O45  1  0.66099652  0.99303354  0.98696518  1
  O  O46  1  0.33900348  0.49303354  0.51303482  1
  O  O47  1  0.83900348  0.00696646  0.48696518  1
  O  O48  1  0.20993303  0.64296925  0.34217293  1
  O  O49  1  0.29006697  0.35703075  0.84217293  1
  O  O50  1  0.79006697  0.14296925  0.15782707  1
  O  O51  1  0.34217293  0.20993303  0.64296925  1
  O  O52  1  0.70993303  0.85703075  0.65782707  1
  O  O53  1  0.84217293  0.29006697  0.35703075  1
  O  O54  1  0.15782707  0.79006697  0.14296925  1
  O  O55  1  0.65782707  0.70993303  0.85703075  1
  O  O56  1  0.64296925  0.34217293  0.20993303  1
  O  O57  1  0.14296925  0.15782707  0.79006697  1
  O  O58  1  0.85703075  0.65782707  0.70993303  1
  O  O59  1  0.35703075  0.84217293  0.29006697  1
  O  O60  1  0.07000399  0.77631270  0.42316356  1
  O  O61  1  0.42999601  0.22368730  0.92316356  1
  O  O62  1  0.92999601  0.27631270  0.07683644  1
  O  O63  1  0.42316356  0.07000399  0.77631270  1
  O  O64  1  0.57000399  0.72368730  0.57683644  1
  O  O65  1  0.92316356  0.42999601  0.22368730  1
  O  O66  1  0.07683644  0.92999601  0.27631270  1
  O  O67  1  0.57683644  0.57000399  0.72368730  1
  O  O68  1  0.77631270  0.42316356  0.07000399  1
  O  O69  1  0.27631270  0.07683644  0.92999601  1
  O  O70  1  0.72368730  0.57683644  0.57000399  1
  O  O71  1  0.22368730  0.92316356  0.42999601  1
  O  O72  1  0.02659508  0.17885744  0.16955414  1
  O  O73  1  0.47340492  0.82114256  0.66955414  1
  O  O74  1  0.97340492  0.67885744  0.33044586  1
  O  O75  1  0.16955414  0.02659508  0.17885744  1
  O  O76  1  0.52659508  0.32114256  0.83044586  1
  O  O77  1  0.66955414  0.47340492  0.82114256  1
  O  O78  1  0.33044586  0.97340492  0.67885744  1
  O  O79  1  0.83044586  0.52659508  0.32114256  1
  O  O80  1  0.17885744  0.16955414  0.02659508  1
  O  O81  1  0.67885744  0.33044586  0.97340492  1
  O  O82  1  0.32114256  0.83044586  0.52659508  1
  O  O83  1  0.82114256  0.66955414  0.47340492  1
  O  O84  1  0.21520153  0.39293295  0.30375471  1
  O  O85  1  0.28479847  0.60706705  0.80375471  1
  O  O86  1  0.78479847  0.89293295  0.19624529  1
  O  O87  1  0.30375471  0.21520153  0.39293295  1
  O  O88  1  0.71520153  0.10706705  0.69624529  1
  O  O89  1  0.80375471  0.28479847  0.60706705  1
  O  O90  1  0.19624529  0.78479847  0.89293295  1
  O  O91  1  0.69624529  0.71520153  0.10706705  1
  O  O92  1  0.39293295  0.30375471  0.21520153  1
  O  O93  1  0.89293295  0.19624529  0.78479847  1
  O  O94  1  0.10706705  0.69624529  0.71520153  1
  O  O95  1  0.60706705  0.80375471  0.28479847  1
  O  O96  1  0.07868734  0.32835278  0.12467739  1
  O  O97  1  0.42131266  0.67164722  0.62467739  1
  O  O98  1  0.92131266  0.82835278  0.37532261  1
  O  O99  1  0.12467739  0.07868734  0.32835278  1
  O  O100  1  0.57868734  0.17164722  0.87532261  1
  O  O101  1  0.62467739  0.42131266  0.67164722  1
  O  O102  1  0.37532261  0.92131266  0.82835278  1
  O  O103  1  0.87532261  0.57868734  0.17164722  1
  O  O104  1  0.32835278  0.12467739  0.07868734  1
  O  O105  1  0.82835278  0.37532261  0.92131266  1
  O  O106  1  0.17164722  0.87532261  0.57868734  1
  O  O107  1  0.67164722  0.62467739  0.42131266  1
  O  O108  1  0.10524969  0.44266223  0.41802548  1
  O  O109  1  0.39475031  0.55733777  0.91802548  1
  O  O110  1  0.89475031  0.94266223  0.08197452  1
  O  O111  1  0.41802548  0.10524969  0.44266223  1
  O  O112  1  0.60524969  0.05733777  0.58197452  1
  O  O113  1  0.91802548  0.39475031  0.55733777  1
  O  O114  1  0.08197452  0.89475031  0.94266223  1
  O  O115  1  0.58197452  0.60524969  0.05733777  1
  O  O116  1  0.44266223  0.41802548  0.10524969  1
  O  O117  1  0.94266223  0.08197452  0.89475031  1
  O  O118  1  0.05733777  0.58197452  0.60524969  1
  O  O119  1  0.55733777  0.91802548  0.39475031  1
loop_
_geom_bond_atom_site_label_1
_geom_bond_atom_site_label_2
_geom_bond_distance
_geom_bond_site_symmetry_2
Li0 O108 2.036859 1_555
Li0 O46 2.050268 1_555
Li0 O34 2.100728 1_555
Li0 O48 2.136293 1_555
Li1 O109 2.036859 1_555
Li1 O44 2.050268 1_556
Li1 O32 2.100728 1_556
Li1 O49 2.136293 1_555
Li2 O110 2.036859 1_545
Li2 O45 2.050268 1_544
Li2 O33 2.100728 1_554
Li2 O50 2.136293 1_555
Li3 O111 2.036859 1_555
Li3 O40 2.050268 1_555
Li3 O28 2.100728 1_555
Li3 O51 2.136293 1_555
Li4 O112 2.036859 1_565
Li4 O47 2.050268 1_565
Li4 O35 2.100728 1_555
Li4 O52 2.136293 1_555
Li5 O113 2.036859 1_555
Li5 O36 2.050268 1_655
Li5 O24 2.100728 1_655
Li5 O53 2.136293 1_555
Li6 O114 2.036859 1_554
Li6 O38 2.050268 1_454
Li6 O26 2.100728 1_455
Li6 O54 2.136293 1_555
Li7 O115 2.036859 1_556
Li7 O37 2.050268 1_556
Li7 O25 2.100728 1_555
Li7 O55 2.136293 1_555
Li8 O116 2.036859 1_555
Li8 O43 2.050268 1_555
Li8 O31 2.100728 1_555
Li8 O56 2.136293 1_555
Li9 O117 2.036859 1_455
Li9 O42 2.050268 1_445
Li9 O30 2.100728 1_545
Li9 O57 2.136293 1_555
Li10 O118 2.036859 1_655
Li10 O41 2.050268 1_655
Li10 O29 2.100728 1_555
Li10 O58 2.136293 1_555
Li11 O119 2.036859 1_555
Li11 O39 2.050268 1_565
Li11 O27 2.100728 1_565
Li11 O59 2.136293 1_555
Nd0 O32 2.627656 1_555
Nd0 O24 2.627656 1_555
Nd0 O27 2.627656 1_555
Nd0 O92 2.629392 1_555
Nd0 O84 2.629392 1_555
Nd0 O87 2.629392 1_555
Nd0 O75 2.635345 1_555
Nd0 O80 2.635345 1_555
Nd0 O72 2.635345 1_555
Nd0 O104 2.651156 1_555
Nd0 O99 2.651156 1_555
Nd0 O96 2.651156 1_555
Nd1 O25 2.627656 1_555
Nd1 O30 2.627656 1_555
Nd1 O34 2.627656 1_555
Nd1 O85 2.629392 1_555
Nd1 O90 2.629392 1_555
Nd1 O94 2.629392 1_555
Nd1 O73 2.635345 1_555
Nd1 O78 2.635345 1_555
Nd1 O82 2.635345 1_555
Nd1 O106 2.651156 1_555
Nd1 O97 2.651156 1_555
Nd1 O102 2.651156 1_555
Nd2 O35 2.627656 1_555
Nd2 O26 2.627656 1_555
Nd2 O31 2.627656 1_555
Nd2 O86 2.629392 1_555
Nd2 O95 2.629392 1_555
Nd2 O91 2.629392 1_555
Nd2 O79 2.635345 1_555
Nd2 O83 2.635345 1_555
Nd2 O74 2.635345 1_555
Nd2 O103 2.651156 1_555
Nd2 O98 2.651156 1_555
Nd2 O107 2.651156 1_555
Nd3 O29 2.627656 1_555
Nd3 O28 2.627656 1_555
Nd3 O33 2.627656 1_555
Nd3 O89 2.629392 1_555
Nd3 O93 2.629392 1_555
Nd3 O88 2.629392 1_555
Nd3 O76 2.635345 1_555
Nd3 O77 2.635345 1_555
Nd3 O81 2.635345 1_555
Nd3 O100 2.651156 1_555
Nd3 O101 2.651156 1_555
Nd3 O105 2.651156 1_555
Nd4 O1 2.560544 1_555
Nd4 O11 2.560544 1_555
Nd4 O5 2.560544 1_555
Nd4 O43 2.571756 1_555
Nd4 O40 2.571756 1_555
Nd4 O46 2.571756 1_555
Nd4 O107 2.699142 1_555
Nd4 O101 2.699142 1_555
Nd4 O97 2.699142 1_555
Nd4 O64 2.728978 1_555
Nd4 O70 2.728978 1_555
Nd4 O67 2.728978 1_555
Nd5 O9 2.560544 1_654
Nd5 O7 2.560544 1_554
Nd5 O0 2.560544 1_655
Nd5 O38 2.571756 1_554
Nd5 O41 2.571756 1_654
Nd5 O44 2.571756 1_655
Nd5 O103 2.699142 1_555
Nd5 O105 2.699142 1_554
Nd5 O96 2.699142 1_655
Nd5 O62 2.728978 1_555
Nd5 O65 2.728978 1_555
Nd5 O68 2.728978 1_555
Nd6 O6 2.560544 1_546
Nd6 O4 2.560544 1_545
Nd6 O8 2.560544 1_556
Nd6 O37 2.571756 1_546
Nd6 O45 2.571756 1_545
Nd6 O39 2.571756 1_556
Nd6 O100 2.699142 1_555
Nd6 O102 2.699142 1_545
Nd6 O104 2.699142 1_556
Nd6 O69 2.728978 1_555
Nd6 O61 2.728978 1_555
Nd6 O63 2.728978 1_555
Nd7 O2 2.560544 1_465
Nd7 O10 2.560544 1_455
Nd7 O3 2.560544 1_565
Nd7 O42 2.571756 1_455
Nd7 O47 2.571756 1_465
Nd7 O36 2.571756 1_565
Nd7 O106 2.699142 1_555
Nd7 O98 2.699142 1_455
Nd7 O99 2.699142 1_565
Nd7 O71 2.728978 1_555
Nd7 O66 2.728978 1_555
Nd7 O60 2.728978 1_555
N0 O12 1.228332 1_555
N0 O3 1.274991 1_555
N0 O36 1.309095 1_555
N1 O13 1.228332 1_555
N1 O6 1.274991 1_555
N1 O37 1.309095 1_555
N2 O14 1.228332 1_555
N2 O7 1.274991 1_555
N2 O38 1.309095 1_555
N3 O15 1.228332 1_555
N3 O8 1.274991 1_555
N3 O39 1.309095 1_555
N4 O16 1.228332 1_555
N4 O5 1.274991 1_555
N4 O40 1.309095 1_555
N5 O17 1.228332 1_555
N5 O9 1.274991 1_555
N5 O41 1.309095 1_555
N6 O18 1.228332 1_555
N6 O10 1.274991 1_555
N6 O42 1.309095 1_555
N7 O19 1.228332 1_555
N7 O11 1.274991 1_555
N7 O43 1.309095 1_555
N8 O20 1.228332 1_555
N8 O0 1.274991 1_555
N8 O44 1.309095 1_555
N9 O21 1.228332 1_555
N9 O4 1.274991 1_555
N9 O45 1.309095 1_555
N10 O22 1.228332 1_555
N10 O1 1.274991 1_555
N10 O46 1.309095 1_555
N11 O23 1.228332 1_555
N11 O2 1.274991 1_555
N11 O47 1.309095 1_555
N12 O72 1.251471 1_555
N12 O62 1.252001 1_455
N12 O96 1.295227 1_555
N13 O73 1.251471 1_555
N13 O64 1.252001 1_555
N13 O97 1.295227 1_555
N14 O74 1.251471 1_555
N14 O60 1.252001 1_655
N14 O98 1.295227 1_555
N15 O75 1.251471 1_555
N15 O66 1.252001 1_545
N15 O99 1.295227 1_555
N16 O76 1.251471 1_555
N16 O61 1.252001 1_555
N16 O100 1.295227 1_555
N17 O77 1.251471 1_555
N17 O67 1.252001 1_555
N17 O101 1.295227 1_555
N18 O78 1.251471 1_555
N18 O63 1.252001 1_565
N18 O102 1.295227 1_555
N19 O79 1.251471 1_555
N19 O65 1.252001 1_555
N19 O103 1.295227 1_555
N20 O80 1.251471 1_555
N20 O69 1.252001 1_554
N20 O104 1.295227 1_555
N21 O81 1.251471 1_555
N21 O68 1.252001 1_556
N21 O105 1.295227 1_555
N22 O82 1.251471 1_555
N22 O71 1.252001 1_555
N22 O106 1.295227 1_555
N23 O83 1.251471 1_555
N23 O70 1.252001 1_555
N23 O107 1.295227 1_555
N24 O108 1.248608 1_555
N24 O84 1.263353 1_555
N24 O24 1.290444 1_555
N25 O109 1.248608 1_555
N25 O85 1.263353 1_555
N25 O25 1.290444 1_555
N26 O110 1.248608 1_555
N26 O86 1.263353 1_555
N26 O26 1.290444 1_555
N27 O111 1.248608 1_555
N27 O87 1.263353 1_555
N27 O27 1.290444 1_555
N28 O112 1.248608 1_555
N28 O88 1.263353 1_555
N28 O28 1.290444 1_555
N29 O113 1.248608 1_555
N29 O89 1.263353 1_555
N29 O29 1.290444 1_555
N30 O114 1.248608 1_555
N30 O90 1.263353 1_555
N30 O30 1.290444 1_555
N31 O115 1.248608 1_555
N31 O91 1.263353 1_555
N31 O31 1.290444 1_555
N32 O116 1.248608 1_555
N32 O92 1.263353 1_555
N32 O32 1.290444 1_555
N33 O117 1.248608 1_555
N33 O93 1.263353 1_555
N33 O33 1.290444 1_555
N34 O118 1.248608 1_555
N34 O94 1.263353 1_555
N34 O34 1.290444 1_555
N35 O119 1.248608 1_555
N35 O95 1.263353 1_555
N35 O35 1.290444 1_555
