# generated using pymatgen
data_CsMg6Zn
_symmetry_space_group_name_H-M   'P 1'
_cell_length_a   19.33165208
_cell_length_b   19.33165208
_cell_length_c   10.45241000
_cell_angle_alpha   90.00000000
_cell_angle_beta   90.00000000
_cell_angle_gamma   144.13048286
_symmetry_Int_Tables_number   1
_chemical_formula_structural   CsMg6Zn
_chemical_formula_sum   'Cs8 Mg48 Zn8'
_cell_volume   2288.80342793
_cell_formula_units_Z   8
loop_
 _symmetry_equiv_pos_site_id
 _symmetry_equiv_pos_as_xyz
  1  'x, y, z'
loop_
 _atom_site_type_symbol
 _atom_site_label
 _atom_site_symmetry_multiplicity
 _atom_site_fract_x
 _atom_site_fract_y
 _atom_site_fract_z
 _atom_site_occupancy
  Cs  Cs0_0  1  0.14545700  0.35454300  0.25000000  1
  Cs  Cs0_1  1  0.14545700  0.35454300  0.75000000  1
  Cs  Cs0_2  1  0.14545700  0.85454300  0.25000000  1
  Cs  Cs0_3  1  0.14545700  0.85454300  0.75000000  1
  Cs  Cs0_4  1  0.64545700  0.35454300  0.25000000  1
  Cs  Cs0_5  1  0.64545700  0.35454300  0.75000000  1
  Cs  Cs0_6  1  0.64545700  0.85454300  0.25000000  1
  Cs  Cs0_7  1  0.64545700  0.85454300  0.75000000  1
  Mg  Mg0_0  1  0.15728100  0.09119450  0.25000000  1
  Mg  Mg0_1  1  0.15728100  0.09119450  0.75000000  1
  Mg  Mg0_2  1  0.15728100  0.59119450  0.25000000  1
  Mg  Mg0_3  1  0.15728100  0.59119450  0.75000000  1
  Mg  Mg0_4  1  0.65728100  0.09119450  0.25000000  1
  Mg  Mg0_5  1  0.65728100  0.09119450  0.75000000  1
  Mg  Mg0_6  1  0.65728100  0.59119450  0.25000000  1
  Mg  Mg0_7  1  0.65728100  0.59119450  0.75000000  1
  Mg  Mg1_0  1  0.40880550  0.34271900  0.25000000  1
  Mg  Mg1_1  1  0.40880550  0.34271900  0.75000000  1
  Mg  Mg1_2  1  0.40880550  0.84271900  0.25000000  1
  Mg  Mg1_3  1  0.40880550  0.84271900  0.75000000  1
  Mg  Mg1_4  1  0.90880550  0.34271900  0.25000000  1
  Mg  Mg1_5  1  0.90880550  0.34271900  0.75000000  1
  Mg  Mg1_6  1  0.90880550  0.84271900  0.25000000  1
  Mg  Mg1_7  1  0.90880550  0.84271900  0.75000000  1
  Mg  Mg2_0  1  0.10049050  0.14316500  0.00000000  1
  Mg  Mg2_1  1  0.10049050  0.14316500  0.50000000  1
  Mg  Mg2_2  1  0.10049050  0.64316500  0.00000000  1
  Mg  Mg2_3  1  0.10049050  0.64316500  0.50000000  1
  Mg  Mg2_4  1  0.60049050  0.14316500  0.00000000  1
  Mg  Mg2_5  1  0.60049050  0.14316500  0.50000000  1
  Mg  Mg2_6  1  0.60049050  0.64316500  0.00000000  1
  Mg  Mg2_7  1  0.60049050  0.64316500  0.50000000  1
  Mg  Mg3_0  1  0.35683500  0.39950950  0.00000000  1
  Mg  Mg3_1  1  0.35683500  0.39950950  0.50000000  1
  Mg  Mg3_2  1  0.35683500  0.89950950  0.00000000  1
  Mg  Mg3_3  1  0.35683500  0.89950950  0.50000000  1
  Mg  Mg3_4  1  0.85683500  0.39950950  0.00000000  1
  Mg  Mg3_5  1  0.85683500  0.39950950  0.50000000  1
  Mg  Mg3_6  1  0.85683500  0.89950950  0.00000000  1
  Mg  Mg3_7  1  0.85683500  0.89950950  0.50000000  1
  Mg  Mg4_0  1  0.30848500  0.19151500  0.00000000  1
  Mg  Mg4_1  1  0.30848500  0.19151500  0.50000000  1
  Mg  Mg4_2  1  0.30848500  0.69151500  0.00000000  1
  Mg  Mg4_3  1  0.30848500  0.69151500  0.50000000  1
  Mg  Mg4_4  1  0.80848500  0.19151500  0.00000000  1
  Mg  Mg4_5  1  0.80848500  0.19151500  0.50000000  1
  Mg  Mg4_6  1  0.80848500  0.69151500  0.00000000  1
  Mg  Mg4_7  1  0.80848500  0.69151500  0.50000000  1
  Mg  Mg5_0  1  0.05448600  0.44551400  0.00000000  1
  Mg  Mg5_1  1  0.05448600  0.44551400  0.50000000  1
  Mg  Mg5_2  1  0.05448600  0.94551400  0.00000000  1
  Mg  Mg5_3  1  0.05448600  0.94551400  0.50000000  1
  Mg  Mg5_4  1  0.55448600  0.44551400  0.00000000  1
  Mg  Mg5_5  1  0.55448600  0.44551400  0.50000000  1
  Mg  Mg5_6  1  0.55448600  0.94551400  0.00000000  1
  Mg  Mg5_7  1  0.55448600  0.94551400  0.50000000  1
  Zn  Zn0_0  1  0.46816150  0.03183850  0.25000000  1
  Zn  Zn0_1  1  0.46816150  0.03183850  0.75000000  1
  Zn  Zn0_2  1  0.46816150  0.53183850  0.25000000  1
  Zn  Zn0_3  1  0.46816150  0.53183850  0.75000000  1
  Zn  Zn0_4  1  0.96816150  0.03183850  0.25000000  1
  Zn  Zn0_5  1  0.96816150  0.03183850  0.75000000  1
  Zn  Zn0_6  1  0.96816150  0.53183850  0.25000000  1
  Zn  Zn0_7  1  0.96816150  0.53183850  0.75000000  1
loop_
_geom_bond_atom_site_label_1
_geom_bond_atom_site_label_2
_geom_bond_distance
_geom_bond_site_symmetry_2
Cs0_0 Zn0_2 4.001450 1_555
Cs0_0 Zn0_4 4.001450 1_455
Cs0_0 Mg5_0 4.245730 1_555
Cs0_0 Mg5_1 4.245730 1_555
Cs0_0 Mg2_0 4.304038 1_555
Cs0_0 Mg2_1 4.304038 1_555
Cs0_0 Mg3_1 4.304038 1_555
Cs0_0 Mg3_0 4.304038 1_555
Cs0_0 Mg1_4 4.391679 1_455
Cs0_0 Mg0_2 4.391679 1_555
Cs0_0 Cs0_1 5.226205 1_554
Cs0_0 Cs0_1 5.226205 1_555
Cs0_1 Zn0_3 4.001450 1_555
Cs0_1 Zn0_5 4.001450 1_455
Cs0_1 Mg5_1 4.245730 1_555
Cs0_1 Mg5_0 4.245730 1_556
Cs0_1 Mg2_0 4.304038 1_556
Cs0_1 Mg2_1 4.304038 1_555
Cs0_1 Mg3_1 4.304038 1_555
Cs0_1 Mg3_0 4.304038 1_556
Cs0_1 Mg1_5 4.391679 1_455
Cs0_1 Mg0_3 4.391679 1_555
Cs0_2 Zn0_0 4.001450 1_565
Cs0_2 Zn0_6 4.001450 1_455
Cs0_2 Mg5_3 4.245730 1_555
Cs0_2 Mg5_2 4.245730 1_555
Cs0_2 Mg2_3 4.304038 1_555
Cs0_2 Mg2_2 4.304038 1_555
Cs0_2 Mg3_2 4.304038 1_555
Cs0_2 Mg3_3 4.304038 1_555
Cs0_2 Mg1_6 4.391679 1_455
Cs0_2 Mg0_0 4.391679 1_565
Cs0_2 Cs0_3 5.226205 1_555
Cs0_2 Cs0_3 5.226205 1_554
Cs0_3 Zn0_1 4.001450 1_565
Cs0_3 Zn0_7 4.001450 1_455
Cs0_3 Mg5_2 4.245730 1_556
Cs0_3 Mg5_3 4.245730 1_555
Cs0_3 Mg2_2 4.304038 1_556
Cs0_3 Mg2_3 4.304038 1_555
Cs0_3 Mg3_2 4.304038 1_556
Cs0_3 Mg3_3 4.304038 1_555
Cs0_3 Mg1_7 4.391679 1_455
Cs0_3 Mg0_1 4.391679 1_565
Cs0_4 Zn0_6 4.001450 1_555
Cs0_4 Zn0_0 4.001450 1_555
Cs0_4 Mg5_4 4.245730 1_555
Cs0_4 Mg5_5 4.245730 1_555
Cs0_4 Mg2_5 4.304038 1_555
Cs0_4 Mg2_4 4.304038 1_555
Cs0_4 Mg3_4 4.304038 1_555
Cs0_4 Mg3_5 4.304038 1_555
Cs0_4 Mg1_0 4.391679 1_555
Cs0_4 Mg0_6 4.391679 1_555
Cs0_4 Cs0_5 5.226205 1_554
Cs0_4 Cs0_5 5.226205 1_555
Cs0_5 Zn0_1 4.001450 1_555
Cs0_5 Zn0_7 4.001450 1_555
Cs0_5 Mg5_4 4.245730 1_556
Cs0_5 Mg5_5 4.245730 1_555
Cs0_5 Mg2_4 4.304038 1_556
Cs0_5 Mg2_5 4.304038 1_555
Cs0_5 Mg3_5 4.304038 1_555
Cs0_5 Mg3_4 4.304038 1_556
Cs0_5 Mg1_1 4.391679 1_555
Cs0_5 Mg0_7 4.391679 1_555
Cs0_6 Zn0_4 4.001450 1_565
Cs0_6 Zn0_2 4.001450 1_555
Cs0_6 Mg5_6 4.245730 1_555
Cs0_6 Mg5_7 4.245730 1_555
Cs0_6 Mg2_6 4.304038 1_555
Cs0_6 Mg2_7 4.304038 1_555
Cs0_6 Mg3_6 4.304038 1_555
Cs0_6 Mg3_7 4.304038 1_555
Cs0_6 Mg0_4 4.391679 1_565
Cs0_6 Mg1_2 4.391679 1_555
Cs0_6 Cs0_7 5.226205 1_554
Cs0_6 Cs0_7 5.226205 1_555
Cs0_7 Zn0_5 4.001450 1_565
Cs0_7 Zn0_3 4.001450 1_555
Cs0_7 Mg5_6 4.245730 1_556
Cs0_7 Mg5_7 4.245730 1_555
Cs0_7 Mg2_6 4.304038 1_556
Cs0_7 Mg2_7 4.304038 1_555
Cs0_7 Mg3_6 4.304038 1_556
Cs0_7 Mg3_7 4.304038 1_555
Cs0_7 Mg0_5 4.391679 1_565
Cs0_7 Mg1_3 4.391679 1_555
Mg0_0 Zn0_4 2.807837 1_455
Mg0_0 Mg1_6 2.958285 1_445
Mg0_0 Mg1_0 2.994585 1_555
Mg0_0 Mg5_2 3.104563 1_545
Mg0_0 Mg5_3 3.104563 1_545
Mg0_0 Mg4_1 3.153733 1_555
Mg0_0 Mg4_0 3.153733 1_555
Mg0_0 Mg2_1 3.290985 1_555
Mg0_0 Mg2_0 3.290985 1_555
Mg0_1 Zn0_5 2.807837 1_455
Mg0_1 Mg1_7 2.958285 1_445
Mg0_1 Mg1_1 2.994585 1_555
Mg0_1 Mg5_2 3.104563 1_546
Mg0_1 Mg5_3 3.104563 1_545
Mg0_1 Mg4_1 3.153733 1_555
Mg0_1 Mg4_0 3.153733 1_556
Mg0_1 Mg2_0 3.290985 1_556
Mg0_1 Mg2_1 3.290985 1_555
Mg0_2 Zn0_6 2.807837 1_455
Mg0_2 Mg1_4 2.958285 1_455
Mg0_2 Mg1_2 2.994585 1_555
Mg0_2 Mg5_1 3.104563 1_555
Mg0_2 Mg5_0 3.104563 1_555
Mg0_2 Mg4_2 3.153733 1_555
Mg0_2 Mg4_3 3.153733 1_555
Mg0_2 Mg2_2 3.290985 1_555
Mg0_2 Mg2_3 3.290985 1_555
Mg0_3 Zn0_7 2.807837 1_455
Mg0_3 Mg1_5 2.958285 1_455
Mg0_3 Mg1_3 2.994585 1_555
Mg0_3 Mg5_1 3.104563 1_555
Mg0_3 Mg5_0 3.104563 1_556
Mg0_3 Mg4_2 3.153733 1_556
Mg0_3 Mg4_3 3.153733 1_555
Mg0_3 Mg2_2 3.290985 1_556
Mg0_3 Mg2_3 3.290985 1_555
Mg0_4 Zn0_0 2.807837 1_555
Mg0_4 Mg1_2 2.958285 1_545
Mg0_4 Mg1_4 2.994585 1_555
Mg0_4 Mg5_6 3.104563 1_545
Mg0_4 Mg5_7 3.104563 1_545
Mg0_4 Mg4_4 3.153733 1_555
Mg0_4 Mg4_5 3.153733 1_555
Mg0_4 Mg2_4 3.290985 1_555
Mg0_4 Mg2_5 3.290985 1_555
Mg0_5 Zn0_1 2.807837 1_555
Mg0_5 Mg1_3 2.958285 1_545
Mg0_5 Mg1_5 2.994585 1_555
Mg0_5 Mg5_6 3.104563 1_546
Mg0_5 Mg5_7 3.104563 1_545
Mg0_5 Mg4_5 3.153733 1_555
Mg0_5 Mg4_4 3.153733 1_556
Mg0_5 Mg2_5 3.290985 1_555
Mg0_5 Mg2_4 3.290985 1_556
Mg0_6 Zn0_2 2.807837 1_555
Mg0_6 Mg1_0 2.958285 1_555
Mg0_6 Mg1_6 2.994585 1_555
Mg0_6 Mg5_5 3.104563 1_555
Mg0_6 Mg5_4 3.104563 1_555
Mg0_6 Mg4_7 3.153733 1_555
Mg0_6 Mg4_6 3.153733 1_555
Mg0_6 Mg2_7 3.290985 1_555
Mg0_6 Mg2_6 3.290985 1_555
Mg0_7 Zn0_3 2.807837 1_555
Mg0_7 Mg1_1 2.958285 1_555
Mg0_7 Mg1_7 2.994585 1_555
Mg0_7 Mg5_4 3.104563 1_556
Mg0_7 Mg5_5 3.104563 1_555
Mg0_7 Mg4_7 3.153733 1_555
Mg0_7 Mg4_6 3.153733 1_556
Mg0_7 Mg2_7 3.290985 1_555
Mg0_7 Mg2_6 3.290985 1_556
Mg1_0 Zn0_2 2.807837 1_555
Mg1_0 Mg5_5 3.104563 1_555
Mg1_0 Mg5_4 3.104563 1_555
Mg1_0 Mg4_1 3.153733 1_555
Mg1_0 Mg4_0 3.153733 1_555
Mg1_0 Mg3_0 3.290985 1_555
Mg1_0 Mg3_1 3.290985 1_555
Mg1_1 Zn0_3 2.807837 1_555
Mg1_1 Mg5_4 3.104563 1_556
Mg1_1 Mg5_5 3.104563 1_555
Mg1_1 Mg4_1 3.153733 1_555
Mg1_1 Mg4_0 3.153733 1_556
Mg1_1 Mg3_1 3.290985 1_555
Mg1_1 Mg3_0 3.290985 1_556
Mg1_2 Zn0_0 2.807837 1_565
Mg1_2 Mg5_6 3.104563 1_555
Mg1_2 Mg5_7 3.104563 1_555
Mg1_2 Mg4_3 3.153733 1_555
Mg1_2 Mg4_2 3.153733 1_555
Mg1_2 Mg3_3 3.290985 1_555
Mg1_2 Mg3_2 3.290985 1_555
Mg1_3 Zn0_1 2.807837 1_565
Mg1_3 Mg5_6 3.104563 1_556
Mg1_3 Mg5_7 3.104563 1_555
Mg1_3 Mg4_3 3.153733 1_555
Mg1_3 Mg4_2 3.153733 1_556
Mg1_3 Mg3_2 3.290985 1_556
Mg1_3 Mg3_3 3.290985 1_555
Mg1_4 Zn0_6 2.807837 1_555
Mg1_4 Mg5_1 3.104563 1_655
Mg1_4 Mg5_0 3.104563 1_655
Mg1_4 Mg4_4 3.153733 1_555
Mg1_4 Mg4_5 3.153733 1_555
Mg1_4 Mg3_5 3.290985 1_555
Mg1_4 Mg3_4 3.290985 1_555
Mg1_5 Zn0_7 2.807837 1_555
Mg1_5 Mg5_0 3.104563 1_656
Mg1_5 Mg5_1 3.104563 1_655
Mg1_5 Mg4_5 3.153733 1_555
Mg1_5 Mg4_4 3.153733 1_556
Mg1_5 Mg3_5 3.290985 1_555
Mg1_5 Mg3_4 3.290985 1_556
Mg1_6 Zn0_4 2.807837 1_565
Mg1_6 Mg5_3 3.104563 1_655
Mg1_6 Mg5_2 3.104563 1_655
Mg1_6 Mg4_6 3.153733 1_555
Mg1_6 Mg4_7 3.153733 1_555
Mg1_6 Mg3_6 3.290985 1_555
Mg1_6 Mg3_7 3.290985 1_555
Mg1_7 Zn0_5 2.807837 1_565
Mg1_7 Mg5_2 3.104563 1_656
Mg1_7 Mg5_3 3.104563 1_655
Mg1_7 Mg4_7 3.153733 1_555
Mg1_7 Mg4_6 3.153733 1_556
Mg1_7 Mg3_7 3.290985 1_555
Mg1_7 Mg3_6 3.290985 1_556
Mg2_0 Mg3_6 2.900899 1_445
Mg2_0 Zn0_4 3.013523 1_455
Mg2_0 Zn0_5 3.013523 1_454
Mg2_0 Mg3_0 3.051971 1_555
Mg2_0 Mg5_2 3.143728 1_545
Mg2_0 Mg4_0 3.309088 1_555
Mg2_1 Mg3_7 2.900899 1_445
Mg2_1 Zn0_4 3.013523 1_455
Mg2_1 Zn0_5 3.013523 1_455
Mg2_1 Mg3_1 3.051971 1_555
Mg2_1 Mg5_3 3.143728 1_545
Mg2_1 Mg4_1 3.309088 1_555
Mg2_2 Mg3_4 2.900899 1_455
Mg2_2 Zn0_6 3.013523 1_455
Mg2_2 Zn0_7 3.013523 1_454
Mg2_2 Mg3_2 3.051971 1_555
Mg2_2 Mg5_0 3.143728 1_555
Mg2_2 Mg4_2 3.309088 1_555
Mg2_3 Mg3_5 2.900899 1_455
Mg2_3 Zn0_7 3.013523 1_455
Mg2_3 Zn0_6 3.013523 1_455
Mg2_3 Mg3_3 3.051971 1_555
Mg2_3 Mg5_1 3.143728 1_555
Mg2_3 Mg4_3 3.309088 1_555
Mg2_4 Mg3_2 2.900899 1_545
Mg2_4 Zn0_0 3.013523 1_555
Mg2_4 Zn0_1 3.013523 1_554
Mg2_4 Mg3_4 3.051971 1_555
Mg2_4 Mg5_6 3.143728 1_545
Mg2_4 Mg4_4 3.309088 1_555
Mg2_5 Mg3_3 2.900899 1_545
Mg2_5 Zn0_1 3.013523 1_555
Mg2_5 Zn0_0 3.013523 1_555
Mg2_5 Mg3_5 3.051971 1_555
Mg2_5 Mg5_7 3.143728 1_545
Mg2_5 Mg4_5 3.309088 1_555
Mg2_6 Mg3_0 2.900899 1_555
Mg2_6 Zn0_3 3.013523 1_554
Mg2_6 Zn0_2 3.013523 1_555
Mg2_6 Mg3_6 3.051971 1_555
Mg2_6 Mg5_4 3.143728 1_555
Mg2_6 Mg4_6 3.309088 1_555
Mg2_7 Mg3_1 2.900899 1_555
Mg2_7 Zn0_2 3.013523 1_555
Mg2_7 Zn0_3 3.013523 1_555
Mg2_7 Mg3_7 3.051971 1_555
Mg2_7 Mg5_5 3.143728 1_555
Mg2_7 Mg4_7 3.309088 1_555
Mg3_0 Zn0_2 3.013523 1_555
Mg3_0 Zn0_3 3.013523 1_554
Mg3_0 Mg5_4 3.143728 1_555
Mg3_0 Mg4_0 3.309088 1_555
Mg3_1 Zn0_2 3.013523 1_555
Mg3_1 Zn0_3 3.013523 1_555
Mg3_1 Mg5_5 3.143728 1_555
Mg3_1 Mg4_1 3.309088 1_555
Mg3_2 Zn0_1 3.013523 1_564
Mg3_2 Zn0_0 3.013523 1_565
Mg3_2 Mg5_6 3.143728 1_555
Mg3_2 Mg4_2 3.309088 1_555
Mg3_3 Zn0_1 3.013523 1_565
Mg3_3 Zn0_0 3.013523 1_565
Mg3_3 Mg5_7 3.143728 1_555
Mg3_3 Mg4_3 3.309088 1_555
Mg3_4 Zn0_7 3.013523 1_554
Mg3_4 Zn0_6 3.013523 1_555
Mg3_4 Mg5_0 3.143728 1_655
Mg3_4 Mg4_4 3.309088 1_555
Mg3_5 Zn0_7 3.013523 1_555
Mg3_5 Zn0_6 3.013523 1_555
Mg3_5 Mg5_1 3.143728 1_655
Mg3_5 Mg4_5 3.309088 1_555
Mg3_6 Zn0_4 3.013523 1_565
Mg3_6 Zn0_5 3.013523 1_564
Mg3_6 Mg5_2 3.143728 1_655
Mg3_6 Mg4_6 3.309088 1_555
Mg3_7 Zn0_4 3.013523 1_565
Mg3_7 Zn0_5 3.013523 1_565
Mg3_7 Mg5_3 3.143728 1_655
Mg3_7 Mg4_7 3.309088 1_555
Mg4_0 Mg5_4 2.980068 1_555
Mg4_0 Mg5_2 2.980068 1_545
Mg4_1 Mg5_5 2.980068 1_555
Mg4_1 Mg5_3 2.980068 1_545
Mg4_2 Mg5_6 2.980068 1_555
Mg4_2 Mg5_0 2.980068 1_555
Mg4_3 Mg5_7 2.980068 1_555
Mg4_3 Mg5_1 2.980068 1_555
Mg4_4 Mg5_0 2.980068 1_655
Mg4_4 Mg5_6 2.980068 1_545
Mg4_5 Mg5_1 2.980068 1_655
Mg4_5 Mg5_7 2.980068 1_545
Mg4_6 Mg5_2 2.980068 1_655
Mg4_6 Mg5_4 2.980068 1_555
Mg4_7 Mg5_3 2.980068 1_655
Mg4_7 Mg5_5 2.980068 1_555
