# generated using pymatgen
data_NbCr3(AgS4)2
_symmetry_space_group_name_H-M   'P 1'
_cell_length_a   6.63800164
_cell_length_b   13.70394678
_cell_length_c   5.78529600
_cell_angle_alpha   90.00000000
_cell_angle_beta   90.00000000
_cell_angle_gamma   89.69683044
_symmetry_Int_Tables_number   1
_chemical_formula_structural   NbCr3(AgS4)2
_chemical_formula_sum   'Nb2 Cr6 Ag4 S16'
_cell_volume   526.26261946
_cell_formula_units_Z   2
loop_
 _symmetry_equiv_pos_site_id
 _symmetry_equiv_pos_as_xyz
  1  'x, y, z'
loop_
 _atom_site_type_symbol
 _atom_site_label
 _atom_site_symmetry_multiplicity
 _atom_site_fract_x
 _atom_site_fract_y
 _atom_site_fract_z
 _atom_site_occupancy
  Nb  Nb0  1  0.25000000  0.25000000  0.50000000  1
  Nb  Nb1  1  0.75000000  0.75000000  0.50000000  1
  Cr  Cr0  1  0.03941600  0.24907600  0.98670800  1
  Cr  Cr1  1  0.96058400  0.75092400  0.98670800  1
  Cr  Cr2  1  0.46058400  0.25092400  0.01329200  1
  Cr  Cr3  1  0.53941600  0.74907600  0.01329200  1
  Cr  Cr4  1  0.75000000  0.25000000  0.50000000  1
  Cr  Cr5  1  0.25000000  0.75000000  0.50000000  1
  Ag  Ag0  1  0.00000000  0.00000000  0.34563700  1
  Ag  Ag1  1  0.50000000  0.50000000  0.65436300  1
  Ag  Ag2  1  0.00000000  0.50000000  0.02316200  1
  Ag  Ag3  1  0.50000000  0.00000000  0.97683800  1
  S  S0  1  0.25553500  0.36505600  0.83947900  1
  S  S1  1  0.74446500  0.63494400  0.83947900  1
  S  S2  1  0.75381800  0.15858800  0.15704300  1
  S  S3  1  0.24618200  0.84141200  0.15704300  1
  S  S4  1  0.24446500  0.13494400  0.16052100  1
  S  S5  1  0.75553500  0.86505600  0.16052100  1
  S  S6  1  0.74618200  0.34141200  0.84295700  1
  S  S7  1  0.25381800  0.65858800  0.84295700  1
  S  S8  1  0.98915100  0.14395500  0.67538400  1
  S  S9  1  0.01084900  0.85604500  0.67538400  1
  S  S10  1  0.51084900  0.35604500  0.32461600  1
  S  S11  1  0.48915100  0.64395500  0.32461600  1
  S  S12  1  0.99190300  0.35369300  0.32204200  1
  S  S13  1  0.00809700  0.64630700  0.32204200  1
  S  S14  1  0.50809700  0.14630700  0.67795800  1
  S  S15  1  0.49190300  0.85369300  0.67795800  1
loop_
_geom_bond_atom_site_label_1
_geom_bond_atom_site_label_2
_geom_bond_distance
_geom_bond_site_symmetry_2
Nb0 S14 2.447174 1_555
Nb0 S12 2.447174 1_455
Nb0 S8 2.483179 1_455
Nb0 S10 2.483179 1_555
Nb0 S0 2.518979 1_555
Nb0 S4 2.518979 1_555
Nb1 S15 2.447174 1_555
Nb1 S13 2.447174 1_655
Nb1 S9 2.483179 1_655
Nb1 S11 2.483179 1_555
Nb1 S5 2.518979 1_555
Nb1 S1 2.518979 1_555
Cr0 S4 2.299465 1_556
Cr0 S0 2.309511 1_555
Cr0 S8 2.331444 1_455
Cr0 S12 2.431812 1_456
Cr0 S6 2.460799 1_455
Cr0 S2 2.475425 1_456
Cr1 S5 2.299465 1_556
Cr1 S1 2.309511 1_555
Cr1 S9 2.331444 1_655
Cr1 S13 2.431812 1_656
Cr1 S7 2.460799 1_655
Cr1 S3 2.475425 1_656
Cr2 S0 2.299465 1_554
Cr2 S4 2.309511 1_555
Cr2 S10 2.331444 1_555
Cr2 S14 2.431812 1_554
Cr2 S2 2.460799 1_555
Cr2 S6 2.475425 1_554
Cr3 S1 2.299465 1_554
Cr3 S5 2.309511 1_555
Cr3 S11 2.331444 1_555
Cr3 S15 2.431812 1_554
Cr3 S3 2.460799 1_555
Cr3 S7 2.475425 1_554
Cr4 S6 2.346542 1_555
Cr4 S2 2.346542 1_555
Cr4 S8 2.374257 1_555
Cr4 S10 2.374257 1_555
Cr4 S14 2.383651 1_555
Cr4 S12 2.383651 1_555
Cr5 S3 2.346542 1_555
Cr5 S7 2.346542 1_555
Cr5 S9 2.374257 1_555
Cr5 S11 2.374257 1_555
Cr5 S15 2.383651 1_555
Cr5 S13 2.383651 1_555
Ag0 S4 2.689205 1_555
Ag0 S5 2.689205 1_445
Ag0 S8 2.744939 1_455
Ag0 S9 2.744939 1_545
Ag0 S2 2.923435 1_455
Ag0 S3 2.923435 1_545
Ag1 S1 2.689205 1_555
Ag1 S0 2.689205 1_555
Ag1 S11 2.744939 1_555
Ag1 S10 2.744939 1_555
Ag1 S7 2.923435 1_555
Ag1 S6 2.923435 1_555
Ag2 S13 2.648359 1_555
Ag2 S12 2.648359 1_455
Ag2 S0 2.719020 1_554
Ag2 S1 2.719020 1_454
Ag2 S7 2.947455 1_554
Ag2 S6 2.947455 1_454
Ag3 S14 2.648359 1_555
Ag3 S15 2.648359 1_545
Ag3 S4 2.719020 1_556
Ag3 S5 2.719020 1_546
Ag3 S2 2.947455 1_556
Ag3 S3 2.947455 1_546
