# generated using pymatgen
data_Pu2B6Ru
_symmetry_space_group_name_H-M   'P 1'
_cell_length_a   3.59314433
_cell_length_b   9.42954282
_cell_length_c   11.52211340
_cell_angle_alpha   90.00000000
_cell_angle_beta   90.00000000
_cell_angle_gamma   90.00000000
_symmetry_Int_Tables_number   1
_chemical_formula_structural   Pu2B6Ru
_chemical_formula_sum   'Pu8 B24 Ru4'
_cell_volume   390.38888543
_cell_formula_units_Z   4
loop_
 _symmetry_equiv_pos_site_id
 _symmetry_equiv_pos_as_xyz
  1  'x, y, z'
loop_
 _atom_site_type_symbol
 _atom_site_label
 _atom_site_symmetry_multiplicity
 _atom_site_fract_x
 _atom_site_fract_y
 _atom_site_fract_z
 _atom_site_occupancy
  Pu  Pu0  1  -0.00000000  0.33772781  0.40749565  1
  Pu  Pu1  1  -0.00000000  0.66227219  0.59250435  1
  Pu  Pu2  1  0.00000000  0.83772781  0.09250435  1
  Pu  Pu3  1  0.00000000  0.16227219  0.90749565  1
  Pu  Pu4  1  -0.00000000  0.95347964  0.38863671  1
  Pu  Pu5  1  -0.00000000  0.04652036  0.61136329  1
  Pu  Pu6  1  0.00000000  0.45347964  0.11136329  1
  Pu  Pu7  1  0.00000000  0.54652036  0.88863671  1
  B  B0  1  0.50000000  0.55304663  0.43066660  1
  B  B1  1  0.50000000  0.44695337  0.56933340  1
  B  B2  1  0.50000000  0.05304663  0.06933340  1
  B  B3  1  0.50000000  0.94695337  0.93066660  1
  B  B4  1  0.50000000  0.74286035  0.42280548  1
  B  B5  1  0.50000000  0.25713965  0.57719452  1
  B  B6  1  0.50000000  0.24286035  0.07719452  1
  B  B7  1  0.50000000  0.75713965  0.92280548  1
  B  B8  1  0.50000000  0.80008720  0.27346991  1
  B  B9  1  0.50000000  0.19991280  0.72653009  1
  B  B10  1  0.50000000  0.30008720  0.22653009  1
  B  B11  1  0.50000000  0.69991280  0.77346991  1
  B  B12  1  0.50000000  0.64458042  0.18938031  1
  B  B13  1  0.50000000  0.35541958  0.81061969  1
  B  B14  1  0.50000000  0.14458042  0.31061969  1
  B  B15  1  0.50000000  0.85541958  0.68938031  1
  B  B16  1  0.50000000  0.99056044  0.21722872  1
  B  B17  1  0.50000000  0.00943956  0.78277128  1
  B  B18  1  0.50000000  0.49056044  0.28277128  1
  B  B19  1  0.50000000  0.50943956  0.71722872  1
  B  B20  1  0.50000000  0.64521336  0.04053417  1
  B  B21  1  0.50000000  0.35478664  0.95946583  1
  B  B22  1  0.50000000  0.14521336  0.45946583  1
  B  B23  1  0.50000000  0.85478664  0.54053417  1
  Ru  Ru0  1  -0.00000000  0.64563924  0.32068328  1
  Ru  Ru1  1  -0.00000000  0.35436076  0.67931672  1
  Ru  Ru2  1  0.00000000  0.14563924  0.17931672  1
  Ru  Ru3  1  -0.00000000  0.85436076  0.82068328  1
loop_
_geom_bond_atom_site_label_1
_geom_bond_atom_site_label_2
_geom_bond_distance
_geom_bond_site_symmetry_2
Pu0 Ru0 3.070933 1_555
Pu0 Ru1 3.135878 1_555
Pu0 Ru2 3.192651 1_555
Pu1 Ru1 3.070933 1_555
Pu1 Ru0 3.135878 1_555
Pu1 Ru3 3.192651 1_555
Pu2 Ru2 3.070933 1_565
Pu2 Ru3 3.135878 1_554
Pu2 Ru0 3.192651 1_555
Pu3 Ru3 3.070933 1_545
Pu3 Ru2 3.135878 1_556
Pu3 Ru1 3.192651 1_555
Pu4 Pu5 2.712104 1_565
Pu4 Ru0 3.006535 1_555
Pu4 Ru2 3.016634 1_565
Pu5 Ru1 3.006535 1_555
Pu5 Ru3 3.016634 1_545
Pu6 Pu7 2.712104 1_554
Pu6 Ru2 3.006535 1_555
Pu6 Ru0 3.016634 1_555
Pu7 Ru3 3.006535 1_555
Pu7 Ru1 3.016634 1_555
B0 B4 1.792147 1_555
B0 B18 1.803058 1_555
B0 B1 1.885094 1_555
B0 Ru0 2.365562 1_655
B0 Ru0 2.365562 1_555
B0 Pu0 2.724207 1_555
B0 Pu0 2.724207 1_655
B0 Pu1 2.786686 1_555
B0 Pu1 2.786686 1_655
B1 B5 1.792147 1_555
B1 B19 1.803058 1_555
B1 Ru1 2.365562 1_655
B1 Ru1 2.365562 1_555
B1 Pu1 2.724207 1_555
B1 Pu1 2.724207 1_655
B1 Pu0 2.786686 1_555
B1 Pu0 2.786686 1_655
B2 B6 1.792147 1_555
B2 B3 1.885094 1_544
B2 Ru2 2.365562 1_655
B2 Ru2 2.365562 1_555
B2 Pu2 2.724207 1_645
B2 Pu2 2.724207 1_545
B2 Pu3 2.786686 1_554
B2 Pu3 2.786686 1_654
B3 B7 1.792147 1_555
B3 Ru3 2.365562 1_555
B3 Ru3 2.365562 1_655
B3 Pu3 2.724207 1_565
B3 Pu3 2.724207 1_665
B3 Pu2 2.786686 1_656
B3 Pu2 2.786686 1_556
B4 B8 1.803294 1_555
B4 Ru0 2.335089 1_555
B4 Ru0 2.335089 1_655
B4 Pu4 2.706850 1_555
B4 Pu4 2.706850 1_655
B4 Pu1 2.761936 1_655
B4 Pu1 2.761936 1_555
B5 B9 1.803294 1_555
B5 Ru1 2.335089 1_555
B5 Ru1 2.335089 1_655
B5 Pu5 2.706850 1_655
B5 Pu5 2.706850 1_555
B5 Pu0 2.761936 1_655
B5 Pu0 2.761936 1_555
B6 Ru2 2.335089 1_655
B6 Ru2 2.335089 1_555
B6 Pu6 2.706850 1_555
B6 Pu6 2.706850 1_655
B6 Pu3 2.761936 1_654
B6 Pu3 2.761936 1_554
B7 Ru3 2.335089 1_655
B7 Ru3 2.335089 1_555
B7 Pu7 2.706850 1_655
B7 Pu7 2.706850 1_555
B7 Pu2 2.761936 1_656
B7 Pu2 2.761936 1_556
B8 Ru0 2.375843 1_555
B8 Ru0 2.375843 1_655
B8 Pu4 2.660947 1_555
B8 Pu4 2.660947 1_655
B8 Pu2 2.775124 1_555
B8 Pu2 2.775124 1_655
B9 Ru1 2.375843 1_555
B9 Ru1 2.375843 1_655
B9 Pu5 2.660947 1_555
B9 Pu5 2.660947 1_655
B9 Pu3 2.775124 1_555
B9 Pu3 2.775124 1_655
B10 B14 1.757542 1_555
B10 B6 1.803294 1_555
B10 B18 1.909401 1_555
B10 Ru2 2.375843 1_555
B10 Ru2 2.375843 1_655
B10 Pu6 2.660947 1_655
B10 Pu6 2.660947 1_555
B10 Pu0 2.775124 1_655
B10 Pu0 2.775124 1_555
B11 B15 1.757542 1_555
B11 B7 1.803294 1_555
B11 B19 1.909401 1_555
B11 Ru3 2.375843 1_555
B11 Ru3 2.375843 1_655
B11 Pu7 2.660947 1_655
B11 Pu7 2.660947 1_555
B11 Pu1 2.775124 1_655
B11 Pu1 2.775124 1_555
B12 B20 1.715032 1_555
B12 B8 1.757542 1_555
B12 B18 1.807538 1_555
B12 Ru0 2.348744 1_555
B12 Ru0 2.348744 1_655
B12 Pu6 2.698687 1_555
B12 Pu6 2.698687 1_655
B12 Pu2 2.791185 1_555
B12 Pu2 2.791185 1_655
B13 B21 1.715032 1_555
B13 B9 1.757542 1_555
B13 B19 1.807538 1_555
B13 Ru1 2.348744 1_655
B13 Ru1 2.348744 1_555
B13 Pu7 2.698687 1_555
B13 Pu7 2.698687 1_655
B13 Pu3 2.791185 1_655
B13 Pu3 2.791185 1_555
B14 B22 1.715032 1_555
B14 B16 1.807538 1_545
B14 Ru2 2.348744 1_655
B14 Ru2 2.348744 1_555
B14 Pu4 2.698687 1_545
B14 Pu4 2.698687 1_645
B14 Pu0 2.791185 1_655
B14 Pu0 2.791185 1_555
B15 B23 1.715032 1_555
B15 B17 1.807538 1_565
B15 Ru3 2.348744 1_655
B15 Ru3 2.348744 1_555
B15 Pu5 2.698687 1_565
B15 Pu5 2.698687 1_665
B15 Pu1 2.791185 1_555
B15 Pu1 2.791185 1_655
B16 B2 1.803058 1_565
B16 B8 1.909401 1_555
B16 Ru2 2.357302 1_665
B16 Ru2 2.357302 1_565
B16 Pu4 2.692673 1_555
B16 Pu4 2.692673 1_655
B16 Pu2 2.714735 1_555
B16 Pu2 2.714735 1_655
B17 B3 1.803058 1_545
B17 B9 1.909401 1_555
B17 Ru3 2.357302 1_645
B17 Ru3 2.357302 1_545
B17 Pu5 2.692673 1_555
B17 Pu5 2.692673 1_655
B17 Pu3 2.714735 1_555
B17 Pu3 2.714735 1_655
B18 Ru0 2.357302 1_555
B18 Ru0 2.357302 1_655
B18 Pu6 2.692673 1_555
B18 Pu6 2.692673 1_655
B18 Pu0 2.714735 1_655
B18 Pu0 2.714735 1_555
B19 Ru1 2.357302 1_555
B19 Ru1 2.357302 1_655
B19 Pu7 2.692673 1_555
B19 Pu7 2.692673 1_655
B19 Pu1 2.714735 1_555
B19 Pu1 2.714735 1_655
B20 B7 1.718705 1_554
B20 Pu2 2.623288 1_555
B20 Pu2 2.623288 1_655
B20 Pu7 2.675233 1_654
B20 Pu7 2.675233 1_554
B20 Pu6 2.676269 1_555
B20 Pu6 2.676269 1_655
B21 B6 1.718705 1_556
B21 Pu3 2.623288 1_555
B21 Pu3 2.623288 1_655
B21 Pu6 2.675233 1_556
B21 Pu6 2.675233 1_656
B21 Pu7 2.676269 1_555
B21 Pu7 2.676269 1_655
B22 B5 1.718705 1_555
B22 Pu0 2.623288 1_555
B22 Pu0 2.623288 1_655
B22 Pu5 2.675233 1_555
B22 Pu5 2.675233 1_655
B22 Pu4 2.676269 1_545
B22 Pu4 2.676269 1_645
B23 B4 1.718705 1_555
B23 Pu1 2.623288 1_555
B23 Pu1 2.623288 1_655
B23 Pu4 2.675233 1_555
B23 Pu4 2.675233 1_655
B23 Pu5 2.676269 1_565
B23 Pu5 2.676269 1_665
