# generated using pymatgen
data_LiGa(PO3)4
_symmetry_space_group_name_H-M   'P 1'
_cell_length_a   8.38356600
_cell_length_b   9.20569800
_cell_length_c   12.69074700
_cell_angle_alpha   90.00000000
_cell_angle_beta   90.00000000
_cell_angle_gamma   90.00000000
_symmetry_Int_Tables_number   1
_chemical_formula_structural   LiGa(PO3)4
_chemical_formula_sum   'Li4 Ga4 P16 O48'
_cell_volume   979.42840998
_cell_formula_units_Z   4
loop_
 _symmetry_equiv_pos_site_id
 _symmetry_equiv_pos_as_xyz
  1  'x, y, z'
loop_
 _atom_site_type_symbol
 _atom_site_label
 _atom_site_symmetry_multiplicity
 _atom_site_fract_x
 _atom_site_fract_y
 _atom_site_fract_z
 _atom_site_occupancy
  Li  Li0  1  0.00224500  0.25000000  0.00000000  1
  Li  Li1  1  0.99775500  0.75000000  0.00000000  1
  Li  Li2  1  0.49775500  0.75000000  0.50000000  1
  Li  Li3  1  0.50224500  0.25000000  0.50000000  1
  Ga  Ga0  1  0.37103700  0.25000000  0.00000000  1
  Ga  Ga1  1  0.62896300  0.75000000  0.00000000  1
  Ga  Ga2  1  0.12896300  0.75000000  0.50000000  1
  Ga  Ga3  1  0.87103700  0.25000000  0.50000000  1
  P  P0  1  0.18096300  0.00520400  0.13811600  1
  P  P1  1  0.81903700  0.99479600  0.86188400  1
  P  P2  1  0.31903700  0.50520400  0.36188400  1
  P  P3  1  0.18096300  0.49479600  0.86188400  1
  P  P4  1  0.68096300  0.49479600  0.63811600  1
  P  P5  1  0.81903700  0.50520400  0.13811600  1
  P  P6  1  0.31903700  0.99479600  0.63811600  1
  P  P7  1  0.68096300  0.00520400  0.36188400  1
  P  P8  1  0.03562600  0.01027200  0.35007200  1
  P  P9  1  0.96437400  0.98972800  0.64992800  1
  P  P10  1  0.46437400  0.51027200  0.14992800  1
  P  P11  1  0.03562600  0.48972800  0.64992800  1
  P  P12  1  0.53562600  0.48972800  0.85007200  1
  P  P13  1  0.96437400  0.51027200  0.35007200  1
  P  P14  1  0.46437400  0.98972800  0.85007200  1
  P  P15  1  0.53562600  0.01027200  0.14992800  1
  O  O0  1  0.36895300  0.37611200  0.12498000  1
  O  O1  1  0.63104700  0.62388800  0.87502000  1
  O  O2  1  0.13104700  0.87611200  0.37502000  1
  O  O3  1  0.36895300  0.12388800  0.87502000  1
  O  O4  1  0.86895300  0.12388800  0.62498000  1
  O  O5  1  0.63104700  0.87611200  0.12498000  1
  O  O6  1  0.13104700  0.62388800  0.62498000  1
  O  O7  1  0.86895300  0.37611200  0.37502000  1
  O  O8  1  0.03520800  0.12973700  0.43112900  1
  O  O9  1  0.96479200  0.87026300  0.56887100  1
  O  O10  1  0.46479200  0.62973700  0.06887100  1
  O  O11  1  0.03520800  0.37026300  0.56887100  1
  O  O12  1  0.53520800  0.37026300  0.93112900  1
  O  O13  1  0.96479200  0.62973700  0.43112900  1
  O  O14  1  0.46479200  0.87026300  0.93112900  1
  O  O15  1  0.53520800  0.12973700  0.06887100  1
  O  O16  1  0.10274300  0.07677100  0.24285400  1
  O  O17  1  0.89725700  0.92322900  0.75714600  1
  O  O18  1  0.39725700  0.57677100  0.25714600  1
  O  O19  1  0.10274300  0.42322900  0.75714600  1
  O  O20  1  0.60274300  0.42322900  0.74285400  1
  O  O21  1  0.89725700  0.57677100  0.24285400  1
  O  O22  1  0.39725700  0.92322900  0.74285400  1
  O  O23  1  0.60274300  0.07677100  0.25714600  1
  O  O24  1  0.40508000  0.37304000  0.39478500  1
  O  O25  1  0.59492000  0.62696000  0.60521500  1
  O  O26  1  0.09492000  0.87304000  0.10521500  1
  O  O27  1  0.40508000  0.12696000  0.60521500  1
  O  O28  1  0.90508000  0.12696000  0.89478500  1
  O  O29  1  0.59492000  0.87304000  0.39478500  1
  O  O30  1  0.09492000  0.62696000  0.89478500  1
  O  O31  1  0.90508000  0.37304000  0.10521500  1
  O  O32  1  0.19290600  0.13274200  0.06211300  1
  O  O33  1  0.80709400  0.86725800  0.93788700  1
  O  O34  1  0.30709400  0.63274200  0.43788700  1
  O  O35  1  0.19290600  0.36725800  0.93788700  1
  O  O36  1  0.69290600  0.36725800  0.56211300  1
  O  O37  1  0.80709400  0.63274200  0.06211300  1
  O  O38  1  0.30709400  0.86725800  0.56211300  1
  O  O39  1  0.69290600  0.13274200  0.43788700  1
  O  O40  1  0.14282500  0.46440000  0.32020400  1
  O  O41  1  0.85717500  0.53560000  0.67979600  1
  O  O42  1  0.35717500  0.96440000  0.17979600  1
  O  O43  1  0.14282500  0.03560000  0.67979600  1
  O  O44  1  0.64282500  0.03560000  0.82020400  1
  O  O45  1  0.85717500  0.96440000  0.32020400  1
  O  O46  1  0.35717500  0.53560000  0.82020400  1
  O  O47  1  0.64282500  0.46440000  0.17979600  1
loop_
_geom_bond_atom_site_label_1
_geom_bond_atom_site_label_2
_geom_bond_distance
_geom_bond_site_symmetry_2
Li0 O31 1.931167 1_455
Li0 O28 1.931167 1_454
Li0 O32 2.083625 1_555
Li0 O35 2.083625 1_554
Li1 O26 1.931167 1_655
Li1 O30 1.931167 1_654
Li1 O37 2.083625 1_555
Li1 O33 2.083625 1_554
Li2 O25 1.931167 1_555
Li2 O29 1.931167 1_555
Li2 O38 2.083625 1_555
Li2 O34 2.083625 1_555
Li3 O27 1.931167 1_555
Li3 O24 1.931167 1_555
Li3 O36 2.083625 1_555
Li3 O39 2.083625 1_555
Ga0 O3 1.965652 1_554
Ga0 O0 1.965652 1_555
Ga0 O15 1.970763 1_555
Ga0 O12 1.970763 1_554
Ga0 O32 2.004174 1_555
Ga0 O35 2.004174 1_554
Ga1 O1 1.965652 1_554
Ga1 O5 1.965652 1_555
Ga1 O10 1.970763 1_555
Ga1 O14 1.970763 1_554
Ga1 O37 2.004174 1_555
Ga1 O33 2.004174 1_554
Ga2 O2 1.965652 1_555
Ga2 O6 1.965652 1_555
Ga2 O9 1.970763 1_455
Ga2 O13 1.970763 1_455
Ga2 O38 2.004174 1_555
Ga2 O34 2.004174 1_555
Ga3 O7 1.965652 1_555
Ga3 O4 1.965652 1_555
Ga3 O11 1.970763 1_655
Ga3 O8 1.970763 1_655
Ga3 O36 2.004174 1_555
Ga3 O39 2.004174 1_555
O0 P10 1.505160 1_555
O1 P12 1.505160 1_555
O2 P8 1.505160 1_565
O3 P14 1.505160 1_545
O4 P9 1.505160 1_545
O5 P15 1.505160 1_565
O6 P11 1.505160 1_555
O7 P13 1.505160 1_555
O8 P8 1.505872 1_555
O9 P9 1.505872 1_555
O10 P10 1.505872 1_555
O11 P11 1.505872 1_555
O12 P12 1.505872 1_555
O13 P13 1.505872 1_555
O14 P14 1.505872 1_555
O15 P15 1.505872 1_555
O16 P8 1.594616 1_555
O16 P0 1.621991 1_555
O17 P9 1.594616 1_555
O17 P1 1.621991 1_555
O18 P10 1.594616 1_555
O18 P2 1.621991 1_555
O19 P11 1.594616 1_555
O19 P3 1.621991 1_555
O20 P12 1.594616 1_555
O20 P4 1.621991 1_555
O21 P13 1.594616 1_555
O21 P5 1.621991 1_555
O22 P14 1.594616 1_555
O22 P6 1.621991 1_555
O23 P15 1.594616 1_555
O23 P7 1.621991 1_555
O24 P2 1.474770 1_555
O25 P4 1.474770 1_555
O26 P0 1.474770 1_565
O27 P6 1.474770 1_545
O28 P1 1.474770 1_545
O29 P7 1.474770 1_565
O30 P3 1.474770 1_555
O31 P5 1.474770 1_555
O32 P0 1.522763 1_555
O33 P1 1.522763 1_555
O34 P2 1.522763 1_555
O35 P3 1.522763 1_555
O36 P4 1.522763 1_555
O37 P5 1.522763 1_555
O38 P6 1.522763 1_555
O39 P7 1.522763 1_555
O40 P13 1.600057 1_455
O40 P2 1.613461 1_555
O41 P11 1.600057 1_655
O41 P4 1.613461 1_555
O42 P15 1.600057 1_565
O42 P0 1.613461 1_565
O43 P9 1.600057 1_445
O43 P6 1.613461 1_545
O44 P14 1.600057 1_545
O44 P1 1.613461 1_545
O45 P8 1.600057 1_665
O45 P7 1.613461 1_565
O46 P12 1.600057 1_555
O46 P3 1.613461 1_555
O47 P10 1.600057 1_555
O47 P5 1.613461 1_555
