# generated using pymatgen
data_Li9Mn2Co5O16
_symmetry_space_group_name_H-M   'P 1'
_cell_length_a   3.03022000
_cell_length_b   5.13762823
_cell_length_c   19.58834859
_cell_angle_alpha   91.17221585
_cell_angle_beta   93.06773260
_cell_angle_gamma   104.54401450
_symmetry_Int_Tables_number   1
_chemical_formula_structural   Li9Mn2Co5O16
_chemical_formula_sum   'Li9 Mn2 Co5 O16'
_cell_volume   294.57765720
_cell_formula_units_Z   1
loop_
 _symmetry_equiv_pos_site_id
 _symmetry_equiv_pos_as_xyz
  1  'x, y, z'
loop_
 _atom_site_type_symbol
 _atom_site_label
 _atom_site_symmetry_multiplicity
 _atom_site_fract_x
 _atom_site_fract_y
 _atom_site_fract_z
 _atom_site_occupancy
  Li  Li0  1  0.93534200  0.18623000  0.68851400  1
  Li  Li1  1  0.56871600  0.30997700  0.81356700  1
  Li  Li2  1  0.18633800  0.43049100  0.93691700  1
  Li  Li3  1  0.81366200  0.56950900  0.06308300  1
  Li  Li4  1  0.43128400  0.69002300  0.18643300  1
  Li  Li5  1  0.06465800  0.81377000  0.31148600  1
  Li  Li6  1  0.68019400  0.93428500  0.43772600  1
  Li  Li7  1  0.31980600  0.06571500  0.56227400  1
  Li  Li8  1  0.50000000  0.00000000  0.00000000  1
  Mn  Mn0  1  0.62248600  0.62545300  0.62621900  1
  Mn  Mn1  1  0.37751400  0.37454700  0.37378100  1
  Co  Co0  1  0.25600000  0.74923700  0.75311500  1
  Co  Co1  1  0.88090100  0.88014200  0.88075200  1
  Co  Co2  1  0.11909900  0.11985800  0.11924800  1
  Co  Co3  1  0.74400000  0.25076300  0.24688500  1
  Co  Co4  1  0.00000000  0.50000000  0.50000000  1
  O  O0  1  0.30859000  0.89225700  0.66128300  1
  O  O1  1  0.89031000  0.00616300  0.78787400  1
  O  O2  1  0.54412800  0.12982100  0.90402900  1
  O  O3  1  0.15996300  0.27552500  0.04118700  1
  O  O4  1  0.80387900  0.38356500  0.15762200  1
  O  O5  1  0.38900500  0.51420200  0.28208300  1
  O  O6  1  0.06482700  0.64347100  0.40939500  1
  O  O7  1  0.63115100  0.76174700  0.53369400  1
  O  O8  1  0.61099500  0.48579800  0.71791700  1
  O  O9  1  0.19612100  0.61643500  0.84237800  1
  O  O10  1  0.84003700  0.72447500  0.95881300  1
  O  O11  1  0.45587200  0.87017900  0.09597100  1
  O  O12  1  0.10969000  0.99383700  0.21212600  1
  O  O13  1  0.69141000  0.10774300  0.33871700  1
  O  O14  1  0.36884900  0.23825300  0.46630600  1
  O  O15  1  0.93517300  0.35652900  0.59060500  1
loop_
_geom_bond_atom_site_label_1
_geom_bond_atom_site_label_2
_geom_bond_distance
_geom_bond_site_symmetry_2
Li0 O8 2.109618 1_555
Li0 O15 2.124272 1_555
Li0 O0 2.142548 1_545
Li0 O1 2.168233 1_555
Li0 O0 2.175862 1_645
Li0 O8 2.268727 1_655
Li1 O2 2.012170 1_555
Li1 O8 2.092763 1_555
Li1 O1 2.103239 1_555
Li1 O9 2.181129 1_655
Li1 O9 2.235364 1_555
Li1 O1 2.271822 1_455
Li2 O10 2.093821 1_455
Li2 O9 2.099269 1_555
Li2 O10 2.183781 1_555
Li2 O2 2.202693 1_555
Li2 O3 2.205451 1_556
Li2 O2 2.214400 1_455
Li3 O3 2.093821 1_655
Li3 O4 2.099269 1_555
Li3 O3 2.183781 1_555
Li3 O11 2.202693 1_555
Li3 O10 2.205451 1_554
Li3 O11 2.214400 1_655
Li4 O11 2.012170 1_555
Li4 O5 2.092763 1_555
Li4 O12 2.103239 1_555
Li4 O4 2.181129 1_455
Li4 O4 2.235364 1_555
Li4 O12 2.271822 1_655
Li5 O5 2.109618 1_555
Li5 O6 2.124272 1_555
Li5 O13 2.142548 1_565
Li5 O12 2.168233 1_555
Li5 O13 2.175862 1_465
Li5 O5 2.268727 1_455
Li6 O7 2.091322 1_555
Li6 O14 2.098351 1_565
Li6 O6 2.115048 1_555
Li6 O13 2.149243 1_565
Li6 O6 2.192865 1_655
Li6 O14 2.304194 1_665
Li7 O14 2.091322 1_555
Li7 O7 2.098351 1_545
Li7 O15 2.115048 1_555
Li7 O0 2.149243 1_545
Li7 O15 2.192865 1_455
Li7 O7 2.304194 1_445
Li8 O11 2.007541 1_545
Li8 O2 2.007541 1_554
Li8 O10 2.119239 1_544
Li8 O3 2.119239 1_555
Li8 O10 2.238927 1_444
Li8 O3 2.238927 1_655
Mn0 O8 1.946604 1_555
Mn0 O7 1.955411 1_555
Mn0 O0 1.985361 1_555
Mn0 O15 1.995536 1_555
Mn0 O0 2.247317 1_655
Mn0 O15 2.256784 1_455
Mn1 O5 1.946604 1_555
Mn1 O14 1.955411 1_555
Mn1 O13 1.985361 1_555
Mn1 O6 1.995536 1_555
Mn1 O13 2.247317 1_455
Mn1 O6 2.256784 1_655
Co0 O9 1.891120 1_555
Co0 O0 1.956290 1_555
Co0 O1 2.052442 1_465
Co0 O8 2.058348 1_555
Co0 O1 2.109336 1_565
Co0 O8 2.148551 1_455
Co1 O10 1.735977 1_555
Co1 O2 1.891591 1_565
Co1 O1 1.942789 1_565
Co1 O9 1.999529 1_655
Co1 O2 2.115551 1_665
Co1 O9 2.255164 1_555
Co2 O3 1.735977 1_555
Co2 O11 1.891591 1_545
Co2 O12 1.942789 1_545
Co2 O4 1.999529 1_455
Co2 O11 2.115551 1_445
Co2 O4 2.255164 1_555
Co3 O4 1.891120 1_555
Co3 O13 1.956290 1_555
Co3 O12 2.052442 1_645
Co3 O5 2.058348 1_555
Co3 O12 2.109336 1_545
Co3 O5 2.148551 1_655
Co4 O6 1.936478 1_555
Co4 O15 1.936478 1_455
Co4 O7 2.071416 1_455
Co4 O14 2.071416 1_555
Co4 O14 2.106799 1_455
Co4 O7 2.106799 1_555
