# generated using pymatgen
data_SiIr3
_symmetry_space_group_name_H-M   'P 1'
_cell_length_a   5.25407296
_cell_length_b   5.25407315
_cell_length_c   5.45593271
_cell_angle_alpha   118.78347348
_cell_angle_beta   118.78347382
_cell_angle_gamma   90.00000867
_symmetry_Int_Tables_number   1
_chemical_formula_structural   SiIr3
_chemical_formula_sum   'Si2 Ir6'
_cell_volume   110.29876991
_cell_formula_units_Z   2
loop_
 _symmetry_equiv_pos_site_id
 _symmetry_equiv_pos_as_xyz
  1  'x, y, z'
loop_
 _atom_site_type_symbol
 _atom_site_label
 _atom_site_symmetry_multiplicity
 _atom_site_fract_x
 _atom_site_fract_y
 _atom_site_fract_z
 _atom_site_occupancy
  Si  Si0  1  0.25000000  0.75000000  0.50000000  1
  Si  Si1  1  0.75000000  0.25000000  0.50000000  1
  Ir  Ir0  1  0.25000000  0.25000000  0.50000000  1
  Ir  Ir1  1  0.75000000  0.75000000  0.50000000  1
  Ir  Ir2  1  0.18401228  0.68401228  0.00000000  1
  Ir  Ir3  1  0.31598772  0.18401228  -0.00000000  1
  Ir  Ir4  1  0.68401228  0.81598772  0.00000000  1
  Ir  Ir5  1  0.81598772  0.31598772  -0.00000000  1
loop_
_geom_bond_atom_site_label_1
_geom_bond_atom_site_label_2
_geom_bond_distance
_geom_bond_site_symmetry_2
Ir0 Si1 2.627036 1_555
Ir0 Si1 2.627036 1_455
Ir0 Si0 2.627037 1_555
Ir0 Si0 2.627037 1_545
Ir1 Si0 2.627036 1_555
Ir1 Si0 2.627036 1_655
Ir1 Si1 2.627037 1_565
Ir1 Si1 2.627037 1_555
Ir2 Si1 2.420867 1_454
Ir2 Si0 2.420867 1_555
Ir3 Si1 2.420867 1_555
Ir3 Si0 2.420867 1_544
Ir4 Si0 2.420867 1_554
Ir4 Si1 2.420867 1_565
Ir5 Si0 2.420867 1_655
Ir5 Si1 2.420867 1_554
