# generated using pymatgen
data_EuGe3Rh
_symmetry_space_group_name_H-M   'P 1'
_cell_length_a   5.92237806
_cell_length_b   5.92237806
_cell_length_c   5.92237806
_cell_angle_alpha   136.28460573
_cell_angle_beta   136.28460573
_cell_angle_gamma   63.54063592
_symmetry_Int_Tables_number   1
_chemical_formula_structural   EuGe3Rh
_chemical_formula_sum   'Eu1 Ge3 Rh1'
_cell_volume   97.91384627
_cell_formula_units_Z   1
loop_
 _symmetry_equiv_pos_site_id
 _symmetry_equiv_pos_as_xyz
  1  'x, y, z'
loop_
 _atom_site_type_symbol
 _atom_site_label
 _atom_site_symmetry_multiplicity
 _atom_site_fract_x
 _atom_site_fract_y
 _atom_site_fract_z
 _atom_site_occupancy
  Eu  Eu0  1  0.00195683  0.00195683  -0.00000000  1
  Ge  Ge0  1  0.24426867  0.74426867  0.50000000  1
  Ge  Ge1  1  0.74426867  0.24426867  0.50000000  1
  Ge  Ge2  1  0.58653914  0.58653914  -0.00000000  1
  Rh  Rh0  1  0.34876670  0.34876670  -0.00000000  1
loop_
_geom_bond_atom_site_label_1
_geom_bond_atom_site_label_2
_geom_bond_distance
_geom_bond_site_symmetry_2
Eu0 Ge2 3.232458 1_455
Eu0 Ge2 3.232458 1_556
Eu0 Ge2 3.232458 1_444
Eu0 Ge2 3.232458 1_545
Eu0 Ge1 3.288716 1_555
Eu0 Ge0 3.288716 1_544
Eu0 Ge1 3.288716 1_454
Eu0 Ge0 3.288716 1_555
Eu0 Ge1 3.405183 1_455
Eu0 Ge0 3.405183 1_444
Eu0 Ge1 3.405183 1_444
Eu0 Ge0 3.405183 1_545
Eu0 Rh0 3.478938 1_556
Eu0 Rh0 3.478938 1_545
Eu0 Rh0 3.478938 1_455
Eu0 Rh0 3.478938 1_444
Eu0 Rh0 3.492377 1_555
Ge0 Rh0 2.443151 1_555
Ge0 Rh0 2.443151 1_566
Ge0 Ge2 2.717439 1_455
Ge0 Ge2 2.717439 1_556
Ge1 Rh0 2.443151 1_555
Ge1 Rh0 2.443151 1_656
Ge1 Ge2 2.717439 1_556
Ge1 Ge2 2.717439 1_545
Ge2 Rh0 2.394369 1_555
