# generated using pymatgen
data_ErAl3
_symmetry_space_group_name_H-M   'P 1'
_cell_length_a   6.17386433
_cell_length_b   6.17386433
_cell_length_c   4.58746286
_cell_angle_alpha   90.00000000
_cell_angle_beta   90.00000000
_cell_angle_gamma   120.00000142
_symmetry_Int_Tables_number   1
_chemical_formula_structural   ErAl3
_chemical_formula_sum   'Er2 Al6'
_cell_volume   151.43189268
_cell_formula_units_Z   2
loop_
 _symmetry_equiv_pos_site_id
 _symmetry_equiv_pos_as_xyz
  1  'x, y, z'
loop_
 _atom_site_type_symbol
 _atom_site_label
 _atom_site_symmetry_multiplicity
 _atom_site_fract_x
 _atom_site_fract_y
 _atom_site_fract_z
 _atom_site_occupancy
  Er  Er0  1  0.66666700  0.33333300  0.25000000  1
  Er  Er1  1  0.33333300  0.66666700  0.75000000  1
  Al  Al0  1  0.85219718  0.14780282  0.75000000  1
  Al  Al1  1  0.29560464  0.14780282  0.75000000  1
  Al  Al2  1  0.85219718  0.70439536  0.75000000  1
  Al  Al3  1  0.14780282  0.85219718  0.25000000  1
  Al  Al4  1  0.70439536  0.85219718  0.25000000  1
  Al  Al5  1  0.14780282  0.29560464  0.25000000  1
loop_
_geom_bond_atom_site_label_1
_geom_bond_atom_site_label_2
_geom_bond_distance
_geom_bond_site_symmetry_2
Al0 Al2 2.737538 1_545
Al0 Al1 2.737538 1_655
Al0 Al5 2.785543 1_656
Al0 Al5 2.785543 1_655
Al0 Al4 2.785543 1_545
Al0 Al4 2.785543 1_546
Al0 Er0 3.032703 1_556
Al0 Er0 3.032703 1_555
Al0 Er1 3.093516 1_545
Al0 Er1 3.093516 1_655
Al1 Al2 2.737537 1_445
Al1 Al5 2.785537 1_556
Al1 Al5 2.785537 1_555
Al1 Al3 2.785543 1_546
Al1 Al3 2.785543 1_545
Al1 Er0 3.032710 1_556
Al1 Er0 3.032710 1_555
Al1 Er1 3.093516 1_555
Al1 Er1 3.093516 1_545
Al2 Al4 2.785537 1_556
Al2 Al4 2.785537 1_555
Al2 Al3 2.785543 1_655
Al2 Al3 2.785543 1_656
Al2 Er0 3.032710 1_556
Al2 Er0 3.032710 1_555
Al2 Er1 3.093516 1_555
Al2 Er1 3.093516 1_655
Al3 Al4 2.737538 1_455
Al3 Al5 2.737538 1_565
Al3 Er1 3.032703 1_554
Al3 Er1 3.032703 1_555
Al3 Er0 3.093516 1_455
Al3 Er0 3.093516 1_565
Al4 Al5 2.737537 1_665
Al4 Er1 3.032710 1_554
Al4 Er1 3.032710 1_555
Al4 Er0 3.093516 1_555
Al4 Er0 3.093516 1_565
Al5 Er1 3.032710 1_554
Al5 Er1 3.032710 1_555
Al5 Er0 3.093516 1_555
Al5 Er0 3.093516 1_455
