# generated using pymatgen
data_CsMg14Ti
_symmetry_space_group_name_H-M   'P 1'
_cell_length_a   6.55368408
_cell_length_b   6.55368352
_cell_length_c   10.74652403
_cell_angle_alpha   90.00000000
_cell_angle_beta   90.00000000
_cell_angle_gamma   120.00000280
_symmetry_Int_Tables_number   1
_chemical_formula_structural   CsMg14Ti
_chemical_formula_sum   'Cs1 Mg14 Ti1'
_cell_volume   399.73263053
_cell_formula_units_Z   1
loop_
 _symmetry_equiv_pos_site_id
 _symmetry_equiv_pos_as_xyz
  1  'x, y, z'
loop_
 _atom_site_type_symbol
 _atom_site_label
 _atom_site_symmetry_multiplicity
 _atom_site_fract_x
 _atom_site_fract_y
 _atom_site_fract_z
 _atom_site_occupancy
  Cs  Cs0  1  0.16666700  0.33333300  0.62500000  1
  Mg  Mg0  1  0.15877492  0.82938696  0.12500000  1
  Mg  Mg1  1  0.17549052  0.83774476  0.62500000  1
  Mg  Mg2  1  0.67061304  0.34122508  0.12500000  1
  Mg  Mg3  1  0.66225524  0.32450948  0.62500000  1
  Mg  Mg4  1  0.67061304  0.82938696  0.12500000  1
  Mg  Mg5  1  0.66225524  0.83774476  0.62500000  1
  Mg  Mg6  1  0.33609364  0.16390636  0.35222450  1
  Mg  Mg7  1  0.33609364  0.16390636  0.89777550  1
  Mg  Mg8  1  0.33609364  0.67218828  0.35222450  1
  Mg  Mg9  1  0.33609364  0.67218828  0.89777550  1
  Mg  Mg10  1  0.82781172  0.16390636  0.35222450  1
  Mg  Mg11  1  0.82781172  0.16390636  0.89777550  1
  Mg  Mg12  1  0.83333300  0.66666700  0.38091437  1
  Mg  Mg13  1  0.83333300  0.66666700  0.86908563  1
  Ti  Ti0  1  0.16666700  0.33333300  0.12500000  1
loop_
_geom_bond_atom_site_label_1
_geom_bond_atom_site_label_2
_geom_bond_distance
_geom_bond_site_symmetry_2
Cs0 Mg1 3.277224 1_555
Cs0 Mg5 3.277224 1_555
Cs0 Mg5 3.277224 1_445
Cs0 Mg1 3.277224 1_545
Cs0 Mg3 3.277225 1_455
Cs0 Mg3 3.277225 1_555
Cs0 Mg7 3.505965 1_555
Cs0 Mg6 3.505965 1_555
Cs0 Mg9 3.505972 1_555
Cs0 Mg8 3.505972 1_555
Cs0 Mg11 3.505972 1_455
Cs0 Mg10 3.505972 1_455
Mg0 Mg8 3.093832 1_555
Mg0 Mg9 3.093832 1_554
Mg0 Mg6 3.093839 1_565
Mg0 Mg7 3.093839 1_564
Mg0 Mg2 3.199258 1_455
Mg0 Mg4 3.199259 1_455
Mg0 Ti0 3.277148 1_565
Mg0 Ti0 3.277148 1_555
Mg0 Mg13 3.312901 1_454
Mg0 Mg12 3.312901 1_455
Mg0 Mg2 3.354425 1_565
Mg0 Mg4 3.354425 1_555
Mg1 Mg13 3.263702 1_455
Mg1 Mg12 3.263702 1_455
Mg1 Mg9 3.467006 1_555
Mg1 Mg8 3.467006 1_555
Mg1 Mg7 3.467012 1_565
Mg1 Mg6 3.467012 1_565
Mg2 Mg6 3.093839 1_555
Mg2 Mg7 3.093839 1_554
Mg2 Mg4 3.199258 1_555
Mg2 Ti0 3.277148 1_555
Mg2 Ti0 3.277148 1_655
Mg2 Mg4 3.354425 1_545
Mg3 Mg7 3.467012 1_555
Mg3 Mg6 3.467012 1_555
Mg4 Mg8 3.093839 1_555
Mg4 Mg9 3.093839 1_554
Mg4 Ti0 3.277148 1_665
Mg4 Ti0 3.277148 1_555
Mg5 Mg9 3.467012 1_555
Mg5 Mg8 3.467012 1_555
Mg6 Ti0 3.108296 1_555
Mg6 Mg8 3.222565 1_545
Mg6 Mg8 3.331119 1_555
Mg7 Ti0 3.108296 1_556
Mg7 Mg9 3.222565 1_545
Mg7 Mg9 3.331119 1_555
Mg8 Ti0 3.108303 1_555
Mg9 Ti0 3.108303 1_556
Mg10 Mg2 3.093832 1_555
Mg10 Mg4 3.093839 1_545
Mg10 Ti0 3.108303 1_655
Mg10 Mg8 3.222565 1_545
Mg10 Mg6 3.222565 1_555
Mg10 Mg12 3.291464 1_555
Mg10 Mg12 3.291464 1_545
Mg10 Mg8 3.331119 1_655
Mg10 Mg6 3.331119 1_655
Mg10 Mg3 3.467006 1_555
Mg10 Mg5 3.467012 1_545
Mg11 Mg2 3.093832 1_556
Mg11 Mg4 3.093839 1_546
Mg11 Ti0 3.108303 1_656
Mg11 Mg9 3.222565 1_545
Mg11 Mg7 3.222565 1_555
Mg11 Mg13 3.291464 1_555
Mg11 Mg13 3.291464 1_545
Mg11 Mg9 3.331119 1_655
Mg11 Mg7 3.331119 1_655
Mg11 Mg3 3.467006 1_555
Mg11 Mg5 3.467012 1_545
Mg12 Mg5 3.263695 1_555
Mg12 Mg3 3.263702 1_555
Mg12 Mg6 3.291464 1_555
Mg12 Mg6 3.291464 1_665
Mg12 Mg8 3.291464 1_555
Mg12 Mg8 3.291464 1_655
Mg12 Mg4 3.312894 1_555
Mg12 Mg2 3.312901 1_555
Mg13 Mg5 3.263695 1_555
Mg13 Mg3 3.263702 1_555
Mg13 Mg7 3.291464 1_555
Mg13 Mg7 3.291464 1_665
Mg13 Mg9 3.291464 1_555
Mg13 Mg9 3.291464 1_655
Mg13 Mg4 3.312894 1_556
Mg13 Mg2 3.312901 1_556
