# generated using pymatgen
data_YbAlCu
_symmetry_space_group_name_H-M   'P 1'
_cell_length_a   7.09087175
_cell_length_b   7.09087175
_cell_length_c   3.98198400
_cell_angle_alpha   90.00000000
_cell_angle_beta   90.00000000
_cell_angle_gamma   119.99999768
_symmetry_Int_Tables_number   1
_chemical_formula_structural   YbAlCu
_chemical_formula_sum   'Yb3 Al3 Cu3'
_cell_volume   173.39214281
_cell_formula_units_Z   3
loop_
 _symmetry_equiv_pos_site_id
 _symmetry_equiv_pos_as_xyz
  1  'x, y, z'
loop_
 _atom_site_type_symbol
 _atom_site_label
 _atom_site_symmetry_multiplicity
 _atom_site_fract_x
 _atom_site_fract_y
 _atom_site_fract_z
 _atom_site_occupancy
  Yb  Yb0  1  0.41641000  0.00000000  0.50000000  1
  Yb  Yb1  1  0.00000000  0.41641000  0.50000000  1
  Yb  Yb2  1  0.58359000  0.58359000  0.50000000  1
  Al  Al0  1  0.76490700  0.00000000  0.00000000  1
  Al  Al1  1  0.00000000  0.76490700  0.00000000  1
  Al  Al2  1  0.23509300  0.23509300  0.00000000  1
  Cu  Cu0  1  0.33333300  0.66666700  0.00000000  1
  Cu  Cu1  1  0.66666700  0.33333300  0.00000000  1
  Cu  Cu2  1  0.00000000  0.00000000  0.50000000  1
loop_
_geom_bond_atom_site_label_1
_geom_bond_atom_site_label_2
_geom_bond_distance
_geom_bond_site_symmetry_2
Al0 Cu2 2.596726 1_655
Al0 Cu2 2.596726 1_654
Al0 Cu1 2.778216 1_555
Al0 Cu0 2.778221 1_545
Al0 Al1 2.887353 1_645
Al0 Al2 2.887354 1_655
Al0 Yb0 3.173424 1_555
Al0 Yb0 3.173424 1_554
Al0 Yb2 3.246425 1_544
Al0 Yb2 3.246425 1_545
Al0 Yb1 3.246425 1_655
Al0 Yb1 3.246425 1_654
Al1 Cu2 2.596726 1_565
Al1 Cu2 2.596726 1_564
Al1 Cu0 2.778216 1_555
Al1 Cu1 2.778221 1_455
Al1 Al2 2.887354 1_565
Al1 Yb1 3.173424 1_555
Al1 Yb1 3.173424 1_554
Al1 Yb2 3.246425 1_454
Al1 Yb2 3.246425 1_455
Al1 Yb0 3.246425 1_564
Al1 Yb0 3.246425 1_565
Al2 Cu2 2.596726 1_554
Al2 Cu2 2.596726 1_555
Al2 Cu0 2.778223 1_555
Al2 Cu1 2.778223 1_555
Al2 Yb2 3.173424 1_555
Al2 Yb2 3.173424 1_554
Al2 Yb0 3.246424 1_554
Al2 Yb1 3.246424 1_554
Al2 Yb0 3.246424 1_555
Al2 Yb1 3.246424 1_555
Cu0 Yb0 2.916402 1_565
Cu0 Yb0 2.916402 1_564
Cu0 Yb1 2.916403 1_554
Cu0 Yb1 2.916403 1_555
Cu0 Yb2 2.916407 1_554
Cu0 Yb2 2.916407 1_555
Cu1 Yb1 2.916402 1_654
Cu1 Yb1 2.916402 1_655
Cu1 Yb0 2.916403 1_554
Cu1 Yb0 2.916403 1_555
Cu1 Yb2 2.916407 1_555
Cu1 Yb2 2.916407 1_554
Cu2 Yb1 2.952710 1_555
Cu2 Yb0 2.952710 1_555
Cu2 Yb2 2.952710 1_445
