# generated using pymatgen
data_SrCa7Ti3Mn5O21
_symmetry_space_group_name_H-M   'P 1'
_cell_length_a   11.23200031
_cell_length_b   15.56268459
_cell_length_c   11.18458610
_cell_angle_alpha   90.12994566
_cell_angle_beta   91.24131276
_cell_angle_gamma   90.38777306
_symmetry_Int_Tables_number   1
_chemical_formula_structural   SrCa7Ti3Mn5O21
_chemical_formula_sum   'Sr4 Ca28 Ti12 Mn20 O84'
_cell_volume   1954.55725056
_cell_formula_units_Z   4
loop_
 _symmetry_equiv_pos_site_id
 _symmetry_equiv_pos_as_xyz
  1  'x, y, z'
loop_
 _atom_site_type_symbol
 _atom_site_label
 _atom_site_symmetry_multiplicity
 _atom_site_fract_x
 _atom_site_fract_y
 _atom_site_fract_z
 _atom_site_occupancy
  Sr  Sr0  1  0.98140030  0.12417867  0.52648508  1
  Sr  Sr1  1  0.50989680  0.38733138  0.99097582  1
  Sr  Sr2  1  0.24596714  0.38553960  0.22735308  1
  Sr  Sr3  1  0.22755911  0.12179410  0.21823356  1
  Ca  Ca0  1  0.97645101  0.11748069  0.01956595  1
  Ca  Ca1  1  0.99441191  0.62001559  0.52515540  1
  Ca  Ca2  1  0.98970990  0.61834237  0.00145857  1
  Ca  Ca3  1  0.54209090  0.12091404  0.48052305  1
  Ca  Ca4  1  0.54527238  0.12327753  0.98363897  1
  Ca  Ca5  1  0.53440288  0.62905854  0.51385904  1
  Ca  Ca6  1  0.54412705  0.62228809  0.97112680  1
  Ca  Ca7  1  0.49314366  0.37684100  0.52337415  1
  Ca  Ca8  1  0.53664859  0.85721826  0.97764353  1
  Ca  Ca9  1  0.48824797  0.86393584  0.50143001  1
  Ca  Ca10  1  0.96327260  0.38852797  0.00810579  1
  Ca  Ca11  1  0.95335348  0.38756372  0.51117880  1
  Ca  Ca12  1  0.95557520  0.87632266  0.99725470  1
  Ca  Ca13  1  0.96281405  0.86774168  0.51573742  1
  Ca  Ca14  1  0.23354149  0.40500518  0.75488171  1
  Ca  Ca15  1  0.23809080  0.88112785  0.27622748  1
  Ca  Ca16  1  0.22700932  0.86303011  0.72109839  1
  Ca  Ca17  1  0.74918419  0.37993601  0.25385542  1
  Ca  Ca18  1  0.72531260  0.39305054  0.76253346  1
  Ca  Ca19  1  0.74469818  0.85914032  0.24416395  1
  Ca  Ca20  1  0.71969927  0.86350270  0.73906977  1
  Ca  Ca21  1  0.23014372  0.10897511  0.74088918  1
  Ca  Ca22  1  0.24430965  0.62028726  0.27439974  1
  Ca  Ca23  1  0.26475153  0.62820093  0.71856989  1
  Ca  Ca24  1  0.76203291  0.12106166  0.24719855  1
  Ca  Ca25  1  0.76627404  0.12773111  0.75302053  1
  Ca  Ca26  1  0.76626228  0.61434256  0.25214302  1
  Ca  Ca27  1  0.77069478  0.62541030  0.75099755  1
  Ti  Ti0  1  0.98383613  0.99273987  0.26368671  1
  Ti  Ti1  1  0.98099170  0.99204821  0.75901826  1
  Ti  Ti2  1  0.00171191  0.50054852  0.25835913  1
  Ti  Ti3  1  0.23822082  0.96894236  0.02068455  1
  Ti  Ti4  1  0.23081070  0.99790461  0.51236562  1
  Ti  Ti5  1  0.24973327  0.52826511  0.00584506  1
  Ti  Ti6  1  0.26272379  0.24092513  0.93326080  1
  Ti  Ti7  1  0.26066484  0.23868958  0.45092657  1
  Ti  Ti8  1  0.26445283  0.74387901  0.97766526  1
  Ti  Ti9  1  0.98210646  0.25351221  0.26942473  1
  Ti  Ti10  1  -0.00076270  0.25908631  0.77904399  1
  Ti  Ti11  1  0.99869964  0.74684783  0.27176258  1
  Mn  Mn0  1  0.99497655  0.50043497  0.75669913  1
  Mn  Mn1  1  0.50338607  0.98605158  0.22144058  1
  Mn  Mn2  1  0.50284813  0.99765549  0.72355339  1
  Mn  Mn3  1  0.50734034  0.49593893  0.24894651  1
  Mn  Mn4  1  0.49150705  0.50378618  0.74807678  1
  Mn  Mn5  1  0.23101547  0.49314901  0.50826897  1
  Mn  Mn6  1  0.74258708  0.99887710  0.98868330  1
  Mn  Mn7  1  0.73943223  0.99576376  0.48657883  1
  Mn  Mn8  1  0.75223305  0.50348233  0.00333338  1
  Mn  Mn9  1  0.73815045  0.50021066  0.50606348  1
  Mn  Mn10  1  0.24384901  0.74559635  0.49283381  1
  Mn  Mn11  1  0.74793117  0.25072882  0.00583883  1
  Mn  Mn12  1  0.74093862  0.25006995  0.50358953  1
  Mn  Mn13  1  0.75990790  0.74738819  0.99698968  1
  Mn  Mn14  1  0.74878324  0.74856756  0.50148928  1
  Mn  Mn15  1  0.99992798  0.75102626  0.75198444  1
  Mn  Mn16  1  0.51023738  0.25791379  0.26200791  1
  Mn  Mn17  1  0.50886714  0.24837563  0.75484882  1
  Mn  Mn18  1  0.51434492  0.75049785  0.26309269  1
  Mn  Mn19  1  0.49917337  0.74811527  0.74371976  1
  O  O0  1  0.09735638  0.77001151  0.60508472  1
  O  O1  1  0.56833592  0.24947307  0.09935787  1
  O  O2  1  0.56856830  0.24795098  0.59070978  1
  O  O3  1  0.60674423  0.76268964  0.11898694  1
  O  O4  1  0.60510072  0.76382150  0.59682014  1
  O  O5  1  0.38734709  0.19140681  0.36736781  1
  O  O6  1  0.39071760  0.18219409  0.86577584  1
  O  O7  1  0.40836932  0.69496676  0.36869027  1
  O  O8  1  0.41136222  0.73425701  0.92491653  1
  O  O9  1  0.91198677  0.24764355  0.40822409  1
  O  O10  1  0.92576385  0.24119694  0.91635323  1
  O  O11  1  0.91058476  0.72905703  0.40089040  1
  O  O12  1  0.91571132  0.73869570  0.90140904  1
  O  O13  1  0.15796821  0.24909901  0.32122200  1
  O  O14  1  0.17964012  0.25596643  0.78864830  1
  O  O15  1  0.16407577  0.75007064  0.31335770  1
  O  O16  1  0.17631703  0.74241998  0.84464672  1
  O  O17  1  0.65745831  0.22649351  0.35020921  1
  O  O18  1  0.66173305  0.23412171  0.85315487  1
  O  O19  1  0.66305668  0.72469643  0.34951183  1
  O  O20  1  0.64449320  0.73114627  0.84939094  1
  O  O21  1  0.35667248  0.76060896  0.64115809  1
  O  O22  1  0.85458672  0.26702467  0.15683550  1
  O  O23  1  0.88821589  0.26352616  0.65367184  1
  O  O24  1  0.89079347  0.77535199  0.14664802  1
  O  O25  1  0.84832373  0.77401585  0.64252355  1
  O  O26  1  0.36049010  0.51749290  0.16232749  1
  O  O27  1  0.34552785  0.49529875  0.64048164  1
  O  O28  1  0.35595906  0.01997477  0.11282689  1
  O  O29  1  0.36027505  0.03013047  0.61484441  1
  O  O30  1  0.86782319  0.48424791  0.14935337  1
  O  O31  1  0.84511123  0.47790254  0.64163543  1
  O  O32  1  0.86126856  0.97556256  0.15821311  1
  O  O33  1  0.85877107  0.97928598  0.65626109  1
  O  O34  1  0.16757712  0.01628733  0.35955847  1
  O  O35  1  0.23121639  0.98726527  0.86276692  1
  O  O36  1  0.15521494  0.49717930  0.34857227  1
  O  O37  1  0.16119320  0.53058368  0.86513168  1
  O  O38  1  0.62553436  0.03041632  0.33483366  1
  O  O39  1  0.62964329  0.03952858  0.83365923  1
  O  O40  1  0.63199843  0.52668292  0.36246767  1
  O  O41  1  0.63859907  0.51532683  0.85608912  1
  O  O42  1  0.39101454  0.51814599  0.91202364  1
  O  O43  1  0.89267040  0.01430882  0.39631069  1
  O  O44  1  0.89810105  0.00960779  0.90130926  1
  O  O45  1  0.90488445  0.51485871  0.38829626  1
  O  O46  1  0.89381835  0.51106290  0.89526998  1
  O  O47  1  0.12021669  0.48024889  0.09380550  1
  O  O48  1  0.09174438  0.47319107  0.61618917  1
  O  O49  1  0.10152025  0.98781364  0.10323372  1
  O  O50  1  0.10803044  0.98320900  0.61460865  1
  O  O51  1  0.61278141  0.50331451  0.11596758  1
  O  O52  1  0.59445394  0.48886190  0.61168098  1
  O  O53  1  0.59676000  0.98488102  0.07302225  1
  O  O54  1  0.59760696  0.98170408  0.57479025  1
  O  O55  1  0.00916072  0.37331521  0.26506011  1
  O  O56  1  0.02059577  0.37691457  0.80396390  1
  O  O57  1  0.01647208  0.87840381  0.30126346  1
  O  O58  1  0.02489969  0.88007623  0.79643821  1
  O  O59  1  0.46471323  0.38140516  0.30834674  1
  O  O60  1  0.48417395  0.37770976  0.76703741  1
  O  O61  1  0.45377971  0.86874341  0.28480502  1
  O  O62  1  0.50068368  0.87260568  0.77403363  1
  O  O63  1  0.48007257  0.62574036  0.72171969  1
  O  O64  1  0.99498423  0.12824865  0.23028086  1
  O  O65  1  0.01675593  0.11819144  0.75226769  1
  O  O66  1  0.01135557  0.62554295  0.22101381  1
  O  O67  1  0.98555068  0.62491859  0.72463609  1
  O  O68  1  0.17435476  0.16952999  0.01903120  1
  O  O69  1  0.20132244  0.15459870  0.54396382  1
  O  O70  1  0.22033259  0.64506703  0.05854687  1
  O  O71  1  0.21518116  0.61867119  0.50891347  1
  O  O72  1  0.75709806  0.12382991  0.03604408  1
  O  O73  1  0.75046907  0.12456633  0.53981519  1
  O  O74  1  0.76414438  0.62660090  0.03509166  1
  O  O75  1  0.75110278  0.62551722  0.54187845  1
  O  O76  1  0.27989785  0.34764727  0.51029504  1
  O  O77  1  0.29236827  0.34252011  0.00564184  1
  O  O78  1  0.27680995  0.88689211  0.48415138  1
  O  O79  1  0.25728838  0.85105177  0.05676539  1
  O  O80  1  0.74374543  0.37623186  0.46464936  1
  O  O81  1  0.74767541  0.37582104  0.97757169  1
  O  O82  1  0.75500521  0.87099024  0.45211656  1
  O  O83  1  0.74764633  0.87476607  0.95694804  1
loop_
_geom_bond_atom_site_label_1
_geom_bond_atom_site_label_2
_geom_bond_distance
_geom_bond_site_symmetry_2
Ca0 O44 2.293839 1_554
Ca0 O10 2.315208 1_554
Ca0 O68 2.360824 1_655
Ca0 O64 2.366899 1_555
Ca0 O72 2.477255 1_555
Ca0 O49 2.628930 1_645
Ca0 O65 3.033416 1_654
Ca1 O67 2.236633 1_555
Ca1 O11 2.381924 1_555
Ca1 O45 2.435598 1_555
Ca1 O71 2.490473 1_655
Ca1 O48 2.729311 1_655
Ca1 O0 2.737611 1_655
Ca1 O75 2.745180 1_555
Ca2 O46 2.295491 1_554
Ca2 O12 2.332701 1_554
Ca2 O66 2.464614 1_655
Ca2 O74 2.573401 1_555
Ca2 O70 2.683870 1_655
Ca2 O47 2.796657 1_655
Ca2 O37 2.837862 1_654
Ca3 O2 2.341157 1_555
Ca3 O38 2.364484 1_555
Ca3 O5 2.400624 1_555
Ca3 O73 2.419038 1_555
Ca3 O54 2.488826 1_545
Ca3 O17 2.562633 1_555
Ca3 O29 2.920102 1_555
Ca4 O39 2.342295 1_555
Ca4 O6 2.349451 1_555
Ca4 O1 2.359313 1_556
Ca4 O72 2.437954 1_556
Ca4 O53 2.444258 1_546
Ca4 O18 2.623032 1_555
Ca4 O28 3.048146 1_556
Ca5 O7 2.370633 1_555
Ca5 O4 2.413875 1_555
Ca5 O63 2.416920 1_555
Ca5 O75 2.448330 1_555
Ca5 O52 2.532030 1_555
Ca5 O40 2.588237 1_555
Ca5 O19 2.789376 1_555
Ca6 O8 2.352264 1_555
Ca6 O41 2.371850 1_555
Ca6 O42 2.435052 1_555
Ca6 O20 2.458835 1_555
Ca6 O74 2.558177 1_556
Ca6 O51 2.574106 1_556
Ca6 O3 2.813593 1_556
Ca6 O63 2.866383 1_555
Ca7 O52 2.286101 1_555
Ca7 O2 2.304481 1_555
Ca7 O59 2.420499 1_555
Ca7 O76 2.436079 1_555
Ca7 O60 2.729321 1_555
Ca7 O27 2.826249 1_555
Ca7 O80 2.904272 1_555
Ca8 O3 2.292487 1_556
Ca8 O62 2.317437 1_555
Ca8 O53 2.341401 1_556
Ca8 O83 2.400001 1_555
Ca8 O8 2.431544 1_555
Ca8 O20 2.732971 1_555
Ca9 O4 2.294116 1_555
Ca9 O54 2.336698 1_555
Ca9 O78 2.407678 1_555
Ca9 O61 2.446694 1_555
Ca9 O21 2.700279 1_555
Ca10 O56 2.392448 1_654
Ca10 O46 2.413755 1_554
Ca10 O30 2.438962 1_555
Ca10 O47 2.439317 1_655
Ca10 O81 2.444832 1_554
Ca10 O10 2.538772 1_554
Ca10 O22 2.811405 1_555
Ca10 O55 2.919199 1_655
Ca11 O48 2.336063 1_655
Ca11 O31 2.382096 1_555
Ca11 O80 2.405332 1_555
Ca11 O45 2.470713 1_555
Ca11 O9 2.497048 1_555
Ca11 O23 2.616653 1_555
Ca11 O55 2.844909 1_655
Ca12 O83 2.368913 1_555
Ca12 O58 2.393784 1_655
Ca12 O24 2.416544 1_556
Ca12 O44 2.422627 1_565
Ca12 O12 2.427542 1_555
Ca12 O32 2.615410 1_556
Ca12 O49 2.640212 1_656
Ca13 O0 2.359690 1_655
Ca13 O25 2.419739 1_555
Ca13 O82 2.426264 1_555
Ca13 O57 2.491608 1_655
Ca13 O11 2.567109 1_555
Ca13 O33 2.635147 1_555
Ca13 O50 2.643022 1_655
Ca13 O43 2.756868 1_565
Ca14 O27 2.290825 1_555
Ca14 O14 2.425666 1_555
Ca14 O48 2.447900 1_555
Ca14 O37 2.460549 1_555
Ca14 O56 2.501407 1_555
Ca14 O60 2.850194 1_555
Ca14 O76 2.933999 1_555
Ca14 O42 3.021080 1_555
Ca14 O77 3.031343 1_556
Ca15 O15 2.240404 1_555
Ca15 O78 2.357973 1_555
Ca15 O61 2.431412 1_555
Ca15 O34 2.442553 1_565
Ca15 O57 2.511027 1_555
Ca15 O79 2.511910 1_555
Ca15 O49 2.962066 1_555
Ca16 O21 2.354250 1_555
Ca16 O0 2.404381 1_555
Ca16 O16 2.405877 1_555
Ca16 O58 2.454338 1_555
Ca16 O35 2.496532 1_555
Ca16 O50 2.584084 1_555
Ca16 O78 2.745904 1_555
Ca17 O80 2.360581 1_555
Ca17 O22 2.396249 1_555
Ca17 O30 2.413290 1_555
Ca17 O17 2.819884 1_555
Ca17 O51 2.891947 1_555
Ca17 O40 2.919105 1_555
Ca18 O31 2.333597 1_555
Ca18 O41 2.392686 1_555
Ca18 O81 2.428420 1_555
Ca18 O52 2.676565 1_555
Ca18 O60 2.718926 1_555
Ca18 O18 2.770129 1_555
Ca18 O46 2.996347 1_555
Ca18 O23 3.004820 1_555
Ca19 O82 2.333057 1_555
Ca19 O24 2.383833 1_555
Ca19 O32 2.439582 1_555
Ca19 O3 2.545424 1_555
Ca19 O19 2.576623 1_555
Ca20 O25 2.297980 1_555
Ca20 O83 2.455975 1_555
Ca20 O62 2.504128 1_555
Ca20 O4 2.543168 1_555
Ca20 O20 2.551871 1_555
Ca20 O33 2.564531 1_555
Ca20 O54 2.929298 1_555
Ca21 O69 2.332247 1_555
Ca21 O35 2.336102 1_545
Ca21 O29 2.394810 1_555
Ca21 O65 2.408126 1_555
Ca21 O14 2.421835 1_555
Ca21 O6 2.521538 1_555
Ca21 O50 2.752114 1_545
Ca22 O15 2.262556 1_555
Ca22 O36 2.318945 1_555
Ca22 O7 2.395785 1_555
Ca22 O26 2.433790 1_555
Ca22 O70 2.455033 1_555
Ca22 O71 2.650444 1_555
Ca22 O66 2.673000 1_555
Ca23 O71 2.402370 1_555
Ca23 O63 2.418543 1_555
Ca23 O27 2.432164 1_555
Ca23 O21 2.465726 1_555
Ca23 O16 2.491583 1_555
Ca23 O37 2.533369 1_555
Ca24 O38 2.311582 1_555
Ca24 O17 2.339963 1_555
Ca24 O72 2.361623 1_555
Ca24 O64 2.629072 1_555
Ca24 O22 2.699293 1_555
Ca24 O32 2.726212 1_545
Ca24 O43 2.762988 1_555
Ca25 O39 2.256067 1_555
Ca25 O18 2.334389 1_555
Ca25 O73 2.387746 1_555
Ca25 O23 2.759393 1_555
Ca25 O65 2.818524 1_655
Ca25 O44 2.875218 1_555
Ca26 O19 2.356348 1_555
Ca26 O40 2.391302 1_555
Ca26 O74 2.435160 1_555
Ca26 O30 2.607605 1_555
Ca26 O45 2.660989 1_555
Ca26 O66 2.786629 1_655
Ca26 O51 2.848009 1_555
Ca26 O11 2.900559 1_555
Ca27 O75 2.344494 1_555
Ca27 O67 2.437599 1_555
Ca27 O20 2.453386 1_555
Ca27 O41 2.562862 1_555
Ca27 O31 2.742658 1_555
Ca27 O25 2.758995 1_555
Ca27 O46 2.762740 1_555
Ca27 O12 2.901790 1_555
Mn0 O46 1.948862 1_555
Mn0 O67 1.974138 1_555
Mn0 O48 1.976888 1_655
Mn0 O56 2.015698 1_655
Mn0 O31 2.123380 1_555
Mn0 O37 2.250314 1_655
Mn1 O38 1.968575 1_565
Mn1 O53 1.982777 1_555
Mn1 O61 2.038344 1_555
Mn1 O28 2.103342 1_565
Mn2 O39 1.969079 1_565
Mn2 O54 2.010290 1_555
Mn2 O62 2.027720 1_555
Mn2 O29 2.056103 1_565
Mn3 O51 1.924352 1_555
Mn3 O26 1.926502 1_555
Mn3 O40 1.926818 1_555
Mn3 O59 1.963507 1_555
Mn4 O63 1.926071 1_555
Mn4 O52 1.948505 1_555
Mn4 O60 1.975348 1_555
Mn4 O27 2.016162 1_555
Mn4 O41 2.032186 1_555
Mn4 O42 2.185768 1_555
Mn5 O27 1.938791 1_555
Mn5 O71 1.962751 1_555
Mn5 O36 1.963275 1_555
Mn5 O48 2.019249 1_555
Mn5 O76 2.333663 1_555
Mn6 O53 1.919143 1_556
Mn6 O83 1.964475 1_555
Mn6 O72 2.018893 1_566
Mn6 O44 2.026010 1_565
Mn6 O39 2.221807 1_565
Mn6 O32 2.324661 1_556
Mn7 O54 1.903475 1_555
Mn7 O82 1.988446 1_555
Mn7 O43 2.033453 1_565
Mn7 O73 2.091889 1_565
Mn7 O38 2.174252 1_565
Mn7 O33 2.315352 1_555
Mn8 O74 1.951082 1_555
Mn8 O81 2.007041 1_554
Mn8 O46 2.021171 1_554
Mn8 O51 2.031214 1_555
Mn8 O41 2.070911 1_554
Mn8 O30 2.087600 1_555
Mn9 O31 1.947350 1_555
Mn9 O80 1.984969 1_555
Mn9 O75 1.993648 1_555
Mn9 O40 2.024208 1_555
Mn9 O52 2.027640 1_555
Mn9 O45 2.323058 1_555
Mn10 O71 2.008316 1_555
Mn10 O21 2.077430 1_555
Mn10 O0 2.126914 1_555
Mn10 O15 2.181916 1_555
Mn10 O78 2.230099 1_555
Mn10 O7 2.467665 1_555
Mn11 O18 1.960460 1_554
Mn11 O81 1.972995 1_554
Mn11 O72 2.007283 1_555
Mn11 O22 2.063460 1_555
Mn11 O10 2.259060 1_554
Mn11 O1 2.292284 1_555
Mn12 O17 1.969653 1_555
Mn12 O73 1.998761 1_555
Mn12 O80 2.012294 1_555
Mn12 O2 2.186300 1_555
Mn12 O9 2.218052 1_555
Mn12 O23 2.339108 1_555
Mn13 O74 1.929091 1_556
Mn13 O83 2.038201 1_555
Mn13 O12 2.075373 1_555
Mn13 O20 2.090593 1_555
Mn13 O3 2.232457 1_556
Mn13 O24 2.243625 1_556
Mn14 O25 1.951882 1_555
Mn14 O19 1.968722 1_555
Mn14 O75 1.968765 1_555
Mn14 O4 1.968830 1_555
Mn14 O82 1.986039 1_555
Mn14 O11 2.180703 1_555
Mn15 O12 1.947349 1_555
Mn15 O67 1.990523 1_555
Mn15 O0 2.014954 1_655
Mn15 O58 2.083556 1_655
Mn15 O25 2.108639 1_555
Mn15 O16 2.220915 1_655
Mn16 O1 1.950384 1_555
Mn16 O17 1.972075 1_555
Mn16 O59 2.060066 1_555
Mn16 O5 2.102815 1_555
Mn17 O2 1.968071 1_555
Mn17 O18 2.032402 1_555
Mn17 O60 2.038325 1_555
Mn17 O6 2.102332 1_555
Mn18 O7 1.900066 1_555
Mn18 O3 1.944753 1_555
Mn18 O19 1.956111 1_555
Mn18 O61 1.982477 1_555
Mn19 O63 1.929685 1_555
Mn19 O21 1.959889 1_555
Mn19 O62 1.965987 1_555
Mn19 O20 2.013567 1_555
Mn19 O4 2.063342 1_555
Mn19 O8 2.283013 1_555
O1 Sr1 2.549434 1_554
O5 Ti7 1.873016 1_555
O5 Sr3 2.648165 1_555
O6 Ti6 1.879779 1_555
O8 Ti8 1.771553 1_555
O9 Ti9 1.758198 1_555
O9 Sr0 2.456923 1_555
O10 Ti10 1.780678 1_655
O11 Ti11 1.789426 1_555
O13 Ti7 1.841842 1_555
O13 Ti9 2.048049 1_455
O13 Sr3 2.431584 1_555
O13 Sr2 2.571890 1_555
O14 Ti6 1.865747 1_555
O14 Ti10 2.027720 1_555
O15 Ti11 1.905378 1_455
O16 Ti8 1.769082 1_555
O22 Ti9 1.899628 1_555
O23 Ti10 1.857922 1_655
O23 Sr0 2.811267 1_555
O24 Ti11 1.886938 1_555
O26 Ti5 2.132764 1_555
O26 Sr2 2.532228 1_555
O28 Ti3 1.834311 1_545
O28 Sr3 2.465118 1_555
O29 Ti4 1.896075 1_545
O30 Ti2 1.930360 1_655
O32 Ti0 1.811511 1_555
O33 Ti1 1.780948 1_555
O33 Sr0 3.024577 1_565
O34 Ti4 1.860008 1_545
O34 Ti0 2.331389 1_445
O34 Sr3 2.385662 1_555
O35 Ti3 1.789884 1_556
O36 Ti2 1.979796 1_555
O36 Sr2 2.443145 1_555
O37 Ti5 1.843947 1_556
O41 Sr1 2.898752 1_555
O42 Ti5 1.928441 1_556
O42 Sr1 2.588670 1_555
O43 Ti0 1.851948 1_545
O43 Sr0 2.437099 1_555
O44 Ti1 1.881468 1_545
O45 Ti2 1.847904 1_655
O47 Ti5 1.921752 1_555
O47 Ti2 2.316892 1_555
O47 Sr2 2.518978 1_555
O49 Ti3 1.833714 1_555
O49 Ti0 2.253269 1_455
O49 Sr3 2.806262 1_565
O50 Ti4 1.824027 1_555
O50 Ti1 2.182937 1_455
O50 Sr0 2.792630 1_465
O51 Sr1 2.537350 1_554
O55 Ti9 1.887937 1_455
O55 Ti2 1.983942 1_555
O55 Sr2 2.707538 1_555
O56 Ti10 1.867247 1_555
O57 Ti0 1.866208 1_455
O57 Ti11 2.080617 1_455
O58 Ti1 1.860372 1_455
O59 Sr2 2.601416 1_555
O60 Sr1 2.519041 1_555
O64 Ti9 2.003894 1_555
O64 Ti0 2.145852 1_545
O64 Sr3 2.621259 1_655
O65 Ti1 2.003060 1_445
O65 Ti10 2.223008 1_555
O65 Sr0 2.549817 1_455
O66 Ti11 1.977005 1_455
O66 Ti2 1.993235 1_555
O68 Ti6 1.780773 1_554
O68 Sr3 2.414293 1_555
O69 Ti7 1.806694 1_555
O69 Ti4 2.488649 1_545
O69 Sr0 2.515331 1_455
O70 Ti8 1.855832 1_554
O70 Ti5 1.942272 1_555
O73 Sr0 2.601370 1_555
O76 Ti7 1.829374 1_555
O77 Ti6 1.800411 1_554
O77 Sr1 2.545131 1_554
O77 Sr2 2.631006 1_555
O78 Ti4 1.835205 1_555
O79 Ti8 1.889248 1_554
O79 Ti3 1.892024 1_555
O81 Sr1 2.685342 1_555
