# generated using pymatgen
data_P2Pb3O8
_symmetry_space_group_name_H-M   'P 1'
_cell_length_a   9.81255040
_cell_length_b   9.81260676
_cell_length_c   7.21143278
_cell_angle_alpha   90.00002126
_cell_angle_beta   90.00020912
_cell_angle_gamma   120.00017199
_symmetry_Int_Tables_number   1
_chemical_formula_structural   P2Pb3O8
_chemical_formula_sum   'P6 Pb9 O24'
_cell_volume   601.33673314
_cell_formula_units_Z   3
loop_
 _symmetry_equiv_pos_site_id
 _symmetry_equiv_pos_as_xyz
  1  'x, y, z'
loop_
 _atom_site_type_symbol
 _atom_site_label
 _atom_site_symmetry_multiplicity
 _atom_site_fract_x
 _atom_site_fract_y
 _atom_site_fract_z
 _atom_site_occupancy
  P  P0  1  0.60516293  0.98181991  0.25087438  1
  P  P1  1  0.37665803  0.39483409  0.25087336  1
  P  P2  1  0.01817971  0.62334337  0.25087658  1
  P  P3  1  0.39718605  0.01855607  0.75155340  1
  P  P4  1  0.62136698  0.60281345  0.75154847  1
  P  P5  1  0.98144659  0.37863412  0.75155173  1
  Pb  Pb0  1  0.75389449  0.74021401  0.24388225  1
  Pb  Pb1  1  0.98631733  0.24610448  0.24388379  1
  Pb  Pb2  1  0.25977980  0.01367707  0.24389066  1
  Pb  Pb3  1  0.25836471  0.25406758  0.75720431  1
  Pb  Pb4  1  0.99570222  0.74163361  0.75720580  1
  Pb  Pb5  1  0.74593674  0.00430114  0.75720802  1
  Pb  Pb6  1  0.66666634  0.33333151  0.48825511  1
  Pb  Pb7  1  0.33333438  0.66666798  0.99521029  1
  Pb  Pb8  1  0.33333351  0.66666393  0.49626185  1
  O  O0  1  0.42458502  0.91631587  0.23699808  1
  O  O1  1  0.49173138  0.57541587  0.23700086  1
  O  O2  1  0.08368507  0.50827086  0.23700101  1
  O  O3  1  0.57682980  0.09382866  0.76153346  1
  O  O4  1  0.51699849  0.42317280  0.76152886  1
  O  O5  1  0.90617664  0.48300229  0.76153475  1
  O  O6  1  0.69588946  0.16094879  0.26111221  1
  O  O7  1  0.46506004  0.30410991  0.26111191  1
  O  O8  1  0.83905043  0.53493902  0.26111087  1
  O  O9  1  0.32036511  0.83639084  0.74826896  1
  O  O10  1  0.51602388  0.67963579  0.74826665  1
  O  O11  1  0.16361416  0.48397344  0.74826678  1
  O  O12  1  0.63387191  0.90641686  0.42343249  1
  O  O13  1  0.27254359  0.36612569  0.42343106  1
  O  O14  1  0.09357803  0.72745402  0.42343294  1
  O  O15  1  0.32875751  0.06615073  0.91477674  1
  O  O16  1  0.73739066  0.67124234  0.91477325  1
  O  O17  1  0.93385048  0.26261093  0.91477240  1
  O  O18  1  0.35597027  0.07997927  0.57561952  1
  O  O19  1  0.72400930  0.64403153  0.57561589  1
  O  O20  1  0.92002136  0.27599059  0.57561805  1
  O  O21  1  0.65323780  0.92034072  0.07971226  1
  O  O22  1  0.26710221  0.34675892  0.07971059  1
  O  O23  1  0.07966259  0.73290095  0.07971638  1
loop_
_geom_bond_atom_site_label_1
_geom_bond_atom_site_label_2
_geom_bond_distance
_geom_bond_site_symmetry_2
O0 P0 1.556905 1_555
O0 Pb2 2.252863 1_565
O0 Pb7 2.765780 1_554
O0 Pb8 2.846945 1_555
O1 P1 1.556940 1_555
O1 Pb0 2.252816 1_555
O1 Pb7 2.765795 1_554
O1 Pb8 2.846891 1_555
O2 P2 1.556913 1_555
O2 Pb1 2.252856 1_455
O2 Pb7 2.765799 1_554
O2 Pb8 2.846883 1_555
O3 P3 1.534944 1_555
O3 Pb5 2.232488 1_555
O4 P4 1.534925 1_555
O4 Pb3 2.232471 1_555
O5 P5 1.534907 1_555
O5 Pb4 2.232469 1_555
O6 P0 1.524060 1_545
O6 Pb6 2.472178 1_555
O6 Pb1 2.540454 1_555
O7 P1 1.524037 1_555
O7 Pb6 2.472173 1_555
O7 Pb2 2.540514 1_555
O8 P2 1.524054 1_655
O8 Pb6 2.472194 1_555
O8 Pb0 2.540498 1_555
O9 P3 1.554525 1_565
O9 Pb7 2.484558 1_555
O9 Pb8 2.510895 1_555
O9 Pb4 2.838248 1_455
O10 P4 1.554523 1_555
O10 Pb7 2.484554 1_555
O10 Pb8 2.510827 1_555
O10 Pb5 2.838293 1_565
O11 P5 1.554530 1_455
O11 Pb7 2.484560 1_555
O11 Pb8 2.510842 1_555
O11 Pb3 2.838221 1_555
O12 P0 1.543942 1_555
O12 Pb5 2.620914 1_565
O12 Pb8 2.751272 1_555
O12 Pb0 2.764801 1_555
O13 P1 1.543954 1_555
O13 Pb3 2.620882 1_555
O13 Pb8 2.751273 1_555
O13 Pb1 2.764779 1_455
O14 P2 1.543916 1_555
O14 Pb4 2.620869 1_455
O14 Pb8 2.751327 1_555
O14 Pb2 2.764756 1_565
O15 P3 1.538854 1_555
O15 Pb2 2.451060 1_556
O15 Pb3 2.538147 1_555
O16 P4 1.538857 1_555
O16 Pb0 2.451009 1_556
O16 Pb4 2.538143 1_555
O17 P5 1.538839 1_555
O17 Pb1 2.451026 1_556
O17 Pb5 2.538107 1_555
O18 P3 1.542818 1_555
O18 Pb2 2.534341 1_555
O18 Pb3 2.680733 1_555
O19 P4 1.542827 1_555
O19 Pb0 2.534358 1_555
O19 Pb4 2.680729 1_555
O20 P5 1.542836 1_555
O20 Pb1 2.534360 1_555
O20 Pb5 2.680715 1_555
O21 P0 1.547455 1_555
O21 Pb5 2.483089 1_564
O21 Pb0 2.692033 1_555
O22 P1 1.547461 1_555
O22 Pb3 2.483076 1_554
O22 Pb1 2.692051 1_455
O23 P2 1.547464 1_555
O23 Pb4 2.483114 1_454
O23 Pb2 2.691978 1_565
