# generated using pymatgen
data_Mg(SnO2)2
_symmetry_space_group_name_H-M   'P 1'
_cell_length_a   6.39815809
_cell_length_b   6.39815809
_cell_length_c   17.08039714
_cell_angle_alpha   88.87592852
_cell_angle_beta   88.87592852
_cell_angle_gamma   59.78100687
_symmetry_Int_Tables_number   1
_chemical_formula_structural   Mg(SnO2)2
_chemical_formula_sum   'Mg6 Sn12 O24'
_cell_volume   604.03863696
_cell_formula_units_Z   6
loop_
 _symmetry_equiv_pos_site_id
 _symmetry_equiv_pos_as_xyz
  1  'x, y, z'
loop_
 _atom_site_type_symbol
 _atom_site_label
 _atom_site_symmetry_multiplicity
 _atom_site_fract_x
 _atom_site_fract_y
 _atom_site_fract_z
 _atom_site_occupancy
  Mg  Mg0  1  0.84182400  0.84182400  0.94944600  1
  Mg  Mg1  1  0.16749500  0.16749500  0.66469300  1
  Mg  Mg2  1  0.33453300  0.33453300  0.82828300  1
  Mg  Mg3  1  0.83156900  0.83156900  0.33468700  1
  Mg  Mg4  1  0.00002200  0.00002200  0.49872800  1
  Mg  Mg5  1  0.66194900  0.66194900  0.17273800  1
  Sn  Sn0  1  0.84200300  0.33492300  0.83138500  1
  Sn  Sn1  1  0.50429000  0.50429000  0.62548100  1
  Sn  Sn2  1  0.49770300  0.49770300  0.99217400  1
  Sn  Sn3  1  0.33492300  0.84200300  0.83138500  1
  Sn  Sn4  1  0.50013000  0.00042500  0.49908800  1
  Sn  Sn5  1  0.16692700  0.16692700  0.29008900  1
  Sn  Sn6  1  0.00042500  0.50013000  0.49908800  1
  Sn  Sn7  1  0.15720100  0.66540600  0.16887200  1
  Sn  Sn8  1  0.83293000  0.83293000  0.70518300  1
  Sn  Sn9  1  0.66540600  0.15720100  0.16887200  1
  Sn  Sn10  1  0.49640800  0.49640800  0.37275700  1
  Sn  Sn11  1  0.15668300  0.15668300  0.04875900  1
  O  O0  1  0.67409000  0.18350800  0.90442500  1
  O  O1  1  0.50638000  0.50638000  0.77928200  1
  O  O2  1  0.18350800  0.67409000  0.90442500  1
  O  O3  1  0.66895100  0.66895100  0.90140600  1
  O  O4  1  0.32439200  0.87004200  0.57414700  1
  O  O5  1  0.02255900  0.02255900  0.75852500  1
  O  O6  1  0.16915300  0.16915300  0.44067800  1
  O  O7  1  0.46229500  0.01255500  0.75311500  1
  O  O8  1  0.87004200  0.32439200  0.57414700  1
  O  O9  1  0.17117300  0.17117300  0.88791800  1
  O  O10  1  0.31539600  0.31539600  0.57121300  1
  O  O11  1  0.01255500  0.46229500  0.75311500  1
  O  O12  1  0.97788800  0.54315600  0.24370800  1
  O  O13  1  0.68644700  0.68644700  0.42771800  1
  O  O14  1  0.12862900  0.67601500  0.42388100  1
  O  O15  1  0.54315600  0.97788800  0.24370800  1
  O  O16  1  0.84061500  0.84061500  0.09365700  1
  O  O17  1  0.83127100  0.83127100  0.55759000  1
  O  O18  1  0.97176000  0.97176000  0.24315000  1
  O  O19  1  0.67601500  0.12862900  0.42388100  1
  O  O20  1  0.33308600  0.33308600  0.10653600  1
  O  O21  1  0.82475000  0.33146400  0.11197600  1
  O  O22  1  0.48673700  0.48673700  0.22812600  1
  O  O23  1  0.33146400  0.82475000  0.11197600  1
loop_
_geom_bond_atom_site_label_1
_geom_bond_atom_site_label_2
_geom_bond_distance
_geom_bond_site_symmetry_2
Mg0 O2 2.031517 1_655
Mg0 O0 2.031517 1_565
Mg0 O3 2.103036 1_555
Mg0 O16 2.462914 1_556
Mg1 O7 2.234321 1_555
Mg1 O11 2.234321 1_555
Mg1 O5 2.244428 1_555
Mg1 O10 2.263437 1_555
Mg1 O4 2.270024 1_545
Mg1 O8 2.270024 1_455
Mg2 O9 2.058775 1_555
Mg2 O1 2.064705 1_555
Mg2 O7 2.219900 1_555
Mg2 O11 2.219900 1_555
Mg2 O0 2.300740 1_555
Mg2 O2 2.300740 1_555
Mg3 O18 2.180230 1_555
Mg3 O13 2.236354 1_555
Mg3 O12 2.238940 1_555
Mg3 O15 2.238940 1_555
Mg3 O14 2.252532 1_655
Mg3 O19 2.252532 1_565
Mg4 O6 2.102297 1_555
Mg4 O17 2.104889 1_445
Mg4 O14 2.225889 1_545
Mg4 O19 2.225889 1_455
Mg4 O8 2.232421 1_455
Mg4 O4 2.232421 1_545
Mg5 O21 2.111822 1_555
Mg5 O23 2.111822 1_555
Mg5 O22 2.142487 1_555
Mg5 O12 2.155622 1_555
Mg5 O15 2.155622 1_555
Mg5 O16 2.373231 1_555
O0 Sn0 2.144009 1_555
O0 Sn2 2.308534 1_555
O1 Sn3 2.066889 1_555
O1 Sn0 2.066889 1_555
O1 Sn1 2.627609 1_555
O2 Sn3 2.144009 1_555
O2 Sn2 2.308534 1_555
O3 Sn3 2.211371 1_555
O3 Sn0 2.211371 1_555
O3 Sn2 2.424815 1_555
O4 Sn4 2.109377 1_565
O4 Sn1 2.194908 1_555
O5 Sn3 2.143506 1_545
O5 Sn0 2.143506 1_455
O5 Sn8 2.311429 1_445
O6 Sn4 2.093942 1_555
O6 Sn6 2.093942 1_555
O6 Sn5 2.572797 1_555
O7 Sn3 2.106498 1_545
O7 Sn8 2.198159 1_545
O8 Sn6 2.109377 1_655
O8 Sn1 2.194908 1_555
O9 Sn0 2.069931 1_455
O9 Sn3 2.069931 1_545
O9 Sn11 2.748294 1_556
O10 Sn4 2.149054 1_555
O10 Sn6 2.149054 1_555
O10 Sn1 2.310562 1_555
O11 Sn0 2.106498 1_455
O11 Sn8 2.198159 1_455
O12 Sn7 2.090081 1_655
O12 Sn5 2.217432 1_655
O13 Sn4 2.138030 1_565
O13 Sn6 2.138030 1_655
O13 Sn10 2.327196 1_555
O14 Sn6 2.102491 1_555
O14 Sn10 2.203853 1_555
O15 Sn9 2.090081 1_565
O15 Sn5 2.217432 1_565
O16 Sn9 2.184020 1_565
O16 Sn7 2.184020 1_655
O17 Sn4 2.095498 1_565
O17 Sn6 2.095498 1_655
O17 Sn8 2.521431 1_555
O18 Sn9 2.134674 1_565
O18 Sn7 2.134674 1_655
O18 Sn5 2.325828 1_665
O19 Sn4 2.102491 1_555
O19 Sn10 2.203853 1_555
O20 Sn7 2.134047 1_555
O20 Sn9 2.134047 1_555
O20 Sn11 2.211626 1_555
O20 Sn2 2.643756 1_554
O21 Sn9 2.071181 1_555
O21 Sn11 2.119800 1_655
O21 Sn2 2.745779 1_554
O22 Sn9 2.094922 1_555
O22 Sn7 2.094922 1_555
O22 Sn10 2.475108 1_555
O23 Sn7 2.071181 1_555
O23 Sn11 2.119800 1_565
O23 Sn2 2.745779 1_554
