# generated using pymatgen
data_ZnMo2O5
_symmetry_space_group_name_H-M   'P 1'
_cell_length_a   3.95556900
_cell_length_b   6.76004000
_cell_length_c   11.55182400
_cell_angle_alpha   90.00000000
_cell_angle_beta   90.00000000
_cell_angle_gamma   90.00000000
_symmetry_Int_Tables_number   1
_chemical_formula_structural   ZnMo2O5
_chemical_formula_sum   'Zn2 Mo4 O10'
_cell_volume   308.89351726
_cell_formula_units_Z   2
loop_
 _symmetry_equiv_pos_site_id
 _symmetry_equiv_pos_as_xyz
  1  'x, y, z'
loop_
 _atom_site_type_symbol
 _atom_site_label
 _atom_site_symmetry_multiplicity
 _atom_site_fract_x
 _atom_site_fract_y
 _atom_site_fract_z
 _atom_site_occupancy
  Zn  Zn0  1  0.50000000  0.63074600  0.00000000  1
  Zn  Zn1  1  0.00000000  0.36925400  0.50000000  1
  Mo  Mo0  1  0.00000000  0.12130800  0.83779400  1
  Mo  Mo1  1  0.50000000  0.87869200  0.66220600  1
  Mo  Mo2  1  0.50000000  0.87869200  0.33779400  1
  Mo  Mo3  1  0.00000000  0.12130800  0.16220600  1
  O  O0  1  0.50000000  0.95253000  0.50000000  1
  O  O1  1  0.00000000  0.04747000  0.00000000  1
  O  O2  1  0.50000000  0.03770100  0.81575500  1
  O  O3  1  0.00000000  0.96229900  0.68424500  1
  O  O4  1  0.50000000  0.03770100  0.18424500  1
  O  O5  1  0.00000000  0.96229900  0.31575500  1
  O  O6  1  0.00000000  0.37041500  0.18103400  1
  O  O7  1  0.50000000  0.62958500  0.31896600  1
  O  O8  1  0.50000000  0.62958500  0.68103400  1
  O  O9  1  0.00000000  0.37041500  0.81896600  1
loop_
_geom_bond_atom_site_label_1
_geom_bond_atom_site_label_2
_geom_bond_distance
_geom_bond_site_symmetry_2
Mo0 O9 1.697961 1_555
Mo0 O1 1.939119 1_556
Mo0 O2 2.072651 1_555
Mo0 O2 2.072651 1_455
Mo0 O3 2.074051 1_545
Mo1 O8 1.697961 1_555
Mo1 O0 1.939119 1_555
Mo1 O3 2.072651 1_555
Mo1 O3 2.072651 1_655
Mo1 O2 2.074051 1_565
Mo2 O7 1.697961 1_555
Mo2 O0 1.939119 1_555
Mo2 O5 2.072651 1_655
Mo2 O5 2.072651 1_555
Mo2 O4 2.074051 1_565
Mo3 O6 1.697961 1_555
Mo3 O1 1.939119 1_555
Mo3 O4 2.072651 1_455
Mo3 O4 2.072651 1_555
Mo3 O5 2.074051 1_545
