# generated using pymatgen
data_CeEu3
_symmetry_space_group_name_H-M   'P 1'
_cell_length_a   7.76162661
_cell_length_b   7.76162661
_cell_length_c   6.30864400
_cell_angle_alpha   90.00000000
_cell_angle_beta   90.00000000
_cell_angle_gamma   120.00000524
_symmetry_Int_Tables_number   1
_chemical_formula_structural   CeEu3
_chemical_formula_sum   'Ce2 Eu6'
_cell_volume   329.13352597
_cell_formula_units_Z   2
loop_
 _symmetry_equiv_pos_site_id
 _symmetry_equiv_pos_as_xyz
  1  'x, y, z'
loop_
 _atom_site_type_symbol
 _atom_site_label
 _atom_site_symmetry_multiplicity
 _atom_site_fract_x
 _atom_site_fract_y
 _atom_site_fract_z
 _atom_site_occupancy
  Ce  Ce0  1  0.33333300  0.66666700  0.75000000  1
  Ce  Ce1  1  0.66666700  0.33333300  0.25000000  1
  Eu  Eu0  1  0.16995100  0.33990300  0.25000000  1
  Eu  Eu1  1  0.66009700  0.83004900  0.25000000  1
  Eu  Eu2  1  0.16995100  0.83004900  0.25000000  1
  Eu  Eu3  1  0.83004900  0.66009700  0.75000000  1
  Eu  Eu4  1  0.33990300  0.16995100  0.75000000  1
  Eu  Eu5  1  0.83004900  0.16995100  0.75000000  1
loop_
_geom_bond_atom_site_label_1
_geom_bond_atom_site_label_2
_geom_bond_distance
_geom_bond_site_symmetry_2
Ce0 Eu1 3.843703 1_555
Ce0 Eu1 3.843703 1_556
Ce0 Eu0 3.843703 1_555
Ce0 Eu0 3.843703 1_556
Ce0 Eu2 3.843704 1_556
Ce0 Eu2 3.843704 1_555
Ce0 Eu4 3.881057 1_565
Ce0 Eu3 3.881057 1_455
Ce0 Eu5 3.881064 1_565
Ce0 Eu5 3.881064 1_455
Ce0 Eu3 3.881072 1_555
Ce0 Eu4 3.881072 1_555
Ce1 Eu3 3.843703 1_555
Ce1 Eu3 3.843703 1_554
Ce1 Eu4 3.843703 1_555
Ce1 Eu4 3.843703 1_554
Ce1 Eu5 3.843704 1_555
Ce1 Eu5 3.843704 1_554
Ce1 Eu0 3.881057 1_655
Ce1 Eu1 3.881057 1_545
Ce1 Eu2 3.881064 1_655
Ce1 Eu2 3.881064 1_545
Ce1 Eu1 3.881072 1_555
Ce1 Eu0 3.881072 1_555
Eu0 Eu1 3.804330 1_555
Eu0 Eu2 3.804330 1_555
Eu0 Eu5 3.894842 1_454
Eu0 Eu5 3.894842 1_455
Eu0 Eu4 3.894850 1_555
Eu0 Eu4 3.894850 1_554
Eu0 Eu1 3.957296 1_445
Eu0 Eu2 3.957296 1_545
Eu1 Eu2 3.804330 1_555
Eu1 Eu5 3.894842 1_564
Eu1 Eu5 3.894842 1_565
Eu1 Eu3 3.894850 1_554
Eu1 Eu3 3.894850 1_555
Eu1 Eu2 3.957296 1_655
Eu2 Eu4 3.894842 1_565
Eu2 Eu4 3.894842 1_564
Eu2 Eu3 3.894842 1_455
Eu2 Eu3 3.894842 1_454
Eu3 Eu4 3.804330 1_555
Eu3 Eu5 3.804330 1_555
Eu3 Eu4 3.957296 1_665
Eu3 Eu5 3.957296 1_565
Eu4 Eu5 3.804330 1_555
Eu4 Eu5 3.957296 1_455
