# generated using pymatgen
data_Tb3B7W
_symmetry_space_group_name_H-M   'P 1'
_cell_length_a   8.22897486
_cell_length_b   8.22897486
_cell_length_c   9.52575200
_cell_angle_alpha   90.00000000
_cell_angle_beta   90.00000000
_cell_angle_gamma   155.54025039
_symmetry_Int_Tables_number   1
_chemical_formula_structural   Tb3B7W
_chemical_formula_sum   'Tb6 B14 W2'
_cell_volume   267.08384025
_cell_formula_units_Z   2
loop_
 _symmetry_equiv_pos_site_id
 _symmetry_equiv_pos_as_xyz
  1  'x, y, z'
loop_
 _atom_site_type_symbol
 _atom_site_label
 _atom_site_symmetry_multiplicity
 _atom_site_fract_x
 _atom_site_fract_y
 _atom_site_fract_z
 _atom_site_occupancy
  Tb  Tb0  1  0.89317700  0.10682300  0.43960500  1
  Tb  Tb1  1  0.10682300  0.89317700  0.56039500  1
  Tb  Tb2  1  0.89317700  0.10682300  0.06039500  1
  Tb  Tb3  1  0.10682300  0.89317700  0.93960500  1
  Tb  Tb4  1  0.24338600  0.75661400  0.25000000  1
  Tb  Tb5  1  0.75661400  0.24338600  0.75000000  1
  B  B0  1  0.72726800  0.27273200  0.46727300  1
  B  B1  1  0.27273200  0.72726800  0.53272700  1
  B  B2  1  0.72726800  0.27273200  0.03272700  1
  B  B3  1  0.27273200  0.72726800  0.96727300  1
  B  B4  1  0.63431700  0.36568300  0.14730500  1
  B  B5  1  0.36568300  0.63431700  0.85269500  1
  B  B6  1  0.63431700  0.36568300  0.35269500  1
  B  B7  1  0.36568300  0.63431700  0.64730500  1
  B  B8  1  0.51987500  0.48012500  0.09228500  1
  B  B9  1  0.48012500  0.51987500  0.90771500  1
  B  B10  1  0.51987500  0.48012500  0.40771500  1
  B  B11  1  0.48012500  0.51987500  0.59228500  1
  B  B12  1  0.45682300  0.54317700  0.25000000  1
  B  B13  1  0.54317700  0.45682300  0.75000000  1
  W  W0  1  0.05325000  0.94675000  0.25000000  1
  W  W1  1  0.94675000  0.05325000  0.75000000  1
loop_
_geom_bond_atom_site_label_1
_geom_bond_atom_site_label_2
_geom_bond_distance
_geom_bond_site_symmetry_2
B0 B6 1.851071 1_555
B0 B1 1.990521 1_655
B0 B1 1.990521 1_545
B0 Tb0 2.681538 1_555
B0 Tb4 2.718363 1_545
B0 Tb4 2.718363 1_655
B0 Tb5 2.734238 1_555
B0 Tb1 2.752934 1_545
B0 Tb1 2.752934 1_655
B1 B7 1.851071 1_555
B1 Tb1 2.681538 1_555
B1 Tb5 2.718363 1_455
B1 Tb5 2.718363 1_565
B1 Tb4 2.734238 1_555
B1 Tb0 2.752934 1_455
B1 Tb0 2.752934 1_565
B2 B4 1.851071 1_555
B2 B3 1.990521 1_654
B2 B3 1.990521 1_544
B2 Tb2 2.681538 1_555
B2 Tb4 2.718363 1_545
B2 Tb4 2.718363 1_655
B2 Tb5 2.734238 1_554
B2 Tb3 2.752934 1_544
B2 Tb3 2.752934 1_654
B3 B5 1.851071 1_555
B3 Tb3 2.681538 1_555
B3 Tb5 2.718363 1_455
B3 Tb5 2.718363 1_565
B3 Tb4 2.734238 1_556
B3 Tb2 2.752934 1_456
B3 Tb2 2.752934 1_566
B4 B8 1.913896 1_555
B4 B6 1.956494 1_555
B4 W0 2.386597 1_545
B4 W0 2.386597 1_655
B4 Tb4 2.659561 1_545
B4 Tb4 2.659561 1_655
B4 Tb3 2.673705 1_654
B4 Tb3 2.673705 1_544
B5 B9 1.913896 1_555
B5 B7 1.956494 1_555
B5 W1 2.386597 1_565
B5 W1 2.386597 1_455
B5 Tb5 2.659561 1_455
B5 Tb5 2.659561 1_565
B5 Tb2 2.673705 1_566
B5 Tb2 2.673705 1_456
B6 W0 2.386597 1_545
B6 W0 2.386597 1_655
B6 Tb4 2.659561 1_545
B6 Tb4 2.659561 1_655
B6 Tb1 2.673705 1_655
B6 Tb1 2.673705 1_545
B7 W1 2.386597 1_565
B7 W1 2.386597 1_455
B7 Tb5 2.659561 1_455
B7 Tb5 2.659561 1_565
B7 Tb0 2.673705 1_565
B7 Tb0 2.673705 1_455
B8 B9 1.870810 1_554
B8 W0 2.363032 1_655
B8 W0 2.363032 1_545
B8 Tb3 2.666414 1_544
B8 Tb3 2.666414 1_654
B8 Tb2 2.698863 1_565
B8 Tb2 2.698863 1_455
B9 W1 2.363032 1_565
B9 W1 2.363032 1_455
B9 Tb2 2.666414 1_566
B9 Tb2 2.666414 1_456
B9 Tb3 2.698863 1_655
B9 Tb3 2.698863 1_545
B10 B12 1.812617 1_555
B10 B11 1.870810 1_555
B10 B6 1.913896 1_555
B10 W0 2.363032 1_655
B10 W0 2.363032 1_545
B10 Tb1 2.666414 1_545
B10 Tb1 2.666414 1_655
B10 Tb0 2.698863 1_565
B10 Tb0 2.698863 1_455
B11 B13 1.812617 1_555
B11 B7 1.913896 1_555
B11 W1 2.363032 1_565
B11 W1 2.363032 1_455
B11 Tb0 2.666414 1_565
B11 Tb0 2.666414 1_455
B11 Tb1 2.698863 1_655
B11 Tb1 2.698863 1_545
B12 B8 1.812617 1_555
B12 W0 2.333281 1_655
B12 W0 2.333281 1_545
B12 Tb2 2.710861 1_565
B12 Tb0 2.710861 1_565
B12 Tb0 2.710861 1_455
B12 Tb2 2.710861 1_455
B13 B9 1.812617 1_555
B13 W1 2.333281 1_455
B13 W1 2.333281 1_565
B13 Tb1 2.710861 1_655
B13 Tb3 2.710861 1_655
B13 Tb1 2.710861 1_545
B13 Tb3 2.710861 1_545
