# generated using pymatgen
data_Dy(BIr)2
_symmetry_space_group_name_H-M   'P 1'
_cell_length_a   5.45309319
_cell_length_b   5.45309319
_cell_length_c   6.19815711
_cell_angle_alpha   103.87273870
_cell_angle_beta   103.87273870
_cell_angle_gamma   117.06162183
_symmetry_Int_Tables_number   1
_chemical_formula_structural   Dy(BIr)2
_chemical_formula_sum   'Dy2 B4 Ir4'
_cell_volume   145.79571864
_cell_formula_units_Z   2
loop_
 _symmetry_equiv_pos_site_id
 _symmetry_equiv_pos_as_xyz
  1  'x, y, z'
loop_
 _atom_site_type_symbol
 _atom_site_label
 _atom_site_symmetry_multiplicity
 _atom_site_fract_x
 _atom_site_fract_y
 _atom_site_fract_z
 _atom_site_occupancy
  Dy  Dy0  1  0.75000000  0.25000000  0.50000000  1
  Dy  Dy1  1  0.00000000  -0.00000000  0.00000000  1
  B  B0  1  0.07047831  0.92952169  0.50000000  1
  B  B1  1  0.67952169  0.32047831  0.00000000  1
  B  B2  1  0.42952169  0.57047831  0.50000000  1
  B  B3  1  0.32047831  0.67952169  0.00000000  1
  Ir  Ir0  1  0.12374232  0.62374232  0.24748364  1
  Ir  Ir1  1  0.37625768  0.87625768  0.75251636  1
  Ir  Ir2  1  0.62625768  0.62625768  0.25251636  1
  Ir  Ir3  1  0.37374232  0.37374232  0.74748364  1
loop_
_geom_bond_atom_site_label_1
_geom_bond_atom_site_label_2
_geom_bond_distance
_geom_bond_site_symmetry_2
Dy0 Ir3 3.048062 1_555
Dy0 Ir2 3.048062 1_555
Dy0 Ir2 3.048064 1_545
Dy0 Ir3 3.048064 1_655
Dy0 Ir1 3.168088 1_655
Dy0 Ir0 3.168088 1_545
Dy0 Ir0 3.168093 1_655
Dy0 Ir1 3.168093 1_545
Dy1 Ir1 3.048062 1_544
Dy1 Ir0 3.048062 1_545
Dy1 Ir0 3.048064 1_555
Dy1 Ir1 3.048064 1_444
Dy1 Ir3 3.168088 1_444
Dy1 Ir2 3.168088 1_555
Dy1 Ir2 3.168093 1_445
Dy1 Ir3 3.168093 1_554
B0 Ir3 2.076637 1_565
B0 Ir2 2.076637 1_455
B0 Ir1 2.172920 1_555
B0 Ir0 2.172920 1_555
B0 Dy0 2.981126 1_465
B0 Dy1 3.167664 1_565
B0 Dy1 3.167664 1_566
B0 Dy0 3.300388 1_565
B0 Dy0 3.300388 1_455
B1 Ir1 2.076637 1_544
B1 Ir0 2.076637 1_655
B1 Ir3 2.172920 1_554
B1 Ir2 2.172920 1_555
B1 Dy1 2.981126 1_655
B1 Dy0 3.167664 1_554
B1 Dy0 3.167664 1_555
B1 Dy1 3.300388 1_665
B1 Dy1 3.300388 1_555
B2 Ir2 2.076633 1_555
B2 Ir3 2.076633 1_555
B2 Ir0 2.172920 1_555
B2 Ir1 2.172920 1_555
B2 Dy0 2.981126 1_555
B2 Dy1 3.167664 1_666
B2 Dy1 3.167664 1_555
B2 Dy0 3.300388 1_565
B2 Dy0 3.300388 1_455
B3 Ir1 2.076633 1_554
B3 Ir0 2.076633 1_555
B3 Ir3 2.172920 1_554
B3 Ir2 2.172920 1_555
B3 Dy1 2.981126 1_565
B3 Dy0 3.167664 1_454
B3 Dy0 3.167664 1_565
B3 Dy1 3.300388 1_665
B3 Dy1 3.300388 1_555
