# generated using pymatgen
data_LiMn(PO3)4
_symmetry_space_group_name_H-M   'P 1'
_cell_length_a   9.37755400
_cell_length_b   9.30934200
_cell_length_c   12.90633629
_cell_angle_alpha   46.46679943
_cell_angle_beta   90.00000000
_cell_angle_gamma   90.00000000
_symmetry_Int_Tables_number   1
_chemical_formula_structural   LiMn(PO3)4
_chemical_formula_sum   'Li4 Mn4 P16 O48'
_cell_volume   816.83585290
_cell_formula_units_Z   4
loop_
 _symmetry_equiv_pos_site_id
 _symmetry_equiv_pos_as_xyz
  1  'x, y, z'
loop_
 _atom_site_type_symbol
 _atom_site_label
 _atom_site_symmetry_multiplicity
 _atom_site_fract_x
 _atom_site_fract_y
 _atom_site_fract_z
 _atom_site_occupancy
  Li  Li0  1  0.00949100  0.74165400  0.75167000  1
  Li  Li1  1  0.51351900  0.24353900  0.75365400  1
  Li  Li2  1  0.48648100  0.24353900  0.25365400  1
  Li  Li3  1  0.99050900  0.74165400  0.25167000  1
  Mn  Mn0  1  0.26941600  0.49670800  0.74895200  1
  Mn  Mn1  1  0.23170600  0.98385800  0.24982200  1
  Mn  Mn2  1  0.76829400  0.98385800  0.74982200  1
  Mn  Mn3  1  0.73058400  0.49670800  0.24895200  1
  P  P0  1  0.02054800  0.74806500  0.00061600  1
  P  P1  1  0.02780800  0.25282100  0.50097700  1
  P  P2  1  0.24914200  0.98081100  0.99906900  1
  P  P3  1  0.24756300  0.51961200  0.99767300  1
  P  P4  1  0.24850300  0.02917900  0.50160700  1
  P  P5  1  0.24536700  0.47204100  0.50189200  1
  P  P6  1  0.46814600  0.25027400  0.50231100  1
  P  P7  1  0.48140900  0.75282300  0.99707600  1
  P  P8  1  0.51859100  0.75282300  0.49707600  1
  P  P9  1  0.53185400  0.25027400  0.00231100  1
  P  P10  1  0.75149700  0.02917900  0.00160700  1
  P  P11  1  0.75085800  0.98081100  0.49906900  1
  P  P12  1  0.75463300  0.47204100  0.00189200  1
  P  P13  1  0.75243700  0.51961200  0.49767300  1
  P  P14  1  0.97219200  0.25282100  0.00097700  1
  P  P15  1  0.97945200  0.74806500  0.50061600  1
  O  O0  1  0.05259300  0.44028400  0.88203600  1
  O  O1  1  0.05091800  0.05929700  0.12067400  1
  O  O2  1  0.05674400  0.56691100  0.62403700  1
  O  O3  1  0.06034000  0.93388900  0.37499000  1
  O  O4  1  0.13269500  0.69576400  0.93221400  1
  O  O5  1  0.13110500  0.80819400  0.06416700  1
  O  O6  1  0.13587100  0.29044300  0.57819600  1
  O  O7  1  0.13463500  0.20694400  0.42972900  1
  O  O8  1  0.17349300  0.66398900  0.38092500  1
  O  O9  1  0.17711700  0.83562700  0.62083500  1
  O  O10  1  0.18938000  0.32150600  0.12348600  1
  O  O11  1  0.19229800  0.18108900  0.87593100  1
  O  O12  1  0.31086100  0.56274100  0.86920500  1
  O  O13  1  0.31126300  0.93668500  0.12724300  1
  O  O14  1  0.31900500  0.43802500  0.62269500  1
  O  O15  1  0.32162900  0.07063400  0.37953700  1
  O  O16  1  0.36226300  0.43635300  0.43067800  1
  O  O17  1  0.36035600  0.06811000  0.57530800  1
  O  O18  1  0.37277600  0.93148900  0.93827200  1
  O  O19  1  0.37354800  0.57378100  0.05358500  1
  O  O20  1  0.44549600  0.68694800  0.62735400  1
  O  O21  1  0.43705500  0.81532700  0.37220200  1
  O  O22  1  0.45986700  0.29652700  0.87847200  1
  O  O23  1  0.45284300  0.20709500  0.12080400  1
  O  O24  1  0.54715700  0.20709500  0.62080400  1
  O  O25  1  0.54013300  0.29652700  0.37847200  1
  O  O26  1  0.56294500  0.81532700  0.87220200  1
  O  O27  1  0.55450400  0.68694800  0.12735400  1
  O  O28  1  0.62722400  0.93148900  0.43827200  1
  O  O29  1  0.62645200  0.57378100  0.55358500  1
  O  O30  1  0.63773700  0.43635300  0.93067800  1
  O  O31  1  0.63964400  0.06811000  0.07530800  1
  O  O32  1  0.67837100  0.07063400  0.87953700  1
  O  O33  1  0.68099500  0.43802500  0.12269500  1
  O  O34  1  0.68913900  0.56274100  0.36920500  1
  O  O35  1  0.68873700  0.93668500  0.62724300  1
  O  O36  1  0.81062000  0.32150600  0.62348600  1
  O  O37  1  0.80770200  0.18108900  0.37593100  1
  O  O38  1  0.82650700  0.66398900  0.88092500  1
  O  O39  1  0.82288300  0.83562700  0.12083500  1
  O  O40  1  0.86536500  0.20694400  0.92972900  1
  O  O41  1  0.86412900  0.29044300  0.07819600  1
  O  O42  1  0.86889500  0.80819400  0.56416700  1
  O  O43  1  0.86730500  0.69576400  0.43221400  1
  O  O44  1  0.94325600  0.56691100  0.12403700  1
  O  O45  1  0.93966000  0.93388900  0.87499000  1
  O  O46  1  0.94908200  0.05929700  0.62067400  1
  O  O47  1  0.94740700  0.44028400  0.38203600  1
loop_
_geom_bond_atom_site_label_1
_geom_bond_atom_site_label_2
_geom_bond_distance
_geom_bond_site_symmetry_2
Li0 O9 2.013125 1_555
Li0 O0 2.088728 1_555
Li0 O38 2.142105 1_455
Li0 O46 2.244212 1_465
Li0 O4 2.361293 1_555
Li0 O42 2.431727 1_455
Li1 O24 1.988925 1_555
Li1 O32 2.004460 1_555
Li1 O22 2.046038 1_555
Li1 O14 2.290524 1_555
Li1 O29 2.510989 1_555
Li1 O18 2.514589 1_545
Li2 O23 1.988925 1_555
Li2 O15 2.004460 1_555
Li2 O25 2.046038 1_555
Li2 O33 2.290524 1_555
Li2 O19 2.510989 1_555
Li2 O28 2.514589 1_545
Li3 O39 2.013125 1_555
Li3 O47 2.088728 1_555
Li3 O8 2.142105 1_655
Li3 O1 2.244212 1_665
Li3 O43 2.361293 1_555
Li3 O5 2.431727 1_655
Mn0 O12 2.062037 1_555
Mn0 O14 2.096738 1_555
Mn0 O20 2.120648 1_555
Mn0 O22 2.272783 1_555
Mn0 O11 2.282235 1_555
Mn0 O2 2.356322 1_555
Mn0 O0 2.473355 1_555
Mn0 O9 2.500258 1_555
Mn1 O13 2.051675 1_555
Mn1 O3 2.091252 1_555
Mn1 O1 2.129127 1_565
Mn1 O8 2.255506 1_555
Mn1 O21 2.291461 1_555
Mn1 O10 2.374056 1_565
Mn1 O15 2.455496 1_565
Mn1 O23 2.573892 1_565
Mn2 O35 2.051675 1_555
Mn2 O45 2.091252 1_555
Mn2 O46 2.129127 1_565
Mn2 O38 2.255506 1_555
Mn2 O26 2.291461 1_555
Mn2 O36 2.374056 1_565
Mn2 O32 2.455496 1_565
Mn2 O24 2.573892 1_565
Mn3 O34 2.062037 1_555
Mn3 O33 2.096738 1_555
Mn3 O27 2.120648 1_555
Mn3 O25 2.272783 1_555
Mn3 O37 2.282235 1_555
Mn3 O44 2.356322 1_555
Mn3 O47 2.473355 1_555
Mn3 O39 2.500258 1_555
O0 P14 1.510007 1_456
O1 P14 1.530791 1_455
O2 P15 1.485328 1_455
O3 P15 1.527417 1_455
O4 P3 1.629335 1_555
O4 P0 1.647588 1_556
O5 P2 1.628972 1_554
O5 P0 1.641159 1_555
O6 P5 1.608948 1_555
O6 P1 1.619769 1_555
O7 P1 1.603911 1_555
O7 P4 1.620061 1_555
O8 P5 1.497236 1_555
O9 P4 1.497722 1_565
O10 P3 1.486711 1_554
O11 P2 1.484679 1_545
O12 P3 1.531543 1_555
O13 P2 1.519395 1_554
O14 P5 1.525736 1_555
O15 P4 1.504575 1_555
O16 P5 1.605441 1_555
O16 P6 1.623339 1_555
O17 P6 1.607568 1_555
O17 P4 1.615937 1_555
O18 P7 1.625208 1_555
O18 P2 1.633097 1_555
O19 P7 1.630499 1_554
O19 P3 1.634654 1_554
O20 P8 1.500878 1_555
O21 P8 1.492925 1_555
O22 P9 1.499220 1_556
O23 P9 1.484089 1_555
O24 P6 1.484089 1_555
O25 P6 1.499220 1_555
O26 P7 1.492925 1_555
O27 P7 1.500878 1_554
O28 P8 1.625208 1_555
O28 P11 1.633097 1_555
O29 P8 1.630499 1_555
O29 P13 1.634654 1_555
O30 P12 1.605441 1_556
O30 P9 1.623339 1_556
O31 P9 1.607568 1_555
O31 P10 1.615937 1_555
O32 P10 1.504575 1_556
O33 P12 1.525736 1_555
O34 P13 1.531543 1_555
O35 P11 1.519395 1_555
O36 P13 1.486711 1_555
O37 P11 1.484679 1_545
O38 P12 1.497236 1_556
O39 P10 1.497722 1_565
O40 P14 1.603911 1_556
O40 P10 1.620061 1_556
O41 P12 1.608948 1_555
O41 P14 1.619769 1_555
O42 P11 1.628972 1_555
O42 P15 1.641159 1_555
O43 P13 1.629335 1_555
O43 P15 1.647588 1_555
O44 P0 1.485328 1_655
O45 P0 1.527417 1_656
O46 P1 1.530791 1_655
O47 P1 1.510007 1_655
