# generated using pymatgen
data_LaTaFeO6
_symmetry_space_group_name_H-M   'P 1'
_cell_length_a   5.63624900
_cell_length_b   5.56999500
_cell_length_c   9.62482564
_cell_angle_alpha   54.99630957
_cell_angle_beta   90.00000000
_cell_angle_gamma   90.00000000
_symmetry_Int_Tables_number   1
_chemical_formula_structural   LaTaFeO6
_chemical_formula_sum   'La2 Ta2 Fe2 O12'
_cell_volume   247.50431703
_cell_formula_units_Z   2
loop_
 _symmetry_equiv_pos_site_id
 _symmetry_equiv_pos_as_xyz
  1  'x, y, z'
loop_
 _atom_site_type_symbol
 _atom_site_label
 _atom_site_symmetry_multiplicity
 _atom_site_fract_x
 _atom_site_fract_y
 _atom_site_fract_z
 _atom_site_occupancy
  La  La0  1  0.20675500  0.73935800  0.25150700  1
  La  La1  1  0.79324500  0.73935800  0.75150700  1
  Ta  Ta0  1  0.73165900  0.49104700  0.50395500  1
  Ta  Ta1  1  0.26834100  0.49104700  0.00395500  1
  Fe  Fe0  1  0.74100000  0.00076900  0.99855100  1
  Fe  Fe1  1  0.25900000  0.00076900  0.49855100  1
  O  O0  1  0.23009300  0.78572100  0.75157000  1
  O  O1  1  0.01792100  0.25912400  0.97735900  1
  O  O2  1  0.01127400  0.71209700  0.52119900  1
  O  O3  1  0.98872600  0.71209700  0.02119900  1
  O  O4  1  0.98207900  0.25912400  0.47735900  1
  O  O5  1  0.76990700  0.78572100  0.25157000  1
  O  O6  1  0.74167300  0.17675400  0.74818100  1
  O  O7  1  0.53659500  0.74756600  0.53713000  1
  O  O8  1  0.53765800  0.32698000  0.96073700  1
  O  O9  1  0.46234200  0.32698000  0.46073700  1
  O  O10  1  0.46340500  0.74756600  0.03713000  1
  O  O11  1  0.25832700  0.17675400  0.24818100  1
loop_
_geom_bond_atom_site_label_1
_geom_bond_atom_site_label_2
_geom_bond_distance
_geom_bond_site_symmetry_2
La0 O11 2.435481 1_565
La0 O9 2.469776 1_555
La0 O5 2.475726 1_455
La0 O10 2.498746 1_555
La0 O4 2.610194 1_455
La0 O3 2.613994 1_455
La0 O2 2.742744 1_555
La0 O1 2.777174 1_564
La1 O6 2.435481 1_565
La1 O8 2.469776 1_555
La1 O0 2.475726 1_655
La1 O7 2.498746 1_555
La1 O1 2.610194 1_655
La1 O2 2.613994 1_655
La1 O3 2.742744 1_556
La1 O4 2.777174 1_565
Fe0 O10 1.993512 1_546
Fe0 O8 1.997188 1_555
Fe0 O5 2.011285 1_546
Fe0 O6 2.014416 1_555
Fe0 O3 2.044568 1_546
Fe0 O1 2.052260 1_655
Fe1 O7 1.993512 1_545
Fe1 O9 1.997188 1_555
Fe1 O0 2.011285 1_545
Fe1 O11 2.014416 1_555
Fe1 O2 2.044568 1_545
Fe1 O4 2.052260 1_455
O0 Ta1 2.016701 1_556
O1 Ta1 2.026279 1_556
O2 Ta0 2.064382 1_455
O3 Ta1 2.064382 1_655
O4 Ta0 2.026279 1_555
O5 Ta0 2.016701 1_555
O6 Ta0 1.967811 1_555
O7 Ta0 1.968655 1_555
O8 Ta1 1.936078 1_556
O9 Ta0 1.936078 1_555
O10 Ta1 1.968655 1_555
O11 Ta1 1.967811 1_555
