# generated using pymatgen
data_ZnGa2(TeO3)4
_symmetry_space_group_name_H-M   'P 1'
_cell_length_a   9.17865260
_cell_length_b   9.17865260
_cell_length_c   9.17865260
_cell_angle_alpha   109.75573610
_cell_angle_beta   109.75573610
_cell_angle_gamma   108.90367606
_symmetry_Int_Tables_number   1
_chemical_formula_structural   ZnGa2(TeO3)4
_chemical_formula_sum   'Zn2 Ga4 Te8 O24'
_cell_volume   595.22749638
_cell_formula_units_Z   2
loop_
 _symmetry_equiv_pos_site_id
 _symmetry_equiv_pos_as_xyz
  1  'x, y, z'
loop_
 _atom_site_type_symbol
 _atom_site_label
 _atom_site_symmetry_multiplicity
 _atom_site_fract_x
 _atom_site_fract_y
 _atom_site_fract_z
 _atom_site_occupancy
  Zn  Zn0  1  0.50000000  0.50000000  -0.00000000  1
  Zn  Zn1  1  0.25000000  0.75000000  0.50000000  1
  Ga  Ga0  1  0.99396495  0.62500000  0.86896495  1
  Ga  Ga1  1  0.75603505  0.12500000  0.13103505  1
  Ga  Ga2  1  0.87500000  0.00603505  0.63103505  1
  Ga  Ga3  1  0.37500000  0.24396495  0.36896495  1
  Te  Te0  1  0.91016258  0.87209885  0.25973004  1
  Te  Te1  1  0.83983742  0.59956746  0.46193628  1
  Te  Te2  1  0.13763219  0.37790115  0.53806372  1
  Te  Te3  1  0.61236781  0.65043254  0.74026996  1
  Te  Te4  1  0.40043254  0.86236781  0.24026996  1
  Te  Te5  1  0.34956746  0.08983742  0.96193628  1
  Te  Te6  1  0.62209885  0.16016258  0.75973004  1
  Te  Te7  1  0.12790115  0.38763219  0.03806372  1
  O  O0  1  0.71590945  0.68296703  0.22423232  1
  O  O1  1  0.03409055  0.75832287  0.46705758  1
  O  O2  1  0.29126530  0.56703297  0.53294242  1
  O  O3  1  0.45873470  0.49167713  0.77576768  1
  O  O4  1  0.21155126  0.82918137  0.03890766  1
  O  O5  1  0.53844874  0.07735640  0.11762911  1
  O  O6  1  0.79027372  0.17264360  0.96109234  1
  O  O7  1  0.95972628  0.42081863  0.88237089  1
  O  O8  1  0.93138662  0.33238134  0.34202508  1
  O  O9  1  0.99035626  0.58936153  0.65797492  1
  O  O10  1  0.81861338  0.66063847  0.90099472  1
  O  O11  1  0.75964374  0.91761866  0.09900528  1
  O  O12  1  0.08238134  0.18138662  0.84202508  1
  O  O13  1  0.33936153  0.24035626  0.15797492  1
  O  O14  1  0.41063847  0.06861338  0.40099472  1
  O  O15  1  0.66761866  0.00964374  0.59900528  1
  O  O16  1  0.57918137  0.46155126  0.53890766  1
  O  O17  1  0.82735640  0.78844874  0.61762911  1
  O  O18  1  0.92264360  0.04027372  0.46109234  1
  O  O19  1  0.17081863  0.20972628  0.38237089  1
  O  O20  1  0.43296703  0.96590945  0.72423232  1
  O  O21  1  0.50832287  0.28409055  0.96705758  1
  O  O22  1  0.31703297  0.54126530  0.03294242  1
  O  O23  1  0.24167713  0.70873470  0.27576768  1
loop_
_geom_bond_atom_site_label_1
_geom_bond_atom_site_label_2
_geom_bond_distance
_geom_bond_site_symmetry_2
Ga0 O9 1.838450 1_555
Ga0 O10 1.838450 1_555
Ga0 O4 1.851104 1_656
Ga0 O7 1.851109 1_555
Ga1 O11 1.838450 1_545
Ga1 O8 1.838450 1_555
Ga1 O5 1.851101 1_555
Ga1 O6 1.851104 1_554
Ga2 O12 1.838450 1_655
Ga2 O15 1.838450 1_555
Ga2 O17 1.851101 1_545
Ga2 O18 1.851104 1_555
Ga3 O13 1.838450 1_555
Ga3 O14 1.838450 1_555
Ga3 O16 1.851104 1_555
Ga3 O19 1.851109 1_555
O0 Te0 1.875670 1_555
O0 Zn0 1.932162 1_555
O0 Te1 2.579857 1_555
O1 Te1 1.875670 1_455
O1 Zn1 1.932162 1_555
O1 Te0 2.579857 1_455
O2 Te2 1.875666 1_555
O2 Zn1 1.932162 1_555
O2 Te3 2.579850 1_555
O3 Te3 1.875665 1_555
O3 Zn0 1.932162 1_556
O3 Te2 2.579850 1_555
O4 Te4 1.904070 1_555
O5 Te5 1.904062 1_554
O6 Te6 1.904066 1_555
O7 Te7 1.904055 1_656
O8 Te2 1.916376 1_655
O9 Te1 1.916371 1_555
O10 Te3 1.916377 1_555
O11 Te0 1.916371 1_555
O12 Te7 1.916376 1_556
O13 Te5 1.916371 1_554
O14 Te4 1.916377 1_545
O15 Te6 1.916371 1_555
O16 Te3 1.904070 1_555
O17 Te1 1.904062 1_555
O18 Te0 1.904066 1_545
O19 Te2 1.904055 1_555
O20 Te6 1.875670 1_565
O20 Zn1 1.932162 1_555
O20 Te5 2.579857 1_565
O21 Te5 1.875670 1_555
O21 Zn0 1.932162 1_556
O21 Te6 2.579857 1_555
O22 Te7 1.875666 1_555
O22 Zn0 1.932162 1_555
O22 Te4 2.579850 1_555
O23 Te4 1.875665 1_555
O23 Zn1 1.932162 1_555
O23 Te7 2.579850 1_555
