# generated using pymatgen
data_BaMnP2O7
_symmetry_space_group_name_H-M   'P 1'
_cell_length_a   5.64543284
_cell_length_b   8.69709600
_cell_length_c   13.15204618
_cell_angle_alpha   90.00000000
_cell_angle_beta   90.37940768
_cell_angle_gamma   90.00000000
_symmetry_Int_Tables_number   1
_chemical_formula_structural   BaMnP2O7
_chemical_formula_sum   'Ba4 Mn4 P8 O28'
_cell_volume   645.73646599
_cell_formula_units_Z   4
loop_
 _symmetry_equiv_pos_site_id
 _symmetry_equiv_pos_as_xyz
  1  'x, y, z'
loop_
 _atom_site_type_symbol
 _atom_site_label
 _atom_site_symmetry_multiplicity
 _atom_site_fract_x
 _atom_site_fract_y
 _atom_site_fract_z
 _atom_site_occupancy
  Ba  Ba0  1  0.78171200  0.35464200  0.21937900  1
  Ba  Ba1  1  0.71828700  0.85464200  0.28062100  1
  Ba  Ba2  1  0.21828800  0.64535800  0.78062100  1
  Ba  Ba3  1  0.28171300  0.14535800  0.71937900  1
  Mn  Mn0  1  0.68349000  0.84097300  0.60734500  1
  Mn  Mn1  1  0.31651000  0.15902700  0.39265500  1
  Mn  Mn2  1  0.81651000  0.34097300  0.89265500  1
  Mn  Mn3  1  0.18349000  0.65902700  0.10734500  1
  P  P0  1  0.31050700  0.30520200  0.01916000  1
  P  P1  1  0.18949300  0.80520200  0.48084000  1
  P  P2  1  0.68949300  0.69479800  0.98084000  1
  P  P3  1  0.81050700  0.19479800  0.51916000  1
  P  P4  1  0.25176000  0.54874400  0.33584900  1
  P  P5  1  0.75176000  0.95125600  0.83584900  1
  P  P6  1  0.74824000  0.45125600  0.66415100  1
  P  P7  1  0.24824000  0.04874300  0.16415100  1
  O  O0  1  0.23564200  0.62719900  0.44757700  1
  O  O1  1  0.26435800  0.12719900  0.05242300  1
  O  O2  1  0.76435800  0.37280100  0.55242300  1
  O  O3  1  0.73564200  0.87280200  0.94757700  1
  O  O4  1  0.50044600  0.57738600  0.29507900  1
  O  O5  1  0.99955300  0.07738700  0.20492100  1
  O  O6  1  0.49955400  0.42261300  0.70492100  1
  O  O7  1  0.00044700  0.92261300  0.79507900  1
  O  O8  1  0.18347100  0.40781600  0.09737200  1
  O  O9  1  0.31652900  0.90781600  0.40262800  1
  O  O10  1  0.81652900  0.59218400  0.90262800  1
  O  O11  1  0.68347100  0.09218400  0.59737200  1
  O  O12  1  0.80390700  0.68433000  0.08714100  1
  O  O13  1  0.69609200  0.18432900  0.41285900  1
  O  O14  1  0.19609300  0.31567100  0.91285900  1
  O  O15  1  0.30390800  0.81567100  0.58714100  1
  O  O16  1  0.56177800  0.87543400  0.76679600  1
  O  O17  1  0.93822200  0.37543400  0.73320400  1
  O  O18  1  0.43822200  0.12456700  0.23320400  1
  O  O19  1  0.06177800  0.62456700  0.26679600  1
  O  O20  1  0.80807600  0.62084100  0.64869900  1
  O  O21  1  0.69192400  0.12084200  0.85130100  1
  O  O22  1  0.42047200  0.66936100  0.97967600  1
  O  O23  1  0.30807600  0.87915800  0.14869900  1
  O  O24  1  0.92047300  0.83063900  0.47967600  1
  O  O25  1  0.57952800  0.33063900  0.02032400  1
  O  O26  1  0.07952700  0.16936100  0.52032400  1
  O  O27  1  0.19192400  0.37915800  0.35130100  1
loop_
_geom_bond_atom_site_label_1
_geom_bond_atom_site_label_2
_geom_bond_distance
_geom_bond_site_symmetry_2
Ba0 O4 2.699323 1_555
Ba0 O5 2.714058 1_555
Ba0 O18 2.793201 1_555
Ba0 O8 2.825108 1_655
Ba0 O25 2.856686 1_555
Ba0 O27 2.892347 1_655
Ba0 O19 2.895992 1_655
Ba0 O13 2.986511 1_555
Ba0 O12 3.356334 1_555
Ba1 O5 2.699330 1_565
Ba1 O4 2.714066 1_555
Ba1 O19 2.793205 1_655
Ba1 O9 2.825104 1_555
Ba1 O24 2.856691 1_555
Ba1 O23 2.892342 1_555
Ba1 O18 2.895989 1_565
Ba1 O12 2.986507 1_555
Ba1 O13 3.356326 1_565
Ba2 O6 2.699330 1_555
Ba2 O7 2.714058 1_555
Ba2 O16 2.793207 1_555
Ba2 O10 2.825108 1_455
Ba2 O22 2.856686 1_555
Ba2 O20 2.892347 1_455
Ba2 O17 2.895985 1_455
Ba2 O15 2.986511 1_555
Ba2 O14 3.356326 1_555
Ba3 O7 2.699330 1_545
Ba3 O6 2.714058 1_555
Ba3 O17 2.793211 1_455
Ba3 O11 2.825104 1_555
Ba3 O26 2.856691 1_555
Ba3 O21 2.892342 1_555
Ba3 O16 2.895982 1_545
Ba3 O14 2.986511 1_555
Ba3 O15 3.356326 1_545
Mn0 O20 2.109688 1_555
Mn0 O24 2.155721 1_555
Mn0 O15 2.168763 1_555
Mn0 O11 2.188740 1_565
Mn0 O16 2.231344 1_555
Mn1 O27 2.109680 1_555
Mn1 O26 2.155721 1_555
Mn1 O13 2.168763 1_555
Mn1 O9 2.188740 1_545
Mn1 O18 2.231343 1_555
Mn2 O21 2.109680 1_555
Mn2 O25 2.155718 1_556
Mn2 O14 2.168768 1_655
Mn2 O10 2.188740 1_555
Mn2 O17 2.231344 1_555
Mn3 O23 2.109680 1_555
Mn3 O22 2.155718 1_554
Mn3 O12 2.168769 1_455
Mn3 O8 2.188740 1_555
Mn3 O19 2.231343 1_555
O0 P4 1.623242 1_555
O0 P1 1.630158 1_555
O1 P7 1.623246 1_555
O1 P0 1.630158 1_555
O2 P6 1.623242 1_555
O2 P3 1.630158 1_555
O3 P5 1.623238 1_555
O3 P2 1.630166 1_555
O4 P4 1.526627 1_555
O5 P7 1.526635 1_655
O6 P6 1.526628 1_555
O7 P5 1.526634 1_455
O8 P0 1.542297 1_555
O9 P1 1.542297 1_555
O10 P2 1.542297 1_555
O11 P3 1.542297 1_555
O12 P2 1.538880 1_554
O13 P3 1.538883 1_555
O14 P0 1.538881 1_556
O15 P1 1.538883 1_555
O16 P5 1.548250 1_555
O17 P6 1.548250 1_555
O18 P7 1.548257 1_555
O19 P4 1.548253 1_555
O20 P6 1.526971 1_555
O21 P5 1.526979 1_545
O22 P2 1.534744 1_555
O23 P7 1.526971 1_565
O24 P1 1.534739 1_655
O25 P0 1.534744 1_555
O26 P3 1.534739 1_455
O27 P4 1.526979 1_555
