# generated using pymatgen
data_K2Na2Ca4Mg15(SiO3)24
_symmetry_space_group_name_H-M   'P 1'
_cell_length_a   10.16733719
_cell_length_b   12.32264060
_cell_length_c   12.32264060
_cell_angle_alpha   83.94377245
_cell_angle_beta   76.16741402
_cell_angle_gamma   103.83258598
_symmetry_Int_Tables_number   1
_chemical_formula_structural   K2Na2Ca4Mg15(SiO3)24
_chemical_formula_sum   'K2 Na2 Ca4 Mg15 Si24 O72'
_cell_volume   1433.80504564
_cell_formula_units_Z   1
loop_
 _symmetry_equiv_pos_site_id
 _symmetry_equiv_pos_as_xyz
  1  'x, y, z'
loop_
 _atom_site_type_symbol
 _atom_site_label
 _atom_site_symmetry_multiplicity
 _atom_site_fract_x
 _atom_site_fract_y
 _atom_site_fract_z
 _atom_site_occupancy
  K  K0  1  0.35347210  0.83945643  0.16054357  1
  K  K1  1  0.68670335  0.17247354  0.82752646  1
  Na  Na0  1  0.49962159  0.22383215  0.22365968  1
  Na  Na1  1  0.49962159  0.77634032  0.77616785  1
  Ca  Ca0  1  0.16766825  0.88681872  0.55386641  1
  Ca  Ca1  1  0.83241297  0.55438282  0.88686166  1
  Ca  Ca2  1  0.83241297  0.11313834  0.44561718  1
  Ca  Ca3  1  0.16766825  0.44613359  0.11318128  1
  Mg  Mg0  1  0.00020230  0.82132871  0.82141772  1
  Mg  Mg1  1  0.33507193  0.15601354  0.48361904  1
  Mg  Mg2  1  0.66506264  0.48380032  0.15611830  1
  Mg  Mg3  1  0.33507193  0.51638096  0.84398646  1
  Mg  Mg4  1  0.66506264  0.84388170  0.51619968  1
  Mg  Mg5  1  0.00020230  0.17858228  0.17867129  1
  Mg  Mg6  1  0.66805182  0.66684577  0.33315423  1
  Mg  Mg7  1  0.00049740  0.00046602  0.99953398  1
  Mg  Mg8  1  0.33232622  0.33341358  0.66658642  1
  Mg  Mg9  1  0.83305533  0.73866242  0.07425987  1
  Mg  Mg10  1  0.16671536  0.07418351  0.73885150  1
  Mg  Mg11  1  0.49996521  0.40502436  0.40486900  1
  Mg  Mg12  1  0.16671536  0.26114850  0.92581649  1
  Mg  Mg13  1  0.49996521  0.59513100  0.59497564  1
  Mg  Mg14  1  0.83305533  0.92574013  0.26133758  1
  Si  Si0  1  0.94843766  0.58827467  0.24351171  1
  Si  Si1  1  0.28161928  0.92363940  0.90621699  1
  Si  Si2  1  0.61426155  0.25669774  0.57360757  1
  Si  Si3  1  0.61426155  0.42639243  0.74330226  1
  Si  Si4  1  0.94843766  0.75648829  0.41172533  1
  Si  Si5  1  0.28161928  0.09378301  0.07636060  1
  Si  Si6  1  0.05194739  0.41186998  0.75652317  1
  Si  Si7  1  0.38553153  0.74326200  0.42620458  1
  Si  Si8  1  0.71843225  0.07641468  0.09372878  1
  Si  Si9  1  0.38553153  0.57379542  0.25673800  1
  Si  Si10  1  0.71843225  0.90627122  0.92358532  1
  Si  Si11  1  0.05194739  0.24347683  0.58813002  1
  Si  Si12  1  0.12483675  0.66869396  0.99016197  1
  Si  Si13  1  0.45706458  0.00139980  0.65508866  1
  Si  Si14  1  0.79233708  0.33494773  0.32225316  1
  Si  Si15  1  0.79233708  0.67774684  0.66505227  1
  Si  Si16  1  0.12483675  0.00983803  0.33130604  1
  Si  Si17  1  0.45706458  0.34491134  0.99860020  1
  Si  Si18  1  0.87548120  0.33162638  0.01024424  1
  Si  Si19  1  0.20768898  0.66512828  0.67755671  1
  Si  Si20  1  0.54319140  0.99893891  0.34529271  1
  Si  Si21  1  0.20768898  0.32244329  0.33487172  1
  Si  Si22  1  0.54319140  0.65470729  0.00106109  1
  Si  Si23  1  0.87548120  0.98975576  0.66837362  1
  O  O0  1  0.61687799  0.53221042  0.46778958  1
  O  O1  1  0.95265532  0.86567959  0.13432041  1
  O  O2  1  0.28571224  0.19886508  0.80113492  1
  O  O3  1  0.04649148  0.13458829  0.86541171  1
  O  O4  1  0.38281647  0.46791999  0.53208001  1
  O  O5  1  0.71298889  0.80115857  0.19884143  1
  O  O6  1  0.17626616  0.56377376  0.94553498  1
  O  O7  1  0.50775399  0.89927752  0.60505704  1
  O  O8  1  0.84349700  0.22954593  0.27726889  1
  O  O9  1  0.84349700  0.72273111  0.77045407  1
  O  O10  1  0.17626616  0.05446502  0.43622624  1
  O  O11  1  0.50775399  0.39494296  0.10072248  1
  O  O12  1  0.82382609  0.43645204  0.05430180  1
  O  O13  1  0.15646206  0.77047215  0.72249021  1
  O  O14  1  0.49267582  0.10115183  0.39455727  1
  O  O15  1  0.15646206  0.27750979  0.22952785  1
  O  O16  1  0.49267582  0.60544273  0.89884817  1
  O  O17  1  0.82382609  0.94569820  0.56354796  1
  O  O18  1  0.81121127  0.61248538  0.21193785  1
  O  O19  1  0.14278262  0.94636353  0.87701717  1
  O  O20  1  0.47610588  0.27995426  0.54454380  1
  O  O21  1  0.47610588  0.45545620  0.72004574  1
  O  O22  1  0.81121127  0.78806215  0.38751462  1
  O  O23  1  0.14278262  0.12298283  0.05363647  1
  O  O24  1  0.18899775  0.38761651  0.78788975  1
  O  O25  1  0.52370373  0.72002172  0.45533681  1
  O  O26  1  0.85734072  0.05368630  0.12265613  1
  O  O27  1  0.52370373  0.54466319  0.27997828  1
  O  O28  1  0.85734072  0.87734387  0.94631370  1
  O  O29  1  0.18899775  0.21211025  0.61238349  1
  O  O30  1  0.98704922  0.69430454  0.95822868  1
  O  O31  1  0.31938021  0.02950012  0.62456756  1
  O  O32  1  0.65705595  0.36530431  0.29316678  1
  O  O33  1  0.31938021  0.37543244  0.97049988  1
  O  O34  1  0.65705595  0.70683322  0.63469569  1
  O  O35  1  0.98704922  0.04177132  0.30569546  1
  O  O36  1  0.01325726  0.30602884  0.04192254  1
  O  O37  1  0.34289182  0.63471164  0.70671507  1
  O  O38  1  0.68098874  0.97074643  0.37540116  1
  O  O39  1  0.68098874  0.62459884  0.02925357  1
  O  O40  1  0.01325726  0.95807746  0.69397116  1
  O  O41  1  0.34289182  0.29328493  0.36528836  1
  O  O42  1  0.08953832  0.63213837  0.13289824  1
  O  O43  1  0.42195021  0.96875786  0.79756809  1
  O  O44  1  0.75515056  0.29521063  0.46486634  1
  O  O45  1  0.75515056  0.53513366  0.70478937  1
  O  O46  1  0.08953832  0.86710176  0.36786163  1
  O  O47  1  0.42195021  0.20243191  0.03124214  1
  O  O48  1  0.91052543  0.36725833  0.86712913  1
  O  O49  1  0.24468206  0.70469068  0.53500591  1
  O  O50  1  0.57802491  0.03056050  0.20231000  1
  O  O51  1  0.24468206  0.46499409  0.29530932  1
  O  O52  1  0.57802491  0.79769000  0.96943950  1
  O  O53  1  0.91052543  0.13287087  0.63274167  1
  O  O54  1  0.93034704  0.45158899  0.28020874  1
  O  O55  1  0.25743365  0.78823091  0.95495698  1
  O  O56  1  0.59336535  0.12072162  0.61954685  1
  O  O57  1  0.59336535  0.38045315  0.87927838  1
  O  O58  1  0.93034704  0.71979126  0.54841101  1
  O  O59  1  0.25743365  0.04504302  0.21176909  1
  O  O60  1  0.06959987  0.54828841  0.71965407  1
  O  O61  1  0.40714341  0.87943304  0.38040469  1
  O  O62  1  0.74315093  0.21189015  0.04485099  1
  O  O63  1  0.40714341  0.61959531  0.12056696  1
  O  O64  1  0.74315093  0.95514901  0.78810985  1
  O  O65  1  0.06959987  0.28034593  0.45171159  1
  O  O66  1  0.65142390  0.32366586  0.67633414  1
  O  O67  1  0.98607485  0.65488710  0.34511290  1
  O  O68  1  0.31903724  0.99113638  0.00886362  1
  O  O69  1  0.01269082  0.34419101  0.65580899  1
  O  O70  1  0.34865258  0.67698416  0.32301584  1
  O  O71  1  0.68000087  0.00885879  0.99114121  1
loop_
_geom_bond_atom_site_label_1
_geom_bond_atom_site_label_2
_geom_bond_distance
_geom_bond_site_symmetry_2
K0 O68 2.645427 1_555
K0 O70 2.660731 1_555
K0 O61 2.956454 1_555
K0 O63 2.956454 1_555
K0 O59 2.999241 1_565
K0 O55 2.999241 1_554
K0 O50 3.044630 1_565
K0 O52 3.044630 1_554
K1 O66 2.641504 1_555
K1 O71 2.673081 1_555
K1 O64 2.934819 1_545
K1 O62 2.934819 1_556
K1 O56 3.015625 1_555
K1 O57 3.015625 1_555
K1 O53 3.056866 1_555
K1 O48 3.056866 1_555
K1 O43 3.335189 1_545
K1 O47 3.335189 1_556
Na0 O11 2.435250 1_555
Na0 O14 2.435423 1_555
Na0 O41 2.440311 1_555
Na0 O32 2.443616 1_555
Na0 O47 2.691280 1_555
Na0 O50 2.704905 1_555
Na0 O59 2.930074 1_555
Na0 O62 2.939607 1_555
Na1 O7 2.435250 1_555
Na1 O16 2.435423 1_555
Na1 O37 2.440311 1_555
Na1 O34 2.443616 1_555
Na1 O43 2.691280 1_555
Na1 O52 2.704905 1_555
Na1 O55 2.930074 1_555
Na1 O64 2.939607 1_555
Ca0 O13 2.359274 1_555
Ca0 O10 2.365997 1_565
Ca0 O31 2.428717 1_565
Ca0 O40 2.428883 1_555
Ca0 O49 2.562689 1_555
Ca0 O46 2.615244 1_555
Ca0 O58 2.791952 1_455
Ca0 O61 2.857267 1_555
Ca1 O9 2.357303 1_555
Ca1 O12 2.365839 1_556
Ca1 O39 2.421432 1_556
Ca1 O30 2.429624 1_555
Ca1 O45 2.563808 1_555
Ca1 O48 2.628412 1_555
Ca1 O60 2.794628 1_655
Ca1 O57 2.858243 1_555
Ca2 O8 2.357303 1_555
Ca2 O17 2.365839 1_545
Ca2 O38 2.421432 1_545
Ca2 O35 2.429624 1_555
Ca2 O44 2.563808 1_555
Ca2 O53 2.628412 1_555
Ca2 O65 2.794628 1_655
Ca2 O56 2.858243 1_555
Ca3 O15 2.359274 1_555
Ca3 O6 2.365997 1_554
Ca3 O33 2.428717 1_554
Ca3 O36 2.428883 1_555
Ca3 O51 2.562689 1_555
Ca3 O42 2.615244 1_555
Ca3 O54 2.791952 1_455
Ca3 O63 2.857267 1_555
Mg0 O13 2.028329 1_555
Mg0 O9 2.030496 1_455
Mg0 O30 2.131996 1_455
Mg0 O40 2.135077 1_555
Mg0 O19 2.138808 1_555
Mg0 O28 2.142328 1_455
Mg1 O14 2.015651 1_555
Mg1 O10 2.037874 1_555
Mg1 O41 2.086537 1_555
Mg1 O31 2.156329 1_555
Mg1 O20 2.159142 1_555
Mg1 O29 2.190160 1_555
Mg2 O11 2.016280 1_555
Mg2 O12 2.038775 1_555
Mg2 O32 2.085159 1_555
Mg2 O39 2.157011 1_555
Mg2 O27 2.160030 1_555
Mg2 O18 2.188126 1_555
Mg3 O16 2.015651 1_555
Mg3 O6 2.037874 1_555
Mg3 O37 2.086537 1_555
Mg3 O33 2.156329 1_555
Mg3 O21 2.159142 1_555
Mg3 O24 2.190160 1_555
Mg4 O7 2.016280 1_555
Mg4 O17 2.038775 1_555
Mg4 O34 2.085159 1_555
Mg4 O38 2.157011 1_555
Mg4 O25 2.160030 1_555
Mg4 O22 2.188126 1_555
Mg5 O15 2.028329 1_555
Mg5 O8 2.030496 1_455
Mg5 O35 2.131996 1_455
Mg5 O36 2.135077 1_555
Mg5 O23 2.138808 1_555
Mg5 O26 2.142328 1_455
Mg6 O0 2.090303 1_555
Mg6 O5 2.094322 1_555
Mg6 O22 2.106237 1_555
Mg6 O18 2.106237 1_555
Mg6 O25 2.112255 1_555
Mg6 O27 2.112255 1_555
Mg7 O3 2.089561 1_555
Mg7 O1 2.097428 1_446
Mg7 O23 2.108505 1_556
Mg7 O19 2.108505 1_545
Mg7 O28 2.112096 1_445
Mg7 O26 2.112096 1_456
Mg8 O4 2.089154 1_555
Mg8 O2 2.095463 1_555
Mg8 O29 2.106801 1_555
Mg8 O24 2.106801 1_555
Mg8 O20 2.109728 1_555
Mg8 O21 2.109728 1_555
Mg9 O39 2.051588 1_555
Mg9 O1 2.059352 1_555
Mg9 O5 2.059846 1_555
Mg9 O30 2.073223 1_554
Mg9 O18 2.107897 1_555
Mg9 O28 2.123842 1_554
Mg10 O2 2.053628 1_555
Mg10 O31 2.054943 1_555
Mg10 O3 2.061282 1_555
Mg10 O40 2.073502 1_545
Mg10 O29 2.111128 1_555
Mg10 O19 2.119337 1_545
Mg11 O41 2.036409 1_555
Mg11 O32 2.037150 1_555
Mg11 O0 2.068035 1_555
Mg11 O4 2.069216 1_555
Mg11 O27 2.110121 1_555
Mg11 O20 2.111485 1_555
Mg12 O2 2.053628 1_555
Mg12 O33 2.054943 1_555
Mg12 O3 2.061282 1_555
Mg12 O36 2.073502 1_556
Mg12 O24 2.111128 1_555
Mg12 O23 2.119337 1_556
Mg13 O37 2.036409 1_555
Mg13 O34 2.037150 1_555
Mg13 O0 2.068035 1_555
Mg13 O4 2.069216 1_555
Mg13 O25 2.110121 1_555
Mg13 O21 2.111485 1_555
Mg14 O38 2.051588 1_555
Mg14 O1 2.059352 1_555
Mg14 O5 2.059846 1_555
Mg14 O35 2.073223 1_565
Mg14 O22 2.107897 1_555
Mg14 O26 2.123842 1_565
O6 Si12 1.607236 1_555
O7 Si13 1.597254 1_565
O8 Si14 1.613039 1_555
O9 Si15 1.613039 1_555
O10 Si16 1.607236 1_555
O11 Si17 1.597254 1_554
O12 Si18 1.604734 1_555
O13 Si19 1.612459 1_555
O14 Si20 1.593843 1_545
O15 Si21 1.612459 1_555
O16 Si22 1.593843 1_556
O17 Si23 1.604734 1_555
O18 Si0 1.619001 1_555
O19 Si1 1.615895 1_555
O20 Si2 1.610868 1_555
O21 Si3 1.610868 1_555
O22 Si4 1.619001 1_555
O23 Si5 1.615895 1_555
O24 Si6 1.616380 1_555
O25 Si7 1.611306 1_555
O26 Si8 1.615236 1_555
O27 Si9 1.611306 1_555
O28 Si10 1.615236 1_555
O29 Si11 1.616380 1_555
O30 Si12 1.632746 1_655
O31 Si13 1.636182 1_555
O32 Si14 1.616702 1_555
O33 Si17 1.636182 1_555
O34 Si15 1.616702 1_555
O35 Si16 1.632746 1_655
O36 Si18 1.631238 1_455
O37 Si19 1.616599 1_555
O38 Si20 1.635644 1_555
O39 Si22 1.635644 1_555
O40 Si23 1.631238 1_455
O41 Si21 1.616599 1_555
O42 Si0 1.657377 1_455
O42 Si12 1.696782 1_554
O43 Si1 1.639369 1_555
O43 Si13 1.689498 1_565
O44 Si2 1.641839 1_555
O44 Si14 1.698015 1_555
O45 Si3 1.641839 1_555
O45 Si15 1.698015 1_555
O46 Si4 1.657377 1_455
O46 Si16 1.696782 1_565
O47 Si5 1.639369 1_555
O47 Si17 1.689498 1_554
O48 Si6 1.659575 1_655
O48 Si18 1.700355 1_556
O49 Si7 1.642018 1_555
O49 Si19 1.697198 1_555
O50 Si8 1.639785 1_555
O50 Si20 1.694817 1_545
O51 Si9 1.642018 1_555
O51 Si21 1.697198 1_555
O52 Si10 1.639785 1_555
O52 Si22 1.694817 1_556
O53 Si11 1.659575 1_655
O53 Si23 1.700355 1_545
O54 Si0 1.651258 1_555
O54 Si14 1.683488 1_555
O55 Si1 1.651394 1_555
O55 Si12 1.676726 1_555
O56 Si2 1.656894 1_555
O56 Si13 1.695231 1_555
O57 Si3 1.656894 1_555
O57 Si17 1.695231 1_555
O58 Si4 1.651258 1_555
O58 Si15 1.683488 1_555
O59 Si5 1.651394 1_555
O59 Si16 1.676726 1_555
O60 Si6 1.649269 1_555
O60 Si19 1.685470 1_555
O61 Si7 1.657410 1_555
O61 Si20 1.695447 1_555
O62 Si8 1.651577 1_555
O62 Si18 1.677114 1_555
O63 Si9 1.657410 1_555
O63 Si22 1.695447 1_555
O64 Si10 1.651577 1_555
O64 Si23 1.677114 1_555
O65 Si11 1.649269 1_555
O65 Si21 1.685470 1_555
O66 Si3 1.651122 1_555
O66 Si2 1.651122 1_555
O67 Si4 1.638125 1_555
O67 Si0 1.638125 1_555
O68 Si1 1.654458 1_554
O68 Si5 1.654458 1_565
O69 Si6 1.640479 1_555
O69 Si11 1.640479 1_555
O70 Si9 1.650808 1_555
O70 Si7 1.650808 1_555
O71 Si10 1.657248 1_545
O71 Si8 1.657248 1_556
