# generated using pymatgen
data_K3Al3Si3O16
_symmetry_space_group_name_H-M   'P 1'
_cell_length_a   9.28851300
_cell_length_b   9.30251324
_cell_length_c   9.33138133
_cell_angle_alpha   89.64970568
_cell_angle_beta   89.49729598
_cell_angle_gamma   89.15894101
_symmetry_Int_Tables_number   1
_chemical_formula_structural   K3Al3Si3O16
_chemical_formula_sum   'K6 Al6 Si6 O32'
_cell_volume   806.15980013
_cell_formula_units_Z   2
loop_
 _symmetry_equiv_pos_site_id
 _symmetry_equiv_pos_as_xyz
  1  'x, y, z'
loop_
 _atom_site_type_symbol
 _atom_site_label
 _atom_site_symmetry_multiplicity
 _atom_site_fract_x
 _atom_site_fract_y
 _atom_site_fract_z
 _atom_site_occupancy
  K  K0  1  0.69807600  0.32632800  0.30736900  1
  K  K1  1  0.35762900  0.32887800  0.65779700  1
  K  K2  1  0.70877100  0.67530700  0.67262400  1
  K  K3  1  0.20099200  0.82549600  0.80597200  1
  K  K4  1  0.21150500  0.18423800  0.16431100  1
  K  K5  1  0.85130400  0.83085600  0.16522600  1
  Al  Al0  1  0.53801200  0.25353500  0.97994100  1
  Al  Al1  1  0.52106500  0.75653900  0.99557300  1
  Al  Al2  1  0.03102600  0.50195000  0.73609300  1
  Al  Al3  1  0.02699500  0.50554300  0.23662900  1
  Al  Al4  1  0.27817000  0.99894400  0.48589800  1
  Al  Al5  1  0.77459600  0.00660200  0.49223800  1
  Si  Si0  1  0.02356100  0.25648100  0.48877000  1
  Si  Si1  1  0.03141000  0.75306600  0.48487600  1
  Si  Si2  1  0.52418700  0.00363900  0.73715100  1
  Si  Si3  1  0.53149100  0.00460400  0.23695700  1
  Si  Si4  1  0.27859200  0.50454300  0.98361100  1
  Si  Si5  1  0.78038000  0.50599300  0.99068700  1
  O  O0  1  0.55373100  0.15225700  0.82284000  1
  O  O1  1  0.56101200  0.85762300  0.14680900  1
  O  O2  1  0.99743600  0.35126800  0.34231100  1
  O  O3  1  0.99931600  0.65490100  0.62742500  1
  O  O4  1  0.06281400  0.35448000  0.62518200  1
  O  O5  1  0.05266500  0.65918800  0.33925000  1
  O  O6  1  0.68323300  0.36436900  0.01855600  1
  O  O7  1  0.36686100  0.65136200  0.01346700  1
  O  O8  1  0.50959800  0.14468700  0.13166700  1
  O  O9  1  0.49309000  0.86735200  0.84429800  1
  O  O10  1  0.38394100  0.36444500  0.95946000  1
  O  O11  1  0.67282300  0.64505500  0.96048100  1
  O  O12  1  0.37896700  0.02992200  0.64063900  1
  O  O13  1  0.67415100  0.03346200  0.33469400  1
  O  O14  1  0.66013700  0.96042400  0.63346600  1
  O  O15  1  0.38422600  0.99286600  0.33147700  1
  O  O16  1  0.88361000  0.48818000  0.85137800  1
  O  O17  1  0.16850300  0.46857900  0.11651100  1
  O  O18  1  0.87608900  0.16373700  0.51835300  1
  O  O19  1  0.17532100  0.84563100  0.51686700  1
  O  O20  1  0.89188100  0.86026600  0.45921200  1
  O  O21  1  0.15792400  0.14525100  0.45723900  1
  O  O22  1  0.86786500  0.53735100  0.13874600  1
  O  O23  1  0.18932900  0.53014200  0.83410300  1
  O  O24  1  0.89719000  0.87151500  0.86966600  1
  O  O25  1  0.41154100  0.64327500  0.48568500  1
  O  O26  1  0.90726400  0.12200700  0.00243600  1
  O  O27  1  0.41586600  0.59170900  0.35678400  1
  O  O28  1  0.66022700  0.35122800  0.59399200  1
  O  O29  1  0.96623200  0.12897200  0.87619100  1
  O  O30  1  0.37927400  0.45820500  0.34195800  1
  O  O31  1  0.10672200  0.12415500  0.87203500  1
loop_
_geom_bond_atom_site_label_1
_geom_bond_atom_site_label_2
_geom_bond_distance
_geom_bond_site_symmetry_2
K0 O28 2.705431 1_555
K0 O6 2.720445 1_555
K0 O13 2.746814 1_555
K0 O2 2.815617 1_555
K0 O8 2.962974 1_555
K0 O22 2.970888 1_555
K0 O18 2.974056 1_555
K0 O30 3.203013 1_555
K1 O4 2.764549 1_555
K1 O12 2.790666 1_555
K1 O10 2.849365 1_555
K1 O28 2.878184 1_555
K1 O0 2.884377 1_555
K1 O23 2.926150 1_555
K1 O21 3.170849 1_555
K1 O30 3.182328 1_555
K1 O25 3.369770 1_555
K2 O14 2.707060 1_555
K2 O11 2.717281 1_555
K2 O3 2.731856 1_555
K2 O16 2.894634 1_555
K2 O9 3.105623 1_555
K2 O20 3.131064 1_555
K2 O28 3.146930 1_555
K2 O24 3.156964 1_555
K2 O25 3.296800 1_555
K3 O19 2.715435 1_555
K3 O23 2.762066 1_555
K3 O9 2.773169 1_555
K3 O24 2.904768 1_455
K3 O7 2.947433 1_556
K3 O12 2.956524 1_565
K3 O31 2.967429 1_565
K3 O3 2.996301 1_455
K4 O17 2.704192 1_555
K4 O21 2.796450 1_555
K4 O8 2.802017 1_555
K4 O15 2.846484 1_545
K4 O31 2.962977 1_554
K4 O2 3.001622 1_455
K4 O10 3.002585 1_554
K4 O26 3.276643 1_455
K5 O1 2.711071 1_555
K5 O22 2.744940 1_555
K5 O20 2.787996 1_555
K5 O24 2.811145 1_554
K5 O5 2.935868 1_655
K5 O13 2.942850 1_565
K5 O11 3.092910 1_554
K5 O26 3.144916 1_565
Al0 O6 1.751076 1_556
Al0 O0 1.751315 1_555
Al0 O8 1.755910 1_556
Al0 O10 1.762974 1_555
Al1 O1 1.746186 1_556
Al1 O7 1.752619 1_556
Al1 O9 1.761692 1_555
Al1 O11 1.767170 1_555
Al2 O16 1.739603 1_455
Al2 O4 1.743664 1_555
Al2 O23 1.762141 1_555
Al2 O3 1.764860 1_455
Al3 O5 1.745693 1_555
Al3 O17 1.751519 1_555
Al3 O2 1.759842 1_455
Al3 O22 1.764679 1_455
Al4 O15 1.739093 1_555
Al4 O19 1.749368 1_555
Al4 O12 1.755372 1_565
Al4 O21 1.768487 1_565
Al5 O14 1.741684 1_545
Al5 O20 1.758008 1_545
Al5 O13 1.762620 1_555
Al5 O18 1.770215 1_555
O0 Si2 1.629273 1_555
O1 Si3 1.628286 1_565
O2 Si0 1.639804 1_655
O3 Si1 1.636559 1_655
O4 Si0 1.617533 1_555
O5 Si1 1.628791 1_555
O6 Si5 1.626087 1_554
O7 Si4 1.629950 1_554
O8 Si3 1.638556 1_555
O9 Si2 1.637260 1_565
O10 Si4 1.633737 1_555
O11 Si5 1.647285 1_555
O12 Si2 1.642941 1_555
O13 Si3 1.641457 1_555
O14 Si2 1.631173 1_565
O15 Si3 1.625720 1_565
O16 Si5 1.616420 1_555
O17 Si4 1.636530 1_554
O18 Si0 1.649858 1_655
O19 Si1 1.631361 1_555
O20 Si1 1.641969 1_655
O21 Si0 1.635288 1_555
O22 Si5 1.638845 1_554
O23 Si4 1.643453 1_555
O25 O27 1.297747 1_555
O26 O29 1.296443 1_554
O27 O30 1.300904 1_555
O29 O31 1.305299 1_655
