# generated using pymatgen
data_ErGa2Pd
_symmetry_space_group_name_H-M   'P 1'
_cell_length_a   5.47357773
_cell_length_b   5.47357773
_cell_length_c   6.53136764
_cell_angle_alpha   90.00000000
_cell_angle_beta   90.00000000
_cell_angle_gamma   132.83497060
_symmetry_Int_Tables_number   1
_chemical_formula_structural   ErGa2Pd
_chemical_formula_sum   'Er2 Ga4 Pd2'
_cell_volume   143.49517422
_cell_formula_units_Z   2
loop_
 _symmetry_equiv_pos_site_id
 _symmetry_equiv_pos_as_xyz
  1  'x, y, z'
loop_
 _atom_site_type_symbol
 _atom_site_label
 _atom_site_symmetry_multiplicity
 _atom_site_fract_x
 _atom_site_fract_y
 _atom_site_fract_z
 _atom_site_occupancy
  Er  Er0  1  0.58788834  0.41211166  0.25000000  1
  Er  Er1  1  0.41211166  0.58788834  0.75000000  1
  Ga  Ga0  1  0.87271580  0.12728420  0.44615443  1
  Ga  Ga1  1  0.12728420  0.87271580  0.55384557  1
  Ga  Ga2  1  0.87271580  0.12728420  0.05384557  1
  Ga  Ga3  1  0.12728420  0.87271580  0.94615443  1
  Pd  Pd0  1  0.29917450  0.70082550  0.25000000  1
  Pd  Pd1  1  0.70082550  0.29917450  0.75000000  1
loop_
_geom_bond_atom_site_label_1
_geom_bond_atom_site_label_2
_geom_bond_distance
_geom_bond_site_symmetry_2
Er0 Pd0 2.896638 1_555
Er0 Ga3 2.981584 1_654
Er0 Ga1 2.981584 1_655
Er0 Ga3 2.981584 1_544
Er0 Ga1 2.981584 1_545
Er0 Pd0 3.047766 1_655
Er0 Pd0 3.047766 1_545
Er0 Ga0 3.131693 1_555
Er0 Ga2 3.131693 1_555
Er0 Ga2 3.331227 1_565
Er0 Ga0 3.331227 1_565
Er0 Ga0 3.331227 1_455
Er0 Ga2 3.331227 1_455
Er0 Pd1 3.456672 1_554
Er0 Pd1 3.456672 1_555
Er1 Pd1 2.896638 1_555
Er1 Ga0 2.981584 1_565
Er1 Ga2 2.981584 1_566
Er1 Ga2 2.981584 1_456
Er1 Ga0 2.981584 1_455
Er1 Pd1 3.047766 1_565
Er1 Pd1 3.047766 1_455
Er1 Ga3 3.131693 1_555
Er1 Ga1 3.131693 1_555
Er1 Ga1 3.331227 1_655
Er1 Ga3 3.331227 1_655
Er1 Ga1 3.331227 1_545
Er1 Ga3 3.331227 1_545
Er1 Pd0 3.456672 1_555
Er1 Pd0 3.456672 1_556
Ga0 Ga2 2.562313 1_555
Ga0 Pd1 2.629154 1_555
Ga0 Pd0 2.642164 1_545
Ga0 Pd0 2.642164 1_655
Ga0 Ga1 2.649142 1_645
Ga1 Ga3 2.562313 1_555
Ga1 Pd0 2.629154 1_555
Ga1 Pd1 2.642164 1_455
Ga1 Pd1 2.642164 1_565
Ga2 Pd1 2.629154 1_554
Ga2 Pd0 2.642164 1_545
Ga2 Pd0 2.642164 1_655
Ga2 Ga3 2.649142 1_644
Ga3 Pd0 2.629154 1_556
Ga3 Pd1 2.642164 1_455
Ga3 Pd1 2.642164 1_565
