# generated using pymatgen
data_YLuO3
_symmetry_space_group_name_H-M   'P 1'
_cell_length_a   5.60480100
_cell_length_b   5.89057500
_cell_length_c   8.21850600
_cell_angle_alpha   90.00000000
_cell_angle_beta   90.00000000
_cell_angle_gamma   90.00000000
_symmetry_Int_Tables_number   1
_chemical_formula_structural   YLuO3
_chemical_formula_sum   'Y4 Lu4 O12'
_cell_volume   271.33809019
_cell_formula_units_Z   4
loop_
 _symmetry_equiv_pos_site_id
 _symmetry_equiv_pos_as_xyz
  1  'x, y, z'
loop_
 _atom_site_type_symbol
 _atom_site_label
 _atom_site_symmetry_multiplicity
 _atom_site_fract_x
 _atom_site_fract_y
 _atom_site_fract_z
 _atom_site_occupancy
  Y  Y0  1  0.01508200  0.94328700  0.75000000  1
  Y  Y1  1  0.48491800  0.44328700  0.75000000  1
  Y  Y2  1  0.51508200  0.55671300  0.25000000  1
  Y  Y3  1  0.98491800  0.05671300  0.25000000  1
  Lu  Lu0  1  0.00000000  0.50000000  0.00000000  1
  Lu  Lu1  1  0.00000000  0.50000000  0.50000000  1
  Lu  Lu2  1  0.50000000  0.00000000  0.00000000  1
  Lu  Lu3  1  0.50000000  0.00000000  0.50000000  1
  O  O0  1  0.14046700  0.42801900  0.25000000  1
  O  O1  1  0.18129100  0.18526500  0.57256000  1
  O  O2  1  0.18129100  0.18526500  0.92744000  1
  O  O3  1  0.31870900  0.68526500  0.92744000  1
  O  O4  1  0.31870900  0.68526500  0.57256000  1
  O  O5  1  0.35953300  0.92801900  0.25000000  1
  O  O6  1  0.64046700  0.07198100  0.75000000  1
  O  O7  1  0.68129100  0.31473500  0.42744000  1
  O  O8  1  0.68129100  0.31473500  0.07256000  1
  O  O9  1  0.81870900  0.81473500  0.07256000  1
  O  O10  1  0.81870900  0.81473500  0.42744000  1
  O  O11  1  0.85953300  0.57198100  0.75000000  1
loop_
_geom_bond_atom_site_label_1
_geom_bond_atom_site_label_2
_geom_bond_distance
_geom_bond_site_symmetry_2
Lu0 O3 2.176570 1_554
Lu0 O8 2.176570 1_455
Lu0 O2 2.196652 1_554
Lu0 O9 2.196652 1_455
Lu0 O0 2.240781 1_555
Lu0 O11 2.240781 1_454
Lu1 O7 2.176570 1_455
Lu1 O4 2.176570 1_555
Lu1 O1 2.196652 1_555
Lu1 O10 2.196652 1_455
Lu1 O0 2.240781 1_555
Lu1 O11 2.240781 1_455
Lu2 O2 2.176570 1_554
Lu2 O9 2.176570 1_545
Lu2 O3 2.196652 1_544
Lu2 O8 2.196652 1_555
Lu2 O6 2.240781 1_554
Lu2 O5 2.240781 1_545
Lu3 O10 2.176570 1_545
Lu3 O1 2.176570 1_555
Lu3 O7 2.196652 1_555
Lu3 O4 2.196652 1_545
Lu3 O6 2.240781 1_555
Lu3 O5 2.240781 1_545
O0 Y2 2.232305 1_555
O0 Y3 2.354558 1_455
O1 Y0 2.241912 1_545
O1 Y1 2.707900 1_555
O1 Y3 2.968570 1_455
O2 Y0 2.241912 1_545
O2 Y1 2.707900 1_555
O2 Y3 2.968570 1_456
O3 Y1 2.241912 1_555
O3 Y0 2.707900 1_555
O3 Y2 2.968570 1_556
O4 Y1 2.241912 1_555
O4 Y0 2.707900 1_555
O4 Y2 2.968570 1_555
O5 Y3 2.232305 1_465
O5 Y2 2.354558 1_555
O6 Y0 2.232305 1_645
O6 Y1 2.354558 1_555
O7 Y2 2.241912 1_555
O7 Y3 2.707900 1_555
O7 Y1 2.968570 1_555
O8 Y2 2.241912 1_555
O8 Y3 2.707900 1_555
O8 Y1 2.968570 1_554
O9 Y3 2.241912 1_565
O9 Y2 2.707900 1_555
O9 Y0 2.968570 1_654
O10 Y3 2.241912 1_565
O10 Y2 2.707900 1_555
O10 Y0 2.968570 1_655
O11 Y1 2.232305 1_555
O11 Y0 2.354558 1_655
