# generated using pymatgen
data_Li(SiNi)6
_symmetry_space_group_name_H-M   'P 1'
_cell_length_a   8.44204711
_cell_length_b   8.44204711
_cell_length_c   7.58627000
_cell_angle_alpha   90.00000000
_cell_angle_beta   90.00000000
_cell_angle_gamma   119.99999302
_symmetry_Int_Tables_number   1
_chemical_formula_structural   Li(SiNi)6
_chemical_formula_sum   'Li3 Si18 Ni18'
_cell_volume   468.22489440
_cell_formula_units_Z   3
loop_
 _symmetry_equiv_pos_site_id
 _symmetry_equiv_pos_as_xyz
  1  'x, y, z'
loop_
 _atom_site_type_symbol
 _atom_site_label
 _atom_site_symmetry_multiplicity
 _atom_site_fract_x
 _atom_site_fract_y
 _atom_site_fract_z
 _atom_site_occupancy
  Li  Li0  1  0.33333300  0.66666700  0.00000000  1
  Li  Li1  1  0.66666700  0.33333300  0.00000000  1
  Li  Li2  1  0.00000000  0.00000000  0.50000000  1
  Si  Si0  1  0.00000000  0.00000000  0.15619200  1
  Si  Si1  1  0.33333300  0.66666700  0.65655100  1
  Si  Si2  1  0.66666700  0.33333300  0.65655100  1
  Si  Si3  1  0.66666700  0.33333300  0.34344900  1
  Si  Si4  1  0.33333300  0.66666700  0.34344900  1
  Si  Si5  1  0.66979300  0.00000000  0.50000000  1
  Si  Si6  1  0.66979300  0.66979300  0.50000000  1
  Si  Si7  1  0.00000000  0.33020700  0.50000000  1
  Si  Si8  1  0.00000000  0.66979300  0.50000000  1
  Si  Si9  1  0.33020700  0.33020700  0.50000000  1
  Si  Si10  1  0.33020700  0.00000000  0.50000000  1
  Si  Si11  1  0.66283300  0.00000000  0.00000000  1
  Si  Si12  1  0.66283300  0.66283300  0.00000000  1
  Si  Si13  1  0.00000000  0.33716700  0.00000000  1
  Si  Si14  1  0.00000000  0.66283300  0.00000000  1
  Si  Si15  1  0.33716700  0.33716700  0.00000000  1
  Si  Si16  1  0.00000000  0.00000000  0.84380800  1
  Si  Si17  1  0.33716700  0.00000000  0.00000000  1
  Ni  Ni0  1  0.00000000  0.50000000  0.74458000  1
  Ni  Ni1  1  0.50000000  0.00000000  0.74458000  1
  Ni  Ni2  1  0.00000000  0.50000000  0.25542000  1
  Ni  Ni3  1  0.50000000  0.50000000  0.25542000  1
  Ni  Ni4  1  0.50000000  0.00000000  0.25542000  1
  Ni  Ni5  1  0.16679000  0.83321000  0.75232400  1
  Ni  Ni6  1  0.16679000  0.33358100  0.75232400  1
  Ni  Ni7  1  0.66641900  0.83321000  0.75232400  1
  Ni  Ni8  1  0.33358100  0.16679000  0.75232400  1
  Ni  Ni9  1  0.83321000  0.66641900  0.24767600  1
  Ni  Ni10  1  0.83321000  0.16679000  0.75232400  1
  Ni  Ni11  1  0.83321000  0.66641900  0.75232400  1
  Ni  Ni12  1  0.16679000  0.83321000  0.24767600  1
  Ni  Ni13  1  0.66641900  0.83321000  0.24767600  1
  Ni  Ni14  1  0.33358100  0.16679000  0.24767600  1
  Ni  Ni15  1  0.83321000  0.16679000  0.24767600  1
  Ni  Ni16  1  0.16679000  0.33358100  0.24767600  1
  Ni  Ni17  1  0.50000000  0.50000000  0.74458000  1
loop_
_geom_bond_atom_site_label_1
_geom_bond_atom_site_label_2
_geom_bond_distance
_geom_bond_site_symmetry_2
Li0 Si1 2.605497 1_554
Li0 Si4 2.605497 1_555
Li0 Si17 2.797970 1_565
Li0 Si14 2.797970 1_555
Li0 Si11 2.797974 1_565
Li0 Si13 2.797974 1_555
Li0 Si12 2.797978 1_555
Li0 Si15 2.797978 1_555
Li0 Ni12 3.075810 1_555
Li0 Ni5 3.075810 1_554
Li0 Ni16 3.075810 1_555
Li0 Ni6 3.075810 1_554
Li0 Ni7 3.075810 1_554
Li0 Ni13 3.075810 1_555
Li0 Ni4 3.113459 1_565
Li0 Ni2 3.113459 1_555
Li0 Ni0 3.113459 1_554
Li0 Ni1 3.113459 1_564
Li0 Ni17 3.113464 1_554
Li0 Ni3 3.113464 1_555
Li1 Si2 2.605497 1_554
Li1 Si3 2.605497 1_555
Li1 Si11 2.797970 1_555
Li1 Si13 2.797970 1_655
Li1 Si14 2.797974 1_655
Li1 Si17 2.797974 1_555
Li1 Si12 2.797978 1_555
Li1 Si15 2.797978 1_555
Li1 Ni10 3.075810 1_554
Li1 Ni15 3.075810 1_555
Li1 Ni14 3.075810 1_555
Li1 Ni11 3.075810 1_554
Li1 Ni9 3.075810 1_555
Li1 Ni8 3.075810 1_554
Li1 Ni0 3.113459 1_654
Li1 Ni2 3.113459 1_655
Li1 Ni1 3.113459 1_554
Li1 Ni4 3.113459 1_555
Li1 Ni17 3.113464 1_554
Li1 Ni3 3.113464 1_555
Li2 Si16 2.608220 1_555
Li2 Si0 2.608220 1_555
Li2 Si10 2.787623 1_555
Li2 Si7 2.787623 1_555
Li2 Si5 2.787623 1_455
Li2 Si8 2.787623 1_545
Li2 Si9 2.787623 1_555
Li2 Si6 2.787623 1_445
Li2 Ni5 3.100316 1_545
Li2 Ni12 3.100316 1_545
Li2 Ni15 3.100316 1_455
Li2 Ni10 3.100316 1_455
Li2 Ni13 3.100322 1_445
Li2 Ni8 3.100322 1_555
Li2 Ni9 3.100322 1_445
Li2 Ni6 3.100322 1_555
Li2 Ni11 3.100322 1_445
Li2 Ni7 3.100322 1_445
Li2 Ni14 3.100322 1_555
Li2 Ni16 3.100322 1_555
Si0 Si16 2.369829 1_554
Si1 Si4 2.375276 1_555
Si2 Si3 2.375276 1_555
Ni0 Si8 2.344639 1_555
Ni0 Si7 2.344639 1_555
Ni0 Si14 2.375767 1_556
Ni0 Si13 2.375767 1_556
Ni0 Ni6 2.436809 1_555
Ni0 Ni11 2.436809 1_455
Ni0 Ni5 2.436816 1_555
Ni0 Ni10 2.436816 1_455
Ni0 Si1 2.526851 1_555
Ni0 Si2 2.526851 1_455
Ni1 Si5 2.344639 1_555
Ni1 Si10 2.344639 1_555
Ni1 Si17 2.375767 1_556
Ni1 Si11 2.375767 1_556
Ni1 Ni7 2.436809 1_545
Ni1 Ni8 2.436809 1_555
Ni1 Ni5 2.436816 1_545
Ni1 Ni10 2.436816 1_555
Ni1 Si2 2.526851 1_555
Ni1 Si1 2.526851 1_545
Ni2 Si8 2.344639 1_555
Ni2 Si7 2.344639 1_555
Ni2 Si14 2.375767 1_555
Ni2 Si13 2.375767 1_555
Ni2 Ni9 2.436809 1_455
Ni2 Si4 2.526851 1_555
Ni2 Si3 2.526851 1_455
Ni3 Si9 2.344639 1_555
Ni3 Si6 2.344639 1_555
Ni3 Si12 2.375767 1_555
Ni3 Si15 2.375767 1_555
Ni3 Ni9 2.436816 1_555
Ni3 Si3 2.526858 1_555
Ni3 Si4 2.526858 1_555
Ni4 Si5 2.344639 1_555
Ni4 Si10 2.344639 1_555
Ni4 Si17 2.375767 1_555
Ni4 Si11 2.375767 1_555
Ni4 Si3 2.526851 1_555
Ni4 Si4 2.526851 1_545
Ni5 Si17 2.357236 1_566
Ni5 Si14 2.357236 1_556
Ni5 Si10 2.368010 1_565
Ni5 Si8 2.368010 1_555
Ni5 Ni8 2.438813 1_565
Ni5 Si16 2.535641 1_565
Ni5 Si1 2.541278 1_555
Ni6 Si13 2.357233 1_556
Ni6 Si15 2.357238 1_556
Ni6 Si7 2.368008 1_555
Ni6 Si9 2.368013 1_555
Ni6 Ni8 2.438827 1_555
Ni6 Si16 2.535648 1_555
Ni6 Si1 2.541278 1_555
Ni7 Si11 2.357233 1_566
Ni7 Si12 2.357238 1_556
Ni7 Si5 2.368008 1_565
Ni7 Si6 2.368013 1_555
Ni7 Si16 2.535648 1_665
Ni7 Si1 2.541278 1_555
Ni8 Si17 2.357233 1_556
Ni8 Si15 2.357238 1_556
Ni8 Si10 2.368008 1_555
Ni8 Si9 2.368013 1_555
Ni8 Si16 2.535648 1_555
Ni8 Si2 2.541278 1_555
Ni9 Si14 2.357233 1_655
Ni9 Si12 2.357238 1_555
Ni9 Si8 2.368008 1_655
Ni9 Si6 2.368013 1_555
Ni9 Si0 2.535648 1_665
Ni9 Si3 2.541278 1_555
Ni10 Si11 2.357236 1_556
Ni10 Si13 2.357236 1_656
Ni10 Si7 2.368010 1_655
Ni10 Si5 2.368010 1_555
Ni10 Ni6 2.438813 1_655
Ni10 Ni7 2.438813 1_545
Ni10 Si16 2.535641 1_655
Ni10 Si2 2.541278 1_555
Ni11 Si14 2.357233 1_656
Ni11 Si12 2.357238 1_556
Ni11 Si8 2.368008 1_655
Ni11 Si6 2.368013 1_555
Ni11 Ni17 2.436816 1_555
Ni11 Ni5 2.438813 1_655
Ni11 Ni7 2.438827 1_555
Ni11 Si16 2.535648 1_665
Ni11 Si2 2.541278 1_555
Ni12 Si14 2.357236 1_555
Ni12 Si17 2.357236 1_565
Ni12 Si10 2.368010 1_565
Ni12 Si8 2.368010 1_555
Ni12 Ni4 2.436816 1_565
Ni12 Ni2 2.436816 1_555
Ni12 Ni14 2.438813 1_565
Ni12 Ni9 2.438813 1_455
Ni12 Si0 2.535641 1_565
Ni12 Si4 2.541278 1_555
Ni13 Si11 2.357233 1_565
Ni13 Si12 2.357238 1_555
Ni13 Si5 2.368008 1_565
Ni13 Si6 2.368013 1_555
Ni13 Ni4 2.436809 1_565
Ni13 Ni3 2.436816 1_555
Ni13 Ni15 2.438813 1_565
Ni13 Ni9 2.438827 1_555
Ni13 Si0 2.535648 1_665
Ni13 Si4 2.541278 1_555
Ni14 Si17 2.357233 1_555
Ni14 Si15 2.357238 1_555
Ni14 Si10 2.368008 1_555
Ni14 Si9 2.368013 1_555
Ni14 Ni4 2.436809 1_555
Ni14 Ni3 2.436816 1_555
Ni14 Ni16 2.438827 1_555
Ni14 Si0 2.535648 1_555
Ni14 Si3 2.541278 1_555
Ni15 Si13 2.357236 1_655
Ni15 Si11 2.357236 1_555
Ni15 Si7 2.368010 1_655
Ni15 Si5 2.368010 1_555
Ni15 Ni2 2.436816 1_655
Ni15 Ni4 2.436816 1_555
Ni15 Ni16 2.438813 1_655
Ni15 Si0 2.535641 1_655
Ni15 Si3 2.541278 1_555
Ni16 Si13 2.357233 1_555
Ni16 Si15 2.357238 1_555
Ni16 Si7 2.368008 1_555
Ni16 Si9 2.368013 1_555
Ni16 Ni2 2.436809 1_555
Ni16 Ni3 2.436816 1_555
Ni16 Si0 2.535648 1_555
Ni16 Si4 2.541278 1_555
Ni17 Si9 2.344639 1_555
Ni17 Si6 2.344639 1_555
Ni17 Si15 2.375767 1_556
Ni17 Si12 2.375767 1_556
Ni17 Ni7 2.436816 1_555
Ni17 Ni8 2.436816 1_555
Ni17 Ni6 2.436816 1_555
Ni17 Si2 2.526858 1_555
Ni17 Si1 2.526858 1_555
