# generated using pymatgen
data_Sr4CaSm2Ta2O12
_symmetry_space_group_name_H-M   'P 1'
_cell_length_a   6.00251258
_cell_length_b   6.06185038
_cell_length_c   9.69861387
_cell_angle_alpha   100.15851200
_cell_angle_beta   80.97296955
_cell_angle_gamma   93.69041818
_symmetry_Int_Tables_number   1
_chemical_formula_structural   Sr4CaSm2Ta2O12
_chemical_formula_sum   'Sr4 Ca1 Sm2 Ta2 O12'
_cell_volume   342.81806370
_cell_formula_units_Z   1
loop_
 _symmetry_equiv_pos_site_id
 _symmetry_equiv_pos_as_xyz
  1  'x, y, z'
loop_
 _atom_site_type_symbol
 _atom_site_label
 _atom_site_symmetry_multiplicity
 _atom_site_fract_x
 _atom_site_fract_y
 _atom_site_fract_z
 _atom_site_occupancy
  Sr  Sr0  1  0.03531100  0.34703200  0.32980800  1
  Sr  Sr1  1  0.97829800  0.48695300  0.73625200  1
  Sr  Sr2  1  0.50007700  0.12862900  0.18151400  1
  Sr  Sr3  1  0.49706800  0.99383300  0.73677500  1
  Ca  Ca0  1  0.85507800  0.66699200  0.13937700  1
  Sm  Sm0  1  0.05096900  0.93014400  0.52027800  1
  Sm  Sm1  1  0.42149200  0.55556000  0.95629200  1
  Ta  Ta0  1  0.97041100  0.06125700  0.96066400  1
  Ta  Ta1  1  0.53724200  0.44836000  0.52431400  1
  O  O0  1  0.88258700  0.04303000  0.16737800  1
  O  O1  1  0.05013000  0.07129200  0.75458400  1
  O  O2  1  0.66340300  0.47383000  0.32736400  1
  O  O3  1  0.44282500  0.40182500  0.73104600  1
  O  O4  1  0.13603900  0.76791200  0.93160500  1
  O  O5  1  0.76982000  0.33105600  0.97877500  1
  O  O6  1  0.32099400  0.20112000  0.45068200  1
  O  O7  1  0.75931600  0.69363700  0.59137800  1
  O  O8  1  0.24034000  0.23422000  0.01626400  1
  O  O9  1  0.68528500  0.84691300  0.94208500  1
  O  O10  1  0.29185300  0.66815100  0.56109800  1
  O  O11  1  0.78646400  0.22117000  0.53278000  1
loop_
_geom_bond_atom_site_label_1
_geom_bond_atom_site_label_2
_geom_bond_distance
_geom_bond_site_symmetry_2
Ca0 O0 2.245958 1_565
Ca0 O5 2.414969 1_554
Ca0 O2 2.437265 1_555
Ca0 O4 2.552387 1_654
Ca0 O9 2.716762 1_554
O0 Ta0 2.012084 1_554
O0 Sr2 2.364159 1_555
O0 Sr0 2.435105 1_655
O1 Ta0 1.991597 1_455
O1 Sm0 2.281932 1_545
O1 Sr1 2.624541 1_455
O1 Sr3 2.726830 1_545
O2 Ta1 1.970030 1_555
O2 Sr0 2.412220 1_655
O2 Sr2 2.543187 1_555
O3 Ta1 2.059902 1_555
O3 Sm1 2.206055 1_555
O3 Sr3 2.526571 1_545
O3 Sr1 2.859279 1_455
O3 Sr1 3.229247 1_555
O4 Ta0 2.047620 1_465
O4 Sm1 2.274109 1_555
O4 Sr1 2.569820 1_455
O4 Sr3 3.063998 1_555
O5 Ta0 2.059414 1_555
O5 Sm1 2.623983 1_555
O5 Sr2 2.754979 1_556
O5 Sr1 2.774851 1_555
O6 Ta1 2.025826 1_555
O6 Sm0 2.342208 1_545
O6 Sr0 2.507805 1_555
O6 Sr2 2.634232 1_555
O7 Ta1 2.021491 1_555
O7 Sm0 2.289653 1_655
O7 Sr3 2.558306 1_555
O7 Sr1 2.585393 1_555
O8 Ta0 1.967575 1_454
O8 Sm1 2.289886 1_554
O8 Sr2 2.585241 1_555
O8 Sr3 3.070951 1_544
O9 Ta0 2.092311 1_565
O9 Sm1 2.302787 1_555
O9 Sr3 2.737802 1_555
O9 Sr2 2.753177 1_566
O9 Sr1 3.113769 1_555
O10 Ta1 1.998013 1_555
O10 Sm0 2.338092 1_555
O10 Sr1 2.650161 1_455
O10 Sr3 2.734404 1_555
O11 Ta1 2.117767 1_555
O11 Sm0 2.423309 1_645
O11 Sr0 2.479681 1_655
O11 Sr1 2.677442 1_555
O11 Sr3 2.899327 1_545
