# generated using pymatgen
data_Pr(NO5)3
_symmetry_space_group_name_H-M   'P 1'
_cell_length_a   7.07305100
_cell_length_b   8.83646318
_cell_length_c   11.70079668
_cell_angle_alpha   110.99786470
_cell_angle_beta   88.49169300
_cell_angle_gamma   111.29596969
_symmetry_Int_Tables_number   1
_chemical_formula_structural   Pr(NO5)3
_chemical_formula_sum   'Pr2 N6 O30'
_cell_volume   631.57795879
_cell_formula_units_Z   2
loop_
 _symmetry_equiv_pos_site_id
 _symmetry_equiv_pos_as_xyz
  1  'x, y, z'
loop_
 _atom_site_type_symbol
 _atom_site_label
 _atom_site_symmetry_multiplicity
 _atom_site_fract_x
 _atom_site_fract_y
 _atom_site_fract_z
 _atom_site_occupancy
  Pr  Pr0  1  0.99566800  0.84484700  0.28835800  1
  Pr  Pr1  1  0.00433200  0.15515300  0.71164200  1
  N  N0  1  0.26455300  0.17776000  0.16425500  1
  N  N1  1  0.73544700  0.82224000  0.83574500  1
  N  N2  1  0.26404300  0.81802700  0.51916900  1
  N  N3  1  0.73595700  0.18197300  0.48083100  1
  N  N4  1  0.07601200  0.42039400  0.81909000  1
  N  N5  1  0.92398800  0.57960600  0.18091000  1
  O  O0  1  0.39192700  0.31159300  0.11945100  1
  O  O1  1  0.60807300  0.68840700  0.88054900  1
  O  O2  1  0.25835200  0.03049700  0.15744400  1
  O  O3  1  0.74164800  0.96950300  0.84255600  1
  O  O4  1  0.12442500  0.16484400  0.22276900  1
  O  O5  1  0.87557500  0.83515600  0.77723100  1
  O  O6  1  0.24647200  0.73411100  0.44529800  1
  O  O7  1  0.75352800  0.26588900  0.55470200  1
  O  O8  1  0.12885900  0.89664800  0.49282700  1
  O  O9  1  0.87114100  0.10335200  0.50717300  1
  O  O10  1  0.39990000  0.82111400  0.60462100  1
  O  O11  1  0.60010000  0.17888600  0.39537900  1
  O  O12  1  0.06728500  0.45430800  0.70085300  1
  O  O13  1  0.93271500  0.54569200  0.29914700  1
  O  O14  1  0.07995300  0.52579700  0.86196000  1
  O  O15  1  0.92004700  0.47420300  0.13804000  1
  O  O16  1  0.07514400  0.26315200  0.88669500  1
  O  O17  1  0.92485600  0.73684800  0.11330500  1
  O  O18  1  0.69957000  0.10809100  0.05818700  1
  O  O19  1  0.30043000  0.89190900  0.94181300  1
  O  O20  1  0.59264900  0.86552600  0.28580500  1
  O  O21  1  0.40735100  0.13447400  0.71419500  1
  O  O22  1  0.70183200  0.61987900  0.54370500  1
  O  O23  1  0.29816800  0.38012100  0.45629500  1
  O  O24  1  0.43315700  0.26069000  0.74680100  1
  O  O25  1  0.56684300  0.73931000  0.25319900  1
  O  O26  1  0.66488800  0.24483000  0.99374600  1
  O  O27  1  0.33511200  0.75517000  0.00625400  1
  O  O28  1  0.65190600  0.57437900  0.64673000  1
  O  O29  1  0.34809400  0.42562100  0.35327000  1
loop_
_geom_bond_atom_site_label_1
_geom_bond_atom_site_label_2
_geom_bond_distance
_geom_bond_site_symmetry_2
N0 O4 1.184162 1_555
N0 O2 1.259373 1_555
N0 O0 1.459659 1_555
N1 O5 1.184162 1_555
N1 O3 1.259373 1_555
N1 O1 1.459659 1_555
N2 O6 0.889819 1_555
N2 O10 1.391339 1_555
N2 O8 1.464032 1_555
N3 O7 0.889819 1_555
N3 O11 1.391339 1_555
N3 O9 1.464032 1_555
N4 O14 0.875747 1_555
N4 O12 1.524027 1_555
N4 O16 1.826916 1_555
N4 Pr1 2.095150 1_555
N5 O15 0.875747 1_555
N5 O13 1.524027 1_555
N5 O17 1.826916 1_555
N5 Pr0 2.095150 1_555
O8 Pr0 2.416904 1_455
O9 Pr1 2.416904 1_655
O16 Pr1 1.913872 1_555
O17 Pr0 1.913872 1_555
O18 O26 1.722392 1_554
O19 O27 1.722392 1_556
O20 O25 0.986723 1_555
O20 Pr0 2.923492 1_555
O21 O24 0.986723 1_555
O21 Pr1 2.923492 1_555
O22 O28 1.400475 1_555
O23 O29 1.400475 1_555
O24 Pr1 2.823963 1_555
O25 Pr0 2.823963 1_555
