# generated using pymatgen
data_CeSi3Ru
_symmetry_space_group_name_H-M   'P 1'
_cell_length_a   4.19760582
_cell_length_b   4.19760512
_cell_length_c   5.78544100
_cell_angle_alpha   111.27061262
_cell_angle_beta   111.27060527
_cell_angle_gamma   89.99999860
_symmetry_Int_Tables_number   1
_chemical_formula_structural   CeSi3Ru
_chemical_formula_sum   'Ce1 Si3 Ru1'
_cell_volume   87.50077524
_cell_formula_units_Z   1
loop_
 _symmetry_equiv_pos_site_id
 _symmetry_equiv_pos_as_xyz
  1  'x, y, z'
loop_
 _atom_site_type_symbol
 _atom_site_label
 _atom_site_symmetry_multiplicity
 _atom_site_fract_x
 _atom_site_fract_y
 _atom_site_fract_z
 _atom_site_occupancy
  Ce  Ce0  1  0.57597118  0.57597118  0.15194337  1
  Si  Si0  1  0.84249907  0.34249907  0.68499915  1
  Si  Si1  1  0.34249907  0.84249907  0.68499915  1
  Si  Si2  1  0.99912705  0.99912705  0.99825311  1
  Ru  Ru0  1  0.23496261  0.23496261  0.46992522  1
loop_
_geom_bond_atom_site_label_1
_geom_bond_atom_site_label_2
_geom_bond_distance
_geom_bond_site_symmetry_2
Ce0 Si2 3.064707 1_444
Ce0 Si2 3.064713 1_544
Ce0 Si2 3.064713 1_454
Ce0 Si2 3.064719 1_554
Ce0 Si1 3.127629 1_544
Ce0 Si0 3.127629 1_554
Ce0 Si0 3.127629 1_454
Ce0 Si1 3.127629 1_554
Ce0 Ru0 3.362068 1_555
Ce0 Ru0 3.362070 1_565
Ce0 Ru0 3.362071 1_655
Ce0 Ru0 3.362073 1_665
Ce0 Si0 3.378234 1_565
Ce0 Si1 3.378234 1_555
Ce0 Si1 3.378234 1_655
Ce0 Si0 3.378234 1_555
Ce0 Ru0 3.386917 1_554
Si0 Si2 2.612456 1_545
Si0 Si2 2.612463 1_555
Si1 Si2 2.612456 1_455
Si1 Si2 2.612463 1_555
Ru0 Si2 2.342334 1_444
Ru0 Si1 2.354935 1_555
Ru0 Si0 2.354935 1_555
Ru0 Si1 2.354939 1_545
Ru0 Si0 2.354939 1_455
