# generated using pymatgen
data_CaCoF4
_symmetry_space_group_name_H-M   'P 1'
_cell_length_a   6.52068816
_cell_length_b   6.52068816
_cell_length_c   5.44627181
_cell_angle_alpha   66.13318335
_cell_angle_beta   66.13318335
_cell_angle_gamma   49.34536351
_symmetry_Int_Tables_number   1
_chemical_formula_structural   CaCoF4
_chemical_formula_sum   'Ca2 Co2 F8'
_cell_volume   157.30601440
_cell_formula_units_Z   2
loop_
 _symmetry_equiv_pos_site_id
 _symmetry_equiv_pos_as_xyz
  1  'x, y, z'
loop_
 _atom_site_type_symbol
 _atom_site_label
 _atom_site_symmetry_multiplicity
 _atom_site_fract_x
 _atom_site_fract_y
 _atom_site_fract_z
 _atom_site_occupancy
  Ca  Ca0  1  0.74512800  0.25487200  0.75000000  1
  Ca  Ca1  1  0.25487200  0.74512800  0.25000000  1
  Co  Co0  1  0.00000000  0.50000000  0.00000000  1
  Co  Co1  1  0.50000000  0.00000000  0.50000000  1
  F  F0  1  0.68019300  0.57247800  0.32172700  1
  F  F1  1  0.93577400  0.82244200  0.05503100  1
  F  F2  1  0.31980700  0.42752200  0.67827300  1
  F  F3  1  0.42752200  0.31980700  0.17827300  1
  F  F4  1  0.06422600  0.17755800  0.94496900  1
  F  F5  1  0.17755800  0.06422600  0.44496900  1
  F  F6  1  0.57247800  0.68019300  0.82172700  1
  F  F7  1  0.82244200  0.93577400  0.55503100  1
loop_
_geom_bond_atom_site_label_1
_geom_bond_atom_site_label_2
_geom_bond_distance
_geom_bond_site_symmetry_2
Ca0 F6 2.358860 1_555
Ca0 F2 2.358860 1_555
Ca0 F5 2.359928 1_655
Ca0 F1 2.359928 1_546
Ca0 F0 2.378326 1_555
Ca0 F3 2.378326 1_556
Ca0 F4 2.387274 1_655
Ca0 F7 2.387274 1_545
Ca1 F0 2.358860 1_555
Ca1 F3 2.358860 1_555
Ca1 F7 2.359928 1_455
Ca1 F4 2.359928 1_564
Ca1 F6 2.378326 1_554
Ca1 F2 2.378326 1_555
Ca1 F5 2.387274 1_565
Ca1 F1 2.387274 1_455
Co0 F1 1.986690 1_455
Co0 F4 1.986690 1_554
Co0 F2 2.017768 1_554
Co0 F0 2.017768 1_455
Co1 F7 1.986690 1_545
Co1 F5 1.986690 1_555
Co1 F3 2.017768 1_555
Co1 F6 2.017768 1_545
