# generated using pymatgen
data_LiLa4Ho4O12
_symmetry_space_group_name_H-M   'P 1'
_cell_length_a   6.26168112
_cell_length_b   8.55007033
_cell_length_c   5.87061365
_cell_angle_alpha   89.02337691
_cell_angle_beta   91.57784237
_cell_angle_gamma   91.00033232
_symmetry_Int_Tables_number   1
_chemical_formula_structural   LiLa4Ho4O12
_chemical_formula_sum   'Li1 La4 Ho4 O12'
_cell_volume   314.08962621
_cell_formula_units_Z   1
loop_
 _symmetry_equiv_pos_site_id
 _symmetry_equiv_pos_as_xyz
  1  'x, y, z'
loop_
 _atom_site_type_symbol
 _atom_site_label
 _atom_site_symmetry_multiplicity
 _atom_site_fract_x
 _atom_site_fract_y
 _atom_site_fract_z
 _atom_site_occupancy
  Li  Li0  1  0.75084800  0.35463500  0.13415300  1
  La  La0  1  0.09658300  0.21462700  0.98142100  1
  La  La1  1  0.43647400  0.75645900  0.47112300  1
  La  La2  1  0.55794600  0.25483400  0.54612900  1
  La  La3  1  0.93577500  0.76155700  0.01118900  1
  Ho  Ho0  1  0.99889900  0.00109200  0.49456500  1
  Ho  Ho1  1  0.99213200  0.50144700  0.51309800  1
  Ho  Ho2  1  0.51371000  0.99985800  0.00207500  1
  Ho  Ho3  1  0.45718300  0.52453400  0.99357600  1
  O  O0  1  0.06701100  0.74626100  0.63687200  1
  O  O1  1  0.19073400  0.58479800  0.20685200  1
  O  O2  1  0.19636000  0.94833300  0.18306100  1
  O  O3  1  0.29226200  0.42110700  0.69630700  1
  O  O4  1  0.31035600  0.06693300  0.68614500  1
  O  O5  1  0.46766700  0.25687600  0.12911800  1
  O  O6  1  0.55504100  0.75438100  0.85956500  1
  O  O7  1  0.70352600  0.91850000  0.30774800  1
  O  O8  1  0.68735000  0.55486900  0.29652200  1
  O  O9  1  0.82131900  0.05168800  0.81587900  1
  O  O10  1  0.79124600  0.42366700  0.81679100  1
  O  O11  1  0.92757900  0.25510700  0.35322900  1
loop_
_geom_bond_atom_site_label_1
_geom_bond_atom_site_label_2
_geom_bond_distance
_geom_bond_site_symmetry_2
Li0 O11 1.876183 1_555
Li0 O5 1.946771 1_555
Li0 O10 1.966416 1_554
Li0 O8 2.024340 1_555
La0 O9 2.392951 1_455
La0 O5 2.480299 1_556
La0 O11 2.483906 1_456
La0 O4 2.579286 1_555
La0 O2 2.625383 1_546
La0 O3 2.712246 1_555
La0 O10 2.782565 1_455
La1 O7 2.365960 1_555
La1 O6 2.378561 1_555
La1 O0 2.533881 1_555
La1 O8 2.594738 1_555
La1 O1 2.606945 1_555
La1 O2 2.768262 1_555
La1 O4 3.083206 1_565
La1 O3 3.260439 1_555
La2 O4 2.366099 1_555
La2 O3 2.402519 1_555
La2 O5 2.497156 1_555
La2 O10 2.572814 1_555
La2 O11 2.604518 1_555
La2 O9 2.847244 1_555
La2 O8 3.041272 1_555
La3 O0 2.373660 1_654
La3 O1 2.465007 1_655
La3 O2 2.470635 1_655
La3 O6 2.521825 1_554
La3 O7 2.689564 1_555
La3 O9 2.811005 1_564
La3 O8 2.880146 1_555
La3 O10 3.229843 1_554
Ho0 O7 2.234133 1_545
Ho0 O9 2.267567 1_555
Ho0 O4 2.290797 1_655
Ho0 O2 2.290981 1_645
Ho0 O11 2.357293 1_555
Ho0 O0 2.361755 1_645
Ho1 O3 2.251459 1_655
Ho1 O0 2.264517 1_655
Ho1 O10 2.292817 1_555
Ho1 O1 2.309795 1_655
Ho1 O8 2.311788 1_555
Ho1 O11 2.344605 1_555
Ho2 O7 2.232850 1_555
Ho2 O9 2.273961 1_564
Ho2 O4 2.291155 1_564
Ho2 O6 2.294082 1_554
Ho2 O2 2.311163 1_555
Ho2 O5 2.357606 1_565
Ho3 O1 2.187195 1_556
Ho3 O6 2.188207 1_555
Ho3 O3 2.194416 1_555
Ho3 O8 2.273527 1_556
Ho3 O5 2.411426 1_556
Ho3 O10 2.531707 1_555
