# generated using pymatgen
data_TeMo2S3
_symmetry_space_group_name_H-M   'P 1'
_cell_length_a   3.27435868
_cell_length_b   3.27435868
_cell_length_c   37.33616400
_cell_angle_alpha   90.00000000
_cell_angle_beta   90.00000000
_cell_angle_gamma   120.00001384
_symmetry_Int_Tables_number   1
_chemical_formula_structural   TeMo2S3
_chemical_formula_sum   'Te2 Mo4 S6'
_cell_volume   346.66721408
_cell_formula_units_Z   2
loop_
 _symmetry_equiv_pos_site_id
 _symmetry_equiv_pos_as_xyz
  1  'x, y, z'
loop_
 _atom_site_type_symbol
 _atom_site_label
 _atom_site_symmetry_multiplicity
 _atom_site_fract_x
 _atom_site_fract_y
 _atom_site_fract_z
 _atom_site_occupancy
  Te  Te0  1  0.00000000  0.00000000  0.70919900  1
  Te  Te1  1  0.00000000  0.00000000  0.60593500  1
  Mo  Mo0  1  0.00000000  0.00000000  0.09393900  1
  Mo  Mo1  1  0.00000000  0.00000000  0.46960800  1
  Mo  Mo2  1  0.33333300  0.66666700  0.28179400  1
  Mo  Mo3  1  0.33333300  0.66666700  0.65756200  1
  S  S0  1  0.00000000  0.00000000  0.32299800  1
  S  S1  1  0.33333300  0.66666700  0.05272600  1
  S  S2  1  0.33333300  0.66666700  0.42842900  1
  S  S3  1  0.33333300  0.66666700  0.13515700  1
  S  S4  1  0.33333300  0.66666700  0.51081900  1
  S  S5  1  0.00000000  0.00000000  0.24058200  1
loop_
_geom_bond_atom_site_label_1
_geom_bond_atom_site_label_2
_geom_bond_distance
_geom_bond_site_symmetry_2
Mo0 S1 2.437521 1_545
Mo0 S1 2.437523 1_555
Mo0 S1 2.437523 1_445
Mo0 S3 2.437639 1_545
Mo0 S3 2.437641 1_445
Mo0 S3 2.437641 1_555
Mo1 S2 2.436720 1_545
Mo1 S2 2.436722 1_555
Mo1 S2 2.436722 1_445
Mo1 S4 2.437474 1_545
Mo1 S4 2.437476 1_555
Mo1 S4 2.437476 1_445
Mo2 S0 2.437309 1_565
Mo2 S0 2.437311 1_555
Mo2 S0 2.437311 1_665
Mo2 S5 2.437497 1_565
Mo2 S5 2.437499 1_665
Mo2 S5 2.437499 1_555
Mo3 Te1 2.699864 1_565
Mo3 Te1 2.699866 1_665
Mo3 Te1 2.699866 1_555
Mo3 Te0 2.700131 1_565
Mo3 Te0 2.700132 1_665
Mo3 Te0 2.700132 1_555
