# generated using pymatgen
data_NaNdC4O11
_symmetry_space_group_name_H-M   'P 1'
_cell_length_a   7.52095900
_cell_length_b   10.17632800
_cell_length_c   12.85922494
_cell_angle_alpha   76.51047219
_cell_angle_beta   90.00000000
_cell_angle_gamma   90.00000000
_symmetry_Int_Tables_number   1
_chemical_formula_structural   NaNdC4O11
_chemical_formula_sum   'Na4 Nd4 C16 O44'
_cell_volume   957.03908859
_cell_formula_units_Z   4
loop_
 _symmetry_equiv_pos_site_id
 _symmetry_equiv_pos_as_xyz
  1  'x, y, z'
loop_
 _atom_site_type_symbol
 _atom_site_label
 _atom_site_symmetry_multiplicity
 _atom_site_fract_x
 _atom_site_fract_y
 _atom_site_fract_z
 _atom_site_occupancy
  Na  Na0  1  0.27692400  0.61252400  0.29532100  1
  Na  Na1  1  0.72307600  0.38747600  0.70467900  1
  Na  Na2  1  0.27692400  0.88747600  0.70467900  1
  Na  Na3  1  0.72307600  0.11252400  0.29532100  1
  Nd  Nd0  1  0.77243300  0.74033900  0.24992000  1
  Nd  Nd1  1  0.22756700  0.25966100  0.75008000  1
  Nd  Nd2  1  0.77243300  0.75966100  0.75008000  1
  Nd  Nd3  1  0.22756700  0.24033900  0.24992000  1
  C  C0  1  0.36829300  0.92501700  0.27339200  1
  C  C1  1  0.63170700  0.07498300  0.72660800  1
  C  C2  1  0.36829300  0.57498300  0.72660800  1
  C  C3  1  0.63170700  0.42501700  0.27339200  1
  C  C4  1  0.87570800  0.75000000  0.00000000  1
  C  C5  1  0.12429200  0.25000000  0.00000000  1
  C  C6  1  0.79196400  0.82865700  0.48482800  1
  C  C7  1  0.20803600  0.17134300  0.51517200  1
  C  C8  1  0.79196400  0.67134300  0.51517200  1
  C  C9  1  0.20803600  0.32865700  0.48482800  1
  C  C10  1  0.66887400  0.75000000  0.00000000  1
  C  C11  1  0.33112600  0.25000000  0.00000000  1
  C  C12  1  0.83907900  0.41543900  0.26748100  1
  C  C13  1  0.16092100  0.58456100  0.73251900  1
  C  C14  1  0.83907900  0.08456100  0.73251900  1
  C  C15  1  0.16092100  0.91543900  0.26748100  1
  O  O0  1  0.75270600  0.02206600  0.11681300  1
  O  O1  1  0.24729400  0.97793400  0.88318700  1
  O  O2  1  0.75270600  0.47793400  0.88318700  1
  O  O3  1  0.24729400  0.52206600  0.11681300  1
  O  O4  1  0.45801900  0.81940900  0.27536900  1
  O  O5  1  0.54198100  0.18059100  0.72463100  1
  O  O6  1  0.45801900  0.68059100  0.72463100  1
  O  O7  1  0.54198100  0.31940900  0.27536900  1
  O  O8  1  0.59335600  0.75902800  0.08602400  1
  O  O9  1  0.40664400  0.24097200  0.91397600  1
  O  O10  1  0.59335600  0.74097200  0.91397600  1
  O  O11  1  0.40664400  0.25902800  0.08602400  1
  O  O12  1  0.74263000  0.42892600  0.98024400  1
  O  O13  1  0.25737000  0.57107400  0.01975600  1
  O  O14  1  0.74263000  0.07107400  0.01975600  1
  O  O15  1  0.25737000  0.92892600  0.98024400  1
  O  O16  1  0.90865000  0.29947400  0.28074200  1
  O  O17  1  0.09135000  0.70052600  0.71925800  1
  O  O18  1  0.90865000  0.20052600  0.71925800  1
  O  O19  1  0.09135000  0.79947400  0.28074200  1
  O  O20  1  0.57051300  0.54109100  0.27383500  1
  O  O21  1  0.42948700  0.45890900  0.72616500  1
  O  O22  1  0.57051300  0.95890900  0.72616500  1
  O  O23  1  0.42948700  0.04109100  0.27383500  1
  O  O24  1  0.95080200  0.77137600  0.08271100  1
  O  O25  1  0.04919800  0.22862400  0.91728900  1
  O  O26  1  0.95080200  0.72862400  0.91728900  1
  O  O27  1  0.04919800  0.27137600  0.08271100  1
  O  O28  1  0.92181000  0.52709500  0.24770400  1
  O  O29  1  0.07819000  0.47290500  0.75229600  1
  O  O30  1  0.92181000  0.97290500  0.75229600  1
  O  O31  1  0.07819000  0.02709500  0.24770400  1
  O  O32  1  0.34901900  0.80878600  0.50546000  1
  O  O33  1  0.65098100  0.19121400  0.49454000  1
  O  O34  1  0.34901900  0.69121400  0.49454000  1
  O  O35  1  0.65098100  0.30878600  0.50546000  1
  O  O36  1  0.79807500  0.88835000  0.56026900  1
  O  O37  1  0.20192500  0.11165000  0.43973100  1
  O  O38  1  0.79807500  0.61165000  0.43973100  1
  O  O39  1  0.20192500  0.38835000  0.56026900  1
  O  O40  1  0.78113100  0.88459900  0.38542600  1
  O  O41  1  0.21886900  0.11540100  0.61457400  1
  O  O42  1  0.78113100  0.61540100  0.61457400  1
  O  O43  1  0.21886900  0.38459900  0.38542600  1
loop_
_geom_bond_atom_site_label_1
_geom_bond_atom_site_label_2
_geom_bond_distance
_geom_bond_site_symmetry_2
Na0 O19 2.331541 1_555
Na0 O20 2.360940 1_555
Na0 O43 2.378902 1_555
Na0 O4 2.470081 1_555
Na0 O3 2.674332 1_555
Na0 O34 2.907772 1_555
Na0 O28 2.917570 1_455
Na1 O18 2.331541 1_555
Na1 O21 2.360940 1_555
Na1 O42 2.378902 1_555
Na1 O5 2.470081 1_555
Na1 O2 2.674332 1_555
Na1 O35 2.907772 1_555
Na1 O29 2.917570 1_655
Na2 O17 2.331541 1_555
Na2 O22 2.360940 1_555
Na2 O41 2.378902 1_565
Na2 O6 2.470081 1_555
Na2 O1 2.674332 1_555
Na2 O32 2.907772 1_555
Na2 O30 2.917570 1_455
Na3 O16 2.331541 1_555
Na3 O23 2.360940 1_555
Na3 O40 2.378902 1_545
Na3 O7 2.470081 1_555
Na3 O0 2.674332 1_555
Na3 O33 2.907772 1_555
Na3 O31 2.917570 1_655
Nd0 O28 2.449673 1_555
Nd0 O8 2.470829 1_555
Nd0 O24 2.491150 1_555
Nd0 O38 2.493702 1_555
Nd0 O20 2.494218 1_555
Nd0 O19 2.526579 1_655
Nd0 O40 2.527677 1_555
Nd0 O4 2.543457 1_555
Nd0 O0 2.980228 1_565
Nd1 O29 2.449673 1_555
Nd1 O9 2.470829 1_555
Nd1 O25 2.491150 1_555
Nd1 O39 2.493702 1_555
Nd1 O21 2.494218 1_555
Nd1 O18 2.526579 1_455
Nd1 O41 2.527677 1_555
Nd1 O5 2.543457 1_555
Nd1 O1 2.980228 1_545
Nd2 O30 2.449673 1_555
Nd2 O10 2.470829 1_555
Nd2 O26 2.491150 1_555
Nd2 O36 2.493702 1_555
Nd2 O22 2.494218 1_555
Nd2 O17 2.526579 1_655
Nd2 O42 2.527677 1_555
Nd2 O6 2.543457 1_555
Nd2 O2 2.980228 1_555
Nd3 O31 2.449673 1_555
Nd3 O11 2.470829 1_555
Nd3 O27 2.491150 1_555
Nd3 O37 2.493702 1_555
Nd3 O23 2.494218 1_555
Nd3 O16 2.526579 1_455
Nd3 O43 2.527677 1_555
Nd3 O7 2.543457 1_555
Nd3 O3 2.980228 1_555
C0 O4 1.264228 1_555
C0 O23 1.268953 1_565
C1 O5 1.264228 1_555
C1 O22 1.268953 1_545
C2 O6 1.264228 1_555
C2 O21 1.268953 1_555
C3 O7 1.264228 1_555
C3 O20 1.268953 1_555
C4 O24 1.267074 1_555
C4 O26 1.267074 1_554
C5 O27 1.267074 1_555
C5 O25 1.267074 1_554
C6 O36 1.259827 1_555
C6 O40 1.274800 1_555
C7 O37 1.259827 1_555
C7 O41 1.274800 1_555
C8 O38 1.259827 1_555
C8 O42 1.274800 1_555
C9 O39 1.259827 1_555
C9 O43 1.274800 1_555
C10 O8 1.265750 1_555
C10 O10 1.265750 1_554
C11 O11 1.265750 1_555
C11 O9 1.265750 1_554
C12 O16 1.265546 1_555
C12 O28 1.268100 1_555
C13 O17 1.265546 1_555
C13 O29 1.268100 1_555
C14 O18 1.265546 1_555
C14 O30 1.268100 1_545
C15 O19 1.265546 1_555
C15 O31 1.268100 1_565
O0 O14 1.233601 1_555
O1 O15 1.233601 1_555
O12 O2 1.233601 1_555
O13 O3 1.233601 1_555
O32 O34 1.236768 1_555
O33 O35 1.236768 1_555
