# generated using pymatgen
data_TmSi2Ni
_symmetry_space_group_name_H-M   'P 1'
_cell_length_a   3.92117332
_cell_length_b   3.89683955
_cell_length_c   8.42027037
_cell_angle_alpha   90.00000000
_cell_angle_beta   103.46440861
_cell_angle_gamma   90.00000000
_symmetry_Int_Tables_number   1
_chemical_formula_structural   TmSi2Ni
_chemical_formula_sum   'Tm2 Si4 Ni2'
_cell_volume   125.12693170
_cell_formula_units_Z   2
loop_
 _symmetry_equiv_pos_site_id
 _symmetry_equiv_pos_as_xyz
  1  'x, y, z'
loop_
 _atom_site_type_symbol
 _atom_site_label
 _atom_site_symmetry_multiplicity
 _atom_site_fract_x
 _atom_site_fract_y
 _atom_site_fract_z
 _atom_site_occupancy
  Tm  Tm0  1  0.60569735  0.25000000  0.21139370  1
  Tm  Tm1  1  0.39430265  0.75000000  0.78860630  1
  Si  Si0  1  0.95977266  0.25000000  0.91954332  1
  Si  Si1  1  0.04022734  0.75000000  0.08045668  1
  Si  Si2  1  0.24997733  0.25000000  0.49995666  1
  Si  Si3  1  0.75002267  0.75000000  0.50004334  1
  Ni  Ni0  1  0.82374510  0.25000000  0.64748919  1
  Ni  Ni1  1  0.17625490  0.75000000  0.35251081  1
loop_
_geom_bond_atom_site_label_1
_geom_bond_atom_site_label_2
_geom_bond_distance
_geom_bond_site_symmetry_2
Si0 Si1 2.352160 1_646
Si0 Si1 2.352160 1_656
Si0 Tm1 2.964773 1_645
Si0 Tm1 2.964773 1_655
Si0 Tm1 2.964780 1_545
Si0 Tm1 2.964780 1_555
Si0 Tm0 3.091211 1_656
Si0 Tm0 3.091214 1_556
Si1 Tm0 2.964773 1_455
Si1 Tm0 2.964773 1_465
Si1 Tm0 2.964780 1_555
Si1 Tm0 2.964780 1_565
Si1 Tm1 3.091211 1_454
Si1 Tm1 3.091214 1_554
Si2 Si3 2.764093 1_445
Si2 Si3 2.764093 1_455
Si2 Si3 2.764104 1_545
Si2 Si3 2.764104 1_555
Si2 Tm1 3.063240 1_555
Si2 Tm1 3.063240 1_545
Si2 Tm0 3.070443 1_455
Si2 Tm0 3.070451 1_555
Si3 Tm0 3.063240 1_565
Si3 Tm0 3.063240 1_555
Si3 Tm1 3.070443 1_655
Si3 Tm1 3.070451 1_555
Ni0 Si0 2.227807 1_555
Ni0 Si3 2.292200 1_545
Ni0 Si3 2.292200 1_555
Ni0 Si2 2.302918 1_655
Ni0 Si2 2.302928 1_555
Ni0 Tm1 2.995931 1_645
Ni0 Tm1 2.995931 1_655
Ni0 Tm1 2.995936 1_545
Ni0 Tm1 2.995936 1_555
Ni1 Si1 2.227807 1_555
Ni1 Si2 2.292200 1_555
Ni1 Si2 2.292200 1_565
Ni1 Si3 2.302918 1_455
Ni1 Si3 2.302928 1_555
Ni1 Tm0 2.995931 1_465
Ni1 Tm0 2.995931 1_455
Ni1 Tm0 2.995936 1_565
Ni1 Tm0 2.995936 1_555
