# generated using pymatgen
data_In5(SiN3)3
_symmetry_space_group_name_H-M   'P 1'
_cell_length_a   7.63071720
_cell_length_b   10.86676173
_cell_length_c   15.68249500
_cell_angle_alpha   90.00000000
_cell_angle_beta   90.00000000
_cell_angle_gamma   135.40118418
_symmetry_Int_Tables_number   1
_chemical_formula_structural   In5(SiN3)3
_chemical_formula_sum   'In20 Si12 N36'
_cell_volume   913.06847243
_cell_formula_units_Z   4
loop_
 _symmetry_equiv_pos_site_id
 _symmetry_equiv_pos_as_xyz
  1  'x, y, z'
loop_
 _atom_site_type_symbol
 _atom_site_label
 _atom_site_symmetry_multiplicity
 _atom_site_fract_x
 _atom_site_fract_y
 _atom_site_fract_z
 _atom_site_occupancy
  In  In0  1  0.00000000  0.53617000  0.84144000  1
  In  In1  1  0.00000000  0.46383000  0.15856000  1
  In  In2  1  0.00000000  0.96383000  0.34144000  1
  In  In3  1  0.00000000  0.03617000  0.65856000  1
  In  In4  1  0.39795800  0.01344800  0.84649100  1
  In  In5  1  0.39795800  0.38451000  0.15350900  1
  In  In6  1  0.39795800  0.88451000  0.34649100  1
  In  In7  1  0.39795800  0.51344800  0.65350900  1
  In  In8  1  0.60204200  0.98655200  0.15350900  1
  In  In9  1  0.60204200  0.61549000  0.84649100  1
  In  In10  1  0.60204200  0.11549000  0.65350900  1
  In  In11  1  0.60204200  0.48655200  0.34649100  1
  In  In12  1  0.00000000  0.50344400  0.60672800  1
  In  In13  1  0.00000000  0.49655600  0.39327200  1
  In  In14  1  0.00000000  0.99655600  0.10672800  1
  In  In15  1  0.00000000  0.00344400  0.89327200  1
  In  In16  1  0.59383500  0.29691800  0.00000000  1
  In  In17  1  0.59383500  0.79691800  0.50000000  1
  In  In18  1  0.40616500  0.70308200  0.00000000  1
  In  In19  1  0.40616500  0.20308200  0.50000000  1
  Si  Si0  1  0.00000000  0.77169800  0.00269800  1
  Si  Si1  1  0.00000000  0.22830200  0.99730200  1
  Si  Si2  1  0.00000000  0.72830200  0.50269800  1
  Si  Si3  1  0.00000000  0.27169800  0.49730200  1
  Si  Si4  1  0.00000000  0.25385900  0.78266100  1
  Si  Si5  1  0.00000000  0.74614100  0.21733900  1
  Si  Si6  1  0.00000000  0.24614100  0.28266100  1
  Si  Si7  1  0.00000000  0.75385900  0.71733900  1
  Si  Si8  1  0.50000000  0.82237000  0.75000000  1
  Si  Si9  1  0.50000000  0.67763000  0.25000000  1
  Si  Si10  1  0.50000000  0.17763000  0.25000000  1
  Si  Si11  1  0.50000000  0.32237000  0.75000000  1
  N  N0  1  0.00000000  0.40011300  0.73541700  1
  N  N1  1  0.00000000  0.59988700  0.26458300  1
  N  N2  1  0.00000000  0.09988700  0.23541700  1
  N  N3  1  0.00000000  0.90011300  0.76458300  1
  N  N4  1  0.00000000  0.20915000  0.88772000  1
  N  N5  1  0.00000000  0.79085000  0.11228000  1
  N  N6  1  0.00000000  0.29085000  0.38772000  1
  N  N7  1  0.00000000  0.70915000  0.61228000  1
  N  N8  1  0.00000000  0.61954600  0.96916400  1
  N  N9  1  0.00000000  0.38045400  0.03083600  1
  N  N10  1  0.00000000  0.88045400  0.46916400  1
  N  N11  1  0.00000000  0.11954600  0.53083600  1
  N  N12  1  0.74201700  0.55130800  0.76046600  1
  N  N13  1  0.74201700  0.19070900  0.23953400  1
  N  N14  1  0.74201700  0.69070900  0.26046600  1
  N  N15  1  0.74201700  0.05130800  0.73953400  1
  N  N16  1  0.25798300  0.44869200  0.23953400  1
  N  N17  1  0.25798300  0.80929100  0.76046600  1
  N  N18  1  0.25798300  0.30929100  0.73953400  1
  N  N19  1  0.25798300  0.94869200  0.26046600  1
  N  N20  1  0.56121400  0.27190800  0.84448600  1
  N  N21  1  0.56121400  0.28930700  0.15551400  1
  N  N22  1  0.56121400  0.78930700  0.34448600  1
  N  N23  1  0.56121400  0.77190800  0.65551400  1
  N  N24  1  0.43878600  0.72809200  0.15551400  1
  N  N25  1  0.43878600  0.71069300  0.84448600  1
  N  N26  1  0.43878600  0.21069300  0.65551400  1
  N  N27  1  0.43878600  0.22809200  0.34448600  1
  N  N28  1  0.25323500  0.99250900  0.96634600  1
  N  N29  1  0.25323500  0.26072600  0.03365400  1
  N  N30  1  0.25323500  0.76072600  0.46634600  1
  N  N31  1  0.25323500  0.49250900  0.53365400  1
  N  N32  1  0.74676500  0.00749100  0.03365400  1
  N  N33  1  0.74676500  0.73927400  0.96634600  1
  N  N34  1  0.74676500  0.23927400  0.53365400  1
  N  N35  1  0.74676500  0.50749100  0.46634600  1
loop_
_geom_bond_atom_site_label_1
_geom_bond_atom_site_label_2
_geom_bond_distance
_geom_bond_site_symmetry_2
In0 N8 2.198413 1_555
In0 N0 2.224983 1_555
In0 N20 2.401441 1_455
In0 N25 2.401443 1_555
In0 N12 2.444622 1_455
In0 N17 2.444622 1_555
In1 N9 2.198413 1_555
In1 N1 2.224983 1_555
In1 N24 2.401441 1_555
In1 N21 2.401443 1_455
In1 N16 2.444622 1_555
In1 N13 2.444622 1_455
In2 N10 2.198413 1_555
In2 N2 2.224983 1_565
In2 N27 2.401441 1_565
In2 N22 2.401443 1_455
In2 N19 2.444622 1_555
In2 N14 2.444622 1_455
In3 N11 2.198413 1_555
In3 N3 2.224983 1_545
In3 N23 2.401441 1_445
In3 N26 2.401443 1_555
In3 N15 2.444622 1_455
In3 N18 2.444622 1_555
In4 N28 2.108670 1_545
In4 N20 2.111539 1_555
In4 N17 2.123253 1_545
In4 N3 2.657512 1_545
In5 N29 2.108670 1_555
In5 N21 2.111528 1_555
In5 N16 2.123253 1_555
In5 N2 2.657512 1_555
In6 N30 2.108670 1_555
In6 N22 2.111528 1_555
In6 N19 2.123253 1_555
In6 N1 2.657512 1_555
In7 N31 2.108670 1_555
In7 N23 2.111539 1_555
In7 N18 2.123253 1_555
In7 N0 2.657512 1_555
In8 N32 2.108670 1_565
In8 N24 2.111539 1_555
In8 N13 2.123253 1_565
In8 N2 2.657512 1_665
In9 N33 2.108670 1_555
In9 N25 2.111528 1_555
In9 N12 2.123253 1_555
In9 N3 2.657512 1_655
In10 N34 2.108670 1_555
In10 N26 2.111528 1_555
In10 N15 2.123253 1_555
In10 N0 2.657512 1_655
In11 N35 2.108670 1_555
In11 N27 2.111539 1_555
In11 N14 2.123253 1_555
In11 N1 2.657512 1_655
In12 N7 2.237053 1_555
In12 N0 2.309509 1_555
In12 N31 2.321298 1_555
In12 N34 2.321299 1_455
In13 N6 2.237053 1_555
In13 N1 2.309509 1_555
In13 N35 2.321298 1_455
In13 N30 2.321299 1_555
In14 N5 2.237053 1_555
In14 N2 2.309509 1_565
In14 N32 2.321298 1_465
In14 N29 2.321299 1_565
In15 N4 2.237053 1_555
In15 N3 2.309509 1_545
In15 N28 2.321298 1_545
In15 N33 2.321299 1_445
In16 N29 2.394262 1_555
In16 N28 2.394269 1_544
In16 N21 2.446929 1_555
In16 N20 2.446929 1_554
In16 N8 2.580138 1_654
In16 N9 2.580143 1_655
In17 N30 2.394262 1_555
In17 N31 2.394269 1_555
In17 N22 2.446929 1_555
In17 N23 2.446929 1_555
In17 N11 2.580138 1_665
In17 N10 2.580143 1_655
In18 N33 2.394262 1_554
In18 N32 2.394269 1_565
In18 N25 2.446929 1_554
In18 N24 2.446929 1_555
In18 N9 2.580138 1_555
In18 N8 2.580143 1_554
In19 N34 2.394262 1_555
In19 N35 2.394269 1_555
In19 N26 2.446929 1_555
In19 N27 2.446929 1_555
In19 N10 2.580138 1_545
In19 N11 2.580143 1_555
N0 Si4 1.753521 1_555
N1 Si5 1.753521 1_555
N2 Si6 1.753521 1_555
N3 Si7 1.753521 1_555
N4 Si4 1.717727 1_555
N4 Si1 1.731075 1_555
N5 Si5 1.717727 1_555
N5 Si0 1.731075 1_555
N6 Si6 1.717727 1_555
N6 Si3 1.731075 1_555
N7 Si7 1.717727 1_555
N7 Si2 1.731075 1_555
N8 Si0 1.735021 1_556
N9 Si1 1.735021 1_554
N10 Si2 1.735021 1_555
N11 Si3 1.735021 1_555
N12 Si7 1.734056 1_655
N12 Si11 1.756101 1_555
N13 Si6 1.734056 1_655
N13 Si10 1.756101 1_555
N14 Si5 1.734056 1_655
N14 Si9 1.756101 1_555
N15 Si4 1.734056 1_655
N15 Si8 1.756101 1_545
N16 Si6 1.734056 1_555
N16 Si9 1.756101 1_555
N17 Si7 1.734056 1_555
N17 Si8 1.756101 1_555
N18 Si4 1.734056 1_555
N18 Si11 1.756101 1_555
N19 Si5 1.734056 1_555
N19 Si10 1.756101 1_565
N20 Si11 1.754797 1_555
N21 Si10 1.754803 1_555
N22 Si9 1.754803 1_555
N23 Si8 1.754797 1_555
N24 Si9 1.754797 1_555
N25 Si8 1.754803 1_555
N26 Si11 1.754803 1_555
N27 Si10 1.754797 1_555
N28 Si0 1.792648 1_556
N29 Si1 1.792648 1_554
N30 Si2 1.792648 1_555
N31 Si3 1.792648 1_555
N32 Si1 1.792648 1_654
N33 Si0 1.792648 1_656
N34 Si3 1.792648 1_655
N35 Si2 1.792648 1_655
