# generated using pymatgen
data_Ce(Co5Mo)2
_symmetry_space_group_name_H-M   'P 1'
_cell_length_a   4.66477200
_cell_length_b   6.42954650
_cell_length_c   6.42954650
_cell_angle_alpha   97.44023877
_cell_angle_beta   111.26982962
_cell_angle_gamma   68.73017038
_symmetry_Int_Tables_number   1
_chemical_formula_structural   Ce(Co5Mo)2
_chemical_formula_sum   'Ce1 Co10 Mo2'
_cell_volume   167.46036296
_cell_formula_units_Z   1
loop_
 _symmetry_equiv_pos_site_id
 _symmetry_equiv_pos_as_xyz
  1  'x, y, z'
loop_
 _atom_site_type_symbol
 _atom_site_label
 _atom_site_symmetry_multiplicity
 _atom_site_fract_x
 _atom_site_fract_y
 _atom_site_fract_z
 _atom_site_occupancy
  Ce  Ce0  1  0.00000000  0.00000000  0.00000000  1
  Co  Co0  1  0.70994400  0.79005600  0.20994400  1
  Co  Co1  1  0.29005600  0.20994400  0.79005600  1
  Co  Co2  1  0.50000000  0.78000200  0.78000200  1
  Co  Co3  1  0.50000000  0.21999800  0.21999800  1
  Co  Co4  1  0.50000000  0.00000000  0.50000000  1
  Co  Co5  1  0.00000000  0.00000000  0.50000000  1
  Co  Co6  1  0.50000000  0.50000000  0.00000000  1
  Co  Co7  1  0.00000000  0.50000000  0.00000000  1
  Co  Co8  1  0.63991600  0.36008400  0.63991600  1
  Co  Co9  1  0.36008400  0.63991600  0.36008400  1
  Mo  Mo0  1  0.00000000  0.35900400  0.35900400  1
  Mo  Mo1  1  0.00000000  0.64099600  0.64099600  1
loop_
_geom_bond_atom_site_label_1
_geom_bond_atom_site_label_2
_geom_bond_distance
_geom_bond_site_symmetry_2
Ce0 Co1 2.932059 1_454
Ce0 Co1 2.932059 1_554
Ce0 Co0 2.932059 1_545
Ce0 Co0 2.932059 1_445
Ce0 Co2 2.987207 1_544
Ce0 Co2 2.987207 1_444
Ce0 Co3 2.987207 1_555
Ce0 Co3 2.987207 1_455
Ce0 Mo1 3.045657 1_544
Ce0 Mo0 3.045657 1_555
Ce0 Co8 3.047430 1_454
Ce0 Co9 3.047430 1_545
Ce0 Co7 3.214773 1_545
Ce0 Co7 3.214773 1_555
Ce0 Co6 3.214773 1_455
Ce0 Co6 3.214773 1_545
Ce0 Co5 3.214773 1_555
Ce0 Co4 3.214773 1_555
Ce0 Co4 3.214773 1_454
Ce0 Co5 3.214773 1_554
Co0 Co5 2.444008 1_665
Co0 Co4 2.444008 1_565
Co0 Co7 2.444008 1_655
Co0 Co6 2.444008 1_555
Co0 Co3 2.576882 1_565
Co0 Co2 2.576882 1_554
Co0 Co9 2.656046 1_655
Co0 Co9 2.656046 1_555
Co0 Mo1 2.730699 1_655
Co0 Mo0 2.730699 1_655
Co1 Co7 2.444008 1_556
Co1 Co5 2.444008 1_555
Co1 Co6 2.444008 1_556
Co1 Co4 2.444008 1_555
Co1 Co3 2.576882 1_556
Co1 Co2 2.576882 1_545
Co1 Co8 2.656046 1_455
Co1 Co8 2.656046 1_555
Co1 Mo0 2.730699 1_555
Co1 Mo1 2.730699 1_555
Co2 Co7 2.429260 1_656
Co2 Co4 2.429260 1_565
Co2 Co5 2.429260 1_565
Co2 Co6 2.429260 1_556
Co2 Mo1 2.613564 1_555
Co2 Mo1 2.613564 1_655
Co2 Co9 2.654211 1_555
Co2 Co8 2.654211 1_555
Co3 Co7 2.429260 1_555
Co3 Co5 2.429260 1_655
Co3 Co6 2.429260 1_555
Co3 Co4 2.429260 1_555
Co3 Mo0 2.613564 1_655
Co3 Mo0 2.613564 1_555
Co3 Co8 2.654211 1_555
Co3 Co9 2.654211 1_555
Co4 Co5 2.332386 1_655
Co4 Co5 2.332386 1_555
Co4 Mo0 2.586828 1_555
Co4 Mo1 2.586828 1_645
Co4 Co9 2.593498 1_545
Co4 Co8 2.593498 1_555
Co5 Mo1 2.586828 1_545
Co5 Mo0 2.586828 1_555
Co5 Co9 2.593498 1_545
Co5 Co8 2.593498 1_455
Co6 Co7 2.332386 1_555
Co6 Co7 2.332386 1_655
Co6 Mo1 2.586828 1_554
Co6 Mo0 2.586828 1_655
Co6 Co8 2.593498 1_554
Co6 Co9 2.593498 1_555
Co7 Mo1 2.586828 1_554
Co7 Mo0 2.586828 1_555
Co7 Co8 2.593498 1_454
Co7 Co9 2.593498 1_555
Co8 Co9 2.368248 1_555
Co8 Mo0 2.876277 1_655
Co8 Mo0 2.876277 1_555
Co8 Mo1 2.876277 1_555
Co8 Mo1 2.876277 1_655
Co9 Mo0 2.876277 1_655
Co9 Mo1 2.876277 1_655
Co9 Mo0 2.876277 1_555
Co9 Mo1 2.876277 1_555
Mo0 Mo1 2.392316 1_555
