# generated using pymatgen
data_Si2WO7
_symmetry_space_group_name_H-M   'P 1'
_cell_length_a   9.48338907
_cell_length_b   9.48338907
_cell_length_c   10.38515464
_cell_angle_alpha   60.39323102
_cell_angle_beta   60.39323102
_cell_angle_gamma   49.53802796
_symmetry_Int_Tables_number   1
_chemical_formula_structural   Si2WO7
_chemical_formula_sum   'Si8 W4 O28'
_cell_volume   596.21696678
_cell_formula_units_Z   4
loop_
 _symmetry_equiv_pos_site_id
 _symmetry_equiv_pos_as_xyz
  1  'x, y, z'
loop_
 _atom_site_type_symbol
 _atom_site_label
 _atom_site_symmetry_multiplicity
 _atom_site_fract_x
 _atom_site_fract_y
 _atom_site_fract_z
 _atom_site_occupancy
  Si  Si0  1  0.52708200  0.13432100  0.65869000  1
  Si  Si1  1  0.13432100  0.52708200  0.15869000  1
  Si  Si2  1  0.53421000  0.19027400  0.10954200  1
  Si  Si3  1  0.19027400  0.53421000  0.60954200  1
  Si  Si4  1  0.86567900  0.47291800  0.84131000  1
  Si  Si5  1  0.46579000  0.80972600  0.89045800  1
  Si  Si6  1  0.80972600  0.46579000  0.39045800  1
  Si  Si7  1  0.47291800  0.86567900  0.34131000  1
  W  W0  1  0.79400300  0.20599700  0.75000000  1
  W  W1  1  0.20599700  0.79400300  0.25000000  1
  W  W2  1  0.00000000  0.00000000  0.00000000  1
  W  W3  1  0.00000000  0.00000000  0.50000000  1
  O  O0  1  0.88698200  0.25985400  0.37352000  1
  O  O1  1  0.95537300  0.92223000  0.39442300  1
  O  O2  1  0.42846800  0.73349700  0.08526700  1
  O  O3  1  0.92223000  0.95537300  0.89442300  1
  O  O4  1  0.25756300  0.90843100  0.33376500  1
  O  O5  1  0.01151200  0.51047500  0.67183700  1
  O  O6  1  0.73349700  0.42846800  0.58526700  1
  O  O7  1  0.09156900  0.74243700  0.16623500  1
  O  O8  1  0.98848800  0.48952500  0.32816300  1
  O  O9  1  0.62888100  0.64383200  0.31883800  1
  O  O10  1  0.04462700  0.07777000  0.60557700  1
  O  O11  1  0.74243700  0.09156900  0.66623500  1
  O  O12  1  0.48952500  0.98848800  0.82816300  1
  O  O13  1  0.25985400  0.88698200  0.87352000  1
  O  O14  1  0.64383200  0.62888100  0.81883800  1
  O  O15  1  0.90843100  0.25756300  0.83376500  1
  O  O16  1  0.89573800  0.43019800  0.99206800  1
  O  O17  1  0.37111900  0.35616800  0.68116200  1
  O  O18  1  0.56980200  0.10426200  0.50793200  1
  O  O19  1  0.35616800  0.37111900  0.18116200  1
  O  O20  1  0.51047500  0.01151200  0.17183700  1
  O  O21  1  0.07777000  0.04462700  0.10557700  1
  O  O22  1  0.43019800  0.89573800  0.49206800  1
  O  O23  1  0.57153200  0.26650300  0.91473300  1
  O  O24  1  0.10426200  0.56980200  0.00793200  1
  O  O25  1  0.26650300  0.57153200  0.41473300  1
  O  O26  1  0.74014600  0.11301800  0.12648000  1
  O  O27  1  0.11301800  0.74014600  0.62648000  1
loop_
_geom_bond_atom_site_label_1
_geom_bond_atom_site_label_2
_geom_bond_distance
_geom_bond_site_symmetry_2
O0 Si6 1.654341 1_555
O0 W3 1.926534 1_655
O1 W3 1.894160 1_665
O1 W1 1.976343 1_655
O2 Si5 1.708897 1_554
O2 W1 1.881368 1_555
O3 W2 1.894160 1_666
O3 W0 1.976343 1_565
O4 Si7 1.842158 1_555
O4 W1 2.053123 1_555
O4 W3 2.064561 1_565
O5 Si3 1.615806 1_555
O5 Si4 1.658907 1_455
O6 Si6 1.708897 1_555
O6 W0 1.881368 1_555
O7 Si1 1.842158 1_555
O7 W1 2.053123 1_555
O7 W2 2.064561 1_565
O8 Si6 1.615806 1_555
O8 Si1 1.658907 1_655
O9 Si6 1.614491 1_555
O9 Si7 1.665446 1_555
O10 W3 1.894160 1_555
O10 W0 1.976343 1_455
O11 Si0 1.842158 1_555
O11 W0 2.053123 1_555
O11 W3 2.064561 1_655
O12 Si5 1.615806 1_555
O12 Si0 1.658907 1_565
O13 Si5 1.654341 1_555
O13 W2 1.926534 1_566
O14 Si5 1.614491 1_555
O14 Si4 1.665446 1_555
O15 Si4 1.842158 1_555
O15 W0 2.053123 1_555
O15 W2 2.064561 1_656
O16 Si4 1.536554 1_555
O17 Si3 1.614491 1_555
O17 Si0 1.665446 1_555
O18 Si0 1.536554 1_555
O19 Si2 1.614491 1_555
O19 Si1 1.665446 1_555
O20 Si2 1.615806 1_555
O20 Si7 1.658907 1_545
O21 W2 1.894160 1_555
O21 W1 1.976343 1_545
O22 Si7 1.536554 1_555
O23 Si2 1.708897 1_556
O23 W0 1.881368 1_555
O24 Si1 1.536554 1_555
O25 Si3 1.708897 1_555
O25 W1 1.881368 1_555
O26 Si2 1.654341 1_555
O26 W2 1.926534 1_655
O27 Si3 1.654341 1_555
O27 W3 1.926534 1_565
