# generated using pymatgen
data_LaMg12
_symmetry_space_group_name_H-M   'P 1'
_cell_length_a   7.84473933
_cell_length_b   7.84473933
_cell_length_c   7.84473933
_cell_angle_alpha   98.19457578
_cell_angle_beta   98.19457578
_cell_angle_gamma   135.63742493
_symmetry_Int_Tables_number   1
_chemical_formula_structural   LaMg12
_chemical_formula_sum   'La1 Mg12'
_cell_volume   312.56686988
_cell_formula_units_Z   1
loop_
 _symmetry_equiv_pos_site_id
 _symmetry_equiv_pos_as_xyz
  1  'x, y, z'
loop_
 _atom_site_type_symbol
 _atom_site_label
 _atom_site_symmetry_multiplicity
 _atom_site_fract_x
 _atom_site_fract_y
 _atom_site_fract_z
 _atom_site_occupancy
  La  La0  1  0.00000000  -0.00000000  -0.00000000  1
  Mg  Mg0  1  0.00000000  -0.00000000  0.50000000  1
  Mg  Mg1  1  0.50000000  0.50000000  0.50000000  1
  Mg  Mg2  1  0.50000000  -0.00000000  -0.00000000  1
  Mg  Mg3  1  0.00000000  0.50000000  -0.00000000  1
  Mg  Mg4  1  -0.00000000  0.35186366  0.35186366  1
  Mg  Mg5  1  0.00000000  0.64813634  0.64813634  1
  Mg  Mg6  1  0.64813634  0.00000000  0.64813634  1
  Mg  Mg7  1  0.35186366  -0.00000000  0.35186366  1
  Mg  Mg8  1  0.50000000  0.28553489  0.78553489  1
  Mg  Mg9  1  0.50000000  0.71446511  0.21446511  1
  Mg  Mg10  1  0.71446511  0.50000000  0.21446511  1
  Mg  Mg11  1  0.28553489  0.50000000  0.78553489  1
loop_
_geom_bond_atom_site_label_1
_geom_bond_atom_site_label_2
_geom_bond_distance
_geom_bond_site_symmetry_2
La0 Mg5 3.614732 1_544
La0 Mg6 3.614732 1_454
La0 Mg7 3.614732 1_555
La0 Mg4 3.614732 1_555
La0 Mg9 3.691314 1_555
La0 Mg8 3.691314 1_444
La0 Mg10 3.691314 1_555
La0 Mg8 3.691314 1_554
La0 Mg11 3.691314 1_444
La0 Mg9 3.691314 1_445
La0 Mg10 3.691314 1_445
La0 Mg11 3.691314 1_554
La0 Mg2 3.922370 1_555
La0 Mg2 3.922370 1_455
La0 Mg1 3.922370 1_555
La0 Mg0 3.922370 1_554
La0 Mg3 3.922370 1_555
La0 Mg0 3.922370 1_555
La0 Mg1 3.922370 1_444
La0 Mg3 3.922370 1_545
Mg0 Mg1 2.961690 1_555
Mg0 Mg1 2.961690 1_445
Mg0 Mg10 2.987006 1_445
Mg0 Mg11 2.987006 1_555
Mg0 Mg8 2.987006 1_555
Mg0 Mg9 2.987006 1_445
Mg0 Mg6 3.143885 1_455
Mg0 Mg7 3.143885 1_555
Mg0 Mg5 3.143885 1_545
Mg0 Mg4 3.143885 1_555
Mg1 Mg10 2.987006 1_555
Mg1 Mg11 2.987006 1_555
Mg1 Mg8 2.987006 1_555
Mg1 Mg9 2.987006 1_555
Mg1 Mg6 3.143885 1_565
Mg1 Mg7 3.143885 1_555
Mg1 Mg5 3.143885 1_655
Mg1 Mg4 3.143885 1_555
Mg2 Mg3 2.961690 1_545
Mg2 Mg3 2.961690 1_655
Mg2 Mg9 2.987006 1_545
Mg2 Mg8 2.987006 1_554
Mg2 Mg7 3.143885 1_555
Mg2 Mg4 3.143885 1_655
Mg2 Mg6 3.143885 1_554
Mg2 Mg5 3.143885 1_544
Mg3 Mg8 2.987006 1_454
Mg3 Mg9 2.987006 1_555
Mg3 Mg6 3.143885 1_454
Mg3 Mg7 3.143885 1_565
Mg3 Mg5 3.143885 1_554
Mg3 Mg4 3.143885 1_555
Mg4 Mg5 3.043640 1_555
Mg4 Mg9 3.280849 1_445
Mg4 Mg9 3.280849 1_555
Mg5 Mg8 3.280849 1_455
Mg5 Mg8 3.280849 1_565
Mg6 Mg7 3.043640 1_555
Mg6 Mg8 3.304596 1_555
Mg6 Mg9 3.304596 1_545
Mg7 Mg8 3.304596 1_555
Mg7 Mg9 3.304596 1_545
Mg10 Mg2 2.987006 1_555
Mg10 Mg3 2.987006 1_655
Mg10 Mg9 3.115827 1_555
Mg10 Mg8 3.115827 1_554
Mg10 Mg7 3.280849 1_665
Mg10 Mg7 3.280849 1_555
Mg10 Mg4 3.304596 1_655
Mg10 Mg5 3.304596 1_655
Mg11 Mg2 2.987006 1_566
Mg11 Mg3 2.987006 1_556
Mg11 Mg9 3.115827 1_556
Mg11 Mg8 3.115827 1_555
Mg11 Mg6 3.280849 1_455
Mg11 Mg6 3.280849 1_565
Mg11 Mg4 3.304596 1_555
Mg11 Mg5 3.304596 1_555
