# generated using pymatgen
data_Mg2CClO7
_symmetry_space_group_name_H-M   'P 1'
_cell_length_a   13.42166537
_cell_length_b   13.42166537
_cell_length_c   13.42166590
_cell_angle_alpha   116.61281636
_cell_angle_beta   116.61281636
_cell_angle_gamma   116.61282075
_symmetry_Int_Tables_number   1
_chemical_formula_structural   Mg2CClO7
_chemical_formula_sum   'Mg12 C6 Cl6 O42'
_cell_volume   1129.43927985
_cell_formula_units_Z   6
loop_
 _symmetry_equiv_pos_site_id
 _symmetry_equiv_pos_as_xyz
  1  'x, y, z'
loop_
 _atom_site_type_symbol
 _atom_site_label
 _atom_site_symmetry_multiplicity
 _atom_site_fract_x
 _atom_site_fract_y
 _atom_site_fract_z
 _atom_site_occupancy
  Mg  Mg0  1  0.67027200  0.23136800  0.25951300  1
  Mg  Mg1  1  0.25951300  0.67027200  0.23136800  1
  Mg  Mg2  1  0.23136800  0.25951300  0.67027200  1
  Mg  Mg3  1  0.75951300  0.73136800  0.17027200  1
  Mg  Mg4  1  0.17027200  0.75951300  0.73136800  1
  Mg  Mg5  1  0.73136800  0.17027200  0.75951300  1
  Mg  Mg6  1  0.13858400  0.88400500  0.54207600  1
  Mg  Mg7  1  0.54207500  0.13858400  0.88400500  1
  Mg  Mg8  1  0.88400500  0.54207500  0.13858400  1
  Mg  Mg9  1  0.04207600  0.38400500  0.63858400  1
  Mg  Mg10  1  0.63858400  0.04207600  0.38400500  1
  Mg  Mg11  1  0.38400500  0.63858400  0.04207600  1
  C  C0  1  0.85685900  0.47677400  0.31848000  1
  C  C1  1  0.31848000  0.85685900  0.47677400  1
  C  C2  1  0.47677400  0.31848000  0.85685900  1
  C  C3  1  0.81848000  0.97677400  0.35685900  1
  C  C4  1  0.35685900  0.81848000  0.97677400  1
  C  C5  1  0.97677400  0.35685900  0.81848000  1
  Cl  Cl0  1  0.48255900  0.37670300  0.19518200  1
  Cl  Cl1  1  0.19518200  0.48255900  0.37670300  1
  Cl  Cl2  1  0.37670300  0.19518200  0.48255900  1
  Cl  Cl3  1  0.69518200  0.87670300  0.98255900  1
  Cl  Cl4  1  0.98255900  0.69518200  0.87670300  1
  Cl  Cl5  1  0.87670300  0.98255900  0.69518200  1
  O  O0  1  0.95823300  0.59512500  0.34519000  1
  O  O1  1  0.34519000  0.95823300  0.59512500  1
  O  O2  1  0.59512500  0.34519000  0.95823300  1
  O  O3  1  0.84519000  0.09512500  0.45823300  1
  O  O4  1  0.45823300  0.84519000  0.09512500  1
  O  O5  1  0.09512500  0.45823300  0.84519000  1
  O  O6  1  0.90005200  0.52869500  0.45502300  1
  O  O7  1  0.45502300  0.90005200  0.52869500  1
  O  O8  1  0.52869500  0.45502300  0.90005200  1
  O  O9  1  0.95502300  0.02869500  0.40005200  1
  O  O10  1  0.40005200  0.95502300  0.02869500  1
  O  O11  1  0.02869500  0.40005200  0.95502300  1
  O  O12  1  0.50478000  0.28111000  0.28738500  1
  O  O13  1  0.28738500  0.50478000  0.28111000  1
  O  O14  1  0.28111000  0.28738500  0.50478000  1
  O  O15  1  0.78738500  0.78111000  0.00478000  1
  O  O16  1  0.00478000  0.78738500  0.78111000  1
  O  O17  1  0.78111000  0.00478000  0.78738500  1
  O  O18  1  0.28576200  0.95730700  0.76788800  1
  O  O19  1  0.76788800  0.28576200  0.95730700  1
  O  O20  1  0.95730700  0.76788800  0.28576200  1
  O  O21  1  0.26788800  0.45730700  0.78576200  1
  O  O22  1  0.78576200  0.26788800  0.45730700  1
  O  O23  1  0.45730700  0.78576200  0.26788800  1
  O  O24  1  0.88687800  0.75564900  0.34876600  1
  O  O25  1  0.34876600  0.88687800  0.75564900  1
  O  O26  1  0.75564900  0.34876600  0.88687800  1
  O  O27  1  0.84876600  0.25564900  0.38687800  1
  O  O28  1  0.38687800  0.84876600  0.25564900  1
  O  O29  1  0.25564900  0.38687800  0.84876600  1
  O  O30  1  0.70262700  0.29279600  0.15265000  1
  O  O31  1  0.15265000  0.70262700  0.29279600  1
  O  O32  1  0.29279600  0.15265000  0.70262700  1
  O  O33  1  0.65265000  0.79279600  0.20262700  1
  O  O34  1  0.20262700  0.65265000  0.79279600  1
  O  O35  1  0.79279600  0.20262700  0.65265000  1
  O  O36  1  0.27363300  0.39392200  0.20405100  1
  O  O37  1  0.20405100  0.27363300  0.39392200  1
  O  O38  1  0.39392200  0.20405100  0.27363300  1
  O  O39  1  0.70405100  0.89392200  0.77363300  1
  O  O40  1  0.77363300  0.70405100  0.89392200  1
  O  O41  1  0.89392200  0.77363300  0.70405100  1
loop_
_geom_bond_atom_site_label_1
_geom_bond_atom_site_label_2
_geom_bond_distance
_geom_bond_site_symmetry_2
Mg0 O27 1.974866 1_555
Mg0 O10 2.023701 1_545
Mg0 O22 2.038951 1_555
Mg0 O30 2.054792 1_555
Mg0 O6 2.159547 1_555
Mg0 O12 2.714504 1_555
Mg1 O28 1.974866 1_555
Mg1 O11 2.023701 1_554
Mg1 O23 2.038951 1_555
Mg1 O31 2.054792 1_555
Mg1 O7 2.159547 1_555
Mg1 O13 2.714504 1_555
Mg2 O29 1.974866 1_555
Mg2 O9 2.023701 1_455
Mg2 O21 2.038951 1_555
Mg2 O32 2.054792 1_555
Mg2 O8 2.159547 1_555
Mg2 O14 2.714504 1_555
Mg3 O24 1.974866 1_555
Mg3 O8 2.023701 1_554
Mg3 O20 2.038951 1_555
Mg3 O33 2.054792 1_555
Mg3 O9 2.159547 1_565
Mg3 O15 2.714504 1_555
Mg4 O25 1.974866 1_555
Mg4 O6 2.023701 1_455
Mg4 O18 2.038951 1_555
Mg4 O34 2.054792 1_555
Mg4 O10 2.159547 1_556
Mg4 O16 2.714504 1_555
Mg5 O26 1.974866 1_555
Mg5 O7 2.023701 1_545
Mg5 O19 2.038951 1_555
Mg5 O35 2.054792 1_555
Mg5 O11 2.159547 1_655
Mg5 O17 2.714504 1_555
Mg6 O24 2.010192 1_455
Mg6 O18 2.068633 1_555
Mg6 O32 2.070061 1_565
Mg6 O1 2.075934 1_555
Mg6 O20 2.117495 1_455
Mg6 O0 2.134663 1_455
Mg7 O25 2.010190 1_545
Mg7 O19 2.068644 1_555
Mg7 O30 2.070059 1_556
Mg7 O2 2.075927 1_555
Mg7 O18 2.117484 1_545
Mg7 O1 2.134665 1_545
Mg8 O26 2.010190 1_554
Mg8 O20 2.068644 1_555
Mg8 O31 2.070058 1_655
Mg8 O0 2.075928 1_555
Mg8 O19 2.117484 1_554
Mg8 O2 2.134664 1_554
Mg9 O27 2.010192 1_455
Mg9 O21 2.068633 1_555
Mg9 O34 2.070061 1_555
Mg9 O5 2.075934 1_555
Mg9 O22 2.117495 1_455
Mg9 O3 2.134663 1_455
Mg10 O28 2.010192 1_545
Mg10 O22 2.068632 1_555
Mg10 O35 2.070061 1_555
Mg10 O3 2.075934 1_555
Mg10 O23 2.117495 1_545
Mg10 O4 2.134664 1_545
Mg11 O29 2.010192 1_554
Mg11 O23 2.068633 1_555
Mg11 O33 2.070061 1_555
Mg11 O4 2.075934 1_555
Mg11 O21 2.117495 1_554
Mg11 O5 2.134663 1_554
C0 O0 1.272589 1_555
C0 O30 1.305781 1_555
C0 O6 1.312361 1_555
C1 O1 1.272590 1_555
C1 O31 1.305781 1_555
C1 O7 1.312360 1_555
C2 O2 1.272590 1_555
C2 O32 1.305781 1_555
C2 O8 1.312360 1_555
C3 O3 1.272590 1_565
C3 O33 1.305781 1_555
C3 O9 1.312360 1_565
C4 O4 1.272590 1_556
C4 O34 1.305781 1_555
C4 O10 1.312360 1_556
C5 O5 1.272589 1_655
C5 O35 1.305781 1_555
C5 O11 1.312361 1_655
Cl0 O12 2.168223 1_555
Cl1 O13 2.168223 1_555
Cl2 O14 2.168223 1_555
Cl3 O15 2.168223 1_556
Cl4 O16 2.168223 1_655
Cl5 O17 2.168223 1_565
O12 O38 1.233623 1_555
O13 O36 1.233623 1_555
O14 O37 1.233623 1_555
O15 O40 1.233623 1_554
O16 O41 1.233623 1_455
O17 O39 1.233623 1_545
O18 O25 1.528750 1_555
O19 O26 1.528750 1_555
O20 O24 1.528750 1_555
O21 O29 1.528750 1_555
O22 O27 1.528750 1_555
O23 O28 1.528750 1_555
