# generated using pymatgen
data_Te4MoW3(SeS)2
_symmetry_space_group_name_H-M   'P 1'
_cell_length_a   3.39491643
_cell_length_b   3.39491643
_cell_length_c   39.85669200
_cell_angle_alpha   90.00000000
_cell_angle_beta   90.00000000
_cell_angle_gamma   120.00000844
_symmetry_Int_Tables_number   1
_chemical_formula_structural   Te4MoW3(SeS)2
_chemical_formula_sum   'Te4 Mo1 W3 Se2 S2'
_cell_volume   397.82312290
_cell_formula_units_Z   1
loop_
 _symmetry_equiv_pos_site_id
 _symmetry_equiv_pos_as_xyz
  1  'x, y, z'
loop_
 _atom_site_type_symbol
 _atom_site_label
 _atom_site_symmetry_multiplicity
 _atom_site_fract_x
 _atom_site_fract_y
 _atom_site_fract_z
 _atom_site_occupancy
  Te  Te0  1  0.00000000  0.00000000  0.32983500  1
  Te  Te1  1  0.33333300  0.66666700  0.04590800  1
  Te  Te2  1  0.33333300  0.66666700  0.13985500  1
  Te  Te3  1  0.00000000  0.00000000  0.23522500  1
  Mo  Mo0  1  0.00000000  0.00000000  0.09286400  1
  W  W0  1  0.00000000  0.00000000  0.46997900  1
  W  W1  1  0.33333300  0.66666700  0.28255600  1
  W  W2  1  0.33333300  0.66666700  0.65752300  1
  Se  Se0  1  0.33333300  0.66666700  0.42840600  1
  Se  Se1  1  0.33333300  0.66666700  0.51155500  1
  S  S0  1  0.00000000  0.00000000  0.69533700  1
  S  S1  1  0.00000000  0.00000000  0.61970500  1
loop_
_geom_bond_atom_site_label_1
_geom_bond_atom_site_label_2
_geom_bond_distance
_geom_bond_site_symmetry_2
Te0 W1 2.718955 1_545
Te0 W1 2.718957 1_445
Te0 W1 2.718957 1_555
Te3 W1 2.720392 1_545
Te3 W1 2.720394 1_445
Te3 W1 2.720394 1_555
Mo0 Te1 2.710049 1_545
Mo0 Te1 2.710051 1_555
Mo0 Te1 2.710051 1_445
Mo0 Te2 2.711012 1_545
Mo0 Te2 2.711014 1_555
Mo0 Te2 2.711014 1_445
Se0 W0 2.566581 1_565
Se0 W0 2.566583 1_665
Se0 W0 2.566583 1_555
Se1 W0 2.566658 1_565
Se1 W0 2.566660 1_555
Se1 W0 2.566660 1_665
S0 W2 2.472506 1_545
S0 W2 2.472508 1_445
S0 W2 2.472508 1_555
S1 W2 2.472603 1_545
S1 W2 2.472605 1_555
S1 W2 2.472605 1_445
