# generated using pymatgen
data_MgSc3Ru2
_symmetry_space_group_name_H-M   'P 1'
_cell_length_a   6.48218334
_cell_length_b   6.48218334
_cell_length_c   21.66869242
_cell_angle_alpha   90.00000000
_cell_angle_beta   90.00000000
_cell_angle_gamma   90.00000000
_symmetry_Int_Tables_number   1
_chemical_formula_structural   MgSc3Ru2
_chemical_formula_sum   'Mg8 Sc24 Ru16'
_cell_volume   910.49030468
_cell_formula_units_Z   8
loop_
 _symmetry_equiv_pos_site_id
 _symmetry_equiv_pos_as_xyz
  1  'x, y, z'
loop_
 _atom_site_type_symbol
 _atom_site_label
 _atom_site_symmetry_multiplicity
 _atom_site_fract_x
 _atom_site_fract_y
 _atom_site_fract_z
 _atom_site_occupancy
  Mg  Mg0_0  1  0.25000000  0.25000000  0.25000000  1
  Mg  Mg0_1  1  0.25000000  0.25000000  0.75000000  1
  Mg  Mg0_2  1  0.25000000  0.75000000  0.25000000  1
  Mg  Mg0_3  1  0.25000000  0.75000000  0.75000000  1
  Mg  Mg0_4  1  0.75000000  0.25000000  0.25000000  1
  Mg  Mg0_5  1  0.75000000  0.25000000  0.75000000  1
  Mg  Mg0_6  1  0.75000000  0.75000000  0.25000000  1
  Mg  Mg0_7  1  0.75000000  0.75000000  0.75000000  1
  Sc  Sc0_0  1  0.00000000  0.00000000  0.00000000  1
  Sc  Sc0_1  1  0.00000000  0.00000000  0.50000000  1
  Sc  Sc0_2  1  0.00000000  0.50000000  0.00000000  1
  Sc  Sc0_3  1  0.00000000  0.50000000  0.50000000  1
  Sc  Sc0_4  1  0.50000000  0.00000000  0.00000000  1
  Sc  Sc0_5  1  0.50000000  0.00000000  0.50000000  1
  Sc  Sc0_6  1  0.50000000  0.50000000  0.00000000  1
  Sc  Sc0_7  1  0.50000000  0.50000000  0.50000000  1
  Sc  Sc1_0  1  0.00000000  0.00000000  0.35727614  1
  Sc  Sc1_1  1  0.00000000  0.00000000  0.85727615  1
  Sc  Sc1_2  1  0.00000000  0.50000000  0.35727614  1
  Sc  Sc1_3  1  0.00000000  0.50000000  0.85727615  1
  Sc  Sc1_4  1  0.50000000  0.00000000  0.35727614  1
  Sc  Sc1_5  1  0.50000000  0.00000000  0.85727615  1
  Sc  Sc1_6  1  0.50000000  0.50000000  0.35727614  1
  Sc  Sc1_7  1  0.50000000  0.50000000  0.85727615  1
  Sc  Sc2_0  1  0.00000000  0.00000000  0.14272386  1
  Sc  Sc2_1  1  0.00000000  0.00000000  0.64272385  1
  Sc  Sc2_2  1  0.00000000  0.50000000  0.14272386  1
  Sc  Sc2_3  1  0.00000000  0.50000000  0.64272385  1
  Sc  Sc2_4  1  0.50000000  0.00000000  0.14272386  1
  Sc  Sc2_5  1  0.50000000  0.00000000  0.64272385  1
  Sc  Sc2_6  1  0.50000000  0.50000000  0.14272386  1
  Sc  Sc2_7  1  0.50000000  0.50000000  0.64272385  1
  Ru  Ru0_0  1  0.25000000  0.25000000  0.42368012  1
  Ru  Ru0_1  1  0.25000000  0.25000000  0.92368012  1
  Ru  Ru0_2  1  0.25000000  0.75000000  0.42368012  1
  Ru  Ru0_3  1  0.25000000  0.75000000  0.92368012  1
  Ru  Ru0_4  1  0.75000000  0.25000000  0.42368012  1
  Ru  Ru0_5  1  0.75000000  0.25000000  0.92368012  1
  Ru  Ru0_6  1  0.75000000  0.75000000  0.42368012  1
  Ru  Ru0_7  1  0.75000000  0.75000000  0.92368012  1
  Ru  Ru1_0  1  0.25000000  0.25000000  0.07631989  1
  Ru  Ru1_1  1  0.25000000  0.25000000  0.57631988  1
  Ru  Ru1_2  1  0.25000000  0.75000000  0.07631989  1
  Ru  Ru1_3  1  0.25000000  0.75000000  0.57631988  1
  Ru  Ru1_4  1  0.75000000  0.25000000  0.07631989  1
  Ru  Ru1_5  1  0.75000000  0.25000000  0.57631988  1
  Ru  Ru1_6  1  0.75000000  0.75000000  0.07631989  1
  Ru  Ru1_7  1  0.75000000  0.75000000  0.57631988  1
loop_
_geom_bond_atom_site_label_1
_geom_bond_atom_site_label_2
_geom_bond_distance
_geom_bond_site_symmetry_2
Mg0_0 Mg0_2 3.241092 1_545
Mg0_0 Mg0_4 3.241092 1_455
Mg0_0 Mg0_4 3.241092 1_555
Mg0_0 Mg0_2 3.241092 1_555
Mg0_0 Sc1_4 3.264322 1_555
Mg0_0 Sc1_2 3.264322 1_555
Mg0_0 Sc1_6 3.264322 1_555
Mg0_0 Sc2_0 3.264322 1_555
Mg0_0 Sc2_6 3.264322 1_555
Mg0_0 Sc2_2 3.264322 1_555
Mg0_0 Sc1_0 3.264322 1_555
Mg0_0 Sc2_4 3.264322 1_555
Mg0_1 Mg0_5 3.241092 1_455
Mg0_1 Mg0_3 3.241092 1_545
Mg0_1 Mg0_5 3.241092 1_555
Mg0_1 Mg0_3 3.241092 1_555
Mg0_1 Sc2_7 3.264322 1_555
Mg0_1 Sc1_5 3.264322 1_555
Mg0_1 Sc2_1 3.264322 1_555
Mg0_1 Sc1_7 3.264322 1_555
Mg0_1 Sc2_5 3.264322 1_555
Mg0_1 Sc1_1 3.264322 1_555
Mg0_1 Sc2_3 3.264322 1_555
Mg0_1 Sc1_3 3.264322 1_555
Mg0_2 Mg0_6 3.241092 1_455
Mg0_2 Mg0_6 3.241092 1_555
Mg0_2 Sc2_4 3.264322 1_565
Mg0_2 Sc1_0 3.264322 1_565
Mg0_2 Sc1_4 3.264322 1_565
Mg0_2 Sc2_0 3.264322 1_565
Mg0_2 Sc2_6 3.264322 1_555
Mg0_2 Sc2_2 3.264322 1_555
Mg0_2 Sc1_2 3.264322 1_555
Mg0_2 Sc1_6 3.264322 1_555
Mg0_3 Mg0_7 3.241092 1_455
Mg0_3 Mg0_7 3.241092 1_555
Mg0_3 Sc2_1 3.264322 1_565
Mg0_3 Sc2_5 3.264322 1_565
Mg0_3 Sc1_1 3.264322 1_565
Mg0_3 Sc1_5 3.264322 1_565
Mg0_3 Sc2_3 3.264322 1_555
Mg0_3 Sc1_3 3.264322 1_555
Mg0_3 Sc2_7 3.264322 1_555
Mg0_3 Sc1_7 3.264322 1_555
Mg0_4 Mg0_6 3.241092 1_545
Mg0_4 Mg0_6 3.241092 1_555
Mg0_4 Sc2_0 3.264322 1_655
Mg0_4 Sc1_2 3.264322 1_655
Mg0_4 Sc1_0 3.264322 1_655
Mg0_4 Sc2_2 3.264322 1_655
Mg0_4 Sc2_4 3.264322 1_555
Mg0_4 Sc2_6 3.264322 1_555
Mg0_4 Sc1_4 3.264322 1_555
Mg0_4 Sc1_6 3.264322 1_555
Mg0_5 Mg0_7 3.241092 1_545
Mg0_5 Mg0_7 3.241092 1_555
Mg0_5 Sc2_1 3.264322 1_655
Mg0_5 Sc1_3 3.264322 1_655
Mg0_5 Sc2_3 3.264322 1_655
Mg0_5 Sc1_1 3.264322 1_655
Mg0_5 Sc2_7 3.264322 1_555
Mg0_5 Sc1_7 3.264322 1_555
Mg0_5 Sc1_5 3.264322 1_555
Mg0_5 Sc2_5 3.264322 1_555
Mg0_6 Sc2_0 3.264322 1_665
Mg0_6 Sc1_0 3.264322 1_665
Mg0_6 Sc2_2 3.264322 1_655
Mg0_6 Sc1_2 3.264322 1_655
Mg0_6 Sc2_4 3.264322 1_565
Mg0_6 Sc1_4 3.264322 1_565
Mg0_6 Sc1_6 3.264322 1_555
Mg0_6 Sc2_6 3.264322 1_555
Mg0_7 Sc1_1 3.264322 1_665
Mg0_7 Sc2_1 3.264322 1_665
Mg0_7 Sc1_5 3.264322 1_565
Mg0_7 Sc1_3 3.264322 1_655
Mg0_7 Sc2_3 3.264322 1_655
Mg0_7 Sc2_5 3.264322 1_565
Mg0_7 Sc2_7 3.264322 1_555
Mg0_7 Sc1_7 3.264322 1_555
Sc0_0 Sc1_1 3.092639 1_554
Sc0_0 Sc2_0 3.092639 1_555
Sc0_0 Sc0_4 3.241092 1_555
Sc0_0 Sc0_4 3.241092 1_455
Sc0_0 Sc0_2 3.241092 1_555
Sc0_0 Sc0_2 3.241092 1_545
Sc0_1 Sc2_1 3.092639 1_555
Sc0_1 Sc1_0 3.092639 1_555
Sc0_1 Sc0_3 3.241092 1_545
Sc0_1 Sc0_5 3.241092 1_455
Sc0_1 Sc0_3 3.241092 1_555
Sc0_1 Sc0_5 3.241092 1_555
Sc0_2 Sc1_3 3.092639 1_554
Sc0_2 Sc2_2 3.092639 1_555
Sc0_2 Sc0_6 3.241092 1_555
Sc0_2 Sc0_6 3.241092 1_455
Sc0_3 Sc2_3 3.092639 1_555
Sc0_3 Sc1_2 3.092639 1_555
Sc0_3 Sc0_7 3.241092 1_555
Sc0_3 Sc0_7 3.241092 1_455
Sc0_4 Sc1_5 3.092639 1_554
Sc0_4 Sc2_4 3.092639 1_555
Sc0_4 Sc0_6 3.241092 1_555
Sc0_4 Sc0_6 3.241092 1_545
Sc0_5 Sc2_5 3.092639 1_555
Sc0_5 Sc1_4 3.092639 1_555
Sc0_5 Sc0_7 3.241092 1_555
Sc0_5 Sc0_7 3.241092 1_545
Sc0_6 Sc1_7 3.092639 1_554
Sc0_6 Sc2_6 3.092639 1_555
Sc0_7 Sc2_7 3.092639 1_555
Sc0_7 Sc1_6 3.092639 1_555
Sc1_0 Sc1_4 3.241092 1_555
Sc1_0 Sc1_2 3.241092 1_545
Sc1_0 Sc1_4 3.241092 1_455
Sc1_0 Sc1_2 3.241092 1_555
Sc1_1 Sc1_3 3.241092 1_545
Sc1_1 Sc1_5 3.241092 1_555
Sc1_1 Sc1_3 3.241092 1_555
Sc1_1 Sc1_5 3.241092 1_455
Sc1_2 Sc1_6 3.241092 1_555
Sc1_2 Sc1_6 3.241092 1_455
Sc1_3 Sc1_7 3.241092 1_555
Sc1_3 Sc1_7 3.241092 1_455
Sc1_4 Sc1_6 3.241092 1_555
Sc1_4 Sc1_6 3.241092 1_545
Sc1_5 Sc1_7 3.241092 1_545
Sc1_5 Sc1_7 3.241092 1_555
Sc2_0 Sc2_4 3.241092 1_555
Sc2_0 Sc2_4 3.241092 1_455
Sc2_0 Sc2_2 3.241092 1_555
Sc2_0 Sc2_2 3.241092 1_545
Sc2_1 Sc2_3 3.241092 1_545
Sc2_1 Sc2_5 3.241092 1_455
Sc2_1 Sc2_5 3.241092 1_555
Sc2_1 Sc2_3 3.241092 1_555
Sc2_2 Sc2_6 3.241092 1_555
Sc2_2 Sc2_6 3.241092 1_455
Sc2_3 Sc2_7 3.241092 1_555
Sc2_3 Sc2_7 3.241092 1_455
Sc2_4 Sc2_6 3.241092 1_545
Sc2_4 Sc2_6 3.241092 1_555
Sc2_5 Sc2_7 3.241092 1_555
Sc2_5 Sc2_7 3.241092 1_545
Ru0_0 Sc1_0 2.706055 1_555
Ru0_0 Sc1_2 2.706055 1_555
Ru0_0 Sc1_6 2.706055 1_555
Ru0_0 Sc1_4 2.706055 1_555
Ru0_0 Sc0_5 2.826169 1_555
Ru0_0 Sc0_7 2.826169 1_555
Ru0_0 Sc0_1 2.826169 1_555
Ru0_0 Sc0_3 2.826169 1_555
Ru0_1 Sc1_5 2.706055 1_555
Ru0_1 Sc1_3 2.706055 1_555
Ru0_1 Sc1_7 2.706055 1_555
Ru0_1 Sc1_1 2.706055 1_555
Ru0_1 Sc0_4 2.826169 1_556
Ru0_1 Sc0_2 2.826169 1_556
Ru0_1 Sc0_0 2.826169 1_556
Ru0_1 Sc0_6 2.826169 1_556
Ru0_2 Sc1_4 2.706055 1_565
Ru0_2 Sc1_0 2.706055 1_565
Ru0_2 Sc1_6 2.706055 1_555
Ru0_2 Sc1_2 2.706055 1_555
Ru0_2 Sc0_1 2.826169 1_565
Ru0_2 Sc0_5 2.826169 1_565
Ru0_2 Sc0_3 2.826169 1_555
Ru0_2 Sc0_7 2.826169 1_555
Ru0_3 Sc1_1 2.706055 1_565
Ru0_3 Sc1_5 2.706055 1_565
Ru0_3 Sc1_3 2.706055 1_555
Ru0_3 Sc1_7 2.706055 1_555
Ru0_3 Sc0_4 2.826169 1_566
Ru0_3 Sc0_0 2.826169 1_566
Ru0_3 Sc0_2 2.826169 1_556
Ru0_3 Sc0_6 2.826169 1_556
Ru0_4 Sc1_2 2.706055 1_655
Ru0_4 Sc1_0 2.706055 1_655
Ru0_4 Sc1_6 2.706055 1_555
Ru0_4 Sc1_4 2.706055 1_555
Ru0_4 Sc0_3 2.826169 1_655
Ru0_4 Sc0_1 2.826169 1_655
Ru0_4 Sc0_5 2.826169 1_555
Ru0_4 Sc0_7 2.826169 1_555
Ru0_5 Sc1_1 2.706055 1_655
Ru0_5 Sc1_3 2.706055 1_655
Ru0_5 Sc1_5 2.706055 1_555
Ru0_5 Sc1_7 2.706055 1_555
Ru0_5 Sc0_2 2.826169 1_656
Ru0_5 Sc0_0 2.826169 1_656
Ru0_5 Sc0_6 2.826169 1_556
Ru0_5 Sc0_4 2.826169 1_556
Ru0_6 Sc1_0 2.706055 1_665
Ru0_6 Sc1_2 2.706055 1_655
Ru0_6 Sc1_4 2.706055 1_565
Ru0_6 Sc1_6 2.706055 1_555
Ru0_6 Sc0_1 2.826169 1_665
Ru0_6 Sc0_3 2.826169 1_655
Ru0_6 Sc0_5 2.826169 1_565
Ru0_6 Sc0_7 2.826169 1_555
Ru0_7 Sc1_1 2.706055 1_665
Ru0_7 Sc1_5 2.706055 1_565
Ru0_7 Sc1_3 2.706055 1_655
Ru0_7 Sc1_7 2.706055 1_555
Ru0_7 Sc0_0 2.826169 1_666
Ru0_7 Sc0_4 2.826169 1_566
Ru0_7 Sc0_2 2.826169 1_656
Ru0_7 Sc0_6 2.826169 1_556
Ru1_0 Sc2_0 2.706055 1_555
Ru1_0 Sc2_6 2.706055 1_555
Ru1_0 Sc2_4 2.706055 1_555
Ru1_0 Sc2_2 2.706055 1_555
Ru1_0 Sc0_0 2.826169 1_555
Ru1_0 Sc0_2 2.826169 1_555
Ru1_0 Sc0_4 2.826169 1_555
Ru1_0 Sc0_6 2.826169 1_555
Ru1_1 Sc2_3 2.706055 1_555
Ru1_1 Sc2_7 2.706055 1_555
Ru1_1 Sc2_1 2.706055 1_555
Ru1_1 Sc2_5 2.706055 1_555
Ru1_1 Sc0_5 2.826169 1_555
Ru1_1 Sc0_7 2.826169 1_555
Ru1_1 Sc0_1 2.826169 1_555
Ru1_1 Sc0_3 2.826169 1_555
Ru1_2 Sc2_0 2.706055 1_565
Ru1_2 Sc2_4 2.706055 1_565
Ru1_2 Sc2_6 2.706055 1_555
Ru1_2 Sc2_2 2.706055 1_555
Ru1_2 Sc0_0 2.826169 1_565
Ru1_2 Sc0_4 2.826169 1_565
Ru1_2 Sc0_2 2.826169 1_555
Ru1_2 Sc0_6 2.826169 1_555
Ru1_3 Sc2_1 2.706055 1_565
Ru1_3 Sc2_5 2.706055 1_565
Ru1_3 Sc2_3 2.706055 1_555
Ru1_3 Sc2_7 2.706055 1_555
Ru1_3 Sc0_1 2.826169 1_565
Ru1_3 Sc0_5 2.826169 1_565
Ru1_3 Sc0_3 2.826169 1_555
Ru1_3 Sc0_7 2.826169 1_555
Ru1_4 Sc2_0 2.706055 1_655
Ru1_4 Sc2_2 2.706055 1_655
Ru1_4 Sc2_6 2.706055 1_555
Ru1_4 Sc2_4 2.706055 1_555
Ru1_4 Sc0_0 2.826169 1_655
Ru1_4 Sc0_2 2.826169 1_655
Ru1_4 Sc0_4 2.826169 1_555
Ru1_4 Sc0_6 2.826169 1_555
Ru1_5 Sc2_1 2.706055 1_655
Ru1_5 Sc2_3 2.706055 1_655
Ru1_5 Sc2_5 2.706055 1_555
Ru1_5 Sc2_7 2.706055 1_555
Ru1_5 Sc0_3 2.826169 1_655
Ru1_5 Sc0_1 2.826169 1_655
Ru1_5 Sc0_5 2.826169 1_555
Ru1_5 Sc0_7 2.826169 1_555
Ru1_6 Sc2_0 2.706055 1_665
Ru1_6 Sc2_2 2.706055 1_655
Ru1_6 Sc2_4 2.706055 1_565
Ru1_6 Sc2_6 2.706055 1_555
Ru1_6 Sc0_0 2.826169 1_665
Ru1_6 Sc0_4 2.826169 1_565
Ru1_6 Sc0_2 2.826169 1_655
Ru1_6 Sc0_6 2.826169 1_555
Ru1_7 Sc2_1 2.706055 1_665
Ru1_7 Sc2_3 2.706055 1_655
Ru1_7 Sc2_5 2.706055 1_565
Ru1_7 Sc2_7 2.706055 1_555
Ru1_7 Sc0_1 2.826169 1_665
Ru1_7 Sc0_3 2.826169 1_655
Ru1_7 Sc0_5 2.826169 1_565
Ru1_7 Sc0_7 2.826169 1_555
