# generated using pymatgen
data_Ti(NbSe2)3
_symmetry_space_group_name_H-M   'P 1'
_cell_length_a   6.06222963
_cell_length_b   6.06278995
_cell_length_c   13.09848453
_cell_angle_alpha   90.00057316
_cell_angle_beta   90.00092101
_cell_angle_gamma   120.00276589
_symmetry_Int_Tables_number   1
_chemical_formula_structural   Ti(NbSe2)3
_chemical_formula_sum   'Ti2 Nb6 Se12'
_cell_volume   416.91208449
_cell_formula_units_Z   2
loop_
 _symmetry_equiv_pos_site_id
 _symmetry_equiv_pos_as_xyz
  1  'x, y, z'
loop_
 _atom_site_type_symbol
 _atom_site_label
 _atom_site_symmetry_multiplicity
 _atom_site_fract_x
 _atom_site_fract_y
 _atom_site_fract_z
 _atom_site_occupancy
  Ti  Ti0  1  0.33299046  0.66648649  0.24999982  1
  Ti  Ti1  1  0.66701687  0.33351826  0.75000164  1
  Nb  Nb0  1  -0.00000722  -0.00008351  0.50001745  1
  Nb  Nb1  1  0.00000111  0.00007067  -0.00002510  1
  Nb  Nb2  1  0.33244648  0.66578611  -0.00017837  1
  Nb  Nb3  1  0.66758519  0.33342278  0.00009866  1
  Nb  Nb4  1  0.66755039  0.33420698  0.49990246  1
  Nb  Nb5  1  0.33240717  0.66659148  0.50018089  1
  Se  Se0  1  0.33311081  0.33109253  0.37286549  1
  Se  Se1  1  0.66979015  0.00293941  0.37238863  1
  Se  Se2  1  0.99678486  0.66701121  0.37216749  1
  Se  Se3  1  0.33006059  0.33306003  0.62771633  1
  Se  Se4  1  0.00324585  0.67028494  0.62787963  1
  Se  Se5  1  0.66690232  0.99796167  0.62720811  1
  Se  Se6  1  0.66688667  0.66896656  0.87278290  1
  Se  Se7  1  0.33011513  0.99701868  0.87230617  1
  Se  Se8  1  0.00327744  0.33296833  0.87211459  1
  Se  Se9  1  0.66988041  0.66689930  0.12763584  1
  Se  Se10  1  0.99681691  0.32979020  0.12781486  1
  Se  Se11  1  0.33313742  0.00200790  0.12712351  1
loop_
_geom_bond_atom_site_label_1
_geom_bond_atom_site_label_2
_geom_bond_distance
_geom_bond_site_symmetry_2
Nb0 Se0 2.613156 1_555
Nb0 Se5 2.613301 1_445
Nb0 Se1 2.615092 1_455
Nb0 Se4 2.615106 1_545
Nb0 Se3 2.615169 1_555
Nb0 Se2 2.615177 1_445
Nb1 Se11 2.613163 1_555
Nb1 Se6 2.613248 1_444
Nb1 Se8 2.615098 1_554
Nb1 Se9 2.615106 1_445
Nb1 Se7 2.615123 1_544
Nb1 Se10 2.615141 1_455
Nb2 Se8 2.612406 1_554
Nb2 Se6 2.615511 1_554
Nb2 Se7 2.617491 1_554
Nb2 Se11 2.631936 1_565
Nb2 Se10 2.637291 1_455
Nb2 Se9 2.640733 1_555
Nb3 Se10 2.612743 1_555
Nb3 Se11 2.615790 1_555
Nb3 Se9 2.617322 1_555
Nb3 Se6 2.632155 1_554
Nb3 Se8 2.637695 1_654
Nb3 Se7 2.640826 1_544
Nb4 Se2 2.612825 1_555
Nb4 Se0 2.615604 1_555
Nb4 Se1 2.617399 1_555
Nb4 Se5 2.632203 1_545
Nb4 Se4 2.637436 1_655
Nb4 Se3 2.640955 1_555
Nb5 Se4 2.612454 1_555
Nb5 Se5 2.615752 1_555
Nb5 Se3 2.617472 1_555
Nb5 Se0 2.631928 1_555
Nb5 Se2 2.637489 1_455
Nb5 Se1 2.640555 1_565
Se0 Ti0 2.593527 1_555
Se1 Ti0 2.595054 1_545
Se2 Ti0 2.592557 1_655
Se3 Ti1 2.594704 1_555
Se4 Ti1 2.592351 1_455
Se5 Ti1 2.593130 1_565
Se6 Ti1 2.593097 1_555
Se7 Ti1 2.594793 1_565
Se8 Ti1 2.592397 1_455
Se9 Ti0 2.595172 1_555
Se10 Ti0 2.592494 1_655
Se11 Ti0 2.593584 1_545
