# generated using pymatgen
data_TbGe3Rh5
_symmetry_space_group_name_H-M   'P 1'
_cell_length_a   3.93561840
_cell_length_b   22.75742827
_cell_length_c   22.75742827
_cell_angle_alpha   119.99999804
_cell_angle_beta   90.00000000
_cell_angle_gamma   90.00000000
_symmetry_Int_Tables_number   1
_chemical_formula_structural   TbGe3Rh5
_chemical_formula_sum   'Tb12 Ge36 Rh60'
_cell_volume   1765.18402156
_cell_formula_units_Z   12
loop_
 _symmetry_equiv_pos_site_id
 _symmetry_equiv_pos_as_xyz
  1  'x, y, z'
loop_
 _atom_site_type_symbol
 _atom_site_label
 _atom_site_symmetry_multiplicity
 _atom_site_fract_x
 _atom_site_fract_y
 _atom_site_fract_z
 _atom_site_occupancy
  Tb  Tb0  1  0.75000000  0.73457056  0.77018908  1
  Tb  Tb1  1  0.25000000  0.26542944  0.22981092  1
  Tb  Tb2  1  0.75000000  0.03561852  0.26542944  1
  Tb  Tb3  1  0.25000000  0.96438148  0.73457056  1
  Tb  Tb4  1  0.75000000  0.22981092  0.96438148  1
  Tb  Tb5  1  0.25000000  0.77018908  0.03561852  1
  Tb  Tb6  1  0.75000000  0.38415618  0.52462177  1
  Tb  Tb7  1  0.25000000  0.61584382  0.47537823  1
  Tb  Tb8  1  0.75000000  0.14046559  0.61584382  1
  Tb  Tb9  1  0.25000000  0.85953441  0.38415618  1
  Tb  Tb10  1  0.75000000  0.47537823  0.85953441  1
  Tb  Tb11  1  0.25000000  0.52462177  0.14046559  1
  Ge  Ge0  1  0.75000000  0.88894869  0.06286583  1
  Ge  Ge1  1  0.25000000  0.11105131  0.93713417  1
  Ge  Ge2  1  0.75000000  0.17391715  0.11105131  1
  Ge  Ge3  1  0.25000000  0.82608285  0.88894869  1
  Ge  Ge4  1  0.75000000  0.93713417  0.82608285  1
  Ge  Ge5  1  0.25000000  0.06286583  0.17391715  1
  Ge  Ge6  1  0.75000000  0.63839358  0.16502238  1
  Ge  Ge7  1  0.25000000  0.36160642  0.83497762  1
  Ge  Ge8  1  0.75000000  0.52662880  0.36160642  1
  Ge  Ge9  1  0.25000000  0.47337120  0.63839358  1
  Ge  Ge10  1  0.75000000  0.83497762  0.47337120  1
  Ge  Ge11  1  0.25000000  0.16502238  0.52662880  1
  Ge  Ge12  1  0.75000000  0.77907108  0.26692295  1
  Ge  Ge13  1  0.25000000  0.22092892  0.73307705  1
  Ge  Ge14  1  0.75000000  0.48785187  0.22092892  1
  Ge  Ge15  1  0.25000000  0.51214813  0.77907108  1
  Ge  Ge16  1  0.75000000  0.73307705  0.51214813  1
  Ge  Ge17  1  0.25000000  0.26692295  0.48785187  1
  Ge  Ge18  1  0.75000000  0.73940470  0.12402300  1
  Ge  Ge19  1  0.25000000  0.26059530  0.87597700  1
  Ge  Ge20  1  0.75000000  0.38461831  0.26059530  1
  Ge  Ge21  1  0.25000000  0.61538169  0.73940470  1
  Ge  Ge22  1  0.75000000  0.87597700  0.61538169  1
  Ge  Ge23  1  0.25000000  0.12402300  0.38461831  1
  Ge  Ge24  1  0.75000000  0.98437597  0.41488825  1
  Ge  Ge25  1  0.25000000  0.01562403  0.58511175  1
  Ge  Ge26  1  0.75000000  0.43051228  0.01562403  1
  Ge  Ge27  1  0.25000000  0.56948772  0.98437597  1
  Ge  Ge28  1  0.75000000  0.58511175  0.56948772  1
  Ge  Ge29  1  0.25000000  0.41488825  0.43051228  1
  Ge  Ge30  1  0.75000000  0.68317377  0.91773658  1
  Ge  Ge31  1  0.25000000  0.31682623  0.08226342  1
  Ge  Ge32  1  0.75000000  0.23456281  0.31682623  1
  Ge  Ge33  1  0.25000000  0.76543719  0.68317377  1
  Ge  Ge34  1  0.75000000  0.08226342  0.76543719  1
  Ge  Ge35  1  0.25000000  0.91773658  0.23456281  1
  Rh  Rh0  1  0.75000000  0.74460122  0.35361919  1
  Rh  Rh1  1  0.25000000  0.25539878  0.64638081  1
  Rh  Rh2  1  0.75000000  0.60901797  0.25539878  1
  Rh  Rh3  1  0.25000000  0.39098203  0.74460122  1
  Rh  Rh4  1  0.75000000  0.64638081  0.39098203  1
  Rh  Rh5  1  0.25000000  0.35361919  0.60901797  1
  Rh  Rh6  1  0.75000000  0.44680804  0.69652908  1
  Rh  Rh7  1  0.25000000  0.55319196  0.30347092  1
  Rh  Rh8  1  0.75000000  0.24972104  0.55319197  1
  Rh  Rh9  1  0.25000000  0.75027896  0.44680803  1
  Rh  Rh10  1  0.75000000  0.30347092  0.75027896  1
  Rh  Rh11  1  0.25000000  0.69652908  0.24972104  1
  Rh  Rh12  1  0.75000000  0.85983877  0.15447307  1
  Rh  Rh13  1  0.25000000  0.14016123  0.84552693  1
  Rh  Rh14  1  0.75000000  0.29463430  0.14016123  1
  Rh  Rh15  1  0.25000000  0.70536570  0.85983877  1
  Rh  Rh16  1  0.75000000  0.84552693  0.70536570  1
  Rh  Rh17  1  0.25000000  0.15447307  0.29463430  1
  Rh  Rh18  1  0.75000000  0.95777785  0.50622584  1
  Rh  Rh19  1  0.25000000  0.04222215  0.49377416  1
  Rh  Rh20  1  0.75000000  0.54844798  0.04222215  1
  Rh  Rh21  1  0.25000000  0.45155202  0.95777785  1
  Rh  Rh22  1  0.75000000  0.49377416  0.45155202  1
  Rh  Rh23  1  0.25000000  0.50622584  0.54844798  1
  Rh  Rh24  1  0.75000000  0.59157402  0.79839452  1
  Rh  Rh25  1  0.25000000  0.40842598  0.20160548  1
  Rh  Rh26  1  0.75000000  0.20682050  0.40842598  1
  Rh  Rh27  1  0.25000000  0.79317950  0.59157402  1
  Rh  Rh28  1  0.75000000  0.20160548  0.79317950  1
  Rh  Rh29  1  0.25000000  0.79839452  0.20682050  1
  Rh  Rh30  1  0.75000000  0.80218454  0.94343792  1
  Rh  Rh31  1  0.25000000  0.19781546  0.05656208  1
  Rh  Rh32  1  0.75000000  0.14125338  0.19781546  1
  Rh  Rh33  1  0.25000000  0.85874662  0.80218454  1
  Rh  Rh34  1  0.75000000  0.05656208  0.85874662  1
  Rh  Rh35  1  0.25000000  0.94343792  0.14125338  1
  Rh  Rh36  1  0.75000000  0.89955265  0.29434090  1
  Rh  Rh37  1  0.25000000  0.10044735  0.70565910  1
  Rh  Rh38  1  0.75000000  0.39478824  0.10044735  1
  Rh  Rh39  1  0.25000000  0.60521176  0.89955265  1
  Rh  Rh40  1  0.75000000  0.70565910  0.60521176  1
  Rh  Rh41  1  0.25000000  0.29434090  0.39478824  1
  Rh  Rh42  1  0.75000000  0.91092438  0.91766800  1
  Rh  Rh43  1  0.25000000  0.08907562  0.08233200  1
  Rh  Rh44  1  0.75000000  0.00674362  0.08907562  1
  Rh  Rh45  1  0.25000000  0.99325638  0.91092438  1
  Rh  Rh46  1  0.75000000  0.08233200  0.99325638  1
  Rh  Rh47  1  0.25000000  0.91766800  0.00674362  1
  Rh  Rh48  1  0.75000000  0.55168807  0.65743491  1
  Rh  Rh49  1  0.25000000  0.44831193  0.34256509  1
  Rh  Rh50  1  0.75000000  0.10574684  0.44831193  1
  Rh  Rh51  1  0.25000000  0.89425316  0.55168807  1
  Rh  Rh52  1  0.75000000  0.34256509  0.89425316  1
  Rh  Rh53  1  0.25000000  0.65743491  0.10574684  1
  Rh  Rh54  1  0.75000000  0.64832365  0.00438643  1
  Rh  Rh55  1  0.25000000  0.35167635  0.99561357  1
  Rh  Rh56  1  0.75000000  0.35606278  0.35167635  1
  Rh  Rh57  1  0.25000000  0.64393722  0.64832365  1
  Rh  Rh58  1  0.75000000  0.99561357  0.64393722  1
  Rh  Rh59  1  0.25000000  0.00438643  0.35606278  1
loop_
_geom_bond_atom_site_label_1
_geom_bond_atom_site_label_2
_geom_bond_distance
_geom_bond_site_symmetry_2
Ge0 Rh30 2.432915 1_554
Ge0 Rh44 2.437831 1_565
Ge0 Rh12 2.483163 1_555
Ge0 Rh35 2.525898 1_655
Ge0 Rh35 2.525898 1_555
Ge0 Rh47 2.601041 1_655
Ge0 Rh47 2.601041 1_555
Ge0 Tb5 3.144089 1_555
Ge0 Tb5 3.144089 1_655
Ge1 Rh31 2.432915 1_556
Ge1 Rh45 2.437831 1_545
Ge1 Rh13 2.483163 1_555
Ge1 Rh34 2.525898 1_455
Ge1 Rh34 2.525898 1_555
Ge1 Rh46 2.601041 1_455
Ge1 Rh46 2.601041 1_555
Ge1 Tb4 3.144089 1_555
Ge1 Tb4 3.144089 1_455
Ge2 Rh32 2.432915 1_555
Ge2 Rh46 2.437831 1_554
Ge2 Rh14 2.483163 1_555
Ge2 Rh31 2.525897 1_655
Ge2 Rh31 2.525897 1_555
Ge2 Rh43 2.601042 1_555
Ge2 Rh43 2.601042 1_655
Ge2 Tb1 3.144089 1_555
Ge2 Tb1 3.144089 1_655
Ge3 Rh33 2.432915 1_555
Ge3 Rh47 2.437831 1_556
Ge3 Rh15 2.483163 1_555
Ge3 Rh30 2.525897 1_455
Ge3 Rh30 2.525897 1_555
Ge3 Rh42 2.601042 1_455
Ge3 Rh42 2.601042 1_555
Ge3 Tb0 3.144089 1_455
Ge3 Tb0 3.144089 1_555
Ge4 Rh34 2.432915 1_565
Ge4 Rh42 2.437832 1_555
Ge4 Rh16 2.483163 1_555
Ge4 Rh33 2.525898 1_655
Ge4 Rh33 2.525898 1_555
Ge4 Rh45 2.601042 1_655
Ge4 Rh45 2.601042 1_555
Ge4 Tb3 3.144089 1_555
Ge4 Tb3 3.144089 1_655
Ge5 Rh35 2.432915 1_545
Ge5 Rh43 2.437832 1_555
Ge5 Rh17 2.483163 1_555
Ge5 Rh32 2.525898 1_555
Ge5 Rh32 2.525898 1_455
Ge5 Rh44 2.601042 1_555
Ge5 Rh44 2.601042 1_455
Ge5 Tb2 3.144089 1_455
Ge5 Tb2 3.144089 1_555
Ge6 Rh2 2.460086 1_555
Ge6 Rh20 2.505878 1_555
Ge6 Rh53 2.542496 1_555
Ge6 Rh53 2.542496 1_655
Ge6 Rh11 2.605350 1_555
Ge6 Rh11 2.605350 1_655
Ge6 Tb11 3.072679 1_555
Ge6 Tb11 3.072679 1_655
Ge7 Rh3 2.460086 1_555
Ge7 Rh21 2.505878 1_555
Ge7 Rh52 2.542496 1_555
Ge7 Rh52 2.542496 1_455
Ge7 Rh10 2.605350 1_455
Ge7 Rh10 2.605350 1_555
Ge7 Tb10 3.072679 1_455
Ge7 Tb10 3.072679 1_555
Ge8 Rh4 2.460086 1_555
Ge8 Rh22 2.505878 1_555
Ge8 Rh49 2.542496 1_555
Ge8 Rh49 2.542496 1_655
Ge8 Rh7 2.605350 1_555
Ge8 Rh7 2.605350 1_655
Ge8 Tb7 3.072679 1_555
Ge8 Tb7 3.072679 1_655
Ge9 Rh5 2.460086 1_555
Ge9 Rh23 2.505878 1_555
Ge9 Rh48 2.542496 1_555
Ge9 Rh48 2.542496 1_455
Ge9 Rh6 2.605350 1_455
Ge9 Rh6 2.605350 1_555
Ge9 Tb6 3.072679 1_555
Ge9 Tb6 3.072679 1_455
Ge10 Rh0 2.460086 1_555
Ge10 Rh18 2.505878 1_555
Ge10 Rh51 2.542496 1_555
Ge10 Rh51 2.542496 1_655
Ge10 Rh9 2.605350 1_655
Ge10 Rh9 2.605350 1_555
Ge10 Tb9 3.072679 1_555
Ge10 Tb9 3.072679 1_655
Ge11 Rh1 2.460086 1_555
Ge11 Rh19 2.505878 1_555
Ge11 Rh50 2.542496 1_455
Ge11 Rh50 2.542496 1_555
Ge11 Rh8 2.605350 1_555
Ge11 Rh8 2.605350 1_455
Ge11 Tb8 3.072679 1_555
Ge11 Tb8 3.072679 1_455
Ge12 Rh0 2.460836 1_555
Ge12 Rh36 2.489229 1_555
Ge12 Rh29 2.556942 1_555
Ge12 Rh29 2.556942 1_655
Ge12 Rh11 2.611267 1_555
Ge12 Rh11 2.611267 1_655
Ge12 Tb9 3.075359 1_555
Ge12 Tb9 3.075359 1_655
Ge13 Rh1 2.460836 1_555
Ge13 Rh37 2.489229 1_555
Ge13 Rh28 2.556942 1_455
Ge13 Rh28 2.556942 1_555
Ge13 Rh10 2.611267 1_555
Ge13 Rh10 2.611267 1_455
Ge13 Tb8 3.075359 1_455
Ge13 Tb8 3.075359 1_555
Ge14 Rh2 2.460836 1_555
Ge14 Rh38 2.489230 1_555
Ge14 Rh25 2.556942 1_555
Ge14 Rh25 2.556942 1_655
Ge14 Rh7 2.611267 1_555
Ge14 Rh7 2.611267 1_655
Ge14 Tb11 3.075359 1_555
Ge14 Tb11 3.075359 1_655
Ge15 Rh3 2.460836 1_555
Ge15 Rh39 2.489230 1_555
Ge15 Rh24 2.556942 1_555
Ge15 Rh24 2.556942 1_455
Ge15 Rh6 2.611267 1_455
Ge15 Rh6 2.611267 1_555
Ge15 Tb10 3.075359 1_455
Ge15 Tb10 3.075359 1_555
Ge16 Rh4 2.460837 1_555
Ge16 Rh40 2.489230 1_555
Ge16 Rh27 2.556942 1_555
Ge16 Rh27 2.556942 1_655
Ge16 Rh9 2.611267 1_555
Ge16 Rh9 2.611267 1_655
Ge16 Tb7 3.075359 1_555
Ge16 Tb7 3.075359 1_655
Ge17 Rh5 2.460837 1_555
Ge17 Rh41 2.489230 1_555
Ge17 Rh26 2.556942 1_555
Ge17 Rh26 2.556942 1_455
Ge17 Rh8 2.611267 1_455
Ge17 Rh8 2.611267 1_555
Ge17 Tb6 3.075359 1_555
Ge17 Tb6 3.075359 1_455
Ge18 Rh54 2.462859 1_555
Ge18 Rh12 2.468352 1_555
Ge18 Rh29 2.587539 1_555
Ge18 Rh29 2.587539 1_655
Ge18 Rh53 2.597921 1_555
Ge18 Rh53 2.597921 1_655
Ge18 Tb5 3.133705 1_555
Ge18 Tb5 3.133705 1_655
Ge19 Rh55 2.462859 1_555
Ge19 Rh13 2.468352 1_555
Ge19 Rh28 2.587539 1_455
Ge19 Rh28 2.587539 1_555
Ge19 Rh52 2.597921 1_455
Ge19 Rh52 2.597921 1_555
Ge19 Tb4 3.133705 1_455
Ge19 Tb4 3.133705 1_555
Ge20 Rh56 2.462859 1_555
Ge20 Rh14 2.468352 1_555
Ge20 Rh25 2.587539 1_555
Ge20 Rh25 2.587539 1_655
Ge20 Rh49 2.597921 1_655
Ge20 Rh49 2.597921 1_555
Ge20 Tb1 3.133705 1_555
Ge20 Tb1 3.133705 1_655
Ge21 Rh57 2.462859 1_555
Ge21 Rh15 2.468352 1_555
Ge21 Rh24 2.587539 1_555
Ge21 Rh24 2.587539 1_455
Ge21 Rh48 2.597921 1_455
Ge21 Rh48 2.597921 1_555
Ge21 Tb0 3.133705 1_555
Ge21 Tb0 3.133705 1_455
Ge22 Rh58 2.462859 1_555
Ge22 Rh16 2.468352 1_555
Ge22 Rh27 2.587539 1_555
Ge22 Rh27 2.587539 1_655
Ge22 Rh51 2.597921 1_655
Ge22 Rh51 2.597921 1_555
Ge22 Tb3 3.133705 1_655
Ge22 Tb3 3.133705 1_555
Ge23 Rh59 2.462859 1_555
Ge23 Rh17 2.468352 1_555
Ge23 Rh26 2.587539 1_455
Ge23 Rh26 2.587539 1_555
Ge23 Rh50 2.597921 1_555
Ge23 Rh50 2.597921 1_455
Ge23 Tb2 3.133705 1_555
Ge23 Tb2 3.133705 1_455
Ge24 Rh18 2.438278 1_555
Ge24 Rh36 2.440614 1_555
Ge24 Rh50 2.471185 1_565
Ge24 Rh19 2.542605 1_565
Ge24 Rh19 2.542605 1_665
Ge24 Rh59 2.545868 1_565
Ge24 Rh59 2.545868 1_665
Ge24 Tb9 3.232044 1_555
Ge24 Tb9 3.232044 1_655
Ge25 Rh19 2.438278 1_555
Ge25 Rh37 2.440614 1_555
Ge25 Rh51 2.471185 1_545
Ge25 Rh18 2.542605 1_545
Ge25 Rh18 2.542605 1_445
Ge25 Rh58 2.545868 1_445
Ge25 Rh58 2.545868 1_545
Ge25 Tb8 3.232044 1_455
Ge25 Tb8 3.232044 1_555
Ge26 Rh20 2.438278 1_555
Ge26 Rh38 2.440614 1_555
Ge26 Rh52 2.471185 1_554
Ge26 Rh21 2.542605 1_654
Ge26 Rh21 2.542605 1_554
Ge26 Rh55 2.545868 1_654
Ge26 Rh55 2.545868 1_554
Ge26 Tb11 3.232044 1_555
Ge26 Tb11 3.232044 1_655
Ge27 Rh21 2.438278 1_555
Ge27 Rh39 2.440614 1_555
Ge27 Rh53 2.471185 1_556
Ge27 Rh20 2.542605 1_456
Ge27 Rh20 2.542605 1_556
Ge27 Rh54 2.545868 1_556
Ge27 Rh54 2.545868 1_456
Ge27 Tb10 3.232044 1_555
Ge27 Tb10 3.232044 1_455
Ge28 Rh22 2.438278 1_555
Ge28 Rh40 2.440614 1_555
Ge28 Rh48 2.471185 1_555
Ge28 Rh23 2.542605 1_655
Ge28 Rh23 2.542605 1_555
Ge28 Rh57 2.545868 1_555
Ge28 Rh57 2.545868 1_655
Ge28 Tb7 3.232044 1_555
Ge28 Tb7 3.232044 1_655
Ge29 Rh23 2.438278 1_555
Ge29 Rh41 2.440614 1_555
Ge29 Rh49 2.471185 1_555
Ge29 Rh22 2.542605 1_455
Ge29 Rh22 2.542605 1_555
Ge29 Rh56 2.545868 1_555
Ge29 Rh56 2.545868 1_455
Ge29 Tb6 3.232044 1_455
Ge29 Tb6 3.232044 1_555
Ge30 Rh24 2.461733 1_555
Ge30 Rh54 2.466057 1_556
Ge30 Rh30 2.468461 1_555
Ge30 Rh39 2.541093 1_555
Ge30 Rh39 2.541093 1_655
Ge30 Rh15 2.555160 1_555
Ge30 Rh15 2.555160 1_655
Ge30 Tb5 3.110962 1_656
Ge30 Tb5 3.110962 1_556
Ge31 Rh25 2.461733 1_555
Ge31 Rh55 2.466057 1_554
Ge31 Rh31 2.468461 1_555
Ge31 Rh38 2.541093 1_455
Ge31 Rh38 2.541093 1_555
Ge31 Rh14 2.555160 1_555
Ge31 Rh14 2.555160 1_455
Ge31 Tb4 3.110962 1_454
Ge31 Tb4 3.110962 1_554
Ge32 Rh26 2.461733 1_555
Ge32 Rh56 2.466057 1_555
Ge32 Rh32 2.468461 1_555
Ge32 Rh41 2.541093 1_555
Ge32 Rh41 2.541093 1_655
Ge32 Rh17 2.555160 1_555
Ge32 Rh17 2.555160 1_655
Ge32 Tb1 3.110962 1_555
Ge32 Tb1 3.110962 1_655
Ge33 Rh27 2.461733 1_555
Ge33 Rh57 2.466057 1_555
Ge33 Rh33 2.468461 1_555
Ge33 Rh40 2.541093 1_455
Ge33 Rh40 2.541093 1_555
Ge33 Rh16 2.555160 1_455
Ge33 Rh16 2.555160 1_555
Ge33 Tb0 3.110962 1_455
Ge33 Tb0 3.110962 1_555
Ge34 Rh28 2.461733 1_555
Ge34 Rh58 2.466058 1_545
Ge34 Rh34 2.468461 1_555
Ge34 Rh37 2.541093 1_555
Ge34 Rh37 2.541093 1_655
Ge34 Rh13 2.555161 1_655
Ge34 Rh13 2.555161 1_555
Ge34 Tb3 3.110962 1_545
Ge34 Tb3 3.110962 1_645
Ge35 Rh29 2.461733 1_555
Ge35 Rh59 2.466058 1_565
Ge35 Rh35 2.468461 1_555
Ge35 Rh36 2.541093 1_555
Ge35 Rh36 2.541093 1_455
Ge35 Rh12 2.555161 1_455
Ge35 Rh12 2.555161 1_555
Ge35 Tb2 3.110962 1_565
Ge35 Tb2 3.110962 1_465
Rh0 Rh4 2.760414 1_555
Rh0 Rh2 2.760414 1_555
Rh0 Rh11 2.841310 1_655
Rh0 Rh11 2.841310 1_555
Rh0 Rh9 2.848241 1_655
Rh0 Rh9 2.848241 1_555
Rh0 Tb9 3.062485 1_555
Rh0 Tb9 3.062485 1_655
Rh1 Rh5 2.760414 1_555
Rh1 Rh3 2.760414 1_555
Rh1 Rh10 2.841310 1_455
Rh1 Rh10 2.841310 1_555
Rh1 Rh8 2.848241 1_455
Rh1 Rh8 2.848241 1_555
Rh1 Tb8 3.062485 1_455
Rh1 Tb8 3.062485 1_555
Rh2 Rh4 2.760414 1_555
Rh2 Rh7 2.841310 1_655
Rh2 Rh7 2.841310 1_555
Rh2 Tb11 3.062485 1_555
Rh2 Tb11 3.062485 1_655
Rh3 Rh5 2.760414 1_555
Rh3 Rh6 2.841310 1_455
Rh3 Rh6 2.841310 1_555
Rh3 Tb10 3.062485 1_455
Rh3 Tb10 3.062485 1_555
Rh4 Rh9 2.841310 1_555
Rh4 Rh9 2.841310 1_655
Rh4 Rh7 2.848241 1_655
Rh4 Rh7 2.848241 1_555
Rh4 Tb7 3.062485 1_655
Rh4 Tb7 3.062485 1_555
Rh5 Rh8 2.841310 1_555
Rh5 Rh8 2.841310 1_455
Rh5 Rh6 2.848241 1_555
Rh5 Rh6 2.848241 1_455
Rh5 Tb6 3.062485 1_455
Rh5 Tb6 3.062485 1_555
Rh10 Rh3 2.848241 1_655
Rh10 Rh3 2.848241 1_555
Rh11 Rh2 2.848241 1_455
Rh11 Rh2 2.848241 1_555
Rh12 Tb5 3.135662 1_555
Rh12 Tb5 3.135662 1_655
Rh13 Tb4 3.135662 1_555
Rh13 Tb4 3.135662 1_455
Rh14 Tb1 3.135662 1_655
Rh14 Tb1 3.135662 1_555
Rh15 Tb0 3.135662 1_555
Rh15 Tb0 3.135662 1_455
Rh16 Tb3 3.135662 1_555
Rh16 Tb3 3.135662 1_655
Rh17 Tb2 3.135662 1_555
Rh17 Tb2 3.135662 1_455
Rh18 Tb9 3.221370 1_555
Rh18 Tb9 3.221370 1_655
Rh19 Tb8 3.221370 1_455
Rh19 Tb8 3.221370 1_555
Rh20 Tb11 3.221370 1_555
Rh20 Tb11 3.221370 1_655
Rh21 Tb10 3.221370 1_555
Rh21 Tb10 3.221370 1_455
Rh22 Tb7 3.221370 1_655
Rh22 Tb7 3.221370 1_555
Rh23 Tb6 3.221370 1_455
Rh23 Tb6 3.221370 1_555
Rh30 Tb5 3.214135 1_656
Rh30 Tb5 3.214135 1_556
Rh31 Tb4 3.214135 1_554
Rh31 Tb4 3.214135 1_454
Rh32 Tb1 3.214135 1_655
Rh32 Tb1 3.214135 1_555
Rh33 Tb0 3.214135 1_555
Rh33 Tb0 3.214135 1_455
Rh34 Tb3 3.214135 1_645
Rh34 Tb3 3.214135 1_545
Rh35 Tb2 3.214135 1_565
Rh35 Tb2 3.214135 1_465
Rh36 Tb9 3.277335 1_555
Rh36 Tb9 3.277335 1_655
Rh37 Tb8 3.277335 1_555
Rh37 Tb8 3.277335 1_455
Rh38 Tb11 3.277335 1_555
Rh38 Tb11 3.277335 1_655
Rh39 Tb10 3.277335 1_455
Rh39 Tb10 3.277335 1_555
Rh40 Tb7 3.277335 1_555
Rh40 Tb7 3.277335 1_655
Rh41 Tb6 3.277335 1_455
Rh41 Tb6 3.277335 1_555
Rh54 Tb5 3.177688 1_555
Rh54 Tb5 3.177688 1_655
Rh55 Tb4 3.177688 1_555
Rh55 Tb4 3.177688 1_455
Rh56 Tb1 3.177689 1_555
Rh56 Tb1 3.177689 1_655
Rh57 Tb0 3.177689 1_555
Rh57 Tb0 3.177689 1_455
Rh58 Tb3 3.177688 1_655
Rh58 Tb3 3.177688 1_555
Rh59 Tb2 3.177688 1_455
Rh59 Tb2 3.177688 1_555
