# generated using pymatgen
data_ZrGaNi
_symmetry_space_group_name_H-M   'P 1'
_cell_length_a   6.85792977
_cell_length_b   6.85792977
_cell_length_c   3.43323968
_cell_angle_alpha   90.00000000
_cell_angle_beta   90.00000000
_cell_angle_gamma   119.99999261
_symmetry_Int_Tables_number   1
_chemical_formula_structural   ZrGaNi
_chemical_formula_sum   'Zr3 Ga3 Ni3'
_cell_volume   139.83659951
_cell_formula_units_Z   3
loop_
 _symmetry_equiv_pos_site_id
 _symmetry_equiv_pos_as_xyz
  1  'x, y, z'
loop_
 _atom_site_type_symbol
 _atom_site_label
 _atom_site_symmetry_multiplicity
 _atom_site_fract_x
 _atom_site_fract_y
 _atom_site_fract_z
 _atom_site_occupancy
  Zr  Zr0  1  0.40352401  -0.00000000  0.50000000  1
  Zr  Zr1  1  -0.00000000  0.40352401  0.50000000  1
  Zr  Zr2  1  0.59647599  0.59647599  0.50000000  1
  Ga  Ga0  1  0.74102932  0.00000000  -0.00000000  1
  Ga  Ga1  1  0.00000000  0.74102932  -0.00000000  1
  Ga  Ga2  1  0.25897068  0.25897068  0.00000000  1
  Ni  Ni0  1  0.33333300  0.66666700  -0.00000000  1
  Ni  Ni1  1  0.66666700  0.33333300  0.00000000  1
  Ni  Ni2  1  0.00000000  0.00000000  0.50000000  1
loop_
_geom_bond_atom_site_label_1
_geom_bond_atom_site_label_2
_geom_bond_distance
_geom_bond_site_symmetry_2
Ga0 Ni2 2.470014 1_655
Ga0 Ni2 2.470014 1_654
Ga0 Ni1 2.579056 1_555
Ga0 Ni0 2.579061 1_545
Ga0 Zr0 2.881684 1_554
Ga0 Zr0 2.881684 1_555
Ga0 Zr2 2.973943 1_544
Ga0 Zr2 2.973943 1_545
Ga0 Zr1 2.973943 1_655
Ga0 Zr1 2.973943 1_654
Ga1 Ni2 2.470014 1_565
Ga1 Ni2 2.470014 1_564
Ga1 Ni0 2.579056 1_555
Ga1 Ni1 2.579061 1_455
Ga1 Zr1 2.881684 1_555
Ga1 Zr1 2.881684 1_554
Ga1 Zr2 2.973943 1_454
Ga1 Zr2 2.973943 1_455
Ga1 Zr0 2.973943 1_565
Ga1 Zr0 2.973943 1_564
Ga2 Ni2 2.470014 1_555
Ga2 Ni2 2.470014 1_554
Ga2 Ni1 2.579063 1_555
Ga2 Ni0 2.579063 1_555
Ga2 Zr2 2.881684 1_554
Ga2 Zr2 2.881684 1_555
Ga2 Zr0 2.973942 1_554
Ga2 Zr1 2.973942 1_555
Ga2 Zr0 2.973942 1_555
Ga2 Zr1 2.973942 1_554
Ni0 Zr0 2.702552 1_565
Ni0 Zr0 2.702552 1_564
Ni0 Zr1 2.702554 1_554
Ni0 Zr1 2.702554 1_555
Ni0 Zr2 2.702557 1_554
Ni0 Zr2 2.702557 1_555
Ni1 Zr1 2.702552 1_654
Ni1 Zr1 2.702552 1_655
Ni1 Zr0 2.702554 1_554
Ni1 Zr0 2.702554 1_555
Ni1 Zr2 2.702557 1_554
Ni1 Zr2 2.702557 1_555
Ni2 Zr0 2.767339 1_555
Ni2 Zr1 2.767339 1_555
Ni2 Zr2 2.767340 1_445
