# generated using pymatgen
data_Li4MnCo2O7
_symmetry_space_group_name_H-M   'P 1'
_cell_length_a   2.94471100
_cell_length_b   5.10041608
_cell_length_c   17.27360480
_cell_angle_alpha   95.32903195
_cell_angle_beta   88.82123337
_cell_angle_gamma   105.12908574
_symmetry_Int_Tables_number   1
_chemical_formula_structural   Li4MnCo2O7
_chemical_formula_sum   'Li8 Mn2 Co4 O14'
_cell_volume   249.36031123
_cell_formula_units_Z   2
loop_
 _symmetry_equiv_pos_site_id
 _symmetry_equiv_pos_as_xyz
  1  'x, y, z'
loop_
 _atom_site_type_symbol
 _atom_site_label
 _atom_site_symmetry_multiplicity
 _atom_site_fract_x
 _atom_site_fract_y
 _atom_site_fract_z
 _atom_site_occupancy
  Li  Li0  1  0.36847500  0.22512600  0.21482700  1
  Li  Li1  1  0.92430500  0.35316900  0.35641100  1
  Li  Li2  1  0.50000000  0.50000000  0.50000000  1
  Li  Li3  1  0.07569500  0.64683100  0.64358900  1
  Li  Li4  1  0.63152500  0.77487400  0.78517300  1
  Li  Li5  1  0.23416800  0.93452400  0.93701200  1
  Li  Li6  1  0.76583200  0.06547600  0.06298800  1
  Li  Li7  1  0.50000000  0.50000000  0.00000000  1
  Mn  Mn0  1  0.07134500  0.64626900  0.13887300  1
  Mn  Mn1  1  0.92865500  0.35373100  0.86112700  1
  Co  Co0  1  0.62969000  0.78049600  0.28843700  1
  Co  Co1  1  0.20821800  0.92922600  0.42871900  1
  Co  Co2  1  0.79178200  0.07077400  0.57128100  1
  Co  Co3  1  0.37031000  0.21950400  0.71156300  1
  O  O0  1  0.68289800  0.89744200  0.18025400  1
  O  O1  1  0.26243700  0.05364700  0.32539500  1
  O  O2  1  0.87393100  0.19091200  0.46809400  1
  O  O3  1  0.46116400  0.34203000  0.60765500  1
  O  O4  1  0.99518300  0.48118900  0.75120300  1
  O  O5  1  0.53840600  0.60163100  0.88735900  1
  O  O6  1  0.14241400  0.78664700  0.04508300  1
  O  O7  1  0.00481700  0.51881100  0.24879700  1
  O  O8  1  0.53883600  0.65797000  0.39234500  1
  O  O9  1  0.12606900  0.80908800  0.53190600  1
  O  O10  1  0.73756300  0.94635300  0.67460500  1
  O  O11  1  0.31710200  0.10255800  0.81974600  1
  O  O12  1  0.85758600  0.21335300  0.95491700  1
  O  O13  1  0.46159400  0.39836900  0.11264100  1
loop_
_geom_bond_atom_site_label_1
_geom_bond_atom_site_label_2
_geom_bond_distance
_geom_bond_site_symmetry_2
Li0 O13 2.028530 1_555
Li0 O7 2.093565 1_555
Li0 O7 2.125130 1_655
Li0 O0 2.146355 1_545
Li0 O1 2.157172 1_555
Li0 O0 2.308373 1_445
Li1 O1 2.057259 1_655
Li1 O7 2.096291 1_655
Li1 O8 2.115489 1_655
Li1 O2 2.156219 1_555
Li1 O1 2.180877 1_555
Li1 O8 2.191672 1_555
Li2 O3 2.083696 1_555
Li2 O8 2.083696 1_555
Li2 O9 2.133349 1_655
Li2 O2 2.133349 1_455
Li2 O9 2.172843 1_555
Li2 O2 2.172843 1_555
Li3 O10 2.057259 1_455
Li3 O4 2.096291 1_455
Li3 O3 2.115489 1_455
Li3 O9 2.156219 1_555
Li3 O10 2.180877 1_555
Li3 O3 2.191672 1_555
Li4 O5 2.028530 1_555
Li4 O4 2.093565 1_555
Li4 O4 2.125130 1_455
Li4 O11 2.146355 1_565
Li4 O10 2.157172 1_555
Li4 O11 2.308373 1_665
Li5 O12 2.016714 1_565
Li5 O12 2.018726 1_465
Li5 O6 2.064251 1_556
Li5 O5 2.216526 1_555
Li5 O11 2.256127 1_565
Li5 O5 2.408753 1_455
Li6 O6 2.016714 1_545
Li6 O6 2.018726 1_645
Li6 O12 2.064251 1_554
Li6 O13 2.216526 1_555
Li6 O0 2.256127 1_545
Li6 O13 2.408753 1_655
Li7 O5 2.053044 1_554
Li7 O13 2.053044 1_555
Li7 O6 2.100262 1_555
Li7 O12 2.100262 1_554
Li7 O12 2.174398 1_454
Li7 O6 2.174398 1_655
Mn0 O6 1.817809 1_555
Mn0 O13 1.937836 1_555
Mn0 O13 1.941642 1_455
Mn0 O0 2.005425 1_455
Mn0 O0 2.018362 1_555
Mn0 O7 2.052773 1_555
Mn1 O12 1.817809 1_555
Mn1 O5 1.937836 1_555
Mn1 O5 1.941642 1_655
Mn1 O11 2.005425 1_655
Mn1 O11 2.018362 1_555
Mn1 O4 2.052773 1_555
Co0 O8 1.945503 1_555
Co0 O0 2.004650 1_555
Co0 O7 2.009785 1_655
Co0 O1 2.027537 1_565
Co0 O7 2.058213 1_555
Co0 O1 2.085417 1_665
Co1 O2 1.924239 1_465
Co1 O9 1.928402 1_555
Co1 O1 1.938920 1_565
Co1 O8 1.942474 1_555
Co1 O2 2.146489 1_565
Co1 O8 2.158760 1_455
Co2 O9 1.924239 1_645
Co2 O2 1.928402 1_555
Co2 O10 1.938920 1_545
Co2 O3 1.942474 1_555
Co2 O9 2.146489 1_545
Co2 O3 2.158760 1_655
Co3 O3 1.945503 1_555
Co3 O11 2.004650 1_555
Co3 O4 2.009785 1_455
Co3 O10 2.027537 1_545
Co3 O4 2.058213 1_555
Co3 O10 2.085417 1_445
