# generated using pymatgen
data_LiAl2(CuO3)2
_symmetry_space_group_name_H-M   'P 1'
_cell_length_a   3.03719400
_cell_length_b   3.03719336
_cell_length_c   13.31302700
_cell_angle_alpha   90.00000000
_cell_angle_beta   90.00000000
_cell_angle_gamma   119.99998517
_symmetry_Int_Tables_number   1
_chemical_formula_structural   LiAl2(CuO3)2
_chemical_formula_sum   'Li1 Al2 Cu2 O6'
_cell_volume   106.35367089
_cell_formula_units_Z   1
loop_
 _symmetry_equiv_pos_site_id
 _symmetry_equiv_pos_as_xyz
  1  'x, y, z'
loop_
 _atom_site_type_symbol
 _atom_site_label
 _atom_site_symmetry_multiplicity
 _atom_site_fract_x
 _atom_site_fract_y
 _atom_site_fract_z
 _atom_site_occupancy
  Li  Li0  1  0.66666700  0.33333300  0.13944600  1
  Al  Al0  1  0.00000000  0.00000000  0.52554200  1
  Al  Al1  1  0.00000000  0.00000000  0.96200100  1
  Cu  Cu0  1  0.66666500  0.33333200  0.74405100  1
  Cu  Cu1  1  0.33333400  0.66666800  0.30501100  1
  O  O0  1  0.33333400  0.66666800  0.45499700  1
  O  O1  1  0.66666500  0.33333200  0.89656600  1
  O  O2  1  0.66666500  0.33333200  0.59336500  1
  O  O3  1  0.33333400  0.66666800  0.03773400  1
  O  O4  1  0.00000000  0.00000000  0.23685600  1
  O  O5  1  0.00000000  0.00000000  0.74728900  1
loop_
_geom_bond_atom_site_label_1
_geom_bond_atom_site_label_2
_geom_bond_distance
_geom_bond_site_symmetry_2
Li0 O4 2.180961 1_655
Li0 O4 2.180963 1_665
Li0 O4 2.180963 1_555
Li0 O3 2.215492 1_545
Li0 O3 2.215497 1_655
Li0 O3 2.215498 1_555
Al0 O2 1.972338 1_555
Al0 O2 1.972342 1_455
Al0 O2 1.972344 1_445
Al0 O0 1.989190 1_545
Al0 O0 1.989191 1_445
Al0 O0 1.989195 1_555
Al1 O1 1.957988 1_555
Al1 O1 1.957992 1_455
Al1 O1 1.957994 1_445
Al1 O3 2.022716 1_546
Al1 O3 2.022717 1_446
Al1 O3 2.022721 1_556
Cu0 O5 1.754050 1_555
Cu0 O5 1.754055 1_655
Cu0 O5 1.754058 1_665
Cu0 O2 2.006087 1_555
Cu0 O1 2.030436 1_555
Cu1 O4 1.974367 1_565
Cu1 O4 1.974367 1_665
Cu1 O4 1.974372 1_555
Cu1 O0 1.996768 1_555
