# generated using pymatgen
data_K2Nd4MgNb2O12
_symmetry_space_group_name_H-M   'P 1'
_cell_length_a   5.77926521
_cell_length_b   7.22179217
_cell_length_c   9.18951996
_cell_angle_alpha   108.70655783
_cell_angle_beta   89.86600600
_cell_angle_gamma   113.72685180
_symmetry_Int_Tables_number   1
_chemical_formula_structural   K2Nd4MgNb2O12
_chemical_formula_sum   'K2 Nd4 Mg1 Nb2 O12'
_cell_volume   329.00221471
_cell_formula_units_Z   1
loop_
 _symmetry_equiv_pos_site_id
 _symmetry_equiv_pos_as_xyz
  1  'x, y, z'
loop_
 _atom_site_type_symbol
 _atom_site_label
 _atom_site_symmetry_multiplicity
 _atom_site_fract_x
 _atom_site_fract_y
 _atom_site_fract_z
 _atom_site_occupancy
  K  K0  1  0.12512800  0.24765400  0.50322200  1
  K  K1  1  0.87717900  0.75480800  0.50481500  1
  Nd  Nd0  1  0.14166800  0.27149500  0.91288000  1
  Nd  Nd1  1  0.56534800  0.13565200  0.25578000  1
  Nd  Nd2  1  0.41069700  0.82171100  0.79014400  1
  Nd  Nd3  1  0.88312200  0.77145400  0.04148000  1
  Mg  Mg0  1  0.64968700  0.29254000  0.02224000  1
  Nb  Nb0  1  0.65754700  0.31116200  0.71517200  1
  Nb  Nb1  1  0.32961600  0.65769300  0.28616600  1
  O  O0  1  0.02313300  0.55276300  0.81667300  1
  O  O1  1  0.20646300  0.88410400  0.28397600  1
  O  O2  1  0.27397300  0.02759800  0.00613800  1
  O  O3  1  0.78687000  0.09509700  0.70449300  1
  O  O4  1  0.67776700  0.88673700  0.28475300  1
  O  O5  1  0.75085500  0.02775100  0.00668800  1
  O  O6  1  0.30897000  0.09276800  0.70079300  1
  O  O7  1  0.99235100  0.45882400  0.16177500  1
  O  O8  1  0.67246000  0.35560300  0.50971500  1
  O  O9  1  0.32153000  0.64520500  0.48480700  1
  O  O10  1  0.47364500  0.46047400  0.16410400  1
  O  O11  1  0.52824000  0.55446200  0.81561400  1
loop_
_geom_bond_atom_site_label_1
_geom_bond_atom_site_label_2
_geom_bond_distance
_geom_bond_site_symmetry_2
K0 O9 2.692218 1_555
K0 O6 2.818586 1_555
K0 O3 2.830775 1_455
K0 O8 2.933181 1_555
K0 O4 2.958592 1_445
K0 O1 2.961261 1_545
K0 O8 3.010968 1_455
K0 O11 3.221041 1_555
K0 O0 3.235084 1_555
K1 O8 2.655453 1_555
K1 O6 2.779865 1_665
K1 O3 2.795339 1_565
K1 O1 2.894701 1_655
K1 O4 2.907901 1_555
K1 O9 2.965687 1_655
K1 O9 2.972591 1_555
Nd0 O6 2.404423 1_555
Nd0 O3 2.417823 1_455
Nd0 O2 2.544933 1_556
Nd0 O5 2.589930 1_456
Nd0 O7 2.598411 1_456
Nd0 O10 2.601121 1_556
Nd0 O11 2.730271 1_555
Nd0 O0 2.766134 1_555
Nd1 O1 2.221790 1_545
Nd1 O4 2.229820 1_545
Nd1 O8 2.278063 1_555
Nd1 O5 2.552051 1_555
Nd1 O2 2.553371 1_555
Nd2 O11 2.363645 1_555
Nd2 O0 2.376751 1_555
Nd2 O5 2.409046 1_566
Nd2 O2 2.412464 1_566
Nd2 O3 2.603540 1_565
Nd2 O6 2.609808 1_565
Nd2 O9 2.635790 1_555
Nd3 O5 2.373142 1_565
Nd3 O2 2.376753 1_665
Nd3 O11 2.513429 1_554
Nd3 O0 2.518856 1_654
Nd3 O4 2.586166 1_555
Nd3 O1 2.598622 1_655
Mg0 O7 2.029384 1_555
Mg0 O10 2.044034 1_555
Mg0 O5 2.177852 1_555
Mg0 O2 2.207733 1_555
Nb0 O3 1.960344 1_555
Nb0 O6 1.968228 1_555
Nb0 O8 2.010183 1_555
Nb0 O0 2.092117 1_655
Nb0 O11 2.123876 1_555
Nb1 O9 1.855874 1_555
Nb1 O7 1.968007 1_455
Nb1 O10 1.975992 1_555
Nb1 O4 2.029759 1_555
Nb1 O1 2.034258 1_555
