# generated using pymatgen
data_ScZnHg2
_symmetry_space_group_name_H-M   'P 1'
_cell_length_a   11.91306904
_cell_length_b   11.91306904
_cell_length_c   11.91306904
_cell_angle_alpha   124.01499137
_cell_angle_beta   119.13124723
_cell_angle_gamma   87.35075146
_symmetry_Int_Tables_number   1
_chemical_formula_structural   ScZnHg2
_chemical_formula_sum   'Sc1 Zn1 Hg2'
_cell_volume   1162.92994746
_cell_formula_units_Z   1
loop_
 _symmetry_equiv_pos_site_id
 _symmetry_equiv_pos_as_xyz
  1  'x, y, z'
loop_
 _atom_site_type_symbol
 _atom_site_label
 _atom_site_symmetry_multiplicity
 _atom_site_fract_x
 _atom_site_fract_y
 _atom_site_fract_z
 _atom_site_occupancy
  Sc  Sc0  1  0.00000000  0.00000000  0.00000000  1
  Zn  Zn0  1  0.00000000  0.50000000  0.50000000  1
  Hg  Hg0  1  0.00000000  0.25655600  0.25655600  1
  Hg  Hg1  1  0.00000000  0.74344400  0.74344400  1
loop_
_geom_bond_atom_site_label_1
_geom_bond_atom_site_label_2
_geom_bond_distance
_geom_bond_site_symmetry_2
Hg0 Zn0 2.722420 1_555
Hg0 Sc0 2.869051 1_555
Hg1 Zn0 2.722420 1_555
Hg1 Sc0 2.869051 1_566
