# generated using pymatgen
data_Fe4RuN4
_symmetry_space_group_name_H-M   'P 1'
_cell_length_a   4.84303939
_cell_length_b   4.83751917
_cell_length_c   7.95205808
_cell_angle_alpha   74.44203078
_cell_angle_beta   88.48721441
_cell_angle_gamma   71.87364770
_symmetry_Int_Tables_number   1
_chemical_formula_structural   Fe4RuN4
_chemical_formula_sum   'Fe8 Ru2 N8'
_cell_volume   170.23858779
_cell_formula_units_Z   2
loop_
 _symmetry_equiv_pos_site_id
 _symmetry_equiv_pos_as_xyz
  1  'x, y, z'
loop_
 _atom_site_type_symbol
 _atom_site_label
 _atom_site_symmetry_multiplicity
 _atom_site_fract_x
 _atom_site_fract_y
 _atom_site_fract_z
 _atom_site_occupancy
  Fe  Fe0  1  0.72429400  0.58724200  0.22597400  1
  Fe  Fe1  1  0.27570600  0.41275800  0.77402600  1
  Fe  Fe2  1  0.77684800  0.27490100  0.96003000  1
  Fe  Fe3  1  0.22315200  0.72509900  0.03997000  1
  Fe  Fe4  1  0.78893800  0.42757300  0.59214700  1
  Fe  Fe5  1  0.21106200  0.57242700  0.40785300  1
  Fe  Fe6  1  0.28955200  0.93444200  0.57967900  1
  Fe  Fe7  1  0.71044800  0.06555800  0.42032100  1
  Ru  Ru0  1  0.76171000  0.86678000  0.79257300  1
  Ru  Ru1  1  0.23829000  0.13322000  0.20742700  1
  N  N0  1  0.99844000  0.71776800  0.59427200  1
  N  N1  1  0.00156000  0.28223200  0.40572800  1
  N  N2  1  0.81776700  0.85301500  0.03789900  1
  N  N3  1  0.18223300  0.14698500  0.96210100  1
  N  N4  1  0.45988000  0.63807000  0.84978600  1
  N  N5  1  0.54012000  0.36193000  0.15021400  1
  N  N6  1  0.51784300  0.78217900  0.39314500  1
  N  N7  1  0.48215700  0.21782100  0.60685500  1
loop_
_geom_bond_atom_site_label_1
_geom_bond_atom_site_label_2
_geom_bond_distance
_geom_bond_site_symmetry_2
Fe0 N5 1.825396 1_555
Fe0 N2 1.841091 1_555
Fe0 N6 1.916182 1_555
Fe0 N1 1.939225 1_655
Fe1 N4 1.825396 1_555
Fe1 N3 1.841091 1_555
Fe1 N7 1.916182 1_555
Fe1 N0 1.939225 1_455
Fe2 N3 1.864945 1_655
Fe2 N2 1.914370 1_546
Fe2 N5 1.930945 1_556
Fe2 N4 1.943787 1_555
Fe3 N2 1.864945 1_455
Fe3 N3 1.914370 1_564
Fe3 N4 1.930945 1_554
Fe3 N5 1.943787 1_555
Fe4 N1 1.944289 1_655
Fe4 N0 1.974937 1_555
Fe4 N7 2.028774 1_555
Fe4 N6 2.103039 1_555
Fe5 N0 1.944289 1_455
Fe5 N1 1.974937 1_555
Fe5 N6 2.028774 1_555
Fe5 N7 2.103039 1_555
Fe6 N7 1.939395 1_565
Fe6 N0 1.986319 1_455
Fe6 N6 1.989468 1_555
Fe6 N1 2.020577 1_565
Fe6 N4 2.248386 1_555
Fe7 N6 1.939395 1_545
Fe7 N1 1.986319 1_655
Fe7 N7 1.989468 1_555
Fe7 N0 2.020577 1_545
Fe7 N5 2.248386 1_555
N0 Ru0 2.078641 1_555
N1 Ru1 2.078641 1_555
N2 Ru0 1.957287 1_554
N3 Ru1 1.957287 1_556
N4 Ru0 2.066171 1_555
N5 Ru1 2.066171 1_555
N6 Ru1 2.056093 1_565
N7 Ru0 2.056093 1_545
