# generated using pymatgen
data_V2ZnO4
_symmetry_space_group_name_H-M   'P 1'
_cell_length_a   6.08379416
_cell_length_b   10.53350116
_cell_length_c   6.05897381
_cell_angle_alpha   73.10812829
_cell_angle_beta   120.07440378
_cell_angle_gamma   90.01069324
_symmetry_Int_Tables_number   1
_chemical_formula_structural   V2ZnO4
_chemical_formula_sum   'V8 Zn4 O16'
_cell_volume   316.51465713
_cell_formula_units_Z   4
loop_
 _symmetry_equiv_pos_site_id
 _symmetry_equiv_pos_as_xyz
  1  'x, y, z'
loop_
 _atom_site_type_symbol
 _atom_site_label
 _atom_site_symmetry_multiplicity
 _atom_site_fract_x
 _atom_site_fract_y
 _atom_site_fract_z
 _atom_site_occupancy
  V  V0  1  0.62955800  0.12406700  0.25880500  1
  V  V1  1  0.12832600  0.62440900  0.25628600  1
  V  V2  1  0.55892500  0.81338500  0.62476400  1
  V  V3  1  0.81247100  0.55902000  0.62488100  1
  V  V4  1  0.06570700  0.81364100  0.62460700  1
  V  V5  1  0.06245500  0.31364200  0.62920300  1
  V  V6  1  0.31452400  0.05911300  0.62914300  1
  V  V7  1  0.56671300  0.31328700  0.62904800  1
  Zn  Zn0  1  0.99562200  0.00134700  0.99125200  1
  Zn  Zn1  1  0.49568000  0.50173700  0.99146000  1
  Zn  Zn2  1  0.06170000  0.31364400  0.12312800  1
  Zn  Zn3  1  0.56119100  0.81191300  0.12263800  1
  O  O0  1  0.42925500  0.19003500  0.85861800  1
  O  O1  1  0.92563800  0.68952500  0.85112800  1
  O  O2  1  0.70045900  0.43630000  0.40082700  1
  O  O3  1  0.19958000  0.93105300  0.39988200  1
  O  O4  1  0.96126100  0.18831200  0.39530400  1
  O  O5  1  0.45596500  0.68889500  0.39212100  1
  O  O6  1  0.19915100  0.42650600  0.39827900  1
  O  O7  1  0.69511900  0.92707800  0.38992700  1
  O  O8  1  0.43434400  0.18818800  0.39559400  1
  O  O9  1  0.93566400  0.68830500  0.39264200  1
  O  O10  1  0.69501400  0.43469100  0.85692500  1
  O  O11  1  0.19069300  0.93634400  0.85071000  1
  O  O12  1  0.92426300  0.20280500  0.84880800  1
  O  O13  1  0.42751400  0.70252700  0.85556100  1
  O  O14  1  0.16309100  0.43404500  0.85830100  1
  O  O15  1  0.66012100  0.93618700  0.85016300  1
loop_
_geom_bond_atom_site_label_1
_geom_bond_atom_site_label_2
_geom_bond_distance
_geom_bond_site_symmetry_2
O0 V0 1.976584 1_556
O0 V7 2.106089 1_555
O0 V5 2.108941 1_555
O0 V6 2.112688 1_555
O1 V1 2.001297 1_656
O1 V3 2.095649 1_555
O1 V4 2.109059 1_655
O1 V2 2.110711 1_555
O2 V3 2.017568 1_555
O2 Zn1 2.022142 1_554
O2 V7 2.083075 1_555
O2 V5 2.083757 1_655
O3 Zn0 2.018371 1_464
O3 V4 2.044344 1_555
O3 V2 2.050923 1_555
O3 V6 2.086420 1_565
O4 V0 1.966300 1_555
O4 V6 2.075371 1_655
O4 V5 2.083933 1_655
O4 Zn2 2.140158 1_655
O5 V1 1.947339 1_555
O5 V2 2.070689 1_555
O5 V3 2.092572 1_555
O5 Zn3 2.138389 1_555
O6 V1 1.964179 1_555
O6 V5 2.064416 1_555
O6 V7 2.067854 1_555
O6 Zn2 2.155480 1_555
O7 V0 1.954620 1_565
O7 V4 2.081670 1_655
O7 V2 2.082377 1_555
O7 Zn3 2.139404 1_555
O8 V0 1.966148 1_555
O8 V6 2.073102 1_555
O8 V7 2.080107 1_555
O8 Zn2 2.143276 1_555
O9 V1 1.950233 1_655
O9 V4 2.075512 1_655
O9 V3 2.083100 1_555
O9 Zn3 2.142361 1_555
O10 Zn1 1.989848 1_555
O10 V7 2.023987 1_555
O10 V3 2.034450 1_555
O10 Zn2 2.098473 1_656
O11 Zn0 1.988559 1_465
O11 V6 2.011592 1_565
O11 V4 2.027332 1_555
O11 Zn3 2.130076 1_556
O12 Zn0 1.999242 1_555
O12 V7 2.014093 1_555
O12 V5 2.014543 1_655
O12 Zn2 2.135248 1_656
O13 Zn1 1.992317 1_555
O13 V2 2.032102 1_555
O13 V4 2.033523 1_555
O13 Zn3 2.090888 1_556
O14 Zn1 1.987743 1_555
O14 V5 2.020191 1_555
O14 V3 2.044209 1_455
O14 Zn2 2.091104 1_556
O15 Zn0 1.989901 1_565
O15 V6 2.015442 1_565
O15 V2 2.025091 1_555
O15 Zn3 2.130973 1_556
