# generated using pymatgen
data_Er2Co3Ge5
_symmetry_space_group_name_H-M   'P 1'
_cell_length_a   7.98887451
_cell_length_b   7.98887451
_cell_length_c   5.68388218
_cell_angle_alpha   70.46645764
_cell_angle_beta   70.46645764
_cell_angle_gamma   93.97584587
_symmetry_Int_Tables_number   1
_chemical_formula_structural   Er2Co3Ge5
_chemical_formula_sum   'Er4 Co6 Ge10'
_cell_volume   315.43172347
_cell_formula_units_Z   2
loop_
 _symmetry_equiv_pos_site_id
 _symmetry_equiv_pos_as_xyz
  1  'x, y, z'
loop_
 _atom_site_type_symbol
 _atom_site_label
 _atom_site_symmetry_multiplicity
 _atom_site_fract_x
 _atom_site_fract_y
 _atom_site_fract_z
 _atom_site_occupancy
  Er  Er0  1  0.40515913  0.12725805  0.73288220  1
  Er  Er1  1  0.12725805  0.40515913  0.23288220  1
  Er  Er2  1  0.59484087  0.87274195  0.26711780  1
  Er  Er3  1  0.87274195  0.59484087  0.76711780  1
  Co  Co0  1  0.00415143  0.99584857  0.75000000  1
  Co  Co1  1  0.99584857  0.00415143  0.25000000  1
  Co  Co2  1  0.73797137  0.45754514  0.37950500  1
  Co  Co3  1  0.45754514  0.73797137  0.87950500  1
  Co  Co4  1  0.26202863  0.54245486  0.62049500  1
  Co  Co5  1  0.54245486  0.26202863  0.12049500  1
  Ge  Ge0  1  0.26199438  0.07657851  0.32601524  1
  Ge  Ge1  1  0.92342149  0.73800562  0.17398476  1
  Ge  Ge2  1  0.73800562  0.92342149  0.67398476  1
  Ge  Ge3  1  0.07657851  0.26199438  0.82601524  1
  Ge  Ge4  1  0.21545674  0.78454326  0.75000000  1
  Ge  Ge5  1  0.78454326  0.21545674  0.25000000  1
  Ge  Ge6  1  0.50959360  0.49040640  0.75000000  1
  Ge  Ge7  1  0.49040640  0.50959360  0.25000000  1
  Ge  Ge8  1  0.77070756  0.22929244  0.75000000  1
  Ge  Ge9  1  0.22929244  0.77070756  0.25000000  1
loop_
_geom_bond_atom_site_label_1
_geom_bond_atom_site_label_2
_geom_bond_distance
_geom_bond_site_symmetry_2
Er0 Ge3 2.858853 1_555
Er0 Ge4 2.991693 1_545
Er0 Ge6 3.004927 1_555
Er0 Ge8 3.019127 1_555
Er0 Ge0 3.025014 1_555
Er0 Ge0 3.046677 1_556
Er0 Ge9 3.132338 1_546
Er0 Ge5 3.172293 1_555
Er0 Ge7 3.190914 1_555
Er0 Ge2 3.194405 1_545
Er1 Ge0 2.858853 1_555
Er1 Ge5 2.991693 1_455
Er1 Ge7 3.004927 1_555
Er1 Ge9 3.019127 1_555
Er1 Ge3 3.025014 1_554
Er1 Ge3 3.046677 1_555
Er1 Ge8 3.132338 1_455
Er1 Ge4 3.172293 1_554
Er1 Ge6 3.190914 1_554
Er1 Ge1 3.194405 1_455
Er2 Ge1 2.858853 1_555
Er2 Ge5 2.991693 1_565
Er2 Ge7 3.004927 1_555
Er2 Ge9 3.019127 1_555
Er2 Ge2 3.025014 1_555
Er2 Ge2 3.046677 1_554
Er2 Ge8 3.132338 1_564
Er2 Ge4 3.172293 1_555
Er2 Ge6 3.190914 1_555
Er2 Ge0 3.194405 1_565
Er3 Ge2 2.858853 1_555
Er3 Ge4 2.991693 1_655
Er3 Ge6 3.004927 1_555
Er3 Ge8 3.019127 1_555
Er3 Ge1 3.025014 1_556
Er3 Ge1 3.046677 1_555
Er3 Ge9 3.132338 1_655
Er3 Ge5 3.172293 1_556
Er3 Ge7 3.190914 1_556
Er3 Ge3 3.194405 1_655
Co0 Ge3 2.377627 1_565
Co0 Ge2 2.377627 1_455
Co0 Ge1 2.433812 1_456
Co0 Ge0 2.433812 1_565
Co0 Ge4 2.468699 1_555
Co0 Ge8 2.727345 1_465
Co0 Er0 3.260600 1_565
Co0 Er3 3.260600 1_455
Co0 Er1 3.390085 1_565
Co0 Er2 3.390085 1_456
Co1 Ge0 2.377627 1_655
Co1 Ge1 2.377627 1_545
Co1 Ge3 2.433812 1_654
Co1 Ge2 2.433812 1_545
Co1 Ge5 2.468699 1_555
Co1 Ge9 2.727345 1_645
Co1 Er1 3.260600 1_655
Co1 Er2 3.260600 1_545
Co1 Er0 3.390085 1_654
Co1 Er3 3.390085 1_545
Co2 Ge1 2.282930 1_555
Co2 Ge5 2.299848 1_555
Co2 Ge7 2.347163 1_555
Co2 Ge8 2.386345 1_555
Co2 Ge6 2.387279 1_555
Co2 Er1 3.036788 1_655
Co2 Er3 3.042190 1_554
Co2 Er0 3.158749 1_555
Co2 Er3 3.202270 1_555
Co3 Ge2 2.282930 1_555
Co3 Ge4 2.299848 1_555
Co3 Ge6 2.347163 1_555
Co3 Ge9 2.386345 1_556
Co3 Ge7 2.387279 1_556
Co3 Er0 3.036788 1_565
Co3 Er2 3.042190 1_555
Co3 Er1 3.158749 1_556
Co3 Er2 3.202270 1_556
Co4 Ge3 2.282930 1_555
Co4 Ge4 2.299848 1_555
Co4 Ge6 2.347163 1_555
Co4 Ge9 2.386345 1_555
Co4 Ge7 2.387279 1_555
Co4 Er3 3.036788 1_455
Co4 Er1 3.042190 1_556
Co4 Er2 3.158749 1_555
Co4 Er1 3.202270 1_555
Co5 Ge0 2.282930 1_555
Co5 Ge5 2.299848 1_555
Co5 Ge7 2.347163 1_555
Co5 Ge8 2.386345 1_554
Co5 Ge6 2.387279 1_554
Co5 Er2 3.036788 1_545
Co5 Er0 3.042190 1_555
Co5 Er3 3.158749 1_554
Co5 Er0 3.202270 1_554
Ge0 Ge4 2.628615 1_545
Ge0 Ge9 2.630381 1_545
Ge1 Ge4 2.628615 1_654
Ge1 Ge9 2.630381 1_655
Ge2 Ge5 2.628615 1_565
Ge2 Ge8 2.630381 1_565
Ge3 Ge5 2.628615 1_456
Ge3 Ge8 2.630381 1_455
Ge4 Ge9 2.846534 1_556
Ge4 Ge9 2.846534 1_555
Ge5 Ge8 2.846534 1_554
Ge5 Ge8 2.846534 1_555
