# generated using pymatgen
data_Hf6FeSb2
_symmetry_space_group_name_H-M   'P 1'
_cell_length_a   7.70421604
_cell_length_b   7.70421604
_cell_length_c   3.58664776
_cell_angle_alpha   90.00000000
_cell_angle_beta   90.00000000
_cell_angle_gamma   120.00000875
_symmetry_Int_Tables_number   1
_chemical_formula_structural   Hf6FeSb2
_chemical_formula_sum   'Hf6 Fe1 Sb2'
_cell_volume   184.36404407
_cell_formula_units_Z   1
loop_
 _symmetry_equiv_pos_site_id
 _symmetry_equiv_pos_as_xyz
  1  'x, y, z'
loop_
 _atom_site_type_symbol
 _atom_site_label
 _atom_site_symmetry_multiplicity
 _atom_site_fract_x
 _atom_site_fract_y
 _atom_site_fract_z
 _atom_site_occupancy
  Hf  Hf0  1  0.24004008  -0.00000000  0.50000000  1
  Hf  Hf1  1  -0.00000000  0.24004008  0.50000000  1
  Hf  Hf2  1  0.75995992  0.75995992  0.50000000  1
  Hf  Hf3  1  0.60397755  0.00000000  -0.00000000  1
  Hf  Hf4  1  0.00000000  0.60397755  0.00000000  1
  Hf  Hf5  1  0.39602245  0.39602245  -0.00000000  1
  Fe  Fe0  1  -0.00000000  -0.00000000  -0.00000000  1
  Sb  Sb0  1  0.33333300  0.66666700  0.50000000  1
  Sb  Sb1  1  0.66666700  0.33333300  0.50000000  1
loop_
_geom_bond_atom_site_label_1
_geom_bond_atom_site_label_2
_geom_bond_distance
_geom_bond_site_symmetry_2
Hf0 Sb0 2.992888 1_545
Hf0 Sb1 2.992893 1_555
Hf1 Sb1 2.992888 1_455
Hf1 Sb0 2.992893 1_555
Hf2 Sb0 2.992895 1_555
Hf2 Sb1 2.992895 1_555
Hf3 Sb1 2.967144 1_554
Hf3 Sb1 2.967144 1_555
Hf3 Sb0 2.967146 1_544
Hf3 Sb0 2.967146 1_545
Hf4 Sb0 2.967144 1_554
Hf4 Sb0 2.967144 1_555
Hf4 Sb1 2.967146 1_454
Hf4 Sb1 2.967146 1_455
Hf5 Sb0 2.967150 1_554
Hf5 Sb1 2.967150 1_555
Hf5 Sb1 2.967150 1_554
Hf5 Sb0 2.967150 1_555
Fe0 Hf2 2.576043 1_445
Fe0 Hf2 2.576043 1_444
Fe0 Hf1 2.576043 1_555
Fe0 Hf0 2.576043 1_555
Fe0 Hf0 2.576043 1_554
Fe0 Hf1 2.576043 1_554
Fe0 Hf5 3.051042 1_555
Fe0 Hf3 3.051043 1_455
Fe0 Hf4 3.051043 1_545
