# generated using pymatgen
data_Hf6NiBi2
_symmetry_space_group_name_H-M   'P 1'
_cell_length_a   3.66123703
_cell_length_b   7.76887739
_cell_length_c   7.76887934
_cell_angle_alpha   119.99951236
_cell_angle_beta   89.99998892
_cell_angle_gamma   90.00002148
_symmetry_Int_Tables_number   1
_chemical_formula_structural   Hf6NiBi2
_chemical_formula_sum   'Hf6 Ni1 Bi2'
_cell_volume   191.37149781
_cell_formula_units_Z   1
loop_
 _symmetry_equiv_pos_site_id
 _symmetry_equiv_pos_as_xyz
  1  'x, y, z'
loop_
 _atom_site_type_symbol
 _atom_site_label
 _atom_site_symmetry_multiplicity
 _atom_site_fract_x
 _atom_site_fract_y
 _atom_site_fract_z
 _atom_site_occupancy
  Hf  Hf0  1  0.49999976  0.76584219  0.76584226  1
  Hf  Hf1  1  0.49999977  -0.00000079  0.23415783  1
  Hf  Hf2  1  0.49999991  0.23415753  -0.00000071  1
  Hf  Hf3  1  -0.00000042  0.38918868  0.38918863  1
  Hf  Hf4  1  0.00000015  -0.00000012  0.61081279  1
  Hf  Hf5  1  -0.00000026  0.61081212  -0.00000034  1
  Ni  Ni0  1  0.00000118  -0.00000075  -0.00000172  1
  Bi  Bi0  1  0.49999990  0.66666799  0.33333329  1
  Bi  Bi1  1  0.50000000  0.33333316  0.66666797  1
loop_
_geom_bond_atom_site_label_1
_geom_bond_atom_site_label_2
_geom_bond_distance
_geom_bond_site_symmetry_2
Hf0 Ni0 2.580783 1_566
Hf0 Ni0 2.580790 1_666
Hf1 Ni0 2.580791 1_555
Hf1 Ni0 2.580797 1_655
Hf2 Ni0 2.580780 1_555
Hf2 Ni0 2.580788 1_655
Hf3 Ni0 3.023591 1_555
Hf4 Ni0 3.023538 1_556
Hf5 Ni0 3.023552 1_565
Bi0 Hf5 3.020252 1_655
Bi0 Hf5 3.020253 1_555
Bi0 Hf3 3.020254 1_655
Bi0 Hf3 3.020254 1_555
Bi0 Hf4 3.020259 1_565
Bi0 Hf4 3.020260 1_665
Bi0 Hf1 3.048760 1_565
Bi0 Hf0 3.048792 1_555
Bi0 Hf2 3.048812 1_555
Bi1 Hf4 3.020250 1_555
Bi1 Hf4 3.020252 1_655
Bi1 Hf3 3.020254 1_655
Bi1 Hf3 3.020257 1_555
Bi1 Hf5 3.020257 1_656
Bi1 Hf5 3.020259 1_556
Bi1 Hf2 3.048762 1_556
Bi1 Hf0 3.048791 1_555
Bi1 Hf1 3.048811 1_555
