# generated using pymatgen
data_TiNb2O7
_symmetry_space_group_name_H-M   'P 1'
_cell_length_a   10.42368618
_cell_length_b   10.42368618
_cell_length_c   12.07394500
_cell_angle_alpha   60.32614591
_cell_angle_beta   60.32614591
_cell_angle_gamma   21.19339394
_symmetry_Int_Tables_number   1
_chemical_formula_structural   TiNb2O7
_chemical_formula_sum   'Ti3 Nb6 O21'
_cell_volume   409.72041621
_cell_formula_units_Z   3
loop_
 _symmetry_equiv_pos_site_id
 _symmetry_equiv_pos_as_xyz
  1  'x, y, z'
loop_
 _atom_site_type_symbol
 _atom_site_label
 _atom_site_symmetry_multiplicity
 _atom_site_fract_x
 _atom_site_fract_y
 _atom_site_fract_z
 _atom_site_occupancy
  Ti  Ti0  1  0.70687260  0.70687260  0.36293667  1
  Ti  Ti1  1  0.29517842  0.29517842  0.62998821  1
  Ti  Ti2  1  0.80902495  0.80902495  0.01468818  1
  Nb  Nb0  1  0.91850764  0.91850764  0.64564857  1
  Nb  Nb1  1  0.07952662  0.07952662  0.36058811  1
  Nb  Nb2  1  0.88656011  0.88656011  0.37039334  1
  Nb  Nb3  1  0.11381966  0.11381966  0.62773010  1
  Nb  Nb4  1  0.99495250  0.99495250  0.99959258  1
  Nb  Nb5  1  0.18945823  0.18945823  0.98590272  1
  O  O0  1  0.62817266  0.62817266  0.57696607  1
  O  O1  1  0.37223580  0.37223580  0.42348701  1
  O  O2  1  0.94966217  0.94966217  0.19721732  1
  O  O3  1  0.05025826  0.05025826  0.80116783  1
  O  O4  1  0.59774917  0.59774917  0.37898513  1
  O  O5  1  0.40249269  0.40249269  0.62202371  1
  O  O6  1  0.87308207  0.87308207  0.81734479  1
  O  O7  1  0.12532712  0.12532712  0.18746857  1
  O  O8  1  0.89840617  0.89840617  0.01510359  1
  O  O9  1  0.10054678  0.10054678  0.98519404  1
  O  O10  1  0.82638222  0.82638222  0.59825424  1
  O  O11  1  0.17389014  0.17389014  0.40164726  1
  O  O12  1  0.71040977  0.71040977  0.99769525  1
  O  O13  1  0.29052158  0.29052158  0.00598152  1
  O  O14  1  0.78996514  0.78996514  0.38394143  1
  O  O15  1  0.21118252  0.21118252  0.61481984  1
  O  O16  1  0.75035322  0.75035322  0.19600901  1
  O  O17  1  0.25192107  0.25192107  0.80004159  1
  O  O18  1  0.97482151  0.97482151  0.41667143  1
  O  O19  1  0.02469106  0.02469106  0.58430185  1
  O  O20  1  0.50403014  0.50403014  0.99820903  1
loop_
_geom_bond_atom_site_label_1
_geom_bond_atom_site_label_2
_geom_bond_distance
_geom_bond_site_symmetry_2
Nb0 O6 1.794499 1_555
Nb0 O19 1.913034 1_665
Nb0 O5 1.989400 1_565
Nb0 O5 1.989400 1_655
Nb0 O10 2.231476 1_555
Nb0 O18 2.400280 1_555
Nb1 O7 1.809378 1_555
Nb1 O18 1.897006 1_445
Nb1 O4 1.986626 1_545
Nb1 O4 1.986626 1_455
Nb1 O11 2.224973 1_555
Nb1 O19 2.345483 1_555
Nb2 O2 1.822230 1_555
Nb2 O14 1.902278 1_555
Nb2 O1 1.995474 1_565
Nb2 O1 1.995474 1_655
Nb2 O18 2.145078 1_555
Nb2 O10 2.381650 1_555
Nb3 O3 1.825981 1_555
Nb3 O15 1.921361 1_555
Nb3 O0 1.988704 1_545
Nb3 O0 1.988704 1_455
Nb3 O19 2.139015 1_555
Nb3 O11 2.362601 1_555
Nb4 O8 1.891023 1_556
Nb4 O20 1.925125 1_655
Nb4 O20 1.925125 1_565
Nb4 O3 2.071020 1_665
Nb4 O2 2.079466 1_556
Nb4 O9 2.081688 1_665
Nb5 O9 1.826284 1_555
Nb5 O17 1.944448 1_555
Nb5 O12 1.985077 1_455
Nb5 O12 1.985077 1_545
Nb5 O7 2.104345 1_556
Nb5 O13 2.203052 1_556
O0 Ti0 2.254073 1_555
O1 Ti1 2.178093 1_555
O4 Ti0 2.145090 1_555
O5 Ti1 2.152238 1_555
O6 Ti2 2.061519 1_556
O8 Ti2 1.834117 1_555
O10 Ti1 1.995805 1_565
O10 Ti1 1.995805 1_655
O11 Ti0 2.007836 1_545
O11 Ti0 2.007836 1_455
O12 Ti2 2.131524 1_556
O13 Ti2 1.967060 1_545
O13 Ti2 1.967060 1_455
O14 Ti0 1.843516 1_555
O15 Ti1 1.820359 1_555
O16 Ti0 1.745600 1_555
O16 Ti2 1.893939 1_555
O17 Ti1 1.779924 1_555
