# generated using pymatgen
data_LiNd(MoO4)2
_symmetry_space_group_name_H-M   'P 1'
_cell_length_a   6.85032982
_cell_length_b   6.85032982
_cell_length_c   6.85032982
_cell_angle_alpha   134.41067999
_cell_angle_beta   134.41067999
_cell_angle_gamma   66.44726174
_symmetry_Int_Tables_number   1
_chemical_formula_structural   LiNd(MoO4)2
_chemical_formula_sum   'Li1 Nd1 Mo2 O8'
_cell_volume   161.46041645
_cell_formula_units_Z   1
loop_
 _symmetry_equiv_pos_site_id
 _symmetry_equiv_pos_as_xyz
  1  'x, y, z'
loop_
 _atom_site_type_symbol
 _atom_site_label
 _atom_site_symmetry_multiplicity
 _atom_site_fract_x
 _atom_site_fract_y
 _atom_site_fract_z
 _atom_site_occupancy
  Li  Li0  1  0.75000000  0.25000000  0.50000000  1
  Nd  Nd0  1  0.50000000  0.50000000  0.00000000  1
  Mo  Mo0  1  0.25000000  0.75000000  0.50000000  1
  Mo  Mo1  1  0.00000000  0.00000000  0.00000000  1
  O  O0  1  0.48517200  0.59437800  0.40600700  1
  O  O1  1  0.18837100  0.07916400  0.59399300  1
  O  O2  1  0.33005500  0.23508800  0.39735600  1
  O  O3  1  0.83773200  0.93269900  0.60264400  1
  O  O4  1  0.76491200  0.16226800  0.09496800  1
  O  O5  1  0.06730100  0.66994500  0.90503200  1
  O  O6  1  0.92083600  0.51482800  0.10920700  1
  O  O7  1  0.40562200  0.81162900  0.89079300  1
loop_
_geom_bond_atom_site_label_1
_geom_bond_atom_site_label_2
_geom_bond_distance
_geom_bond_site_symmetry_2
Li0 O4 2.466542 1_555
Li0 O2 2.466548 1_555
Li0 O3 2.466548 1_545
Li0 O5 2.466550 1_655
Li0 O0 2.518307 1_555
Li0 O1 2.518308 1_655
Li0 O7 2.518308 1_544
Li0 O6 2.518309 1_556
Nd0 O0 2.447462 1_555
Nd0 O6 2.447465 1_555
Nd0 O7 2.447467 1_554
Nd0 O1 2.447467 1_554
Nd0 O5 2.483527 1_554
Nd0 O3 2.483528 1_555
Nd0 O2 2.483528 1_554
Nd0 O4 2.483531 1_555
Mo0 O1 1.806912 1_565
Mo0 O7 1.806912 1_555
Mo0 O6 1.806915 1_455
Mo0 O0 1.806919 1_555
Mo1 O5 1.809939 1_544
Mo1 O3 1.809941 1_444
Mo1 O2 1.809941 1_555
Mo1 O4 1.809945 1_455
