# generated using pymatgen
data_Ni7(Mo3P2)3
_symmetry_space_group_name_H-M   'P 1'
_cell_length_a   7.01816000
_cell_length_b   7.04971945
_cell_length_c   7.06856845
_cell_angle_alpha   68.92972784
_cell_angle_beta   72.79776494
_cell_angle_gamma   60.44626374
_symmetry_Int_Tables_number   1
_chemical_formula_structural   Ni7(Mo3P2)3
_chemical_formula_sum   'Ni7 Mo9 P6'
_cell_volume   280.84600344
_cell_formula_units_Z   1
loop_
 _symmetry_equiv_pos_site_id
 _symmetry_equiv_pos_as_xyz
  1  'x, y, z'
loop_
 _atom_site_type_symbol
 _atom_site_label
 _atom_site_symmetry_multiplicity
 _atom_site_fract_x
 _atom_site_fract_y
 _atom_site_fract_z
 _atom_site_occupancy
  Ni  Ni0  1  0.64427100  0.61993300  0.16900500  1
  Ni  Ni1  1  0.35572900  0.38006700  0.83099500  1
  Ni  Ni2  1  0.21720200  0.41937900  0.49682900  1
  Ni  Ni3  1  0.78279800  0.58062100  0.50317100  1
  Ni  Ni4  1  0.50000000  0.00000000  0.50000000  1
  Ni  Ni5  1  0.63357100  0.28526900  0.49856200  1
  Ni  Ni6  1  0.36642900  0.71473100  0.50143800  1
  Mo  Mo0  1  0.05924700  0.13423100  0.55707700  1
  Mo  Mo1  1  0.94075300  0.86576900  0.44292300  1
  Mo  Mo2  1  0.30048100  0.05275200  0.16114800  1
  Mo  Mo3  1  0.69951900  0.94724800  0.83885200  1
  Mo  Mo4  1  0.07544200  0.53139200  0.15222800  1
  Mo  Mo5  1  0.92455800  0.46860800  0.84777200  1
  Mo  Mo6  1  0.56316200  0.28482000  0.14128900  1
  Mo  Mo7  1  0.43683800  0.71518000  0.85871100  1
  Mo  Mo8  1  0.00000000  0.00000000  0.00000000  1
  P  P0  1  0.29753700  0.12640200  0.77759900  1
  P  P1  1  0.70246300  0.87359800  0.22240100  1
  P  P2  1  0.29961600  0.66699800  0.23237300  1
  P  P3  1  0.70038400  0.33300200  0.76762700  1
  P  P4  1  0.90083300  0.26486900  0.23447000  1
  P  P5  1  0.09916700  0.73513100  0.76553000  1
loop_
_geom_bond_atom_site_label_1
_geom_bond_atom_site_label_2
_geom_bond_distance
_geom_bond_site_symmetry_2
Ni0 P1 2.191822 1_555
Ni0 P2 2.199051 1_555
Ni0 P4 2.221633 1_555
Ni1 P0 2.191822 1_555
Ni1 P3 2.199051 1_555
Ni1 P5 2.221633 1_555
Ni2 P2 2.210516 1_555
Ni2 P0 2.255734 1_555
Ni3 P3 2.210516 1_555
Ni3 P1 2.255734 1_555
Ni4 P0 2.241074 1_555
Ni4 P1 2.241074 1_545
Ni5 P4 2.208961 1_555
Ni5 P3 2.256917 1_555
Ni6 P5 2.208961 1_555
Ni6 P2 2.256917 1_555
Mo0 P4 2.502753 1_455
Mo0 P3 2.514489 1_455
Mo0 P0 2.572665 1_555
Mo0 P5 2.579023 1_545
Mo0 Ni2 2.598985 1_555
Mo0 Ni4 2.697289 1_555
Mo0 Ni3 2.713790 1_455
Mo0 Ni5 2.739710 1_455
Mo0 Ni6 2.755667 1_545
Mo0 Mo8 2.891084 1_556
Mo0 Mo2 2.902183 1_555
Mo1 P5 2.502753 1_655
Mo1 P2 2.514489 1_655
Mo1 P1 2.572665 1_555
Mo1 P4 2.579023 1_565
Mo1 Ni3 2.598985 1_555
Mo1 Ni4 2.697289 1_565
Mo1 Ni2 2.713790 1_655
Mo1 Ni6 2.739710 1_655
Mo1 Ni5 2.755667 1_565
Mo1 Mo8 2.891084 1_665
Mo1 Mo3 2.902183 1_555
Mo2 P4 2.435476 1_455
Mo2 P1 2.560469 1_545
Mo2 P0 2.575016 1_554
Mo2 P2 2.584375 1_545
Mo2 Ni6 2.669755 1_545
Mo2 Ni1 2.719639 1_554
Mo2 Ni0 2.798155 1_545
Mo2 Mo8 2.895172 1_555
Mo2 Mo4 2.921110 1_555
Mo2 Ni4 2.943744 1_555
Mo2 Mo6 2.958370 1_555
Mo2 Mo3 2.995991 1_544
Mo3 P5 2.435476 1_655
Mo3 P0 2.560469 1_565
Mo3 P1 2.575016 1_556
Mo3 P3 2.584375 1_565
Mo3 Ni5 2.669755 1_565
Mo3 Ni0 2.719639 1_556
Mo3 Ni1 2.798155 1_565
Mo3 Mo8 2.895172 1_666
Mo3 Mo5 2.921110 1_555
Mo3 Ni4 2.943744 1_565
Mo3 Mo7 2.958370 1_555
Mo4 P2 2.471917 1_555
Mo4 P4 2.536643 1_455
Mo4 P5 2.589595 1_554
Mo4 P1 2.604005 1_455
Mo4 Ni2 2.611906 1_555
Mo4 Ni1 2.681988 1_554
Mo4 Ni3 2.719311 1_455
Mo4 Ni0 2.745579 1_455
Mo4 Mo8 2.899522 1_565
Mo4 Mo6 2.968907 1_555
Mo5 P3 2.471917 1_555
Mo5 P5 2.536643 1_655
Mo5 P4 2.589595 1_556
Mo5 P0 2.604005 1_655
Mo5 Ni3 2.611906 1_555
Mo5 Ni0 2.681988 1_556
Mo5 Ni2 2.719311 1_655
Mo5 Ni1 2.745579 1_655
Mo5 Mo8 2.899522 1_656
Mo5 Mo7 2.968907 1_555
Mo6 P1 2.455460 1_545
Mo6 P3 2.488400 1_554
Mo6 P4 2.568568 1_555
Mo6 P2 2.592586 1_555
Mo6 Ni4 2.685111 1_555
Mo6 Ni1 2.691904 1_554
Mo6 Ni5 2.714276 1_555
Mo6 Ni0 2.769288 1_555
Mo6 Mo8 2.826029 1_655
Mo6 Mo7 2.831445 1_554
Mo6 Ni2 2.990626 1_555
Mo7 P0 2.455460 1_565
Mo7 P2 2.488400 1_556
Mo7 P5 2.568568 1_555
Mo7 P3 2.592586 1_555
Mo7 Ni4 2.685111 1_565
Mo7 Ni0 2.691904 1_556
Mo7 Ni6 2.714276 1_555
Mo7 Ni1 2.769288 1_555
Mo7 Mo8 2.826029 1_566
Mo7 Ni3 2.990626 1_555
Mo8 P1 2.551959 1_445
Mo8 P0 2.551959 1_554
Mo8 P4 2.641742 1_455
Mo8 P5 2.641742 1_544
Mo8 P3 2.651673 1_454
Mo8 P2 2.651673 1_545
