# generated using pymatgen
data_U2Fe3Si5
_symmetry_space_group_name_H-M   'P 1'
_cell_length_a   5.47432561
_cell_length_b   7.88986667
_cell_length_c   7.88986667
_cell_angle_alpha   92.38793565
_cell_angle_beta   110.00724556
_cell_angle_gamma   110.00724556
_symmetry_Int_Tables_number   1
_chemical_formula_structural   U2Fe3Si5
_chemical_formula_sum   'U4 Fe6 Si10'
_cell_volume   295.98402786
_cell_formula_units_Z   2
loop_
 _symmetry_equiv_pos_site_id
 _symmetry_equiv_pos_as_xyz
  1  'x, y, z'
loop_
 _atom_site_type_symbol
 _atom_site_label
 _atom_site_symmetry_multiplicity
 _atom_site_fract_x
 _atom_site_fract_y
 _atom_site_fract_z
 _atom_site_occupancy
  U  U0  1  0.22534900  0.86919700  0.59087800  1
  U  U1  1  0.27465100  0.40912200  0.13080300  1
  U  U2  1  0.77465100  0.13080300  0.40912200  1
  U  U3  1  0.72534900  0.59087800  0.86919700  1
  Fe  Fe0  1  0.35832200  0.25174600  0.53965200  1
  Fe  Fe1  1  0.14167800  0.46034800  0.74825400  1
  Fe  Fe2  1  0.64167800  0.74825400  0.46034800  1
  Fe  Fe3  1  0.85832200  0.53965200  0.25174600  1
  Fe  Fe4  1  0.25000000  0.00000500  0.99999500  1
  Fe  Fe5  1  0.75000000  0.99999500  0.00000500  1
  Si  Si0  1  0.16798200  0.06690400  0.25925200  1
  Si  Si1  1  0.33201800  0.74074800  0.93309600  1
  Si  Si2  1  0.83201800  0.93309600  0.74074800  1
  Si  Si3  1  0.66798200  0.25925200  0.06690400  1
  Si  Si4  1  0.25000000  0.20720400  0.79279600  1
  Si  Si5  1  0.75000000  0.79279600  0.20720400  1
  Si  Si6  1  0.25000000  0.51337900  0.48662100  1
  Si  Si7  1  0.75000000  0.48662100  0.51337900  1
  Si  Si8  1  0.25000000  0.77616600  0.22383400  1
  Si  Si9  1  0.75000000  0.22383400  0.77616600  1
loop_
_geom_bond_atom_site_label_1
_geom_bond_atom_site_label_2
_geom_bond_distance
_geom_bond_site_symmetry_2
Fe0 Si4 2.278280 1_555
Fe0 Si0 2.284921 1_555
Fe0 Si6 2.351092 1_555
Fe0 Si7 2.385741 1_555
Fe0 Si9 2.397419 1_555
Fe0 U2 2.785782 1_455
Fe0 U0 2.933033 1_545
Fe0 U3 3.181746 1_555
Fe0 U2 3.190290 1_555
Fe1 Si4 2.278280 1_555
Fe1 Si1 2.284921 1_555
Fe1 Si6 2.351092 1_555
Fe1 Si7 2.385741 1_455
Fe1 Si9 2.397419 1_455
Fe1 U3 2.785782 1_555
Fe1 U1 2.933033 1_556
Fe1 U2 3.181746 1_455
Fe1 U3 3.190290 1_455
Fe2 Si5 2.278280 1_555
Fe2 Si2 2.284921 1_555
Fe2 Si7 2.351092 1_555
Fe2 Si6 2.385741 1_555
Fe2 Si8 2.397419 1_555
Fe2 U0 2.785782 1_655
Fe2 U2 2.933033 1_565
Fe2 U1 3.181746 1_555
Fe2 U0 3.190290 1_555
Fe3 Si5 2.278280 1_555
Fe3 Si3 2.284921 1_555
Fe3 Si7 2.351092 1_555
Fe3 Si6 2.385741 1_655
Fe3 Si8 2.397419 1_655
Fe3 U1 2.785782 1_555
Fe3 U3 2.933033 1_554
Fe3 U0 3.181746 1_655
Fe3 U1 3.190290 1_655
Fe4 Si0 2.316231 1_556
Fe4 Si1 2.316231 1_545
Fe4 Si4 2.359589 1_555
Fe4 Si3 2.361993 1_556
Fe4 Si2 2.361993 1_445
Fe4 Si8 2.549086 1_546
Fe4 U0 3.291137 1_545
Fe4 U1 3.291137 1_556
Fe4 U3 3.329260 1_445
Fe4 U2 3.329260 1_556
Fe5 Si3 2.316231 1_565
Fe5 Si2 2.316231 1_554
Fe5 Si5 2.359589 1_555
Fe5 Si1 2.361993 1_554
Fe5 Si0 2.361993 1_665
Fe5 Si9 2.549086 1_564
Fe5 U3 3.291137 1_554
Fe5 U2 3.291137 1_565
Fe5 U1 3.329260 1_665
Fe5 U0 3.329260 1_554
Si0 Si5 2.445065 1_445
Si0 Si8 2.505752 1_545
Si0 U1 2.865736 1_555
Si0 U2 2.953661 1_455
Si0 U2 2.966396 1_555
Si0 U0 3.080730 1_545
Si1 Si5 2.445065 1_556
Si1 Si8 2.505752 1_556
Si1 U0 2.865736 1_555
Si1 U3 2.953661 1_555
Si1 U3 2.966396 1_455
Si1 U1 3.080730 1_556
Si2 Si4 2.445065 1_665
Si2 Si9 2.505752 1_565
Si2 U3 2.865736 1_555
Si2 U0 2.953661 1_655
Si2 U0 2.966396 1_555
Si2 U2 3.080730 1_565
Si3 Si4 2.445065 1_554
Si3 Si9 2.505752 1_554
Si3 U2 2.865736 1_555
Si3 U1 2.953661 1_555
Si3 U1 2.966396 1_655
Si3 U3 3.080730 1_554
Si4 Si9 2.743707 1_455
Si4 Si9 2.743707 1_555
Si4 U0 2.986767 1_545
Si4 U1 2.986767 1_556
Si4 U3 3.111718 1_555
Si4 U2 3.111718 1_455
Si5 Si8 2.743707 1_555
Si5 Si8 2.743707 1_655
Si5 U3 2.986767 1_554
Si5 U2 2.986767 1_565
Si5 U1 3.111718 1_555
Si5 U0 3.111718 1_655
Si6 Si7 2.754072 1_555
Si6 Si7 2.754072 1_455
Si6 U1 2.952770 1_555
Si6 U0 2.952770 1_555
Si6 U2 3.104705 1_455
Si6 U3 3.104705 1_555
Si7 U2 2.952770 1_555
Si7 U3 2.952770 1_555
Si7 U1 3.104705 1_555
Si7 U0 3.104705 1_655
Si8 U1 3.016859 1_555
Si8 U0 3.016859 1_555
Si8 U3 3.082560 1_454
Si8 U2 3.082560 1_565
Si9 U2 3.016859 1_555
Si9 U3 3.016859 1_555
Si9 U0 3.082560 1_545
Si9 U1 3.082560 1_656
