# generated using pymatgen
data_YZnGa
_symmetry_space_group_name_H-M   'P 1'
_cell_length_a   4.35001443
_cell_length_b   4.35001443
_cell_length_c   7.35005550
_cell_angle_alpha   90.00000000
_cell_angle_beta   90.00000000
_cell_angle_gamma   120.00000752
_symmetry_Int_Tables_number   1
_chemical_formula_structural   YZnGa
_chemical_formula_sum   'Y2 Zn2 Ga2'
_cell_volume   120.44883765
_cell_formula_units_Z   2
loop_
 _symmetry_equiv_pos_site_id
 _symmetry_equiv_pos_as_xyz
  1  'x, y, z'
loop_
 _atom_site_type_symbol
 _atom_site_label
 _atom_site_symmetry_multiplicity
 _atom_site_fract_x
 _atom_site_fract_y
 _atom_site_fract_z
 _atom_site_occupancy
  Y  Y0  1  -0.00000000  0.00000000  0.50000000  1
  Y  Y1  1  -0.00000000  0.00000000  0.00000000  1
  Zn  Zn0  1  0.33333300  0.66666700  0.75000000  1
  Zn  Zn1  1  0.66666700  0.33333300  0.25000000  1
  Ga  Ga0  1  0.33333300  0.66666700  0.25000000  1
  Ga  Ga1  1  0.66666700  0.33333300  0.75000000  1
loop_
_geom_bond_atom_site_label_1
_geom_bond_atom_site_label_2
_geom_bond_distance
_geom_bond_site_symmetry_2
Y0 Zn0 3.111911 1_545
Y0 Zn1 3.111911 1_455
Y0 Zn1 3.111913 1_555
Y0 Zn0 3.111913 1_445
Y0 Zn0 3.111913 1_555
Y0 Zn1 3.111913 1_445
Y1 Zn0 3.111911 1_544
Y1 Zn1 3.111911 1_455
Y1 Zn0 3.111913 1_554
Y1 Zn1 3.111913 1_445
Y1 Zn1 3.111913 1_555
Y1 Zn0 3.111913 1_444
Ga0 Zn1 2.511479 1_455
Ga0 Zn1 2.511479 1_565
Ga0 Zn1 2.511487 1_555
Ga0 Y0 3.111911 1_565
Ga0 Y1 3.111911 1_565
Ga0 Y1 3.111913 1_665
Ga0 Y1 3.111913 1_555
Ga0 Y0 3.111913 1_555
Ga0 Y0 3.111913 1_665
Ga1 Zn0 2.511479 1_545
Ga1 Zn0 2.511479 1_655
Ga1 Zn0 2.511487 1_555
Ga1 Y1 3.111911 1_656
Ga1 Y0 3.111911 1_655
Ga1 Y1 3.111913 1_666
Ga1 Y0 3.111913 1_555
Ga1 Y0 3.111913 1_665
Ga1 Y1 3.111913 1_556
