# generated using pymatgen
data_Ce3Y
_symmetry_space_group_name_H-M   'P 1'
_cell_length_a   6.89525972
_cell_length_b   6.89525972
_cell_length_c   22.42634600
_cell_angle_alpha   90.00000000
_cell_angle_beta   90.00000000
_cell_angle_gamma   119.99999729
_symmetry_Int_Tables_number   1
_chemical_formula_structural   Ce3Y
_chemical_formula_sum   'Ce24 Y8'
_cell_volume   923.40116869
_cell_formula_units_Z   8
loop_
 _symmetry_equiv_pos_site_id
 _symmetry_equiv_pos_as_xyz
  1  'x, y, z'
loop_
 _atom_site_type_symbol
 _atom_site_label
 _atom_site_symmetry_multiplicity
 _atom_site_fract_x
 _atom_site_fract_y
 _atom_site_fract_z
 _atom_site_occupancy
  Ce  Ce0_0  1  0.16666650  0.33333350  0.00000000  1
  Ce  Ce0_1  1  0.16666650  0.33333350  0.50000000  1
  Ce  Ce0_2  1  0.16666650  0.83333350  0.00000000  1
  Ce  Ce0_3  1  0.16666650  0.83333350  0.50000000  1
  Ce  Ce0_4  1  0.66666650  0.33333350  0.00000000  1
  Ce  Ce0_5  1  0.66666650  0.33333350  0.50000000  1
  Ce  Ce0_6  1  0.66666650  0.83333350  0.00000000  1
  Ce  Ce0_7  1  0.66666650  0.83333350  0.50000000  1
  Ce  Ce1_0  1  0.00000000  0.00000000  0.37800500  1
  Ce  Ce1_1  1  0.00000000  0.00000000  0.87800500  1
  Ce  Ce1_2  1  0.00000000  0.50000000  0.37800500  1
  Ce  Ce1_3  1  0.00000000  0.50000000  0.87800500  1
  Ce  Ce1_4  1  0.50000000  0.00000000  0.37800500  1
  Ce  Ce1_5  1  0.50000000  0.00000000  0.87800500  1
  Ce  Ce1_6  1  0.50000000  0.50000000  0.37800500  1
  Ce  Ce1_7  1  0.50000000  0.50000000  0.87800500  1
  Ce  Ce2_0  1  0.00000000  0.00000000  0.12199500  1
  Ce  Ce2_1  1  0.00000000  0.00000000  0.62199500  1
  Ce  Ce2_2  1  0.00000000  0.50000000  0.12199500  1
  Ce  Ce2_3  1  0.00000000  0.50000000  0.62199500  1
  Ce  Ce2_4  1  0.50000000  0.00000000  0.12199500  1
  Ce  Ce2_5  1  0.50000000  0.00000000  0.62199500  1
  Ce  Ce2_6  1  0.50000000  0.50000000  0.12199500  1
  Ce  Ce2_7  1  0.50000000  0.50000000  0.62199500  1
  Y  Y0_0  1  0.33333350  0.16666650  0.25000000  1
  Y  Y0_1  1  0.33333350  0.16666650  0.75000000  1
  Y  Y0_2  1  0.33333350  0.66666650  0.25000000  1
  Y  Y0_3  1  0.33333350  0.66666650  0.75000000  1
  Y  Y0_4  1  0.83333350  0.16666650  0.25000000  1
  Y  Y0_5  1  0.83333350  0.16666650  0.75000000  1
  Y  Y0_6  1  0.83333350  0.66666650  0.25000000  1
  Y  Y0_7  1  0.83333350  0.66666650  0.75000000  1
loop_
_geom_bond_atom_site_label_1
_geom_bond_atom_site_label_2
_geom_bond_distance
_geom_bond_site_symmetry_2
Ce0_0 Ce1_3 3.383372 1_554
Ce0_0 Ce2_2 3.383372 1_555
Ce0_0 Ce1_1 3.383373 1_554
Ce0_0 Ce1_7 3.383373 1_554
Ce0_0 Ce2_0 3.383373 1_555
Ce0_0 Ce2_6 3.383373 1_555
Ce0_0 Ce0_2 3.447630 1_545
Ce0_0 Ce0_4 3.447630 1_555
Ce0_0 Ce0_4 3.447630 1_455
Ce0_0 Ce0_2 3.447630 1_555
Ce0_0 Ce0_6 3.447630 1_445
Ce0_0 Ce0_6 3.447630 1_555
Ce0_1 Ce2_3 3.383372 1_555
Ce0_1 Ce1_2 3.383372 1_555
Ce0_1 Ce2_1 3.383373 1_555
Ce0_1 Ce2_7 3.383373 1_555
Ce0_1 Ce1_6 3.383373 1_555
Ce0_1 Ce1_0 3.383373 1_555
Ce0_1 Ce0_5 3.447630 1_555
Ce0_1 Ce0_3 3.447630 1_545
Ce0_1 Ce0_3 3.447630 1_555
Ce0_1 Ce0_5 3.447630 1_455
Ce0_1 Ce0_7 3.447630 1_555
Ce0_1 Ce0_7 3.447630 1_445
Ce0_2 Ce1_1 3.383372 1_564
Ce0_2 Ce2_0 3.383372 1_565
Ce0_2 Ce1_5 3.383373 1_564
Ce0_2 Ce1_3 3.383373 1_554
Ce0_2 Ce2_4 3.383373 1_565
Ce0_2 Ce2_2 3.383373 1_555
Ce0_2 Ce0_6 3.447630 1_555
Ce0_2 Ce0_6 3.447630 1_455
Ce0_2 Ce0_4 3.447630 1_565
Ce0_2 Ce0_4 3.447630 1_455
Ce0_3 Ce2_1 3.383372 1_565
Ce0_3 Ce1_0 3.383372 1_565
Ce0_3 Ce2_3 3.383373 1_555
Ce0_3 Ce2_5 3.383373 1_565
Ce0_3 Ce1_4 3.383373 1_565
Ce0_3 Ce1_2 3.383373 1_555
Ce0_3 Ce0_7 3.447630 1_555
Ce0_3 Ce0_7 3.447630 1_455
Ce0_3 Ce0_5 3.447630 1_565
Ce0_3 Ce0_5 3.447630 1_455
Ce0_4 Ce1_7 3.383372 1_554
Ce0_4 Ce2_6 3.383372 1_555
Ce0_4 Ce1_5 3.383373 1_554
Ce0_4 Ce1_3 3.383373 1_654
Ce0_4 Ce2_4 3.383373 1_555
Ce0_4 Ce2_2 3.383373 1_655
Ce0_4 Ce0_6 3.447630 1_545
Ce0_4 Ce0_6 3.447630 1_555
Ce0_5 Ce2_7 3.383372 1_555
Ce0_5 Ce1_6 3.383372 1_555
Ce0_5 Ce2_5 3.383373 1_555
Ce0_5 Ce2_3 3.383373 1_655
Ce0_5 Ce1_4 3.383373 1_555
Ce0_5 Ce1_2 3.383373 1_655
Ce0_5 Ce0_7 3.447630 1_545
Ce0_5 Ce0_7 3.447630 1_555
Ce0_6 Ce1_5 3.383372 1_564
Ce0_6 Ce2_4 3.383372 1_565
Ce0_6 Ce1_1 3.383373 1_664
Ce0_6 Ce1_7 3.383373 1_554
Ce0_6 Ce2_6 3.383373 1_555
Ce0_6 Ce2_0 3.383373 1_665
Ce0_7 Ce2_5 3.383372 1_565
Ce0_7 Ce1_4 3.383372 1_565
Ce0_7 Ce2_1 3.383373 1_665
Ce0_7 Ce2_7 3.383373 1_555
Ce0_7 Ce1_6 3.383373 1_555
Ce0_7 Ce1_0 3.383373 1_665
Ce1_0 Ce1_4 3.447630 1_555
Ce1_0 Ce1_2 3.447630 1_555
Ce1_0 Ce1_2 3.447630 1_545
Ce1_0 Ce1_4 3.447630 1_455
Ce1_0 Ce1_6 3.447630 1_445
Ce1_0 Ce1_6 3.447630 1_555
Ce1_0 Y0_4 3.493261 1_455
Ce1_0 Y0_6 3.493263 1_445
Ce1_0 Y0_0 3.493263 1_555
Ce1_1 Ce1_5 3.447630 1_555
Ce1_1 Ce1_3 3.447630 1_545
Ce1_1 Ce1_3 3.447630 1_555
Ce1_1 Ce1_5 3.447630 1_455
Ce1_1 Ce1_7 3.447630 1_445
Ce1_1 Ce1_7 3.447630 1_555
Ce1_1 Y0_5 3.493261 1_455
Ce1_1 Y0_1 3.493263 1_555
Ce1_1 Y0_7 3.493263 1_445
Ce1_2 Ce1_6 3.447630 1_455
Ce1_2 Ce1_6 3.447630 1_555
Ce1_2 Ce1_4 3.447630 1_455
Ce1_2 Ce1_4 3.447630 1_565
Ce1_2 Y0_6 3.493261 1_455
Ce1_2 Y0_4 3.493263 1_455
Ce1_2 Y0_2 3.493263 1_555
Ce1_3 Ce1_7 3.447630 1_455
Ce1_3 Ce1_7 3.447630 1_555
Ce1_3 Ce1_5 3.447630 1_455
Ce1_3 Ce1_5 3.447630 1_565
Ce1_3 Y0_7 3.493261 1_455
Ce1_3 Y0_5 3.493263 1_455
Ce1_3 Y0_3 3.493263 1_555
Ce1_4 Ce1_6 3.447630 1_545
Ce1_4 Ce1_6 3.447630 1_555
Ce1_4 Y0_0 3.493261 1_555
Ce1_4 Y0_2 3.493263 1_545
Ce1_4 Y0_4 3.493263 1_555
Ce1_5 Ce1_7 3.447630 1_555
Ce1_5 Ce1_7 3.447630 1_545
Ce1_5 Y0_1 3.493261 1_555
Ce1_5 Y0_5 3.493263 1_555
Ce1_5 Y0_3 3.493263 1_545
Ce1_6 Y0_2 3.493261 1_555
Ce1_6 Y0_0 3.493263 1_555
Ce1_6 Y0_6 3.493263 1_555
Ce1_7 Y0_3 3.493261 1_555
Ce1_7 Y0_1 3.493263 1_555
Ce1_7 Y0_7 3.493263 1_555
Ce2_0 Ce2_4 3.447630 1_455
Ce2_0 Ce2_4 3.447630 1_555
Ce2_0 Ce2_2 3.447630 1_555
Ce2_0 Ce2_2 3.447630 1_545
Ce2_0 Ce2_6 3.447630 1_445
Ce2_0 Ce2_6 3.447630 1_555
Ce2_0 Y0_4 3.493261 1_455
Ce2_0 Y0_6 3.493263 1_445
Ce2_0 Y0_0 3.493263 1_555
Ce2_1 Ce2_3 3.447630 1_555
Ce2_1 Ce2_5 3.447630 1_455
Ce2_1 Ce2_3 3.447630 1_545
Ce2_1 Ce2_5 3.447630 1_555
Ce2_1 Ce2_7 3.447630 1_445
Ce2_1 Ce2_7 3.447630 1_555
Ce2_1 Y0_5 3.493261 1_455
Ce2_1 Y0_1 3.493263 1_555
Ce2_1 Y0_7 3.493263 1_445
Ce2_2 Ce2_6 3.447630 1_555
Ce2_2 Ce2_6 3.447630 1_455
Ce2_2 Ce2_4 3.447630 1_455
Ce2_2 Ce2_4 3.447630 1_565
Ce2_2 Y0_6 3.493261 1_455
Ce2_2 Y0_2 3.493263 1_555
Ce2_2 Y0_4 3.493263 1_455
Ce2_3 Ce2_7 3.447630 1_455
Ce2_3 Ce2_7 3.447630 1_555
Ce2_3 Ce2_5 3.447630 1_565
Ce2_3 Ce2_5 3.447630 1_455
Ce2_3 Y0_7 3.493261 1_455
Ce2_3 Y0_5 3.493263 1_455
Ce2_3 Y0_3 3.493263 1_555
Ce2_4 Ce2_6 3.447630 1_555
Ce2_4 Ce2_6 3.447630 1_545
Ce2_4 Y0_0 3.493261 1_555
Ce2_4 Y0_2 3.493263 1_545
Ce2_4 Y0_4 3.493263 1_555
Ce2_5 Ce2_7 3.447630 1_555
Ce2_5 Ce2_7 3.447630 1_545
Ce2_5 Y0_1 3.493261 1_555
Ce2_5 Y0_5 3.493263 1_555
Ce2_5 Y0_3 3.493263 1_545
Ce2_6 Y0_2 3.493261 1_555
Ce2_6 Y0_6 3.493263 1_555
Ce2_6 Y0_0 3.493263 1_555
Ce2_7 Y0_3 3.493261 1_555
Ce2_7 Y0_1 3.493263 1_555
Ce2_7 Y0_7 3.493263 1_555
Y0_0 Y0_2 3.447630 1_555
Y0_0 Y0_4 3.447630 1_455
Y0_0 Y0_4 3.447630 1_555
Y0_0 Y0_2 3.447630 1_545
Y0_0 Y0_6 3.447630 1_555
Y0_0 Y0_6 3.447630 1_445
Y0_1 Y0_5 3.447630 1_455
Y0_1 Y0_3 3.447630 1_555
Y0_1 Y0_5 3.447630 1_555
Y0_1 Y0_3 3.447630 1_545
Y0_1 Y0_7 3.447630 1_555
Y0_1 Y0_7 3.447630 1_445
Y0_2 Y0_6 3.447630 1_455
Y0_2 Y0_6 3.447630 1_555
Y0_2 Y0_4 3.447630 1_455
Y0_2 Y0_4 3.447630 1_565
Y0_3 Y0_7 3.447630 1_455
Y0_3 Y0_7 3.447630 1_555
Y0_3 Y0_5 3.447630 1_455
Y0_3 Y0_5 3.447630 1_565
Y0_4 Y0_6 3.447630 1_555
Y0_4 Y0_6 3.447630 1_545
Y0_5 Y0_7 3.447630 1_555
Y0_5 Y0_7 3.447630 1_545
