# generated using pymatgen
data_Na2V2CuH4(OF)6
_symmetry_space_group_name_H-M   'P 1'
_cell_length_a   5.36585300
_cell_length_b   8.31497704
_cell_length_c   10.43616790
_cell_angle_alpha   89.63482219
_cell_angle_beta   90.00000000
_cell_angle_gamma   90.00000000
_symmetry_Int_Tables_number   1
_chemical_formula_structural   Na2V2CuH4(OF)6
_chemical_formula_sum   'Na4 V4 Cu2 H8 O12 F12'
_cell_volume   465.62046656
_cell_formula_units_Z   2
loop_
 _symmetry_equiv_pos_site_id
 _symmetry_equiv_pos_as_xyz
  1  'x, y, z'
loop_
 _atom_site_type_symbol
 _atom_site_label
 _atom_site_symmetry_multiplicity
 _atom_site_fract_x
 _atom_site_fract_y
 _atom_site_fract_z
 _atom_site_occupancy
  Na  Na0  1  0.55037200  0.54910200  0.33740200  1
  Na  Na1  1  0.05037200  0.45089800  0.16259800  1
  Na  Na2  1  0.44962800  0.45089800  0.66259800  1
  Na  Na3  1  0.94962800  0.54910200  0.83740200  1
  V  V0  1  0.95139200  0.28874000  0.50426300  1
  V  V1  1  0.45139200  0.71126000  0.99573700  1
  V  V2  1  0.04860800  0.71126000  0.49573700  1
  V  V3  1  0.54860800  0.28874000  0.00426300  1
  Cu  Cu0  1  0.50000000  0.00000000  0.50000000  1
  Cu  Cu1  1  0.00000000  0.00000000  0.00000000  1
  H  H0  1  0.55809100  0.15599000  0.28695900  1
  H  H1  1  0.05809100  0.84401000  0.21304100  1
  H  H2  1  0.44190900  0.84401000  0.71304100  1
  H  H3  1  0.94190900  0.15599000  0.78695900  1
  H  H4  1  0.44181900  0.98861100  0.26124700  1
  H  H5  1  0.94181900  0.01138900  0.23875300  1
  H  H6  1  0.55818100  0.01138900  0.73875300  1
  H  H7  1  0.05818100  0.98861100  0.76124700  1
  O  O0  1  0.14083900  0.14207700  0.46608900  1
  O  O1  1  0.64083900  0.85792300  0.03391100  1
  O  O2  1  0.85916100  0.85792300  0.53391100  1
  O  O3  1  0.35916100  0.14207700  0.96608900  1
  O  O4  1  0.67258600  0.19897300  0.54478400  1
  O  O5  1  0.17258600  0.80102700  0.95521600  1
  O  O6  1  0.32741400  0.80102700  0.45521600  1
  O  O7  1  0.82741400  0.19897300  0.04478400  1
  O  O8  1  0.57973700  0.04075200  0.30788600  1
  O  O9  1  0.07973700  0.95924800  0.19211400  1
  O  O10  1  0.42026300  0.95924800  0.69211400  1
  O  O11  1  0.92026300  0.04075200  0.80788600  1
  F  F0  1  0.21973300  0.47164600  0.46517000  1
  F  F1  1  0.71973300  0.52835400  0.03483000  1
  F  F2  1  0.78026700  0.52835400  0.53483000  1
  F  F3  1  0.28026700  0.47164600  0.96517000  1
  F  F4  1  0.06426900  0.32048500  0.67643500  1
  F  F5  1  0.56426900  0.67951500  0.82356500  1
  F  F6  1  0.93573100  0.67951500  0.32356500  1
  F  F7  1  0.43573100  0.32048500  0.17643500  1
  F  F8  1  0.85069800  0.34011400  0.33419000  1
  F  F9  1  0.35069800  0.65988600  0.16581000  1
  F  F10  1  0.14930200  0.65988600  0.66581000  1
  F  F11  1  0.64930200  0.34011400  0.83419000  1
loop_
_geom_bond_atom_site_label_1
_geom_bond_atom_site_label_2
_geom_bond_distance
_geom_bond_site_symmetry_2
Na0 O6 2.713637 1_555
Na1 O7 2.713637 1_455
Na2 O4 2.713637 1_555
Na3 O5 2.713637 1_655
Cu0 O4 1.955282 1_555
Cu0 O6 1.955282 1_545
Cu0 O8 2.075809 1_555
Cu0 O10 2.075809 1_545
Cu0 O0 2.286846 1_555
Cu0 O2 2.286846 1_545
Cu1 O7 1.955282 1_455
Cu1 O5 1.955282 1_544
Cu1 O9 2.075809 1_545
Cu1 O11 2.075809 1_454
Cu1 O3 2.286846 1_554
Cu1 O1 2.286846 1_445
H0 O8 0.988266 1_555
H1 O9 0.988266 1_555
H2 O10 0.988266 1_555
H3 O11 0.988266 1_555
H4 O8 0.987540 1_565
H5 O9 0.987540 1_645
H6 O10 0.987540 1_545
H7 O11 0.987540 1_465
O0 V0 1.638734 1_455
O1 V1 1.638734 1_554
O2 V2 1.638734 1_655
O3 V3 1.638734 1_556
O4 V0 1.723383 1_555
O5 V1 1.723383 1_555
O6 V2 1.723383 1_555
O7 V3 1.723383 1_555
F0 V0 2.131854 1_455
F0 V2 2.218696 1_555
F0 Na0 2.308564 1_555
F0 Na2 2.406693 1_555
F1 V1 2.131854 1_554
F1 V3 2.218696 1_555
F1 Na1 2.308564 1_655
F1 Na3 2.406693 1_554
F2 V2 2.131854 1_655
F2 V0 2.218696 1_555
F2 Na2 2.308564 1_555
F2 Na0 2.406693 1_555
F3 V3 2.131854 1_556
F3 V1 2.218696 1_555
F3 Na3 2.308564 1_455
F3 Na1 2.406693 1_556
F4 V0 1.916016 1_455
F4 Na2 2.338900 1_555
F4 Na3 2.618147 1_455
F5 V1 1.916016 1_555
F5 Na3 2.338900 1_555
F5 Na2 2.618147 1_555
F6 V2 1.916016 1_655
F6 Na0 2.338900 1_555
F6 Na1 2.618147 1_655
F7 V3 1.916016 1_555
F7 Na1 2.338900 1_555
F7 Na0 2.618147 1_555
F8 V0 1.901329 1_555
F8 Na1 2.276466 1_655
F8 Na0 2.370342 1_555
F9 V1 1.901329 1_554
F9 Na0 2.276466 1_555
F9 Na1 2.370342 1_555
F10 V2 1.901329 1_555
F10 Na3 2.276466 1_455
F10 Na2 2.370342 1_555
F11 V3 1.901329 1_556
F11 Na2 2.276466 1_555
F11 Na3 2.370342 1_555
