# generated using pymatgen
data_Ba2W3O7
_symmetry_space_group_name_H-M   'P 1'
_cell_length_a   4.03719600
_cell_length_b   4.03830000
_cell_length_c   12.13381600
_cell_angle_alpha   90.00000000
_cell_angle_beta   90.00000000
_cell_angle_gamma   90.00000000
_symmetry_Int_Tables_number   1
_chemical_formula_structural   Ba2W3O7
_chemical_formula_sum   'Ba2 W3 O7'
_cell_volume   197.82256021
_cell_formula_units_Z   1
loop_
 _symmetry_equiv_pos_site_id
 _symmetry_equiv_pos_as_xyz
  1  'x, y, z'
loop_
 _atom_site_type_symbol
 _atom_site_label
 _atom_site_symmetry_multiplicity
 _atom_site_fract_x
 _atom_site_fract_y
 _atom_site_fract_z
 _atom_site_occupancy
  Ba  Ba0  1  0.00000000  0.50000000  0.80060700  1
  Ba  Ba1  1  0.00000000  0.50000000  0.19939300  1
  W  W0  1  0.50000000  0.00000000  0.61828100  1
  W  W1  1  0.50000000  0.00000000  0.38171900  1
  W  W2  1  0.50000000  0.00000000  0.00000000  1
  O  O0  1  0.00000000  0.00000000  0.00000000  1
  O  O1  1  0.50000000  0.50000000  0.64529600  1
  O  O2  1  0.50000000  0.50000000  0.35470400  1
  O  O3  1  0.00000000  0.00000000  0.63479500  1
  O  O4  1  0.00000000  0.00000000  0.36520500  1
  O  O5  1  0.50000000  0.00000000  0.84163900  1
  O  O6  1  0.50000000  0.00000000  0.15836100  1
loop_
_geom_bond_atom_site_label_1
_geom_bond_atom_site_label_2
_geom_bond_distance
_geom_bond_site_symmetry_2
Ba0 O1 2.761546 1_555
Ba0 O1 2.761546 1_455
Ba0 O3 2.850410 1_555
Ba0 O3 2.850410 1_565
Ba0 O5 2.898204 1_455
Ba0 O5 2.898204 1_465
Ba0 O5 2.898204 1_555
Ba0 O5 2.898204 1_565
Ba0 O0 3.151262 1_556
Ba0 O0 3.151262 1_566
Ba1 O2 2.761546 1_455
Ba1 O2 2.761546 1_555
Ba1 O4 2.850410 1_565
Ba1 O4 2.850410 1_555
Ba1 O6 2.898204 1_455
Ba1 O6 2.898204 1_555
Ba1 O6 2.898204 1_565
Ba1 O6 2.898204 1_465
Ba1 O0 3.151262 1_565
Ba1 O0 3.151262 1_555
O0 W2 2.018598 1_455
O0 W2 2.018598 1_555
O1 W0 2.045585 1_565
O1 W0 2.045585 1_555
O2 W1 2.045585 1_565
O2 W1 2.045585 1_555
O3 W0 2.028519 1_555
O3 W0 2.028519 1_455
O4 W1 2.028519 1_455
O4 W1 2.028519 1_555
O5 W2 1.921523 1_556
O5 W0 2.710185 1_555
O6 W2 1.921523 1_555
O6 W1 2.710185 1_555
