# generated using pymatgen
data_Lu3Ni11Ge4
_symmetry_space_group_name_H-M   'P 1'
_cell_length_a   8.23849615
_cell_length_b   8.23849615
_cell_length_c   8.48700600
_cell_angle_alpha   90.00000000
_cell_angle_beta   90.00000000
_cell_angle_gamma   120.00000122
_symmetry_Int_Tables_number   1
_chemical_formula_structural   Lu3Ni11Ge4
_chemical_formula_sum   'Lu6 Ni22 Ge8'
_cell_volume   498.86268735
_cell_formula_units_Z   2
loop_
 _symmetry_equiv_pos_site_id
 _symmetry_equiv_pos_as_xyz
  1  'x, y, z'
loop_
 _atom_site_type_symbol
 _atom_site_label
 _atom_site_symmetry_multiplicity
 _atom_site_fract_x
 _atom_site_fract_y
 _atom_site_fract_z
 _atom_site_occupancy
  Lu  Lu0  1  0.80455500  0.19544500  0.75000000  1
  Lu  Lu1  1  0.19544500  0.80455500  0.25000000  1
  Lu  Lu2  1  0.39089100  0.19544500  0.75000000  1
  Lu  Lu3  1  0.60910900  0.80455500  0.25000000  1
  Lu  Lu4  1  0.80455500  0.60910900  0.75000000  1
  Lu  Lu5  1  0.19544500  0.39089100  0.25000000  1
  Ni  Ni0  1  0.84169300  0.15830700  0.40870200  1
  Ni  Ni1  1  0.15830700  0.84169300  0.59129800  1
  Ni  Ni2  1  0.31661300  0.15830700  0.40870200  1
  Ni  Ni3  1  0.15830700  0.84169300  0.90870200  1
  Ni  Ni4  1  0.68338700  0.84169300  0.59129800  1
  Ni  Ni5  1  0.84169300  0.15830700  0.09129800  1
  Ni  Ni6  1  0.84169300  0.68338700  0.40870200  1
  Ni  Ni7  1  0.68338700  0.84169300  0.90870200  1
  Ni  Ni8  1  0.15830700  0.31661300  0.59129800  1
  Ni  Ni9  1  0.31661300  0.15830700  0.09129800  1
  Ni  Ni10  1  0.15830700  0.31661300  0.90870200  1
  Ni  Ni11  1  0.84169300  0.68338700  0.09129800  1
  Ni  Ni12  1  0.43522900  0.56477100  0.75000000  1
  Ni  Ni13  1  0.56477100  0.43522900  0.25000000  1
  Ni  Ni14  1  0.12954300  0.56477100  0.75000000  1
  Ni  Ni15  1  0.87045700  0.43522900  0.25000000  1
  Ni  Ni16  1  0.43522900  0.87045700  0.75000000  1
  Ni  Ni17  1  0.56477100  0.12954300  0.25000000  1
  Ni  Ni18  1  0.66666700  0.33333300  0.99725700  1
  Ni  Ni19  1  0.33333300  0.66666700  0.00274300  1
  Ni  Ni20  1  0.33333300  0.66666700  0.49725700  1
  Ni  Ni21  1  0.66666700  0.33333300  0.50274300  1
  Ge  Ge0  1  0.50000000  0.50000000  0.00000000  1
  Ge  Ge1  1  0.00000000  0.50000000  0.00000000  1
  Ge  Ge2  1  0.50000000  0.50000000  0.50000000  1
  Ge  Ge3  1  0.50000000  0.00000000  0.00000000  1
  Ge  Ge4  1  0.00000000  0.50000000  0.50000000  1
  Ge  Ge5  1  0.50000000  0.00000000  0.50000000  1
  Ge  Ge6  1  0.00000000  0.00000000  0.75000000  1
  Ge  Ge7  1  0.00000000  0.00000000  0.25000000  1
loop_
_geom_bond_atom_site_label_1
_geom_bond_atom_site_label_2
_geom_bond_distance
_geom_bond_site_symmetry_2
Lu0 Ni18 2.876630 1_555
Lu0 Ni21 2.876630 1_555
Lu0 Ni14 2.877493 1_655
Lu0 Ni16 2.877493 1_545
Lu0 Ni10 2.897415 1_655
Lu0 Ni4 2.897415 1_545
Lu0 Ni8 2.897415 1_655
Lu0 Ni7 2.897415 1_545
Lu0 Ni0 2.944676 1_555
Lu0 Ni5 2.944676 1_556
Lu1 Ni19 2.876630 1_555
Lu1 Ni20 2.876630 1_555
Lu1 Ni15 2.877493 1_455
Lu1 Ni17 2.877493 1_565
Lu1 Ni9 2.897415 1_565
Lu1 Ni6 2.897415 1_455
Lu1 Ni2 2.897415 1_565
Lu1 Ni11 2.897415 1_455
Lu1 Ni1 2.944676 1_555
Lu1 Ni3 2.944676 1_554
Lu2 Ni21 2.876630 1_555
Lu2 Ni18 2.876630 1_555
Lu2 Ni12 2.877493 1_555
Lu2 Ni16 2.877493 1_545
Lu2 Ni1 2.897415 1_545
Lu2 Ni3 2.897415 1_545
Lu2 Ni8 2.897415 1_555
Lu2 Ni10 2.897415 1_555
Lu2 Ni2 2.944679 1_555
Lu2 Ni9 2.944679 1_556
Lu3 Ni19 2.876630 1_555
Lu3 Ni20 2.876630 1_555
Lu3 Ni13 2.877493 1_555
Lu3 Ni17 2.877493 1_565
Lu3 Ni0 2.897415 1_565
Lu3 Ni5 2.897415 1_565
Lu3 Ni11 2.897415 1_555
Lu3 Ni6 2.897415 1_555
Lu3 Ni4 2.944679 1_555
Lu3 Ni7 2.944679 1_554
Lu4 Ni21 2.876630 1_555
Lu4 Ni18 2.876630 1_555
Lu4 Ni12 2.877493 1_555
Lu4 Ni14 2.877493 1_655
Lu4 Ni1 2.897415 1_655
Lu4 Ni3 2.897415 1_655
Lu4 Ni7 2.897415 1_555
Lu4 Ni4 2.897415 1_555
Lu4 Ni6 2.944679 1_555
Lu4 Ni11 2.944679 1_556
Lu5 Ni19 2.876630 1_555
Lu5 Ni20 2.876630 1_555
Lu5 Ni13 2.877493 1_555
Lu5 Ni15 2.877493 1_455
Lu5 Ni0 2.897415 1_455
Lu5 Ni5 2.897415 1_455
Lu5 Ni2 2.897415 1_555
Lu5 Ni9 2.897415 1_555
Lu5 Ni10 2.944679 1_554
Lu5 Ni8 2.944679 1_555
Ni0 Ni15 2.556278 1_555
Ni0 Ni17 2.556278 1_555
Ni0 Ni21 2.621960 1_555
Ni0 Ni5 2.693810 1_555
Ni0 Ni4 2.739426 1_545
Ni0 Ni8 2.739426 1_655
Ni1 Ni16 2.556278 1_555
Ni1 Ni14 2.556278 1_555
Ni1 Ni20 2.621960 1_555
Ni1 Ni3 2.693810 1_555
Ni1 Ni6 2.739426 1_455
Ni1 Ni2 2.739426 1_565
Ni2 Ni21 2.621974 1_555
Ni2 Ni9 2.693810 1_555
Ni2 Ni8 2.739414 1_555
Ni3 Ni9 2.739426 1_566
Ni4 Ni7 2.693810 1_555
Ni4 Ni6 2.739414 1_555
Ni5 Ni7 2.739426 1_544
Ni10 Ni12 2.556278 1_555
Ni10 Ni14 2.556278 1_555
Ni10 Ni19 2.621974 1_556
Ni10 Ni8 2.693810 1_555
Ni10 Ni9 2.739414 1_556
Ni10 Ni5 2.739426 1_456
Ni11 Ni13 2.556278 1_555
Ni11 Ni15 2.556278 1_555
Ni11 Ni18 2.621974 1_554
Ni11 Ni6 2.693810 1_555
Ni11 Ni7 2.739414 1_554
Ni11 Ni3 2.739426 1_654
Ni12 Ni16 2.518393 1_555
Ni12 Ni14 2.518393 1_555
Ni12 Ni7 2.556278 1_555
Ni12 Ni4 2.556278 1_555
Ni12 Ni8 2.556278 1_555
Ni12 Ni19 2.591387 1_556
Ni12 Ni20 2.591387 1_555
Ni13 Ni15 2.518393 1_555
Ni13 Ni17 2.518393 1_555
Ni13 Ni2 2.556278 1_555
Ni13 Ni6 2.556278 1_555
Ni13 Ni9 2.556278 1_555
Ni13 Ni21 2.591387 1_555
Ni13 Ni18 2.591387 1_554
Ni14 Ni16 2.518393 1_555
Ni14 Ni3 2.556278 1_555
Ni14 Ni8 2.556278 1_555
Ni14 Ni19 2.591379 1_556
Ni14 Ni20 2.591379 1_555
Ni15 Ni17 2.518393 1_555
Ni15 Ni5 2.556278 1_555
Ni15 Ni6 2.556278 1_555
Ni15 Ni18 2.591379 1_554
Ni15 Ni21 2.591379 1_555
Ni16 Ni3 2.556278 1_555
Ni16 Ni4 2.556278 1_555
Ni16 Ni7 2.556278 1_555
Ni16 Ni19 2.591379 1_556
Ni16 Ni20 2.591379 1_555
Ni17 Ni5 2.556278 1_555
Ni17 Ni9 2.556278 1_555
Ni17 Ni2 2.556278 1_555
Ni17 Ni18 2.591379 1_554
Ni17 Ni21 2.591379 1_555
Ni18 Ni5 2.621960 1_556
Ni18 Ni9 2.621974 1_556
Ni19 Ni3 2.621960 1_554
Ni19 Ni7 2.621974 1_554
Ni20 Ni4 2.621974 1_555
Ni20 Ni8 2.621974 1_555
Ni21 Ni6 2.621974 1_555
Ge0 Ni13 2.314318 1_555
Ge0 Ni12 2.314318 1_554
Ge0 Ni18 2.378368 1_554
Ge0 Ni19 2.378368 1_555
Ge0 Ni10 2.560153 1_554
Ge0 Ni7 2.560153 1_554
Ge0 Ni11 2.560153 1_555
Ge0 Ni9 2.560153 1_555
Ge0 Lu4 3.057762 1_554
Ge0 Lu5 3.057762 1_555
Ge0 Lu2 3.057762 1_554
Ge0 Lu3 3.057762 1_555
Ge1 Ni15 2.314321 1_455
Ge1 Ni14 2.314321 1_554
Ge1 Ni19 2.378361 1_555
Ge1 Ni18 2.378361 1_454
Ge1 Ni3 2.560153 1_554
Ge1 Ni5 2.560153 1_455
Ge1 Ni10 2.560160 1_554
Ge1 Ni11 2.560160 1_455
Ge1 Lu5 3.057756 1_555
Ge1 Lu4 3.057756 1_454
Ge1 Lu0 3.057761 1_454
Ge1 Lu1 3.057761 1_555
Ge2 Ni12 2.314318 1_555
Ge2 Ni13 2.314318 1_555
Ge2 Ni20 2.378368 1_555
Ge2 Ni21 2.378368 1_555
Ge2 Ni4 2.560153 1_555
Ge2 Ni8 2.560153 1_555
Ge2 Ni2 2.560153 1_555
Ge2 Ni6 2.560153 1_555
Ge2 Lu4 3.057762 1_555
Ge2 Lu5 3.057762 1_555
Ge2 Lu2 3.057762 1_555
Ge2 Lu3 3.057762 1_555
Ge3 Ni16 2.314321 1_544
Ge3 Ni17 2.314321 1_555
Ge3 Ni19 2.378361 1_545
Ge3 Ni18 2.378361 1_554
Ge3 Ni5 2.560153 1_555
Ge3 Ni3 2.560153 1_544
Ge3 Ni7 2.560160 1_544
Ge3 Ni9 2.560160 1_555
Ge3 Lu3 3.057756 1_545
Ge3 Lu2 3.057756 1_554
Ge3 Lu0 3.057761 1_554
Ge3 Lu1 3.057761 1_545
Ge4 Ni15 2.314321 1_455
Ge4 Ni14 2.314321 1_555
Ge4 Ni21 2.378361 1_455
Ge4 Ni20 2.378361 1_555
Ge4 Ni1 2.560153 1_555
Ge4 Ni0 2.560153 1_455
Ge4 Ni6 2.560160 1_455
Ge4 Ni8 2.560160 1_555
Ge4 Lu5 3.057756 1_555
Ge4 Lu4 3.057756 1_455
Ge4 Lu0 3.057761 1_455
Ge4 Lu1 3.057761 1_555
Ge5 Ni16 2.314321 1_545
Ge5 Ni17 2.314321 1_555
Ge5 Ni21 2.378361 1_555
Ge5 Ni20 2.378361 1_545
Ge5 Ni0 2.560153 1_555
Ge5 Ni1 2.560153 1_545
Ge5 Ni4 2.560160 1_545
Ge5 Ni2 2.560160 1_555
Ge5 Lu3 3.057756 1_545
Ge5 Lu2 3.057756 1_555
Ge5 Lu0 3.057761 1_555
Ge5 Lu1 3.057761 1_545
Ge6 Ni10 2.630024 1_555
Ge6 Ni8 2.630024 1_555
Ge6 Ni7 2.630024 1_445
Ge6 Ni4 2.630024 1_445
Ge6 Ni3 2.630030 1_545
Ge6 Ni1 2.630030 1_545
Ge6 Lu0 2.788901 1_455
Ge6 Lu4 2.788908 1_445
Ge6 Lu2 2.788908 1_555
Ge7 Ni9 2.630024 1_555
Ge7 Ni2 2.630024 1_555
Ge7 Ni6 2.630024 1_445
Ge7 Ni11 2.630024 1_445
Ge7 Ni5 2.630030 1_455
Ge7 Ni0 2.630030 1_455
Ge7 Lu1 2.788901 1_545
Ge7 Lu5 2.788908 1_555
Ge7 Lu3 2.788908 1_445
