# generated using pymatgen
data_Ba3NbAs3O
_symmetry_space_group_name_H-M   'P 1'
_cell_length_a   6.82036200
_cell_length_b   11.25460700
_cell_length_c   13.67749500
_cell_angle_alpha   90.00000000
_cell_angle_beta   90.00000000
_cell_angle_gamma   90.00000000
_symmetry_Int_Tables_number   1
_chemical_formula_structural   Ba3NbAs3O
_chemical_formula_sum   'Ba12 Nb4 As12 O4'
_cell_volume   1049.89127162
_cell_formula_units_Z   4
loop_
 _symmetry_equiv_pos_site_id
 _symmetry_equiv_pos_as_xyz
  1  'x, y, z'
loop_
 _atom_site_type_symbol
 _atom_site_label
 _atom_site_symmetry_multiplicity
 _atom_site_fract_x
 _atom_site_fract_y
 _atom_site_fract_z
 _atom_site_occupancy
  Ba  Ba0  1  0.24329900  0.04522000  0.13082600  1
  Ba  Ba1  1  0.25670100  0.54522000  0.63082600  1
  Ba  Ba2  1  0.24329900  0.45478000  0.13082600  1
  Ba  Ba3  1  0.74329900  0.04522000  0.36917400  1
  Ba  Ba4  1  0.75670100  0.95478000  0.86917400  1
  Ba  Ba5  1  0.74329900  0.45478000  0.36917400  1
  Ba  Ba6  1  0.75670100  0.54522000  0.86917400  1
  Ba  Ba7  1  0.25670100  0.95478000  0.63082600  1
  Ba  Ba8  1  0.27327200  0.25000000  0.87200700  1
  Ba  Ba9  1  0.77327200  0.25000000  0.62799300  1
  Ba  Ba10  1  0.72672800  0.75000000  0.12799300  1
  Ba  Ba11  1  0.22672800  0.75000000  0.37200600  1
  Nb  Nb0  1  0.66031800  0.75000000  0.54543700  1
  Nb  Nb1  1  0.33968200  0.25000000  0.45456300  1
  Nb  Nb2  1  0.16031800  0.75000000  0.95456300  1
  Nb  Nb3  1  0.83968200  0.25000000  0.04543700  1
  As  As0  1  0.27291700  0.25000000  0.63331300  1
  As  As1  1  0.77291700  0.25000000  0.86668700  1
  As  As2  1  0.72708300  0.75000000  0.36668700  1
  As  As3  1  0.22708300  0.75000000  0.13331300  1
  As  As4  1  0.73658000  0.44394200  0.11735500  1
  As  As5  1  0.23658000  0.44394200  0.38264500  1
  As  As6  1  0.26342000  0.94394200  0.88264500  1
  As  As7  1  0.76342000  0.55605800  0.61735500  1
  As  As8  1  0.26342000  0.55605800  0.88264500  1
  As  As9  1  0.76342000  0.94394200  0.61735500  1
  As  As10  1  0.73658000  0.05605800  0.11735500  1
  As  As11  1  0.23658000  0.05605800  0.38264500  1
  O  O0  1  0.11855500  0.25000000  0.05338000  1
  O  O1  1  0.61855500  0.25000000  0.44662000  1
  O  O2  1  0.88144500  0.75000000  0.94662000  1
  O  O3  1  0.38144500  0.75000000  0.55338000  1
loop_
_geom_bond_atom_site_label_1
_geom_bond_atom_site_label_2
_geom_bond_distance
_geom_bond_site_symmetry_2
Ba0 O0 2.675375 1_555
Ba1 O3 2.675375 1_555
Ba2 O0 2.675375 1_555
Ba3 O1 2.675375 1_555
Ba4 O2 2.675375 1_555
Ba5 O1 2.675375 1_555
Ba6 O2 2.675375 1_555
Ba7 O3 2.675375 1_555
Ba8 O0 2.695833 1_556
Ba9 O1 2.695833 1_555
Ba10 O2 2.695833 1_554
Ba11 O3 2.695845 1_555
Nb0 O3 1.905115 1_555
Nb1 O1 1.905115 1_555
Nb2 O2 1.905115 1_455
Nb3 O0 1.905115 1_655
As0 Nb1 2.486897 1_555
As0 Ba8 3.264737 1_555
As0 Ba7 3.324599 1_545
As0 Ba1 3.324599 1_555
As0 Ba9 3.408537 1_455
As0 Ba9 3.413378 1_555
As1 Nb3 2.486897 1_556
As1 Ba9 3.264737 1_555
As1 Ba4 3.324599 1_545
As1 Ba6 3.324599 1_555
As1 Ba8 3.408537 1_555
As1 Ba8 3.413378 1_655
As2 Nb0 2.486897 1_555
As2 Ba10 3.264737 1_555
As2 Ba5 3.324599 1_555
As2 Ba3 3.324599 1_565
As2 Ba11 3.408536 1_655
As2 Ba11 3.413378 1_555
As3 Nb2 2.486897 1_554
As3 Ba11 3.264723 1_555
As3 Ba2 3.324599 1_555
As3 Ba0 3.324599 1_565
As3 Ba10 3.408537 1_555
As3 Ba10 3.413378 1_455
As4 Nb3 2.495280 1_555
As4 Ba2 3.371604 1_555
As4 Ba5 3.446717 1_555
As4 Ba10 3.448289 1_555
As4 Ba2 3.463064 1_655
As4 Ba6 3.583388 1_554
As5 Nb1 2.495280 1_555
As5 Ba5 3.371604 1_455
As5 Ba2 3.446717 1_555
As5 Ba11 3.448290 1_555
As5 Ba5 3.463064 1_555
As5 Ba1 3.583388 1_555
As6 Nb2 2.495280 1_555
As6 Ba4 3.371604 1_555
As6 Ba7 3.446717 1_555
As6 Ba8 3.448289 1_565
As6 Ba4 3.463064 1_455
As6 Ba0 3.583388 1_566
As7 Nb0 2.495280 1_555
As7 Ba1 3.371604 1_655
As7 Ba6 3.446717 1_555
As7 Ba9 3.448289 1_555
As7 Ba1 3.463064 1_555
As7 Ba5 3.583388 1_555
As8 Nb2 2.495280 1_555
As8 Ba6 3.371604 1_555
As8 Ba1 3.446717 1_555
As8 Ba8 3.448289 1_555
As8 Ba6 3.463064 1_455
As8 Ba2 3.583388 1_556
As9 Nb0 2.495280 1_555
As9 Ba7 3.371604 1_655
As9 Ba4 3.446717 1_555
As9 Ba9 3.448289 1_565
As9 Ba7 3.463064 1_555
As9 Ba3 3.583388 1_565
As10 Nb3 2.495280 1_555
As10 Ba0 3.371604 1_555
As10 Ba3 3.446717 1_555
As10 Ba10 3.448289 1_545
As10 Ba0 3.463064 1_655
As10 Ba4 3.583388 1_544
As11 Nb1 2.495280 1_555
As11 Ba3 3.371604 1_455
As11 Ba0 3.446717 1_555
As11 Ba11 3.448290 1_545
As11 Ba3 3.463064 1_555
As11 Ba7 3.583388 1_545
