# generated using pymatgen
data_H7C2SN4ClO4
_symmetry_space_group_name_H-M   'P 1'
_cell_length_a   6.11679534
_cell_length_b   8.55407602
_cell_length_c   10.47872412
_cell_angle_alpha   106.66173433
_cell_angle_beta   85.90961557
_cell_angle_gamma   103.51480376
_symmetry_Int_Tables_number   1
_chemical_formula_structural   H7C2SN4ClO4
_chemical_formula_sum   'H14 C4 S2 N8 Cl2 O8'
_cell_volume   510.71344211
_cell_formula_units_Z   2
loop_
 _symmetry_equiv_pos_site_id
 _symmetry_equiv_pos_as_xyz
  1  'x, y, z'
loop_
 _atom_site_type_symbol
 _atom_site_label
 _atom_site_symmetry_multiplicity
 _atom_site_fract_x
 _atom_site_fract_y
 _atom_site_fract_z
 _atom_site_occupancy
  H  H0  1  0.96469000  0.53675100  0.30992700  1
  H  H1  1  0.03531000  0.46324900  0.69007300  1
  H  H2  1  0.16663100  0.36400500  0.21190300  1
  H  H3  1  0.83336900  0.63599500  0.78809700  1
  H  H4  1  0.37836100  0.40934100  0.09733900  1
  H  H5  1  0.62163900  0.59065900  0.90266100  1
  H  H6  1  0.68732400  0.85238200  0.41904000  1
  H  H7  1  0.31267600  0.14761800  0.58096000  1
  H  H8  1  0.71433200  0.65336000  0.42043300  1
  H  H9  1  0.28566800  0.34664000  0.57956700  1
  H  H10  1  0.93047400  0.99056100  0.27209600  1
  H  H11  1  0.06952600  0.00943900  0.72790400  1
  H  H12  1  0.13582500  0.88352700  0.18039300  1
  H  H13  1  0.86417500  0.11647300  0.81960700  1
  C  C0  1  0.20476200  0.59189000  0.17051100  1
  C  C1  1  0.79523800  0.40811000  0.82948900  1
  C  C2  1  0.93583400  0.76255000  0.29863900  1
  C  C3  1  0.06416600  0.23745000  0.70136100  1
  S  S0  1  0.33952600  0.71732000  0.07863400  1
  S  S1  1  0.66047400  0.28268000  0.92136600  1
  N  N0  1  0.03228700  0.62588400  0.26159700  1
  N  N1  1  0.96771300  0.37411600  0.73840300  1
  N  N2  1  0.25646600  0.44601200  0.16302900  1
  N  N3  1  0.74353400  0.55398800  0.83697100  1
  N  N4  1  0.77068000  0.75796600  0.38879900  1
  N  N5  1  0.22932000  0.24203400  0.61120100  1
  N  N6  1  0.00483500  0.89059200  0.24862100  1
  N  N7  1  0.99516500  0.10940800  0.75137900  1
  Cl  Cl0  1  0.67285800  0.23496600  0.34245000  1
  Cl  Cl1  1  0.32714200  0.76503400  0.65755000  1
  O  O0  1  0.73028100  0.41166400  0.42283200  1
  O  O1  1  0.26971900  0.58833600  0.57716800  1
  O  O2  1  0.86571000  0.20079700  0.25497200  1
  O  O3  1  0.13429000  0.79920300  0.74502800  1
  O  O4  1  0.47444000  0.20537600  0.26404900  1
  O  O5  1  0.52556000  0.79462400  0.73595100  1
  O  O6  1  0.63497800  0.12699000  0.43123300  1
  O  O7  1  0.36502200  0.87301000  0.56876700  1
loop_
_geom_bond_atom_site_label_1
_geom_bond_atom_site_label_2
_geom_bond_distance
_geom_bond_site_symmetry_2
H0 N0 1.026146 1_655
H1 N1 1.026146 1_455
H2 N2 1.020800 1_555
H3 N3 1.020800 1_555
H4 N2 1.020014 1_555
H5 N3 1.020014 1_555
H6 N4 1.017511 1_555
H7 N5 1.017511 1_555
H8 N4 1.019314 1_555
H9 N5 1.019314 1_555
H10 N6 1.021704 1_655
H11 N7 1.021704 1_455
H12 N6 1.035815 1_555
H12 S0 2.116596 1_555
H13 N7 1.035815 1_555
H13 S1 2.116596 1_555
C0 N2 1.337206 1_555
C0 N0 1.396120 1_555
C0 S0 1.680282 1_555
C1 N3 1.337206 1_555
C1 N1 1.396120 1_555
C1 S1 1.680282 1_555
C2 N6 1.316835 1_655
C2 N4 1.334622 1_555
C2 N0 1.376559 1_655
C3 N7 1.316835 1_455
C3 N5 1.334622 1_555
C3 N1 1.376559 1_455
Cl0 O4 1.446182 1_555
Cl0 O6 1.460917 1_555
Cl0 O2 1.473256 1_555
Cl0 O0 1.476971 1_555
Cl1 O5 1.446182 1_555
Cl1 O7 1.460917 1_555
Cl1 O3 1.473256 1_555
Cl1 O1 1.476971 1_555
