# generated using pymatgen
data_Ca3UN4
_symmetry_space_group_name_H-M   'P 1'
_cell_length_a   6.04168098
_cell_length_b   6.04173014
_cell_length_c   4.88407232
_cell_angle_alpha   66.15868795
_cell_angle_beta   66.15974280
_cell_angle_gamma   47.68156926
_symmetry_Int_Tables_number   1
_chemical_formula_structural   Ca3UN4
_chemical_formula_sum   'Ca3 U1 N4'
_cell_volume   118.25296487
_cell_formula_units_Z   1
loop_
 _symmetry_equiv_pos_site_id
 _symmetry_equiv_pos_as_xyz
  1  'x, y, z'
loop_
 _atom_site_type_symbol
 _atom_site_label
 _atom_site_symmetry_multiplicity
 _atom_site_fract_x
 _atom_site_fract_y
 _atom_site_fract_z
 _atom_site_occupancy
  Ca  Ca0  1  0.74696478  0.75303522  0.75303522  1
  Ca  Ca1  1  0.24696478  0.25303522  0.25303522  1
  Ca  Ca2  1  0.49744466  0.50255534  0.50255534  1
  U  U0  1  0.99754865  0.00245135  0.00245135  1
  N  N0  1  0.99766773  0.00233227  0.50423466  1
  N  N1  1  0.19875384  0.20517479  0.80124616  1
  N  N2  1  0.49576534  0.50423466  0.00233227  1
  N  N3  1  0.79482521  0.80124616  0.20517479  1
loop_
_geom_bond_atom_site_label_1
_geom_bond_atom_site_label_2
_geom_bond_distance
_geom_bond_site_symmetry_2
Ca0 N0 2.478675 1_565
Ca0 N2 2.478675 1_556
Ca0 N1 2.487204 1_655
Ca0 N3 2.487204 1_555
Ca0 N3 2.488884 1_556
Ca0 N1 2.488884 1_565
Ca1 N2 2.478675 1_555
Ca1 N0 2.478675 1_455
Ca1 N1 2.487204 1_554
Ca1 N3 2.487204 1_545
Ca1 N1 2.488884 1_555
Ca1 N3 2.488884 1_455
Ca2 N2 2.440961 1_556
Ca2 N0 2.440961 1_465
Ca2 N2 2.443139 1_555
Ca2 N0 2.443139 1_555
Ca2 N3 2.954926 1_555
Ca2 N1 2.954926 1_555
N0 U0 2.433326 1_556
N0 U0 2.450746 1_555
N1 U0 2.002415 1_456
N2 U0 2.433326 1_465
N2 U0 2.450746 1_555
N3 U0 2.002415 1_565
