# generated using pymatgen
data_NbCo2Sn
_symmetry_space_group_name_H-M   'P 1'
_cell_length_a   6.40031200
_cell_length_b   6.40031200
_cell_length_c   11.84922400
_cell_angle_alpha   90.00000000
_cell_angle_beta   90.00000000
_cell_angle_gamma   90.00000000
_symmetry_Int_Tables_number   1
_chemical_formula_structural   NbCo2Sn
_chemical_formula_sum   'Nb8 Co16 Sn8'
_cell_volume   485.39153725
_cell_formula_units_Z   8
loop_
 _symmetry_equiv_pos_site_id
 _symmetry_equiv_pos_as_xyz
  1  'x, y, z'
loop_
 _atom_site_type_symbol
 _atom_site_label
 _atom_site_symmetry_multiplicity
 _atom_site_fract_x
 _atom_site_fract_y
 _atom_site_fract_z
 _atom_site_occupancy
  Nb  Nb0_0  1  0.00000000  0.00000000  0.00000000  1
  Nb  Nb0_1  1  0.00000000  0.00000000  0.50000000  1
  Nb  Nb0_2  1  0.00000000  0.50000000  0.00000000  1
  Nb  Nb0_3  1  0.00000000  0.50000000  0.50000000  1
  Nb  Nb0_4  1  0.50000000  0.00000000  0.00000000  1
  Nb  Nb0_5  1  0.50000000  0.00000000  0.50000000  1
  Nb  Nb0_6  1  0.50000000  0.50000000  0.00000000  1
  Nb  Nb0_7  1  0.50000000  0.50000000  0.50000000  1
  Co  Co0_0  1  0.25000000  0.25000000  0.11123900  1
  Co  Co0_1  1  0.25000000  0.25000000  0.61123900  1
  Co  Co0_2  1  0.25000000  0.75000000  0.11123900  1
  Co  Co0_3  1  0.25000000  0.75000000  0.61123900  1
  Co  Co0_4  1  0.75000000  0.25000000  0.11123900  1
  Co  Co0_5  1  0.75000000  0.25000000  0.61123900  1
  Co  Co0_6  1  0.75000000  0.75000000  0.11123900  1
  Co  Co0_7  1  0.75000000  0.75000000  0.61123900  1
  Co  Co1_0  1  0.25000000  0.25000000  0.38876100  1
  Co  Co1_1  1  0.25000000  0.25000000  0.88876100  1
  Co  Co1_2  1  0.25000000  0.75000000  0.38876100  1
  Co  Co1_3  1  0.25000000  0.75000000  0.88876100  1
  Co  Co1_4  1  0.75000000  0.25000000  0.38876100  1
  Co  Co1_5  1  0.75000000  0.25000000  0.88876100  1
  Co  Co1_6  1  0.75000000  0.75000000  0.38876100  1
  Co  Co1_7  1  0.75000000  0.75000000  0.88876100  1
  Sn  Sn0_0  1  0.00000000  0.00000000  0.25000000  1
  Sn  Sn0_1  1  0.00000000  0.00000000  0.75000000  1
  Sn  Sn0_2  1  0.00000000  0.50000000  0.25000000  1
  Sn  Sn0_3  1  0.00000000  0.50000000  0.75000000  1
  Sn  Sn0_4  1  0.50000000  0.00000000  0.25000000  1
  Sn  Sn0_5  1  0.50000000  0.00000000  0.75000000  1
  Sn  Sn0_6  1  0.50000000  0.50000000  0.25000000  1
  Sn  Sn0_7  1  0.50000000  0.50000000  0.75000000  1
loop_
_geom_bond_atom_site_label_1
_geom_bond_atom_site_label_2
_geom_bond_distance
_geom_bond_site_symmetry_2
Nb0_0 Sn0_0 2.962306 1_555
Nb0_0 Sn0_1 2.962306 1_554
Nb0_1 Sn0_0 2.962306 1_555
Nb0_1 Sn0_1 2.962306 1_555
Nb0_2 Sn0_2 2.962306 1_555
Nb0_2 Sn0_3 2.962306 1_554
Nb0_3 Sn0_2 2.962306 1_555
Nb0_3 Sn0_3 2.962306 1_555
Nb0_4 Sn0_4 2.962306 1_555
Nb0_4 Sn0_5 2.962306 1_554
Nb0_5 Sn0_4 2.962306 1_555
Nb0_5 Sn0_5 2.962306 1_555
Nb0_6 Sn0_6 2.962306 1_555
Nb0_6 Sn0_7 2.962306 1_554
Nb0_7 Sn0_6 2.962306 1_555
Nb0_7 Sn0_7 2.962306 1_555
Co0_0 Nb0_6 2.618755 1_555
Co0_0 Nb0_0 2.618755 1_555
Co0_0 Nb0_4 2.618755 1_555
Co0_0 Nb0_2 2.618755 1_555
Co0_0 Co1_1 2.636192 1_554
Co0_0 Sn0_4 2.797128 1_555
Co0_0 Sn0_2 2.797128 1_555
Co0_0 Sn0_6 2.797128 1_555
Co0_0 Sn0_0 2.797128 1_555
Co0_1 Nb0_3 2.618755 1_555
Co0_1 Nb0_7 2.618755 1_555
Co0_1 Nb0_1 2.618755 1_555
Co0_1 Nb0_5 2.618755 1_555
Co0_1 Co1_0 2.636192 1_555
Co0_1 Sn0_7 2.797128 1_555
Co0_1 Sn0_1 2.797128 1_555
Co0_1 Sn0_5 2.797128 1_555
Co0_1 Sn0_3 2.797128 1_555
Co0_2 Nb0_6 2.618755 1_555
Co0_2 Nb0_0 2.618755 1_565
Co0_2 Nb0_4 2.618755 1_565
Co0_2 Nb0_2 2.618755 1_555
Co0_2 Co1_3 2.636192 1_554
Co0_2 Sn0_0 2.797128 1_565
Co0_2 Sn0_4 2.797128 1_565
Co0_2 Sn0_2 2.797128 1_555
Co0_2 Sn0_6 2.797128 1_555
Co0_3 Nb0_3 2.618755 1_555
Co0_3 Nb0_7 2.618755 1_555
Co0_3 Nb0_1 2.618755 1_565
Co0_3 Nb0_5 2.618755 1_565
Co0_3 Co1_2 2.636192 1_555
Co0_3 Sn0_7 2.797128 1_555
Co0_3 Sn0_5 2.797128 1_565
Co0_3 Sn0_3 2.797128 1_555
Co0_3 Sn0_1 2.797128 1_565
Co0_4 Nb0_2 2.618755 1_655
Co0_4 Nb0_6 2.618755 1_555
Co0_4 Nb0_0 2.618755 1_655
Co0_4 Nb0_4 2.618755 1_555
Co0_4 Co1_5 2.636192 1_554
Co0_4 Sn0_2 2.797128 1_655
Co0_4 Sn0_4 2.797128 1_555
Co0_4 Sn0_0 2.797128 1_655
Co0_4 Sn0_6 2.797128 1_555
Co0_5 Nb0_1 2.618755 1_655
Co0_5 Nb0_7 2.618755 1_555
Co0_5 Nb0_3 2.618755 1_655
Co0_5 Nb0_5 2.618755 1_555
Co0_5 Co1_4 2.636192 1_555
Co0_5 Sn0_7 2.797128 1_555
Co0_5 Sn0_3 2.797128 1_655
Co0_5 Sn0_5 2.797128 1_555
Co0_5 Sn0_1 2.797128 1_655
Co0_6 Nb0_2 2.618755 1_655
Co0_6 Nb0_6 2.618755 1_555
Co0_6 Nb0_4 2.618755 1_565
Co0_6 Nb0_0 2.618755 1_665
Co0_6 Co1_7 2.636192 1_554
Co0_6 Sn0_2 2.797128 1_655
Co0_6 Sn0_4 2.797128 1_565
Co0_6 Sn0_0 2.797128 1_665
Co0_6 Sn0_6 2.797128 1_555
Co0_7 Nb0_1 2.618755 1_665
Co0_7 Nb0_7 2.618755 1_555
Co0_7 Nb0_3 2.618755 1_655
Co0_7 Nb0_5 2.618755 1_565
Co0_7 Co1_6 2.636192 1_555
Co0_7 Sn0_7 2.797128 1_555
Co0_7 Sn0_1 2.797128 1_665
Co0_7 Sn0_5 2.797128 1_565
Co0_7 Sn0_3 2.797128 1_655
Co1_0 Nb0_1 2.618755 1_555
Co1_0 Nb0_5 2.618755 1_555
Co1_0 Nb0_3 2.618755 1_555
Co1_0 Nb0_7 2.618755 1_555
Co1_0 Sn0_0 2.797128 1_555
Co1_0 Sn0_4 2.797128 1_555
Co1_0 Sn0_2 2.797128 1_555
Co1_0 Sn0_6 2.797128 1_555
Co1_1 Nb0_0 2.618755 1_556
Co1_1 Nb0_6 2.618755 1_556
Co1_1 Nb0_4 2.618755 1_556
Co1_1 Nb0_2 2.618755 1_556
Co1_1 Sn0_5 2.797128 1_555
Co1_1 Sn0_3 2.797128 1_555
Co1_1 Sn0_1 2.797128 1_555
Co1_1 Sn0_7 2.797128 1_555
Co1_2 Nb0_1 2.618755 1_565
Co1_2 Nb0_5 2.618755 1_565
Co1_2 Nb0_3 2.618755 1_555
Co1_2 Nb0_7 2.618755 1_555
Co1_2 Sn0_0 2.797128 1_565
Co1_2 Sn0_4 2.797128 1_565
Co1_2 Sn0_2 2.797128 1_555
Co1_2 Sn0_6 2.797128 1_555
Co1_3 Nb0_0 2.618755 1_566
Co1_3 Nb0_6 2.618755 1_556
Co1_3 Nb0_4 2.618755 1_566
Co1_3 Nb0_2 2.618755 1_556
Co1_3 Sn0_3 2.797128 1_555
Co1_3 Sn0_1 2.797128 1_565
Co1_3 Sn0_5 2.797128 1_565
Co1_3 Sn0_7 2.797128 1_555
Co1_4 Nb0_3 2.618755 1_655
Co1_4 Nb0_1 2.618755 1_655
Co1_4 Nb0_5 2.618755 1_555
Co1_4 Nb0_7 2.618755 1_555
Co1_4 Sn0_2 2.797128 1_655
Co1_4 Sn0_4 2.797128 1_555
Co1_4 Sn0_0 2.797128 1_655
Co1_4 Sn0_6 2.797128 1_555
Co1_5 Nb0_6 2.618755 1_556
Co1_5 Nb0_0 2.618755 1_656
Co1_5 Nb0_4 2.618755 1_556
Co1_5 Nb0_2 2.618755 1_656
Co1_5 Sn0_1 2.797128 1_655
Co1_5 Sn0_3 2.797128 1_655
Co1_5 Sn0_5 2.797128 1_555
Co1_5 Sn0_7 2.797128 1_555
Co1_6 Nb0_3 2.618755 1_655
Co1_6 Nb0_5 2.618755 1_565
Co1_6 Nb0_1 2.618755 1_665
Co1_6 Nb0_7 2.618755 1_555
Co1_6 Sn0_2 2.797128 1_655
Co1_6 Sn0_4 2.797128 1_565
Co1_6 Sn0_0 2.797128 1_665
Co1_6 Sn0_6 2.797128 1_555
Co1_7 Nb0_6 2.618755 1_556
Co1_7 Nb0_4 2.618755 1_566
Co1_7 Nb0_2 2.618755 1_656
Co1_7 Nb0_0 2.618755 1_666
Co1_7 Sn0_3 2.797128 1_655
Co1_7 Sn0_7 2.797128 1_555
Co1_7 Sn0_5 2.797128 1_565
Co1_7 Sn0_1 2.797128 1_665
Sn0_0 Sn0_4 3.200156 1_455
Sn0_0 Sn0_4 3.200156 1_555
Sn0_0 Sn0_2 3.200156 1_545
Sn0_0 Sn0_2 3.200156 1_555
Sn0_1 Sn0_3 3.200156 1_545
Sn0_1 Sn0_5 3.200156 1_555
Sn0_1 Sn0_5 3.200156 1_455
Sn0_1 Sn0_3 3.200156 1_555
Sn0_2 Sn0_6 3.200156 1_555
Sn0_2 Sn0_6 3.200156 1_455
Sn0_3 Sn0_7 3.200156 1_555
Sn0_3 Sn0_7 3.200156 1_455
Sn0_4 Sn0_6 3.200156 1_545
Sn0_4 Sn0_6 3.200156 1_555
Sn0_5 Sn0_7 3.200156 1_545
Sn0_5 Sn0_7 3.200156 1_555
