# generated using pymatgen
data_Ce(FeSb3)4
_symmetry_space_group_name_H-M   'P 1'
_cell_length_a   7.92955030
_cell_length_b   7.92955030
_cell_length_c   7.92955030
_cell_angle_alpha   109.47122063
_cell_angle_beta   109.47122063
_cell_angle_gamma   109.47122063
_symmetry_Int_Tables_number   1
_chemical_formula_structural   Ce(FeSb3)4
_chemical_formula_sum   'Ce1 Fe4 Sb12'
_cell_volume   383.81662673
_cell_formula_units_Z   1
loop_
 _symmetry_equiv_pos_site_id
 _symmetry_equiv_pos_as_xyz
  1  'x, y, z'
loop_
 _atom_site_type_symbol
 _atom_site_label
 _atom_site_symmetry_multiplicity
 _atom_site_fract_x
 _atom_site_fract_y
 _atom_site_fract_z
 _atom_site_occupancy
  Ce  Ce0  1  0.00000000  0.00000000  0.00000000  1
  Fe  Fe0  1  0.50000000  0.00000000  0.00000000  1
  Fe  Fe1  1  0.00000000  0.00000000  0.50000000  1
  Fe  Fe2  1  0.00000000  0.50000000  0.00000000  1
  Fe  Fe3  1  0.50000000  0.50000000  0.50000000  1
  Sb  Sb0  1  0.16308100  0.82939800  0.66631800  1
  Sb  Sb1  1  0.83691900  0.17060200  0.33368200  1
  Sb  Sb2  1  0.16308100  0.49676300  0.33368200  1
  Sb  Sb3  1  0.83691900  0.50323700  0.66631800  1
  Sb  Sb4  1  0.66631800  0.16308100  0.82939800  1
  Sb  Sb5  1  0.33368200  0.83691900  0.17060200  1
  Sb  Sb6  1  0.33368200  0.16308100  0.49676300  1
  Sb  Sb7  1  0.66631800  0.83691900  0.50323700  1
  Sb  Sb8  1  0.82939800  0.66631800  0.16308100  1
  Sb  Sb9  1  0.17060200  0.33368200  0.83691900  1
  Sb  Sb10  1  0.49676300  0.33368200  0.16308100  1
  Sb  Sb11  1  0.50323700  0.66631800  0.83691900  1
loop_
_geom_bond_atom_site_label_1
_geom_bond_atom_site_label_2
_geom_bond_distance
_geom_bond_site_symmetry_2
Ce0 Sb3 3.400647 1_444
Ce0 Sb6 3.400647 1_555
Ce0 Sb7 3.400647 1_444
Ce0 Sb2 3.400647 1_555
Ce0 Sb11 3.400647 1_444
Ce0 Sb10 3.400647 1_555
Ce0 Sb9 3.400650 1_554
Ce0 Sb5 3.400650 1_545
Ce0 Sb8 3.400650 1_445
Ce0 Sb1 3.400650 1_455
Ce0 Sb0 3.400650 1_544
Ce0 Sb4 3.400650 1_454
Fe0 Sb1 2.541707 1_555
Fe0 Sb0 2.541707 1_544
Fe0 Sb10 2.541708 1_555
Fe0 Sb11 2.541708 1_544
Fe0 Sb4 2.541715 1_554
Fe0 Sb5 2.541715 1_545
Fe1 Sb8 2.541707 1_445
Fe1 Sb9 2.541707 1_555
Fe1 Sb6 2.541708 1_555
Fe1 Sb7 2.541708 1_445
Fe1 Sb1 2.541715 1_455
Fe1 Sb0 2.541715 1_545
Fe2 Sb5 2.541707 1_555
Fe2 Sb4 2.541707 1_454
Fe2 Sb2 2.541708 1_555
Fe2 Sb3 2.541708 1_454
Fe2 Sb8 2.541715 1_455
Fe2 Sb9 2.541715 1_554
Fe3 Sb3 2.541708 1_555
Fe3 Sb7 2.541708 1_555
Fe3 Sb11 2.541708 1_555
Fe3 Sb10 2.541708 1_555
Fe3 Sb2 2.541708 1_555
Fe3 Sb6 2.541708 1_555
Sb0 Sb3 2.986418 1_455
Sb0 Sb2 3.045696 1_555
Sb1 Sb2 2.986418 1_655
Sb1 Sb3 3.045696 1_555
Sb4 Sb7 2.986418 1_545
Sb4 Sb6 3.045696 1_555
Sb5 Sb6 2.986418 1_565
Sb5 Sb7 3.045696 1_555
Sb10 Sb9 2.986418 1_554
Sb10 Sb8 3.045696 1_555
Sb11 Sb8 2.986418 1_556
Sb11 Sb9 3.045696 1_555
