# generated using pymatgen
data_Ba4Ga3Ge20
_symmetry_space_group_name_H-M   'P 1'
_cell_length_a   11.04858372
_cell_length_b   11.04858372
_cell_length_c   11.04858372
_cell_angle_alpha   90.00000000
_cell_angle_beta   90.00000000
_cell_angle_gamma   90.00000000
_symmetry_Int_Tables_number   1
_chemical_formula_structural   Ba4Ga3Ge20
_chemical_formula_sum   'Ba8 Ga6 Ge40'
_cell_volume   1348.71389750
_cell_formula_units_Z   2
loop_
 _symmetry_equiv_pos_site_id
 _symmetry_equiv_pos_as_xyz
  1  'x, y, z'
loop_
 _atom_site_type_symbol
 _atom_site_label
 _atom_site_symmetry_multiplicity
 _atom_site_fract_x
 _atom_site_fract_y
 _atom_site_fract_z
 _atom_site_occupancy
  Ba  Ba0  1  0.25000000  -0.00000000  0.50000000  1
  Ba  Ba1  1  0.75000000  -0.00000000  0.50000000  1
  Ba  Ba2  1  0.50000000  0.25000000  0.00000000  1
  Ba  Ba3  1  0.50000000  0.75000000  0.00000000  1
  Ba  Ba4  1  -0.00000000  0.50000000  0.25000000  1
  Ba  Ba5  1  -0.00000000  0.50000000  0.75000000  1
  Ba  Ba6  1  0.00000000  -0.00000000  0.00000000  1
  Ba  Ba7  1  0.50000000  0.50000000  0.50000000  1
  Ga  Ga0  1  0.25000000  0.50000000  0.00000000  1
  Ga  Ga1  1  0.75000000  0.50000000  0.00000000  1
  Ga  Ga2  1  -0.00000000  0.25000000  0.50000000  1
  Ga  Ga3  1  -0.00000000  0.75000000  0.50000000  1
  Ga  Ga4  1  0.50000000  -0.00000000  0.25000000  1
  Ga  Ga5  1  0.50000000  -0.00000000  0.75000000  1
  Ge  Ge0  1  0.00000000  0.11861497  0.30861844  1
  Ge  Ge1  1  -0.00000000  0.88138503  0.69138156  1
  Ge  Ge2  1  0.00000000  0.88138503  0.30861844  1
  Ge  Ge3  1  0.00000000  0.11861497  0.69138156  1
  Ge  Ge4  1  0.30861844  -0.00000000  0.11861497  1
  Ge  Ge5  1  0.61861497  0.50000000  0.19138156  1
  Ge  Ge6  1  0.69138156  -0.00000000  0.88138503  1
  Ge  Ge7  1  0.38138503  0.50000000  0.80861844  1
  Ge  Ge8  1  0.30861844  -0.00000000  0.88138503  1
  Ge  Ge9  1  0.38138503  0.50000000  0.19138156  1
  Ge  Ge10  1  0.69138156  -0.00000000  0.11861497  1
  Ge  Ge11  1  0.61861497  0.50000000  0.80861844  1
  Ge  Ge12  1  0.11861497  0.30861844  0.00000000  1
  Ge  Ge13  1  0.50000000  0.80861844  0.38138503  1
  Ge  Ge14  1  0.88138503  0.69138156  0.00000000  1
  Ge  Ge15  1  0.50000000  0.19138156  0.61861497  1
  Ge  Ge16  1  0.11861497  0.69138156  0.00000000  1
  Ge  Ge17  1  0.50000000  0.19138156  0.38138503  1
  Ge  Ge18  1  0.88138503  0.30861844  0.00000000  1
  Ge  Ge19  1  0.50000000  0.80861844  0.61861497  1
  Ge  Ge20  1  0.19138156  0.61861497  0.50000000  1
  Ge  Ge21  1  0.80861844  0.38138503  0.50000000  1
  Ge  Ge22  1  0.19138156  0.38138503  0.50000000  1
  Ge  Ge23  1  0.80861844  0.61861497  0.50000000  1
  Ge  Ge24  1  0.18456116  0.18456116  0.18456116  1
  Ge  Ge25  1  0.81543884  0.81543884  0.81543884  1
  Ge  Ge26  1  0.81543884  0.81543884  0.18456116  1
  Ge  Ge27  1  0.81543884  0.18456116  0.81543884  1
  Ge  Ge28  1  0.68456116  0.68456116  0.31543884  1
  Ge  Ge29  1  0.18456116  0.18456116  0.81543884  1
  Ge  Ge30  1  0.18456116  0.81543884  0.18456116  1
  Ge  Ge31  1  0.31543884  0.31543884  0.68456116  1
  Ge  Ge32  1  0.18456116  0.81543884  0.81543884  1
  Ge  Ge33  1  0.31543884  0.31543884  0.31543884  1
  Ge  Ge34  1  0.81543884  0.18456116  0.18456116  1
  Ge  Ge35  1  0.68456116  0.68456116  0.68456116  1
  Ge  Ge36  1  0.68456116  0.31543884  0.68456116  1
  Ge  Ge37  1  0.31543884  0.68456116  0.31543884  1
  Ge  Ge38  1  0.31543884  0.68456116  0.68456116  1
  Ge  Ge39  1  0.68456116  0.31543884  0.31543884  1
loop_
_geom_bond_atom_site_label_1
_geom_bond_atom_site_label_2
_geom_bond_distance
_geom_bond_site_symmetry_2
Ba0 Ge19 3.717260 1_545
Ba0 Ge13 3.717260 1_545
Ba0 Ge2 3.717260 1_545
Ba0 Ge17 3.717260 1_555
Ba0 Ge15 3.717260 1_555
Ba0 Ge0 3.717260 1_555
Ba0 Ge3 3.717260 1_555
Ba0 Ge1 3.717260 1_545
Ba0 Ga5 3.906264 1_555
Ba0 Ga3 3.906264 1_545
Ba0 Ga4 3.906264 1_555
Ba0 Ga2 3.906264 1_555
Ba1 Ge19 3.717260 1_545
Ba1 Ge13 3.717260 1_545
Ba1 Ge17 3.717260 1_555
Ba1 Ge0 3.717260 1_655
Ba1 Ge2 3.717260 1_645
Ba1 Ge15 3.717260 1_555
Ba1 Ge1 3.717260 1_645
Ba1 Ge3 3.717260 1_655
Ba1 Ga5 3.906264 1_555
Ba1 Ga2 3.906264 1_655
Ba1 Ga4 3.906264 1_555
Ba1 Ga3 3.906264 1_645
Ba2 Ge11 3.717260 1_554
Ba2 Ge8 3.717260 1_554
Ba2 Ge5 3.717260 1_555
Ba2 Ge7 3.717260 1_554
Ba2 Ge9 3.717260 1_555
Ba2 Ge6 3.717260 1_554
Ba2 Ge4 3.717260 1_555
Ba2 Ge10 3.717260 1_555
Ba2 Ga1 3.906264 1_555
Ba2 Ga0 3.906264 1_555
Ba2 Ga5 3.906264 1_554
Ba2 Ga4 3.906264 1_555
Ba3 Ge11 3.717260 1_554
Ba3 Ge5 3.717260 1_555
Ba3 Ge8 3.717260 1_564
Ba3 Ge7 3.717260 1_554
Ba3 Ge9 3.717260 1_555
Ba3 Ge6 3.717260 1_564
Ba3 Ge4 3.717260 1_565
Ba3 Ge10 3.717260 1_565
Ba3 Ga1 3.906264 1_555
Ba3 Ga5 3.906264 1_564
Ba3 Ga0 3.906264 1_555
Ba3 Ga4 3.906264 1_565
Ba4 Ge23 3.717260 1_455
Ba4 Ge21 3.717260 1_455
Ba4 Ge18 3.717260 1_455
Ba4 Ge12 3.717260 1_555
Ba4 Ge20 3.717260 1_555
Ba4 Ge22 3.717260 1_555
Ba4 Ge16 3.717260 1_555
Ba4 Ge14 3.717260 1_455
Ba4 Ga1 3.906264 1_455
Ba4 Ga0 3.906264 1_555
Ba4 Ga3 3.906264 1_555
Ba4 Ga2 3.906264 1_555
Ba5 Ge23 3.717260 1_455
Ba5 Ge21 3.717260 1_455
Ba5 Ge18 3.717260 1_456
Ba5 Ge12 3.717260 1_556
Ba5 Ge20 3.717260 1_555
Ba5 Ge22 3.717260 1_555
Ba5 Ge16 3.717260 1_556
Ba5 Ge14 3.717260 1_456
Ba5 Ga1 3.906264 1_456
Ba5 Ga0 3.906264 1_556
Ba5 Ga3 3.906264 1_555
Ba5 Ga2 3.906264 1_555
Ba6 Ge25 3.531893 1_444
Ba6 Ge27 3.531893 1_454
Ba6 Ge32 3.531893 1_544
Ba6 Ge24 3.531893 1_555
Ba6 Ge26 3.531893 1_445
Ba6 Ge29 3.531893 1_554
Ba6 Ge30 3.531893 1_545
Ba6 Ge34 3.531893 1_455
Ba6 Ge6 3.652971 1_454
Ba6 Ge16 3.652971 1_545
Ba6 Ge1 3.652971 1_544
Ba6 Ge10 3.652971 1_455
Ba6 Ge3 3.652971 1_554
Ba6 Ge14 3.652971 1_445
Ba6 Ge4 3.652971 1_555
Ba6 Ge2 3.652971 1_545
Ba6 Ge8 3.652971 1_554
Ba6 Ge18 3.652971 1_455
Ba6 Ge0 3.652971 1_555
Ba6 Ge12 3.652971 1_555
Ba7 Ge28 3.531893 1_555
Ba7 Ge36 3.531893 1_555
Ba7 Ge39 3.531893 1_555
Ba7 Ge38 3.531893 1_555
Ba7 Ge35 3.531893 1_555
Ba7 Ge37 3.531893 1_555
Ba7 Ge31 3.531893 1_555
Ba7 Ge33 3.531893 1_555
Ba7 Ge22 3.652971 1_555
Ba7 Ge23 3.652971 1_555
Ba7 Ge13 3.652971 1_555
Ba7 Ge20 3.652971 1_555
Ba7 Ge9 3.652971 1_555
Ba7 Ge19 3.652971 1_555
Ba7 Ge21 3.652971 1_555
Ba7 Ge15 3.652971 1_555
Ba7 Ge5 3.652971 1_555
Ba7 Ge17 3.652971 1_555
Ba7 Ge11 3.652971 1_555
Ba7 Ge7 3.652971 1_555
Ga0 Ge7 2.564817 1_554
Ga0 Ge9 2.564817 1_555
Ga0 Ge12 2.564817 1_555
Ga0 Ge16 2.564817 1_555
Ga1 Ge11 2.564817 1_554
Ga1 Ge5 2.564817 1_555
Ga1 Ge18 2.564817 1_555
Ga1 Ge14 2.564817 1_555
Ga2 Ge21 2.564817 1_455
Ga2 Ge22 2.564817 1_555
Ga2 Ge0 2.564817 1_555
Ga2 Ge3 2.564817 1_555
Ga3 Ge23 2.564817 1_455
Ga3 Ge20 2.564817 1_555
Ga3 Ge2 2.564817 1_555
Ga3 Ge1 2.564817 1_555
Ga4 Ge13 2.564817 1_545
Ga4 Ge17 2.564817 1_555
Ga4 Ge4 2.564817 1_555
Ga4 Ge10 2.564817 1_555
Ga5 Ge19 2.564817 1_545
Ga5 Ge8 2.564817 1_555
Ga5 Ge15 2.564817 1_555
Ga5 Ge6 2.564817 1_555
Ge0 Ge34 2.562746 1_455
Ge0 Ge24 2.562746 1_555
Ge0 Ge2 2.621055 1_545
Ge1 Ge32 2.562746 1_555
Ge1 Ge25 2.562746 1_455
Ge1 Ge3 2.621055 1_565
Ge2 Ge30 2.562746 1_555
Ge2 Ge26 2.562746 1_455
Ge4 Ge8 2.621055 1_554
Ge5 Ge9 2.621055 1_555
Ge10 Ge26 2.562746 1_545
Ge10 Ge34 2.562746 1_555
Ge10 Ge6 2.621055 1_554
Ge11 Ge35 2.562746 1_555
Ge11 Ge36 2.562746 1_555
Ge11 Ge7 2.621055 1_555
Ge12 Ge24 2.562746 1_555
Ge12 Ge29 2.562746 1_554
Ge12 Ge18 2.621055 1_455
Ge13 Ge37 2.562746 1_555
Ge13 Ge28 2.562746 1_555
Ge13 Ge19 2.621055 1_555
Ge14 Ge25 2.562746 1_554
Ge14 Ge26 2.562746 1_555
Ge14 Ge16 2.621055 1_655
Ge15 Ge31 2.562746 1_555
Ge15 Ge36 2.562746 1_555
Ge15 Ge17 2.621055 1_555
Ge16 Ge32 2.562746 1_554
Ge16 Ge30 2.562746 1_555
Ge17 Ge39 2.562746 1_555
Ge17 Ge33 2.562746 1_555
Ge18 Ge27 2.562746 1_554
Ge18 Ge34 2.562746 1_555
Ge19 Ge38 2.562746 1_555
Ge19 Ge35 2.562746 1_555
Ge20 Ge37 2.562746 1_555
Ge20 Ge38 2.562746 1_555
Ge20 Ge22 2.621055 1_555
Ge21 Ge39 2.562746 1_555
Ge21 Ge36 2.562746 1_555
Ge21 Ge23 2.621055 1_555
Ge22 Ge33 2.562746 1_555
Ge22 Ge31 2.562746 1_555
Ge23 Ge28 2.562746 1_555
Ge23 Ge35 2.562746 1_555
Ge24 Ge33 2.504568 1_555
Ge24 Ge4 2.562746 1_555
Ge25 Ge35 2.504568 1_555
Ge25 Ge6 2.562746 1_565
Ge26 Ge28 2.504568 1_555
Ge27 Ge36 2.504568 1_555
Ge27 Ge3 2.562746 1_655
Ge27 Ge6 2.562746 1_555
Ge28 Ge5 2.562746 1_555
Ge29 Ge31 2.504568 1_555
Ge29 Ge3 2.562746 1_555
Ge29 Ge8 2.562746 1_555
Ge30 Ge37 2.504568 1_555
Ge30 Ge4 2.562746 1_565
Ge31 Ge7 2.562746 1_555
Ge32 Ge38 2.504568 1_555
Ge32 Ge8 2.562746 1_565
Ge33 Ge9 2.562746 1_555
Ge34 Ge39 2.504568 1_555
Ge37 Ge9 2.562746 1_555
Ge38 Ge7 2.562746 1_555
Ge39 Ge5 2.562746 1_555
