# generated using pymatgen
data_Cu2Ag5Se4NO15
_symmetry_space_group_name_H-M   'P 1'
_cell_length_a   5.20286261
_cell_length_b   7.34934634
_cell_length_c   10.63579095
_cell_angle_alpha   72.22502385
_cell_angle_beta   88.33143113
_cell_angle_gamma   86.90953483
_symmetry_Int_Tables_number   1
_chemical_formula_structural   Cu2Ag5Se4NO15
_chemical_formula_sum   'Cu2 Ag5 Se4 N1 O15'
_cell_volume   386.67591662
_cell_formula_units_Z   1
loop_
 _symmetry_equiv_pos_site_id
 _symmetry_equiv_pos_as_xyz
  1  'x, y, z'
loop_
 _atom_site_type_symbol
 _atom_site_label
 _atom_site_symmetry_multiplicity
 _atom_site_fract_x
 _atom_site_fract_y
 _atom_site_fract_z
 _atom_site_occupancy
  Cu  Cu0  1  0.49854400  0.99869800  0.50022600  1
  Cu  Cu1  1  0.99926600  0.99981300  0.00027900  1
  Ag  Ag0  1  0.04736400  0.57120300  0.68316500  1
  Ag  Ag1  1  0.95369500  0.41584900  0.31045700  1
  Ag  Ag2  1  0.99986100  0.49971600  0.99997200  1
  Ag  Ag3  1  0.49394500  0.70130300  0.86374600  1
  Ag  Ag4  1  0.50606000  0.30096900  0.13506900  1
  Se  Se0  1  0.98883900  0.03061000  0.67379200  1
  Se  Se1  1  0.00724200  0.96952000  0.32523700  1
  Se  Se2  1  0.52667200  0.25369000  0.83398800  1
  Se  Se3  1  0.47672400  0.74612300  0.16612500  1
  N  N0  1  0.51269600  0.51052400  0.50261400  1
  O  O0  1  0.80664200  0.89008900  0.60774700  1
  O  O1  1  0.19031700  0.10894800  0.39194600  1
  O  O2  1  0.29267500  0.92230200  0.66571500  1
  O  O3  1  0.70575500  0.08180500  0.33562600  1
  O  O4  1  0.21673700  0.30476400  0.87965600  1
  O  O5  1  0.78524300  0.69880900  0.11723100  1
  O  O6  1  0.64320800  0.48065800  0.77372800  1
  O  O7  1  0.36662600  0.51789200  0.22956900  1
  O  O8  1  0.67860800  0.16760100  0.98856600  1
  O  O9  1  0.31907600  0.83074900  0.01314700  1
  O  O10  1  0.91673300  0.92168900  0.83970800  1
  O  O11  1  0.08037900  0.08064500  0.15976200  1
  O  O12  1  0.46093800  0.33707300  0.54790100  1
  O  O13  1  0.73388400  0.56112400  0.45413000  1
  O  O14  1  0.34497400  0.64213300  0.50639800  1
loop_
_geom_bond_atom_site_label_1
_geom_bond_atom_site_label_2
_geom_bond_distance
_geom_bond_site_symmetry_2
Cu0 O3 1.976955 1_565
Cu0 O2 1.977920 1_555
Cu0 O0 1.981398 1_555
Cu0 O1 1.988028 1_565
Cu1 O8 2.003989 1_564
Cu1 O9 2.004427 1_655
Cu1 O11 2.022908 1_665
Cu1 O10 2.024501 1_554
Cu1 O5 2.487131 1_555
Cu1 O4 2.526345 1_664
Ag0 O6 2.331052 1_455
Ag0 O14 2.350127 1_555
Ag0 O0 2.509730 1_455
Ag0 O4 2.530017 1_555
Ag1 O13 2.354903 1_555
Ag1 O7 2.364412 1_655
Ag1 O1 2.433794 1_655
Ag1 O5 2.572008 1_555
Ag1 O3 2.771808 1_555
Ag2 O5 2.408335 1_556
Ag2 O4 2.413421 1_655
Ag3 O6 2.217689 1_555
Ag3 O9 2.236781 1_556
Ag3 O2 2.455023 1_555
Ag3 O10 2.761534 1_555
Ag4 O7 2.211163 1_555
Ag4 O8 2.225024 1_554
Ag4 O3 2.464710 1_555
Ag4 O11 2.772946 1_555
N0 O12 1.258604 1_555
N0 O13 1.273998 1_555
N0 O14 1.276470 1_555
O0 Se0 1.745231 1_565
O1 Se1 1.746193 1_545
O2 Se0 1.743023 1_465
O3 Se1 1.749199 1_645
O4 Se2 1.725563 1_555
O5 Se3 1.723241 1_555
O6 Se2 1.730469 1_555
O7 Se3 1.728291 1_555
O8 Se2 1.764876 1_555
O9 Se3 1.764005 1_555
O10 Se0 1.739792 1_565
O11 Se1 1.739586 1_545
