# generated using pymatgen
data_LiMg15
_symmetry_space_group_name_H-M   'P 1'
_cell_length_a   6.32937042
_cell_length_b   6.32937042
_cell_length_c   10.27295800
_cell_angle_alpha   90.00000000
_cell_angle_beta   90.00000000
_cell_angle_gamma   120.00008797
_symmetry_Int_Tables_number   1
_chemical_formula_structural   LiMg15
_chemical_formula_sum   'Li1 Mg15'
_cell_volume   356.40745930
_cell_formula_units_Z   1
loop_
 _symmetry_equiv_pos_site_id
 _symmetry_equiv_pos_as_xyz
  1  'x, y, z'
loop_
 _atom_site_type_symbol
 _atom_site_label
 _atom_site_symmetry_multiplicity
 _atom_site_fract_x
 _atom_site_fract_y
 _atom_site_fract_z
 _atom_site_occupancy
  Li  Li0  1  0.00000000  0.00000000  0.00000000  1
  Mg  Mg0  1  0.00000000  0.00000000  0.50000000  1
  Mg  Mg1  1  0.00026700  0.50013300  0.00000000  1
  Mg  Mg2  1  0.00005300  0.50002600  0.50000000  1
  Mg  Mg3  1  0.49986700  0.50013300  0.00000000  1
  Mg  Mg4  1  0.49997400  0.50002600  0.50000000  1
  Mg  Mg5  1  0.49986700  0.99973300  0.00000000  1
  Mg  Mg6  1  0.49997400  0.99994700  0.50000000  1
  Mg  Mg7  1  0.16611000  0.33222000  0.75012900  1
  Mg  Mg8  1  0.16611000  0.33222000  0.24987100  1
  Mg  Mg9  1  0.16611000  0.83389000  0.75012900  1
  Mg  Mg10  1  0.16611000  0.83389000  0.24987100  1
  Mg  Mg11  1  0.66778000  0.83389000  0.75012900  1
  Mg  Mg12  1  0.66778000  0.83389000  0.24987100  1
  Mg  Mg13  1  0.66666700  0.33333300  0.74964700  1
  Mg  Mg14  1  0.66666700  0.33333300  0.25035300  1
loop_
_geom_bond_atom_site_label_1
_geom_bond_atom_site_label_2
_geom_bond_distance
_geom_bond_site_symmetry_2
Li0 Mg8 3.147251 1_555
Li0 Mg12 3.147251 1_445
Li0 Mg11 3.147251 1_444
Li0 Mg7 3.147251 1_554
Li0 Mg10 3.147253 1_545
Li0 Mg9 3.147253 1_544
Li0 Mg3 3.164681 1_555
Li0 Mg3 3.164681 1_445
Li0 Mg1 3.164682 1_555
Li0 Mg5 3.164682 1_445
Li0 Mg5 3.164689 1_545
Li0 Mg1 3.164689 1_545
Mg0 Mg7 3.149413 1_555
Mg0 Mg11 3.149413 1_445
Mg0 Mg8 3.149413 1_555
Mg0 Mg12 3.149413 1_445
Mg0 Mg9 3.149415 1_545
Mg0 Mg10 3.149415 1_545
Mg0 Mg4 3.164681 1_445
Mg0 Mg4 3.164681 1_555
Mg0 Mg6 3.164682 1_445
Mg0 Mg2 3.164682 1_555
Mg0 Mg2 3.164688 1_545
Mg0 Mg6 3.164688 1_545
Mg1 Mg8 3.152139 1_555
Mg1 Mg7 3.152139 1_554
Mg1 Mg10 3.152140 1_555
Mg1 Mg9 3.152140 1_554
Mg1 Mg14 3.155668 1_455
Mg1 Mg13 3.155668 1_454
Mg1 Mg5 3.162149 1_555
Mg1 Mg3 3.162153 1_555
Mg1 Mg5 3.167213 1_445
Mg1 Mg3 3.167217 1_455
Mg2 Mg7 3.154635 1_555
Mg2 Mg8 3.154635 1_555
Mg2 Mg9 3.154637 1_555
Mg2 Mg6 3.164181 1_555
Mg2 Mg4 3.164185 1_555
Mg2 Mg6 3.165181 1_445
Mg2 Mg4 3.165185 1_455
Mg3 Mg8 3.152140 1_555
Mg3 Mg7 3.152140 1_554
Mg3 Mg5 3.162153 1_555
Mg3 Mg5 3.167217 1_545
Mg4 Mg7 3.154637 1_555
Mg4 Mg8 3.154637 1_555
Mg4 Mg6 3.164185 1_555
Mg4 Mg6 3.165185 1_545
Mg5 Mg9 3.152140 1_554
Mg6 Mg9 3.154637 1_555
Mg7 Mg9 3.154115 1_545
Mg7 Mg9 3.175255 1_555
Mg10 Mg5 3.152140 1_555
Mg10 Mg12 3.154115 1_455
Mg10 Mg8 3.154115 1_565
Mg10 Mg6 3.154637 1_555
Mg10 Mg2 3.154637 1_555
Mg10 Mg14 3.164691 1_455
Mg10 Mg14 3.164691 1_565
Mg10 Mg8 3.175255 1_555
Mg10 Mg12 3.175255 1_555
Mg11 Mg5 3.152139 1_556
Mg11 Mg3 3.152140 1_556
Mg11 Mg7 3.154111 1_665
Mg11 Mg9 3.154115 1_655
Mg11 Mg6 3.154635 1_555
Mg11 Mg4 3.154637 1_555
Mg11 Mg13 3.164692 1_565
Mg11 Mg13 3.164698 1_555
Mg11 Mg7 3.175251 1_555
Mg11 Mg9 3.175255 1_555
Mg12 Mg5 3.152139 1_555
Mg12 Mg3 3.152140 1_555
Mg12 Mg8 3.154111 1_665
Mg12 Mg6 3.154635 1_555
Mg12 Mg4 3.154637 1_555
Mg12 Mg14 3.164692 1_565
Mg12 Mg14 3.164698 1_555
Mg12 Mg8 3.175251 1_555
Mg13 Mg2 3.149079 1_655
Mg13 Mg6 3.149079 1_545
Mg13 Mg4 3.149081 1_555
Mg13 Mg5 3.155668 1_546
Mg13 Mg3 3.155670 1_556
Mg13 Mg9 3.164691 1_545
Mg13 Mg9 3.164691 1_655
Mg13 Mg7 3.164692 1_655
Mg13 Mg7 3.164698 1_555
Mg14 Mg2 3.149079 1_655
Mg14 Mg6 3.149079 1_545
Mg14 Mg4 3.149081 1_555
Mg14 Mg5 3.155668 1_545
Mg14 Mg3 3.155670 1_555
Mg14 Mg8 3.164692 1_655
Mg14 Mg8 3.164698 1_555
