# generated using pymatgen
data_DyMg2Cr3S8
_symmetry_space_group_name_H-M   'P 1'
_cell_length_a   7.42859964
_cell_length_b   7.42925466
_cell_length_c   7.42975364
_cell_angle_alpha   59.46394959
_cell_angle_beta   59.46151521
_cell_angle_gamma   59.46029266
_symmetry_Int_Tables_number   1
_chemical_formula_structural   DyMg2Cr3S8
_chemical_formula_sum   'Dy1 Mg2 Cr3 S8'
_cell_volume   286.39336270
_cell_formula_units_Z   1
loop_
 _symmetry_equiv_pos_site_id
 _symmetry_equiv_pos_as_xyz
  1  'x, y, z'
loop_
 _atom_site_type_symbol
 _atom_site_label
 _atom_site_symmetry_multiplicity
 _atom_site_fract_x
 _atom_site_fract_y
 _atom_site_fract_z
 _atom_site_occupancy
  Dy  Dy0  1  0.50001500  0.50004000  0.49996100  1
  Mg  Mg0  1  0.87549500  0.87547900  0.87545200  1
  Mg  Mg1  1  0.12450100  0.12453000  0.12447800  1
  Cr  Cr0  1  0.50004100  0.49993800  0.00002100  1
  Cr  Cr1  1  0.00000800  0.50001900  0.50002800  1
  Cr  Cr2  1  0.49996100  0.99998800  0.50001900  1
  S  S0  1  0.73621000  0.73626100  0.73628600  1
  S  S1  1  0.24483400  0.24486900  0.72032800  1
  S  S2  1  0.24486500  0.72033000  0.24482900  1
  S  S3  1  0.72035700  0.24482600  0.24483300  1
  S  S4  1  0.75519300  0.27965100  0.75515500  1
  S  S5  1  0.27963500  0.75514100  0.75521000  1
  S  S6  1  0.26367700  0.26374500  0.26376400  1
  S  S7  1  0.75521100  0.75517900  0.27963700  1
loop_
_geom_bond_atom_site_label_1
_geom_bond_atom_site_label_2
_geom_bond_distance
_geom_bond_site_symmetry_2
Dy0 S2 2.685236 1_555
Dy0 S7 2.685444 1_555
Dy0 S1 2.685505 1_555
Dy0 S3 2.685581 1_555
Dy0 S5 2.685596 1_555
Dy0 S4 2.685662 1_555
Mg0 S5 2.443122 1_655
Mg0 S4 2.443601 1_565
Mg0 S7 2.443895 1_556
Mg0 S0 2.543800 1_555
Mg1 S3 2.443109 1_455
Mg1 S1 2.443624 1_554
Mg1 S2 2.443716 1_545
Mg1 S6 2.543849 1_555
Cr0 S3 2.439030 1_555
Cr0 S4 2.439172 1_554
Cr0 S2 2.439395 1_555
Cr0 S5 2.439501 1_554
Cr0 S0 2.478091 1_554
Cr0 S6 2.478417 1_555
Cr1 S1 2.439003 1_555
Cr1 S2 2.439221 1_555
Cr1 S4 2.439251 1_455
Cr1 S7 2.439301 1_455
Cr1 S0 2.478179 1_455
Cr1 S6 2.478300 1_555
Cr2 S5 2.439260 1_555
Cr2 S1 2.439330 1_565
Cr2 S7 2.439368 1_555
Cr2 S3 2.439553 1_565
Cr2 S0 2.478227 1_555
Cr2 S6 2.478356 1_565
