# generated using pymatgen
data_CuH6S2(NO4)2
_symmetry_space_group_name_H-M   'P 1'
_cell_length_a   6.46598793
_cell_length_b   7.71842135
_cell_length_c   12.86827000
_cell_angle_alpha   90.00000000
_cell_angle_beta   90.00000000
_cell_angle_gamma   117.12965846
_symmetry_Int_Tables_number   1
_chemical_formula_structural   CuH6S2(NO4)2
_chemical_formula_sum   'Cu2 H12 S4 N4 O16'
_cell_volume   571.56057043
_cell_formula_units_Z   2
loop_
 _symmetry_equiv_pos_site_id
 _symmetry_equiv_pos_as_xyz
  1  'x, y, z'
loop_
 _atom_site_type_symbol
 _atom_site_label
 _atom_site_symmetry_multiplicity
 _atom_site_fract_x
 _atom_site_fract_y
 _atom_site_fract_z
 _atom_site_occupancy
  Cu  Cu0  1  0.50000000  0.00000000  0.00000000  1
  Cu  Cu1  1  0.50000000  0.50000000  0.50000000  1
  H  H0  1  0.34262100  0.99808300  0.90325500  1
  H  H1  1  0.65737900  0.00191700  0.09674500  1
  H  H2  1  0.65737900  0.50191700  0.40325500  1
  H  H3  1  0.34262100  0.49808300  0.59674500  1
  H  H4  1  0.73289600  0.03392100  0.95443400  1
  H  H5  1  0.26710400  0.96607900  0.04556600  1
  H  H6  1  0.26710400  0.46607900  0.45443400  1
  H  H7  1  0.73289600  0.53392100  0.54556600  1
  H  H8  1  0.47732600  0.52459900  0.62359400  1
  H  H9  1  0.52267400  0.47540100  0.37640600  1
  H  H10  1  0.52267400  0.97540100  0.12359400  1
  H  H11  1  0.47732600  0.02459900  0.87640600  1
  S  S0  1  0.79253300  0.57958700  0.86755800  1
  S  S1  1  0.20746700  0.42041300  0.13244200  1
  S  S2  1  0.20746700  0.92041300  0.36755800  1
  S  S3  1  0.79253300  0.07958700  0.63244200  1
  N  N0  1  0.75021900  0.55722400  0.14556700  1
  N  N1  1  0.24978100  0.44277600  0.85443300  1
  N  N2  1  0.24978100  0.94277600  0.64556700  1
  N  N3  1  0.75021900  0.05722400  0.35443300  1
  O  O0  1  0.67892200  0.89853300  0.57457100  1
  O  O1  1  0.32107800  0.10146700  0.42542900  1
  O  O2  1  0.32107800  0.60146700  0.07457100  1
  O  O3  1  0.67892200  0.39853300  0.92542900  1
  O  O4  1  0.88298400  0.57670100  0.76491600  1
  O  O5  1  0.11701600  0.42329900  0.23508400  1
  O  O6  1  0.11701600  0.92329900  0.26491600  1
  O  O7  1  0.88298400  0.07670100  0.73508400  1
  O  O8  1  0.88513100  0.76113500  0.92455400  1
  O  O9  1  0.11486900  0.23886500  0.07544600  1
  O  O10  1  0.11486900  0.73886500  0.42455400  1
  O  O11  1  0.88513100  0.26113500  0.57544600  1
  O  O12  1  0.41574200  0.56130100  0.81225500  1
  O  O13  1  0.58425800  0.43869900  0.18774500  1
  O  O14  1  0.58425800  0.93869900  0.31225500  1
  O  O15  1  0.41574200  0.06130100  0.68774500  1
loop_
_geom_bond_atom_site_label_1
_geom_bond_atom_site_label_2
_geom_bond_distance
_geom_bond_site_symmetry_2
Cu0 H5 1.523327 1_545
Cu0 H4 1.523327 1_554
Cu0 H0 1.603713 1_544
Cu0 H1 1.603713 1_555
Cu0 H11 1.616302 1_554
Cu0 H10 1.616302 1_545
Cu1 H7 1.523327 1_555
Cu1 H6 1.523327 1_555
Cu1 H3 1.603713 1_555
Cu1 H2 1.603713 1_555
Cu1 H9 1.616302 1_555
Cu1 H8 1.616302 1_555
H0 H11 0.870244 1_565
H1 H10 0.870244 1_545
H2 H9 0.870244 1_555
H3 H8 0.870244 1_555
N0 O13 1.178014 1_555
N1 O12 1.178014 1_555
N2 O15 1.178014 1_565
N3 O14 1.178014 1_545
O0 S3 1.452875 1_565
O1 S2 1.452875 1_545
O2 S1 1.452875 1_555
O3 S0 1.452875 1_555
O4 S0 1.448797 1_555
O5 S1 1.448797 1_555
O6 S2 1.448797 1_555
O7 S3 1.448797 1_555
O8 S0 1.447340 1_555
O9 S1 1.447340 1_555
O10 S2 1.447340 1_555
O11 S3 1.447340 1_555
