# generated using pymatgen
data_Mg9Si5
_symmetry_space_group_name_H-M   'P 1'
_cell_length_a   7.37363300
_cell_length_b   7.41636531
_cell_length_c   12.35479432
_cell_angle_alpha   76.35472573
_cell_angle_beta   81.83119039
_cell_angle_gamma   60.34923815
_symmetry_Int_Tables_number   1
_chemical_formula_structural   Mg9Si5
_chemical_formula_sum   'Mg18 Si10'
_cell_volume   570.32949500
_cell_formula_units_Z   2
loop_
 _symmetry_equiv_pos_site_id
 _symmetry_equiv_pos_as_xyz
  1  'x, y, z'
loop_
 _atom_site_type_symbol
 _atom_site_label
 _atom_site_symmetry_multiplicity
 _atom_site_fract_x
 _atom_site_fract_y
 _atom_site_fract_z
 _atom_site_occupancy
  Mg  Mg0  1  0.89580600  0.52798700  0.35414800  1
  Mg  Mg1  1  0.30493400  0.75976500  0.34858600  1
  Mg  Mg2  1  0.66897200  0.18093700  0.35167900  1
  Mg  Mg3  1  0.56947300  0.82999500  0.50487300  1
  Mg  Mg4  1  0.03473800  0.20435500  0.18762500  1
  Mg  Mg5  1  0.97515900  0.11697800  0.55068100  1
  Mg  Mg6  1  0.03777700  0.19227600  0.82862100  1
  Mg  Mg7  1  0.88232100  0.60706400  0.01000100  1
  Mg  Mg8  1  0.19926300  0.72845100  0.86240600  1
  Mg  Mg9  1  0.63904000  0.41598800  0.71891100  1
  Mg  Mg10  1  0.65096900  0.03376100  0.86504800  1
  Mg  Mg11  1  0.34550400  0.86928800  0.03651900  1
  Mg  Mg12  1  0.26550400  0.68033500  0.61490200  1
  Mg  Mg13  1  0.62815800  0.36081000  0.00924000  1
  Mg  Mg14  1  0.88584200  0.67576700  0.70965600  1
  Mg  Mg15  1  0.27568200  0.48396800  0.18707700  1
  Mg  Mg16  1  0.29008100  0.31945800  0.53946300  1
  Mg  Mg17  1  0.57442900  0.96147300  0.18251900  1
  Si  Si0  1  0.94258300  0.95008500  0.01646600  1
  Si  Si1  1  0.34907500  0.94542700  0.69124200  1
  Si  Si2  1  0.96205100  0.76847600  0.48947400  1
  Si  Si3  1  0.96352700  0.86777500  0.22529200  1
  Si  Si4  1  0.57544600  0.71397800  0.85093700  1
  Si  Si5  1  0.28437700  0.15549200  0.35536400  1
  Si  Si6  1  0.29154300  0.28255600  0.01724000  1
  Si  Si7  1  0.63043300  0.54457100  0.18663700  1
  Si  Si8  1  0.60229600  0.44556000  0.49712200  1
  Si  Si9  1  0.27532300  0.37726300  0.80852000  1
loop_
_geom_bond_atom_site_label_1
_geom_bond_atom_site_label_2
_geom_bond_distance
_geom_bond_site_symmetry_2
Mg0 Si8 2.809087 1_555
Mg0 Si5 2.828842 1_655
Mg0 Si3 2.874096 1_555
Mg0 Si2 2.952292 1_555
Mg0 Si7 2.986595 1_555
Mg1 Si8 2.770545 1_555
Mg1 Si3 2.796102 1_455
Mg1 Si2 2.840262 1_455
Mg1 Si5 2.883671 1_565
Mg1 Si7 2.943293 1_555
Mg2 Si8 2.789329 1_555
Mg2 Si3 2.882006 1_545
Mg2 Si7 2.885019 1_555
Mg2 Si5 2.927209 1_555
Mg2 Si2 2.995569 1_545
Mg3 Si1 2.676901 1_555
Mg3 Si2 2.683562 1_555
Mg3 Si8 2.763344 1_555
Mg3 Si5 2.763549 1_565
Mg4 Si3 2.720775 1_445
Mg4 Si6 2.780494 1_555
Mg4 Si7 2.794165 1_455
Mg4 Si5 2.807875 1_555
Mg5 Si8 2.657518 1_555
Mg5 Si2 2.907153 1_545
Mg5 Si1 3.013911 1_645
Mg5 Si5 3.139892 1_655
Mg6 Si9 2.665549 1_555
Mg6 Si1 2.775303 1_545
Mg6 Si0 2.814731 1_446
Mg7 Si7 2.765784 1_555
Mg7 Si6 2.773987 1_655
Mg7 Si0 2.810698 1_555
Mg7 Si4 2.892093 1_554
Mg8 Si9 2.609238 1_555
Mg8 Si0 2.698358 1_456
Mg8 Si4 2.706780 1_555
Mg8 Si1 2.787656 1_555
Mg8 Si6 3.196388 1_556
Mg9 Si8 2.738359 1_555
Mg9 Si4 2.867540 1_555
Mg9 Si9 2.875610 1_555
Mg10 Si9 2.716331 1_555
Mg10 Si4 2.737615 1_545
Mg10 Si0 2.789888 1_546
Mg10 Si6 3.057193 1_556
Mg11 Si0 2.761325 1_455
Mg11 Si7 2.765373 1_555
Mg11 Si4 2.769033 1_554
Mg11 Si6 2.843382 1_565
Mg12 Si2 2.625938 1_455
Mg12 Si8 2.684503 1_555
Mg12 Si1 2.715375 1_555
Mg12 Si9 2.851475 1_555
Mg13 Si0 2.757686 1_545
Mg13 Si4 2.761944 1_554
Mg13 Si6 2.799244 1_555
Mg13 Si7 2.846672 1_555
Mg14 Si4 2.611853 1_555
Mg14 Si2 2.693317 1_555
Mg14 Si9 2.840968 1_655
Mg15 Si3 2.732386 1_455
Mg15 Si5 2.784802 1_555
Mg15 Si6 2.807858 1_555
Mg15 Si7 2.864005 1_555
Mg16 Si1 2.825602 1_545
Mg16 Si8 2.829383 1_555
Mg16 Si5 2.834900 1_555
Mg16 Si2 2.967483 1_455
Mg17 Si3 2.697899 1_555
Mg17 Si6 2.862301 1_565
Mg17 Si5 2.883028 1_565
Mg17 Si7 2.898516 1_555
Mg17 Si0 3.139661 1_555
Si0 Si3 2.515902 1_555
Si1 Si4 2.475563 1_555
Si6 Si9 2.511425 1_554
