# generated using pymatgen
data_SrO10
_symmetry_space_group_name_H-M   'P 1'
_cell_length_a   6.84442400
_cell_length_b   6.84442400
_cell_length_c   11.97975300
_cell_angle_alpha   90.00000000
_cell_angle_beta   90.00000000
_cell_angle_gamma   90.00000000
_symmetry_Int_Tables_number   1
_chemical_formula_structural   SrO10
_chemical_formula_sum   'Sr4 O40'
_cell_volume   561.20518491
_cell_formula_units_Z   4
loop_
 _symmetry_equiv_pos_site_id
 _symmetry_equiv_pos_as_xyz
  1  'x, y, z'
loop_
 _atom_site_type_symbol
 _atom_site_label
 _atom_site_symmetry_multiplicity
 _atom_site_fract_x
 _atom_site_fract_y
 _atom_site_fract_z
 _atom_site_occupancy
  Sr  Sr0  1  0.50000000  0.50000000  0.75000000  1
  Sr  Sr1  1  0.50000000  0.50000000  0.25000000  1
  Sr  Sr2  1  0.00000000  0.00000000  0.25000000  1
  Sr  Sr3  1  0.00000000  0.00000000  0.75000000  1
  O  O0  1  0.00000000  0.50000000  0.61917400  1
  O  O1  1  0.00000000  0.50000000  0.11917400  1
  O  O2  1  0.50000000  0.00000000  0.38082600  1
  O  O3  1  0.50000000  0.00000000  0.88082600  1
  O  O4  1  0.00000000  0.50000000  0.85452600  1
  O  O5  1  0.00000000  0.50000000  0.35452600  1
  O  O6  1  0.50000000  0.00000000  0.14547400  1
  O  O7  1  0.50000000  0.00000000  0.64547400  1
  O  O8  1  0.74563200  0.65228400  0.59870800  1
  O  O9  1  0.74563200  0.34771600  0.09870800  1
  O  O10  1  0.75436800  0.84771600  0.40129200  1
  O  O11  1  0.24563200  0.84771600  0.90129200  1
  O  O12  1  0.25436800  0.34771600  0.59870800  1
  O  O13  1  0.25436800  0.65228400  0.09870800  1
  O  O14  1  0.24563200  0.15228400  0.40129200  1
  O  O15  1  0.75436800  0.15228400  0.90129200  1
  O  O16  1  0.65228400  0.25436800  0.40129200  1
  O  O17  1  0.34771600  0.25436800  0.90129200  1
  O  O18  1  0.15228400  0.75436800  0.59870800  1
  O  O19  1  0.84771600  0.75436800  0.09870800  1
  O  O20  1  0.34771600  0.74563200  0.40129200  1
  O  O21  1  0.65228400  0.74563200  0.90129200  1
  O  O22  1  0.84771600  0.24563200  0.59870800  1
  O  O23  1  0.15228400  0.24563200  0.09870800  1
  O  O24  1  0.74442200  0.66112000  0.39671700  1
  O  O25  1  0.74442200  0.33888000  0.89671700  1
  O  O26  1  0.75557800  0.83888000  0.60328300  1
  O  O27  1  0.24442200  0.83888000  0.10328300  1
  O  O28  1  0.25557800  0.33888000  0.39671700  1
  O  O29  1  0.25557800  0.66112000  0.89671700  1
  O  O30  1  0.24442200  0.16112000  0.60328300  1
  O  O31  1  0.75557800  0.16112000  0.10328300  1
  O  O32  1  0.66112000  0.25557800  0.60328300  1
  O  O33  1  0.33888000  0.25557800  0.10328300  1
  O  O34  1  0.16112000  0.75557800  0.39671700  1
  O  O35  1  0.83888000  0.75557800  0.89671700  1
  O  O36  1  0.33888000  0.74442200  0.60328300  1
  O  O37  1  0.66112000  0.74442200  0.10328300  1
  O  O38  1  0.83888000  0.24442200  0.39671700  1
  O  O39  1  0.16112000  0.24442200  0.89671700  1
loop_
_geom_bond_atom_site_label_1
_geom_bond_atom_site_label_2
_geom_bond_distance
_geom_bond_site_symmetry_2
O0 O18 2.043914 1_555
O0 O8 2.043914 1_455
O0 O12 2.043914 1_555
O0 O22 2.043914 1_455
O1 O19 2.043914 1_455
O1 O23 2.043914 1_555
O1 O13 2.043914 1_555
O1 O9 2.043914 1_455
O2 O20 2.043914 1_545
O8 Sr0 2.682869 1_555
O9 Sr1 2.682869 1_555
O10 O24 1.280129 1_555
O10 O2 2.043914 1_565
O10 Sr2 2.682869 1_665
O11 O29 1.280129 1_555
O11 O3 2.043914 1_565
O11 Sr3 2.682869 1_565
O12 O30 1.280129 1_555
O12 Sr0 2.682869 1_555
O13 O27 1.280129 1_555
O13 Sr1 2.682869 1_555
O14 O28 1.280129 1_555
O14 O2 2.043914 1_555
O14 Sr2 2.682869 1_555
O15 O25 1.280129 1_555
O15 O3 2.043914 1_555
O15 Sr3 2.682869 1_655
O16 O38 1.280129 1_555
O16 O2 2.043914 1_555
O16 Sr1 2.682869 1_555
O17 O39 1.280129 1_555
O17 O3 2.043914 1_555
O17 Sr0 2.682869 1_555
O18 O36 1.280129 1_555
O18 Sr3 2.682869 1_565
O19 O37 1.280129 1_555
O19 Sr2 2.682869 1_665
O20 O34 1.280129 1_555
O20 Sr1 2.682869 1_555
O21 O35 1.280129 1_555
O21 O3 2.043914 1_565
O21 Sr0 2.682869 1_555
O22 O32 1.280129 1_555
O22 Sr3 2.682869 1_655
O23 O33 1.280129 1_555
O23 Sr2 2.682869 1_555
O24 Sr1 2.665347 1_555
O25 Sr0 2.665347 1_555
O26 O8 1.280129 1_555
O26 Sr3 2.665347 1_665
O27 Sr2 2.665347 1_565
O28 Sr1 2.665347 1_555
O29 Sr0 2.665347 1_555
O30 Sr3 2.665347 1_555
O31 O9 1.280129 1_555
O31 Sr2 2.665347 1_655
O32 Sr0 2.665347 1_555
O33 Sr1 2.665347 1_555
O34 Sr2 2.665347 1_565
O35 Sr3 2.665347 1_665
O36 Sr0 2.665347 1_555
O37 Sr1 2.665347 1_555
O38 Sr2 2.665347 1_655
O39 Sr3 2.665347 1_555
