# generated using pymatgen
data_Mn11(CN5)2
_symmetry_space_group_name_H-M   'P 1'
_cell_length_a   12.78078500
_cell_length_b   12.78078500
_cell_length_c   2.84123900
_cell_angle_alpha   90.00000000
_cell_angle_beta   90.00000000
_cell_angle_gamma   90.00000000
_symmetry_Int_Tables_number   1
_chemical_formula_structural   Mn11(CN5)2
_chemical_formula_sum   'Mn22 C4 N20'
_cell_volume   464.11202996
_cell_formula_units_Z   2
loop_
 _symmetry_equiv_pos_site_id
 _symmetry_equiv_pos_as_xyz
  1  'x, y, z'
loop_
 _atom_site_type_symbol
 _atom_site_label
 _atom_site_symmetry_multiplicity
 _atom_site_fract_x
 _atom_site_fract_y
 _atom_site_fract_z
 _atom_site_occupancy
  Mn  Mn0  1  0.50000000  0.50000000  0.50000000  1
  Mn  Mn1  1  0.00000000  0.00000000  0.00000000  1
  Mn  Mn2  1  0.99450600  0.78043900  0.50000000  1
  Mn  Mn3  1  0.00549400  0.21956100  0.50000000  1
  Mn  Mn4  1  0.50549400  0.28043900  0.00000000  1
  Mn  Mn5  1  0.49450600  0.71956100  0.00000000  1
  Mn  Mn6  1  0.78043900  0.99450600  0.50000000  1
  Mn  Mn7  1  0.21956100  0.00549400  0.50000000  1
  Mn  Mn8  1  0.28043900  0.50549400  0.00000000  1
  Mn  Mn9  1  0.71956100  0.49450600  0.00000000  1
  Mn  Mn10  1  0.65533700  0.65533700  0.50000000  1
  Mn  Mn11  1  0.34466300  0.34466300  0.50000000  1
  Mn  Mn12  1  0.84466300  0.15533700  0.00000000  1
  Mn  Mn13  1  0.15533700  0.84466300  0.00000000  1
  Mn  Mn14  1  0.40845300  0.92628100  0.50000000  1
  Mn  Mn15  1  0.59154700  0.07371900  0.50000000  1
  Mn  Mn16  1  0.09154700  0.42628100  0.00000000  1
  Mn  Mn17  1  0.90845300  0.57371900  0.00000000  1
  Mn  Mn18  1  0.92628100  0.40845300  0.50000000  1
  Mn  Mn19  1  0.07371900  0.59154700  0.50000000  1
  Mn  Mn20  1  0.42628100  0.09154700  0.00000000  1
  Mn  Mn21  1  0.57371900  0.90845300  0.00000000  1
  C  C0  1  0.30288900  0.69711100  0.50000000  1
  C  C1  1  0.69711100  0.30288900  0.50000000  1
  C  C2  1  0.19711100  0.19711100  0.00000000  1
  C  C3  1  0.80288900  0.80288900  0.00000000  1
  N  N0  1  0.08316400  0.91683600  0.50000000  1
  N  N1  1  0.91683600  0.08316400  0.50000000  1
  N  N2  1  0.41683600  0.41683600  0.00000000  1
  N  N3  1  0.58316400  0.58316400  0.00000000  1
  N  N4  1  0.48388200  0.17655600  0.50000000  1
  N  N5  1  0.51611800  0.82344400  0.50000000  1
  N  N6  1  0.01611800  0.67655600  0.00000000  1
  N  N7  1  0.98388200  0.32344400  0.00000000  1
  N  N8  1  0.17655600  0.48388200  0.50000000  1
  N  N9  1  0.82344400  0.51611800  0.50000000  1
  N  N10  1  0.67655600  0.01611800  0.00000000  1
  N  N11  1  0.32344400  0.98388200  0.00000000  1
  N  N12  1  0.23519000  0.76481000  0.50000000  1
  N  N13  1  0.76481000  0.23519000  0.50000000  1
  N  N14  1  0.26481000  0.26481000  0.00000000  1
  N  N15  1  0.73519000  0.73519000  0.00000000  1
  N  N16  1  0.37224800  0.62775200  0.50000000  1
  N  N17  1  0.62775200  0.37224800  0.50000000  1
  N  N18  1  0.12775200  0.12775200  0.00000000  1
  N  N19  1  0.87224800  0.87224800  0.00000000  1
loop_
_geom_bond_atom_site_label_1
_geom_bond_atom_site_label_2
_geom_bond_distance
_geom_bond_site_symmetry_2
Mn0 N3 2.068255 1_556
Mn0 N2 2.068255 1_555
Mn0 N3 2.068255 1_555
Mn0 N2 2.068255 1_556
Mn0 N17 2.309087 1_555
Mn0 N16 2.309087 1_555
Mn1 N1 2.068255 1_455
Mn1 N0 2.068255 1_544
Mn1 N1 2.068255 1_454
Mn1 N0 2.068255 1_545
Mn1 N19 2.309087 1_445
Mn1 N18 2.309087 1_555
Mn2 N6 1.963991 1_655
Mn2 N6 1.963991 1_656
Mn2 N0 2.079162 1_655
Mn2 N19 2.415901 1_555
Mn2 N19 2.415901 1_556
Mn3 N7 1.963991 1_456
Mn3 N7 1.963991 1_455
Mn3 N1 2.079162 1_455
Mn3 N18 2.415901 1_556
Mn3 N18 2.415901 1_555
Mn4 N4 1.963991 1_555
Mn4 N4 1.963991 1_554
Mn4 N2 2.079162 1_555
Mn4 N17 2.415901 1_554
Mn4 N17 2.415901 1_555
Mn5 N5 1.963991 1_555
Mn5 N5 1.963991 1_554
Mn5 N3 2.079162 1_555
Mn5 N16 2.415901 1_554
Mn5 N16 2.415901 1_555
Mn6 N10 1.963991 1_565
Mn6 N10 1.963991 1_566
Mn6 N1 2.079162 1_565
Mn6 N19 2.415901 1_555
Mn6 N19 2.415901 1_556
Mn7 N11 1.963991 1_545
Mn7 N11 1.963991 1_546
Mn7 N0 2.079162 1_545
Mn7 N18 2.415901 1_556
Mn7 N18 2.415901 1_555
Mn8 N8 1.963991 1_555
Mn8 N8 1.963991 1_554
Mn8 N2 2.079162 1_555
Mn8 N16 2.415901 1_554
Mn8 N16 2.415901 1_555
Mn9 N9 1.963991 1_555
Mn9 N9 1.963991 1_554
Mn9 N3 2.079162 1_555
Mn9 N17 2.415901 1_554
Mn9 N17 2.415901 1_555
Mn10 N3 1.928706 1_555
Mn10 N3 1.928706 1_556
Mn10 N15 2.025177 1_556
Mn10 N15 2.025177 1_555
Mn11 N2 1.928706 1_556
Mn11 N2 1.928706 1_555
Mn11 N14 2.025177 1_556
Mn11 N14 2.025177 1_555
Mn12 N1 1.928706 1_554
Mn12 N1 1.928706 1_555
Mn12 N13 2.025177 1_554
Mn12 N13 2.025177 1_555
Mn13 N0 1.928706 1_555
Mn13 N0 1.928706 1_554
Mn13 N12 2.025177 1_555
Mn13 N12 2.025177 1_554
Mn14 N5 1.902887 1_555
Mn14 N11 1.934056 1_555
Mn14 N11 1.934056 1_556
Mn15 N4 1.902887 1_555
Mn15 N10 1.934056 1_555
Mn15 N10 1.934056 1_556
Mn16 N7 1.902887 1_455
Mn16 N8 1.934056 1_555
Mn16 N8 1.934056 1_554
Mn17 N6 1.902887 1_655
Mn17 N9 1.934056 1_555
Mn17 N9 1.934056 1_554
Mn18 N9 1.902887 1_555
Mn18 N7 1.934056 1_556
Mn18 N7 1.934056 1_555
Mn19 N8 1.902887 1_555
Mn19 N6 1.934056 1_555
Mn19 N6 1.934056 1_556
Mn20 N11 1.902887 1_545
Mn20 N4 1.934056 1_554
Mn20 N4 1.934056 1_555
Mn21 N10 1.902887 1_565
Mn21 N5 1.934056 1_555
Mn21 N5 1.934056 1_554
C0 N12 1.223643 1_555
C0 N16 1.253647 1_555
C1 N13 1.223643 1_555
C1 N17 1.253647 1_555
C2 N14 1.223643 1_555
C2 N18 1.253647 1_555
C3 N15 1.223643 1_555
C3 N19 1.253647 1_555
