# generated using pymatgen
data_YMgTl
_symmetry_space_group_name_H-M   'P 1'
_cell_length_a   7.53066271
_cell_length_b   7.53066283
_cell_length_c   4.63029522
_cell_angle_alpha   90.00000000
_cell_angle_beta   90.00000000
_cell_angle_gamma   119.99999952
_symmetry_Int_Tables_number   1
_chemical_formula_structural   YMgTl
_chemical_formula_sum   'Y3 Mg3 Tl3'
_cell_volume   227.40798785
_cell_formula_units_Z   3
loop_
 _symmetry_equiv_pos_site_id
 _symmetry_equiv_pos_as_xyz
  1  'x, y, z'
loop_
 _atom_site_type_symbol
 _atom_site_label
 _atom_site_symmetry_multiplicity
 _atom_site_fract_x
 _atom_site_fract_y
 _atom_site_fract_z
 _atom_site_occupancy
  Y  Y0  1  0.42835850  0.42835850  -0.00000000  1
  Y  Y1  1  0.57164150  -0.00000000  -0.00000000  1
  Y  Y2  1  1.00000000  0.57164150  0.00000000  1
  Mg  Mg0  1  1.00000000  0.24273568  0.50000000  1
  Mg  Mg1  1  0.75726432  0.75726432  0.50000000  1
  Mg  Mg2  1  0.24273568  -0.00000000  0.50000000  1
  Tl  Tl0  1  0.66666700  0.33333300  0.50000000  1
  Tl  Tl1  1  -0.00000000  -0.00000000  0.00000000  1
  Tl  Tl2  1  0.33333300  0.66666700  0.50000000  1
loop_
_geom_bond_atom_site_label_1
_geom_bond_atom_site_label_2
_geom_bond_distance
_geom_bond_site_symmetry_2
Mg0 Tl0 2.911922 1_555
Mg0 Tl2 2.911927 1_655
Mg0 Tl1 2.949805 1_656
Mg0 Tl1 2.949805 1_655
Mg1 Tl2 2.911929 1_555
Mg1 Tl0 2.911929 1_555
Mg1 Tl1 2.949805 1_665
Mg1 Tl1 2.949805 1_666
Mg2 Tl2 2.911922 1_545
Mg2 Tl0 2.911927 1_555
Mg2 Tl1 2.949805 1_556
Mg2 Tl1 2.949805 1_555
Tl0 Y1 3.221315 1_556
Tl0 Y1 3.221315 1_555
Tl0 Y2 3.221316 1_556
Tl0 Y2 3.221316 1_555
Tl0 Y0 3.221320 1_556
Tl0 Y0 3.221320 1_555
Tl1 Y1 3.225823 1_455
Tl1 Y0 3.225823 1_555
Tl1 Y2 3.225823 1_445
Tl2 Y2 3.221315 1_455
Tl2 Y2 3.221315 1_456
Tl2 Y1 3.221316 1_565
Tl2 Y1 3.221316 1_566
Tl2 Y0 3.221320 1_556
Tl2 Y0 3.221320 1_555
