# generated using pymatgen
data_Al3Co3Si4
_symmetry_space_group_name_H-M   'P 1'
_cell_length_a   6.95398888
_cell_length_b   6.95398888
_cell_length_c   6.95398888
_cell_angle_alpha   109.47122063
_cell_angle_beta   109.47122063
_cell_angle_gamma   109.47122063
_symmetry_Int_Tables_number   1
_chemical_formula_structural   Al3Co3Si4
_chemical_formula_sum   'Al6 Co6 Si8'
_cell_volume   258.86902279
_cell_formula_units_Z   2
loop_
 _symmetry_equiv_pos_site_id
 _symmetry_equiv_pos_as_xyz
  1  'x, y, z'
loop_
 _atom_site_type_symbol
 _atom_site_label
 _atom_site_symmetry_multiplicity
 _atom_site_fract_x
 _atom_site_fract_y
 _atom_site_fract_z
 _atom_site_occupancy
  Al  Al0  1  0.50000000  0.75000000  0.25000000  1
  Al  Al1  1  0.50000000  0.25000000  0.75000000  1
  Al  Al2  1  0.25000000  0.50000000  0.75000000  1
  Al  Al3  1  0.75000000  0.50000000  0.25000000  1
  Al  Al4  1  0.75000000  0.25000000  0.50000000  1
  Al  Al5  1  0.25000000  0.75000000  0.50000000  1
  Co  Co0  1  0.00000000  0.33504087  0.33504087  1
  Co  Co1  1  -0.00000000  0.66495913  0.66495913  1
  Co  Co2  1  0.33504087  0.00000000  0.33504087  1
  Co  Co3  1  0.66495913  -0.00000000  0.66495913  1
  Co  Co4  1  0.33504087  0.33504087  0.00000000  1
  Co  Co5  1  0.66495913  0.66495913  0.00000000  1
  Si  Si0  1  0.32195068  0.32195068  0.32195068  1
  Si  Si1  1  0.67804932  0.67804932  0.67804932  1
  Si  Si2  1  0.00000000  -0.00000000  0.67804932  1
  Si  Si3  1  0.00000000  0.67804932  0.00000000  1
  Si  Si4  1  -0.00000000  0.00000000  0.32195068  1
  Si  Si5  1  -0.00000000  0.32195068  -0.00000000  1
  Si  Si6  1  0.67804932  -0.00000000  -0.00000000  1
  Si  Si7  1  0.32195068  -0.00000000  0.00000000  1
loop_
_geom_bond_atom_site_label_1
_geom_bond_atom_site_label_2
_geom_bond_distance
_geom_bond_site_symmetry_2
Al0 Co4 2.405069 1_555
Al0 Co2 2.405069 1_565
Al0 Co3 2.405069 1_565
Al0 Co5 2.405069 1_555
Al1 Co4 2.405069 1_556
Al1 Co2 2.405069 1_555
Al1 Co5 2.405069 1_556
Al1 Co3 2.405069 1_555
Al2 Co4 2.405069 1_556
Al2 Co0 2.405069 1_555
Al2 Co5 2.405069 1_556
Al2 Co1 2.405069 1_555
Al3 Co4 2.405069 1_555
Al3 Co0 2.405069 1_655
Al3 Co1 2.405069 1_655
Al3 Co5 2.405069 1_555
Al4 Co0 2.405069 1_655
Al4 Co2 2.405069 1_555
Al4 Co3 2.405069 1_555
Al4 Co1 2.405069 1_655
Al5 Co2 2.405069 1_565
Al5 Co0 2.405069 1_555
Al5 Co1 2.405069 1_555
Al5 Co3 2.405069 1_565
Co0 Si6 2.301128 1_455
Co0 Si0 2.301128 1_555
Co0 Si4 2.301128 1_555
Co0 Si5 2.301128 1_555
Co1 Si1 2.301128 1_455
Co1 Si3 2.301128 1_556
Co1 Si7 2.301128 1_566
Co1 Si2 2.301128 1_565
Co2 Si0 2.301128 1_555
Co2 Si4 2.301128 1_555
Co2 Si7 2.301128 1_555
Co2 Si3 2.301128 1_545
Co3 Si1 2.301128 1_545
Co3 Si5 2.301128 1_656
Co3 Si6 2.301128 1_556
Co3 Si2 2.301128 1_655
Co4 Si2 2.301128 1_554
Co4 Si0 2.301128 1_555
Co4 Si5 2.301128 1_555
Co4 Si7 2.301128 1_555
Co5 Si1 2.301128 1_554
Co5 Si6 2.301128 1_565
Co5 Si3 2.301128 1_655
Co5 Si4 2.301128 1_665
Si0 Si1 2.476306 1_555
Si0 Si4 2.585191 1_555
Si0 Si7 2.585191 1_555
Si0 Si5 2.585191 1_555
Si1 Si3 2.585191 1_656
Si1 Si6 2.585191 1_566
Si1 Si2 2.585191 1_665
Si2 Si4 2.476306 1_555
Si2 Si7 2.585191 1_556
Si2 Si5 2.585191 1_556
Si3 Si5 2.476306 1_555
Si3 Si4 2.585191 1_565
Si3 Si7 2.585191 1_565
Si4 Si6 2.585191 1_455
Si5 Si6 2.585191 1_455
Si6 Si7 2.476306 1_555
