# generated using pymatgen
data_Ca2MgReO6
_symmetry_space_group_name_H-M   'P 1'
_cell_length_a   5.57563700
_cell_length_b   5.46035800
_cell_length_c   9.48877315
_cell_angle_alpha   54.86829796
_cell_angle_beta   90.00000000
_cell_angle_gamma   90.00000000
_symmetry_Int_Tables_number   1
_chemical_formula_structural   Ca2MgReO6
_chemical_formula_sum   'Ca4 Mg2 Re2 O12'
_cell_volume   236.25960556
_cell_formula_units_Z   2
loop_
 _symmetry_equiv_pos_site_id
 _symmetry_equiv_pos_as_xyz
  1  'x, y, z'
loop_
 _atom_site_type_symbol
 _atom_site_label
 _atom_site_symmetry_multiplicity
 _atom_site_fract_x
 _atom_site_fract_y
 _atom_site_fract_z
 _atom_site_occupancy
  Ca  Ca0  1  0.04785700  0.75915200  0.24902700  1
  Ca  Ca1  1  0.45214300  0.75915200  0.74902700  1
  Ca  Ca2  1  0.95214300  0.24084800  0.75097300  1
  Ca  Ca3  1  0.54785700  0.24084800  0.25097300  1
  Mg  Mg0  1  0.50000000  0.00000000  0.00000000  1
  Mg  Mg1  1  0.00000000  0.00000000  0.50000000  1
  Re  Re0  1  0.50000000  0.50000000  0.50000000  1
  Re  Re1  1  0.00000000  0.50000000  0.00000000  1
  O  O0  1  0.21502300  0.26197800  0.54617700  1
  O  O1  1  0.28497700  0.26197800  0.04617700  1
  O  O2  1  0.78497700  0.73802200  0.45382300  1
  O  O3  1  0.71502300  0.73802200  0.95382300  1
  O  O4  1  0.69632200  0.16829600  0.54497100  1
  O  O5  1  0.80367800  0.16829600  0.04497100  1
  O  O6  1  0.30367800  0.83170400  0.45502900  1
  O  O7  1  0.19632200  0.83170400  0.95502900  1
  O  O8  1  0.47385100  0.65463700  0.25806700  1
  O  O9  1  0.02614900  0.65463700  0.75806700  1
  O  O10  1  0.52614900  0.34536300  0.74193300  1
  O  O11  1  0.97385100  0.34536300  0.24193300  1
loop_
_geom_bond_atom_site_label_1
_geom_bond_atom_site_label_2
_geom_bond_distance
_geom_bond_site_symmetry_2
Ca0 O11 2.335570 1_455
Ca0 O5 2.369630 1_465
Ca0 O2 2.383250 1_455
Ca0 O8 2.432739 1_555
Ca0 O6 2.627466 1_555
Ca0 O1 2.628471 1_565
Ca0 O7 2.711558 1_554
Ca0 O0 2.716434 1_555
Ca1 O10 2.335570 1_555
Ca1 O4 2.369630 1_565
Ca1 O3 2.383250 1_555
Ca1 O9 2.432739 1_555
Ca1 O7 2.627466 1_555
Ca1 O0 2.628471 1_565
Ca1 O6 2.711558 1_555
Ca1 O1 2.716434 1_556
Ca2 O9 2.335570 1_655
Ca2 O7 2.369630 1_645
Ca2 O0 2.383250 1_655
Ca2 O10 2.432739 1_555
Ca2 O4 2.627466 1_555
Ca2 O3 2.628471 1_545
Ca2 O5 2.711558 1_556
Ca2 O2 2.716434 1_555
Ca3 O8 2.335570 1_555
Ca3 O6 2.369630 1_545
Ca3 O1 2.383250 1_555
Ca3 O11 2.432739 1_555
Ca3 O5 2.627466 1_555
Ca3 O2 2.628471 1_545
Ca3 O4 2.711558 1_555
Ca3 O3 2.716434 1_554
Mg0 O8 2.063757 1_545
Mg0 O10 2.063757 1_554
Mg0 O5 2.084420 1_555
Mg0 O7 2.084420 1_544
Mg0 O1 2.096907 1_555
Mg0 O3 2.096907 1_544
Mg1 O11 2.063757 1_455
Mg1 O9 2.063757 1_545
Mg1 O4 2.084420 1_455
Mg1 O6 2.084420 1_545
Mg1 O0 2.096907 1_555
Mg1 O2 2.096907 1_445
O0 Re0 1.936607 1_555
O1 Re1 1.936607 1_555
O2 Re0 1.936607 1_555
O3 Re1 1.936607 1_656
O4 Re0 1.941980 1_555
O5 Re1 1.941980 1_655
O6 Re0 1.941980 1_555
O7 Re1 1.941980 1_556
O8 Re0 1.942499 1_555
O9 Re1 1.942499 1_556
O10 Re0 1.942499 1_555
O11 Re1 1.942499 1_655
