# generated using pymatgen
data_Mg2Ga
_symmetry_space_group_name_H-M   'P 1'
_cell_length_a   6.23594580
_cell_length_b   6.23594580
_cell_length_c   29.97886400
_cell_angle_alpha   90.00000000
_cell_angle_beta   90.00000000
_cell_angle_gamma   120.00001911
_symmetry_Int_Tables_number   1
_chemical_formula_structural   Mg2Ga
_chemical_formula_sum   'Mg32 Ga16'
_cell_volume   1009.60242217
_cell_formula_units_Z   16
loop_
 _symmetry_equiv_pos_site_id
 _symmetry_equiv_pos_as_xyz
  1  'x, y, z'
loop_
 _atom_site_type_symbol
 _atom_site_label
 _atom_site_symmetry_multiplicity
 _atom_site_fract_x
 _atom_site_fract_y
 _atom_site_fract_z
 _atom_site_occupancy
  Mg  Mg0_0  1  0.16666650  0.33333350  0.04195700  1
  Mg  Mg0_1  1  0.16666650  0.33333350  0.54195700  1
  Mg  Mg0_2  1  0.16666650  0.83333350  0.04195700  1
  Mg  Mg0_3  1  0.16666650  0.83333350  0.54195700  1
  Mg  Mg0_4  1  0.66666650  0.33333350  0.04195700  1
  Mg  Mg0_5  1  0.66666650  0.33333350  0.54195700  1
  Mg  Mg0_6  1  0.66666650  0.83333350  0.04195700  1
  Mg  Mg0_7  1  0.66666650  0.83333350  0.54195700  1
  Mg  Mg1_0  1  0.33333350  0.16666650  0.13016950  1
  Mg  Mg1_1  1  0.33333350  0.16666650  0.63016950  1
  Mg  Mg1_2  1  0.33333350  0.66666650  0.13016950  1
  Mg  Mg1_3  1  0.33333350  0.66666650  0.63016950  1
  Mg  Mg1_4  1  0.83333350  0.16666650  0.13016950  1
  Mg  Mg1_5  1  0.83333350  0.16666650  0.63016950  1
  Mg  Mg1_6  1  0.83333350  0.66666650  0.13016950  1
  Mg  Mg1_7  1  0.83333350  0.66666650  0.63016950  1
  Mg  Mg2_0  1  0.16666650  0.33333350  0.36983050  1
  Mg  Mg2_1  1  0.16666650  0.33333350  0.86983050  1
  Mg  Mg2_2  1  0.16666650  0.83333350  0.36983050  1
  Mg  Mg2_3  1  0.16666650  0.83333350  0.86983050  1
  Mg  Mg2_4  1  0.66666650  0.33333350  0.36983050  1
  Mg  Mg2_5  1  0.66666650  0.33333350  0.86983050  1
  Mg  Mg2_6  1  0.66666650  0.83333350  0.36983050  1
  Mg  Mg2_7  1  0.66666650  0.83333350  0.86983050  1
  Mg  Mg3_0  1  0.33333350  0.16666650  0.45804300  1
  Mg  Mg3_1  1  0.33333350  0.16666650  0.95804300  1
  Mg  Mg3_2  1  0.33333350  0.66666650  0.45804300  1
  Mg  Mg3_3  1  0.33333350  0.66666650  0.95804300  1
  Mg  Mg3_4  1  0.83333350  0.16666650  0.45804300  1
  Mg  Mg3_5  1  0.83333350  0.16666650  0.95804300  1
  Mg  Mg3_6  1  0.83333350  0.66666650  0.45804300  1
  Mg  Mg3_7  1  0.83333350  0.66666650  0.95804300  1
  Ga  Ga0_0  1  0.16666650  0.33333350  0.21175650  1
  Ga  Ga0_1  1  0.16666650  0.33333350  0.71175650  1
  Ga  Ga0_2  1  0.16666650  0.83333350  0.21175650  1
  Ga  Ga0_3  1  0.16666650  0.83333350  0.71175650  1
  Ga  Ga0_4  1  0.66666650  0.33333350  0.21175650  1
  Ga  Ga0_5  1  0.66666650  0.33333350  0.71175650  1
  Ga  Ga0_6  1  0.66666650  0.83333350  0.21175650  1
  Ga  Ga0_7  1  0.66666650  0.83333350  0.71175650  1
  Ga  Ga1_0  1  0.33333350  0.16666650  0.28824350  1
  Ga  Ga1_1  1  0.33333350  0.16666650  0.78824350  1
  Ga  Ga1_2  1  0.33333350  0.66666650  0.28824350  1
  Ga  Ga1_3  1  0.33333350  0.66666650  0.78824350  1
  Ga  Ga1_4  1  0.83333350  0.16666650  0.28824350  1
  Ga  Ga1_5  1  0.83333350  0.16666650  0.78824350  1
  Ga  Ga1_6  1  0.83333350  0.66666650  0.28824350  1
  Ga  Ga1_7  1  0.83333350  0.66666650  0.78824350  1
loop_
_geom_bond_atom_site_label_1
_geom_bond_atom_site_label_2
_geom_bond_distance
_geom_bond_site_symmetry_2
Mg0_0 Mg3_3 3.093389 1_554
Mg0_0 Mg3_5 3.093389 1_454
Mg0_0 Mg3_1 3.093392 1_554
Mg0_0 Mg0_6 3.117972 1_555
Mg0_0 Mg0_6 3.117972 1_445
Mg0_0 Mg0_4 3.117973 1_555
Mg0_0 Mg0_2 3.117973 1_555
Mg0_0 Mg0_4 3.117973 1_455
Mg0_0 Mg0_2 3.117973 1_545
Mg0_0 Mg1_2 3.199064 1_555
Mg0_0 Mg1_4 3.199064 1_455
Mg0_0 Mg1_0 3.199068 1_555
Mg0_1 Mg3_4 3.093389 1_455
Mg0_1 Mg3_2 3.093389 1_555
Mg0_1 Mg3_0 3.093392 1_555
Mg0_1 Mg0_7 3.117972 1_555
Mg0_1 Mg0_7 3.117972 1_445
Mg0_1 Mg0_5 3.117973 1_555
Mg0_1 Mg0_3 3.117973 1_555
Mg0_1 Mg0_5 3.117973 1_455
Mg0_1 Mg0_3 3.117973 1_545
Mg0_1 Mg1_5 3.199064 1_455
Mg0_1 Mg1_3 3.199064 1_555
Mg0_1 Mg1_1 3.199068 1_555
Mg0_2 Mg3_1 3.093389 1_564
Mg0_2 Mg3_7 3.093389 1_454
Mg0_2 Mg3_3 3.093392 1_554
Mg0_2 Mg0_4 3.117972 1_565
Mg0_2 Mg0_4 3.117972 1_455
Mg0_2 Mg0_6 3.117973 1_455
Mg0_2 Mg0_6 3.117973 1_555
Mg0_2 Mg1_0 3.199064 1_565
Mg0_2 Mg1_6 3.199064 1_455
Mg0_2 Mg1_2 3.199068 1_555
Mg0_3 Mg3_0 3.093389 1_565
Mg0_3 Mg3_6 3.093389 1_455
Mg0_3 Mg3_2 3.093392 1_555
Mg0_3 Mg0_5 3.117972 1_565
Mg0_3 Mg0_5 3.117972 1_455
Mg0_3 Mg0_7 3.117973 1_455
Mg0_3 Mg0_7 3.117973 1_555
Mg0_3 Mg1_1 3.199064 1_565
Mg0_3 Mg1_7 3.199064 1_455
Mg0_3 Mg1_3 3.199068 1_555
Mg0_4 Mg3_1 3.093389 1_554
Mg0_4 Mg3_7 3.093389 1_554
Mg0_4 Mg3_5 3.093392 1_554
Mg0_4 Mg0_6 3.117973 1_555
Mg0_4 Mg0_6 3.117973 1_545
Mg0_4 Mg1_0 3.199064 1_555
Mg0_4 Mg1_6 3.199064 1_555
Mg0_4 Mg1_4 3.199068 1_555
Mg0_5 Mg3_0 3.093389 1_555
Mg0_5 Mg3_6 3.093389 1_555
Mg0_5 Mg3_4 3.093392 1_555
Mg0_5 Mg0_7 3.117973 1_555
Mg0_5 Mg0_7 3.117973 1_545
Mg0_5 Mg1_7 3.199064 1_555
Mg0_5 Mg1_1 3.199064 1_555
Mg0_5 Mg1_5 3.199068 1_555
Mg0_6 Mg3_3 3.093389 1_554
Mg0_6 Mg3_5 3.093389 1_564
Mg0_6 Mg3_7 3.093392 1_554
Mg0_6 Mg1_2 3.199064 1_555
Mg0_6 Mg1_4 3.199064 1_565
Mg0_6 Mg1_6 3.199068 1_555
Mg0_7 Mg3_2 3.093389 1_555
Mg0_7 Mg3_4 3.093389 1_565
Mg0_7 Mg3_6 3.093392 1_555
Mg0_7 Mg1_3 3.199064 1_555
Mg0_7 Mg1_5 3.199064 1_565
Mg0_7 Mg1_7 3.199068 1_555
Mg1_0 Mg1_6 3.117972 1_555
Mg1_0 Mg1_6 3.117972 1_445
Mg1_0 Mg1_4 3.117973 1_555
Mg1_0 Mg1_2 3.117973 1_555
Mg1_0 Mg1_2 3.117973 1_545
Mg1_0 Mg1_4 3.117973 1_455
Mg1_1 Mg1_7 3.117972 1_445
Mg1_1 Mg1_7 3.117972 1_555
Mg1_1 Mg1_5 3.117973 1_555
Mg1_1 Mg1_3 3.117973 1_545
Mg1_1 Mg1_3 3.117973 1_555
Mg1_1 Mg1_5 3.117973 1_455
Mg1_2 Mg1_4 3.117972 1_565
Mg1_2 Mg1_4 3.117972 1_455
Mg1_2 Mg1_6 3.117973 1_555
Mg1_2 Mg1_6 3.117973 1_455
Mg1_3 Mg1_5 3.117972 1_565
Mg1_3 Mg1_5 3.117972 1_455
Mg1_3 Mg1_7 3.117973 1_555
Mg1_3 Mg1_7 3.117973 1_455
Mg1_4 Mg1_6 3.117973 1_545
Mg1_4 Mg1_6 3.117973 1_555
Mg1_5 Mg1_7 3.117973 1_555
Mg1_5 Mg1_7 3.117973 1_545
Mg2_0 Mg2_6 3.117972 1_555
Mg2_0 Mg2_6 3.117972 1_445
Mg2_0 Mg2_4 3.117973 1_555
Mg2_0 Mg2_4 3.117973 1_455
Mg2_0 Mg2_2 3.117973 1_555
Mg2_0 Mg2_2 3.117973 1_545
Mg2_0 Mg3_2 3.199064 1_555
Mg2_0 Mg3_4 3.199064 1_455
Mg2_0 Mg3_0 3.199068 1_555
Mg2_1 Mg2_7 3.117972 1_555
Mg2_1 Mg2_7 3.117972 1_445
Mg2_1 Mg2_5 3.117973 1_555
Mg2_1 Mg2_3 3.117973 1_545
Mg2_1 Mg2_5 3.117973 1_455
Mg2_1 Mg2_3 3.117973 1_555
Mg2_1 Mg3_3 3.199064 1_555
Mg2_1 Mg3_5 3.199064 1_455
Mg2_1 Mg3_1 3.199068 1_555
Mg2_2 Mg2_4 3.117972 1_565
Mg2_2 Mg2_4 3.117972 1_455
Mg2_2 Mg2_6 3.117973 1_455
Mg2_2 Mg2_6 3.117973 1_555
Mg2_2 Mg3_0 3.199064 1_565
Mg2_2 Mg3_6 3.199064 1_455
Mg2_2 Mg3_2 3.199068 1_555
Mg2_3 Mg2_5 3.117972 1_565
Mg2_3 Mg2_5 3.117972 1_455
Mg2_3 Mg2_7 3.117973 1_455
Mg2_3 Mg2_7 3.117973 1_555
Mg2_3 Mg3_7 3.199064 1_455
Mg2_3 Mg3_1 3.199064 1_565
Mg2_3 Mg3_3 3.199068 1_555
Mg2_4 Mg2_6 3.117973 1_555
Mg2_4 Mg2_6 3.117973 1_545
Mg2_4 Mg3_6 3.199064 1_555
Mg2_4 Mg3_0 3.199064 1_555
Mg2_4 Mg3_4 3.199068 1_555
Mg2_5 Mg2_7 3.117973 1_555
Mg2_5 Mg2_7 3.117973 1_545
Mg2_5 Mg3_7 3.199064 1_555
Mg2_5 Mg3_1 3.199064 1_555
Mg2_5 Mg3_5 3.199068 1_555
Mg2_6 Mg3_2 3.199064 1_555
Mg2_6 Mg3_4 3.199064 1_565
Mg2_6 Mg3_6 3.199068 1_555
Mg2_7 Mg3_3 3.199064 1_555
Mg2_7 Mg3_5 3.199064 1_565
Mg2_7 Mg3_7 3.199068 1_555
Mg3_0 Mg3_6 3.117972 1_445
Mg3_0 Mg3_6 3.117972 1_555
Mg3_0 Mg3_4 3.117973 1_555
Mg3_0 Mg3_2 3.117973 1_555
Mg3_0 Mg3_2 3.117973 1_545
Mg3_0 Mg3_4 3.117973 1_455
Mg3_1 Mg3_7 3.117972 1_555
Mg3_1 Mg3_7 3.117972 1_445
Mg3_1 Mg3_5 3.117973 1_555
Mg3_1 Mg3_5 3.117973 1_455
Mg3_1 Mg3_3 3.117973 1_545
Mg3_1 Mg3_3 3.117973 1_555
Mg3_2 Mg3_4 3.117972 1_455
Mg3_2 Mg3_4 3.117972 1_565
Mg3_2 Mg3_6 3.117973 1_555
Mg3_2 Mg3_6 3.117973 1_455
Mg3_3 Mg3_5 3.117972 1_565
Mg3_3 Mg3_5 3.117972 1_455
Mg3_3 Mg3_7 3.117973 1_555
Mg3_3 Mg3_7 3.117973 1_455
Mg3_4 Mg3_6 3.117973 1_555
Mg3_4 Mg3_6 3.117973 1_545
Mg3_5 Mg3_7 3.117973 1_545
Mg3_5 Mg3_7 3.117973 1_555
Ga0_0 Ga1_2 2.915201 1_555
Ga0_0 Ga1_4 2.915201 1_455
Ga0_0 Ga1_0 2.915204 1_555
Ga0_0 Mg1_2 3.036928 1_555
Ga0_0 Mg1_4 3.036928 1_455
Ga0_0 Mg1_0 3.036932 1_555
Ga0_0 Ga0_6 3.117972 1_555
Ga0_0 Ga0_6 3.117972 1_445
Ga0_0 Ga0_4 3.117973 1_555
Ga0_0 Ga0_4 3.117973 1_455
Ga0_0 Ga0_2 3.117973 1_555
Ga0_0 Ga0_2 3.117973 1_545
Ga0_1 Ga1_5 2.915201 1_455
Ga0_1 Ga1_3 2.915201 1_555
Ga0_1 Ga1_1 2.915204 1_555
Ga0_1 Mg1_5 3.036928 1_455
Ga0_1 Mg1_3 3.036928 1_555
Ga0_1 Mg1_1 3.036932 1_555
Ga0_1 Ga0_7 3.117972 1_555
Ga0_1 Ga0_7 3.117972 1_445
Ga0_1 Ga0_5 3.117973 1_555
Ga0_1 Ga0_5 3.117973 1_455
Ga0_1 Ga0_3 3.117973 1_545
Ga0_1 Ga0_3 3.117973 1_555
Ga0_2 Ga1_6 2.915201 1_455
Ga0_2 Ga1_0 2.915201 1_565
Ga0_2 Ga1_2 2.915204 1_555
Ga0_2 Mg1_0 3.036928 1_565
Ga0_2 Mg1_6 3.036928 1_455
Ga0_2 Mg1_2 3.036932 1_555
Ga0_2 Ga0_4 3.117972 1_565
Ga0_2 Ga0_4 3.117972 1_455
Ga0_2 Ga0_6 3.117973 1_455
Ga0_2 Ga0_6 3.117973 1_555
Ga0_3 Ga1_1 2.915201 1_565
Ga0_3 Ga1_7 2.915201 1_455
Ga0_3 Ga1_3 2.915204 1_555
Ga0_3 Mg1_1 3.036928 1_565
Ga0_3 Mg1_7 3.036928 1_455
Ga0_3 Mg1_3 3.036932 1_555
Ga0_3 Ga0_5 3.117972 1_565
Ga0_3 Ga0_5 3.117972 1_455
Ga0_3 Ga0_7 3.117973 1_455
Ga0_3 Ga0_7 3.117973 1_555
Ga0_4 Ga1_0 2.915201 1_555
Ga0_4 Ga1_6 2.915201 1_555
Ga0_4 Ga1_4 2.915204 1_555
Ga0_4 Mg1_0 3.036928 1_555
Ga0_4 Mg1_6 3.036928 1_555
Ga0_4 Mg1_4 3.036932 1_555
Ga0_4 Ga0_6 3.117973 1_555
Ga0_4 Ga0_6 3.117973 1_545
Ga0_5 Ga1_1 2.915201 1_555
Ga0_5 Ga1_7 2.915201 1_555
Ga0_5 Ga1_5 2.915204 1_555
Ga0_5 Mg1_1 3.036928 1_555
Ga0_5 Mg1_7 3.036928 1_555
Ga0_5 Mg1_5 3.036932 1_555
Ga0_5 Ga0_7 3.117973 1_555
Ga0_5 Ga0_7 3.117973 1_545
Ga0_6 Ga1_2 2.915201 1_555
Ga0_6 Ga1_4 2.915201 1_565
Ga0_6 Ga1_6 2.915204 1_555
Ga0_6 Mg1_2 3.036928 1_555
Ga0_6 Mg1_4 3.036928 1_565
Ga0_6 Mg1_6 3.036932 1_555
Ga0_7 Ga1_3 2.915201 1_555
Ga0_7 Ga1_5 2.915201 1_565
Ga0_7 Ga1_7 2.915204 1_555
Ga0_7 Mg1_3 3.036928 1_555
Ga0_7 Mg1_5 3.036928 1_565
Ga0_7 Mg1_7 3.036932 1_555
Ga1_0 Mg2_2 3.036928 1_545
Ga1_0 Mg2_4 3.036928 1_555
Ga1_0 Mg2_0 3.036932 1_555
Ga1_0 Ga1_6 3.117972 1_445
Ga1_0 Ga1_6 3.117972 1_555
Ga1_0 Ga1_4 3.117973 1_555
Ga1_0 Ga1_2 3.117973 1_545
Ga1_0 Ga1_2 3.117973 1_555
Ga1_0 Ga1_4 3.117973 1_455
Ga1_1 Mg2_5 3.036928 1_555
Ga1_1 Mg2_3 3.036928 1_545
Ga1_1 Mg2_1 3.036932 1_555
Ga1_1 Ga1_7 3.117972 1_445
Ga1_1 Ga1_7 3.117972 1_555
Ga1_1 Ga1_5 3.117973 1_555
Ga1_1 Ga1_5 3.117973 1_455
Ga1_1 Ga1_3 3.117973 1_545
Ga1_1 Ga1_3 3.117973 1_555
Ga1_2 Mg2_0 3.036928 1_555
Ga1_2 Mg2_6 3.036928 1_555
Ga1_2 Mg2_2 3.036932 1_555
Ga1_2 Ga1_4 3.117972 1_455
Ga1_2 Ga1_4 3.117972 1_565
Ga1_2 Ga1_6 3.117973 1_555
Ga1_2 Ga1_6 3.117973 1_455
Ga1_3 Mg2_1 3.036928 1_555
Ga1_3 Mg2_7 3.036928 1_555
Ga1_3 Mg2_3 3.036932 1_555
Ga1_3 Ga1_5 3.117972 1_565
Ga1_3 Ga1_5 3.117972 1_455
Ga1_3 Ga1_7 3.117973 1_555
Ga1_3 Ga1_7 3.117973 1_455
Ga1_4 Mg2_6 3.036928 1_545
Ga1_4 Mg2_0 3.036928 1_655
Ga1_4 Mg2_4 3.036932 1_555
Ga1_4 Ga1_6 3.117973 1_545
Ga1_4 Ga1_6 3.117973 1_555
Ga1_5 Mg2_7 3.036928 1_545
Ga1_5 Mg2_1 3.036928 1_655
Ga1_5 Mg2_5 3.036932 1_555
Ga1_5 Ga1_7 3.117973 1_555
Ga1_5 Ga1_7 3.117973 1_545
Ga1_6 Mg2_4 3.036928 1_555
Ga1_6 Mg2_2 3.036928 1_655
Ga1_6 Mg2_6 3.036932 1_555
Ga1_7 Mg2_3 3.036928 1_655
Ga1_7 Mg2_5 3.036928 1_555
Ga1_7 Mg2_7 3.036932 1_555
