# generated using pymatgen
data_Y(C2N3)3
_symmetry_space_group_name_H-M   'P 1'
_cell_length_a   7.13755114
_cell_length_b   12.10560567
_cell_length_c   11.31872600
_cell_angle_alpha   90.00000000
_cell_angle_beta   90.00000000
_cell_angle_gamma   32.00278499
_symmetry_Int_Tables_number   1
_chemical_formula_structural   Y(C2N3)3
_chemical_formula_sum   'Y2 C12 N18'
_cell_volume   518.29472815
_cell_formula_units_Z   2
loop_
 _symmetry_equiv_pos_site_id
 _symmetry_equiv_pos_as_xyz
  1  'x, y, z'
loop_
 _atom_site_type_symbol
 _atom_site_label
 _atom_site_symmetry_multiplicity
 _atom_site_fract_x
 _atom_site_fract_y
 _atom_site_fract_z
 _atom_site_occupancy
  Y  Y0  1  0.00000000  0.28214700  0.25000000  1
  Y  Y1  1  0.00000000  0.71785300  0.75000000  1
  C  C0  1  0.70013500  0.74174400  0.25000000  1
  C  C1  1  0.70013500  0.55812100  0.75000000  1
  C  C2  1  0.29986500  0.25825600  0.75000000  1
  C  C3  1  0.29986500  0.44187900  0.25000000  1
  C  C4  1  0.69953800  0.29434300  0.93104500  1
  C  C5  1  0.69953800  0.00612000  0.06895500  1
  C  C6  1  0.69953800  0.29434300  0.56895500  1
  C  C7  1  0.69953800  0.00612000  0.43104500  1
  C  C8  1  0.30046200  0.70565700  0.06895500  1
  C  C9  1  0.30046200  0.99388000  0.93104500  1
  C  C10  1  0.30046200  0.70565700  0.43104500  1
  C  C11  1  0.30046200  0.99388000  0.56895500  1
  N  N0  1  0.00000000  0.53985100  0.25000000  1
  N  N1  1  0.00000000  0.46014900  0.75000000  1
  N  N2  1  0.41815900  0.92420800  0.25000000  1
  N  N3  1  0.41815900  0.65763300  0.75000000  1
  N  N4  1  0.58184100  0.07579200  0.75000000  1
  N  N5  1  0.58184100  0.34236700  0.25000000  1
  N  N6  1  0.00000000  0.13950200  0.98493400  1
  N  N7  1  0.00000000  0.86049800  0.01506600  1
  N  N8  1  0.00000000  0.13950200  0.51506600  1
  N  N9  1  0.00000000  0.86049800  0.48493400  1
  N  N10  1  0.41457600  0.44173800  0.88914100  1
  N  N11  1  0.41457600  0.14368600  0.11085900  1
  N  N12  1  0.41457600  0.44173800  0.61085900  1
  N  N13  1  0.41457600  0.14368600  0.38914100  1
  N  N14  1  0.58542400  0.55826200  0.11085900  1
  N  N15  1  0.58542400  0.85631400  0.88914100  1
  N  N16  1  0.58542400  0.55826200  0.38914100  1
  N  N17  1  0.58542400  0.85631400  0.61085900  1
loop_
_geom_bond_atom_site_label_1
_geom_bond_atom_site_label_2
_geom_bond_distance
_geom_bond_site_symmetry_2
C0 N2 1.178876 1_555
C0 N0 1.297011 1_655
C1 N3 1.178876 1_555
C1 N1 1.297011 1_655
C2 N4 1.178876 1_555
C2 N1 1.297011 1_555
C3 N5 1.178876 1_555
C3 N0 1.297011 1_555
C4 N10 1.179141 1_555
C4 N6 1.291072 1_655
C5 N11 1.179142 1_555
C5 N7 1.291072 1_645
C6 N12 1.179141 1_555
C6 N8 1.291072 1_655
C7 N13 1.179142 1_555
C7 N9 1.291072 1_645
C8 N14 1.179141 1_555
C8 N7 1.291072 1_555
C9 N15 1.179142 1_555
C9 N6 1.291072 1_565
C10 N16 1.179141 1_555
C10 N9 1.291072 1_555
C11 N17 1.179142 1_555
C11 N8 1.291072 1_565
N2 Y0 2.397753 1_565
N3 Y1 2.397753 1_555
N4 Y1 2.397753 1_645
N5 Y0 2.397753 1_655
N10 Y1 2.373545 1_555
N11 Y0 2.373545 1_555
N12 Y1 2.373545 1_555
N13 Y0 2.373545 1_555
N14 Y0 2.373545 1_655
N15 Y1 2.373545 1_655
N16 Y0 2.373545 1_655
N17 Y1 2.373545 1_655
