# generated using pymatgen
data_ThZr2U2O10
_symmetry_space_group_name_H-M   'P 1'
_cell_length_a   15.50643753
_cell_length_b   15.50643753
_cell_length_c   15.50643720
_cell_angle_alpha   14.07848214
_cell_angle_beta   14.07848214
_cell_angle_gamma   14.07848292
_symmetry_Int_Tables_number   1
_chemical_formula_structural   ThZr2U2O10
_chemical_formula_sum   'Th1 Zr2 U2 O10'
_cell_volume   192.02359182
_cell_formula_units_Z   1
loop_
 _symmetry_equiv_pos_site_id
 _symmetry_equiv_pos_as_xyz
  1  'x, y, z'
loop_
 _atom_site_type_symbol
 _atom_site_label
 _atom_site_symmetry_multiplicity
 _atom_site_fract_x
 _atom_site_fract_y
 _atom_site_fract_z
 _atom_site_occupancy
  Th  Th0  1  0.99677400  0.99677400  0.99677400  1
  Zr  Zr0  1  0.59595500  0.59595500  0.59595500  1
  Zr  Zr1  1  0.20212200  0.20212200  0.20212200  1
  U  U0  1  0.80320100  0.80320100  0.80320100  1
  U  U1  1  0.40185700  0.40185700  0.40185700  1
  O  O0  1  0.05123400  0.05123400  0.05123400  1
  O  O1  1  0.85417300  0.85417300  0.85417300  1
  O  O2  1  0.45304200  0.45304200  0.45304200  1
  O  O3  1  0.64444900  0.64444900  0.64444900  1
  O  O4  1  0.24843500  0.24843500  0.24843500  1
  O  O5  1  0.34900900  0.34900900  0.34900900  1
  O  O6  1  0.15389800  0.15389800  0.15389800  1
  O  O7  1  0.75231100  0.75231100  0.75231100  1
  O  O8  1  0.94378500  0.94378500  0.94378500  1
  O  O9  1  0.54975400  0.54975400  0.54975400  1
loop_
_geom_bond_atom_site_label_1
_geom_bond_atom_site_label_2
_geom_bond_distance
_geom_bond_site_symmetry_2
O0 U1 2.334267 1_554
O0 U1 2.334267 1_455
O0 U1 2.334267 1_545
O0 Th0 2.507948 1_444
O1 Zr1 2.295185 1_665
O1 Zr1 2.295185 1_566
O1 Zr1 2.295185 1_656
O1 U0 2.347322 1_555
O2 U0 2.327065 1_554
O2 U0 2.327065 1_545
O2 U0 2.327065 1_455
O2 U1 2.357131 1_555
O3 Zr0 2.233207 1_555
O3 Th0 2.362151 1_554
O3 Th0 2.362151 1_545
O3 Th0 2.362151 1_455
O4 Zr1 2.132769 1_555
O4 Zr0 2.289470 1_554
O4 Zr0 2.289470 1_455
O4 Zr0 2.289470 1_545
O5 Th0 2.360620 1_445
O5 Th0 2.360620 1_544
O5 Th0 2.360620 1_454
O5 U1 2.433714 1_555
O6 Zr1 2.220773 1_555
O6 U0 2.335432 1_445
O6 U0 2.335432 1_454
O6 U0 2.335432 1_544
O7 U1 2.331624 1_556
O7 U1 2.331624 1_655
O7 U1 2.331624 1_565
O7 U0 2.343545 1_555
O8 Zr0 2.293584 1_556
O8 Zr0 2.293584 1_655
O8 Zr0 2.293584 1_565
O8 Th0 2.440207 1_555
O9 Zr0 2.127611 1_555
O9 Zr1 2.290947 1_556
O9 Zr1 2.290947 1_565
O9 Zr1 2.290947 1_655
