# generated using pymatgen
data_Ca2V2O9
_symmetry_space_group_name_H-M   'P 1'
_cell_length_a   6.64548500
_cell_length_b   8.49490362
_cell_length_c   8.50938987
_cell_angle_alpha   109.63795510
_cell_angle_beta   92.92430438
_cell_angle_gamma   112.77195502
_symmetry_Int_Tables_number   1
_chemical_formula_structural   Ca2V2O9
_chemical_formula_sum   'Ca4 V4 O18'
_cell_volume   407.99917294
_cell_formula_units_Z   2
loop_
 _symmetry_equiv_pos_site_id
 _symmetry_equiv_pos_as_xyz
  1  'x, y, z'
loop_
 _atom_site_type_symbol
 _atom_site_label
 _atom_site_symmetry_multiplicity
 _atom_site_fract_x
 _atom_site_fract_y
 _atom_site_fract_z
 _atom_site_occupancy
  Ca  Ca0  1  0.13485200  0.95310100  0.29713000  1
  Ca  Ca1  1  0.86514800  0.04689900  0.70287000  1
  Ca  Ca2  1  0.32704500  0.94031400  0.79146700  1
  Ca  Ca3  1  0.67295500  0.05968600  0.20853300  1
  V  V0  1  0.74126500  0.73272500  0.86147400  1
  V  V1  1  0.25873500  0.26727500  0.13852600  1
  V  V2  1  0.48612200  0.25591900  0.64440000  1
  V  V3  1  0.51387800  0.74408100  0.35560000  1
  O  O0  1  0.53961300  0.49575100  0.73797200  1
  O  O1  1  0.46038700  0.50424900  0.26202800  1
  O  O2  1  0.93856900  0.81563900  0.74814400  1
  O  O3  1  0.06143100  0.18436100  0.25185600  1
  O  O4  1  0.87581500  0.74909800  0.04237300  1
  O  O5  1  0.12418500  0.25090200  0.95762700  1
  O  O6  1  0.61895700  0.88818800  0.91507900  1
  O  O7  1  0.38104300  0.11181200  0.08492100  1
  O  O8  1  0.63279900  0.19772800  0.76907600  1
  O  O9  1  0.36720100  0.80227200  0.23092400  1
  O  O10  1  0.53707800  0.19681700  0.44314600  1
  O  O11  1  0.46292200  0.80318300  0.55685400  1
  O  O12  1  0.21186900  0.09612700  0.61387700  1
  O  O13  1  0.78813100  0.90387300  0.38612300  1
  O  O14  1  0.01866100  0.40094700  0.63563100  1
  O  O15  1  0.98133900  0.59905300  0.36436900  1
  O  O16  1  0.90385600  0.45219000  0.23796800  1
  O  O17  1  0.09614400  0.54781000  0.76203200  1
loop_
_geom_bond_atom_site_label_1
_geom_bond_atom_site_label_2
_geom_bond_distance
_geom_bond_site_symmetry_2
Ca0 O4 2.334679 1_455
Ca0 O3 2.340391 1_565
Ca0 O9 2.340581 1_555
Ca0 O13 2.387956 1_455
Ca0 O12 2.485885 1_565
Ca0 O10 2.573529 1_565
Ca0 O7 2.825866 1_565
Ca0 O15 3.042168 1_455
Ca1 O5 2.334679 1_655
Ca1 O2 2.340391 1_545
Ca1 O8 2.340581 1_555
Ca1 O12 2.387956 1_655
Ca1 O13 2.485885 1_545
Ca1 O11 2.573529 1_545
Ca1 O6 2.825866 1_545
Ca1 O14 3.042168 1_655
Ca2 O2 2.333702 1_455
Ca2 O7 2.354869 1_566
Ca2 O11 2.364970 1_555
Ca2 O8 2.413821 1_565
Ca2 O6 2.415685 1_555
Ca2 O12 2.575301 1_565
Ca2 O17 2.995578 1_555
Ca3 O3 2.333702 1_655
Ca3 O6 2.354869 1_544
Ca3 O10 2.364970 1_555
Ca3 O9 2.413821 1_545
Ca3 O7 2.415685 1_555
Ca3 O13 2.575301 1_545
Ca3 O16 2.995578 1_555
O0 V2 1.797569 1_555
O0 V0 1.816225 1_555
O1 V3 1.797569 1_555
O1 V1 1.816225 1_555
O2 V0 1.736651 1_555
O3 V1 1.736651 1_555
O4 V0 1.675648 1_554
O5 V1 1.675648 1_556
O6 V0 1.754049 1_555
O7 V1 1.754049 1_555
O8 V2 1.714647 1_555
O9 V3 1.714647 1_555
O10 V2 1.706582 1_555
O11 V3 1.706582 1_555
O12 V2 1.741056 1_555
O13 V3 1.741056 1_555
O14 O17 1.233996 1_555
O15 O16 1.233996 1_555
