# generated using pymatgen
data_Sn2SeS2
_symmetry_space_group_name_H-M   'P 1'
_cell_length_a   3.89237000
_cell_length_b   9.17792900
_cell_length_c   14.52096700
_cell_angle_alpha   90.00000000
_cell_angle_beta   90.00000000
_cell_angle_gamma   90.00000000
_symmetry_Int_Tables_number   1
_chemical_formula_structural   Sn2SeS2
_chemical_formula_sum   'Sn8 Se4 S8'
_cell_volume   518.74550769
_cell_formula_units_Z   4
loop_
 _symmetry_equiv_pos_site_id
 _symmetry_equiv_pos_as_xyz
  1  'x, y, z'
loop_
 _atom_site_type_symbol
 _atom_site_label
 _atom_site_symmetry_multiplicity
 _atom_site_fract_x
 _atom_site_fract_y
 _atom_site_fract_z
 _atom_site_occupancy
  Sn  Sn0  1  0.25000000  0.15969900  0.94604400  1
  Sn  Sn1  1  0.25000000  0.65969900  0.55395600  1
  Sn  Sn2  1  0.75000000  0.84030100  0.05395600  1
  Sn  Sn3  1  0.75000000  0.34030100  0.44604400  1
  Sn  Sn4  1  0.75000000  0.47812900  0.82874600  1
  Sn  Sn5  1  0.75000000  0.97812900  0.67125400  1
  Sn  Sn6  1  0.25000000  0.52187100  0.17125400  1
  Sn  Sn7  1  0.25000000  0.02187100  0.32874600  1
  Se  Se0  1  0.75000000  0.34215200  0.00729400  1
  Se  Se1  1  0.75000000  0.84215200  0.49270600  1
  Se  Se2  1  0.25000000  0.65784800  0.99270600  1
  Se  Se3  1  0.25000000  0.15784800  0.50729400  1
  S  S0  1  0.25000000  0.28755000  0.79008300  1
  S  S1  1  0.25000000  0.78755000  0.70991700  1
  S  S2  1  0.75000000  0.71245000  0.20991700  1
  S  S3  1  0.75000000  0.21245000  0.29008300  1
  S  S4  1  0.75000000  0.98168600  0.89598000  1
  S  S5  1  0.75000000  0.48168600  0.60402000  1
  S  S6  1  0.25000000  0.01831400  0.10402000  1
  S  S7  1  0.25000000  0.51831400  0.39598000  1
loop_
_geom_bond_atom_site_label_1
_geom_bond_atom_site_label_2
_geom_bond_distance
_geom_bond_site_symmetry_2
Se0 Sn0 2.717126 1_554
Se0 Sn0 2.717126 1_654
Se0 Sn4 2.877414 1_554
Se1 Sn1 2.717126 1_555
Se1 Sn1 2.717126 1_655
Se1 Sn5 2.877414 1_555
Se2 Sn2 2.717126 1_556
Se2 Sn2 2.717126 1_456
Se2 Sn6 2.877414 1_556
Se3 Sn3 2.717126 1_555
Se3 Sn3 2.717126 1_455
Se3 Sn7 2.877414 1_555
S0 Sn0 2.550641 1_555
S0 Sn4 2.676239 1_555
S0 Sn4 2.676239 1_455
S1 Sn1 2.550641 1_555
S1 Sn5 2.676239 1_455
S1 Sn5 2.676239 1_555
S2 Sn2 2.550641 1_555
S2 Sn6 2.676239 1_655
S2 Sn6 2.676239 1_555
S3 Sn3 2.550641 1_555
S3 Sn7 2.676239 1_555
S3 Sn7 2.676239 1_655
S4 Sn2 2.635544 1_556
S4 Sn0 2.642992 1_665
S4 Sn0 2.642992 1_565
S5 Sn3 2.635544 1_555
S5 Sn1 2.642992 1_555
S5 Sn1 2.642992 1_655
S6 Sn0 2.635544 1_554
S6 Sn2 2.642992 1_545
S6 Sn2 2.642992 1_445
S7 Sn1 2.635544 1_555
S7 Sn3 2.642992 1_555
S7 Sn3 2.642992 1_455
