# generated using pymatgen
data_Mg14VW
_symmetry_space_group_name_H-M   'P 1'
_cell_length_a   6.27403458
_cell_length_b   6.09794301
_cell_length_c   10.01269492
_cell_angle_alpha   90.00000000
_cell_angle_beta   90.00000000
_cell_angle_gamma   119.07582856
_symmetry_Int_Tables_number   1
_chemical_formula_structural   Mg14VW
_chemical_formula_sum   'Mg14 V1 W1'
_cell_volume   334.79688914
_cell_formula_units_Z   1
loop_
 _symmetry_equiv_pos_site_id
 _symmetry_equiv_pos_as_xyz
  1  'x, y, z'
loop_
 _atom_site_type_symbol
 _atom_site_label
 _atom_site_symmetry_multiplicity
 _atom_site_fract_x
 _atom_site_fract_y
 _atom_site_fract_z
 _atom_site_occupancy
  Mg  Mg0  1  0.16764592  0.33382246  0.62500000  1
  Mg  Mg1  1  0.16634472  0.83317186  0.62500000  1
  Mg  Mg2  1  0.66398377  0.33220509  0.12500000  1
  Mg  Mg3  1  0.66369165  0.33241019  0.62500000  1
  Mg  Mg4  1  0.66398377  0.83177768  0.12500000  1
  Mg  Mg5  1  0.66369165  0.83128046  0.62500000  1
  Mg  Mg6  1  0.32707683  0.15983787  0.36227109  1
  Mg  Mg7  1  0.32707683  0.15983787  0.88772891  1
  Mg  Mg8  1  0.32707683  0.66723996  0.36227109  1
  Mg  Mg9  1  0.32707683  0.66723996  0.88772891  1
  Mg  Mg10  1  0.84380721  0.17190411  0.37141266  1
  Mg  Mg11  1  0.84380721  0.17190411  0.87858734  1
  Mg  Mg12  1  0.84766055  0.67383077  0.36683025  1
  Mg  Mg13  1  0.84766055  0.67383077  0.88316975  1
  V  V0  1  0.16282529  0.33141215  0.12500000  1
  W  W0  1  0.15659040  0.82829470  0.12500000  1
loop_
_geom_bond_atom_site_label_1
_geom_bond_atom_site_label_2
_geom_bond_distance
_geom_bond_site_symmetry_2
Mg0 Mg1 3.048980 1_545
Mg0 Mg1 3.048980 1_555
Mg0 Mg10 3.098418 1_455
Mg0 Mg11 3.098418 1_455
Mg0 Mg5 3.116402 1_555
Mg0 Mg3 3.116402 1_555
Mg0 Mg5 3.157650 1_445
Mg0 Mg3 3.157650 1_455
Mg0 Mg6 3.174555 1_555
Mg0 Mg7 3.174555 1_555
Mg0 Mg9 3.174561 1_555
Mg0 Mg8 3.174561 1_555
Mg1 Mg13 3.120211 1_455
Mg1 Mg12 3.120211 1_455
Mg1 Mg3 3.125993 1_565
Mg1 Mg5 3.125993 1_555
Mg1 Mg3 3.148074 1_455
Mg1 Mg5 3.148074 1_455
Mg1 Mg9 3.154791 1_555
Mg1 Mg8 3.154791 1_555
Mg1 Mg6 3.154796 1_565
Mg1 Mg7 3.154796 1_565
Mg2 Mg6 3.009561 1_555
Mg2 Mg7 3.009561 1_554
Mg2 Mg4 3.046365 1_555
Mg2 Mg4 3.051578 1_545
Mg2 W0 3.101008 1_655
Mg2 V0 3.132102 1_655
Mg2 V0 3.141939 1_555
Mg2 W0 3.173136 1_545
Mg3 Mg5 3.042082 1_555
Mg3 Mg5 3.055861 1_545
Mg3 Mg7 3.213685 1_555
Mg3 Mg6 3.213685 1_555
Mg4 Mg8 3.009561 1_555
Mg4 Mg9 3.009561 1_554
Mg4 W0 3.101008 1_655
Mg4 V0 3.132101 1_665
Mg4 V0 3.141938 1_555
Mg4 W0 3.173136 1_555
Mg5 Mg9 3.213685 1_555
Mg5 Mg8 3.213685 1_555
Mg6 W0 2.962053 1_545
Mg6 V0 2.974658 1_555
Mg7 W0 2.962053 1_546
Mg7 V0 2.974658 1_556
Mg8 W0 2.962047 1_555
Mg8 V0 2.974664 1_555
Mg9 W0 2.962047 1_556
Mg9 V0 2.974664 1_556
Mg10 V0 3.024462 1_655
Mg10 Mg12 3.049390 1_555
Mg10 Mg12 3.049390 1_545
Mg10 Mg2 3.063924 1_555
Mg10 Mg4 3.063930 1_545
Mg10 Mg8 3.069846 1_655
Mg10 Mg6 3.069846 1_655
Mg10 Mg3 3.123616 1_555
Mg10 Mg5 3.123622 1_545
Mg10 Mg8 3.208178 1_545
Mg10 Mg6 3.208178 1_555
Mg11 V0 3.024462 1_656
Mg11 Mg13 3.049390 1_555
Mg11 Mg13 3.049390 1_545
Mg11 Mg2 3.063924 1_556
Mg11 Mg4 3.063930 1_546
Mg11 Mg9 3.069846 1_655
Mg11 Mg7 3.069846 1_655
Mg11 Mg3 3.123616 1_555
Mg11 Mg5 3.123622 1_545
Mg11 Mg9 3.208178 1_545
Mg11 Mg7 3.208178 1_555
Mg12 W0 2.955097 1_655
Mg12 Mg4 3.032737 1_555
Mg12 Mg2 3.032743 1_555
Mg12 Mg5 3.164373 1_555
Mg12 Mg3 3.164379 1_555
Mg13 W0 2.955097 1_656
Mg13 Mg4 3.032737 1_556
Mg13 Mg2 3.032743 1_556
Mg13 Mg5 3.164373 1_555
Mg13 Mg3 3.164379 1_555
V0 W0 3.049163 1_555
V0 W0 3.049163 1_545
