# generated using pymatgen
data_Li9Mn2Co5O16
_symmetry_space_group_name_H-M   'P 1'
_cell_length_a   5.03502700
_cell_length_b   5.88698896
_cell_length_c   9.76687799
_cell_angle_alpha   100.57293229
_cell_angle_beta   93.35469119
_cell_angle_gamma   92.75899639
_symmetry_Int_Tables_number   1
_chemical_formula_structural   Li9Mn2Co5O16
_chemical_formula_sum   'Li9 Mn2 Co5 O16'
_cell_volume   283.58700523
_cell_formula_units_Z   1
loop_
 _symmetry_equiv_pos_site_id
 _symmetry_equiv_pos_as_xyz
  1  'x, y, z'
loop_
 _atom_site_type_symbol
 _atom_site_label
 _atom_site_symmetry_multiplicity
 _atom_site_fract_x
 _atom_site_fract_y
 _atom_site_fract_z
 _atom_site_occupancy
  Li  Li0  1  0.63082300  0.43424100  0.25470700  1
  Li  Li1  1  0.87587500  0.30252300  0.74382400  1
  Li  Li2  1  0.12380600  0.18219000  0.25312900  1
  Li  Li3  1  0.63705400  0.93616700  0.25678700  1
  Li  Li4  1  0.87619400  0.81781000  0.74687100  1
  Li  Li5  1  0.12412500  0.69747700  0.25617600  1
  Li  Li6  1  0.36917700  0.56575900  0.74529300  1
  Li  Li7  1  0.36294600  0.06383300  0.74321300  1
  Li  Li8  1  0.00000000  0.00000000  0.50000000  1
  Mn  Mn0  1  0.75047000  0.62819700  0.99995600  1
  Mn  Mn1  1  0.24953000  0.37180300  0.00004400  1
  Co  Co0  1  0.00000000  0.50000000  0.50000000  1
  Co  Co1  1  0.49370000  0.24547300  0.50129400  1
  Co  Co2  1  0.74940600  0.12376800  0.00058400  1
  Co  Co3  1  0.25059400  0.87623200  0.99941600  1
  Co  Co4  1  0.50630000  0.75452700  0.49870600  1
  O  O0  1  0.44392400  0.64051500  0.11754900  1
  O  O1  1  0.66603500  0.53597800  0.60761800  1
  O  O2  1  0.94713700  0.38517700  0.11967500  1
  O  O3  1  0.45042900  0.13255300  0.11576800  1
  O  O4  1  0.65421500  0.03047200  0.60827100  1
  O  O5  1  0.95372600  0.89325600  0.11892700  1
  O  O6  1  0.19693400  0.76588000  0.60844300  1
  O  O7  1  0.20702500  0.28298000  0.61169700  1
  O  O8  1  0.80306600  0.23412000  0.39155700  1
  O  O9  1  0.04627400  0.10674400  0.88107300  1
  O  O10  1  0.34578500  0.96952800  0.39172900  1
  O  O11  1  0.79297500  0.71702000  0.38830300  1
  O  O12  1  0.05286300  0.61482300  0.88032500  1
  O  O13  1  0.33396500  0.46402200  0.39238200  1
  O  O14  1  0.55607600  0.35948500  0.88245100  1
  O  O15  1  0.54957100  0.86744700  0.88423200  1
loop_
_geom_bond_atom_site_label_1
_geom_bond_atom_site_label_2
_geom_bond_distance
_geom_bond_site_symmetry_2
Li0 O11 2.021820 1_555
Li0 O13 2.060791 1_555
Li0 O8 2.113555 1_555
Li0 O2 2.123587 1_555
Li0 O3 2.153312 1_555
Li0 O0 2.171209 1_555
Li1 O9 2.094985 1_655
Li1 O4 2.107194 1_555
Li1 O7 2.162036 1_655
Li1 O14 2.163073 1_555
Li1 O12 2.180683 1_655
Li1 O1 2.328321 1_555
Li2 O5 2.062728 1_445
Li2 O2 2.111020 1_455
Li2 O13 2.134641 1_555
Li2 O8 2.163512 1_455
Li2 O3 2.179547 1_555
Li2 O10 2.286607 1_545
Li3 O10 2.021214 1_555
Li3 O8 2.095417 1_565
Li3 O11 2.125627 1_555
Li3 O5 2.141089 1_555
Li3 O0 2.153603 1_555
Li3 O3 2.157324 1_565
Li4 O9 2.062728 1_665
Li4 O12 2.111020 1_655
Li4 O1 2.134641 1_555
Li4 O6 2.163512 1_655
Li4 O15 2.179547 1_555
Li4 O4 2.286607 1_565
Li5 O5 2.094985 1_455
Li5 O10 2.107194 1_555
Li5 O11 2.162036 1_455
Li5 O0 2.163073 1_555
Li5 O2 2.180683 1_455
Li5 O13 2.328321 1_555
Li6 O7 2.021820 1_555
Li6 O1 2.060791 1_555
Li6 O6 2.113555 1_555
Li6 O12 2.123587 1_555
Li6 O15 2.153312 1_555
Li6 O14 2.171209 1_555
Li7 O4 2.021214 1_555
Li7 O6 2.095417 1_545
Li7 O7 2.125627 1_555
Li7 O9 2.141089 1_555
Li7 O14 2.153603 1_555
Li7 O15 2.157324 1_545
Li8 O7 2.021067 1_555
Li8 O11 2.021067 1_445
Li8 O10 2.087476 1_545
Li8 O4 2.087476 1_455
Li8 O6 2.132831 1_545
Li8 O8 2.132831 1_455
Mn0 O14 1.957240 1_555
Mn0 O5 1.968272 1_556
Mn0 O12 1.968647 1_655
Mn0 O0 1.973402 1_556
Mn0 O15 2.207262 1_555
Mn0 O2 2.238147 1_556
Mn1 O0 1.957240 1_555
Mn1 O9 1.968272 1_554
Mn1 O2 1.968647 1_455
Mn1 O14 1.973402 1_554
Mn1 O3 2.207262 1_555
Mn1 O12 2.238147 1_554
Co0 O6 1.916835 1_555
Co0 O8 1.916835 1_455
Co0 O13 2.033866 1_555
Co0 O1 2.033866 1_455
Co0 O7 2.101314 1_555
Co0 O11 2.101314 1_455
Co1 O7 1.849428 1_555
Co1 O10 1.868438 1_545
Co1 O8 1.938722 1_555
Co1 O4 1.957506 1_555
Co1 O1 1.963681 1_555
Co1 O13 1.983792 1_555
Co2 O15 1.916111 1_544
Co2 O3 1.928397 1_555
Co2 O2 1.942278 1_555
Co2 O9 1.944850 1_654
Co2 O14 2.188730 1_554
Co2 O5 2.192408 1_545
Co3 O3 1.916111 1_566
Co3 O15 1.928397 1_555
Co3 O12 1.942278 1_555
Co3 O5 1.944850 1_456
Co3 O0 2.188730 1_556
Co3 O9 2.192408 1_565
Co4 O11 1.849428 1_555
Co4 O4 1.868438 1_565
Co4 O6 1.938722 1_555
Co4 O10 1.957506 1_555
Co4 O13 1.963681 1_555
Co4 O1 1.983792 1_555
