# generated using pymatgen
data_Nb19Fe20
_symmetry_space_group_name_H-M   'P 1'
_cell_length_a   4.92945453
_cell_length_b   4.92945453
_cell_length_c   26.93469900
_cell_angle_alpha   90.00000000
_cell_angle_beta   90.00000000
_cell_angle_gamma   120.00000708
_symmetry_Int_Tables_number   1
_chemical_formula_structural   Nb19Fe20
_chemical_formula_sum   'Nb19 Fe20'
_cell_volume   566.81385418
_cell_formula_units_Z   1
loop_
 _symmetry_equiv_pos_site_id
 _symmetry_equiv_pos_as_xyz
  1  'x, y, z'
loop_
 _atom_site_type_symbol
 _atom_site_label
 _atom_site_symmetry_multiplicity
 _atom_site_fract_x
 _atom_site_fract_y
 _atom_site_fract_z
 _atom_site_occupancy
  Nb  Nb0  1  0.33333300  0.66666700  0.21690400  1
  Nb  Nb1  1  0.00000000  0.00000000  0.54916700  1
  Nb  Nb2  1  0.66666700  0.33333300  0.88139700  1
  Nb  Nb3  1  0.33333300  0.66666700  0.11860300  1
  Nb  Nb4  1  0.00000000  0.00000000  0.45083300  1
  Nb  Nb5  1  0.66666700  0.33333300  0.78309600  1
  Nb  Nb6  1  0.66666700  0.33333300  0.16845400  1
  Nb  Nb7  1  0.33333300  0.66666700  0.50002500  1
  Nb  Nb8  1  0.00000000  0.00000000  0.83167300  1
  Nb  Nb9  1  0.00000000  0.00000000  0.16832700  1
  Nb  Nb10  1  0.66666700  0.33333300  0.49997500  1
  Nb  Nb11  1  0.33333300  0.66666700  0.83154600  1
  Nb  Nb12  1  0.33333300  0.66666700  0.31963700  1
  Nb  Nb13  1  0.00000000  0.00000000  0.65272800  1
  Nb  Nb14  1  0.66666700  0.33333300  0.98415400  1
  Nb  Nb15  1  0.33333300  0.66666700  0.01584600  1
  Nb  Nb16  1  0.00000000  0.00000000  0.34727200  1
  Nb  Nb17  1  0.66666700  0.33333300  0.68036300  1
  Nb  Nb18  1  0.00000000  0.00000000  0.00000000  1
  Fe  Fe0  1  0.34069000  0.17034500  0.07901200  1
  Fe  Fe1  1  0.99980800  0.49990400  0.40862400  1
  Fe  Fe2  1  0.66621500  0.83310700  0.74133700  1
  Fe  Fe3  1  0.82965500  0.65931000  0.07901200  1
  Fe  Fe4  1  0.50009600  0.00019200  0.40862400  1
  Fe  Fe5  1  0.16689300  0.33378500  0.74133700  1
  Fe  Fe6  1  0.82965500  0.17034500  0.07901200  1
  Fe  Fe7  1  0.50009600  0.49990400  0.40862400  1
  Fe  Fe8  1  0.16689300  0.83310700  0.74133700  1
  Fe  Fe9  1  0.33378500  0.16689300  0.25866300  1
  Fe  Fe10  1  0.00019200  0.50009600  0.59137600  1
  Fe  Fe11  1  0.65931000  0.82965500  0.92098800  1
  Fe  Fe12  1  0.83310700  0.66621500  0.25866300  1
  Fe  Fe13  1  0.49990400  0.99980800  0.59137600  1
  Fe  Fe14  1  0.17034500  0.34069000  0.92098800  1
  Fe  Fe15  1  0.83310700  0.16689300  0.25866300  1
  Fe  Fe16  1  0.49990400  0.50009600  0.59137600  1
  Fe  Fe17  1  0.17034500  0.82965500  0.92098800  1
  Fe  Fe18  1  0.66666700  0.33333300  0.33379500  1
  Fe  Fe19  1  0.33333300  0.66666700  0.66620500  1
loop_
_geom_bond_atom_site_label_1
_geom_bond_atom_site_label_2
_geom_bond_distance
_geom_bond_site_symmetry_2
Nb0 Nb3 2.647708 1_555
Nb0 Nb12 2.767082 1_555
Nb0 Nb6 3.130944 1_455
Nb0 Nb6 3.130944 1_565
Nb0 Nb6 3.130952 1_555
Nb0 Nb9 3.132372 1_565
Nb0 Nb9 3.132375 1_665
Nb0 Nb9 3.132375 1_555
Nb1 Nb4 2.648597 1_555
Nb1 Nb13 2.789384 1_555
Nb1 Nb7 3.138759 1_545
Nb1 Nb7 3.138763 1_555
Nb1 Nb7 3.138763 1_445
Nb1 Nb10 3.139327 1_455
Nb1 Nb10 3.139331 1_555
Nb1 Nb10 3.139331 1_445
Nb2 Nb5 2.647708 1_555
Nb2 Nb8 3.145402 1_655
Nb2 Nb8 3.145405 1_665
Nb2 Nb8 3.145405 1_555
Nb3 Nb9 3.145402 1_565
Nb3 Nb9 3.145405 1_555
Nb3 Nb9 3.145405 1_665
Nb3 Nb6 3.146860 1_455
Nb3 Nb6 3.146860 1_565
Nb3 Nb6 3.146868 1_555
Nb4 Nb7 3.139327 1_545
Nb4 Nb7 3.139331 1_555
Nb4 Nb7 3.139331 1_445
Nb5 Nb8 3.132372 1_655
Nb5 Nb8 3.132375 1_555
Nb5 Nb8 3.132375 1_665
Nb6 Nb9 2.846021 1_655
Nb6 Nb9 2.846025 1_555
Nb6 Nb9 2.846025 1_665
Nb10 Nb7 2.846019 1_545
Nb10 Nb7 2.846019 1_655
Nb10 Nb7 2.846028 1_555
Nb10 Nb4 3.138759 1_655
Nb10 Nb4 3.138763 1_665
Nb10 Nb4 3.138763 1_555
Nb11 Nb8 2.846021 1_565
Nb11 Nb8 2.846025 1_555
Nb11 Nb8 2.846025 1_665
Nb11 Nb5 3.130944 1_455
Nb11 Nb5 3.130944 1_565
Nb11 Nb5 3.130952 1_555
Nb11 Nb2 3.146860 1_455
Nb11 Nb2 3.146860 1_565
Nb11 Nb2 3.146868 1_555
Nb12 Nb16 2.941746 1_565
Nb12 Nb16 2.941750 1_555
Nb12 Nb16 2.941750 1_665
Nb13 Nb17 2.941746 1_455
Nb13 Nb17 2.941750 1_445
Nb13 Nb17 2.941750 1_555
Nb14 Nb2 2.767729 1_555
Nb14 Nb18 2.877845 1_656
Nb14 Nb18 2.877849 1_666
Nb14 Nb18 2.877849 1_556
Nb14 Nb15 2.971276 1_546
Nb14 Nb15 2.971276 1_656
Nb14 Nb15 2.971284 1_556
Nb15 Nb3 2.767729 1_555
Nb15 Nb18 2.877845 1_565
Nb15 Nb18 2.877849 1_665
Nb15 Nb18 2.877849 1_555
Nb16 Nb4 2.789384 1_555
Nb17 Nb5 2.767082 1_555
Fe0 Fe3 2.410330 1_555
Fe0 Fe6 2.410331 1_555
Fe0 Fe3 2.519124 1_445
Fe0 Fe6 2.519124 1_455
Fe0 Nb18 2.577676 1_555
Fe0 Nb3 2.685703 1_545
Fe0 Nb3 2.685708 1_555
Fe0 Nb6 2.782139 1_555
Fe0 Nb9 2.811154 1_555
Fe0 Nb14 2.909373 1_554
Fe0 Nb15 2.995074 1_545
Fe0 Nb15 2.995079 1_555
Fe1 Fe4 2.463307 1_555
Fe1 Fe7 2.463308 1_555
Fe1 Fe4 2.466147 1_665
Fe1 Fe7 2.466147 1_655
Fe1 Fe18 2.466749 1_555
Fe1 Nb4 2.714294 1_665
Fe1 Nb4 2.714294 1_655
Fe1 Nb12 2.787853 1_655
Fe1 Nb10 2.841961 1_555
Fe1 Nb7 2.843947 1_655
Fe1 Nb16 2.967428 1_665
Fe1 Nb16 2.967428 1_655
Fe2 Fe5 2.461385 1_555
Fe2 Fe8 2.461385 1_555
Fe2 Fe5 2.468069 1_665
Fe2 Fe8 2.468069 1_655
Fe2 Nb5 2.709240 1_565
Fe2 Nb5 2.709240 1_555
Fe2 Nb13 2.779673 1_665
Fe2 Nb11 2.814814 1_555
Fe2 Nb8 2.819713 1_665
Fe2 Nb17 2.961771 1_565
Fe2 Nb17 2.961771 1_555
Fe3 Fe6 2.410331 1_555
Fe3 Fe6 2.519124 1_565
Fe3 Nb18 2.577676 1_665
Fe3 Nb3 2.685703 1_655
Fe3 Nb3 2.685708 1_555
Fe3 Nb6 2.782139 1_555
Fe3 Nb9 2.811154 1_665
Fe3 Nb14 2.909373 1_554
Fe3 Nb15 2.995074 1_655
Fe3 Nb15 2.995079 1_555
Fe4 Fe7 2.463308 1_555
Fe4 Fe7 2.466147 1_545
Fe4 Nb4 2.714294 1_555
Fe4 Nb4 2.714294 1_655
Fe4 Nb12 2.787853 1_545
Fe4 Nb10 2.841961 1_555
Fe4 Nb7 2.843947 1_545
Fe4 Nb16 2.967428 1_555
Fe4 Nb16 2.967428 1_655
Fe5 Fe8 2.461385 1_555
Fe5 Fe8 2.468069 1_545
Fe5 Nb5 2.709240 1_455
Fe5 Nb5 2.709240 1_555
Fe5 Nb13 2.779673 1_555
Fe5 Nb11 2.814814 1_555
Fe5 Nb8 2.819713 1_555
Fe5 Nb17 2.961771 1_455
Fe5 Nb17 2.961771 1_555
Fe6 Nb18 2.577676 1_655
Fe6 Nb3 2.685705 1_545
Fe6 Nb3 2.685705 1_655
Fe6 Nb6 2.782137 1_555
Fe6 Nb9 2.811154 1_655
Fe6 Nb14 2.909371 1_554
Fe6 Nb15 2.995076 1_545
Fe6 Nb15 2.995076 1_655
Fe7 Nb4 2.714294 1_555
Fe7 Nb4 2.714294 1_665
Fe7 Nb12 2.787855 1_555
Fe7 Nb10 2.841963 1_555
Fe7 Nb7 2.843949 1_555
Fe7 Nb16 2.967428 1_555
Fe7 Nb16 2.967428 1_665
Fe8 Nb5 2.709240 1_455
Fe8 Nb5 2.709240 1_565
Fe8 Nb13 2.779675 1_565
Fe8 Nb11 2.814809 1_555
Fe8 Nb8 2.819715 1_565
Fe8 Nb17 2.961771 1_455
Fe8 Nb17 2.961771 1_565
Fe9 Nb0 2.709240 1_545
Fe9 Nb0 2.709240 1_555
Fe9 Nb16 2.779673 1_555
Fe9 Nb6 2.814814 1_555
Fe9 Nb9 2.819713 1_555
Fe9 Nb12 2.961771 1_545
Fe9 Nb12 2.961771 1_555
Fe10 Fe13 2.463307 1_555
Fe10 Fe16 2.463308 1_555
Fe10 Fe13 2.466147 1_445
Fe10 Fe16 2.466147 1_455
Fe10 Fe19 2.466749 1_555
Fe10 Nb1 2.714294 1_555
Fe10 Nb1 2.714294 1_565
Fe10 Nb17 2.787853 1_455
Fe10 Nb7 2.841961 1_555
Fe10 Nb10 2.843947 1_455
Fe10 Nb13 2.967428 1_555
Fe10 Nb13 2.967428 1_565
Fe11 Fe14 2.410330 1_555
Fe11 Fe17 2.410331 1_555
Fe11 Fe14 2.519124 1_665
Fe11 Fe17 2.519124 1_655
Fe11 Nb18 2.577676 1_666
Fe11 Nb2 2.685703 1_565
Fe11 Nb2 2.685708 1_555
Fe11 Nb11 2.782139 1_555
Fe11 Nb8 2.811154 1_665
Fe11 Nb15 2.909373 1_556
Fe11 Nb14 2.995074 1_565
Fe11 Nb14 2.995079 1_555
Fe12 Fe9 2.461385 1_555
Fe12 Fe15 2.461385 1_555
Fe12 Fe9 2.468069 1_665
Fe12 Fe15 2.468069 1_565
Fe12 Fe18 2.472786 1_555
Fe12 Nb0 2.709240 1_655
Fe12 Nb0 2.709240 1_555
Fe12 Nb16 2.779673 1_665
Fe12 Nb6 2.814814 1_555
Fe12 Nb9 2.819713 1_665
Fe12 Nb12 2.961771 1_655
Fe12 Nb12 2.961771 1_555
Fe13 Fe16 2.463308 1_555
Fe13 Fe16 2.466147 1_565
Fe13 Fe19 2.466749 1_555
Fe13 Nb1 2.714294 1_665
Fe13 Nb1 2.714294 1_565
Fe13 Nb17 2.787853 1_565
Fe13 Nb7 2.841961 1_555
Fe13 Nb10 2.843947 1_565
Fe13 Nb13 2.967428 1_665
Fe13 Nb13 2.967428 1_565
Fe14 Fe17 2.410331 1_555
Fe14 Fe17 2.519124 1_545
Fe14 Nb18 2.577676 1_556
Fe14 Nb2 2.685703 1_455
Fe14 Nb2 2.685708 1_555
Fe14 Nb11 2.782139 1_555
Fe14 Nb8 2.811154 1_555
Fe14 Nb15 2.909373 1_556
Fe14 Nb14 2.995074 1_455
Fe14 Nb14 2.995079 1_555
Fe15 Fe9 2.461385 1_555
Fe15 Fe9 2.468069 1_655
Fe15 Fe18 2.472781 1_555
Fe15 Nb0 2.709240 1_545
Fe15 Nb0 2.709240 1_655
Fe15 Nb16 2.779675 1_655
Fe15 Nb6 2.814809 1_555
Fe15 Nb9 2.819715 1_655
Fe15 Nb12 2.961771 1_545
Fe15 Nb12 2.961771 1_655
Fe16 Fe19 2.466751 1_555
Fe16 Nb1 2.714294 1_555
Fe16 Nb1 2.714294 1_665
Fe16 Nb17 2.787855 1_555
Fe16 Nb7 2.841963 1_555
Fe16 Nb10 2.843949 1_555
Fe16 Nb13 2.967428 1_555
Fe16 Nb13 2.967428 1_665
Fe17 Nb18 2.577676 1_566
Fe17 Nb2 2.685705 1_455
Fe17 Nb2 2.685705 1_565
Fe17 Nb11 2.782137 1_555
Fe17 Nb8 2.811154 1_565
Fe17 Nb15 2.909371 1_556
Fe17 Nb14 2.995076 1_455
Fe17 Nb14 2.995076 1_565
Fe18 Fe4 2.466749 1_555
Fe18 Fe7 2.466751 1_555
Fe18 Fe9 2.472786 1_555
Fe18 Nb16 2.869075 1_655
Fe18 Nb16 2.869079 1_665
Fe18 Nb16 2.869079 1_555
Fe18 Nb12 2.871453 1_545
Fe18 Nb12 2.871453 1_655
Fe18 Nb12 2.871462 1_555
Fe19 Fe8 2.472781 1_555
Fe19 Fe5 2.472786 1_555
Fe19 Fe2 2.472786 1_555
Fe19 Nb13 2.869075 1_565
Fe19 Nb13 2.869079 1_665
Fe19 Nb13 2.869079 1_555
Fe19 Nb17 2.871453 1_455
Fe19 Nb17 2.871453 1_565
Fe19 Nb17 2.871462 1_555
