# generated using pymatgen
data_Yb2Al2O5
_symmetry_space_group_name_H-M   'P 1'
_cell_length_a   3.66545960
_cell_length_b   3.66545960
_cell_length_c   6.91056637
_cell_angle_alpha   90.00000000
_cell_angle_beta   90.00000000
_cell_angle_gamma   90.00000000
_symmetry_Int_Tables_number   1
_chemical_formula_structural   Yb2Al2O5
_chemical_formula_sum   'Yb2 Al2 O5'
_cell_volume   92.84756475
_cell_formula_units_Z   1
loop_
 _symmetry_equiv_pos_site_id
 _symmetry_equiv_pos_as_xyz
  1  'x, y, z'
loop_
 _atom_site_type_symbol
 _atom_site_label
 _atom_site_symmetry_multiplicity
 _atom_site_fract_x
 _atom_site_fract_y
 _atom_site_fract_z
 _atom_site_occupancy
  Yb  Yb0  1  0.00000000  0.00000000  0.00000000  1
  Yb  Yb1  1  0.00000000  0.00000000  0.50000000  1
  Al  Al0  1  0.50000000  0.50000000  0.23031321  1
  Al  Al1  1  0.50000000  0.50000000  0.76968679  1
  O  O0  1  0.50000000  0.00000000  0.24102606  1
  O  O1  1  0.50000000  0.00000000  0.75897394  1
  O  O2  1  0.50000000  0.50000000  0.50000000  1
  O  O3  1  0.00000000  0.50000000  0.24102606  1
  O  O4  1  0.00000000  0.50000000  0.75897394  1
loop_
_geom_bond_atom_site_label_1
_geom_bond_atom_site_label_2
_geom_bond_distance
_geom_bond_site_symmetry_2
Al0 O3 1.834224 1_555
Al0 O0 1.834224 1_555
Al0 O0 1.834224 1_565
Al0 O3 1.834224 1_655
Al0 O2 1.863688 1_555
Al1 O4 1.834224 1_555
Al1 O1 1.834224 1_555
Al1 O4 1.834224 1_655
Al1 O1 1.834224 1_565
Al1 O2 1.863688 1_555
O0 Yb0 2.476532 1_555
O0 Yb0 2.476532 1_655
O0 Yb1 2.561595 1_655
O0 Yb1 2.561595 1_555
O1 Yb0 2.476532 1_656
O1 Yb0 2.476532 1_556
O1 Yb1 2.561595 1_655
O1 Yb1 2.561595 1_555
O2 Yb1 2.591871 1_555
O2 Yb1 2.591871 1_565
O2 Yb1 2.591871 1_665
O2 Yb1 2.591871 1_655
O3 Yb0 2.476532 1_555
O3 Yb0 2.476532 1_565
O3 Yb1 2.561595 1_565
O3 Yb1 2.561595 1_555
O4 Yb0 2.476532 1_566
O4 Yb0 2.476532 1_556
O4 Yb1 2.561595 1_555
O4 Yb1 2.561595 1_565
