# generated using pymatgen
data_CrSi(Ag3O4)2
_symmetry_space_group_name_H-M   'P 1'
_cell_length_a   10.51205051
_cell_length_b   10.51205051
_cell_length_c   10.51205051
_cell_angle_alpha   140.67049916
_cell_angle_beta   140.67049916
_cell_angle_gamma   56.83664238
_symmetry_Int_Tables_number   1
_chemical_formula_structural   CrSi(Ag3O4)2
_chemical_formula_sum   'Cr2 Si2 Ag12 O16'
_cell_volume   462.77275611
_cell_formula_units_Z   2
loop_
 _symmetry_equiv_pos_site_id
 _symmetry_equiv_pos_as_xyz
  1  'x, y, z'
loop_
 _atom_site_type_symbol
 _atom_site_label
 _atom_site_symmetry_multiplicity
 _atom_site_fract_x
 _atom_site_fract_y
 _atom_site_fract_z
 _atom_site_occupancy
  Cr  Cr0  1  0.75000000  0.25000000  0.50000000  1
  Cr  Cr1  1  0.00000000  0.00000000  0.00000000  1
  Si  Si0  1  0.25000000  0.75000000  0.50000000  1
  Si  Si1  1  0.50000000  0.50000000  0.00000000  1
  Ag  Ag0  1  0.17039500  0.62500000  0.04539500  1
  Ag  Ag1  1  0.57960500  0.62500000  0.45460500  1
  Ag  Ag2  1  0.37500000  0.42039500  0.54539500  1
  Ag  Ag3  1  0.87500000  0.42039500  0.04539500  1
  Ag  Ag4  1  0.17039500  0.12500000  0.54539500  1
  Ag  Ag5  1  0.57960500  0.12500000  0.95460500  1
  Ag  Ag6  1  0.37500000  0.82960500  0.95460500  1
  Ag  Ag7  1  0.87500000  0.82960500  0.45460500  1
  Ag  Ag8  1  0.74009300  0.74009300  0.00000000  1
  Ag  Ag9  1  0.49009300  0.99009300  0.50000000  1
  Ag  Ag10  1  0.00990700  0.50990700  0.50000000  1
  Ag  Ag11  1  0.25990700  0.25990700  0.00000000  1
  O  O0  1  0.10937300  0.80180000  0.30757300  1
  O  O1  1  0.49422700  0.80180000  0.69242700  1
  O  O2  1  0.55180000  0.35937300  0.80757300  1
  O  O3  1  0.55180000  0.74422700  0.19242700  1
  O  O4  1  0.64062700  0.44820000  0.19242700  1
  O  O5  1  0.25577300  0.44820000  0.80757300  1
  O  O6  1  0.19820000  0.89062700  0.69242700  1
  O  O7  1  0.19820000  0.50577300  0.30757300  1
  O  O8  1  0.80139400  0.10617600  0.30478200  1
  O  O9  1  0.85617600  0.05139400  0.80478200  1
  O  O10  1  0.24661200  0.05139400  0.19521800  1
  O  O11  1  0.80139400  0.49661200  0.69521800  1
  O  O12  1  0.94860600  0.14382400  0.19521800  1
  O  O13  1  0.89382400  0.19860600  0.69521800  1
  O  O14  1  0.50338800  0.19860600  0.30478200  1
  O  O15  1  0.94860600  0.75338800  0.80478200  1
loop_
_geom_bond_atom_site_label_1
_geom_bond_atom_site_label_2
_geom_bond_distance
_geom_bond_site_symmetry_2
Cr0 O11 1.676508 1_555
Cr0 O13 1.676508 1_555
Cr0 O14 1.676508 1_555
Cr0 O8 1.676508 1_555
Cr1 O9 1.676508 1_454
Cr1 O10 1.676508 1_555
Cr1 O12 1.676508 1_455
Cr1 O15 1.676508 1_444
Ag0 O0 2.228868 1_555
Ag0 O5 2.228868 1_554
Ag0 O11 2.523944 1_454
Ag0 O15 2.523944 1_454
Ag1 O4 2.228868 1_555
Ag1 O1 2.228868 1_555
Ag1 O15 2.523944 1_555
Ag1 O11 2.523944 1_555
Ag2 O7 2.228868 1_555
Ag2 O2 2.228868 1_555
Ag2 O14 2.523944 1_555
Ag2 O10 2.523944 1_555
Ag3 O7 2.228868 1_655
Ag3 O2 2.228868 1_554
Ag3 O13 2.523944 1_554
Ag3 O9 2.523944 1_554
Ag4 O5 2.228868 1_555
Ag4 O0 2.228868 1_545
Ag4 O8 2.523944 1_455
Ag4 O12 2.523944 1_455
Ag5 O4 2.228868 1_556
Ag5 O1 2.228868 1_545
Ag5 O8 2.523944 1_556
Ag5 O12 2.523944 1_556
Ag6 O6 2.228868 1_555
Ag6 O3 2.228868 1_556
Ag6 O14 2.523944 1_566
Ag6 O10 2.523944 1_566
Ag7 O6 2.228868 1_655
Ag7 O3 2.228868 1_555
Ag7 O9 2.523944 1_565
Ag7 O13 2.523944 1_565
Ag8 O8 2.436084 1_565
Ag8 O11 2.436084 1_554
Ag8 O1 2.457057 1_554
Ag8 O0 2.457057 1_655
Ag9 O10 2.436084 1_565
Ag9 O9 2.436084 1_565
Ag9 O3 2.457057 1_555
Ag9 O2 2.457057 1_565
Ag10 O12 2.436084 1_455
Ag10 O15 2.436084 1_455
Ag10 O5 2.457057 1_555
Ag10 O4 2.457057 1_455
Ag11 O14 2.436084 1_555
Ag11 O13 2.436084 1_454
Ag11 O7 2.457057 1_555
Ag11 O6 2.457057 1_544
O0 Si0 1.664586 1_555
O1 Si0 1.664586 1_555
O2 Si1 1.664586 1_556
O3 Si1 1.664586 1_555
O4 Si1 1.664586 1_555
O5 Si1 1.664586 1_556
O6 Si0 1.664586 1_555
O7 Si0 1.664586 1_555
