# generated using pymatgen
data_CoBiO3
_symmetry_space_group_name_H-M   'P 1'
_cell_length_a   5.36540800
_cell_length_b   5.50862800
_cell_length_c   7.62915900
_cell_angle_alpha   90.00000000
_cell_angle_beta   90.00000000
_cell_angle_gamma   90.00000000
_symmetry_Int_Tables_number   1
_chemical_formula_structural   CoBiO3
_chemical_formula_sum   'Co4 Bi4 O12'
_cell_volume   225.48770370
_cell_formula_units_Z   4
loop_
 _symmetry_equiv_pos_site_id
 _symmetry_equiv_pos_as_xyz
  1  'x, y, z'
loop_
 _atom_site_type_symbol
 _atom_site_label
 _atom_site_symmetry_multiplicity
 _atom_site_fract_x
 _atom_site_fract_y
 _atom_site_fract_z
 _atom_site_occupancy
  Co  Co0  1  0.50000000  0.00000000  0.00000000  1
  Co  Co1  1  0.00000000  0.50000000  0.50000000  1
  Co  Co2  1  0.50000000  0.00000000  0.50000000  1
  Co  Co3  1  0.00000000  0.50000000  0.00000000  1
  Bi  Bi0  1  0.51007600  0.55403100  0.25000000  1
  Bi  Bi1  1  0.98992400  0.05403100  0.25000000  1
  Bi  Bi2  1  0.48992400  0.44596900  0.75000000  1
  Bi  Bi3  1  0.01007600  0.94596900  0.75000000  1
  O  O0  1  0.41669700  0.97652100  0.25000000  1
  O  O1  1  0.08330300  0.47652100  0.25000000  1
  O  O2  1  0.58330300  0.02347900  0.75000000  1
  O  O3  1  0.91669700  0.52347900  0.75000000  1
  O  O4  1  0.79549200  0.79298200  0.04158200  1
  O  O5  1  0.70450800  0.29298200  0.45841800  1
  O  O6  1  0.20450800  0.20701800  0.54158200  1
  O  O7  1  0.29549200  0.70701800  0.95841800  1
  O  O8  1  0.20450800  0.20701800  0.95841800  1
  O  O9  1  0.29549200  0.70701800  0.54158200  1
  O  O10  1  0.79549200  0.79298200  0.45841800  1
  O  O11  1  0.70450800  0.29298200  0.04158200  1
loop_
_geom_bond_atom_site_label_1
_geom_bond_atom_site_label_2
_geom_bond_distance
_geom_bond_site_symmetry_2
Co0 O2 1.963225 1_554
Co0 O0 1.963225 1_545
Co0 O7 1.977221 1_544
Co0 O11 1.977221 1_555
Co0 O4 1.978565 1_545
Co0 O8 1.978565 1_554
Co1 O1 1.963225 1_555
Co1 O3 1.963225 1_455
Co1 O10 1.977221 1_455
Co1 O6 1.977221 1_555
Co1 O5 1.978565 1_455
Co1 O9 1.978565 1_555
Co2 O0 1.963225 1_545
Co2 O2 1.963225 1_555
Co2 O9 1.977221 1_545
Co2 O5 1.977221 1_555
Co2 O10 1.978565 1_545
Co2 O6 1.978565 1_555
Co3 O3 1.963225 1_454
Co3 O1 1.963225 1_555
Co3 O8 1.977221 1_554
Co3 O4 1.977221 1_455
Co3 O11 1.978565 1_455
Co3 O7 1.978565 1_554
Bi0 O1 2.329279 1_555
Bi0 O0 2.380657 1_555
Bi0 O5 2.384210 1_555
Bi0 O11 2.384210 1_555
Bi0 O4 2.570214 1_555
Bi0 O10 2.570214 1_555
Bi0 O7 2.642783 1_554
Bi0 O9 2.642783 1_555
Bi1 O0 2.329279 1_645
Bi1 O1 2.380657 1_655
Bi1 O4 2.384210 1_545
Bi1 O10 2.384210 1_545
Bi1 O5 2.570214 1_555
Bi1 O11 2.570214 1_555
Bi1 O8 2.642783 1_654
Bi1 O6 2.642783 1_655
Bi2 O3 2.329279 1_555
Bi2 O2 2.380657 1_555
Bi2 O9 2.384210 1_555
Bi2 O7 2.384210 1_555
Bi2 O6 2.570214 1_555
Bi2 O8 2.570214 1_555
Bi2 O5 2.642783 1_555
Bi2 O11 2.642783 1_556
Bi3 O2 2.329279 1_465
Bi3 O3 2.380657 1_455
Bi3 O8 2.384210 1_565
Bi3 O6 2.384210 1_565
Bi3 O7 2.570214 1_555
Bi3 O9 2.570214 1_555
Bi3 O10 2.642783 1_455
Bi3 O4 2.642783 1_456
