# generated using pymatgen
data_Ta4CrTe4
_symmetry_space_group_name_H-M   'P 1'
_cell_length_a   4.85078100
_cell_length_b   10.80512000
_cell_length_c   18.77772300
_cell_angle_alpha   90.00000000
_cell_angle_beta   90.00000000
_cell_angle_gamma   90.00000000
_symmetry_Int_Tables_number   1
_chemical_formula_structural   Ta4CrTe4
_chemical_formula_sum   'Ta16 Cr4 Te16'
_cell_volume   984.20188058
_cell_formula_units_Z   4
loop_
 _symmetry_equiv_pos_site_id
 _symmetry_equiv_pos_as_xyz
  1  'x, y, z'
loop_
 _atom_site_type_symbol
 _atom_site_label
 _atom_site_symmetry_multiplicity
 _atom_site_fract_x
 _atom_site_fract_y
 _atom_site_fract_z
 _atom_site_occupancy
  Ta  Ta0  1  0.50000000  0.56588100  0.38023800  1
  Ta  Ta1  1  0.50000000  0.43411900  0.61976200  1
  Ta  Ta2  1  0.50000000  0.06588100  0.11976200  1
  Ta  Ta3  1  0.50000000  0.93411900  0.88023800  1
  Ta  Ta4  1  0.50000000  0.70919300  0.53750500  1
  Ta  Ta5  1  0.50000000  0.29080700  0.46249500  1
  Ta  Ta6  1  0.50000000  0.20919300  0.96249500  1
  Ta  Ta7  1  0.50000000  0.79080700  0.03750500  1
  Ta  Ta8  1  0.00000000  0.69423900  0.44131700  1
  Ta  Ta9  1  0.00000000  0.30576100  0.55868300  1
  Ta  Ta10  1  0.00000000  0.19423900  0.05868300  1
  Ta  Ta11  1  0.00000000  0.80576100  0.94131700  1
  Ta  Ta12  1  0.00000000  0.39876900  0.38871900  1
  Ta  Ta13  1  0.00000000  0.60123100  0.61128100  1
  Ta  Ta14  1  0.00000000  0.89876900  0.11128100  1
  Ta  Ta15  1  0.00000000  0.10123100  0.88871900  1
  Cr  Cr0  1  0.24981700  0.50000000  0.50000000  1
  Cr  Cr1  1  0.75018300  0.00000000  0.00000000  1
  Cr  Cr2  1  0.75018300  0.50000000  0.50000000  1
  Cr  Cr3  1  0.24981700  0.00000000  0.00000000  1
  Te  Te0  1  0.00000000  0.85408700  0.56422100  1
  Te  Te1  1  0.00000000  0.14591300  0.43577900  1
  Te  Te2  1  0.00000000  0.35408700  0.93577900  1
  Te  Te3  1  0.00000000  0.64591300  0.06422100  1
  Te  Te4  1  0.50000000  0.32912000  0.31139700  1
  Te  Te5  1  0.50000000  0.67088000  0.68860300  1
  Te  Te6  1  0.50000000  0.82912000  0.18860300  1
  Te  Te7  1  0.50000000  0.17088000  0.81139700  1
  Te  Te8  1  0.50000000  0.83021300  0.40099200  1
  Te  Te9  1  0.50000000  0.16978700  0.59900800  1
  Te  Te10  1  0.50000000  0.33021300  0.09900800  1
  Te  Te11  1  0.50000000  0.66978700  0.90099200  1
  Te  Te12  1  0.00000000  0.60974100  0.29615700  1
  Te  Te13  1  0.00000000  0.39025900  0.70384300  1
  Te  Te14  1  0.00000000  0.10974100  0.20384300  1
  Te  Te15  1  0.00000000  0.89025900  0.79615700  1
loop_
_geom_bond_atom_site_label_1
_geom_bond_atom_site_label_2
_geom_bond_distance
_geom_bond_site_symmetry_2
Ta0 Te4 2.866280 1_555
Ta0 Te8 2.882604 1_555
Ta0 Te12 2.932555 1_555
Ta0 Te12 2.932555 1_655
Ta1 Te5 2.866280 1_555
Ta1 Te9 2.882604 1_555
Ta1 Te13 2.932555 1_555
Ta1 Te13 2.932555 1_655
Ta2 Te6 2.866280 1_545
Ta2 Te10 2.882604 1_555
Ta2 Te14 2.932555 1_555
Ta2 Te14 2.932555 1_655
Ta3 Te7 2.866280 1_565
Ta3 Te11 2.882604 1_555
Ta3 Te15 2.932555 1_655
Ta3 Te15 2.932555 1_555
Ta4 Te5 2.867318 1_555
Ta4 Te8 2.877664 1_555
Ta4 Te0 2.930065 1_655
Ta4 Te0 2.930065 1_555
Ta5 Te4 2.867318 1_555
Ta5 Te9 2.877664 1_555
Ta5 Te1 2.930065 1_655
Ta5 Te1 2.930065 1_555
Ta6 Te7 2.867318 1_555
Ta6 Te10 2.877664 1_556
Ta6 Te2 2.930065 1_555
Ta6 Te2 2.930065 1_655
Ta7 Te6 2.867318 1_555
Ta7 Te11 2.877664 1_554
Ta7 Te3 2.930065 1_555
Ta7 Te3 2.930065 1_655
Ta8 Te12 2.874619 1_555
Ta8 Te0 2.882593 1_555
Ta8 Te8 2.935044 1_455
Ta8 Te8 2.935044 1_555
Ta9 Te13 2.874619 1_555
Ta9 Te1 2.882593 1_555
Ta9 Te9 2.935044 1_555
Ta9 Te9 2.935044 1_455
Ta10 Te14 2.874619 1_555
Ta10 Te2 2.882593 1_554
Ta10 Te10 2.935044 1_455
Ta10 Te10 2.935044 1_555
Ta11 Te15 2.874619 1_555
Ta11 Te3 2.882593 1_556
Ta11 Te11 2.935044 1_455
Ta11 Te11 2.935044 1_555
Ta12 Te12 2.866615 1_555
Ta12 Te1 2.871494 1_555
Ta12 Te4 2.925231 1_555
Ta12 Te4 2.925231 1_455
Ta13 Te13 2.866615 1_555
Ta13 Te0 2.871494 1_555
Ta13 Te5 2.925231 1_455
Ta13 Te5 2.925231 1_555
Ta14 Te14 2.866615 1_565
Ta14 Te3 2.871494 1_555
Ta14 Te6 2.925231 1_455
Ta14 Te6 2.925231 1_555
Ta15 Te15 2.866615 1_545
Ta15 Te2 2.871494 1_555
Ta15 Te7 2.925231 1_555
Ta15 Te7 2.925231 1_455
Cr0 Cr2 2.423615 1_455
Cr0 Cr2 2.427166 1_555
Cr0 Ta13 2.651669 1_555
Cr0 Ta12 2.651669 1_555
Cr0 Ta1 2.652711 1_555
Cr0 Ta0 2.652711 1_555
Cr0 Ta4 2.660446 1_555
Cr0 Ta5 2.660446 1_555
Cr0 Ta9 2.662253 1_555
Cr0 Ta8 2.662253 1_555
Cr1 Cr3 2.423615 1_655
Cr1 Cr3 2.427166 1_555
Cr1 Ta14 2.651669 1_645
Cr1 Ta15 2.651669 1_654
Cr1 Ta2 2.652711 1_555
Cr1 Ta3 2.652711 1_544
Cr1 Ta6 2.660446 1_554
Cr1 Ta7 2.660446 1_545
Cr1 Ta10 2.662253 1_655
Cr1 Ta11 2.662253 1_644
Cr2 Ta13 2.651669 1_655
Cr2 Ta12 2.651669 1_655
Cr2 Ta1 2.652711 1_555
Cr2 Ta0 2.652711 1_555
Cr2 Ta4 2.660446 1_555
Cr2 Ta5 2.660446 1_555
Cr2 Ta9 2.662253 1_655
Cr2 Ta8 2.662253 1_655
Cr3 Ta14 2.651669 1_545
Cr3 Ta15 2.651669 1_554
Cr3 Ta2 2.652711 1_555
Cr3 Ta3 2.652711 1_544
Cr3 Ta6 2.660446 1_554
Cr3 Ta7 2.660446 1_545
Cr3 Ta10 2.662253 1_555
Cr3 Ta11 2.662253 1_544
