# generated using pymatgen
data_Ca2Rh
_symmetry_space_group_name_H-M   'P 1'
_cell_length_a   4.87252608
_cell_length_b   4.87252608
_cell_length_c   4.87252608
_cell_angle_alpha   60.00000000
_cell_angle_beta   60.00000000
_cell_angle_gamma   60.00000000
_symmetry_Int_Tables_number   1
_chemical_formula_structural   Ca2Rh
_chemical_formula_sum   'Ca2 Rh1'
_cell_volume   81.79891030
_cell_formula_units_Z   1
loop_
 _symmetry_equiv_pos_site_id
 _symmetry_equiv_pos_as_xyz
  1  'x, y, z'
loop_
 _atom_site_type_symbol
 _atom_site_label
 _atom_site_symmetry_multiplicity
 _atom_site_fract_x
 _atom_site_fract_y
 _atom_site_fract_z
 _atom_site_occupancy
  Ca  Ca0  1  0.25000000  0.25000000  0.25000000  1
  Ca  Ca1  1  0.75000000  0.75000000  0.75000000  1
  Rh  Rh0  1  -0.00000000  0.00000000  -0.00000000  1
loop_
_geom_bond_atom_site_label_1
_geom_bond_atom_site_label_2
_geom_bond_distance
_geom_bond_site_symmetry_2
Ca0 Rh0 2.983801 1_555
Ca0 Rh0 2.983801 1_556
Ca0 Rh0 2.983801 1_565
Ca0 Rh0 2.983801 1_655
Ca0 Ca1 3.445396 1_545
Ca0 Ca1 3.445396 1_454
Ca0 Ca1 3.445396 1_445
Ca0 Ca1 3.445396 1_554
Ca0 Ca1 3.445396 1_544
Ca0 Ca1 3.445396 1_455
Ca1 Rh0 2.983801 1_665
Ca1 Rh0 2.983801 1_666
Ca1 Rh0 2.983801 1_566
Ca1 Rh0 2.983801 1_656
