# generated using pymatgen
data_Ba6La2Co4O15
_symmetry_space_group_name_H-M   'P 1'
_cell_length_a   11.93698705
_cell_length_b   11.93698705
_cell_length_c   7.13476987
_cell_angle_alpha   89.37038224
_cell_angle_beta   89.37038224
_cell_angle_gamma   119.48679123
_symmetry_Int_Tables_number   1
_chemical_formula_structural   Ba6La2Co4O15
_chemical_formula_sum   'Ba12 La4 Co8 O30'
_cell_volume   884.74785888
_cell_formula_units_Z   2
loop_
 _symmetry_equiv_pos_site_id
 _symmetry_equiv_pos_as_xyz
  1  'x, y, z'
loop_
 _atom_site_type_symbol
 _atom_site_label
 _atom_site_symmetry_multiplicity
 _atom_site_fract_x
 _atom_site_fract_y
 _atom_site_fract_z
 _atom_site_occupancy
  Ba  Ba0  1  0.00033200  0.00127800  0.50329100  1
  Ba  Ba1  1  0.00127800  0.00033200  0.00329100  1
  Ba  Ba2  1  0.33423000  0.66536500  0.02573400  1
  Ba  Ba3  1  0.66536500  0.33423000  0.52573400  1
  Ba  Ba4  1  0.52168300  0.04682100  0.17312300  1
  Ba  Ba5  1  0.04682100  0.52168300  0.67312300  1
  Ba  Ba6  1  0.81969800  0.64647100  0.83750300  1
  Ba  Ba7  1  0.35355200  0.17662300  0.83937400  1
  Ba  Ba8  1  0.81935500  0.17650300  0.83586600  1
  Ba  Ba9  1  0.17662300  0.35355200  0.33937400  1
  Ba  Ba10  1  0.64647100  0.81969800  0.33750300  1
  Ba  Ba11  1  0.17650300  0.81935500  0.33586600  1
  La  La0  1  0.95170100  0.47545300  0.17906000  1
  La  La1  1  0.52348600  0.47801400  0.16946700  1
  La  La2  1  0.47545300  0.95170100  0.67906000  1
  La  La3  1  0.47801400  0.52348600  0.66946700  1
  Co  Co0  1  0.66274300  0.33014700  0.98801500  1
  Co  Co1  1  0.33014700  0.66274300  0.48801500  1
  Co  Co2  1  0.16922600  0.81622500  0.83810900  1
  Co  Co3  1  0.17508500  0.35409300  0.84473700  1
  Co  Co4  1  0.64920500  0.82307600  0.83755100  1
  Co  Co5  1  0.81622500  0.16922600  0.33810900  1
  Co  Co6  1  0.82307600  0.64920500  0.33755100  1
  Co  Co7  1  0.35409300  0.17508500  0.34473700  1
  O  O0  1  0.41564000  0.58644300  0.33845500  1
  O  O1  1  0.41024100  0.81784100  0.34790900  1
  O  O2  1  0.16472700  0.58191300  0.32154900  1
  O  O3  1  0.58644300  0.41564000  0.83845500  1
  O  O4  1  0.58191300  0.16472700  0.82154900  1
  O  O5  1  0.81784100  0.41024100  0.84790900  1
  O  O6  1  0.92836700  0.32527700  0.45749600  1
  O  O7  1  0.66492600  0.60385100  0.47005900  1
  O  O8  1  0.39208400  0.07151900  0.48723500  1
  O  O9  1  0.92836100  0.60547300  0.46149700  1
  O  O10  1  0.67609600  0.06710400  0.48629700  1
  O  O11  1  0.40071900  0.33371400  0.47202900  1
  O  O12  1  0.06710400  0.67609600  0.98629700  1
  O  O13  1  0.33371400  0.40071900  0.97202900  1
  O  O14  1  0.60547300  0.92836100  0.96149700  1
  O  O15  1  0.07151900  0.39208400  0.98723500  1
  O  O16  1  0.32527700  0.92836700  0.95749600  1
  O  O17  1  0.60385100  0.66492600  0.97005900  1
  O  O18  1  0.10305600  0.19813800  0.73873000  1
  O  O19  1  0.81235900  0.89829900  0.74300300  1
  O  O20  1  0.09788100  0.90417800  0.73565400  1
  O  O21  1  0.89829900  0.81235900  0.24300300  1
  O  O22  1  0.19813800  0.10305600  0.23873000  1
  O  O23  1  0.90417800  0.09788100  0.23565400  1
  O  O24  1  0.75828000  0.25910500  0.16101900  1
  O  O25  1  0.75114600  0.50879200  0.16652200  1
  O  O26  1  0.50199500  0.26211000  0.16031600  1
  O  O27  1  0.25910500  0.75828000  0.66101900  1
  O  O28  1  0.26211000  0.50199500  0.66031600  1
  O  O29  1  0.50879200  0.75114600  0.66652200  1
loop_
_geom_bond_atom_site_label_1
_geom_bond_atom_site_label_2
_geom_bond_distance
_geom_bond_site_symmetry_2
Ba0 O19 2.573918 1_445
Ba0 O20 2.603222 1_545
Ba0 O18 2.672599 1_555
Ba0 O21 2.730501 1_445
Ba0 O23 2.756126 1_455
Ba0 O22 2.764396 1_555
Ba1 O21 2.573918 1_445
Ba1 O23 2.603222 1_455
Ba1 O22 2.672599 1_555
Ba1 O19 2.730501 1_444
Ba1 O20 2.756126 1_544
Ba1 O18 2.764396 1_554
Ba2 O2 2.723329 1_555
Ba2 O0 2.777204 1_555
Ba2 O1 2.816351 1_555
Ba2 O29 3.111814 1_554
Ba2 O27 3.126113 1_554
Ba2 O28 3.138451 1_554
Ba2 O13 3.183413 1_554
Ba2 O16 3.225285 1_554
Ba2 O14 3.237032 1_554
Ba2 O17 3.241122 1_554
Ba2 O15 3.243324 1_554
Ba2 O12 3.268683 1_554
Ba3 O4 2.723329 1_555
Ba3 O3 2.777204 1_555
Ba3 O5 2.816351 1_555
Ba3 O25 3.111814 1_555
Ba3 O24 3.126113 1_555
Ba3 O26 3.138451 1_555
Ba3 O11 3.183413 1_555
Ba3 O6 3.225285 1_555
Ba3 O9 3.237032 1_555
Ba3 O7 3.241122 1_555
Ba3 O8 3.243324 1_555
Ba3 O10 3.268683 1_555
Ba4 O14 2.585698 1_544
Ba4 O16 2.593530 1_544
Ba4 O1 2.665518 1_545
Ba4 O26 2.694042 1_555
Ba4 O24 2.711012 1_555
Ba4 O4 2.770647 1_554
Ba4 O8 2.808936 1_555
Ba4 O10 2.848126 1_555
Ba5 O9 2.585698 1_455
Ba5 O6 2.593530 1_455
Ba5 O5 2.665518 1_455
Ba5 O28 2.694042 1_555
Ba5 O27 2.711012 1_555
Ba5 O2 2.770647 1_555
Ba5 O15 2.808936 1_555
Ba5 O12 2.848126 1_555
Ba6 O25 2.725860 1_556
Ba6 O3 2.791325 1_555
Ba6 O5 2.809185 1_555
Ba6 O17 2.844550 1_555
Ba6 O12 3.003826 1_655
Ba6 O9 3.113882 1_555
Ba6 O19 3.116844 1_555
Ba6 O7 3.123382 1_555
Ba6 O20 3.295406 1_655
Ba6 O21 3.395345 1_556
Ba7 O26 2.790166 1_556
Ba7 O4 2.800169 1_555
Ba7 O3 2.838967 1_555
Ba7 O16 2.925799 1_545
Ba7 O8 2.951259 1_555
Ba7 O13 2.963442 1_555
Ba7 O11 3.085899 1_555
Ba7 O18 3.212760 1_555
Ba7 O22 3.249071 1_556
Ba7 O20 3.281778 1_545
Ba8 O24 2.757975 1_556
Ba8 O4 2.770946 1_555
Ba8 O5 2.801320 1_555
Ba8 O14 2.922695 1_545
Ba8 O10 2.969362 1_555
Ba8 O15 3.058786 1_655
Ba8 O6 3.110845 1_555
Ba8 O23 3.313957 1_556
Ba8 O18 3.331534 1_655
Ba8 O19 3.354251 1_545
Ba9 O28 2.790166 1_555
Ba9 O2 2.800169 1_555
Ba9 O0 2.838967 1_555
Ba9 O6 2.925799 1_455
Ba9 O15 2.951259 1_554
Ba9 O11 2.963442 1_555
Ba9 O13 3.085899 1_554
Ba9 O22 3.212760 1_555
Ba9 O18 3.249071 1_555
Ba9 O23 3.281778 1_455
Ba10 O29 2.725860 1_555
Ba10 O0 2.791325 1_555
Ba10 O1 2.809185 1_555
Ba10 O7 2.844550 1_555
Ba10 O10 3.003826 1_565
Ba10 O14 3.113882 1_554
Ba10 O21 3.116844 1_555
Ba10 O17 3.123382 1_554
Ba10 O23 3.295406 1_565
Ba10 O19 3.395345 1_555
Ba11 O27 2.757975 1_555
Ba11 O2 2.770946 1_555
Ba11 O1 2.801320 1_555
Ba11 O9 2.922695 1_455
Ba11 O12 2.969362 1_554
Ba11 O8 3.058786 1_565
Ba11 O16 3.110845 1_554
Ba11 O20 3.313957 1_555
Ba11 O22 3.331534 1_565
Ba11 O21 3.354251 1_455
La0 O2 2.453307 1_655
La0 O24 2.482094 1_555
La0 O12 2.482636 1_654
La0 O15 2.509445 1_654
La0 O6 2.579860 1_555
La0 O25 2.615257 1_555
La0 O9 2.651279 1_555
La0 O5 2.764122 1_554
La1 O17 2.390751 1_554
La1 O13 2.451198 1_554
La1 O26 2.462813 1_555
La1 O0 2.535102 1_555
La1 O25 2.556621 1_555
La1 O11 2.671778 1_555
La1 O3 2.692068 1_554
La1 O7 2.712966 1_555
La2 O4 2.453307 1_565
La2 O27 2.482094 1_555
La2 O10 2.482636 1_565
La2 O8 2.509445 1_565
La2 O16 2.579860 1_555
La2 O29 2.615257 1_555
La2 O14 2.651279 1_555
La2 O1 2.764122 1_555
La3 O7 2.390751 1_555
La3 O11 2.451198 1_555
La3 O28 2.462813 1_555
La3 O3 2.535102 1_555
La3 O29 2.556621 1_555
La3 O13 2.671778 1_555
La3 O0 2.692068 1_555
La3 O17 2.712966 1_555
Co0 O5 1.880637 1_555
Co0 O3 1.980437 1_555
Co0 O26 2.060308 1_556
Co0 O4 2.107563 1_555
Co0 O24 2.122103 1_556
Co0 O25 2.270911 1_556
Co1 O1 1.880637 1_555
Co1 O0 1.980437 1_555
Co1 O28 2.060308 1_555
Co1 O2 2.107563 1_555
Co1 O27 2.122103 1_555
Co1 O29 2.270911 1_555
Co2 O20 1.799714 1_555
Co2 O12 1.824090 1_555
Co2 O16 1.895412 1_555
Co2 O27 1.986432 1_555
Co3 O18 1.801798 1_555
Co3 O15 1.817170 1_555
Co3 O13 1.931718 1_555
Co3 O28 2.010193 1_555
Co4 O19 1.813998 1_555
Co4 O14 1.814996 1_555
Co4 O29 1.920105 1_555
Co4 O17 1.922030 1_555
Co5 O23 1.799714 1_555
Co5 O10 1.824090 1_555
Co5 O6 1.895412 1_555
Co5 O24 1.986432 1_555
Co6 O21 1.813998 1_555
Co6 O9 1.814996 1_555
Co6 O25 1.920105 1_555
Co6 O7 1.922030 1_555
Co7 O22 1.801798 1_555
Co7 O8 1.817170 1_555
Co7 O11 1.931718 1_555
Co7 O26 2.010193 1_555
