# generated using pymatgen
data_Y3CrS6
_symmetry_space_group_name_H-M   'P 1'
_cell_length_a   3.76915874
_cell_length_b   13.31797058
_cell_length_c   15.96211814
_cell_angle_alpha   90.00000000
_cell_angle_beta   90.00000000
_cell_angle_gamma   90.00000000
_symmetry_Int_Tables_number   1
_chemical_formula_structural   Y3CrS6
_chemical_formula_sum   'Y12 Cr4 S24'
_cell_volume   801.25914699
_cell_formula_units_Z   4
loop_
 _symmetry_equiv_pos_site_id
 _symmetry_equiv_pos_as_xyz
  1  'x, y, z'
loop_
 _atom_site_type_symbol
 _atom_site_label
 _atom_site_symmetry_multiplicity
 _atom_site_fract_x
 _atom_site_fract_y
 _atom_site_fract_z
 _atom_site_occupancy
  Y  Y0  1  0.00000000  0.54933763  0.27912243  1
  Y  Y1  1  -0.00000000  0.45066237  0.72087757  1
  Y  Y2  1  0.50000000  0.95066237  0.77912243  1
  Y  Y3  1  0.50000000  0.04933763  0.22087757  1
  Y  Y4  1  0.00000000  0.75692512  0.09876137  1
  Y  Y5  1  -0.00000000  0.24307488  0.90123863  1
  Y  Y6  1  0.50000000  0.74307488  0.59876137  1
  Y  Y7  1  0.50000000  0.25692512  0.40123863  1
  Y  Y8  1  0.00000000  0.31845207  0.14721674  1
  Y  Y9  1  0.00000000  0.68154793  0.85278326  1
  Y  Y10  1  0.50000000  0.18154793  0.64721674  1
  Y  Y11  1  0.50000000  0.81845207  0.35278326  1
  Cr  Cr0  1  0.00000000  0.00000000  0.50000000  1
  Cr  Cr1  1  0.50000000  0.50000000  0.00000000  1
  Cr  Cr2  1  0.00000000  0.00000000  0.00000000  1
  Cr  Cr3  1  0.50000000  0.50000000  0.50000000  1
  S  S0  1  0.00000000  0.11985220  0.10815195  1
  S  S1  1  0.00000000  0.88014780  0.89184805  1
  S  S2  1  0.50000000  0.38014780  0.60815195  1
  S  S3  1  0.50000000  0.61985220  0.39184805  1
  S  S4  1  0.00000000  0.18861097  0.28951530  1
  S  S5  1  -0.00000000  0.81138903  0.71048470  1
  S  S6  1  0.50000000  0.31138903  0.78951530  1
  S  S7  1  0.50000000  0.68861097  0.21048470  1
  S  S8  1  -0.00000000  0.18018870  0.51979828  1
  S  S9  1  -0.00000000  0.81981130  0.48020172  1
  S  S10  1  0.50000000  0.31981130  0.01979828  1
  S  S11  1  0.50000000  0.68018870  0.98020172  1
  S  S12  1  0.00000000  0.52121064  0.09747481  1
  S  S13  1  0.00000000  0.47878936  0.90252519  1
  S  S14  1  0.50000000  0.97878936  0.59747481  1
  S  S15  1  0.50000000  0.02121064  0.40252519  1
  S  S16  1  -0.00000000  0.10366998  0.75271546  1
  S  S17  1  -0.00000000  0.89633002  0.24728454  1
  S  S18  1  0.50000000  0.39633002  0.25271546  1
  S  S19  1  0.50000000  0.60366998  0.74728454  1
  S  S20  1  -0.00000000  0.41739288  0.42509972  1
  S  S21  1  0.00000000  0.58260712  0.57490028  1
  S  S22  1  0.50000000  0.08260712  0.92509972  1
  S  S23  1  0.50000000  0.91739288  0.07490028  1
loop_
_geom_bond_atom_site_label_1
_geom_bond_atom_site_label_2
_geom_bond_distance
_geom_bond_site_symmetry_2
Cr0 S9 2.420467 1_545
Cr0 S8 2.420467 1_555
Cr0 S15 2.460137 1_555
Cr0 S14 2.460137 1_445
Cr0 S15 2.460137 1_455
Cr0 S14 2.460137 1_545
Cr1 S10 2.420467 1_555
Cr1 S11 2.420467 1_554
Cr1 S12 2.460137 1_655
Cr1 S12 2.460137 1_555
Cr1 S13 2.460137 1_554
Cr1 S13 2.460137 1_654
Cr2 S1 2.351180 1_544
Cr2 S0 2.351180 1_555
Cr2 S23 2.488246 1_445
Cr2 S23 2.488246 1_545
Cr2 S22 2.488246 1_554
Cr2 S22 2.488246 1_454
Cr3 S3 2.351180 1_555
Cr3 S2 2.351180 1_555
Cr3 S20 2.488246 1_555
Cr3 S20 2.488246 1_655
Cr3 S21 2.488246 1_555
Cr3 S21 2.488246 1_655
S0 Y8 2.717456 1_555
S0 Y3 2.769692 1_455
S0 Y3 2.769692 1_555
S1 Y9 2.717456 1_555
S1 Y2 2.769692 1_455
S1 Y2 2.769692 1_555
S2 Y10 2.717456 1_555
S2 Y1 2.769692 1_555
S2 Y1 2.769692 1_655
S3 Y11 2.717456 1_555
S3 Y0 2.769692 1_655
S3 Y0 2.769692 1_555
S4 Y7 2.749489 1_555
S4 Y7 2.749489 1_455
S4 Y8 2.854715 1_555
S4 Y3 2.862239 1_555
S4 Y3 2.862239 1_455
S5 Y6 2.749489 1_455
S5 Y6 2.749489 1_555
S5 Y9 2.854715 1_555
S5 Y2 2.862239 1_455
S5 Y2 2.862239 1_555
S6 Y5 2.749489 1_555
S6 Y5 2.749489 1_655
S6 Y10 2.854715 1_555
S6 Y1 2.862239 1_555
S6 Y1 2.862239 1_655
S7 Y4 2.749489 1_655
S7 Y4 2.749489 1_555
S7 Y11 2.854715 1_555
S7 Y0 2.862239 1_555
S7 Y0 2.862239 1_655
S8 Y10 2.772830 1_555
S8 Y10 2.772830 1_455
S8 Y7 2.859630 1_555
S8 Y7 2.859630 1_455
S9 Y11 2.772830 1_555
S9 Y11 2.772830 1_455
S9 Y6 2.859630 1_455
S9 Y6 2.859630 1_555
S10 Y8 2.772830 1_655
S10 Y8 2.772830 1_555
S10 Y5 2.859630 1_654
S10 Y5 2.859630 1_554
S11 Y9 2.772830 1_655
S11 Y9 2.772830 1_555
S11 Y4 2.859630 1_556
S11 Y4 2.859630 1_656
S12 Y8 2.814642 1_555
S12 Y0 2.923578 1_555
S12 Y4 3.139306 1_555
S13 Y9 2.814642 1_555
S13 Y1 2.923578 1_555
S13 Y5 3.139306 1_555
S14 Y10 2.814642 1_565
S14 Y2 2.923578 1_555
S14 Y6 3.139306 1_555
S15 Y11 2.814642 1_545
S15 Y3 2.923578 1_555
S15 Y7 3.139306 1_555
S16 Y10 2.731881 1_555
S16 Y10 2.731881 1_455
S16 Y2 2.807444 1_545
S16 Y2 2.807444 1_445
S16 Y5 3.011205 1_555
S17 Y11 2.731881 1_455
S17 Y11 2.731881 1_555
S17 Y3 2.807444 1_565
S17 Y3 2.807444 1_465
S17 Y4 3.011205 1_555
S18 Y8 2.731881 1_555
S18 Y8 2.731881 1_655
S18 Y0 2.807444 1_655
S18 Y0 2.807444 1_555
S18 Y7 3.011205 1_555
S19 Y9 2.731881 1_655
S19 Y9 2.731881 1_555
S19 Y1 2.807444 1_555
S19 Y1 2.807444 1_655
S19 Y6 3.011205 1_555
S20 Y7 2.874704 1_555
S20 Y7 2.874704 1_455
S20 Y0 2.918437 1_555
S21 Y6 2.874704 1_455
S21 Y6 2.874704 1_555
S21 Y1 2.918437 1_555
S22 Y5 2.874704 1_555
S22 Y5 2.874704 1_655
S22 Y2 2.918437 1_545
S23 Y4 2.874704 1_555
S23 Y4 2.874704 1_655
S23 Y3 2.918437 1_565
