# generated using pymatgen
data_RbDy2CuSe4
_symmetry_space_group_name_H-M   'P 1'
_cell_length_a   7.45626157
_cell_length_b   7.45626157
_cell_length_c   14.43578600
_cell_angle_alpha   90.00000000
_cell_angle_beta   90.00000000
_cell_angle_gamma   147.76451304
_symmetry_Int_Tables_number   1
_chemical_formula_structural   RbDy2CuSe4
_chemical_formula_sum   'Rb2 Dy4 Cu2 Se8'
_cell_volume   428.09084551
_cell_formula_units_Z   2
loop_
 _symmetry_equiv_pos_site_id
 _symmetry_equiv_pos_as_xyz
  1  'x, y, z'
loop_
 _atom_site_type_symbol
 _atom_site_label
 _atom_site_symmetry_multiplicity
 _atom_site_fract_x
 _atom_site_fract_y
 _atom_site_fract_z
 _atom_site_occupancy
  Rb  Rb0  1  0.88971400  0.11028600  0.75000000  1
  Rb  Rb1  1  0.11028600  0.88971400  0.25000000  1
  Dy  Dy0  1  0.36602800  0.63397200  0.06385300  1
  Dy  Dy1  1  0.63397200  0.36602800  0.93614700  1
  Dy  Dy2  1  0.36602800  0.63397200  0.43614700  1
  Dy  Dy3  1  0.63397200  0.36602800  0.56385300  1
  Cu  Cu0  1  0.16321700  0.83678300  0.75000000  1
  Cu  Cu1  1  0.83678300  0.16321700  0.25000000  1
  Se  Se0  1  0.42950800  0.57049200  0.25000000  1
  Se  Se1  1  0.57049200  0.42950800  0.75000000  1
  Se  Se2  1  0.73828400  0.26171600  0.10903400  1
  Se  Se3  1  0.26171600  0.73828400  0.89096600  1
  Se  Se4  1  0.00000000  0.00000000  0.50000000  1
  Se  Se5  1  0.00000000  0.00000000  0.00000000  1
  Se  Se6  1  0.73828400  0.26171600  0.39096600  1
  Se  Se7  1  0.26171600  0.73828400  0.60903400  1
loop_
_geom_bond_atom_site_label_1
_geom_bond_atom_site_label_2
_geom_bond_distance
_geom_bond_site_symmetry_2
Rb0 Se1 3.315452 1_655
Rb0 Se1 3.315452 1_545
Rb0 Se3 3.433417 1_545
Rb0 Se7 3.433417 1_545
Rb0 Se3 3.433417 1_655
Rb0 Se7 3.433417 1_655
Rb0 Se5 3.939655 1_656
Rb0 Se4 3.939655 1_655
Rb1 Se0 3.315452 1_565
Rb1 Se0 3.315452 1_455
Rb1 Se2 3.433417 1_565
Rb1 Se6 3.433417 1_565
Rb1 Se2 3.433417 1_455
Rb1 Se6 3.433417 1_455
Rb1 Se4 3.939655 1_565
Rb1 Se5 3.939655 1_565
Dy0 Se0 2.836900 1_555
Dy0 Se2 2.838904 1_565
Dy0 Se2 2.838904 1_455
Dy0 Se3 2.908966 1_554
Dy0 Se5 2.969542 1_555
Dy0 Se5 2.969542 1_665
Dy1 Se1 2.836900 1_555
Dy1 Se3 2.838904 1_545
Dy1 Se3 2.838904 1_655
Dy1 Se2 2.908966 1_556
Dy1 Se5 2.969542 1_556
Dy1 Se5 2.969542 1_666
Dy2 Se0 2.836900 1_555
Dy2 Se6 2.838904 1_455
Dy2 Se6 2.838904 1_565
Dy2 Se7 2.908966 1_555
Dy2 Se4 2.969542 1_555
Dy2 Se4 2.969542 1_665
Dy3 Se1 2.836900 1_555
Dy3 Se7 2.838904 1_545
Dy3 Se7 2.838904 1_655
Dy3 Se6 2.908966 1_555
Dy3 Se4 2.969542 1_665
Dy3 Se4 2.969542 1_555
Cu0 Se1 2.459546 1_455
Cu0 Se1 2.459546 1_565
Cu0 Se7 2.476355 1_555
Cu0 Se3 2.476355 1_555
Cu1 Se0 2.459546 1_655
Cu1 Se0 2.459546 1_545
Cu1 Se2 2.476355 1_555
Cu1 Se6 2.476355 1_555
