# generated using pymatgen
data_PrSmO2
_symmetry_space_group_name_H-M   'P 1'
_cell_length_a   6.16140621
_cell_length_b   6.16140621
_cell_length_c   6.16140621
_cell_angle_alpha   131.72977748
_cell_angle_beta   131.72977748
_cell_angle_gamma   70.65615025
_symmetry_Int_Tables_number   1
_chemical_formula_structural   PrSmO2
_chemical_formula_sum   'Pr2 Sm2 O4'
_cell_volume   127.62173568
_cell_formula_units_Z   2
loop_
 _symmetry_equiv_pos_site_id
 _symmetry_equiv_pos_as_xyz
  1  'x, y, z'
loop_
 _atom_site_type_symbol
 _atom_site_label
 _atom_site_symmetry_multiplicity
 _atom_site_fract_x
 _atom_site_fract_y
 _atom_site_fract_z
 _atom_site_occupancy
  Pr  Pr0  1  0.00000000  0.00000000  0.00000000  1
  Pr  Pr1  1  0.75000000  0.25000000  0.50000000  1
  Sm  Sm0  1  0.50000000  0.50000000  0.00000000  1
  Sm  Sm1  1  0.25000000  0.75000000  0.50000000  1
  O  O0  1  0.25547300  0.25547300  0.00000000  1
  O  O1  1  0.49452700  0.99452700  0.50000000  1
  O  O2  1  0.00547300  0.50547300  0.50000000  1
  O  O3  1  0.74452700  0.74452700  0.00000000  1
loop_
_geom_bond_atom_site_label_1
_geom_bond_atom_site_label_2
_geom_bond_distance
_geom_bond_site_symmetry_2
O0 Sm0 2.458382 1_555
O0 Sm1 2.519937 1_555
O0 Pr1 2.519937 1_454
O0 Sm1 2.519937 1_544
O0 Pr1 2.519937 1_555
O0 Pr0 2.568428 1_555
O1 Sm1 2.458382 1_555
O1 Pr0 2.519937 1_666
O1 Sm0 2.519937 1_555
O1 Sm0 2.519937 1_566
O1 Pr0 2.519937 1_565
O1 Pr1 2.568428 1_565
O2 Sm1 2.458382 1_555
O2 Pr0 2.519937 1_555
O2 Sm0 2.519937 1_455
O2 Pr0 2.519937 1_566
O2 Sm0 2.519937 1_556
O2 Pr1 2.568428 1_455
O3 Sm0 2.458382 1_555
O3 Pr1 2.519937 1_565
O3 Pr1 2.519937 1_554
O3 Sm1 2.519937 1_554
O3 Sm1 2.519937 1_655
O3 Pr0 2.568428 1_665
