# generated using pymatgen
data_Li6V3P8O29
_symmetry_space_group_name_H-M   'P 1'
_cell_length_a   9.77675200
_cell_length_b   9.78880214
_cell_length_c   14.01603007
_cell_angle_alpha   90.59602893
_cell_angle_beta   89.82902028
_cell_angle_gamma   119.55576749
_symmetry_Int_Tables_number   1
_chemical_formula_structural   Li6V3P8O29
_chemical_formula_sum   'Li12 V6 P16 O58'
_cell_volume   1166.76043463
_cell_formula_units_Z   2
loop_
 _symmetry_equiv_pos_site_id
 _symmetry_equiv_pos_as_xyz
  1  'x, y, z'
loop_
 _atom_site_type_symbol
 _atom_site_label
 _atom_site_symmetry_multiplicity
 _atom_site_fract_x
 _atom_site_fract_y
 _atom_site_fract_z
 _atom_site_occupancy
  Li  Li0  1  0.09568700  0.76583500  0.55741900  1
  Li  Li1  1  0.66308800  0.90416500  0.56374500  1
  Li  Li2  1  0.33045300  0.66686700  0.88824000  1
  Li  Li3  1  0.67937600  0.76629000  0.05813800  1
  Li  Li4  1  0.09325200  0.32659100  0.06484300  1
  Li  Li5  1  0.76410800  0.67039300  0.43788000  1
  Li  Li6  1  0.23977000  0.33733500  0.56349200  1
  Li  Li7  1  0.91055800  0.67957200  0.93709300  1
  Li  Li8  1  0.66213800  0.31966500  0.10945400  1
  Li  Li9  1  0.33100100  0.09694900  0.43757400  1
  Li  Li10  1  0.05865200  0.04337400  0.99552300  1
  Li  Li11  1  0.98476200  0.04498400  0.49181000  1
  V  V0  1  0.55889300  0.56178200  0.24888800  1
  V  V1  1  0.43631400  0.43321100  0.75118700  1
  V  V2  1  0.00194800  0.56335300  0.74553200  1
  V  V3  1  0.99559900  0.43250700  0.25198000  1
  V  V4  1  0.43351300  0.99653500  0.24839700  1
  V  V5  1  0.56444500  0.00497800  0.75547300  1
  P  P0  1  0.21714000  0.91227900  0.83961000  1
  P  P1  1  0.08529200  0.77364100  0.33828900  1
  P  P2  1  0.68876000  0.91613900  0.34622200  1
  P  P3  1  0.32738100  0.66165300  0.12864100  1
  P  P4  1  0.33882500  0.66904000  0.62968500  1
  P  P5  1  0.68193800  0.77483000  0.84084100  1
  P  P6  1  0.77106600  0.68428700  0.65651100  1
  P  P7  1  0.09341500  0.31683800  0.84805500  1
  P  P8  1  0.90633100  0.68188900  0.15413200  1
  P  P9  1  0.22626400  0.31295100  0.34490700  1
  P  P10  1  0.31089300  0.21768600  0.16164100  1
  P  P11  1  0.66581600  0.33683900  0.36943500  1
  P  P12  1  0.67009100  0.33970800  0.87056400  1
  P  P13  1  0.31116200  0.08280000  0.65478100  1
  P  P14  1  0.91620900  0.21829800  0.66409800  1
  P  P15  1  0.77957100  0.08410800  0.16067500  1
  O  O0  1  0.22809100  0.99805600  0.56365700  1
  O  O1  1  0.25127600  0.92060100  0.33800100  1
  O  O2  1  0.98580500  0.76478800  0.06456400  1
  O  O3  1  0.07806600  0.73860100  0.83490500  1
  O  O4  1  0.37014400  0.90037000  0.83229500  1
  O  O5  1  0.32896500  0.80639800  0.17400400  1
  O  O6  1  0.53401700  0.92033900  0.33011700  1
  O  O7  1  0.78226900  0.98408300  0.08054800  1
  O  O8  1  0.66017500  0.91873200  0.84122200  1
  O  O9  1  0.18993700  0.67711700  0.66674600  1
  O  O10  1  0.09393800  0.62199900  0.32737700  1
  O  O11  1  0.48841200  0.81450500  0.67423800  1
  O  O12  1  0.32925500  0.65757200  0.02160800  1
  O  O13  1  0.34474100  0.66953400  0.52332300  1
  O  O14  1  0.47880400  0.66017000  0.16711600  1
  O  O15  1  0.10581700  0.47991700  0.83124800  1
  O  O16  1  0.17876400  0.51089900  0.16683500  1
  O  O17  1  0.66093000  0.74716200  0.33717100  1
  O  O18  1  0.79082700  0.79074400  0.74997000  1
  O  O19  1  0.77402000  0.77520700  0.56898100  1
  O  O20  1  0.76499400  0.76379800  0.92854500  1
  O  O21  1  0.51647700  0.62719600  0.82754400  1
  O  O22  1  0.32906000  0.51458000  0.67047000  1
  O  O23  1  0.73756000  0.65879800  0.15870900  1
  O  O24  1  0.38354800  0.46666700  0.33272300  1
  O  O25  1  0.08749800  0.34091100  0.33693500  1
  O  O26  1  0.99659500  0.79050700  0.24611000  1
  O  O27  1  0.99727900  0.77483200  0.42725700  1
  O  O28  1  0.01261400  0.20994600  0.58311900  1
  O  O29  1  0.91832400  0.66282000  0.65709200  1
  O  O30  1  0.61853200  0.52859900  0.66718000  1
  O  O31  1  0.25844200  0.33883900  0.83587800  1
  O  O32  1  0.67246800  0.48954800  0.32632200  1
  O  O33  1  0.47393200  0.36917400  0.16945900  1
  O  O34  1  0.20917700  0.21269600  0.08073400  1
  O  O35  1  0.22082300  0.22664000  0.43582800  1
  O  O36  1  0.21455800  0.19767500  0.25863300  1
  O  O37  1  0.33432500  0.24985100  0.65799600  1
  O  O38  1  0.81865800  0.48649500  0.83212100  1
  O  O39  1  0.89347800  0.51856700  0.16708200  1
  O  O40  1  0.52434700  0.34118100  0.82497000  1
  O  O41  1  0.66608100  0.34189000  0.97700800  1
  O  O42  1  0.67420800  0.34887700  0.47516100  1
  O  O43  1  0.51254100  0.18944300  0.33183500  1
  O  O44  1  0.92248400  0.38085900  0.67183600  1
  O  O45  1  0.81091900  0.33314700  0.32117800  1
  O  O46  1  0.34421800  0.07900900  0.16140900  1
  O  O47  1  0.19813100  0.98900100  0.74267300  1
  O  O48  1  0.19960700  0.99604200  0.92320500  1
  O  O49  1  0.46712500  0.08374900  0.67020300  1
  O  O50  1  0.66541400  0.18864200  0.82781100  1
  O  O51  1  0.62897400  0.09961600  0.17029400  1
  O  O52  1  0.92078100  0.25227100  0.15808300  1
  O  O53  1  0.01966400  0.23845200  0.94014300  1
  O  O54  1  0.98684200  0.20058000  0.76310100  1
  O  O55  1  0.74589200  0.08342600  0.66090900  1
  O  O56  1  0.76993400  0.98800100  0.43916400  1
  O  O57  1  0.80186000  0.01387300  0.26038600  1
loop_
_geom_bond_atom_site_label_1
_geom_bond_atom_site_label_2
_geom_bond_distance
_geom_bond_site_symmetry_2
Li0 O0 1.985996 1_555
Li0 O29 2.065234 1_455
Li0 O27 2.087844 1_455
Li0 O9 2.185611 1_555
Li1 O56 1.996711 1_555
Li1 O19 2.031801 1_555
Li1 O55 2.035826 1_565
Li1 O11 2.149178 1_555
Li2 O12 1.872169 1_556
Li2 O15 2.196687 1_555
Li2 O21 2.205194 1_555
Li2 O4 2.269443 1_555
Li3 O7 1.878279 1_555
Li3 O20 2.002662 1_554
Li3 O23 2.010941 1_555
Li3 O14 2.294121 1_555
Li4 O53 1.918477 1_554
Li4 O34 1.957136 1_555
Li4 O52 1.968969 1_455
Li4 O16 2.112559 1_555
Li5 O27 1.991508 1_555
Li5 O19 2.074196 1_555
Li5 O17 2.086419 1_555
Li5 O32 2.183446 1_555
Li6 O28 1.958115 1_555
Li6 O37 2.038222 1_555
Li6 O35 2.042990 1_555
Li6 O22 2.116609 1_555
Li7 O2 1.949497 1_556
Li7 O20 1.969788 1_555
Li7 O3 2.033949 1_655
Li7 O38 2.195178 1_555
Li8 O41 1.869389 1_554
Li8 O51 2.195365 1_555
Li8 O33 2.278156 1_555
Li8 O39 2.278724 1_555
Li9 O35 2.030395 1_555
Li9 O0 2.033826 1_545
Li9 O1 2.040624 1_545
Li9 O43 2.143185 1_555
Li10 O48 1.937262 1_545
Li10 O34 1.975413 1_556
Li10 O53 2.268255 1_555
Li11 O28 1.960821 1_655
Li11 O56 2.027773 1_545
Li11 O35 2.252473 1_655
O0 P13 1.516072 1_565
O1 P1 1.549171 1_555
O1 V4 2.000932 1_555
O2 P8 1.493843 1_555
O3 P0 1.568806 1_555
O3 V2 1.940927 1_555
O4 P0 1.559691 1_555
O4 V5 1.976925 1_565
O5 P3 1.540036 1_555
O5 V4 1.919705 1_555
O6 P2 1.550824 1_555
O6 V4 1.892423 1_555
O7 P15 1.490998 1_565
O8 P5 1.524812 1_555
O8 V5 1.959725 1_565
O9 P4 1.582132 1_555
O9 V2 1.957494 1_555
O10 P1 1.533932 1_555
O10 V3 1.920335 1_455
O11 P4 1.577615 1_555
O11 V5 1.979619 1_565
O12 P3 1.500592 1_555
O13 P4 1.491688 1_555
O14 P3 1.583921 1_555
O14 V0 1.904349 1_555
O15 P7 1.560519 1_555
O15 V2 1.996896 1_555
O16 P3 1.572236 1_555
O16 V3 1.967355 1_455
O17 P2 1.542062 1_555
O17 V0 1.998494 1_555
O18 P5 1.616234 1_555
O18 P6 1.616682 1_555
O19 P6 1.514983 1_555
O20 P5 1.509089 1_555
O21 P5 1.558829 1_555
O21 V1 1.964663 1_555
O22 P4 1.580260 1_555
O22 V1 1.965626 1_555
O23 P8 1.552269 1_555
O23 V0 1.981402 1_555
O24 P9 1.542396 1_555
O24 V0 1.903292 1_555
O25 P9 1.515202 1_555
O25 V3 1.962742 1_455
O26 P1 1.612708 1_655
O26 P8 1.619821 1_555
O27 P1 1.516149 1_655
O28 P14 1.500327 1_455
O29 P6 1.554201 1_555
O29 V2 1.992355 1_655
O30 P6 1.526483 1_555
O30 V1 1.949685 1_555
O31 P7 1.528066 1_555
O31 V1 1.926713 1_555
O32 P11 1.589518 1_555
O32 V0 1.925770 1_555
O33 P10 1.554842 1_555
O33 V0 1.975077 1_555
O34 P10 1.494966 1_555
O35 P9 1.522591 1_555
O36 P10 1.609166 1_555
O36 P9 1.610484 1_555
O37 P13 1.536388 1_555
O37 V1 2.028615 1_555
O38 P12 1.554719 1_555
O38 V2 1.981439 1_655
O39 P8 1.553181 1_555
O39 V3 1.995033 1_555
O40 P12 1.569979 1_555
O40 V1 1.846994 1_555
O41 P12 1.492528 1_555
O42 P11 1.484614 1_555
O43 P11 1.568743 1_555
O43 V4 2.012594 1_545
O44 P14 1.564554 1_555
O44 V2 1.859826 1_655
O45 P11 1.586082 1_555
O45 V3 1.850249 1_555
O46 P10 1.544393 1_555
O46 V4 1.903309 1_545
O47 P13 1.611280 1_565
O47 P0 1.613997 1_555
O48 P0 1.480530 1_555
O49 P13 1.536168 1_555
O49 V5 1.917805 1_555
O50 P12 1.569364 1_555
O50 V5 1.857928 1_555
O51 P15 1.558180 1_555
O51 V4 1.994125 1_545
O52 P15 1.541411 1_555
O52 V3 2.015957 1_555
O53 P7 1.497940 1_555
O54 P14 1.600423 1_555
O54 P7 1.614920 1_655
O55 P14 1.532368 1_555
O55 V5 2.038769 1_555
O56 P2 1.502659 1_555
O57 P2 1.599291 1_545
O57 P15 1.625709 1_555
