# generated using pymatgen
data_Li9Mn2Co5O16
_symmetry_space_group_name_H-M   'P 1'
_cell_length_a   5.19266300
_cell_length_b   6.44136114
_cell_length_c   8.61937854
_cell_angle_alpha   97.13819076
_cell_angle_beta   94.31833176
_cell_angle_gamma   95.74294206
_symmetry_Int_Tables_number   1
_chemical_formula_structural   Li9Mn2Co5O16
_chemical_formula_sum   'Li9 Mn2 Co5 O16'
_cell_volume   283.50304039
_cell_formula_units_Z   1
loop_
 _symmetry_equiv_pos_site_id
 _symmetry_equiv_pos_as_xyz
  1  'x, y, z'
loop_
 _atom_site_type_symbol
 _atom_site_label
 _atom_site_symmetry_multiplicity
 _atom_site_fract_x
 _atom_site_fract_y
 _atom_site_fract_z
 _atom_site_occupancy
  Li  Li0  1  0.74659200  0.54998900  0.92975100  1
  Li  Li1  1  0.25414800  0.94173800  0.56415800  1
  Li  Li2  1  0.76081400  0.32444800  0.19172500  1
  Li  Li3  1  0.24781500  0.43542400  0.05851700  1
  Li  Li4  1  0.75430000  0.81219800  0.68544400  1
  Li  Li5  1  0.24554800  0.19133000  0.32243700  1
  Li  Li6  1  0.24815800  0.66921700  0.79997500  1
  Li  Li7  1  0.74644700  0.07436900  0.44898200  1
  Li  Li8  1  0.50071600  0.37225100  0.62649000  1
  Mn  Mn0  1  0.99966300  0.00139200  0.99759300  1
  Mn  Mn1  1  0.50031200  0.87231600  0.12798800  1
  Co  Co0  1  0.00011500  0.75058300  0.25132800  1
  Co  Co1  1  0.49980300  0.13024200  0.86914700  1
  Co  Co2  1  0.99949800  0.50105200  0.49912000  1
  Co  Co3  1  0.00281700  0.25210300  0.74637000  1
  Co  Co4  1  0.49986800  0.62437900  0.37790500  1
  O  O0  1  0.10378700  0.73005700  0.03706300  1
  O  O1  1  0.62349800  0.09684500  0.67356000  1
  O  O2  1  0.11074500  0.48597300  0.29071400  1
  O  O3  1  0.61398900  0.60491900  0.16806300  1
  O  O4  1  0.10795000  0.98027000  0.78884400  1
  O  O5  1  0.65198800  0.37438400  0.41460000  1
  O  O6  1  0.64534800  0.86746100  0.92129600  1
  O  O7  1  0.09996000  0.23540500  0.53557400  1
  O  O8  1  0.37563200  0.38714800  0.84471500  1
  O  O9  1  0.88949600  0.76709300  0.45866100  1
  O  O10  1  0.35372900  0.13020900  0.07773300  1
  O  O11  1  0.88975800  0.26865100  0.96625500  1
  O  O12  1  0.34499300  0.63594500  0.57208700  1
  O  O13  1  0.89591300  0.02088000  0.21048100  1
  O  O14  1  0.90045100  0.51727400  0.70530500  1
  O  O15  1  0.38614900  0.89445500  0.33811700  1
loop_
_geom_bond_atom_site_label_1
_geom_bond_atom_site_label_2
_geom_bond_distance
_geom_bond_site_symmetry_2
Li0 O11 2.076495 1_555
Li0 O8 2.130708 1_555
Li0 O14 2.142537 1_555
Li0 O0 2.164624 1_656
Li0 O6 2.170242 1_555
Li0 O3 2.213543 1_556
Li1 O12 2.078837 1_555
Li1 O15 2.110451 1_555
Li1 O4 2.127959 1_555
Li1 O7 2.160825 1_565
Li1 O1 2.162359 1_565
Li1 O9 2.176683 1_455
Li2 O5 2.039485 1_555
Li2 O3 2.056828 1_555
Li2 O2 2.068769 1_655
Li2 O11 2.103537 1_554
Li2 O13 2.162831 1_555
Li2 O10 2.419004 1_555
Li3 O8 2.004084 1_554
Li3 O11 2.099665 1_454
Li3 O10 2.116285 1_555
Li3 O0 2.132082 1_555
Li3 O2 2.171899 1_555
Li3 O3 2.181030 1_555
Li4 O1 2.029538 1_565
Li4 O4 2.110575 1_655
Li4 O9 2.122393 1_555
Li4 O14 2.136340 1_555
Li4 O6 2.147818 1_555
Li4 O12 2.385279 1_555
Li5 O7 2.037050 1_555
Li5 O13 2.122911 1_455
Li5 O2 2.129038 1_555
Li5 O15 2.129999 1_545
Li5 O10 2.221619 1_555
Li5 O5 2.343566 1_555
Li6 O14 2.027229 1_455
Li6 O12 2.054932 1_555
Li6 O8 2.065042 1_555
Li6 O4 2.209726 1_555
Li6 O0 2.232076 1_556
Li6 O6 2.407113 1_555
Li7 O7 2.054976 1_655
Li7 O1 2.076184 1_555
Li7 O5 2.091202 1_555
Li7 O15 2.185883 1_545
Li7 O9 2.191391 1_545
Li7 O13 2.250528 1_555
Li8 O1 2.020991 1_555
Li8 O8 2.029953 1_555
Li8 O5 2.042773 1_555
Li8 O12 2.043167 1_555
Li8 O14 2.210088 1_555
Li8 O7 2.221992 1_555
Mn0 O11 1.910820 1_555
Mn0 O4 1.918061 1_645
Mn0 O0 1.942153 1_646
Mn0 O13 1.943771 1_556
Mn0 O10 1.976583 1_656
Mn0 O6 1.980119 1_545
Mn1 O3 1.937795 1_555
Mn1 O15 1.940762 1_555
Mn1 O10 1.977055 1_565
Mn1 O6 1.983694 1_554
Mn1 O13 2.204242 1_565
Mn1 O0 2.212321 1_555
Co0 O9 1.911673 1_455
Co0 O2 1.913321 1_555
Co0 O13 1.939146 1_465
Co0 O0 1.954828 1_555
Co0 O3 2.157544 1_455
Co0 O15 2.160264 1_555
Co1 O1 1.844309 1_555
Co1 O8 1.865001 1_555
Co1 O10 2.003286 1_556
Co1 O6 2.008058 1_545
Co1 O4 2.186524 1_545
Co1 O11 2.189448 1_555
Co2 O14 1.880449 1_555
Co2 O7 1.893780 1_655
Co2 O2 1.921998 1_655
Co2 O9 1.923268 1_555
Co2 O12 1.936854 1_655
Co2 O5 1.952516 1_555
Co3 O14 1.904975 1_455
Co3 O7 1.915090 1_555
Co3 O4 1.954095 1_545
Co3 O11 2.019395 1_455
Co3 O8 2.110816 1_555
Co3 O1 2.130085 1_455
Co4 O12 1.907193 1_555
Co4 O5 1.913271 1_555
Co4 O3 1.938616 1_555
Co4 O15 1.953479 1_555
Co4 O9 2.163241 1_555
Co4 O2 2.164870 1_555
