# generated using pymatgen
data_Cs3Pr5(PS4)6
_symmetry_space_group_name_H-M   'P 1'
_cell_length_a   10.63815262
_cell_length_b   10.63815262
_cell_length_c   21.51104706
_cell_angle_alpha   79.70200500
_cell_angle_beta   79.70200500
_cell_angle_gamma   78.02044082
_symmetry_Int_Tables_number   1
_chemical_formula_structural   Cs3Pr5(PS4)6
_chemical_formula_sum   'Cs6 Pr10 P12 S48'
_cell_volume   2317.51422336
_cell_formula_units_Z   2
loop_
 _symmetry_equiv_pos_site_id
 _symmetry_equiv_pos_as_xyz
  1  'x, y, z'
loop_
 _atom_site_type_symbol
 _atom_site_label
 _atom_site_symmetry_multiplicity
 _atom_site_fract_x
 _atom_site_fract_y
 _atom_site_fract_z
 _atom_site_occupancy
  Cs  Cs0  1  0.19693800  0.44571800  0.78945600  1
  Cs  Cs1  1  0.55378300  0.80356700  0.71123000  1
  Cs  Cs2  1  0.80356700  0.55378300  0.21123000  1
  Cs  Cs3  1  0.44571800  0.19693800  0.28945600  1
  Cs  Cs4  1  0.98987400  0.49736100  0.52766800  1
  Cs  Cs5  1  0.49736100  0.98987400  0.02766800  1
  Pr  Pr0  1  0.70932700  0.48610100  0.92495100  1
  Pr  Pr1  1  0.51450900  0.29079300  0.57453600  1
  Pr  Pr2  1  0.29079300  0.51450900  0.07453600  1
  Pr  Pr3  1  0.48610100  0.70932700  0.42495100  1
  Pr  Pr4  1  0.06360700  0.82670300  0.93200000  1
  Pr  Pr5  1  0.17300200  0.93669300  0.56751500  1
  Pr  Pr6  1  0.93669300  0.17300200  0.06751500  1
  Pr  Pr7  1  0.82670300  0.06360700  0.43200000  1
  Pr  Pr8  1  0.93402500  0.06443800  0.75058200  1
  Pr  Pr9  1  0.06443800  0.93402500  0.25058200  1
  P  P0  1  0.91875400  0.17747700  0.89915000  1
  P  P1  1  0.82274000  0.08100700  0.60075700  1
  P  P2  1  0.08100700  0.82274000  0.10075700  1
  P  P3  1  0.17747700  0.91875400  0.39915000  1
  P  P4  1  0.84332000  0.76051200  0.83649800  1
  P  P5  1  0.24028900  0.15642600  0.66332000  1
  P  P6  1  0.15642600  0.24028900  0.16332000  1
  P  P7  1  0.76051200  0.84332000  0.33649800  1
  P  P8  1  0.35294900  0.61539600  0.59650700  1
  P  P9  1  0.38434900  0.64761900  0.90344900  1
  P  P10  1  0.64761900  0.38434900  0.40344900  1
  P  P11  1  0.61539600  0.35294900  0.09650700  1
  S  S0  1  0.83133600  0.70548400  0.93497200  1
  S  S1  1  0.29394500  0.16930600  0.56480000  1
  S  S2  1  0.16930600  0.29394500  0.06480000  1
  S  S3  1  0.70548400  0.83133600  0.43497200  1
  S  S4  1  0.97422400  0.31931200  0.93531600  1
  S  S5  1  0.68071600  0.02562000  0.56477100  1
  S  S6  1  0.02562000  0.68071600  0.06477100  1
  S  S7  1  0.31931200  0.97422400  0.43531600  1
  S  S8  1  0.03012400  0.79336600  0.80399900  1
  S  S9  1  0.20610300  0.97032400  0.69598100  1
  S  S10  1  0.97032400  0.20610300  0.19598100  1
  S  S11  1  0.79336600  0.03012400  0.30399900  1
  S  S12  1  0.17352000  0.67931700  0.64242500  1
  S  S13  1  0.32007500  0.82605800  0.85738500  1
  S  S14  1  0.82605800  0.32007500  0.35738500  1
  S  S15  1  0.67931700  0.17352000  0.14242500  1
  S  S16  1  0.33177000  0.52565300  0.52185700  1
  S  S17  1  0.47419500  0.66806900  0.97829900  1
  S  S18  1  0.66806900  0.47419500  0.47829900  1
  S  S19  1  0.52565300  0.33177000  0.02185700  1
  S  S20  1  0.47395400  0.49567000  0.65322400  1
  S  S21  1  0.50437900  0.52628300  0.84691400  1
  S  S22  1  0.52628300  0.50437900  0.34691400  1
  S  S23  1  0.49567000  0.47395400  0.15322400  1
  S  S24  1  0.06922500  0.28011100  0.68363800  1
  S  S25  1  0.72012000  0.93091700  0.81648400  1
  S  S26  1  0.93091700  0.72012000  0.31648400  1
  S  S27  1  0.28011100  0.06922500  0.18363800  1
  S  S28  1  0.95117400  0.15686500  0.52700600  1
  S  S29  1  0.84356800  0.04873500  0.97304800  1
  S  S30  1  0.04873500  0.84356800  0.47304800  1
  S  S31  1  0.15686500  0.95117400  0.02700600  1
  S  S32  1  0.22351200  0.56316400  0.94240100  1
  S  S33  1  0.43669600  0.77652000  0.55779200  1
  S  S34  1  0.77652000  0.43669600  0.05779200  1
  S  S35  1  0.56316400  0.22351200  0.44240100  1
  S  S36  1  0.92110200  0.91782700  0.64915600  1
  S  S37  1  0.08195200  0.07888400  0.85082400  1
  S  S38  1  0.07888400  0.08195200  0.35082400  1
  S  S39  1  0.91782700  0.92110200  0.14915600  1
  S  S40  1  0.81740800  0.60776700  0.79923400  1
  S  S41  1  0.39213300  0.18292300  0.70068400  1
  S  S42  1  0.18292300  0.39213300  0.20068400  1
  S  S43  1  0.60776700  0.81740800  0.29923400  1
  S  S44  1  0.78415300  0.26113500  0.84095400  1
  S  S45  1  0.73910600  0.21627900  0.65883800  1
  S  S46  1  0.21627900  0.73910600  0.15883800  1
  S  S47  1  0.26113500  0.78415300  0.34095400  1
loop_
_geom_bond_atom_site_label_1
_geom_bond_atom_site_label_2
_geom_bond_distance
_geom_bond_site_symmetry_2
Cs0 S12 3.668163 1_555
Cs0 S24 3.696501 1_555
Cs0 S41 3.722254 1_555
Cs0 S32 3.796567 1_555
Cs0 S8 3.796761 1_555
Cs0 S4 3.797693 1_455
Cs0 S20 3.815791 1_555
Cs0 S21 3.993338 1_555
Cs0 S40 4.031638 1_455
Cs1 S13 3.653801 1_555
Cs1 S25 3.690142 1_555
Cs1 S40 3.721672 1_555
Cs1 S9 3.799570 1_555
Cs1 S5 3.804130 1_565
Cs1 S33 3.806120 1_555
Cs1 S21 3.809621 1_555
Cs1 S20 4.000196 1_555
Cs1 S41 4.028194 1_565
Cs2 S14 3.653801 1_555
Cs2 S26 3.690142 1_555
Cs2 S43 3.721672 1_555
Cs2 S10 3.799570 1_555
Cs2 S6 3.804130 1_655
Cs2 S34 3.806120 1_555
Cs2 S22 3.809621 1_555
Cs2 S23 4.000196 1_555
Cs2 S42 4.028194 1_655
Cs3 S15 3.668163 1_555
Cs3 S27 3.696501 1_555
Cs3 S42 3.722254 1_555
Cs3 S35 3.796567 1_555
Cs3 S11 3.796761 1_555
Cs3 S7 3.797693 1_545
Cs3 S23 3.815791 1_555
Cs3 S22 3.993338 1_555
Cs3 S43 4.031638 1_545
Cs4 S16 3.689640 1_655
Cs4 S28 3.732289 1_555
Cs4 S30 3.805815 1_655
Cs4 S18 3.827784 1_555
Cs4 S24 3.839384 1_655
Cs5 S19 3.689640 1_565
Cs5 S31 3.732289 1_555
Cs5 S29 3.805815 1_564
Cs5 S17 3.827784 1_554
Cs5 S27 3.839384 1_565
Pr0 S21 2.901602 1_555
Pr0 S40 2.926620 1_555
Pr0 S0 2.952170 1_555
Pr0 S34 2.998357 1_556
Pr0 S17 3.013130 1_555
Pr0 S4 3.024350 1_555
Pr0 S19 3.083922 1_556
Pr0 S44 3.141163 1_555
Pr1 S20 2.910169 1_555
Pr1 S41 2.935801 1_555
Pr1 S1 2.958216 1_555
Pr1 S35 2.984426 1_555
Pr1 S16 3.010765 1_555
Pr1 S5 3.022695 1_555
Pr1 S18 3.070948 1_555
Pr1 S45 3.142380 1_555
Pr2 S23 2.910169 1_555
Pr2 S42 2.935801 1_555
Pr2 S2 2.958216 1_555
Pr2 S32 2.984426 1_554
Pr2 S19 3.010765 1_555
Pr2 S6 3.022695 1_555
Pr2 S17 3.070948 1_554
Pr2 S46 3.142380 1_555
Pr3 S22 2.901602 1_555
Pr3 S43 2.926620 1_555
Pr3 S3 2.952170 1_555
Pr3 S33 2.998357 1_555
Pr3 S18 3.013130 1_555
Pr3 S7 3.024350 1_555
Pr3 S16 3.083922 1_555
Pr3 S47 3.141163 1_555
Pr4 S13 2.906986 1_555
Pr4 S8 2.930236 1_555
Pr4 S37 2.950413 1_565
Pr4 S32 2.955638 1_555
Pr4 S6 2.999036 1_556
Pr4 S0 3.001554 1_455
Pr4 S31 3.025228 1_556
Pr4 S29 3.090243 1_465
Pr5 S12 2.917662 1_555
Pr5 S9 2.939778 1_555
Pr5 S36 2.952992 1_455
Pr5 S33 2.958004 1_555
Pr5 S7 2.989710 1_555
Pr5 S1 3.004235 1_565
Pr5 S30 3.013689 1_555
Pr5 S28 3.086285 1_465
Pr6 S15 2.917662 1_555
Pr6 S10 2.939778 1_555
Pr6 S39 2.952992 1_545
Pr6 S34 2.958004 1_555
Pr6 S4 2.989710 1_554
Pr6 S2 3.004235 1_655
Pr6 S29 3.013689 1_554
Pr6 S31 3.086285 1_645
Pr7 S14 2.906986 1_555
Pr7 S11 2.930236 1_555
Pr7 S38 2.950413 1_655
Pr7 S35 2.955638 1_555
Pr7 S5 2.999036 1_555
Pr7 S3 3.001554 1_545
Pr7 S28 3.025228 1_555
Pr7 S30 3.090243 1_645
Pr8 S37 2.929477 1_655
Pr8 S36 2.936754 1_545
Pr8 S25 2.945142 1_545
Pr8 S8 2.948337 1_645
Pr8 S9 2.959982 1_645
Pr8 S24 2.975656 1_655
Pr8 S44 3.108203 1_555
Pr8 S45 3.120351 1_555
Pr9 S38 2.929477 1_565
Pr9 S39 2.936754 1_455
Pr9 S26 2.945142 1_455
Pr9 S11 2.948337 1_465
Pr9 S10 2.959982 1_465
Pr9 S27 2.975656 1_565
Pr9 S47 3.108203 1_555
Pr9 S46 3.120351 1_555
P0 S44 2.030539 1_555
P0 S37 2.045361 1_655
P0 S4 2.045376 1_555
P0 S29 2.064982 1_555
P1 S45 2.034030 1_555
P1 S5 2.044488 1_555
P1 S36 2.044892 1_545
P1 S28 2.063942 1_555
P2 S46 2.034030 1_555
P2 S6 2.044488 1_555
P2 S39 2.044892 1_455
P2 S31 2.063942 1_555
P3 S47 2.030539 1_555
P3 S38 2.045361 1_565
P3 S7 2.045376 1_555
P3 S30 2.064982 1_555
P4 S40 2.022264 1_555
P4 S25 2.031184 1_555
P4 S8 2.065017 1_655
P4 S0 2.082575 1_555
P5 S41 2.017173 1_555
P5 S24 2.039908 1_555
P5 S9 2.062918 1_545
P5 S1 2.081353 1_555
P6 S42 2.017173 1_555
P6 S27 2.039908 1_555
P6 S10 2.062918 1_455
P6 S2 2.081353 1_555
P7 S43 2.022264 1_555
P7 S26 2.031184 1_555
P7 S11 2.065017 1_565
P7 S3 2.082575 1_555
P8 S20 2.023141 1_555
P8 S12 2.027006 1_555
P8 S33 2.069680 1_555
P8 S16 2.075470 1_555
P9 S13 2.020814 1_555
P9 S21 2.024204 1_555
P9 S32 2.072014 1_555
P9 S17 2.077277 1_555
P10 S14 2.020814 1_555
P10 S22 2.024204 1_555
P10 S35 2.072014 1_555
P10 S18 2.077277 1_555
P11 S23 2.023141 1_555
P11 S15 2.027006 1_555
P11 S34 2.069680 1_555
P11 S19 2.075470 1_555
