# generated using pymatgen
data_Mg4Ta2O9
_symmetry_space_group_name_H-M   'P 1'
_cell_length_a   5.15875743
_cell_length_b   5.15875758
_cell_length_c   14.02729245
_cell_angle_alpha   90.00008457
_cell_angle_beta   89.99991920
_cell_angle_gamma   120.00049778
_symmetry_Int_Tables_number   1
_chemical_formula_structural   Mg4Ta2O9
_chemical_formula_sum   'Mg8 Ta4 O18'
_cell_volume   323.29019415
_cell_formula_units_Z   2
loop_
 _symmetry_equiv_pos_site_id
 _symmetry_equiv_pos_as_xyz
  1  'x, y, z'
loop_
 _atom_site_type_symbol
 _atom_site_label
 _atom_site_symmetry_multiplicity
 _atom_site_fract_x
 _atom_site_fract_y
 _atom_site_fract_z
 _atom_site_occupancy
  Mg  Mg0  1  0.33333402  0.66666802  0.01630631  1
  Mg  Mg1  1  0.66666742  0.33333372  0.48369377  1
  Mg  Mg2  1  0.66666578  0.33333237  0.98369423  1
  Mg  Mg3  1  0.33333207  0.66666552  0.51630579  1
  Mg  Mg4  1  0.33329699  0.66662855  0.80922519  1
  Mg  Mg5  1  0.66662877  0.33329693  0.69077482  1
  Mg  Mg6  1  0.66670303  0.33337151  0.19077458  1
  Mg  Mg7  1  0.33337150  0.66670306  0.30922520  1
  Ta  Ta0  1  0.00000545  0.00000380  0.35747752  1
  Ta  Ta1  1  0.00000381  0.00000544  0.14252249  1
  Ta  Ta2  1  -0.00000517  -0.00000406  0.64252241  1
  Ta  Ta3  1  -0.00000403  -0.00000522  0.85747765  1
  O  O0  1  0.28887706  0.28887707  0.75000001  1
  O  O1  1  -0.00000327  0.71111936  0.74999945  1
  O  O2  1  0.71111949  -0.00000321  0.75000061  1
  O  O3  1  0.71112286  0.71112292  0.24999996  1
  O  O4  1  0.00000322  0.28888097  0.25000058  1
  O  O5  1  0.28888092  0.00000334  0.24999938  1
  O  O6  1  0.68152258  0.65260080  0.58452907  1
  O  O7  1  0.34740033  0.02892228  0.58452937  1
  O  O8  1  0.97107651  0.31847419  0.58452949  1
  O  O9  1  0.02892221  0.34740027  0.91547063  1
  O  O10  1  0.31847420  0.97107648  0.91547054  1
  O  O11  1  0.65260077  0.68152254  0.91547097  1
  O  O12  1  0.34739982  0.31847755  0.08452939  1
  O  O13  1  0.68152566  0.02892444  0.08452985  1
  O  O14  1  0.97107682  0.65259917  0.08452967  1
  O  O15  1  0.02892459  0.68152581  0.41547014  1
  O  O16  1  0.65259908  0.97107660  0.41547032  1
  O  O17  1  0.31847749  0.34739979  0.41547060  1
loop_
_geom_bond_atom_site_label_1
_geom_bond_atom_site_label_2
_geom_bond_distance
_geom_bond_site_symmetry_2
Mg0 O13 2.068294 1_565
Mg0 O14 2.068298 1_455
Mg0 O12 2.068302 1_555
Mg0 O9 2.143122 1_554
Mg0 O11 2.143125 1_554
Mg0 O10 2.143129 1_554
Mg1 O15 2.068297 1_655
Mg1 O16 2.068300 1_545
Mg1 O17 2.068301 1_555
Mg1 O7 2.143120 1_555
Mg1 O6 2.143125 1_555
Mg1 O8 2.143131 1_555
Mg2 O10 2.068294 1_545
Mg2 O9 2.068298 1_655
Mg2 O11 2.068300 1_555
Mg2 O14 2.143117 1_556
Mg2 O12 2.143120 1_556
Mg2 O13 2.143126 1_556
Mg3 O8 2.068292 1_455
Mg3 O7 2.068299 1_565
Mg3 O6 2.068301 1_555
Mg3 O16 2.143118 1_555
Mg3 O17 2.143120 1_555
Mg3 O15 2.143125 1_555
Mg4 O0 2.023281 1_555
Mg4 O1 2.023340 1_555
Mg4 O2 2.023534 1_565
Mg4 O9 2.193802 1_555
Mg4 O10 2.194023 1_555
Mg4 O11 2.194029 1_555
Mg5 O0 2.023282 1_555
Mg5 O2 2.023339 1_555
Mg5 O1 2.023534 1_655
Mg5 O7 2.193802 1_555
Mg5 O8 2.194022 1_555
Mg5 O6 2.194030 1_555
Mg6 O3 2.023282 1_555
Mg6 O4 2.023340 1_655
Mg6 O5 2.023534 1_555
Mg6 O14 2.193794 1_555
Mg6 O13 2.194013 1_555
Mg6 O12 2.194021 1_555
Mg7 O3 2.023280 1_555
Mg7 O5 2.023340 1_565
Mg7 O4 2.023533 1_555
Mg7 O16 2.193795 1_555
Mg7 O15 2.194015 1_555
Mg7 O17 2.194024 1_555
O0 Ta2 2.119856 1_555
O0 Ta3 2.119857 1_555
O1 Ta2 2.119845 1_565
O1 Ta3 2.119847 1_565
O2 Ta3 2.119845 1_655
O2 Ta2 2.119847 1_655
O3 Ta1 2.119855 1_665
O3 Ta0 2.119856 1_665
O4 Ta1 2.119846 1_555
O4 Ta0 2.119847 1_555
O5 Ta1 2.119846 1_555
O5 Ta0 2.119846 1_555
O6 Ta2 1.904811 1_665
O7 Ta2 1.904861 1_555
O8 Ta2 1.904839 1_655
O9 Ta3 1.904860 1_555
O10 Ta3 1.904838 1_565
O11 Ta3 1.904812 1_665
O12 Ta1 1.904812 1_555
O13 Ta1 1.904838 1_655
O14 Ta1 1.904862 1_665
O15 Ta0 1.904838 1_565
O16 Ta0 1.904861 1_665
O17 Ta0 1.904812 1_555
