# generated using pymatgen
data_K2SmCl5
_symmetry_space_group_name_H-M   'P 1'
_cell_length_a   7.96807115
_cell_length_b   8.65308506
_cell_length_c   12.73943284
_cell_angle_alpha   90.00000000
_cell_angle_beta   90.00000000
_cell_angle_gamma   90.00000000
_symmetry_Int_Tables_number   1
_chemical_formula_structural   K2SmCl5
_chemical_formula_sum   'K8 Sm4 Cl20'
_cell_volume   878.36347842
_cell_formula_units_Z   4
loop_
 _symmetry_equiv_pos_site_id
 _symmetry_equiv_pos_as_xyz
  1  'x, y, z'
loop_
 _atom_site_type_symbol
 _atom_site_label
 _atom_site_symmetry_multiplicity
 _atom_site_fract_x
 _atom_site_fract_y
 _atom_site_fract_z
 _atom_site_occupancy
  K  K0  1  0.55064635  0.49539920  0.82799155  1
  K  K1  1  0.44935365  0.50460080  0.17200845  1
  K  K2  1  0.05064635  0.50460080  0.67200845  1
  K  K3  1  0.44935365  -0.00460080  0.17200845  1
  K  K4  1  0.94935365  0.49539920  0.32799155  1
  K  K5  1  0.55064635  0.00460080  0.82799155  1
  K  K6  1  0.94935365  0.00460080  0.32799155  1
  K  K7  1  0.05064635  -0.00460080  0.67200845  1
  Sm  Sm0  1  0.57666385  0.75000000  0.50503507  1
  Sm  Sm1  1  0.42333615  0.25000000  0.49496493  1
  Sm  Sm2  1  0.07666385  0.25000000  0.99496493  1
  Sm  Sm3  1  0.92333615  0.75000000  0.00503507  1
  Cl  Cl0  1  0.83675706  0.75000000  0.79642997  1
  Cl  Cl1  1  0.16324294  0.25000000  0.20357003  1
  Cl  Cl2  1  0.33675706  0.25000000  0.70357003  1
  Cl  Cl3  1  0.66324294  0.75000000  0.29642997  1
  Cl  Cl4  1  0.37220541  0.75000000  0.67756100  1
  Cl  Cl5  1  0.62779459  0.25000000  0.32243900  1
  Cl  Cl6  1  0.87220541  0.25000000  0.82243900  1
  Cl  Cl7  1  0.12779459  0.75000000  0.17756100  1
  Cl  Cl8  1  0.92300249  0.75000000  0.50817761  1
  Cl  Cl9  1  0.07699751  0.25000000  0.49182239  1
  Cl  Cl10  1  0.42300249  0.25000000  0.99182239  1
  Cl  Cl11  1  0.57699751  0.75000000  0.00817761  1
  Cl  Cl12  1  0.66425683  0.04303583  0.57725989  1
  Cl  Cl13  1  0.33574317  0.95696417  0.42274011  1
  Cl  Cl14  1  0.16425683  0.95696417  0.92274011  1
  Cl  Cl15  1  0.33574317  0.54303583  0.42274011  1
  Cl  Cl16  1  0.83574317  0.04303583  0.07725989  1
  Cl  Cl17  1  0.66425683  0.45696417  0.57725989  1
  Cl  Cl18  1  0.83574317  0.45696417  0.07725989  1
  Cl  Cl19  1  0.16425683  0.54303583  0.92274011  1
loop_
_geom_bond_atom_site_label_1
_geom_bond_atom_site_label_2
_geom_bond_distance
_geom_bond_site_symmetry_2
Cl0 Sm3 2.745593 1_556
Cl0 K7 3.150569 1_665
Cl0 K2 3.150569 1_655
Cl0 K5 3.195700 1_565
Cl0 K0 3.195700 1_555
Cl1 Sm2 2.745593 1_554
Cl1 K4 3.150569 1_455
Cl1 K6 3.150569 1_455
Cl1 K1 3.195700 1_555
Cl1 K3 3.195700 1_555
Cl2 Sm1 2.745593 1_555
Cl2 K5 3.150569 1_555
Cl2 K0 3.150569 1_555
Cl2 K2 3.195700 1_555
Cl2 K7 3.195700 1_555
Cl3 Sm0 2.745593 1_555
Cl3 K1 3.150569 1_555
Cl3 K3 3.150569 1_565
Cl3 K6 3.195700 1_565
Cl3 K4 3.195700 1_555
Cl4 Sm0 2.735833 1_555
Cl4 K5 3.247732 1_565
Cl4 K0 3.247732 1_555
Cl4 K7 3.328511 1_565
Cl4 K2 3.328511 1_555
Cl5 Sm1 2.735833 1_555
Cl5 K3 3.247732 1_555
Cl5 K1 3.247732 1_555
Cl5 K6 3.328511 1_555
Cl5 K4 3.328511 1_555
Cl6 Sm2 2.735833 1_655
Cl6 K7 3.247732 1_655
Cl6 K2 3.247732 1_655
Cl6 K5 3.328511 1_555
Cl6 K0 3.328511 1_555
Cl7 Sm3 2.735833 1_455
Cl7 K6 3.247732 1_465
Cl7 K4 3.247732 1_455
Cl7 K1 3.328511 1_555
Cl7 K3 3.328511 1_565
Cl8 Sm0 2.759941 1_555
Cl8 K7 3.146357 1_665
Cl8 K2 3.146357 1_655
Cl8 K6 3.188547 1_565
Cl8 K4 3.188547 1_555
Cl9 Sm1 2.759941 1_555
Cl9 K6 3.146357 1_455
Cl9 K4 3.146357 1_455
Cl9 K2 3.188547 1_555
Cl9 K7 3.188547 1_555
Cl10 Sm2 2.759941 1_555
Cl10 K0 3.146357 1_555
Cl10 K5 3.146357 1_555
Cl10 K1 3.188547 1_556
Cl10 K3 3.188547 1_556
Cl11 Sm3 2.759941 1_555
Cl11 K1 3.146357 1_555
Cl11 K3 3.146357 1_565
Cl11 K5 3.188547 1_564
Cl11 K0 3.188547 1_554
Cl12 Sm0 2.786272 1_545
Cl12 Sm1 2.826927 1_555
Cl12 K7 3.332528 1_655
Cl12 K5 3.336597 1_555
Cl13 Sm1 2.786272 1_565
Cl13 Sm0 2.826927 1_555
Cl13 K6 3.332528 1_465
Cl13 K3 3.336597 1_565
Cl14 Sm2 2.786272 1_565
Cl14 Sm3 2.826927 1_456
Cl14 K5 3.332528 1_565
Cl14 K7 3.336597 1_565
Cl15 Sm1 2.786272 1_555
Cl15 Sm0 2.826927 1_555
Cl15 K4 3.332528 1_455
Cl15 K1 3.336597 1_555
Cl16 Sm3 2.786272 1_545
Cl16 Sm2 2.826927 1_654
Cl16 K3 3.332528 1_555
Cl16 K6 3.336597 1_555
Cl17 Sm0 2.786272 1_555
Cl17 Sm1 2.826927 1_555
Cl17 K2 3.332528 1_655
Cl17 K0 3.336597 1_555
Cl18 Sm3 2.786272 1_555
Cl18 Sm2 2.826927 1_654
Cl18 K1 3.332528 1_555
Cl18 K4 3.336597 1_555
Cl19 Sm2 2.786272 1_555
Cl19 Sm3 2.826927 1_456
Cl19 K0 3.332528 1_555
Cl19 K2 3.336597 1_555
