# generated using pymatgen
data_Mg4Si7
_symmetry_space_group_name_H-M   'P 1'
_cell_length_a   4.40122000
_cell_length_b   6.80478971
_cell_length_c   13.59869869
_cell_angle_alpha   94.14692368
_cell_angle_beta   91.60644069
_cell_angle_gamma   93.17249505
_symmetry_Int_Tables_number   1
_chemical_formula_structural   Mg4Si7
_chemical_formula_sum   'Mg8 Si14'
_cell_volume   405.37381393
_cell_formula_units_Z   2
loop_
 _symmetry_equiv_pos_site_id
 _symmetry_equiv_pos_as_xyz
  1  'x, y, z'
loop_
 _atom_site_type_symbol
 _atom_site_label
 _atom_site_symmetry_multiplicity
 _atom_site_fract_x
 _atom_site_fract_y
 _atom_site_fract_z
 _atom_site_occupancy
  Mg  Mg0  1  0.72163600  0.90585500  0.10111500  1
  Mg  Mg1  1  0.79389100  0.67691700  0.51611500  1
  Mg  Mg2  1  0.26820100  0.97002000  0.66997000  1
  Mg  Mg3  1  0.24340800  0.47527000  0.33899100  1
  Mg  Mg4  1  0.68057100  0.44097300  0.15457000  1
  Mg  Mg5  1  0.25294700  0.33389500  0.83601900  1
  Mg  Mg6  1  0.25646100  0.36018800  0.56013900  1
  Mg  Mg7  1  0.27814800  0.96156900  0.41211200  1
  Si  Si0  1  0.67643100  0.58978700  0.94432000  1
  Si  Si1  1  0.72768300  0.23781200  0.97001600  1
  Si  Si2  1  0.23141300  0.09057200  0.02212300  1
  Si  Si3  1  0.19228200  0.72104300  0.00598700  1
  Si  Si4  1  0.73531400  0.30654700  0.43284900  1
  Si  Si5  1  0.78967100  0.06327200  0.55165300  1
  Si  Si6  1  0.79182600  0.05036100  0.81521000  1
  Si  Si7  1  0.25857800  0.11577900  0.20055900  1
  Si  Si8  1  0.76274400  0.75126000  0.30549000  1
  Si  Si9  1  0.59509800  0.70925400  0.78217300  1
  Si  Si10  1  0.04188500  0.60116000  0.70712000  1
  Si  Si11  1  0.21173000  0.73806500  0.19237200  1
  Si  Si12  1  0.76956100  0.11141100  0.28386600  1
  Si  Si13  1  0.71681000  0.28534200  0.69363200  1
loop_
_geom_bond_atom_site_label_1
_geom_bond_atom_site_label_2
_geom_bond_distance
_geom_bond_site_symmetry_2
Mg0 Si12 2.759046 1_565
Mg0 Si3 2.783716 1_655
Mg0 Si2 2.784688 1_565
Mg0 Si2 2.790343 1_665
Mg0 Si11 2.797108 1_655
Mg0 Si3 2.820360 1_555
Mg0 Si11 2.820923 1_555
Mg0 Si7 2.867092 1_565
Mg0 Si0 2.911586 1_554
Mg0 Si7 2.936293 1_665
Mg0 Si1 2.976585 1_564
Mg0 Si8 3.046191 1_555
Mg1 Si5 2.639702 1_565
Mg1 Si4 2.683176 1_555
Mg1 Si10 2.881083 1_655
Mg1 Si8 2.945120 1_555
Mg2 Si10 2.735402 1_555
Mg2 Si5 2.744581 1_465
Mg2 Si13 2.828698 1_565
Mg2 Si9 2.845676 1_555
Mg2 Si5 2.907305 1_565
Mg2 Si6 2.966235 1_465
Mg2 Si6 2.993344 1_565
Mg3 Si11 2.778554 1_555
Mg3 Si4 2.822508 1_555
Mg3 Si4 2.834745 1_455
Mg3 Si8 2.943824 1_555
Mg3 Si8 2.952874 1_455
Mg3 Si7 2.981868 1_555
Mg3 Si12 3.180273 1_455
Mg4 Si1 2.794975 1_554
Mg4 Si8 2.836918 1_555
Mg4 Si7 2.923664 1_555
Mg4 Si12 2.983792 1_555
Mg4 Si11 2.996688 1_555
Mg4 Si11 3.012572 1_655
Mg4 Si0 3.101331 1_554
Mg5 Si6 2.716045 1_455
Mg5 Si0 2.791234 1_555
Mg5 Si10 2.792810 1_555
Mg5 Si1 2.867675 1_555
Mg5 Si13 2.868813 1_555
Mg5 Si13 2.998554 1_455
Mg5 Si9 3.038844 1_555
Mg5 Si1 3.055073 1_455
Mg5 Si2 3.123694 1_556
Mg5 Si6 3.145291 1_555
Mg6 Si10 2.716419 1_555
Mg6 Si13 2.775178 1_555
Mg6 Si4 2.787390 1_555
Mg6 Si5 2.794607 1_455
Mg6 Si4 2.825570 1_455
Mg6 Si13 3.072068 1_455
Mg7 Si8 2.907263 1_455
Mg7 Si5 2.923406 1_565
Mg7 Si5 2.984172 1_465
Mg7 Si8 2.985022 1_555
Mg7 Si12 2.997246 1_565
Mg7 Si4 2.998071 1_565
Mg7 Si12 3.063089 1_465
Mg7 Si7 3.133298 1_565
Mg7 Si11 3.251509 1_555
Si0 Si9 2.428622 1_555
Si0 Si1 2.466980 1_555
Si0 Si3 2.493202 1_656
Si0 Si3 2.498801 1_556
Si1 Si6 2.413146 1_555
Si1 Si2 2.494776 1_556
Si1 Si2 2.584888 1_656
Si2 Si7 2.419271 1_555
Si2 Si3 2.504197 1_545
Si4 Si5 2.411798 1_555
Si6 Si9 2.438079 1_545
Si10 Si9 2.369287 1_455
Si10 Si13 2.507408 1_455
Si10 Si9 2.657986 1_555
Si11 Si3 2.527684 1_555
Si11 Si8 2.539549 1_455
Si11 Si7 2.561218 1_565
Si11 Si8 2.828840 1_555
Si12 Si4 2.353869 1_555
Si12 Si7 2.459886 1_655
Si12 Si8 2.487999 1_545
Si12 Si7 2.492280 1_555
Si13 Si5 2.404262 1_555
Si13 Si6 2.410265 1_555
