# generated using pymatgen
data_Li3(WO3)8
_symmetry_space_group_name_H-M   'P 1'
_cell_length_a   7.55470200
_cell_length_b   7.55916500
_cell_length_c   7.59538800
_cell_angle_alpha   90.00000000
_cell_angle_beta   90.00000000
_cell_angle_gamma   90.00000000
_symmetry_Int_Tables_number   1
_chemical_formula_structural   Li3(WO3)8
_chemical_formula_sum   'Li3 W8 O24'
_cell_volume   433.75163739
_cell_formula_units_Z   1
loop_
 _symmetry_equiv_pos_site_id
 _symmetry_equiv_pos_as_xyz
  1  'x, y, z'
loop_
 _atom_site_type_symbol
 _atom_site_label
 _atom_site_symmetry_multiplicity
 _atom_site_fract_x
 _atom_site_fract_y
 _atom_site_fract_z
 _atom_site_occupancy
  Li  Li0  1  0.00000000  0.50000000  0.50000000  1
  Li  Li1  1  0.50000000  0.00000000  0.00000000  1
  Li  Li2  1  0.00000000  0.00000000  0.50000000  1
  W  W0  1  0.74937300  0.74900100  0.75099100  1
  W  W1  1  0.25062700  0.25099900  0.24900900  1
  W  W2  1  0.74937300  0.25099900  0.24900900  1
  W  W3  1  0.25062700  0.74900100  0.75099100  1
  W  W4  1  0.74937300  0.74900100  0.24900900  1
  W  W5  1  0.25062700  0.25099900  0.75099100  1
  W  W6  1  0.74937300  0.25099900  0.75099100  1
  W  W7  1  0.25062700  0.74900100  0.24900900  1
  O  O0  1  0.50000000  0.79236500  0.70702700  1
  O  O1  1  0.00000000  0.29164000  0.20622400  1
  O  O2  1  0.00000000  0.70836000  0.79377600  1
  O  O3  1  0.50000000  0.20763500  0.29297300  1
  O  O4  1  0.50000000  0.20763500  0.70702700  1
  O  O5  1  0.00000000  0.70836000  0.20622400  1
  O  O6  1  0.00000000  0.29164000  0.79377600  1
  O  O7  1  0.50000000  0.79236500  0.29297300  1
  O  O8  1  0.20233600  0.29924300  0.50000000  1
  O  O9  1  0.70462100  0.80290100  0.00000000  1
  O  O10  1  0.29537900  0.19709900  0.00000000  1
  O  O11  1  0.79766400  0.70075700  0.50000000  1
  O  O12  1  0.79766400  0.29924300  0.50000000  1
  O  O13  1  0.29537900  0.80290100  0.00000000  1
  O  O14  1  0.70462100  0.19709900  0.00000000  1
  O  O15  1  0.20233600  0.70075700  0.50000000  1
  O  O16  1  0.70510000  0.50000000  0.21256500  1
  O  O17  1  0.19865400  0.00000000  0.70503000  1
  O  O18  1  0.80134600  0.00000000  0.29497000  1
  O  O19  1  0.29490000  0.50000000  0.78743500  1
  O  O20  1  0.70510000  0.50000000  0.78743500  1
  O  O21  1  0.19865400  0.00000000  0.29497000  1
  O  O22  1  0.80134600  0.00000000  0.70503000  1
  O  O23  1  0.29490000  0.50000000  0.21256500  1
loop_
_geom_bond_atom_site_label_1
_geom_bond_atom_site_label_2
_geom_bond_distance
_geom_bond_site_symmetry_2
Li0 O11 2.153963 1_455
Li0 O15 2.153963 1_555
Li0 O8 2.153963 1_555
Li0 O12 2.153963 1_455
Li1 O10 2.146967 1_555
Li1 O13 2.146967 1_545
Li1 O14 2.146967 1_555
Li1 O9 2.146967 1_545
Li2 O18 2.162740 1_455
Li2 O21 2.162740 1_555
Li2 O22 2.162740 1_455
Li2 O17 2.162740 1_555
O0 W0 1.941180 1_555
O0 W3 1.941180 1_555
O1 W1 1.945506 1_555
O1 W2 1.945506 1_455
O2 W3 1.945506 1_555
O2 W0 1.945506 1_455
O3 W2 1.941180 1_555
O3 W1 1.941180 1_555
O4 W6 1.941180 1_555
O4 W5 1.941180 1_555
O5 W7 1.945506 1_555
O5 W4 1.945506 1_455
O6 W5 1.945506 1_555
O6 W6 1.945506 1_455
O7 W4 1.941180 1_555
O7 W7 1.941180 1_555
O8 W1 1.974931 1_555
O8 W5 1.974931 1_555
O9 W4 1.964027 1_555
O9 W0 1.964027 1_554
O10 W1 1.964027 1_555
O10 W5 1.964027 1_554
O11 W4 1.974931 1_555
O11 W0 1.974931 1_555
O12 W2 1.974931 1_555
O12 W6 1.974931 1_555
O13 W7 1.964027 1_555
O13 W3 1.964027 1_554
O14 W2 1.964027 1_555
O14 W6 1.964027 1_554
O15 W7 1.974931 1_555
O15 W3 1.974931 1_555
O16 W2 1.931662 1_555
O16 W4 1.931662 1_555
O17 W3 1.968741 1_545
O17 W5 1.968741 1_555
O18 W4 1.968741 1_545
O18 W2 1.968741 1_555
O19 W5 1.931662 1_555
O19 W3 1.931662 1_555
O20 W6 1.931662 1_555
O20 W0 1.931662 1_555
O21 W7 1.968741 1_545
O21 W1 1.968741 1_555
O22 W0 1.968741 1_545
O22 W6 1.968741 1_555
O23 W1 1.931662 1_555
O23 W7 1.931662 1_555
