# generated using pymatgen
data_Nb(H2Se)2
_symmetry_space_group_name_H-M   'P 1'
_cell_length_a   3.93367160
_cell_length_b   3.93367160
_cell_length_c   12.53683354
_cell_angle_alpha   89.20414467
_cell_angle_beta   89.20414467
_cell_angle_gamma   59.06164222
_symmetry_Int_Tables_number   1
_chemical_formula_structural   Nb(H2Se)2
_chemical_formula_sum   'Nb2 H8 Se4'
_cell_volume   166.36988434
_cell_formula_units_Z   2
loop_
 _symmetry_equiv_pos_site_id
 _symmetry_equiv_pos_as_xyz
  1  'x, y, z'
loop_
 _atom_site_type_symbol
 _atom_site_label
 _atom_site_symmetry_multiplicity
 _atom_site_fract_x
 _atom_site_fract_y
 _atom_site_fract_z
 _atom_site_occupancy
  Nb  Nb0  1  0.33536200  0.33536200  0.24088200  1
  Nb  Nb1  1  0.66463800  0.66463800  0.75911800  1
  H  H0  1  0.00000000  0.00000000  0.50000000  1
  H  H1  1  0.00000000  0.00000000  0.00000000  1
  H  H2  1  0.66901400  0.16540800  0.11983500  1
  H  H3  1  0.16541100  0.16541100  0.12215700  1
  H  H4  1  0.16540800  0.66901400  0.11983500  1
  H  H5  1  0.33098600  0.83459200  0.88016500  1
  H  H6  1  0.83458900  0.83458900  0.87784300  1
  H  H7  1  0.83459200  0.33098600  0.88016500  1
  Se  Se0  1  0.33540500  0.33540500  0.88403300  1
  Se  Se1  1  0.66459500  0.66459500  0.11596700  1
  Se  Se2  1  0.65946400  0.65946400  0.37570800  1
  Se  Se3  1  0.34053600  0.34053600  0.62429200  1
loop_
_geom_bond_atom_site_label_1
_geom_bond_atom_site_label_2
_geom_bond_distance
_geom_bond_site_symmetry_2
Nb0 Se2 2.810497 1_555
Nb0 Se2 2.828627 1_455
Nb0 Se2 2.828627 1_545
Nb1 Se3 2.810497 1_555
Nb1 Se3 2.828627 1_565
Nb1 Se3 2.828627 1_655
H2 Nb0 1.882320 1_555
H2 Se1 1.954689 1_555
H2 Se1 1.980297 1_545
H3 Nb0 1.903719 1_555
H3 Se1 1.940438 1_455
H3 Se1 1.940438 1_545
H4 Nb0 1.882320 1_555
H4 Se1 1.954689 1_555
H4 Se1 1.980297 1_455
H5 Nb1 1.882320 1_555
H5 Se0 1.954689 1_555
H5 Se0 1.980297 1_565
H6 Nb1 1.903719 1_555
H6 Se0 1.940438 1_655
H6 Se0 1.940438 1_565
H7 Nb1 1.882320 1_555
H7 Se0 1.954689 1_555
H7 Se0 1.980297 1_655
