# generated using pymatgen
data_Cs2LiCeI6
_symmetry_space_group_name_H-M   'P 1'
_cell_length_a   8.67136077
_cell_length_b   8.67136077
_cell_length_c   8.67136077
_cell_angle_alpha   60.00000000
_cell_angle_beta   60.00000000
_cell_angle_gamma   60.00000000
_symmetry_Int_Tables_number   1
_chemical_formula_structural   Cs2LiCeI6
_chemical_formula_sum   'Cs2 Li1 Ce1 I6'
_cell_volume   461.04866368
_cell_formula_units_Z   1
loop_
 _symmetry_equiv_pos_site_id
 _symmetry_equiv_pos_as_xyz
  1  'x, y, z'
loop_
 _atom_site_type_symbol
 _atom_site_label
 _atom_site_symmetry_multiplicity
 _atom_site_fract_x
 _atom_site_fract_y
 _atom_site_fract_z
 _atom_site_occupancy
  Cs  Cs0  1  0.75000000  0.75000000  0.75000000  1
  Cs  Cs1  1  0.25000000  0.25000000  0.25000000  1
  Li  Li0  1  0.50000000  0.50000000  0.50000000  1
  Ce  Ce0  1  0.00000000  0.00000000  0.00000000  1
  I  I0  1  0.74490800  0.25509200  0.25509200  1
  I  I1  1  0.25509200  0.25509200  0.74490800  1
  I  I2  1  0.25509200  0.74490800  0.74490800  1
  I  I3  1  0.25509200  0.74490800  0.25509200  1
  I  I4  1  0.74490800  0.25509200  0.74490800  1
  I  I5  1  0.74490800  0.74490800  0.25509200  1
loop_
_geom_bond_atom_site_label_1
_geom_bond_atom_site_label_2
_geom_bond_distance
_geom_bond_site_symmetry_2
Cs0 I2 4.336130 1_655
Cs0 I5 4.336130 1_556
Cs0 I4 4.336130 1_565
Cs0 I3 4.336130 1_556
Cs0 I0 4.336130 1_556
Cs0 I0 4.336130 1_565
Cs0 I1 4.336130 1_655
Cs0 I3 4.336130 1_655
Cs0 I1 4.336130 1_565
Cs0 I4 4.336130 1_555
Cs0 I5 4.336130 1_555
Cs0 I2 4.336130 1_555
Cs1 I3 4.336130 1_555
Cs1 I3 4.336130 1_545
Cs1 I5 4.336130 1_455
Cs1 I4 4.336130 1_554
Cs1 I0 4.336130 1_555
Cs1 I0 4.336130 1_455
Cs1 I2 4.336130 1_554
Cs1 I4 4.336130 1_455
Cs1 I1 4.336130 1_555
Cs1 I5 4.336130 1_545
Cs1 I2 4.336130 1_545
Cs1 I1 4.336130 1_554
Ce0 I2 3.128233 1_544
Ce0 I4 3.128233 1_454
Ce0 I1 3.128233 1_554
Ce0 I0 3.128233 1_455
Ce0 I3 3.128233 1_545
Ce0 I5 3.128233 1_445
I0 Li0 3.003345 1_555
I1 Li0 3.003345 1_555
I2 Li0 3.003345 1_555
I3 Li0 3.003345 1_555
I4 Li0 3.003345 1_555
I5 Li0 3.003345 1_555
