# generated using pymatgen
data_BPb7Br3O7
_symmetry_space_group_name_H-M   'P 1'
_cell_length_a   9.48051183
_cell_length_b   9.48051183
_cell_length_c   21.74053074
_cell_angle_alpha   83.02457543
_cell_angle_beta   83.02457543
_cell_angle_gamma   57.20118639
_symmetry_Int_Tables_number   1
_chemical_formula_structural   BPb7Br3O7
_chemical_formula_sum   'B4 Pb28 Br12 O28'
_cell_volume   1626.73462015
_cell_formula_units_Z   4
loop_
 _symmetry_equiv_pos_site_id
 _symmetry_equiv_pos_as_xyz
  1  'x, y, z'
loop_
 _atom_site_type_symbol
 _atom_site_label
 _atom_site_symmetry_multiplicity
 _atom_site_fract_x
 _atom_site_fract_y
 _atom_site_fract_z
 _atom_site_occupancy
  B  B0  1  0.72055600  0.71528700  0.28472900  1
  B  B1  1  0.28471300  0.27944400  0.21527100  1
  B  B2  1  0.27944400  0.28471300  0.71527100  1
  B  B3  1  0.71528700  0.72055600  0.78472900  1
  Pb  Pb0  1  0.75303300  0.62473800  0.42252400  1
  Pb  Pb1  1  0.37526200  0.24696700  0.07747600  1
  Pb  Pb2  1  0.24696700  0.37526200  0.57747600  1
  Pb  Pb3  1  0.62473800  0.75303300  0.92252400  1
  Pb  Pb4  1  0.62107400  0.31661900  0.44717700  1
  Pb  Pb5  1  0.68338100  0.37892600  0.05282300  1
  Pb  Pb6  1  0.37892600  0.68338100  0.55282300  1
  Pb  Pb7  1  0.31661900  0.62107400  0.94717700  1
  Pb  Pb8  1  0.07217200  0.15005300  0.48449500  1
  Pb  Pb9  1  0.84994700  0.92782800  0.01550500  1
  Pb  Pb10  1  0.92782800  0.84994700  0.51550500  1
  Pb  Pb11  1  0.15005300  0.07217200  0.98449500  1
  Pb  Pb12  1  0.43367100  0.10296600  0.35423000  1
  Pb  Pb13  1  0.89703400  0.56632900  0.14577000  1
  Pb  Pb14  1  0.56632900  0.89703400  0.64577000  1
  Pb  Pb15  1  0.10296600  0.43367100  0.85423000  1
  Pb  Pb16  1  0.70149600  0.22199800  0.61355400  1
  Pb  Pb17  1  0.77800200  0.29850400  0.88644600  1
  Pb  Pb18  1  0.29850400  0.77800200  0.38644600  1
  Pb  Pb19  1  0.22199800  0.70149600  0.11355400  1
  Pb  Pb20  1  0.98046900  0.24917400  0.31738000  1
  Pb  Pb21  1  0.75082600  0.01953100  0.18262000  1
  Pb  Pb22  1  0.01953100  0.75082600  0.68262000  1
  Pb  Pb23  1  0.24917400  0.98046900  0.81738000  1
  Pb  Pb24  1  0.12644500  0.59275500  0.28388800  1
  Pb  Pb25  1  0.40724500  0.87355500  0.21611200  1
  Pb  Pb26  1  0.87355500  0.40724500  0.71611200  1
  Pb  Pb27  1  0.59275500  0.12644500  0.78388800  1
  Br  Br0  1  0.19095100  0.47244000  0.41629800  1
  Br  Br1  1  0.52756000  0.80904900  0.08370200  1
  Br  Br2  1  0.80904900  0.52756000  0.58370200  1
  Br  Br3  1  0.47244000  0.19095100  0.91629800  1
  Br  Br4  1  0.54086300  0.45913700  0.25000000  1
  Br  Br5  1  0.45913700  0.54086300  0.75000000  1
  Br  Br6  1  0.50000000  0.00000000  0.50000000  1
  Br  Br7  1  0.00000000  0.50000000  0.00000000  1
  Br  Br8  1  0.88622200  0.96216800  0.34878000  1
  Br  Br9  1  0.03783200  0.11377800  0.15122000  1
  Br  Br10  1  0.11377800  0.03783200  0.65122000  1
  Br  Br11  1  0.96216800  0.88622200  0.84878000  1
  O  O0  1  0.52055700  0.61051700  0.45038600  1
  O  O1  1  0.38948300  0.47944300  0.04961400  1
  O  O2  1  0.47944300  0.38948300  0.54961400  1
  O  O3  1  0.61051700  0.52055700  0.95038600  1
  O  O4  1  0.83152700  0.13803100  0.51839700  1
  O  O5  1  0.86196900  0.16847300  0.98160300  1
  O  O6  1  0.16847300  0.86196900  0.48160300  1
  O  O7  1  0.13803100  0.83152700  0.01839700  1
  O  O8  1  0.58733800  0.79560600  0.32844000  1
  O  O9  1  0.20439400  0.41266200  0.17156000  1
  O  O10  1  0.41266200  0.20439400  0.67156000  1
  O  O11  1  0.79560600  0.58733800  0.82844000  1
  O  O12  1  0.21952800  0.06418300  0.37497200  1
  O  O13  1  0.93581700  0.78047200  0.12502800  1
  O  O14  1  0.78047200  0.93581700  0.62502800  1
  O  O15  1  0.06418300  0.21952800  0.87497200  1
  O  O16  1  0.86295800  0.34224200  0.41079000  1
  O  O17  1  0.65775800  0.13704200  0.08921000  1
  O  O18  1  0.13704200  0.65775800  0.58921000  1
  O  O19  1  0.34224200  0.86295800  0.91079000  1
  O  O20  1  0.87826700  0.58861100  0.30267700  1
  O  O21  1  0.41138900  0.12173300  0.19732300  1
  O  O22  1  0.12173300  0.41138900  0.69732300  1
  O  O23  1  0.58861100  0.87826700  0.80267700  1
  O  O24  1  0.69267300  0.76262800  0.22193100  1
  O  O25  1  0.23737200  0.30732700  0.27806900  1
  O  O26  1  0.30732700  0.23737200  0.77806900  1
  O  O27  1  0.76262800  0.69267300  0.72193100  1
loop_
_geom_bond_atom_site_label_1
_geom_bond_atom_site_label_2
_geom_bond_distance
_geom_bond_site_symmetry_2
B0 O20 1.382978 1_555
B0 O8 1.385766 1_555
B0 O24 1.394829 1_555
B1 O21 1.382978 1_555
B1 O9 1.385766 1_555
B1 O25 1.394829 1_555
B2 O22 1.382978 1_555
B2 O10 1.385766 1_555
B2 O26 1.394829 1_555
B3 O23 1.382978 1_555
B3 O11 1.385766 1_555
B3 O27 1.394829 1_555
Br0 Pb24 2.972559 1_555
Br0 Pb12 3.323707 1_555
Br1 Pb25 2.972559 1_555
Br1 Pb13 3.323707 1_555
Br2 Pb26 2.972559 1_555
Br2 Pb14 3.323707 1_555
Br3 Pb27 2.972559 1_555
Br3 Pb15 3.323707 1_555
Br4 Pb24 3.422768 1_555
Br4 Pb25 3.422768 1_555
Br5 Pb26 3.422768 1_555
Br5 Pb27 3.422768 1_555
Br6 Pb14 3.234077 1_545
Br6 Pb12 3.234077 1_555
Br7 Pb15 3.234077 1_554
Br7 Pb13 3.234077 1_455
Br8 Pb20 3.271488 1_565
Br8 Pb24 3.349798 1_655
Br9 Pb21 3.271488 1_455
Br9 Pb25 3.349798 1_545
Br10 Pb22 3.271488 1_545
Br10 Pb26 3.349798 1_455
Br11 Pb23 3.271488 1_655
Br11 Pb27 3.349798 1_565
O0 Pb0 2.284840 1_555
O0 Pb18 2.332086 1_555
O0 Pb4 2.414731 1_555
O0 Pb6 2.425340 1_555
O1 Pb1 2.284840 1_555
O1 Pb19 2.332086 1_555
O1 Pb5 2.414731 1_555
O1 Pb7 2.425340 1_554
O2 Pb2 2.284840 1_555
O2 Pb16 2.332086 1_555
O2 Pb6 2.414731 1_555
O2 Pb4 2.425340 1_555
O3 Pb3 2.284840 1_555
O3 Pb17 2.332086 1_555
O3 Pb7 2.414731 1_555
O3 Pb5 2.425340 1_556
O4 Pb16 2.269488 1_555
O4 Pb8 2.369403 1_655
O4 Pb10 2.371325 1_545
O4 Pb4 2.387198 1_555
O5 Pb17 2.269488 1_555
O5 Pb9 2.369403 1_546
O5 Pb11 2.371325 1_655
O5 Pb5 2.387198 1_556
O6 Pb18 2.269488 1_555
O6 Pb10 2.369403 1_455
O6 Pb8 2.371325 1_565
O6 Pb6 2.387198 1_555
O7 Pb19 2.269488 1_555
O7 Pb11 2.369403 1_564
O7 Pb9 2.371325 1_455
O7 Pb7 2.387198 1_554
O8 Pb0 2.548402 1_555
O8 Pb12 2.554815 1_565
O9 Pb1 2.548402 1_555
O9 Pb13 2.554815 1_455
O10 Pb2 2.548402 1_555
O10 Pb14 2.554815 1_545
O11 Pb3 2.548402 1_555
O11 Pb15 2.554815 1_655
O12 Pb12 2.237468 1_555
O12 Pb20 2.372710 1_455
O12 Pb18 2.379947 1_545
O12 Pb8 2.591277 1_555
O13 Pb13 2.237468 1_555
O13 Pb21 2.372710 1_565
O13 Pb19 2.379947 1_655
O13 Pb9 2.591277 1_555
O14 Pb14 2.237468 1_555
O14 Pb22 2.372710 1_655
O14 Pb16 2.379947 1_565
O14 Pb10 2.591277 1_555
O15 Pb15 2.237468 1_555
O15 Pb23 2.372710 1_545
O15 Pb17 2.379947 1_455
O15 Pb11 2.591277 1_555
O16 Pb20 2.228114 1_555
O16 Pb0 2.324113 1_555
O16 Pb8 2.443180 1_655
O16 Pb4 2.461649 1_555
O17 Pb21 2.228114 1_555
O17 Pb1 2.324113 1_555
O17 Pb9 2.443180 1_545
O17 Pb5 2.461649 1_555
O18 Pb22 2.228114 1_555
O18 Pb2 2.324113 1_555
O18 Pb10 2.443180 1_455
O18 Pb6 2.461649 1_555
O19 Pb23 2.228114 1_555
O19 Pb3 2.324113 1_555
O19 Pb11 2.443180 1_565
O19 Pb7 2.461649 1_555
O20 Pb24 2.359477 1_655
O20 Pb0 2.709354 1_555
O21 Pb25 2.359477 1_545
O21 Pb1 2.709354 1_555
O22 Pb26 2.359477 1_455
O22 Pb2 2.709354 1_555
O23 Pb27 2.359477 1_565
O23 Pb3 2.709354 1_555
O24 Pb25 2.326416 1_555
O24 Pb13 2.453913 1_555
O25 Pb24 2.326416 1_555
O25 Pb12 2.453913 1_555
O26 Pb27 2.326416 1_555
O26 Pb15 2.453913 1_555
O27 Pb26 2.326416 1_555
O27 Pb14 2.453913 1_555
