# generated using pymatgen
data_Ce4Sn25Pd12
_symmetry_space_group_name_H-M   'P 1'
_cell_length_a   10.73607190
_cell_length_b   10.73607190
_cell_length_c   10.73607190
_cell_angle_alpha   109.47122063
_cell_angle_beta   109.47122063
_cell_angle_gamma   109.47122063
_symmetry_Int_Tables_number   1
_chemical_formula_structural   Ce4Sn25Pd12
_chemical_formula_sum   'Ce4 Sn25 Pd12'
_cell_volume   952.60825996
_cell_formula_units_Z   1
loop_
 _symmetry_equiv_pos_site_id
 _symmetry_equiv_pos_as_xyz
  1  'x, y, z'
loop_
 _atom_site_type_symbol
 _atom_site_label
 _atom_site_symmetry_multiplicity
 _atom_site_fract_x
 _atom_site_fract_y
 _atom_site_fract_z
 _atom_site_occupancy
  Ce  Ce0  1  0.00000000  0.00000000  0.50000000  1
  Ce  Ce1  1  0.50000000  0.00000000  0.00000000  1
  Ce  Ce2  1  0.00000000  0.50000000  0.00000000  1
  Ce  Ce3  1  0.50000000  0.50000000  0.50000000  1
  Sn  Sn0  1  0.00000000  0.00000000  0.00000000  1
  Sn  Sn1  1  0.37288800  0.99458900  0.62170100  1
  Sn  Sn2  1  0.62711200  0.00541100  0.37829900  1
  Sn  Sn3  1  0.62711200  0.24881300  0.62170100  1
  Sn  Sn4  1  0.37288800  0.75118700  0.37829900  1
  Sn  Sn5  1  0.99458900  0.62170100  0.37288800  1
  Sn  Sn6  1  0.00541100  0.37829900  0.62711200  1
  Sn  Sn7  1  0.24881300  0.62170100  0.62711200  1
  Sn  Sn8  1  0.75118700  0.37829900  0.37288800  1
  Sn  Sn9  1  0.62170100  0.37288800  0.99458900  1
  Sn  Sn10  1  0.37829900  0.62711200  0.00541100  1
  Sn  Sn11  1  0.62170100  0.62711200  0.24881300  1
  Sn  Sn12  1  0.37829900  0.37288800  0.75118700  1
  Sn  Sn13  1  0.25049700  0.12699400  0.87649700  1
  Sn  Sn14  1  0.74950300  0.87300600  0.12350300  1
  Sn  Sn15  1  0.74950300  0.62599900  0.87649700  1
  Sn  Sn16  1  0.25049700  0.37400100  0.12350300  1
  Sn  Sn17  1  0.12699400  0.87649700  0.25049700  1
  Sn  Sn18  1  0.87300600  0.12350300  0.74950300  1
  Sn  Sn19  1  0.62599900  0.87649700  0.74950300  1
  Sn  Sn20  1  0.37400100  0.12350300  0.25049700  1
  Sn  Sn21  1  0.87649700  0.25049700  0.12699400  1
  Sn  Sn22  1  0.12350300  0.74950300  0.87300600  1
  Sn  Sn23  1  0.87649700  0.74950300  0.62599900  1
  Sn  Sn24  1  0.12350300  0.25049700  0.37400100  1
  Pd  Pd0  1  0.16723700  0.84769400  0.68045700  1
  Pd  Pd1  1  0.83276300  0.15230600  0.31954300  1
  Pd  Pd2  1  0.83276300  0.51322000  0.68045700  1
  Pd  Pd3  1  0.16723700  0.48678000  0.31954300  1
  Pd  Pd4  1  0.84769400  0.68045700  0.16723700  1
  Pd  Pd5  1  0.15230600  0.31954300  0.83276300  1
  Pd  Pd6  1  0.51322000  0.68045700  0.83276300  1
  Pd  Pd7  1  0.48678000  0.31954300  0.16723700  1
  Pd  Pd8  1  0.68045700  0.16723700  0.84769400  1
  Pd  Pd9  1  0.31954300  0.83276300  0.15230600  1
  Pd  Pd10  1  0.68045700  0.83276300  0.51322000  1
  Pd  Pd11  1  0.31954300  0.16723700  0.48678000  1
loop_
_geom_bond_atom_site_label_1
_geom_bond_atom_site_label_2
_geom_bond_distance
_geom_bond_site_symmetry_2
Ce0 Pd1 3.376569 1_455
Ce0 Pd11 3.376569 1_555
Ce0 Pd10 3.376569 1_445
Ce0 Pd4 3.376569 1_445
Ce0 Pd5 3.376569 1_555
Ce0 Pd0 3.376569 1_545
Ce0 Sn23 3.473389 1_445
Ce0 Sn24 3.473389 1_555
Ce0 Sn14 3.473397 1_445
Ce0 Sn13 3.473397 1_555
Ce0 Sn17 3.473397 1_545
Ce0 Sn18 3.473397 1_455
Ce0 Sn6 3.802087 1_555
Ce0 Sn1 3.802087 1_545
Ce0 Sn2 3.802087 1_455
Ce0 Sn11 3.802087 1_445
Ce0 Sn12 3.802087 1_555
Ce0 Sn5 3.802087 1_445
Ce1 Pd9 3.376569 1_545
Ce1 Pd7 3.376569 1_555
Ce1 Pd0 3.376569 1_544
Ce1 Pd6 3.376569 1_544
Ce1 Pd1 3.376569 1_555
Ce1 Pd8 3.376569 1_554
Ce1 Sn19 3.473389 1_544
Ce1 Sn20 3.473389 1_555
Ce1 Sn13 3.473397 1_554
Ce1 Sn21 3.473397 1_555
Ce1 Sn22 3.473397 1_544
Ce1 Sn14 3.473397 1_545
Ce1 Sn10 3.802087 1_545
Ce1 Sn9 3.802087 1_554
Ce1 Sn8 3.802087 1_555
Ce1 Sn2 3.802087 1_555
Ce1 Sn7 3.802087 1_544
Ce1 Sn1 3.802087 1_544
Ce2 Pd5 3.376569 1_554
Ce2 Pd3 3.376569 1_555
Ce2 Pd2 3.376569 1_454
Ce2 Pd9 3.376569 1_555
Ce2 Pd4 3.376569 1_455
Ce2 Pd8 3.376569 1_454
Ce2 Sn15 3.473389 1_454
Ce2 Sn16 3.473389 1_555
Ce2 Sn18 3.473397 1_454
Ce2 Sn21 3.473397 1_455
Ce2 Sn17 3.473397 1_555
Ce2 Sn22 3.473397 1_554
Ce2 Sn6 3.802087 1_554
Ce2 Sn4 3.802087 1_555
Ce2 Sn9 3.802087 1_454
Ce2 Sn10 3.802087 1_555
Ce2 Sn5 3.802087 1_455
Ce2 Sn3 3.802087 1_454
Ce3 Pd3 3.376569 1_555
Ce3 Pd2 3.376569 1_555
Ce3 Pd6 3.376569 1_555
Ce3 Pd7 3.376569 1_555
Ce3 Pd11 3.376569 1_555
Ce3 Pd10 3.376569 1_555
Ce3 Sn24 3.473400 1_555
Ce3 Sn19 3.473400 1_555
Ce3 Sn23 3.473400 1_555
Ce3 Sn16 3.473400 1_555
Ce3 Sn20 3.473400 1_555
Ce3 Sn15 3.473400 1_555
Ce3 Sn3 3.802087 1_555
Ce3 Sn7 3.802087 1_555
Ce3 Sn11 3.802087 1_555
Ce3 Sn4 3.802087 1_555
Ce3 Sn8 3.802087 1_555
Ce3 Sn12 3.802087 1_555
Sn0 Sn21 3.462318 1_455
Sn0 Sn14 3.462318 1_445
Sn0 Sn18 3.462318 1_454
Sn0 Sn22 3.462318 1_544
Sn0 Sn13 3.462318 1_554
Sn0 Sn17 3.462318 1_545
Sn0 Sn24 3.462326 1_555
Sn0 Sn20 3.462326 1_555
Sn0 Sn19 3.462326 1_444
Sn0 Sn16 3.462326 1_555
Sn0 Sn23 3.462326 1_444
Sn0 Sn15 3.462326 1_444
Pd0 Sn13 2.640402 1_565
Pd0 Sn1 2.651458 1_555
Pd0 Sn23 2.715708 1_455
Pd0 Sn22 2.715711 1_555
Pd0 Sn5 2.794012 1_455
Pd0 Sn7 2.794012 1_555
Pd1 Sn14 2.640402 1_545
Pd1 Sn2 2.651458 1_555
Pd1 Sn24 2.715708 1_655
Pd1 Sn21 2.715711 1_555
Pd1 Sn8 2.794012 1_555
Pd1 Sn6 2.794012 1_655
Pd2 Sn15 2.640398 1_555
Pd2 Sn3 2.651458 1_555
Pd2 Sn22 2.715711 1_655
Pd2 Sn23 2.715718 1_555
Pd2 Sn6 2.794012 1_655
Pd2 Sn8 2.794012 1_555
Pd3 Sn16 2.640398 1_555
Pd3 Sn4 2.651458 1_555
Pd3 Sn21 2.715711 1_455
Pd3 Sn24 2.715718 1_555
Pd3 Sn7 2.794012 1_555
Pd3 Sn5 2.794012 1_455
Pd4 Sn17 2.640402 1_655
Pd4 Sn5 2.651458 1_555
Pd4 Sn15 2.715708 1_554
Pd4 Sn14 2.715711 1_555
Pd4 Sn11 2.794012 1_555
Pd4 Sn9 2.794012 1_554
Pd5 Sn18 2.640402 1_455
Pd5 Sn6 2.651458 1_555
Pd5 Sn16 2.715708 1_556
Pd5 Sn13 2.715711 1_555
Pd5 Sn12 2.794012 1_555
Pd5 Sn10 2.794012 1_556
Pd6 Sn19 2.640398 1_555
Pd6 Sn7 2.651458 1_555
Pd6 Sn14 2.715711 1_556
Pd6 Sn15 2.715718 1_555
Pd6 Sn12 2.794012 1_555
Pd6 Sn10 2.794012 1_556
Pd7 Sn20 2.640398 1_555
Pd7 Sn8 2.651458 1_555
Pd7 Sn13 2.715711 1_554
Pd7 Sn16 2.715718 1_555
Pd7 Sn11 2.794012 1_555
Pd7 Sn9 2.794012 1_554
Pd8 Sn21 2.640402 1_556
Pd8 Sn9 2.651458 1_555
Pd8 Sn19 2.715708 1_545
Pd8 Sn18 2.715711 1_555
Pd8 Sn1 2.794012 1_545
Pd8 Sn3 2.794012 1_555
Pd9 Sn22 2.640402 1_554
Pd9 Sn10 2.651458 1_555
Pd9 Sn20 2.715708 1_565
Pd9 Sn17 2.715711 1_555
Pd9 Sn4 2.794012 1_555
Pd9 Sn2 2.794012 1_565
Pd10 Sn23 2.640398 1_555
Pd10 Sn11 2.651458 1_555
Pd10 Sn18 2.715711 1_565
Pd10 Sn19 2.715718 1_555
Pd10 Sn4 2.794012 1_555
Pd10 Sn2 2.794012 1_565
Pd11 Sn24 2.640398 1_555
Pd11 Sn12 2.651458 1_555
Pd11 Sn17 2.715711 1_545
Pd11 Sn20 2.715718 1_555
Pd11 Sn1 2.794012 1_545
Pd11 Sn3 2.794012 1_555
