# generated using pymatgen
data_Ba4MgC4(N4F)2
_symmetry_space_group_name_H-M   'P 1'
_cell_length_a   8.63993600
_cell_length_b   8.49184900
_cell_length_c   8.55688570
_cell_angle_alpha   70.93471868
_cell_angle_beta   90.00000000
_cell_angle_gamma   90.00000000
_symmetry_Int_Tables_number   1
_chemical_formula_structural   Ba4MgC4(N4F)2
_chemical_formula_sum   'Ba8 Mg2 C8 N16 F4'
_cell_volume   593.37314588
_cell_formula_units_Z   2
loop_
 _symmetry_equiv_pos_site_id
 _symmetry_equiv_pos_as_xyz
  1  'x, y, z'
loop_
 _atom_site_type_symbol
 _atom_site_label
 _atom_site_symmetry_multiplicity
 _atom_site_fract_x
 _atom_site_fract_y
 _atom_site_fract_z
 _atom_site_occupancy
  Ba  Ba0  1  0.16722700  0.21097900  0.41277300  1
  Ba  Ba1  1  0.66722700  0.78902100  0.08722700  1
  Ba  Ba2  1  0.83277300  0.78902100  0.58722700  1
  Ba  Ba3  1  0.33277300  0.21097900  0.91277300  1
  Ba  Ba4  1  0.67118800  0.24385100  0.25690600  1
  Ba  Ba5  1  0.17118800  0.75614900  0.24309400  1
  Ba  Ba6  1  0.32881200  0.75614900  0.74309400  1
  Ba  Ba7  1  0.82881200  0.24385100  0.75690600  1
  Mg  Mg0  1  0.00000000  0.50000000  0.00000000  1
  Mg  Mg1  1  0.50000000  0.50000000  0.50000000  1
  C  C0  1  0.85463800  0.50521300  0.35433000  1
  C  C1  1  0.35463800  0.49478700  0.14567000  1
  C  C2  1  0.14536200  0.49478700  0.64567000  1
  C  C3  1  0.64536200  0.50521300  0.85433000  1
  C  C4  1  0.94499900  0.07654200  0.15965900  1
  C  C5  1  0.44499900  0.92345800  0.34034100  1
  C  C6  1  0.05500100  0.92345800  0.84034100  1
  C  C7  1  0.55500100  0.07654200  0.65965900  1
  N  N0  1  0.95567300  0.49896900  0.25420200  1
  N  N1  1  0.45567300  0.50103100  0.24579800  1
  N  N2  1  0.04432700  0.50103100  0.74579800  1
  N  N3  1  0.54432700  0.49896900  0.75420200  1
  N  N4  1  0.25152800  0.48944100  0.04710100  1
  N  N5  1  0.75152800  0.51055900  0.45289900  1
  N  N6  1  0.74847200  0.51055900  0.95289900  1
  N  N7  1  0.24847200  0.48944100  0.54710100  1
  N  N8  1  0.99914900  0.21720600  0.08952200  1
  N  N9  1  0.49914900  0.78279400  0.41047800  1
  N  N10  1  0.00085100  0.78279400  0.91047800  1
  N  N11  1  0.50085100  0.21720600  0.58952200  1
  N  N12  1  0.38741500  0.06187300  0.26676200  1
  N  N13  1  0.88741500  0.93812700  0.23323800  1
  N  N14  1  0.61258500  0.93812700  0.73323800  1
  N  N15  1  0.11258500  0.06187300  0.76676200  1
  F  F0  1  0.86920000  0.12967900  0.49769400  1
  F  F1  1  0.36920000  0.87032100  0.00230600  1
  F  F2  1  0.13080000  0.87032100  0.50230600  1
  F  F3  1  0.63080000  0.12967900  0.99769400  1
loop_
_geom_bond_atom_site_label_1
_geom_bond_atom_site_label_2
_geom_bond_distance
_geom_bond_site_symmetry_2
Ba0 F0 2.703186 1_455
Ba0 F2 2.757993 1_545
Ba0 N12 2.795868 1_555
Ba0 N15 2.914726 1_555
Ba0 N0 2.999163 1_455
Ba0 N7 3.030045 1_555
Ba0 N8 3.109173 1_455
Ba0 C1 3.171043 1_555
Ba0 N11 3.263619 1_555
Ba1 F1 2.703186 1_555
Ba1 F3 2.757993 1_564
Ba1 N13 2.795868 1_555
Ba1 N14 2.914726 1_554
Ba1 N1 2.999163 1_555
Ba1 N6 3.030045 1_554
Ba1 N9 3.109173 1_555
Ba1 C0 3.171043 1_555
Ba1 N10 3.263619 1_654
Ba2 F2 2.703186 1_655
Ba2 F0 2.757993 1_565
Ba2 N14 2.795868 1_555
Ba2 N13 2.914726 1_555
Ba2 N2 2.999163 1_655
Ba2 N5 3.030045 1_555
Ba2 N10 3.109173 1_655
Ba2 C3 3.171043 1_555
Ba2 N9 3.263619 1_555
Ba3 F3 2.703186 1_555
Ba3 F1 2.757993 1_546
Ba3 N15 2.795868 1_555
Ba3 N12 2.914726 1_556
Ba3 N3 2.999163 1_555
Ba3 N4 3.030045 1_556
Ba3 N11 3.109173 1_555
Ba3 C2 3.171043 1_555
Ba3 N8 3.263619 1_456
Ba4 F0 2.609036 1_555
Ba4 F3 2.717788 1_554
Ba4 N1 2.847835 1_555
Ba4 N12 2.884656 1_555
Ba4 N6 2.914353 1_554
Ba5 F1 2.609036 1_555
Ba5 F2 2.717788 1_555
Ba5 N0 2.847835 1_455
Ba5 N13 2.884656 1_455
Ba5 N7 2.914353 1_555
Ba6 F2 2.609036 1_555
Ba6 F1 2.717788 1_556
Ba6 N3 2.847835 1_555
Ba6 N14 2.884656 1_555
Ba6 N4 2.914353 1_556
Ba7 F3 2.609036 1_555
Ba7 F0 2.717788 1_555
Ba7 N2 2.847835 1_655
Ba7 N15 2.884656 1_655
Ba7 N5 2.914353 1_555
Mg0 N0 2.205835 1_455
Mg0 N2 2.205835 1_554
Mg0 N6 2.206719 1_454
Mg0 N4 2.206719 1_555
Mg0 N10 2.269804 1_554
Mg0 N8 2.269804 1_455
Mg1 N1 2.205835 1_555
Mg1 N3 2.205835 1_555
Mg1 N5 2.206719 1_555
Mg1 N7 2.206719 1_555
Mg1 N11 2.269804 1_555
Mg1 N9 2.269804 1_555
C0 N0 1.236360 1_555
C0 N5 1.237785 1_555
C1 N1 1.236360 1_555
C1 N4 1.237785 1_555
C2 N2 1.236360 1_555
C2 N7 1.237785 1_555
C3 N3 1.236360 1_555
C3 N6 1.237785 1_555
C4 N8 1.239985 1_555
C4 N13 1.241787 1_545
C5 N9 1.239985 1_555
C5 N12 1.241787 1_565
C6 N10 1.239985 1_555
C6 N15 1.241787 1_565
C7 N11 1.239985 1_555
C7 N14 1.241787 1_545
