# generated using pymatgen
data_Sr2CrOsO6
_symmetry_space_group_name_H-M   'P 1'
_cell_length_a   5.60861189
_cell_length_b   5.60857653
_cell_length_c   9.71286004
_cell_angle_alpha   73.21870063
_cell_angle_beta   90.00013346
_cell_angle_gamma   120.00010843
_symmetry_Int_Tables_number   1
_chemical_formula_structural   Sr2CrOsO6
_chemical_formula_sum   'Sr4 Cr2 Os2 O12'
_cell_volume   249.45999781
_cell_formula_units_Z   2
loop_
 _symmetry_equiv_pos_site_id
 _symmetry_equiv_pos_as_xyz
  1  'x, y, z'
loop_
 _atom_site_type_symbol
 _atom_site_label
 _atom_site_symmetry_multiplicity
 _atom_site_fract_x
 _atom_site_fract_y
 _atom_site_fract_z
 _atom_site_occupancy
  Sr  Sr0  1  0.87603000  0.75203300  0.37202600  1
  Sr  Sr1  1  0.37391400  0.74786000  0.87822100  1
  Sr  Sr2  1  0.62397400  0.24797300  0.12797300  1
  Sr  Sr3  1  0.12608100  0.25213000  0.62179700  1
  Cr  Cr0  1  0.00145300  0.00292800  0.99560200  1
  Cr  Cr1  1  0.49853700  0.99705400  0.50445800  1
  Os  Os0  1  0.74998900  0.49998300  0.74999900  1
  Os  Os1  1  0.25000800  0.50001700  0.24996600  1
  O  O0  1  0.62312600  0.74910000  0.12503000  1
  O  O1  1  0.12184800  0.74803900  0.62584100  1
  O  O2  1  0.87688700  0.25089300  0.37496900  1
  O  O3  1  0.37820900  0.25199500  0.87414400  1
  O  O4  1  0.37401800  0.25090600  0.37496900  1
  O  O5  1  0.87376100  0.25200400  0.87414500  1
  O  O6  1  0.12596100  0.74911100  0.12502600  1
  O  O7  1  0.62621400  0.74802900  0.62583400  1
  O  O8  1  0.37402100  0.74801500  0.37502800  1
  O  O9  1  0.87375400  0.74751400  0.87421000  1
  O  O10  1  0.12597400  0.25195300  0.12498300  1
  O  O11  1  0.62624000  0.25246300  0.62577700  1
loop_
_geom_bond_atom_site_label_1
_geom_bond_atom_site_label_2
_geom_bond_distance
_geom_bond_site_symmetry_2
Cr0 O9 1.975993 1_445
Cr0 O3 1.976056 1_555
Cr0 O5 1.976093 1_455
Cr0 O6 2.013739 1_546
Cr0 O0 2.013770 1_446
Cr0 O10 2.013877 1_556
Cr1 O11 1.975402 1_565
Cr1 O1 1.975501 1_555
Cr1 O7 1.975519 1_555
Cr1 O2 2.014110 1_565
Cr1 O4 2.014185 1_565
Cr1 O8 2.014325 1_555
O0 Os1 1.975116 1_555
O0 Sr1 2.774936 1_554
O0 Sr0 2.786945 1_555
O0 Sr2 2.803986 1_565
O0 Sr2 2.804878 1_555
O1 Os0 1.967033 1_455
O1 Sr3 2.804301 1_565
O1 Sr3 2.804834 1_555
O1 Sr0 2.824508 1_455
O1 Sr1 2.829783 1_555
O2 Os1 1.975394 1_655
O2 Sr3 2.775044 1_655
O2 Sr2 2.786971 1_555
O2 Sr0 2.803888 1_545
O2 Sr0 2.804976 1_555
O3 Os0 1.966668 1_555
O3 Sr1 2.804287 1_545
O3 Sr1 2.804859 1_555
O3 Sr2 2.824480 1_556
O3 Sr3 2.829679 1_555
O4 Os1 1.975387 1_555
O4 Sr3 2.774957 1_555
O4 Sr2 2.786908 1_555
O4 Sr0 2.803887 1_445
O4 Sr0 2.804986 1_555
O5 Os0 1.966550 1_555
O5 Sr1 2.804339 1_545
O5 Sr1 2.804816 1_655
O5 Sr2 2.824452 1_556
O5 Sr3 2.829878 1_655
O6 Os1 1.975216 1_555
O6 Sr1 2.774885 1_554
O6 Sr0 2.786840 1_455
O6 Sr2 2.803937 1_565
O6 Sr2 2.804936 1_455
O7 Os0 1.966903 1_555
O7 Sr3 2.804378 1_665
O7 Sr3 2.804765 1_555
O7 Sr0 2.824438 1_555
O7 Sr1 2.830030 1_555
O8 Os1 1.975377 1_555
O8 Sr3 2.774327 1_555
O8 Sr2 2.787435 1_565
O8 Sr0 2.804458 1_455
O8 Sr0 2.804458 1_555
O9 Os0 1.966769 1_555
O9 Sr1 2.804512 1_655
O9 Sr1 2.804658 1_555
O9 Sr2 2.823956 1_556
O9 Sr3 2.830443 1_665
O10 Os1 1.975010 1_555
O10 Sr1 2.774350 1_554
O10 Sr0 2.787261 1_445
O10 Sr2 2.804400 1_555
O10 Sr2 2.804512 1_455
O11 Os0 1.966812 1_555
O11 Sr3 2.804538 1_555
O11 Sr3 2.804622 1_655
O11 Sr0 2.823968 1_555
O11 Sr1 2.830580 1_545
