# generated using pymatgen
data_LiTa2Te4Br10O
_symmetry_space_group_name_H-M   'P 1'
_cell_length_a   7.94518160
_cell_length_b   8.85216927
_cell_length_c   10.21205630
_cell_angle_alpha   88.01816435
_cell_angle_beta   94.38559353
_cell_angle_gamma   76.30511079
_symmetry_Int_Tables_number   1
_chemical_formula_structural   LiTa2Te4Br10O
_chemical_formula_sum   'Li1 Ta2 Te4 Br10 O1'
_cell_volume   694.74302005
_cell_formula_units_Z   1
loop_
 _symmetry_equiv_pos_site_id
 _symmetry_equiv_pos_as_xyz
  1  'x, y, z'
loop_
 _atom_site_type_symbol
 _atom_site_label
 _atom_site_symmetry_multiplicity
 _atom_site_fract_x
 _atom_site_fract_y
 _atom_site_fract_z
 _atom_site_occupancy
  Li  Li0  1  0.60037700  0.28948900  0.63859800  1
  Ta  Ta0  1  0.47491300  0.37482600  0.35142100  1
  Ta  Ta1  1  0.51265100  0.64802300  0.63295100  1
  Te  Te0  1  0.92287600  0.80232000  0.01150300  1
  Te  Te1  1  0.10260100  0.18054800  0.00247800  1
  Te  Te2  1  0.18937600  0.90082700  0.14774000  1
  Te  Te3  1  0.81729100  0.09129300  0.88347900  1
  Br  Br0  1  0.45826200  0.17225000  0.17246300  1
  Br  Br1  1  0.60398400  0.53183800  0.19939600  1
  Br  Br2  1  0.16946400  0.53203200  0.27545800  1
  Br  Br3  1  0.77379900  0.20119600  0.42993400  1
  Br  Br4  1  0.66775500  0.79027500  0.49118400  1
  Br  Br5  1  0.34016700  0.20881000  0.50659600  1
  Br  Br6  1  0.21622200  0.80334700  0.56595800  1
  Br  Br7  1  0.81865800  0.45845000  0.71828900  1
  Br  Br8  1  0.39554800  0.46968400  0.79155600  1
  Br  Br9  1  0.54551000  0.82430000  0.82556200  1
  O  O0  1  0.49888200  0.49906100  0.49917900  1
loop_
_geom_bond_atom_site_label_1
_geom_bond_atom_site_label_2
_geom_bond_distance
_geom_bond_site_symmetry_2
Li0 O0 2.247746 1_555
Li0 Te3 3.147651 1_555
Te0 Te3 2.746164 1_564
Te0 Te2 2.772540 1_655
Te1 Te2 2.754691 1_545
Te1 Te3 2.780784 1_454
Br0 Ta0 2.622039 1_555
Br0 Te1 3.185361 1_555
Br1 Ta0 2.482500 1_555
Br2 Ta0 2.542879 1_555
Br3 Ta0 2.557297 1_555
Br3 Li0 2.665406 1_555
Br4 Ta1 2.466128 1_555
Br5 Ta0 2.580769 1_555
Br5 Li0 2.634560 1_555
Br6 Ta1 2.461831 1_555
Br7 Li0 2.646435 1_555
Br7 Ta1 2.670138 1_555
Br8 Ta1 2.594298 1_555
Br8 Li0 2.639066 1_555
Br9 Ta1 2.588179 1_555
Br9 Te0 3.385325 1_556
O0 Ta0 1.921595 1_555
O0 Ta1 1.946023 1_555
