# generated using pymatgen
data_Pa2Rh2O5
_symmetry_space_group_name_H-M   'P 1'
_cell_length_a   4.03174700
_cell_length_b   4.03174700
_cell_length_c   6.88851100
_cell_angle_alpha   90.00000000
_cell_angle_beta   90.00000000
_cell_angle_gamma   90.00000000
_symmetry_Int_Tables_number   1
_chemical_formula_structural   Pa2Rh2O5
_chemical_formula_sum   'Pa2 Rh2 O5'
_cell_volume   111.97263521
_cell_formula_units_Z   1
loop_
 _symmetry_equiv_pos_site_id
 _symmetry_equiv_pos_as_xyz
  1  'x, y, z'
loop_
 _atom_site_type_symbol
 _atom_site_label
 _atom_site_symmetry_multiplicity
 _atom_site_fract_x
 _atom_site_fract_y
 _atom_site_fract_z
 _atom_site_occupancy
  Pa  Pa0  1  0.00000000  0.00000000  0.00000000  1
  Pa  Pa1  1  0.00000000  0.00000000  0.50000000  1
  Rh  Rh0  1  0.50000000  0.50000000  0.19137800  1
  Rh  Rh1  1  0.50000000  0.50000000  0.80862200  1
  O  O0  1  0.50000000  0.00000000  0.23918600  1
  O  O1  1  0.50000000  0.00000000  0.76081400  1
  O  O2  1  0.50000000  0.50000000  0.50000000  1
  O  O3  1  0.00000000  0.50000000  0.23918600  1
  O  O4  1  0.00000000  0.50000000  0.76081400  1
loop_
_geom_bond_atom_site_label_1
_geom_bond_atom_site_label_2
_geom_bond_distance
_geom_bond_site_symmetry_2
O0 Rh0 2.042597 1_545
O0 Rh0 2.042597 1_555
O0 Pa0 2.603545 1_655
O0 Pa0 2.603545 1_555
O0 Pa1 2.700294 1_655
O0 Pa1 2.700294 1_555
O1 Rh1 2.042597 1_545
O1 Rh1 2.042597 1_555
O1 Pa0 2.603545 1_556
O1 Pa0 2.603545 1_656
O1 Pa1 2.700294 1_655
O1 Pa1 2.700294 1_555
O2 Rh1 2.125946 1_555
O2 Rh0 2.125946 1_555
O2 Pa1 2.850876 1_655
O2 Pa1 2.850876 1_665
O2 Pa1 2.850876 1_555
O2 Pa1 2.850876 1_565
O3 Rh0 2.042597 1_455
O3 Rh0 2.042597 1_555
O3 Pa0 2.603545 1_565
O3 Pa0 2.603545 1_555
O3 Pa1 2.700294 1_565
O3 Pa1 2.700294 1_555
O4 Rh1 2.042597 1_455
O4 Rh1 2.042597 1_555
O4 Pa0 2.603545 1_556
O4 Pa0 2.603545 1_566
O4 Pa1 2.700294 1_565
O4 Pa1 2.700294 1_555
