# generated using pymatgen
data_Mg2Nb2FeO8
_symmetry_space_group_name_H-M   'P 1'
_cell_length_a   5.21234893
_cell_length_b   6.04708014
_cell_length_c   10.10683929
_cell_angle_alpha   107.40516010
_cell_angle_beta   89.13813547
_cell_angle_gamma   90.00683256
_symmetry_Int_Tables_number   1
_chemical_formula_structural   Mg2Nb2FeO8
_chemical_formula_sum   'Mg4 Nb4 Fe2 O16'
_cell_volume   303.93895085
_cell_formula_units_Z   2
loop_
 _symmetry_equiv_pos_site_id
 _symmetry_equiv_pos_as_xyz
  1  'x, y, z'
loop_
 _atom_site_type_symbol
 _atom_site_label
 _atom_site_symmetry_multiplicity
 _atom_site_fract_x
 _atom_site_fract_y
 _atom_site_fract_z
 _atom_site_occupancy
  Mg  Mg0  1  0.75458300  0.41198200  0.54123400  1
  Mg  Mg1  1  0.74870800  0.86998300  0.45746500  1
  Mg  Mg2  1  0.24877600  0.58800100  0.45711000  1
  Mg  Mg3  1  0.25467400  0.13027100  0.54124000  1
  Nb  Nb0  1  0.74692900  0.28619100  0.23210100  1
  Nb  Nb1  1  0.75622800  0.05353200  0.76636600  1
  Nb  Nb2  1  0.25625000  0.71408500  0.76623400  1
  Nb  Nb3  1  0.24694800  0.94694100  0.23226200  1
  Fe  Fe0  1  0.75129700  0.65446000  0.99935800  1
  Fe  Fe1  1  0.25113000  0.34616400  0.99933600  1
  O  O0  1  0.08494300  0.18132600  0.14223800  1
  O  O1  1  0.41835900  0.03803900  0.85613400  1
  O  O2  1  0.91831800  0.81936600  0.85610300  1
  O  O3  1  0.58494800  0.96201500  0.14226700  1
  O  O4  1  0.59579500  0.43547700  0.11854100  1
  O  O5  1  0.90667600  0.31709400  0.88009600  1
  O  O6  1  0.40664700  0.56446000  0.88007400  1
  O  O7  1  0.09560400  0.68417900  0.11864800  1
  O  O8  1  0.46078600  0.29304100  0.37532300  1
  O  O9  1  0.04247800  0.91734500  0.62319500  1
  O  O10  1  0.38776200  0.83650200  0.38172700  1
  O  O11  1  0.11552000  0.45414400  0.61666400  1
  O  O12  1  0.61554700  0.16367200  0.61672600  1
  O  O13  1  0.88769100  0.54609600  0.38173100  1
  O  O14  1  0.96081300  0.08309000  0.37537800  1
  O  O15  1  0.54244800  0.70697700  0.62310200  1
loop_
_geom_bond_atom_site_label_1
_geom_bond_atom_site_label_2
_geom_bond_distance
_geom_bond_site_symmetry_2
Mg0 O12 2.007610 1_555
Mg0 O11 2.027892 1_655
Mg0 O15 2.044339 1_555
Mg0 O13 2.118071 1_555
Mg0 O8 2.242689 1_555
Mg0 O14 2.423366 1_555
Mg1 O13 2.008349 1_555
Mg1 O10 2.029047 1_555
Mg1 O14 2.045224 1_565
Mg1 O12 2.117352 1_565
Mg1 O9 2.241071 1_655
Mg1 O15 2.421316 1_555
Mg2 O10 2.007854 1_555
Mg2 O13 2.028411 1_455
Mg2 O8 2.043721 1_555
Mg2 O11 2.117815 1_555
Mg2 O15 2.242800 1_555
Mg2 O9 2.426215 1_555
Mg3 O11 2.008332 1_555
Mg3 O12 2.027779 1_555
Mg3 O9 2.043874 1_545
Mg3 O10 2.118813 1_545
Mg3 O14 2.242466 1_455
Mg3 O8 2.422389 1_555
Nb0 O4 1.843918 1_555
Nb0 O13 1.976520 1_555
Nb0 O0 1.984610 1_655
Nb0 O8 2.054442 1_555
Nb0 O3 2.082765 1_545
Nb0 O14 2.441529 1_555
Nb1 O5 1.845849 1_555
Nb1 O12 1.976030 1_555
Nb1 O1 1.983962 1_555
Nb1 O9 2.054418 1_645
Nb1 O2 2.081621 1_545
Nb1 O15 2.441841 1_545
Nb2 O6 1.845827 1_555
Nb2 O11 1.976257 1_555
Nb2 O2 1.984716 1_455
Nb2 O15 2.053726 1_555
Nb2 O1 2.082059 1_565
Nb2 O9 2.440107 1_555
Nb3 O7 1.844177 1_555
Nb3 O10 1.975778 1_555
Nb3 O3 1.985150 1_555
Nb3 O14 2.053626 1_465
Nb3 O0 2.084385 1_565
Nb3 O8 2.439405 1_565
Fe0 O7 2.154537 1_656
Fe0 O6 2.156201 1_555
Fe0 O3 2.156973 1_556
Fe0 O2 2.161994 1_555
Fe0 O5 2.184180 1_555
Fe0 O4 2.187716 1_556
Fe1 O5 2.155239 1_455
Fe1 O4 2.155521 1_556
Fe1 O0 2.157158 1_556
Fe1 O1 2.162256 1_555
Fe1 O6 2.185127 1_555
Fe1 O7 2.187611 1_556
