# generated using pymatgen
data_YTl(PSe3)2
_symmetry_space_group_name_H-M   'P 1'
_cell_length_a   7.66290600
_cell_length_b   6.87121400
_cell_length_c   10.36290158
_cell_angle_alpha   88.87302039
_cell_angle_beta   90.00000000
_cell_angle_gamma   90.00000000
_symmetry_Int_Tables_number   1
_chemical_formula_structural   YTl(PSe3)2
_chemical_formula_sum   'Y2 Tl2 P4 Se12'
_cell_volume   545.53714815
_cell_formula_units_Z   2
loop_
 _symmetry_equiv_pos_site_id
 _symmetry_equiv_pos_as_xyz
  1  'x, y, z'
loop_
 _atom_site_type_symbol
 _atom_site_label
 _atom_site_symmetry_multiplicity
 _atom_site_fract_x
 _atom_site_fract_y
 _atom_site_fract_z
 _atom_site_occupancy
  Y  Y0  1  0.49795300  0.28453500  0.50197200  1
  Y  Y1  1  0.99795300  0.71546500  0.49802800  1
  Tl  Tl0  1  0.22024200  0.81631300  0.99231400  1
  Tl  Tl1  1  0.72024200  0.18368700  0.00768600  1
  P  P0  1  0.00918000  0.18756000  0.67551600  1
  P  P1  1  0.50918000  0.81244000  0.32448400  1
  P  P2  1  0.22807800  0.31032000  0.79584200  1
  P  P3  1  0.72807800  0.68968000  0.20415800  1
  Se  Se0  1  0.80951100  0.42450100  0.66982800  1
  Se  Se1  1  0.30951100  0.57549900  0.33017200  1
  Se  Se2  1  0.30859700  0.56835700  0.67198800  1
  Se  Se3  1  0.80859700  0.43164300  0.32801200  1
  Se  Se4  1  0.13317600  0.12944200  0.48398100  1
  Se  Se5  1  0.63317600  0.87055800  0.51601900  1
  Se  Se6  1  0.43875800  0.09995500  0.76723600  1
  Se  Se7  1  0.93875800  0.90004500  0.23276400  1
  Se  Se8  1  0.41252600  0.09131200  0.24427900  1
  Se  Se9  1  0.91252600  0.90868800  0.75572100  1
  Se  Se10  1  0.13608900  0.34719300  0.99022700  1
  Se  Se11  1  0.63608900  0.65280700  0.00977300  1
loop_
_geom_bond_atom_site_label_1
_geom_bond_atom_site_label_2
_geom_bond_distance
_geom_bond_site_symmetry_2
P0 Se9 2.201935 1_445
P0 Se0 2.234134 1_455
P0 Se4 2.243466 1_555
P0 P2 2.263043 1_555
P1 Se8 2.201935 1_565
P1 Se1 2.234134 1_555
P1 Se5 2.243466 1_555
P1 P3 2.263043 1_555
P2 Se10 2.153819 1_555
P2 Se6 2.190993 1_555
P2 Se2 2.254362 1_555
P3 Se11 2.153819 1_555
P3 Se7 2.190993 1_555
P3 Se3 2.254362 1_555
Se0 Y1 3.018592 1_555
Se0 Y0 3.117112 1_555
Se1 Y0 3.018592 1_555
Se1 Y1 3.117112 1_455
Se2 Y0 3.024573 1_555
Se2 Y1 3.141078 1_455
Se3 Y1 3.024573 1_555
Se3 Y0 3.141078 1_555
Se4 Y0 2.998612 1_555
Se4 Y1 3.028190 1_445
Se5 Y1 2.998612 1_555
Se5 Y0 3.028190 1_565
Se6 Y0 3.038692 1_555
Se6 Tl1 3.353932 1_556
Se6 Tl0 3.444396 1_545
Se7 Y1 3.038692 1_555
Se7 Tl0 3.353932 1_654
Se7 Tl1 3.444396 1_565
Se8 Y0 3.076037 1_555
Se8 Tl1 3.451535 1_555
Se9 Y1 3.076037 1_555
Se9 Tl0 3.451535 1_655
Se10 Tl0 3.287782 1_555
Se10 Tl1 3.382507 1_456
Se11 Tl1 3.287782 1_555
Se11 Tl0 3.382507 1_554
