# generated using pymatgen
data_Mg14AlFe
_symmetry_space_group_name_H-M   'P 1'
_cell_length_a   6.26196767
_cell_length_b   6.26196717
_cell_length_c   9.85483034
_cell_angle_alpha   90.00000000
_cell_angle_beta   90.00000000
_cell_angle_gamma   120.00000257
_symmetry_Int_Tables_number   1
_chemical_formula_structural   Mg14AlFe
_chemical_formula_sum   'Mg14 Al1 Fe1'
_cell_volume   334.65813008
_cell_formula_units_Z   1
loop_
 _symmetry_equiv_pos_site_id
 _symmetry_equiv_pos_as_xyz
  1  'x, y, z'
loop_
 _atom_site_type_symbol
 _atom_site_label
 _atom_site_symmetry_multiplicity
 _atom_site_fract_x
 _atom_site_fract_y
 _atom_site_fract_z
 _atom_site_occupancy
  Mg  Mg0  1  0.16809620  0.83404760  0.12500000  1
  Mg  Mg1  1  0.16475098  0.83237499  0.62500000  1
  Mg  Mg2  1  0.66595240  0.33190380  0.12500000  1
  Mg  Mg3  1  0.66762501  0.33524902  0.62500000  1
  Mg  Mg4  1  0.66595240  0.83404760  0.12500000  1
  Mg  Mg5  1  0.66762501  0.83237499  0.62500000  1
  Mg  Mg6  1  0.32427707  0.17572293  0.38517971  1
  Mg  Mg7  1  0.32427707  0.17572293  0.86482029  1
  Mg  Mg8  1  0.32427707  0.64855514  0.38517971  1
  Mg  Mg9  1  0.32427707  0.64855514  0.86482029  1
  Mg  Mg10  1  0.85144486  0.17572293  0.38517971  1
  Mg  Mg11  1  0.85144486  0.17572293  0.86482029  1
  Mg  Mg12  1  0.83333300  0.66666700  0.37275454  1
  Mg  Mg13  1  0.83333300  0.66666700  0.87724546  1
  Al  Al0  1  0.16666700  0.33333300  0.12500000  1
  Fe  Fe0  1  0.16666700  0.33333300  0.62500000  1
loop_
_geom_bond_atom_site_label_1
_geom_bond_atom_site_label_2
_geom_bond_distance
_geom_bond_site_symmetry_2
Mg0 Mg13 3.042546 1_454
Mg0 Mg12 3.042546 1_455
Mg0 Mg2 3.117559 1_565
Mg0 Mg4 3.117559 1_555
Mg0 Mg2 3.144408 1_455
Mg0 Mg4 3.144408 1_455
Mg0 Mg9 3.164791 1_554
Mg0 Mg8 3.164791 1_555
Mg0 Mg7 3.164798 1_564
Mg0 Mg6 3.164798 1_565
Mg1 Mg8 3.009706 1_555
Mg1 Mg9 3.009706 1_555
Mg1 Mg6 3.009713 1_565
Mg1 Mg7 3.009713 1_565
Mg1 Mg12 3.067511 1_455
Mg1 Mg13 3.067511 1_455
Mg1 Mg3 3.112987 1_455
Mg1 Mg5 3.112987 1_455
Mg1 Mg3 3.148981 1_565
Mg1 Mg5 3.148981 1_555
Mg2 Mg4 3.117559 1_545
Mg2 Mg4 3.144408 1_555
Mg2 Mg7 3.164798 1_554
Mg2 Mg6 3.164798 1_555
Mg3 Mg6 3.009713 1_555
Mg3 Mg7 3.009713 1_555
Mg3 Mg5 3.112987 1_555
Mg3 Mg5 3.148981 1_545
Mg4 Mg9 3.164797 1_554
Mg4 Mg8 3.164797 1_555
Mg5 Mg8 3.009713 1_555
Mg5 Mg9 3.009713 1_555
Mg6 Mg8 2.960860 1_555
Mg6 Mg8 3.301107 1_545
Mg7 Mg9 2.960860 1_555
Mg7 Mg9 3.301107 1_545
Mg10 Mg8 2.960860 1_655
Mg10 Mg6 2.960860 1_655
Mg10 Mg3 3.009706 1_555
Mg10 Mg5 3.009713 1_545
Mg10 Mg12 3.134916 1_545
Mg10 Mg12 3.134916 1_555
Mg10 Mg2 3.164791 1_555
Mg10 Mg4 3.164797 1_545
Mg10 Mg8 3.301107 1_545
Mg10 Mg6 3.301108 1_555
Mg11 Mg9 2.960860 1_655
Mg11 Mg7 2.960860 1_655
Mg11 Mg3 3.009706 1_555
Mg11 Mg5 3.009713 1_545
Mg11 Mg13 3.134916 1_545
Mg11 Mg13 3.134916 1_555
Mg11 Mg2 3.164791 1_556
Mg11 Mg4 3.164797 1_546
Mg11 Mg9 3.301107 1_545
Mg11 Mg7 3.301108 1_555
Mg12 Mg4 3.042540 1_555
Mg12 Mg2 3.042546 1_555
Mg12 Mg5 3.067505 1_555
Mg12 Mg3 3.067511 1_555
Mg12 Mg6 3.134916 1_665
Mg12 Mg6 3.134916 1_555
Mg12 Mg8 3.134916 1_655
Mg12 Mg8 3.134916 1_555
Mg13 Mg4 3.042540 1_556
Mg13 Mg2 3.042546 1_556
Mg13 Mg5 3.067505 1_555
Mg13 Mg3 3.067511 1_555
Mg13 Mg7 3.134916 1_665
Mg13 Mg7 3.134916 1_555
Mg13 Mg9 3.134916 1_655
Mg13 Mg9 3.134916 1_555
Al0 Mg7 3.081629 1_554
Al0 Mg6 3.081629 1_555
Al0 Mg8 3.081635 1_555
Al0 Mg9 3.081635 1_554
Al0 Mg11 3.081635 1_454
Al0 Mg10 3.081635 1_455
Al0 Mg0 3.130993 1_555
Al0 Mg0 3.130993 1_545
Al0 Mg4 3.130993 1_555
Al0 Mg4 3.130993 1_445
Al0 Mg2 3.130993 1_555
Al0 Mg2 3.130993 1_455
Fe0 Mg7 2.916815 1_555
Fe0 Mg6 2.916815 1_555
Fe0 Mg8 2.916821 1_555
Fe0 Mg9 2.916821 1_555
Fe0 Mg10 2.916821 1_455
Fe0 Mg11 2.916821 1_455
Fe0 Mg1 3.131001 1_545
Fe0 Mg1 3.131001 1_555
Fe0 Mg5 3.131001 1_445
Fe0 Mg5 3.131001 1_555
Fe0 Mg3 3.131001 1_455
Fe0 Mg3 3.131001 1_555
