# generated using pymatgen
data_U2Si7Ru12
_symmetry_space_group_name_H-M   'P 1'
_cell_length_a   4.01307600
_cell_length_b   11.28264500
_cell_length_c   26.43350100
_cell_angle_alpha   90.00000000
_cell_angle_beta   90.00000000
_cell_angle_gamma   90.00000000
_symmetry_Int_Tables_number   1
_chemical_formula_structural   U2Si7Ru12
_chemical_formula_sum   'U8 Si28 Ru48'
_cell_volume   1196.85901529
_cell_formula_units_Z   4
loop_
 _symmetry_equiv_pos_site_id
 _symmetry_equiv_pos_as_xyz
  1  'x, y, z'
loop_
 _atom_site_type_symbol
 _atom_site_label
 _atom_site_symmetry_multiplicity
 _atom_site_fract_x
 _atom_site_fract_y
 _atom_site_fract_z
 _atom_site_occupancy
  U  U0  1  0.25000000  0.79359300  0.21214300  1
  U  U1  1  0.75000000  0.20640700  0.78785700  1
  U  U2  1  0.75000000  0.70640700  0.71214300  1
  U  U3  1  0.25000000  0.29359200  0.28785700  1
  U  U4  1  0.25000000  0.83583800  0.43557500  1
  U  U5  1  0.75000000  0.16416200  0.56442500  1
  U  U6  1  0.75000000  0.66416200  0.93557500  1
  U  U7  1  0.25000000  0.33583800  0.06442500  1
  Si  Si0  1  0.25000000  0.06628800  0.13287100  1
  Si  Si1  1  0.75000000  0.93371200  0.86712900  1
  Si  Si2  1  0.75000000  0.43371200  0.63287100  1
  Si  Si3  1  0.25000000  0.56628800  0.36712900  1
  Si  Si4  1  0.25000000  0.82648400  0.79069900  1
  Si  Si5  1  0.75000000  0.17351600  0.20930100  1
  Si  Si6  1  0.75000000  0.67351600  0.29069900  1
  Si  Si7  1  0.25000000  0.32648400  0.70930100  1
  Si  Si8  1  0.25000000  0.73795600  0.63127000  1
  Si  Si9  1  0.75000000  0.26204400  0.36873000  1
  Si  Si10  1  0.75000000  0.76204400  0.13127000  1
  Si  Si11  1  0.25000000  0.23795600  0.86873000  1
  Si  Si12  1  0.25000000  0.53260500  0.56531600  1
  Si  Si13  1  0.75000000  0.46739500  0.43468400  1
  Si  Si14  1  0.75000000  0.96739500  0.06531600  1
  Si  Si15  1  0.25000000  0.03260500  0.93468400  1
  Si  Si16  1  0.25000000  0.81638900  0.99879500  1
  Si  Si17  1  0.75000000  0.18361100  0.00120500  1
  Si  Si18  1  0.75000000  0.68361100  0.49879500  1
  Si  Si19  1  0.25000000  0.31638900  0.50120500  1
  Si  Si20  1  0.25000000  0.95517800  0.56018900  1
  Si  Si21  1  0.75000000  0.04482200  0.43981100  1
  Si  Si22  1  0.75000000  0.54482200  0.06018900  1
  Si  Si23  1  0.25000000  0.45517800  0.93981100  1
  Si  Si24  1  0.25000000  0.98481100  0.31635000  1
  Si  Si25  1  0.75000000  0.01518900  0.68365000  1
  Si  Si26  1  0.75000000  0.51518900  0.81635000  1
  Si  Si27  1  0.25000000  0.48481100  0.18365000  1
  Ru  Ru0  1  0.25000000  0.53563200  0.66566800  1
  Ru  Ru1  1  0.75000000  0.46436800  0.33433200  1
  Ru  Ru2  1  0.75000000  0.96436800  0.16566800  1
  Ru  Ru3  1  0.25000000  0.03563200  0.83433200  1
  Ru  Ru4  1  0.25000000  0.75246100  0.54197800  1
  Ru  Ru5  1  0.75000000  0.24753900  0.45802200  1
  Ru  Ru6  1  0.75000000  0.74753900  0.04197800  1
  Ru  Ru7  1  0.25000000  0.25246100  0.95802200  1
  Ru  Ru8  1  0.25000000  0.58013900  0.86879200  1
  Ru  Ru9  1  0.75000000  0.41986100  0.13120800  1
  Ru  Ru10  1  0.75000000  0.91986100  0.36879200  1
  Ru  Ru11  1  0.25000000  0.08013900  0.63120800  1
  Ru  Ru12  1  0.25000000  0.59247800  0.00750600  1
  Ru  Ru13  1  0.75000000  0.40752200  0.99249400  1
  Ru  Ru14  1  0.75000000  0.90752200  0.50750600  1
  Ru  Ru15  1  0.25000000  0.09247800  0.49249400  1
  Ru  Ru16  1  0.25000000  0.88098900  0.69609500  1
  Ru  Ru17  1  0.75000000  0.11901100  0.30390500  1
  Ru  Ru18  1  0.75000000  0.61901100  0.19609500  1
  Ru  Ru19  1  0.25000000  0.38098900  0.80390500  1
  Ru  Ru20  1  0.25000000  0.77005500  0.32849500  1
  Ru  Ru21  1  0.75000000  0.22994500  0.67150500  1
  Ru  Ru22  1  0.75000000  0.72994500  0.82849500  1
  Ru  Ru23  1  0.25000000  0.27005500  0.17150500  1
  Ru  Ru24  1  0.25000000  0.55477400  0.27023800  1
  Ru  Ru25  1  0.75000000  0.44522600  0.72976200  1
  Ru  Ru26  1  0.75000000  0.94522600  0.77023800  1
  Ru  Ru27  1  0.25000000  0.05477400  0.22976200  1
  Ru  Ru28  1  0.25000000  0.60857900  0.76480800  1
  Ru  Ru29  1  0.75000000  0.39142100  0.23519200  1
  Ru  Ru30  1  0.75000000  0.89142100  0.26480800  1
  Ru  Ru31  1  0.25000000  0.10857900  0.73519200  1
  Ru  Ru32  1  0.25000000  0.62006500  0.11222600  1
  Ru  Ru33  1  0.75000000  0.37993500  0.88777400  1
  Ru  Ru34  1  0.75000000  0.87993500  0.61222600  1
  Ru  Ru35  1  0.25000000  0.12006500  0.38777400  1
  Ru  Ru36  1  0.25000000  0.06967100  0.03236900  1
  Ru  Ru37  1  0.75000000  0.93032900  0.96763100  1
  Ru  Ru38  1  0.75000000  0.43032900  0.53236900  1
  Ru  Ru39  1  0.25000000  0.56967100  0.46763100  1
  Ru  Ru40  1  0.25000000  0.81944800  0.89719700  1
  Ru  Ru41  1  0.75000000  0.18055200  0.10280300  1
  Ru  Ru42  1  0.75000000  0.68055200  0.39719700  1
  Ru  Ru43  1  0.25000000  0.31944800  0.60280300  1
  Ru  Ru44  1  0.25000000  0.86814400  0.09656400  1
  Ru  Ru45  1  0.75000000  0.13185600  0.90343600  1
  Ru  Ru46  1  0.75000000  0.63185600  0.59656400  1
  Ru  Ru47  1  0.25000000  0.36814400  0.40343600  1
loop_
_geom_bond_atom_site_label_1
_geom_bond_atom_site_label_2
_geom_bond_distance
_geom_bond_site_symmetry_2
Si4 U2 3.189598 1_455
Si4 U2 3.189598 1_555
Si5 U3 3.189593 1_555
Si5 U3 3.189593 1_655
Si6 U0 3.189598 1_555
Si6 U0 3.189598 1_655
Si7 U1 3.189598 1_455
Si7 U1 3.189598 1_555
Si8 U2 2.953456 1_455
Si8 U2 2.953456 1_555
Si9 U3 2.953455 1_655
Si9 U3 2.953455 1_555
Si10 U0 2.953456 1_555
Si10 U0 2.953456 1_655
Si11 U1 2.953456 1_555
Si11 U1 2.953456 1_455
Si16 U6 3.125499 1_555
Si16 U6 3.125499 1_455
Si17 U7 3.125499 1_655
Si17 U7 3.125499 1_555
Si18 U4 3.125499 1_555
Si18 U4 3.125499 1_655
Si19 U5 3.125499 1_455
Si19 U5 3.125499 1_555
Si20 U5 3.098127 1_465
Si20 U5 3.098127 1_565
Si21 U4 3.098127 1_645
Si21 U4 3.098127 1_545
Si22 U7 3.098127 1_555
Si22 U7 3.098127 1_655
Si23 U6 3.098127 1_555
Si23 U6 3.098127 1_455
Ru0 Si8 2.457173 1_555
Ru0 Si2 2.469840 1_555
Ru0 Si2 2.469840 1_455
Ru0 Si7 2.626529 1_555
Ru0 Si12 2.652875 1_555
Ru0 Ru28 2.746820 1_555
Ru0 Ru25 2.817276 1_555
Ru0 Ru25 2.817276 1_455
Ru0 Ru46 2.922592 1_455
Ru0 Ru46 2.922592 1_555
Ru0 Ru43 2.951394 1_555
Ru0 U2 3.041042 1_455
Ru0 U2 3.041042 1_555
Ru1 Si9 2.457173 1_555
Ru1 Si3 2.469840 1_555
Ru1 Si3 2.469840 1_655
Ru1 Si6 2.626529 1_555
Ru1 Si13 2.652875 1_555
Ru1 Ru29 2.746820 1_555
Ru1 Ru24 2.817276 1_655
Ru1 Ru24 2.817276 1_555
Ru1 Ru47 2.922592 1_655
Ru1 Ru47 2.922592 1_555
Ru1 Ru42 2.951394 1_555
Ru1 U3 3.041049 1_555
Ru1 U3 3.041049 1_655
Ru2 Si10 2.457173 1_555
Ru2 Si0 2.469840 1_565
Ru2 Si0 2.469840 1_665
Ru2 Si5 2.626529 1_565
Ru2 Si14 2.652875 1_555
Ru2 Ru30 2.746820 1_555
Ru2 Ru27 2.817276 1_665
Ru2 Ru27 2.817276 1_565
Ru2 Ru44 2.922592 1_555
Ru2 Ru44 2.922592 1_655
Ru2 Ru41 2.951394 1_565
Ru2 U0 3.041042 1_655
Ru2 U0 3.041042 1_555
Ru3 Si11 2.457173 1_555
Ru3 Si1 2.469840 1_545
Ru3 Si1 2.469840 1_445
Ru3 Si4 2.626529 1_545
Ru3 Si15 2.652875 1_555
Ru3 Ru31 2.746820 1_555
Ru3 Ru45 2.922592 1_555
Ru3 Ru45 2.922592 1_455
Ru3 Ru40 2.951394 1_545
Ru3 U1 3.041042 1_455
Ru3 U1 3.041042 1_555
Ru4 Si20 2.337293 1_555
Ru4 Si8 2.365967 1_555
Ru4 Si18 2.435693 1_455
Ru4 Si18 2.435693 1_555
Ru4 Si12 2.556117 1_555
Ru4 U4 2.965751 1_555
Ru5 Si21 2.337293 1_555
Ru5 Si9 2.365967 1_555
Ru5 Si19 2.435693 1_655
Ru5 Si19 2.435693 1_555
Ru5 Si13 2.556117 1_555
Ru5 U5 2.965751 1_555
Ru6 Si22 2.337293 1_555
Ru6 Si10 2.365967 1_555
Ru6 Si16 2.435693 1_554
Ru6 Si16 2.435693 1_654
Ru6 Si14 2.556117 1_555
Ru6 U6 2.965751 1_554
Ru7 Si23 2.337293 1_555
Ru7 Si11 2.365967 1_555
Ru7 Si17 2.435693 1_456
Ru7 Si17 2.435693 1_556
Ru7 Si15 2.556117 1_555
Ru7 U7 2.965751 1_556
Ru8 Si23 2.347760 1_555
Ru8 Si26 2.546532 1_555
Ru8 Si26 2.546532 1_455
Ru8 U6 2.835704 1_555
Ru8 U6 2.835704 1_455
Ru9 Si22 2.347760 1_555
Ru9 Si27 2.546532 1_655
Ru9 Si27 2.546532 1_555
Ru9 U7 2.835704 1_555
Ru9 U7 2.835704 1_655
Ru10 Si21 2.347760 1_565
Ru10 Si24 2.546532 1_655
Ru10 Si24 2.546532 1_555
Ru10 U4 2.835704 1_555
Ru10 U4 2.835704 1_655
Ru11 Si20 2.347760 1_545
Ru11 Si25 2.546532 1_455
Ru11 Si25 2.546532 1_555
Ru11 U5 2.835704 1_455
Ru11 U5 2.835704 1_555
Ru12 Si23 2.366800 1_554
Ru12 Si22 2.500925 1_555
Ru12 Si22 2.500925 1_455
Ru12 Si16 2.536780 1_554
Ru12 U6 2.880209 1_454
Ru12 U6 2.880209 1_554
Ru12 U7 3.263142 1_555
Ru13 Si22 2.366800 1_556
Ru13 Si23 2.500925 1_555
Ru13 Si23 2.500925 1_655
Ru13 Si17 2.536780 1_556
Ru13 U7 2.880209 1_556
Ru13 U7 2.880209 1_656
Ru13 U6 3.263142 1_555
Ru14 Si21 2.366800 1_565
Ru14 Si20 2.500925 1_555
Ru14 Si20 2.500925 1_655
Ru14 Si18 2.536780 1_555
Ru14 U4 2.880209 1_555
Ru14 U4 2.880209 1_655
Ru14 U5 3.263142 1_565
Ru15 Si20 2.366800 1_545
Ru15 Si21 2.500925 1_455
Ru15 Si21 2.500925 1_555
Ru15 Si19 2.536780 1_555
Ru15 U5 2.880209 1_555
Ru15 U5 2.880209 1_455
Ru15 U4 3.263142 1_545
Ru16 Si8 2.353844 1_555
Ru16 Si25 2.535154 1_465
Ru16 Si25 2.535154 1_565
Ru16 Si4 2.575219 1_555
Ru16 U2 2.843597 1_455
Ru16 U2 2.843597 1_555
Ru17 Si9 2.353844 1_555
Ru17 Si24 2.535154 1_645
Ru17 Si24 2.535154 1_545
Ru17 Si5 2.575219 1_555
Ru17 U3 2.843590 1_655
Ru17 U3 2.843590 1_555
Ru18 Si10 2.353844 1_555
Ru18 Si27 2.535154 1_655
Ru18 Si27 2.535154 1_555
Ru18 Si6 2.575219 1_555
Ru18 U0 2.843597 1_555
Ru18 U0 2.843597 1_655
Ru19 Si11 2.353844 1_555
Ru19 Si26 2.535154 1_555
Ru19 Si26 2.535154 1_455
Ru19 Si7 2.575219 1_555
Ru19 U1 2.843597 1_455
Ru19 U1 2.843597 1_555
Ru20 Si24 2.444191 1_555
Ru20 Si6 2.492137 1_555
Ru20 Si6 2.492137 1_455
Ru20 Si3 2.515642 1_555
Ru20 U4 2.926191 1_555
Ru20 U0 3.087035 1_555
Ru21 Si25 2.444191 1_555
Ru21 Si7 2.492137 1_655
Ru21 Si7 2.492137 1_555
Ru21 Si2 2.515642 1_555
Ru21 U5 2.926191 1_555
Ru21 U1 3.087035 1_555
Ru22 Si26 2.444191 1_555
Ru22 Si4 2.492137 1_655
Ru22 Si4 2.492137 1_555
Ru22 Si1 2.515642 1_555
Ru22 U6 2.926191 1_555
Ru22 U2 3.087035 1_555
Ru23 Si27 2.444191 1_555
Ru23 Si5 2.492137 1_455
Ru23 Si5 2.492137 1_555
Ru23 Si0 2.515642 1_555
Ru23 U7 2.926191 1_555
Ru23 U3 3.087034 1_555
Ru24 Si27 2.421119 1_555
Ru24 Si6 2.472565 1_555
Ru24 Si6 2.472565 1_455
Ru24 Si3 2.564461 1_555
Ru24 U3 2.983400 1_555
Ru24 U0 3.101390 1_555
Ru25 Si26 2.421119 1_555
Ru25 Si7 2.472565 1_555
Ru25 Si7 2.472565 1_655
Ru25 Si2 2.564461 1_555
Ru25 U2 2.983389 1_555
Ru25 U1 3.101390 1_555
Ru26 Si25 2.421119 1_565
Ru26 Si4 2.472565 1_655
Ru26 Si4 2.472565 1_555
Ru26 Si1 2.564461 1_555
Ru26 Ru3 2.817276 1_565
Ru26 Ru3 2.817276 1_665
Ru26 U1 2.983389 1_565
Ru26 U2 3.101390 1_555
Ru27 Si24 2.421119 1_545
Ru27 Si5 2.472565 1_455
Ru27 Si5 2.472565 1_555
Ru27 Si0 2.564461 1_555
Ru27 U0 2.983389 1_545
Ru27 U3 3.101380 1_555
Ru28 Si4 2.552025 1_555
Ru28 Si26 2.644368 1_555
Ru28 Si26 2.644368 1_455
Ru28 U2 2.680014 1_455
Ru28 U2 2.680014 1_555
Ru29 Si5 2.552025 1_555
Ru29 Si27 2.644368 1_655
Ru29 Si27 2.644368 1_555
Ru29 U3 2.680019 1_555
Ru29 U3 2.680019 1_655
Ru30 Si6 2.552025 1_555
Ru30 Si24 2.644368 1_555
Ru30 Si24 2.644368 1_655
Ru30 U0 2.680014 1_555
Ru30 U0 2.680014 1_655
Ru31 Si7 2.552025 1_555
Ru31 Si25 2.644368 1_455
Ru31 Si25 2.644368 1_555
Ru31 U1 2.680014 1_555
Ru31 U1 2.680014 1_455
Ru32 Si27 2.427599 1_555
Ru32 Si22 2.576616 1_555
Ru32 Si22 2.576616 1_455
Ru32 Si10 2.616426 1_455
Ru32 Si10 2.616426 1_555
Ru32 U0 3.287689 1_555
Ru32 U7 3.446785 1_555
Ru33 Si26 2.427599 1_555
Ru33 Si23 2.576616 1_555
Ru33 Si23 2.576616 1_655
Ru33 Si11 2.616426 1_655
Ru33 Si11 2.616426 1_555
Ru33 U1 3.287689 1_555
Ru33 U6 3.446785 1_555
Ru34 Si25 2.427599 1_565
Ru34 Si20 2.576616 1_555
Ru34 Si20 2.576616 1_655
Ru34 Si8 2.616426 1_555
Ru34 Si8 2.616426 1_655
Ru34 U2 3.287689 1_555
Ru34 U5 3.446785 1_565
Ru35 Si24 2.427599 1_545
Ru35 Si21 2.576616 1_455
Ru35 Si21 2.576616 1_555
Ru35 Si9 2.616426 1_455
Ru35 Si9 2.616426 1_555
Ru35 U3 3.287683 1_555
Ru35 U4 3.446785 1_545
Ru36 Si14 2.473107 1_445
Ru36 Si14 2.473107 1_545
Ru36 Si17 2.521393 1_455
Ru36 Si17 2.521393 1_555
Ru36 Si15 2.615803 1_554
Ru36 Si0 2.656894 1_555
Ru36 U7 3.120324 1_555
Ru37 Si15 2.473107 1_565
Ru37 Si15 2.473107 1_665
Ru37 Si16 2.521393 1_555
Ru37 Si16 2.521393 1_655
Ru37 Si14 2.615803 1_556
Ru37 Si1 2.656894 1_555
Ru37 U6 3.120324 1_555
Ru38 Si12 2.473107 1_655
Ru38 Si12 2.473107 1_555
Ru38 Si19 2.521393 1_655
Ru38 Si19 2.521393 1_555
Ru38 Si13 2.615803 1_555
Ru38 Si2 2.656894 1_555
Ru38 U5 3.120324 1_555
Ru39 Si13 2.473107 1_455
Ru39 Si13 2.473107 1_555
Ru39 Si18 2.521393 1_555
Ru39 Si18 2.521393 1_455
Ru39 Si12 2.615803 1_555
Ru39 Si3 2.656894 1_555
Ru39 U4 3.120324 1_555
Ru40 Si1 2.513950 1_455
Ru40 Si1 2.513950 1_555
Ru40 Si15 2.601117 1_565
Ru40 Si16 2.685813 1_555
Ru40 Si4 2.816234 1_555
Ru40 U6 2.850433 1_555
Ru40 U6 2.850433 1_455
Ru41 Si0 2.513950 1_655
Ru41 Si0 2.513950 1_555
Ru41 Si14 2.601117 1_545
Ru41 Si17 2.685813 1_555
Ru41 Si5 2.816234 1_555
Ru41 U7 2.850433 1_555
Ru41 U7 2.850433 1_655
Ru42 Si3 2.513950 1_655
Ru42 Si3 2.513950 1_555
Ru42 Si13 2.601117 1_555
Ru42 Si18 2.685813 1_555
Ru42 Si6 2.816234 1_555
Ru42 U4 2.850433 1_555
Ru42 U4 2.850433 1_655
Ru43 Si2 2.513950 1_455
Ru43 Si2 2.513950 1_555
Ru43 Si12 2.601117 1_555
Ru43 Si19 2.685813 1_555
Ru43 Si7 2.816234 1_555
Ru43 U5 2.850433 1_455
Ru43 U5 2.850433 1_555
Ru44 Si0 2.432883 1_565
Ru44 Si14 2.441812 1_455
Ru44 Si14 2.441812 1_555
Ru44 Si10 2.510148 1_455
Ru44 Si10 2.510148 1_555
Ru44 Si16 2.649525 1_554
Ru44 U0 3.168831 1_555
Ru45 Si1 2.432883 1_545
Ru45 Si15 2.441812 1_555
Ru45 Si15 2.441812 1_655
Ru45 Si11 2.510148 1_655
Ru45 Si11 2.510148 1_555
Ru45 Si17 2.649525 1_556
Ru45 U1 3.168831 1_555
Ru46 Si2 2.432883 1_555
Ru46 Si12 2.441812 1_655
Ru46 Si12 2.441812 1_555
Ru46 Si8 2.510148 1_655
Ru46 Si8 2.510148 1_555
Ru46 Si18 2.649525 1_555
Ru46 U2 3.168831 1_555
Ru47 Si3 2.432883 1_555
Ru47 Si13 2.441812 1_555
Ru47 Si13 2.441812 1_455
Ru47 Si9 2.510148 1_455
Ru47 Si9 2.510148 1_555
Ru47 Si19 2.649525 1_555
Ru47 U3 3.168834 1_555
