# generated using pymatgen
data_BaAs2Xe5F22
_symmetry_space_group_name_H-M   'P 1'
_cell_length_a   10.04799170
_cell_length_b   9.31057674
_cell_length_c   9.30909924
_cell_angle_alpha   65.31878023
_cell_angle_beta   57.34770285
_cell_angle_gamma   57.33351692
_symmetry_Int_Tables_number   1
_chemical_formula_structural   BaAs2Xe5F22
_chemical_formula_sum   'Ba1 As2 Xe5 F22'
_cell_volume   607.38617521
_cell_formula_units_Z   1
loop_
 _symmetry_equiv_pos_site_id
 _symmetry_equiv_pos_as_xyz
  1  'x, y, z'
loop_
 _atom_site_type_symbol
 _atom_site_label
 _atom_site_symmetry_multiplicity
 _atom_site_fract_x
 _atom_site_fract_y
 _atom_site_fract_z
 _atom_site_occupancy
  Ba  Ba0  1  0.00000000  0.00000000  0.00000000  1
  As  As0  1  0.00000000  0.50000000  0.00000000  1
  As  As1  1  0.50000000  0.00000000  0.50000000  1
  Xe  Xe0  1  0.00000000  0.00000000  0.50000000  1
  Xe  Xe1  1  0.50000000  0.50000000  0.00000000  1
  Xe  Xe2  1  0.50000000  0.00000000  0.00000000  1
  Xe  Xe3  1  0.00000000  0.50000000  0.50000000  1
  Xe  Xe4  1  0.50000000  0.50000000  0.50000000  1
  F  F0  1  0.04555500  0.30547300  0.95444500  1
  F  F1  1  0.95444500  0.69452700  0.04555500  1
  F  F2  1  0.30547300  0.04555500  0.69452700  1
  F  F3  1  0.69452700  0.95444500  0.30547300  1
  F  F4  1  0.30021900  0.94509300  0.05490700  1
  F  F5  1  0.69978100  0.05490700  0.94509300  1
  F  F6  1  0.94509300  0.30021900  0.69978100  1
  F  F7  1  0.05490700  0.69978100  0.30021900  1
  F  F8  1  0.92495400  0.07504600  0.30149700  1
  F  F9  1  0.07504600  0.92495400  0.69850300  1
  F  F10  1  0.30149700  0.69850300  0.92495400  1
  F  F11  1  0.69850300  0.30149700  0.07504600  1
  F  F12  1  0.35359400  0.64640600  0.35359400  1
  F  F13  1  0.64640600  0.35359400  0.64640600  1
  F  F14  1  0.95543900  0.40344900  0.22155300  1
  F  F15  1  0.04456100  0.59655100  0.77844700  1
  F  F16  1  0.40344900  0.95543900  0.41955800  1
  F  F17  1  0.22155300  0.41955800  0.95543900  1
  F  F18  1  0.59655100  0.04456100  0.58044200  1
  F  F19  1  0.77844700  0.58044200  0.04456100  1
  F  F20  1  0.41955800  0.22155300  0.40344900  1
  F  F21  1  0.58044200  0.77844700  0.59655100  1
loop_
_geom_bond_atom_site_label_1
_geom_bond_atom_site_label_2
_geom_bond_distance
_geom_bond_site_symmetry_2
Ba0 F8 2.778388 1_455
Ba0 F11 2.778388 1_455
Ba0 F10 2.778388 1_544
Ba0 F9 2.778388 1_544
Ba0 F2 2.943984 1_554
Ba0 F3 2.943984 1_445
Ba0 F0 2.943984 1_554
Ba0 F1 2.943984 1_445
Ba0 F6 3.066486 1_454
Ba0 F7 3.066486 1_545
Ba0 F4 3.066486 1_545
Ba0 F5 3.066486 1_454
As0 F17 1.775371 1_554
As0 F19 1.775371 1_455
As0 F14 1.775373 1_455
As0 F15 1.775373 1_554
As0 F1 1.790726 1_455
As0 F0 1.790726 1_554
As1 F21 1.775374 1_545
As1 F20 1.775374 1_555
As1 F18 1.775380 1_555
As1 F16 1.775380 1_545
As1 F2 1.790726 1_555
As1 F3 1.790726 1_545
F4 Xe2 2.081977 1_565
F5 Xe2 2.081977 1_556
F6 Xe3 2.081977 1_655
F7 Xe3 2.081977 1_555
F8 Xe0 2.080396 1_655
F9 Xe0 2.080396 1_565
F10 Xe1 2.080396 1_556
F11 Xe1 2.080396 1_555
F12 Xe4 2.080147 1_555
F13 Xe4 2.080147 1_555
