# generated using pymatgen
data_KHo2Cl7
_symmetry_space_group_name_H-M   'P 1'
_cell_length_a   12.52478385
_cell_length_b   6.87719657
_cell_length_c   12.82273375
_cell_angle_alpha   89.82996650
_cell_angle_beta   90.00000000
_cell_angle_gamma   90.00000000
_symmetry_Int_Tables_number   1
_chemical_formula_structural   KHo2Cl7
_chemical_formula_sum   'K4 Ho8 Cl28'
_cell_volume   1104.48644363
_cell_formula_units_Z   4
loop_
 _symmetry_equiv_pos_site_id
 _symmetry_equiv_pos_as_xyz
  1  'x, y, z'
loop_
 _atom_site_type_symbol
 _atom_site_label
 _atom_site_symmetry_multiplicity
 _atom_site_fract_x
 _atom_site_fract_y
 _atom_site_fract_z
 _atom_site_occupancy
  K  K0  1  0.20346063  0.77948419  0.03582675  1
  K  K1  1  0.79653937  0.22051581  0.96417325  1
  K  K2  1  0.70346063  0.22051581  0.46417325  1
  K  K3  1  0.29653937  0.77948419  0.53582675  1
  Ho  Ho0  1  0.53714316  0.77214570  0.23745303  1
  Ho  Ho1  1  0.46285684  0.22785430  0.76254697  1
  Ho  Ho2  1  0.03714316  0.22785430  0.26254697  1
  Ho  Ho3  1  0.96285684  0.77214570  0.73745303  1
  Ho  Ho4  1  0.83999379  0.72596870  0.24821417  1
  Ho  Ho5  1  0.16000621  0.27403130  0.75178583  1
  Ho  Ho6  1  0.33999379  0.27403130  0.25178583  1
  Ho  Ho7  1  0.66000621  0.72596870  0.74821417  1
  Cl  Cl0  1  0.97198298  0.94756108  0.13087966  1
  Cl  Cl1  1  0.02801702  0.05243892  0.86912034  1
  Cl  Cl2  1  0.47198298  0.05243892  0.36912034  1
  Cl  Cl3  1  0.52801702  0.94756108  0.63087966  1
  Cl  Cl4  1  0.68575032  0.74669107  0.39597785  1
  Cl  Cl5  1  0.31424968  0.25330893  0.60402215  1
  Cl  Cl6  1  0.18575032  0.25330893  0.10402215  1
  Cl  Cl7  1  0.81424968  0.74669107  0.89597785  1
  Cl  Cl8  1  0.67885655  0.50990669  0.17204382  1
  Cl  Cl9  1  0.32114345  0.49009331  0.82795618  1
  Cl  Cl10  1  0.17885655  0.49009331  0.32795618  1
  Cl  Cl11  1  0.82114345  0.50990669  0.67204382  1
  Cl  Cl12  1  0.92564353  0.97931613  0.38199212  1
  Cl  Cl13  1  0.07435647  0.02068387  0.61800788  1
  Cl  Cl14  1  0.42564353  0.02068387  0.11800788  1
  Cl  Cl15  1  0.57435647  0.97931613  0.88199212  1
  Cl  Cl16  1  0.94308332  0.46573634  0.12664645  1
  Cl  Cl17  1  0.05691668  0.53426366  0.87335355  1
  Cl  Cl18  1  0.44308332  0.53426366  0.37335355  1
  Cl  Cl19  1  0.55691668  0.46573634  0.62664645  1
  Cl  Cl20  1  0.70218123  0.99629886  0.17421555  1
  Cl  Cl21  1  0.29781877  0.00370114  0.82578445  1
  Cl  Cl22  1  0.20218123  0.00370114  0.32578445  1
  Cl  Cl23  1  0.79781877  0.99629886  0.67421555  1
  Cl  Cl24  1  0.91146552  0.45895230  0.38143960  1
  Cl  Cl25  1  0.08853448  0.54104770  0.61856040  1
  Cl  Cl26  1  0.41146552  0.54104770  0.11856040  1
  Cl  Cl27  1  0.58853448  0.45895230  0.88143960  1
loop_
_geom_bond_atom_site_label_1
_geom_bond_atom_site_label_2
_geom_bond_distance
_geom_bond_site_symmetry_2
Cl0 Ho2 2.692880 1_665
Cl0 Ho4 2.702831 1_555
Cl0 K0 3.351930 1_655
Cl0 K1 3.591369 1_564
Cl1 Ho3 2.692880 1_445
Cl1 Ho5 2.702831 1_555
Cl1 K1 3.351930 1_455
Cl1 K0 3.591369 1_546
Cl2 Ho0 2.692880 1_545
Cl2 Ho6 2.702831 1_555
Cl2 K2 3.351930 1_555
Cl2 K3 3.591369 1_545
Cl3 Ho1 2.692880 1_565
Cl3 Ho7 2.702831 1_555
Cl3 K3 3.351930 1_555
Cl3 K2 3.591369 1_565
Cl4 Ho4 2.709988 1_555
Cl4 Ho0 2.761309 1_555
Cl4 K2 3.383661 1_565
Cl4 K2 3.726853 1_555
Cl5 Ho5 2.709988 1_555
Cl5 Ho1 2.761309 1_555
Cl5 K3 3.383661 1_545
Cl5 K3 3.726853 1_555
Cl6 Ho6 2.709988 1_555
Cl6 Ho2 2.761309 1_555
Cl6 K0 3.383661 1_545
Cl6 K0 3.726853 1_555
Cl7 Ho7 2.709988 1_555
Cl7 Ho3 2.761309 1_555
Cl7 K1 3.383661 1_565
Cl7 K1 3.726853 1_555
Cl8 Ho0 2.667454 1_555
Cl8 Ho4 2.691403 1_555
Cl8 K1 3.642751 1_554
Cl9 Ho1 2.667454 1_555
Cl9 Ho5 2.691403 1_555
Cl9 K0 3.642751 1_556
Cl10 Ho2 2.667454 1_555
Cl10 Ho6 2.691403 1_555
Cl10 K3 3.642751 1_555
Cl11 Ho3 2.667454 1_555
Cl11 Ho7 2.691403 1_555
Cl11 K2 3.642751 1_555
Cl12 Ho4 2.673349 1_555
Cl12 Ho2 2.683665 1_665
Cl12 K2 3.408272 1_565
Cl13 Ho5 2.673349 1_555
Cl13 Ho3 2.683665 1_445
Cl13 K3 3.408272 1_545
Cl14 Ho6 2.673349 1_555
Cl14 Ho0 2.683665 1_545
Cl14 K0 3.408272 1_545
Cl15 Ho7 2.673349 1_555
Cl15 Ho1 2.683665 1_565
Cl15 K1 3.408272 1_565
Cl16 Ho2 2.661584 1_655
Cl16 Ho4 2.704913 1_555
Cl16 K1 3.251777 1_554
Cl17 Ho3 2.661584 1_455
Cl17 Ho5 2.704913 1_555
Cl17 K0 3.251777 1_556
Cl18 Ho0 2.661584 1_555
Cl18 Ho6 2.704913 1_555
Cl18 K3 3.251777 1_555
Cl19 Ho1 2.661584 1_555
Cl19 Ho7 2.704913 1_555
Cl19 K2 3.251777 1_555
Cl20 Ho0 2.701708 1_555
Cl20 Ho4 2.706567 1_555
Cl20 K1 3.317184 1_564
Cl21 Ho1 2.701708 1_555
Cl21 Ho5 2.706567 1_555
Cl21 K0 3.317184 1_546
Cl22 Ho2 2.701708 1_555
Cl22 Ho6 2.706567 1_555
Cl22 K3 3.317184 1_545
Cl23 Ho3 2.701708 1_555
Cl23 Ho7 2.706567 1_555
Cl23 K2 3.317184 1_565
Cl24 Ho4 2.659536 1_555
Cl24 Ho2 2.709651 1_655
Cl24 K2 3.254403 1_555
Cl25 Ho5 2.659536 1_555
Cl25 Ho3 2.709651 1_455
Cl25 K3 3.254403 1_555
Cl26 Ho6 2.659536 1_555
Cl26 Ho0 2.709651 1_555
Cl26 K0 3.254403 1_555
Cl27 Ho7 2.659536 1_555
Cl27 Ho1 2.709651 1_555
Cl27 K1 3.254403 1_555
