# generated using pymatgen
data_CoSb(PO4)2
_symmetry_space_group_name_H-M   'P 1'
_cell_length_a   4.93852399
_cell_length_b   11.91874817
_cell_length_c   11.97578065
_cell_angle_alpha   114.65040307
_cell_angle_beta   94.53918188
_cell_angle_gamma   85.06531407
_symmetry_Int_Tables_number   1
_chemical_formula_structural   CoSb(PO4)2
_chemical_formula_sum   'Co4 Sb4 P8 O32'
_cell_volume   637.56458720
_cell_formula_units_Z   4
loop_
 _symmetry_equiv_pos_site_id
 _symmetry_equiv_pos_as_xyz
  1  'x, y, z'
loop_
 _atom_site_type_symbol
 _atom_site_label
 _atom_site_symmetry_multiplicity
 _atom_site_fract_x
 _atom_site_fract_y
 _atom_site_fract_z
 _atom_site_occupancy
  Co  Co0  1  0.42694900  0.01612400  0.79877500  1
  Co  Co1  1  0.57306000  0.98400100  0.20128300  1
  Co  Co2  1  0.39819400  0.47567200  0.25599100  1
  Co  Co3  1  0.60174400  0.52481600  0.74433900  1
  Sb  Sb0  1  0.91693900  0.28224600  0.98335800  1
  Sb  Sb1  1  0.96530300  0.77152000  0.47897300  1
  Sb  Sb2  1  0.08345000  0.71783800  0.01674600  1
  Sb  Sb3  1  0.03442900  0.22842900  0.52099500  1
  P  P0  1  0.38744500  0.17958600  0.08273700  1
  P  P1  1  0.42226600  0.67378700  0.56559800  1
  P  P2  1  0.61305500  0.82057700  0.91735800  1
  P  P3  1  0.57752800  0.32603800  0.43433200  1
  P  P4  1  0.85059300  0.59802200  0.18686600  1
  P  P5  1  0.88046800  0.06127500  0.65982700  1
  P  P6  1  0.14929100  0.40197300  0.81304300  1
  P  P7  1  0.11940900  0.93866400  0.34015800  1
  O  O0  1  0.59161400  0.40465000  0.36496900  1
  O  O1  1  0.64016800  0.89054000  0.83864600  1
  O  O2  1  0.40812600  0.59518600  0.63497100  1
  O  O3  1  0.36000700  0.10961300  0.16142100  1
  O  O4  1  0.68726900  0.19002100  0.06518900  1
  O  O5  1  0.72407700  0.69304400  0.55287900  1
  O  O6  1  0.31330300  0.80996100  0.93489700  1
  O  O7  1  0.27569200  0.30682800  0.44706600  1
  O  O8  1  0.15992300  0.57779100  0.18622900  1
  O  O9  1  0.18613800  0.05133100  0.67779100  1
  O  O10  1  0.83993000  0.42223900  0.81366500  1
  O  O11  1  0.81373400  0.94851500  0.32215000  1
  O  O12  1  0.25200000  0.33697000  0.89655300  1
  O  O13  1  0.20104500  0.84995500  0.40671300  1
  O  O14  1  0.74788700  0.66308600  0.10341400  1
  O  O15  1  0.79882100  0.14992000  0.59322500  1
  O  O16  1  0.22155500  0.12211600  0.95349300  1
  O  O17  1  0.25415600  0.62141400  0.43494300  1
  O  O18  1  0.22241300  0.31107400  0.13517300  1
  O  O19  1  0.24388300  0.80071600  0.62259700  1
  O  O20  1  0.77823600  0.68912600  0.86485200  1
  O  O21  1  0.75581600  0.19907100  0.37732900  1
  O  O22  1  0.77889400  0.87803900  0.04659600  1
  O  O23  1  0.74569700  0.37840500  0.56496100  1
  O  O24  1  0.75275100  0.68482700  0.32461400  1
  O  O25  1  0.72939400  0.10927800  0.77981500  1
  O  O26  1  0.71342600  0.47499000  0.15454200  1
  O  O27  1  0.76030100  0.93087500  0.57291600  1
  O  O28  1  0.24705400  0.31506200  0.67534000  1
  O  O29  1  0.27056700  0.89074000  0.22018500  1
  O  O30  1  0.28653100  0.52500100  0.84538500  1
  O  O31  1  0.23947400  0.06904600  0.42710100  1
loop_
_geom_bond_atom_site_label_1
_geom_bond_atom_site_label_2
_geom_bond_distance
_geom_bond_site_symmetry_2
Co0 O1 1.955157 1_545
Co0 O9 1.959137 1_555
Co0 O25 2.016058 1_555
Co0 O16 2.045096 1_555
Co1 O3 1.955003 1_565
Co1 O11 1.959251 1_555
Co1 O29 2.016812 1_555
Co1 O22 2.045889 1_555
Co2 O0 1.979234 1_555
Co2 O8 2.002561 1_555
Co2 O26 2.046618 1_555
Co2 O18 2.102893 1_555
Co2 O17 2.244909 1_555
Co3 O2 1.978229 1_555
Co3 O10 2.003091 1_555
Co3 O30 2.045234 1_555
Co3 O20 2.101127 1_555
Co3 O23 2.250906 1_555
O0 P3 1.497445 1_555
O1 P2 1.515489 1_555
O2 P1 1.497469 1_555
O3 P0 1.515596 1_555
O4 P0 1.534538 1_555
O4 Sb0 2.178098 1_554
O5 P1 1.556093 1_555
O5 Sb1 2.031396 1_555
O6 P2 1.534640 1_555
O6 Sb2 2.177895 1_556
O7 P3 1.556105 1_555
O7 Sb3 2.031067 1_555
O8 P4 1.526042 1_455
O9 P5 1.509365 1_455
O10 P6 1.526219 1_655
O11 P7 1.509383 1_655
O12 P6 1.534977 1_555
O12 Sb0 2.295147 1_455
O13 P7 1.579391 1_555
O13 Sb1 1.999935 1_455
O14 P4 1.534937 1_555
O14 Sb2 2.296232 1_655
O15 P5 1.579175 1_555
O15 Sb3 1.999875 1_655
O16 P0 1.596088 1_556
O16 Sb0 2.248414 1_455
O17 P1 1.611207 1_555
O17 Sb1 2.099243 1_455
O18 P0 1.598425 1_555
O18 Sb0 2.198489 1_454
O19 P1 1.592224 1_555
O19 Sb1 2.044706 1_455
O20 P2 1.598441 1_555
O20 Sb2 2.198525 1_656
O21 P3 1.592318 1_555
O21 Sb3 2.044931 1_655
O22 P2 1.595909 1_554
O22 Sb2 2.248873 1_655
O23 P3 1.611103 1_555
O23 Sb3 2.097840 1_655
O24 P4 1.625323 1_555
O24 Sb1 1.967961 1_555
O25 P5 1.535991 1_555
O25 Sb0 2.613234 1_555
O26 P4 1.553994 1_555
O26 Sb0 2.547689 1_554
O27 P5 1.600806 1_565
O27 Sb1 1.991257 1_555
O28 P6 1.625018 1_555
O28 Sb3 1.967901 1_555
O29 P7 1.536119 1_555
O29 Sb2 2.611443 1_555
O30 P6 1.554093 1_555
O30 Sb2 2.548443 1_556
O31 P7 1.600529 1_545
O31 Sb3 1.991460 1_555
