# generated using pymatgen
data_ZrGeAs
_symmetry_space_group_name_H-M   'P 1'
_cell_length_a   3.64071900
_cell_length_b   6.73894000
_cell_length_c   9.43907000
_cell_angle_alpha   90.00000000
_cell_angle_beta   90.00000000
_cell_angle_gamma   90.00000000
_symmetry_Int_Tables_number   1
_chemical_formula_structural   ZrGeAs
_chemical_formula_sum   'Zr4 Ge4 As4'
_cell_volume   231.58368315
_cell_formula_units_Z   4
loop_
 _symmetry_equiv_pos_site_id
 _symmetry_equiv_pos_as_xyz
  1  'x, y, z'
loop_
 _atom_site_type_symbol
 _atom_site_label
 _atom_site_symmetry_multiplicity
 _atom_site_fract_x
 _atom_site_fract_y
 _atom_site_fract_z
 _atom_site_occupancy
  Zr  Zr0  1  0.25000000  0.72549900  0.83757700  1
  Zr  Zr1  1  0.75000000  0.27450100  0.16242300  1
  Zr  Zr2  1  0.75000000  0.77450100  0.33757700  1
  Zr  Zr3  1  0.25000000  0.22549900  0.66242300  1
  Ge  Ge0  1  0.25000000  0.62278800  0.54416700  1
  Ge  Ge1  1  0.75000000  0.37721200  0.45583300  1
  Ge  Ge2  1  0.75000000  0.87721200  0.04416700  1
  Ge  Ge3  1  0.25000000  0.12278800  0.95583300  1
  As  As0  1  0.25000000  0.60251300  0.14561200  1
  As  As1  1  0.75000000  0.39748700  0.85438800  1
  As  As2  1  0.75000000  0.89748700  0.64561200  1
  As  As3  1  0.25000000  0.10251300  0.35438800  1
loop_
_geom_bond_atom_site_label_1
_geom_bond_atom_site_label_2
_geom_bond_distance
_geom_bond_site_symmetry_2
Ge0 Ge1 2.597630 1_455
Ge0 Ge1 2.597630 1_555
Ge0 Zr0 2.854701 1_555
Ge0 Zr2 2.856842 1_555
Ge0 Zr2 2.856842 1_455
Ge0 Zr3 2.900678 1_555
Ge1 Zr1 2.854701 1_555
Ge1 Zr3 2.856842 1_655
Ge1 Zr3 2.856842 1_555
Ge1 Zr2 2.900678 1_555
Ge2 Ge3 2.597630 1_564
Ge2 Ge3 2.597630 1_664
Ge2 Zr2 2.854701 1_555
Ge2 Zr0 2.856842 1_554
Ge2 Zr0 2.856842 1_654
Ge2 Zr1 2.900678 1_565
Ge3 Zr3 2.854701 1_555
Ge3 Zr1 2.856842 1_456
Ge3 Zr1 2.856842 1_556
Ge3 Zr0 2.900678 1_545
As0 Ge2 2.767214 1_555
As0 Ge2 2.767214 1_455
As0 Zr2 2.817848 1_555
As0 Zr2 2.817848 1_455
As0 Zr1 2.867925 1_555
As0 Zr1 2.867925 1_455
As0 Zr0 3.023380 1_554
As1 Ge3 2.767214 1_555
As1 Ge3 2.767214 1_655
As1 Zr3 2.817848 1_555
As1 Zr3 2.817848 1_655
As1 Zr0 2.867925 1_555
As1 Zr0 2.867925 1_655
As1 Zr1 3.023380 1_556
As2 Ge0 2.767214 1_555
As2 Ge0 2.767214 1_655
As2 Zr0 2.817848 1_555
As2 Zr0 2.817848 1_655
As2 Zr3 2.867925 1_665
As2 Zr3 2.867925 1_565
As2 Zr2 3.023380 1_555
As3 Ge1 2.767214 1_455
As3 Ge1 2.767214 1_555
As3 Zr1 2.817848 1_555
As3 Zr1 2.817848 1_455
As3 Zr2 2.867925 1_445
As3 Zr2 2.867925 1_545
As3 Zr3 3.023380 1_555
