# generated using pymatgen
data_Mg2CrWO6
_symmetry_space_group_name_H-M   'P 1'
_cell_length_a   5.20991076
_cell_length_b   8.95087369
_cell_length_c   5.54244474
_cell_angle_alpha   73.82799384
_cell_angle_beta   62.15731715
_cell_angle_gamma   89.40980475
_symmetry_Int_Tables_number   1
_chemical_formula_structural   Mg2CrWO6
_chemical_formula_sum   'Mg4 Cr2 W2 O12'
_cell_volume   217.30323726
_cell_formula_units_Z   2
loop_
 _symmetry_equiv_pos_site_id
 _symmetry_equiv_pos_as_xyz
  1  'x, y, z'
loop_
 _atom_site_type_symbol
 _atom_site_label
 _atom_site_symmetry_multiplicity
 _atom_site_fract_x
 _atom_site_fract_y
 _atom_site_fract_z
 _atom_site_occupancy
  Mg  Mg0  1  0.41330300  0.14284500  0.14695100  1
  Mg  Mg1  1  0.91369200  0.64301800  0.14621800  1
  Mg  Mg2  1  0.16791500  0.39632600  0.64490200  1
  Mg  Mg3  1  0.66782900  0.89649200  0.64486500  1
  Cr  Cr0  1  0.22972800  0.74833100  0.52497500  1
  Cr  Cr1  1  0.72977900  0.24857700  0.52502500  1
  W  W0  1  0.97919300  0.99805100  0.02605300  1
  W  W1  1  0.47921600  0.49804300  0.02602500  1
  O  O0  1  0.89793400  0.18447800  0.80699500  1
  O  O1  1  0.39780100  0.68441700  0.80664000  1
  O  O2  1  0.41929800  0.05424200  0.81292400  1
  O  O3  1  0.91937200  0.55391000  0.81285800  1
  O  O4  1  0.45240000  0.35796100  0.80836900  1
  O  O5  1  0.95229500  0.85766500  0.80839700  1
  O  O6  1  0.50687000  0.30698000  0.30312700  1
  O  O7  1  0.00717100  0.80700200  0.30263500  1
  O  O8  1  0.97336000  0.10576900  0.30992000  1
  O  O9  1  0.47364300  0.60551100  0.30974600  1
  O  O10  1  0.03505000  0.43978500  0.31279000  1
  O  O11  1  0.53510100  0.93951200  0.31287500  1
loop_
_geom_bond_atom_site_label_1
_geom_bond_atom_site_label_2
_geom_bond_distance
_geom_bond_site_symmetry_2
Mg0 O8 2.023460 1_455
Mg0 O11 2.037097 1_545
Mg0 O6 2.064603 1_555
Mg0 O2 2.195610 1_554
Mg0 O4 2.215567 1_554
Mg0 O0 2.290966 1_554
Mg1 O9 2.023776 1_555
Mg1 O10 2.036489 1_655
Mg1 O7 2.064252 1_655
Mg1 O3 2.195473 1_554
Mg1 O5 2.211294 1_554
Mg1 O1 2.288575 1_654
Mg2 O3 2.025012 1_455
Mg2 O4 2.050865 1_555
Mg2 O0 2.075297 1_455
Mg2 O10 2.191913 1_555
Mg2 O9 2.203115 1_555
Mg2 O6 2.244195 1_555
Mg3 O2 2.026404 1_565
Mg3 O5 2.051194 1_555
Mg3 O1 2.077286 1_555
Mg3 O11 2.191013 1_555
Mg3 O8 2.202967 1_565
Mg3 O7 2.247184 1_655
Cr0 O11 2.007472 1_555
Cr0 O9 2.017942 1_555
Cr0 O7 2.024961 1_555
Cr0 O5 2.054463 1_455
Cr0 O3 2.071253 1_455
Cr0 O1 2.073688 1_555
Cr1 O10 2.007344 1_655
Cr1 O8 2.016928 1_555
Cr1 O6 2.024358 1_555
Cr1 O4 2.054426 1_555
Cr1 O2 2.071061 1_555
Cr1 O0 2.075597 1_555
O0 W0 1.942891 1_546
O1 W1 1.943859 1_556
O2 W0 2.017069 1_446
O3 W1 2.017015 1_556
O4 W1 2.012600 1_556
O5 W0 2.014904 1_556
O6 W1 2.010658 1_555
O7 W0 2.009673 1_455
O8 W0 2.050760 1_545
O9 W1 2.048981 1_555
O10 W1 2.068963 1_555
O11 W0 2.068851 1_555
