# generated using pymatgen
data_Na5Eu4Si4O16F
_symmetry_space_group_name_H-M   'P 1'
_cell_length_a   8.76002533
_cell_length_b   8.76002533
_cell_length_c   8.75904119
_cell_angle_alpha   95.59975417
_cell_angle_beta   95.59870784
_cell_angle_gamma   143.59894186
_symmetry_Int_Tables_number   1
_chemical_formula_structural   Na5Eu4Si4O16F
_chemical_formula_sum   'Na5 Eu4 Si4 O16 F1'
_cell_volume   378.91672048
_cell_formula_units_Z   1
loop_
 _symmetry_equiv_pos_site_id
 _symmetry_equiv_pos_as_xyz
  1  'x, y, z'
loop_
 _atom_site_type_symbol
 _atom_site_label
 _atom_site_symmetry_multiplicity
 _atom_site_fract_x
 _atom_site_fract_y
 _atom_site_fract_z
 _atom_site_occupancy
  Na  Na0  1  0.92411803  0.61949380  0.51934367  1
  Na  Na1  1  0.10015114  0.40477436  0.48065633  1
  Na  Na2  1  0.59536755  0.07599218  0.69541943  1
  Na  Na3  1  0.38057275  0.89994712  0.30458057  1
  Na  Na4  1  0.49996895  0.49996895  -0.00000000  1
  Eu  Eu0  1  0.90966001  0.20874263  0.06640388  1
  Eu  Eu1  1  0.14233875  0.84325614  0.93359612  1
  Eu  Eu2  1  0.15673456  0.09034150  0.29909116  1
  Eu  Eu3  1  0.79125034  0.85764340  0.70090884  1
  Si  Si0  1  0.73759984  0.38738113  0.14711849  1
  Si  Si1  1  0.24026264  0.59048135  0.85288151  1
  Si  Si2  1  0.40952957  0.26240172  0.64978920  1
  Si  Si3  1  0.61261252  0.75974038  0.35021080  1
  O  O0  1  0.90315312  0.41059644  0.28070642  1
  O  O1  1  0.12989002  0.62244670  0.71929358  1
  O  O2  1  0.37750487  0.09682881  0.50741951  1
  O  O3  1  0.58940930  0.87008536  0.49258049  1
  O  O4  1  0.92116809  0.68253983  0.14066018  1
  O  O5  1  0.54187964  0.78050791  0.85933982  1
  O  O6  1  0.21946515  0.07880208  0.76137775  1
  O  O7  1  0.31742533  0.45808841  0.23862225  1
  O  O8  1  0.45529142  0.21473192  0.17615825  1
  O  O9  1  0.03857367  0.27913317  0.82384175  1
  O  O10  1  0.72086972  0.54471302  0.75944952  1
  O  O11  1  0.78526350  0.96142019  0.24055048  1
  O  O12  1  0.63911778  0.20273399  0.97247320  1
  O  O13  1  0.23026079  0.66664458  0.02752680  1
  O  O14  1  0.33334913  0.36085214  0.56363700  1
  O  O15  1  0.79721514  0.76971113  0.43636300  1
  F  F0  1  -0.00000131  -0.00000131  -0.00000000  1
loop_
_geom_bond_atom_site_label_1
_geom_bond_atom_site_label_2
_geom_bond_distance
_geom_bond_site_symmetry_2
Na0 O1 2.370090 1_655
Na0 O15 2.424783 1_555
Na0 O0 2.527671 1_555
Na0 O2 2.588800 1_665
Na0 O10 2.672852 1_555
Na0 O6 2.807976 1_665
Na0 O2 2.901620 1_555
Na1 O0 2.370095 1_455
Na1 O14 2.424783 1_555
Na1 O1 2.527677 1_555
Na1 O3 2.588797 1_555
Na1 O11 2.672850 1_445
Na1 O7 2.807974 1_555
Na1 O3 2.901622 1_445
Na2 O3 2.370178 1_545
Na2 O12 2.424108 1_555
Na2 O2 2.528530 1_555
Na2 O1 2.589438 1_545
Na2 O9 2.672292 1_655
Na2 O5 2.808074 1_545
Na2 O1 2.900893 1_655
Na3 O2 2.370184 1_565
Na3 O13 2.424106 1_555
Na3 O3 2.528523 1_555
Na3 O0 2.589435 1_455
Na3 O8 2.672300 1_565
Na3 O4 2.808079 1_455
Na3 O0 2.900896 1_565
Na4 O7 2.630133 1_555
Na4 O6 2.630136 1_554
Na4 O4 2.630384 1_555
Na4 O5 2.630384 1_554
Na4 O9 2.841370 1_554
Na4 O8 2.841370 1_555
Na4 O11 2.841372 1_555
Na4 O10 2.841372 1_554
Eu0 O11 2.318810 1_545
Eu0 O7 2.356201 1_655
Eu0 O12 2.388860 1_554
Eu0 O9 2.402574 1_654
Eu0 O5 2.412118 1_544
Eu0 O0 2.487721 1_555
Eu0 O13 2.532178 1_655
Eu0 F0 2.553446 1_655
Eu1 O10 2.318810 1_455
Eu1 O6 2.356198 1_565
Eu1 O13 2.388860 1_556
Eu1 O8 2.402574 1_566
Eu1 O4 2.412118 1_456
Eu1 O1 2.487721 1_555
Eu1 O12 2.532178 1_565
Eu1 F0 2.553446 1_566
Eu2 O8 2.319009 1_555
Eu2 O4 2.356408 1_445
Eu2 O14 2.388601 1_555
Eu2 O11 2.402704 1_445
Eu2 O7 2.412162 1_555
Eu2 O2 2.487449 1_555
Eu2 O15 2.532120 1_445
Eu2 F0 2.553221 1_555
Eu3 O9 2.319009 1_665
Eu3 O5 2.356409 1_555
Eu3 O15 2.388603 1_555
Eu3 O10 2.402704 1_555
Eu3 O6 2.412159 1_665
Eu3 O3 2.487449 1_555
Eu3 O14 2.532119 1_555
Eu3 F0 2.553221 1_666
O0 Si0 1.631381 1_555
O1 Si1 1.631381 1_555
O2 Si2 1.631330 1_555
O3 Si3 1.631330 1_555
O4 Si0 1.620983 1_555
O5 Si1 1.620983 1_555
O6 Si2 1.621060 1_555
O7 Si3 1.621056 1_555
O8 Si0 1.626306 1_555
O9 Si1 1.626306 1_555
O10 Si2 1.626227 1_555
O11 Si3 1.626227 1_555
O12 Si0 1.647408 1_556
O13 Si1 1.647408 1_554
O14 Si2 1.647359 1_555
O15 Si3 1.647366 1_555
F0 Na4 2.735976 1_555
F0 Na4 2.736301 1_445
