# generated using pymatgen
data_Na3Ni2P2(CO7)2
_symmetry_space_group_name_H-M   'P 1'
_cell_length_a   8.87797355
_cell_length_b   10.36161809
_cell_length_c   6.58976200
_cell_angle_alpha   90.00000000
_cell_angle_beta   90.00000000
_cell_angle_gamma   88.69738720
_symmetry_Int_Tables_number   1
_chemical_formula_structural   Na3Ni2P2(CO7)2
_chemical_formula_sum   'Na6 Ni4 P4 C4 O28'
_cell_volume   606.03667920
_cell_formula_units_Z   2
loop_
 _symmetry_equiv_pos_site_id
 _symmetry_equiv_pos_as_xyz
  1  'x, y, z'
loop_
 _atom_site_type_symbol
 _atom_site_label
 _atom_site_symmetry_multiplicity
 _atom_site_fract_x
 _atom_site_fract_y
 _atom_site_fract_z
 _atom_site_occupancy
  Na  Na0  1  0.25585800  0.12230900  0.47117800  1
  Na  Na1  1  0.25296300  0.62391600  0.01183500  1
  Na  Na2  1  0.25093200  0.62071000  0.49066700  1
  Na  Na3  1  0.74414200  0.37769100  0.97117800  1
  Na  Na4  1  0.74703700  0.87608400  0.51183500  1
  Na  Na5  1  0.74906800  0.87929000  0.99066700  1
  Ni  Ni0  1  0.34828900  0.38765100  0.75303100  1
  Ni  Ni1  1  0.34363600  0.89324100  0.75641200  1
  Ni  Ni2  1  0.65171100  0.11234900  0.25303100  1
  Ni  Ni3  1  0.65636400  0.60675900  0.25641200  1
  P  P0  1  0.42469400  0.36200700  0.25297800  1
  P  P1  1  0.42281900  0.85545200  0.25211200  1
  P  P2  1  0.57530600  0.13799300  0.75297800  1
  P  P3  1  0.57718100  0.64454800  0.75211200  1
  C  C0  1  0.07215000  0.35669600  0.74761400  1
  C  C1  1  0.07012900  0.85693000  0.74789700  1
  C  C2  1  0.92785000  0.14330400  0.24761400  1
  C  C3  1  0.92987100  0.64307000  0.24789700  1
  O  O0  1  0.06650500  0.16124800  0.24914200  1
  O  O1  1  0.06905100  0.66108200  0.24968700  1
  O  O2  1  0.13080600  0.47081800  0.75325300  1
  O  O3  1  0.12963300  0.96960700  0.74467400  1
  O  O4  1  0.17127300  0.26263400  0.74092200  1
  O  O5  1  0.17090100  0.76247100  0.75028400  1
  O  O6  1  0.33019300  0.40231800  0.06469500  1
  O  O7  1  0.33074800  0.40259800  0.44039500  1
  O  O8  1  0.32452500  0.88387400  0.06418100  1
  O  O9  1  0.32639500  0.89482900  0.43881000  1
  O  O10  1  0.42283800  0.06789800  0.74252200  1
  O  O11  1  0.42702200  0.57165400  0.75037200  1
  O  O12  1  0.46028100  0.21488700  0.25892800  1
  O  O13  1  0.45922600  0.70592000  0.25856700  1
  O  O14  1  0.53971900  0.28511300  0.75892800  1
  O  O15  1  0.54077400  0.79408000  0.75856700  1
  O  O16  1  0.57716200  0.43210200  0.24252200  1
  O  O17  1  0.57297800  0.92834600  0.25037200  1
  O  O18  1  0.66980700  0.09768200  0.56469500  1
  O  O19  1  0.66925300  0.09740200  0.94039500  1
  O  O20  1  0.67547500  0.61612600  0.56418100  1
  O  O21  1  0.67360500  0.60517100  0.93881000  1
  O  O22  1  0.82872700  0.23736600  0.24092200  1
  O  O23  1  0.82909900  0.73752900  0.25028400  1
  O  O24  1  0.86919400  0.02918200  0.25325300  1
  O  O25  1  0.87036700  0.53039300  0.24467400  1
  O  O26  1  0.93349500  0.33875200  0.74914200  1
  O  O27  1  0.93094900  0.83891800  0.74968700  1
loop_
_geom_bond_atom_site_label_1
_geom_bond_atom_site_label_2
_geom_bond_distance
_geom_bond_site_symmetry_2
Na0 O0 2.258052 1_555
Na0 O10 2.382178 1_555
Na0 O4 2.405837 1_555
Na0 O9 2.434395 1_545
Na0 O12 2.499870 1_555
Na0 O3 2.662345 1_545
Na1 O1 2.289617 1_555
Na1 O5 2.348399 1_554
Na1 O11 2.368919 1_554
Na1 O6 2.406659 1_555
Na1 O2 2.583496 1_554
Na1 O13 2.605681 1_555
Na1 O8 2.802826 1_555
Na2 O1 2.296387 1_555
Na2 O5 2.354114 1_555
Na2 O11 2.365393 1_555
Na2 O7 2.376263 1_555
Na2 O13 2.571524 1_555
Na2 O2 2.572758 1_555
Na3 O26 2.258052 1_555
Na3 O16 2.382178 1_556
Na3 O22 2.405837 1_556
Na3 O21 2.434395 1_555
Na3 O14 2.499870 1_555
Na3 O25 2.662345 1_556
Na4 O27 2.289617 1_555
Na4 O23 2.348399 1_555
Na4 O17 2.368919 1_555
Na4 O18 2.406659 1_565
Na4 O24 2.583496 1_565
Na4 O15 2.605681 1_555
Na4 O20 2.802826 1_555
Na5 O27 2.296387 1_555
Na5 O23 2.354114 1_556
Na5 O17 2.365393 1_556
Na5 O19 2.376260 1_565
Na5 O15 2.571524 1_555
Na5 O24 2.572758 1_566
Ni0 O14 1.984079 1_555
Ni0 O11 2.045602 1_555
Ni0 O4 2.060747 1_555
Ni0 O6 2.065395 1_556
Ni0 O7 2.071606 1_555
Ni0 O2 2.096420 1_555
Ni1 O10 1.958514 1_565
Ni1 O15 2.009299 1_555
Ni1 O8 2.037706 1_556
Ni1 O3 2.042894 1_555
Ni1 O5 2.069743 1_555
Ni1 O9 2.098549 1_555
Ni2 O12 1.984079 1_555
Ni2 O17 2.045602 1_545
Ni2 O22 2.060747 1_555
Ni2 O18 2.065395 1_555
Ni2 O19 2.071607 1_554
Ni2 O24 2.096420 1_555
Ni3 O16 1.958514 1_555
Ni3 O13 2.009299 1_555
Ni3 O20 2.037706 1_555
Ni3 O25 2.042894 1_555
Ni3 O23 2.069743 1_555
Ni3 O21 2.098549 1_554
C0 O26 1.249151 1_455
C0 O4 1.298954 1_555
C0 O2 1.303393 1_555
C1 O27 1.253895 1_455
C1 O3 1.292541 1_555
C1 O5 1.311024 1_555
C2 O0 1.249151 1_655
C2 O22 1.298954 1_555
C2 O24 1.303393 1_555
C3 O1 1.253895 1_655
C3 O25 1.292541 1_555
C3 O23 1.311024 1_555
O6 P0 1.549790 1_555
O7 P0 1.543338 1_555
O8 P1 1.539562 1_555
O9 P1 1.548238 1_555
O10 P2 1.552162 1_555
O11 P3 1.547115 1_555
O12 P0 1.550244 1_555
O13 P1 1.576113 1_555
O14 P2 1.550244 1_555
O15 P3 1.576113 1_555
O16 P0 1.552162 1_555
O17 P1 1.547115 1_555
O18 P2 1.549790 1_555
O19 P2 1.543343 1_555
O20 P3 1.539562 1_555
O21 P3 1.548238 1_555
