# generated using pymatgen
data_CaMnBe2Si5O17
_symmetry_space_group_name_H-M   'P 1'
_cell_length_a   8.63341100
_cell_length_b   4.77378000
_cell_length_c   32.21071973
_cell_angle_alpha   81.66499385
_cell_angle_beta   90.00000000
_cell_angle_gamma   90.00000000
_symmetry_Int_Tables_number   1
_chemical_formula_structural   CaMnBe2Si5O17
_chemical_formula_sum   'Ca4 Mn4 Be8 Si20 O68'
_cell_volume   1313.51056789
_cell_formula_units_Z   4
loop_
 _symmetry_equiv_pos_site_id
 _symmetry_equiv_pos_as_xyz
  1  'x, y, z'
loop_
 _atom_site_type_symbol
 _atom_site_label
 _atom_site_symmetry_multiplicity
 _atom_site_fract_x
 _atom_site_fract_y
 _atom_site_fract_z
 _atom_site_occupancy
  Ca  Ca0  1  0.24705500  0.91087900  0.08340800  1
  Ca  Ca1  1  0.74705500  0.08912100  0.41659200  1
  Ca  Ca2  1  0.75294500  0.08912100  0.91659200  1
  Ca  Ca3  1  0.25294500  0.91087900  0.58340800  1
  Mn  Mn0  1  0.50000000  0.00000000  0.00000000  1
  Mn  Mn1  1  0.00000000  0.00000000  0.50000000  1
  Mn  Mn2  1  0.50000000  0.00000000  0.50000000  1
  Mn  Mn3  1  0.00000000  0.00000000  0.00000000  1
  Be  Be0  1  0.50059700  0.49847700  0.05688200  1
  Be  Be1  1  0.00059700  0.50152300  0.44311800  1
  Be  Be2  1  0.49954200  0.61278100  0.44328200  1
  Be  Be3  1  0.99954200  0.38721900  0.05671800  1
  Be  Be4  1  0.49940300  0.50152300  0.94311800  1
  Be  Be5  1  0.99940300  0.49847700  0.55688200  1
  Be  Be6  1  0.50045800  0.38721900  0.55671800  1
  Be  Be7  1  0.00045800  0.61278100  0.94328200  1
  Si  Si0  1  0.24836900  0.50274300  0.99913500  1
  Si  Si1  1  0.74836900  0.49725700  0.50086500  1
  Si  Si2  1  0.75163100  0.49725700  0.00086500  1
  Si  Si3  1  0.25163100  0.50274300  0.49913500  1
  Si  Si4  1  0.92241300  0.88396200  0.22861800  1
  Si  Si5  1  0.42241300  0.11603800  0.27138200  1
  Si  Si6  1  0.07778400  0.34186500  0.27129100  1
  Si  Si7  1  0.57778400  0.65813500  0.22870900  1
  Si  Si8  1  0.07758700  0.11603800  0.77138200  1
  Si  Si9  1  0.57758700  0.88396200  0.72861800  1
  Si  Si10  1  0.92221600  0.65813500  0.72870900  1
  Si  Si11  1  0.42221600  0.34186500  0.77129100  1
  Si  Si12  1  0.36544200  0.37623300  0.86583800  1
  Si  Si13  1  0.86544200  0.62376700  0.63416200  1
  Si  Si14  1  0.63448900  0.10873400  0.63395900  1
  Si  Si15  1  0.13448900  0.89126600  0.86604100  1
  Si  Si16  1  0.63455800  0.62376700  0.13416200  1
  Si  Si17  1  0.13455800  0.37623300  0.36583800  1
  Si  Si18  1  0.36551100  0.89126600  0.36604100  1
  Si  Si19  1  0.86551100  0.10873400  0.13395900  1
  O  O0  1  0.35645400  0.34024200  0.96897700  1
  O  O1  1  0.85645400  0.65975800  0.53102300  1
  O  O2  1  0.63902700  0.26221600  0.52927600  1
  O  O3  1  0.13902700  0.73778400  0.97072400  1
  O  O4  1  0.64354600  0.65975800  0.03102300  1
  O  O5  1  0.14354600  0.34024200  0.46897700  1
  O  O6  1  0.36097300  0.73778400  0.47072400  1
  O  O7  1  0.86097300  0.26221600  0.02927600  1
  O  O8  1  0.35060600  0.67989000  0.02993300  1
  O  O9  1  0.85060600  0.32011000  0.47006700  1
  O  O10  1  0.64598900  0.75332400  0.47214200  1
  O  O11  1  0.14598900  0.24667600  0.02785800  1
  O  O12  1  0.64939400  0.32011000  0.97006700  1
  O  O13  1  0.14939400  0.67989000  0.52993300  1
  O  O14  1  0.35401100  0.24667600  0.52785800  1
  O  O15  1  0.85401100  0.75332400  0.97214200  1
  O  O16  1  0.44355800  0.84587400  0.24716000  1
  O  O17  1  0.94355800  0.15412600  0.25284000  1
  O  O18  1  0.55651400  0.34028800  0.25306700  1
  O  O19  1  0.05651400  0.65971200  0.24693300  1
  O  O20  1  0.55644200  0.15412600  0.75284000  1
  O  O21  1  0.05644200  0.84587400  0.74716000  1
  O  O22  1  0.44348600  0.65971200  0.74693300  1
  O  O23  1  0.94348600  0.34028800  0.75306700  1
  O  O24  1  0.24975000  0.24114700  0.76002700  1
  O  O25  1  0.74975000  0.75885300  0.73997300  1
  O  O26  1  0.75025000  0.75885300  0.23997300  1
  O  O27  1  0.25025000  0.24114700  0.26002700  1
  O  O28  1  0.25053000  0.11557400  0.88447500  1
  O  O29  1  0.75053000  0.88442600  0.61552500  1
  O  O30  1  0.74947000  0.88442600  0.11552500  1
  O  O31  1  0.24947000  0.11557400  0.38447500  1
  O  O32  1  0.24940400  0.64553700  0.85414800  1
  O  O33  1  0.74940400  0.35446300  0.64585200  1
  O  O34  1  0.75059600  0.35446300  0.14585200  1
  O  O35  1  0.25059600  0.64553700  0.35414800  1
  O  O36  1  0.44639500  0.31689300  0.82163300  1
  O  O37  1  0.94639500  0.68310700  0.67836700  1
  O  O38  1  0.55367800  0.96018300  0.67804900  1
  O  O39  1  0.05367800  0.03981700  0.82195100  1
  O  O40  1  0.55360500  0.68310700  0.17836700  1
  O  O41  1  0.05360500  0.31689300  0.32163300  1
  O  O42  1  0.44632200  0.03981700  0.32195100  1
  O  O43  1  0.94632200  0.96018300  0.17804900  1
  O  O44  1  0.50814100  0.42128800  0.89714100  1
  O  O45  1  0.00814100  0.57871200  0.60285900  1
  O  O46  1  0.49218300  0.21592000  0.60240300  1
  O  O47  1  0.99218300  0.78408000  0.89759700  1
  O  O48  1  0.49185900  0.57871200  0.10285900  1
  O  O49  1  0.99185900  0.42128800  0.39714100  1
  O  O50  1  0.50781700  0.78408000  0.39759700  1
  O  O51  1  0.00781700  0.21592000  0.10240300  1
  O  O52  1  0.46686600  0.17288800  0.04855600  1
  O  O53  1  0.96686600  0.82711200  0.45144400  1
  O  O54  1  0.52990300  0.27582700  0.45128500  1
  O  O55  1  0.02990300  0.72417300  0.04871500  1
  O  O56  1  0.53313400  0.82711200  0.95144400  1
  O  O57  1  0.03313400  0.17288800  0.54855600  1
  O  O58  1  0.47009700  0.72417300  0.54871500  1
  O  O59  1  0.97009700  0.27582700  0.95128500  1
  O  O60  1  0.28507600  0.23381800  0.15521100  1
  O  O61  1  0.78507600  0.76618200  0.34478900  1
  O  O62  1  0.71491100  0.54384600  0.34461900  1
  O  O63  1  0.21491100  0.45615400  0.15538100  1
  O  O64  1  0.71492400  0.76618200  0.84478900  1
  O  O65  1  0.21492400  0.23381800  0.65521100  1
  O  O66  1  0.28508900  0.45615400  0.65538100  1
  O  O67  1  0.78508900  0.54384600  0.84461900  1
loop_
_geom_bond_atom_site_label_1
_geom_bond_atom_site_label_2
_geom_bond_distance
_geom_bond_site_symmetry_2
Ca0 O8 2.352173 1_555
Ca0 O11 2.387686 1_565
Ca0 O55 2.417991 1_555
Ca0 O52 2.453351 1_565
Ca0 O51 2.649381 1_565
Ca0 O48 2.661913 1_555
Ca0 O63 2.950373 1_555
Ca0 O60 2.977800 1_565
Ca1 O9 2.352173 1_555
Ca1 O10 2.387686 1_545
Ca1 O54 2.417991 1_555
Ca1 O53 2.453351 1_545
Ca1 O50 2.649381 1_545
Ca1 O49 2.661913 1_555
Ca1 O62 2.950373 1_555
Ca1 O61 2.977800 1_545
Ca2 O12 2.352173 1_555
Ca2 O15 2.387686 1_545
Ca2 O59 2.417991 1_555
Ca2 O56 2.453351 1_545
Ca2 O47 2.649381 1_545
Ca2 O44 2.661913 1_555
Ca2 O67 2.950373 1_555
Ca2 O64 2.977800 1_545
Ca3 O13 2.352173 1_555
Ca3 O14 2.387686 1_565
Ca3 O58 2.417991 1_555
Ca3 O57 2.453351 1_565
Ca3 O46 2.649381 1_565
Ca3 O45 2.661913 1_555
Ca3 O66 2.950373 1_555
Ca3 O65 2.977800 1_565
Mn0 O52 1.892990 1_555
Mn0 O56 1.892990 1_544
Mn0 O8 2.121598 1_545
Mn0 O12 2.121598 1_554
Mn0 O0 2.168407 1_554
Mn0 O4 2.168407 1_545
Mn1 O53 1.892990 1_445
Mn1 O57 1.892990 1_555
Mn1 O13 2.121598 1_545
Mn1 O9 2.121598 1_455
Mn1 O1 2.168407 1_445
Mn1 O5 2.168407 1_555
Mn2 O58 1.914064 1_545
Mn2 O54 1.914064 1_555
Mn2 O10 2.021583 1_545
Mn2 O14 2.021583 1_555
Mn2 O2 2.058895 1_555
Mn2 O6 2.058895 1_545
Mn3 O59 1.914064 1_454
Mn3 O55 1.914064 1_545
Mn3 O11 2.021583 1_555
Mn3 O15 2.021583 1_444
Mn3 O3 2.058895 1_544
Mn3 O7 2.058895 1_455
Be0 O48 1.584321 1_555
Be0 O4 1.619794 1_555
Be0 O52 1.641158 1_555
Be0 O8 1.721166 1_555
Be1 O49 1.584321 1_455
Be1 O5 1.619794 1_555
Be1 O53 1.641158 1_455
Be1 O9 1.721166 1_455
Be2 O50 1.578094 1_555
Be2 O54 1.613182 1_555
Be2 O6 1.649708 1_555
Be2 O10 1.758881 1_555
Be3 O51 1.578094 1_655
Be3 O55 1.613182 1_655
Be3 O7 1.649708 1_555
Be3 O11 1.758881 1_655
Be4 O44 1.584321 1_555
Be4 O0 1.619794 1_555
Be4 O56 1.641158 1_555
Be4 O12 1.721166 1_555
Be5 O45 1.584321 1_655
Be5 O1 1.619794 1_555
Be5 O57 1.641158 1_655
Be5 O13 1.721166 1_655
Be6 O46 1.578094 1_555
Be6 O58 1.613182 1_555
Be6 O2 1.649708 1_555
Be6 O14 1.758881 1_555
Be7 O47 1.578094 1_455
Be7 O59 1.613182 1_455
Be7 O3 1.649708 1_555
Be7 O15 1.758881 1_455
O0 Si0 1.623160 1_555
O1 Si1 1.623160 1_555
O2 Si1 1.640082 1_555
O3 Si0 1.640082 1_555
O4 Si2 1.623160 1_555
O5 Si3 1.623160 1_555
O6 Si3 1.640082 1_555
O7 Si2 1.640082 1_555
O8 Si0 1.649714 1_554
O9 Si1 1.649714 1_555
O10 Si1 1.674403 1_555
O11 Si0 1.674403 1_554
O12 Si2 1.649714 1_556
O13 Si3 1.649714 1_555
O14 Si3 1.674403 1_555
O15 Si2 1.674403 1_556
O16 Si5 1.611557 1_565
O16 Si7 1.629031 1_555
O17 Si4 1.611557 1_545
O17 Si6 1.629031 1_655
O18 Si7 1.614450 1_555
O18 Si5 1.628290 1_555
O19 Si6 1.614450 1_555
O19 Si4 1.628290 1_455
O20 Si9 1.611557 1_545
O20 Si11 1.629031 1_555
O21 Si8 1.611557 1_565
O21 Si10 1.629031 1_455
O22 Si11 1.614450 1_555
O22 Si9 1.628290 1_555
O23 Si10 1.614450 1_555
O23 Si8 1.628290 1_655
O24 Si11 1.621857 1_555
O24 Si8 1.623697 1_555
O25 Si10 1.621857 1_555
O25 Si9 1.623697 1_555
O26 Si7 1.621857 1_555
O26 Si4 1.623697 1_555
O27 Si6 1.621857 1_555
O27 Si5 1.623697 1_555
O28 Si12 1.635967 1_555
O28 Si15 1.639259 1_545
O29 Si13 1.635967 1_555
O29 Si14 1.639259 1_565
O30 Si16 1.635967 1_555
O30 Si19 1.639259 1_565
O31 Si17 1.635967 1_555
O31 Si18 1.639259 1_545
O32 Si15 1.624000 1_555
O32 Si12 1.630280 1_555
O33 Si14 1.624000 1_555
O33 Si13 1.630280 1_555
O34 Si19 1.624000 1_555
O34 Si16 1.630280 1_555
O35 Si18 1.624000 1_555
O35 Si17 1.630280 1_555
O36 Si11 1.622089 1_555
O36 Si12 1.647139 1_555
O37 Si10 1.622089 1_555
O37 Si13 1.647139 1_555
O38 Si9 1.629837 1_555
O38 Si14 1.647587 1_565
O39 Si8 1.629837 1_555
O39 Si15 1.647587 1_545
O40 Si7 1.622089 1_555
O40 Si16 1.647139 1_555
O41 Si6 1.622089 1_555
O41 Si17 1.647139 1_555
O42 Si5 1.629837 1_555
O42 Si18 1.647587 1_545
O43 Si4 1.629837 1_555
O43 Si19 1.647587 1_565
O44 Si12 1.625903 1_555
O45 Si13 1.625903 1_455
O46 Si14 1.628990 1_555
O47 Si15 1.628990 1_655
O48 Si16 1.625903 1_555
O49 Si17 1.625903 1_655
O50 Si18 1.628990 1_555
O51 Si19 1.628990 1_455
O60 O63 1.222783 1_555
O61 O62 1.222783 1_555
O64 O67 1.222783 1_555
O65 O66 1.222783 1_555
