# generated using pymatgen
data_NiH48C18S6(N7O3)2
_symmetry_space_group_name_H-M   'P 1'
_cell_length_a   14.08049085
_cell_length_b   14.08049085
_cell_length_c   14.79477943
_cell_angle_alpha   61.58463378
_cell_angle_beta   61.58463378
_cell_angle_gamma   59.99999947
_symmetry_Int_Tables_number   1
_chemical_formula_structural   NiH48C18S6(N7O3)2
_chemical_formula_sum   'Ni2 H96 C36 S12 N28 O12'
_cell_volume   2122.39460958
_cell_formula_units_Z   2
loop_
 _symmetry_equiv_pos_site_id
 _symmetry_equiv_pos_as_xyz
  1  'x, y, z'
loop_
 _atom_site_type_symbol
 _atom_site_label
 _atom_site_symmetry_multiplicity
 _atom_site_fract_x
 _atom_site_fract_y
 _atom_site_fract_z
 _atom_site_occupancy
  Ni  Ni0  1  0.24999700  0.25000000  0.25000300  1
  Ni  Ni1  1  0.74999700  0.75000000  0.75000300  1
  H  H0  1  0.41816927  0.03370863  0.17954828  1
  H  H1  1  0.03370863  0.36857383  0.17954828  1
  H  H2  1  0.36857383  0.41816927  0.17954828  1
  H  H3  1  0.91816927  0.86857383  0.67954828  1
  H  H4  1  0.86857383  0.53370863  0.67954828  1
  H  H5  1  0.53370863  0.91816927  0.67954828  1
  H  H6  1  0.58183073  0.96629137  0.82045172  1
  H  H7  1  0.96629137  0.63142617  0.82045172  1
  H  H8  1  0.63142617  0.58183073  0.82045172  1
  H  H9  1  0.08183073  0.13142617  0.32045172  1
  H  H10  1  0.13142617  0.46629137  0.32045172  1
  H  H11  1  0.46629137  0.08183073  0.32045172  1
  H  H12  1  0.38104241  0.76796117  0.35756072  1
  H  H13  1  0.76796117  0.49343570  0.35756072  1
  H  H14  1  0.49343570  0.38104241  0.35756072  1
  H  H15  1  0.88104241  0.99343570  0.85756072  1
  H  H16  1  0.99343570  0.26796117  0.85756072  1
  H  H17  1  0.26796117  0.88104241  0.85756072  1
  H  H18  1  0.61895759  0.23203883  0.64243928  1
  H  H19  1  0.23203883  0.50656430  0.64243928  1
  H  H20  1  0.50656430  0.61895759  0.64243928  1
  H  H21  1  0.11895759  0.00656430  0.14243928  1
  H  H22  1  0.00656430  0.73203883  0.14243928  1
  H  H23  1  0.73203883  0.11895759  0.14243928  1
  H  H24  1  0.52287939  0.79299836  0.19901884  1
  H  H25  1  0.79299836  0.48510341  0.19901884  1
  H  H26  1  0.48510341  0.52287939  0.19901884  1
  H  H27  1  0.02287939  0.98510341  0.69901884  1
  H  H28  1  0.98510341  0.29299836  0.69901884  1
  H  H29  1  0.29299836  0.02287939  0.69901884  1
  H  H30  1  0.47712061  0.20700164  0.80098116  1
  H  H31  1  0.20700164  0.51489659  0.80098116  1
  H  H32  1  0.51489659  0.47712061  0.80098116  1
  H  H33  1  0.97712061  0.01489659  0.30098116  1
  H  H34  1  0.01489659  0.70700164  0.30098116  1
  H  H35  1  0.70700164  0.97712061  0.30098116  1
  H  H36  1  0.49460796  0.91042844  0.08166129  1
  H  H37  1  0.91042844  0.51330230  0.08166129  1
  H  H38  1  0.51330230  0.49460796  0.08166129  1
  H  H39  1  0.99460796  0.01330230  0.58166129  1
  H  H40  1  0.01330230  0.41042844  0.58166129  1
  H  H41  1  0.41042844  0.99460796  0.58166129  1
  H  H42  1  0.50539204  0.08957156  0.91833871  1
  H  H43  1  0.08957156  0.48669770  0.91833871  1
  H  H44  1  0.48669770  0.50539204  0.91833871  1
  H  H45  1  0.00539204  0.98669770  0.41833871  1
  H  H46  1  0.98669770  0.58957156  0.41833871  1
  H  H47  1  0.58957156  0.00539204  0.41833871  1
  H  H48  1  0.38859060  0.84629674  0.17704692  1
  H  H49  1  0.84629674  0.58806574  0.17704692  1
  H  H50  1  0.58806574  0.38859060  0.17704692  1
  H  H51  1  0.88859060  0.08806574  0.67704692  1
  H  H52  1  0.08806574  0.34629674  0.67704692  1
  H  H53  1  0.34629674  0.88859060  0.67704692  1
  H  H54  1  0.61140940  0.15370326  0.82295308  1
  H  H55  1  0.15370326  0.41193426  0.82295308  1
  H  H56  1  0.41193426  0.61140940  0.82295308  1
  H  H57  1  0.11140940  0.91193426  0.32295308  1
  H  H58  1  0.91193426  0.65370326  0.32295308  1
  H  H59  1  0.65370326  0.11140940  0.32295308  1
  H  H60  1  0.28528627  0.83466273  0.54819594  1
  H  H61  1  0.83466273  0.33185506  0.54819594  1
  H  H62  1  0.33185506  0.28528627  0.54819594  1
  H  H63  1  0.78528627  0.83185506  0.04819594  1
  H  H64  1  0.83185506  0.33466273  0.04819594  1
  H  H65  1  0.33466273  0.78528627  0.04819594  1
  H  H66  1  0.71471373  0.16533727  0.45180406  1
  H  H67  1  0.16533727  0.66814494  0.45180406  1
  H  H68  1  0.66814494  0.71471373  0.45180406  1
  H  H69  1  0.21471373  0.16814494  0.95180406  1
  H  H70  1  0.16814494  0.66533727  0.95180406  1
  H  H71  1  0.66533727  0.21471373  0.95180406  1
  H  H72  1  0.28510990  0.71515998  0.53566370  1
  H  H73  1  0.71515998  0.46406641  0.53566370  1
  H  H74  1  0.46406641  0.28510990  0.53566370  1
  H  H75  1  0.78510990  0.96406641  0.03566370  1
  H  H76  1  0.96406641  0.21515998  0.03566370  1
  H  H77  1  0.21515998  0.78510990  0.03566370  1
  H  H78  1  0.71489010  0.28484002  0.46433630  1
  H  H79  1  0.28484002  0.53593359  0.46433630  1
  H  H80  1  0.53593359  0.71489010  0.46433630  1
  H  H81  1  0.21489010  0.03593359  0.96433630  1
  H  H82  1  0.03593359  0.78484002  0.96433630  1
  H  H83  1  0.78484002  0.21489010  0.96433630  1
  H  H84  1  0.17239924  0.85267244  0.51188793  1
  H  H85  1  0.85267244  0.46304039  0.51188793  1
  H  H86  1  0.46304039  0.17239924  0.51188793  1
  H  H87  1  0.67239924  0.96304039  0.01188793  1
  H  H88  1  0.96304039  0.35267244  0.01188793  1
  H  H89  1  0.35267244  0.67239924  0.01188793  1
  H  H90  1  0.82760076  0.14732756  0.48811207  1
  H  H91  1  0.14732756  0.53695961  0.48811207  1
  H  H92  1  0.53695961  0.82760076  0.48811207  1
  H  H93  1  0.32760076  0.03695961  0.98811207  1
  H  H94  1  0.03695961  0.64732756  0.98811207  1
  H  H95  1  0.64732756  0.32760076  0.98811207  1
  C  C0  1  0.34603664  0.93901504  0.32821607  1
  C  C1  1  0.93901504  0.38673225  0.32821607  1
  C  C2  1  0.38673225  0.34603664  0.32821607  1
  C  C3  1  0.84603664  0.88673225  0.82821607  1
  C  C4  1  0.88673225  0.43901504  0.82821607  1
  C  C5  1  0.43901504  0.84603664  0.82821607  1
  C  C6  1  0.65396336  0.06098496  0.67178393  1
  C  C7  1  0.06098496  0.61326775  0.67178393  1
  C  C8  1  0.61326775  0.65396336  0.67178393  1
  C  C9  1  0.15396336  0.11326775  0.17178393  1
  C  C10  1  0.11326775  0.56098496  0.17178393  1
  C  C11  1  0.56098496  0.15396336  0.17178393  1
  C  C12  1  0.45592382  0.87147845  0.16793332  1
  C  C13  1  0.87147845  0.50466441  0.16793332  1
  C  C14  1  0.50466441  0.45592382  0.16793332  1
  C  C15  1  0.95592382  0.00466441  0.66793332  1
  C  C16  1  0.00466441  0.37147845  0.66793332  1
  C  C17  1  0.37147845  0.95592382  0.66793332  1
  C  C18  1  0.54407618  0.12852155  0.83206668  1
  C  C19  1  0.12852155  0.49533559  0.83206668  1
  C  C20  1  0.49533559  0.54407618  0.83206668  1
  C  C21  1  0.04407618  0.99533559  0.33206668  1
  C  C22  1  0.99533559  0.62852155  0.33206668  1
  C  C23  1  0.62852155  0.04407618  0.33206668  1
  C  C24  1  0.26517593  0.80855556  0.50221394  1
  C  C25  1  0.80855556  0.42405457  0.50221394  1
  C  C26  1  0.42405457  0.26517593  0.50221394  1
  C  C27  1  0.76517593  0.92405457  0.00221394  1
  C  C28  1  0.92405457  0.30855556  0.00221394  1
  C  C29  1  0.30855556  0.76517593  0.00221394  1
  C  C30  1  0.73482407  0.19144444  0.49778606  1
  C  C31  1  0.19144444  0.57594543  0.49778606  1
  C  C32  1  0.57594543  0.73482407  0.49778606  1
  C  C33  1  0.23482407  0.07594543  0.99778606  1
  C  C34  1  0.07594543  0.69144444  0.99778606  1
  C  C35  1  0.69144444  0.23482407  0.99778606  1
  S  S0  1  0.28551109  0.04662766  0.38505659  1
  S  S1  1  0.04662766  0.28280466  0.38505659  1
  S  S2  1  0.28280466  0.28551109  0.38505659  1
  S  S3  1  0.78551109  0.78280466  0.88505659  1
  S  S4  1  0.78280466  0.54662766  0.88505659  1
  S  S5  1  0.54662766  0.78551109  0.88505659  1
  S  S6  1  0.71448891  0.95337234  0.61494341  1
  S  S7  1  0.95337234  0.71719534  0.61494341  1
  S  S8  1  0.71719534  0.71448891  0.61494341  1
  S  S9  1  0.21448891  0.21719534  0.11494341  1
  S  S10  1  0.21719534  0.45337234  0.11494341  1
  S  S11  1  0.45337234  0.21448891  0.11494341  1
  N  N0  1  0.40777233  0.95544769  0.22287055  1
  N  N1  1  0.95544769  0.41390942  0.22287055  1
  N  N2  1  0.41390942  0.40777233  0.22287055  1
  N  N3  1  0.90777233  0.91390942  0.72287055  1
  N  N4  1  0.91390942  0.45544769  0.72287055  1
  N  N5  1  0.45544769  0.90777233  0.72287055  1
  N  N6  1  0.59222767  0.04455231  0.77712945  1
  N  N7  1  0.04455231  0.58609058  0.77712945  1
  N  N8  1  0.58609058  0.59222767  0.77712945  1
  N  N9  1  0.09222767  0.08609058  0.27712945  1
  N  N10  1  0.08609058  0.54455231  0.27712945  1
  N  N11  1  0.54455231  0.09222767  0.27712945  1
  N  N12  1  0.33390768  0.83592503  0.38874627  1
  N  N13  1  0.83592503  0.44142102  0.38874627  1
  N  N14  1  0.44142102  0.33390768  0.38874627  1
  N  N15  1  0.83390768  0.94142102  0.88874627  1
  N  N16  1  0.94142102  0.33592503  0.88874627  1
  N  N17  1  0.33592503  0.83390768  0.88874627  1
  N  N18  1  0.66609232  0.16407497  0.61125373  1
  N  N19  1  0.16407497  0.55857898  0.61125373  1
  N  N20  1  0.55857898  0.66609232  0.61125373  1
  N  N21  1  0.16609232  0.05857898  0.11125373  1
  N  N22  1  0.05857898  0.66407497  0.11125373  1
  N  N23  1  0.66407497  0.16609232  0.11125373  1
  N  N24  1  0.55267445  0.55267445  0.34197665  1
  N  N25  1  0.05267445  0.05267445  0.84197665  1
  N  N26  1  0.44732555  0.44732555  0.65802335  1
  N  N27  1  0.94732555  0.94732555  0.15802335  1
  O  O0  1  0.61129846  0.59817159  0.34171623  1
  O  O1  1  0.59817159  0.44881372  0.34171623  1
  O  O2  1  0.44881372  0.61129846  0.34171623  1
  O  O3  1  0.11129846  0.94881372  0.84171623  1
  O  O4  1  0.94881372  0.09817159  0.84171623  1
  O  O5  1  0.09817159  0.11129846  0.84171623  1
  O  O6  1  0.38870154  0.40182841  0.65828377  1
  O  O7  1  0.40182841  0.55118628  0.65828377  1
  O  O8  1  0.55118628  0.38870154  0.65828377  1
  O  O9  1  0.88870154  0.05118628  0.15828377  1
  O  O10  1  0.05118628  0.90182841  0.15828377  1
  O  O11  1  0.90182841  0.88870154  0.15828377  1
loop_
_geom_bond_atom_site_label_1
_geom_bond_atom_site_label_2
_geom_bond_distance
_geom_bond_site_symmetry_2
Ni0 S1 2.552624 1_555
Ni0 S2 2.552652 1_555
Ni0 S0 2.552652 1_555
Ni0 S9 2.552682 1_555
Ni0 S10 2.552682 1_555
Ni0 S11 2.552710 1_555
Ni1 S5 2.552624 1_555
Ni1 S4 2.552652 1_555
Ni1 S3 2.552652 1_555
Ni1 S6 2.552682 1_555
Ni1 S8 2.552682 1_555
Ni1 S7 2.552710 1_555
H0 N0 1.022921 1_545
H1 N1 1.022921 1_455
H2 N2 1.022921 1_555
H3 N3 1.022921 1_555
H4 N4 1.022921 1_555
H5 N5 1.022921 1_555
H6 N6 1.022921 1_565
H7 N7 1.022921 1_655
H8 N8 1.022921 1_555
H9 N9 1.022921 1_555
H10 N10 1.022921 1_555
H11 N11 1.022921 1_555
H12 N12 1.030918 1_555
H13 N13 1.030918 1_555
H14 N14 1.030918 1_555
H15 N15 1.030918 1_555
H16 N16 1.030918 1_555
H17 N17 1.030918 1_555
H18 N18 1.030918 1_555
H19 N19 1.030918 1_555
H20 N20 1.030918 1_555
H21 N21 1.030918 1_555
H22 N22 1.030918 1_555
H23 N23 1.030918 1_555
C0 N12 1.342889 1_555
C0 N0 1.344175 1_555
C0 S0 1.723001 1_565
C1 N13 1.342889 1_555
C1 N1 1.344175 1_555
C1 S1 1.723001 1_655
C2 N14 1.342889 1_555
C2 N2 1.344175 1_555
C2 S2 1.723001 1_555
C3 N15 1.342889 1_555
C3 N3 1.344175 1_555
C3 S3 1.723001 1_555
C4 N16 1.342889 1_555
C4 N4 1.344175 1_555
C4 S4 1.723001 1_555
C5 N17 1.342889 1_555
C5 N5 1.344175 1_555
C5 S5 1.723001 1_555
C6 N18 1.342889 1_555
C6 N6 1.344175 1_555
C6 S6 1.723001 1_545
C7 N19 1.342889 1_555
C7 N7 1.344175 1_555
C7 S7 1.723001 1_455
C8 N20 1.342889 1_555
C8 N8 1.344175 1_555
C8 S8 1.723001 1_555
C9 N21 1.342889 1_555
C9 N9 1.344175 1_555
C9 S9 1.723001 1_555
C10 N22 1.342889 1_555
C10 N10 1.344175 1_555
C10 S10 1.723001 1_555
C11 N23 1.342889 1_555
C11 N11 1.344175 1_555
C11 S11 1.723001 1_555
C12 H36 1.094283 1_555
C12 H24 1.099368 1_555
C12 H48 1.100803 1_555
C12 N0 1.451449 1_555
C13 H37 1.094283 1_555
C13 H25 1.099368 1_555
C13 H49 1.100803 1_555
C13 N1 1.451449 1_555
C14 H38 1.094283 1_555
C14 H26 1.099368 1_555
C14 H50 1.100803 1_555
C14 N2 1.451449 1_555
C15 H39 1.094283 1_555
C15 H27 1.099368 1_645
C15 H51 1.100803 1_555
C15 N3 1.451449 1_545
C16 H40 1.094283 1_555
C16 H28 1.099368 1_455
C16 H52 1.100803 1_555
C16 N4 1.451449 1_455
C17 H41 1.094283 1_555
C17 H29 1.099368 1_565
C17 H53 1.100803 1_555
C17 N5 1.451449 1_555
C18 H42 1.094283 1_555
C18 H30 1.099368 1_555
C18 H54 1.100803 1_555
C18 N6 1.451449 1_555
C19 H43 1.094283 1_555
C19 H31 1.099368 1_555
C19 H55 1.100803 1_555
C19 N7 1.451449 1_555
C20 H44 1.094283 1_555
C20 H32 1.099368 1_555
C20 H56 1.100803 1_555
C20 N8 1.451449 1_555
C21 H45 1.094283 1_555
C21 H33 1.099368 1_465
C21 H57 1.100803 1_555
C21 N9 1.451449 1_565
C22 H46 1.094283 1_555
C22 H34 1.099368 1_655
C22 H58 1.100803 1_555
C22 N10 1.451449 1_655
C23 H47 1.094283 1_555
C23 H35 1.099368 1_545
C23 H59 1.100803 1_555
C23 N11 1.451449 1_555
C24 H72 1.093970 1_555
C24 H60 1.097060 1_555
C24 H84 1.099125 1_555
C24 N12 1.454060 1_555
C25 H73 1.093970 1_555
C25 H61 1.097060 1_555
C25 H85 1.099125 1_555
C25 N13 1.454060 1_555
C26 H74 1.093970 1_555
C26 H62 1.097060 1_555
C26 H86 1.099125 1_555
C26 N14 1.454060 1_555
C27 H75 1.093970 1_555
C27 H63 1.097060 1_555
C27 H87 1.099125 1_555
C27 N15 1.454060 1_554
C28 H76 1.093970 1_555
C28 H64 1.097060 1_555
C28 H88 1.099125 1_555
C28 N16 1.454060 1_554
C29 H77 1.093970 1_555
C29 H65 1.097060 1_555
C29 H89 1.099125 1_555
C29 N17 1.454060 1_554
C30 H78 1.093970 1_555
C30 H66 1.097060 1_555
C30 H90 1.099125 1_555
C30 N18 1.454060 1_555
C31 H79 1.093970 1_555
C31 H67 1.097060 1_555
C31 H91 1.099125 1_555
C31 N19 1.454060 1_555
C32 H80 1.093970 1_555
C32 H68 1.097060 1_555
C32 H92 1.099125 1_555
C32 N20 1.454060 1_555
C33 H81 1.093970 1_555
C33 H69 1.097060 1_555
C33 H93 1.099125 1_555
C33 N21 1.454060 1_556
C34 H82 1.093970 1_555
C34 H70 1.097060 1_555
C34 H94 1.099125 1_555
C34 N22 1.454060 1_556
C35 H83 1.093970 1_555
C35 H71 1.097060 1_555
C35 H95 1.099125 1_555
C35 N23 1.454060 1_556
N24 O2 1.270911 1_555
N24 O1 1.270911 1_555
N24 O0 1.270911 1_555
N25 O3 1.270911 1_545
N25 O4 1.270911 1_455
N25 O5 1.270911 1_555
N26 O8 1.270911 1_555
N26 O7 1.270911 1_555
N26 O6 1.270911 1_555
N27 O9 1.270911 1_565
N27 O10 1.270911 1_655
N27 O11 1.270911 1_555
