# generated using pymatgen
data_ErPt
_symmetry_space_group_name_H-M   'P 1'
_cell_length_a   4.48868507
_cell_length_b   6.89393831
_cell_length_c   5.48298426
_cell_angle_alpha   90.00000000
_cell_angle_beta   90.00000000
_cell_angle_gamma   90.00000000
_symmetry_Int_Tables_number   1
_chemical_formula_structural   ErPt
_chemical_formula_sum   'Er4 Pt4'
_cell_volume   169.66940154
_cell_formula_units_Z   4
loop_
 _symmetry_equiv_pos_site_id
 _symmetry_equiv_pos_as_xyz
  1  'x, y, z'
loop_
 _atom_site_type_symbol
 _atom_site_label
 _atom_site_symmetry_multiplicity
 _atom_site_fract_x
 _atom_site_fract_y
 _atom_site_fract_z
 _atom_site_occupancy
  Er  Er0  1  0.75000000  0.81785049  0.35883790  1
  Er  Er1  1  0.25000000  0.18214951  0.64116210  1
  Er  Er2  1  0.25000000  0.68214951  0.85883790  1
  Er  Er3  1  0.75000000  0.31785049  0.14116210  1
  Pt  Pt0  1  0.75000000  0.95648512  0.84387468  1
  Pt  Pt1  1  0.25000000  0.04351488  0.15612532  1
  Pt  Pt2  1  0.25000000  0.54351488  0.34387468  1
  Pt  Pt3  1  0.75000000  0.45648512  0.65612532  1
loop_
_geom_bond_atom_site_label_1
_geom_bond_atom_site_label_2
_geom_bond_distance
_geom_bond_site_symmetry_2
Er0 Pt0 2.825970 1_555
Er0 Pt2 2.936093 1_555
Er0 Pt2 2.936093 1_655
Er0 Pt1 2.948337 1_665
Er0 Pt1 2.948337 1_565
Er0 Pt3 2.977113 1_555
Er0 Pt0 2.980904 1_554
Er1 Pt1 2.825970 1_555
Er1 Pt3 2.936093 1_455
Er1 Pt3 2.936093 1_555
Er1 Pt0 2.948337 1_545
Er1 Pt0 2.948337 1_445
Er1 Pt2 2.977113 1_555
Er1 Pt1 2.980904 1_556
Er2 Pt2 2.825970 1_556
Er2 Pt0 2.936093 1_455
Er2 Pt0 2.936093 1_555
Er2 Pt3 2.948337 1_555
Er2 Pt3 2.948337 1_455
Er2 Pt1 2.977113 1_566
Er2 Pt2 2.980904 1_555
Er3 Pt3 2.825970 1_554
Er3 Pt1 2.936093 1_555
Er3 Pt1 2.936093 1_655
Er3 Pt2 2.948337 1_555
Er3 Pt2 2.948337 1_655
Er3 Pt0 2.977113 1_544
Er3 Pt3 2.980904 1_555
