# generated using pymatgen
data_Nd2S3O17
_symmetry_space_group_name_H-M   'P 1'
_cell_length_a   9.47133286
_cell_length_b   9.47133286
_cell_length_c   10.18954888
_cell_angle_alpha   63.70142619
_cell_angle_beta   63.70142619
_cell_angle_gamma   65.08668949
_symmetry_Int_Tables_number   1
_chemical_formula_structural   Nd2S3O17
_chemical_formula_sum   'Nd4 S6 O34'
_cell_volume   705.27792856
_cell_formula_units_Z   2
loop_
 _symmetry_equiv_pos_site_id
 _symmetry_equiv_pos_as_xyz
  1  'x, y, z'
loop_
 _atom_site_type_symbol
 _atom_site_label
 _atom_site_symmetry_multiplicity
 _atom_site_fract_x
 _atom_site_fract_y
 _atom_site_fract_z
 _atom_site_occupancy
  Nd  Nd0  1  0.51336800  0.25564000  0.07424400  1
  Nd  Nd1  1  0.74804500  0.48349400  0.42280000  1
  Nd  Nd2  1  0.48349400  0.74804500  0.92280000  1
  Nd  Nd3  1  0.25564000  0.51336800  0.57424400  1
  S  S0  1  0.62449000  0.37815500  0.24656200  1
  S  S1  1  0.37815500  0.62449000  0.74656200  1
  S  S2  1  0.43446600  0.84987400  0.26162500  1
  S  S3  1  0.14919500  0.56669100  0.23661900  1
  S  S4  1  0.56669100  0.14919500  0.73661900  1
  S  S5  1  0.84987400  0.43446600  0.76162500  1
  O  O0  1  0.02178600  0.11410100  0.42943200  1
  O  O1  1  0.88227600  0.96649200  0.00344300  1
  O  O2  1  0.96649200  0.88227600  0.50344300  1
  O  O3  1  0.11410100  0.02178600  0.92943200  1
  O  O4  1  0.72913900  0.75547200  0.41800400  1
  O  O5  1  0.24509000  0.26397200  0.07986700  1
  O  O6  1  0.26397200  0.24509000  0.57986700  1
  O  O7  1  0.75547200  0.72913900  0.91800400  1
  O  O8  1  0.41688400  0.85413900  0.12240800  1
  O  O9  1  0.14769300  0.57921200  0.37703100  1
  O  O10  1  0.57921200  0.14769300  0.87703100  1
  O  O11  1  0.85413900  0.41688400  0.62240800  1
  O  O12  1  0.60451400  0.74496300  0.26884800  1
  O  O13  1  0.25301800  0.39752800  0.22627000  1
  O  O14  1  0.39752800  0.25301800  0.72627000  1
  O  O15  1  0.74496300  0.60451400  0.76884800  1
  O  O16  1  0.55655400  0.48782800  0.11427600  1
  O  O17  1  0.51581000  0.43752100  0.38421900  1
  O  O18  1  0.43752100  0.51581000  0.88421900  1
  O  O19  1  0.48782800  0.55655400  0.61427600  1
  O  O20  1  0.62074200  0.21219900  0.27622000  1
  O  O21  1  0.78794100  0.38968900  0.21295600  1
  O  O22  1  0.38968900  0.78794100  0.71295600  1
  O  O23  1  0.21219900  0.62074200  0.77622000  1
  O  O24  1  0.30903800  0.78308100  0.40142500  1
  O  O25  1  0.21467200  0.69395100  0.09828300  1
  O  O26  1  0.69395100  0.21467200  0.59828300  1
  O  O27  1  0.78308100  0.30903800  0.90142500  1
  O  O28  1  0.41773500  0.01869300  0.24863700  1
  O  O29  1  0.97988300  0.58525800  0.24994100  1
  O  O30  1  0.58525800  0.97988300  0.74994100  1
  O  O31  1  0.01869300  0.41773500  0.74863700  1
  O  O32  1  0.96712700  0.02597700  0.40668800  1
  O  O33  1  0.02597700  0.96712700  0.90668800  1
loop_
_geom_bond_atom_site_label_1
_geom_bond_atom_site_label_2
_geom_bond_distance
_geom_bond_site_symmetry_2
Nd0 O10 2.375972 1_554
Nd0 O28 2.401504 1_555
Nd0 O18 2.418804 1_554
Nd0 O13 2.440115 1_555
Nd0 O5 2.484352 1_555
Nd0 O20 2.488134 1_555
Nd0 O27 2.489112 1_554
Nd0 O16 2.621146 1_555
Nd1 O11 2.384206 1_555
Nd1 O29 2.388441 1_555
Nd1 O19 2.420397 1_555
Nd1 O12 2.460227 1_555
Nd1 O4 2.485516 1_555
Nd1 O21 2.487703 1_555
Nd1 O26 2.489085 1_555
Nd1 O17 2.628129 1_555
Nd2 O8 2.384206 1_556
Nd2 O30 2.388441 1_555
Nd2 O16 2.420397 1_556
Nd2 O15 2.460227 1_555
Nd2 O7 2.485516 1_555
Nd2 O22 2.487703 1_555
Nd2 O25 2.489085 1_556
Nd2 O18 2.628129 1_555
Nd3 O9 2.375972 1_555
Nd3 O31 2.401504 1_555
Nd3 O17 2.418804 1_555
Nd3 O14 2.440115 1_555
Nd3 O6 2.484352 1_555
Nd3 O23 2.488134 1_555
Nd3 O24 2.489112 1_555
Nd3 O19 2.621146 1_555
O0 O32 1.288450 1_455
O1 O33 1.279488 1_654
O2 O32 1.279488 1_565
O3 O33 1.288450 1_545
O8 S2 1.481400 1_555
O9 S3 1.480594 1_555
O10 S4 1.480594 1_555
O11 S5 1.481400 1_555
O12 S2 1.509528 1_555
O13 S3 1.508507 1_555
O14 S4 1.508507 1_555
O15 S5 1.509528 1_555
O16 S0 1.508208 1_555
O17 S0 1.508321 1_555
O18 S1 1.508321 1_555
O19 S1 1.508208 1_555
O20 S0 1.476421 1_555
O21 S0 1.471530 1_555
O22 S1 1.471530 1_555
O23 S1 1.476421 1_555
O24 S2 1.475062 1_555
O25 S3 1.474447 1_555
O26 S4 1.474447 1_555
O27 S5 1.475062 1_555
O28 S2 1.488909 1_545
O29 S3 1.487144 1_655
O30 S4 1.487144 1_565
O31 S5 1.488909 1_455
