# generated using pymatgen
data_Rb2GeF6
_symmetry_space_group_name_H-M   'P 1'
_cell_length_a   5.89632919
_cell_length_b   5.89632713
_cell_length_c   9.57353483
_cell_angle_alpha   89.99998137
_cell_angle_beta   90.00003717
_cell_angle_gamma   119.99967456
_symmetry_Int_Tables_number   1
_chemical_formula_structural   Rb2GeF6
_chemical_formula_sum   'Rb4 Ge2 F12'
_cell_volume   288.24890723
_cell_formula_units_Z   2
loop_
 _symmetry_equiv_pos_site_id
 _symmetry_equiv_pos_as_xyz
  1  'x, y, z'
loop_
 _atom_site_type_symbol
 _atom_site_label
 _atom_site_symmetry_multiplicity
 _atom_site_fract_x
 _atom_site_fract_y
 _atom_site_fract_z
 _atom_site_occupancy
  Rb  Rb0  1  0.99999810  0.00000190  0.09578043  1
  Rb  Rb1  1  0.00000190  0.99999810  0.59577943  1
  Rb  Rb2  1  0.66666975  0.33333025  0.37382784  1
  Rb  Rb3  1  0.33333125  0.66666975  0.87382784  1
  Ge  Ge0  1  0.66666661  0.33333339  0.75700231  1
  Ge  Ge1  1  0.33333339  0.66666661  0.25700231  1
  F  F0  1  0.52256492  0.47743508  0.64594033  1
  F  F1  1  0.04512925  0.52256445  0.14593995  1
  F  F2  1  0.47743555  0.95487175  0.14593995  1
  F  F3  1  0.52256445  0.04512925  0.64593995  1
  F  F4  1  0.95487075  0.47743555  0.64593995  1
  F  F5  1  0.47743508  0.52256492  0.14594033  1
  F  F6  1  0.18583176  0.81416824  0.36185642  1
  F  F7  1  0.37166523  0.18583894  0.86185688  1
  F  F8  1  0.81416106  0.62833377  0.86185588  1
  F  F9  1  0.18583894  0.37166623  0.36185688  1
  F  F10  1  0.62833377  0.81416106  0.36185688  1
  F  F11  1  0.81416824  0.18583176  0.86185642  1
loop_
_geom_bond_atom_site_label_1
_geom_bond_atom_site_label_2
_geom_bond_distance
_geom_bond_site_symmetry_2
F0 Ge0 1.815579 1_555
F0 Rb3 2.914567 1_555
F0 Rb2 2.992047 1_555
F0 Rb1 2.995908 1_545
F0 Rb1 2.995908 1_655
F1 Ge1 1.815590 1_555
F1 Rb2 2.914546 1_455
F1 Rb3 2.992029 1_554
F1 Rb0 2.995877 1_455
F1 Rb0 2.995909 1_465
F2 Ge1 1.815594 1_555
F2 Rb2 2.914541 1_565
F2 Rb3 2.992028 1_554
F2 Rb0 2.995881 1_565
F2 Rb0 2.995907 1_465
F3 Ge0 1.815590 1_555
F3 Rb3 2.914545 1_545
F3 Rb2 2.992025 1_555
F3 Rb1 2.995879 1_545
F3 Rb1 2.995912 1_645
F4 Ge0 1.815591 1_555
F4 Rb3 2.914548 1_655
F4 Rb2 2.992025 1_555
F4 Rb1 2.995878 1_655
F4 Rb1 2.995911 1_645
F5 Ge1 1.815580 1_555
F5 Rb2 2.914569 1_555
F5 Rb3 2.992043 1_554
F5 Rb0 2.995906 1_455
F5 Rb0 2.995906 1_565
F6 Ge1 1.810217 1_555
F6 Rb1 2.935470 1_555
F6 Rb2 2.956888 1_565
F6 Rb2 2.956889 1_455
F6 Rb0 3.176566 1_465
F7 Ge0 1.810218 1_555
F7 Rb0 2.935505 1_456
F7 Rb3 2.956863 1_555
F7 Rb3 2.956891 1_545
F7 Rb1 3.176571 1_545
F8 Ge0 1.810208 1_555
F8 Rb0 2.935514 1_566
F8 Rb3 2.956865 1_555
F8 Rb3 2.956893 1_655
F8 Rb1 3.176567 1_655
F9 Ge1 1.810213 1_555
F9 Rb1 2.935500 1_545
F9 Rb2 2.956870 1_555
F9 Rb2 2.956887 1_455
F9 Rb0 3.176567 1_455
F10 Ge1 1.810213 1_555
F10 Rb1 2.935499 1_655
F10 Rb2 2.956869 1_555
F10 Rb2 2.956886 1_565
F10 Rb0 3.176568 1_565
F11 Ge0 1.810216 1_555
F11 Rb0 2.935476 1_556
F11 Rb3 2.956886 1_545
F11 Rb3 2.956892 1_655
F11 Rb1 3.176575 1_645
