# generated using pymatgen
data_YbPO4
_symmetry_space_group_name_H-M   'P 1'
_cell_length_a   6.41556734
_cell_length_b   6.41556734
_cell_length_c   6.41556734
_cell_angle_alpha   136.57069899
_cell_angle_beta   136.57069899
_cell_angle_gamma   63.09924890
_symmetry_Int_Tables_number   1
_chemical_formula_structural   YbPO4
_chemical_formula_sum   'Yb2 P2 O8'
_cell_volume   123.21594222
_cell_formula_units_Z   2
loop_
 _symmetry_equiv_pos_site_id
 _symmetry_equiv_pos_as_xyz
  1  'x, y, z'
loop_
 _atom_site_type_symbol
 _atom_site_label
 _atom_site_symmetry_multiplicity
 _atom_site_fract_x
 _atom_site_fract_y
 _atom_site_fract_z
 _atom_site_occupancy
  Yb  Yb0  1  0.50000000  0.50000000  0.00000000  1
  Yb  Yb1  1  0.25000000  0.75000000  0.50000000  1
  P  P0  1  0.00000000  0.00000000  0.00000000  1
  P  P1  1  0.75000000  0.25000000  0.50000000  1
  O  O0  1  0.94514948  0.83088036  0.62664871  1
  O  O1  1  0.58088036  0.45423265  0.38573188  1
  O  O2  1  0.06850077  0.19514948  0.61426812  1
  O  O3  1  0.20423265  0.31850077  0.37335129  1
  O  O4  1  0.54576735  0.93149923  0.12664871  1
  O  O5  1  0.68149923  0.05485052  0.88573188  1
  O  O6  1  0.16911964  0.79576735  0.11426812  1
  O  O7  1  0.80485052  0.41911964  0.87335129  1
loop_
_geom_bond_atom_site_label_1
_geom_bond_atom_site_label_2
_geom_bond_distance
_geom_bond_site_symmetry_2
O0 P0 1.544305 1_666
O0 Yb0 2.288922 1_555
O0 Yb1 2.352015 1_655
O1 P1 1.544307 1_555
O1 Yb1 2.288919 1_555
O1 Yb0 2.352017 1_555
O2 P1 1.544307 1_455
O2 Yb1 2.288924 1_545
O2 Yb0 2.352013 1_556
O3 P0 1.544307 1_555
O3 Yb0 2.288924 1_556
O3 Yb1 2.352013 1_555
O4 P1 1.544307 1_565
O4 Yb1 2.288924 1_554
O4 Yb0 2.352013 1_555
O5 P0 1.544307 1_656
O5 Yb0 2.288924 1_556
O5 Yb1 2.352013 1_545
O6 P0 1.544307 1_565
O6 Yb0 2.288919 1_555
O6 Yb1 2.352017 1_555
O7 P1 1.544305 1_555
O7 Yb1 2.288922 1_656
O7 Yb0 2.352015 1_556
