# generated using pymatgen
data_H7CSeN3O4
_symmetry_space_group_name_H-M   'P 1'
_cell_length_a   5.29831500
_cell_length_b   8.47419000
_cell_length_c   17.08338491
_cell_angle_alpha   62.51760833
_cell_angle_beta   90.00000000
_cell_angle_gamma   90.00000000
_symmetry_Int_Tables_number   1
_chemical_formula_structural   H7CSeN3O4
_chemical_formula_sum   'H28 C4 Se4 N12 O16'
_cell_volume   680.46889097
_cell_formula_units_Z   4
loop_
 _symmetry_equiv_pos_site_id
 _symmetry_equiv_pos_as_xyz
  1  'x, y, z'
loop_
 _atom_site_type_symbol
 _atom_site_label
 _atom_site_symmetry_multiplicity
 _atom_site_fract_x
 _atom_site_fract_y
 _atom_site_fract_z
 _atom_site_occupancy
  H  H0  1  0.35371800  0.60256600  0.70423500  1
  H  H1  1  0.14628200  0.60256600  0.20423500  1
  H  H2  1  0.64628200  0.39743400  0.29576500  1
  H  H3  1  0.85371800  0.39743400  0.79576500  1
  H  H4  1  0.84511400  0.21331800  0.68437800  1
  H  H5  1  0.65488600  0.21331800  0.18437800  1
  H  H6  1  0.15488600  0.78668200  0.31562200  1
  H  H7  1  0.34511400  0.78668200  0.81562200  1
  H  H8  1  0.85953400  0.01045700  0.67972100  1
  H  H9  1  0.64046600  0.01045700  0.17972100  1
  H  H10  1  0.14046600  0.98954300  0.32027900  1
  H  H11  1  0.35953400  0.98954300  0.82027900  1
  H  H12  1  0.49605000  0.40002500  0.62486200  1
  H  H13  1  0.00395000  0.40002500  0.12486200  1
  H  H14  1  0.50395000  0.59997500  0.37513800  1
  H  H15  1  0.99605000  0.59997500  0.87513800  1
  H  H16  1  0.28954000  0.35470700  0.55717600  1
  H  H17  1  0.21046000  0.35470700  0.05717600  1
  H  H18  1  0.71046000  0.64529300  0.44282400  1
  H  H19  1  0.78954000  0.64529300  0.94282400  1
  H  H20  1  0.56187800  0.94144800  0.60352700  1
  H  H21  1  0.93812200  0.94144800  0.10352700  1
  H  H22  1  0.43812200  0.05855200  0.39647300  1
  H  H23  1  0.06187800  0.05855200  0.89647300  1
  H  H24  1  0.30553400  0.08959900  0.55355500  1
  H  H25  1  0.19446600  0.08959900  0.05355500  1
  H  H26  1  0.69446600  0.91040100  0.44644500  1
  H  H27  1  0.80553400  0.91040100  0.94644500  1
  C  C0  1  0.55476400  0.16409300  0.62094400  1
  C  C1  1  0.94523600  0.16409300  0.12094400  1
  C  C2  1  0.44523600  0.83590700  0.37905600  1
  C  C3  1  0.05476400  0.83590700  0.87905600  1
  Se  Se0  1  0.98774400  0.64959000  0.62547700  1
  Se  Se1  1  0.51225600  0.64959000  0.12547700  1
  Se  Se2  1  0.01225600  0.35041000  0.37452300  1
  Se  Se3  1  0.48774400  0.35041000  0.87452300  1
  N  N0  1  0.75796100  0.11715700  0.67401900  1
  N  N1  1  0.74203900  0.11715700  0.17401900  1
  N  N2  1  0.24203900  0.88284300  0.32598100  1
  N  N3  1  0.25796100  0.88284300  0.82598100  1
  N  N4  1  0.43526500  0.31679600  0.60097300  1
  N  N5  1  0.06473500  0.31679600  0.10097300  1
  N  N6  1  0.56473500  0.68320400  0.39902700  1
  N  N7  1  0.93526500  0.68320400  0.89902700  1
  N  N8  1  0.46481700  0.05461100  0.59111200  1
  N  N9  1  0.03518300  0.05461100  0.09111200  1
  N  N10  1  0.53518300  0.94538900  0.40888800  1
  N  N11  1  0.96481700  0.94538900  0.90888800  1
  O  O0  1  0.95147200  0.69976200  0.52090000  1
  O  O1  1  0.54852800  0.69976200  0.02090000  1
  O  O2  1  0.04852800  0.30023800  0.47910000  1
  O  O3  1  0.45147200  0.30023800  0.97910000  1
  O  O4  1  0.88086200  0.80075200  0.65260400  1
  O  O5  1  0.61913800  0.80075200  0.15260400  1
  O  O6  1  0.11913800  0.19924800  0.34739600  1
  O  O7  1  0.38086200  0.19924800  0.84739600  1
  O  O8  1  0.88238200  0.44459600  0.69387100  1
  O  O9  1  0.61761800  0.44459600  0.19387100  1
  O  O10  1  0.11761800  0.55540400  0.30612900  1
  O  O11  1  0.38238200  0.55540400  0.80612900  1
  O  O12  1  0.32108400  0.64072300  0.63858400  1
  O  O13  1  0.17891600  0.64072300  0.13858400  1
  O  O14  1  0.67891600  0.35927700  0.36141600  1
  O  O15  1  0.82108400  0.35927700  0.86141600  1
loop_
_geom_bond_atom_site_label_1
_geom_bond_atom_site_label_2
_geom_bond_distance
_geom_bond_site_symmetry_2
H0 O12 1.028396 1_555
H0 O11 1.603348 1_555
H1 O13 1.028396 1_555
H1 O10 1.603348 1_555
H2 O14 1.028396 1_555
H2 O9 1.603348 1_555
H3 O15 1.028396 1_555
H3 O8 1.603348 1_555
H4 N0 1.020627 1_555
H5 N1 1.020627 1_555
H6 N2 1.020627 1_555
H7 N3 1.020627 1_555
H8 N0 1.017541 1_555
H9 N1 1.017541 1_555
H10 N2 1.017541 1_555
H11 N3 1.017541 1_555
H12 N4 1.016551 1_555
H13 N5 1.016551 1_555
H14 N6 1.016551 1_555
H15 N7 1.016551 1_555
H16 N4 1.018479 1_555
H17 N5 1.018479 1_555
H18 N6 1.018479 1_555
H19 N7 1.018479 1_555
H20 N8 1.020462 1_565
H21 N9 1.020462 1_665
H22 N10 1.020462 1_545
H23 N11 1.020462 1_445
H24 N8 1.017942 1_555
H25 N9 1.017942 1_555
H26 N10 1.017942 1_555
H27 N11 1.017942 1_555
C0 N8 1.335662 1_555
C0 N4 1.335785 1_555
C0 N0 1.344072 1_555
C1 N9 1.335662 1_655
C1 N5 1.335785 1_655
C1 N1 1.344072 1_555
C2 N10 1.335662 1_555
C2 N6 1.335785 1_555
C2 N2 1.344072 1_555
C3 N11 1.335662 1_455
C3 N7 1.335785 1_455
C3 N3 1.344072 1_555
O0 Se0 1.645703 1_555
O1 Se1 1.645703 1_555
O2 Se2 1.645703 1_555
O3 Se3 1.645703 1_555
O4 Se0 1.650527 1_555
O5 Se1 1.650527 1_555
O6 Se2 1.650527 1_555
O7 Se3 1.650527 1_555
O8 Se0 1.679643 1_555
O9 Se1 1.679643 1_555
O10 Se2 1.679643 1_555
O11 Se3 1.679643 1_555
O12 Se0 1.777500 1_455
O13 Se1 1.777500 1_555
O14 Se2 1.777500 1_655
O15 Se3 1.777500 1_555
