# generated using pymatgen
data_Mg3Si2
_symmetry_space_group_name_H-M   'P 1'
_cell_length_a   5.08712600
_cell_length_b   5.65934127
_cell_length_c   13.74964936
_cell_angle_alpha   97.40125461
_cell_angle_beta   98.25605816
_cell_angle_gamma   92.04752019
_symmetry_Int_Tables_number   1
_chemical_formula_structural   Mg3Si2
_chemical_formula_sum   'Mg12 Si8'
_cell_volume   387.88952538
_cell_formula_units_Z   4
loop_
 _symmetry_equiv_pos_site_id
 _symmetry_equiv_pos_as_xyz
  1  'x, y, z'
loop_
 _atom_site_type_symbol
 _atom_site_label
 _atom_site_symmetry_multiplicity
 _atom_site_fract_x
 _atom_site_fract_y
 _atom_site_fract_z
 _atom_site_occupancy
  Mg  Mg0  1  0.41158500  0.89508400  0.86786800  1
  Mg  Mg1  1  0.07143600  0.41656700  0.87629000  1
  Mg  Mg2  1  0.00000000  0.00000000  0.00000000  1
  Mg  Mg3  1  0.53130200  0.38197100  0.75176300  1
  Mg  Mg4  1  0.96242700  0.52107100  0.62508700  1
  Mg  Mg5  1  0.58841500  0.10491600  0.13213200  1
  Mg  Mg6  1  0.47877500  0.10339800  0.37619900  1
  Mg  Mg7  1  0.03757300  0.47892900  0.37491300  1
  Mg  Mg8  1  0.00000000  0.00000000  0.50000000  1
  Mg  Mg9  1  0.46869800  0.61802900  0.24823700  1
  Mg  Mg10  1  0.92856400  0.58343300  0.12371000  1
  Mg  Mg11  1  0.52122500  0.89660200  0.62380100  1
  Si  Si0  1  0.40618700  0.66430200  0.04786700  1
  Si  Si1  1  0.06992500  0.06967600  0.69793100  1
  Si  Si2  1  0.59381300  0.33569800  0.95213300  1
  Si  Si3  1  0.87434800  0.80970900  0.79732000  1
  Si  Si4  1  0.40234400  0.37067300  0.55035100  1
  Si  Si5  1  0.12565200  0.19029100  0.20268000  1
  Si  Si6  1  0.59765600  0.62932700  0.44964900  1
  Si  Si7  1  0.93007500  0.93032400  0.30206900  1
loop_
_geom_bond_atom_site_label_1
_geom_bond_atom_site_label_2
_geom_bond_distance
_geom_bond_site_symmetry_2
Mg0 Si2 2.683606 1_565
Mg0 Si3 2.707889 1_555
Mg0 Si3 2.768962 1_455
Mg0 Si0 2.946450 1_556
Mg0 Si1 3.001323 1_565
Mg1 Si3 2.757473 1_455
Mg1 Si2 2.787953 1_555
Mg1 Si2 2.823416 1_455
Mg1 Si0 2.873071 1_556
Mg1 Si1 2.936221 1_555
Mg2 Si3 2.828517 1_444
Mg2 Si5 2.828517 1_555
Mg2 Si0 2.919640 1_545
Mg2 Si2 2.919640 1_454
Mg3 Si4 2.744694 1_555
Mg3 Si2 2.774894 1_555
Mg3 Si1 2.836887 1_555
Mg3 Si3 2.879446 1_555
Mg4 Si4 2.712912 1_655
Mg4 Si3 2.799573 1_555
Mg4 Si1 2.903429 1_655
Mg4 Si4 2.942607 1_555
Mg4 Si6 2.968829 1_555
Mg4 Si1 3.140360 1_665
Mg5 Si0 2.683606 1_545
Mg5 Si5 2.707889 1_555
Mg5 Si5 2.768962 1_655
Mg5 Si2 2.946450 1_554
Mg5 Si7 3.001323 1_545
Mg6 Si4 2.747576 1_555
Mg6 Si7 2.800821 1_545
Mg6 Si5 2.880190 1_555
Mg6 Si7 2.918906 1_445
Mg6 Si6 3.027578 1_555
Mg6 Si6 3.036836 1_545
Mg7 Si6 2.712912 1_455
Mg7 Si5 2.799573 1_555
Mg7 Si7 2.903429 1_455
Mg7 Si6 2.942607 1_555
Mg7 Si4 2.968829 1_555
Mg7 Si7 3.140360 1_445
Mg8 Si1 2.669075 1_555
Mg8 Si7 2.669075 1_445
Mg8 Si4 2.825114 1_555
Mg8 Si6 2.825114 1_445
Mg9 Si6 2.744694 1_555
Mg9 Si0 2.774894 1_555
Mg9 Si7 2.836887 1_555
Mg9 Si5 2.879446 1_555
Mg10 Si5 2.757473 1_655
Mg10 Si0 2.787953 1_555
Mg10 Si0 2.823416 1_655
Mg10 Si2 2.873071 1_554
Mg10 Si7 2.936221 1_555
Mg11 Si6 2.747576 1_555
Mg11 Si1 2.800821 1_565
Mg11 Si3 2.880190 1_555
Mg11 Si1 2.918906 1_665
Mg11 Si4 3.027578 1_555
Mg11 Si4 3.036836 1_565
Si0 Si2 2.441129 1_554
Si1 Si3 2.413668 1_445
Si4 Si6 2.420838 1_555
Si5 Si7 2.413668 1_445
