# generated using pymatgen
data_Ti4CrTe8
_symmetry_space_group_name_H-M   'P 1'
_cell_length_a   7.65108224
_cell_length_b   7.66816205
_cell_length_c   13.55627639
_cell_angle_alpha   98.37715572
_cell_angle_beta   73.60862499
_cell_angle_gamma   119.92634663
_symmetry_Int_Tables_number   1
_chemical_formula_structural   Ti4CrTe8
_chemical_formula_sum   'Ti8 Cr2 Te16'
_cell_volume   661.27103056
_cell_formula_units_Z   2
loop_
 _symmetry_equiv_pos_site_id
 _symmetry_equiv_pos_as_xyz
  1  'x, y, z'
loop_
 _atom_site_type_symbol
 _atom_site_label
 _atom_site_symmetry_multiplicity
 _atom_site_fract_x
 _atom_site_fract_y
 _atom_site_fract_z
 _atom_site_occupancy
  Ti  Ti0  1  0.00499400  0.49409600  0.00007100  1
  Ti  Ti1  1  0.01537300  0.01497600  0.99967100  1
  Ti  Ti2  1  0.48462700  0.48502400  0.00032900  1
  Ti  Ti3  1  0.26096900  0.50590400  0.49992900  1
  Ti  Ti4  1  0.49500600  0.00590400  0.99992900  1
  Ti  Ti5  1  0.23903100  0.99409600  0.50007100  1
  Ti  Ti6  1  0.74993200  0.51497600  0.49967100  1
  Ti  Ti7  1  0.75006800  0.98502400  0.50032900  1
  Cr  Cr0  1  0.12101000  0.50000000  0.75000000  1
  Cr  Cr1  1  0.37899000  0.00000000  0.25000000  1
  Te  Te0  1  0.09682600  0.83147600  0.13006300  1
  Te  Te1  1  0.09942200  0.33352500  0.13496100  1
  Te  Te2  1  0.14622500  0.66073400  0.36900200  1
  Te  Te3  1  0.60689900  0.83293900  0.12421100  1
  Te  Te4  1  0.35377500  0.83926600  0.63099800  1
  Te  Te5  1  0.14541300  0.16852400  0.36993700  1
  Te  Te6  1  0.60449400  0.33926600  0.13099800  1
  Te  Te7  1  0.65085700  0.66647500  0.36503900  1
  Te  Te8  1  0.35458700  0.33147600  0.63006300  1
  Te  Te9  1  0.40317400  0.66852400  0.86993700  1
  Te  Te10  1  0.64817000  0.16706100  0.37578900  1
  Te  Te11  1  0.40057800  0.16647500  0.86503900  1
  Te  Te12  1  0.84914300  0.83352500  0.63496100  1
  Te  Te13  1  0.85183000  0.33293900  0.62421100  1
  Te  Te14  1  0.89310100  0.66706100  0.87578900  1
  Te  Te15  1  0.89550600  0.16073400  0.86900200  1
loop_
_geom_bond_atom_site_label_1
_geom_bond_atom_site_label_2
_geom_bond_distance
_geom_bond_site_symmetry_2
Cr0 Te13 2.739281 1_455
Cr0 Te14 2.739287 1_455
Cr0 Te15 2.742397 1_455
Cr0 Te4 2.742397 1_555
Cr0 Te9 2.749442 1_555
Cr0 Te8 2.749442 1_555
Cr1 Te10 2.739281 1_555
Cr1 Te3 2.739287 1_545
Cr1 Te6 2.742397 1_555
Cr1 Te2 2.742397 1_545
Cr1 Te5 2.749442 1_555
Cr1 Te0 2.749442 1_545
Te0 Ti1 2.777458 1_564
Te0 Ti4 2.787627 1_564
Te0 Ti0 2.801571 1_555
Te1 Ti2 2.744537 1_555
Te1 Ti1 2.745339 1_554
Te1 Ti0 2.769676 1_555
Te2 Ti6 2.782924 1_455
Te2 Ti5 2.788068 1_555
Te2 Ti3 2.804277 1_555
Te3 Ti2 2.811403 1_555
Te3 Ti1 2.814617 1_664
Te3 Ti4 2.815797 1_564
Te4 Ti7 2.782924 1_555
Te4 Ti3 2.788068 1_555
Te4 Ti5 2.804277 1_555
Te5 Ti7 2.777458 1_445
Te5 Ti5 2.787627 1_545
Te5 Ti3 2.801571 1_555
Te6 Ti2 2.782929 1_555
Te6 Ti4 2.788069 1_554
Te6 Ti0 2.804272 1_655
Te7 Ti6 2.744542 1_555
Te7 Ti7 2.745340 1_555
Te7 Ti3 2.769671 1_555
Te8 Ti6 2.777458 1_555
Te8 Ti3 2.787627 1_555
Te8 Ti5 2.801571 1_545
Te9 Ti2 2.777458 1_556
Te9 Ti0 2.787627 1_556
Te9 Ti4 2.801571 1_565
Te10 Ti6 2.811403 1_555
Te10 Ti7 2.814623 1_545
Te10 Ti5 2.815791 1_545
Te11 Ti1 2.744537 1_555
Te11 Ti2 2.745339 1_556
Te11 Ti4 2.769676 1_555
Te12 Ti7 2.744542 1_555
Te12 Ti6 2.745340 1_555
Te12 Ti5 2.769671 1_655
Te13 Ti7 2.811403 1_545
Te13 Ti6 2.814623 1_555
Te13 Ti3 2.815791 1_655
Te14 Ti1 2.811403 1_665
Te14 Ti2 2.814617 1_556
Te14 Ti0 2.815797 1_656
Te15 Ti1 2.782929 1_655
Te15 Ti0 2.788069 1_656
Te15 Ti4 2.804272 1_555
