# generated using pymatgen
data_MgZn
_symmetry_space_group_name_H-M   'P 1'
_cell_length_a   11.55875173
_cell_length_b   11.55875173
_cell_length_c   13.48069076
_cell_angle_alpha   76.34240296
_cell_angle_beta   76.34240296
_cell_angle_gamma   30.05835142
_symmetry_Int_Tables_number   1
_chemical_formula_structural   MgZn
_chemical_formula_sum   'Mg24 Zn24'
_cell_volume   874.75400183
_cell_formula_units_Z   24
loop_
 _symmetry_equiv_pos_site_id
 _symmetry_equiv_pos_as_xyz
  1  'x, y, z'
loop_
 _atom_site_type_symbol
 _atom_site_label
 _atom_site_symmetry_multiplicity
 _atom_site_fract_x
 _atom_site_fract_y
 _atom_site_fract_z
 _atom_site_occupancy
  Mg  Mg0_0  1  0.49582350  0.49582350  0.01130750  1
  Mg  Mg0_1  1  0.49582350  0.49582350  0.51130750  1
  Mg  Mg0_2  1  0.49582350  0.99582350  0.01130750  1
  Mg  Mg0_3  1  0.49582350  0.99582350  0.51130750  1
  Mg  Mg0_4  1  0.99582350  0.49582350  0.01130750  1
  Mg  Mg0_5  1  0.99582350  0.49582350  0.51130750  1
  Mg  Mg0_6  1  0.99582350  0.99582350  0.01130750  1
  Mg  Mg0_7  1  0.99582350  0.99582350  0.51130750  1
  Mg  Mg1_0  1  0.47295400  0.47295400  0.29620600  1
  Mg  Mg1_1  1  0.47295400  0.47295400  0.79620600  1
  Mg  Mg1_2  1  0.47295400  0.97295400  0.29620600  1
  Mg  Mg1_3  1  0.47295400  0.97295400  0.79620600  1
  Mg  Mg1_4  1  0.97295400  0.47295400  0.29620600  1
  Mg  Mg1_5  1  0.97295400  0.47295400  0.79620600  1
  Mg  Mg1_6  1  0.97295400  0.97295400  0.29620600  1
  Mg  Mg1_7  1  0.97295400  0.97295400  0.79620600  1
  Mg  Mg2_0  1  0.33666800  0.33666800  0.33282550  1
  Mg  Mg2_1  1  0.33666800  0.33666800  0.83282550  1
  Mg  Mg2_2  1  0.33666800  0.83666800  0.33282550  1
  Mg  Mg2_3  1  0.33666800  0.83666800  0.83282550  1
  Mg  Mg2_4  1  0.83666800  0.33666800  0.33282550  1
  Mg  Mg2_5  1  0.83666800  0.33666800  0.83282550  1
  Mg  Mg2_6  1  0.83666800  0.83666800  0.33282550  1
  Mg  Mg2_7  1  0.83666800  0.83666800  0.83282550  1
  Zn  Zn0_0  1  0.31106750  0.31106750  0.13495250  1
  Zn  Zn0_1  1  0.31106750  0.31106750  0.63495250  1
  Zn  Zn0_2  1  0.31106750  0.81106750  0.13495250  1
  Zn  Zn0_3  1  0.31106750  0.81106750  0.63495250  1
  Zn  Zn0_4  1  0.81106750  0.31106750  0.13495250  1
  Zn  Zn0_5  1  0.81106750  0.31106750  0.63495250  1
  Zn  Zn0_6  1  0.81106750  0.81106750  0.13495250  1
  Zn  Zn0_7  1  0.81106750  0.81106750  0.63495250  1
  Zn  Zn1_0  1  0.16251850  0.16251850  0.16406250  1
  Zn  Zn1_1  1  0.16251850  0.16251850  0.66406250  1
  Zn  Zn1_2  1  0.16251850  0.66251850  0.16406250  1
  Zn  Zn1_3  1  0.16251850  0.66251850  0.66406250  1
  Zn  Zn1_4  1  0.66251850  0.16251850  0.16406250  1
  Zn  Zn1_5  1  0.66251850  0.16251850  0.66406250  1
  Zn  Zn1_6  1  0.66251850  0.66251850  0.16406250  1
  Zn  Zn1_7  1  0.66251850  0.66251850  0.66406250  1
  Zn  Zn2_0  1  0.13763550  0.13763550  0.47731250  1
  Zn  Zn2_1  1  0.13763550  0.13763550  0.97731250  1
  Zn  Zn2_2  1  0.13763550  0.63763550  0.47731250  1
  Zn  Zn2_3  1  0.13763550  0.63763550  0.97731250  1
  Zn  Zn2_4  1  0.63763550  0.13763550  0.47731250  1
  Zn  Zn2_5  1  0.63763550  0.13763550  0.97731250  1
  Zn  Zn2_6  1  0.63763550  0.63763550  0.47731250  1
  Zn  Zn2_7  1  0.63763550  0.63763550  0.97731250  1
loop_
_geom_bond_atom_site_label_1
_geom_bond_atom_site_label_2
_geom_bond_distance
_geom_bond_site_symmetry_2
Mg0_0 Zn1_2 2.841308 1_555
Mg0_0 Zn1_4 2.841308 1_555
Mg0_0 Zn0_2 2.886765 1_555
Mg0_0 Zn0_4 2.886765 1_555
Mg0_0 Zn2_3 2.971838 1_554
Mg0_0 Zn2_5 2.971838 1_554
Mg0_0 Mg0_6 2.997310 1_545
Mg0_0 Mg0_6 2.997310 1_455
Mg0_0 Mg1_1 3.064805 1_554
Mg0_0 Zn2_7 3.086318 1_554
Mg0_0 Mg2_3 3.124538 1_554
Mg0_0 Mg2_5 3.124538 1_554
Mg0_1 Zn1_5 2.841308 1_555
Mg0_1 Zn1_3 2.841308 1_555
Mg0_1 Zn0_5 2.886765 1_555
Mg0_1 Zn0_3 2.886765 1_555
Mg0_1 Zn2_4 2.971838 1_555
Mg0_1 Zn2_2 2.971838 1_555
Mg0_1 Mg0_7 2.997310 1_545
Mg0_1 Mg0_7 2.997310 1_455
Mg0_1 Mg1_0 3.064805 1_555
Mg0_1 Zn2_6 3.086318 1_555
Mg0_1 Mg2_4 3.124538 1_555
Mg0_1 Mg2_2 3.124538 1_555
Mg0_2 Zn1_6 2.841308 1_555
Mg0_2 Zn1_0 2.841308 1_565
Mg0_2 Zn0_6 2.886765 1_555
Mg0_2 Zn0_0 2.886765 1_565
Mg0_2 Zn2_7 2.971838 1_554
Mg0_2 Zn2_1 2.971838 1_564
Mg0_2 Mg0_4 2.997310 1_555
Mg0_2 Mg0_4 2.997310 1_465
Mg0_2 Mg1_3 3.064805 1_554
Mg0_2 Zn2_5 3.086318 1_564
Mg0_2 Mg2_1 3.124538 1_564
Mg0_2 Mg2_7 3.124538 1_554
Mg0_3 Zn1_1 2.841308 1_565
Mg0_3 Zn1_7 2.841308 1_555
Mg0_3 Zn0_1 2.886765 1_565
Mg0_3 Zn0_7 2.886765 1_555
Mg0_3 Zn2_0 2.971838 1_565
Mg0_3 Zn2_6 2.971838 1_555
Mg0_3 Mg0_5 2.997310 1_555
Mg0_3 Mg0_5 2.997310 1_465
Mg0_3 Mg1_2 3.064805 1_555
Mg0_3 Zn2_4 3.086318 1_565
Mg0_3 Mg2_0 3.124538 1_565
Mg0_3 Mg2_6 3.124538 1_555
Mg0_4 Zn1_6 2.841308 1_555
Mg0_4 Zn1_0 2.841308 1_655
Mg0_4 Zn0_6 2.886765 1_555
Mg0_4 Zn0_0 2.886765 1_655
Mg0_4 Zn2_1 2.971838 1_654
Mg0_4 Zn2_7 2.971838 1_554
Mg0_4 Mg1_5 3.064805 1_554
Mg0_4 Zn2_3 3.086318 1_654
Mg0_4 Mg2_7 3.124538 1_554
Mg0_4 Mg2_1 3.124538 1_654
Mg0_5 Zn1_1 2.841308 1_655
Mg0_5 Zn1_7 2.841308 1_555
Mg0_5 Zn0_7 2.886765 1_555
Mg0_5 Zn0_1 2.886765 1_655
Mg0_5 Zn2_6 2.971838 1_555
Mg0_5 Zn2_0 2.971838 1_655
Mg0_5 Mg1_4 3.064805 1_555
Mg0_5 Zn2_2 3.086318 1_655
Mg0_5 Mg2_0 3.124538 1_655
Mg0_5 Mg2_6 3.124538 1_555
Mg0_6 Zn1_2 2.841308 1_655
Mg0_6 Zn1_4 2.841308 1_565
Mg0_6 Zn0_2 2.886765 1_655
Mg0_6 Zn0_4 2.886765 1_565
Mg0_6 Zn2_5 2.971838 1_564
Mg0_6 Zn2_3 2.971838 1_654
Mg0_6 Mg1_7 3.064805 1_554
Mg0_6 Zn2_1 3.086318 1_664
Mg0_6 Mg2_5 3.124538 1_564
Mg0_6 Mg2_3 3.124538 1_654
Mg0_7 Zn1_5 2.841308 1_565
Mg0_7 Zn1_3 2.841308 1_655
Mg0_7 Zn0_3 2.886765 1_655
Mg0_7 Zn0_5 2.886765 1_565
Mg0_7 Zn2_4 2.971838 1_565
Mg0_7 Zn2_2 2.971838 1_655
Mg0_7 Mg1_6 3.064805 1_555
Mg0_7 Zn2_0 3.086318 1_665
Mg0_7 Mg2_4 3.124538 1_565
Mg0_7 Mg2_2 3.124538 1_655
Mg1_0 Zn1_2 2.900913 1_555
Mg1_0 Zn1_4 2.900913 1_555
Mg1_0 Zn0_2 2.958137 1_555
Mg1_0 Zn0_4 2.958137 1_555
Mg1_0 Mg2_0 2.961079 1_555
Mg1_0 Mg1_6 2.997310 1_545
Mg1_0 Mg1_6 2.997310 1_455
Mg1_0 Mg2_2 3.090036 1_555
Mg1_0 Mg2_4 3.090036 1_555
Mg1_0 Zn2_4 3.092116 1_555
Mg1_0 Zn2_2 3.092116 1_555
Mg1_1 Zn1_5 2.900913 1_555
Mg1_1 Zn1_3 2.900913 1_555
Mg1_1 Zn0_3 2.958137 1_555
Mg1_1 Zn0_5 2.958137 1_555
Mg1_1 Mg2_1 2.961079 1_555
Mg1_1 Mg1_7 2.997310 1_545
Mg1_1 Mg1_7 2.997310 1_455
Mg1_1 Mg2_3 3.090036 1_555
Mg1_1 Mg2_5 3.090036 1_555
Mg1_1 Zn2_3 3.092116 1_555
Mg1_1 Zn2_5 3.092116 1_555
Mg1_2 Zn1_0 2.900913 1_565
Mg1_2 Zn1_6 2.900913 1_555
Mg1_2 Zn0_6 2.958137 1_555
Mg1_2 Zn0_0 2.958137 1_565
Mg1_2 Mg2_2 2.961079 1_555
Mg1_2 Mg1_4 2.997310 1_465
Mg1_2 Mg1_4 2.997310 1_555
Mg1_2 Mg2_0 3.090036 1_565
Mg1_2 Mg2_6 3.090036 1_555
Mg1_2 Zn2_0 3.092116 1_565
Mg1_2 Zn2_6 3.092116 1_555
Mg1_3 Zn1_1 2.900913 1_565
Mg1_3 Zn1_7 2.900913 1_555
Mg1_3 Zn0_1 2.958137 1_565
Mg1_3 Zn0_7 2.958137 1_555
Mg1_3 Mg2_3 2.961079 1_555
Mg1_3 Mg1_5 2.997310 1_465
Mg1_3 Mg1_5 2.997310 1_555
Mg1_3 Mg2_1 3.090036 1_565
Mg1_3 Mg2_7 3.090036 1_555
Mg1_3 Zn2_1 3.092116 1_565
Mg1_3 Zn2_7 3.092116 1_555
Mg1_4 Zn1_0 2.900913 1_655
Mg1_4 Zn1_6 2.900913 1_555
Mg1_4 Zn0_0 2.958137 1_655
Mg1_4 Zn0_6 2.958137 1_555
Mg1_4 Mg2_4 2.961079 1_555
Mg1_4 Mg2_0 3.090036 1_655
Mg1_4 Mg2_6 3.090036 1_555
Mg1_4 Zn2_0 3.092116 1_655
Mg1_4 Zn2_6 3.092116 1_555
Mg1_5 Zn1_1 2.900913 1_655
Mg1_5 Zn1_7 2.900913 1_555
Mg1_5 Zn0_7 2.958137 1_555
Mg1_5 Zn0_1 2.958137 1_655
Mg1_5 Mg2_5 2.961079 1_555
Mg1_5 Mg2_1 3.090036 1_655
Mg1_5 Mg2_7 3.090036 1_555
Mg1_5 Zn2_1 3.092116 1_655
Mg1_5 Zn2_7 3.092116 1_555
Mg1_6 Zn1_2 2.900913 1_655
Mg1_6 Zn1_4 2.900913 1_565
Mg1_6 Zn0_2 2.958137 1_655
Mg1_6 Zn0_4 2.958137 1_565
Mg1_6 Mg2_6 2.961079 1_555
Mg1_6 Mg2_4 3.090036 1_565
Mg1_6 Mg2_2 3.090036 1_655
Mg1_6 Zn2_4 3.092116 1_565
Mg1_6 Zn2_2 3.092116 1_655
Mg1_7 Zn1_3 2.900913 1_655
Mg1_7 Zn1_5 2.900913 1_565
Mg1_7 Zn0_3 2.958137 1_655
Mg1_7 Zn0_5 2.958137 1_565
Mg1_7 Mg2_7 2.961079 1_555
Mg1_7 Mg2_5 3.090036 1_565
Mg1_7 Mg2_3 3.090036 1_655
Mg1_7 Zn2_5 3.092116 1_565
Mg1_7 Zn2_3 3.092116 1_655
Mg2_0 Zn0_0 2.861393 1_555
Mg2_0 Zn1_4 2.899283 1_555
Mg2_0 Zn1_2 2.899283 1_555
Mg2_0 Zn2_2 2.901466 1_555
Mg2_0 Zn2_4 2.901466 1_555
Mg2_0 Mg2_6 2.997310 1_545
Mg2_0 Mg2_6 2.997310 1_455
Mg2_1 Zn0_1 2.861393 1_555
Mg2_1 Zn1_3 2.899283 1_555
Mg2_1 Zn1_5 2.899283 1_555
Mg2_1 Zn2_3 2.901466 1_555
Mg2_1 Zn2_5 2.901466 1_555
Mg2_1 Mg2_7 2.997310 1_545
Mg2_1 Mg2_7 2.997310 1_455
Mg2_2 Zn0_2 2.861393 1_555
Mg2_2 Zn1_6 2.899283 1_555
Mg2_2 Zn1_0 2.899283 1_565
Mg2_2 Zn2_6 2.901466 1_555
Mg2_2 Zn2_0 2.901466 1_565
Mg2_2 Mg2_4 2.997310 1_465
Mg2_2 Mg2_4 2.997310 1_555
Mg2_3 Zn0_3 2.861393 1_555
Mg2_3 Zn1_7 2.899283 1_555
Mg2_3 Zn1_1 2.899283 1_565
Mg2_3 Zn2_7 2.901466 1_555
Mg2_3 Zn2_1 2.901466 1_565
Mg2_3 Mg2_5 2.997310 1_465
Mg2_3 Mg2_5 2.997310 1_555
Mg2_4 Zn0_4 2.861393 1_555
Mg2_4 Zn1_6 2.899283 1_555
Mg2_4 Zn1_0 2.899283 1_655
Mg2_4 Zn2_6 2.901466 1_555
Mg2_4 Zn2_0 2.901466 1_655
Mg2_5 Zn0_5 2.861393 1_555
Mg2_5 Zn1_7 2.899283 1_555
Mg2_5 Zn1_1 2.899283 1_655
Mg2_5 Zn2_7 2.901466 1_555
Mg2_5 Zn2_1 2.901466 1_655
Mg2_6 Zn0_6 2.861393 1_555
Mg2_6 Zn1_4 2.899283 1_565
Mg2_6 Zn1_2 2.899283 1_655
Mg2_6 Zn2_4 2.901466 1_565
Mg2_6 Zn2_2 2.901466 1_655
Mg2_7 Zn0_7 2.861393 1_555
Mg2_7 Zn1_5 2.899283 1_565
Mg2_7 Zn1_3 2.899283 1_655
Mg2_7 Zn2_3 2.901466 1_655
Mg2_7 Zn2_5 2.901466 1_565
Zn0_0 Zn2_5 2.812133 1_554
Zn0_0 Zn2_3 2.812133 1_554
Zn0_0 Zn1_4 2.822256 1_555
Zn0_0 Zn1_2 2.822256 1_555
Zn0_0 Zn0_6 2.997310 1_455
Zn0_0 Zn0_6 2.997310 1_545
Zn0_1 Zn2_2 2.812133 1_555
Zn0_1 Zn2_4 2.812133 1_555
Zn0_1 Zn1_3 2.822256 1_555
Zn0_1 Zn1_5 2.822256 1_555
Zn0_1 Zn0_7 2.997310 1_455
Zn0_1 Zn0_7 2.997310 1_545
Zn0_2 Zn2_7 2.812133 1_554
Zn0_2 Zn2_1 2.812133 1_564
Zn0_2 Zn1_6 2.822256 1_555
Zn0_2 Zn1_0 2.822256 1_565
Zn0_2 Zn0_4 2.997310 1_465
Zn0_2 Zn0_4 2.997310 1_555
Zn0_3 Zn2_6 2.812133 1_555
Zn0_3 Zn2_0 2.812133 1_565
Zn0_3 Zn1_7 2.822256 1_555
Zn0_3 Zn1_1 2.822256 1_565
Zn0_3 Zn0_5 2.997310 1_555
Zn0_3 Zn0_5 2.997310 1_465
Zn0_4 Zn2_7 2.812133 1_554
Zn0_4 Zn2_1 2.812133 1_654
Zn0_4 Zn1_6 2.822256 1_555
Zn0_4 Zn1_0 2.822256 1_655
Zn0_5 Zn2_6 2.812133 1_555
Zn0_5 Zn2_0 2.812133 1_655
Zn0_5 Zn1_7 2.822256 1_555
Zn0_5 Zn1_1 2.822256 1_655
Zn0_6 Zn2_3 2.812133 1_654
Zn0_6 Zn2_5 2.812133 1_564
Zn0_6 Zn1_4 2.822256 1_565
Zn0_6 Zn1_2 2.822256 1_655
Zn0_7 Zn2_2 2.812133 1_655
Zn0_7 Zn2_4 2.812133 1_565
Zn0_7 Zn1_5 2.822256 1_565
Zn0_7 Zn1_3 2.822256 1_655
Zn1_0 Zn2_1 2.707475 1_554
Zn1_0 Zn1_6 2.997310 1_545
Zn1_0 Zn1_6 2.997310 1_455
Zn1_1 Zn2_0 2.707475 1_555
Zn1_1 Zn1_7 2.997310 1_545
Zn1_1 Zn1_7 2.997310 1_455
Zn1_2 Zn2_3 2.707475 1_554
Zn1_2 Zn1_4 2.997310 1_555
Zn1_2 Zn1_4 2.997310 1_465
Zn1_3 Zn2_2 2.707475 1_555
Zn1_3 Zn1_5 2.997310 1_555
Zn1_3 Zn1_5 2.997310 1_465
Zn1_4 Zn2_5 2.707475 1_554
Zn1_5 Zn2_4 2.707475 1_555
Zn1_6 Zn2_7 2.707475 1_554
Zn1_7 Zn2_6 2.707475 1_555
Zn2_0 Zn2_6 2.997310 1_545
Zn2_0 Zn2_6 2.997310 1_455
Zn2_1 Zn2_7 2.997310 1_545
Zn2_1 Zn2_7 2.997310 1_455
Zn2_2 Zn2_4 2.997310 1_555
Zn2_2 Zn2_4 2.997310 1_465
Zn2_3 Zn2_5 2.997310 1_555
Zn2_3 Zn2_5 2.997310 1_465
