# generated using pymatgen
data_KBaPrBiO6
_symmetry_space_group_name_H-M   'P 1'
_cell_length_a   8.88194740
_cell_length_b   8.91823360
_cell_length_c   8.88779000
_cell_angle_alpha   90.00000000
_cell_angle_beta   90.00000000
_cell_angle_gamma   90.00000000
_symmetry_Int_Tables_number   1
_chemical_formula_structural   KBaPrBiO6
_chemical_formula_sum   'K4 Ba4 Pr4 Bi4 O24'
_cell_volume   704.01323770
_cell_formula_units_Z   4
loop_
 _symmetry_equiv_pos_site_id
 _symmetry_equiv_pos_as_xyz
  1  'x, y, z'
loop_
 _atom_site_type_symbol
 _atom_site_label
 _atom_site_symmetry_multiplicity
 _atom_site_fract_x
 _atom_site_fract_y
 _atom_site_fract_z
 _atom_site_occupancy
  K  K0  1  0.00000000  0.50000000  0.50000000  1
  K  K1  1  0.50000000  -0.00000000  0.50000000  1
  K  K2  1  0.50000000  -0.00000000  0.00000000  1
  K  K3  1  0.00000000  0.50000000  0.00000000  1
  Ba  Ba0  1  0.50000000  0.50000000  0.00000000  1
  Ba  Ba1  1  -0.00000000  0.00000000  0.50000000  1
  Ba  Ba2  1  0.00000000  0.00000000  0.00000000  1
  Ba  Ba3  1  0.50000000  0.50000000  0.50000000  1
  Pr  Pr0  1  0.25000000  0.25000000  0.25000000  1
  Pr  Pr1  1  0.75000000  0.75000000  0.25000000  1
  Pr  Pr2  1  0.75000000  0.25000000  0.75000000  1
  Pr  Pr3  1  0.25000000  0.75000000  0.75000000  1
  Bi  Bi0  1  0.75000000  0.75000000  0.75000000  1
  Bi  Bi1  1  0.25000000  0.25000000  0.75000000  1
  Bi  Bi2  1  0.25000000  0.75000000  0.25000000  1
  Bi  Bi3  1  0.75000000  0.25000000  0.25000000  1
  O  O0  1  0.98749653  0.21439495  0.27014285  1
  O  O1  1  0.01250347  0.78560505  0.27014285  1
  O  O2  1  0.01250347  0.21439495  0.72985715  1
  O  O3  1  0.98749653  0.78560505  0.72985715  1
  O  O4  1  0.26157417  0.98715501  0.22357201  1
  O  O5  1  0.26157417  0.01284499  0.77642799  1
  O  O6  1  0.73842583  0.01284499  0.22357201  1
  O  O7  1  0.73842583  0.98715501  0.77642799  1
  O  O8  1  0.22697112  0.27163669  0.98693269  1
  O  O9  1  0.77302888  0.27163669  0.01306731  1
  O  O10  1  0.22697112  0.72836331  0.01306731  1
  O  O11  1  0.77302888  0.72836331  0.98693269  1
  O  O12  1  0.51250347  0.28560505  0.22985715  1
  O  O13  1  0.48749653  0.71439495  0.22985715  1
  O  O14  1  0.48749653  0.28560505  0.77014285  1
  O  O15  1  0.51250347  0.71439495  0.77014285  1
  O  O16  1  0.23842583  0.51284499  0.27642799  1
  O  O17  1  0.23842583  0.48715501  0.72357201  1
  O  O18  1  0.76157417  0.48715501  0.27642799  1
  O  O19  1  0.76157417  0.51284499  0.72357201  1
  O  O20  1  0.27302888  0.22836331  0.51306731  1
  O  O21  1  0.72697112  0.22836331  0.48693269  1
  O  O22  1  0.27302888  0.77163669  0.48693269  1
  O  O23  1  0.72697112  0.77163669  0.51306731  1
loop_
_geom_bond_atom_site_label_1
_geom_bond_atom_site_label_2
_geom_bond_distance
_geom_bond_site_symmetry_2
K0 O18 2.906222 1_455
K0 O19 2.906222 1_455
K0 O16 2.906222 1_555
K0 O17 2.906222 1_555
K0 O1 3.267039 1_555
K0 O0 3.267039 1_455
K0 O3 3.267039 1_455
K0 O2 3.267039 1_555
K1 O20 2.867970 1_555
K1 O22 2.867970 1_545
K1 O21 2.867970 1_555
K1 O23 2.867970 1_545
K1 O4 3.245574 1_545
K1 O5 3.245574 1_555
K1 O6 3.245574 1_555
K1 O7 3.245574 1_545
K2 O7 2.906222 1_544
K2 O4 2.906222 1_545
K2 O5 2.906222 1_554
K2 O6 2.906222 1_555
K2 O15 3.267039 1_544
K2 O14 3.267039 1_554
K2 O13 3.267039 1_545
K2 O12 3.267039 1_555
K3 O10 2.867970 1_555
K3 O11 2.867970 1_454
K3 O8 2.867970 1_554
K3 O9 2.867970 1_455
K3 O19 3.245574 1_454
K3 O17 3.245574 1_554
K3 O18 3.245574 1_455
K3 O16 3.245574 1_555
Ba0 O14 2.800304 1_554
Ba0 O15 2.800304 1_554
Ba0 O13 2.800304 1_555
Ba0 O12 2.800304 1_555
Ba0 O11 3.168908 1_554
Ba0 O8 3.168908 1_554
Ba0 O9 3.168908 1_555
Ba0 O10 3.168908 1_555
Ba0 O17 3.383315 1_554
Ba0 O19 3.383315 1_554
Ba0 O16 3.383315 1_555
Ba0 O18 3.383315 1_555
Ba1 O0 2.800304 1_455
Ba1 O1 2.800304 1_545
Ba1 O3 2.800304 1_445
Ba1 O2 2.800304 1_555
Ba1 O20 3.168908 1_555
Ba1 O23 3.168908 1_445
Ba1 O22 3.168908 1_545
Ba1 O21 3.168908 1_455
Ba1 O6 3.383315 1_455
Ba1 O4 3.383315 1_545
Ba1 O5 3.383315 1_555
Ba1 O7 3.383315 1_445
Ba2 O5 3.059281 1_554
Ba2 O7 3.059281 1_444
Ba2 O6 3.059281 1_455
Ba2 O4 3.059281 1_545
Ba2 O1 3.071293 1_545
Ba2 O2 3.071293 1_554
Ba2 O3 3.071293 1_444
Ba2 O0 3.071293 1_455
Ba2 O11 3.153748 1_444
Ba2 O10 3.153748 1_545
Ba2 O8 3.153748 1_554
Ba2 O9 3.153748 1_455
Ba3 O16 3.059281 1_555
Ba3 O17 3.059281 1_555
Ba3 O19 3.059281 1_555
Ba3 O18 3.059281 1_555
Ba3 O13 3.071293 1_555
Ba3 O12 3.071293 1_555
Ba3 O15 3.071293 1_555
Ba3 O14 3.071293 1_555
Ba3 O22 3.153748 1_555
Ba3 O21 3.153748 1_555
Ba3 O20 3.153748 1_555
Ba3 O23 3.153748 1_555
Bi0 O23 2.124500 1_555
Bi0 O11 2.124500 1_555
Bi0 O19 2.130488 1_555
Bi0 O7 2.130488 1_555
Bi0 O15 2.140696 1_555
Bi0 O3 2.140696 1_555
Bi1 O20 2.124500 1_555
Bi1 O8 2.124500 1_555
Bi1 O17 2.130488 1_555
Bi1 O5 2.130488 1_555
Bi1 O2 2.140696 1_555
Bi1 O14 2.140696 1_555
Bi2 O10 2.124500 1_555
Bi2 O22 2.124500 1_555
Bi2 O16 2.130488 1_555
Bi2 O4 2.130488 1_555
Bi2 O13 2.140696 1_555
Bi2 O1 2.140696 1_555
Bi3 O21 2.124500 1_555
Bi3 O9 2.124500 1_555
Bi3 O18 2.130488 1_555
Bi3 O6 2.130488 1_555
Bi3 O12 2.140696 1_555
Bi3 O0 2.140696 1_555
O0 Pr0 2.359866 1_655
O1 Pr1 2.359866 1_455
O2 Pr2 2.359866 1_455
O3 Pr3 2.359866 1_655
O4 Pr0 2.358094 1_565
O5 Pr3 2.358094 1_545
O6 Pr1 2.358094 1_545
O7 Pr2 2.358094 1_565
O8 Pr0 2.354936 1_556
O9 Pr2 2.354936 1_554
O10 Pr3 2.354936 1_554
O11 Pr1 2.354936 1_556
O12 Pr0 2.359866 1_555
O13 Pr1 2.359866 1_555
O14 Pr2 2.359866 1_555
O15 Pr3 2.359866 1_555
O16 Pr0 2.358094 1_555
O17 Pr3 2.358094 1_555
O18 Pr1 2.358094 1_555
O19 Pr2 2.358094 1_555
O20 Pr0 2.354936 1_555
O21 Pr2 2.354936 1_555
O22 Pr3 2.354936 1_555
O23 Pr1 2.354936 1_555
