# generated using pymatgen
data_Ca9Nb2Ga10(SiO7)6
_symmetry_space_group_name_H-M   'P 1'
_cell_length_a   9.61540726
_cell_length_b   9.61540726
_cell_length_c   9.61540705
_cell_angle_alpha   94.93463696
_cell_angle_beta   94.93463696
_cell_angle_gamma   94.93463090
_symmetry_Int_Tables_number   1
_chemical_formula_structural   Ca9Nb2Ga10(SiO7)6
_chemical_formula_sum   'Ca9 Nb2 Ga10 Si6 O42'
_cell_volume   878.50784270
_cell_formula_units_Z   1
loop_
 _symmetry_equiv_pos_site_id
 _symmetry_equiv_pos_as_xyz
  1  'x, y, z'
loop_
 _atom_site_type_symbol
 _atom_site_label
 _atom_site_symmetry_multiplicity
 _atom_site_fract_x
 _atom_site_fract_y
 _atom_site_fract_z
 _atom_site_occupancy
  Ca  Ca0  1  0.28037300  0.85971300  0.85882000  1
  Ca  Ca1  1  0.94937500  0.52481700  0.52490000  1
  Ca  Ca2  1  0.61656200  0.19153600  0.19187200  1
  Ca  Ca3  1  0.52481700  0.52490000  0.94937500  1
  Ca  Ca4  1  0.19153600  0.19187200  0.61656200  1
  Ca  Ca5  1  0.85971300  0.85882000  0.28037300  1
  Ca  Ca6  1  0.85882000  0.28037300  0.85971300  1
  Ca  Ca7  1  0.52490000  0.94937500  0.52481700  1
  Ca  Ca8  1  0.19187200  0.61656200  0.19153600  1
  Nb  Nb0  1  0.66712100  0.66712100  0.66712100  1
  Nb  Nb1  1  0.33289000  0.33289000  0.33289000  1
  Ga  Ga0  1  0.33050200  0.58465600  0.58479900  1
  Ga  Ga1  1  0.99703800  0.25052500  0.24761100  1
  Ga  Ga2  1  0.66561900  0.91750600  0.91994000  1
  Ga  Ga3  1  0.91750600  0.91994000  0.66561900  1
  Ga  Ga4  1  0.58465600  0.58479900  0.33050200  1
  Ga  Ga5  1  0.25052500  0.24761100  0.99703700  1
  Ga  Ga6  1  0.91994000  0.66561900  0.91750600  1
  Ga  Ga7  1  0.58479900  0.33050200  0.58465600  1
  Ga  Ga8  1  0.24761100  0.99703800  0.25052500  1
  Ga  Ga9  1  0.99990400  0.99990400  0.99990400  1
  Si  Si0  1  0.14892000  0.81671800  0.48445900  1
  Si  Si1  1  0.81671800  0.48445900  0.14892000  1
  Si  Si2  1  0.48445900  0.14892000  0.81671800  1
  Si  Si3  1  0.18366600  0.51539500  0.85019500  1
  Si  Si4  1  0.85019500  0.18366600  0.51539500  1
  Si  Si5  1  0.51539500  0.85019500  0.18366600  1
  O  O0  1  0.25558800  0.92357100  0.59152300  1
  O  O1  1  0.92357100  0.59152300  0.25558800  1
  O  O2  1  0.59152300  0.25558800  0.92357100  1
  O  O3  1  0.07697100  0.40851300  0.74366500  1
  O  O4  1  0.74366500  0.07697100  0.40851300  1
  O  O5  1  0.40851300  0.74366500  0.07697100  1
  O  O6  1  0.10751800  0.62862100  0.95212000  1
  O  O7  1  0.77350700  0.29630000  0.61841600  1
  O  O8  1  0.43851800  0.96303000  0.28607700  1
  O  O9  1  0.29630000  0.61841600  0.77350700  1
  O  O10  1  0.96303000  0.28607700  0.43851800  1
  O  O11  1  0.62862100  0.95212000  0.10751800  1
  O  O12  1  0.28607700  0.43851800  0.96303000  1
  O  O13  1  0.95212000  0.10751800  0.62862100  1
  O  O14  1  0.61841600  0.77350700  0.29630000  1
  O  O15  1  0.15945500  0.83656800  0.31559500  1
  O  O16  1  0.82701800  0.50507500  0.98026600  1
  O  O17  1  0.49336400  0.17028500  0.64774600  1
  O  O18  1  0.17028500  0.64774600  0.49336400  1
  O  O19  1  0.83656800  0.31559500  0.15945500  1
  O  O20  1  0.50507500  0.98026700  0.82701800  1
  O  O21  1  0.98026600  0.82701800  0.50507500  1
  O  O22  1  0.64774600  0.49336400  0.17028500  1
  O  O23  1  0.31559500  0.15945500  0.83656800  1
  O  O24  1  0.53523800  0.30942000  0.39255300  1
  O  O25  1  0.19939900  0.97714000  0.06053800  1
  O  O26  1  0.86828700  0.64112000  0.72521400  1
  O  O27  1  0.97714000  0.06053800  0.19939900  1
  O  O28  1  0.64112000  0.72521400  0.86828700  1
  O  O29  1  0.30942000  0.39255300  0.53523800  1
  O  O30  1  0.72521400  0.86828700  0.64112000  1
  O  O31  1  0.39255300  0.53523800  0.30942000  1
  O  O32  1  0.06053800  0.19939900  0.97714000  1
  O  O33  1  0.90234400  0.81926300  0.04202100  1
  O  O34  1  0.56726700  0.48445400  0.71064200  1
  O  O35  1  0.23414900  0.15132900  0.37806500  1
  O  O36  1  0.15132900  0.37806500  0.23414900  1
  O  O37  1  0.81926300  0.04202100  0.90234400  1
  O  O38  1  0.48445400  0.71064200  0.56726700  1
  O  O39  1  0.71064200  0.56726700  0.48445400  1
  O  O40  1  0.37806500  0.23414900  0.15132900  1
  O  O41  1  0.04202100  0.90234400  0.81926300  1
loop_
_geom_bond_atom_site_label_1
_geom_bond_atom_site_label_2
_geom_bond_distance
_geom_bond_site_symmetry_2
Ca0 O41 2.367227 1_555
Ca0 O25 2.382737 1_556
Ca0 O9 2.415547 1_555
Ca0 O20 2.418505 1_555
Ca0 O0 2.689031 1_555
Ca0 O5 2.712522 1_556
Ca0 O23 2.901353 1_565
Ca0 O6 2.910134 1_555
Ca1 O26 2.367739 1_555
Ca1 O39 2.371110 1_555
Ca1 O10 2.391531 1_555
Ca1 O18 2.396163 1_655
Ca1 O3 2.716136 1_655
Ca1 O1 2.716853 1_555
Ca1 O7 2.908350 1_555
Ca1 O21 2.919710 1_555
Ca2 O40 2.369424 1_555
Ca2 O24 2.378140 1_555
Ca2 O11 2.389933 1_545
Ca2 O19 2.395518 1_555
Ca2 O4 2.689763 1_555
Ca2 O2 2.699032 1_554
Ca2 O22 2.918970 1_555
Ca2 O8 2.922497 1_545
Ca3 O28 2.367739 1_555
Ca3 O34 2.371110 1_555
Ca3 O12 2.391531 1_555
Ca3 O22 2.396163 1_556
Ca3 O5 2.716136 1_556
Ca3 O2 2.716853 1_555
Ca3 O9 2.908350 1_555
Ca3 O16 2.919710 1_555
Ca4 O35 2.369424 1_555
Ca4 O29 2.378141 1_555
Ca4 O13 2.389933 1_455
Ca4 O23 2.395518 1_555
Ca4 O3 2.689763 1_555
Ca4 O0 2.699032 1_545
Ca4 O17 2.918970 1_555
Ca4 O10 2.922497 1_455
Ca5 O33 2.367227 1_555
Ca5 O27 2.382737 1_565
Ca5 O14 2.415547 1_555
Ca5 O21 2.418501 1_555
Ca5 O1 2.689031 1_555
Ca5 O4 2.712522 1_565
Ca5 O15 2.901353 1_655
Ca5 O11 2.910133 1_555
Ca6 O37 2.367227 1_555
Ca6 O32 2.382737 1_655
Ca6 O7 2.415547 1_555
Ca6 O16 2.418501 1_555
Ca6 O2 2.689031 1_555
Ca6 O3 2.712522 1_655
Ca6 O19 2.901353 1_556
Ca6 O13 2.910133 1_555
Ca7 O30 2.367739 1_555
Ca7 O38 2.371110 1_555
Ca7 O8 2.391531 1_555
Ca7 O17 2.396163 1_565
Ca7 O4 2.716136 1_565
Ca7 O0 2.716854 1_555
Ca7 O14 2.908350 1_555
Ca7 O20 2.919710 1_555
Ca8 O36 2.369424 1_555
Ca8 O31 2.378140 1_555
Ca8 O6 2.389933 1_554
Ca8 O15 2.395518 1_555
Ca8 O5 2.689763 1_555
Ca8 O1 2.699032 1_455
Ca8 O18 2.918970 1_555
Ca8 O12 2.922497 1_554
Nb0 O28 2.009317 1_555
Nb0 O26 2.009317 1_555
Nb0 O30 2.009317 1_555
Nb0 O39 2.021740 1_555
Nb0 O38 2.021740 1_555
Nb0 O34 2.021740 1_555
Nb1 O40 2.013486 1_555
Nb1 O36 2.013486 1_555
Nb1 O35 2.013486 1_555
Nb1 O29 2.017774 1_555
Nb1 O24 2.017774 1_555
Nb1 O31 2.017774 1_555
Ga0 O29 1.856791 1_555
Ga0 O38 1.859247 1_555
Ga0 O9 1.877671 1_555
Ga0 O18 1.879839 1_555
Ga1 O27 1.835112 1_555
Ga1 O36 1.862529 1_655
Ga1 O19 1.876994 1_555
Ga1 O10 1.899457 1_555
Ga2 O37 1.848832 1_565
Ga2 O28 1.862202 1_555
Ga2 O11 1.875614 1_556
Ga2 O20 1.887122 1_555
Ga3 O41 1.848832 1_655
Ga3 O30 1.862202 1_555
Ga3 O13 1.875614 1_565
Ga3 O21 1.887118 1_555
Ga4 O31 1.856791 1_555
Ga4 O39 1.859247 1_555
Ga4 O14 1.877671 1_555
Ga4 O22 1.879839 1_555
Ga5 O32 1.835112 1_555
Ga5 O40 1.862536 1_556
Ga5 O23 1.876986 1_555
Ga5 O12 1.899455 1_555
Ga6 O33 1.848832 1_556
Ga6 O26 1.862202 1_555
Ga6 O6 1.875614 1_655
Ga6 O16 1.887118 1_555
Ga7 O24 1.856791 1_555
Ga7 O34 1.859247 1_555
Ga7 O7 1.877671 1_555
Ga7 O17 1.879839 1_555
Ga8 O25 1.835112 1_555
Ga8 O35 1.862529 1_565
Ga8 O15 1.876994 1_555
Ga8 O8 1.899457 1_555
Ga9 O41 1.991732 1_655
Ga9 O37 1.991732 1_565
Ga9 O33 1.991732 1_556
Ga9 O27 1.992285 1_566
Ga9 O25 1.992285 1_656
Ga9 O32 1.992285 1_665
O0 Si0 1.619407 1_555
O1 Si1 1.619407 1_555
O2 Si2 1.619407 1_555
O3 Si3 1.616992 1_555
O4 Si4 1.616992 1_555
O5 Si5 1.616992 1_555
O6 Si3 1.661004 1_555
O7 Si4 1.666262 1_555
O8 Si5 1.665122 1_555
O9 Si3 1.666262 1_555
O10 Si4 1.665122 1_555
O11 Si5 1.661004 1_555
O12 Si3 1.665122 1_555
O13 Si4 1.661004 1_555
O14 Si5 1.666262 1_555
O15 Si0 1.661736 1_555
O16 Si1 1.660873 1_556
O17 Si2 1.663618 1_555
O18 Si0 1.663618 1_555
O19 Si1 1.661736 1_555
O20 Si2 1.660863 1_565
O21 Si0 1.660873 1_655
O22 Si1 1.663618 1_555
O23 Si2 1.661736 1_555
