# generated using pymatgen
data_MgFe8(O7F)2
_symmetry_space_group_name_H-M   'P 1'
_cell_length_a   4.84993298
_cell_length_b   4.78399034
_cell_length_c   11.87212773
_cell_angle_alpha   89.92477436
_cell_angle_beta   89.90567856
_cell_angle_gamma   89.75482676
_symmetry_Int_Tables_number   1
_chemical_formula_structural   MgFe8(O7F)2
_chemical_formula_sum   'Mg1 Fe8 O14 F2'
_cell_volume   275.45436359
_cell_formula_units_Z   1
loop_
 _symmetry_equiv_pos_site_id
 _symmetry_equiv_pos_as_xyz
  1  'x, y, z'
loop_
 _atom_site_type_symbol
 _atom_site_label
 _atom_site_symmetry_multiplicity
 _atom_site_fract_x
 _atom_site_fract_y
 _atom_site_fract_z
 _atom_site_occupancy
  Mg  Mg0  1  0.97822700  0.49180000  0.87324000  1
  Fe  Fe0  1  0.01589200  0.99187600  0.01374300  1
  Fe  Fe1  1  0.99737500  0.98982800  0.25235300  1
  Fe  Fe2  1  0.03010700  0.02342700  0.49461800  1
  Fe  Fe3  1  0.01250400  0.98978700  0.73223100  1
  Fe  Fe4  1  0.50189300  0.48977200  0.12464600  1
  Fe  Fe5  1  0.49723000  0.48501200  0.62462200  1
  Fe  Fe6  1  0.47201300  0.55017800  0.87365500  1
  Fe  Fe7  1  0.49910200  0.49083800  0.36704700  1
  O  O0  1  0.20205500  0.80726800  0.13442400  1
  O  O1  1  0.21510500  0.81753900  0.61244500  1
  O  O2  1  0.18732000  0.84227900  0.87327400  1
  O  O3  1  0.18731900  0.80928500  0.37380400  1
  O  O4  1  0.26447700  0.34414200  0.98968400  1
  O  O5  1  0.31315700  0.30120600  0.25131300  1
  O  O6  1  0.32551600  0.31663100  0.49221000  1
  O  O7  1  0.26566600  0.34404000  0.75711500  1
  O  O8  1  0.71600100  0.66296200  0.99115000  1
  O  O9  1  0.69040100  0.67888500  0.25267800  1
  O  O10  1  0.71633800  0.66465800  0.75488400  1
  O  O11  1  0.80448300  0.17503100  0.13018300  1
  O  O12  1  0.82082100  0.18220100  0.37415400  1
  O  O13  1  0.81173900  0.18701400  0.61595600  1
  F  F0  1  0.69991400  0.68830200  0.49566300  1
  F  F1  1  0.76145400  0.16215600  0.87268700  1
loop_
_geom_bond_atom_site_label_1
_geom_bond_atom_site_label_2
_geom_bond_distance
_geom_bond_site_symmetry_2
Mg0 O2 1.963214 1_655
Mg0 O8 2.058084 1_555
Mg0 O10 2.065275 1_555
Mg0 O7 2.081240 1_655
Mg0 O4 2.081549 1_655
Fe0 O0 1.908408 1_555
Fe0 O11 1.928952 1_465
Fe0 O2 1.994498 1_554
Fe0 O4 2.095262 1_564
Fe0 O8 2.164561 1_454
Fe1 O12 1.914125 1_565
Fe1 O3 1.915192 1_655
Fe1 O0 1.923433 1_655
Fe1 O11 1.938533 1_565
Fe1 O9 2.109092 1_555
Fe1 O5 2.141056 1_665
Fe2 O12 1.909953 1_455
Fe2 O3 1.918777 1_545
Fe2 O1 1.930007 1_545
Fe2 O13 1.949382 1_455
Fe2 O6 2.009470 1_555
Fe3 O1 1.912719 1_555
Fe3 O13 1.933151 1_465
Fe3 O2 2.004285 1_555
Fe3 O7 2.118322 1_565
Fe3 O10 2.138129 1_455
Fe4 O5 1.977894 1_555
Fe4 O9 1.995010 1_555
Fe4 O8 2.067636 1_554
Fe4 O4 2.096286 1_554
Fe4 O11 2.099126 1_555
Fe4 O0 2.101478 1_555
Fe5 O6 1.956282 1_555
Fe5 O7 2.046519 1_555
Fe5 O10 2.067896 1_555
Fe5 O13 2.085886 1_555
Fe5 O1 2.098855 1_555
Fe6 O8 1.910509 1_555
Fe6 O10 1.921036 1_555
Fe6 O2 1.960283 1_555
Fe6 O4 1.970423 1_555
Fe6 O7 1.976090 1_555
Fe7 O9 1.874437 1_555
Fe7 O5 1.881102 1_555
Fe7 O6 1.900003 1_555
Fe7 O3 2.143376 1_555
Fe7 O12 2.145273 1_555
F0 Fe7 2.046715 1_555
F0 Fe5 2.062876 1_555
F0 Fe2 2.270880 1_665
F1 Mg0 1.899094 1_555
F1 Fe3 2.220676 1_645
F1 Fe0 2.232800 1_646
F1 Fe6 2.322548 1_555
