# generated using pymatgen
data_Sr4CaY2(RuO6)2
_symmetry_space_group_name_H-M   'P 1'
_cell_length_a   6.03687564
_cell_length_b   6.21739596
_cell_length_c   8.26564839
_cell_angle_alpha   87.22158680
_cell_angle_beta   92.88179472
_cell_angle_gamma   94.27691253
_symmetry_Int_Tables_number   1
_chemical_formula_structural   Sr4CaY2(RuO6)2
_chemical_formula_sum   'Sr4 Ca1 Y2 Ru2 O12'
_cell_volume   308.67304939
_cell_formula_units_Z   1
loop_
 _symmetry_equiv_pos_site_id
 _symmetry_equiv_pos_as_xyz
  1  'x, y, z'
loop_
 _atom_site_type_symbol
 _atom_site_label
 _atom_site_symmetry_multiplicity
 _atom_site_fract_x
 _atom_site_fract_y
 _atom_site_fract_z
 _atom_site_occupancy
  Sr  Sr0  1  0.48628500  0.54400400  0.25808100  1
  Sr  Sr1  1  0.02186200  0.07237900  0.25668000  1
  Sr  Sr2  1  0.13067400  0.87882200  0.70095600  1
  Sr  Sr3  1  0.41758600  0.42980400  0.76006500  1
  Ca  Ca0  1  0.85971900  0.17169400  0.83714300  1
  Y  Y0  1  0.55932600  0.98029400  0.49007900  1
  Y  Y1  1  0.95742800  0.58290500  0.02130900  1
  Ru  Ru0  1  0.47498500  0.00908200  0.00573400  1
  Ru  Ru1  1  0.00208600  0.49222800  0.49713900  1
  O  O0  1  0.94784400  0.51576600  0.74916700  1
  O  O1  1  0.52755100  0.02524300  0.75530300  1
  O  O2  1  0.07028300  0.47695200  0.26290600  1
  O  O3  1  0.42323700  0.98569200  0.24149900  1
  O  O4  1  0.83538900  0.78054000  0.45634800  1
  O  O5  1  0.67165400  0.31525900  0.02621200  1
  O  O6  1  0.16404200  0.22420900  0.54773000  1
  O  O7  1  0.30254300  0.72015700  0.97186400  1
  O  O8  1  0.20085800  0.16553500  0.95911100  1
  O  O9  1  0.30929800  0.67680600  0.52288200  1
  O  O10  1  0.77027300  0.86050600  0.04012800  1
  O  O11  1  0.72124400  0.31087200  0.46778800  1
loop_
_geom_bond_atom_site_label_1
_geom_bond_atom_site_label_2
_geom_bond_distance
_geom_bond_site_symmetry_2
Ca0 O1 2.226820 1_555
Ca0 O5 2.234449 1_556
Ca0 O8 2.249058 1_655
Ca0 O0 2.259749 1_555
Ca0 O10 2.543723 1_546
O0 Ru1 2.138587 1_655
O0 Y1 2.304750 1_556
O0 Sr2 2.461231 1_655
O0 Sr3 2.920802 1_655
O0 Sr3 3.210912 1_555
O1 Ru0 2.106353 1_556
O1 Y0 2.242883 1_545
O1 Sr2 2.525266 1_545
O1 Sr3 2.651478 1_555
O2 Ru1 2.007674 1_555
O2 Y1 2.165306 1_455
O2 Sr1 2.513295 1_555
O2 Sr0 2.516859 1_555
O3 Ru0 1.985782 1_565
O3 Y0 2.173812 1_555
O3 Sr1 2.531664 1_565
O3 Sr0 2.796274 1_555
O4 Ru1 2.125079 1_655
O4 Y0 2.187829 1_555
O4 Sr1 2.622055 1_665
O4 Sr2 2.689574 1_655
O4 Sr0 2.951964 1_555
O5 Ru0 2.176226 1_555
O5 Y1 2.306360 1_555
O5 Sr3 2.714938 1_554
O5 Sr0 2.768638 1_555
O5 Sr1 3.189242 1_655
O6 Ru1 2.010458 1_555
O6 Sr2 2.439970 1_545
O6 Sr3 2.590874 1_555
O6 Sr1 2.703144 1_555
O7 Ru0 2.032122 1_566
O7 Y1 2.241091 1_456
O7 Sr2 2.601675 1_555
O7 Sr3 2.724272 1_555
O7 Sr0 2.773605 1_556
O8 Ru0 1.993224 1_556
O8 Sr3 2.598467 1_555
O8 Sr1 2.754728 1_556
O8 Sr2 2.841759 1_545
O8 Y1 3.151473 1_456
O9 Ru1 2.113844 1_555
O9 Sr2 2.334027 1_555
O9 Y0 2.340711 1_555
O9 Sr3 2.521546 1_555
O9 Sr0 2.675052 1_555
O10 Ru0 2.069073 1_565
O10 Y1 2.148067 1_555
O10 Sr1 2.627313 1_665
O10 Sr0 3.085554 1_555
O11 Ru1 1.976029 1_655
O11 Y0 2.212589 1_545
O11 Sr0 2.633115 1_555
O11 Sr1 3.083447 1_655
O11 Sr3 3.250269 1_555
