# generated using pymatgen
data_VCr
_symmetry_space_group_name_H-M   'P 1'
_cell_length_a   5.10615505
_cell_length_b   5.10615505
_cell_length_c   8.00398238
_cell_angle_alpha   90.00000000
_cell_angle_beta   90.00000000
_cell_angle_gamma   110.70939350
_symmetry_Int_Tables_number   1
_chemical_formula_structural   VCr
_chemical_formula_sum   'V8 Cr8'
_cell_volume   195.20233857
_cell_formula_units_Z   8
loop_
 _symmetry_equiv_pos_site_id
 _symmetry_equiv_pos_as_xyz
  1  'x, y, z'
loop_
 _atom_site_type_symbol
 _atom_site_label
 _atom_site_symmetry_multiplicity
 _atom_site_fract_x
 _atom_site_fract_y
 _atom_site_fract_z
 _atom_site_occupancy
  V  V0_0  1  0.25000000  0.25000000  0.25000000  1
  V  V0_1  1  0.25000000  0.25000000  0.75000000  1
  V  V0_2  1  0.25000000  0.75000000  0.25000000  1
  V  V0_3  1  0.25000000  0.75000000  0.75000000  1
  V  V0_4  1  0.75000000  0.25000000  0.25000000  1
  V  V0_5  1  0.75000000  0.25000000  0.75000000  1
  V  V0_6  1  0.75000000  0.75000000  0.25000000  1
  V  V0_7  1  0.75000000  0.75000000  0.75000000  1
  Cr  Cr0_0  1  0.00000000  0.00000000  0.00000000  1
  Cr  Cr0_1  1  0.00000000  0.00000000  0.50000000  1
  Cr  Cr0_2  1  0.00000000  0.50000000  0.00000000  1
  Cr  Cr0_3  1  0.00000000  0.50000000  0.50000000  1
  Cr  Cr0_4  1  0.50000000  0.00000000  0.00000000  1
  Cr  Cr0_5  1  0.50000000  0.00000000  0.50000000  1
  Cr  Cr0_6  1  0.50000000  0.50000000  0.00000000  1
  Cr  Cr0_7  1  0.50000000  0.50000000  0.50000000  1
loop_
_geom_bond_atom_site_label_1
_geom_bond_atom_site_label_2
_geom_bond_distance
_geom_bond_site_symmetry_2
V0_0 V0_4 2.553078 1_555
V0_0 V0_2 2.553078 1_555
V0_0 V0_4 2.553078 1_455
V0_0 V0_2 2.553078 1_545
V0_1 V0_3 2.553078 1_555
V0_1 V0_5 2.553078 1_555
V0_1 V0_5 2.553078 1_455
V0_1 V0_3 2.553078 1_545
V0_2 V0_6 2.553078 1_555
V0_2 V0_6 2.553078 1_455
V0_3 V0_7 2.553078 1_555
V0_3 V0_7 2.553078 1_455
V0_4 V0_6 2.553078 1_555
V0_4 V0_6 2.553078 1_545
V0_5 V0_7 2.553078 1_545
V0_5 V0_7 2.553078 1_555
Cr0_0 V0_6 2.471958 1_445
Cr0_0 V0_7 2.471958 1_444
Cr0_0 V0_0 2.471958 1_555
Cr0_0 V0_1 2.471958 1_554
Cr0_0 Cr0_4 2.553078 1_455
Cr0_0 Cr0_2 2.553078 1_555
Cr0_0 Cr0_2 2.553078 1_545
Cr0_0 Cr0_4 2.553078 1_555
Cr0_1 V0_1 2.471958 1_555
Cr0_1 V0_6 2.471958 1_445
Cr0_1 V0_0 2.471958 1_555
Cr0_1 V0_7 2.471958 1_445
Cr0_1 Cr0_5 2.553078 1_555
Cr0_1 Cr0_3 2.553078 1_555
Cr0_1 Cr0_5 2.553078 1_455
Cr0_1 Cr0_3 2.553078 1_545
Cr0_2 V0_4 2.471958 1_455
Cr0_2 V0_2 2.471958 1_555
Cr0_2 V0_5 2.471958 1_454
Cr0_2 V0_3 2.471958 1_554
Cr0_2 Cr0_6 2.553078 1_455
Cr0_2 Cr0_6 2.553078 1_555
Cr0_3 V0_3 2.471958 1_555
Cr0_3 V0_5 2.471958 1_455
Cr0_3 V0_2 2.471958 1_555
Cr0_3 V0_4 2.471958 1_455
Cr0_3 Cr0_7 2.553078 1_555
Cr0_3 Cr0_7 2.553078 1_455
Cr0_4 V0_4 2.471958 1_555
Cr0_4 V0_2 2.471958 1_545
Cr0_4 V0_3 2.471958 1_544
Cr0_4 V0_5 2.471958 1_554
Cr0_4 Cr0_6 2.553078 1_555
Cr0_4 Cr0_6 2.553078 1_545
Cr0_5 V0_5 2.471958 1_555
Cr0_5 V0_2 2.471958 1_545
Cr0_5 V0_3 2.471958 1_545
Cr0_5 V0_4 2.471958 1_555
Cr0_5 Cr0_7 2.553078 1_545
Cr0_5 Cr0_7 2.553078 1_555
Cr0_6 V0_0 2.471958 1_555
Cr0_6 V0_6 2.471958 1_555
Cr0_6 V0_7 2.471958 1_554
Cr0_6 V0_1 2.471958 1_554
Cr0_7 V0_1 2.471958 1_555
Cr0_7 V0_6 2.471958 1_555
Cr0_7 V0_0 2.471958 1_555
Cr0_7 V0_7 2.471958 1_555
