# generated using pymatgen
data_Sr2Mg
_symmetry_space_group_name_H-M   'P 1'
_cell_length_a   10.23372440
_cell_length_b   10.23372440
_cell_length_c   6.25326200
_cell_angle_alpha   90.00000000
_cell_angle_beta   90.00000000
_cell_angle_gamma   156.85094560
_symmetry_Int_Tables_number   1
_chemical_formula_structural   Sr2Mg
_chemical_formula_sum   'Sr4 Mg2'
_cell_volume   257.45667510
_cell_formula_units_Z   2
loop_
 _symmetry_equiv_pos_site_id
 _symmetry_equiv_pos_as_xyz
  1  'x, y, z'
loop_
 _atom_site_type_symbol
 _atom_site_label
 _atom_site_symmetry_multiplicity
 _atom_site_fract_x
 _atom_site_fract_y
 _atom_site_fract_z
 _atom_site_occupancy
  Sr  Sr0  1  0.08388000  0.91612000  0.25000000  1
  Sr  Sr1  1  0.78921200  0.21078800  0.25000000  1
  Sr  Sr2  1  0.21078800  0.78921200  0.75000000  1
  Sr  Sr3  1  0.91612000  0.08388000  0.75000000  1
  Mg  Mg0  1  0.43956100  0.56043900  0.25000000  1
  Mg  Mg1  1  0.56043900  0.43956100  0.75000000  1
loop_
_geom_bond_atom_site_label_1
_geom_bond_atom_site_label_2
_geom_bond_distance
_geom_bond_site_symmetry_2
Mg0 Sr0 3.548246 1_655
Mg0 Sr0 3.548246 1_545
Mg0 Sr1 3.647524 1_455
Mg0 Sr1 3.647524 1_565
Mg0 Sr3 3.769995 1_564
Mg0 Sr3 3.769995 1_565
Mg0 Sr3 3.769995 1_455
Mg0 Sr3 3.769995 1_454
Mg1 Sr3 3.548246 1_455
Mg1 Sr3 3.548246 1_565
Mg1 Sr2 3.647524 1_655
Mg1 Sr2 3.647524 1_545
Mg1 Sr0 3.769995 1_655
Mg1 Sr0 3.769995 1_656
Mg1 Sr0 3.769995 1_546
Mg1 Sr0 3.769995 1_545
