# generated using pymatgen
data_Ba2S2O3F2
_symmetry_space_group_name_H-M   'P 1'
_cell_length_a   4.63482500
_cell_length_b   4.72285037
_cell_length_c   8.11084732
_cell_angle_alpha   103.54913672
_cell_angle_beta   101.06069541
_cell_angle_gamma   88.16105385
_symmetry_Int_Tables_number   1
_chemical_formula_structural   Ba2S2O3F2
_chemical_formula_sum   'Ba2 S2 O3 F2'
_cell_volume   169.38039880
_cell_formula_units_Z   1
loop_
 _symmetry_equiv_pos_site_id
 _symmetry_equiv_pos_as_xyz
  1  'x, y, z'
loop_
 _atom_site_type_symbol
 _atom_site_label
 _atom_site_symmetry_multiplicity
 _atom_site_fract_x
 _atom_site_fract_y
 _atom_site_fract_z
 _atom_site_occupancy
  Ba  Ba0  1  0.80242000  0.81326600  0.68097300  1
  Ba  Ba1  1  0.20469700  0.18783000  0.30727900  1
  S  S0  1  0.41187800  0.34482000  0.90544800  1
  S  S1  1  0.63626200  0.61345300  0.16649200  1
  O  O0  1  0.12747100  0.24762100  0.94382500  1
  O  O1  1  0.35193200  0.58396900  0.80792400  1
  O  O2  1  0.68470000  0.93142200  0.13752500  1
  F  F0  1  0.23365600  0.76781500  0.48875500  1
  F  F1  1  0.75378400  0.25560400  0.52137900  1
loop_
_geom_bond_atom_site_label_1
_geom_bond_atom_site_label_2
_geom_bond_distance
_geom_bond_site_symmetry_2
Ba0 F1 2.644196 1_555
Ba0 F1 2.686190 1_565
Ba0 F0 2.735474 1_655
Ba0 F0 2.780004 1_555
Ba0 O0 2.817777 1_665
Ba0 O1 2.838815 1_655
Ba0 O1 2.843407 1_555
Ba1 O2 2.702512 1_445
Ba1 F0 2.719324 1_545
Ba1 F1 2.773225 1_555
Ba1 F0 2.783222 1_555
Ba1 O2 2.921089 1_545
Ba1 F1 2.928280 1_455
Ba1 O0 2.979394 1_554
O0 S0 1.519354 1_555
O1 S0 1.514173 1_555
O2 S1 1.602485 1_555
