# generated using pymatgen
data_Tb2Fe14C
_symmetry_space_group_name_H-M   'P 1'
_cell_length_a   8.72904100
_cell_length_b   8.72904100
_cell_length_c   11.77236900
_cell_angle_alpha   90.00000000
_cell_angle_beta   90.00000000
_cell_angle_gamma   90.00000000
_symmetry_Int_Tables_number   1
_chemical_formula_structural   Tb2Fe14C
_chemical_formula_sum   'Tb8 Fe56 C4'
_cell_volume   897.00927399
_cell_formula_units_Z   4
loop_
 _symmetry_equiv_pos_site_id
 _symmetry_equiv_pos_as_xyz
  1  'x, y, z'
loop_
 _atom_site_type_symbol
 _atom_site_label
 _atom_site_symmetry_multiplicity
 _atom_site_fract_x
 _atom_site_fract_y
 _atom_site_fract_z
 _atom_site_occupancy
  Tb  Tb0  1  0.24109400  0.75890600  0.50000000  1
  Tb  Tb1  1  0.75890600  0.24109400  0.50000000  1
  Tb  Tb2  1  0.25890600  0.25890600  0.00000000  1
  Tb  Tb3  1  0.74109400  0.74109400  0.00000000  1
  Tb  Tb4  1  0.64392000  0.64392000  0.50000000  1
  Tb  Tb5  1  0.35608000  0.35608000  0.50000000  1
  Tb  Tb6  1  0.85608000  0.14392000  0.00000000  1
  Tb  Tb7  1  0.14392000  0.85608000  0.00000000  1
  Fe  Fe0  1  0.00000000  0.50000000  0.50000000  1
  Fe  Fe1  1  0.50000000  0.00000000  0.00000000  1
  Fe  Fe2  1  0.50000000  0.00000000  0.50000000  1
  Fe  Fe3  1  0.00000000  0.50000000  0.00000000  1
  Fe  Fe4  1  0.50000000  0.50000000  0.10641100  1
  Fe  Fe5  1  0.00000000  0.00000000  0.60641100  1
  Fe  Fe6  1  0.50000000  0.50000000  0.89358900  1
  Fe  Fe7  1  0.00000000  0.00000000  0.39358900  1
  Fe  Fe8  1  0.18301100  0.81698900  0.25498100  1
  Fe  Fe9  1  0.81698900  0.18301100  0.25498100  1
  Fe  Fe10  1  0.31698900  0.31698900  0.75498100  1
  Fe  Fe11  1  0.68301100  0.68301100  0.75498100  1
  Fe  Fe12  1  0.81698900  0.18301100  0.74501900  1
  Fe  Fe13  1  0.18301100  0.81698900  0.74501900  1
  Fe  Fe14  1  0.68301100  0.68301100  0.24501900  1
  Fe  Fe15  1  0.31698900  0.31698900  0.24501900  1
  Fe  Fe16  1  0.40267900  0.59732100  0.29577800  1
  Fe  Fe17  1  0.59732100  0.40267900  0.29577800  1
  Fe  Fe18  1  0.09732100  0.09732100  0.79577800  1
  Fe  Fe19  1  0.90267900  0.90267900  0.79577800  1
  Fe  Fe20  1  0.59732100  0.40267900  0.70422200  1
  Fe  Fe21  1  0.40267900  0.59732100  0.70422200  1
  Fe  Fe22  1  0.90267900  0.90267900  0.20422200  1
  Fe  Fe23  1  0.09732100  0.09732100  0.20422200  1
  Fe  Fe24  1  0.14146900  0.53568400  0.32432100  1
  Fe  Fe25  1  0.85853100  0.46431600  0.32432100  1
  Fe  Fe26  1  0.35853100  0.03568400  0.82432100  1
  Fe  Fe27  1  0.64146900  0.96431600  0.82432100  1
  Fe  Fe28  1  0.85853100  0.46431600  0.67567900  1
  Fe  Fe29  1  0.14146900  0.53568400  0.67567900  1
  Fe  Fe30  1  0.64146900  0.96431600  0.17567900  1
  Fe  Fe31  1  0.35853100  0.03568400  0.17567900  1
  Fe  Fe32  1  0.53568400  0.14146900  0.32432100  1
  Fe  Fe33  1  0.46431600  0.85853100  0.32432100  1
  Fe  Fe34  1  0.03568400  0.35853100  0.82432100  1
  Fe  Fe35  1  0.96431600  0.64146900  0.82432100  1
  Fe  Fe36  1  0.46431600  0.85853100  0.67567900  1
  Fe  Fe37  1  0.53568400  0.14146900  0.67567900  1
  Fe  Fe38  1  0.96431600  0.64146900  0.17567900  1
  Fe  Fe39  1  0.03568400  0.35853100  0.17567900  1
  Fe  Fe40  1  0.93533400  0.72587800  0.37934900  1
  Fe  Fe41  1  0.06466600  0.27412200  0.37934900  1
  Fe  Fe42  1  0.56466600  0.22587800  0.87934900  1
  Fe  Fe43  1  0.43533400  0.77412200  0.87934900  1
  Fe  Fe44  1  0.06466600  0.27412200  0.62065100  1
  Fe  Fe45  1  0.93533400  0.72587800  0.62065100  1
  Fe  Fe46  1  0.43533400  0.77412200  0.12065100  1
  Fe  Fe47  1  0.56466600  0.22587800  0.12065100  1
  Fe  Fe48  1  0.72587800  0.93533400  0.37934900  1
  Fe  Fe49  1  0.27412200  0.06466600  0.37934900  1
  Fe  Fe50  1  0.22587800  0.56466600  0.87934900  1
  Fe  Fe51  1  0.77412200  0.43533400  0.87934900  1
  Fe  Fe52  1  0.27412200  0.06466600  0.62065100  1
  Fe  Fe53  1  0.72587800  0.93533400  0.62065100  1
  Fe  Fe54  1  0.77412200  0.43533400  0.12065100  1
  Fe  Fe55  1  0.22587800  0.56466600  0.12065100  1
  C  C0  1  0.87100100  0.87100100  0.50000000  1
  C  C1  1  0.12899900  0.12899900  0.50000000  1
  C  C2  1  0.62899900  0.37100100  0.00000000  1
  C  C3  1  0.37100100  0.62899900  0.00000000  1
loop_
_geom_bond_atom_site_label_1
_geom_bond_atom_site_label_2
_geom_bond_distance
_geom_bond_site_symmetry_2
Fe0 Fe29 2.428838 1_555
Fe0 Fe28 2.428838 1_455
Fe0 Fe24 2.428838 1_555
Fe0 Fe25 2.428838 1_455
Fe0 Fe45 2.494717 1_455
Fe0 Fe40 2.494717 1_455
Fe0 Fe44 2.494717 1_555
Fe0 Fe41 2.494717 1_555
Fe0 Tb0 3.088140 1_555
Fe0 Tb1 3.088140 1_455
Fe0 Tb5 3.352519 1_555
Fe0 Tb4 3.352519 1_455
Fe1 Fe31 2.428838 1_555
Fe1 Fe30 2.428838 1_545
Fe1 Fe27 2.428838 1_544
Fe1 Fe26 2.428838 1_554
Fe1 Fe47 2.494717 1_555
Fe1 Fe46 2.494717 1_545
Fe1 Fe43 2.494717 1_544
Fe1 Fe42 2.494717 1_554
Fe1 Tb2 3.088140 1_555
Fe1 Tb3 3.088140 1_545
Fe1 Tb7 3.352519 1_545
Fe1 Tb6 3.352519 1_555
Fe2 Fe37 2.428838 1_555
Fe2 Fe36 2.428838 1_545
Fe2 Fe32 2.428838 1_555
Fe2 Fe33 2.428838 1_545
Fe2 Fe53 2.494717 1_545
Fe2 Fe48 2.494717 1_545
Fe2 Fe52 2.494717 1_555
Fe2 Fe49 2.494717 1_555
Fe2 Tb1 3.088140 1_555
Fe2 Tb0 3.088140 1_545
Fe2 Tb4 3.352519 1_545
Fe2 Tb5 3.352519 1_555
Fe3 Fe39 2.428838 1_555
Fe3 Fe38 2.428838 1_455
Fe3 Fe35 2.428838 1_454
Fe3 Fe34 2.428838 1_554
Fe3 Fe55 2.494717 1_555
Fe3 Fe54 2.494717 1_455
Fe3 Fe51 2.494717 1_454
Fe3 Fe50 2.494717 1_554
Fe3 Tb2 3.088140 1_555
Fe3 Tb3 3.088140 1_455
Fe3 Tb6 3.352519 1_455
Fe3 Tb7 3.352519 1_555
Fe4 Tb3 3.229131 1_555
Fe4 Tb2 3.229131 1_555
Fe5 Tb0 3.229131 1_545
Fe5 Tb1 3.229131 1_455
Fe6 Tb3 3.229131 1_556
Fe6 Tb2 3.229131 1_556
Fe7 Fe9 2.786875 1_455
Fe7 Fe8 2.786875 1_545
Fe7 Tb0 3.229131 1_545
Fe7 Tb1 3.229131 1_455
Fe8 Tb0 2.972237 1_555
Fe8 Tb7 3.040273 1_555
Fe9 Tb1 2.972237 1_555
Fe9 Tb6 3.040273 1_555
Fe10 Fe26 2.612934 1_555
Fe10 Fe34 2.612934 1_555
Fe10 Fe29 2.619776 1_555
Fe10 Fe37 2.619776 1_555
Fe10 Fe21 2.627644 1_555
Fe10 Fe20 2.627644 1_555
Fe10 Fe50 2.729523 1_555
Fe10 Fe42 2.729523 1_555
Fe10 Fe52 2.737144 1_555
Fe10 Fe44 2.737144 1_555
Fe10 Fe18 2.753944 1_555
Fe10 Fe6 2.786875 1_555
Fe10 Tb2 2.972237 1_556
Fe10 Tb5 3.040273 1_555
Fe11 Fe27 2.612934 1_555
Fe11 Fe35 2.612934 1_555
Fe11 Fe28 2.619776 1_555
Fe11 Fe36 2.619776 1_555
Fe11 Fe21 2.627644 1_555
Fe11 Fe20 2.627644 1_555
Fe11 Fe43 2.729523 1_555
Fe11 Fe51 2.729523 1_555
Fe11 Fe45 2.737144 1_555
Fe11 Fe53 2.737144 1_555
Fe11 Fe19 2.753944 1_555
Fe11 Fe6 2.786875 1_555
Fe11 Tb3 2.972237 1_556
Fe11 Tb4 3.040273 1_555
Fe12 Fe28 2.612934 1_555
Fe12 Fe37 2.612934 1_555
Fe12 Fe27 2.619776 1_545
Fe12 Fe34 2.619776 1_655
Fe12 Fe19 2.627644 1_545
Fe12 Fe18 2.627644 1_655
Fe12 Fe53 2.729523 1_545
Fe12 Fe44 2.729523 1_655
Fe12 Fe42 2.737144 1_555
Fe12 Fe51 2.737144 1_555
Fe12 Fe20 2.753944 1_555
Fe12 Fe5 2.786875 1_655
Fe12 Tb1 2.972237 1_555
Fe12 Tb6 3.040273 1_556
Fe13 Fe29 2.612934 1_555
Fe13 Fe36 2.612934 1_555
Fe13 Fe35 2.619776 1_455
Fe13 Fe26 2.619776 1_565
Fe13 Fe19 2.627644 1_455
Fe13 Fe18 2.627644 1_565
Fe13 Fe45 2.729523 1_455
Fe13 Fe52 2.729523 1_565
Fe13 Fe50 2.737144 1_555
Fe13 Fe43 2.737144 1_555
Fe13 Fe21 2.753944 1_555
Fe13 Fe5 2.786875 1_565
Fe13 Tb0 2.972237 1_555
Fe13 Tb7 3.040273 1_556
Fe14 Fe38 2.612934 1_555
Fe14 Fe30 2.612934 1_555
Fe14 Fe25 2.619776 1_555
Fe14 Fe33 2.619776 1_555
Fe14 Fe17 2.627644 1_555
Fe14 Fe16 2.627644 1_555
Fe14 Fe54 2.729523 1_555
Fe14 Fe46 2.729523 1_555
Fe14 Fe40 2.737144 1_555
Fe14 Fe48 2.737144 1_555
Fe14 Fe22 2.753944 1_555
Fe14 Fe4 2.786875 1_555
Fe14 Tb3 2.972237 1_555
Fe14 Tb4 3.040273 1_555
Fe15 Fe39 2.612934 1_555
Fe15 Fe31 2.612934 1_555
Fe15 Fe32 2.619776 1_555
Fe15 Fe24 2.619776 1_555
Fe15 Fe17 2.627644 1_555
Fe15 Fe16 2.627644 1_555
Fe15 Fe47 2.729523 1_555
Fe15 Fe55 2.729523 1_555
Fe15 Fe41 2.737144 1_555
Fe15 Fe49 2.737144 1_555
Fe15 Fe23 2.753944 1_555
Fe15 Fe4 2.786875 1_555
Fe15 Tb2 2.972237 1_555
Fe15 Tb5 3.040273 1_555
Fe16 Fe33 2.366707 1_555
Fe16 Fe24 2.366707 1_555
Fe16 Fe17 2.402803 1_555
Fe16 Fe4 2.532417 1_555
Fe16 Fe46 2.591038 1_555
Fe16 Fe55 2.591038 1_555
Fe16 Fe8 2.753944 1_555
Fe16 Tb0 3.123937 1_555
Fe16 Tb5 3.221790 1_555
Fe16 Tb4 3.221790 1_555
Fe17 Fe25 2.366707 1_555
Fe17 Fe32 2.366707 1_555
Fe17 Fe4 2.532417 1_555
Fe17 Fe54 2.591038 1_555
Fe17 Fe47 2.591038 1_555
Fe17 Fe9 2.753944 1_555
Fe17 Tb1 3.123937 1_555
Fe17 Tb5 3.221790 1_555
Fe17 Tb4 3.221790 1_555
Fe18 Fe26 2.366707 1_555
Fe18 Fe34 2.366707 1_555
Fe18 Fe19 2.402803 1_445
Fe18 Fe5 2.532417 1_555
Fe18 Fe44 2.591038 1_555
Fe18 Fe52 2.591038 1_555
Fe18 Tb2 3.123937 1_556
Fe18 Tb7 3.221790 1_546
Fe18 Tb6 3.221790 1_456
Fe19 Fe35 2.366707 1_555
Fe19 Fe27 2.366707 1_555
Fe19 Fe5 2.532417 1_665
Fe19 Fe53 2.591038 1_555
Fe19 Fe45 2.591038 1_555
Fe19 Tb3 3.123937 1_556
Fe19 Tb6 3.221790 1_566
Fe19 Tb7 3.221790 1_656
Fe20 Fe28 2.366707 1_555
Fe20 Fe37 2.366707 1_555
Fe20 Fe21 2.402803 1_555
Fe20 Fe6 2.532417 1_555
Fe20 Fe51 2.591038 1_555
Fe20 Fe42 2.591038 1_555
Fe20 Tb1 3.123937 1_555
Fe20 Tb5 3.221790 1_555
Fe20 Tb4 3.221790 1_555
Fe21 Fe36 2.366707 1_555
Fe21 Fe29 2.366707 1_555
Fe21 Fe6 2.532417 1_555
Fe21 Fe50 2.591038 1_555
Fe21 Fe43 2.591038 1_555
Fe21 Tb0 3.123937 1_555
Fe21 Tb5 3.221790 1_555
Fe21 Tb4 3.221790 1_555
Fe22 Fe38 2.366707 1_555
Fe22 Fe30 2.366707 1_555
Fe22 Fe23 2.402803 1_665
Fe22 Fe7 2.532417 1_665
Fe22 Fe48 2.591038 1_555
Fe22 Fe40 2.591038 1_555
Fe22 Fe8 2.627644 1_655
Fe22 Fe9 2.627644 1_565
Fe22 Tb3 3.123937 1_555
Fe22 Tb7 3.221790 1_655
Fe22 Tb6 3.221790 1_565
Fe23 Fe39 2.366707 1_555
Fe23 Fe31 2.366707 1_555
Fe23 Fe7 2.532417 1_555
Fe23 Fe49 2.591038 1_555
Fe23 Fe41 2.591038 1_555
Fe23 Fe8 2.627644 1_545
Fe23 Fe9 2.627644 1_455
Fe23 Tb2 3.123937 1_555
Fe23 Tb7 3.221790 1_545
Fe23 Tb6 3.221790 1_455
Fe24 Fe41 2.466182 1_555
Fe24 Fe39 2.511173 1_555
Fe24 Fe38 2.511173 1_455
Fe24 Fe55 2.521062 1_555
Fe24 Fe40 2.532520 1_455
Fe24 Fe25 2.547135 1_455
Fe24 Fe8 2.612934 1_555
Fe24 Tb0 2.971572 1_555
Fe24 Tb5 3.200721 1_555
Fe25 Fe40 2.466182 1_555
Fe25 Fe38 2.511173 1_555
Fe25 Fe39 2.511173 1_655
Fe25 Fe54 2.521062 1_555
Fe25 Fe41 2.532520 1_655
Fe25 Fe9 2.612934 1_555
Fe25 Tb1 2.971572 1_555
Fe25 Tb4 3.200721 1_555
Fe26 Fe43 2.466182 1_545
Fe26 Fe37 2.511173 1_555
Fe26 Fe36 2.511173 1_545
Fe26 Fe52 2.521062 1_555
Fe26 Fe42 2.532520 1_555
Fe26 Fe27 2.547135 1_545
Fe26 Tb2 2.971572 1_556
Fe26 Tb7 3.200721 1_546
Fe27 Fe42 2.466182 1_565
Fe27 Fe37 2.511173 1_565
Fe27 Fe36 2.511173 1_555
Fe27 Fe53 2.521062 1_555
Fe27 Fe43 2.532520 1_555
Fe27 Tb3 2.971572 1_556
Fe27 Tb6 3.200721 1_566
Fe28 Fe45 2.466182 1_555
Fe28 Fe35 2.511173 1_555
Fe28 Fe34 2.511173 1_655
Fe28 Fe51 2.521062 1_555
Fe28 Fe44 2.532520 1_655
Fe28 Fe29 2.547135 1_655
Fe28 Tb1 2.971572 1_555
Fe28 Tb4 3.200721 1_555
Fe29 Fe44 2.466182 1_555
Fe29 Fe34 2.511173 1_555
Fe29 Fe35 2.511173 1_455
Fe29 Fe50 2.521062 1_555
Fe29 Fe45 2.532520 1_455
Fe29 Tb0 2.971572 1_555
Fe29 Tb5 3.200721 1_555
Fe30 Fe47 2.466182 1_565
Fe30 Fe32 2.511173 1_565
Fe30 Fe33 2.511173 1_555
Fe30 Fe48 2.521062 1_555
Fe30 Fe46 2.532520 1_555
Fe30 Fe31 2.547135 1_565
Fe30 Fe9 2.619776 1_565
Fe30 Tb3 2.971572 1_555
Fe30 Tb6 3.200721 1_565
Fe31 Fe46 2.466182 1_545
Fe31 Fe32 2.511173 1_555
Fe31 Fe33 2.511173 1_545
Fe31 Fe49 2.521062 1_555
Fe31 Fe47 2.532520 1_555
Fe31 Fe8 2.619776 1_545
Fe31 Tb2 2.971572 1_555
Fe31 Tb7 3.200721 1_545
Fe32 Fe49 2.466182 1_555
Fe32 Fe47 2.521062 1_555
Fe32 Fe48 2.532520 1_545
Fe32 Fe33 2.547135 1_545
Fe32 Fe9 2.612934 1_555
Fe32 Tb1 2.971572 1_555
Fe32 Tb5 3.200721 1_555
Fe33 Fe48 2.466182 1_555
Fe33 Fe46 2.521062 1_555
Fe33 Fe49 2.532520 1_565
Fe33 Fe8 2.612934 1_555
Fe33 Tb0 2.971572 1_555
Fe33 Tb4 3.200721 1_555
Fe34 Fe51 2.466182 1_455
Fe34 Fe44 2.521062 1_555
Fe34 Fe50 2.532520 1_555
Fe34 Fe35 2.547135 1_455
Fe34 Tb2 2.971572 1_556
Fe34 Tb6 3.200721 1_456
Fe35 Fe50 2.466182 1_655
Fe35 Fe45 2.521062 1_555
Fe35 Fe51 2.532520 1_555
Fe35 Tb3 2.971572 1_556
Fe35 Tb7 3.200721 1_656
Fe36 Fe53 2.466182 1_555
Fe36 Fe43 2.521062 1_555
Fe36 Fe52 2.532520 1_565
Fe36 Fe37 2.547135 1_565
Fe36 Tb0 2.971572 1_555
Fe36 Tb4 3.200721 1_555
Fe37 Fe52 2.466182 1_555
Fe37 Fe42 2.521062 1_555
Fe37 Fe53 2.532520 1_545
Fe37 Tb1 2.971572 1_555
Fe37 Tb5 3.200721 1_555
Fe38 Fe55 2.466182 1_655
Fe38 Fe40 2.521062 1_555
Fe38 Fe54 2.532520 1_555
Fe38 Fe39 2.547135 1_655
Fe38 Fe8 2.619776 1_655
Fe38 Tb3 2.971572 1_555
Fe38 Tb7 3.200721 1_655
Fe39 Fe54 2.466182 1_455
Fe39 Fe41 2.521062 1_555
Fe39 Fe55 2.532520 1_555
Fe39 Fe9 2.619776 1_455
Fe39 Tb2 2.971572 1_555
Fe39 Tb6 3.200721 1_455
Fe40 Fe8 2.729523 1_655
Fe40 Tb4 2.999991 1_555
Fe40 Tb0 3.037108 1_655
Fe41 Fe9 2.729523 1_455
Fe41 Tb5 2.999991 1_555
Fe41 Tb1 3.037108 1_455
Fe42 Tb6 2.999991 1_556
Fe42 Tb2 3.037108 1_556
Fe43 Tb7 2.999991 1_556
Fe43 Tb3 3.037108 1_556
Fe44 Tb5 2.999991 1_555
Fe44 Tb1 3.037108 1_455
Fe45 Tb4 2.999991 1_555
Fe45 Tb0 3.037108 1_655
Fe46 Fe8 2.737144 1_555
Fe46 Tb7 2.999991 1_555
Fe46 Tb3 3.037108 1_555
Fe47 Fe9 2.737144 1_555
Fe47 Tb6 2.999991 1_555
Fe47 Tb2 3.037108 1_555
Fe48 Fe9 2.729523 1_565
Fe48 Tb4 2.999991 1_555
Fe48 Tb1 3.037108 1_565
Fe49 Fe8 2.729523 1_545
Fe49 Tb5 2.999991 1_555
Fe49 Tb0 3.037108 1_545
Fe50 Tb7 2.999991 1_556
Fe50 Tb2 3.037108 1_556
Fe51 Tb6 2.999991 1_556
Fe51 Tb3 3.037108 1_556
Fe52 Tb5 2.999991 1_555
Fe52 Tb0 3.037108 1_545
Fe53 Tb4 2.999991 1_555
Fe53 Tb1 3.037108 1_565
Fe54 Fe9 2.737144 1_555
Fe54 Tb6 2.999991 1_555
Fe54 Tb3 3.037108 1_555
Fe55 Fe8 2.737144 1_555
Fe55 Tb7 2.999991 1_555
Fe55 Tb2 3.037108 1_555
C0 Fe45 1.984310 1_555
C0 Fe53 1.984310 1_555
C0 Fe40 1.984310 1_555
C0 Fe48 1.984310 1_555
C0 Fe5 2.026130 1_665
C0 Fe7 2.026130 1_665
C0 Tb4 2.803253 1_555
C1 Fe52 1.984310 1_555
C1 Fe44 1.984310 1_555
C1 Fe49 1.984310 1_555
C1 Fe41 1.984310 1_555
C1 Fe5 2.026130 1_555
C1 Fe7 2.026130 1_555
C1 Tb5 2.803253 1_555
C2 Fe47 1.984310 1_555
C2 Fe42 1.984310 1_554
C2 Fe54 1.984310 1_555
C2 Fe51 1.984310 1_554
C2 Fe4 2.026130 1_555
C2 Fe6 2.026130 1_554
C2 Tb6 2.803253 1_555
C3 Fe55 1.984310 1_555
C3 Fe46 1.984310 1_555
C3 Fe50 1.984310 1_554
C3 Fe43 1.984310 1_554
C3 Fe4 2.026130 1_555
C3 Fe6 2.026130 1_554
C3 Tb7 2.803253 1_555
