# generated using pymatgen
data_KAlSi3O8
_symmetry_space_group_name_H-M   'P 1'
_cell_length_a   7.22190300
_cell_length_b   7.94343942
_cell_length_c   7.99606187
_cell_angle_alpha   113.03924038
_cell_angle_beta   104.71752632
_cell_angle_gamma   103.97022278
_symmetry_Int_Tables_number   1
_chemical_formula_structural   KAlSi3O8
_chemical_formula_sum   'K2 Al2 Si6 O16'
_cell_volume   377.14720601
_cell_formula_units_Z   2
loop_
 _symmetry_equiv_pos_site_id
 _symmetry_equiv_pos_as_xyz
  1  'x, y, z'
loop_
 _atom_site_type_symbol
 _atom_site_label
 _atom_site_symmetry_multiplicity
 _atom_site_fract_x
 _atom_site_fract_y
 _atom_site_fract_z
 _atom_site_occupancy
  K  K0  1  0.86419000  0.71211700  0.70857800  1
  K  K1  1  0.13581000  0.28788300  0.29142200  1
  Al  Al0  1  0.65793100  0.16703100  0.40576200  1
  Al  Al1  1  0.34206900  0.83296900  0.59423800  1
  Si  Si0  1  0.66240700  0.40428000  0.16653600  1
  Si  Si1  1  0.33759300  0.59572000  0.83346400  1
  Si  Si2  1  0.77659600  0.80218200  0.17852900  1
  Si  Si3  1  0.78067500  0.18759800  0.80784200  1
  Si  Si4  1  0.22340400  0.19781800  0.82147100  1
  Si  Si5  1  0.21932500  0.81240200  0.19215800  1
  O  O0  1  0.98835800  0.82662000  0.13421200  1
  O  O1  1  0.01164200  0.17338000  0.86578800  1
  O  O2  1  0.58893800  0.70308300  0.95965800  1
  O  O3  1  0.61145500  0.96523700  0.71249800  1
  O  O4  1  0.41106200  0.29691700  0.04034200  1
  O  O5  1  0.38854500  0.03476300  0.28750200  1
  O  O6  1  0.79458300  0.01706100  0.32680900  1
  O  O7  1  0.78688700  0.33246300  0.02548800  1
  O  O8  1  0.20541700  0.98293900  0.67319100  1
  O  O9  1  0.21311300  0.66753700  0.97451200  1
  O  O10  1  0.73610400  0.64649100  0.26551200  1
  O  O11  1  0.74617600  0.28566700  0.66468500  1
  O  O12  1  0.26389600  0.35350900  0.73448800  1
  O  O13  1  0.25382400  0.71433300  0.33531500  1
  O  O14  1  0.72402900  0.36126800  0.34988900  1
  O  O15  1  0.27597100  0.63873200  0.65011100  1
loop_
_geom_bond_atom_site_label_1
_geom_bond_atom_site_label_2
_geom_bond_distance
_geom_bond_site_symmetry_2
K0 O14 2.814954 1_555
K0 O0 2.974396 1_556
K0 O8 3.008631 1_655
K0 O3 3.021062 1_555
K0 O9 3.048696 1_655
K0 O11 3.138156 1_555
K0 O1 3.157528 1_665
K0 O2 3.171597 1_555
K0 O10 3.214839 1_555
K0 O15 3.276008 1_655
K1 O15 2.814954 1_555
K1 O1 2.974396 1_554
K1 O6 3.008631 1_455
K1 O5 3.021062 1_555
K1 O7 3.048696 1_455
K1 O13 3.138156 1_555
K1 O0 3.157528 1_445
K1 O4 3.171597 1_555
K1 O12 3.214839 1_555
K1 O14 3.276008 1_455
Al0 O5 1.756027 1_555
Al0 O6 1.757043 1_555
Al0 O11 1.758719 1_555
Al0 O14 1.760774 1_555
Al1 O3 1.756027 1_555
Al1 O8 1.757043 1_555
Al1 O13 1.758719 1_555
Al1 O15 1.760774 1_555
O0 Si2 1.639497 1_555
O0 Si5 1.657998 1_655
O1 Si4 1.639497 1_555
O1 Si3 1.657998 1_455
O2 Si1 1.639736 1_555
O2 Si2 1.649441 1_556
O3 Si3 1.620162 1_565
O4 Si0 1.639736 1_555
O4 Si4 1.649441 1_554
O5 Si5 1.620162 1_545
O6 Si2 1.602100 1_545
O7 Si0 1.632420 1_555
O7 Si3 1.650082 1_554
O8 Si4 1.602100 1_565
O9 Si1 1.632420 1_555
O9 Si5 1.650082 1_556
O10 Si2 1.643394 1_555
O10 Si0 1.646529 1_555
O11 Si3 1.620499 1_555
O12 Si4 1.643394 1_555
O12 Si1 1.646529 1_555
O13 Si5 1.620499 1_555
O14 Si0 1.611897 1_555
O15 Si1 1.611897 1_555
