# generated using pymatgen
data_Bi3O4F
_symmetry_space_group_name_H-M   'P 1'
_cell_length_a   9.25935941
_cell_length_b   9.25935941
_cell_length_c   5.82969226
_cell_angle_alpha   81.59192471
_cell_angle_beta   81.59192471
_cell_angle_gamma   36.45233191
_symmetry_Int_Tables_number   1
_chemical_formula_structural   Bi3O4F
_chemical_formula_sum   'Bi6 O8 F2'
_cell_volume   293.42571718
_cell_formula_units_Z   2
loop_
 _symmetry_equiv_pos_site_id
 _symmetry_equiv_pos_as_xyz
  1  'x, y, z'
loop_
 _atom_site_type_symbol
 _atom_site_label
 _atom_site_symmetry_multiplicity
 _atom_site_fract_x
 _atom_site_fract_y
 _atom_site_fract_z
 _atom_site_occupancy
  Bi  Bi0  1  0.36327000  0.94848300  0.72125800  1
  Bi  Bi1  1  0.70696100  0.29303900  0.75000000  1
  Bi  Bi2  1  0.94848300  0.36327000  0.22125800  1
  Bi  Bi3  1  0.29303900  0.70696100  0.25000000  1
  Bi  Bi4  1  0.05151700  0.63673000  0.77874200  1
  Bi  Bi5  1  0.63673000  0.05151700  0.27874200  1
  O  O0  1  0.50400400  0.63834100  0.89795300  1
  O  O1  1  0.15318900  0.04696300  0.44361400  1
  O  O2  1  0.95303700  0.84681100  0.05638600  1
  O  O3  1  0.63834100  0.50400400  0.39795300  1
  O  O4  1  0.36165900  0.49599600  0.60204700  1
  O  O5  1  0.04696300  0.15318900  0.94361400  1
  O  O6  1  0.84681100  0.95303700  0.55638600  1
  O  O7  1  0.49599600  0.36165900  0.10204700  1
  F  F0  1  0.00000000  0.50000000  0.50000000  1
  F  F1  1  0.50000000  0.00000000  0.00000000  1
loop_
_geom_bond_atom_site_label_1
_geom_bond_atom_site_label_2
_geom_bond_distance
_geom_bond_site_symmetry_2
Bi0 O0 2.124467 1_555
Bi0 O5 2.128060 1_565
Bi0 O1 2.206994 1_565
Bi0 F1 2.504154 1_566
Bi1 O4 2.272595 1_555
Bi1 O0 2.272595 1_555
Bi1 O7 2.375672 1_556
Bi1 O3 2.375672 1_555
Bi1 O6 2.629745 1_545
Bi1 O5 2.629745 1_655
Bi2 O3 2.124467 1_555
Bi2 O1 2.128060 1_655
Bi2 O5 2.206994 1_654
Bi2 F0 2.504154 1_655
Bi3 O7 2.272595 1_555
Bi3 O3 2.272595 1_555
Bi3 O4 2.375672 1_555
Bi3 O0 2.375672 1_554
Bi3 O2 2.629745 1_455
Bi3 O1 2.629745 1_565
Bi4 O4 2.124467 1_555
Bi4 O6 2.128060 1_455
Bi4 O2 2.206994 1_456
Bi4 F0 2.504154 1_555
Bi5 O7 2.124467 1_555
Bi5 O2 2.128060 1_545
Bi5 O6 2.206994 1_545
Bi5 F1 2.504154 1_555
