# generated using pymatgen
data_CsDy2Ag3Te5
_symmetry_space_group_name_H-M   'P 1'
_cell_length_a   8.56777906
_cell_length_b   8.56777906
_cell_length_c   18.67908700
_cell_angle_alpha   90.00000000
_cell_angle_beta   90.00000000
_cell_angle_gamma   148.97324451
_symmetry_Int_Tables_number   1
_chemical_formula_structural   CsDy2Ag3Te5
_chemical_formula_sum   'Cs2 Dy4 Ag6 Te10'
_cell_volume   706.75492161
_cell_formula_units_Z   2
loop_
 _symmetry_equiv_pos_site_id
 _symmetry_equiv_pos_as_xyz
  1  'x, y, z'
loop_
 _atom_site_type_symbol
 _atom_site_label
 _atom_site_symmetry_multiplicity
 _atom_site_fract_x
 _atom_site_fract_y
 _atom_site_fract_z
 _atom_site_occupancy
  Cs  Cs0  1  0.55765500  0.44234500  0.25000000  1
  Cs  Cs1  1  0.44234500  0.55765500  0.75000000  1
  Dy  Dy0  1  0.69221700  0.30778300  0.90579700  1
  Dy  Dy1  1  0.30778300  0.69221700  0.09420300  1
  Dy  Dy2  1  0.69221700  0.30778300  0.59420300  1
  Dy  Dy3  1  0.30778300  0.69221700  0.40579700  1
  Ag  Ag0  1  0.84136300  0.15863700  0.25000000  1
  Ag  Ag1  1  0.15863700  0.84136300  0.75000000  1
  Ag  Ag2  1  0.08267800  0.91732200  0.46475000  1
  Ag  Ag3  1  0.91732200  0.08267800  0.53525000  1
  Ag  Ag4  1  0.08267800  0.91732200  0.03525000  1
  Ag  Ag5  1  0.91732200  0.08267800  0.96475000  1
  Te  Te0  1  0.06537000  0.93463000  0.88204100  1
  Te  Te1  1  0.93463000  0.06537000  0.11795900  1
  Te  Te2  1  0.06537000  0.93463000  0.61795900  1
  Te  Te3  1  0.93463000  0.06537000  0.38204100  1
  Te  Te4  1  0.67751900  0.32248100  0.42881700  1
  Te  Te5  1  0.32248100  0.67751900  0.57118300  1
  Te  Te6  1  0.67751900  0.32248100  0.07118300  1
  Te  Te7  1  0.32248100  0.67751900  0.92881700  1
  Te  Te8  1  0.24558700  0.75441300  0.25000000  1
  Te  Te9  1  0.75441300  0.24558700  0.75000000  1
loop_
_geom_bond_atom_site_label_1
_geom_bond_atom_site_label_2
_geom_bond_distance
_geom_bond_site_symmetry_2
Cs0 Te8 3.857444 1_655
Cs0 Te8 3.857444 1_545
Cs0 Te6 3.882446 1_555
Cs0 Te4 3.882446 1_555
Cs0 Te3 3.931999 1_565
Cs0 Te3 3.931999 1_455
Cs0 Te1 3.931999 1_565
Cs0 Te1 3.931999 1_455
Cs1 Te9 3.857444 1_455
Cs1 Te9 3.857444 1_565
Cs1 Te7 3.882446 1_555
Cs1 Te5 3.882446 1_555
Cs1 Te0 3.931999 1_545
Cs1 Te0 3.931999 1_655
Cs1 Te2 3.931999 1_655
Cs1 Te2 3.931999 1_545
Dy0 Te9 3.086024 1_555
Dy0 Te6 3.098777 1_556
Dy0 Te0 3.136036 1_545
Dy0 Te0 3.136036 1_655
Dy0 Te7 3.172100 1_655
Dy0 Te7 3.172100 1_545
Dy1 Te8 3.086024 1_555
Dy1 Te7 3.098777 1_554
Dy1 Te1 3.136036 1_455
Dy1 Te1 3.136036 1_565
Dy1 Te6 3.172100 1_565
Dy1 Te6 3.172100 1_455
Dy2 Te9 3.086024 1_555
Dy2 Te4 3.098777 1_555
Dy2 Te2 3.136036 1_545
Dy2 Te2 3.136036 1_655
Dy2 Te5 3.172100 1_655
Dy2 Te5 3.172100 1_545
Dy3 Te8 3.086024 1_555
Dy3 Te5 3.098777 1_555
Dy3 Te3 3.136036 1_455
Dy3 Te3 3.136036 1_565
Dy3 Te4 3.172100 1_565
Dy3 Te4 3.172100 1_455
Ag0 Te8 2.784251 1_545
Ag0 Te8 2.784251 1_655
Ag0 Te3 2.907684 1_555
Ag0 Te1 2.907684 1_555
Ag1 Te9 2.784251 1_565
Ag1 Te9 2.784251 1_455
Ag1 Te0 2.907684 1_555
Ag1 Te2 2.907684 1_555
Ag2 Te4 2.855516 1_565
Ag2 Te4 2.855516 1_455
Ag2 Te2 2.876038 1_555
Ag2 Te3 2.891746 1_465
Ag3 Te5 2.855516 1_655
Ag3 Te5 2.855516 1_545
Ag3 Te3 2.876038 1_555
Ag3 Te2 2.891746 1_645
Ag4 Te6 2.855516 1_565
Ag4 Te6 2.855516 1_455
Ag4 Te0 2.876038 1_554
Ag4 Te1 2.891746 1_465
Ag5 Te7 2.855516 1_655
Ag5 Te7 2.855516 1_545
Ag5 Te1 2.876038 1_556
Ag5 Te0 2.891746 1_645
