# generated using pymatgen
data_Bi4O9
_symmetry_space_group_name_H-M   'P 1'
_cell_length_a   10.44636400
_cell_length_b   10.44636400
_cell_length_c   4.13755900
_cell_angle_alpha   90.00000000
_cell_angle_beta   90.00000000
_cell_angle_gamma   90.00000000
_symmetry_Int_Tables_number   1
_chemical_formula_structural   Bi4O9
_chemical_formula_sum   'Bi8 O18'
_cell_volume   451.51741836
_cell_formula_units_Z   2
loop_
 _symmetry_equiv_pos_site_id
 _symmetry_equiv_pos_as_xyz
  1  'x, y, z'
loop_
 _atom_site_type_symbol
 _atom_site_label
 _atom_site_symmetry_multiplicity
 _atom_site_fract_x
 _atom_site_fract_y
 _atom_site_fract_z
 _atom_site_occupancy
  Bi  Bi0  1  0.08810000  0.78303400  0.54714800  1
  Bi  Bi1  1  0.21696600  0.08810000  0.45285200  1
  Bi  Bi2  1  0.71696600  0.58810000  0.54714800  1
  Bi  Bi3  1  0.58810000  0.28303400  0.45285200  1
  Bi  Bi4  1  0.91190000  0.21696600  0.54714800  1
  Bi  Bi5  1  0.28303400  0.41190000  0.54714800  1
  Bi  Bi6  1  0.41190000  0.71696600  0.45285200  1
  Bi  Bi7  1  0.78303400  0.91190000  0.45285200  1
  O  O0  1  0.00000000  0.00000000  0.50000000  1
  O  O1  1  0.50000000  0.50000000  0.50000000  1
  O  O2  1  0.76550700  0.94679600  0.95638900  1
  O  O3  1  0.44679600  0.73449300  0.95638900  1
  O  O4  1  0.55320400  0.26550700  0.95638900  1
  O  O5  1  0.23449300  0.05320400  0.95638900  1
  O  O6  1  0.73449300  0.55320400  0.04361100  1
  O  O7  1  0.05320400  0.76550700  0.04361100  1
  O  O8  1  0.94679600  0.23449300  0.04361100  1
  O  O9  1  0.26550700  0.44679600  0.04361100  1
  O  O10  1  0.11970800  0.27479800  0.52483700  1
  O  O11  1  0.77479800  0.38029200  0.52483700  1
  O  O12  1  0.22520200  0.61970800  0.52483700  1
  O  O13  1  0.88029200  0.72520200  0.52483700  1
  O  O14  1  0.61970800  0.77479800  0.47516300  1
  O  O15  1  0.72520200  0.11970800  0.47516300  1
  O  O16  1  0.27479800  0.88029200  0.47516300  1
  O  O17  1  0.38029200  0.22520200  0.47516300  1
loop_
_geom_bond_atom_site_label_1
_geom_bond_atom_site_label_2
_geom_bond_distance
_geom_bond_site_symmetry_2
Bi0 O7 2.094259 1_556
Bi0 O7 2.122975 1_555
Bi0 O16 2.219162 1_555
Bi0 O12 2.229520 1_555
Bi0 O13 2.255224 1_455
Bi0 O0 2.453997 1_565
Bi1 O5 2.094259 1_554
Bi1 O5 2.122975 1_555
Bi1 O10 2.219162 1_555
Bi1 O17 2.229520 1_555
Bi1 O16 2.255224 1_545
Bi1 O0 2.453997 1_555
Bi2 O6 2.094259 1_556
Bi2 O6 2.122975 1_555
Bi2 O14 2.219162 1_555
Bi2 O13 2.229520 1_555
Bi2 O11 2.255224 1_555
Bi2 O1 2.453997 1_555
Bi3 O4 2.094259 1_554
Bi3 O4 2.122975 1_555
Bi3 O11 2.219162 1_555
Bi3 O15 2.229520 1_555
Bi3 O17 2.255224 1_555
Bi3 O1 2.453997 1_555
Bi4 O8 2.094259 1_556
Bi4 O8 2.122975 1_555
Bi4 O15 2.219162 1_555
Bi4 O11 2.229520 1_555
Bi4 O10 2.255224 1_655
Bi4 O0 2.453997 1_655
Bi5 O9 2.094259 1_556
Bi5 O9 2.122975 1_555
Bi5 O17 2.219162 1_555
Bi5 O10 2.229520 1_555
Bi5 O12 2.255224 1_555
Bi5 O1 2.453997 1_555
Bi6 O3 2.094259 1_554
Bi6 O3 2.122975 1_555
Bi6 O12 2.219162 1_555
Bi6 O16 2.229520 1_555
Bi6 O14 2.255224 1_555
Bi6 O1 2.453997 1_555
Bi7 O2 2.094259 1_554
Bi7 O2 2.122975 1_555
Bi7 O13 2.219162 1_555
Bi7 O14 2.229520 1_555
Bi7 O15 2.255224 1_565
Bi7 O0 2.453997 1_665
