# generated using pymatgen
data_Mg4SiGe
_symmetry_space_group_name_H-M   'P 1'
_cell_length_a   5.62043542
_cell_length_b   5.62043542
_cell_length_c   5.62043542
_cell_angle_alpha   90.00000000
_cell_angle_beta   60.00000000
_cell_angle_gamma   120.00000000
_symmetry_Int_Tables_number   1
_chemical_formula_structural   Mg4SiGe
_chemical_formula_sum   'Mg4 Si1 Ge1'
_cell_volume   125.54368982
_cell_formula_units_Z   1
loop_
 _symmetry_equiv_pos_site_id
 _symmetry_equiv_pos_as_xyz
  1  'x, y, z'
loop_
 _atom_site_type_symbol
 _atom_site_label
 _atom_site_symmetry_multiplicity
 _atom_site_fract_x
 _atom_site_fract_y
 _atom_site_fract_z
 _atom_site_occupancy
  Mg  Mg0  1  0.74969900  0.37484900  0.87545200  1
  Mg  Mg1  1  0.25030100  0.37484900  0.37484900  1
  Mg  Mg2  1  0.25030100  0.87545200  0.37484900  1
  Mg  Mg3  1  0.74969900  0.37484900  0.37484900  1
  Si  Si0  1  0.00000000  0.00000000  0.00000000  1
  Ge  Ge0  1  0.50000000  0.75000000  0.75000000  1
loop_
_geom_bond_atom_site_label_1
_geom_bond_atom_site_label_2
_geom_bond_distance
_geom_bond_site_symmetry_2
Mg0 Mg3 2.806829 1_556
Mg0 Mg2 2.806829 1_546
Mg0 Mg1 2.806831 1_556
Mg0 Mg1 2.813604 1_655
Mg0 Mg3 2.813607 1_555
Mg0 Mg2 2.813607 1_655
Mg0 Si0 3.294909 1_656
Mg0 Si0 3.294914 1_666
Mg0 Si0 3.294914 1_556
Mg1 Mg2 2.806829 1_545
Mg1 Mg3 2.806834 1_555
Mg1 Mg3 2.813601 1_455
Mg1 Mg2 2.813607 1_555
Mg1 Si0 3.294909 1_555
Mg1 Si0 3.294914 1_665
Mg1 Si0 3.294914 1_556
Mg2 Mg3 2.806831 1_565
Mg2 Mg3 2.813604 1_455
Mg2 Si0 3.294909 1_565
Mg2 Si0 3.294914 1_665
Mg2 Si0 3.294914 1_566
Mg3 Si0 3.294909 1_655
Mg3 Si0 3.294914 1_665
Mg3 Si0 3.294914 1_556
Ge0 Mg2 3.295632 1_655
Ge0 Mg3 3.295632 1_565
Ge0 Mg0 3.295632 1_455
Ge0 Mg0 3.295632 1_565
Ge0 Mg1 3.295632 1_665
Ge0 Mg2 3.295632 1_556
Ge0 Mg1 3.295632 1_556
Ge0 Mg3 3.295632 1_456
Ge0 Mg2 3.295637 1_555
Ge0 Mg1 3.295637 1_555
Ge0 Mg0 3.295637 1_555
Ge0 Mg3 3.295637 1_555
