# generated using pymatgen
data_Mg2TeWO6
_symmetry_space_group_name_H-M   'P 1'
_cell_length_a   5.60803500
_cell_length_b   5.65744846
_cell_length_c   5.93213324
_cell_angle_alpha   112.98421421
_cell_angle_beta   89.75163938
_cell_angle_gamma   107.19150775
_symmetry_Int_Tables_number   1
_chemical_formula_structural   Mg2TeWO6
_chemical_formula_sum   'Mg2 Te1 W1 O6'
_cell_volume   164.20153661
_cell_formula_units_Z   1
loop_
 _symmetry_equiv_pos_site_id
 _symmetry_equiv_pos_as_xyz
  1  'x, y, z'
loop_
 _atom_site_type_symbol
 _atom_site_label
 _atom_site_symmetry_multiplicity
 _atom_site_fract_x
 _atom_site_fract_y
 _atom_site_fract_z
 _atom_site_occupancy
  Mg  Mg0  1  0.58250200  0.10249800  0.25078600  1
  Mg  Mg1  1  0.03440200  0.74269900  0.34515200  1
  Te  Te0  1  0.34852500  0.39619900  0.80358700  1
  W  W0  1  0.04353900  0.02908800  0.00774600  1
  O  O0  1  0.40313700  0.28573800  0.07876100  1
  O  O1  1  0.80304500  0.86267200  0.17753800  1
  O  O2  1  0.91373900  0.81595500  0.68622200  1
  O  O3  1  0.92738200  0.33360000  0.19392600  1
  O  O4  1  0.23657300  0.82144700  0.06575400  1
  O  O5  1  0.38091600  0.08028200  0.52850200  1
loop_
_geom_bond_atom_site_label_1
_geom_bond_atom_site_label_2
_geom_bond_distance
_geom_bond_site_symmetry_2
Mg0 O5 2.017296 1_555
Mg0 O1 2.021469 1_545
Mg0 O4 2.080525 1_545
Mg0 O3 2.099491 1_555
Mg0 O0 2.139941 1_555
Mg1 O3 2.020829 1_455
Mg1 O1 2.047326 1_455
Mg1 O2 2.054836 1_455
Mg1 O4 2.119619 1_555
Mg1 O5 2.192941 1_565
O0 Te0 2.015712 1_554
O0 W0 2.037478 1_555
O1 W0 1.923041 1_665
O2 W0 1.821758 1_666
O3 W0 1.945063 1_655
O4 W0 1.934146 1_565
O4 Te0 2.561882 1_554
O5 Te0 1.949853 1_555
