# generated using pymatgen
data_Nb12Al3Ga
_symmetry_space_group_name_H-M   'P 1'
_cell_length_a   5.20249800
_cell_length_b   5.20313600
_cell_length_c   10.39905800
_cell_angle_alpha   90.00000000
_cell_angle_beta   90.00000000
_cell_angle_gamma   90.00000000
_symmetry_Int_Tables_number   1
_chemical_formula_structural   Nb12Al3Ga
_chemical_formula_sum   'Nb12 Al3 Ga1'
_cell_volume   281.49526891
_cell_formula_units_Z   1
loop_
 _symmetry_equiv_pos_site_id
 _symmetry_equiv_pos_as_xyz
  1  'x, y, z'
loop_
 _atom_site_type_symbol
 _atom_site_label
 _atom_site_symmetry_multiplicity
 _atom_site_fract_x
 _atom_site_fract_y
 _atom_site_fract_z
 _atom_site_occupancy
  Nb  Nb0  1  0.50000000  0.00000000  0.37487200  1
  Nb  Nb1  1  0.50000000  0.00000000  0.87432100  1
  Nb  Nb2  1  0.75042600  0.50000000  0.00000000  1
  Nb  Nb3  1  0.74862200  0.50000000  0.50000000  1
  Nb  Nb4  1  0.00000000  0.74870100  0.24991900  1
  Nb  Nb5  1  0.00000000  0.74870100  0.75008100  1
  Nb  Nb6  1  0.50000000  0.00000000  0.12567900  1
  Nb  Nb7  1  0.50000000  0.00000000  0.62512800  1
  Nb  Nb8  1  0.24957400  0.50000000  0.00000000  1
  Nb  Nb9  1  0.25137800  0.50000000  0.50000000  1
  Nb  Nb10  1  0.00000000  0.25129900  0.24991900  1
  Nb  Nb11  1  0.00000000  0.25129900  0.75008100  1
  Al  Al0  1  0.50000000  0.50000000  0.24999700  1
  Al  Al1  1  0.50000000  0.50000000  0.75000300  1
  Al  Al2  1  0.00000000  0.00000000  0.00000000  1
  Ga  Ga0  1  0.00000000  0.00000000  0.50000000  1
loop_
_geom_bond_atom_site_label_1
_geom_bond_atom_site_label_2
_geom_bond_distance
_geom_bond_site_symmetry_2
Nb0 Nb6 2.591372 1_555
Nb0 Nb7 2.602427 1_555
Nb0 Nb9 3.183448 1_545
Nb0 Nb3 3.183448 1_555
Nb0 Nb3 3.183448 1_545
Nb0 Nb9 3.183448 1_555
Nb0 Nb10 3.188195 1_555
Nb0 Nb10 3.188195 1_655
Nb0 Nb4 3.188195 1_545
Nb0 Nb4 3.188195 1_645
Nb1 Nb7 2.591372 1_555
Nb1 Nb6 2.613886 1_556
Nb1 Nb11 3.185180 1_555
Nb1 Nb5 3.185180 1_545
Nb1 Nb5 3.185180 1_645
Nb1 Nb11 3.185180 1_655
Nb1 Nb2 3.189616 1_546
Nb1 Nb2 3.189616 1_556
Nb1 Nb8 3.189616 1_546
Nb1 Nb8 3.189616 1_556
Nb2 Nb8 2.596816 1_655
Nb2 Nb8 2.605682 1_555
Nb2 Nb5 3.180371 1_654
Nb2 Nb4 3.180371 1_655
Nb2 Nb6 3.189616 1_555
Nb2 Nb6 3.189616 1_565
Nb3 Nb9 2.586911 1_555
Nb3 Nb9 2.615587 1_655
Nb3 Nb7 3.183448 1_555
Nb3 Nb7 3.183448 1_565
Nb3 Nb4 3.185590 1_655
Nb3 Nb5 3.185590 1_655
Nb4 Nb8 3.180371 1_555
Nb4 Nb6 3.185180 1_465
Nb4 Nb6 3.185180 1_565
Nb4 Nb9 3.185590 1_555
Nb5 Nb8 3.180371 1_556
Nb5 Nb9 3.185590 1_555
Nb5 Nb7 3.188195 1_565
Nb5 Nb7 3.188195 1_465
Nb6 Nb8 3.189616 1_545
Nb6 Nb8 3.189616 1_555
Nb7 Nb9 3.183448 1_545
Nb7 Nb9 3.183448 1_555
Nb10 Nb4 2.588050 1_555
Nb10 Nb4 2.615086 1_545
Nb10 Nb2 3.180371 1_455
Nb10 Nb8 3.180371 1_555
Nb10 Nb6 3.185180 1_455
Nb10 Nb6 3.185180 1_555
Nb10 Nb9 3.185590 1_555
Nb10 Nb3 3.185590 1_455
Nb11 Nb5 2.588050 1_555
Nb11 Nb5 2.615086 1_545
Nb11 Nb2 3.180371 1_456
Nb11 Nb8 3.180371 1_556
Nb11 Nb9 3.185590 1_555
Nb11 Nb3 3.185590 1_455
Nb11 Nb7 3.188195 1_555
Nb11 Nb7 3.188195 1_455
Al0 Nb3 2.903785 1_555
Al0 Nb9 2.903785 1_555
Al0 Nb6 2.905075 1_565
Al0 Nb6 2.905075 1_555
Al0 Nb4 2.905340 1_555
Al0 Nb10 2.905340 1_555
Al0 Nb10 2.905340 1_655
Al0 Nb4 2.905340 1_655
Al0 Nb0 2.907658 1_555
Al0 Nb0 2.907658 1_565
Al0 Nb2 2.907921 1_555
Al0 Nb8 2.907921 1_555
Al1 Nb3 2.903785 1_555
Al1 Nb9 2.903785 1_555
Al1 Nb1 2.905075 1_555
Al1 Nb1 2.905075 1_565
Al1 Nb11 2.905340 1_555
Al1 Nb5 2.905340 1_555
Al1 Nb5 2.905340 1_655
Al1 Nb11 2.905340 1_655
Al1 Nb7 2.907658 1_555
Al1 Nb7 2.907658 1_565
Al1 Nb8 2.907921 1_556
Al1 Nb2 2.907921 1_556
Al2 Nb8 2.907580 1_555
Al2 Nb2 2.907580 1_445
Al2 Nb8 2.907580 1_545
Al2 Nb2 2.907580 1_455
Al2 Nb11 2.909307 1_554
Al2 Nb5 2.909307 1_544
Al2 Nb10 2.909307 1_555
Al2 Nb4 2.909307 1_545
Al2 Nb1 2.911116 1_454
Al2 Nb1 2.911116 1_554
Al2 Nb6 2.911116 1_455
Al2 Nb6 2.911116 1_555
Ga0 Nb0 2.908548 1_455
Ga0 Nb7 2.908548 1_455
Ga0 Nb0 2.908548 1_555
Ga0 Nb7 2.908548 1_555
Ga0 Nb11 2.910812 1_555
Ga0 Nb10 2.910812 1_555
Ga0 Nb4 2.910812 1_545
Ga0 Nb5 2.910812 1_545
Ga0 Nb3 2.911783 1_455
Ga0 Nb9 2.911783 1_545
Ga0 Nb3 2.911783 1_445
Ga0 Nb9 2.911783 1_555
