# generated using pymatgen
data_YAlCo4
_symmetry_space_group_name_H-M   'P 1'
_cell_length_a   5.04585868
_cell_length_b   5.04585868
_cell_length_c   3.87132600
_cell_angle_alpha   90.00000000
_cell_angle_beta   90.00000000
_cell_angle_gamma   120.00000895
_symmetry_Int_Tables_number   1
_chemical_formula_structural   YAlCo4
_chemical_formula_sum   'Y1 Al1 Co4'
_cell_volume   85.36119834
_cell_formula_units_Z   1
loop_
 _symmetry_equiv_pos_site_id
 _symmetry_equiv_pos_as_xyz
  1  'x, y, z'
loop_
 _atom_site_type_symbol
 _atom_site_label
 _atom_site_symmetry_multiplicity
 _atom_site_fract_x
 _atom_site_fract_y
 _atom_site_fract_z
 _atom_site_occupancy
  Y  Y0  1  0.66666700  0.33333300  0.00000000  1
  Al  Al0  1  0.00000000  0.00000000  0.00000000  1
  Co  Co0  1  0.33333300  0.66666700  0.00000000  1
  Co  Co1  1  0.65987100  0.82993600  0.50000000  1
  Co  Co2  1  0.17006400  0.82993600  0.50000000  1
  Co  Co3  1  0.17006400  0.34012900  0.50000000  1
loop_
_geom_bond_atom_site_label_1
_geom_bond_atom_site_label_2
_geom_bond_distance
_geom_bond_site_symmetry_2
Al0 Co2 2.440470 1_544
Al0 Co2 2.440470 1_545
Al0 Co3 2.440473 1_555
Al0 Co3 2.440473 1_554
Al0 Co1 2.440473 1_444
Al0 Co1 2.440473 1_445
Al0 Y0 2.913225 1_455
Al0 Co0 2.913225 1_545
Al0 Y0 2.913229 1_555
Al0 Co0 2.913229 1_555
Al0 Co0 2.913229 1_445
Al0 Y0 2.913229 1_445
Co0 Co1 2.404764 1_555
Co0 Co1 2.404764 1_554
Co0 Co3 2.404764 1_555
Co0 Co3 2.404764 1_554
Co0 Co2 2.404764 1_555
Co0 Co2 2.404764 1_554
Co0 Y0 2.913225 1_455
Co0 Y0 2.913225 1_565
Co0 Y0 2.913234 1_555
Co1 Co3 2.471497 1_555
Co1 Co2 2.471497 1_555
Co1 Co3 2.574361 1_665
Co1 Co2 2.574362 1_655
Co1 Y0 3.180066 1_566
Co1 Y0 3.180066 1_565
Co1 Y0 3.180074 1_555
Co1 Y0 3.180074 1_556
Co2 Co3 2.471497 1_555
Co2 Co3 2.574362 1_565
Co2 Y0 3.180070 1_566
Co2 Y0 3.180070 1_565
Co2 Y0 3.180070 1_456
Co2 Y0 3.180070 1_455
Co3 Y0 3.180066 1_456
Co3 Y0 3.180066 1_455
Co3 Y0 3.180074 1_556
Co3 Y0 3.180074 1_555
