# generated using pymatgen
data_Si(NF2)2
_symmetry_space_group_name_H-M   'P 1'
_cell_length_a   18.42231637
_cell_length_b   18.42231637
_cell_length_c   18.42231637
_cell_angle_alpha   163.13371695
_cell_angle_beta   163.00515557
_cell_angle_gamma   24.03236607
_symmetry_Int_Tables_number   1
_chemical_formula_structural   Si(NF2)2
_chemical_formula_sum   'Si3 N6 F12'
_cell_volume   530.07811857
_cell_formula_units_Z   3
loop_
 _symmetry_equiv_pos_site_id
 _symmetry_equiv_pos_as_xyz
  1  'x, y, z'
loop_
 _atom_site_type_symbol
 _atom_site_label
 _atom_site_symmetry_multiplicity
 _atom_site_fract_x
 _atom_site_fract_y
 _atom_site_fract_z
 _atom_site_occupancy
  Si  Si0  1  0.00000000  0.00000000  0.00000000  1
  Si  Si1  1  0.32145700  0.82145700  0.50000000  1
  Si  Si2  1  0.67854300  0.17854300  0.50000000  1
  N  N0  1  0.94166000  0.94166000  0.00000000  1
  N  N1  1  0.05834000  0.05834000  0.00000000  1
  N  N2  1  0.26292800  0.76292800  0.50000000  1
  N  N3  1  0.73707200  0.23707200  0.50000000  1
  N  N4  1  0.38059900  0.88059900  0.50000000  1
  N  N5  1  0.61940100  0.11940100  0.50000000  1
  F  F0  1  0.21391900  0.21497300  0.42889100  1
  F  F1  1  0.78608100  0.21497300  0.00105400  1
  F  F2  1  0.21391900  0.78502700  0.99894600  1
  F  F3  1  0.78608100  0.78502700  0.57110900  1
  F  F4  1  0.53564900  0.03674900  0.92830200  1
  F  F5  1  0.46435100  0.39265300  0.50110000  1
  F  F6  1  0.89155300  0.96325100  0.49890000  1
  F  F7  1  0.10844700  0.60734700  0.07169800  1
  F  F8  1  0.46435100  0.96325100  0.07169800  1
  F  F9  1  0.53564900  0.60734700  0.49890000  1
  F  F10  1  0.10844700  0.03674900  0.50110000  1
  F  F11  1  0.89155300  0.39265300  0.92830200  1
loop_
_geom_bond_atom_site_label_1
_geom_bond_atom_site_label_2
_geom_bond_distance
_geom_bond_site_symmetry_2
N0 Si0 2.102417 1_665
N1 Si0 2.102417 1_555
N2 Si1 2.109229 1_555
N3 Si2 2.109229 1_555
N4 Si1 2.131319 1_555
N5 Si2 2.131319 1_555
F0 Si0 1.644902 1_555
F1 Si0 1.644906 1_655
F2 Si0 1.644906 1_566
F3 Si0 1.644902 1_666
F4 Si1 1.642780 1_545
F5 Si2 1.642780 1_555
F6 Si2 1.642780 1_565
F7 Si1 1.642780 1_555
F8 Si2 1.642780 1_565
F9 Si1 1.642780 1_555
F10 Si1 1.642780 1_545
F11 Si2 1.642780 1_555
