# generated using pymatgen
data_Dy3Pt4
_symmetry_space_group_name_H-M   'P 1'
_cell_length_a   5.69877058
_cell_length_b   7.82873305
_cell_length_c   7.82873356
_cell_angle_alpha   114.31080281
_cell_angle_beta   104.04260610
_cell_angle_gamma   104.04260703
_symmetry_Int_Tables_number   1
_chemical_formula_structural   Dy3Pt4
_chemical_formula_sum   'Dy6 Pt8'
_cell_volume   284.67004810
_cell_formula_units_Z   2
loop_
 _symmetry_equiv_pos_site_id
 _symmetry_equiv_pos_as_xyz
  1  'x, y, z'
loop_
 _atom_site_type_symbol
 _atom_site_label
 _atom_site_symmetry_multiplicity
 _atom_site_fract_x
 _atom_site_fract_y
 _atom_site_fract_z
 _atom_site_occupancy
  Dy  Dy0  1  0.40546019  0.12548077  0.37709058  1
  Dy  Dy1  1  0.02837061  0.62290942  0.74839019  1
  Dy  Dy2  1  0.27997942  0.25160981  0.87451923  1
  Dy  Dy3  1  0.59453981  0.87451923  0.62290942  1
  Dy  Dy4  1  0.97162939  0.37709058  0.25160981  1
  Dy  Dy5  1  0.72002058  0.74839019  0.12548077  1
  Pt  Pt0  1  0.00000000  -0.00000000  0.00000000  1
  Pt  Pt1  1  0.50000000  -0.00000000  0.00000000  1
  Pt  Pt2  1  0.22666207  0.67342690  0.16570457  1
  Pt  Pt3  1  0.06095750  0.83429543  0.50772233  1
  Pt  Pt4  1  0.55323418  0.49227767  0.32657310  1
  Pt  Pt5  1  0.77333793  0.32657310  0.83429543  1
  Pt  Pt6  1  0.93904250  0.16570457  0.49227767  1
  Pt  Pt7  1  0.44676582  0.50772233  0.67342690  1
loop_
_geom_bond_atom_site_label_1
_geom_bond_atom_site_label_2
_geom_bond_distance
_geom_bond_site_symmetry_2
Dy0 Pt7 2.840670 1_555
Dy0 Pt6 2.851212 1_555
Dy0 Pt0 2.866969 1_555
Dy0 Pt1 2.934500 1_555
Dy0 Pt2 2.985130 1_545
Dy0 Pt4 3.005760 1_555
Dy0 Pt6 3.051708 1_455
Dy0 Pt5 3.130863 1_555
Dy0 Pt3 3.289201 1_545
Dy1 Pt5 2.840673 1_455
Dy1 Pt7 2.851212 1_555
Dy1 Pt0 2.866972 1_566
Dy1 Pt1 2.934497 1_566
Dy1 Pt3 2.985129 1_555
Dy1 Pt2 3.005760 1_556
Dy1 Pt7 3.051708 1_455
Dy1 Pt6 3.130861 1_455
Dy1 Pt4 3.289208 1_455
Dy2 Pt6 2.840672 1_455
Dy2 Pt5 2.851212 1_555
Dy2 Pt0 2.866969 1_556
Dy2 Pt1 2.934500 1_556
Dy2 Pt4 2.985130 1_556
Dy2 Pt3 3.005761 1_545
Dy2 Pt5 3.051708 1_455
Dy2 Pt7 3.130864 1_555
Dy2 Pt2 3.289202 1_556
Dy3 Pt4 2.840670 1_555
Dy3 Pt3 2.851212 1_555
Dy3 Pt0 2.866969 1_666
Dy3 Pt1 2.934500 1_566
Dy3 Pt5 2.985130 1_565
Dy3 Pt7 3.005760 1_555
Dy3 Pt3 3.051708 1_655
Dy3 Pt2 3.130863 1_555
Dy3 Pt6 3.289201 1_565
Dy4 Pt2 2.840673 1_655
Dy4 Pt4 2.851212 1_555
Dy4 Pt0 2.866972 1_655
Dy4 Pt1 2.934497 1_555
Dy4 Pt6 2.985129 1_555
Dy4 Pt5 3.005760 1_554
Dy4 Pt4 3.051708 1_655
Dy4 Pt3 3.130861 1_655
Dy4 Pt7 3.289208 1_655
Dy5 Pt3 2.840672 1_655
Dy5 Pt2 2.851212 1_555
Dy5 Pt0 2.866969 1_665
Dy5 Pt1 2.934500 1_565
Dy5 Pt7 2.985130 1_554
Dy5 Pt6 3.005761 1_565
Dy5 Pt2 3.051708 1_655
Dy5 Pt4 3.130864 1_555
Dy5 Pt5 3.289202 1_554
Pt2 Pt5 2.884635 1_454
Pt2 Pt4 2.945300 1_555
Pt2 Pt3 2.945304 1_555
Pt3 Pt6 2.884635 1_465
Pt3 Pt4 2.945308 1_455
Pt4 Pt7 2.884630 1_555
Pt5 Pt7 2.945300 1_555
Pt5 Pt6 2.945304 1_555
Pt6 Pt7 2.945308 1_655
