# generated using pymatgen
data_K5Ta(TlAs2)2
_symmetry_space_group_name_H-M   'P 1'
_cell_length_a   7.80470600
_cell_length_b   10.79265600
_cell_length_c   18.94030000
_cell_angle_alpha   90.00000000
_cell_angle_beta   90.00000000
_cell_angle_gamma   90.00000000
_symmetry_Int_Tables_number   1
_chemical_formula_structural   K5Ta(TlAs2)2
_chemical_formula_sum   'K20 Ta4 Tl8 As16'
_cell_volume   1595.40789337
_cell_formula_units_Z   4
loop_
 _symmetry_equiv_pos_site_id
 _symmetry_equiv_pos_as_xyz
  1  'x, y, z'
loop_
 _atom_site_type_symbol
 _atom_site_label
 _atom_site_symmetry_multiplicity
 _atom_site_fract_x
 _atom_site_fract_y
 _atom_site_fract_z
 _atom_site_occupancy
  K  K0  1  0.39441000  0.75000000  0.97876400  1
  K  K1  1  0.60559000  0.25000000  0.02123600  1
  K  K2  1  0.89441000  0.25000000  0.52123600  1
  K  K3  1  0.10559000  0.75000000  0.47876400  1
  K  K4  1  0.80656600  0.52480600  0.92187300  1
  K  K5  1  0.19343400  0.47519400  0.07812700  1
  K  K6  1  0.30656600  0.47519400  0.57812700  1
  K  K7  1  0.19343400  0.02480600  0.07812700  1
  K  K8  1  0.69343400  0.52480600  0.42187300  1
  K  K9  1  0.80656600  0.97519400  0.92187300  1
  K  K10  1  0.69343400  0.97519400  0.42187300  1
  K  K11  1  0.30656600  0.02480600  0.57812700  1
  K  K12  1  0.52172500  0.55480300  0.74809000  1
  K  K13  1  0.47827500  0.44519700  0.25191000  1
  K  K14  1  0.02172500  0.44519700  0.75191000  1
  K  K15  1  0.47827500  0.05480300  0.25191000  1
  K  K16  1  0.97827500  0.55480300  0.24809000  1
  K  K17  1  0.52172500  0.94519700  0.74809000  1
  K  K18  1  0.97827500  0.94519700  0.24809000  1
  K  K19  1  0.02172500  0.05480300  0.75191000  1
  Ta  Ta0  1  0.91621400  0.75000000  0.66308300  1
  Ta  Ta1  1  0.08378600  0.25000000  0.33691700  1
  Ta  Ta2  1  0.41621400  0.25000000  0.83691700  1
  Ta  Ta3  1  0.58378600  0.75000000  0.16308300  1
  Tl  Tl0  1  0.18106800  0.75000000  0.81768000  1
  Tl  Tl1  1  0.81893200  0.25000000  0.18232000  1
  Tl  Tl2  1  0.68106800  0.25000000  0.68232000  1
  Tl  Tl3  1  0.31893200  0.75000000  0.31768000  1
  Tl  Tl4  1  0.57420800  0.75000000  0.55123300  1
  Tl  Tl5  1  0.42579200  0.25000000  0.44876700  1
  Tl  Tl6  1  0.07420800  0.25000000  0.94876700  1
  Tl  Tl7  1  0.92579200  0.75000000  0.05123300  1
  As  As0  1  0.23651500  0.75000000  0.66301500  1
  As  As1  1  0.76348500  0.25000000  0.33698500  1
  As  As2  1  0.73651500  0.25000000  0.83698500  1
  As  As3  1  0.26348500  0.75000000  0.16301500  1
  As  As4  1  0.82869000  0.75000000  0.79191100  1
  As  As5  1  0.17131000  0.25000000  0.20808900  1
  As  As6  1  0.32869000  0.25000000  0.70808900  1
  As  As7  1  0.67131000  0.75000000  0.29191100  1
  As  As8  1  0.80290100  0.56148300  0.60136500  1
  As  As9  1  0.19709900  0.43851700  0.39863500  1
  As  As10  1  0.30290100  0.43851700  0.89863500  1
  As  As11  1  0.19709900  0.06148300  0.39863500  1
  As  As12  1  0.69709900  0.56148300  0.10136500  1
  As  As13  1  0.80290100  0.93851700  0.60136500  1
  As  As14  1  0.69709900  0.93851700  0.10136500  1
  As  As15  1  0.30290100  0.06148300  0.89863500  1
loop_
_geom_bond_atom_site_label_1
_geom_bond_atom_site_label_2
_geom_bond_distance
_geom_bond_site_symmetry_2
K0 Tl0 3.475764 1_555
K0 Ta3 3.791047 1_556
K0 K5 3.846902 1_556
K0 K7 3.846902 1_566
K0 Tl7 3.906501 1_456
K0 K4 4.173205 1_555
K0 K9 4.173205 1_555
K1 Tl1 3.475764 1_555
K1 Ta2 3.791047 1_554
K1 K4 3.846902 1_554
K1 K9 3.846902 1_544
K1 Tl6 3.906501 1_654
K1 K7 4.173205 1_555
K1 K5 4.173205 1_555
K2 Tl2 3.475764 1_555
K2 Ta1 3.791047 1_655
K2 K8 3.846902 1_555
K2 Tl5 3.906501 1_555
K2 K6 4.173205 1_655
K3 Tl3 3.475764 1_555
K3 Ta0 3.791047 1_455
K3 K6 3.846902 1_555
K3 Tl4 3.906501 1_555
K3 K8 4.173205 1_455
K4 Tl7 3.574352 1_556
K4 Tl6 3.663239 1_655
K5 Tl6 3.574352 1_554
K5 Tl7 3.663239 1_455
K6 Tl5 3.574352 1_555
K6 Tl4 3.663239 1_555
K7 Tl6 3.574352 1_554
K7 Tl7 3.663239 1_445
K8 Tl4 3.574352 1_555
K8 Tl5 3.663239 1_555
K9 Tl7 3.574352 1_556
K9 Tl6 3.663239 1_665
K10 Tl4 3.574352 1_555
K10 Tl5 3.663239 1_565
K10 K2 3.846902 1_565
K10 K3 4.173205 1_655
K11 Tl5 3.574352 1_555
K11 Tl4 3.663239 1_545
K11 K3 3.846902 1_545
K11 K2 4.173205 1_455
K12 Tl0 3.639267 1_555
K12 Tl2 3.730961 1_555
K13 Tl1 3.639267 1_555
K13 Tl3 3.730961 1_555
K14 Tl2 3.639267 1_455
K14 Tl0 3.730961 1_555
K15 Tl1 3.639267 1_555
K15 Tl3 3.730961 1_545
K16 Tl3 3.639267 1_655
K16 Tl1 3.730961 1_555
K17 Tl0 3.639267 1_555
K17 Tl2 3.730961 1_565
K18 Tl3 3.639267 1_655
K18 Tl1 3.730961 1_565
K19 Tl2 3.639267 1_455
K19 Tl0 3.730961 1_545
As0 Ta0 2.499855 1_455
As0 Tl0 2.961193 1_555
As0 K6 3.417664 1_555
As0 K11 3.417664 1_565
As0 K17 3.462598 1_555
As0 K12 3.462598 1_555
As0 K3 3.636293 1_555
As1 Ta1 2.499855 1_655
As1 Tl1 2.961193 1_555
As1 K10 3.417664 1_545
As1 K8 3.417664 1_555
As1 K15 3.462598 1_555
As1 K13 3.462598 1_555
As1 K2 3.636293 1_555
As2 Ta2 2.499855 1_555
As2 Tl2 2.961193 1_555
As2 K4 3.417664 1_555
As2 K9 3.417664 1_545
As2 K19 3.462598 1_655
As2 K14 3.462598 1_655
As2 K1 3.636293 1_556
As3 Ta3 2.499855 1_555
As3 Tl3 2.961193 1_555
As3 K5 3.417664 1_555
As3 K7 3.417664 1_565
As3 K18 3.462598 1_455
As3 K16 3.462598 1_455
As3 K0 3.636293 1_554
As4 Ta0 2.533856 1_555
As4 Tl0 2.793179 1_655
As4 K12 3.296476 1_555
As4 K17 3.296476 1_555
As4 K4 3.463515 1_555
As4 K9 3.463515 1_555
As4 K19 3.696685 1_665
As4 K14 3.696685 1_655
As5 Ta1 2.533856 1_555
As5 Tl1 2.793179 1_455
As5 K13 3.296476 1_555
As5 K15 3.296476 1_555
As5 K7 3.463515 1_555
As5 K5 3.463515 1_555
As5 K16 3.696685 1_455
As5 K18 3.696685 1_445
As6 Ta2 2.533856 1_555
As6 Tl2 2.793179 1_555
As6 K14 3.296476 1_555
As6 K19 3.296476 1_555
As6 K11 3.463515 1_555
As6 K6 3.463515 1_555
As6 K17 3.696685 1_545
As6 K12 3.696685 1_555
As7 Ta3 2.533856 1_555
As7 Tl3 2.793179 1_555
As7 K18 3.296476 1_555
As7 K16 3.296476 1_555
As7 K10 3.463515 1_555
As7 K8 3.463515 1_555
As7 K15 3.696685 1_565
As7 K13 3.696685 1_555
As8 Ta0 2.507623 1_555
As8 Tl4 2.868270 1_555
As8 K8 3.527622 1_555
As8 K12 3.541742 1_555
As8 K14 3.552771 1_655
As8 K2 3.756943 1_555
As8 K3 3.887502 1_655
As9 Ta1 2.507623 1_555
As9 Tl5 2.868270 1_555
As9 K6 3.527622 1_555
As9 K13 3.541742 1_555
As9 K16 3.552771 1_455
As9 K3 3.756943 1_555
As9 K2 3.887502 1_455
As10 Ta2 2.507623 1_555
As10 Tl6 2.868270 1_555
As10 K5 3.527622 1_556
As10 K14 3.541742 1_555
As10 K12 3.552771 1_555
As10 K0 3.756943 1_555
As10 K1 3.887502 1_556
As11 Ta1 2.507623 1_555
As11 Tl5 2.868270 1_555
As11 K11 3.527622 1_555
As11 K15 3.541742 1_555
As11 K18 3.552771 1_445
As11 K3 3.756943 1_545
As11 K2 3.887502 1_455
As12 Ta3 2.507623 1_555
As12 Tl7 2.868270 1_555
As12 K4 3.527622 1_554
As12 K16 3.541742 1_555
As12 K13 3.552771 1_555
As12 K1 3.756943 1_555
As12 K0 3.887502 1_554
As13 Ta0 2.507623 1_555
As13 Tl4 2.868270 1_555
As13 K10 3.527622 1_555
As13 K17 3.541742 1_555
As13 K19 3.552771 1_665
As13 K2 3.756943 1_565
As13 K3 3.887502 1_655
As14 Ta3 2.507623 1_555
As14 Tl7 2.868270 1_555
As14 K9 3.527622 1_554
As14 K18 3.541742 1_555
As14 K15 3.552771 1_565
As14 K1 3.756943 1_565
As14 K0 3.887502 1_554
As15 Ta2 2.507623 1_555
As15 Tl6 2.868270 1_555
As15 K7 3.527622 1_556
As15 K19 3.541742 1_555
As15 K17 3.552771 1_545
As15 K0 3.756943 1_545
As15 K1 3.887502 1_556
