# generated using pymatgen
data_Cs3ScI6
_symmetry_space_group_name_H-M   'P 1'
_cell_length_a   9.15173575
_cell_length_b   9.15173575
_cell_length_c   9.15173575
_cell_angle_alpha   60.00000000
_cell_angle_beta   60.00000000
_cell_angle_gamma   60.00000000
_symmetry_Int_Tables_number   1
_chemical_formula_structural   Cs3ScI6
_chemical_formula_sum   'Cs3 Sc1 I6'
_cell_volume   541.99517148
_cell_formula_units_Z   1
loop_
 _symmetry_equiv_pos_site_id
 _symmetry_equiv_pos_as_xyz
  1  'x, y, z'
loop_
 _atom_site_type_symbol
 _atom_site_label
 _atom_site_symmetry_multiplicity
 _atom_site_fract_x
 _atom_site_fract_y
 _atom_site_fract_z
 _atom_site_occupancy
  Cs  Cs0  1  0.75000000  0.75000000  0.75000000  1
  Cs  Cs1  1  0.25000000  0.25000000  0.25000000  1
  Cs  Cs2  1  0.50000000  0.50000000  0.50000000  1
  Sc  Sc0  1  -0.00000000  0.00000000  -0.00000000  1
  I  I0  1  0.77721081  0.22278919  0.22278919  1
  I  I1  1  0.22278919  0.22278919  0.77721081  1
  I  I2  1  0.22278919  0.77721081  0.77721081  1
  I  I3  1  0.22278919  0.77721081  0.22278919  1
  I  I4  1  0.77721081  0.22278919  0.77721081  1
  I  I5  1  0.77721081  0.77721081  0.22278919  1
loop_
_geom_bond_atom_site_label_1
_geom_bond_atom_site_label_2
_geom_bond_distance
_geom_bond_site_symmetry_2
Cs0 I2 4.589400 1_555
Cs0 I0 4.589400 1_556
Cs0 I0 4.589400 1_565
Cs0 I3 4.589400 1_655
Cs0 I1 4.589400 1_565
Cs0 I3 4.589400 1_556
Cs0 I1 4.589400 1_655
Cs0 I4 4.589400 1_555
Cs0 I5 4.589400 1_555
Cs0 I2 4.589400 1_655
Cs0 I4 4.589400 1_565
Cs0 I5 4.589400 1_556
Cs1 I1 4.589400 1_555
Cs1 I1 4.589400 1_554
Cs1 I3 4.589400 1_545
Cs1 I0 4.589400 1_455
Cs1 I4 4.589400 1_455
Cs1 I2 4.589400 1_545
Cs1 I5 4.589400 1_545
Cs1 I4 4.589400 1_554
Cs1 I3 4.589400 1_555
Cs1 I5 4.589400 1_455
Cs1 I2 4.589400 1_554
Cs1 I0 4.589400 1_555
Cs2 I2 3.587803 1_555
Cs2 I3 3.587803 1_555
Cs2 I0 3.587803 1_555
Cs2 I1 3.587803 1_555
Cs2 I5 3.587803 1_555
Cs2 I4 3.587803 1_555
I0 Sc0 2.883451 1_655
I1 Sc0 2.883451 1_556
I2 Sc0 2.883451 1_566
I3 Sc0 2.883451 1_565
I4 Sc0 2.883451 1_656
I5 Sc0 2.883451 1_665
