# generated using pymatgen
data_LuAlFe
_symmetry_space_group_name_H-M   'P 1'
_cell_length_a   5.31453833
_cell_length_b   5.31453833
_cell_length_c   8.46067700
_cell_angle_alpha   90.00000000
_cell_angle_beta   90.00000000
_cell_angle_gamma   120.17547917
_symmetry_Int_Tables_number   1
_chemical_formula_structural   LuAlFe
_chemical_formula_sum   'Lu4 Al4 Fe4'
_cell_volume   206.58375952
_cell_formula_units_Z   4
loop_
 _symmetry_equiv_pos_site_id
 _symmetry_equiv_pos_as_xyz
  1  'x, y, z'
loop_
 _atom_site_type_symbol
 _atom_site_label
 _atom_site_symmetry_multiplicity
 _atom_site_fract_x
 _atom_site_fract_y
 _atom_site_fract_z
 _atom_site_occupancy
  Lu  Lu0  1  0.33303600  0.66696400  0.18429300  1
  Lu  Lu1  1  0.66297000  0.33703000  0.30005200  1
  Lu  Lu2  1  0.66297000  0.33703000  0.69994800  1
  Lu  Lu3  1  0.33303600  0.66696400  0.81570700  1
  Al  Al0  1  0.83473700  0.16526300  0.00000000  1
  Al  Al1  1  0.16337400  0.32701900  0.50000000  1
  Al  Al2  1  0.67298100  0.83662600  0.50000000  1
  Al  Al3  1  0.16484600  0.83515400  0.50000000  1
  Fe  Fe0  1  0.00662800  0.99337200  0.23904100  1
  Fe  Fe1  1  0.00662800  0.99337200  0.76095900  1
  Fe  Fe2  1  0.83038900  0.67170800  0.00000000  1
  Fe  Fe3  1  0.32829200  0.16961100  0.00000000  1
loop_
_geom_bond_atom_site_label_1
_geom_bond_atom_site_label_2
_geom_bond_distance
_geom_bond_site_symmetry_2
Lu0 Lu3 3.118487 1_554
Lu0 Lu1 3.193626 1_555
Lu0 Lu1 3.230773 1_455
Lu0 Lu1 3.230773 1_565
Lu1 Lu2 3.383391 1_555
Lu2 Lu3 3.193626 1_555
Lu2 Lu3 3.230773 1_655
Lu2 Lu3 3.230773 1_545
Al0 Fe0 2.568713 1_645
Al0 Fe1 2.568713 1_644
Al0 Fe2 2.611478 1_545
Al0 Fe3 2.611478 1_655
Al0 Fe3 2.703210 1_555
Al0 Fe2 2.703210 1_555
Al0 Lu1 2.991501 1_555
Al0 Lu2 2.991501 1_554
Al0 Lu0 3.074921 1_655
Al0 Lu0 3.074921 1_545
Al0 Lu3 3.074921 1_654
Al0 Lu3 3.074921 1_544
Al1 Al2 2.599297 1_445
Al1 Al3 2.617976 1_545
Al1 Fe1 2.688483 1_545
Al1 Fe0 2.688483 1_545
Al1 Al3 2.696579 1_555
Al1 Al2 2.701139 1_555
Al1 Lu3 3.094205 1_555
Al1 Lu0 3.094205 1_555
Al1 Lu1 3.126072 1_555
Al1 Lu2 3.126072 1_555
Al1 Lu1 3.174807 1_455
Al1 Lu2 3.174807 1_455
Al2 Al3 2.617976 1_655
Al2 Fe1 2.688483 1_655
Al2 Fe0 2.688483 1_655
Al2 Al3 2.696579 1_555
Al2 Lu3 3.094205 1_555
Al2 Lu0 3.094205 1_555
Al2 Lu2 3.126072 1_555
Al2 Lu1 3.126072 1_555
Al2 Lu2 3.174807 1_565
Al2 Lu1 3.174807 1_565
Al3 Fe1 2.645683 1_555
Al3 Fe0 2.645683 1_555
Al3 Lu3 3.088025 1_555
Al3 Lu0 3.088025 1_555
Al3 Lu1 3.144167 1_455
Al3 Lu2 3.144167 1_455
Al3 Lu2 3.144167 1_565
Al3 Lu1 3.144167 1_565
Fe0 Fe2 2.506052 1_455
Fe0 Fe3 2.506052 1_565
Fe0 Lu0 3.042719 1_555
Fe0 Lu1 3.060210 1_455
Fe0 Lu1 3.060210 1_565
Fe0 Lu0 3.129870 1_455
Fe0 Lu0 3.129870 1_565
Fe0 Lu1 3.207985 1_465
Fe1 Fe2 2.506052 1_456
Fe1 Fe3 2.506052 1_566
Fe1 Lu3 3.042719 1_555
Fe1 Lu2 3.060210 1_455
Fe1 Lu2 3.060210 1_565
Fe1 Lu3 3.129870 1_455
Fe1 Lu3 3.129870 1_565
Fe1 Lu2 3.207985 1_465
Fe2 Fe3 2.639103 1_665
Fe2 Fe3 2.661333 1_555
Fe2 Lu1 2.968003 1_555
Fe2 Lu2 2.968003 1_554
Fe2 Lu0 3.058005 1_555
Fe2 Lu3 3.058005 1_554
Fe2 Lu0 3.104130 1_655
Fe2 Lu3 3.104130 1_654
Fe3 Lu2 2.968003 1_554
Fe3 Lu1 2.968003 1_555
Fe3 Lu0 3.058005 1_555
Fe3 Lu3 3.058005 1_554
Fe3 Lu0 3.104130 1_545
Fe3 Lu3 3.104130 1_544
