# generated using pymatgen
data_Nb5SnSe8
_symmetry_space_group_name_H-M   'P 1'
_cell_length_a   9.50820259
_cell_length_b   9.50820259
_cell_length_c   9.41326925
_cell_angle_alpha   76.95150374
_cell_angle_beta   76.95150374
_cell_angle_gamma   20.96173087
_symmetry_Int_Tables_number   1
_chemical_formula_structural   Nb5SnSe8
_chemical_formula_sum   'Nb5 Sn1 Se8'
_cell_volume   296.31214163
_cell_formula_units_Z   1
loop_
 _symmetry_equiv_pos_site_id
 _symmetry_equiv_pos_as_xyz
  1  'x, y, z'
loop_
 _atom_site_type_symbol
 _atom_site_label
 _atom_site_symmetry_multiplicity
 _atom_site_fract_x
 _atom_site_fract_y
 _atom_site_fract_z
 _atom_site_occupancy
  Nb  Nb0  1  0.00000000  0.00000000  0.00000000  1
  Nb  Nb1  1  0.36018300  0.36018300  0.99809600  1
  Nb  Nb2  1  0.63981700  0.63981700  0.00190400  1
  Nb  Nb3  1  0.28740900  0.28740900  0.36963800  1
  Nb  Nb4  1  0.71259100  0.71259100  0.63036200  1
  Sn  Sn0  1  0.50000000  0.50000000  0.50000000  1
  Se  Se0  1  0.56981400  0.56981400  0.80005300  1
  Se  Se1  1  0.43018600  0.43018600  0.19994700  1
  Se  Se2  1  0.08342400  0.08342400  0.19573500  1
  Se  Se3  1  0.91657600  0.91657600  0.80426500  1
  Se  Se4  1  0.14985400  0.14985400  0.49205900  1
  Se  Se5  1  0.85014600  0.85014600  0.50794100  1
  Se  Se6  1  0.24058700  0.24058700  0.84248700  1
  Se  Se7  1  0.75941300  0.75941300  0.15751300  1
loop_
_geom_bond_atom_site_label_1
_geom_bond_atom_site_label_2
_geom_bond_distance
_geom_bond_site_symmetry_2
Nb0 Se0 2.666451 1_454
Nb0 Se0 2.666451 1_544
Nb0 Se1 2.666451 1_545
Nb0 Se1 2.666451 1_455
Nb0 Se2 2.673607 1_555
Nb0 Se3 2.673607 1_444
Nb1 Se1 2.542816 1_556
Nb1 Se3 2.559119 1_455
Nb1 Se3 2.559119 1_545
Nb1 Se7 2.737807 1_546
Nb1 Se7 2.737807 1_456
Nb1 Se6 2.941276 1_555
Nb2 Se0 2.542816 1_554
Nb2 Se2 2.559119 1_565
Nb2 Se2 2.559119 1_655
Nb2 Se6 2.737807 1_654
Nb2 Se6 2.737807 1_564
Nb2 Se7 2.941276 1_555
Nb3 Se4 2.565702 1_555
Nb3 Se5 2.600774 1_455
Nb3 Se5 2.600774 1_545
Nb3 Se1 2.778672 1_555
Nb3 Se7 2.780791 1_455
Nb3 Se7 2.780791 1_545
Nb4 Se5 2.565702 1_555
Nb4 Se4 2.600774 1_655
Nb4 Se4 2.600774 1_565
Nb4 Se0 2.778672 1_555
Nb4 Se6 2.780791 1_655
Nb4 Se6 2.780791 1_565
Se4 Sn0 3.279167 1_545
Se4 Sn0 3.279167 1_455
Se5 Sn0 3.279167 1_655
Se5 Sn0 3.279167 1_565
