# generated using pymatgen
data_LaY(B2Rh3)2
_symmetry_space_group_name_H-M   'P 1'
_cell_length_a   6.25966200
_cell_length_b   11.00442336
_cell_length_c   19.07041092
_cell_angle_alpha   89.99999996
_cell_angle_beta   90.00000000
_cell_angle_gamma   90.00000000
_symmetry_Int_Tables_number   1
_chemical_formula_structural   LaY(B2Rh3)2
_chemical_formula_sum   'La8 Y8 B32 Rh48'
_cell_volume   1313.64562756
_cell_formula_units_Z   8
loop_
 _symmetry_equiv_pos_site_id
 _symmetry_equiv_pos_as_xyz
  1  'x, y, z'
loop_
 _atom_site_type_symbol
 _atom_site_label
 _atom_site_symmetry_multiplicity
 _atom_site_fract_x
 _atom_site_fract_y
 _atom_site_fract_z
 _atom_site_occupancy
  La  La0_0  1  0.00000000  0.49999100  0.00000000  1
  La  La0_1  1  0.00000000  0.49999100  0.50000000  1
  La  La0_2  1  0.00000000  0.99999100  0.00000000  1
  La  La0_3  1  0.00000000  0.99999100  0.50000000  1
  La  La0_4  1  0.50000000  0.49999100  0.00000000  1
  La  La0_5  1  0.50000000  0.49999100  0.50000000  1
  La  La0_6  1  0.50000000  0.99999100  0.00000000  1
  La  La0_7  1  0.50000000  0.99999100  0.50000000  1
  Y  Y0_0  1  0.00000000  0.25000600  0.25000000  1
  Y  Y0_1  1  0.00000000  0.25000600  0.75000000  1
  Y  Y0_2  1  0.00000000  0.75000600  0.25000000  1
  Y  Y0_3  1  0.00000000  0.75000600  0.75000000  1
  Y  Y0_4  1  0.50000000  0.25000600  0.25000000  1
  Y  Y0_5  1  0.50000000  0.25000600  0.75000000  1
  Y  Y0_6  1  0.50000000  0.75000600  0.25000000  1
  Y  Y0_7  1  0.50000000  0.75000600  0.75000000  1
  B  B0_0  1  0.00000000  0.49997400  0.16692300  1
  B  B0_1  1  0.00000000  0.49997400  0.66692300  1
  B  B0_2  1  0.00000000  0.99997400  0.16692300  1
  B  B0_3  1  0.00000000  0.99997400  0.66692300  1
  B  B0_4  1  0.50000000  0.49997400  0.16692300  1
  B  B0_5  1  0.50000000  0.49997400  0.66692300  1
  B  B0_6  1  0.50000000  0.99997400  0.16692300  1
  B  B0_7  1  0.50000000  0.99997400  0.66692300  1
  B  B1_0  1  0.00000000  0.24998250  0.41655350  1
  B  B1_1  1  0.00000000  0.24998250  0.91655350  1
  B  B1_2  1  0.00000000  0.74998250  0.41655350  1
  B  B1_3  1  0.00000000  0.74998250  0.91655350  1
  B  B1_4  1  0.50000000  0.24998250  0.41655350  1
  B  B1_5  1  0.50000000  0.24998250  0.91655350  1
  B  B1_6  1  0.50000000  0.74998250  0.41655350  1
  B  B1_7  1  0.50000000  0.74998250  0.91655350  1
  B  B2_0  1  0.00000000  0.24998250  0.08344650  1
  B  B2_1  1  0.00000000  0.24998250  0.58344650  1
  B  B2_2  1  0.00000000  0.74998250  0.08344650  1
  B  B2_3  1  0.00000000  0.74998250  0.58344650  1
  B  B2_4  1  0.50000000  0.24998250  0.08344650  1
  B  B2_5  1  0.50000000  0.24998250  0.58344650  1
  B  B2_6  1  0.50000000  0.74998250  0.08344650  1
  B  B2_7  1  0.50000000  0.74998250  0.58344650  1
  B  B3_0  1  0.00000000  0.49997400  0.33307650  1
  B  B3_1  1  0.00000000  0.49997400  0.83307650  1
  B  B3_2  1  0.00000000  0.99997400  0.33307650  1
  B  B3_3  1  0.00000000  0.99997400  0.83307650  1
  B  B3_4  1  0.50000000  0.49997400  0.33307650  1
  B  B3_5  1  0.50000000  0.49997400  0.83307650  1
  B  B3_6  1  0.50000000  0.99997400  0.33307650  1
  B  B3_7  1  0.50000000  0.99997400  0.83307650  1
  Rh  Rh0_0  1  0.25000000  0.00000300  0.25000000  1
  Rh  Rh0_1  1  0.25000000  0.00000300  0.75000000  1
  Rh  Rh0_2  1  0.25000000  0.50000300  0.25000000  1
  Rh  Rh0_3  1  0.25000000  0.50000300  0.75000000  1
  Rh  Rh0_4  1  0.75000000  0.00000300  0.25000000  1
  Rh  Rh0_5  1  0.75000000  0.00000300  0.75000000  1
  Rh  Rh0_6  1  0.75000000  0.50000300  0.25000000  1
  Rh  Rh0_7  1  0.75000000  0.50000300  0.75000000  1
  Rh  Rh1_0  1  0.25000000  0.24999800  0.00000000  1
  Rh  Rh1_1  1  0.25000000  0.24999800  0.50000000  1
  Rh  Rh1_2  1  0.25000000  0.74999800  0.00000000  1
  Rh  Rh1_3  1  0.25000000  0.74999800  0.50000000  1
  Rh  Rh1_4  1  0.75000000  0.24999800  0.00000000  1
  Rh  Rh1_5  1  0.75000000  0.24999800  0.50000000  1
  Rh  Rh1_6  1  0.75000000  0.74999800  0.00000000  1
  Rh  Rh1_7  1  0.75000000  0.74999800  0.50000000  1
  Rh  Rh2_0  1  0.25000000  0.12632700  0.12736900  1
  Rh  Rh2_1  1  0.25000000  0.12632700  0.62736900  1
  Rh  Rh2_2  1  0.25000000  0.62632700  0.12736900  1
  Rh  Rh2_3  1  0.25000000  0.62632700  0.62736900  1
  Rh  Rh2_4  1  0.75000000  0.12632700  0.12736900  1
  Rh  Rh2_5  1  0.75000000  0.12632700  0.62736900  1
  Rh  Rh2_6  1  0.75000000  0.62632700  0.12736900  1
  Rh  Rh2_7  1  0.75000000  0.62632700  0.62736900  1
  Rh  Rh3_0  1  0.25000000  0.37366750  0.37263250  1
  Rh  Rh3_1  1  0.25000000  0.37366750  0.87263250  1
  Rh  Rh3_2  1  0.25000000  0.87366750  0.37263250  1
  Rh  Rh3_3  1  0.25000000  0.87366750  0.87263250  1
  Rh  Rh3_4  1  0.75000000  0.37366750  0.37263250  1
  Rh  Rh3_5  1  0.75000000  0.37366750  0.87263250  1
  Rh  Rh3_6  1  0.75000000  0.87366750  0.37263250  1
  Rh  Rh3_7  1  0.75000000  0.87366750  0.87263250  1
  Rh  Rh4_0  1  0.25000000  0.37366750  0.12736750  1
  Rh  Rh4_1  1  0.25000000  0.37366750  0.62736750  1
  Rh  Rh4_2  1  0.25000000  0.87366750  0.12736750  1
  Rh  Rh4_3  1  0.25000000  0.87366750  0.62736750  1
  Rh  Rh4_4  1  0.75000000  0.37366750  0.12736750  1
  Rh  Rh4_5  1  0.75000000  0.37366750  0.62736750  1
  Rh  Rh4_6  1  0.75000000  0.87366750  0.12736750  1
  Rh  Rh4_7  1  0.75000000  0.87366750  0.62736750  1
  Rh  Rh5_0  1  0.25000000  0.12632700  0.37263100  1
  Rh  Rh5_1  1  0.25000000  0.12632700  0.87263100  1
  Rh  Rh5_2  1  0.25000000  0.62632700  0.37263100  1
  Rh  Rh5_3  1  0.25000000  0.62632700  0.87263100  1
  Rh  Rh5_4  1  0.75000000  0.12632700  0.37263100  1
  Rh  Rh5_5  1  0.75000000  0.12632700  0.87263100  1
  Rh  Rh5_6  1  0.75000000  0.62632700  0.37263100  1
  Rh  Rh5_7  1  0.75000000  0.62632700  0.87263100  1
loop_
_geom_bond_atom_site_label_1
_geom_bond_atom_site_label_2
_geom_bond_distance
_geom_bond_site_symmetry_2
La0_0 La0_4 3.129831 1_555
La0_0 La0_4 3.129831 1_455
La0_0 Rh1_4 3.164983 1_455
La0_0 Rh1_0 3.164983 1_555
La0_0 Rh1_6 3.165117 1_455
La0_0 Rh1_2 3.165117 1_555
La0_0 Rh4_4 3.206429 1_455
La0_0 Rh4_0 3.206429 1_555
La0_0 Rh3_5 3.206429 1_454
La0_0 Rh3_1 3.206429 1_554
La0_0 Rh5_7 3.206510 1_454
La0_0 Rh5_3 3.206510 1_554
La0_0 Rh2_2 3.206510 1_555
La0_0 Rh2_6 3.206510 1_455
La0_1 La0_5 3.129831 1_555
La0_1 La0_5 3.129831 1_455
La0_1 Rh1_1 3.164983 1_555
La0_1 Rh1_5 3.164983 1_455
La0_1 Rh1_7 3.165117 1_455
La0_1 Rh1_3 3.165117 1_555
La0_1 Rh4_5 3.206429 1_455
La0_1 Rh4_1 3.206429 1_555
La0_1 Rh3_4 3.206429 1_455
La0_1 Rh3_0 3.206429 1_555
La0_1 Rh5_6 3.206510 1_455
La0_1 Rh5_2 3.206510 1_555
La0_1 Rh2_7 3.206510 1_455
La0_1 Rh2_3 3.206510 1_555
La0_2 La0_6 3.129831 1_555
La0_2 La0_6 3.129831 1_455
La0_2 Rh1_6 3.164983 1_455
La0_2 Rh1_2 3.164983 1_555
La0_2 Rh1_4 3.165117 1_465
La0_2 Rh1_0 3.165117 1_565
La0_2 Rh4_6 3.206429 1_455
La0_2 Rh4_2 3.206429 1_555
La0_2 Rh3_7 3.206429 1_454
La0_2 Rh3_3 3.206429 1_554
La0_2 Rh5_5 3.206510 1_464
La0_2 Rh5_1 3.206510 1_564
La0_2 Rh2_4 3.206510 1_465
La0_2 Rh2_0 3.206510 1_565
La0_3 La0_7 3.129831 1_455
La0_3 La0_7 3.129831 1_555
La0_3 Rh1_3 3.164983 1_555
La0_3 Rh1_7 3.164983 1_455
La0_3 Rh1_5 3.165117 1_465
La0_3 Rh1_1 3.165117 1_565
La0_3 Rh4_3 3.206429 1_555
La0_3 Rh4_7 3.206429 1_455
La0_3 Rh3_2 3.206429 1_555
La0_3 Rh3_6 3.206429 1_455
La0_3 Rh5_4 3.206510 1_465
La0_3 Rh5_0 3.206510 1_565
La0_3 Rh2_5 3.206510 1_465
La0_3 Rh2_1 3.206510 1_565
La0_4 Rh1_0 3.164983 1_555
La0_4 Rh1_4 3.164983 1_555
La0_4 Rh1_2 3.165117 1_555
La0_4 Rh1_6 3.165117 1_555
La0_4 Rh4_0 3.206429 1_555
La0_4 Rh4_4 3.206429 1_555
La0_4 Rh3_5 3.206429 1_554
La0_4 Rh3_1 3.206429 1_554
La0_4 Rh5_3 3.206510 1_554
La0_4 Rh5_7 3.206510 1_554
La0_4 Rh2_2 3.206510 1_555
La0_4 Rh2_6 3.206510 1_555
La0_5 Rh1_1 3.164983 1_555
La0_5 Rh1_5 3.164983 1_555
La0_5 Rh1_3 3.165117 1_555
La0_5 Rh1_7 3.165117 1_555
La0_5 Rh4_1 3.206429 1_555
La0_5 Rh4_5 3.206429 1_555
La0_5 Rh3_0 3.206429 1_555
La0_5 Rh3_4 3.206429 1_555
La0_5 Rh5_2 3.206510 1_555
La0_5 Rh5_6 3.206510 1_555
La0_5 Rh2_3 3.206510 1_555
La0_5 Rh2_7 3.206510 1_555
La0_6 Rh1_2 3.164983 1_555
La0_6 Rh1_6 3.164983 1_555
La0_6 Rh1_0 3.165117 1_565
La0_6 Rh1_4 3.165117 1_565
La0_6 Rh4_2 3.206429 1_555
La0_6 Rh4_6 3.206429 1_555
La0_6 Rh3_7 3.206429 1_554
La0_6 Rh3_3 3.206429 1_554
La0_6 Rh5_1 3.206510 1_564
La0_6 Rh5_5 3.206510 1_564
La0_6 Rh2_0 3.206510 1_565
La0_6 Rh2_4 3.206510 1_565
La0_7 Rh1_3 3.164983 1_555
La0_7 Rh1_7 3.164983 1_555
La0_7 Rh1_1 3.165117 1_565
La0_7 Rh1_5 3.165117 1_565
La0_7 Rh4_3 3.206429 1_555
La0_7 Rh4_7 3.206429 1_555
La0_7 Rh3_2 3.206429 1_555
La0_7 Rh3_6 3.206429 1_555
La0_7 Rh5_0 3.206510 1_565
La0_7 Rh5_4 3.206510 1_565
La0_7 Rh2_5 3.206510 1_565
La0_7 Rh2_1 3.206510 1_565
Y0_0 Y0_4 3.129831 1_455
Y0_0 Y0_4 3.129831 1_555
Y0_1 Y0_5 3.129831 1_455
Y0_1 Y0_5 3.129831 1_555
Y0_2 Y0_6 3.129831 1_555
Y0_2 Y0_6 3.129831 1_455
Y0_3 Y0_7 3.129831 1_555
Y0_3 Y0_7 3.129831 1_455
B0_0 Rh4_4 2.224836 1_455
B0_0 Rh4_0 2.224836 1_555
B0_0 Rh2_6 2.225146 1_455
B0_0 Rh2_2 2.225146 1_555
B0_0 Rh0_6 2.226883 1_455
B0_0 Rh0_2 2.226883 1_555
B0_0 Y0_0 3.174381 1_555
B0_0 Y0_2 3.174991 1_555
B0_0 La0_0 3.183290 1_555
B0_1 Rh4_5 2.224836 1_455
B0_1 Rh4_1 2.224836 1_555
B0_1 Rh2_7 2.225146 1_455
B0_1 Rh2_3 2.225146 1_555
B0_1 Rh0_7 2.226883 1_455
B0_1 Rh0_3 2.226883 1_555
B0_1 Y0_1 3.174381 1_555
B0_1 Y0_3 3.174991 1_555
B0_1 La0_1 3.183290 1_555
B0_2 Rh4_6 2.224836 1_455
B0_2 Rh4_2 2.224836 1_555
B0_2 Rh2_4 2.225146 1_465
B0_2 Rh2_0 2.225146 1_565
B0_2 Rh0_4 2.226883 1_465
B0_2 Rh0_0 2.226883 1_565
B0_2 Y0_2 3.174381 1_555
B0_2 Y0_0 3.174991 1_565
B0_2 La0_2 3.183290 1_555
B0_3 Rh4_7 2.224836 1_455
B0_3 Rh4_3 2.224836 1_555
B0_3 Rh2_5 2.225146 1_465
B0_3 Rh2_1 2.225146 1_565
B0_3 Rh0_5 2.226883 1_465
B0_3 Rh0_1 2.226883 1_565
B0_3 Y0_3 3.174381 1_555
B0_3 Y0_1 3.174991 1_565
B0_3 La0_3 3.183290 1_555
B0_4 Rh4_0 2.224836 1_555
B0_4 Rh4_4 2.224836 1_555
B0_4 Rh2_2 2.225146 1_555
B0_4 Rh2_6 2.225146 1_555
B0_4 Rh0_2 2.226883 1_555
B0_4 Rh0_6 2.226883 1_555
B0_4 Y0_4 3.174381 1_555
B0_4 Y0_6 3.174991 1_555
B0_4 La0_4 3.183290 1_555
B0_5 Rh4_1 2.224836 1_555
B0_5 Rh4_5 2.224836 1_555
B0_5 Rh2_3 2.225146 1_555
B0_5 Rh2_7 2.225146 1_555
B0_5 Rh0_3 2.226883 1_555
B0_5 Rh0_7 2.226883 1_555
B0_5 Y0_5 3.174381 1_555
B0_5 Y0_7 3.174991 1_555
B0_5 La0_5 3.183290 1_555
B0_6 Rh4_2 2.224836 1_555
B0_6 Rh4_6 2.224836 1_555
B0_6 Rh2_0 2.225146 1_565
B0_6 Rh2_4 2.225146 1_565
B0_6 Rh0_0 2.226883 1_565
B0_6 Rh0_4 2.226883 1_565
B0_6 Y0_6 3.174381 1_555
B0_6 Y0_4 3.174991 1_565
B0_6 La0_6 3.183290 1_555
B0_7 Rh4_3 2.224836 1_555
B0_7 Rh4_7 2.224836 1_555
B0_7 Rh2_1 2.225146 1_565
B0_7 Rh2_5 2.225146 1_565
B0_7 Rh0_1 2.226883 1_565
B0_7 Rh0_5 2.226883 1_565
B0_7 Y0_7 3.174381 1_555
B0_7 Y0_5 3.174991 1_565
B0_7 La0_7 3.183290 1_555
B1_0 Rh1_5 2.231901 1_455
B1_0 Rh1_1 2.231901 1_555
B1_0 Rh5_4 2.236566 1_455
B1_0 Rh5_0 2.236566 1_555
B1_0 Rh3_4 2.236753 1_455
B1_0 Rh3_0 2.236753 1_555
B1_0 Y0_0 3.176244 1_555
B1_0 La0_3 3.178127 1_545
B1_0 La0_1 3.178289 1_555
B1_1 Rh1_4 2.231901 1_456
B1_1 Rh1_0 2.231901 1_556
B1_1 Rh5_5 2.236566 1_455
B1_1 Rh5_1 2.236566 1_555
B1_1 Rh3_5 2.236753 1_455
B1_1 Rh3_1 2.236753 1_555
B1_1 Y0_1 3.176244 1_555
B1_1 La0_2 3.178127 1_546
B1_1 La0_0 3.178289 1_556
B1_2 Rh1_7 2.231901 1_455
B1_2 Rh1_3 2.231901 1_555
B1_2 Rh5_6 2.236566 1_455
B1_2 Rh5_2 2.236566 1_555
B1_2 Rh3_6 2.236753 1_455
B1_2 Rh3_2 2.236753 1_555
B1_2 Y0_2 3.176244 1_555
B1_2 La0_1 3.178127 1_555
B1_2 La0_3 3.178289 1_555
B1_3 Rh1_6 2.231901 1_456
B1_3 Rh1_2 2.231901 1_556
B1_3 Rh5_7 2.236566 1_455
B1_3 Rh5_3 2.236566 1_555
B1_3 Rh3_7 2.236753 1_455
B1_3 Rh3_3 2.236753 1_555
B1_3 Y0_3 3.176244 1_555
B1_3 La0_0 3.178127 1_556
B1_3 La0_2 3.178289 1_556
B1_4 Rh1_1 2.231901 1_555
B1_4 Rh1_5 2.231901 1_555
B1_4 Rh5_0 2.236566 1_555
B1_4 Rh5_4 2.236566 1_555
B1_4 Rh3_0 2.236753 1_555
B1_4 Rh3_4 2.236753 1_555
B1_4 Y0_4 3.176244 1_555
B1_4 La0_7 3.178127 1_545
B1_4 La0_5 3.178289 1_555
B1_5 Rh1_0 2.231901 1_556
B1_5 Rh1_4 2.231901 1_556
B1_5 Rh5_1 2.236566 1_555
B1_5 Rh5_5 2.236566 1_555
B1_5 Rh3_1 2.236753 1_555
B1_5 Rh3_5 2.236753 1_555
B1_5 Y0_5 3.176244 1_555
B1_5 La0_6 3.178127 1_546
B1_5 La0_4 3.178289 1_556
B1_6 Rh1_3 2.231901 1_555
B1_6 Rh1_7 2.231901 1_555
B1_6 Rh5_2 2.236566 1_555
B1_6 Rh5_6 2.236566 1_555
B1_6 Rh3_2 2.236753 1_555
B1_6 Rh3_6 2.236753 1_555
B1_6 Y0_6 3.176244 1_555
B1_6 La0_5 3.178127 1_555
B1_6 La0_7 3.178289 1_555
B1_7 Rh1_2 2.231901 1_556
B1_7 Rh1_6 2.231901 1_556
B1_7 Rh5_3 2.236566 1_555
B1_7 Rh5_7 2.236566 1_555
B1_7 Rh3_3 2.236753 1_555
B1_7 Rh3_7 2.236753 1_555
B1_7 Y0_7 3.176244 1_555
B1_7 La0_4 3.178127 1_556
B1_7 La0_6 3.178289 1_556
B2_0 Rh1_4 2.231901 1_455
B2_0 Rh1_0 2.231901 1_555
B2_0 Rh2_4 2.236566 1_455
B2_0 Rh2_0 2.236566 1_555
B2_0 Rh4_4 2.236753 1_455
B2_0 Rh4_0 2.236753 1_555
B2_0 Y0_0 3.176244 1_555
B2_0 La0_2 3.178127 1_545
B2_0 La0_0 3.178289 1_555
B2_1 Rh1_1 2.231901 1_555
B2_1 Rh1_5 2.231901 1_455
B2_1 Rh2_1 2.236566 1_555
B2_1 Rh2_5 2.236566 1_455
B2_1 Rh4_5 2.236753 1_455
B2_1 Rh4_1 2.236753 1_555
B2_1 Y0_1 3.176244 1_555
B2_1 La0_3 3.178127 1_545
B2_1 La0_1 3.178289 1_555
B2_2 Rh1_6 2.231901 1_455
B2_2 Rh1_2 2.231901 1_555
B2_2 Rh2_6 2.236566 1_455
B2_2 Rh2_2 2.236566 1_555
B2_2 Rh4_6 2.236753 1_455
B2_2 Rh4_2 2.236753 1_555
B2_2 Y0_2 3.176244 1_555
B2_2 La0_0 3.178127 1_555
B2_2 La0_2 3.178289 1_555
B2_3 Rh1_3 2.231901 1_555
B2_3 Rh1_7 2.231901 1_455
B2_3 Rh2_7 2.236566 1_455
B2_3 Rh2_3 2.236566 1_555
B2_3 Rh4_7 2.236753 1_455
B2_3 Rh4_3 2.236753 1_555
B2_3 Y0_3 3.176244 1_555
B2_3 La0_1 3.178127 1_555
B2_3 La0_3 3.178289 1_555
B2_4 Rh1_0 2.231901 1_555
B2_4 Rh1_4 2.231901 1_555
B2_4 Rh2_0 2.236566 1_555
B2_4 Rh2_4 2.236566 1_555
B2_4 Rh4_0 2.236753 1_555
B2_4 Rh4_4 2.236753 1_555
B2_4 Y0_4 3.176244 1_555
B2_4 La0_6 3.178127 1_545
B2_4 La0_4 3.178289 1_555
B2_5 Rh1_1 2.231901 1_555
B2_5 Rh1_5 2.231901 1_555
B2_5 Rh2_1 2.236566 1_555
B2_5 Rh2_5 2.236566 1_555
B2_5 Rh4_1 2.236753 1_555
B2_5 Rh4_5 2.236753 1_555
B2_5 Y0_5 3.176244 1_555
B2_5 La0_7 3.178127 1_545
B2_5 La0_5 3.178289 1_555
B2_6 Rh1_2 2.231901 1_555
B2_6 Rh1_6 2.231901 1_555
B2_6 Rh2_2 2.236566 1_555
B2_6 Rh2_6 2.236566 1_555
B2_6 Rh4_2 2.236753 1_555
B2_6 Rh4_6 2.236753 1_555
B2_6 Y0_6 3.176244 1_555
B2_6 La0_4 3.178127 1_555
B2_6 La0_6 3.178289 1_555
B2_7 Rh1_3 2.231901 1_555
B2_7 Rh1_7 2.231901 1_555
B2_7 Rh2_3 2.236566 1_555
B2_7 Rh2_7 2.236566 1_555
B2_7 Rh4_7 2.236753 1_555
B2_7 Rh4_3 2.236753 1_555
B2_7 Y0_7 3.176244 1_555
B2_7 La0_5 3.178127 1_555
B2_7 La0_7 3.178289 1_555
B3_0 Rh3_4 2.224839 1_455
B3_0 Rh3_0 2.224839 1_555
B3_0 Rh5_6 2.225149 1_455
B3_0 Rh5_2 2.225149 1_555
B3_0 Rh0_2 2.226876 1_555
B3_0 Rh0_6 2.226876 1_455
B3_0 Y0_0 3.174376 1_555
B3_0 Y0_2 3.174986 1_555
B3_0 La0_1 3.183300 1_555
B3_1 Rh3_1 2.224839 1_555
B3_1 Rh3_5 2.224839 1_455
B3_1 Rh5_7 2.225149 1_455
B3_1 Rh5_3 2.225149 1_555
B3_1 Rh0_3 2.226876 1_555
B3_1 Rh0_7 2.226876 1_455
B3_1 Y0_1 3.174376 1_555
B3_1 Y0_3 3.174986 1_555
B3_1 La0_0 3.183300 1_556
B3_2 Rh3_6 2.224839 1_455
B3_2 Rh3_2 2.224839 1_555
B3_2 Rh5_4 2.225149 1_465
B3_2 Rh5_0 2.225149 1_565
B3_2 Rh0_4 2.226876 1_465
B3_2 Rh0_0 2.226876 1_565
B3_2 Y0_2 3.174376 1_555
B3_2 Y0_0 3.174986 1_565
B3_2 La0_3 3.183300 1_555
B3_3 Rh3_7 2.224839 1_455
B3_3 Rh3_3 2.224839 1_555
B3_3 Rh5_5 2.225149 1_465
B3_3 Rh5_1 2.225149 1_565
B3_3 Rh0_5 2.226876 1_465
B3_3 Rh0_1 2.226876 1_565
B3_3 Y0_3 3.174376 1_555
B3_3 Y0_1 3.174986 1_565
B3_3 La0_2 3.183300 1_556
B3_4 Rh3_0 2.224839 1_555
B3_4 Rh3_4 2.224839 1_555
B3_4 Rh5_2 2.225149 1_555
B3_4 Rh5_6 2.225149 1_555
B3_4 Rh0_2 2.226876 1_555
B3_4 Rh0_6 2.226876 1_555
B3_4 Y0_4 3.174376 1_555
B3_4 Y0_6 3.174986 1_555
B3_4 La0_5 3.183300 1_555
B3_5 Rh3_1 2.224839 1_555
B3_5 Rh3_5 2.224839 1_555
B3_5 Rh5_7 2.225149 1_555
B3_5 Rh5_3 2.225149 1_555
B3_5 Rh0_3 2.226876 1_555
B3_5 Rh0_7 2.226876 1_555
B3_5 Y0_5 3.174376 1_555
B3_5 Y0_7 3.174986 1_555
B3_5 La0_4 3.183300 1_556
B3_6 Rh3_2 2.224839 1_555
B3_6 Rh3_6 2.224839 1_555
B3_6 Rh5_0 2.225149 1_565
B3_6 Rh5_4 2.225149 1_565
B3_6 Rh0_0 2.226876 1_565
B3_6 Rh0_4 2.226876 1_565
B3_6 Y0_6 3.174376 1_555
B3_6 Y0_4 3.174986 1_565
B3_6 La0_7 3.183300 1_555
B3_7 Rh3_3 2.224839 1_555
B3_7 Rh3_7 2.224839 1_555
B3_7 Rh5_1 2.225149 1_565
B3_7 Rh5_5 2.225149 1_565
B3_7 Rh0_1 2.226876 1_565
B3_7 Rh0_5 2.226876 1_565
B3_7 Y0_7 3.174376 1_555
B3_7 Y0_5 3.174986 1_565
B3_7 La0_6 3.183300 1_556
Rh0_0 Y0_2 3.165022 1_545
Rh0_0 Y0_6 3.165022 1_545
Rh0_0 Y0_0 3.165079 1_555
Rh0_0 Y0_4 3.165079 1_555
Rh0_1 Y0_7 3.165022 1_545
Rh0_1 Y0_3 3.165022 1_545
Rh0_1 Y0_1 3.165079 1_555
Rh0_1 Y0_5 3.165079 1_555
Rh0_2 Y0_0 3.165022 1_555
Rh0_2 Y0_4 3.165022 1_555
Rh0_2 Y0_2 3.165079 1_555
Rh0_2 Y0_6 3.165079 1_555
Rh0_3 Y0_1 3.165022 1_555
Rh0_3 Y0_5 3.165022 1_555
Rh0_3 Y0_3 3.165079 1_555
Rh0_3 Y0_7 3.165079 1_555
Rh0_4 Y0_2 3.165022 1_645
Rh0_4 Y0_6 3.165022 1_545
Rh0_4 Y0_0 3.165079 1_655
Rh0_4 Y0_4 3.165079 1_555
Rh0_5 Y0_3 3.165022 1_645
Rh0_5 Y0_7 3.165022 1_545
Rh0_5 Y0_1 3.165079 1_655
Rh0_5 Y0_5 3.165079 1_555
Rh0_6 Y0_0 3.165022 1_655
Rh0_6 Y0_4 3.165022 1_555
Rh0_6 Y0_2 3.165079 1_655
Rh0_6 Y0_6 3.165079 1_555
Rh0_7 Y0_1 3.165022 1_655
Rh0_7 Y0_5 3.165022 1_555
Rh0_7 Y0_3 3.165079 1_655
Rh0_7 Y0_7 3.165079 1_555
Rh2_0 Y0_4 3.125778 1_555
Rh2_0 Y0_0 3.125778 1_555
Rh2_1 Y0_1 3.125778 1_555
Rh2_1 Y0_5 3.125778 1_555
Rh2_2 Y0_2 3.125778 1_555
Rh2_2 Y0_6 3.125778 1_555
Rh2_3 Y0_3 3.125778 1_555
Rh2_3 Y0_7 3.125778 1_555
Rh2_4 Y0_0 3.125778 1_655
Rh2_4 Y0_4 3.125778 1_555
Rh2_5 Y0_1 3.125778 1_655
Rh2_5 Y0_5 3.125778 1_555
Rh2_6 Y0_2 3.125778 1_655
Rh2_6 Y0_6 3.125778 1_555
Rh2_7 Y0_3 3.125778 1_655
Rh2_7 Y0_7 3.125778 1_555
Rh3_0 Y0_0 3.125715 1_555
Rh3_0 Y0_4 3.125715 1_555
Rh3_1 Y0_1 3.125715 1_555
Rh3_1 Y0_5 3.125715 1_555
Rh3_2 Y0_2 3.125715 1_555
Rh3_2 Y0_6 3.125715 1_555
Rh3_3 Y0_3 3.125715 1_555
Rh3_3 Y0_7 3.125715 1_555
Rh3_4 Y0_0 3.125715 1_655
Rh3_4 Y0_4 3.125715 1_555
Rh3_5 Y0_1 3.125715 1_655
Rh3_5 Y0_5 3.125715 1_555
Rh3_6 Y0_2 3.125715 1_655
Rh3_6 Y0_6 3.125715 1_555
Rh3_7 Y0_3 3.125715 1_655
Rh3_7 Y0_7 3.125715 1_555
Rh4_0 Y0_0 3.125715 1_555
Rh4_0 Y0_4 3.125715 1_555
Rh4_1 Y0_1 3.125715 1_555
Rh4_1 Y0_5 3.125715 1_555
Rh4_2 Y0_2 3.125715 1_555
Rh4_2 Y0_6 3.125715 1_555
Rh4_3 Y0_3 3.125715 1_555
Rh4_3 Y0_7 3.125715 1_555
Rh4_4 Y0_0 3.125715 1_655
Rh4_4 Y0_4 3.125715 1_555
Rh4_5 Y0_1 3.125715 1_655
Rh4_5 Y0_5 3.125715 1_555
Rh4_6 Y0_2 3.125715 1_655
Rh4_6 Y0_6 3.125715 1_555
Rh4_7 Y0_3 3.125715 1_655
Rh4_7 Y0_7 3.125715 1_555
Rh5_0 Y0_0 3.125778 1_555
Rh5_0 Y0_4 3.125778 1_555
Rh5_1 Y0_1 3.125778 1_555
Rh5_1 Y0_5 3.125778 1_555
Rh5_2 Y0_2 3.125778 1_555
Rh5_2 Y0_6 3.125778 1_555
Rh5_3 Y0_3 3.125778 1_555
Rh5_3 Y0_7 3.125778 1_555
Rh5_4 Y0_0 3.125778 1_655
Rh5_4 Y0_4 3.125778 1_555
Rh5_5 Y0_1 3.125778 1_655
Rh5_5 Y0_5 3.125778 1_555
Rh5_6 Y0_2 3.125778 1_655
Rh5_6 Y0_6 3.125778 1_555
Rh5_7 Y0_3 3.125778 1_655
Rh5_7 Y0_7 3.125778 1_555
