# generated using pymatgen
data_Li4Cu3F12
_symmetry_space_group_name_H-M   'P 1'
_cell_length_a   7.94290021
_cell_length_b   8.86741900
_cell_length_c   13.81111587
_cell_angle_alpha   90.00000000
_cell_angle_beta   88.95601184
_cell_angle_gamma   90.00000000
_symmetry_Int_Tables_number   1
_chemical_formula_structural   Li4Cu3F12
_chemical_formula_sum   'Li16 Cu12 F48'
_cell_volume   972.59718267
_cell_formula_units_Z   4
loop_
 _symmetry_equiv_pos_site_id
 _symmetry_equiv_pos_as_xyz
  1  'x, y, z'
loop_
 _atom_site_type_symbol
 _atom_site_label
 _atom_site_symmetry_multiplicity
 _atom_site_fract_x
 _atom_site_fract_y
 _atom_site_fract_z
 _atom_site_occupancy
  Li  Li0  1  0.07862700  0.80159700  0.33546900  1
  Li  Li1  1  0.07862700  0.69840300  0.83546900  1
  Li  Li2  1  0.28350300  0.12075900  0.40116000  1
  Li  Li3  1  0.28350300  0.37924100  0.90116000  1
  Li  Li4  1  0.38516300  0.33239100  0.16852200  1
  Li  Li5  1  0.38516300  0.16760900  0.66852200  1
  Li  Li6  1  0.46347300  0.49551200  0.40150600  1
  Li  Li7  1  0.53652700  0.99551200  0.09849400  1
  Li  Li8  1  0.46347300  0.00448800  0.90150600  1
  Li  Li9  1  0.53652700  0.50448800  0.59849400  1
  Li  Li10  1  0.61483700  0.83239100  0.33147800  1
  Li  Li11  1  0.61483700  0.66760900  0.83147800  1
  Li  Li12  1  0.71649700  0.62075900  0.09884000  1
  Li  Li13  1  0.71649700  0.87924100  0.59884000  1
  Li  Li14  1  0.92137300  0.30159700  0.16453100  1
  Li  Li15  1  0.92137300  0.19840300  0.66453100  1
  Cu  Cu0  1  0.06430700  0.65096100  0.13848300  1
  Cu  Cu1  1  0.06430700  0.84903900  0.63848300  1
  Cu  Cu2  1  0.15097800  0.16019700  0.04347500  1
  Cu  Cu3  1  0.15097800  0.33980300  0.54347500  1
  Cu  Cu4  1  0.39210900  0.66649700  0.18992400  1
  Cu  Cu5  1  0.39210900  0.83350300  0.68992400  1
  Cu  Cu6  1  0.60789100  0.16649700  0.31007600  1
  Cu  Cu7  1  0.60789100  0.33350300  0.81007600  1
  Cu  Cu8  1  0.84902100  0.66019700  0.45652500  1
  Cu  Cu9  1  0.84902100  0.83980300  0.95652500  1
  Cu  Cu10  1  0.93569300  0.15096100  0.36151700  1
  Cu  Cu11  1  0.93569300  0.34903900  0.86151700  1
  F  F0  1  0.07840000  0.66243500  0.44010600  1
  F  F1  1  0.10102200  0.29056600  0.40423600  1
  F  F2  1  0.08446100  0.99520700  0.39084800  1
  F  F3  1  0.07840000  0.83756500  0.94010600  1
  F  F4  1  0.10102200  0.20943400  0.90423600  1
  F  F5  1  0.08446100  0.50479300  0.89084800  1
  F  F6  1  0.15488000  0.19065800  0.18087500  1
  F  F7  1  0.21467000  0.51351100  0.20706200  1
  F  F8  1  0.19104300  0.80035500  0.21336300  1
  F  F9  1  0.15488000  0.30934200  0.68087500  1
  F  F10  1  0.21467000  0.98648900  0.70706200  1
  F  F11  1  0.19104300  0.69964500  0.71336300  1
  F  F12  1  0.29831700  0.32780600  0.03474400  1
  F  F13  1  0.29831700  0.17219400  0.53474400  1
  F  F14  1  0.33724800  0.03402700  0.02186100  1
  F  F15  1  0.31319700  0.67345300  0.06163900  1
  F  F16  1  0.33724800  0.46597300  0.52186100  1
  F  F17  1  0.31319700  0.82654700  0.56163900  1
  F  F18  1  0.45504400  0.00826700  0.33907600  1
  F  F19  1  0.43441000  0.31109900  0.32982500  1
  F  F20  1  0.45504400  0.49173300  0.83907600  1
  F  F21  1  0.44715200  0.66986700  0.32429500  1
  F  F22  1  0.43441000  0.18890100  0.82982500  1
  F  F23  1  0.44715200  0.83013300  0.82429500  1
  F  F24  1  0.55284800  0.16986700  0.17570500  1
  F  F25  1  0.56559000  0.81109900  0.17017500  1
  F  F26  1  0.55284800  0.33013300  0.67570500  1
  F  F27  1  0.54495600  0.50826700  0.16092400  1
  F  F28  1  0.56559000  0.68890100  0.67017500  1
  F  F29  1  0.54495600  0.99173300  0.66092400  1
  F  F30  1  0.68680300  0.17345300  0.43836100  1
  F  F31  1  0.66275200  0.53402700  0.47813900  1
  F  F32  1  0.68680300  0.32654700  0.93836100  1
  F  F33  1  0.66275200  0.96597300  0.97813900  1
  F  F34  1  0.70168300  0.82780600  0.46525600  1
  F  F35  1  0.70168300  0.67219400  0.96525600  1
  F  F36  1  0.80895700  0.30035500  0.28663700  1
  F  F37  1  0.78533000  0.01351100  0.29293800  1
  F  F38  1  0.84512000  0.69065800  0.31912500  1
  F  F39  1  0.80895700  0.19964500  0.78663700  1
  F  F40  1  0.78533000  0.48648900  0.79293800  1
  F  F41  1  0.84512000  0.80934200  0.81912500  1
  F  F42  1  0.91553900  0.49520700  0.10915200  1
  F  F43  1  0.89897800  0.79056600  0.09576400  1
  F  F44  1  0.92160000  0.16243500  0.05989400  1
  F  F45  1  0.91553900  0.00479300  0.60915200  1
  F  F46  1  0.89897800  0.70943400  0.59576400  1
  F  F47  1  0.92160000  0.33756500  0.55989400  1
loop_
_geom_bond_atom_site_label_1
_geom_bond_atom_site_label_2
_geom_bond_distance
_geom_bond_site_symmetry_2
Cu0 F42 1.866916 1_455
Cu0 F43 1.906118 1_455
Cu0 F7 1.962206 1_555
Cu0 F8 1.968689 1_555
Cu0 F15 2.235588 1_555
Cu1 F45 1.866916 1_465
Cu1 F46 1.906118 1_455
Cu1 F10 1.962206 1_555
Cu1 F11 1.968689 1_555
Cu1 F17 2.235588 1_555
Cu2 F44 1.831987 1_455
Cu2 F14 1.874494 1_555
Cu2 F12 1.894192 1_555
Cu2 F6 1.917584 1_555
Cu2 F4 2.018411 1_554
Cu3 F47 1.831987 1_455
Cu3 F16 1.874494 1_555
Cu3 F13 1.894192 1_555
Cu3 F9 1.917584 1_555
Cu3 F1 2.018411 1_555
Cu4 F15 1.891102 1_555
Cu4 F27 1.893483 1_555
Cu4 F25 1.898310 1_555
Cu4 F21 1.914588 1_555
Cu4 F7 1.967374 1_555
Cu4 F8 2.011324 1_555
Cu5 F17 1.891102 1_555
Cu5 F29 1.893483 1_555
Cu5 F28 1.898310 1_555
Cu5 F23 1.914588 1_555
Cu5 F10 1.967374 1_555
Cu5 F11 2.011324 1_555
Cu6 F30 1.891102 1_555
Cu6 F18 1.893483 1_555
Cu6 F19 1.898310 1_555
Cu6 F24 1.914588 1_555
Cu6 F37 1.967374 1_555
Cu6 F36 2.011324 1_555
Cu7 F32 1.891102 1_555
Cu7 F20 1.893483 1_555
Cu7 F22 1.898310 1_555
Cu7 F26 1.914588 1_555
Cu7 F40 1.967374 1_555
Cu7 F39 2.011324 1_555
Cu8 F0 1.831995 1_655
Cu8 F31 1.874487 1_555
Cu8 F34 1.894187 1_555
Cu8 F38 1.917584 1_555
Cu8 F46 2.018413 1_555
Cu9 F3 1.831995 1_655
Cu9 F33 1.874487 1_555
Cu9 F35 1.894187 1_555
Cu9 F41 1.917584 1_555
Cu9 F43 2.018413 1_556
Cu10 F2 1.866916 1_645
Cu10 F1 1.906118 1_655
Cu10 F37 1.962206 1_555
Cu10 F36 1.968689 1_555
Cu10 F30 2.235588 1_555
Cu11 F5 1.866916 1_655
Cu11 F4 1.906118 1_655
Cu11 F40 1.962206 1_555
Cu11 F39 1.968689 1_555
Cu11 F32 2.235588 1_555
F0 Li0 1.900303 1_555
F1 Li2 2.089901 1_555
F2 Li0 1.880399 1_555
F2 Li2 1.940990 1_565
F3 Li1 1.900303 1_555
F4 Li3 2.089901 1_555
F5 Li1 1.880399 1_555
F5 Li3 1.940990 1_555
F6 Li14 2.115173 1_455
F6 Li4 2.223276 1_555
F7 Li4 2.161108 1_555
F8 Li0 1.893819 1_555
F9 Li15 2.115173 1_455
F9 Li5 2.223276 1_555
F10 Li5 2.161108 1_565
F11 Li1 1.893819 1_555
F12 Li3 1.906200 1_554
F12 Li4 1.984350 1_555
F13 Li2 1.906200 1_555
F13 Li5 1.984350 1_555
F14 Li8 1.943220 1_554
F14 Li7 1.950204 1_545
F16 Li6 1.943220 1_555
F16 Li9 1.950204 1_555
F18 Li2 1.882598 1_555
F18 Li10 2.012293 1_545
F19 Li6 1.927642 1_555
F19 Li4 2.276706 1_555
F19 Li2 2.283223 1_555
F20 Li3 1.882598 1_555
F20 Li11 2.012293 1_555
F21 Li6 1.883971 1_555
F21 Li10 1.966112 1_555
F22 Li8 1.927642 1_555
F22 Li5 2.276706 1_555
F22 Li3 2.283223 1_555
F23 Li8 1.883971 1_565
F23 Li11 1.966112 1_555
F24 Li7 1.883971 1_545
F24 Li4 1.966112 1_555
F25 Li7 1.927642 1_555
F25 Li10 2.276706 1_555
F25 Li12 2.283223 1_555
F26 Li9 1.883971 1_555
F26 Li5 1.966112 1_555
F27 Li12 1.882598 1_555
F27 Li4 2.012293 1_555
F28 Li9 1.927642 1_555
F28 Li11 2.276706 1_555
F28 Li13 2.283223 1_555
F29 Li13 1.882598 1_555
F29 Li5 2.012293 1_565
F31 Li9 1.943220 1_555
F31 Li6 1.950204 1_555
F33 Li7 1.943220 1_556
F33 Li8 1.950204 1_565
F34 Li13 1.906200 1_555
F34 Li10 1.984350 1_555
F35 Li12 1.906200 1_556
F35 Li11 1.984350 1_555
F36 Li14 1.893819 1_555
F37 Li10 2.161108 1_545
F38 Li0 2.115173 1_655
F38 Li10 2.223276 1_555
F39 Li15 1.893819 1_555
F40 Li11 2.161108 1_555
F41 Li1 2.115173 1_655
F41 Li11 2.223276 1_555
F42 Li14 1.880399 1_555
F42 Li12 1.940990 1_555
F43 Li12 2.089901 1_555
F44 Li14 1.900303 1_555
F45 Li15 1.880399 1_555
F45 Li13 1.940990 1_545
F46 Li13 2.089901 1_555
F47 Li15 1.900303 1_555
