# generated using pymatgen
data_Gd4Cu5P7
_symmetry_space_group_name_H-M   'P 1'
_cell_length_a   10.52173240
_cell_length_b   10.52173240
_cell_length_c   10.52173240
_cell_angle_alpha   150.96121539
_cell_angle_beta   150.96121539
_cell_angle_gamma   41.53224779
_symmetry_Int_Tables_number   1
_chemical_formula_structural   Gd4Cu5P7
_chemical_formula_sum   'Gd4 Cu5 P7'
_cell_volume   273.83254979
_cell_formula_units_Z   1
loop_
 _symmetry_equiv_pos_site_id
 _symmetry_equiv_pos_as_xyz
  1  'x, y, z'
loop_
 _atom_site_type_symbol
 _atom_site_label
 _atom_site_symmetry_multiplicity
 _atom_site_fract_x
 _atom_site_fract_y
 _atom_site_fract_z
 _atom_site_occupancy
  Gd  Gd0  1  0.62627700  0.13858700  0.00000000  1
  Gd  Gd1  1  0.13858700  0.62627700  0.00000000  1
  Gd  Gd2  1  0.37372300  0.37372300  0.51230900  1
  Gd  Gd3  1  0.86141300  0.86141300  0.48769100  1
  Cu  Cu0  1  0.74971800  0.74971800  0.00000000  1
  Cu  Cu1  1  0.25028200  0.25028200  0.00000000  1
  Cu  Cu2  1  0.25000000  0.75000000  0.50000000  1
  Cu  Cu3  1  0.75000000  0.25000000  0.50000000  1
  Cu  Cu4  1  0.00000000  0.00000000  0.00000000  1
  P  P0  1  0.41980500  0.92599200  0.00000000  1
  P  P1  1  0.92599200  0.41980500  0.00000000  1
  P  P2  1  0.58019500  0.58019500  0.50618700  1
  P  P3  1  0.07400800  0.07400800  0.49381300  1
  P  P4  1  0.50000000  0.50000000  0.00000000  1
  P  P5  1  0.50000000  0.00000000  0.50000000  1
  P  P6  1  0.00000000  0.50000000  0.50000000  1
loop_
_geom_bond_atom_site_label_1
_geom_bond_atom_site_label_2
_geom_bond_distance
_geom_bond_site_symmetry_2
Gd0 P2 2.839210 1_555
Gd0 P3 2.839210 1_554
Gd0 P2 2.869066 1_544
Gd0 P3 2.869066 1_655
Gd0 P4 2.943028 1_555
Gd0 P6 2.971991 1_655
Gd0 P5 2.971991 1_554
Gd1 P2 2.839210 1_555
Gd1 P3 2.839210 1_554
Gd1 P2 2.869066 1_454
Gd1 P3 2.869066 1_565
Gd1 P4 2.943028 1_555
Gd1 P6 2.971991 1_554
Gd1 P5 2.971991 1_565
Gd2 P0 2.839208 1_556
Gd2 P1 2.839208 1_556
Gd2 P1 2.869059 1_455
Gd2 P0 2.869059 1_545
Gd2 P4 2.943038 1_556
Gd2 P6 2.971999 1_555
Gd2 P5 2.971999 1_555
Gd3 P1 2.839216 1_555
Gd3 P0 2.839216 1_555
Gd3 P0 2.869067 1_656
Gd3 P1 2.869067 1_566
Gd3 P4 2.943023 1_555
Gd3 P5 2.971983 1_565
Gd3 P6 2.971983 1_655
Cu0 P3 2.389985 1_665
Cu0 P2 2.389985 1_554
Cu0 P1 2.418794 1_555
Cu0 P0 2.418794 1_555
Cu1 P0 2.389985 1_545
Cu1 P1 2.389985 1_455
Cu1 P3 2.418794 1_554
Cu1 P2 2.418794 1_555
Cu2 P3 2.404426 1_565
Cu2 P0 2.404426 1_556
Cu2 P2 2.404426 1_555
Cu2 P1 2.404426 1_455
Cu3 P3 2.404426 1_655
Cu3 P2 2.404426 1_555
Cu3 P1 2.404426 1_556
Cu3 P0 2.404426 1_545
Cu4 P6 2.637879 1_544
Cu4 P6 2.637879 1_555
Cu4 P5 2.637879 1_555
Cu4 P5 2.637879 1_454
Cu4 Gd3 3.000664 1_444
Cu4 Gd1 3.000674 1_545
Cu4 Gd0 3.000674 1_455
Cu4 Gd2 3.000680 1_555
P4 P6 2.637879 1_655
P4 P5 2.637879 1_554
P4 P6 2.637879 1_554
P4 P5 2.637879 1_565
