# generated using pymatgen
data_Ba8Y3Lu(CuO2)16
_symmetry_space_group_name_H-M   'P 1'
_cell_length_a   3.88752719
_cell_length_b   3.89032547
_cell_length_c   54.99096732
_cell_angle_alpha   90.00000000
_cell_angle_beta   90.00000000
_cell_angle_gamma   90.00000000
_symmetry_Int_Tables_number   1
_chemical_formula_structural   Ba8Y3Lu(CuO2)16
_chemical_formula_sum   'Ba8 Y3 Lu1 Cu16 O32'
_cell_volume   831.66942438
_cell_formula_units_Z   1
loop_
 _symmetry_equiv_pos_site_id
 _symmetry_equiv_pos_as_xyz
  1  'x, y, z'
loop_
 _atom_site_type_symbol
 _atom_site_label
 _atom_site_symmetry_multiplicity
 _atom_site_fract_x
 _atom_site_fract_y
 _atom_site_fract_z
 _atom_site_occupancy
  Ba  Ba0  1  0.50000000  0.50000000  0.06761593  1
  Ba  Ba1  1  0.50000000  -0.00000000  0.31782664  1
  Ba  Ba2  1  0.50000000  0.50000000  0.56779593  1
  Ba  Ba3  1  0.50000000  0.00000000  0.81777248  1
  Ba  Ba4  1  0.50000000  0.00000000  0.18222752  1
  Ba  Ba5  1  0.50000000  0.50000000  0.43220407  1
  Ba  Ba6  1  0.50000000  0.00000000  0.68217336  1
  Ba  Ba7  1  0.50000000  0.50000000  0.93238407  1
  Y  Y0  1  0.50000000  0.00000000  0.25001704  1
  Y  Y1  1  0.50000000  0.50000000  0.50000000  1
  Y  Y2  1  0.50000000  0.00000000  0.74998296  1
  Lu  Lu0  1  0.50000000  0.50000000  -0.00000000  1
  Cu  Cu0  1  0.00000000  0.00000000  0.03022364  1
  Cu  Cu1  1  0.00000000  0.50000000  0.28077864  1
  Cu  Cu2  1  -0.00000000  -0.00000000  0.53075927  1
  Cu  Cu3  1  0.00000000  0.50000000  0.78074890  1
  Cu  Cu4  1  -0.00000000  0.50000000  0.21925110  1
  Cu  Cu5  1  0.00000000  0.00000000  0.46924073  1
  Cu  Cu6  1  0.00000000  0.50000000  0.71922136  1
  Cu  Cu7  1  -0.00000000  -0.00000000  0.96977636  1
  Cu  Cu8  1  -0.00000000  -0.00000000  0.10614345  1
  Cu  Cu9  1  -0.00000000  0.50000000  0.35619503  1
  Cu  Cu10  1  0.00000000  0.00000000  0.60619285  1
  Cu  Cu11  1  -0.00000000  0.50000000  0.85620516  1
  Cu  Cu12  1  -0.00000000  0.50000000  0.14379484  1
  Cu  Cu13  1  0.00000000  -0.00000000  0.39380715  1
  Cu  Cu14  1  0.00000000  0.50000000  0.64380497  1
  Cu  Cu15  1  -0.00000000  0.00000000  0.89385655  1
  O  O0  1  0.00000000  0.50000000  0.10927015  1
  O  O1  1  -0.00000000  0.00000000  0.35931359  1
  O  O2  1  -0.00000000  0.50000000  0.60932285  1
  O  O3  1  0.00000000  0.00000000  0.85935171  1
  O  O4  1  0.00000000  0.00000000  0.14064829  1
  O  O5  1  0.00000000  0.50000000  0.39067715  1
  O  O6  1  0.00000000  0.00000000  0.64068641  1
  O  O7  1  0.00000000  0.50000000  0.89072985  1
  O  O8  1  0.00000000  -0.00000000  0.07245495  1
  O  O9  1  -0.00000000  0.50000000  0.32258738  1
  O  O10  1  0.00000000  -0.00000000  0.57259403  1
  O  O11  1  -0.00000000  0.50000000  0.82259450  1
  O  O12  1  -0.00000000  0.50000000  0.17740550  1
  O  O13  1  0.00000000  0.00000000  0.42740597  1
  O  O14  1  -0.00000000  0.50000000  0.67741262  1
  O  O15  1  0.00000000  -0.00000000  0.92754505  1
  O  O16  1  0.50000000  0.00000000  0.02516711  1
  O  O17  1  0.50000000  0.50000000  0.27619606  1
  O  O18  1  0.50000000  0.00000000  0.52619328  1
  O  O19  1  0.50000000  0.50000000  0.77619470  1
  O  O20  1  0.50000000  0.50000000  0.22380530  1
  O  O21  1  0.50000000  -0.00000000  0.47380672  1
  O  O22  1  0.50000000  0.50000000  0.72380394  1
  O  O23  1  0.50000000  -0.00000000  0.97483289  1
  O  O24  1  0.00000000  0.50000000  0.02501200  1
  O  O25  1  -0.00000000  0.00000000  0.27603559  1
  O  O26  1  0.00000000  0.50000000  0.52603300  1
  O  O27  1  -0.00000000  -0.00000000  0.77603207  1
  O  O28  1  -0.00000000  0.00000000  0.22396793  1
  O  O29  1  -0.00000000  0.50000000  0.47396700  1
  O  O30  1  -0.00000000  0.00000000  0.72396441  1
  O  O31  1  0.00000000  0.50000000  0.97498800  1
loop_
_geom_bond_atom_site_label_1
_geom_bond_atom_site_label_2
_geom_bond_distance
_geom_bond_site_symmetry_2
Ba0 O8 2.762732 1_665
Ba0 O8 2.762732 1_555
Ba0 O8 2.762732 1_565
Ba0 O8 2.762732 1_655
Ba0 O0 3.004179 1_655
Ba0 O0 3.004179 1_555
Ba0 O16 3.038523 1_555
Ba0 O16 3.038523 1_565
Ba0 O24 3.044187 1_655
Ba0 O24 3.044187 1_555
Ba1 O9 2.762320 1_545
Ba1 O9 2.762320 1_555
Ba1 O9 2.762320 1_645
Ba1 O9 2.762320 1_655
Ba1 O1 2.997172 1_655
Ba1 O1 2.997172 1_555
Ba1 O17 3.004094 1_545
Ba1 O17 3.004094 1_555
Ba1 O25 3.009920 1_655
Ba1 O25 3.009920 1_555
Ba2 O10 2.762516 1_565
Ba2 O10 2.762516 1_655
Ba2 O10 2.762516 1_665
Ba2 O10 2.762516 1_555
Ba2 O2 2.998845 1_555
Ba2 O2 2.998845 1_655
Ba2 O18 3.002923 1_555
Ba2 O18 3.002923 1_565
Ba2 O26 3.008740 1_555
Ba2 O26 3.008740 1_655
Ba3 O11 2.762642 1_545
Ba3 O11 2.762642 1_645
Ba3 O11 2.762642 1_655
Ba3 O11 2.762642 1_555
Ba3 O3 3.001036 1_655
Ba3 O3 3.001036 1_555
Ba3 O19 3.001882 1_555
Ba3 O19 3.001882 1_545
Ba3 O27 3.007795 1_655
Ba3 O27 3.007795 1_555
Ba4 O12 2.762642 1_655
Ba4 O12 2.762642 1_545
Ba4 O12 2.762642 1_645
Ba4 O12 2.762642 1_555
Ba4 O4 3.001036 1_555
Ba4 O4 3.001036 1_655
Ba4 O20 3.001882 1_545
Ba4 O20 3.001882 1_555
Ba4 O28 3.007795 1_555
Ba4 O28 3.007795 1_655
Ba5 O13 2.762516 1_655
Ba5 O13 2.762516 1_665
Ba5 O13 2.762516 1_565
Ba5 O13 2.762516 1_555
Ba5 O5 2.998845 1_655
Ba5 O5 2.998845 1_555
Ba5 O21 3.002923 1_555
Ba5 O21 3.002923 1_565
Ba5 O29 3.008740 1_555
Ba5 O29 3.008740 1_655
Ba6 O14 2.762320 1_545
Ba6 O14 2.762320 1_645
Ba6 O14 2.762320 1_555
Ba6 O14 2.762320 1_655
Ba6 O6 2.997172 1_655
Ba6 O6 2.997172 1_555
Ba6 O22 3.004094 1_545
Ba6 O22 3.004094 1_555
Ba6 O30 3.009920 1_555
Ba6 O30 3.009920 1_655
Ba7 O15 2.762732 1_665
Ba7 O15 2.762732 1_555
Ba7 O15 2.762732 1_565
Ba7 O15 2.762732 1_655
Ba7 O7 3.004179 1_655
Ba7 O7 3.004179 1_555
Ba7 O23 3.038523 1_555
Ba7 O23 3.038523 1_565
Ba7 O31 3.044187 1_555
Ba7 O31 3.044187 1_655
Lu0 O24 2.381184 1_655
Lu0 O24 2.381184 1_555
Lu0 O31 2.381184 1_654
Lu0 O31 2.381184 1_554
Lu0 O23 2.387261 1_554
Lu0 O23 2.387261 1_564
Lu0 O16 2.387261 1_565
Lu0 O16 2.387261 1_555
Cu0 O16 1.963552 1_555
Cu0 O16 1.963552 1_455
Cu0 O24 1.966162 1_555
Cu0 O24 1.966162 1_545
Cu0 O8 2.322341 1_555
Cu1 O17 1.960031 1_555
Cu1 O17 1.960031 1_455
Cu1 O25 1.962572 1_565
Cu1 O25 1.962572 1_555
Cu1 O9 2.299103 1_555
Cu2 O18 1.959914 1_555
Cu2 O18 1.959914 1_455
Cu2 O26 1.962449 1_555
Cu2 O26 1.962449 1_545
Cu2 O10 2.300534 1_555
Cu3 O19 1.959831 1_455
Cu3 O19 1.959831 1_555
Cu3 O27 1.962381 1_565
Cu3 O27 1.962381 1_555
Cu3 O11 2.301130 1_555
Cu4 O20 1.959831 1_455
Cu4 O20 1.959831 1_555
Cu4 O28 1.962381 1_565
Cu4 O28 1.962381 1_555
Cu4 O12 2.301130 1_555
Cu5 O21 1.959914 1_555
Cu5 O21 1.959914 1_455
Cu5 O29 1.962449 1_545
Cu5 O29 1.962449 1_555
Cu5 O13 2.300534 1_555
Cu6 O22 1.960031 1_455
Cu6 O22 1.960031 1_555
Cu6 O30 1.962572 1_555
Cu6 O30 1.962572 1_565
Cu6 O14 2.299103 1_555
Cu7 O23 1.963552 1_455
Cu7 O23 1.963552 1_555
Cu7 O31 1.966162 1_555
Cu7 O31 1.966162 1_545
Cu7 O15 2.322341 1_555
Cu8 O8 1.852563 1_555
Cu8 O4 1.897455 1_555
Cu8 O0 1.952747 1_545
Cu8 O0 1.952747 1_555
Cu9 O9 1.848117 1_555
Cu9 O5 1.896205 1_555
Cu9 O1 1.952708 1_555
Cu9 O1 1.952708 1_565
Cu10 O10 1.847632 1_555
Cu10 O6 1.896834 1_555
Cu10 O2 1.952763 1_545
Cu10 O2 1.952763 1_555
Cu11 O11 1.848283 1_555
Cu11 O7 1.898546 1_555
Cu11 O3 1.952844 1_555
Cu11 O3 1.952844 1_565
Cu12 O12 1.848283 1_555
Cu12 O0 1.898546 1_555
Cu12 O4 1.952844 1_555
Cu12 O4 1.952844 1_565
Cu13 O13 1.847632 1_555
Cu13 O1 1.896834 1_555
Cu13 O5 1.952763 1_555
Cu13 O5 1.952763 1_545
Cu14 O14 1.848117 1_555
Cu14 O2 1.896205 1_555
Cu14 O6 1.952708 1_555
Cu14 O6 1.952708 1_565
Cu15 O15 1.852563 1_555
Cu15 O3 1.897455 1_555
Cu15 O7 1.952747 1_545
Cu15 O7 1.952747 1_555
O17 Y0 2.419945 1_555
O17 Y0 2.419945 1_565
O18 Y1 2.420412 1_545
O18 Y1 2.420412 1_555
O19 Y2 2.421016 1_555
O19 Y2 2.421016 1_565
O20 Y0 2.421016 1_555
O20 Y0 2.421016 1_565
O21 Y1 2.420412 1_545
O21 Y1 2.420412 1_555
O22 Y2 2.419945 1_555
O22 Y2 2.419945 1_565
O25 Y0 2.413579 1_455
O25 Y0 2.413579 1_555
O26 Y1 2.414050 1_555
O26 Y1 2.414050 1_455
O27 Y2 2.414576 1_455
O27 Y2 2.414576 1_555
O28 Y0 2.414576 1_555
O28 Y0 2.414576 1_455
O29 Y1 2.414050 1_555
O29 Y1 2.414050 1_455
O30 Y2 2.413579 1_455
O30 Y2 2.413579 1_555
