# generated using pymatgen
data_LaAlO3
_symmetry_space_group_name_H-M   'P 1'
_cell_length_a   5.36096830
_cell_length_b   5.36096830
_cell_length_c   5.36096830
_cell_angle_alpha   120.16865661
_cell_angle_beta   120.16865661
_cell_angle_gamma   89.70812557
_symmetry_Int_Tables_number   1
_chemical_formula_structural   LaAlO3
_chemical_formula_sum   'La2 Al2 O6'
_cell_volume   108.66760027
_cell_formula_units_Z   2
loop_
 _symmetry_equiv_pos_site_id
 _symmetry_equiv_pos_as_xyz
  1  'x, y, z'
loop_
 _atom_site_type_symbol
 _atom_site_label
 _atom_site_symmetry_multiplicity
 _atom_site_fract_x
 _atom_site_fract_y
 _atom_site_fract_z
 _atom_site_occupancy
  La  La0  1  0.75000000  0.25000000  0.50000000  1
  La  La1  1  0.25000000  0.75000000  0.50000000  1
  Al  Al0  1  -0.00000000  0.00000000  -0.00000000  1
  Al  Al1  1  0.50000000  0.50000000  -0.00000000  1
  O  O0  1  0.77653860  0.27653860  0.05307619  1
  O  O1  1  0.22346140  0.72346140  0.94692381  1
  O  O2  1  0.27653860  0.22346140  0.50000000  1
  O  O3  1  0.72346140  0.77653860  0.50000000  1
  O  O4  1  0.75000000  0.75000000  -0.00000000  1
  O  O5  1  0.25000000  0.25000000  -0.00000000  1
loop_
_geom_bond_atom_site_label_1
_geom_bond_atom_site_label_2
_geom_bond_distance
_geom_bond_site_symmetry_2
La0 O1 2.542919 1_655
La0 O3 2.542919 1_545
La0 O2 2.542919 1_555
La0 O0 2.542925 1_555
La0 O4 2.673648 1_556
La0 O5 2.673648 1_555
La0 O4 2.673648 1_545
La0 O5 2.673648 1_656
La0 O0 2.825611 1_556
La0 O1 2.825616 1_544
La0 O2 2.825616 1_655
La0 O3 2.825616 1_555
La1 O0 2.542919 1_455
La1 O2 2.542919 1_565
La1 O3 2.542919 1_555
La1 O1 2.542925 1_555
La1 O4 2.673648 1_556
La1 O5 2.673648 1_555
La1 O5 2.673648 1_566
La1 O4 2.673648 1_455
La1 O1 2.825611 1_554
La1 O0 2.825616 1_566
La1 O3 2.825616 1_455
La1 O2 2.825616 1_555
Al0 O4 1.900210 1_445
Al0 O5 1.900210 1_555
Al0 O0 1.901177 1_455
Al0 O1 1.901177 1_544
Al0 O2 1.901177 1_555
Al0 O3 1.901177 1_444
Al1 O4 1.900210 1_555
Al1 O5 1.900210 1_555
Al1 O1 1.901177 1_554
Al1 O0 1.901177 1_555
Al1 O2 1.901177 1_554
Al1 O3 1.901177 1_555
