# generated using pymatgen
data_Mg6Si5
_symmetry_space_group_name_H-M   'P 1'
_cell_length_a   5.32318900
_cell_length_b   6.75064642
_cell_length_c   11.55874439
_cell_angle_alpha   88.60617434
_cell_angle_beta   89.68398975
_cell_angle_gamma   85.13141960
_symmetry_Int_Tables_number   1
_chemical_formula_structural   Mg6Si5
_chemical_formula_sum   'Mg12 Si10'
_cell_volume   413.73952136
_cell_formula_units_Z   2
loop_
 _symmetry_equiv_pos_site_id
 _symmetry_equiv_pos_as_xyz
  1  'x, y, z'
loop_
 _atom_site_type_symbol
 _atom_site_label
 _atom_site_symmetry_multiplicity
 _atom_site_fract_x
 _atom_site_fract_y
 _atom_site_fract_z
 _atom_site_occupancy
  Mg  Mg0  1  0.05294200  0.63483300  0.89493600  1
  Mg  Mg1  1  0.78410700  0.19003200  0.54764600  1
  Mg  Mg2  1  0.98096200  0.68824800  0.60762700  1
  Mg  Mg3  1  0.27315500  0.98455300  0.41667100  1
  Mg  Mg4  1  0.00121000  0.77424700  0.16641700  1
  Mg  Mg5  1  0.57054200  0.49748300  0.76007000  1
  Mg  Mg6  1  0.37352000  0.94509800  0.69539200  1
  Mg  Mg7  1  0.07494700  0.48693400  0.36696700  1
  Mg  Mg8  1  0.67372200  0.44268800  0.07493000  1
  Mg  Mg9  1  0.52772500  0.81698400  0.95585800  1
  Mg  Mg10  1  0.00444900  0.09340200  0.98015900  1
  Mg  Mg11  1  0.47446100  0.06123900  0.16964600  1
  Si  Si0  1  0.77957400  0.85952900  0.39552000  1
  Si  Si1  1  0.50173800  0.62744100  0.52836600  1
  Si  Si2  1  0.47712100  0.20186100  0.90925200  1
  Si  Si3  1  0.96085200  0.16181700  0.22709000  1
  Si  Si4  1  0.60463700  0.32956100  0.33559600  1
  Si  Si5  1  0.27752100  0.31240200  0.56952500  1
  Si  Si6  1  0.08209000  0.30453600  0.75919200  1
  Si  Si7  1  0.50988500  0.67388500  0.26422600  1
  Si  Si8  1  0.17549000  0.40576100  0.10380500  1
  Si  Si9  1  0.84282900  0.00379500  0.76759700  1
loop_
_geom_bond_atom_site_label_1
_geom_bond_atom_site_label_2
_geom_bond_distance
_geom_bond_site_symmetry_2
Mg0 Si6 2.750702 1_555
Mg0 Si8 2.882715 1_556
Mg0 Si9 2.998015 1_465
Mg1 Si4 2.751041 1_555
Mg1 Si5 2.764564 1_555
Mg1 Si9 2.815752 1_555
Mg1 Si5 2.833872 1_655
Mg1 Si0 2.875902 1_545
Mg1 Si6 3.071722 1_655
Mg1 Si1 3.200982 1_555
Mg2 Si1 2.781594 1_555
Mg2 Si0 2.859657 1_555
Mg2 Si9 2.899646 1_565
Mg2 Si1 2.913760 1_655
Mg2 Si5 2.913810 1_655
Mg2 Si6 3.101866 1_655
Mg3 Si0 2.766913 1_555
Mg3 Si0 2.840596 1_455
Mg3 Si5 2.867012 1_565
Mg3 Si1 2.885664 1_555
Mg3 Si3 2.927885 1_465
Mg3 Si7 2.966122 1_555
Mg3 Si4 3.160591 1_565
Mg4 Si8 2.694559 1_555
Mg4 Si3 2.715778 1_465
Mg4 Si0 2.942867 1_455
Mg4 Si7 2.958767 1_555
Mg4 Si7 2.967904 1_455
Mg5 Si2 2.682326 1_555
Mg5 Si1 2.813995 1_555
Mg5 Si6 2.917197 1_655
Mg5 Si6 3.005509 1_555
Mg5 Si5 3.057358 1_555
Mg6 Si9 2.702181 1_565
Mg6 Si5 2.853685 1_565
Mg6 Si6 2.876381 1_565
Mg6 Si9 2.938382 1_465
Mg6 Si1 2.954649 1_555
Mg6 Si2 3.131264 1_565
Mg7 Si5 2.776821 1_555
Mg7 Si4 2.829856 1_455
Mg7 Si3 2.865235 1_455
Mg7 Si0 2.875938 1_455
Mg7 Si4 2.951184 1_555
Mg7 Si7 2.959085 1_555
Mg7 Si8 3.138910 1_555
Mg7 Si1 3.168615 1_555
Mg8 Si8 2.683389 1_655
Mg8 Si8 2.702965 1_555
Mg8 Si2 2.804993 1_554
Mg8 Si7 2.810335 1_555
Mg8 Si3 2.898276 1_555
Mg8 Si4 3.117685 1_555
Mg9 Si2 2.632101 1_565
Mg9 Si9 3.053591 1_565
Mg10 Si9 2.706777 1_455
Mg10 Si2 2.792748 1_555
Mg10 Si8 2.793692 1_556
Mg10 Si3 2.907287 1_456
Mg10 Si6 2.938869 1_555
Mg10 Si2 2.955462 1_455
Mg11 Si8 2.796437 1_555
Mg11 Si4 2.799517 1_555
Mg11 Si7 2.801403 1_545
Mg11 Si3 2.818663 1_555
Mg11 Si3 2.839655 1_455
Mg11 Si2 3.134203 1_554
Si0 Si7 2.521220 1_555
Si0 Si1 2.692794 1_555
Si1 Si5 2.559140 1_555
Si2 Si6 2.764986 1_555
Si2 Si9 2.808555 1_555
Si3 Si4 2.475732 1_555
Si3 Si8 2.497049 1_655
Si4 Si7 2.459700 1_555
Si5 Si6 2.422781 1_555
Si6 Si9 2.486205 1_455
