# generated using pymatgen
data_Dy2Ge3
_symmetry_space_group_name_H-M   'P 1'
_cell_length_a   4.40806451
_cell_length_b   4.40806451
_cell_length_c   7.04263300
_cell_angle_alpha   90.00000000
_cell_angle_beta   90.00000000
_cell_angle_gamma   120.00000773
_symmetry_Int_Tables_number   1
_chemical_formula_structural   Dy2Ge3
_chemical_formula_sum   'Dy2 Ge3'
_cell_volume   118.51178499
_cell_formula_units_Z   1
loop_
 _symmetry_equiv_pos_site_id
 _symmetry_equiv_pos_as_xyz
  1  'x, y, z'
loop_
 _atom_site_type_symbol
 _atom_site_label
 _atom_site_symmetry_multiplicity
 _atom_site_fract_x
 _atom_site_fract_y
 _atom_site_fract_z
 _atom_site_occupancy
  Dy  Dy0  1  0.00000000  0.00000000  0.73023000  1
  Dy  Dy1  1  0.00000000  0.00000000  0.26977000  1
  Ge  Ge0  1  0.33333300  0.66666700  0.00000000  1
  Ge  Ge1  1  0.66666700  0.33333300  0.50000000  1
  Ge  Ge2  1  0.66666700  0.33333300  0.00000000  1
loop_
_geom_bond_atom_site_label_1
_geom_bond_atom_site_label_2
_geom_bond_distance
_geom_bond_site_symmetry_2
Dy0 Ge1 3.017618 1_455
Dy0 Ge1 3.017621 1_555
Dy0 Ge1 3.017621 1_445
Dy0 Ge2 3.175938 1_456
Dy0 Ge0 3.175938 1_546
Dy0 Ge0 3.175941 1_446
Dy0 Ge2 3.175941 1_556
Dy0 Ge2 3.175941 1_446
Dy0 Ge0 3.175941 1_556
Dy1 Ge1 3.017618 1_455
Dy1 Ge1 3.017621 1_555
Dy1 Ge1 3.017621 1_445
Dy1 Ge2 3.175938 1_455
Dy1 Ge0 3.175938 1_545
Dy1 Ge0 3.175941 1_445
Dy1 Ge2 3.175941 1_445
Dy1 Ge0 3.175941 1_555
Dy1 Ge2 3.175941 1_555
Ge0 Ge2 2.544994 1_455
Ge0 Ge2 2.544994 1_565
Ge0 Ge2 2.545002 1_555
