# generated using pymatgen
data_CaLaFeWO6
_symmetry_space_group_name_H-M   'P 1'
_cell_length_a   5.61682870
_cell_length_b   8.00098889
_cell_length_c   5.80025014
_cell_angle_alpha   89.80916813
_cell_angle_beta   91.52265997
_cell_angle_gamma   89.27214746
_symmetry_Int_Tables_number   1
_chemical_formula_structural   CaLaFeWO6
_chemical_formula_sum   'Ca2 La2 Fe2 W2 O12'
_cell_volume   260.54948723
_cell_formula_units_Z   2
loop_
 _symmetry_equiv_pos_site_id
 _symmetry_equiv_pos_as_xyz
  1  'x, y, z'
loop_
 _atom_site_type_symbol
 _atom_site_label
 _atom_site_symmetry_multiplicity
 _atom_site_fract_x
 _atom_site_fract_y
 _atom_site_fract_z
 _atom_site_occupancy
  Ca  Ca0  1  0.52583300  0.25176200  0.55316200  1
  Ca  Ca1  1  0.01799900  0.75278800  0.94720200  1
  La  La0  1  0.98408300  0.24677400  0.04758700  1
  La  La1  1  0.47473600  0.74765800  0.45078700  1
  Fe  Fe0  1  0.49900700  0.50028500  0.00078400  1
  Fe  Fe1  1  0.99731800  0.00047400  0.50028600  1
  W  W0  1  0.99959500  0.49877600  0.50294900  1
  W  W1  1  0.50098900  0.99841700  0.99690700  1
  O  O0  1  0.60591500  0.76640300  0.03102100  1
  O  O1  1  0.10730100  0.26711300  0.47012900  1
  O  O2  1  0.21216500  0.94942200  0.19274600  1
  O  O3  1  0.70496400  0.44923000  0.29969300  1
  O  O4  1  0.19174900  0.56150400  0.21893300  1
  O  O5  1  0.70048100  0.05886300  0.28812400  1
  O  O6  1  0.89862500  0.73318000  0.53661900  1
  O  O7  1  0.40194500  0.23352800  0.96258300  1
  O  O8  1  0.29171400  0.55173400  0.70805400  1
  O  O9  1  0.78658500  0.05098300  0.79953600  1
  O  O10  1  0.29576500  0.94179500  0.71012700  1
  O  O11  1  0.80323100  0.43931200  0.78277100  1
loop_
_geom_bond_atom_site_label_1
_geom_bond_atom_site_label_2
_geom_bond_distance
_geom_bond_site_symmetry_2
Ca0 O1 2.388620 1_555
Ca0 O5 2.401054 1_555
Ca0 O3 2.402813 1_555
Ca0 O7 2.496598 1_555
Ca0 O11 2.532888 1_555
Ca0 O9 2.565444 1_555
Ca0 O8 2.879878 1_555
Ca0 O10 2.962825 1_545
Ca1 O4 2.375520 1_556
Ca1 O0 2.378944 1_456
Ca1 O2 2.380952 1_556
Ca1 O6 2.462916 1_455
Ca1 O10 2.602303 1_555
Ca1 O8 2.634537 1_555
Ca1 O9 2.822028 1_465
Ca1 O11 2.947394 1_455
La0 O11 2.371889 1_554
La0 O9 2.393519 1_554
La0 O7 2.412165 1_654
La0 O1 2.535254 1_655
La0 O5 2.628574 1_555
La0 O3 2.700581 1_555
La0 O2 2.803956 1_645
La0 O4 2.952805 1_655
La1 O10 2.396292 1_555
La1 O8 2.418202 1_555
La1 O6 2.420667 1_555
La1 O4 2.552106 1_555
La1 O0 2.566923 1_555
La1 O2 2.612912 1_555
La1 O3 2.852580 1_555
La1 O5 2.970841 1_565
Fe0 O8 2.070291 1_554
Fe0 O3 2.094678 1_555
Fe0 O11 2.203339 1_554
Fe0 O4 2.217677 1_555
Fe0 O7 2.219894 1_554
Fe0 O0 2.225811 1_555
Fe1 O10 2.092764 1_645
Fe1 O5 2.092792 1_555
Fe1 O9 2.163051 1_555
Fe1 O2 2.216262 1_645
Fe1 O6 2.226817 1_545
Fe1 O1 2.236124 1_655
O0 W1 1.948346 1_554
O1 W0 1.953916 1_455
O2 W1 2.046185 1_554
O3 W0 2.049829 1_555
O4 W0 2.057504 1_455
O5 W1 2.064275 1_544
O6 W0 1.964293 1_555
O7 W1 1.962847 1_545
O8 W0 2.050434 1_455
O9 W1 2.042612 1_545
O10 W1 2.053594 1_555
O11 W0 2.044606 1_555
