# generated using pymatgen
data_CsHCO3
_symmetry_space_group_name_H-M   'P 1'
_cell_length_a   4.78310340
_cell_length_b   8.40554180
_cell_length_c   11.26524000
_cell_angle_alpha   90.00000000
_cell_angle_beta   90.00000000
_cell_angle_gamma   110.85160772
_symmetry_Int_Tables_number   1
_chemical_formula_structural   CsHCO3
_chemical_formula_sum   'Cs4 H4 C4 O12'
_cell_volume   423.25077841
_cell_formula_units_Z   4
loop_
 _symmetry_equiv_pos_site_id
 _symmetry_equiv_pos_as_xyz
  1  'x, y, z'
loop_
 _atom_site_type_symbol
 _atom_site_label
 _atom_site_symmetry_multiplicity
 _atom_site_fract_x
 _atom_site_fract_y
 _atom_site_fract_z
 _atom_site_occupancy
  Cs  Cs0  1  0.65370500  0.08517500  0.82421100  1
  Cs  Cs1  1  0.15370500  0.58517500  0.67578900  1
  Cs  Cs2  1  0.34629500  0.91482500  0.17578900  1
  Cs  Cs3  1  0.84629500  0.41482500  0.32421100  1
  H  H0  1  0.50025400  0.49706400  0.90266300  1
  H  H1  1  0.00025400  0.99706400  0.59733700  1
  H  H2  1  0.49974600  0.50293600  0.09733700  1
  H  H3  1  0.99974600  0.00293600  0.40266300  1
  C  C0  1  0.86213100  0.69084900  0.95243000  1
  C  C1  1  0.36213100  0.19084900  0.54757000  1
  C  C2  1  0.13786900  0.30915100  0.04757000  1
  C  C3  1  0.63786900  0.80915100  0.45243000  1
  O  O0  1  0.09587400  0.80800400  0.91708500  1
  O  O1  1  0.59587400  0.30800400  0.58291500  1
  O  O2  1  0.90412600  0.19199600  0.08291500  1
  O  O3  1  0.40412600  0.69199600  0.41708500  1
  O  O4  1  0.78288900  0.65625400  0.06106500  1
  O  O5  1  0.28288900  0.15625400  0.43893500  1
  O  O6  1  0.21711100  0.34374600  0.93893500  1
  O  O7  1  0.71711100  0.84374600  0.56106500  1
  O  O8  1  0.67809100  0.59324700  0.86571500  1
  O  O9  1  0.17809100  0.09324700  0.63428500  1
  O  O10  1  0.32190900  0.40675300  0.13428500  1
  O  O11  1  0.82190900  0.90675300  0.36571500  1
loop_
_geom_bond_atom_site_label_1
_geom_bond_atom_site_label_2
_geom_bond_distance
_geom_bond_site_symmetry_2
Cs0 O0 3.035830 1_545
Cs0 O6 3.080029 1_655
Cs0 O9 3.141247 1_555
Cs0 O2 3.157338 1_556
Cs0 H1 3.271407 1_645
Cs0 O9 3.279056 1_655
Cs0 O1 3.367846 1_555
Cs0 O7 3.665519 1_545
Cs0 O6 3.739795 1_555
Cs0 O0 3.808307 1_645
Cs1 O1 3.035830 1_455
Cs1 O7 3.080029 1_555
Cs1 O8 3.141247 1_455
Cs1 O3 3.157338 1_555
Cs1 H0 3.271407 1_555
Cs1 O8 3.279056 1_555
Cs1 O0 3.367846 1_555
Cs1 O6 3.665519 1_555
Cs1 O7 3.739795 1_455
Cs1 O1 3.808307 1_555
Cs2 O2 3.035830 1_565
Cs2 O4 3.080029 1_455
Cs2 O11 3.141247 1_555
Cs2 O0 3.157338 1_554
Cs2 H3 3.271407 1_465
Cs2 O11 3.279056 1_455
Cs2 O3 3.367846 1_555
Cs2 O5 3.665519 1_565
Cs2 O4 3.739795 1_555
Cs2 O2 3.808307 1_465
Cs3 O3 3.035830 1_655
Cs3 O5 3.080029 1_555
Cs3 O10 3.141247 1_655
Cs3 O1 3.157338 1_555
Cs3 H2 3.271407 1_555
Cs3 O10 3.279056 1_555
Cs3 O2 3.367846 1_555
Cs3 O4 3.665519 1_555
Cs3 O5 3.739795 1_655
Cs3 O3 3.808307 1_555
H0 O8 1.029973 1_555
H0 O6 1.555446 1_555
H1 O9 1.029973 1_565
H1 O7 1.555446 1_455
H2 O10 1.029973 1_555
H2 O4 1.555446 1_555
H3 O11 1.029973 1_545
H3 O5 1.555446 1_655
C0 O0 1.262719 1_655
C0 O4 1.283526 1_556
C0 O8 1.374080 1_555
C1 O1 1.262719 1_555
C1 O5 1.283526 1_555
C1 O9 1.374080 1_555
C2 O2 1.262719 1_455
C2 O6 1.283526 1_554
C2 O10 1.374080 1_555
C3 O3 1.262719 1_555
C3 O7 1.283526 1_555
C3 O11 1.374080 1_555
