# generated using pymatgen
data_KCe2FeO6
_symmetry_space_group_name_H-M   'P 1'
_cell_length_a   5.99404200
_cell_length_b   8.44588900
_cell_length_c   11.55808700
_cell_angle_alpha   90.00000000
_cell_angle_beta   90.00000000
_cell_angle_gamma   90.00000000
_symmetry_Int_Tables_number   1
_chemical_formula_structural   KCe2FeO6
_chemical_formula_sum   'K4 Ce8 Fe4 O24'
_cell_volume   585.12830918
_cell_formula_units_Z   4
loop_
 _symmetry_equiv_pos_site_id
 _symmetry_equiv_pos_as_xyz
  1  'x, y, z'
loop_
 _atom_site_type_symbol
 _atom_site_label
 _atom_site_symmetry_multiplicity
 _atom_site_fract_x
 _atom_site_fract_y
 _atom_site_fract_z
 _atom_site_occupancy
  K  K0  1  0.25000000  0.01923200  0.37094600  1
  K  K1  1  0.25000000  0.48076800  0.87094600  1
  K  K2  1  0.75000000  0.98076800  0.62905400  1
  K  K3  1  0.75000000  0.51923200  0.12905400  1
  Ce  Ce0  1  0.25000000  0.28544300  0.14054000  1
  Ce  Ce1  1  0.25000000  0.21455700  0.64054000  1
  Ce  Ce2  1  0.75000000  0.71455700  0.85946000  1
  Ce  Ce3  1  0.75000000  0.78544300  0.35946000  1
  Ce  Ce4  1  0.25000000  0.99629900  0.88228300  1
  Ce  Ce5  1  0.25000000  0.50370100  0.38228300  1
  Ce  Ce6  1  0.75000000  0.00370100  0.11771700  1
  Ce  Ce7  1  0.75000000  0.49629900  0.61771700  1
  Fe  Fe0  1  0.25000000  0.76407500  0.10616200  1
  Fe  Fe1  1  0.25000000  0.73592500  0.60616200  1
  Fe  Fe2  1  0.75000000  0.23592500  0.89383800  1
  Fe  Fe3  1  0.75000000  0.26407500  0.39383800  1
  O  O0  1  0.96676800  0.26320600  0.03082600  1
  O  O1  1  0.53323200  0.23679400  0.53082600  1
  O  O2  1  0.46676800  0.73679400  0.96917400  1
  O  O3  1  0.03323200  0.76320600  0.46917400  1
  O  O4  1  0.03323200  0.73679400  0.96917400  1
  O  O5  1  0.46676800  0.76320600  0.46917400  1
  O  O6  1  0.53323200  0.26320600  0.03082600  1
  O  O7  1  0.96676800  0.23679400  0.53082600  1
  O  O8  1  0.25000000  0.00897100  0.06871600  1
  O  O9  1  0.25000000  0.49102900  0.56871600  1
  O  O10  1  0.75000000  0.99102900  0.93128400  1
  O  O11  1  0.75000000  0.50897100  0.43128400  1
  O  O12  1  0.02384900  0.17492100  0.79847000  1
  O  O13  1  0.47615100  0.32507900  0.29847000  1
  O  O14  1  0.52384900  0.82507900  0.20153000  1
  O  O15  1  0.97615100  0.67492100  0.70153000  1
  O  O16  1  0.97615100  0.82507900  0.20153000  1
  O  O17  1  0.52384900  0.67492100  0.70153000  1
  O  O18  1  0.47615100  0.17492100  0.79847000  1
  O  O19  1  0.02384900  0.32507900  0.29847000  1
  O  O20  1  0.25000000  0.94841100  0.67715400  1
  O  O21  1  0.25000000  0.55158900  0.17715400  1
  O  O22  1  0.75000000  0.05158900  0.32284600  1
  O  O23  1  0.75000000  0.44841100  0.82284600  1
loop_
_geom_bond_atom_site_label_1
_geom_bond_atom_site_label_2
_geom_bond_distance
_geom_bond_site_symmetry_2
K0 O5 2.766410 1_545
K0 O3 2.766410 1_545
K0 O13 3.035114 1_555
K0 O19 3.035114 1_555
K0 O16 3.036047 1_445
K0 O14 3.036047 1_545
K0 O22 3.060375 1_555
K0 O22 3.060375 1_455
K0 O1 3.110206 1_555
K0 O7 3.110206 1_455
K1 O2 2.766410 1_555
K1 O4 2.766410 1_555
K1 O18 3.035114 1_555
K1 O12 3.035114 1_555
K1 O17 3.036047 1_555
K1 O15 3.036047 1_455
K1 O23 3.060375 1_455
K1 O23 3.060375 1_555
K1 O6 3.110206 1_556
K1 O0 3.110206 1_456
K2 O7 2.766410 1_565
K2 O1 2.766410 1_565
K2 O15 3.035114 1_555
K2 O17 3.035114 1_555
K2 O18 3.036047 1_565
K2 O12 3.036047 1_665
K2 O20 3.060375 1_655
K2 O20 3.060375 1_555
K2 O3 3.110206 1_655
K2 O5 3.110206 1_555
K3 O0 2.766410 1_555
K3 O6 2.766410 1_555
K3 O14 3.035114 1_555
K3 O16 3.035114 1_555
K3 O13 3.036047 1_555
K3 O19 3.036047 1_655
K3 O21 3.060375 1_655
K3 O21 3.060375 1_555
K3 O4 3.110206 1_654
K3 O2 3.110206 1_554
Ce0 O6 2.127325 1_555
Ce0 O0 2.127325 1_455
Ce0 O21 2.287328 1_555
Ce0 O13 2.298168 1_555
Ce0 O19 2.298168 1_555
Ce0 O8 2.478228 1_555
Ce1 O1 2.127325 1_555
Ce1 O7 2.127325 1_455
Ce1 O20 2.287328 1_545
Ce1 O18 2.298168 1_555
Ce1 O12 2.298168 1_555
Ce1 O9 2.478228 1_555
Ce2 O4 2.127325 1_655
Ce2 O2 2.127325 1_555
Ce2 O23 2.287328 1_555
Ce2 O17 2.298168 1_555
Ce2 O15 2.298168 1_555
Ce2 O10 2.478228 1_555
Ce3 O3 2.127325 1_655
Ce3 O5 2.127325 1_555
Ce3 O22 2.287328 1_565
Ce3 O14 2.298168 1_555
Ce3 O16 2.298168 1_555
Ce3 O11 2.478228 1_555
Ce4 O8 2.157465 1_566
Ce4 O12 2.247642 1_565
Ce4 O18 2.247642 1_565
Ce4 O20 2.405150 1_555
Ce4 O2 2.738722 1_555
Ce4 O4 2.738722 1_555
Ce5 O9 2.157465 1_555
Ce5 O19 2.247642 1_555
Ce5 O13 2.247642 1_555
Ce5 O21 2.405150 1_555
Ce5 O5 2.738722 1_555
Ce5 O3 2.738722 1_555
Ce6 O10 2.157465 1_544
Ce6 O16 2.247642 1_545
Ce6 O14 2.247642 1_545
Ce6 O22 2.405150 1_555
Ce6 O0 2.738722 1_555
Ce6 O6 2.738722 1_555
Ce7 O11 2.157465 1_555
Ce7 O15 2.247642 1_555
Ce7 O17 2.247642 1_555
Ce7 O23 2.405150 1_555
Ce7 O7 2.738722 1_555
Ce7 O1 2.738722 1_555
Fe0 O21 1.973317 1_555
Fe0 O14 2.043249 1_555
Fe0 O16 2.043249 1_455
Fe0 O2 2.061119 1_554
Fe0 O4 2.061119 1_554
Fe0 O8 2.113161 1_565
Fe1 O20 1.973317 1_555
Fe1 O17 2.043249 1_555
Fe1 O15 2.043249 1_455
Fe1 O5 2.061119 1_555
Fe1 O3 2.061119 1_555
Fe1 O9 2.113161 1_555
Fe2 O23 1.973317 1_555
Fe2 O18 2.043249 1_555
Fe2 O12 2.043249 1_655
Fe2 O0 2.061119 1_556
Fe2 O6 2.061119 1_556
Fe2 O10 2.113161 1_545
Fe3 O22 1.973317 1_555
Fe3 O13 2.043249 1_555
Fe3 O19 2.043249 1_655
Fe3 O7 2.061119 1_555
Fe3 O1 2.061119 1_555
Fe3 O11 2.113161 1_555
