# generated using pymatgen
data_MoPdRuRh
_symmetry_space_group_name_H-M   'P 1'
_cell_length_a   5.55870051
_cell_length_b   5.55870051
_cell_length_c   17.83463800
_cell_angle_alpha   90.00000000
_cell_angle_beta   90.00000000
_cell_angle_gamma   120.00000606
_symmetry_Int_Tables_number   1
_chemical_formula_structural   MoPdRuRh
_chemical_formula_sum   'Mo8 Pd8 Ru8 Rh8'
_cell_volume   477.24507514
_cell_formula_units_Z   8
loop_
 _symmetry_equiv_pos_site_id
 _symmetry_equiv_pos_as_xyz
  1  'x, y, z'
loop_
 _atom_site_type_symbol
 _atom_site_label
 _atom_site_symmetry_multiplicity
 _atom_site_fract_x
 _atom_site_fract_y
 _atom_site_fract_z
 _atom_site_occupancy
  Mo  Mo0_0  1  0.33333350  0.16666650  0.31151450  1
  Mo  Mo0_1  1  0.33333350  0.16666650  0.81151450  1
  Mo  Mo0_2  1  0.33333350  0.66666650  0.31151450  1
  Mo  Mo0_3  1  0.33333350  0.66666650  0.81151450  1
  Mo  Mo0_4  1  0.83333350  0.16666650  0.31151450  1
  Mo  Mo0_5  1  0.83333350  0.16666650  0.81151450  1
  Mo  Mo0_6  1  0.83333350  0.66666650  0.31151450  1
  Mo  Mo0_7  1  0.83333350  0.66666650  0.81151450  1
  Pd  Pd0_0  1  0.33333350  0.16666650  0.06371650  1
  Pd  Pd0_1  1  0.33333350  0.16666650  0.56371650  1
  Pd  Pd0_2  1  0.33333350  0.66666650  0.06371650  1
  Pd  Pd0_3  1  0.33333350  0.66666650  0.56371650  1
  Pd  Pd0_4  1  0.83333350  0.16666650  0.06371650  1
  Pd  Pd0_5  1  0.83333350  0.16666650  0.56371650  1
  Pd  Pd0_6  1  0.83333350  0.66666650  0.06371650  1
  Pd  Pd0_7  1  0.83333350  0.66666650  0.56371650  1
  Ru  Ru0_0  1  0.00000000  0.00000000  0.19194850  1
  Ru  Ru0_1  1  0.00000000  0.00000000  0.69194850  1
  Ru  Ru0_2  1  0.00000000  0.50000000  0.19194850  1
  Ru  Ru0_3  1  0.00000000  0.50000000  0.69194850  1
  Ru  Ru0_4  1  0.50000000  0.00000000  0.19194850  1
  Ru  Ru0_5  1  0.50000000  0.00000000  0.69194850  1
  Ru  Ru0_6  1  0.50000000  0.50000000  0.19194850  1
  Ru  Ru0_7  1  0.50000000  0.50000000  0.69194850  1
  Rh  Rh0_0  1  0.00000000  0.00000000  0.43282050  1
  Rh  Rh0_1  1  0.00000000  0.00000000  0.93282050  1
  Rh  Rh0_2  1  0.00000000  0.50000000  0.43282050  1
  Rh  Rh0_3  1  0.00000000  0.50000000  0.93282050  1
  Rh  Rh0_4  1  0.50000000  0.00000000  0.43282050  1
  Rh  Rh0_5  1  0.50000000  0.00000000  0.93282050  1
  Rh  Rh0_6  1  0.50000000  0.50000000  0.43282050  1
  Rh  Rh0_7  1  0.50000000  0.50000000  0.93282050  1
loop_
_geom_bond_atom_site_label_1
_geom_bond_atom_site_label_2
_geom_bond_distance
_geom_bond_site_symmetry_2
Mo0_0 Ru0_4 2.668731 1_555
Mo0_0 Ru0_6 2.668732 1_555
Mo0_0 Ru0_0 2.668732 1_555
Mo0_0 Rh0_4 2.693591 1_555
Mo0_0 Rh0_0 2.693593 1_555
Mo0_0 Rh0_6 2.693593 1_555
Mo0_0 Mo0_6 2.779350 1_555
Mo0_0 Mo0_6 2.779350 1_445
Mo0_0 Mo0_4 2.779350 1_455
Mo0_0 Mo0_2 2.779350 1_545
Mo0_0 Mo0_2 2.779350 1_555
Mo0_0 Mo0_4 2.779350 1_555
Mo0_1 Ru0_5 2.668731 1_555
Mo0_1 Ru0_1 2.668732 1_555
Mo0_1 Ru0_7 2.668732 1_555
Mo0_1 Rh0_5 2.693591 1_555
Mo0_1 Rh0_1 2.693593 1_555
Mo0_1 Rh0_7 2.693593 1_555
Mo0_1 Mo0_7 2.779350 1_555
Mo0_1 Mo0_7 2.779350 1_445
Mo0_1 Mo0_3 2.779350 1_545
Mo0_1 Mo0_5 2.779350 1_455
Mo0_1 Mo0_5 2.779350 1_555
Mo0_1 Mo0_3 2.779350 1_555
Mo0_2 Ru0_6 2.668731 1_555
Mo0_2 Ru0_4 2.668732 1_565
Mo0_2 Ru0_2 2.668732 1_555
Mo0_2 Rh0_6 2.693591 1_555
Mo0_2 Rh0_2 2.693593 1_555
Mo0_2 Rh0_4 2.693593 1_565
Mo0_2 Mo0_4 2.779350 1_565
Mo0_2 Mo0_4 2.779350 1_455
Mo0_2 Mo0_6 2.779350 1_555
Mo0_2 Mo0_6 2.779350 1_455
Mo0_3 Ru0_7 2.668731 1_555
Mo0_3 Ru0_3 2.668732 1_555
Mo0_3 Ru0_5 2.668732 1_565
Mo0_3 Rh0_7 2.693591 1_555
Mo0_3 Rh0_5 2.693593 1_565
Mo0_3 Rh0_3 2.693593 1_555
Mo0_3 Mo0_5 2.779350 1_455
Mo0_3 Mo0_5 2.779350 1_565
Mo0_3 Mo0_7 2.779350 1_555
Mo0_3 Mo0_7 2.779350 1_455
Mo0_4 Ru0_0 2.668731 1_655
Mo0_4 Ru0_4 2.668732 1_555
Mo0_4 Ru0_2 2.668732 1_655
Mo0_4 Rh0_0 2.693591 1_655
Mo0_4 Rh0_2 2.693593 1_655
Mo0_4 Rh0_4 2.693593 1_555
Mo0_4 Mo0_6 2.779350 1_545
Mo0_4 Mo0_6 2.779350 1_555
Mo0_5 Ru0_1 2.668731 1_655
Mo0_5 Ru0_3 2.668732 1_655
Mo0_5 Ru0_5 2.668732 1_555
Mo0_5 Rh0_1 2.693591 1_655
Mo0_5 Rh0_3 2.693593 1_655
Mo0_5 Rh0_5 2.693593 1_555
Mo0_5 Mo0_7 2.779350 1_545
Mo0_5 Mo0_7 2.779350 1_555
Mo0_6 Ru0_2 2.668731 1_655
Mo0_6 Ru0_6 2.668732 1_555
Mo0_6 Ru0_0 2.668732 1_665
Mo0_6 Rh0_2 2.693591 1_655
Mo0_6 Rh0_6 2.693593 1_555
Mo0_6 Rh0_0 2.693593 1_665
Mo0_7 Ru0_3 2.668731 1_655
Mo0_7 Ru0_7 2.668732 1_555
Mo0_7 Ru0_1 2.668732 1_665
Mo0_7 Rh0_3 2.693591 1_655
Mo0_7 Rh0_7 2.693593 1_555
Mo0_7 Rh0_1 2.693593 1_665
Pd0_0 Pd0_6 2.779350 1_555
Pd0_0 Pd0_6 2.779350 1_445
Pd0_0 Pd0_2 2.779350 1_545
Pd0_0 Pd0_4 2.779350 1_455
Pd0_0 Pd0_4 2.779350 1_555
Pd0_0 Pd0_2 2.779350 1_555
Pd0_0 Ru0_4 2.793772 1_555
Pd0_0 Ru0_6 2.793773 1_555
Pd0_0 Ru0_0 2.793773 1_555
Pd0_0 Rh0_5 2.832796 1_554
Pd0_0 Rh0_1 2.832797 1_554
Pd0_0 Rh0_7 2.832797 1_554
Pd0_1 Pd0_7 2.779350 1_555
Pd0_1 Pd0_7 2.779350 1_445
Pd0_1 Pd0_5 2.779350 1_455
Pd0_1 Pd0_3 2.779350 1_545
Pd0_1 Pd0_5 2.779350 1_555
Pd0_1 Pd0_3 2.779350 1_555
Pd0_1 Ru0_5 2.793772 1_555
Pd0_1 Ru0_7 2.793773 1_555
Pd0_1 Ru0_1 2.793773 1_555
Pd0_1 Rh0_4 2.832796 1_555
Pd0_1 Rh0_0 2.832797 1_555
Pd0_1 Rh0_6 2.832797 1_555
Pd0_2 Pd0_4 2.779350 1_565
Pd0_2 Pd0_4 2.779350 1_455
Pd0_2 Pd0_6 2.779350 1_555
Pd0_2 Pd0_6 2.779350 1_455
Pd0_2 Ru0_6 2.793772 1_555
Pd0_2 Ru0_4 2.793773 1_565
Pd0_2 Ru0_2 2.793773 1_555
Pd0_2 Rh0_7 2.832796 1_554
Pd0_2 Rh0_3 2.832797 1_554
Pd0_2 Rh0_5 2.832797 1_564
Pd0_3 Pd0_5 2.779350 1_565
Pd0_3 Pd0_5 2.779350 1_455
Pd0_3 Pd0_7 2.779350 1_555
Pd0_3 Pd0_7 2.779350 1_455
Pd0_3 Ru0_7 2.793772 1_555
Pd0_3 Ru0_5 2.793773 1_565
Pd0_3 Ru0_3 2.793773 1_555
Pd0_3 Rh0_6 2.832796 1_555
Pd0_3 Rh0_4 2.832797 1_565
Pd0_3 Rh0_2 2.832797 1_555
Pd0_4 Pd0_6 2.779350 1_545
Pd0_4 Pd0_6 2.779350 1_555
Pd0_4 Ru0_0 2.793772 1_655
Pd0_4 Ru0_2 2.793773 1_655
Pd0_4 Ru0_4 2.793773 1_555
Pd0_4 Rh0_1 2.832796 1_654
Pd0_4 Rh0_5 2.832797 1_554
Pd0_4 Rh0_3 2.832797 1_654
Pd0_5 Pd0_7 2.779350 1_545
Pd0_5 Pd0_7 2.779350 1_555
Pd0_5 Ru0_1 2.793772 1_655
Pd0_5 Ru0_3 2.793773 1_655
Pd0_5 Ru0_5 2.793773 1_555
Pd0_5 Rh0_0 2.832796 1_655
Pd0_5 Rh0_2 2.832797 1_655
Pd0_5 Rh0_4 2.832797 1_555
Pd0_6 Ru0_2 2.793772 1_655
Pd0_6 Ru0_6 2.793773 1_555
Pd0_6 Ru0_0 2.793773 1_665
Pd0_6 Rh0_3 2.832796 1_654
Pd0_6 Rh0_7 2.832797 1_554
Pd0_6 Rh0_1 2.832797 1_664
Pd0_7 Ru0_3 2.793772 1_655
Pd0_7 Ru0_7 2.793773 1_555
Pd0_7 Ru0_1 2.793773 1_665
Pd0_7 Rh0_2 2.832796 1_655
Pd0_7 Rh0_6 2.832797 1_555
Pd0_7 Rh0_0 2.832797 1_665
Ru0_0 Ru0_6 2.779350 1_445
Ru0_0 Ru0_6 2.779350 1_555
Ru0_0 Ru0_4 2.779350 1_455
Ru0_0 Ru0_4 2.779350 1_555
Ru0_0 Ru0_2 2.779350 1_545
Ru0_0 Ru0_2 2.779350 1_555
Ru0_1 Ru0_7 2.779350 1_555
Ru0_1 Ru0_7 2.779350 1_445
Ru0_1 Ru0_3 2.779350 1_555
Ru0_1 Ru0_3 2.779350 1_545
Ru0_1 Ru0_5 2.779350 1_455
Ru0_1 Ru0_5 2.779350 1_555
Ru0_2 Ru0_4 2.779350 1_565
Ru0_2 Ru0_4 2.779350 1_455
Ru0_2 Ru0_6 2.779350 1_555
Ru0_2 Ru0_6 2.779350 1_455
Ru0_3 Ru0_5 2.779350 1_455
Ru0_3 Ru0_5 2.779350 1_565
Ru0_3 Ru0_7 2.779350 1_555
Ru0_3 Ru0_7 2.779350 1_455
Ru0_4 Ru0_6 2.779350 1_545
Ru0_4 Ru0_6 2.779350 1_555
Ru0_5 Ru0_7 2.779350 1_545
Ru0_5 Ru0_7 2.779350 1_555
Rh0_0 Rh0_6 2.779350 1_445
Rh0_0 Rh0_6 2.779350 1_555
Rh0_0 Rh0_4 2.779350 1_555
Rh0_0 Rh0_2 2.779350 1_545
Rh0_0 Rh0_4 2.779350 1_455
Rh0_0 Rh0_2 2.779350 1_555
Rh0_1 Rh0_7 2.779350 1_445
Rh0_1 Rh0_7 2.779350 1_555
Rh0_1 Rh0_3 2.779350 1_545
Rh0_1 Rh0_5 2.779350 1_455
Rh0_1 Rh0_5 2.779350 1_555
Rh0_1 Rh0_3 2.779350 1_555
Rh0_2 Rh0_4 2.779350 1_565
Rh0_2 Rh0_4 2.779350 1_455
Rh0_2 Rh0_6 2.779350 1_555
Rh0_2 Rh0_6 2.779350 1_455
Rh0_3 Rh0_5 2.779350 1_455
Rh0_3 Rh0_5 2.779350 1_565
Rh0_3 Rh0_7 2.779350 1_555
Rh0_3 Rh0_7 2.779350 1_455
Rh0_4 Rh0_6 2.779350 1_555
Rh0_4 Rh0_6 2.779350 1_545
Rh0_5 Rh0_7 2.779350 1_555
Rh0_5 Rh0_7 2.779350 1_545
