# generated using pymatgen
data_Nb2CuSe4
_symmetry_space_group_name_H-M   'P 1'
_cell_length_a   3.53913541
_cell_length_b   3.53913541
_cell_length_c   13.90929100
_cell_angle_alpha   90.00000000
_cell_angle_beta   90.00000000
_cell_angle_gamma   119.99998894
_symmetry_Int_Tables_number   1
_chemical_formula_structural   Nb2CuSe4
_chemical_formula_sum   'Nb2 Cu1 Se4'
_cell_volume   150.87942894
_cell_formula_units_Z   1
loop_
 _symmetry_equiv_pos_site_id
 _symmetry_equiv_pos_as_xyz
  1  'x, y, z'
loop_
 _atom_site_type_symbol
 _atom_site_label
 _atom_site_symmetry_multiplicity
 _atom_site_fract_x
 _atom_site_fract_y
 _atom_site_fract_z
 _atom_site_occupancy
  Nb  Nb0  1  0.00000000  0.00000000  0.25372100  1
  Nb  Nb1  1  0.66666700  0.33333300  0.74894000  1
  Cu  Cu0  1  0.00000000  0.00000000  0.03658400  1
  Se  Se0  1  0.00000000  0.00000000  0.63212500  1
  Se  Se1  1  0.66666700  0.33333300  0.37167800  1
  Se  Se2  1  0.66666700  0.33333300  0.13231800  1
  Se  Se3  1  0.00000000  0.00000000  0.86863500  1
loop_
_geom_bond_atom_site_label_1
_geom_bond_atom_site_label_2
_geom_bond_distance
_geom_bond_site_symmetry_2
Nb0 Se1 2.620504 1_455
Nb0 Se1 2.620507 1_445
Nb0 Se1 2.620507 1_555
Nb0 Se2 2.650777 1_455
Nb0 Se2 2.650780 1_445
Nb0 Se2 2.650780 1_555
Nb1 Se0 2.610588 1_655
Nb1 Se0 2.610591 1_665
Nb1 Se0 2.610591 1_555
Nb1 Se3 2.635707 1_655
Nb1 Se3 2.635710 1_555
Nb1 Se3 2.635710 1_665
Cu0 Se3 2.336052 1_554
Cu0 Se2 2.438911 1_455
Cu0 Se2 2.438914 1_445
Cu0 Se2 2.438914 1_555
