# generated using pymatgen
data_Li20Si3P3S23Cl
_symmetry_space_group_name_H-M   'P 1'
_cell_length_a   8.77198900
_cell_length_b   8.89822300
_cell_length_c   12.79265385
_cell_angle_alpha   89.84328648
_cell_angle_beta   90.00000000
_cell_angle_gamma   90.00000000
_symmetry_Int_Tables_number   1
_chemical_formula_structural   Li20Si3P3S23Cl
_chemical_formula_sum   'Li20 Si3 P3 S23 Cl1'
_cell_volume   998.52832321
_cell_formula_units_Z   1
loop_
 _symmetry_equiv_pos_site_id
 _symmetry_equiv_pos_as_xyz
  1  'x, y, z'
loop_
 _atom_site_type_symbol
 _atom_site_label
 _atom_site_symmetry_multiplicity
 _atom_site_fract_x
 _atom_site_fract_y
 _atom_site_fract_z
 _atom_site_occupancy
  Li  Li0  1  0.23769500  0.75687900  0.30965100  1
  Li  Li1  1  0.78163400  0.15757100  0.26092500  1
  Li  Li2  1  0.81933100  0.77358200  0.76648200  1
  Li  Li3  1  0.22149800  0.25973600  0.77230300  1
  Li  Li4  1  0.76230500  0.75687900  0.30965100  1
  Li  Li5  1  0.21836600  0.15757100  0.26092500  1
  Li  Li6  1  0.18066900  0.77358200  0.76648200  1
  Li  Li7  1  0.77850200  0.25973600  0.77230300  1
  Li  Li8  1  0.50000000  0.99856400  0.93692500  1
  Li  Li9  1  0.50000000  0.99966500  0.44133000  1
  Li  Li10  1  0.00000000  0.50833900  0.58058000  1
  Li  Li11  1  0.00000000  0.48801400  0.05624400  1
  Li  Li12  1  0.74014700  0.73866000  0.00757800  1
  Li  Li13  1  0.26263200  0.26159300  0.01083300  1
  Li  Li14  1  0.23971200  0.75118900  0.53478000  1
  Li  Li15  1  0.75655800  0.25176000  0.51154500  1
  Li  Li16  1  0.76028800  0.75118900  0.53478000  1
  Li  Li17  1  0.24344200  0.25176000  0.51154500  1
  Li  Li18  1  0.25985300  0.73866000  0.00757800  1
  Li  Li19  1  0.73736800  0.26159300  0.01083300  1
  Si  Si0  1  0.00000000  0.50575800  0.81708700  1
  Si  Si1  1  0.00000000  0.48916800  0.33495000  1
  Si  Si2  1  0.00000000  0.00506600  0.51311700  1
  P  P0  1  0.50000000  0.00428700  0.68773000  1
  P  P1  1  0.50000000  0.99722200  0.18398300  1
  P  P2  1  0.50000000  0.50483800  0.00470800  1
  S  S0  1  0.79977200  0.99096300  0.41681500  1
  S  S1  1  0.20022800  0.99096300  0.41681500  1
  S  S2  1  0.50000000  0.69415900  0.91267100  1
  S  S3  1  0.50000000  0.31438800  0.91172800  1
  S  S4  1  0.30839700  0.49963400  0.09782500  1
  S  S5  1  0.69160300  0.49963400  0.09782500  1
  S  S6  1  0.00000000  0.81400500  0.61414000  1
  S  S7  1  0.00000000  0.20746100  0.59915300  1
  S  S8  1  0.69851500  0.00086600  0.09407900  1
  S  S9  1  0.30148500  0.00086600  0.09407900  1
  S  S10  1  0.50000000  0.81069100  0.60003900  1
  S  S11  1  0.50000000  0.19610900  0.59611600  1
  S  S12  1  0.20371400  0.51677100  0.41941500  1
  S  S13  1  0.79628600  0.51677100  0.41941500  1
  S  S14  1  0.00000000  0.70588600  0.91681700  1
  S  S15  1  0.00000000  0.29992500  0.90981500  1
  S  S16  1  0.31239600  0.00682200  0.78453100  1
  S  S17  1  0.68760400  0.00682200  0.78453100  1
  S  S18  1  0.50000000  0.18498500  0.27448100  1
  S  S19  1  0.50000000  0.80234700  0.26854400  1
  S  S20  1  0.79973000  0.51367800  0.72444200  1
  S  S21  1  0.20027000  0.51367800  0.72444200  1
  S  S22  1  0.00000000  0.31518100  0.22475000  1
  Cl  Cl0  1  0.00000000  0.69453500  0.22710200  1
loop_
_geom_bond_atom_site_label_1
_geom_bond_atom_site_label_2
_geom_bond_distance
_geom_bond_site_symmetry_2
Li0 S19 2.394446 1_555
Li0 S1 2.518262 1_555
Li0 S12 2.570782 1_555
Li1 S22 2.417980 1_655
Li1 S0 2.486768 1_545
Li1 S18 2.488600 1_555
Li1 S8 2.654790 1_555
Li2 S20 2.382038 1_555
Li2 S17 2.387154 1_565
Li2 S6 2.536783 1_655
Li2 S14 2.562582 1_655
Li3 S21 2.346896 1_555
Li3 S16 2.392280 1_555
Li3 S15 2.645955 1_555
Li3 S7 2.983891 1_555
Li4 S19 2.394446 1_555
Li4 S0 2.518262 1_555
Li4 S13 2.570782 1_555
Li5 S22 2.417980 1_555
Li5 S1 2.486768 1_545
Li5 S18 2.488600 1_555
Li5 S9 2.654790 1_555
Li6 S21 2.382038 1_555
Li6 S16 2.387154 1_565
Li6 S6 2.536783 1_555
Li6 S14 2.562582 1_555
Li7 S20 2.346896 1_555
Li7 S17 2.392280 1_555
Li7 S15 2.645955 1_655
Li7 S7 2.983891 1_655
Li8 S16 2.552147 1_565
Li8 S17 2.552147 1_565
Li8 S8 2.659849 1_566
Li8 S9 2.659849 1_566
Li8 S2 2.727219 1_555
Li8 S3 2.827822 1_565
Li9 S10 2.632685 1_555
Li9 S11 2.644870 1_565
Li9 S0 2.649389 1_555
Li9 S1 2.649389 1_555
Li9 S18 2.693668 1_565
Li9 S19 2.826627 1_555
Li10 S21 2.544789 1_555
Li10 S20 2.544789 1_455
Li10 S7 2.687154 1_555
Li10 S12 2.729248 1_555
Li10 S13 2.729248 1_455
Li10 S6 2.754719 1_555
Li11 S15 2.515396 1_554
Li11 S14 2.630763 1_554
Li11 S22 2.644580 1_555
Li11 S4 2.759048 1_555
Li11 S5 2.759048 1_455
Li12 S5 2.454485 1_555
Li12 S2 2.463965 1_554
Li12 S14 2.575031 1_654
Li12 S8 2.610685 1_565
Li13 S4 2.428793 1_555
Li13 S3 2.481997 1_554
Li13 S9 2.572774 1_555
Li13 S15 2.662979 1_554
Li14 S6 2.401619 1_555
Li14 S10 2.488554 1_555
Li14 S12 2.577907 1_555
Li14 S1 2.632827 1_555
Li15 S7 2.443205 1_655
Li15 S11 2.545118 1_555
Li15 S0 2.648203 1_545
Li15 S13 2.656327 1_555
Li16 S6 2.401619 1_655
Li16 S10 2.488554 1_555
Li16 S13 2.577907 1_555
Li16 S0 2.632827 1_555
Li17 S7 2.443205 1_555
Li17 S11 2.545118 1_555
Li17 S1 2.648203 1_545
Li17 S12 2.656327 1_555
Li18 S4 2.454485 1_555
Li18 S2 2.463965 1_554
Li18 S14 2.575031 1_554
Li18 S9 2.610685 1_565
Li19 S5 2.428793 1_555
Li19 S3 2.481997 1_554
Li19 S8 2.572774 1_555
Li19 S15 2.662979 1_654
P0 S10 2.058292 1_545
P0 S16 2.059696 1_555
P0 S17 2.059696 1_555
P0 S11 2.067857 1_555
P1 S18 2.035264 1_565
P1 S19 2.041284 1_555
P1 S9 2.087098 1_565
P1 S8 2.087098 1_565
P2 S2 2.052647 1_554
P2 S5 2.060514 1_555
P2 S4 2.060514 1_555
P2 S3 2.073099 1_554
S0 Si2 2.149244 1_665
S1 Si2 2.149244 1_565
S6 Si2 2.132723 1_565
S7 Si2 2.113213 1_555
S12 Si1 2.103001 1_555
S13 Si1 2.103001 1_655
S14 Si0 2.193471 1_555
S15 Si0 2.179413 1_555
S20 Si0 2.120231 1_655
S21 Si0 2.120231 1_555
S22 Si1 2.096707 1_555
Cl0 Si1 2.286716 1_555
Cl0 Li0 2.402832 1_555
Cl0 Li4 2.402832 1_455
Cl0 Li11 2.859442 1_555
