# generated using pymatgen
data_CeAlNi4
_symmetry_space_group_name_H-M   'P 1'
_cell_length_a   4.83180398
_cell_length_b   4.83180398
_cell_length_c   4.05556420
_cell_angle_alpha   90.00000000
_cell_angle_beta   90.00000000
_cell_angle_gamma   117.50485216
_symmetry_Int_Tables_number   1
_chemical_formula_structural   CeAlNi4
_chemical_formula_sum   'Ce1 Al1 Ni4'
_cell_volume   83.98073488
_cell_formula_units_Z   1
loop_
 _symmetry_equiv_pos_site_id
 _symmetry_equiv_pos_as_xyz
  1  'x, y, z'
loop_
 _atom_site_type_symbol
 _atom_site_label
 _atom_site_symmetry_multiplicity
 _atom_site_fract_x
 _atom_site_fract_y
 _atom_site_fract_z
 _atom_site_occupancy
  Ce  Ce0  1  0.00000000  -0.00000000  -0.00000000  1
  Al  Al0  1  0.50000000  0.50000000  0.50000000  1
  Ni  Ni0  1  0.67100028  0.32899972  0.00000000  1
  Ni  Ni1  1  0.32899972  0.67100028  0.00000000  1
  Ni  Ni2  1  0.50000000  -0.00000000  0.50000000  1
  Ni  Ni3  1  0.00000000  0.50000000  0.50000000  1
loop_
_geom_bond_atom_site_label_1
_geom_bond_atom_site_label_2
_geom_bond_distance
_geom_bond_site_symmetry_2
Ce0 Ni0 2.718112 1_455
Ce0 Ni1 2.718112 1_545
Ce0 Ni0 2.877171 1_555
Ce0 Ni1 2.877171 1_555
Ce0 Ni1 2.877171 1_445
Ce0 Ni0 2.877171 1_445
Ce0 Ni3 3.154122 1_555
Ce0 Ni3 3.154122 1_544
Ce0 Ni2 3.154122 1_554
Ce0 Ni3 3.154122 1_545
Ce0 Ni2 3.154122 1_455
Ce0 Ni2 3.154122 1_555
Ce0 Ni2 3.154122 1_454
Ce0 Ni3 3.154122 1_554
Al0 Ni3 2.415902 1_655
Al0 Ni2 2.415902 1_555
Al0 Ni2 2.415902 1_565
Al0 Ni3 2.415902 1_555
Al0 Ni0 2.471395 1_555
Al0 Ni1 2.471395 1_556
Al0 Ni1 2.471395 1_555
Al0 Ni0 2.471395 1_556
Ni0 Ni2 2.471526 1_555
Ni0 Ni2 2.471526 1_554
Ni0 Ni3 2.471526 1_654
Ni0 Ni3 2.471526 1_655
Ni0 Ni1 2.825522 1_555
Ni0 Ni1 2.825980 1_545
Ni0 Ni1 2.825980 1_655
Ni1 Ni3 2.471526 1_554
Ni1 Ni2 2.471526 1_565
Ni1 Ni3 2.471526 1_555
Ni1 Ni2 2.471526 1_564
Ni2 Ni3 2.506436 1_545
Ni2 Ni3 2.506436 1_655
