# generated using pymatgen
data_Sm3MgBi(Ru2O7)2
_symmetry_space_group_name_H-M   'P 1'
_cell_length_a   7.43799920
_cell_length_b   7.50130817
_cell_length_c   7.41986058
_cell_angle_alpha   89.96251892
_cell_angle_beta   60.43112805
_cell_angle_gamma   120.27808701
_symmetry_Int_Tables_number   1
_chemical_formula_structural   Sm3MgBi(Ru2O7)2
_chemical_formula_sum   'Sm3 Mg1 Bi1 Ru4 O14'
_cell_volume   293.30388136
_cell_formula_units_Z   1
loop_
 _symmetry_equiv_pos_site_id
 _symmetry_equiv_pos_as_xyz
  1  'x, y, z'
loop_
 _atom_site_type_symbol
 _atom_site_label
 _atom_site_symmetry_multiplicity
 _atom_site_fract_x
 _atom_site_fract_y
 _atom_site_fract_z
 _atom_site_occupancy
  Sm  Sm0  1  0.24049800  0.35607500  0.34967000  1
  Sm  Sm1  1  0.23812400  0.88444100  0.35021800  1
  Sm  Sm2  1  0.74195800  0.36983000  0.37701600  1
  Mg  Mg0  1  0.26432300  0.63328700  0.64035400  1
  Bi  Bi0  1  0.70924800  0.35652700  0.88432200  1
  Ru  Ru0  1  0.76471800  0.88257500  0.35915100  1
  Ru  Ru1  1  0.24217400  0.88187100  0.88444500  1
  Ru  Ru2  1  0.24158200  0.36075600  0.88439900  1
  Ru  Ru3  1  0.76362000  0.88227900  0.87753500  1
  O  O0  1  0.49897400  0.24950300  0.25474000  1
  O  O1  1  0.03798200  0.51905500  0.50426900  1
  O  O2  1  0.93000200  0.96557300  0.53300000  1
  O  O3  1  0.48963000  0.53431100  0.53468100  1
  O  O4  1  0.49199400  0.95787200  0.53387300  1
  O  O5  1  0.07837800  0.53915200  0.96446300  1
  O  O6  1  0.50058500  0.96258300  0.95826100  1
  O  O7  1  0.50229800  0.53814100  0.95837200  1
  O  O8  1  0.60055600  0.80112700  0.19988500  1
  O  O9  1  0.99306800  0.20956700  0.21117900  1
  O  O10  1  0.99105300  0.78354800  0.21068600  1
  O  O11  1  0.41647500  0.20883200  0.78874200  1
  O  O12  1  0.00243300  0.79792600  0.79911000  1
  O  O13  1  0.00139900  0.20017100  0.80274100  1
loop_
_geom_bond_atom_site_label_1
_geom_bond_atom_site_label_2
_geom_bond_distance
_geom_bond_site_symmetry_2
Mg0 O5 1.981188 1_555
Mg0 O3 1.983188 1_555
Mg0 O4 1.984806 1_555
Mg0 O1 2.193674 1_555
Bi0 O0 2.265638 1_556
Bi0 O11 2.359001 1_555
Bi0 O1 2.366744 1_655
Bi0 O7 2.410023 1_555
Bi0 O6 2.444380 1_545
Bi0 O5 2.754647 1_655
O0 Sm2 2.208759 1_555
O0 Sm0 2.246216 1_555
O0 Sm1 2.246888 1_545
O1 Sm0 2.287579 1_555
O1 Sm1 2.288467 1_555
O1 Sm2 2.561325 1_455
O2 Ru0 2.087407 1_555
O2 Ru3 2.133762 1_555
O2 Sm1 2.408753 1_655
O2 Sm0 2.416009 1_665
O3 Ru2 2.163489 1_555
O3 Ru0 2.164009 1_555
O3 Sm2 2.565809 1_555
O3 Sm0 2.668415 1_555
O4 Ru0 2.162290 1_555
O4 Ru1 2.168757 1_555
O4 Sm2 2.535112 1_565
O4 Sm1 2.686567 1_555
O5 Ru2 2.131829 1_555
O5 Ru1 2.138164 1_555
O5 Sm2 2.544652 1_456
O6 Ru1 2.055917 1_555
O6 Ru3 2.140489 1_555
O6 Sm1 2.419332 1_556
O7 Ru2 2.069237 1_555
O7 Ru3 2.142293 1_555
O7 Sm0 2.412448 1_556
O8 Ru0 1.983295 1_555
O8 Ru3 1.988170 1_554
O8 Sm0 2.755831 1_555
O8 Sm1 2.762982 1_555
O9 Ru2 2.010246 1_654
O9 Ru0 2.015378 1_545
O9 Sm0 2.340750 1_655
O9 Sm2 2.538856 1_555
O10 Ru0 2.007793 1_555
O10 Ru1 2.009610 1_654
O10 Sm1 2.344805 1_655
O10 Sm2 2.554836 1_555
O11 Ru2 2.019776 1_555
O11 Ru1 2.020685 1_545
O11 Sm2 2.529786 1_555
O12 Ru1 1.989913 1_555
O12 Ru3 2.001987 1_455
O12 Sm1 2.770433 1_555
O13 Ru3 1.974598 1_445
O13 Ru2 1.977081 1_555
O13 Sm0 2.797991 1_555
