# generated using pymatgen
data_Ba3TiFe2O9
_symmetry_space_group_name_H-M   'P 1'
_cell_length_a   5.77454194
_cell_length_b   5.77454194
_cell_length_c   14.11850400
_cell_angle_alpha   90.00000000
_cell_angle_beta   90.00000000
_cell_angle_gamma   119.99999933
_symmetry_Int_Tables_number   1
_chemical_formula_structural   Ba3TiFe2O9
_chemical_formula_sum   'Ba6 Ti2 Fe4 O18'
_cell_volume   407.71284673
_cell_formula_units_Z   2
loop_
 _symmetry_equiv_pos_site_id
 _symmetry_equiv_pos_as_xyz
  1  'x, y, z'
loop_
 _atom_site_type_symbol
 _atom_site_label
 _atom_site_symmetry_multiplicity
 _atom_site_fract_x
 _atom_site_fract_y
 _atom_site_fract_z
 _atom_site_occupancy
  Ba  Ba0  1  0.66666700  0.33333300  0.59677400  1
  Ba  Ba1  1  0.33333300  0.66666700  0.41688700  1
  Ba  Ba2  1  0.33333300  0.66666700  0.09677400  1
  Ba  Ba3  1  0.66666700  0.33333300  0.91688700  1
  Ba  Ba4  1  0.00000000  0.00000000  0.74750000  1
  Ba  Ba5  1  0.00000000  0.00000000  0.24750000  1
  Ti  Ti0  1  0.66666700  0.33333300  0.35181400  1
  Ti  Ti1  1  0.33333300  0.66666700  0.85181400  1
  Fe  Fe0  1  0.33333300  0.66666700  0.65804000  1
  Fe  Fe1  1  0.66666700  0.33333300  0.15804000  1
  Fe  Fe2  1  0.00000000  0.00000000  0.50179300  1
  Fe  Fe3  1  0.00000000  0.00000000  0.00179300  1
  O  O0  1  0.17107000  0.34214000  0.58135200  1
  O  O1  1  0.17107000  0.82893000  0.58135200  1
  O  O2  1  0.65786000  0.82893000  0.58135200  1
  O  O3  1  0.83240600  0.66481200  0.41633700  1
  O  O4  1  0.83240600  0.16759400  0.41633700  1
  O  O5  1  0.33518800  0.16759400  0.41633700  1
  O  O6  1  0.82893000  0.65786000  0.08135200  1
  O  O7  1  0.82893000  0.17107000  0.08135200  1
  O  O8  1  0.34214000  0.17107000  0.08135200  1
  O  O9  1  0.16759400  0.33518800  0.91633700  1
  O  O10  1  0.16759400  0.83240600  0.91633700  1
  O  O11  1  0.66481200  0.83240600  0.91633700  1
  O  O12  1  0.48007500  0.96015000  0.74470800  1
  O  O13  1  0.48007500  0.51992500  0.74470800  1
  O  O14  1  0.03985000  0.51992500  0.74470800  1
  O  O15  1  0.51992500  0.03985000  0.24470800  1
  O  O16  1  0.51992500  0.48007500  0.24470800  1
  O  O17  1  0.96015000  0.48007500  0.24470800  1
loop_
_geom_bond_atom_site_label_1
_geom_bond_atom_site_label_2
_geom_bond_distance
_geom_bond_site_symmetry_2
Ba0 O14 2.800923 1_655
Ba0 O12 2.800923 1_545
Ba0 O13 2.800926 1_555
Ba0 O0 2.895801 1_655
Ba0 O2 2.895801 1_545
Ba0 O1 2.895804 1_545
Ba0 O1 2.895804 1_655
Ba0 O2 2.895807 1_555
Ba0 O0 2.895807 1_555
Ba0 O4 3.039357 1_555
Ba0 O3 3.039359 1_555
Ba0 O5 3.039359 1_555
Ba1 O1 2.832942 1_555
Ba1 O2 2.832945 1_555
Ba1 O0 2.832945 1_555
Ba1 O3 2.887293 1_455
Ba1 O5 2.887293 1_565
Ba1 O4 2.887296 1_455
Ba1 O4 2.887296 1_565
Ba1 O5 2.887299 1_555
Ba1 O3 2.887299 1_555
Ba1 O15 3.064672 1_565
Ba1 O17 3.064672 1_455
Ba1 O16 3.064675 1_555
Ba2 O15 2.800923 1_565
Ba2 O17 2.800923 1_455
Ba2 O16 2.800926 1_555
Ba2 O6 2.895801 1_455
Ba2 O8 2.895801 1_565
Ba2 O7 2.895804 1_455
Ba2 O7 2.895804 1_565
Ba2 O6 2.895807 1_555
Ba2 O8 2.895807 1_555
Ba2 O10 3.039357 1_554
Ba2 O11 3.039359 1_554
Ba2 O9 3.039359 1_554
Ba3 O7 2.832942 1_556
Ba3 O8 2.832945 1_556
Ba3 O6 2.832945 1_556
Ba3 O9 2.887293 1_655
Ba3 O11 2.887293 1_545
Ba3 O10 2.887296 1_655
Ba3 O10 2.887296 1_545
Ba3 O11 2.887299 1_555
Ba3 O9 2.887299 1_555
Ba3 O12 3.064672 1_545
Ba3 O14 3.064672 1_655
Ba3 O13 3.064675 1_555
Ba4 O12 2.894409 1_545
Ba4 O14 2.894409 1_545
Ba4 O14 2.894409 1_555
Ba4 O12 2.894409 1_445
Ba4 O13 2.894409 1_445
Ba4 O13 2.894409 1_555
Ba4 O1 2.903471 1_545
Ba4 O2 2.903471 1_445
Ba4 O0 2.903471 1_555
Ba4 O10 2.914093 1_545
Ba4 O11 2.914093 1_445
Ba4 O9 2.914093 1_555
Ba5 O17 2.894409 1_455
Ba5 O15 2.894409 1_455
Ba5 O17 2.894409 1_445
Ba5 O15 2.894409 1_555
Ba5 O16 2.894409 1_445
Ba5 O16 2.894409 1_555
Ba5 O7 2.903471 1_455
Ba5 O6 2.903471 1_445
Ba5 O8 2.903471 1_555
Ba5 O4 2.914093 1_455
Ba5 O5 2.914093 1_555
Ba5 O3 2.914093 1_445
Fe0 O12 1.910846 1_555
Fe0 O14 1.910846 1_555
Fe0 O13 1.910850 1_555
Fe0 O1 1.950938 1_555
Fe0 O2 1.950942 1_555
Fe0 O0 1.950942 1_555
Fe1 O17 1.910846 1_555
Fe1 O15 1.910846 1_555
Fe1 O16 1.910850 1_555
Fe1 O7 1.950938 1_555
Fe1 O6 1.950942 1_555
Fe1 O8 1.950942 1_555
Fe2 O1 2.046765 1_545
Fe2 O2 2.046765 1_445
Fe2 O0 2.046765 1_555
Fe2 O4 2.065298 1_455
Fe2 O5 2.065298 1_555
Fe2 O3 2.065298 1_445
Fe3 O7 2.046765 1_455
Fe3 O8 2.046765 1_555
Fe3 O6 2.046765 1_445
Fe3 O10 2.065298 1_544
Fe3 O9 2.065298 1_554
Fe3 O11 2.065298 1_444
O3 Ti0 1.891510 1_555
O4 Ti0 1.891506 1_555
O5 Ti0 1.891510 1_555
O9 Ti1 1.891510 1_555
O10 Ti1 1.891506 1_555
O11 Ti1 1.891510 1_555
O12 Ti1 2.107311 1_555
O13 Ti1 2.107315 1_555
O14 Ti1 2.107311 1_555
O15 Ti0 2.107311 1_555
O16 Ti0 2.107315 1_555
O17 Ti0 2.107311 1_555
