# generated using pymatgen
data_CaU2Si2O17
_symmetry_space_group_name_H-M   'P 1'
_cell_length_a   14.48360600
_cell_length_b   6.82188300
_cell_length_c   14.15384870
_cell_angle_alpha   88.67409399
_cell_angle_beta   90.00000000
_cell_angle_gamma   90.00000000
_symmetry_Int_Tables_number   1
_chemical_formula_structural   CaU2Si2O17
_chemical_formula_sum   'Ca4 U8 Si8 O68'
_cell_volume   1398.10316706
_cell_formula_units_Z   4
loop_
 _symmetry_equiv_pos_site_id
 _symmetry_equiv_pos_as_xyz
  1  'x, y, z'
loop_
 _atom_site_type_symbol
 _atom_site_label
 _atom_site_symmetry_multiplicity
 _atom_site_fract_x
 _atom_site_fract_y
 _atom_site_fract_z
 _atom_site_occupancy
  Ca  Ca0  1  0.02048900  0.74650400  0.70380700  1
  Ca  Ca1  1  0.52048900  0.25349600  0.79619300  1
  Ca  Ca2  1  0.97951100  0.25349600  0.29619300  1
  Ca  Ca3  1  0.47951100  0.74650400  0.20380700  1
  U  U0  1  0.24580300  0.75858900  0.52412000  1
  U  U1  1  0.74580300  0.24141100  0.97588000  1
  U  U2  1  0.75419700  0.24141100  0.47588000  1
  U  U3  1  0.25419700  0.75858900  0.02412000  1
  U  U4  1  0.76554500  0.51447900  0.72703600  1
  U  U5  1  0.26554500  0.48552100  0.77296400  1
  U  U6  1  0.23445500  0.48552100  0.27296400  1
  U  U7  1  0.73445500  0.51447900  0.22703600  1
  Si  Si0  1  0.27142700  0.30148100  0.52187300  1
  Si  Si1  1  0.77142700  0.69851900  0.97812700  1
  Si  Si2  1  0.72857300  0.69851900  0.47812700  1
  Si  Si3  1  0.22857300  0.30148100  0.02187300  1
  Si  Si4  1  0.31235500  0.95345700  0.77147500  1
  Si  Si5  1  0.81235500  0.04654300  0.72852500  1
  Si  Si6  1  0.68764500  0.04654300  0.22852500  1
  Si  Si7  1  0.18764500  0.95345700  0.27147500  1
  O  O0  1  0.13972100  0.53775200  0.76301700  1
  O  O1  1  0.63972100  0.46224800  0.73698300  1
  O  O2  1  0.86027900  0.46224800  0.23698300  1
  O  O3  1  0.36027900  0.53775200  0.26301700  1
  O  O4  1  0.36644900  0.76971100  0.49388600  1
  O  O5  1  0.86644900  0.23028900  0.00611400  1
  O  O6  1  0.63355100  0.23028900  0.50611400  1
  O  O7  1  0.13355100  0.76971100  0.99388600  1
  O  O8  1  0.60751800  0.54633900  0.21422000  1
  O  O9  1  0.10751800  0.45366100  0.28578000  1
  O  O10  1  0.39248200  0.45366100  0.78578000  1
  O  O11  1  0.89248200  0.54633900  0.71422000  1
  O  O12  1  0.12386500  0.73058100  0.56420400  1
  O  O13  1  0.62386500  0.26941900  0.93579600  1
  O  O14  1  0.87613500  0.26941900  0.43579600  1
  O  O15  1  0.37613500  0.73058100  0.06420400  1
  O  O16  1  0.28126100  0.80180300  0.68545900  1
  O  O17  1  0.78126100  0.19819700  0.81454100  1
  O  O18  1  0.71873900  0.19819700  0.31454100  1
  O  O19  1  0.21873900  0.80180300  0.18545900  1
  O  O20  1  0.72843100  0.56270600  0.38863800  1
  O  O21  1  0.22843100  0.43729400  0.11136200  1
  O  O22  1  0.27156900  0.43729400  0.61136200  1
  O  O23  1  0.77156900  0.56270600  0.88863800  1
  O  O24  1  0.28802000  0.80017400  0.86224100  1
  O  O25  1  0.78802000  0.19982600  0.63775900  1
  O  O26  1  0.71198000  0.19982600  0.13775900  1
  O  O27  1  0.21198000  0.80017400  0.36224100  1
  O  O28  1  0.75063400  0.55919300  0.06674500  1
  O  O29  1  0.25063400  0.44080700  0.43325500  1
  O  O30  1  0.24936600  0.44080700  0.93325500  1
  O  O31  1  0.74936600  0.55919300  0.56674500  1
  O  O32  1  0.75480900  0.91956800  0.47587500  1
  O  O33  1  0.25480900  0.08043200  0.02412500  1
  O  O34  1  0.24519100  0.08043200  0.52412500  1
  O  O35  1  0.74519100  0.91956800  0.97587500  1
  O  O36  1  0.74851700  0.83915200  0.22897000  1
  O  O37  1  0.24851700  0.16084800  0.27103000  1
  O  O38  1  0.25148300  0.16084800  0.77103000  1
  O  O39  1  0.75148300  0.83915200  0.72897000  1
  O  O40  1  0.57912400  0.69917200  0.49166100  1
  O  O41  1  0.07912400  0.30082800  0.00833900  1
  O  O42  1  0.42087600  0.30082800  0.50833900  1
  O  O43  1  0.92087600  0.69917200  0.99166100  1
  O  O44  1  0.58090500  0.97632600  0.23182600  1
  O  O45  1  0.08090500  0.02367400  0.26817400  1
  O  O46  1  0.41909500  0.02367400  0.76817400  1
  O  O47  1  0.91909500  0.97632600  0.73182600  1
  O  O48  1  0.52900200  0.95866900  0.02513300  1
  O  O49  1  0.02900200  0.04133100  0.47486700  1
  O  O50  1  0.47099800  0.04133100  0.97486700  1
  O  O51  1  0.97099800  0.95866900  0.52513300  1
  O  O52  1  0.97129500  0.64792400  0.91900400  1
  O  O53  1  0.47129500  0.35207600  0.58099600  1
  O  O54  1  0.02870500  0.35207600  0.08099600  1
  O  O55  1  0.52870500  0.64792400  0.41900400  1
  O  O56  1  0.93379400  0.83556900  0.32166200  1
  O  O57  1  0.43379400  0.16443100  0.17833800  1
  O  O58  1  0.06620600  0.16443100  0.67833800  1
  O  O59  1  0.56620600  0.83556900  0.82166200  1
  O  O60  1  0.95218600  0.69642300  0.37496500  1
  O  O61  1  0.45218600  0.30357700  0.12503500  1
  O  O62  1  0.04781400  0.30357700  0.62503500  1
  O  O63  1  0.54781400  0.69642300  0.87496500  1
  O  O64  1  0.54318900  0.69688800  0.57614800  1
  O  O65  1  0.04318900  0.30311200  0.92385200  1
  O  O66  1  0.45681100  0.30311200  0.42385200  1
  O  O67  1  0.95681100  0.69688800  0.07614800  1
loop_
_geom_bond_atom_site_label_1
_geom_bond_atom_site_label_2
_geom_bond_distance
_geom_bond_site_symmetry_2
Ca0 O47 2.191060 1_455
Ca0 O11 2.305283 1_455
Ca0 O0 2.378512 1_555
Ca0 O12 2.483500 1_555
Ca0 O58 2.940970 1_565
Ca0 O51 2.972330 1_455
Ca1 O46 2.191060 1_555
Ca1 O10 2.305283 1_555
Ca1 O1 2.378512 1_555
Ca1 O13 2.483500 1_555
Ca1 O59 2.940970 1_545
Ca1 O50 2.972330 1_555
Ca2 O45 2.191060 1_655
Ca2 O9 2.305283 1_655
Ca2 O2 2.378512 1_555
Ca2 O14 2.483500 1_555
Ca2 O56 2.940970 1_545
Ca2 O49 2.972330 1_655
Ca3 O44 2.191060 1_555
Ca3 O8 2.305283 1_555
Ca3 O3 2.378512 1_555
Ca3 O15 2.483500 1_555
Ca3 O57 2.940970 1_565
Ca3 O48 2.972330 1_555
O0 U5 1.861598 1_555
O1 U4 1.861598 1_555
O2 U7 1.861598 1_555
O3 U6 1.861598 1_555
O4 U0 1.800207 1_555
O5 U1 1.800207 1_554
O6 U2 1.800207 1_555
O7 U3 1.800207 1_556
O8 U7 1.859683 1_555
O9 U6 1.859683 1_555
O10 U5 1.859683 1_555
O11 U4 1.859683 1_555
O12 U0 1.863460 1_555
O13 U1 1.863460 1_555
O14 U2 1.863460 1_555
O15 U3 1.863460 1_555
O16 Si4 1.677390 1_555
O16 U0 2.365690 1_555
O16 U5 2.473360 1_555
O17 Si5 1.677390 1_555
O17 U1 2.365690 1_555
O17 U4 2.473360 1_555
O18 Si6 1.677390 1_555
O18 U2 2.365690 1_555
O18 U7 2.473360 1_555
O19 Si7 1.677390 1_555
O19 U3 2.365690 1_555
O19 U6 2.473360 1_555
O20 Si2 1.586514 1_555
O20 U7 2.319995 1_555
O20 U2 2.518515 1_555
O21 Si3 1.586514 1_555
O21 U6 2.319995 1_555
O21 U3 2.518515 1_555
O22 Si0 1.586514 1_555
O22 U5 2.319995 1_555
O22 U0 2.518515 1_555
O23 Si1 1.586514 1_555
O23 U4 2.319995 1_555
O23 U1 2.518515 1_555
O24 Si4 1.675090 1_555
O24 U3 2.353726 1_556
O24 U5 2.536884 1_555
O25 Si5 1.675090 1_555
O25 U2 2.353726 1_555
O25 U4 2.536884 1_555
O26 Si6 1.675090 1_555
O26 U1 2.353726 1_554
O26 U7 2.536884 1_555
O27 Si7 1.675090 1_555
O27 U0 2.353726 1_555
O27 U6 2.536884 1_555
O28 Si1 1.584974 1_554
O28 U7 2.294142 1_555
O28 U1 2.547080 1_554
O29 Si0 1.584974 1_555
O29 U6 2.294142 1_555
O29 U0 2.547080 1_555
O30 Si3 1.584974 1_556
O30 U5 2.294142 1_555
O30 U3 2.547080 1_556
O31 Si2 1.584974 1_555
O31 U4 2.294142 1_555
O31 U2 2.547080 1_555
O32 Si2 1.554722 1_555
O32 U2 2.195595 1_565
O33 Si3 1.554722 1_555
O33 U3 2.195595 1_545
O34 Si0 1.554722 1_555
O34 U0 2.195595 1_545
O35 Si1 1.554722 1_555
O35 U1 2.195595 1_565
O36 Si6 1.666907 1_565
O36 U7 2.225025 1_555
O37 Si7 1.666907 1_545
O37 U6 2.225025 1_555
O38 Si4 1.666907 1_545
O38 U5 2.225025 1_555
O39 Si5 1.666907 1_565
O39 U4 2.225025 1_555
O40 O64 1.303934 1_555
O40 O55 1.315175 1_555
O40 Si2 2.173034 1_555
O41 O65 1.303934 1_554
O41 O54 1.315175 1_555
O41 Si3 2.173034 1_555
O42 O66 1.303934 1_555
O42 O53 1.315175 1_555
O42 Si0 2.173034 1_555
O43 O67 1.303934 1_556
O43 O52 1.315175 1_555
O43 Si1 2.173034 1_555
O44 Si6 1.618844 1_565
O45 Si7 1.618844 1_545
O46 Si4 1.618844 1_545
O47 Si5 1.618844 1_565
O48 O50 1.229382 1_564
O49 O51 1.229382 1_445
O56 O60 1.228028 1_555
O57 O61 1.228028 1_555
O58 O62 1.228028 1_555
O59 O63 1.228028 1_555
