# generated using pymatgen
data_Ca(WO2)4
_symmetry_space_group_name_H-M   'P 1'
_cell_length_a   3.34475700
_cell_length_b   7.28450406
_cell_length_c   7.33001564
_cell_angle_alpha   88.29437336
_cell_angle_beta   101.03835246
_cell_angle_gamma   101.72536020
_symmetry_Int_Tables_number   1
_chemical_formula_structural   Ca(WO2)4
_chemical_formula_sum   'Ca1 W4 O8'
_cell_volume   171.62534864
_cell_formula_units_Z   1
loop_
 _symmetry_equiv_pos_site_id
 _symmetry_equiv_pos_as_xyz
  1  'x, y, z'
loop_
 _atom_site_type_symbol
 _atom_site_label
 _atom_site_symmetry_multiplicity
 _atom_site_fract_x
 _atom_site_fract_y
 _atom_site_fract_z
 _atom_site_occupancy
  Ca  Ca0  1  0.52115000  0.01391100  0.02337700  1
  W  W0  1  0.16865300  0.82360400  0.56101700  1
  W  W1  1  0.38280300  0.52732300  0.20992600  1
  W  W2  1  0.65320700  0.47294500  0.85678400  1
  W  W3  1  0.86341100  0.17630400  0.50252700  1
  O  O0  1  0.47898300  0.28683800  0.63397100  1
  O  O1  1  0.17176900  0.61813100  0.75915900  1
  O  O2  1  0.87769100  0.39046400  0.31819900  1
  O  O3  1  0.55539500  0.71198000  0.42169100  1
  O  O4  1  0.80173100  0.96408100  0.71406400  1
  O  O5  1  0.87867000  0.67871700  0.08655300  1
  O  O6  1  0.22391200  0.04813300  0.34833800  1
  O  O7  1  0.14903900  0.31146300  0.99503900  1
loop_
_geom_bond_atom_site_label_1
_geom_bond_atom_site_label_2
_geom_bond_distance
_geom_bond_site_symmetry_2
Ca0 O4 2.674929 1_544
Ca0 O7 2.694631 1_554
Ca0 O7 2.727993 1_654
Ca0 O6 2.786978 1_555
Ca0 O5 2.917845 1_545
Ca0 O4 2.944026 1_444
Ca0 O6 2.985674 1_655
Ca0 O5 2.995915 1_445
O0 W3 2.042386 1_555
O0 W2 2.071515 1_555
O0 W3 2.104420 1_455
O1 W0 2.054502 1_555
O1 W2 2.079335 1_455
O1 W2 2.104646 1_555
O2 W3 2.032371 1_555
O2 W1 2.063948 1_655
O2 W1 2.117615 1_555
O3 W1 2.004405 1_555
O3 W0 2.088123 1_555
O3 W0 2.116821 1_655
O4 W3 2.164931 1_565
O4 W0 2.217621 1_655
O4 W0 2.251098 1_555
O5 W1 2.134573 1_555
O5 W2 2.203767 1_554
O5 W1 2.233795 1_655
O6 W3 2.155288 1_455
O6 W0 2.230531 1_545
O6 W3 2.247148 1_555
O7 W1 2.177392 1_556
O7 W2 2.243123 1_555
O7 W2 2.288994 1_455
