# generated using pymatgen
data_MgMn3VCr2(PO4)6
_symmetry_space_group_name_H-M   'P 1'
_cell_length_a   8.60681585
_cell_length_b   8.76844595
_cell_length_c   8.80459324
_cell_angle_alpha   59.94062551
_cell_angle_beta   58.06660532
_cell_angle_gamma   58.84079614
_symmetry_Int_Tables_number   1
_chemical_formula_structural   MgMn3VCr2(PO4)6
_chemical_formula_sum   'Mg1 Mn3 V1 Cr2 P6 O24'
_cell_volume   458.32972804
_cell_formula_units_Z   1
loop_
 _symmetry_equiv_pos_site_id
 _symmetry_equiv_pos_as_xyz
  1  'x, y, z'
loop_
 _atom_site_type_symbol
 _atom_site_label
 _atom_site_symmetry_multiplicity
 _atom_site_fract_x
 _atom_site_fract_y
 _atom_site_fract_z
 _atom_site_occupancy
  Mg  Mg0  1  0.25500800  0.62822500  0.24434800  1
  Mn  Mn0  1  0.04617400  0.65130100  0.65531700  1
  Mn  Mn1  1  0.45817700  0.86060100  0.83893600  1
  Mn  Mn2  1  0.93666800  0.35099000  0.35186600  1
  V  V0  1  0.56699500  0.13671500  0.15098600  1
  Cr  Cr0  1  0.99448000  0.00784700  0.99316200  1
  Cr  Cr1  1  0.50450400  0.49561800  0.50468900  1
  P  P0  1  0.25454900  0.24004500  0.54913900  1
  P  P1  1  0.24944800  0.95461500  0.24874900  1
  P  P2  1  0.23973300  0.54070800  0.96035400  1
  P  P3  1  0.72519200  0.44931700  0.06904400  1
  P  P4  1  0.75660300  0.05986700  0.74674400  1
  P  P5  1  0.77752300  0.74103300  0.42662300  1
  O  O0  1  0.06299500  0.10519800  0.32228100  1
  O  O1  1  0.05111500  0.49606200  0.09711400  1
  O  O2  1  0.08075500  0.32185400  0.49502100  1
  O  O3  1  0.21079200  0.10323000  0.75665800  1
  O  O4  1  0.44068200  0.14212400  0.41123200  1
  O  O5  1  0.29805500  0.40798200  0.53014400  1
  O  O6  1  0.21169800  0.92562000  0.10717300  1
  O  O7  1  0.29019300  0.74486600  0.39175600  1
  O  O8  1  0.52607200  0.59299000  0.05433600  1
  O  O9  1  0.29538800  0.55500000  0.75477400  1
  O  O10  1  0.76770700  0.24604700  0.07849500  1
  O  O11  1  0.56970500  0.02847000  0.81842000  1
  O  O12  1  0.43133100  0.99693000  0.17450300  1
  O  O13  1  0.19841000  0.73695200  0.96933600  1
  O  O14  1  0.70215400  0.42639800  0.26741100  1
  O  O15  1  0.40246300  0.39375700  0.03550500  1
  O  O16  1  0.72750700  0.26247600  0.59030800  1
  O  O17  1  0.78003900  0.08492300  0.89987800  1
  O  O18  1  0.73312200  0.59058500  0.41976300  1
  O  O19  1  0.61905800  0.79616300  0.59800600  1
  O  O20  1  0.78769000  0.90121800  0.23067300  1
  O  O21  1  0.98088900  0.67504500  0.42791300  1
  O  O22  1  0.88959700  0.51038800  0.90252100  1
  O  O23  1  0.94315100  0.91027100  0.67682400  1
loop_
_geom_bond_atom_site_label_1
_geom_bond_atom_site_label_2
_geom_bond_distance
_geom_bond_site_symmetry_2
Mg0 O21 1.993882 1_455
Mg0 O8 1.995039 1_555
Mg0 O6 2.170928 1_555
Mg0 O7 2.210947 1_555
Mg0 O13 2.337481 1_554
Mg0 O5 2.361402 1_555
Mn0 O22 2.001545 1_455
Mn0 O23 2.036659 1_455
Mn0 O21 2.240389 1_455
Mn0 O7 2.277968 1_555
Mn0 O9 2.335061 1_555
Mn0 O5 2.346919 1_555
Mn1 O19 2.005063 1_555
Mn1 O11 2.032987 1_565
Mn1 O8 2.177067 1_556
Mn1 O3 2.232611 1_565
Mn1 O6 2.280418 1_556
Mn1 O13 2.457300 1_555
Mn2 O1 1.928854 1_655
Mn2 O0 1.932052 1_655
Mn2 O16 2.016450 1_555
Mn2 O18 2.044927 1_555
Mn2 O2 2.048156 1_655
Mn2 O14 2.185916 1_555
Cr0 O20 2.059366 1_546
Cr0 O3 2.065729 1_655
Cr0 O17 2.072314 1_555
Cr0 O10 2.130395 1_556
Cr0 O13 2.135924 1_645
Cr0 O6 2.210897 1_646
Cr1 O14 2.017175 1_555
Cr1 O9 2.084525 1_555
Cr1 O16 2.087505 1_555
Cr1 O5 2.148752 1_555
Cr1 O18 2.153981 1_555
Cr1 O7 2.181507 1_555
O0 P1 1.517370 1_545
O1 P2 1.534970 1_554
O2 P0 1.510050 1_555
O3 P0 1.569439 1_555
O4 P0 1.530104 1_555
O4 V0 1.963361 1_555
O5 P0 1.610656 1_555
O6 P1 1.598568 1_555
O7 P1 1.603337 1_555
O8 P3 1.542086 1_555
O9 P2 1.561764 1_555
O10 P3 1.589448 1_555
O10 V0 2.060359 1_555
O11 P4 1.507306 1_555
O12 P1 1.513643 1_555
O12 V0 1.969669 1_565
O13 P2 1.602184 1_555
O14 P3 1.566324 1_555
O15 P2 1.522643 1_554
O15 V0 2.010858 1_555
O16 P4 1.602855 1_555
O17 P4 1.592838 1_555
O17 V0 2.076558 1_556
O18 P5 1.586158 1_555
O19 P5 1.497380 1_555
O20 P5 1.580154 1_555
O20 V0 2.064885 1_565
O21 P5 1.537853 1_555
O22 P3 1.497179 1_556
O23 P4 1.503796 1_565
