# generated using pymatgen
data_CsP(HO2)2
_symmetry_space_group_name_H-M   'P 1'
_cell_length_a   4.94896353
_cell_length_b   6.58935900
_cell_length_c   8.03895871
_cell_angle_alpha   90.00000000
_cell_angle_beta   107.81996615
_cell_angle_gamma   90.00000000
_symmetry_Int_Tables_number   1
_chemical_formula_structural   CsP(HO2)2
_chemical_formula_sum   'Cs2 P2 H4 O8'
_cell_volume   249.57700782
_cell_formula_units_Z   2
loop_
 _symmetry_equiv_pos_site_id
 _symmetry_equiv_pos_as_xyz
  1  'x, y, z'
loop_
 _atom_site_type_symbol
 _atom_site_label
 _atom_site_symmetry_multiplicity
 _atom_site_fract_x
 _atom_site_fract_y
 _atom_site_fract_z
 _atom_site_occupancy
  Cs  Cs0  1  0.94937100  0.75000000  0.73176100  1
  Cs  Cs1  1  0.05062900  0.25000000  0.26823900  1
  P  P0  1  0.46844900  0.25000000  0.77018000  1
  P  P1  1  0.53155100  0.75000000  0.22982000  1
  H  H0  1  0.82772300  0.25000000  0.65500500  1
  H  H1  1  0.17227700  0.75000000  0.34499500  1
  H  H2  1  0.50000000  0.00000000  0.00000000  1
  H  H3  1  0.50000000  0.50000000  0.00000000  1
  O  O0  1  0.61153000  0.25000000  0.61717300  1
  O  O1  1  0.38847000  0.75000000  0.38282700  1
  O  O2  1  0.14990600  0.25000000  0.68204500  1
  O  O3  1  0.85009400  0.75000000  0.31795500  1
  O  O4  1  0.57956100  0.05551400  0.88015300  1
  O  O5  1  0.42043900  0.55551400  0.11984700  1
  O  O6  1  0.42043900  0.94448600  0.11984700  1
  O  O7  1  0.57956100  0.44448600  0.88015300  1
loop_
_geom_bond_atom_site_label_1
_geom_bond_atom_site_label_2
_geom_bond_distance
_geom_bond_site_symmetry_2
Cs0 O7 3.187727 1_555
Cs0 O4 3.187727 1_565
Cs0 O3 3.210469 1_555
Cs0 O1 3.287571 1_555
Cs1 O5 3.187727 1_555
Cs1 O6 3.187727 1_545
Cs1 O2 3.210469 1_555
Cs1 O0 3.287571 1_555
H0 O0 1.018865 1_555
H0 O2 1.541900 1_655
H1 O1 1.018865 1_555
H1 O3 1.541900 1_455
H2 O4 1.203850 1_554
H2 O6 1.203850 1_545
H3 O5 1.203850 1_555
H3 O7 1.203850 1_554
O0 P0 1.596069 1_555
O1 P1 1.596069 1_555
O2 P0 1.517755 1_555
O3 P1 1.517755 1_555
O4 P0 1.558445 1_555
O5 P1 1.558445 1_555
O6 P1 1.558445 1_555
O7 P0 1.558445 1_555
