# generated using pymatgen
data_K2Na4Co2O5
_symmetry_space_group_name_H-M   'P 1'
_cell_length_a   6.38450900
_cell_length_b   6.38450900
_cell_length_c   10.48301700
_cell_angle_alpha   90.00000000
_cell_angle_beta   90.00000000
_cell_angle_gamma   90.00000000
_symmetry_Int_Tables_number   1
_chemical_formula_structural   K2Na4Co2O5
_chemical_formula_sum   'K4 Na8 Co4 O10'
_cell_volume   427.30826901
_cell_formula_units_Z   2
loop_
 _symmetry_equiv_pos_site_id
 _symmetry_equiv_pos_as_xyz
  1  'x, y, z'
loop_
 _atom_site_type_symbol
 _atom_site_label
 _atom_site_symmetry_multiplicity
 _atom_site_fract_x
 _atom_site_fract_y
 _atom_site_fract_z
 _atom_site_occupancy
  K  K0  1  0.19608300  0.80391700  0.50000000  1
  K  K1  1  0.80391700  0.19608300  0.50000000  1
  K  K2  1  0.30391700  0.30391700  0.00000000  1
  K  K3  1  0.69608300  0.69608300  0.00000000  1
  Na  Na0  1  0.00000000  0.50000000  0.75000000  1
  Na  Na1  1  0.50000000  0.00000000  0.75000000  1
  Na  Na2  1  0.00000000  0.50000000  0.25000000  1
  Na  Na3  1  0.50000000  0.50000000  0.27959300  1
  Na  Na4  1  0.50000000  0.50000000  0.72040700  1
  Na  Na5  1  0.50000000  0.00000000  0.25000000  1
  Na  Na6  1  0.00000000  0.00000000  0.77959300  1
  Na  Na7  1  0.00000000  0.00000000  0.22040700  1
  Co  Co0  1  0.21371200  0.78628800  0.00000000  1
  Co  Co1  1  0.71371200  0.71371200  0.50000000  1
  Co  Co2  1  0.78628800  0.21371200  0.00000000  1
  Co  Co3  1  0.28628800  0.28628800  0.50000000  1
  O  O0  1  0.50000000  0.50000000  0.50000000  1
  O  O1  1  0.21327300  0.21327300  0.33853600  1
  O  O2  1  0.78672700  0.78672700  0.66146400  1
  O  O3  1  0.21327300  0.21327300  0.66146400  1
  O  O4  1  0.71327300  0.28672700  0.16146400  1
  O  O5  1  0.28672700  0.71327300  0.83853600  1
  O  O6  1  0.71327300  0.28672700  0.83853600  1
  O  O7  1  0.28672700  0.71327300  0.16146400  1
  O  O8  1  0.78672700  0.78672700  0.33853600  1
  O  O9  1  0.00000000  0.00000000  0.00000000  1
loop_
_geom_bond_atom_site_label_1
_geom_bond_atom_site_label_2
_geom_bond_distance
_geom_bond_site_symmetry_2
K0 O0 2.744085 1_555
K0 O1 3.115705 1_565
K0 O8 3.115705 1_455
K0 O2 3.115705 1_455
K0 O3 3.115705 1_565
K1 O0 2.744085 1_555
K1 O8 3.115705 1_545
K1 O1 3.115705 1_655
K1 O2 3.115705 1_545
K1 O3 3.115705 1_655
K2 O9 2.744085 1_555
K2 O7 3.115705 1_555
K2 O4 3.115705 1_555
K2 O5 3.115705 1_554
K2 O6 3.115705 1_554
K3 O9 2.744085 1_665
K3 O4 3.115705 1_555
K3 O7 3.115705 1_555
K3 O5 3.115705 1_554
K3 O6 3.115705 1_554
Na0 O6 2.463052 1_455
Na0 O2 2.463052 1_455
Na0 O3 2.463052 1_555
Na0 O5 2.463052 1_555
Na1 O5 2.463052 1_545
Na1 O3 2.463052 1_555
Na1 O2 2.463052 1_545
Na1 O6 2.463052 1_555
Na2 O4 2.463052 1_455
Na2 O1 2.463052 1_555
Na2 O8 2.463052 1_455
Na2 O7 2.463052 1_555
Na3 O7 2.289465 1_555
Na3 O4 2.289465 1_555
Na3 O0 2.310530 1_555
Na3 O8 2.661593 1_555
Na3 O1 2.661593 1_555
Na4 O5 2.289465 1_555
Na4 O6 2.289465 1_555
Na4 O0 2.310530 1_555
Na4 O2 2.661593 1_555
Na4 O3 2.661593 1_555
Na5 O7 2.463052 1_545
Na5 O8 2.463052 1_545
Na5 O1 2.463052 1_555
Na5 O4 2.463052 1_555
Na6 O3 2.289465 1_555
Na6 O2 2.289465 1_445
Na6 O9 2.310530 1_556
Na6 O6 2.661593 1_455
Na6 O5 2.661593 1_545
Na7 O1 2.289465 1_555
Na7 O8 2.289465 1_445
Na7 O9 2.310530 1_555
Na7 O4 2.661593 1_455
Na7 O7 2.661593 1_545
Co0 O7 1.816484 1_555
Co0 O5 1.816484 1_554
Co0 O9 1.929618 1_565
Co1 O8 1.816484 1_555
Co1 O2 1.816484 1_555
Co1 O0 1.929618 1_555
Co2 O4 1.816484 1_555
Co2 O6 1.816484 1_554
Co2 O9 1.929618 1_655
Co3 O1 1.816484 1_555
Co3 O3 1.816484 1_555
Co3 O0 1.929618 1_555
