# generated using pymatgen
data_K2Sn3(SbS5)2
_symmetry_space_group_name_H-M   'P 1'
_cell_length_a   13.50931800
_cell_length_b   6.91354800
_cell_length_c   11.86796340
_cell_angle_alpha   62.45505362
_cell_angle_beta   90.00000000
_cell_angle_gamma   90.00000000
_symmetry_Int_Tables_number   1
_chemical_formula_structural   K2Sn3(SbS5)2
_chemical_formula_sum   'K4 Sn6 Sb4 S20'
_cell_volume   982.79289672
_cell_formula_units_Z   2
loop_
 _symmetry_equiv_pos_site_id
 _symmetry_equiv_pos_as_xyz
  1  'x, y, z'
loop_
 _atom_site_type_symbol
 _atom_site_label
 _atom_site_symmetry_multiplicity
 _atom_site_fract_x
 _atom_site_fract_y
 _atom_site_fract_z
 _atom_site_occupancy
  K  K0  1  0.32647400  0.44574500  0.17268800  1
  K  K1  1  0.17352600  0.44574500  0.67268800  1
  K  K2  1  0.67352600  0.55425500  0.82731200  1
  K  K3  1  0.82647400  0.55425500  0.32731200  1
  Sn  Sn0  1  0.00000000  0.50000000  0.00000000  1
  Sn  Sn1  1  0.50000000  0.50000000  0.50000000  1
  Sn  Sn2  1  0.05293600  0.11516900  0.34595700  1
  Sn  Sn3  1  0.44706400  0.11516900  0.84595700  1
  Sn  Sn4  1  0.94706400  0.88483100  0.65404300  1
  Sn  Sn5  1  0.55293600  0.88483100  0.15404300  1
  Sb  Sb0  1  0.15236500  0.01115100  0.09104100  1
  Sb  Sb1  1  0.34763500  0.01115100  0.59104100  1
  Sb  Sb2  1  0.84763500  0.98884900  0.90895900  1
  Sb  Sb3  1  0.65236500  0.98884900  0.40895900  1
  S  S0  1  0.17889500  0.40931100  0.96577000  1
  S  S1  1  0.32110500  0.40931100  0.46577000  1
  S  S2  1  0.82110500  0.59068900  0.03423000  1
  S  S3  1  0.67889500  0.59068900  0.53423000  1
  S  S4  1  0.97600900  0.07634900  0.12813200  1
  S  S5  1  0.52399100  0.07634900  0.62813200  1
  S  S6  1  0.02399100  0.92365100  0.87186800  1
  S  S7  1  0.47600900  0.92365100  0.37186800  1
  S  S8  1  0.95090700  0.49463700  0.78824700  1
  S  S9  1  0.54909300  0.49463700  0.28824700  1
  S  S10  1  0.04909300  0.50536300  0.21175300  1
  S  S11  1  0.45090700  0.50536300  0.71175300  1
  S  S12  1  0.20099000  0.95010400  0.31148300  1
  S  S13  1  0.29901000  0.95010400  0.81148300  1
  S  S14  1  0.79901000  0.04989600  0.68851700  1
  S  S15  1  0.70099000  0.04989600  0.18851700  1
  S  S16  1  0.90025700  0.91286800  0.44075400  1
  S  S17  1  0.59974300  0.91286800  0.94075400  1
  S  S18  1  0.09974300  0.08713200  0.55924600  1
  S  S19  1  0.40025700  0.08713200  0.05924600  1
loop_
_geom_bond_atom_site_label_1
_geom_bond_atom_site_label_2
_geom_bond_distance
_geom_bond_site_symmetry_2
K0 S0 3.262023 1_554
K0 S1 3.369993 1_555
K0 S9 3.386521 1_555
K0 S19 3.469899 1_555
K0 S12 3.479717 1_545
K1 S1 3.262023 1_555
K1 S0 3.369993 1_555
K1 S8 3.386521 1_455
K1 S18 3.469899 1_555
K1 S13 3.479717 1_545
K2 S2 3.262023 1_556
K2 S3 3.369993 1_555
K2 S11 3.386521 1_555
K2 S17 3.469899 1_555
K2 S14 3.479717 1_565
K3 S3 3.262023 1_555
K3 S2 3.369993 1_555
K3 S10 3.386521 1_655
K3 S16 3.469899 1_555
K3 S15 3.479717 1_565
S0 Sb0 2.476092 1_556
S0 Sn0 2.575731 1_556
S1 Sb1 2.476092 1_555
S1 Sn1 2.575731 1_555
S2 Sb2 2.476092 1_554
S2 Sn0 2.575731 1_655
S3 Sb3 2.476092 1_555
S3 Sn1 2.575731 1_555
S4 Sb0 2.501305 1_655
S4 Sn0 2.622350 1_655
S4 Sn2 2.911473 1_655
S5 Sb1 2.501305 1_555
S5 Sn1 2.622350 1_555
S5 Sn3 2.911473 1_555
S6 Sb2 2.501305 1_455
S6 Sn0 2.622350 1_556
S6 Sn4 2.911473 1_455
S7 Sb3 2.501305 1_555
S7 Sn1 2.622350 1_555
S7 Sn5 2.911473 1_555
S8 Sn4 2.417188 1_555
S8 Sn0 2.615905 1_656
S9 Sn5 2.417188 1_555
S9 Sn1 2.615905 1_555
S10 Sn2 2.417188 1_555
S10 Sn0 2.615905 1_555
S11 Sn3 2.417188 1_555
S11 Sn1 2.615905 1_555
S12 Sn2 2.429395 1_565
S12 Sb0 2.536314 1_565
S13 Sn3 2.429395 1_565
S13 Sb1 2.536314 1_565
S14 Sn4 2.429395 1_545
S14 Sb2 2.536314 1_545
S15 Sn5 2.429395 1_545
S15 Sb3 2.536314 1_545
S16 Sn2 2.453735 1_665
S16 Sn4 2.528067 1_555
S17 Sn3 2.453735 1_565
S17 Sn5 2.528067 1_556
S18 Sn4 2.453735 1_445
S18 Sn2 2.528067 1_555
S19 Sn5 2.453735 1_545
S19 Sn3 2.528067 1_554
