# generated using pymatgen
data_Cs2As3
_symmetry_space_group_name_H-M   'P 1'
_cell_length_a   7.18077642
_cell_length_b   7.18077766
_cell_length_c   9.26445938
_cell_angle_alpha   110.77656987
_cell_angle_beta   110.77659177
_cell_angle_gamma   94.90711177
_symmetry_Int_Tables_number   1
_chemical_formula_structural   Cs2As3
_chemical_formula_sum   'Cs4 As6'
_cell_volume   405.20728931
_cell_formula_units_Z   2
loop_
 _symmetry_equiv_pos_site_id
 _symmetry_equiv_pos_as_xyz
  1  'x, y, z'
loop_
 _atom_site_type_symbol
 _atom_site_label
 _atom_site_symmetry_multiplicity
 _atom_site_fract_x
 _atom_site_fract_y
 _atom_site_fract_z
 _atom_site_occupancy
  Cs  Cs0  1  0.75004742  0.24995270  0.49999988  1
  Cs  Cs1  1  0.24995270  0.75004742  0.49999988  1
  Cs  Cs2  1  0.27224120  0.72775983  0.00000002  1
  Cs  Cs3  1  0.72775983  0.27224020  0.99999902  1
  As  As0  1  0.71158040  0.71158040  0.84850988  1
  As  As1  1  0.86290627  0.86290627  0.15129185  1
  As  As2  1  0.28841894  0.28841894  0.15149039  1
  As  As3  1  0.13709351  0.13709351  0.84870842  1
  As  As4  1  0.84774726  0.84774726  0.69562314  1
  As  As5  1  0.15225246  0.15225246  0.30437752  1
loop_
_geom_bond_atom_site_label_1
_geom_bond_atom_site_label_2
_geom_bond_distance
_geom_bond_site_symmetry_2
As0 As1 2.388137 1_556
As0 As4 2.391628 1_555
As0 Cs3 3.739968 1_565
As0 Cs2 3.739974 1_656
As0 Cs1 3.832182 1_555
As0 Cs0 3.832184 1_555
As0 Cs2 3.876109 1_556
As0 Cs3 3.876110 1_555
As1 As5 2.392839 1_665
As1 Cs3 3.740581 1_564
As1 Cs2 3.740583 1_655
As1 Cs1 3.832851 1_655
As1 Cs0 3.832852 1_565
As1 Cs2 3.874182 1_555
As1 Cs3 3.874188 1_554
As2 As3 2.388137 1_554
As2 As5 2.391628 1_555
As2 Cs3 3.739963 1_454
As2 Cs2 3.739966 1_545
As2 Cs0 3.832180 1_555
As2 Cs1 3.832182 1_555
As2 Cs2 3.876122 1_555
As2 Cs3 3.876128 1_554
As3 As4 2.392840 1_445
As3 Cs3 3.740569 1_455
As3 Cs2 3.740575 1_546
As3 Cs0 3.832854 1_455
As3 Cs1 3.832855 1_545
As3 Cs3 3.874191 1_555
As3 Cs2 3.874192 1_556
As4 Cs3 3.749726 1_565
As4 Cs2 3.749734 1_656
As4 Cs1 3.907283 1_555
As4 Cs0 3.907284 1_555
As4 Cs0 3.908486 1_565
As4 Cs1 3.908486 1_655
As5 Cs3 3.749738 1_454
As5 Cs2 3.749739 1_545
As5 Cs0 3.907285 1_555
As5 Cs1 3.907286 1_555
As5 Cs1 3.908478 1_545
As5 Cs0 3.908478 1_455
