# generated using pymatgen
data_Yb5Si3SO12
_symmetry_space_group_name_H-M   'P 1'
_cell_length_a   9.33892226
_cell_length_b   9.33892226
_cell_length_c   7.02851000
_cell_angle_alpha   90.00000000
_cell_angle_beta   90.00000000
_cell_angle_gamma   120.00000187
_symmetry_Int_Tables_number   1
_chemical_formula_structural   Yb5Si3SO12
_chemical_formula_sum   'Yb10 Si6 S2 O24'
_cell_volume   530.86905601
_cell_formula_units_Z   2
loop_
 _symmetry_equiv_pos_site_id
 _symmetry_equiv_pos_as_xyz
  1  'x, y, z'
loop_
 _atom_site_type_symbol
 _atom_site_label
 _atom_site_symmetry_multiplicity
 _atom_site_fract_x
 _atom_site_fract_y
 _atom_site_fract_z
 _atom_site_occupancy
  Yb  Yb0  1  0.72229400  0.00777900  0.75000000  1
  Yb  Yb1  1  0.71451600  0.72229400  0.25000000  1
  Yb  Yb2  1  0.00777900  0.28548400  0.25000000  1
  Yb  Yb3  1  0.99222100  0.71451600  0.75000000  1
  Yb  Yb4  1  0.28548400  0.27770600  0.75000000  1
  Yb  Yb5  1  0.27770600  0.99222100  0.25000000  1
  Yb  Yb6  1  0.33333300  0.66666700  0.49805700  1
  Yb  Yb7  1  0.66666700  0.33333300  0.99805700  1
  Yb  Yb8  1  0.66666700  0.33333300  0.50194300  1
  Yb  Yb9  1  0.33333300  0.66666700  0.00194300  1
  Si  Si0  1  0.63298300  0.65168900  0.75000000  1
  Si  Si1  1  0.98129400  0.63298300  0.25000000  1
  Si  Si2  1  0.65168900  0.01870600  0.25000000  1
  Si  Si3  1  0.34831100  0.98129400  0.75000000  1
  Si  Si4  1  0.01870600  0.36701700  0.75000000  1
  Si  Si5  1  0.36701700  0.34831100  0.25000000  1
  S  S0  1  0.00000000  0.00000000  0.00000000  1
  S  S1  1  0.00000000  0.00000000  0.50000000  1
  O  O0  1  0.30414900  0.21947900  0.43413900  1
  O  O1  1  0.08467000  0.30414900  0.93413900  1
  O  O2  1  0.21947900  0.91533000  0.93413900  1
  O  O3  1  0.78052100  0.08467000  0.43413900  1
  O  O4  1  0.91533000  0.69585100  0.43413900  1
  O  O5  1  0.69585100  0.78052100  0.93413900  1
  O  O6  1  0.69585100  0.78052100  0.56586100  1
  O  O7  1  0.91533000  0.69585100  0.06586100  1
  O  O8  1  0.78052100  0.08467000  0.06586100  1
  O  O9  1  0.21947900  0.91533000  0.56586100  1
  O  O10  1  0.08467000  0.30414900  0.56586100  1
  O  O11  1  0.30414900  0.21947900  0.06586100  1
  O  O12  1  0.42998900  0.55610000  0.75000000  1
  O  O13  1  0.87388900  0.42998900  0.25000000  1
  O  O14  1  0.55610000  0.12611100  0.25000000  1
  O  O15  1  0.44390000  0.87388900  0.75000000  1
  O  O16  1  0.12611100  0.57001100  0.75000000  1
  O  O17  1  0.57001100  0.44390000  0.25000000  1
  O  O18  1  0.29996500  0.47830900  0.25000000  1
  O  O19  1  0.82165600  0.29996500  0.75000000  1
  O  O20  1  0.47830900  0.17834400  0.75000000  1
  O  O21  1  0.52169100  0.82165600  0.25000000  1
  O  O22  1  0.17834400  0.70003500  0.25000000  1
  O  O23  1  0.70003500  0.52169100  0.75000000  1
loop_
_geom_bond_atom_site_label_1
_geom_bond_atom_site_label_2
_geom_bond_distance
_geom_bond_site_symmetry_2
O0 Si5 1.661596 1_555
O0 Yb4 2.312879 1_555
O0 Yb5 2.390864 1_545
O1 Si4 1.661596 1_555
O1 Yb2 2.312876 1_556
O1 Yb4 2.390857 1_555
O2 Si3 1.661596 1_555
O2 Yb5 2.312877 1_556
O2 Yb3 2.390861 1_455
O3 Si2 1.661596 1_555
O3 Yb0 2.312877 1_555
O3 Yb2 2.390861 1_655
O4 Si1 1.661596 1_555
O4 Yb3 2.312876 1_555
O4 Yb1 2.390857 1_555
O5 Si0 1.661596 1_555
O5 Yb1 2.312879 1_556
O5 Yb0 2.390864 1_565
O6 Si0 1.661596 1_555
O6 Yb1 2.312879 1_555
O6 Yb0 2.390864 1_565
O7 Si1 1.661596 1_555
O7 Yb3 2.312876 1_554
O7 Yb1 2.390857 1_555
O8 Si2 1.661596 1_555
O8 Yb0 2.312877 1_554
O8 Yb2 2.390861 1_655
O9 Si3 1.661596 1_555
O9 Yb5 2.312877 1_555
O9 Yb3 2.390861 1_455
O10 Si4 1.661596 1_555
O10 Yb2 2.312876 1_555
O10 Yb4 2.390857 1_555
O11 Si5 1.661596 1_555
O11 Yb4 2.312879 1_554
O11 Yb5 2.390864 1_545
O12 Si0 1.642690 1_555
O12 Yb4 2.252125 1_555
O12 Yb6 2.439008 1_555
O12 Yb9 2.439008 1_556
O13 Si1 1.642690 1_555
O13 Yb2 2.252133 1_655
O13 Yb7 2.439002 1_554
O13 Yb8 2.439002 1_555
O14 Si2 1.642690 1_555
O14 Yb5 2.252125 1_545
O14 Yb7 2.439002 1_554
O14 Yb8 2.439002 1_555
O15 Si3 1.642690 1_555
O15 Yb0 2.252125 1_565
O15 Yb9 2.439002 1_556
O15 Yb6 2.439002 1_555
O16 Si4 1.642690 1_555
O16 Yb3 2.252133 1_455
O16 Yb6 2.439002 1_555
O16 Yb9 2.439002 1_556
O17 Si5 1.642690 1_555
O17 Yb1 2.252125 1_555
O17 Yb7 2.439008 1_554
O17 Yb8 2.439008 1_555
O18 Si5 1.620567 1_555
O18 Yb9 2.383890 1_555
O18 Yb6 2.383890 1_555
O18 Yb2 2.403088 1_555
O19 Si4 1.620567 1_655
O19 Yb8 2.383884 1_555
O19 Yb7 2.383884 1_555
O19 Yb0 2.403086 1_555
O20 Si3 1.620567 1_545
O20 Yb7 2.383888 1_555
O20 Yb8 2.383888 1_555
O20 Yb4 2.403095 1_555
O21 Si2 1.620567 1_565
O21 Yb9 2.383888 1_555
O21 Yb6 2.383888 1_555
O21 Yb1 2.403095 1_555
O22 Si1 1.620567 1_455
O22 Yb6 2.383884 1_555
O22 Yb9 2.383884 1_555
O22 Yb5 2.403086 1_555
O23 Si0 1.620567 1_555
O23 Yb7 2.383890 1_555
O23 Yb8 2.383890 1_555
O23 Yb3 2.403088 1_555
