# generated using pymatgen
data_AsCOF4
_symmetry_space_group_name_H-M   'P 1'
_cell_length_a   7.79307300
_cell_length_b   5.20593700
_cell_length_c   14.40613390
_cell_angle_alpha   86.54586748
_cell_angle_beta   90.00000000
_cell_angle_gamma   90.00000000
_symmetry_Int_Tables_number   1
_chemical_formula_structural   AsCOF4
_chemical_formula_sum   'As4 C4 O4 F16'
_cell_volume   583.39865183
_cell_formula_units_Z   4
loop_
 _symmetry_equiv_pos_site_id
 _symmetry_equiv_pos_as_xyz
  1  'x, y, z'
loop_
 _atom_site_type_symbol
 _atom_site_label
 _atom_site_symmetry_multiplicity
 _atom_site_fract_x
 _atom_site_fract_y
 _atom_site_fract_z
 _atom_site_occupancy
  As  As0  1  0.18516100  0.53380000  0.88130000  1
  As  As1  1  0.68516100  0.46620000  0.61870000  1
  As  As2  1  0.81483900  0.46620000  0.11870000  1
  As  As3  1  0.31483900  0.53380000  0.38130000  1
  C  C0  1  0.27664600  0.19460900  0.12631900  1
  C  C1  1  0.77664600  0.80539100  0.37368100  1
  C  C2  1  0.72335400  0.80539100  0.87368100  1
  C  C3  1  0.22335400  0.19460900  0.62631900  1
  O  O0  1  0.16613100  0.23260000  0.07460200  1
  O  O1  1  0.66613100  0.76740000  0.42539800  1
  O  O2  1  0.83386900  0.76740000  0.92539800  1
  O  O3  1  0.33386900  0.23260000  0.57460200  1
  F  F0  1  0.18047200  0.72380300  0.77779600  1
  F  F1  1  0.68047200  0.27619700  0.72220400  1
  F  F2  1  0.81952800  0.27619700  0.22220400  1
  F  F3  1  0.31952800  0.72380300  0.27779600  1
  F  F4  1  0.03263800  0.29246600  0.84728600  1
  F  F5  1  0.53263800  0.70753400  0.65271400  1
  F  F6  1  0.96736200  0.70753400  0.15271400  1
  F  F7  1  0.46736200  0.29246600  0.34728600  1
  F  F8  1  0.37304500  0.36073600  0.86627500  1
  F  F9  1  0.87304500  0.63926400  0.63372500  1
  F  F10  1  0.62695500  0.63926400  0.13372500  1
  F  F11  1  0.12695500  0.36073600  0.36627500  1
  F  F12  1  0.27626000  0.76311400  0.95825600  1
  F  F13  1  0.77626000  0.23688600  0.54174400  1
  F  F14  1  0.72374000  0.23688600  0.04174400  1
  F  F15  1  0.22374000  0.76311400  0.45825600  1
loop_
_geom_bond_atom_site_label_1
_geom_bond_atom_site_label_2
_geom_bond_distance
_geom_bond_site_symmetry_2
As0 F0 1.739360 1_555
As0 F8 1.739524 1_555
As0 F4 1.818126 1_555
As0 F12 1.821461 1_555
As1 F1 1.739360 1_555
As1 F9 1.739524 1_555
As1 F5 1.818126 1_555
As1 F13 1.821461 1_555
As2 F2 1.739360 1_555
As2 F10 1.739524 1_555
As2 F6 1.818126 1_555
As2 F14 1.821461 1_555
As3 F3 1.739360 1_555
As3 F11 1.739524 1_555
As3 F7 1.818126 1_555
As3 F15 1.821461 1_555
C0 O0 1.148130 1_555
C1 O1 1.148130 1_555
C2 O2 1.148130 1_555
C3 O3 1.148130 1_555
