# generated using pymatgen
data_SiAg6HgSe6
_symmetry_space_group_name_H-M   'P 1'
_cell_length_a   8.03276400
_cell_length_b   7.75196000
_cell_length_c   11.34810400
_cell_angle_alpha   90.00000000
_cell_angle_beta   90.00000000
_cell_angle_gamma   90.00000000
_symmetry_Int_Tables_number   1
_chemical_formula_structural   SiAg6HgSe6
_chemical_formula_sum   'Si2 Ag12 Hg2 Se12'
_cell_volume   706.64263693
_cell_formula_units_Z   2
loop_
 _symmetry_equiv_pos_site_id
 _symmetry_equiv_pos_as_xyz
  1  'x, y, z'
loop_
 _atom_site_type_symbol
 _atom_site_label
 _atom_site_symmetry_multiplicity
 _atom_site_fract_x
 _atom_site_fract_y
 _atom_site_fract_z
 _atom_site_occupancy
  Si  Si0  1  0.50000000  0.74691000  0.02928200  1
  Si  Si1  1  0.00000000  0.25309000  0.52928200  1
  Ag  Ag0  1  0.50000000  0.39259400  0.53905000  1
  Ag  Ag1  1  0.00000000  0.60740600  0.03905000  1
  Ag  Ag2  1  0.73462900  0.49070800  0.77030800  1
  Ag  Ag3  1  0.26537100  0.49070800  0.77030800  1
  Ag  Ag4  1  0.76537100  0.50929200  0.27030800  1
  Ag  Ag5  1  0.23462900  0.50929200  0.27030800  1
  Ag  Ag6  1  0.70889100  0.91334200  0.34754800  1
  Ag  Ag7  1  0.29110900  0.91334200  0.34754800  1
  Ag  Ag8  1  0.79110900  0.08665800  0.84754800  1
  Ag  Ag9  1  0.20889100  0.08665800  0.84754800  1
  Ag  Ag10  1  0.50000000  0.22327700  0.99902400  1
  Ag  Ag11  1  0.00000000  0.77672300  0.49902400  1
  Hg  Hg0  1  0.50000000  0.96871600  0.64007200  1
  Hg  Hg1  1  0.00000000  0.03128400  0.14007200  1
  Se  Se0  1  0.50000000  0.49608800  0.13672900  1
  Se  Se1  1  0.00000000  0.50391200  0.63672900  1
  Se  Se2  1  0.76180100  0.24596700  0.41477500  1
  Se  Se3  1  0.23819900  0.24596700  0.41477500  1
  Se  Se4  1  0.73819900  0.75403300  0.91477500  1
  Se  Se5  1  0.26180100  0.75403300  0.91477500  1
  Se  Se6  1  0.50000000  0.24603900  0.76654300  1
  Se  Se7  1  0.00000000  0.75396100  0.26654300  1
  Se  Se8  1  0.50000000  0.97646900  0.15612700  1
  Se  Se9  1  0.00000000  0.02353100  0.65612700  1
  Se  Se10  1  0.50000000  0.73367700  0.48791100  1
  Se  Se11  1  0.00000000  0.26632300  0.98791100  1
loop_
_geom_bond_atom_site_label_1
_geom_bond_atom_site_label_2
_geom_bond_distance
_geom_bond_site_symmetry_2
Ag0 Se10 2.707000 1_555
Ag0 Se2 2.775504 1_555
Ag0 Se3 2.775504 1_555
Ag0 Se6 2.820537 1_555
Ag1 Se11 2.707000 1_554
Ag1 Se5 2.775504 1_554
Ag1 Se4 2.775504 1_454
Ag1 Se7 2.820537 1_555
Ag2 Se1 2.617694 1_655
Ag2 Se4 2.618279 1_555
Ag2 Se6 2.674197 1_555
Ag3 Se1 2.617694 1_555
Ag3 Se5 2.618279 1_555
Ag3 Se6 2.674197 1_555
Ag4 Se0 2.617694 1_555
Ag4 Se2 2.618279 1_555
Ag4 Se7 2.674197 1_655
Ag5 Se0 2.617694 1_555
Ag5 Se3 2.618279 1_555
Ag5 Se7 2.674197 1_555
Ag6 Se10 2.700471 1_555
Ag6 Se2 2.722369 1_565
Ag6 Se8 2.788153 1_555
Ag6 Se7 2.799944 1_655
Ag7 Se10 2.700471 1_555
Ag7 Se3 2.722369 1_565
Ag7 Se8 2.788153 1_555
Ag7 Se7 2.799944 1_555
Ag8 Se11 2.700471 1_655
Ag8 Se4 2.722369 1_545
Ag8 Se9 2.788153 1_655
Ag8 Se6 2.799944 1_555
Ag9 Se11 2.700471 1_555
Ag9 Se5 2.722369 1_545
Ag9 Se9 2.788153 1_555
Ag9 Se6 2.799944 1_555
Ag10 Se8 2.615141 1_546
Ag10 Se0 2.629537 1_556
Ag10 Se6 2.644113 1_555
Ag11 Se9 2.615141 1_565
Ag11 Se1 2.629537 1_555
Ag11 Se7 2.644113 1_555
Hg0 Se10 2.510251 1_555
Hg0 Se6 2.584849 1_565
Hg1 Se11 2.510251 1_554
Hg1 Se7 2.584849 1_545
Se0 Si0 2.295057 1_555
Se1 Si1 2.295057 1_555
Se2 Si1 2.313584 1_655
Se3 Si1 2.313584 1_555
Se4 Si0 2.313584 1_556
Se5 Si0 2.313584 1_556
Se8 Si0 2.288832 1_555
Se9 Si1 2.288832 1_555
