# generated using pymatgen
data_Ti2O3
_symmetry_space_group_name_H-M   'P 1'
_cell_length_a   3.01496730
_cell_length_b   5.15550331
_cell_length_c   7.23138802
_cell_angle_alpha   78.25079702
_cell_angle_beta   90.00000000
_cell_angle_gamma   90.00000000
_symmetry_Int_Tables_number   1
_chemical_formula_structural   Ti2O3
_chemical_formula_sum   'Ti4 O6'
_cell_volume   110.04731762
_cell_formula_units_Z   2
loop_
 _symmetry_equiv_pos_site_id
 _symmetry_equiv_pos_as_xyz
  1  'x, y, z'
loop_
 _atom_site_type_symbol
 _atom_site_label
 _atom_site_symmetry_multiplicity
 _atom_site_fract_x
 _atom_site_fract_y
 _atom_site_fract_z
 _atom_site_occupancy
  Ti  Ti0  1  0.75000000  0.84065600  0.65963350  1
  Ti  Ti1  1  0.75000000  0.73242399  0.02354785  1
  Ti  Ti2  1  0.25000000  0.26757601  0.97645215  1
  Ti  Ti3  1  0.25000000  0.15934400  0.34036650  1
  O  O0  1  0.25000000  0.94058714  0.84812876  1
  O  O1  1  0.25000000  0.78930943  0.50475977  1
  O  O2  1  0.75000000  0.48283576  0.83273224  1
  O  O3  1  0.25000000  0.51716424  0.16726776  1
  O  O4  1  0.75000000  0.21069057  0.49524023  1
  O  O5  1  0.75000000  0.05941286  0.15187124  1
loop_
_geom_bond_atom_site_label_1
_geom_bond_atom_site_label_2
_geom_bond_distance
_geom_bond_site_symmetry_2
O0 Ti2 2.083287 1_565
O0 Ti1 2.116356 1_556
O0 Ti1 2.116356 1_456
O0 Ti0 2.163775 1_455
O0 Ti0 2.163775 1_555
O1 Ti0 1.928112 1_555
O1 Ti0 1.928112 1_455
O1 Ti3 2.031992 1_565
O2 Ti0 2.007368 1_555
O2 Ti2 2.028426 1_555
O2 Ti2 2.028426 1_655
O2 Ti1 2.069505 1_556
O3 Ti3 2.007368 1_555
O3 Ti1 2.028426 1_555
O3 Ti1 2.028426 1_455
O3 Ti2 2.069505 1_554
O4 Ti3 1.928112 1_655
O4 Ti3 1.928112 1_555
O4 Ti0 2.031992 1_545
O5 Ti1 2.083287 1_545
O5 Ti2 2.116356 1_654
O5 Ti2 2.116356 1_554
O5 Ti3 2.163775 1_655
O5 Ti3 2.163775 1_555
