# generated using pymatgen
data_TbSF
_symmetry_space_group_name_H-M   'P 1'
_cell_length_a   3.78629042
_cell_length_b   3.78629042
_cell_length_c   6.82317797
_cell_angle_alpha   90.00000000
_cell_angle_beta   90.00000000
_cell_angle_gamma   90.00000000
_symmetry_Int_Tables_number   1
_chemical_formula_structural   TbSF
_chemical_formula_sum   'Tb2 S2 F2'
_cell_volume   97.81704625
_cell_formula_units_Z   2
loop_
 _symmetry_equiv_pos_site_id
 _symmetry_equiv_pos_as_xyz
  1  'x, y, z'
loop_
 _atom_site_type_symbol
 _atom_site_label
 _atom_site_symmetry_multiplicity
 _atom_site_fract_x
 _atom_site_fract_y
 _atom_site_fract_z
 _atom_site_occupancy
  Tb  Tb0  1  0.75000000  0.75000000  0.77295644  1
  Tb  Tb1  1  0.25000000  0.25000000  0.22704356  1
  S  S0  1  0.25000000  0.25000000  0.64594336  1
  S  S1  1  0.75000000  0.75000000  0.35405664  1
  F  F0  1  0.25000000  0.75000000  -0.00000000  1
  F  F1  1  0.75000000  0.25000000  0.00000000  1
loop_
_geom_bond_atom_site_label_1
_geom_bond_atom_site_label_2
_geom_bond_distance
_geom_bond_site_symmetry_2
S0 Tb0 2.814081 1_555
S0 Tb0 2.814081 1_455
S0 Tb0 2.814081 1_445
S0 Tb0 2.814081 1_545
S0 Tb1 2.858228 1_555
S1 Tb1 2.814081 1_565
S1 Tb1 2.814081 1_655
S1 Tb1 2.814081 1_665
S1 Tb1 2.814081 1_555
S1 Tb0 2.858228 1_555
F0 Tb1 2.446199 1_565
F0 Tb0 2.446199 1_454
F0 Tb1 2.446199 1_555
F0 Tb0 2.446199 1_554
F1 Tb0 2.446199 1_554
F1 Tb1 2.446199 1_555
F1 Tb1 2.446199 1_655
F1 Tb0 2.446199 1_544
