# generated using pymatgen
data_Lu3Ge4
_symmetry_space_group_name_H-M   'P 1'
_cell_length_a   3.96178992
_cell_length_b   5.56817437
_cell_length_c   13.99178930
_cell_angle_alpha   90.00000000
_cell_angle_beta   90.00000000
_cell_angle_gamma   110.83959791
_symmetry_Int_Tables_number   1
_chemical_formula_structural   Lu3Ge4
_chemical_formula_sum   'Lu6 Ge8'
_cell_volume   288.46559632
_cell_formula_units_Z   2
loop_
 _symmetry_equiv_pos_site_id
 _symmetry_equiv_pos_as_xyz
  1  'x, y, z'
loop_
 _atom_site_type_symbol
 _atom_site_label
 _atom_site_symmetry_multiplicity
 _atom_site_fract_x
 _atom_site_fract_y
 _atom_site_fract_z
 _atom_site_occupancy
  Lu  Lu0  1  0.33260934  0.66521868  0.40314713  1
  Lu  Lu1  1  0.66739066  0.33478132  0.59685287  1
  Lu  Lu2  1  0.33260934  0.66521868  0.09685287  1
  Lu  Lu3  1  0.66739066  0.33478132  0.90314713  1
  Lu  Lu4  1  0.05093788  0.10187576  0.25000000  1
  Lu  Lu5  1  0.94906212  0.89812424  0.75000000  1
  Ge  Ge0  1  0.37746266  0.75492431  0.60868041  1
  Ge  Ge1  1  0.62253734  0.24507569  0.39131959  1
  Ge  Ge2  1  0.37746266  0.75492431  0.89131959  1
  Ge  Ge3  1  0.62253734  0.24507569  0.10868041  1
  Ge  Ge4  1  0.78106787  0.56213574  0.25000000  1
  Ge  Ge5  1  0.21893213  0.43786426  0.75000000  1
  Ge  Ge6  1  -0.00000000  -0.00000000  0.50000000  1
  Ge  Ge7  1  -0.00000000  -0.00000000  0.00000000  1
loop_
_geom_bond_atom_site_label_1
_geom_bond_atom_site_label_2
_geom_bond_distance
_geom_bond_site_symmetry_2
Ge0 Ge5 2.575288 1_555
Ge0 Ge6 2.804065 1_665
Ge0 Ge6 2.804068 1_565
Ge0 Lu5 2.896382 1_555
Ge0 Lu5 2.896385 1_455
Ge0 Lu0 2.913421 1_555
Ge0 Lu1 2.954928 1_555
Ge0 Lu1 2.954931 1_455
Ge0 Lu1 3.022055 1_565
Ge1 Ge4 2.575288 1_555
Ge1 Ge6 2.804065 1_555
Ge1 Ge6 2.804068 1_655
Ge1 Lu4 2.896382 1_555
Ge1 Lu4 2.896385 1_655
Ge1 Lu1 2.913421 1_555
Ge1 Lu0 2.954928 1_555
Ge1 Lu0 2.954931 1_655
Ge1 Lu0 3.022055 1_545
Ge2 Ge5 2.575288 1_555
Ge2 Ge7 2.804065 1_666
Ge2 Ge7 2.804068 1_566
Ge2 Lu5 2.896382 1_555
Ge2 Lu5 2.896385 1_455
Ge2 Lu2 2.913421 1_556
Ge2 Lu3 2.954928 1_555
Ge2 Lu3 2.954931 1_455
Ge2 Lu3 3.022055 1_565
Ge3 Ge4 2.575288 1_555
Ge3 Ge7 2.804065 1_555
Ge3 Ge7 2.804068 1_655
Ge3 Lu4 2.896382 1_555
Ge3 Lu4 2.896385 1_655
Ge3 Lu3 2.913421 1_554
Ge3 Lu2 2.954928 1_555
Ge3 Lu2 2.954931 1_655
Ge3 Lu2 3.022055 1_545
Ge4 Lu4 2.808756 1_665
Ge4 Lu2 2.967037 1_555
Ge4 Lu0 2.967037 1_555
Ge4 Lu2 2.967037 1_655
Ge4 Lu0 2.967037 1_655
Ge4 Lu4 3.108164 1_655
Ge4 Lu4 3.108164 1_555
Ge5 Lu5 2.808756 1_445
Ge5 Lu1 2.967037 1_555
Ge5 Lu3 2.967037 1_555
Ge5 Lu3 2.967037 1_455
Ge5 Lu1 2.967037 1_455
Ge5 Lu5 3.108164 1_455
Ge5 Lu5 3.108164 1_555
Ge6 Lu1 2.965724 1_455
Ge6 Lu0 2.965724 1_545
Ge6 Lu1 2.965724 1_555
Ge6 Lu0 2.965724 1_445
Ge7 Lu3 2.965724 1_454
Ge7 Lu2 2.965724 1_545
Ge7 Lu3 2.965724 1_554
Ge7 Lu2 2.965724 1_445
