# generated using pymatgen
data_Hg3P
_symmetry_space_group_name_H-M   'P 1'
_cell_length_a   5.98143195
_cell_length_b   5.98143195
_cell_length_c   6.05385200
_cell_angle_alpha   90.00000000
_cell_angle_beta   90.00000000
_cell_angle_gamma   119.99999940
_symmetry_Int_Tables_number   1
_chemical_formula_structural   Hg3P
_chemical_formula_sum   'Hg6 P2'
_cell_volume   187.57405428
_cell_formula_units_Z   2
loop_
 _symmetry_equiv_pos_site_id
 _symmetry_equiv_pos_as_xyz
  1  'x, y, z'
loop_
 _atom_site_type_symbol
 _atom_site_label
 _atom_site_symmetry_multiplicity
 _atom_site_fract_x
 _atom_site_fract_y
 _atom_site_fract_z
 _atom_site_occupancy
  Hg  Hg0  1  0.83151600  0.16848400  0.75000000  1
  Hg  Hg1  1  0.33696800  0.16848400  0.75000000  1
  Hg  Hg2  1  0.83151600  0.66303200  0.75000000  1
  Hg  Hg3  1  0.16848400  0.83151600  0.25000000  1
  Hg  Hg4  1  0.66303200  0.83151600  0.25000000  1
  Hg  Hg5  1  0.16848400  0.33696800  0.25000000  1
  P  P0  1  0.66666700  0.33333300  0.25000000  1
  P  P1  1  0.33333300  0.66666700  0.75000000  1
loop_
_geom_bond_atom_site_label_1
_geom_bond_atom_site_label_2
_geom_bond_distance
_geom_bond_site_symmetry_2
Hg0 Hg1 2.958105 1_555
Hg0 Hg2 2.958105 1_555
Hg0 P1 2.990775 1_545
Hg0 P1 2.990775 1_655
Hg0 Hg2 3.023327 1_545
Hg0 Hg1 3.023327 1_655
Hg1 Hg2 2.958105 1_555
Hg1 P1 2.990772 1_545
Hg1 P1 2.990778 1_555
Hg1 Hg2 3.023327 1_445
Hg2 P1 2.990772 1_655
Hg2 P1 2.990778 1_555
Hg3 Hg5 2.958105 1_555
Hg3 Hg4 2.958105 1_555
Hg3 P0 2.990775 1_455
Hg3 P0 2.990775 1_565
Hg3 Hg4 3.023327 1_455
Hg3 Hg5 3.023327 1_565
Hg4 Hg5 2.958105 1_555
Hg4 P0 2.990772 1_565
Hg4 P0 2.990778 1_555
Hg4 Hg5 3.023327 1_665
Hg5 P0 2.990772 1_455
Hg5 P0 2.990778 1_555
