# generated using pymatgen
data_Co(SbO2)2
_symmetry_space_group_name_H-M   'P 1'
_cell_length_a   6.09945101
_cell_length_b   8.58780421
_cell_length_c   8.58762721
_cell_angle_alpha   89.97498058
_cell_angle_beta   90.00352108
_cell_angle_gamma   90.00340193
_symmetry_Int_Tables_number   1
_chemical_formula_structural   Co(SbO2)2
_chemical_formula_sum   'Co4 Sb8 O16'
_cell_volume   449.82752037
_cell_formula_units_Z   4
loop_
 _symmetry_equiv_pos_site_id
 _symmetry_equiv_pos_as_xyz
  1  'x, y, z'
loop_
 _atom_site_type_symbol
 _atom_site_label
 _atom_site_symmetry_multiplicity
 _atom_site_fract_x
 _atom_site_fract_y
 _atom_site_fract_z
 _atom_site_occupancy
  Co  Co0  1  0.24999600  0.49999800  0.00000000  1
  Co  Co1  1  0.74999000  0.49999900  0.99999900  1
  Co  Co2  1  0.75010100  0.00000500  0.49999400  1
  Co  Co3  1  0.24996600  0.00000000  0.50000200  1
  Sb  Sb0  1  0.49999900  0.33383300  0.32424700  1
  Sb  Sb1  1  0.99999400  0.32412400  0.66612600  1
  Sb  Sb2  1  0.49999700  0.16612600  0.82410800  1
  Sb  Sb3  1  0.00000000  0.82423700  0.83382600  1
  Sb  Sb4  1  0.50000300  0.66617000  0.67575300  1
  Sb  Sb5  1  0.99999600  0.67588300  0.33387700  1
  Sb  Sb6  1  0.49999900  0.83386900  0.17588800  1
  Sb  Sb7  1  0.00000400  0.17575800  0.16617400  1
  O  O0  1  0.49999400  0.86127000  0.40346500  1
  O  O1  1  0.00000200  0.40362500  0.13852900  1
  O  O2  1  0.50000400  0.63853100  0.90362700  1
  O  O3  1  0.99999600  0.90346100  0.36125200  1
  O  O4  1  0.49997100  0.13874200  0.59654800  1
  O  O5  1  0.00000500  0.59638100  0.86146600  1
  O  O6  1  0.50000400  0.36146300  0.09637900  1
  O  O7  1  0.99997400  0.09652600  0.63873600  1
  O  O8  1  0.75000300  0.32255800  0.82255600  1
  O  O9  1  0.25000300  0.82240200  0.67759400  1
  O  O10  1  0.74999900  0.17760100  0.32241100  1
  O  O11  1  0.24999600  0.32255800  0.82256000  1
  O  O12  1  0.75000200  0.82239100  0.67759600  1
  O  O13  1  0.24999600  0.17759900  0.32240400  1
  O  O14  1  0.25000500  0.67744400  0.17744100  1
  O  O15  1  0.75000100  0.67744500  0.17744500  1
loop_
_geom_bond_atom_site_label_1
_geom_bond_atom_site_label_2
_geom_bond_distance
_geom_bond_site_symmetry_2
Co0 O1 2.103453 1_555
Co0 O5 2.103463 1_554
Co0 O2 2.103510 1_554
Co0 O6 2.103569 1_555
Co0 O11 2.155455 1_554
Co0 O14 2.155498 1_555
Co1 O2 2.103433 1_555
Co1 O6 2.103451 1_556
Co1 O1 2.103506 1_656
Co1 O5 2.103596 1_655
Co1 O8 2.155479 1_555
Co1 O15 2.155528 1_556
Co2 O7 2.104757 1_555
Co2 O3 2.105109 1_545
Co2 O0 2.105792 1_545
Co2 O4 2.106164 1_555
Co2 O10 2.156329 1_555
Co2 O12 2.156554 1_545
Co3 O3 2.105285 1_445
Co3 O4 2.105432 1_555
Co3 O7 2.105438 1_455
Co3 O0 2.105622 1_545
Co3 O9 2.156396 1_545
Co3 O13 2.156439 1_555
O0 Sb6 1.968564 1_555
O1 Sb7 1.971122 1_555
O2 Sb4 1.971136 1_555
O3 Sb5 1.968585 1_555
O4 Sb2 1.968402 1_555
O5 Sb3 1.971024 1_555
O6 Sb0 1.971076 1_555
O7 Sb1 1.968771 1_555
O8 Sb2 2.032236 1_555
O8 Sb1 2.032259 1_555
O9 Sb3 2.031217 1_555
O9 Sb4 2.031219 1_555
O10 Sb0 2.031219 1_555
O10 Sb7 2.031255 1_655
O11 Sb1 2.032209 1_455
O11 Sb2 2.032331 1_555
O12 Sb4 2.031032 1_555
O12 Sb3 2.031058 1_655
O13 Sb7 2.031030 1_555
O13 Sb0 2.031124 1_555
O14 Sb6 2.032141 1_555
O14 Sb5 2.032375 1_455
O15 Sb5 2.032166 1_555
O15 Sb6 2.032291 1_555
