# generated using pymatgen
data_TeMoSe
_symmetry_space_group_name_H-M   'P 1'
_cell_length_a   3.44056552
_cell_length_b   3.44056552
_cell_length_c   39.07257000
_cell_angle_alpha   90.00000000
_cell_angle_beta   90.00000000
_cell_angle_gamma   119.99999068
_symmetry_Int_Tables_number   1
_chemical_formula_structural   TeMoSe
_chemical_formula_sum   'Te4 Mo4 Se4'
_cell_volume   400.55514514
_cell_formula_units_Z   4
loop_
 _symmetry_equiv_pos_site_id
 _symmetry_equiv_pos_as_xyz
  1  'x, y, z'
loop_
 _atom_site_type_symbol
 _atom_site_label
 _atom_site_symmetry_multiplicity
 _atom_site_fract_x
 _atom_site_fract_y
 _atom_site_fract_z
 _atom_site_occupancy
  Te  Te0  1  0.33333300  0.66666700  0.70503000  1
  Te  Te1  1  0.66666700  0.33333300  0.42216600  1
  Te  Te2  1  0.66666700  0.33333300  0.51712400  1
  Te  Te3  1  0.33333300  0.66666700  0.61006300  1
  Mo  Mo0  1  0.33333300  0.66666700  0.09392700  1
  Mo  Mo1  1  0.33333300  0.66666700  0.46962700  1
  Mo  Mo2  1  0.66666700  0.33333300  0.28178200  1
  Mo  Mo3  1  0.66666700  0.33333300  0.65755900  1
  Se  Se0  1  0.33333300  0.66666700  0.32369000  1
  Se  Se1  1  0.66666700  0.33333300  0.05205400  1
  Se  Se2  1  0.66666700  0.33333300  0.13581200  1
  Se  Se3  1  0.33333300  0.66666700  0.23991500  1
loop_
_geom_bond_atom_site_label_1
_geom_bond_atom_site_label_2
_geom_bond_distance
_geom_bond_site_symmetry_2
Mo0 Se1 2.573441 1_455
Mo0 Se1 2.573441 1_565
Mo0 Se1 2.573446 1_555
Mo0 Se2 2.573739 1_455
Mo0 Se2 2.573739 1_565
Mo0 Se2 2.573744 1_555
Mo1 Te1 2.717482 1_455
Mo1 Te1 2.717482 1_565
Mo1 Te1 2.717486 1_555
Mo1 Te2 2.718442 1_455
Mo1 Te2 2.718442 1_565
Mo1 Te2 2.718446 1_555
Mo2 Se3 2.573292 1_545
Mo2 Se3 2.573292 1_655
Mo2 Se3 2.573297 1_555
Mo2 Se0 2.574311 1_655
Mo2 Se0 2.574311 1_545
Mo2 Se0 2.574315 1_555
Mo3 Te0 2.717749 1_545
Mo3 Te0 2.717749 1_655
Mo3 Te0 2.717753 1_555
Mo3 Te3 2.718415 1_655
Mo3 Te3 2.718415 1_545
Mo3 Te3 2.718420 1_555
