# generated using pymatgen
data_K2HgH4PtC6(N3O)2
_symmetry_space_group_name_H-M   'P 1'
_cell_length_a   7.79359100
_cell_length_b   9.71725900
_cell_length_c   11.52729679
_cell_angle_alpha   68.17563118
_cell_angle_beta   90.00000000
_cell_angle_gamma   90.00000000
_symmetry_Int_Tables_number   1
_chemical_formula_structural   K2HgH4PtC6(N3O)2
_chemical_formula_sum   'K4 Hg2 H8 Pt2 C12 N12 O4'
_cell_volume   810.42012537
_cell_formula_units_Z   2
loop_
 _symmetry_equiv_pos_site_id
 _symmetry_equiv_pos_as_xyz
  1  'x, y, z'
loop_
 _atom_site_type_symbol
 _atom_site_label
 _atom_site_symmetry_multiplicity
 _atom_site_fract_x
 _atom_site_fract_y
 _atom_site_fract_z
 _atom_site_occupancy
  K  K0  1  0.78757200  0.44373000  0.64200400  1
  K  K1  1  0.28757200  0.55627000  0.85799600  1
  K  K2  1  0.21242800  0.55627000  0.35799600  1
  K  K3  1  0.71242800  0.44373000  0.14200400  1
  Hg  Hg0  1  0.50000000  0.00000000  0.00000000  1
  Hg  Hg1  1  0.00000000  0.00000000  0.50000000  1
  H  H0  1  0.38417500  0.30311000  0.63383800  1
  H  H1  1  0.88417500  0.69689000  0.86616200  1
  H  H2  1  0.61582500  0.69689000  0.36616200  1
  H  H3  1  0.11582500  0.30311000  0.13383800  1
  H  H4  1  0.39612900  0.46918900  0.61974900  1
  H  H5  1  0.89612900  0.53081100  0.88025100  1
  H  H6  1  0.60387100  0.53081100  0.38025100  1
  H  H7  1  0.10387100  0.46918900  0.11974900  1
  Pt  Pt0  1  0.00000000  0.00000000  0.00000000  1
  Pt  Pt1  1  0.50000000  0.00000000  0.50000000  1
  C  C0  1  0.01971400  0.21520800  0.89545500  1
  C  C1  1  0.51971400  0.78479200  0.60454500  1
  C  C2  1  0.98028600  0.78479200  0.10454500  1
  C  C3  1  0.48028600  0.21520800  0.39545500  1
  C  C4  1  0.03845000  0.93507200  0.85665500  1
  C  C5  1  0.53845000  0.06492800  0.64334500  1
  C  C6  1  0.96155000  0.06492800  0.14334500  1
  C  C7  1  0.46155000  0.93507200  0.35665500  1
  C  C8  1  0.53014900  0.21587600  0.97638200  1
  C  C9  1  0.03014900  0.78412400  0.52361800  1
  C  C10  1  0.46985100  0.78412400  0.02361800  1
  C  C11  1  0.96985100  0.21587600  0.47638200  1
  N  N0  1  0.02606500  0.34431300  0.84164800  1
  N  N1  1  0.52606500  0.65568700  0.65835200  1
  N  N2  1  0.97393500  0.65568700  0.15835200  1
  N  N3  1  0.47393500  0.34431300  0.34164800  1
  N  N4  1  0.05773400  0.88603400  0.77837100  1
  N  N5  1  0.55773400  0.11396600  0.72162900  1
  N  N6  1  0.94226600  0.11396600  0.22162900  1
  N  N7  1  0.44226600  0.88603400  0.27837100  1
  N  N8  1  0.54872000  0.34075800  0.96046100  1
  N  N9  1  0.04872000  0.65924200  0.53953900  1
  N  N10  1  0.45128000  0.65924200  0.03953900  1
  N  N11  1  0.95128000  0.34075800  0.46046100  1
  O  O0  1  0.33480200  0.40132100  0.58971600  1
  O  O1  1  0.83480200  0.59867900  0.91028400  1
  O  O2  1  0.66519800  0.59867900  0.41028400  1
  O  O3  1  0.16519800  0.40132100  0.08971600  1
loop_
_geom_bond_atom_site_label_1
_geom_bond_atom_site_label_2
_geom_bond_distance
_geom_bond_site_symmetry_2
K0 O2 2.705762 1_555
K0 N0 2.833954 1_655
K0 N9 2.843228 1_655
K0 N11 2.926666 1_555
K0 N1 2.952962 1_555
K1 O3 2.705762 1_556
K1 N1 2.833954 1_555
K1 N8 2.843228 1_555
K1 N10 2.926666 1_556
K1 N0 2.952962 1_555
K2 O0 2.705762 1_555
K2 N2 2.833954 1_455
K2 N11 2.843228 1_455
K2 N9 2.926666 1_555
K2 N3 2.952962 1_555
K3 O1 2.705762 1_554
K3 N3 2.833954 1_555
K3 N10 2.843228 1_555
K3 N8 2.926666 1_554
K3 N2 2.952962 1_555
H0 O0 0.978069 1_555
H1 O1 0.978069 1_555
H2 O2 0.978069 1_555
H3 O3 0.978069 1_555
H4 O0 0.976209 1_555
H5 O1 0.976209 1_555
H6 O2 0.976209 1_555
H7 O3 0.976209 1_555
C0 N0 1.175792 1_555
C0 Pt0 1.993828 1_556
C1 N1 1.175792 1_555
C1 Pt1 1.993828 1_565
C2 N2 1.175792 1_555
C2 Pt0 1.993828 1_665
C3 N3 1.175792 1_555
C3 Pt1 1.993828 1_555
C4 N4 1.176311 1_555
C4 Pt0 1.998340 1_566
C5 N5 1.176311 1_555
C5 Pt1 1.998340 1_555
C6 N6 1.176311 1_555
C6 Pt0 1.998340 1_655
C7 N7 1.176311 1_555
C7 Pt1 1.998340 1_565
C8 N8 1.166896 1_555
C8 Hg0 2.026114 1_556
C9 N9 1.166896 1_555
C9 Hg1 2.026114 1_565
C10 N10 1.166896 1_555
C10 Hg0 2.026114 1_565
C11 N11 1.166896 1_555
C11 Hg1 2.026114 1_655
