# generated using pymatgen
data_MgGePd2
_symmetry_space_group_name_H-M   'P 1'
_cell_length_a   4.40650673
_cell_length_b   4.40650673
_cell_length_c   4.40650673
_cell_angle_alpha   60.00000000
_cell_angle_beta   60.00000000
_cell_angle_gamma   60.00000000
_symmetry_Int_Tables_number   1
_chemical_formula_structural   MgGePd2
_chemical_formula_sum   'Mg1 Ge1 Pd2'
_cell_volume   60.50180275
_cell_formula_units_Z   1
loop_
 _symmetry_equiv_pos_site_id
 _symmetry_equiv_pos_as_xyz
  1  'x, y, z'
loop_
 _atom_site_type_symbol
 _atom_site_label
 _atom_site_symmetry_multiplicity
 _atom_site_fract_x
 _atom_site_fract_y
 _atom_site_fract_z
 _atom_site_occupancy
  Mg  Mg0  1  -0.00000000  0.00000000  -0.00000000  1
  Ge  Ge0  1  0.50000000  0.50000000  0.50000000  1
  Pd  Pd0  1  0.75000000  0.75000000  0.75000000  1
  Pd  Pd1  1  0.25000000  0.25000000  0.25000000  1
loop_
_geom_bond_atom_site_label_1
_geom_bond_atom_site_label_2
_geom_bond_distance
_geom_bond_site_symmetry_2
Mg0 Pd1 2.698423 1_554
Mg0 Pd0 2.698423 1_444
Mg0 Pd1 2.698423 1_455
Mg0 Pd0 2.698423 1_445
Mg0 Pd1 2.698423 1_555
Mg0 Pd0 2.698423 1_544
Mg0 Pd1 2.698423 1_545
Mg0 Pd0 2.698423 1_454
Ge0 Pd0 2.698423 1_554
Ge0 Pd0 2.698423 1_555
Ge0 Pd1 2.698423 1_555
Ge0 Pd0 2.698423 1_545
Ge0 Pd1 2.698423 1_655
Ge0 Pd1 2.698423 1_556
Ge0 Pd0 2.698423 1_455
Ge0 Pd1 2.698423 1_565
Ge0 Mg0 3.115871 1_656
Ge0 Mg0 3.115871 1_556
Ge0 Mg0 3.115871 1_566
Ge0 Mg0 3.115871 1_655
Ge0 Mg0 3.115871 1_665
Ge0 Mg0 3.115871 1_565
