# generated using pymatgen
data_Na14(WO3)19
_symmetry_space_group_name_H-M   'P 1'
_cell_length_a   3.94263900
_cell_length_b   3.94263900
_cell_length_c   75.06713600
_cell_angle_alpha   90.00000000
_cell_angle_beta   90.00000000
_cell_angle_gamma   90.00000000
_symmetry_Int_Tables_number   1
_chemical_formula_structural   Na14(WO3)19
_chemical_formula_sum   'Na14 W19 O57'
_cell_volume   1166.87376032
_cell_formula_units_Z   1
loop_
 _symmetry_equiv_pos_site_id
 _symmetry_equiv_pos_as_xyz
  1  'x, y, z'
loop_
 _atom_site_type_symbol
 _atom_site_label
 _atom_site_symmetry_multiplicity
 _atom_site_fract_x
 _atom_site_fract_y
 _atom_site_fract_z
 _atom_site_occupancy
  Na  Na0  1  0.00000000  0.00000000  0.05264900  1
  Na  Na1  1  0.00000000  0.00000000  0.31566900  1
  Na  Na2  1  0.00000000  0.00000000  0.57903600  1
  Na  Na3  1  0.00000000  0.00000000  0.68433100  1
  Na  Na4  1  0.00000000  0.00000000  0.84215000  1
  Na  Na5  1  0.00000000  0.00000000  0.94735100  1
  Na  Na6  1  0.00000000  0.00000000  0.15785000  1
  Na  Na7  1  0.00000000  0.00000000  0.26205000  1
  Na  Na8  1  0.00000000  0.00000000  0.36846300  1
  Na  Na9  1  0.00000000  0.00000000  0.42096400  1
  Na  Na10  1  0.00000000  0.00000000  0.47382100  1
  Na  Na11  1  0.00000000  0.00000000  0.52617900  1
  Na  Na12  1  0.00000000  0.00000000  0.63153700  1
  Na  Na13  1  0.00000000  0.00000000  0.73795000  1
  W  W0  1  0.50000000  0.50000000  0.86906300  1
  W  W1  1  0.50000000  0.50000000  0.81549300  1
  W  W2  1  0.50000000  0.50000000  0.97407200  1
  W  W3  1  0.50000000  0.50000000  0.92067800  1
  W  W4  1  0.50000000  0.50000000  0.07932200  1
  W  W5  1  0.50000000  0.50000000  0.02592800  1
  W  W6  1  0.50000000  0.50000000  0.13093700  1
  W  W7  1  0.50000000  0.50000000  0.18450700  1
  W  W8  1  0.50000000  0.50000000  0.23595800  1
  W  W9  1  0.50000000  0.50000000  0.28898100  1
  W  W10  1  0.50000000  0.50000000  0.34194200  1
  W  W11  1  0.50000000  0.50000000  0.44735000  1
  W  W12  1  0.50000000  0.50000000  0.39463700  1
  W  W13  1  0.50000000  0.50000000  0.55265000  1
  W  W14  1  0.50000000  0.50000000  0.50000000  1
  W  W15  1  0.50000000  0.50000000  0.60536300  1
  W  W16  1  0.50000000  0.50000000  0.65805800  1
  W  W17  1  0.50000000  0.50000000  0.71101900  1
  W  W18  1  0.50000000  0.50000000  0.76404200  1
  O  O0  1  0.00000000  0.50000000  0.81702600  1
  O  O1  1  0.00000000  0.50000000  0.86749600  1
  O  O2  1  0.00000000  0.50000000  0.92167600  1
  O  O3  1  0.00000000  0.50000000  0.97325800  1
  O  O4  1  0.00000000  0.50000000  0.13250400  1
  O  O5  1  0.00000000  0.50000000  0.18297400  1
  O  O6  1  0.00000000  0.50000000  0.76268700  1
  O  O7  1  0.50000000  0.50000000  0.79054700  1
  O  O8  1  0.50000000  0.50000000  0.84226100  1
  O  O9  1  0.50000000  0.00000000  0.81702600  1
  O  O10  1  0.50000000  0.00000000  0.92167600  1
  O  O11  1  0.50000000  0.50000000  0.89410800  1
  O  O12  1  0.50000000  0.00000000  0.86749600  1
  O  O13  1  0.50000000  0.50000000  0.94806400  1
  O  O14  1  0.50000000  0.50000000  0.00000000  1
  O  O15  1  0.50000000  0.00000000  0.97325800  1
  O  O16  1  0.50000000  0.50000000  0.05193600  1
  O  O17  1  0.50000000  0.00000000  0.02674200  1
  O  O18  1  0.50000000  0.50000000  0.10589200  1
  O  O19  1  0.50000000  0.00000000  0.07832400  1
  O  O20  1  0.50000000  0.00000000  0.13250400  1
  O  O21  1  0.50000000  0.00000000  0.18297400  1
  O  O22  1  0.50000000  0.00000000  0.23731300  1
  O  O23  1  0.50000000  0.50000000  0.15773900  1
  O  O24  1  0.50000000  0.50000000  0.20945300  1
  O  O25  1  0.50000000  0.50000000  0.26351000  1
  O  O26  1  0.50000000  0.00000000  0.28910100  1
  O  O27  1  0.50000000  0.00000000  0.34198900  1
  O  O28  1  0.50000000  0.50000000  0.31456100  1
  O  O29  1  0.50000000  0.00000000  0.39471200  1
  O  O30  1  0.50000000  0.50000000  0.42015600  1
  O  O31  1  0.50000000  0.00000000  0.44734800  1
  O  O32  1  0.50000000  0.50000000  0.36922400  1
  O  O33  1  0.50000000  0.00000000  0.50000000  1
  O  O34  1  0.50000000  0.50000000  0.52542400  1
  O  O35  1  0.50000000  0.00000000  0.55265200  1
  O  O36  1  0.50000000  0.00000000  0.60528800  1
  O  O37  1  0.50000000  0.50000000  0.47457600  1
  O  O38  1  0.50000000  0.50000000  0.63077600  1
  O  O39  1  0.50000000  0.00000000  0.65801100  1
  O  O40  1  0.50000000  0.00000000  0.71089900  1
  O  O41  1  0.50000000  0.50000000  0.57984400  1
  O  O42  1  0.50000000  0.50000000  0.73649000  1
  O  O43  1  0.50000000  0.50000000  0.68543900  1
  O  O44  1  0.50000000  0.00000000  0.76268700  1
  O  O45  1  0.00000000  0.50000000  0.02674200  1
  O  O46  1  0.00000000  0.50000000  0.07832400  1
  O  O47  1  0.00000000  0.50000000  0.23731300  1
  O  O48  1  0.00000000  0.50000000  0.28910100  1
  O  O49  1  0.00000000  0.50000000  0.34198900  1
  O  O50  1  0.00000000  0.50000000  0.39471200  1
  O  O51  1  0.00000000  0.50000000  0.44734800  1
  O  O52  1  0.00000000  0.50000000  0.50000000  1
  O  O53  1  0.00000000  0.50000000  0.55265200  1
  O  O54  1  0.00000000  0.50000000  0.60528800  1
  O  O55  1  0.00000000  0.50000000  0.65801100  1
  O  O56  1  0.00000000  0.50000000  0.71089900  1
loop_
_geom_bond_atom_site_label_1
_geom_bond_atom_site_label_2
_geom_bond_distance
_geom_bond_site_symmetry_2
Na0 O46 2.756950 1_545
Na0 O46 2.756950 1_555
Na0 O19 2.756950 1_455
Na0 O19 2.756950 1_555
Na0 O17 2.769153 1_455
Na0 O45 2.769153 1_545
Na0 O45 2.769153 1_555
Na0 O17 2.769153 1_555
Na0 O16 2.788381 1_445
Na0 O16 2.788381 1_555
Na0 O16 2.788381 1_545
Na0 O16 2.788381 1_455
Na1 O28 2.789107 1_545
Na1 O28 2.789107 1_445
Na1 O28 2.789107 1_555
Na1 O28 2.789107 1_455
Na1 O27 2.791013 1_455
Na1 O27 2.791013 1_555
Na1 O49 2.791013 1_555
Na1 O49 2.791013 1_545
Na1 O48 2.804223 1_555
Na1 O26 2.804223 1_555
Na1 O26 2.804223 1_455
Na1 O48 2.804223 1_545
Na2 O36 2.787402 1_555
Na2 O36 2.787402 1_455
Na2 O54 2.787402 1_545
Na2 O54 2.787402 1_555
Na2 O41 2.788527 1_455
Na2 O41 2.788527 1_555
Na2 O41 2.788527 1_445
Na2 O41 2.788527 1_545
Na2 O53 2.794416 1_555
Na2 O35 2.794416 1_455
Na2 O53 2.794416 1_545
Na2 O35 2.794416 1_555
Na3 O43 2.789107 1_545
Na3 O43 2.789107 1_445
Na3 O43 2.789107 1_455
Na3 O43 2.789107 1_555
Na3 O39 2.791013 1_555
Na3 O39 2.791013 1_455
Na3 O55 2.791013 1_545
Na3 O55 2.791013 1_555
Na3 O40 2.804223 1_455
Na3 O56 2.804223 1_545
Na3 O40 2.804223 1_555
Na3 O56 2.804223 1_555
Na4 O9 2.728195 1_455
Na4 O0 2.728195 1_555
Na4 O9 2.728195 1_555
Na4 O0 2.728195 1_545
Na4 O1 2.739742 1_545
Na4 O12 2.739742 1_455
Na4 O12 2.739742 1_555
Na4 O1 2.739742 1_555
Na4 O8 2.787879 1_455
Na4 O8 2.787879 1_555
Na4 O8 2.787879 1_445
Na4 O8 2.787879 1_545
Na5 O10 2.756950 1_555
Na5 O2 2.756950 1_545
Na5 O2 2.756950 1_555
Na5 O10 2.756950 1_455
Na5 O3 2.769153 1_545
Na5 O15 2.769153 1_555
Na5 O3 2.769153 1_555
Na5 O15 2.769153 1_455
Na5 O13 2.788381 1_445
Na5 O13 2.788381 1_545
Na5 O13 2.788381 1_555
Na5 O13 2.788381 1_455
Na6 O5 2.728195 1_555
Na6 O21 2.728195 1_555
Na6 O5 2.728195 1_545
Na6 O21 2.728195 1_455
Na6 O20 2.739742 1_455
Na6 O4 2.739742 1_555
Na6 O20 2.739742 1_555
Na6 O4 2.739742 1_545
Na6 O23 2.787879 1_445
Na6 O23 2.787879 1_545
Na6 O23 2.787879 1_455
Na6 O23 2.787879 1_555
Na7 O22 2.708193 1_455
Na7 O47 2.708193 1_545
Na7 O22 2.708193 1_555
Na7 O47 2.708193 1_555
Na7 O25 2.790020 1_545
Na7 O25 2.790020 1_445
Na7 O25 2.790020 1_455
Na7 O25 2.790020 1_555
Na7 O48 2.830124 1_555
Na7 O26 2.830124 1_555
Na7 O48 2.830124 1_545
Na7 O26 2.830124 1_455
Na8 O29 2.787243 1_455
Na8 O50 2.787243 1_555
Na8 O29 2.787243 1_555
Na8 O50 2.787243 1_545
Na8 O32 2.788452 1_545
Na8 O32 2.788452 1_445
Na8 O32 2.788452 1_455
Na8 O32 2.788452 1_555
Na8 O49 2.799209 1_555
Na8 O27 2.799209 1_555
Na8 O49 2.799209 1_545
Na8 O27 2.799209 1_455
Na9 O50 2.787402 1_545
Na9 O29 2.787402 1_455
Na9 O50 2.787402 1_555
Na9 O29 2.787402 1_555
Na9 O30 2.788527 1_445
Na9 O30 2.788527 1_545
Na9 O30 2.788527 1_455
Na9 O30 2.788527 1_555
Na9 O31 2.794416 1_555
Na9 O51 2.794416 1_555
Na9 O51 2.794416 1_545
Na9 O31 2.794416 1_455
Na10 O33 2.783531 1_555
Na10 O33 2.783531 1_455
Na10 O52 2.783531 1_555
Na10 O52 2.783531 1_545
Na10 O37 2.788443 1_555
Na10 O37 2.788443 1_445
Na10 O37 2.788443 1_455
Na10 O37 2.788443 1_545
Na10 O31 2.799156 1_455
Na10 O51 2.799156 1_545
Na10 O31 2.799156 1_555
Na10 O51 2.799156 1_555
Na11 O52 2.783531 1_555
Na11 O33 2.783531 1_455
Na11 O52 2.783531 1_545
Na11 O33 2.783531 1_555
Na11 O34 2.788443 1_455
Na11 O34 2.788443 1_555
Na11 O34 2.788443 1_445
Na11 O34 2.788443 1_545
Na11 O53 2.799156 1_545
Na11 O35 2.799156 1_555
Na11 O53 2.799156 1_555
Na11 O35 2.799156 1_455
Na12 O36 2.787243 1_555
Na12 O36 2.787243 1_455
Na12 O54 2.787243 1_555
Na12 O54 2.787243 1_545
Na12 O38 2.788452 1_545
Na12 O38 2.788452 1_445
Na12 O38 2.788452 1_555
Na12 O38 2.788452 1_455
Na12 O39 2.799209 1_455
Na12 O55 2.799209 1_545
Na12 O55 2.799209 1_555
Na12 O39 2.799209 1_555
Na13 O44 2.708193 1_555
Na13 O6 2.708193 1_555
Na13 O6 2.708193 1_545
Na13 O44 2.708193 1_455
Na13 O42 2.790020 1_555
Na13 O42 2.790020 1_455
Na13 O42 2.790020 1_445
Na13 O42 2.790020 1_545
Na13 O56 2.830124 1_555
Na13 O40 2.830124 1_455
Na13 O56 2.830124 1_545
Na13 O40 2.830124 1_555
O0 W1 1.974676 1_555
O0 W1 1.974676 1_455
O1 W0 1.974826 1_455
O1 W0 1.974826 1_555
O2 W3 1.972743 1_555
O2 W3 1.972743 1_455
O3 W2 1.972266 1_555
O3 W2 1.972266 1_455
O4 W6 1.974826 1_555
O4 W6 1.974826 1_455
O5 W7 1.974676 1_555
O5 W7 1.974676 1_455
O6 W18 1.973942 1_455
O6 W18 1.973942 1_555
O7 W1 1.872625 1_555
O7 W18 1.989654 1_555
O8 W1 2.009397 1_555
O8 W0 2.011949 1_555
O9 W1 1.974676 1_545
O9 W1 1.974676 1_555
O10 W3 1.972743 1_555
O10 W3 1.972743 1_545
O11 W0 1.880056 1_555
O11 W3 1.994534 1_555
O12 W0 1.974826 1_555
O12 W0 1.974826 1_545
O13 W2 1.952346 1_555
O13 W3 2.055789 1_555
O14 W5 1.946341 1_555
O14 W2 1.946341 1_554
O15 W2 1.972266 1_555
O15 W2 1.972266 1_545
O16 W5 1.952346 1_555
O16 W4 2.055789 1_555
O17 W5 1.972266 1_555
O17 W5 1.972266 1_545
O18 W6 1.880056 1_555
O18 W4 1.994534 1_555
O19 W4 1.972743 1_545
O19 W4 1.972743 1_555
O20 W6 1.974826 1_555
O20 W6 1.974826 1_545
O21 W7 1.974676 1_545
O21 W7 1.974676 1_555
O22 W8 1.973942 1_545
O22 W8 1.973942 1_555
O23 W7 2.009397 1_555
O23 W6 2.011949 1_555
O24 W7 1.872625 1_555
O24 W8 1.989654 1_555
O25 W9 1.912035 1_555
O25 W8 2.068250 1_555
O26 W9 1.971340 1_545
O26 W9 1.971340 1_555
O27 W10 1.971323 1_555
O27 W10 1.971323 1_545
O28 W9 1.920217 1_555
O28 W10 2.055413 1_555
O29 W12 1.971328 1_555
O29 W12 1.971328 1_545
O30 W12 1.915638 1_555
O30 W11 2.041376 1_555
O31 W11 1.971320 1_555
O31 W11 1.971320 1_545
O32 W12 1.907681 1_555
O32 W10 2.047982 1_555
O33 W14 1.971319 1_545
O33 W14 1.971319 1_555
O34 W14 1.908507 1_555
O34 W13 2.043778 1_555
O35 W13 1.971320 1_555
O35 W13 1.971320 1_545
O36 W15 1.971328 1_555
O36 W15 1.971328 1_545
O37 W14 1.908507 1_555
O37 W11 2.043778 1_555
O38 W15 1.907681 1_555
O38 W16 2.047982 1_555
O39 W16 1.971323 1_545
O39 W16 1.971323 1_555
O40 W17 1.971340 1_545
O40 W17 1.971340 1_555
O41 W15 1.915638 1_555
O41 W13 2.041376 1_555
O42 W17 1.912035 1_555
O42 W18 2.068250 1_555
O43 W17 1.920217 1_555
O43 W16 2.055413 1_555
O44 W18 1.973942 1_545
O44 W18 1.973942 1_555
O45 W5 1.972266 1_455
O45 W5 1.972266 1_555
O46 W4 1.972743 1_455
O46 W4 1.972743 1_555
O47 W8 1.973942 1_555
O47 W8 1.973942 1_455
O48 W9 1.971340 1_555
O48 W9 1.971340 1_455
O49 W10 1.971323 1_555
O49 W10 1.971323 1_455
O50 W12 1.971328 1_455
O50 W12 1.971328 1_555
O51 W11 1.971320 1_455
O51 W11 1.971320 1_555
O52 W14 1.971319 1_555
O52 W14 1.971319 1_455
O53 W13 1.971320 1_455
O53 W13 1.971320 1_555
O54 W15 1.971328 1_455
O54 W15 1.971328 1_555
O55 W16 1.971323 1_455
O55 W16 1.971323 1_555
O56 W17 1.971340 1_455
O56 W17 1.971340 1_555
