# generated using pymatgen
data_La4Co3O10
_symmetry_space_group_name_H-M   'P 1'
_cell_length_a   14.40861470
_cell_length_b   14.40861470
_cell_length_c   14.40861470
_cell_angle_alpha   164.53478605
_cell_angle_beta   164.53478605
_cell_angle_gamma   21.93855613
_symmetry_Int_Tables_number   1
_chemical_formula_structural   La4Co3O10
_chemical_formula_sum   'La4 Co3 O10'
_cell_volume   212.66043806
_cell_formula_units_Z   1
loop_
 _symmetry_equiv_pos_site_id
 _symmetry_equiv_pos_as_xyz
  1  'x, y, z'
loop_
 _atom_site_type_symbol
 _atom_site_label
 _atom_site_symmetry_multiplicity
 _atom_site_fract_x
 _atom_site_fract_y
 _atom_site_fract_z
 _atom_site_occupancy
  La  La0  1  0.56694400  0.56694400  0.00000000  1
  La  La1  1  0.43305600  0.43305600  0.00000000  1
  La  La2  1  0.30129800  0.30129800  0.00000000  1
  La  La3  1  0.69870200  0.69870200  0.00000000  1
  Co  Co0  1  0.14040500  0.14040500  0.00000000  1
  Co  Co1  1  0.85959500  0.85959500  0.00000000  1
  Co  Co2  1  0.00000000  0.00000000  0.00000000  1
  O  O0  1  0.14039300  0.64039300  0.50000000  1
  O  O1  1  0.06819200  0.06819200  0.00000000  1
  O  O2  1  0.64039300  0.14039300  0.50000000  1
  O  O3  1  0.85960700  0.35960700  0.50000000  1
  O  O4  1  0.35960700  0.85960700  0.50000000  1
  O  O5  1  0.93180800  0.93180800  0.00000000  1
  O  O6  1  0.21906500  0.21906500  0.00000000  1
  O  O7  1  0.78093500  0.78093500  0.00000000  1
  O  O8  1  0.00000000  0.50000000  0.50000000  1
  O  O9  1  0.50000000  0.00000000  0.50000000  1
loop_
_geom_bond_atom_site_label_1
_geom_bond_atom_site_label_2
_geom_bond_distance
_geom_bond_site_symmetry_2
La0 O8 2.710225 1_554
La0 O9 2.710225 1_554
La0 O8 2.710225 1_655
La0 O9 2.710225 1_565
La0 O1 2.741936 1_655
La0 O1 2.741936 1_565
La0 O1 2.741936 1_666
La0 O1 2.741936 1_554
La0 O0 2.841876 1_554
La0 O2 2.841876 1_554
La0 O2 2.841876 1_565
La0 O0 2.841876 1_655
La1 O8 2.710225 1_554
La1 O9 2.710225 1_554
La1 O8 2.710225 1_655
La1 O9 2.710225 1_565
La1 O5 2.741936 1_455
La1 O5 2.741936 1_556
La1 O5 2.741936 1_444
La1 O5 2.741936 1_545
La1 O3 2.841876 1_555
La1 O4 2.841876 1_555
La1 O4 2.841876 1_544
La1 O3 2.841876 1_454
La2 O6 2.326431 1_555
La2 O3 2.545521 1_555
La2 O4 2.545521 1_544
La2 O3 2.545521 1_454
La2 O4 2.545521 1_555
La2 O7 2.801578 1_455
La2 O7 2.801578 1_556
La2 O7 2.801578 1_545
La2 O7 2.801578 1_444
La3 O7 2.326431 1_555
La3 O2 2.545521 1_565
La3 O0 2.545521 1_554
La3 O0 2.545521 1_655
La3 O2 2.545521 1_554
La3 O6 2.801578 1_655
La3 O6 2.801578 1_666
La3 O6 2.801578 1_565
La3 O6 2.801578 1_554
Co0 O2 1.938681 1_555
Co0 O0 1.938681 1_555
Co0 O2 1.938681 1_454
Co0 O0 1.938681 1_544
Co0 O1 2.042958 1_555
Co0 O6 2.225348 1_555
Co1 O4 1.938681 1_655
Co1 O3 1.938681 1_565
Co1 O3 1.938681 1_554
Co1 O4 1.938681 1_554
Co1 O5 2.042958 1_555
Co1 O7 2.225348 1_555
Co2 O1 1.929201 1_555
Co2 O5 1.929201 1_445
Co2 O8 1.938681 1_544
Co2 O9 1.938681 1_454
Co2 O8 1.938681 1_555
Co2 O9 1.938681 1_555
