# generated using pymatgen
data_Na12B26O45
_symmetry_space_group_name_H-M   'P 1'
_cell_length_a   9.65020088
_cell_length_b   10.74585068
_cell_length_c   18.35580664
_cell_angle_alpha   107.02026125
_cell_angle_beta   105.24013371
_cell_angle_gamma   90.00000107
_symmetry_Int_Tables_number   1
_chemical_formula_structural   Na12B26O45
_chemical_formula_sum   'Na24 B52 O90'
_cell_volume   1749.99276677
_cell_formula_units_Z   2
loop_
 _symmetry_equiv_pos_site_id
 _symmetry_equiv_pos_as_xyz
  1  'x, y, z'
loop_
 _atom_site_type_symbol
 _atom_site_label
 _atom_site_symmetry_multiplicity
 _atom_site_fract_x
 _atom_site_fract_y
 _atom_site_fract_z
 _atom_site_occupancy
  Na  Na0  1  0.38937905  0.30919660  0.90979942  1
  Na  Na1  1  0.72034672  0.32477472  0.75297070  1
  Na  Na2  1  0.58975873  0.83412413  0.40626945  1
  Na  Na3  1  0.30512872  0.19722708  0.39946579  1
  Na  Na4  1  0.03262398  0.82477472  0.75297070  1
  Na  Na5  1  0.81651072  0.33412413  0.40626945  1
  Na  Na6  1  0.69487128  0.79776129  0.60053421  1
  Na  Na7  1  0.03505570  0.22228641  0.91103446  1
  Na  Na8  1  0.50421570  0.29918077  0.25542513  1
  Na  Na9  1  0.96494430  0.31125195  0.08896554  1
  Na  Na10  1  0.49578430  0.04375564  0.74457487  1
  Na  Na11  1  0.47957963  0.89939718  0.09020058  1
  Na  Na12  1  0.27965328  0.57180402  0.24702930  1
  Na  Na13  1  0.09433707  0.69722708  0.39946579  1
  Na  Na14  1  0.52042037  0.80919660  0.90979942  1
  Na  Na15  1  0.75120943  0.79918077  0.25542513  1
  Na  Na16  1  0.87597876  0.72228641  0.91103446  1
  Na  Na17  1  0.90566293  0.29776129  0.60053421  1
  Na  Na18  1  0.24879057  0.54375564  0.74457487  1
  Na  Na19  1  0.96737602  0.07180402  0.24702930  1
  Na  Na20  1  0.41024127  0.42785468  0.59373055  1
  Na  Na21  1  0.18348928  0.92785468  0.59373055  1
  Na  Na22  1  0.61062095  0.39939718  0.09020058  1
  Na  Na23  1  0.12402124  0.81125195  0.08896554  1
  B  B0  1  0.92056465  0.01540599  0.04741858  1
  B  B1  1  0.60331663  0.23059964  0.54033006  1
  B  B2  1  0.79111483  0.85459086  0.08734397  1
  B  B3  1  0.56728310  0.03714421  0.30838512  1
  B  B4  1  0.43131587  0.16217574  0.60596800  1
  B  B5  1  0.10642952  0.43393470  0.53500004  1
  B  B6  1  0.58299714  0.58681313  0.76561927  1
  B  B7  1  0.89357048  0.89893466  0.46499996  1
  B  B8  1  0.69074817  0.79362273  0.77105108  1
  B  B9  1  0.06298657  0.19026958  0.45966994  1
  B  B10  1  0.81737787  0.32119385  0.23438073  1
  B  B11  1  0.42857052  0.93393470  0.53500004  1
  B  B12  1  0.41700286  0.82119385  0.23438073  1
  B  B13  1  0.18262213  0.08681313  0.76561927  1
  B  B14  1  0.66088484  0.07235282  0.61133304  1
  B  B15  1  0.33911516  0.46101979  0.38866696  1
  B  B16  1  0.26973530  0.15227992  0.12938369  1
  B  B17  1  0.74110202  0.53714421  0.30838512  1
  B  B18  1  0.91909484  0.08796648  0.69703078  1
  B  B19  1  0.77793594  0.58796648  0.69703078  1
  B  B20  1  0.08090516  0.39093570  0.30296922  1
  B  B21  1  0.63963061  0.11810205  0.98628837  1
  B  B22  1  0.38091572  0.59886701  0.12306438  1
  B  B23  1  0.87314607  0.46798741  0.95258142  1
  B  B24  1  0.43271690  0.72875909  0.69161488  1
  B  B25  1  0.25785134  0.97580263  0.87693562  1
  B  B26  1  0.61908428  0.47580263  0.87693562  1
  B  B27  1  0.17465213  0.66217574  0.60596800  1
  B  B28  1  0.70377086  0.26724689  0.91265603  1
  B  B29  1  0.95044820  0.57235282  0.61133304  1
  B  B30  1  0.56868413  0.55620774  0.39403200  1
  B  B31  1  0.29622914  0.35459086  0.08734397  1
  B  B32  1  0.25889798  0.22875909  0.69161488  1
  B  B33  1  0.34665776  0.61810205  0.98628837  1
  B  B34  1  0.36036939  0.13181368  0.01371163  1
  B  B35  1  0.73026470  0.02289623  0.87061631  1
  B  B36  1  0.91969709  0.52257165  0.22894892  1
  B  B37  1  0.07943535  0.96798741  0.95258142  1
  B  B38  1  0.74214866  0.09886701  0.12306438  1
  B  B39  1  0.39668337  0.69026958  0.45966994  1
  B  B40  1  0.08030291  0.29362273  0.77105108  1
  B  B41  1  0.57142948  0.39893466  0.46499996  1
  B  B42  1  0.22206406  0.89093570  0.30296922  1
  B  B43  1  0.14035161  0.52289623  0.87061631  1
  B  B44  1  0.82534787  0.05620774  0.39403200  1
  B  B45  1  0.93701343  0.73059964  0.54033006  1
  B  B46  1  0.85964839  0.65227992  0.12938369  1
  B  B47  1  0.30925183  0.02257165  0.22894892  1
  B  B48  1  0.65334224  0.63181368  0.01371163  1
  B  B49  1  0.20888517  0.76724689  0.91265603  1
  B  B50  1  0.04955180  0.96101979  0.38866696  1
  B  B51  1  0.12685393  0.51540599  0.04741858  1
  O  O0  1  0.65653523  0.71441841  0.81734420  1
  O  O1  1  0.32354349  0.80379963  0.28719398  1
  O  O2  1  0.95078447  0.59703843  0.17912223  1
  O  O3  1  0.91927646  0.17481935  0.45468744  1
  O  O4  1  0.87885863  0.78379688  0.14039097  1
  O  O5  1  0.89059298  0.88778589  0.04279994  1
  O  O6  1  0.69602696  0.10747613  0.35337224  1
  O  O7  1  0.26313690  0.00231724  0.80519687  1
  O  O8  1  0.55508739  0.90217617  0.28963348  1
  O  O9  1  0.78561181  0.02342183  0.65632218  1
  O  O10  1  0.60528775  0.33338703  0.86568860  1
  O  O11  1  0.87071037  0.52342183  0.65632218  1
  O  O12  1  0.96365049  0.30379963  0.28719398  1
  O  O13  1  0.73686310  0.19712037  0.19480313  1
  O  O14  1  0.35339543  0.81204487  0.49407445  1
  O  O15  1  0.14067902  0.31204487  0.49407445  1
  O  O16  1  0.33115985  0.73838719  0.97340871  1
  O  O17  1  0.29250028  0.58894179  0.42815688  1
  O  O18  1  1.00000000  0.04611992  1.00000000  1
  O  O19  1  0.13565659  0.08894179  0.42815688  1
  O  O20  1  0.15220697  0.38778589  0.04279994  1
  O  O21  1  0.56395078  0.55172868  0.94464239  1
  O  O22  1  0.12928963  0.86709965  0.34367782  1
  O  O23  1  0.78515460  0.72396503  0.72127023  1
  O  O24  1  0.08072354  0.72013191  0.54531256  1
  O  O25  1  0.61930838  0.10708629  0.05535761  1
  O  O26  1  0.70749972  0.16078491  0.57184312  1
  O  O27  1  0.53541099  0.67481935  0.45468744  1
  O  O28  1  0.73846765  0.14340590  0.85960903  1
  O  O29  1  0.54205997  0.50231724  0.80519687  1
  O  O30  1  0.21992506  0.61859144  0.09806089  1
  O  O31  1  0.21438819  0.36709965  0.34367782  1
  O  O32  1  0.67398835  0.00820059  0.93118611  1
  O  O33  1  0.93611563  0.22396503  0.72127023  1
  O  O34  1  0.02646223  0.90332136  0.45174415  1
  O  O35  1  0.34346477  0.89707421  0.18265580  1
  O  O36  1  0.64224886  0.23838719  0.97340871  1
  O  O37  1  0.87813583  0.11859144  0.09806089  1
  O  O38  1  0.21484540  0.00269480  0.27872977  1
  O  O39  1  0.77166224  0.91791620  0.82087777  1
  O  O40  1  0.90829564  0.98316054  0.34061217  1
  O  O41  1  0.09170436  0.64254837  0.65938783  1
  O  O42  1  0.38069162  0.05172868  0.94464239  1
  O  O43  1  0.10940702  0.84498595  0.95720006  1
  O  O44  1  0.73454609  0.40217617  0.28963348  1
  O  O45  1  0.12114137  0.64340590  0.85960903  1
  O  O46  1  0.43604922  0.60708629  0.05535761  1
  O  O47  1  0.83919103  0.39707421  0.18265580  1
  O  O48  1  0.25719776  0.50820059  0.93118611  1
  O  O49  1  0.43231653  0.48316054  0.34061217  1
  O  O50  1  0.42528192  0.40332136  0.45174415  1
  O  O51  1  0.73959915  0.96769843  0.13431140  1
  O  O52  1  0.65734527  0.60747613  0.35337224  1
  O  O53  1  0.12186417  0.02053055  0.90193911  1
  O  O54  1  0.45794003  0.69712037  0.19480313  1
  O  O55  1  0.86434341  0.66078491  0.57184312  1
  O  O56  1  0.64660457  0.31797042  0.50592555  1
  O  O57  1  0.32601165  0.07701448  0.06881389  1
  O  O58  1  0.83513800  0.60331289  0.28350219  1
  O  O59  1  0.03634951  0.01660565  0.71280602  1
  O  O60  1  0.06388437  0.50269480  0.27872977  1
  O  O61  1  0.46458901  0.22013191  0.54531256  1
  O  O62  1  0.22833776  0.09703843  0.17912223  1
  O  O63  1  1.00000000  0.54611992  1.00000000  1
  O  O64  1  0.66884015  0.76497848  0.02659129  1
  O  O65  1  0.78685187  0.97009141  0.43708383  1
  O  O66  1  0.65023196  0.47009141  0.43708383  1
  O  O67  1  0.97353777  0.45157721  0.54825585  1
  O  O68  1  0.57471808  0.95157721  0.54825585  1
  O  O69  1  0.74280224  0.57701448  0.06881389  1
  O  O70  1  0.26545391  0.11254268  0.71036652  1
  O  O71  1  0.34976804  0.03300757  0.56291617  1
  O  O72  1  0.44491261  0.61254268  0.71036652  1
  O  O73  1  0.85932098  0.81797042  0.50592555  1
  O  O74  1  0.39471225  0.46769843  0.13431140  1
  O  O75  1  0.55163582  0.81981070  0.71649781  1
  O  O76  1  0.56768347  0.14254837  0.65938783  1
  O  O77  1  0.78007494  0.52053055  0.90193911  1
  O  O78  1  0.21314813  0.53300757  0.56291617  1
  O  O79  1  0.26040085  0.83338703  0.86568860  1
  O  O80  1  0.35775114  0.26497848  0.02659129  1
  O  O81  1  0.67645651  0.51660565  0.71280602  1
  O  O82  1  0.30397304  0.75410389  0.64662776  1
  O  O83  1  0.44836418  0.10331289  0.28350219  1
  O  O84  1  0.84779303  0.34498595  0.95720006  1
  O  O85  1  0.16486200  0.31981070  0.71649781  1
  O  O86  1  0.34265473  0.25410389  0.64662776  1
  O  O87  1  0.16080897  0.21441841  0.81734420  1
  O  O88  1  0.04921553  0.41791620  0.82087777  1
  O  O89  1  0.26153235  0.28379688  0.14039097  1
loop_
_geom_bond_atom_site_label_1
_geom_bond_atom_site_label_2
_geom_bond_distance
_geom_bond_site_symmetry_2
Na0 O87 2.408914 1_555
Na0 O80 2.419750 1_556
Na0 O10 2.464659 1_555
Na0 O48 2.475086 1_555
Na0 O36 2.630446 1_555
Na1 O76 2.378236 1_555
Na1 O81 2.387004 1_555
Na1 O33 2.472989 1_555
Na1 O10 2.572543 1_555
Na1 O29 2.704705 1_555
Na1 O77 2.835202 1_555
Na2 O65 2.241175 1_555
Na2 O27 2.265204 1_555
Na2 O8 2.402149 1_555
Na2 O52 2.499698 1_555
Na2 O68 2.584546 1_555
Na2 O73 2.797760 1_555
Na2 O1 2.848589 1_555
Na3 O19 2.262210 1_555
Na3 O50 2.311040 1_555
Na3 O31 2.402188 1_555
Na3 O38 2.512616 1_555
Na3 O61 2.654062 1_555
Na3 O15 2.692798 1_555
Na3 O83 2.783757 1_555
Na4 O41 2.378236 1_555
Na4 O59 2.387004 1_565
Na4 O23 2.472989 1_455
Na4 O79 2.572543 1_555
Na4 O7 2.704705 1_565
Na4 O53 2.835202 1_565
Na5 O66 2.241175 1_555
Na5 O3 2.265205 1_555
Na5 O44 2.402149 1_555
Na5 O6 2.499698 1_555
Na5 O67 2.584546 1_555
Na5 O56 2.797760 1_555
Na5 O12 2.848589 1_555
Na6 O55 2.262210 1_555
Na6 O68 2.311040 1_555
Na6 O9 2.402188 1_565
Na6 O23 2.512616 1_555
Na6 O27 2.654062 1_555
Na6 O73 2.692798 1_555
Na6 O75 2.783757 1_555
Na7 O53 2.300362 1_555
Na7 O87 2.334415 1_555
Na7 O84 2.423479 1_455
Na7 O20 2.516976 1_556
Na8 O44 2.327911 1_555
Na8 O49 2.365527 1_555
Na8 O83 2.401505 1_555
Na8 O89 2.677032 1_555
Na8 O13 2.842617 1_555
Na9 O37 2.300362 1_555
Na9 O47 2.334415 1_555
Na9 O20 2.423479 1_655
Na9 O84 2.516976 1_554
Na10 O70 2.327911 1_555
Na10 O76 2.365527 1_555
Na10 O75 2.401505 1_545
Na10 O28 2.677032 1_555
Na10 O7 2.842617 1_555
Na11 O35 2.408914 1_555
Na11 O16 2.419750 1_554
Na11 O51 2.464659 1_555
Na11 O57 2.475086 1_565
Na11 O64 2.630446 1_555
Na12 O49 2.378236 1_555
Na12 O1 2.387004 1_555
Na12 O60 2.472989 1_555
Na12 O74 2.572543 1_555
Na12 O54 2.704705 1_555
Na12 O30 2.835202 1_555
Na13 O17 2.262210 1_555
Na13 O34 2.311040 1_555
Na13 O22 2.402188 1_555
Na13 O60 2.512616 1_555
Na13 O24 2.654062 1_555
Na13 O14 2.692798 1_555
Na13 O58 2.783757 1_455
Na14 O0 2.408914 1_555
Na14 O64 2.419750 1_556
Na14 O79 2.464659 1_555
Na14 O32 2.475086 1_565
Na14 O16 2.630446 1_555
Na15 O8 2.327911 1_555
Na15 O40 2.365527 1_555
Na15 O58 2.401505 1_555
Na15 O4 2.677032 1_555
Na15 O54 2.842617 1_555
Na16 O77 2.300362 1_555
Na16 O0 2.334415 1_555
Na16 O43 2.423479 1_655
Na16 O5 2.516976 1_556
Na17 O26 2.262210 1_555
Na17 O67 2.311040 1_555
Na17 O11 2.402188 1_555
Na17 O33 2.512616 1_555
Na17 O3 2.654062 1_555
Na17 O56 2.692798 1_555
Na17 O85 2.783757 1_655
Na18 O72 2.327911 1_555
Na18 O41 2.365527 1_555
Na18 O85 2.401505 1_555
Na18 O45 2.677032 1_555
Na18 O29 2.842617 1_555
Na19 O40 2.378236 1_545
Na19 O12 2.387004 1_555
Na19 O38 2.472989 1_655
Na19 O51 2.572543 1_545
Na19 O13 2.704706 1_555
Na19 O37 2.835202 1_555
Na20 O78 2.241175 1_555
Na20 O61 2.265204 1_555
Na20 O72 2.402149 1_555
Na20 O86 2.499698 1_555
Na20 O50 2.584546 1_555
Na20 O15 2.797760 1_555
Na20 O81 2.848589 1_555
Na21 O71 2.241175 1_565
Na21 O24 2.265204 1_555
Na21 O70 2.402149 1_565
Na21 O82 2.499698 1_555
Na21 O34 2.584546 1_555
Na21 O14 2.797760 1_555
Na21 O59 2.848589 1_565
Na22 O47 2.408914 1_555
Na22 O36 2.419750 1_554
Na22 O74 2.464659 1_555
Na22 O69 2.475086 1_555
Na22 O80 2.630446 1_555
Na23 O30 2.300362 1_555
Na23 O35 2.334415 1_555
Na23 O5 2.423479 1_455
Na23 O43 2.516976 1_554
B0 O37 1.363058 1_555
B0 O5 1.374987 1_545
B0 O18 1.404678 1_554
B1 O26 1.362549 1_555
B1 O61 1.372465 1_555
B1 O56 1.393057 1_555
B2 O51 1.442075 1_555
B2 O64 1.497591 1_555
B2 O4 1.498007 1_555
B2 O5 1.516822 1_555
B3 O6 1.375477 1_555
B3 O8 1.386465 1_545
B3 O83 1.394890 1_555
B4 O86 1.472758 1_555
B4 O76 1.476635 1_555
B4 O71 1.483682 1_555
B4 O61 1.524617 1_555
B5 O78 1.363743 1_555
B5 O67 1.369972 1_455
B5 O15 1.394160 1_555
B6 O29 1.430143 1_555
B6 O0 1.472733 1_555
B6 O72 1.527869 1_555
B6 O81 1.534242 1_555
B7 O65 1.363743 1_555
B7 O34 1.369972 1_655
B7 O73 1.394160 1_555
B8 O0 1.458208 1_555
B8 O39 1.462720 1_555
B8 O23 1.504164 1_555
B8 O75 1.530480 1_555
B9 O19 1.362548 1_555
B9 O3 1.372465 1_455
B9 O15 1.393057 1_555
B10 O13 1.430142 1_555
B10 O47 1.472733 1_555
B10 O44 1.527869 1_555
B10 O12 1.534242 1_555
B11 O71 1.363743 1_565
B11 O68 1.369972 1_555
B11 O14 1.394160 1_555
B12 O54 1.430142 1_555
B12 O35 1.472733 1_555
B12 O8 1.527869 1_555
B12 O1 1.534242 1_555
B13 O7 1.430143 1_555
B13 O87 1.472733 1_555
B13 O70 1.527869 1_555
B13 O59 1.534242 1_555
B14 O9 1.462470 1_555
B14 O76 1.477692 1_555
B14 O26 1.485094 1_555
B14 O68 1.526610 1_545
B15 O31 1.462470 1_555
B15 O49 1.477692 1_555
B15 O17 1.485094 1_555
B15 O50 1.526610 1_555
B16 O62 1.361822 1_555
B16 O89 1.373187 1_555
B16 O57 1.405776 1_555
B17 O52 1.375477 1_555
B17 O44 1.386465 1_555
B17 O58 1.394890 1_555
B18 O9 1.374511 1_555
B18 O59 1.382020 1_655
B18 O33 1.393417 1_555
B19 O11 1.374511 1_555
B19 O81 1.382020 1_555
B19 O23 1.393417 1_555
B20 O31 1.374511 1_555
B20 O12 1.382020 1_455
B20 O60 1.393417 1_555
B21 O25 1.370554 1_556
B21 O36 1.381772 1_555
B21 O32 1.415874 1_555
B22 O54 1.439708 1_555
B22 O74 1.484247 1_555
B22 O46 1.499118 1_555
B22 O30 1.533396 1_555
B23 O77 1.363058 1_555
B23 O84 1.374987 1_555
B23 O63 1.404678 1_555
B24 O82 1.375477 1_555
B24 O72 1.386465 1_555
B24 O75 1.394890 1_555
B25 O7 1.439708 1_565
B25 O79 1.484247 1_555
B25 O42 1.499118 1_565
B25 O53 1.533396 1_565
B26 O29 1.439708 1_555
B26 O10 1.484247 1_555
B26 O21 1.499118 1_555
B26 O77 1.533396 1_555
B27 O82 1.472758 1_555
B27 O41 1.476635 1_555
B27 O78 1.483682 1_555
B27 O24 1.524617 1_555
B28 O10 1.442075 1_555
B28 O36 1.497591 1_555
B28 O28 1.498007 1_555
B28 O84 1.516822 1_555
B29 O11 1.462470 1_555
B29 O41 1.477692 1_655
B29 O55 1.485094 1_555
B29 O67 1.526610 1_555
B30 O52 1.472758 1_555
B30 O49 1.476635 1_555
B30 O66 1.483682 1_555
B30 O27 1.524617 1_555
B31 O74 1.442075 1_555
B31 O80 1.497591 1_555
B31 O89 1.498007 1_555
B31 O20 1.516822 1_555
B32 O86 1.375477 1_555
B32 O70 1.386465 1_555
B32 O85 1.394890 1_555
B33 O46 1.370554 1_556
B33 O16 1.381772 1_555
B33 O48 1.415874 1_555
B34 O42 1.370554 1_554
B34 O80 1.381772 1_555
B34 O57 1.415874 1_555
B35 O39 1.361822 1_545
B35 O28 1.373187 1_555
B35 O32 1.405776 1_555
B36 O47 1.458208 1_555
B36 O2 1.462720 1_555
B36 O60 1.504164 1_655
B36 O58 1.530480 1_555
B37 O53 1.363058 1_565
B37 O43 1.374987 1_555
B37 O18 1.404678 1_465
B38 O13 1.439708 1_555
B38 O51 1.484247 1_545
B38 O25 1.499118 1_555
B38 O37 1.533396 1_555
B39 O17 1.362548 1_555
B39 O27 1.372465 1_555
B39 O14 1.393057 1_555
B40 O87 1.458208 1_555
B40 O88 1.462720 1_555
B40 O33 1.504164 1_455
B40 O85 1.530480 1_555
B41 O66 1.363743 1_555
B41 O50 1.369972 1_555
B41 O56 1.394160 1_555
B42 O22 1.374511 1_555
B42 O1 1.382020 1_555
B42 O38 1.393417 1_565
B43 O88 1.361822 1_555
B43 O45 1.373187 1_555
B43 O48 1.405776 1_555
B44 O6 1.472758 1_555
B44 O40 1.476635 1_545
B44 O65 1.483682 1_545
B44 O3 1.524617 1_555
B45 O55 1.362548 1_555
B45 O24 1.372465 1_655
B45 O73 1.393057 1_555
B46 O2 1.361822 1_555
B46 O4 1.373187 1_555
B46 O69 1.405776 1_555
B47 O35 1.458208 1_545
B47 O62 1.462720 1_555
B47 O38 1.504164 1_555
B47 O83 1.530480 1_555
B48 O21 1.370554 1_554
B48 O64 1.381772 1_555
B48 O69 1.415874 1_555
B49 O79 1.442075 1_555
B49 O16 1.497591 1_555
B49 O45 1.498007 1_555
B49 O43 1.516822 1_555
B50 O22 1.462470 1_555
B50 O40 1.477692 1_455
B50 O19 1.485094 1_565
B50 O34 1.526610 1_555
B51 O30 1.363058 1_555
B51 O20 1.374987 1_555
B51 O63 1.404678 1_454
