# generated using pymatgen
data_Na3Ni2(GeO4)3
_symmetry_space_group_name_H-M   'P 1'
_cell_length_a   10.50403944
_cell_length_b   10.50403944
_cell_length_c   10.50403944
_cell_angle_alpha   109.47122063
_cell_angle_beta   109.47122063
_cell_angle_gamma   109.47122063
_symmetry_Int_Tables_number   1
_chemical_formula_structural   Na3Ni2(GeO4)3
_chemical_formula_sum   'Na12 Ni8 Ge12 O48'
_cell_volume   892.16902473
_cell_formula_units_Z   4
loop_
 _symmetry_equiv_pos_site_id
 _symmetry_equiv_pos_as_xyz
  1  'x, y, z'
loop_
 _atom_site_type_symbol
 _atom_site_label
 _atom_site_symmetry_multiplicity
 _atom_site_fract_x
 _atom_site_fract_y
 _atom_site_fract_z
 _atom_site_occupancy
  Na  Na0  1  0.75000000  0.62500000  0.87500000  1
  Na  Na1  1  0.25000000  0.87500000  0.62500000  1
  Na  Na2  1  0.62500000  0.25000000  0.87500000  1
  Na  Na3  1  0.87500000  0.75000000  0.62500000  1
  Na  Na4  1  0.87500000  0.62500000  0.25000000  1
  Na  Na5  1  0.62500000  0.87500000  0.75000000  1
  Na  Na6  1  0.25000000  0.37500000  0.12500000  1
  Na  Na7  1  0.75000000  0.12500000  0.37500000  1
  Na  Na8  1  0.37500000  0.75000000  0.12500000  1
  Na  Na9  1  0.12500000  0.25000000  0.37500000  1
  Na  Na10  1  0.12500000  0.37500000  0.75000000  1
  Na  Na11  1  0.37500000  0.12500000  0.25000000  1
  Ni  Ni0  1  0.50000000  0.00000000  0.50000000  1
  Ni  Ni1  1  0.00000000  0.50000000  0.00000000  1
  Ni  Ni2  1  0.50000000  0.50000000  0.50000000  1
  Ni  Ni3  1  0.00000000  0.00000000  0.50000000  1
  Ni  Ni4  1  0.00000000  0.00000000  0.00000000  1
  Ni  Ni5  1  0.00000000  0.50000000  0.50000000  1
  Ni  Ni6  1  0.50000000  0.50000000  0.00000000  1
  Ni  Ni7  1  0.50000000  0.00000000  0.00000000  1
  Ge  Ge0  1  0.37500000  0.62500000  0.75000000  1
  Ge  Ge1  1  0.62500000  0.37500000  0.25000000  1
  Ge  Ge2  1  0.62500000  0.75000000  0.37500000  1
  Ge  Ge3  1  0.25000000  0.12500000  0.87500000  1
  Ge  Ge4  1  0.87500000  0.25000000  0.12500000  1
  Ge  Ge5  1  0.75000000  0.37500000  0.62500000  1
  Ge  Ge6  1  0.25000000  0.62500000  0.37500000  1
  Ge  Ge7  1  0.75000000  0.87500000  0.12500000  1
  Ge  Ge8  1  0.12500000  0.75000000  0.87500000  1
  Ge  Ge9  1  0.37500000  0.25000000  0.62500000  1
  Ge  Ge10  1  0.87500000  0.12500000  0.75000000  1
  Ge  Ge11  1  0.12500000  0.87500000  0.25000000  1
  O  O0  1  0.51478100  0.40245300  0.82170800  1
  O  O1  1  0.82170800  0.51478100  0.40245300  1
  O  O2  1  0.80692700  0.88767200  0.98521900  1
  O  O3  1  0.41925500  0.09754700  0.61232800  1
  O  O4  1  0.88767200  0.40245300  0.08074500  1
  O  O5  1  0.67829200  0.08074500  0.69307300  1
  O  O6  1  0.82170800  0.80692700  0.41925500  1
  O  O7  1  0.40245300  0.82170800  0.51478100  1
  O  O8  1  0.61232800  0.69307300  0.51478100  1
  O  O9  1  0.41925500  0.82170800  0.80692700  1
  O  O10  1  0.40245300  0.08074500  0.88767200  1
  O  O11  1  0.09754700  0.98521900  0.67829200  1
  O  O12  1  0.98521900  0.67829200  0.09754700  1
  O  O13  1  0.80692700  0.41925500  0.82170800  1
  O  O14  1  0.51478100  0.61232800  0.69307300  1
  O  O15  1  0.69307300  0.51478100  0.61232800  1
  O  O16  1  0.08074500  0.88767200  0.40245300  1
  O  O17  1  0.98521900  0.80692700  0.88767200  1
  O  O18  1  0.08074500  0.69307300  0.67829200  1
  O  O19  1  0.38767200  0.30692700  0.48521900  1
  O  O20  1  0.61232800  0.41925500  0.09754700  1
  O  O21  1  0.09754700  0.61232800  0.41925500  1
  O  O22  1  0.69307300  0.67829200  0.08074500  1
  O  O23  1  0.67829200  0.09754700  0.98521900  1
  O  O24  1  0.48521900  0.59754700  0.17829200  1
  O  O25  1  0.17829200  0.48521900  0.59754700  1
  O  O26  1  0.19307300  0.11232800  0.01478100  1
  O  O27  1  0.58074500  0.90245300  0.38767200  1
  O  O28  1  0.11232800  0.59754700  0.91925500  1
  O  O29  1  0.32170800  0.91925500  0.30692700  1
  O  O30  1  0.17829200  0.19307300  0.58074500  1
  O  O31  1  0.59754700  0.17829200  0.48521900  1
  O  O32  1  0.32170800  0.90245300  0.01478100  1
  O  O33  1  0.30692700  0.32170800  0.91925500  1
  O  O34  1  0.90245300  0.38767200  0.58074500  1
  O  O35  1  0.11232800  0.01478100  0.19307300  1
  O  O36  1  0.38767200  0.58074500  0.90245300  1
  O  O37  1  0.91925500  0.30692700  0.32170800  1
  O  O38  1  0.01478100  0.19307300  0.11232800  1
  O  O39  1  0.91925500  0.11232800  0.59754700  1
  O  O40  1  0.30692700  0.48521900  0.38767200  1
  O  O41  1  0.48521900  0.38767200  0.30692700  1
  O  O42  1  0.19307300  0.58074500  0.17829200  1
  O  O43  1  0.01478100  0.32170800  0.90245300  1
  O  O44  1  0.90245300  0.01478100  0.32170800  1
  O  O45  1  0.59754700  0.91925500  0.11232800  1
  O  O46  1  0.58074500  0.17829200  0.19307300  1
  O  O47  1  0.88767200  0.98521900  0.80692700  1
loop_
_geom_bond_atom_site_label_1
_geom_bond_atom_site_label_2
_geom_bond_distance
_geom_bond_site_symmetry_2
Na0 O13 2.370583 1_555
Na0 O2 2.370583 1_555
Na0 O15 2.370583 1_555
Na0 O22 2.370583 1_556
Na0 O17 2.497521 1_555
Na0 O14 2.497521 1_555
Na0 O0 2.497521 1_555
Na0 O12 2.497521 1_556
Na1 O11 2.370583 1_555
Na1 O7 2.370583 1_555
Na1 O21 2.370583 1_555
Na1 O10 2.370583 1_565
Na1 O9 2.497521 1_555
Na1 O18 2.497521 1_555
Na1 O16 2.497521 1_555
Na1 O3 2.497521 1_565
Na2 O0 2.370583 1_555
Na2 O3 2.370583 1_555
Na2 O23 2.370583 1_555
Na2 O4 2.370583 1_556
Na2 O5 2.497521 1_555
Na2 O13 2.497521 1_555
Na2 O10 2.497521 1_555
Na2 O20 2.497521 1_556
Na3 O6 2.370583 1_555
Na3 O18 2.370583 1_655
Na3 O17 2.370583 1_555
Na3 O8 2.370583 1_555
Na3 O15 2.497521 1_555
Na3 O47 2.497521 1_555
Na3 O1 2.497521 1_555
Na3 O11 2.497521 1_655
Na4 O1 2.370583 1_555
Na4 O12 2.370583 1_555
Na4 O16 2.370583 1_655
Na4 O20 2.370583 1_555
Na4 O6 2.497521 1_555
Na4 O22 2.497521 1_555
Na4 O21 2.497521 1_655
Na4 O4 2.497521 1_555
Na5 O9 2.370583 1_555
Na5 O5 2.370583 1_565
Na5 O14 2.370583 1_555
Na5 O47 2.370583 1_555
Na5 O8 2.497521 1_555
Na5 O2 2.497521 1_555
Na5 O7 2.497521 1_555
Na5 O23 2.497521 1_565
Na6 O33 2.370583 1_554
Na6 O42 2.370583 1_555
Na6 O26 2.370583 1_555
Na6 O40 2.370583 1_555
Na6 O38 2.497521 1_555
Na6 O41 2.497521 1_555
Na6 O43 2.497521 1_554
Na6 O24 2.497521 1_555
Na7 O31 2.370583 1_555
Na7 O44 2.370583 1_555
Na7 O45 2.370583 1_545
Na7 O34 2.370583 1_555
Na7 O46 2.497521 1_555
Na7 O37 2.497521 1_555
Na7 O27 2.497521 1_545
Na7 O39 2.497521 1_555
Na8 O28 2.370583 1_554
Na8 O24 2.370583 1_555
Na8 O32 2.370583 1_555
Na8 O27 2.370583 1_555
Na8 O42 2.497521 1_555
Na8 O29 2.497521 1_555
Na8 O36 2.497521 1_554
Na8 O45 2.497521 1_555
Na9 O30 2.370583 1_555
Na9 O37 2.370583 1_455
Na9 O38 2.370583 1_555
Na9 O19 2.370583 1_555
Na9 O40 2.497521 1_555
Na9 O35 2.497521 1_555
Na9 O44 2.497521 1_455
Na9 O25 2.497521 1_555
Na10 O43 2.370583 1_555
Na10 O25 2.370583 1_555
Na10 O39 2.370583 1_455
Na10 O36 2.370583 1_555
Na10 O30 2.497521 1_555
Na10 O33 2.497521 1_555
Na10 O34 2.497521 1_455
Na10 O28 2.497521 1_555
Na11 O46 2.370583 1_555
Na11 O29 2.370583 1_545
Na11 O41 2.370583 1_555
Na11 O35 2.370583 1_555
Na11 O26 2.497521 1_555
Na11 O19 2.497521 1_555
Na11 O31 2.497521 1_555
Na11 O32 2.497521 1_545
Ni0 O27 1.897876 1_545
Ni0 O3 1.897876 1_555
Ni0 O29 1.897876 1_545
Ni0 O31 1.897876 1_555
Ni0 O5 1.897876 1_555
Ni0 O7 1.897876 1_545
Ni1 O28 1.897876 1_554
Ni1 O4 1.897876 1_455
Ni1 O42 1.897876 1_555
Ni1 O43 1.897876 1_554
Ni1 O13 1.897876 1_454
Ni1 O12 1.897876 1_455
Ni2 O41 1.897876 1_555
Ni2 O19 1.897876 1_555
Ni2 O40 1.897876 1_555
Ni2 O14 1.897876 1_555
Ni2 O8 1.897876 1_555
Ni2 O15 1.897876 1_555
Ni3 O39 1.897876 1_455
Ni3 O6 1.897876 1_445
Ni3 O16 1.897876 1_545
Ni3 O30 1.897876 1_555
Ni3 O44 1.897876 1_455
Ni3 O11 1.897876 1_545
Ni4 O38 1.897876 1_555
Ni4 O35 1.897876 1_555
Ni4 O26 1.897876 1_555
Ni4 O17 1.897876 1_444
Ni4 O47 1.897876 1_444
Ni4 O2 1.897876 1_444
Ni5 O34 1.897876 1_455
Ni5 O21 1.897876 1_555
Ni5 O25 1.897876 1_555
Ni5 O1 1.897876 1_455
Ni5 O37 1.897876 1_455
Ni5 O18 1.897876 1_555
Ni6 O36 1.897876 1_554
Ni6 O20 1.897876 1_555
Ni6 O24 1.897876 1_555
Ni6 O33 1.897876 1_554
Ni6 O0 1.897876 1_554
Ni6 O22 1.897876 1_555
Ni7 O45 1.897876 1_545
Ni7 O32 1.897876 1_545
Ni7 O10 1.897876 1_554
Ni7 O46 1.897876 1_555
Ni7 O23 1.897876 1_554
Ni7 O9 1.897876 1_544
Ge0 O36 1.787071 1_555
Ge0 O25 1.787071 1_555
Ge0 O14 1.787071 1_555
Ge0 O9 1.787071 1_555
Ge1 O20 1.787071 1_555
Ge1 O41 1.787071 1_555
Ge1 O46 1.787071 1_555
Ge1 O1 1.787071 1_555
Ge2 O24 1.787071 1_555
Ge2 O27 1.787071 1_555
Ge2 O8 1.787071 1_555
Ge2 O6 1.787071 1_555
Ge3 O26 1.787071 1_556
Ge3 O33 1.787071 1_555
Ge3 O10 1.787071 1_555
Ge3 O11 1.787071 1_545
Ge4 O38 1.787071 1_655
Ge4 O37 1.787071 1_555
Ge4 O23 1.787071 1_554
Ge4 O4 1.787071 1_555
Ge5 O31 1.787071 1_555
Ge5 O34 1.787071 1_555
Ge5 O13 1.787071 1_555
Ge5 O15 1.787071 1_555
Ge6 O42 1.787071 1_555
Ge6 O40 1.787071 1_555
Ge6 O21 1.787071 1_555
Ge6 O7 1.787071 1_555
Ge7 O44 1.787071 1_565
Ge7 O22 1.787071 1_555
Ge7 O45 1.787071 1_555
Ge7 O2 1.787071 1_554
Ge8 O32 1.787071 1_556
Ge8 O18 1.787071 1_555
Ge8 O28 1.787071 1_555
Ge8 O17 1.787071 1_455
Ge9 O0 1.787071 1_555
Ge9 O30 1.787071 1_555
Ge9 O19 1.787071 1_555
Ge9 O3 1.787071 1_555
Ge10 O43 1.787071 1_655
Ge10 O39 1.787071 1_555
Ge10 O47 1.787071 1_545
Ge10 O5 1.787071 1_555
Ge11 O35 1.787071 1_565
Ge11 O29 1.787071 1_555
Ge11 O16 1.787071 1_555
Ge11 O12 1.787071 1_455
