# generated using pymatgen
data_LiMn2O4
_symmetry_space_group_name_H-M   'P 1'
_cell_length_a   5.66985861
_cell_length_b   5.66985861
_cell_length_c   5.70941328
_cell_angle_alpha   63.57723242
_cell_angle_beta   63.39348600
_cell_angle_gamma   95.79209751
_symmetry_Int_Tables_number   1
_chemical_formula_structural   LiMn2O4
_chemical_formula_sum   'Li2 Mn4 O8'
_cell_volume   136.24147409
_cell_formula_units_Z   2
loop_
 _symmetry_equiv_pos_site_id
 _symmetry_equiv_pos_as_xyz
  1  'x, y, z'
loop_
 _atom_site_type_symbol
 _atom_site_label
 _atom_site_symmetry_multiplicity
 _atom_site_fract_x
 _atom_site_fract_y
 _atom_site_fract_z
 _atom_site_occupancy
  Li  Li0  1  0.00000000  0.00000000  0.50000000  1
  Li  Li1  1  0.00000000  0.50000000  0.00000000  1
  Mn  Mn0  1  0.00000000  0.00000000  0.00000000  1
  Mn  Mn1  1  0.50000000  0.00000000  0.50000000  1
  Mn  Mn2  1  0.50000000  0.50000000  0.00000000  1
  Mn  Mn3  1  0.00000000  0.50000000  0.50000000  1
  O  O0  1  0.24373000  0.75285800  0.01981300  1
  O  O1  1  0.72732800  0.73645700  0.51981300  1
  O  O2  1  0.78768000  0.25385400  0.45853600  1
  O  O3  1  0.78761000  0.75378400  0.95853600  1
  O  O4  1  0.75627000  0.24714200  0.98018700  1
  O  O5  1  0.27267200  0.26354300  0.48018700  1
  O  O6  1  0.21232000  0.74614600  0.54146400  1
  O  O7  1  0.21239000  0.24621600  0.04146400  1
loop_
_geom_bond_atom_site_label_1
_geom_bond_atom_site_label_2
_geom_bond_distance
_geom_bond_site_symmetry_2
Li0 O7 1.958816 1_555
Li0 O3 1.958816 1_445
Li0 O5 1.965294 1_555
Li0 O1 1.965294 1_445
Li0 O2 1.969419 1_455
Li0 O6 1.969419 1_545
Li1 O2 1.958816 1_455
Li1 O6 1.958816 1_554
Li1 O4 1.965290 1_454
Li1 O0 1.965290 1_555
Li1 O3 1.969419 1_454
Li1 O7 1.969419 1_555
Mn0 O3 1.914472 1_444
Mn0 O7 1.914472 1_555
Mn0 O0 2.067803 1_545
Mn0 O4 2.067803 1_454
Mn0 O1 2.215411 1_445
Mn0 O5 2.215411 1_554
Mn1 O6 1.914472 1_545
Mn1 O2 1.914472 1_555
Mn1 O1 2.067799 1_545
Mn1 O5 2.067799 1_555
Mn1 O4 2.215410 1_554
Mn1 O0 2.215410 1_546
Mn2 O7 1.913944 1_555
Mn2 O3 1.913944 1_554
Mn2 O1 2.046911 1_554
Mn2 O5 2.046911 1_555
Mn2 O4 2.144067 1_554
Mn2 O0 2.144067 1_555
Mn3 O6 1.913944 1_555
Mn3 O2 1.913944 1_455
Mn3 O4 2.046910 1_455
Mn3 O0 2.046910 1_555
Mn3 O1 2.144071 1_455
Mn3 O5 2.144071 1_555
