# generated using pymatgen
data_Dy2CdS4
_symmetry_space_group_name_H-M   'P 1'
_cell_length_a   7.94710030
_cell_length_b   7.94710106
_cell_length_c   7.94710112
_cell_angle_alpha   59.99999975
_cell_angle_beta   59.99999659
_cell_angle_gamma   60.00000830
_symmetry_Int_Tables_number   1
_chemical_formula_structural   Dy2CdS4
_chemical_formula_sum   'Dy4 Cd2 S8'
_cell_volume   354.90423889
_cell_formula_units_Z   2
loop_
 _symmetry_equiv_pos_site_id
 _symmetry_equiv_pos_as_xyz
  1  'x, y, z'
loop_
 _atom_site_type_symbol
 _atom_site_label
 _atom_site_symmetry_multiplicity
 _atom_site_fract_x
 _atom_site_fract_y
 _atom_site_fract_z
 _atom_site_occupancy
  Dy  Dy0  1  0.50000000  0.50000000  0.00000000  1
  Dy  Dy1  1  0.50000000  0.50000000  0.50000000  1
  Dy  Dy2  1  -0.00000000  0.50000000  0.50000000  1
  Dy  Dy3  1  0.50000000  0.00000000  0.50000000  1
  Cd  Cd0  1  0.87500000  0.87500000  0.87500000  1
  Cd  Cd1  1  0.12500000  0.12500000  0.12500000  1
  S  S0  1  0.74293811  0.74293811  0.74293811  1
  S  S1  1  0.25706189  0.25706189  0.72881334  1
  S  S2  1  0.25706189  0.72881334  0.25706189  1
  S  S3  1  0.72881334  0.25706189  0.25706189  1
  S  S4  1  0.74293811  0.27118666  0.74293811  1
  S  S5  1  0.27118666  0.74293811  0.74293811  1
  S  S6  1  0.25706189  0.25706189  0.25706189  1
  S  S7  1  0.74293811  0.74293811  0.27118666  1
loop_
_geom_bond_atom_site_label_1
_geom_bond_atom_site_label_2
_geom_bond_distance
_geom_bond_site_symmetry_2
Dy0 S4 2.732658 1_554
Dy0 S2 2.732658 1_555
Dy0 S3 2.732658 1_555
Dy0 S5 2.732658 1_554
Dy0 S6 2.732662 1_555
Dy0 S0 2.732662 1_554
Dy1 S1 2.732663 1_555
Dy1 S7 2.732663 1_555
Dy1 S4 2.732663 1_555
Dy1 S2 2.732663 1_555
Dy1 S3 2.732663 1_555
Dy1 S5 2.732663 1_555
Dy2 S2 2.732657 1_555
Dy2 S4 2.732657 1_455
Dy2 S7 2.732658 1_455
Dy2 S1 2.732658 1_555
Dy2 S0 2.732663 1_455
Dy2 S6 2.732663 1_555
Dy3 S5 2.732657 1_545
Dy3 S3 2.732657 1_555
Dy3 S7 2.732658 1_545
Dy3 S1 2.732658 1_555
Dy3 S0 2.732663 1_545
Dy3 S6 2.732663 1_555
Cd0 S0 2.570762 1_555
Cd0 S5 2.570768 1_655
Cd0 S7 2.570768 1_556
Cd0 S4 2.570769 1_565
Cd1 S6 2.570762 1_555
Cd1 S3 2.570768 1_455
Cd1 S1 2.570768 1_554
Cd1 S2 2.570769 1_545
