# generated using pymatgen
data_Sc57Pt13
_symmetry_space_group_name_H-M   'P 1'
_cell_length_a   14.50173938
_cell_length_b   14.50173938
_cell_length_c   14.50173938
_cell_angle_alpha   90.00000000
_cell_angle_beta   90.00000000
_cell_angle_gamma   90.00000000
_symmetry_Int_Tables_number   1
_chemical_formula_structural   Sc57Pt13
_chemical_formula_sum   'Sc114 Pt26'
_cell_volume   3049.72224555
_cell_formula_units_Z   2
loop_
 _symmetry_equiv_pos_site_id
 _symmetry_equiv_pos_as_xyz
  1  'x, y, z'
loop_
 _atom_site_type_symbol
 _atom_site_label
 _atom_site_symmetry_multiplicity
 _atom_site_fract_x
 _atom_site_fract_y
 _atom_site_fract_z
 _atom_site_occupancy
  Sc  Sc0  1  -0.00000000  0.37431108  0.00000000  1
  Sc  Sc1  1  -0.00000000  0.62568892  0.00000000  1
  Sc  Sc2  1  -0.00000000  -0.00000000  0.37431108  1
  Sc  Sc3  1  -0.00000000  -0.00000000  0.62568892  1
  Sc  Sc4  1  0.37431108  -0.00000000  0.00000000  1
  Sc  Sc5  1  0.62568892  -0.00000000  0.00000000  1
  Sc  Sc6  1  -0.00000000  0.22274381  0.50000000  1
  Sc  Sc7  1  -0.00000000  0.77725619  0.50000000  1
  Sc  Sc8  1  0.50000000  -0.00000000  0.22274381  1
  Sc  Sc9  1  0.50000000  -0.00000000  0.77725619  1
  Sc  Sc10  1  0.22274381  0.50000000  0.00000000  1
  Sc  Sc11  1  0.77725619  0.50000000  0.00000000  1
  Sc  Sc12  1  0.50000000  0.85941218  0.50000000  1
  Sc  Sc13  1  0.50000000  0.14058782  0.50000000  1
  Sc  Sc14  1  0.50000000  0.50000000  0.85941218  1
  Sc  Sc15  1  0.50000000  0.50000000  0.14058782  1
  Sc  Sc16  1  0.85941218  0.50000000  0.50000000  1
  Sc  Sc17  1  0.14058782  0.50000000  0.50000000  1
  Sc  Sc18  1  0.62734536  -0.00000000  0.39251874  1
  Sc  Sc19  1  0.37265464  -0.00000000  0.60748126  1
  Sc  Sc20  1  0.37265464  -0.00000000  0.39251874  1
  Sc  Sc21  1  0.62734536  -0.00000000  0.60748126  1
  Sc  Sc22  1  0.39251874  0.62734536  0.00000000  1
  Sc  Sc23  1  0.60748126  0.37265464  0.00000000  1
  Sc  Sc24  1  0.39251874  0.37265464  0.00000000  1
  Sc  Sc25  1  0.60748126  0.62734536  0.00000000  1
  Sc  Sc26  1  -0.00000000  0.39251874  0.62734536  1
  Sc  Sc27  1  -0.00000000  0.60748126  0.37265464  1
  Sc  Sc28  1  -0.00000000  0.39251874  0.37265464  1
  Sc  Sc29  1  -0.00000000  0.60748126  0.62734536  1
  Sc  Sc30  1  0.89314251  -0.00000000  0.17663347  1
  Sc  Sc31  1  0.10685749  -0.00000000  0.82336653  1
  Sc  Sc32  1  0.10685749  -0.00000000  0.17663347  1
  Sc  Sc33  1  0.89314251  -0.00000000  0.82336653  1
  Sc  Sc34  1  0.17663347  0.89314251  0.00000000  1
  Sc  Sc35  1  0.82336653  0.10685749  0.00000000  1
  Sc  Sc36  1  0.17663347  0.10685749  0.00000000  1
  Sc  Sc37  1  0.82336653  0.89314251  0.00000000  1
  Sc  Sc38  1  -0.00000000  0.17663347  0.89314251  1
  Sc  Sc39  1  -0.00000000  0.82336653  0.10685749  1
  Sc  Sc40  1  -0.00000000  0.17663347  0.10685749  1
  Sc  Sc41  1  -0.00000000  0.82336653  0.89314251  1
  Sc  Sc42  1  0.10135184  0.50000000  0.82586071  1
  Sc  Sc43  1  0.89864816  0.50000000  0.17413929  1
  Sc  Sc44  1  0.89864816  0.50000000  0.82586071  1
  Sc  Sc45  1  0.10135184  0.50000000  0.17413929  1
  Sc  Sc46  1  0.82586071  0.10135184  0.50000000  1
  Sc  Sc47  1  0.17413929  0.89864816  0.50000000  1
  Sc  Sc48  1  0.82586071  0.89864816  0.50000000  1
  Sc  Sc49  1  0.17413929  0.10135184  0.50000000  1
  Sc  Sc50  1  0.50000000  0.82586071  0.10135184  1
  Sc  Sc51  1  0.50000000  0.17413929  0.89864816  1
  Sc  Sc52  1  0.50000000  0.82586071  0.89864816  1
  Sc  Sc53  1  0.50000000  0.17413929  0.10135184  1
  Sc  Sc54  1  0.39196580  0.50000000  0.67315893  1
  Sc  Sc55  1  0.60803420  0.50000000  0.32684107  1
  Sc  Sc56  1  0.60803420  0.50000000  0.67315893  1
  Sc  Sc57  1  0.39196580  0.50000000  0.32684107  1
  Sc  Sc58  1  0.67315893  0.39196580  0.50000000  1
  Sc  Sc59  1  0.32684107  0.60803420  0.50000000  1
  Sc  Sc60  1  0.67315893  0.60803420  0.50000000  1
  Sc  Sc61  1  0.32684107  0.39196580  0.50000000  1
  Sc  Sc62  1  0.50000000  0.67315893  0.39196580  1
  Sc  Sc63  1  0.50000000  0.32684107  0.60803420  1
  Sc  Sc64  1  0.50000000  0.67315893  0.60803420  1
  Sc  Sc65  1  0.50000000  0.32684107  0.39196580  1
  Sc  Sc66  1  0.70279912  0.11087138  0.18703052  1
  Sc  Sc67  1  0.29720088  0.11087138  0.81296948  1
  Sc  Sc68  1  0.29720088  0.88912862  0.18703052  1
  Sc  Sc69  1  0.70279912  0.88912862  0.81296948  1
  Sc  Sc70  1  0.18703052  0.70279912  0.11087138  1
  Sc  Sc71  1  0.81296948  0.29720088  0.11087138  1
  Sc  Sc72  1  0.18703052  0.29720088  0.88912862  1
  Sc  Sc73  1  0.81296948  0.70279912  0.88912862  1
  Sc  Sc74  1  0.11087138  0.18703052  0.70279912  1
  Sc  Sc75  1  0.11087138  0.81296948  0.29720088  1
  Sc  Sc76  1  0.88912862  0.18703052  0.29720088  1
  Sc  Sc77  1  0.88912862  0.81296948  0.70279912  1
  Sc  Sc78  1  0.29720088  0.88912862  0.81296948  1
  Sc  Sc79  1  0.70279912  0.88912862  0.18703052  1
  Sc  Sc80  1  0.70279912  0.11087138  0.81296948  1
  Sc  Sc81  1  0.29720088  0.11087138  0.18703052  1
  Sc  Sc82  1  0.81296948  0.29720088  0.88912862  1
  Sc  Sc83  1  0.18703052  0.70279912  0.88912862  1
  Sc  Sc84  1  0.81296948  0.70279912  0.11087138  1
  Sc  Sc85  1  0.18703052  0.29720088  0.11087138  1
  Sc  Sc86  1  0.88912862  0.81296948  0.29720088  1
  Sc  Sc87  1  0.88912862  0.18703052  0.70279912  1
  Sc  Sc88  1  0.11087138  0.81296948  0.70279912  1
  Sc  Sc89  1  0.11087138  0.18703052  0.29720088  1
  Sc  Sc90  1  0.20853356  0.61432914  0.67756087  1
  Sc  Sc91  1  0.79146644  0.61432914  0.32243913  1
  Sc  Sc92  1  0.79146644  0.38567086  0.67756087  1
  Sc  Sc93  1  0.20853356  0.38567086  0.32243913  1
  Sc  Sc94  1  0.67756087  0.20853356  0.61432914  1
  Sc  Sc95  1  0.32243913  0.79146644  0.61432914  1
  Sc  Sc96  1  0.67756087  0.79146644  0.38567086  1
  Sc  Sc97  1  0.32243913  0.20853356  0.38567086  1
  Sc  Sc98  1  0.61432914  0.67756087  0.20853356  1
  Sc  Sc99  1  0.61432914  0.32243913  0.79146644  1
  Sc  Sc100  1  0.38567086  0.67756087  0.79146644  1
  Sc  Sc101  1  0.38567086  0.32243913  0.20853356  1
  Sc  Sc102  1  0.79146644  0.38567086  0.32243913  1
  Sc  Sc103  1  0.20853356  0.38567086  0.67756087  1
  Sc  Sc104  1  0.20853356  0.61432914  0.32243913  1
  Sc  Sc105  1  0.79146644  0.61432914  0.67756087  1
  Sc  Sc106  1  0.32243913  0.79146644  0.38567086  1
  Sc  Sc107  1  0.67756087  0.20853356  0.38567086  1
  Sc  Sc108  1  0.32243913  0.20853356  0.61432914  1
  Sc  Sc109  1  0.67756087  0.79146644  0.61432914  1
  Sc  Sc110  1  0.38567086  0.32243913  0.79146644  1
  Sc  Sc111  1  0.38567086  0.67756087  0.20853356  1
  Sc  Sc112  1  0.61432914  0.32243913  0.20853356  1
  Sc  Sc113  1  0.61432914  0.67756087  0.79146644  1
  Pt  Pt0  1  -0.00000000  -0.00000000  0.00000000  1
  Pt  Pt1  1  0.50000000  0.50000000  0.50000000  1
  Pt  Pt2  1  0.79853753  -0.00000000  0.33294949  1
  Pt  Pt3  1  0.20146247  -0.00000000  0.66705051  1
  Pt  Pt4  1  0.20146247  -0.00000000  0.33294949  1
  Pt  Pt5  1  0.79853753  -0.00000000  0.66705051  1
  Pt  Pt6  1  0.33294949  0.79853753  0.00000000  1
  Pt  Pt7  1  0.66705051  0.20146247  0.00000000  1
  Pt  Pt8  1  0.33294949  0.20146247  0.00000000  1
  Pt  Pt9  1  0.66705051  0.79853753  0.00000000  1
  Pt  Pt10  1  -0.00000000  0.33294949  0.79853753  1
  Pt  Pt11  1  -0.00000000  0.66705051  0.20146247  1
  Pt  Pt12  1  -0.00000000  0.33294949  0.20146247  1
  Pt  Pt13  1  -0.00000000  0.66705051  0.79853753  1
  Pt  Pt14  1  0.30003943  0.50000000  0.83262727  1
  Pt  Pt15  1  0.69996057  0.50000000  0.16737273  1
  Pt  Pt16  1  0.69996057  0.50000000  0.83262727  1
  Pt  Pt17  1  0.30003943  0.50000000  0.16737273  1
  Pt  Pt18  1  0.83262727  0.30003943  0.50000000  1
  Pt  Pt19  1  0.16737273  0.69996057  0.50000000  1
  Pt  Pt20  1  0.83262727  0.69996057  0.50000000  1
  Pt  Pt21  1  0.16737273  0.30003943  0.50000000  1
  Pt  Pt22  1  0.50000000  0.83262727  0.30003943  1
  Pt  Pt23  1  0.50000000  0.16737273  0.69996057  1
  Pt  Pt24  1  0.50000000  0.83262727  0.69996057  1
  Pt  Pt25  1  0.50000000  0.16737273  0.30003943  1
loop_
_geom_bond_atom_site_label_1
_geom_bond_atom_site_label_2
_geom_bond_distance
_geom_bond_site_symmetry_2
Sc0 Sc38 3.258698 1_554
Sc0 Sc40 3.258698 1_555
Sc0 Sc71 3.345437 1_455
Sc0 Sc72 3.345437 1_554
Sc0 Sc82 3.345437 1_454
Sc0 Sc85 3.345437 1_555
Sc0 Sc44 3.443801 1_454
Sc0 Sc42 3.443801 1_554
Sc0 Sc43 3.443801 1_455
Sc0 Sc45 3.443801 1_555
Sc0 Sc1 3.645416 1_555
Sc0 Sc11 3.708946 1_455
Sc0 Sc10 3.708946 1_555
Sc1 Sc41 3.258698 1_554
Sc1 Sc39 3.258698 1_555
Sc1 Sc73 3.345437 1_454
Sc1 Sc84 3.345437 1_455
Sc1 Sc83 3.345437 1_554
Sc1 Sc70 3.345437 1_555
Sc1 Sc44 3.443801 1_454
Sc1 Sc42 3.443801 1_554
Sc1 Sc43 3.443801 1_455
Sc1 Sc45 3.443801 1_555
Sc1 Sc11 3.708946 1_455
Sc1 Sc10 3.708946 1_555
Sc2 Sc32 3.258698 1_555
Sc2 Sc30 3.258698 1_455
Sc2 Sc76 3.345437 1_455
Sc2 Sc75 3.345437 1_545
Sc2 Sc86 3.345437 1_445
Sc2 Sc89 3.345437 1_555
Sc2 Sc48 3.443801 1_445
Sc2 Sc46 3.443801 1_455
Sc2 Sc47 3.443801 1_545
Sc2 Sc49 3.443801 1_555
Sc2 Sc3 3.645416 1_555
Sc2 Sc7 3.708946 1_545
Sc2 Sc6 3.708946 1_555
Sc3 Sc31 3.258698 1_555
Sc3 Sc33 3.258698 1_455
Sc3 Sc77 3.345437 1_445
Sc3 Sc87 3.345437 1_455
Sc3 Sc88 3.345437 1_545
Sc3 Sc74 3.345437 1_555
Sc3 Sc46 3.443801 1_455
Sc3 Sc48 3.443801 1_445
Sc3 Sc47 3.443801 1_545
Sc3 Sc49 3.443801 1_555
Sc3 Sc7 3.708946 1_545
Sc3 Sc6 3.708946 1_555
Sc4 Sc78 3.345437 1_544
Sc4 Sc68 3.345437 1_545
Sc4 Sc67 3.345437 1_554
Sc4 Sc81 3.345437 1_555
Sc4 Sc52 3.443801 1_544
Sc4 Sc50 3.443801 1_545
Sc4 Sc51 3.443801 1_554
Sc4 Sc53 3.443801 1_555
Sc4 Sc5 3.645416 1_555
Sc4 Sc8 3.708946 1_555
Sc4 Sc9 3.708946 1_554
Sc5 Sc69 3.345437 1_544
Sc5 Sc80 3.345437 1_554
Sc5 Sc79 3.345437 1_545
Sc5 Sc66 3.345437 1_555
Sc5 Sc52 3.443801 1_544
Sc5 Sc50 3.443801 1_545
Sc5 Sc51 3.443801 1_554
Sc5 Sc53 3.443801 1_555
Sc5 Sc9 3.708946 1_554
Sc5 Sc8 3.708946 1_555
Sc6 Sc87 3.391528 1_455
Sc6 Sc76 3.391528 1_455
Sc6 Sc89 3.391528 1_555
Sc6 Sc74 3.391528 1_555
Sc7 Sc77 3.391528 1_455
Sc7 Sc86 3.391528 1_455
Sc7 Sc88 3.391528 1_555
Sc7 Sc75 3.391528 1_555
Sc8 Sc81 3.391528 1_555
Sc10 Sc22 3.077663 1_555
Sc10 Sc24 3.077663 1_555
Sc10 Sc42 3.078351 1_554
Sc10 Sc45 3.078351 1_555
Sc10 Sc83 3.391528 1_554
Sc10 Sc72 3.391528 1_554
Sc10 Sc85 3.391528 1_555
Sc10 Sc70 3.391528 1_555
Sc11 Sc25 3.077663 1_555
Sc11 Sc23 3.077663 1_555
Sc11 Sc44 3.078351 1_554
Sc11 Sc43 3.078351 1_555
Sc11 Sc73 3.391528 1_554
Sc11 Sc82 3.391528 1_554
Sc11 Sc84 3.391528 1_555
Sc11 Sc71 3.391528 1_555
Sc12 Sc64 3.122479 1_555
Sc12 Sc62 3.122479 1_555
Sc12 Sc21 3.161712 1_565
Sc12 Sc18 3.161712 1_565
Sc12 Sc19 3.161712 1_565
Sc12 Sc20 3.161712 1_565
Sc12 Sc96 3.217153 1_555
Sc12 Sc95 3.217153 1_555
Sc13 Sc63 3.122479 1_555
Sc13 Sc65 3.122479 1_555
Sc13 Sc18 3.161712 1_555
Sc13 Sc20 3.161712 1_555
Sc13 Sc21 3.161712 1_555
Sc13 Sc19 3.161712 1_555
Sc13 Sc97 3.217153 1_555
Sc13 Sc94 3.217153 1_555
Sc14 Sc56 3.122479 1_555
Sc14 Sc54 3.122479 1_555
Sc14 Sc25 3.161712 1_556
Sc14 Sc22 3.161712 1_556
Sc14 Sc23 3.161712 1_556
Sc14 Sc24 3.161712 1_556
Sc14 Sc99 3.217153 1_555
Sc15 Sc55 3.122479 1_555
Sc15 Sc57 3.122479 1_555
Sc15 Sc22 3.161712 1_555
Sc15 Sc25 3.161712 1_555
Sc15 Sc24 3.161712 1_555
Sc15 Sc23 3.161712 1_555
Sc15 Sc98 3.217153 1_555
Sc16 Sc60 3.122479 1_555
Sc16 Sc58 3.122479 1_555
Sc16 Sc29 3.161712 1_655
Sc16 Sc26 3.161712 1_655
Sc16 Sc28 3.161712 1_655
Sc16 Sc27 3.161712 1_655
Sc16 Sc92 3.217153 1_555
Sc16 Sc91 3.217153 1_555
Sc17 Sc59 3.122479 1_555
Sc17 Sc61 3.122479 1_555
Sc17 Sc26 3.161712 1_555
Sc17 Sc29 3.161712 1_555
Sc17 Sc28 3.161712 1_555
Sc17 Sc27 3.161712 1_555
Sc17 Sc93 3.217153 1_555
Sc17 Sc90 3.217153 1_555
Sc18 Sc8 3.077663 1_555
Sc18 Sc96 3.112127 1_545
Sc18 Sc79 3.558431 1_545
Sc18 Sc66 3.558431 1_555
Sc18 Sc48 3.588492 1_545
Sc18 Sc46 3.588492 1_555
Sc19 Sc9 3.077663 1_555
Sc19 Sc95 3.112127 1_545
Sc19 Sc78 3.558431 1_545
Sc19 Sc67 3.558431 1_555
Sc19 Sc47 3.588492 1_545
Sc19 Sc49 3.588492 1_555
Sc20 Sc8 3.077663 1_555
Sc20 Sc97 3.112127 1_555
Sc20 Sc68 3.558431 1_545
Sc20 Sc81 3.558431 1_555
Sc20 Sc47 3.588492 1_545
Sc20 Sc49 3.588492 1_555
Sc21 Sc9 3.077663 1_555
Sc21 Sc94 3.112127 1_555
Sc21 Sc69 3.558431 1_545
Sc21 Sc80 3.558431 1_555
Sc21 Sc48 3.588492 1_545
Sc21 Sc46 3.588492 1_555
Sc22 Sc70 3.558431 1_555
Sc22 Sc83 3.558431 1_554
Sc22 Sc52 3.588492 1_554
Sc22 Sc50 3.588492 1_555
Sc23 Sc99 3.112127 1_554
Sc23 Sc82 3.558431 1_554
Sc23 Sc71 3.558431 1_555
Sc23 Sc53 3.588492 1_555
Sc23 Sc51 3.588492 1_554
Sc24 Sc72 3.558431 1_554
Sc24 Sc85 3.558431 1_555
Sc24 Sc53 3.588492 1_555
Sc24 Sc51 3.588492 1_554
Sc25 Sc98 3.112127 1_555
Sc25 Sc73 3.558431 1_554
Sc25 Sc84 3.558431 1_555
Sc25 Sc52 3.588492 1_554
Sc25 Sc50 3.588492 1_555
Sc26 Sc6 3.077663 1_555
Sc26 Sc92 3.112127 1_455
Sc26 Sc87 3.558431 1_455
Sc26 Sc74 3.558431 1_555
Sc26 Sc42 3.588492 1_555
Sc26 Sc44 3.588492 1_455
Sc27 Sc7 3.077663 1_555
Sc27 Sc91 3.112127 1_455
Sc27 Sc86 3.558431 1_455
Sc27 Sc75 3.558431 1_555
Sc27 Sc43 3.588492 1_455
Sc27 Sc45 3.588492 1_555
Sc28 Sc6 3.077663 1_555
Sc28 Sc93 3.112127 1_555
Sc28 Sc76 3.558431 1_455
Sc28 Sc89 3.558431 1_555
Sc28 Sc45 3.588492 1_555
Sc28 Sc43 3.588492 1_455
Sc29 Sc7 3.077663 1_555
Sc29 Sc90 3.112127 1_555
Sc29 Sc77 3.558431 1_455
Sc29 Sc88 3.558431 1_555
Sc29 Sc42 3.588492 1_555
Sc29 Sc44 3.588492 1_455
Sc30 Sc32 3.099239 1_655
Sc30 Sc39 3.160135 1_645
Sc30 Sc35 3.160135 1_555
Sc30 Sc37 3.160135 1_545
Sc30 Sc40 3.160135 1_655
Sc30 Sc79 3.197993 1_545
Sc30 Sc66 3.197993 1_555
Sc30 Sc86 3.227510 1_545
Sc30 Sc76 3.227510 1_555
Sc31 Sc33 3.099239 1_455
Sc31 Sc41 3.160135 1_545
Sc31 Sc34 3.160135 1_546
Sc31 Sc36 3.160135 1_556
Sc31 Sc38 3.160135 1_555
Sc31 Sc78 3.197993 1_545
Sc31 Sc67 3.197993 1_555
Sc31 Sc88 3.227510 1_545
Sc31 Sc74 3.227510 1_555
Sc32 Sc39 3.160135 1_545
Sc32 Sc34 3.160135 1_545
Sc32 Sc36 3.160135 1_555
Sc32 Sc40 3.160135 1_555
Sc32 Sc68 3.197993 1_545
Sc32 Sc81 3.197993 1_555
Sc32 Sc75 3.227510 1_545
Sc32 Sc89 3.227510 1_555
Sc33 Sc35 3.160135 1_556
Sc33 Sc37 3.160135 1_546
Sc33 Sc41 3.160135 1_645
Sc33 Sc38 3.160135 1_655
Sc33 Sc69 3.197993 1_545
Sc33 Sc80 3.197993 1_555
Sc33 Sc77 3.227510 1_545
Sc33 Sc87 3.227510 1_555
Sc34 Sc36 3.099239 1_565
Sc34 Sc39 3.160135 1_555
Sc34 Sc41 3.160135 1_554
Sc34 Sc83 3.197993 1_554
Sc34 Sc70 3.197993 1_555
Sc34 Sc78 3.227510 1_554
Sc34 Sc68 3.227510 1_555
Sc34 Sc4 3.258698 1_565
Sc35 Sc37 3.099239 1_545
Sc35 Sc38 3.160135 1_654
Sc35 Sc40 3.160135 1_655
Sc35 Sc82 3.197993 1_554
Sc35 Sc71 3.197993 1_555
Sc35 Sc80 3.227510 1_554
Sc35 Sc66 3.227510 1_555
Sc35 Sc5 3.258698 1_555
Sc36 Sc38 3.160135 1_554
Sc36 Sc40 3.160135 1_555
Sc36 Sc72 3.197993 1_554
Sc36 Sc85 3.197993 1_555
Sc36 Sc67 3.227510 1_554
Sc36 Sc81 3.227510 1_555
Sc36 Sc4 3.258698 1_555
Sc37 Sc39 3.160135 1_655
Sc37 Sc41 3.160135 1_654
Sc37 Sc73 3.197993 1_554
Sc37 Sc84 3.197993 1_555
Sc37 Sc69 3.227510 1_554
Sc37 Sc79 3.227510 1_555
Sc37 Sc5 3.258698 1_565
Sc38 Sc40 3.099239 1_556
Sc38 Sc87 3.197993 1_455
Sc38 Sc74 3.197993 1_555
Sc38 Sc82 3.227510 1_455
Sc38 Sc72 3.227510 1_555
Sc39 Sc41 3.099239 1_554
Sc39 Sc86 3.197993 1_455
Sc39 Sc75 3.197993 1_555
Sc39 Sc84 3.227510 1_455
Sc39 Sc70 3.227510 1_555
Sc40 Sc76 3.197993 1_455
Sc40 Sc89 3.197993 1_555
Sc40 Sc71 3.227510 1_455
Sc40 Sc85 3.227510 1_555
Sc41 Sc77 3.197993 1_455
Sc41 Sc88 3.197993 1_555
Sc41 Sc73 3.227510 1_455
Sc41 Sc83 3.227510 1_555
Sc42 Sc44 2.939556 1_455
Sc42 Sc90 3.128880 1_555
Sc42 Sc83 3.321853 1_555
Sc42 Sc72 3.321853 1_555
Sc43 Sc45 2.939556 1_655
Sc43 Sc91 3.128880 1_555
Sc43 Sc84 3.321853 1_555
Sc43 Sc71 3.321853 1_555
Sc44 Sc92 3.128880 1_555
Sc44 Sc73 3.321853 1_555
Sc44 Sc82 3.321853 1_555
Sc45 Sc93 3.128880 1_555
Sc45 Sc70 3.321853 1_555
Sc45 Sc85 3.321853 1_555
Sc46 Sc48 2.939556 1_545
Sc46 Sc6 3.078351 1_655
Sc46 Sc94 3.128880 1_555
Sc46 Sc87 3.321853 1_555
Sc46 Sc76 3.321853 1_555
Sc47 Sc49 2.939556 1_565
Sc47 Sc7 3.078351 1_555
Sc47 Sc95 3.128880 1_555
Sc47 Sc88 3.321853 1_555
Sc47 Sc75 3.321853 1_555
Sc48 Sc7 3.078351 1_655
Sc48 Sc96 3.128880 1_555
Sc48 Sc77 3.321853 1_555
Sc48 Sc86 3.321853 1_555
Sc49 Sc6 3.078351 1_555
Sc49 Sc97 3.128880 1_555
Sc49 Sc74 3.321853 1_555
Sc49 Sc89 3.321853 1_555
Sc50 Sc52 2.939556 1_554
Sc50 Sc8 3.078351 1_565
Sc50 Sc98 3.128880 1_555
Sc50 Sc68 3.321853 1_555
Sc50 Sc79 3.321853 1_555
Sc51 Sc53 2.939556 1_556
Sc51 Sc9 3.078351 1_555
Sc51 Sc99 3.128880 1_555
Sc51 Sc80 3.321853 1_555
Sc51 Sc67 3.321853 1_555
Sc52 Sc9 3.078351 1_565
Sc52 Sc69 3.321853 1_555
Sc52 Sc78 3.321853 1_555
Sc53 Sc8 3.078351 1_555
Sc53 Sc81 3.321853 1_555
Sc53 Sc66 3.321853 1_555
Sc54 Sc59 3.106780 1_555
Sc54 Sc63 3.106780 1_555
Sc54 Sc61 3.106780 1_555
Sc54 Sc64 3.106780 1_555
Sc54 Sc56 3.133368 1_555
Sc54 Sc90 3.135124 1_555
Sc55 Sc98 3.095507 1_555
Sc55 Sc65 3.106780 1_555
Sc55 Sc60 3.106780 1_555
Sc55 Sc58 3.106780 1_555
Sc55 Sc62 3.106780 1_555
Sc55 Sc57 3.133368 1_555
Sc55 Sc91 3.135124 1_555
Sc56 Sc99 3.095507 1_555
Sc56 Sc63 3.106780 1_555
Sc56 Sc60 3.106780 1_555
Sc56 Sc64 3.106780 1_555
Sc56 Sc58 3.106780 1_555
Sc56 Sc92 3.135124 1_555
Sc57 Sc59 3.106780 1_555
Sc57 Sc61 3.106780 1_555
Sc57 Sc65 3.106780 1_555
Sc57 Sc62 3.106780 1_555
Sc57 Sc93 3.135124 1_555
Sc58 Sc92 3.095507 1_555
Sc58 Sc63 3.106780 1_555
Sc58 Sc65 3.106780 1_555
Sc58 Sc60 3.133368 1_555
Sc58 Sc94 3.135124 1_555
Sc59 Sc90 3.095507 1_555
Sc59 Sc64 3.106780 1_555
Sc59 Sc62 3.106780 1_555
Sc59 Sc61 3.133368 1_555
Sc59 Sc95 3.135124 1_555
Sc60 Sc91 3.095507 1_555
Sc60 Sc64 3.106780 1_555
Sc60 Sc62 3.106780 1_555
Sc60 Sc96 3.135124 1_555
Sc61 Sc93 3.095507 1_555
Sc61 Sc63 3.106780 1_555
Sc61 Sc65 3.106780 1_555
Sc61 Sc97 3.135124 1_555
Sc62 Sc96 3.095507 1_555
Sc62 Sc64 3.133368 1_555
Sc62 Sc98 3.135124 1_555
Sc63 Sc94 3.095507 1_555
Sc63 Sc65 3.133368 1_555
Sc63 Sc99 3.135124 1_555
Sc64 Sc95 3.095507 1_555
Sc65 Sc97 3.095507 1_555
Sc66 Sc79 3.215656 1_545
Sc66 Sc71 3.327712 1_555
Sc66 Sc76 3.327712 1_555
Sc66 Sc8 3.391528 1_555
Sc67 Sc78 3.215656 1_545
Sc67 Sc72 3.327712 1_555
Sc67 Sc74 3.327712 1_555
Sc67 Sc9 3.391528 1_555
Sc68 Sc81 3.215656 1_565
Sc68 Sc75 3.327712 1_555
Sc68 Sc70 3.327712 1_555
Sc68 Sc8 3.391528 1_565
Sc69 Sc80 3.215656 1_565
Sc69 Sc77 3.327712 1_555
Sc69 Sc73 3.327712 1_555
Sc69 Sc9 3.391528 1_565
Sc70 Sc83 3.215656 1_554
Sc70 Sc75 3.327712 1_555
Sc71 Sc82 3.215656 1_554
Sc71 Sc76 3.327712 1_555
Sc72 Sc85 3.215656 1_556
Sc72 Sc74 3.327712 1_555
Sc73 Sc84 3.215656 1_556
Sc73 Sc77 3.327712 1_555
Sc74 Sc87 3.215656 1_455
Sc75 Sc86 3.215656 1_455
Sc76 Sc89 3.215656 1_655
Sc77 Sc88 3.215656 1_655
Sc78 Sc95 3.230760 1_555
Sc78 Sc88 3.327712 1_555
Sc78 Sc83 3.327712 1_555
Sc78 Sc9 3.391528 1_565
Sc79 Sc96 3.230760 1_555
Sc79 Sc86 3.327712 1_555
Sc79 Sc84 3.327712 1_555
Sc79 Sc98 3.340133 1_555
Sc79 Sc8 3.391528 1_565
Sc80 Sc94 3.230760 1_555
Sc80 Sc82 3.327712 1_555
Sc80 Sc87 3.327712 1_555
Sc80 Sc99 3.340133 1_555
Sc80 Sc9 3.391528 1_555
Sc81 Sc97 3.230760 1_555
Sc81 Sc89 3.327712 1_555
Sc81 Sc85 3.327712 1_555
Sc82 Sc99 3.230760 1_555
Sc82 Sc87 3.327712 1_555
Sc82 Sc92 3.340133 1_555
Sc83 Sc88 3.327712 1_555
Sc83 Sc90 3.340133 1_555
Sc84 Sc98 3.230760 1_555
Sc84 Sc86 3.327712 1_555
Sc84 Sc91 3.340133 1_555
Sc85 Sc89 3.327712 1_555
Sc85 Sc93 3.340133 1_555
Sc86 Sc91 3.230760 1_555
Sc86 Sc96 3.340133 1_555
Sc87 Sc92 3.230760 1_555
Sc87 Sc94 3.340133 1_555
Sc88 Sc90 3.230760 1_555
Sc88 Sc95 3.340133 1_555
Sc89 Sc93 3.230760 1_555
Sc89 Sc97 3.340133 1_555
Sc90 Sc95 3.188746 1_555
Sc91 Sc98 3.188746 1_555
Sc91 Sc96 3.188746 1_555
Sc92 Sc99 3.188746 1_555
Sc92 Sc94 3.188746 1_555
Sc93 Sc97 3.188746 1_555
Sc94 Sc99 3.188746 1_555
Sc96 Sc98 3.188746 1_555
Sc100 Sc54 3.095507 1_555
Sc100 Sc22 3.112127 1_556
Sc100 Sc52 3.128880 1_555
Sc100 Sc64 3.135124 1_555
Sc100 Sc95 3.188746 1_555
Sc100 Sc90 3.188746 1_555
Sc100 Sc14 3.217153 1_555
Sc100 Sc83 3.230760 1_555
Sc100 Sc113 3.315943 1_555
Sc100 Sc78 3.340133 1_555
Sc101 Sc57 3.095507 1_555
Sc101 Sc24 3.112127 1_555
Sc101 Sc53 3.128880 1_555
Sc101 Sc65 3.135124 1_555
Sc101 Sc93 3.188746 1_555
Sc101 Sc97 3.188746 1_555
Sc101 Sc15 3.217153 1_555
Sc101 Sc85 3.230760 1_555
Sc101 Sc112 3.315943 1_555
Sc101 Sc81 3.340133 1_555
Sc102 Sc58 3.095507 1_555
Sc102 Sc28 3.112127 1_655
Sc102 Sc43 3.128880 1_555
Sc102 Sc55 3.135124 1_555
Sc102 Sc112 3.188746 1_555
Sc102 Sc107 3.188746 1_555
Sc102 Sc16 3.217153 1_555
Sc102 Sc76 3.230760 1_555
Sc102 Sc91 3.315943 1_555
Sc102 Sc71 3.340133 1_555
Sc103 Sc61 3.095507 1_555
Sc103 Sc26 3.112127 1_555
Sc103 Sc42 3.128880 1_555
Sc103 Sc54 3.135124 1_555
Sc103 Sc108 3.188746 1_555
Sc103 Sc110 3.188746 1_555
Sc103 Sc17 3.217153 1_555
Sc103 Sc74 3.230760 1_555
Sc103 Sc90 3.315943 1_555
Sc103 Sc72 3.340133 1_555
Sc104 Sc59 3.095507 1_555
Sc104 Sc27 3.112127 1_555
Sc104 Sc45 3.128880 1_555
Sc104 Sc57 3.135124 1_555
Sc104 Sc106 3.188746 1_555
Sc104 Sc111 3.188746 1_555
Sc104 Sc17 3.217153 1_555
Sc104 Sc75 3.230760 1_555
Sc104 Sc93 3.315943 1_555
Sc104 Sc70 3.340133 1_555
Sc105 Sc60 3.095507 1_555
Sc105 Sc29 3.112127 1_655
Sc105 Sc44 3.128880 1_555
Sc105 Sc56 3.135124 1_555
Sc105 Sc109 3.188746 1_555
Sc105 Sc113 3.188746 1_555
Sc105 Sc16 3.217153 1_555
Sc105 Sc77 3.230760 1_555
Sc105 Sc92 3.315943 1_555
Sc105 Sc73 3.340133 1_555
Sc106 Sc62 3.095507 1_555
Sc106 Sc20 3.112127 1_565
Sc106 Sc47 3.128880 1_555
Sc106 Sc59 3.135124 1_555
Sc106 Sc111 3.188746 1_555
Sc106 Sc12 3.217153 1_555
Sc106 Sc68 3.230760 1_555
Sc106 Sc95 3.315943 1_555
Sc106 Sc75 3.340133 1_555
Sc107 Sc65 3.095507 1_555
Sc107 Sc18 3.112127 1_555
Sc107 Sc46 3.128880 1_555
Sc107 Sc58 3.135124 1_555
Sc107 Sc112 3.188746 1_555
Sc107 Sc13 3.217153 1_555
Sc107 Sc66 3.230760 1_555
Sc107 Sc94 3.315943 1_555
Sc107 Sc76 3.340133 1_555
Sc108 Sc63 3.095507 1_555
Sc108 Sc19 3.112127 1_555
Sc108 Sc49 3.128880 1_555
Sc108 Sc61 3.135124 1_555
Sc108 Sc110 3.188746 1_555
Sc108 Sc13 3.217153 1_555
Sc108 Sc67 3.230760 1_555
Sc108 Sc97 3.315943 1_555
Sc108 Sc74 3.340133 1_555
Sc109 Sc64 3.095507 1_555
Sc109 Sc21 3.112127 1_565
Sc109 Sc48 3.128880 1_555
Sc109 Sc60 3.135124 1_555
Sc109 Sc113 3.188746 1_555
Sc109 Sc12 3.217153 1_555
Sc109 Sc69 3.230760 1_555
Sc109 Sc96 3.315943 1_555
Sc109 Sc77 3.340133 1_555
Sc110 Sc54 3.095507 1_555
Sc110 Sc24 3.112127 1_556
Sc110 Sc51 3.128880 1_555
Sc110 Sc63 3.135124 1_555
Sc110 Sc14 3.217153 1_555
Sc110 Sc72 3.230760 1_555
Sc110 Sc99 3.315943 1_555
Sc110 Sc67 3.340133 1_555
Sc111 Sc57 3.095507 1_555
Sc111 Sc22 3.112127 1_555
Sc111 Sc50 3.128880 1_555
Sc111 Sc62 3.135124 1_555
Sc111 Sc15 3.217153 1_555
Sc111 Sc70 3.230760 1_555
Sc111 Sc98 3.315943 1_555
Sc111 Sc68 3.340133 1_555
Sc112 Sc55 3.095507 1_555
Sc112 Sc23 3.112127 1_555
Sc112 Sc53 3.128880 1_555
Sc112 Sc65 3.135124 1_555
Sc112 Sc15 3.217153 1_555
Sc112 Sc71 3.230760 1_555
Sc112 Sc66 3.340133 1_555
Sc113 Sc56 3.095507 1_555
Sc113 Sc25 3.112127 1_556
Sc113 Sc52 3.128880 1_555
Sc113 Sc64 3.135124 1_555
Sc113 Sc14 3.217153 1_555
Sc113 Sc73 3.230760 1_555
Sc113 Sc69 3.340133 1_555
Pt0 Sc33 2.993754 1_454
Pt0 Sc39 2.993754 1_545
Pt0 Sc31 2.993754 1_554
Pt0 Sc37 2.993754 1_445
Pt0 Sc35 2.993754 1_455
Pt0 Sc41 2.993754 1_544
Pt0 Sc36 2.993754 1_555
Pt0 Sc40 2.993754 1_555
Pt0 Sc38 2.993754 1_554
Pt0 Sc34 2.993754 1_545
Pt0 Sc32 2.993754 1_555
Pt0 Sc30 2.993754 1_455
Pt1 Sc55 2.959755 1_555
Pt1 Sc59 2.959755 1_555
Pt1 Sc63 2.959755 1_555
Pt1 Sc57 2.959755 1_555
Pt1 Sc61 2.959755 1_555
Pt1 Sc65 2.959755 1_555
Pt1 Sc56 2.959755 1_555
Pt1 Sc60 2.959755 1_555
Pt1 Sc64 2.959755 1_555
Pt1 Sc54 2.959755 1_555
Pt1 Sc58 2.959755 1_555
Pt1 Sc62 2.959755 1_555
Pt2 Sc18 2.628588 1_555
Pt2 Sc30 2.649686 1_555
Pt2 Sc48 2.861095 1_545
Pt2 Sc46 2.861095 1_555
Pt2 Sc2 2.982494 1_655
Pt2 Sc79 2.998413 1_545
Pt2 Sc66 2.998413 1_555
Pt2 Sc86 3.057946 1_545
Pt2 Sc76 3.057946 1_555
Pt3 Sc19 2.628588 1_555
Pt3 Sc31 2.649686 1_555
Pt3 Sc47 2.861095 1_545
Pt3 Sc49 2.861095 1_555
Pt3 Sc3 2.982494 1_555
Pt3 Sc78 2.998413 1_545
Pt3 Sc67 2.998413 1_555
Pt3 Sc88 3.057946 1_545
Pt3 Sc74 3.057946 1_555
Pt4 Sc20 2.628588 1_555
Pt4 Sc32 2.649686 1_555
Pt4 Sc47 2.861095 1_545
Pt4 Sc49 2.861095 1_555
Pt4 Sc2 2.982494 1_555
Pt4 Sc68 2.998413 1_545
Pt4 Sc81 2.998413 1_555
Pt4 Sc75 3.057946 1_545
Pt4 Sc89 3.057946 1_555
Pt5 Sc21 2.628588 1_555
Pt5 Sc33 2.649686 1_555
Pt5 Sc48 2.861095 1_545
Pt5 Sc46 2.861095 1_555
Pt5 Sc3 2.982494 1_655
Pt5 Sc69 2.998413 1_545
Pt5 Sc80 2.998413 1_555
Pt5 Sc77 3.057946 1_545
Pt5 Sc87 3.057946 1_555
Pt6 Sc22 2.628588 1_555
Pt6 Sc34 2.649686 1_555
Pt6 Sc52 2.861095 1_554
Pt6 Sc50 2.861095 1_555
Pt6 Sc4 2.982494 1_565
Pt6 Sc83 2.998413 1_554
Pt6 Sc70 2.998413 1_555
Pt6 Sc78 3.057946 1_554
Pt6 Sc68 3.057946 1_555
Pt7 Sc23 2.628588 1_555
Pt7 Sc35 2.649686 1_555
Pt7 Sc51 2.861095 1_554
Pt7 Sc53 2.861095 1_555
Pt7 Sc5 2.982494 1_555
Pt7 Sc82 2.998413 1_554
Pt7 Sc71 2.998413 1_555
Pt7 Sc80 3.057946 1_554
Pt7 Sc66 3.057946 1_555
Pt8 Sc24 2.628588 1_555
Pt8 Sc36 2.649686 1_555
Pt8 Sc51 2.861095 1_554
Pt8 Sc53 2.861095 1_555
Pt8 Sc4 2.982494 1_555
Pt8 Sc72 2.998413 1_554
Pt8 Sc85 2.998413 1_555
Pt8 Sc67 3.057946 1_554
Pt8 Sc81 3.057946 1_555
Pt9 Sc25 2.628588 1_555
Pt9 Sc37 2.649686 1_555
Pt9 Sc50 2.861095 1_555
Pt9 Sc52 2.861095 1_554
Pt9 Sc5 2.982494 1_565
Pt9 Sc73 2.998413 1_554
Pt9 Sc84 2.998413 1_555
Pt9 Sc79 3.057946 1_555
Pt9 Sc69 3.057946 1_554
Pt10 Sc26 2.628588 1_555
Pt10 Sc38 2.649686 1_555
Pt10 Sc44 2.861095 1_455
Pt10 Sc42 2.861095 1_555
Pt10 Sc0 2.982494 1_556
Pt10 Sc87 2.998413 1_455
Pt10 Sc74 2.998413 1_555
Pt10 Sc82 3.057946 1_455
Pt10 Sc72 3.057946 1_555
Pt11 Sc27 2.628588 1_555
Pt11 Sc39 2.649686 1_555
Pt11 Sc43 2.861095 1_455
Pt11 Sc45 2.861095 1_555
Pt11 Sc1 2.982494 1_555
Pt11 Sc86 2.998413 1_455
Pt11 Sc75 2.998413 1_555
Pt11 Sc84 3.057946 1_455
Pt11 Sc70 3.057946 1_555
Pt12 Sc28 2.628588 1_555
Pt12 Sc40 2.649686 1_555
Pt12 Sc43 2.861095 1_455
Pt12 Sc45 2.861095 1_555
Pt12 Sc0 2.982494 1_555
Pt12 Sc76 2.998413 1_455
Pt12 Sc89 2.998413 1_555
Pt12 Sc71 3.057946 1_455
Pt12 Sc85 3.057946 1_555
Pt13 Sc29 2.628588 1_555
Pt13 Sc41 2.649686 1_555
Pt13 Sc42 2.861095 1_555
Pt13 Sc44 2.861095 1_455
Pt13 Sc1 2.982494 1_556
Pt13 Sc77 2.998413 1_455
Pt13 Sc88 2.998413 1_555
Pt13 Sc83 3.057946 1_555
Pt13 Sc73 3.057946 1_455
Pt14 Sc54 2.669290 1_555
Pt14 Sc10 2.673526 1_556
Pt14 Sc42 2.882986 1_555
Pt14 Sc110 2.920393 1_555
Pt14 Sc100 2.920393 1_555
Pt14 Sc14 2.925676 1_555
Pt14 Sc103 3.092989 1_555
Pt14 Sc90 3.092989 1_555
Pt14 Sc22 3.331706 1_556
Pt14 Sc24 3.331706 1_556
Pt14 Sc72 3.465002 1_555
Pt14 Sc83 3.465002 1_555
Pt15 Sc55 2.669290 1_555
Pt15 Sc11 2.673526 1_555
Pt15 Sc43 2.882986 1_555
Pt15 Sc98 2.920393 1_555
Pt15 Sc112 2.920393 1_555
Pt15 Sc15 2.925676 1_555
Pt15 Sc102 3.092989 1_555
Pt15 Sc91 3.092989 1_555
Pt15 Sc25 3.331706 1_555
Pt15 Sc23 3.331706 1_555
Pt15 Sc84 3.465002 1_555
Pt15 Sc71 3.465002 1_555
Pt16 Sc56 2.669290 1_555
Pt16 Sc11 2.673526 1_556
Pt16 Sc44 2.882986 1_555
Pt16 Sc99 2.920393 1_555
Pt16 Sc113 2.920393 1_555
Pt16 Sc14 2.925676 1_555
Pt16 Sc92 3.092989 1_555
Pt16 Sc105 3.092989 1_555
Pt16 Sc25 3.331706 1_556
Pt16 Sc23 3.331706 1_556
Pt16 Sc82 3.465002 1_555
Pt16 Sc73 3.465002 1_555
Pt17 Sc57 2.669290 1_555
Pt17 Sc10 2.673526 1_555
Pt17 Sc45 2.882986 1_555
Pt17 Sc101 2.920393 1_555
Pt17 Sc111 2.920393 1_555
Pt17 Sc15 2.925676 1_555
Pt17 Sc93 3.092989 1_555
Pt17 Sc104 3.092989 1_555
Pt17 Sc22 3.331706 1_555
Pt17 Sc24 3.331706 1_555
Pt17 Sc85 3.465002 1_555
Pt17 Sc70 3.465002 1_555
Pt18 Sc58 2.669290 1_555
Pt18 Sc6 2.673526 1_655
Pt18 Sc46 2.882986 1_555
Pt18 Sc92 2.920393 1_555
Pt18 Sc102 2.920393 1_555
Pt18 Sc16 2.925676 1_555
Pt18 Sc107 3.092989 1_555
Pt18 Sc94 3.092989 1_555
Pt18 Sc26 3.331706 1_655
Pt18 Sc28 3.331706 1_655
Pt18 Sc87 3.465002 1_555
Pt18 Sc76 3.465002 1_555
Pt19 Sc59 2.669290 1_555
Pt19 Sc7 2.673526 1_555
Pt19 Sc47 2.882986 1_555
Pt19 Sc90 2.920393 1_555
Pt19 Sc104 2.920393 1_555
Pt19 Sc17 2.925676 1_555
Pt19 Sc106 3.092989 1_555
Pt19 Sc95 3.092989 1_555
Pt19 Sc29 3.331706 1_555
Pt19 Sc27 3.331706 1_555
Pt19 Sc88 3.465002 1_555
Pt19 Sc75 3.465002 1_555
Pt20 Sc60 2.669290 1_555
Pt20 Sc7 2.673526 1_655
Pt20 Sc48 2.882986 1_555
Pt20 Sc105 2.920393 1_555
Pt20 Sc91 2.920393 1_555
Pt20 Sc16 2.925676 1_555
Pt20 Sc96 3.092989 1_555
Pt20 Sc109 3.092989 1_555
Pt20 Sc29 3.331706 1_655
Pt20 Sc27 3.331706 1_655
Pt20 Sc86 3.465002 1_555
Pt20 Sc77 3.465002 1_555
Pt21 Sc61 2.669290 1_555
Pt21 Sc6 2.673526 1_555
Pt21 Sc49 2.882986 1_555
Pt21 Sc103 2.920393 1_555
Pt21 Sc93 2.920393 1_555
Pt21 Sc17 2.925676 1_555
Pt21 Sc97 3.092989 1_555
Pt21 Sc108 3.092989 1_555
Pt21 Sc26 3.331706 1_555
Pt21 Sc28 3.331706 1_555
Pt21 Sc74 3.465002 1_555
Pt21 Sc89 3.465002 1_555
Pt22 Sc62 2.669290 1_555
Pt22 Sc8 2.673526 1_565
Pt22 Sc50 2.882986 1_555
Pt22 Sc96 2.920393 1_555
Pt22 Sc106 2.920393 1_555
Pt22 Sc12 2.925676 1_555
Pt22 Sc111 3.092989 1_555
Pt22 Sc98 3.092989 1_555
Pt22 Sc18 3.331706 1_565
Pt22 Sc20 3.331706 1_565
Pt22 Sc68 3.465002 1_555
Pt22 Sc79 3.465002 1_555
Pt23 Sc63 2.669290 1_555
Pt23 Sc9 2.673526 1_555
Pt23 Sc51 2.882986 1_555
Pt23 Sc94 2.920393 1_555
Pt23 Sc108 2.920393 1_555
Pt23 Sc13 2.925676 1_555
Pt23 Sc110 3.092989 1_555
Pt23 Sc99 3.092989 1_555
Pt23 Sc21 3.331706 1_555
Pt23 Sc19 3.331706 1_555
Pt23 Sc80 3.465002 1_555
Pt23 Sc67 3.465002 1_555
Pt24 Sc64 2.669290 1_555
Pt24 Sc9 2.673526 1_565
Pt24 Sc52 2.882986 1_555
Pt24 Sc109 2.920393 1_555
Pt24 Sc95 2.920393 1_555
Pt24 Sc12 2.925676 1_555
Pt24 Sc100 3.092989 1_555
Pt24 Sc113 3.092989 1_555
Pt24 Sc21 3.331706 1_565
Pt24 Sc19 3.331706 1_565
Pt24 Sc78 3.465002 1_555
Pt24 Sc69 3.465002 1_555
Pt25 Sc65 2.669290 1_555
Pt25 Sc8 2.673526 1_555
Pt25 Sc53 2.882986 1_555
Pt25 Sc107 2.920393 1_555
Pt25 Sc97 2.920393 1_555
Pt25 Sc13 2.925676 1_555
Pt25 Sc101 3.092989 1_555
Pt25 Sc112 3.092989 1_555
Pt25 Sc18 3.331706 1_555
Pt25 Sc20 3.331706 1_555
Pt25 Sc81 3.465002 1_555
Pt25 Sc66 3.465002 1_555
