# generated using pymatgen
data_Li4Ti2V3Co3O16
_symmetry_space_group_name_H-M   'P 1'
_cell_length_a   5.88308100
_cell_length_b   5.89436343
_cell_length_c   9.58609369
_cell_angle_alpha   89.66540010
_cell_angle_beta   89.60699929
_cell_angle_gamma   60.43151959
_symmetry_Int_Tables_number   1
_chemical_formula_structural   Li4Ti2V3Co3O16
_chemical_formula_sum   'Li4 Ti2 V3 Co3 O16'
_cell_volume   289.11734655
_cell_formula_units_Z   1
loop_
 _symmetry_equiv_pos_site_id
 _symmetry_equiv_pos_as_xyz
  1  'x, y, z'
loop_
 _atom_site_type_symbol
 _atom_site_label
 _atom_site_symmetry_multiplicity
 _atom_site_fract_x
 _atom_site_fract_y
 _atom_site_fract_z
 _atom_site_occupancy
  Li  Li0  1  0.33278600  0.32519000  0.89690000  1
  Li  Li1  1  0.00376800  0.00086100  0.99348200  1
  Li  Li2  1  0.99826900  0.00298900  0.49451300  1
  Li  Li3  1  0.67054200  0.66706200  0.39335400  1
  Ti  Ti0  1  0.31283100  0.34560700  0.49880800  1
  Ti  Ti1  1  0.66930800  0.67064700  0.00066700  1
  V  V0  1  0.65851300  0.17132800  0.22279000  1
  V  V1  1  0.81940900  0.82725800  0.71944700  1
  V  V2  1  0.80533200  0.34884200  0.71856400  1
  Co  Co0  1  0.17671300  0.65694400  0.21457900  1
  Co  Co1  1  0.17244500  0.17614400  0.21365600  1
  Co  Co2  1  0.33673900  0.83588500  0.71036200  1
  O  O0  1  0.16355600  0.66511700  0.59002600  1
  O  O1  1  0.04501100  0.47797200  0.34226000  1
  O  O2  1  0.35509500  0.31384400  0.10516200  1
  O  O3  1  0.99183100  0.01279200  0.30345000  1
  O  O4  1  0.98158100  0.00083100  0.80411400  1
  O  O5  1  0.14778000  0.18710900  0.59690100  1
  O  O6  1  0.48363000  0.47883700  0.33857100  1
  O  O7  1  0.48862000  0.03953100  0.34231400  1
  O  O8  1  0.33864300  0.82498400  0.09206400  1
  O  O9  1  0.65975300  0.17393100  0.59757200  1
  O  O10  1  0.53175000  0.95310200  0.84759700  1
  O  O11  1  0.53397100  0.49730200  0.83889400  1
  O  O12  1  0.69243900  0.66480600  0.60080400  1
  O  O13  1  0.83855800  0.82601500  0.09865000  1
  O  O14  1  0.96185700  0.51864800  0.83985700  1
  O  O15  1  0.82926500  0.33671900  0.09248000  1
loop_
_geom_bond_atom_site_label_1
_geom_bond_atom_site_label_2
_geom_bond_distance
_geom_bond_site_symmetry_2
Li0 O10 1.968396 1_545
Li0 O11 1.977040 1_555
Li0 O14 1.978526 1_455
Li0 O2 2.000190 1_556
Li1 O4 1.820886 1_455
Li1 O8 1.961500 1_546
Li1 O15 1.968864 1_456
Li1 O13 1.996549 1_446
Li2 O3 1.832184 1_555
Li2 O0 1.956980 1_645
Li2 O5 1.970081 1_655
Li2 O9 1.990383 1_555
Li3 O7 1.969913 1_565
Li3 O1 1.975791 1_655
Li3 O6 1.983591 1_555
Li3 O12 1.993228 1_555
Co0 O6 1.979702 1_555
Co0 O1 1.997469 1_555
Co0 O3 2.016159 1_465
Co0 O8 2.042114 1_555
Co0 O2 2.050970 1_555
Co0 O13 2.060723 1_455
Co1 O2 1.931493 1_555
Co1 O3 1.945397 1_455
Co1 O1 1.985851 1_555
Co1 O7 2.042316 1_555
Co1 O15 2.110626 1_455
Co1 O8 2.148053 1_545
Co2 O4 2.024404 1_465
Co2 O10 2.082758 1_555
Co2 O12 2.097261 1_555
Co2 O5 2.103244 1_565
Co2 O0 2.103268 1_555
Co2 O11 2.133750 1_555
O0 Ti0 1.859866 1_555
O0 V1 2.149761 1_455
O1 Ti0 2.036871 1_555
O2 V0 1.923572 1_555
O3 V0 1.876232 1_555
O4 V1 1.897208 1_545
O4 V2 1.961729 1_555
O5 Ti0 1.890080 1_555
O5 V2 2.100733 1_455
O6 V0 1.934720 1_555
O6 Ti0 2.174703 1_555
O7 V0 1.911935 1_555
O7 Ti0 2.178031 1_555
O8 Ti1 1.902334 1_555
O9 V2 2.010155 1_555
O9 Ti0 2.015668 1_555
O9 V1 2.125008 1_545
O10 V1 1.914812 1_555
O10 Ti1 2.058617 1_556
O11 V2 1.803527 1_555
O11 Ti1 2.218366 1_556
O12 V1 1.870473 1_555
O12 V2 1.987197 1_555
O13 Ti1 1.906615 1_555
O13 V0 2.136396 1_565
O14 V1 1.956487 1_555
O14 V2 2.034601 1_555
O14 Ti1 2.144552 1_556
O15 Ti1 1.922878 1_555
O15 V0 2.110681 1_555
