# generated using pymatgen
data_MgSi2
_symmetry_space_group_name_H-M   'P 1'
_cell_length_a   3.61246600
_cell_length_b   6.16932379
_cell_length_c   9.27723366
_cell_angle_alpha   84.82827930
_cell_angle_beta   89.14613023
_cell_angle_gamma   88.76772498
_symmetry_Int_Tables_number   1
_chemical_formula_structural   MgSi2
_chemical_formula_sum   'Mg4 Si8'
_cell_volume   205.85003571
_cell_formula_units_Z   4
loop_
 _symmetry_equiv_pos_site_id
 _symmetry_equiv_pos_as_xyz
  1  'x, y, z'
loop_
 _atom_site_type_symbol
 _atom_site_label
 _atom_site_symmetry_multiplicity
 _atom_site_fract_x
 _atom_site_fract_y
 _atom_site_fract_z
 _atom_site_occupancy
  Mg  Mg0  1  0.74707700  0.44588300  0.20791300  1
  Mg  Mg1  1  0.25292300  0.55411700  0.79208700  1
  Mg  Mg2  1  0.75005600  0.85307900  0.59098200  1
  Mg  Mg3  1  0.24994400  0.14692100  0.40901800  1
  Si  Si0  1  0.77864900  0.24537700  0.93696500  1
  Si  Si1  1  0.22135100  0.75462300  0.06303500  1
  Si  Si2  1  0.75278400  0.86075400  0.28248600  1
  Si  Si3  1  0.24721600  0.13924600  0.71751400  1
  Si  Si4  1  0.27447500  0.12654200  0.11771100  1
  Si  Si5  1  0.72552500  0.87345800  0.88228900  1
  Si  Si6  1  0.74667400  0.37295900  0.56824800  1
  Si  Si7  1  0.25332600  0.62704100  0.43175200  1
loop_
_geom_bond_atom_site_label_1
_geom_bond_atom_site_label_2
_geom_bond_distance
_geom_bond_site_symmetry_2
Mg0 Si2 2.711436 1_555
Mg0 Si1 2.824898 1_655
Mg0 Si4 2.825039 1_555
Mg0 Si4 2.880923 1_655
Mg0 Si0 2.899572 1_554
Mg0 Si1 2.915520 1_555
Mg0 Si7 2.994176 1_555
Mg0 Si7 3.086328 1_655
Mg1 Si3 2.711436 1_555
Mg1 Si0 2.824898 1_455
Mg1 Si5 2.825039 1_555
Mg1 Si5 2.880923 1_455
Mg1 Si1 2.899572 1_556
Mg1 Si0 2.915520 1_555
Mg1 Si6 2.994176 1_555
Mg1 Si6 3.086328 1_455
Mg2 Si5 2.716786 1_555
Mg2 Si7 2.759415 1_655
Mg2 Si7 2.811539 1_555
Mg2 Si3 2.822513 1_565
Mg2 Si2 2.857984 1_555
Mg2 Si3 2.879783 1_665
Mg2 Si6 2.988717 1_555
Mg3 Si4 2.716786 1_555
Mg3 Si6 2.759415 1_455
Mg3 Si6 2.811539 1_555
Mg3 Si2 2.822513 1_545
Mg3 Si3 2.857984 1_555
Mg3 Si2 2.879783 1_445
Mg3 Si7 2.988717 1_555
Si0 Si5 2.406339 1_545
Si0 Si4 2.523660 1_656
Si0 Si4 2.532029 1_556
Si0 Si3 2.743848 1_655
Si0 Si3 2.944492 1_555
Si1 Si4 2.406339 1_565
Si1 Si5 2.523660 1_454
Si1 Si5 2.532029 1_554
Si1 Si2 2.743848 1_455
Si1 Si2 2.944492 1_555
Si2 Si7 2.620807 1_655
Si2 Si7 2.632378 1_555
Si2 Si4 2.741538 1_565
Si2 Si4 2.858733 1_665
Si3 Si6 2.620807 1_455
Si3 Si6 2.632378 1_555
Si3 Si5 2.741538 1_545
Si3 Si5 2.858733 1_445
Si6 Si7 2.612687 1_555
Si6 Si7 2.665889 1_655
