# generated using pymatgen
data_La7SmMn7CuO24
_symmetry_space_group_name_H-M   'P 1'
_cell_length_a   7.85656857
_cell_length_b   7.85656857
_cell_length_c   7.85656863
_cell_angle_alpha   89.95597552
_cell_angle_beta   89.95597552
_cell_angle_gamma   89.95597180
_symmetry_Int_Tables_number   1
_chemical_formula_structural   La7SmMn7CuO24
_chemical_formula_sum   'La7 Sm1 Mn7 Cu1 O24'
_cell_volume   484.95153076
_cell_formula_units_Z   1
loop_
 _symmetry_equiv_pos_site_id
 _symmetry_equiv_pos_as_xyz
  1  'x, y, z'
loop_
 _atom_site_type_symbol
 _atom_site_label
 _atom_site_symmetry_multiplicity
 _atom_site_fract_x
 _atom_site_fract_y
 _atom_site_fract_z
 _atom_site_occupancy
  La  La0  1  0.75335200  0.24688900  0.24688900  1
  La  La1  1  0.75319200  0.24677400  0.75319200  1
  La  La2  1  0.75319200  0.75319200  0.24677400  1
  La  La3  1  0.75315300  0.75315300  0.75315300  1
  La  La4  1  0.24688900  0.24688900  0.75335200  1
  La  La5  1  0.24688900  0.75335200  0.24688900  1
  La  La6  1  0.24677400  0.75319200  0.75319200  1
  Sm  Sm0  1  0.24595400  0.24595400  0.24595400  1
  Mn  Mn0  1  0.00051100  0.00051100  0.49945300  1
  Mn  Mn1  1  0.00051100  0.49945300  0.00051100  1
  Mn  Mn2  1  0.00054800  0.49954300  0.49954300  1
  Mn  Mn3  1  0.49945300  0.00051100  0.00051100  1
  Mn  Mn4  1  0.49954300  0.00054800  0.49954300  1
  Mn  Mn5  1  0.49954300  0.49954300  0.00054800  1
  Mn  Mn6  1  0.49954800  0.49954800  0.49954800  1
  Cu  Cu0  1  0.99992000  0.99992000  0.99992000  1
  O  O0  1  0.74400800  0.00011500  0.00011500  1
  O  O1  1  0.75078900  0.00018900  0.49978200  1
  O  O2  1  0.75078900  0.49978200  0.00018900  1
  O  O3  1  0.75250700  0.49985700  0.49985700  1
  O  O4  1  0.25566600  0.00230200  0.00230200  1
  O  O5  1  0.24929200  0.00186200  0.49815300  1
  O  O6  1  0.24929200  0.49815300  0.00186200  1
  O  O7  1  0.24754800  0.49830800  0.49830800  1
  O  O8  1  0.00230200  0.25566600  0.00230200  1
  O  O9  1  0.00186200  0.24929200  0.49815300  1
  O  O10  1  0.00011500  0.74400800  0.00011500  1
  O  O11  1  0.00018900  0.75078900  0.49978200  1
  O  O12  1  0.49815300  0.24929200  0.00186200  1
  O  O13  1  0.49830800  0.24754800  0.49830800  1
  O  O14  1  0.49978200  0.75078900  0.00018900  1
  O  O15  1  0.49985700  0.75250700  0.49985700  1
  O  O16  1  0.00230200  0.00230200  0.25566600  1
  O  O17  1  0.00011500  0.00011500  0.74400800  1
  O  O18  1  0.00186200  0.49815300  0.24929200  1
  O  O19  1  0.00018900  0.49978200  0.75078900  1
  O  O20  1  0.49815300  0.00186200  0.24929200  1
  O  O21  1  0.49978200  0.00018900  0.75078900  1
  O  O22  1  0.49830800  0.49830800  0.24754800  1
  O  O23  1  0.49985700  0.49985700  0.75250700  1
loop_
_geom_bond_atom_site_label_1
_geom_bond_atom_site_label_2
_geom_bond_distance
_geom_bond_site_symmetry_2
La0 O16 2.741733 1_655
La0 O8 2.741733 1_655
La0 O0 2.743988 1_555
La0 O2 2.774675 1_555
La0 O1 2.774675 1_555
La0 O9 2.777654 1_655
La0 O18 2.777654 1_655
La0 O12 2.780657 1_555
La0 O20 2.780657 1_555
La0 O3 2.811774 1_555
La0 O22 2.812617 1_555
La0 O13 2.812617 1_555
La1 O17 2.741958 1_655
La1 O0 2.741958 1_556
La1 O8 2.769848 1_656
La1 O2 2.779055 1_556
La1 O19 2.779055 1_655
La1 O1 2.779099 1_555
La1 O21 2.779099 1_555
La1 O12 2.797540 1_556
La1 O9 2.797540 1_655
La1 O23 2.812296 1_555
La1 O3 2.812296 1_555
La1 O13 2.833070 1_555
La2 O0 2.741958 1_565
La2 O10 2.741958 1_655
La2 O16 2.769848 1_665
La2 O11 2.779055 1_655
La2 O1 2.779055 1_565
La2 O14 2.779099 1_555
La2 O2 2.779099 1_555
La2 O20 2.797540 1_565
La2 O18 2.797540 1_655
La2 O3 2.812296 1_555
La2 O15 2.812296 1_555
La2 O22 2.833070 1_555
La3 O0 2.745878 1_566
La3 O10 2.745878 1_656
La3 O17 2.745878 1_665
La3 O21 2.779195 1_565
La3 O19 2.779195 1_655
La3 O11 2.779195 1_655
La3 O1 2.779195 1_565
La3 O14 2.779195 1_556
La3 O2 2.779195 1_556
La3 O3 2.815429 1_555
La3 O15 2.815429 1_555
La3 O23 2.815429 1_555
La4 O4 2.741733 1_556
La4 O8 2.741733 1_556
La4 O17 2.743988 1_555
La4 O21 2.774675 1_555
La4 O19 2.774675 1_555
La4 O6 2.777654 1_556
La4 O12 2.777654 1_556
La4 O9 2.780657 1_555
La4 O5 2.780657 1_555
La4 O23 2.811774 1_555
La4 O7 2.812617 1_555
La4 O13 2.812617 1_555
La5 O16 2.741733 1_565
La5 O4 2.741733 1_565
La5 O10 2.743988 1_555
La5 O14 2.774675 1_555
La5 O11 2.774675 1_555
La5 O5 2.777654 1_565
La5 O20 2.777654 1_565
La5 O6 2.780657 1_555
La5 O18 2.780657 1_555
La5 O15 2.811774 1_555
La5 O22 2.812617 1_555
La5 O7 2.812617 1_555
La6 O17 2.741958 1_565
La6 O10 2.741958 1_556
La6 O4 2.769848 1_566
La6 O14 2.779055 1_556
La6 O21 2.779055 1_565
La6 O11 2.779099 1_555
La6 O19 2.779099 1_555
La6 O6 2.797540 1_556
La6 O5 2.797540 1_565
La6 O23 2.812296 1_555
La6 O15 2.812296 1_555
La6 O7 2.833070 1_555
Mn0 O16 1.915411 1_555
Mn0 O17 1.921363 1_555
Mn0 O5 1.954621 1_555
Mn0 O9 1.954621 1_555
Mn0 O1 1.961961 1_455
Mn0 O11 1.961961 1_545
Mn1 O8 1.915411 1_555
Mn1 O10 1.921363 1_555
Mn1 O6 1.954621 1_555
Mn1 O18 1.954621 1_555
Mn1 O2 1.961961 1_455
Mn1 O19 1.961961 1_554
Mn2 O7 1.940606 1_555
Mn2 O3 1.948750 1_455
Mn2 O9 1.966172 1_555
Mn2 O18 1.966172 1_555
Mn2 O11 1.973934 1_555
Mn2 O19 1.973934 1_555
Mn3 O4 1.915411 1_555
Mn3 O0 1.921363 1_555
Mn3 O12 1.954621 1_555
Mn3 O20 1.954621 1_555
Mn3 O14 1.961961 1_545
Mn3 O21 1.961961 1_554
Mn4 O13 1.940606 1_555
Mn4 O15 1.948750 1_545
Mn4 O5 1.966172 1_555
Mn4 O20 1.966172 1_555
Mn4 O1 1.973934 1_555
Mn4 O21 1.973934 1_555
Mn5 O22 1.940606 1_555
Mn5 O23 1.948750 1_554
Mn5 O6 1.966172 1_555
Mn5 O12 1.966172 1_555
Mn5 O14 1.973934 1_555
Mn5 O2 1.973934 1_555
Mn6 O13 1.979918 1_555
Mn6 O7 1.979918 1_555
Mn6 O22 1.979918 1_555
Mn6 O15 1.987396 1_555
Mn6 O3 1.987396 1_555
Mn6 O23 1.987396 1_555
Cu0 O4 2.009489 1_666
Cu0 O8 2.009489 1_666
Cu0 O16 2.009489 1_666
Cu0 O10 2.010589 1_656
Cu0 O0 2.010589 1_566
Cu0 O17 2.010589 1_665
O4 Sm0 2.709216 1_555
O5 Sm0 2.756545 1_555
O6 Sm0 2.756545 1_555
O7 Sm0 2.804990 1_555
O8 Sm0 2.709216 1_555
O9 Sm0 2.756545 1_555
O12 Sm0 2.756545 1_555
O13 Sm0 2.804990 1_555
O16 Sm0 2.709216 1_555
O18 Sm0 2.756545 1_555
O20 Sm0 2.756545 1_555
O22 Sm0 2.804990 1_555
