# generated using pymatgen
data_Na3YN2
_symmetry_space_group_name_H-M   'P 1'
_cell_length_a   7.48480742
_cell_length_b   12.41196300
_cell_length_c   6.56530915
_cell_angle_alpha   90.00000000
_cell_angle_beta   118.17943947
_cell_angle_gamma   90.00000000
_symmetry_Int_Tables_number   1
_chemical_formula_structural   Na3YN2
_chemical_formula_sum   'Na12 Y4 N8'
_cell_volume   537.63221459
_cell_formula_units_Z   4
loop_
 _symmetry_equiv_pos_site_id
 _symmetry_equiv_pos_as_xyz
  1  'x, y, z'
loop_
 _atom_site_type_symbol
 _atom_site_label
 _atom_site_symmetry_multiplicity
 _atom_site_fract_x
 _atom_site_fract_y
 _atom_site_fract_z
 _atom_site_occupancy
  Na  Na0  1  0.22209300  0.07327700  0.03784000  1
  Na  Na1  1  0.77790700  0.57327700  0.46216000  1
  Na  Na2  1  0.77790700  0.92672300  0.96216000  1
  Na  Na3  1  0.22209300  0.42672300  0.53784000  1
  Na  Na4  1  0.32679200  0.53709400  0.04990900  1
  Na  Na5  1  0.67320800  0.03709400  0.45009100  1
  Na  Na6  1  0.67320800  0.46290600  0.95009100  1
  Na  Na7  1  0.32679200  0.96290600  0.54990900  1
  Na  Na8  1  0.03551400  0.31072800  0.81833500  1
  Na  Na9  1  0.96448600  0.81072800  0.68166500  1
  Na  Na10  1  0.96448600  0.68927200  0.18166500  1
  Na  Na11  1  0.03551400  0.18927200  0.31833500  1
  Y  Y0  1  0.51913300  0.20092700  0.79750600  1
  Y  Y1  1  0.48086700  0.70092700  0.70249400  1
  Y  Y2  1  0.48086700  0.79907300  0.20249400  1
  Y  Y3  1  0.51913300  0.29907300  0.29750600  1
  N  N0  1  0.60721700  0.83311200  0.57517700  1
  N  N1  1  0.39278300  0.33311200  0.92482300  1
  N  N2  1  0.39278300  0.16688800  0.42482300  1
  N  N3  1  0.60721700  0.66688800  0.07517700  1
  N  N4  1  0.48054200  0.54554300  0.52951300  1
  N  N5  1  0.51945800  0.04554300  0.97048700  1
  N  N6  1  0.51945800  0.45445700  0.47048700  1
  N  N7  1  0.48054200  0.95445700  0.02951300  1
loop_
_geom_bond_atom_site_label_1
_geom_bond_atom_site_label_2
_geom_bond_distance
_geom_bond_site_symmetry_2
N0 Y2 2.207747 1_555
N0 Y1 2.243091 1_555
N0 Na9 2.439470 1_555
N0 Na2 2.524189 1_555
N0 Na7 2.588334 1_555
N0 Na5 2.776974 1_565
N1 Y3 2.207747 1_556
N1 Y0 2.243091 1_555
N1 Na8 2.439470 1_555
N1 Na3 2.524189 1_555
N1 Na6 2.588334 1_555
N1 Na4 2.776974 1_556
N2 Y0 2.207747 1_555
N2 Y3 2.243091 1_555
N2 Na11 2.439470 1_555
N2 Na0 2.524189 1_555
N2 Na5 2.588334 1_555
N2 Na7 2.776974 1_545
N3 Y1 2.207747 1_554
N3 Y2 2.243091 1_555
N3 Na10 2.439470 1_555
N3 Na1 2.524189 1_555
N3 Na4 2.588334 1_555
N3 Na6 2.776974 1_554
N4 N6 1.272708 1_555
N4 Y1 2.237572 1_555
N4 Na3 2.453556 1_555
N4 Na1 2.489459 1_555
N4 Na6 2.644844 1_555
N4 Na4 2.797786 1_555
N5 N7 1.272708 1_546
N5 Y0 2.237572 1_555
N5 Na2 2.453556 1_545
N5 Na0 2.489459 1_556
N5 Na7 2.644844 1_545
N5 Na5 2.797786 1_556
N6 Y3 2.237572 1_555
N6 Na1 2.453556 1_555
N6 Na3 2.489459 1_555
N6 Na4 2.644844 1_555
N6 Na6 2.797786 1_555
N7 Y2 2.237572 1_555
N7 Na0 2.453556 1_565
N7 Na2 2.489459 1_554
N7 Na5 2.644844 1_565
N7 Na7 2.797786 1_554
