# generated using pymatgen
data_ZnNiAsO5
_symmetry_space_group_name_H-M   'P 1'
_cell_length_a   7.89699809
_cell_length_b   5.99299908
_cell_length_c   8.23620203
_cell_angle_alpha   90.00335126
_cell_angle_beta   90.00650228
_cell_angle_gamma   90.01715277
_symmetry_Int_Tables_number   1
_chemical_formula_structural   ZnNiAsO5
_chemical_formula_sum   'Zn4 Ni4 As4 O20'
_cell_volume   389.79226082
_cell_formula_units_Z   4
loop_
 _symmetry_equiv_pos_site_id
 _symmetry_equiv_pos_as_xyz
  1  'x, y, z'
loop_
 _atom_site_type_symbol
 _atom_site_label
 _atom_site_symmetry_multiplicity
 _atom_site_fract_x
 _atom_site_fract_y
 _atom_site_fract_z
 _atom_site_occupancy
  Zn  Zn0  1  0.94883600  0.72228700  0.06066400  1
  Zn  Zn1  1  0.55179600  0.27802600  0.56072200  1
  Zn  Zn2  1  0.44857400  0.77765800  0.93940900  1
  Zn  Zn3  1  0.05137400  0.22225900  0.43925200  1
  Ni  Ni0  1  0.99795300  0.49065300  0.74892900  1
  Ni  Ni1  1  0.50205500  0.50923100  0.24905100  1
  Ni  Ni2  1  0.49788200  0.00933600  0.25107300  1
  Ni  Ni3  1  0.00203500  0.99071300  0.75097800  1
  As  As0  1  0.65255000  0.26240900  0.93379800  1
  As  As1  1  0.84702300  0.73769000  0.43393400  1
  As  As2  1  0.15294200  0.23769500  0.06601100  1
  As  As3  1  0.34741400  0.76234200  0.56624700  1
  O  O0  1  0.85303700  0.24267400  0.85194200  1
  O  O1  1  0.64715100  0.75737000  0.35188900  1
  O  O2  1  0.35279700  0.25733000  0.14809400  1
  O  O3  1  0.14687100  0.74263000  0.64796700  1
  O  O4  1  0.50310200  0.28352100  0.78384900  1
  O  O5  1  0.99718300  0.71639500  0.28372300  1
  O  O6  1  0.00278100  0.21636800  0.21625900  1
  O  O7  1  0.49685700  0.78350700  0.71617000  1
  O  O8  1  0.62566400  0.01550400  0.04187600  1
  O  O9  1  0.87419700  0.98453300  0.54183000  1
  O  O10  1  0.12585300  0.48452600  0.95810400  1
  O  O11  1  0.37432500  0.51535200  0.45823900  1
  O  O12  1  0.64367700  0.50581600  0.04869200  1
  O  O13  1  0.85606300  0.49425400  0.54872000  1
  O  O14  1  0.14370100  0.99426900  0.95125600  1
  O  O15  1  0.35627900  0.00572400  0.45131900  1
  O  O16  1  0.88420400  0.74253900  0.83633600  1
  O  O17  1  0.61586400  0.25742000  0.33626300  1
  O  O18  1  0.38415200  0.75733400  0.16382600  1
  O  O19  1  0.11580800  0.24263600  0.66357700  1
loop_
_geom_bond_atom_site_label_1
_geom_bond_atom_site_label_2
_geom_bond_distance
_geom_bond_site_symmetry_2
Ni0 O19 1.889581 1_655
Ni0 O16 1.898615 1_555
Ni0 O13 1.993658 1_555
Ni0 O10 1.997299 1_655
Ni0 O0 2.058508 1_555
Ni0 O3 2.086661 1_655
Ni1 O18 1.889771 1_555
Ni1 O17 1.897863 1_555
Ni1 O12 1.993688 1_555
Ni1 O11 1.996906 1_555
Ni1 O1 2.059218 1_555
Ni1 O2 2.087652 1_555
Ni2 O17 1.889378 1_555
Ni2 O18 1.898092 1_545
Ni2 O15 1.992841 1_555
Ni2 O8 1.997175 1_555
Ni2 O2 2.059587 1_555
Ni2 O1 2.088102 1_545
Ni3 O16 1.889873 1_455
Ni3 O19 1.898501 1_565
Ni3 O14 1.993122 1_555
Ni3 O9 1.996850 1_455
Ni3 O3 2.059023 1_555
Ni3 O0 2.087393 1_465
As0 O4 1.712859 1_555
As0 O0 1.724970 1_555
As0 O8 1.739821 1_556
As0 O12 1.740174 1_556
As1 O5 1.718555 1_555
As1 O1 1.720966 1_555
As1 O9 1.738903 1_555
As1 O13 1.739974 1_555
As2 O6 1.718752 1_555
As2 O2 1.720877 1_555
As2 O10 1.739003 1_554
As2 O14 1.739722 1_544
As3 O7 1.712638 1_555
As3 O3 1.724869 1_555
As3 O11 1.740003 1_555
As3 O15 1.740256 1_565
O4 Zn1 1.877851 1_555
O5 Zn0 1.876706 1_555
O6 Zn3 1.876561 1_555
O7 Zn2 1.878130 1_555
O8 Zn2 2.167527 1_544
O9 Zn3 2.168042 1_665
O10 Zn0 2.167792 1_456
O11 Zn1 2.168089 1_555
O12 Zn2 2.416499 1_554
O13 Zn3 2.418792 1_655
O14 Zn0 2.415759 1_456
O15 Zn1 2.420117 1_555
O16 Zn0 1.920612 1_556
O17 Zn1 1.920705 1_555
O18 Zn2 1.920997 1_554
O19 Zn3 1.920188 1_555
