# generated using pymatgen
data_LiYb4(Ru2O7)2
_symmetry_space_group_name_H-M   'P 1'
_cell_length_a   7.28777898
_cell_length_b   7.29622064
_cell_length_c   7.28705291
_cell_angle_alpha   59.94607673
_cell_angle_beta   60.00606919
_cell_angle_gamma   59.94940188
_symmetry_Int_Tables_number   1
_chemical_formula_structural   LiYb4(Ru2O7)2
_chemical_formula_sum   'Li1 Yb4 Ru4 O14'
_cell_volume   273.78298302
_cell_formula_units_Z   1
loop_
 _symmetry_equiv_pos_site_id
 _symmetry_equiv_pos_as_xyz
  1  'x, y, z'
loop_
 _atom_site_type_symbol
 _atom_site_label
 _atom_site_symmetry_multiplicity
 _atom_site_fract_x
 _atom_site_fract_y
 _atom_site_fract_z
 _atom_site_occupancy
  Li  Li0  1  0.12416900  0.12550200  0.12426800  1
  Yb  Yb0  1  0.49975400  0.00091800  0.49975400  1
  Yb  Yb1  1  0.00078900  0.49948100  0.50027100  1
  Yb  Yb2  1  0.50027400  0.49948500  0.00077800  1
  Yb  Yb3  1  0.49975700  0.49954200  0.49975300  1
  Ru  Ru0  1  0.99564400  0.51305000  0.99562100  1
  Ru  Ru1  1  0.51187900  0.99622000  0.99564000  1
  Ru  Ru2  1  0.99566800  0.99622500  0.51184600  1
  Ru  Ru3  1  0.99551000  0.99565200  0.99548800  1
  O  O0  1  0.62444300  0.62551100  0.62442400  1
  O  O1  1  0.37542100  0.37464500  0.37541600  1
  O  O2  1  0.32191100  0.92822100  0.92727100  1
  O  O3  1  0.07210400  0.67878400  0.67792000  1
  O  O4  1  0.92781900  0.32208400  0.92781800  1
  O  O5  1  0.92725100  0.92820500  0.32191300  1
  O  O6  1  0.32166000  0.32262100  0.92738300  1
  O  O7  1  0.32062900  0.92904100  0.32059100  1
  O  O8  1  0.92736200  0.32265700  0.32166200  1
  O  O9  1  0.67790700  0.67882700  0.07208600  1
  O  O10  1  0.07238500  0.07148900  0.67749100  1
  O  O11  1  0.67748000  0.07147700  0.07236200  1
  O  O12  1  0.67908600  0.07141900  0.67915500  1
  O  O13  1  0.07146700  0.67857600  0.07145700  1
loop_
_geom_bond_atom_site_label_1
_geom_bond_atom_site_label_2
_geom_bond_distance
_geom_bond_site_symmetry_2
Li0 O7 2.022310 1_545
Li0 O4 2.022398 1_454
Li0 O5 2.032704 1_445
Li0 O2 2.033030 1_544
Li0 O8 2.034431 1_455
Li0 O6 2.034745 1_554
O0 Yb0 2.234648 1_565
O0 Yb3 2.234716 1_555
O0 Yb2 2.238734 1_556
O0 Yb1 2.238985 1_655
O1 Yb3 2.224250 1_555
O1 Yb0 2.224637 1_555
O1 Yb2 2.228519 1_555
O1 Yb1 2.228780 1_555
O2 Ru1 2.009022 1_555
O2 Ru3 2.009518 1_455
O2 Yb0 2.581261 1_565
O2 Yb2 2.589852 1_556
O3 Ru0 1.927028 1_455
O3 Ru2 1.927072 1_455
O3 Yb3 2.585012 1_555
O3 Yb1 2.589863 1_555
O4 Ru3 2.012266 1_545
O4 Ru0 2.013282 1_555
O4 Yb1 2.580408 1_655
O4 Yb2 2.580771 1_556
O5 Ru2 2.009061 1_555
O5 Ru3 2.009320 1_554
O5 Yb0 2.581430 1_565
O5 Yb1 2.589690 1_655
O6 Ru0 2.006833 1_455
O6 Ru1 2.009265 1_545
O6 Yb3 2.581959 1_555
O6 Yb2 2.591407 1_556
O7 Ru1 2.002970 1_554
O7 Ru2 2.003213 1_455
O7 Yb3 2.595731 1_555
O7 Yb0 2.599832 1_565
O8 Ru0 2.006636 1_554
O8 Ru2 2.009287 1_545
O8 Yb3 2.582096 1_555
O8 Yb1 2.591238 1_655
O9 Ru1 1.926815 1_554
O9 Ru0 1.927538 1_554
O9 Yb3 2.584803 1_555
O9 Yb2 2.590025 1_555
O10 Ru2 1.928034 1_445
O10 Ru3 1.928193 1_445
O10 Yb0 2.582984 1_555
O10 Yb1 2.587268 1_555
O11 Ru1 1.927789 1_544
O11 Ru3 1.928690 1_544
O11 Yb0 2.582831 1_555
O11 Yb2 2.587436 1_555
O12 Ru1 1.922782 1_545
O12 Ru2 1.923635 1_545
O12 Yb3 2.589168 1_555
O12 Yb0 2.595539 1_555
O13 Ru3 1.925090 1_454
O13 Ru0 1.926525 1_454
O13 Yb1 2.590777 1_555
O13 Yb2 2.591099 1_555
