# generated using pymatgen
data_Co3Ge6N11
_symmetry_space_group_name_H-M   'P 1'
_cell_length_a   9.40180200
_cell_length_b   9.40180200
_cell_length_c   5.06306800
_cell_angle_alpha   90.00000000
_cell_angle_beta   90.00000000
_cell_angle_gamma   90.00000000
_symmetry_Int_Tables_number   1
_chemical_formula_structural   Co3Ge6N11
_chemical_formula_sum   'Co6 Ge12 N22'
_cell_volume   447.54422951
_cell_formula_units_Z   2
loop_
 _symmetry_equiv_pos_site_id
 _symmetry_equiv_pos_as_xyz
  1  'x, y, z'
loop_
 _atom_site_type_symbol
 _atom_site_label
 _atom_site_symmetry_multiplicity
 _atom_site_fract_x
 _atom_site_fract_y
 _atom_site_fract_z
 _atom_site_occupancy
  Co  Co0  1  0.31305300  0.81305300  0.95292100  1
  Co  Co1  1  0.68694700  0.18694700  0.95292100  1
  Co  Co2  1  0.18694700  0.31305300  0.95292100  1
  Co  Co3  1  0.81305300  0.68694700  0.95292100  1
  Co  Co4  1  0.50000000  0.50000000  0.95934700  1
  Co  Co5  1  0.00000000  0.00000000  0.95934700  1
  Ge  Ge0  1  0.46749400  0.26551400  0.52148100  1
  Ge  Ge1  1  0.53250600  0.73448600  0.52148100  1
  Ge  Ge2  1  0.03250600  0.76551400  0.52148100  1
  Ge  Ge3  1  0.96749400  0.23448600  0.52148100  1
  Ge  Ge4  1  0.26551400  0.53250600  0.52148100  1
  Ge  Ge5  1  0.73448600  0.46749400  0.52148100  1
  Ge  Ge6  1  0.76551400  0.96749400  0.52148100  1
  Ge  Ge7  1  0.23448600  0.03250600  0.52148100  1
  Ge  Ge8  1  0.87397500  0.37397500  0.02401600  1
  Ge  Ge9  1  0.12602500  0.62602500  0.02401600  1
  Ge  Ge10  1  0.62602500  0.87397500  0.02401600  1
  Ge  Ge11  1  0.37397500  0.12602500  0.02401600  1
  N  N0  1  0.33180200  0.37874100  0.71188400  1
  N  N1  1  0.66819800  0.62125900  0.71188400  1
  N  N2  1  0.16819800  0.87874100  0.71188400  1
  N  N3  1  0.83180200  0.12125900  0.71188400  1
  N  N4  1  0.37874100  0.66819800  0.71188400  1
  N  N5  1  0.62125900  0.33180200  0.71188400  1
  N  N6  1  0.87874100  0.83180200  0.71188400  1
  N  N7  1  0.12125900  0.16819800  0.71188400  1
  N  N8  1  0.50501000  0.27442200  0.15822700  1
  N  N9  1  0.49499000  0.72557800  0.15822700  1
  N  N10  1  0.99499000  0.77442200  0.15822700  1
  N  N11  1  0.00501000  0.22557800  0.15822700  1
  N  N12  1  0.27442200  0.49499000  0.15822700  1
  N  N13  1  0.72557800  0.50501000  0.15822700  1
  N  N14  1  0.77442200  0.00501000  0.15822700  1
  N  N15  1  0.22557800  0.99499000  0.15822700  1
  N  N16  1  0.90433000  0.40433000  0.65981300  1
  N  N17  1  0.09567000  0.59567000  0.65981300  1
  N  N18  1  0.59567000  0.90433000  0.65981300  1
  N  N19  1  0.40433000  0.09567000  0.65981300  1
  N  N20  1  0.50000000  0.00000000  0.16932600  1
  N  N21  1  0.00000000  0.50000000  0.16932600  1
loop_
_geom_bond_atom_site_label_1
_geom_bond_atom_site_label_2
_geom_bond_distance
_geom_bond_site_symmetry_2
Co0 N2 1.930161 1_555
Co0 N4 1.930161 1_555
Co0 N15 2.163984 1_556
Co0 N9 2.163984 1_556
Co1 N5 1.930161 1_555
Co1 N3 1.930161 1_555
Co1 N8 2.163984 1_556
Co1 N14 2.163984 1_556
Co2 N0 1.930161 1_555
Co2 N7 1.930161 1_555
Co2 N12 2.163984 1_556
Co2 N11 2.163984 1_556
Co3 N6 1.930161 1_555
Co3 N1 1.930161 1_555
Co3 N10 2.163984 1_556
Co3 N13 2.163984 1_556
Co4 N1 2.317379 1_555
Co4 N4 2.317379 1_555
Co4 N5 2.317379 1_555
Co4 N0 2.317379 1_555
Co4 N9 2.348215 1_556
Co4 N13 2.348215 1_556
Co4 N8 2.348215 1_556
Co4 N12 2.348215 1_556
Co5 N7 2.317379 1_555
Co5 N3 2.317379 1_455
Co5 N2 2.317379 1_545
Co5 N6 2.317379 1_445
Co5 N14 2.348215 1_456
Co5 N10 2.348215 1_446
Co5 N15 2.348215 1_546
Co5 N11 2.348215 1_556
Ge0 N19 1.842037 1_555
Ge0 N5 1.845998 1_555
Ge0 N8 1.874568 1_555
Ge0 N0 1.920968 1_555
Ge1 N18 1.842037 1_555
Ge1 N4 1.845998 1_555
Ge1 N9 1.874568 1_555
Ge1 N1 1.920968 1_555
Ge2 N17 1.842037 1_555
Ge2 N6 1.845998 1_455
Ge2 N10 1.874568 1_455
Ge2 N2 1.920968 1_555
Ge3 N16 1.842037 1_555
Ge3 N7 1.845998 1_655
Ge3 N11 1.874568 1_655
Ge3 N3 1.920968 1_555
Ge4 N17 1.842037 1_555
Ge4 N0 1.845998 1_555
Ge4 N12 1.874568 1_555
Ge4 N4 1.920968 1_555
Ge5 N16 1.842037 1_555
Ge5 N1 1.845998 1_555
Ge5 N13 1.874568 1_555
Ge5 N5 1.920968 1_555
Ge6 N18 1.842037 1_555
Ge6 N3 1.845998 1_565
Ge6 N14 1.874568 1_565
Ge6 N6 1.920968 1_555
Ge7 N19 1.842037 1_555
Ge7 N2 1.845998 1_545
Ge7 N15 1.874568 1_545
Ge7 N7 1.920968 1_555
Ge8 N21 1.830047 1_655
Ge8 N16 1.887638 1_554
Ge8 N13 1.981430 1_555
Ge8 N11 1.981430 1_655
Ge9 N21 1.830047 1_555
Ge9 N17 1.887638 1_554
Ge9 N10 1.981430 1_455
Ge9 N12 1.981430 1_555
Ge10 N20 1.830047 1_565
Ge10 N18 1.887638 1_554
Ge10 N14 1.981430 1_565
Ge10 N9 1.981430 1_555
Ge11 N20 1.830047 1_555
Ge11 N19 1.887638 1_554
Ge11 N15 1.981430 1_545
Ge11 N8 1.981430 1_555
