# generated using pymatgen
data_Li3MnCoO5
_symmetry_space_group_name_H-M   'P 1'
_cell_length_a   2.96875500
_cell_length_b   7.80186798
_cell_length_c   8.14729611
_cell_angle_alpha   104.70441401
_cell_angle_beta   90.32137945
_cell_angle_gamma   98.31669876
_symmetry_Int_Tables_number   1
_chemical_formula_structural   Li3MnCoO5
_chemical_formula_sum   'Li6 Mn2 Co2 O10'
_cell_volume   180.42966348
_cell_formula_units_Z   2
loop_
 _symmetry_equiv_pos_site_id
 _symmetry_equiv_pos_as_xyz
  1  'x, y, z'
loop_
 _atom_site_type_symbol
 _atom_site_label
 _atom_site_symmetry_multiplicity
 _atom_site_fract_x
 _atom_site_fract_y
 _atom_site_fract_z
 _atom_site_occupancy
  Li  Li0  1  0.80467400  0.60026200  0.89133500  1
  Li  Li1  1  0.01375100  0.01282000  0.49988900  1
  Li  Li2  1  0.19335000  0.39922000  0.10380600  1
  Li  Li3  1  0.37633700  0.79009300  0.68949200  1
  Li  Li4  1  0.60893700  0.20758800  0.31655600  1
  Li  Li5  1  0.17916800  0.38932800  0.59245300  1
  Mn  Mn0  1  0.00530300  0.00077400  0.00243800  1
  Mn  Mn1  1  0.61141700  0.20735500  0.79322400  1
  Co  Co0  1  0.39368200  0.79717700  0.20559800  1
  Co  Co1  1  0.79272600  0.59089600  0.40760000  1
  O  O0  1  0.36434800  0.80207200  0.95927400  1
  O  O1  1  0.59555900  0.19730600  0.56592100  1
  O  O2  1  0.80940800  0.60919400  0.17182500  1
  O  O3  1  0.03892900  0.02567700  0.76353400  1
  O  O4  1  0.17759300  0.41621000  0.35385600  1
  O  O5  1  0.18236600  0.37847400  0.84380000  1
  O  O6  1  0.43039600  0.78719300  0.43717000  1
  O  O7  1  0.63626500  0.19245400  0.03625400  1
  O  O8  1  0.80140000  0.60717800  0.62673800  1
  O  O9  1  0.98438900  0.98873100  0.23923700  1
loop_
_geom_bond_atom_site_label_1
_geom_bond_atom_site_label_2
_geom_bond_distance
_geom_bond_site_symmetry_2
Li0 O0 2.082441 1_655
Li0 O5 2.151126 1_655
Li0 O0 2.157624 1_555
Li0 O8 2.170077 1_555
Li0 O2 2.268450 1_556
Li0 O5 2.298757 1_555
Li1 O1 2.008430 1_455
Li1 O1 2.054693 1_555
Li1 O9 2.084036 1_445
Li1 O3 2.125129 1_555
Li1 O6 2.238432 1_445
Li1 O6 2.251689 1_545
Li2 O4 2.008941 1_555
Li2 O5 2.082855 1_554
Li2 O2 2.091977 1_455
Li2 O7 2.099446 1_455
Li2 O7 2.192076 1_555
Li2 O2 2.235340 1_555
Li3 O8 2.012004 1_555
Li3 O8 2.031362 1_455
Li3 O6 2.057543 1_555
Li3 O3 2.173017 1_565
Li3 O0 2.176863 1_555
Li3 O3 2.447325 1_665
Li4 O1 2.053859 1_555
Li4 O4 2.130686 1_655
Li4 O9 2.137089 1_545
Li4 O4 2.176605 1_555
Li4 O7 2.259156 1_555
Li4 O9 2.296766 1_445
Li5 O4 2.007484 1_555
Li5 O1 2.047818 1_555
Li5 O5 2.070939 1_555
Li5 O1 2.091291 1_455
Li5 O8 2.130370 1_455
Li5 O8 2.285621 1_555
Mn0 O7 1.944430 1_455
Mn0 O9 1.956132 1_445
Mn0 O0 1.966872 1_544
Mn0 O3 2.006196 1_554
Mn0 O7 2.189922 1_555
Mn0 O0 2.238324 1_444
Mn1 O1 1.833619 1_555
Mn1 O5 1.947596 1_555
Mn1 O5 1.970647 1_655
Mn1 O3 2.007046 1_655
Mn1 O7 2.014251 1_556
Mn1 O3 2.020048 1_555
Co0 O6 1.911096 1_555
Co0 O2 2.018039 1_555
Co0 O0 2.018539 1_554
Co0 O9 2.026365 1_455
Co0 O2 2.071049 1_455
Co0 O9 2.100576 1_555
Co1 O8 1.757211 1_555
Co1 O4 1.872906 1_655
Co1 O2 1.962406 1_555
Co1 O6 1.962832 1_555
Co1 O4 2.086185 1_555
Co1 O6 2.226234 1_655
