# generated using pymatgen
data_CoPt3
_symmetry_space_group_name_H-M   'P 1'
_cell_length_a   18.30111816
_cell_length_b   18.30111816
_cell_length_c   18.30111813
_cell_angle_alpha   17.32622065
_cell_angle_beta   17.32622065
_cell_angle_gamma   17.32622039
_symmetry_Int_Tables_number   1
_chemical_formula_structural   CoPt3
_chemical_formula_sum   'Co8 Pt24'
_cell_volume   474.39893462
_cell_formula_units_Z   8
loop_
 _symmetry_equiv_pos_site_id
 _symmetry_equiv_pos_as_xyz
  1  'x, y, z'
loop_
 _atom_site_type_symbol
 _atom_site_label
 _atom_site_symmetry_multiplicity
 _atom_site_fract_x
 _atom_site_fract_y
 _atom_site_fract_z
 _atom_site_occupancy
  Co  Co0_0  1  0.00000000  0.00000000  0.00000000  1
  Co  Co0_1  1  0.00000000  0.00000000  0.50000000  1
  Co  Co0_2  1  0.00000000  0.50000000  0.00000000  1
  Co  Co0_3  1  0.00000000  0.50000000  0.50000000  1
  Co  Co0_4  1  0.50000000  0.00000000  0.00000000  1
  Co  Co0_5  1  0.50000000  1.00000000  0.50000000  1
  Co  Co0_6  1  0.50000000  0.50000000  0.00000000  1
  Co  Co0_7  1  0.50000000  0.50000000  0.50000000  1
  Pt  Pt0_0  1  0.12802400  0.12802400  0.12802400  1
  Pt  Pt0_1  1  0.12802400  0.12802400  0.62802400  1
  Pt  Pt0_2  1  0.12802400  0.62802400  0.12802400  1
  Pt  Pt0_3  1  0.12802400  0.62802400  0.62802400  1
  Pt  Pt0_4  1  0.62802400  0.12802400  0.12802400  1
  Pt  Pt0_5  1  0.62802400  0.12802400  0.62802400  1
  Pt  Pt0_6  1  0.62802400  0.62802400  0.12802400  1
  Pt  Pt0_7  1  0.62802400  0.62802400  0.62802400  1
  Pt  Pt1_0  1  0.25000000  0.25000000  0.25000000  1
  Pt  Pt1_1  1  0.25000000  0.25000000  0.75000000  1
  Pt  Pt1_2  1  0.25000000  0.75000000  0.25000000  1
  Pt  Pt1_3  1  0.25000000  0.75000000  0.75000000  1
  Pt  Pt1_4  1  0.75000000  0.25000000  0.25000000  1
  Pt  Pt1_5  1  0.75000000  0.25000000  0.75000000  1
  Pt  Pt1_6  1  0.75000000  0.75000000  0.25000000  1
  Pt  Pt1_7  1  0.75000000  0.75000000  0.75000000  1
  Pt  Pt2_0  1  0.37197600  0.37197600  0.37197600  1
  Pt  Pt2_1  1  0.37197600  0.37197600  0.87197600  1
  Pt  Pt2_2  1  0.37197600  0.87197600  0.37197600  1
  Pt  Pt2_3  1  0.37197600  0.87197600  0.87197600  1
  Pt  Pt2_4  1  0.87197600  0.37197600  0.37197600  1
  Pt  Pt2_5  1  0.87197600  0.37197600  0.87197600  1
  Pt  Pt2_6  1  0.87197600  0.87197600  0.37197600  1
  Pt  Pt2_7  1  0.87197600  0.87197600  0.87197600  1
loop_
_geom_bond_atom_site_label_1
_geom_bond_atom_site_label_2
_geom_bond_distance
_geom_bond_site_symmetry_2
Co0_0 Pt2_6 2.626406 1_445
Co0_0 Pt0_1 2.626406 1_554
Co0_0 Pt2_5 2.626406 1_454
Co0_0 Pt0_2 2.626406 1_545
Co0_0 Pt2_3 2.626406 1_544
Co0_0 Pt0_4 2.626406 1_455
Co0_1 Pt2_7 2.626406 1_445
Co0_1 Pt0_0 2.626406 1_555
Co0_1 Pt2_4 2.626406 1_455
Co0_1 Pt2_2 2.626406 1_545
Co0_1 Pt0_3 2.626406 1_545
Co0_1 Pt0_5 2.626406 1_455
Co0_2 Pt2_4 2.626406 1_455
Co0_2 Pt0_3 2.626406 1_554
Co0_2 Pt2_7 2.626406 1_454
Co0_2 Pt2_1 2.626406 1_554
Co0_2 Pt0_6 2.626406 1_455
Co0_2 Pt0_0 2.626406 1_555
Co0_3 Pt2_5 2.626406 1_455
Co0_3 Pt0_2 2.626406 1_555
Co0_3 Pt0_7 2.626406 1_455
Co0_3 Pt2_0 2.626406 1_555
Co0_3 Pt2_6 2.626406 1_455
Co0_3 Pt0_1 2.626406 1_555
Co0_4 Pt2_2 2.626406 1_545
Co0_4 Pt0_5 2.626406 1_554
Co0_4 Pt2_7 2.626406 1_544
Co0_4 Pt2_1 2.626406 1_554
Co0_4 Pt0_6 2.626406 1_545
Co0_4 Pt0_0 2.626406 1_555
Co0_5 Pt0_4 2.626406 1_565
Co0_5 Pt2_3 2.626406 1_555
Co0_5 Pt0_7 2.626406 1_555
Co0_5 Pt0_1 2.626406 1_565
Co0_5 Pt2_0 2.626406 1_565
Co0_5 Pt2_6 2.626406 1_555
Co0_6 Pt0_7 2.626406 1_554
Co0_6 Pt2_0 2.626406 1_555
Co0_6 Pt2_5 2.626406 1_554
Co0_6 Pt2_3 2.626406 1_554
Co0_6 Pt0_2 2.626406 1_555
Co0_6 Pt0_4 2.626406 1_555
Co0_7 Pt2_1 2.626406 1_555
Co0_7 Pt0_6 2.626406 1_555
Co0_7 Pt2_4 2.626406 1_555
Co0_7 Pt2_2 2.626406 1_555
Co0_7 Pt0_3 2.626406 1_555
Co0_7 Pt0_5 2.626406 1_555
Pt0_0 Pt1_1 2.893320 1_554
Pt0_0 Pt1_2 2.893320 1_545
Pt0_0 Pt1_4 2.893320 1_455
Pt0_1 Pt1_0 2.893320 1_555
Pt0_1 Pt1_3 2.893320 1_545
Pt0_1 Pt1_5 2.893320 1_455
Pt0_2 Pt1_3 2.893320 1_554
Pt0_2 Pt1_0 2.893320 1_555
Pt0_2 Pt1_6 2.893320 1_455
Pt0_3 Pt1_2 2.893320 1_555
Pt0_3 Pt1_1 2.893320 1_555
Pt0_3 Pt1_7 2.893320 1_455
Pt0_4 Pt1_5 2.893320 1_554
Pt0_4 Pt1_0 2.893320 1_555
Pt0_4 Pt1_6 2.893320 1_545
Pt0_5 Pt1_4 2.893320 1_555
Pt0_5 Pt1_1 2.893320 1_555
Pt0_5 Pt1_7 2.893320 1_545
Pt0_6 Pt1_7 2.893320 1_554
Pt0_6 Pt1_2 2.893320 1_555
Pt0_6 Pt1_4 2.893320 1_555
Pt0_7 Pt1_6 2.893320 1_555
Pt0_7 Pt1_3 2.893320 1_555
Pt0_7 Pt1_5 2.893320 1_555
Pt1_0 Pt1_6 2.756594 1_455
Pt1_0 Pt1_6 2.756594 1_545
Pt1_0 Pt1_5 2.756594 1_455
Pt1_0 Pt1_3 2.756594 1_545
Pt1_0 Pt1_5 2.756594 1_554
Pt1_0 Pt1_3 2.756594 1_554
Pt1_0 Pt2_1 2.893320 1_554
Pt1_0 Pt2_2 2.893320 1_545
Pt1_0 Pt2_4 2.893320 1_455
Pt1_1 Pt1_7 2.756594 1_455
Pt1_1 Pt1_7 2.756594 1_545
Pt1_1 Pt1_4 2.756594 1_555
Pt1_1 Pt1_2 2.756594 1_555
Pt1_1 Pt1_2 2.756594 1_546
Pt1_1 Pt1_4 2.756594 1_456
Pt1_1 Pt2_0 2.893320 1_555
Pt1_1 Pt2_5 2.893320 1_455
Pt1_1 Pt2_3 2.893320 1_545
Pt1_2 Pt1_4 2.756594 1_555
Pt1_2 Pt1_4 2.756594 1_465
Pt1_2 Pt1_7 2.756594 1_554
Pt1_2 Pt1_7 2.756594 1_455
Pt1_2 Pt2_3 2.893320 1_554
Pt1_2 Pt2_6 2.893320 1_455
Pt1_2 Pt2_0 2.893320 1_555
Pt1_3 Pt1_5 2.756594 1_555
Pt1_3 Pt1_5 2.756594 1_465
Pt1_3 Pt1_6 2.756594 1_555
Pt1_3 Pt1_6 2.756594 1_456
Pt1_3 Pt2_2 2.893320 1_555
Pt1_3 Pt2_1 2.893320 1_555
Pt1_3 Pt2_7 2.893320 1_455
Pt1_4 Pt1_7 2.756594 1_554
Pt1_4 Pt1_7 2.756594 1_545
Pt1_4 Pt2_5 2.893320 1_554
Pt1_4 Pt2_6 2.893320 1_545
Pt1_4 Pt2_0 2.893320 1_555
Pt1_5 Pt1_6 2.756594 1_555
Pt1_5 Pt1_6 2.756594 1_546
Pt1_5 Pt2_4 2.893320 1_555
Pt1_5 Pt2_1 2.893320 1_555
Pt1_5 Pt2_7 2.893320 1_545
Pt1_6 Pt2_7 2.893320 1_554
Pt1_6 Pt2_2 2.893320 1_555
Pt1_6 Pt2_4 2.893320 1_555
Pt1_7 Pt2_6 2.893320 1_555
Pt1_7 Pt2_3 2.893320 1_555
Pt1_7 Pt2_5 2.893320 1_555
