# generated using pymatgen
data_Dy5Bi3
_symmetry_space_group_name_H-M   'P 1'
_cell_length_a   8.26764397
_cell_length_b   9.44253940
_cell_length_c   12.04069292
_cell_angle_alpha   90.00000000
_cell_angle_beta   90.00000000
_cell_angle_gamma   90.00000000
_symmetry_Int_Tables_number   1
_chemical_formula_structural   Dy5Bi3
_chemical_formula_sum   'Dy20 Bi12'
_cell_volume   939.98744391
_cell_formula_units_Z   4
loop_
 _symmetry_equiv_pos_site_id
 _symmetry_equiv_pos_as_xyz
  1  'x, y, z'
loop_
 _atom_site_type_symbol
 _atom_site_label
 _atom_site_symmetry_multiplicity
 _atom_site_fract_x
 _atom_site_fract_y
 _atom_site_fract_z
 _atom_site_occupancy
  Dy  Dy0  1  0.68938318  0.93771827  0.43521977  1
  Dy  Dy1  1  0.81061682  0.56228173  0.93521977  1
  Dy  Dy2  1  0.31061682  0.43771827  0.56478023  1
  Dy  Dy3  1  0.18938318  0.06228173  0.06478023  1
  Dy  Dy4  1  0.31061682  0.06228173  0.56478023  1
  Dy  Dy5  1  0.18938318  0.43771827  0.06478023  1
  Dy  Dy6  1  0.68938318  0.56228173  0.43521977  1
  Dy  Dy7  1  0.81061682  0.93771827  0.93521977  1
  Dy  Dy8  1  0.32935257  0.75000000  0.27359771  1
  Dy  Dy9  1  0.17064643  0.75000000  0.77359771  1
  Dy  Dy10  1  0.67064643  0.25000000  0.72640229  1
  Dy  Dy11  1  0.82935357  0.25000000  0.22640229  1
  Dy  Dy12  1  0.02072744  0.75000000  0.49511606  1
  Dy  Dy13  1  0.47927256  0.75000000  0.99511606  1
  Dy  Dy14  1  0.97927256  0.25000000  0.50488394  1
  Dy  Dy15  1  0.52072744  0.25000000  0.00488394  1
  Dy  Dy16  1  0.84069093  0.75000000  0.20923441  1
  Dy  Dy17  1  0.65930907  0.75000000  0.70923441  1
  Dy  Dy18  1  0.15930907  0.25000000  0.79076559  1
  Dy  Dy19  1  0.34069093  0.25000000  0.29076559  1
  Bi  Bi0  1  0.09967496  0.75000000  0.02753363  1
  Bi  Bi1  1  0.40032504  0.75000000  0.52753363  1
  Bi  Bi2  1  0.90032504  0.25000000  0.97246637  1
  Bi  Bi3  1  0.59967496  0.25000000  0.47246637  1
  Bi  Bi4  1  0.56260681  0.99209177  0.17485671  1
  Bi  Bi5  1  0.93739319  0.50790823  0.67485671  1
  Bi  Bi6  1  0.43739319  0.49209177  0.82514329  1
  Bi  Bi7  1  0.06260681  0.00790823  0.32514329  1
  Bi  Bi8  1  0.43739319  0.00790823  0.82514329  1
  Bi  Bi9  1  0.06260681  0.49209177  0.32514329  1
  Bi  Bi10  1  0.56260681  0.50790823  0.17485671  1
  Bi  Bi11  1  0.93739319  0.99209177  0.67485671  1
loop_
_geom_bond_atom_site_label_1
_geom_bond_atom_site_label_2
_geom_bond_distance
_geom_bond_site_symmetry_2
Bi0 Dy16 3.061236 1_455
Bi0 Dy5 3.073473 1_555
Bi0 Dy3 3.073473 1_565
Bi0 Dy9 3.113358 1_554
Bi0 Dy13 3.162558 1_554
Bi0 Dy1 3.176265 1_454
Bi0 Dy7 3.176265 1_454
Bi0 Dy8 3.519072 1_555
Bi1 Dy17 3.061236 1_555
Bi1 Dy2 3.073473 1_555
Bi1 Dy4 3.073473 1_565
Bi1 Dy8 3.113359 1_555
Bi1 Dy12 3.162558 1_555
Bi1 Dy6 3.176265 1_555
Bi1 Dy0 3.176265 1_555
Bi1 Dy9 3.519077 1_555
Bi2 Dy18 3.061236 1_655
Bi2 Dy7 3.073473 1_545
Bi2 Dy1 3.073473 1_555
Bi2 Dy11 3.113358 1_556
Bi2 Dy15 3.162558 1_556
Bi2 Dy5 3.176265 1_656
Bi2 Dy3 3.176265 1_656
Bi2 Dy10 3.519077 1_555
Bi3 Dy19 3.061236 1_555
Bi3 Dy0 3.073473 1_545
Bi3 Dy6 3.073473 1_555
Bi3 Dy10 3.113358 1_555
Bi3 Dy14 3.162558 1_555
Bi3 Dy4 3.176265 1_555
Bi3 Dy2 3.176265 1_555
Bi3 Dy11 3.519077 1_555
Bi4 Dy15 3.199866 1_565
Bi4 Dy8 3.218399 1_555
Bi4 Dy13 3.222434 1_554
Bi4 Dy16 3.268458 1_555
Bi4 Dy11 3.343587 1_565
Bi4 Dy0 3.345165 1_555
Bi4 Dy19 3.353311 1_565
Bi4 Dy3 3.423064 1_565
Bi4 Dy7 3.576798 1_554
Bi5 Dy14 3.199866 1_555
Bi5 Dy9 3.218394 1_655
Bi5 Dy12 3.222434 1_655
Bi5 Dy17 3.268458 1_555
Bi5 Dy10 3.343587 1_555
Bi5 Dy1 3.345165 1_555
Bi5 Dy18 3.353311 1_655
Bi5 Dy2 3.423064 1_655
Bi5 Dy6 3.576798 1_555
Bi6 Dy13 3.199866 1_555
Bi6 Dy10 3.218394 1_555
Bi6 Dy15 3.222434 1_556
Bi6 Dy18 3.268458 1_555
Bi6 Dy9 3.343587 1_555
Bi6 Dy2 3.345165 1_555
Bi6 Dy17 3.353311 1_555
Bi6 Dy1 3.423064 1_555
Bi6 Dy5 3.576798 1_556
Bi7 Dy12 3.199866 1_545
Bi7 Dy11 3.218394 1_455
Bi7 Dy14 3.222434 1_455
Bi7 Dy19 3.268458 1_555
Bi7 Dy8 3.343581 1_545
Bi7 Dy3 3.345165 1_555
Bi7 Dy16 3.353311 1_445
Bi7 Dy0 3.423064 1_445
Bi7 Dy4 3.576798 1_555
Bi8 Dy13 3.199866 1_545
Bi8 Dy10 3.218394 1_555
Bi8 Dy15 3.222434 1_556
Bi8 Dy18 3.268458 1_555
Bi8 Dy9 3.343587 1_545
Bi8 Dy4 3.345165 1_555
Bi8 Dy17 3.353311 1_545
Bi8 Dy7 3.423064 1_545
Bi8 Dy3 3.576798 1_556
Bi9 Dy12 3.199866 1_555
Bi9 Dy11 3.218394 1_455
Bi9 Dy14 3.222434 1_455
Bi9 Dy19 3.268458 1_555
Bi9 Dy8 3.343581 1_555
Bi9 Dy5 3.345165 1_555
Bi9 Dy16 3.353311 1_455
Bi9 Dy6 3.423064 1_455
Bi9 Dy2 3.576798 1_555
Bi10 Dy15 3.199866 1_555
Bi10 Dy8 3.218399 1_555
Bi10 Dy13 3.222434 1_554
Bi10 Dy16 3.268458 1_555
Bi10 Dy11 3.343587 1_555
Bi10 Dy6 3.345165 1_555
Bi10 Dy19 3.353311 1_555
Bi10 Dy5 3.423064 1_555
Bi10 Dy1 3.576798 1_554
Bi11 Dy14 3.199866 1_565
Bi11 Dy9 3.218394 1_655
Bi11 Dy12 3.222434 1_655
Bi11 Dy17 3.268458 1_555
Bi11 Dy10 3.343587 1_565
Bi11 Dy7 3.345165 1_555
Bi11 Dy18 3.353311 1_665
Bi11 Dy4 3.423064 1_665
Bi11 Dy0 3.576798 1_555
