# generated using pymatgen
data_SrLaScO4
_symmetry_space_group_name_H-M   'P 1'
_cell_length_a   6.92885395
_cell_length_b   6.92885395
_cell_length_c   6.92885395
_cell_angle_alpha   145.83103155
_cell_angle_beta   145.83103155
_cell_angle_gamma   49.09780593
_symmetry_Int_Tables_number   1
_chemical_formula_structural   SrLaScO4
_chemical_formula_sum   'Sr1 La1 Sc1 O4'
_cell_volume   104.45923601
_cell_formula_units_Z   1
loop_
 _symmetry_equiv_pos_site_id
 _symmetry_equiv_pos_as_xyz
  1  'x, y, z'
loop_
 _atom_site_type_symbol
 _atom_site_label
 _atom_site_symmetry_multiplicity
 _atom_site_fract_x
 _atom_site_fract_y
 _atom_site_fract_z
 _atom_site_occupancy
  Sr  Sr0  1  0.64335600  0.64335600  0.00000000  1
  La  La0  1  0.35854400  0.35854400  0.00000000  1
  Sc  Sc0  1  0.00311300  0.00311300  0.00000000  1
  O  O0  1  0.83083700  0.83083700  0.00000000  1
  O  O1  1  0.17703700  0.17703700  0.00000000  1
  O  O2  1  0.49355600  0.99355600  0.50000000  1
  O  O3  1  0.99355600  0.49355600  0.50000000  1
loop_
_geom_bond_atom_site_label_1
_geom_bond_atom_site_label_2
_geom_bond_distance
_geom_bond_site_symmetry_2
La0 O1 2.287908 1_555
La0 O3 2.653259 1_555
La0 O2 2.653259 1_544
La0 O3 2.653259 1_454
La0 O2 2.653259 1_555
La0 O0 2.899837 1_444
La0 O0 2.899837 1_545
La0 O0 2.899837 1_455
La0 O0 2.899837 1_556
O0 Sc0 2.171551 1_665
O0 Sr0 2.363211 1_555
O1 Sc0 2.192324 1_555
O1 Sr0 2.909867 1_455
O1 Sr0 2.909867 1_556
O1 Sr0 2.909867 1_444
O1 Sr0 2.909867 1_545
O2 Sc0 2.039131 1_565
O2 Sc0 2.039131 1_666
O2 Sr0 2.776507 1_555
O2 Sr0 2.776507 1_566
O3 Sc0 2.039131 1_655
O3 Sc0 2.039131 1_666
O3 Sr0 2.776507 1_656
O3 Sr0 2.776507 1_555
