# generated using pymatgen
data_Mo3Ru3C2
_symmetry_space_group_name_H-M   'P 1'
_cell_length_a   5.81853846
_cell_length_b   5.81853846
_cell_length_c   27.76663813
_cell_angle_alpha   90.00000000
_cell_angle_beta   90.00000000
_cell_angle_gamma   120.00000000
_symmetry_Int_Tables_number   1
_chemical_formula_structural   Mo3Ru3C2
_chemical_formula_sum   'Mo24 Ru24 C16'
_cell_volume   814.10748994
_cell_formula_units_Z   8
loop_
 _symmetry_equiv_pos_site_id
 _symmetry_equiv_pos_as_xyz
  1  'x, y, z'
loop_
 _atom_site_type_symbol
 _atom_site_label
 _atom_site_symmetry_multiplicity
 _atom_site_fract_x
 _atom_site_fract_y
 _atom_site_fract_z
 _atom_site_occupancy
  Mo  Mo0_0  1  0.00000000  0.00000000  0.48938850  1
  Mo  Mo0_1  1  0.00000000  0.00000000  0.98938850  1
  Mo  Mo0_2  1  0.00000000  0.50000000  0.48938850  1
  Mo  Mo0_3  1  0.00000000  0.50000000  0.98938850  1
  Mo  Mo0_4  1  0.50000000  0.00000000  0.48938850  1
  Mo  Mo0_5  1  0.50000000  0.00000000  0.98938850  1
  Mo  Mo0_6  1  0.50000000  0.50000000  0.48938850  1
  Mo  Mo0_7  1  0.50000000  0.50000000  0.98938850  1
  Mo  Mo1_0  1  0.33333350  0.16666650  0.08333350  1
  Mo  Mo1_1  1  0.33333350  0.16666650  0.58333350  1
  Mo  Mo1_2  1  0.33333350  0.66666650  0.08333350  1
  Mo  Mo1_3  1  0.33333350  0.66666650  0.58333350  1
  Mo  Mo1_4  1  0.83333350  0.16666650  0.08333350  1
  Mo  Mo1_5  1  0.83333350  0.16666650  0.58333350  1
  Mo  Mo1_6  1  0.83333350  0.66666650  0.08333350  1
  Mo  Mo1_7  1  0.83333350  0.66666650  0.58333350  1
  Mo  Mo2_0  1  0.16666650  0.33333350  0.17727800  1
  Mo  Mo2_1  1  0.16666650  0.33333350  0.67727800  1
  Mo  Mo2_2  1  0.16666650  0.83333350  0.17727800  1
  Mo  Mo2_3  1  0.16666650  0.83333350  0.67727800  1
  Mo  Mo2_4  1  0.66666650  0.33333350  0.17727800  1
  Mo  Mo2_5  1  0.66666650  0.33333350  0.67727800  1
  Mo  Mo2_6  1  0.66666650  0.83333350  0.17727800  1
  Mo  Mo2_7  1  0.66666650  0.83333350  0.67727800  1
  Ru  Ru0_0  1  0.00000000  0.00000000  0.25632500  1
  Ru  Ru0_1  1  0.00000000  0.00000000  0.75632500  1
  Ru  Ru0_2  1  0.00000000  0.50000000  0.25632500  1
  Ru  Ru0_3  1  0.00000000  0.50000000  0.75632500  1
  Ru  Ru0_4  1  0.50000000  0.00000000  0.25632500  1
  Ru  Ru0_5  1  0.50000000  0.00000000  0.75632500  1
  Ru  Ru0_6  1  0.50000000  0.50000000  0.25632500  1
  Ru  Ru0_7  1  0.50000000  0.50000000  0.75632500  1
  Ru  Ru1_0  1  0.33333350  0.16666650  0.33333350  1
  Ru  Ru1_1  1  0.33333350  0.16666650  0.83333350  1
  Ru  Ru1_2  1  0.33333350  0.66666650  0.33333350  1
  Ru  Ru1_3  1  0.33333350  0.66666650  0.83333350  1
  Ru  Ru1_4  1  0.83333350  0.16666650  0.33333350  1
  Ru  Ru1_5  1  0.83333350  0.16666650  0.83333350  1
  Ru  Ru1_6  1  0.83333350  0.66666650  0.33333350  1
  Ru  Ru1_7  1  0.83333350  0.66666650  0.83333350  1
  Ru  Ru2_0  1  0.16666650  0.33333350  0.41034150  1
  Ru  Ru2_1  1  0.16666650  0.33333350  0.91034150  1
  Ru  Ru2_2  1  0.16666650  0.83333350  0.41034150  1
  Ru  Ru2_3  1  0.16666650  0.83333350  0.91034150  1
  Ru  Ru2_4  1  0.66666650  0.33333350  0.41034150  1
  Ru  Ru2_5  1  0.66666650  0.33333350  0.91034150  1
  Ru  Ru2_6  1  0.66666650  0.83333350  0.41034150  1
  Ru  Ru2_7  1  0.66666650  0.83333350  0.91034150  1
  C  C0_0  1  0.16666650  0.33333350  0.03391950  1
  C  C0_1  1  0.16666650  0.33333350  0.53391950  1
  C  C0_2  1  0.16666650  0.83333350  0.03391950  1
  C  C0_3  1  0.16666650  0.83333350  0.53391950  1
  C  C0_4  1  0.66666650  0.33333350  0.03391950  1
  C  C0_5  1  0.66666650  0.33333350  0.53391950  1
  C  C0_6  1  0.66666650  0.83333350  0.03391950  1
  C  C0_7  1  0.66666650  0.83333350  0.53391950  1
  C  C1_0  1  0.00000000  0.00000000  0.13274700  1
  C  C1_1  1  0.00000000  0.00000000  0.63274700  1
  C  C1_2  1  0.00000000  0.50000000  0.13274700  1
  C  C1_3  1  0.00000000  0.50000000  0.63274700  1
  C  C1_4  1  0.50000000  0.00000000  0.13274700  1
  C  C1_5  1  0.50000000  0.00000000  0.63274700  1
  C  C1_6  1  0.50000000  0.50000000  0.13274700  1
  C  C1_7  1  0.50000000  0.50000000  0.63274700  1
loop_
_geom_bond_atom_site_label_1
_geom_bond_atom_site_label_2
_geom_bond_distance
_geom_bond_site_symmetry_2
Mo0_0 Ru2_2 2.763825 1_545
Mo0_0 Ru2_0 2.763827 1_555
Mo0_0 Ru2_6 2.763827 1_445
Mo0_1 Ru2_3 2.763825 1_545
Mo0_1 Ru2_7 2.763827 1_445
Mo0_1 Ru2_1 2.763827 1_555
Mo0_2 Ru2_0 2.763825 1_555
Mo0_2 Ru2_2 2.763827 1_555
Mo0_2 Ru2_4 2.763827 1_455
Mo0_3 Ru2_1 2.763825 1_555
Mo0_3 Ru2_3 2.763827 1_555
Mo0_3 Ru2_5 2.763827 1_455
Mo0_4 Ru2_6 2.763825 1_545
Mo0_4 Ru2_2 2.763827 1_545
Mo0_4 Ru2_4 2.763827 1_555
Mo0_5 Ru2_7 2.763825 1_545
Mo0_5 Ru2_5 2.763827 1_555
Mo0_5 Ru2_3 2.763827 1_545
Mo0_6 Ru2_4 2.763825 1_555
Mo0_6 Ru2_0 2.763827 1_555
Mo0_6 Ru2_6 2.763827 1_555
Mo0_7 Ru2_5 2.763825 1_555
Mo0_7 Ru2_1 2.763827 1_555
Mo0_7 Ru2_7 2.763827 1_555
Mo2_0 Ru0_2 2.763825 1_555
Mo2_0 Ru0_6 2.763827 1_555
Mo2_0 Ru0_0 2.763827 1_555
Mo2_1 Ru0_3 2.763825 1_555
Mo2_1 Ru0_1 2.763827 1_555
Mo2_1 Ru0_7 2.763827 1_555
Mo2_2 Ru0_0 2.763825 1_565
Mo2_2 Ru0_4 2.763827 1_565
Mo2_2 Ru0_2 2.763827 1_555
Mo2_3 Ru0_1 2.763825 1_565
Mo2_3 Ru0_5 2.763827 1_565
Mo2_3 Ru0_3 2.763827 1_555
Mo2_4 Ru0_6 2.763825 1_555
Mo2_4 Ru0_4 2.763827 1_555
Mo2_4 Ru0_2 2.763827 1_655
Mo2_5 Ru0_7 2.763825 1_555
Mo2_5 Ru0_5 2.763827 1_555
Mo2_5 Ru0_3 2.763827 1_655
Mo2_6 Ru0_4 2.763825 1_565
Mo2_6 Ru0_6 2.763827 1_555
Mo2_6 Ru0_0 2.763827 1_665
Mo2_7 Ru0_5 2.763825 1_565
Mo2_7 Ru0_1 2.763827 1_665
Mo2_7 Ru0_7 2.763827 1_555
Ru0_0 Ru1_4 2.719092 1_455
Ru0_0 Ru1_0 2.719094 1_555
Ru0_0 Ru1_6 2.719094 1_445
Ru0_0 Ru0_4 2.909269 1_555
Ru0_0 Ru0_2 2.909269 1_555
Ru0_0 Ru0_6 2.909269 1_555
Ru0_0 Ru0_2 2.909269 1_545
Ru0_0 Ru0_6 2.909269 1_445
Ru0_0 Ru0_4 2.909269 1_455
Ru0_1 Ru1_5 2.719092 1_455
Ru0_1 Ru1_7 2.719094 1_445
Ru0_1 Ru1_1 2.719094 1_555
Ru0_1 Ru0_5 2.909269 1_555
Ru0_1 Ru0_3 2.909269 1_545
Ru0_1 Ru0_7 2.909269 1_555
Ru0_1 Ru0_3 2.909269 1_555
Ru0_1 Ru0_5 2.909269 1_455
Ru0_1 Ru0_7 2.909269 1_445
Ru0_2 Ru1_6 2.719092 1_455
Ru0_2 Ru1_2 2.719094 1_555
Ru0_2 Ru1_4 2.719094 1_455
Ru0_2 Ru0_6 2.909269 1_555
Ru0_2 Ru0_4 2.909269 1_565
Ru0_2 Ru0_4 2.909269 1_455
Ru0_2 Ru0_6 2.909269 1_455
Ru0_3 Ru1_7 2.719092 1_455
Ru0_3 Ru1_5 2.719094 1_455
Ru0_3 Ru1_3 2.719094 1_555
Ru0_3 Ru0_5 2.909269 1_565
Ru0_3 Ru0_7 2.909269 1_555
Ru0_3 Ru0_7 2.909269 1_455
Ru0_3 Ru0_5 2.909269 1_455
Ru0_4 Ru1_0 2.719092 1_555
Ru0_4 Ru1_4 2.719094 1_555
Ru0_4 Ru1_2 2.719094 1_545
Ru0_4 Ru0_6 2.909269 1_555
Ru0_4 Ru0_6 2.909269 1_545
Ru0_5 Ru1_1 2.719092 1_555
Ru0_5 Ru1_3 2.719094 1_545
Ru0_5 Ru1_5 2.719094 1_555
Ru0_5 Ru0_7 2.909269 1_555
Ru0_5 Ru0_7 2.909269 1_545
Ru0_6 Ru1_2 2.719092 1_555
Ru0_6 Ru1_0 2.719094 1_555
Ru0_6 Ru1_6 2.719094 1_555
Ru0_7 Ru1_3 2.719092 1_555
Ru0_7 Ru1_7 2.719094 1_555
Ru0_7 Ru1_1 2.719094 1_555
Ru1_0 Ru2_4 2.719081 1_555
Ru1_0 Ru2_2 2.719081 1_545
Ru1_0 Ru2_0 2.719085 1_555
Ru1_0 Ru1_4 2.909269 1_555
Ru1_0 Ru1_6 2.909269 1_445
Ru1_0 Ru1_2 2.909269 1_545
Ru1_0 Ru1_4 2.909269 1_455
Ru1_0 Ru1_6 2.909269 1_555
Ru1_0 Ru1_2 2.909269 1_555
Ru1_1 Ru2_5 2.719081 1_555
Ru1_1 Ru2_3 2.719081 1_545
Ru1_1 Ru2_1 2.719085 1_555
Ru1_1 Ru1_3 2.909269 1_555
Ru1_1 Ru1_5 2.909269 1_555
Ru1_1 Ru1_7 2.909269 1_445
Ru1_1 Ru1_7 2.909269 1_555
Ru1_1 Ru1_5 2.909269 1_455
Ru1_1 Ru1_3 2.909269 1_545
Ru1_2 Ru2_0 2.719081 1_555
Ru1_2 Ru2_6 2.719081 1_555
Ru1_2 Ru2_2 2.719085 1_555
Ru1_2 Ru1_6 2.909269 1_555
Ru1_2 Ru1_4 2.909269 1_565
Ru1_2 Ru1_4 2.909269 1_455
Ru1_2 Ru1_6 2.909269 1_455
Ru1_3 Ru2_7 2.719081 1_555
Ru1_3 Ru2_1 2.719081 1_555
Ru1_3 Ru2_3 2.719085 1_555
Ru1_3 Ru1_7 2.909269 1_555
Ru1_3 Ru1_5 2.909269 1_565
Ru1_3 Ru1_5 2.909269 1_455
Ru1_3 Ru1_7 2.909269 1_455
Ru1_4 Ru2_6 2.719081 1_545
Ru1_4 Ru2_0 2.719081 1_655
Ru1_4 Ru2_4 2.719085 1_555
Ru1_4 Ru1_6 2.909269 1_545
Ru1_4 Ru1_6 2.909269 1_555
Ru1_5 Ru2_7 2.719081 1_545
Ru1_5 Ru2_1 2.719081 1_655
Ru1_5 Ru2_5 2.719085 1_555
Ru1_5 Ru1_7 2.909269 1_545
Ru1_5 Ru1_7 2.909269 1_555
Ru1_6 Ru2_4 2.719081 1_555
Ru1_6 Ru2_2 2.719081 1_655
Ru1_6 Ru2_6 2.719085 1_555
Ru1_7 Ru2_5 2.719081 1_555
Ru1_7 Ru2_3 2.719081 1_655
Ru1_7 Ru2_7 2.719085 1_555
Ru2_0 Ru2_6 2.909269 1_555
Ru2_0 Ru2_4 2.909269 1_555
Ru2_0 Ru2_2 2.909269 1_545
Ru2_0 Ru2_2 2.909269 1_555
Ru2_0 Ru2_6 2.909269 1_445
Ru2_0 Ru2_4 2.909269 1_455
Ru2_1 Ru2_3 2.909269 1_555
Ru2_1 Ru2_7 2.909269 1_445
Ru2_1 Ru2_5 2.909269 1_555
Ru2_1 Ru2_5 2.909269 1_455
Ru2_1 Ru2_7 2.909269 1_555
Ru2_1 Ru2_3 2.909269 1_545
Ru2_2 Ru2_6 2.909269 1_555
Ru2_2 Ru2_4 2.909269 1_565
Ru2_2 Ru2_6 2.909269 1_455
Ru2_2 Ru2_4 2.909269 1_455
Ru2_3 Ru2_7 2.909269 1_555
Ru2_3 Ru2_5 2.909269 1_565
Ru2_3 Ru2_5 2.909269 1_455
Ru2_3 Ru2_7 2.909269 1_455
Ru2_4 Ru2_6 2.909269 1_545
Ru2_4 Ru2_6 2.909269 1_555
Ru2_5 Ru2_7 2.909269 1_545
Ru2_5 Ru2_7 2.909269 1_555
C0_0 Mo0_3 2.085701 1_554
C0_0 Mo0_1 2.085703 1_554
C0_0 Mo0_7 2.085703 1_554
C0_0 Mo1_4 2.168831 1_455
C0_0 Mo1_2 2.168831 1_555
C0_0 Mo1_0 2.168835 1_555
C0_1 Mo0_2 2.085701 1_555
C0_1 Mo0_6 2.085703 1_555
C0_1 Mo0_0 2.085703 1_555
C0_1 Mo1_3 2.168831 1_555
C0_1 Mo1_5 2.168831 1_455
C0_1 Mo1_1 2.168835 1_555
C0_2 Mo0_1 2.085701 1_564
C0_2 Mo0_3 2.085703 1_554
C0_2 Mo0_5 2.085703 1_564
C0_2 Mo1_6 2.168831 1_455
C0_2 Mo1_0 2.168831 1_565
C0_2 Mo1_2 2.168835 1_555
C0_3 Mo0_0 2.085701 1_565
C0_3 Mo0_4 2.085703 1_565
C0_3 Mo0_2 2.085703 1_555
C0_3 Mo1_7 2.168831 1_455
C0_3 Mo1_1 2.168831 1_565
C0_3 Mo1_3 2.168835 1_555
C0_4 Mo0_7 2.085701 1_554
C0_4 Mo0_3 2.085703 1_654
C0_4 Mo0_5 2.085703 1_554
C0_4 Mo1_6 2.168831 1_555
C0_4 Mo1_0 2.168831 1_555
C0_4 Mo1_4 2.168835 1_555
C0_5 Mo0_6 2.085701 1_555
C0_5 Mo0_4 2.085703 1_555
C0_5 Mo0_2 2.085703 1_655
C0_5 Mo1_7 2.168831 1_555
C0_5 Mo1_1 2.168831 1_555
C0_5 Mo1_5 2.168835 1_555
C0_6 Mo0_5 2.085701 1_564
C0_6 Mo0_1 2.085703 1_664
C0_6 Mo0_7 2.085703 1_554
C0_6 Mo1_4 2.168831 1_565
C0_6 Mo1_2 2.168831 1_555
C0_6 Mo1_6 2.168835 1_555
C0_7 Mo0_4 2.085701 1_565
C0_7 Mo0_0 2.085703 1_665
C0_7 Mo0_6 2.085703 1_555
C0_7 Mo1_3 2.168831 1_555
C0_7 Mo1_5 2.168831 1_565
C0_7 Mo1_7 2.168835 1_555
C1_0 Mo2_2 2.085701 1_545
C1_0 Mo2_6 2.085703 1_445
C1_0 Mo2_0 2.085703 1_555
C1_0 Mo1_4 2.168822 1_455
C1_0 Mo1_6 2.168824 1_445
C1_0 Mo1_0 2.168824 1_555
C1_1 Mo2_3 2.085701 1_545
C1_1 Mo2_7 2.085703 1_445
C1_1 Mo2_1 2.085703 1_555
C1_1 Mo1_5 2.168822 1_455
C1_1 Mo1_1 2.168824 1_555
C1_1 Mo1_7 2.168824 1_445
C1_2 Mo2_0 2.085701 1_555
C1_2 Mo2_4 2.085703 1_455
C1_2 Mo2_2 2.085703 1_555
C1_2 Mo1_6 2.168822 1_455
C1_2 Mo1_4 2.168824 1_455
C1_2 Mo1_2 2.168824 1_555
C1_3 Mo2_1 2.085701 1_555
C1_3 Mo2_5 2.085703 1_455
C1_3 Mo2_3 2.085703 1_555
C1_3 Mo1_7 2.168822 1_455
C1_3 Mo1_5 2.168824 1_455
C1_3 Mo1_3 2.168824 1_555
C1_4 Mo2_6 2.085701 1_545
C1_4 Mo2_2 2.085703 1_545
C1_4 Mo2_4 2.085703 1_555
C1_4 Mo1_0 2.168822 1_555
C1_4 Mo1_4 2.168824 1_555
C1_4 Mo1_2 2.168824 1_545
C1_5 Mo2_7 2.085701 1_545
C1_5 Mo2_5 2.085703 1_555
C1_5 Mo2_3 2.085703 1_545
C1_5 Mo1_1 2.168822 1_555
C1_5 Mo1_5 2.168824 1_555
C1_5 Mo1_3 2.168824 1_545
C1_6 Mo2_4 2.085701 1_555
C1_6 Mo2_0 2.085703 1_555
C1_6 Mo2_6 2.085703 1_555
C1_6 Mo1_2 2.168822 1_555
C1_6 Mo1_0 2.168824 1_555
C1_6 Mo1_6 2.168824 1_555
C1_7 Mo2_5 2.085701 1_555
C1_7 Mo2_7 2.085703 1_555
C1_7 Mo2_1 2.085703 1_555
C1_7 Mo1_3 2.168822 1_555
C1_7 Mo1_7 2.168824 1_555
C1_7 Mo1_1 2.168824 1_555
