# generated using pymatgen
data_Y3Si5N9O
_symmetry_space_group_name_H-M   'P 1'
_cell_length_a   4.97403160
_cell_length_b   10.65924995
_cell_length_c   16.15304594
_cell_angle_alpha   90.00000000
_cell_angle_beta   90.00000000
_cell_angle_gamma   90.00000000
_symmetry_Int_Tables_number   1
_chemical_formula_structural   Y3Si5N9O
_chemical_formula_sum   'Y12 Si20 N36 O4'
_cell_volume   856.42554830
_cell_formula_units_Z   4
loop_
 _symmetry_equiv_pos_site_id
 _symmetry_equiv_pos_as_xyz
  1  'x, y, z'
loop_
 _atom_site_type_symbol
 _atom_site_label
 _atom_site_symmetry_multiplicity
 _atom_site_fract_x
 _atom_site_fract_y
 _atom_site_fract_z
 _atom_site_occupancy
  Y  Y0  1  0.66316659  0.92849776  0.59999965  1
  Y  Y1  1  0.33683341  0.07150224  0.40000035  1
  Y  Y2  1  0.33683341  0.42849776  0.40000035  1
  Y  Y3  1  0.33683341  0.57150224  0.09999965  1
  Y  Y4  1  0.66316659  0.57150224  0.59999965  1
  Y  Y5  1  0.66316659  0.42849776  0.90000035  1
  Y  Y6  1  0.66316659  0.07150224  0.90000035  1
  Y  Y7  1  0.33683341  0.92849776  0.09999965  1
  Y  Y8  1  0.70318572  0.75000000  0.79605913  1
  Y  Y9  1  0.29681428  0.25000000  0.20394087  1
  Y  Y10  1  0.29681428  0.75000000  0.29605913  1
  Y  Y11  1  0.70318572  0.25000000  0.70394087  1
  Si  Si0  1  0.25111869  0.75000000  0.66982347  1
  Si  Si1  1  0.74888131  0.25000000  0.33017653  1
  Si  Si2  1  0.74888131  0.75000000  0.16982347  1
  Si  Si3  1  0.25111869  0.25000000  0.83017653  1
  Si  Si4  1  0.89550682  0.89633285  0.42373965  1
  Si  Si5  1  0.10449318  0.10366715  0.57626035  1
  Si  Si6  1  0.10449318  0.39633285  0.57626035  1
  Si  Si7  1  0.10449318  0.60366715  0.92373965  1
  Si  Si8  1  0.89550682  0.60366715  0.42373965  1
  Si  Si9  1  0.89550682  0.39633285  0.07626035  1
  Si  Si10  1  0.89550682  0.10366715  0.07626035  1
  Si  Si11  1  0.10449318  0.89633285  0.92373965  1
  Si  Si12  1  0.61006269  0.75000000  0.97276059  1
  Si  Si13  1  0.38993731  0.25000000  0.02723941  1
  Si  Si14  1  0.38993731  0.75000000  0.47276059  1
  Si  Si15  1  0.61006269  0.25000000  0.52723941  1
  Si  Si16  1  0.18230984  0.00000000  0.75000000  1
  Si  Si17  1  0.81769016  0.00000000  0.25000000  1
  Si  Si18  1  0.81769016  0.50000000  0.25000000  1
  Si  Si19  1  0.18230984  0.50000000  0.75000000  1
  N  N0  1  0.97694295  0.94401235  0.82942656  1
  N  N1  1  0.02305705  0.05598765  0.17057344  1
  N  N2  1  0.02305705  0.44401235  0.17057344  1
  N  N3  1  0.02305705  0.55598765  0.32942656  1
  N  N4  1  0.97694295  0.55598765  0.82942656  1
  N  N5  1  0.97694295  0.44401235  0.67057344  1
  N  N6  1  0.97694295  0.05598765  0.67057344  1
  N  N7  1  0.02305705  0.94401235  0.32942656  1
  N  N8  1  0.94166279  0.75000000  0.93714863  1
  N  N9  1  0.05833721  0.25000000  0.06285137  1
  N  N10  1  0.05833721  0.75000000  0.43714863  1
  N  N11  1  0.94166279  0.25000000  0.56285137  1
  N  N12  1  0.40382749  0.75000000  0.57557539  1
  N  N13  1  0.59617251  0.25000000  0.42442461  1
  N  N14  1  0.59617251  0.75000000  0.07557539  1
  N  N15  1  0.40382749  0.25000000  0.92442461  1
  N  N16  1  0.44748441  0.87966664  0.93201480  1
  N  N17  1  0.55251559  0.12033336  0.06798520  1
  N  N18  1  0.55251559  0.37966664  0.06798520  1
  N  N19  1  0.55251559  0.62033336  0.43201480  1
  N  N20  1  0.44748441  0.62033336  0.93201480  1
  N  N21  1  0.44748441  0.37966664  0.56798520  1
  N  N22  1  0.44748441  0.12033336  0.56798520  1
  N  N23  1  0.55251559  0.87966664  0.43201480  1
  N  N24  1  -0.00000000  0.00000000  0.00000000  1
  N  N25  1  0.00000000  0.50000000  0.00000000  1
  N  N26  1  -0.00000000  0.50000000  0.50000000  1
  N  N27  1  0.00000000  0.00000000  0.50000000  1
  N  N28  1  0.38915280  0.87906073  0.71741729  1
  N  N29  1  0.61084720  0.12093927  0.28258271  1
  N  N30  1  0.61084720  0.37906073  0.28258271  1
  N  N31  1  0.61084720  0.62093927  0.21741729  1
  N  N32  1  0.38915280  0.62093927  0.71741729  1
  N  N33  1  0.38915280  0.37906073  0.78258271  1
  N  N34  1  0.38915280  0.12093927  0.78258271  1
  N  N35  1  0.61084720  0.87906073  0.21741729  1
  O  O0  1  0.91784870  0.75000000  0.66692294  1
  O  O1  1  0.08215130  0.25000000  0.33307706  1
  O  O2  1  0.08215130  0.75000000  0.16692294  1
  O  O3  1  0.91784870  0.25000000  0.83307706  1
loop_
_geom_bond_atom_site_label_1
_geom_bond_atom_site_label_2
_geom_bond_distance
_geom_bond_site_symmetry_2
N0 Si11 1.726757 1_655
N0 Si16 1.745182 1_665
N0 Y6 2.362664 1_565
N0 Y8 2.534049 1_555
N1 Si10 1.726757 1_455
N1 Si17 1.745182 1_455
N1 Y7 2.362664 1_545
N1 Y9 2.534049 1_555
N2 Si9 1.726757 1_455
N2 Si18 1.745182 1_455
N2 Y3 2.362664 1_555
N2 Y9 2.534049 1_555
N3 Si8 1.726757 1_455
N3 Si18 1.745182 1_455
N3 Y2 2.362664 1_555
N3 Y10 2.534049 1_555
N4 Si7 1.726757 1_655
N4 Si19 1.745182 1_655
N4 Y5 2.362664 1_555
N4 Y8 2.534049 1_555
N5 Si6 1.726757 1_655
N5 Si19 1.745182 1_655
N5 Y4 2.362664 1_555
N5 Y11 2.534049 1_555
N6 Si5 1.726757 1_655
N6 Si16 1.745182 1_655
N6 Y0 2.362664 1_545
N6 Y11 2.534049 1_555
N7 Si4 1.726757 1_455
N7 Si17 1.745182 1_465
N7 Y1 2.362664 1_565
N7 Y10 2.534049 1_555
N8 Si12 1.746822 1_555
N8 Si11 1.770836 1_655
N8 Si7 1.770836 1_655
N8 Y8 2.569243 1_555
N9 Si13 1.746822 1_555
N9 Si10 1.770836 1_455
N9 Si9 1.770836 1_455
N9 Y9 2.569243 1_555
N10 Si14 1.746822 1_555
N10 Si8 1.770836 1_455
N10 Si4 1.770836 1_455
N10 Y10 2.569243 1_555
N11 Si15 1.746822 1_555
N11 Si5 1.770836 1_655
N11 Si6 1.770836 1_655
N11 Y11 2.569243 1_555
N12 Si14 1.662209 1_555
N12 Si0 1.701365 1_555
N12 Y0 2.332324 1_555
N12 Y4 2.332324 1_555
N13 Si15 1.662209 1_555
N13 Si1 1.701365 1_555
N13 Y2 2.332324 1_555
N13 Y1 2.332324 1_555
N14 Si12 1.662209 1_554
N14 Si2 1.701365 1_555
N14 Y7 2.332324 1_555
N14 Y3 2.332324 1_555
N15 Si13 1.662209 1_556
N15 Si3 1.701365 1_555
N15 Y5 2.332324 1_555
N15 Y6 2.332324 1_555
N16 Si11 1.720474 1_555
N16 Si12 1.731320 1_555
N16 Y6 2.366358 1_565
N16 Y7 2.817223 1_556
N16 Y8 2.889780 1_555
N17 Si10 1.720474 1_555
N17 Si13 1.731320 1_555
N17 Y7 2.366358 1_545
N17 Y6 2.817223 1_554
N17 Y9 2.889780 1_555
N18 Si9 1.720474 1_555
N18 Si13 1.731320 1_555
N18 Y3 2.366358 1_555
N18 Y5 2.817223 1_554
N18 Y9 2.889780 1_555
N19 Si8 1.720474 1_555
N19 Si14 1.731320 1_555
N19 Y2 2.366358 1_555
N19 Y4 2.817223 1_555
N19 Y10 2.889780 1_555
N20 Si7 1.720474 1_555
N20 Si12 1.731320 1_555
N20 Y5 2.366358 1_555
N20 Y3 2.817223 1_556
N20 Y8 2.889780 1_555
N21 Si6 1.720474 1_555
N21 Si15 1.731320 1_555
N21 Y4 2.366358 1_555
N21 Y2 2.817223 1_555
N21 Y11 2.889780 1_555
N22 Si5 1.720474 1_555
N22 Si15 1.731320 1_555
N22 Y0 2.366358 1_545
N22 Y1 2.817223 1_555
N22 Y11 2.889780 1_555
N23 Si4 1.720474 1_555
N23 Si14 1.731320 1_555
N23 Y1 2.366358 1_565
N23 Y0 2.817223 1_555
N23 Y10 2.889780 1_555
N24 Si11 1.734538 1_544
N24 Si10 1.734538 1_455
N24 Y6 2.448900 1_454
N24 Y7 2.448900 1_545
N25 Si9 1.734538 1_455
N25 Si7 1.734538 1_554
N25 Y5 2.448900 1_454
N25 Y3 2.448900 1_555
N26 Si6 1.734538 1_555
N26 Si8 1.734538 1_455
N26 Y2 2.448900 1_555
N26 Y4 2.448900 1_455
N27 Si5 1.734538 1_555
N27 Si4 1.734538 1_445
N27 Y1 2.448900 1_555
N27 Y0 2.448900 1_445
N28 Si0 1.718998 1_555
N28 Si16 1.731287 1_565
N28 Y0 2.394289 1_555
N28 Y8 2.438457 1_555
N29 Si1 1.718998 1_555
N29 Si17 1.731287 1_555
N29 Y1 2.394289 1_555
N29 Y9 2.438457 1_555
N30 Si1 1.718998 1_555
N30 Si18 1.731287 1_555
N30 Y2 2.394289 1_555
N30 Y9 2.438457 1_555
N31 Si2 1.718998 1_555
N31 Si18 1.731287 1_555
N31 Y3 2.394289 1_555
N31 Y10 2.438457 1_555
N32 Si0 1.718998 1_555
N32 Si19 1.731287 1_555
N32 Y4 2.394289 1_555
N32 Y8 2.438457 1_555
N33 Si3 1.718998 1_555
N33 Si19 1.731287 1_555
N33 Y5 2.394289 1_555
N33 Y11 2.438457 1_555
N34 Si3 1.718998 1_555
N34 Si16 1.731287 1_555
N34 Y6 2.394289 1_555
N34 Y11 2.438457 1_555
N35 Si2 1.718998 1_555
N35 Si17 1.731287 1_565
N35 Y7 2.394289 1_555
N35 Y10 2.438457 1_555
O0 Si0 1.658357 1_655
O0 Y8 2.343337 1_555
O0 Y4 2.528528 1_555
O0 Y0 2.528528 1_555
O1 Si1 1.658357 1_455
O1 Y9 2.343337 1_555
O1 Y1 2.528528 1_555
O1 Y2 2.528528 1_555
O2 Si2 1.658357 1_455
O2 Y10 2.343337 1_555
O2 Y7 2.528528 1_555
O2 Y3 2.528528 1_555
O3 Si3 1.658357 1_655
O3 Y11 2.343337 1_555
O3 Y6 2.528528 1_555
O3 Y5 2.528528 1_555
