# generated using pymatgen
data_Sr2TaN3
_symmetry_space_group_name_H-M   'P 1'
_cell_length_a   6.39790347
_cell_length_b   6.39790347
_cell_length_c   12.61895072
_cell_angle_alpha   88.92517266
_cell_angle_beta   88.92517266
_cell_angle_gamma   123.84589000
_symmetry_Int_Tables_number   1
_chemical_formula_structural   Sr2TaN3
_chemical_formula_sum   'Sr8 Ta4 N12'
_cell_volume   428.66029498
_cell_formula_units_Z   4
loop_
 _symmetry_equiv_pos_site_id
 _symmetry_equiv_pos_as_xyz
  1  'x, y, z'
loop_
 _atom_site_type_symbol
 _atom_site_label
 _atom_site_symmetry_multiplicity
 _atom_site_fract_x
 _atom_site_fract_y
 _atom_site_fract_z
 _atom_site_occupancy
  Sr  Sr0  1  0.94469051  0.54202491  0.14054400  1
  Sr  Sr1  1  0.15359886  0.38530087  0.42349448  1
  Sr  Sr2  1  0.38530087  0.15359886  0.92349448  1
  Sr  Sr3  1  0.84640114  0.61469913  0.57650552  1
  Sr  Sr4  1  0.05530949  0.45797509  0.85945600  1
  Sr  Sr5  1  0.54202491  0.94469051  0.64054400  1
  Sr  Sr6  1  0.45797509  0.05530949  0.35945600  1
  Sr  Sr7  1  0.61469913  0.84640114  0.07650552  1
  Ta  Ta0  1  0.76753192  0.76380006  0.33626405  1
  Ta  Ta1  1  0.23619994  0.23246808  0.16373595  1
  Ta  Ta2  1  0.23246808  0.23619994  0.66373595  1
  Ta  Ta3  1  0.76380006  0.76753192  0.83626405  1
  N  N0  1  0.49839045  0.50160955  0.75000000  1
  N  N1  1  0.50160955  0.49839045  0.25000000  1
  N  N2  1  0.08300355  0.91699645  0.75000000  1
  N  N3  1  0.91699645  0.08300355  0.25000000  1
  N  N4  1  0.00705569  0.33254150  0.62532263  1
  N  N5  1  0.66745850  0.99294431  0.87467737  1
  N  N6  1  0.99294431  0.66745850  0.37467737  1
  N  N7  1  0.33254150  0.00705569  0.12532263  1
  N  N8  1  0.80422225  0.61746482  0.95876589  1
  N  N9  1  0.61746482  0.80422225  0.45876589  1
  N  N10  1  0.19577775  0.38253518  0.04123411  1
  N  N11  1  0.38253518  0.19577775  0.54123411  1
loop_
_geom_bond_atom_site_label_1
_geom_bond_atom_site_label_2
_geom_bond_distance
_geom_bond_site_symmetry_2
N0 Ta2 1.970706 1_555
N0 Ta3 1.970706 1_555
N0 Sr3 2.870066 1_555
N0 Sr2 2.870066 1_555
N0 Sr4 2.996470 1_555
N0 Sr5 2.996470 1_555
N1 Ta1 1.970706 1_555
N1 Ta0 1.970706 1_555
N1 Sr7 2.870066 1_555
N1 Sr1 2.870066 1_555
N1 Sr6 2.996470 1_555
N1 Sr0 2.996470 1_555
N2 Ta3 1.993057 1_455
N2 Ta2 1.993057 1_565
N2 Sr2 2.801276 1_565
N2 Sr3 2.801276 1_455
N2 Sr5 3.134137 1_555
N2 Sr4 3.134137 1_555
N3 Ta0 1.993057 1_545
N3 Ta1 1.993057 1_655
N3 Sr7 2.801276 1_545
N3 Sr1 2.801276 1_655
N3 Sr0 3.134137 1_555
N3 Sr6 3.134137 1_555
N4 Ta2 1.923527 1_555
N4 Sr3 2.596860 1_455
N4 Sr5 2.604448 1_445
N4 Sr1 2.646716 1_555
N4 Sr4 3.052164 1_555
N5 Ta3 1.923527 1_555
N5 Sr2 2.596860 1_565
N5 Sr4 2.604448 1_665
N5 Sr7 2.646716 1_556
N5 Sr5 3.052164 1_555
N6 Ta0 1.923527 1_555
N6 Sr1 2.596860 1_655
N6 Sr6 2.604448 1_665
N6 Sr3 2.646716 1_555
N6 Sr0 3.052164 1_555
N7 Ta1 1.923527 1_555
N7 Sr7 2.596860 1_545
N7 Sr0 2.604448 1_445
N7 Sr2 2.646716 1_554
N7 Sr6 3.052164 1_555
N8 Ta3 1.901117 1_555
N8 Sr0 2.611772 1_556
N8 Sr4 2.643995 1_655
N8 Sr2 2.724556 1_555
N8 Sr7 2.795629 1_556
N9 Ta0 1.901117 1_555
N9 Sr5 2.611772 1_555
N9 Sr6 2.643995 1_565
N9 Sr1 2.724556 1_555
N9 Sr3 2.795629 1_555
N10 Ta1 1.901117 1_555
N10 Sr4 2.611772 1_554
N10 Sr0 2.643995 1_455
N10 Sr7 2.724556 1_555
N10 Sr2 2.795629 1_554
N11 Ta2 1.901117 1_555
N11 Sr6 2.611772 1_555
N11 Sr5 2.643995 1_545
N11 Sr3 2.724556 1_555
N11 Sr1 2.795629 1_555
