# generated using pymatgen
data_Ba3CuN3
_symmetry_space_group_name_H-M   'P 1'
_cell_length_a   8.09362701
_cell_length_b   8.09295231
_cell_length_c   5.70415600
_cell_angle_alpha   90.00000000
_cell_angle_beta   90.00000000
_cell_angle_gamma   119.99708753
_symmetry_Int_Tables_number   1
_chemical_formula_structural   Ba3CuN3
_chemical_formula_sum   'Ba6 Cu2 N6'
_cell_volume   323.58243471
_cell_formula_units_Z   2
loop_
 _symmetry_equiv_pos_site_id
 _symmetry_equiv_pos_as_xyz
  1  'x, y, z'
loop_
 _atom_site_type_symbol
 _atom_site_label
 _atom_site_symmetry_multiplicity
 _atom_site_fract_x
 _atom_site_fract_y
 _atom_site_fract_z
 _atom_site_occupancy
  Ba  Ba0  1  0.92758300  0.63724900  0.25000000  1
  Ba  Ba1  1  0.70959900  0.07238400  0.25000000  1
  Ba  Ba2  1  0.36284200  0.29035900  0.25000000  1
  Ba  Ba3  1  0.07241700  0.36275100  0.75000000  1
  Ba  Ba4  1  0.29040100  0.92761600  0.75000000  1
  Ba  Ba5  1  0.63715800  0.70964100  0.75000000  1
  Cu  Cu0  1  0.66665700  0.33332600  0.75000000  1
  Cu  Cu1  1  0.33334300  0.66667400  0.25000000  1
  N  N0  1  0.88991200  0.57955700  0.75000000  1
  N  N1  1  0.68965400  0.11009000  0.75000000  1
  N  N2  1  0.42044400  0.31038800  0.75000000  1
  N  N3  1  0.11008800  0.42044300  0.25000000  1
  N  N4  1  0.31034600  0.88991000  0.25000000  1
  N  N5  1  0.57955600  0.68961200  0.25000000  1
loop_
_geom_bond_atom_site_label_1
_geom_bond_atom_site_label_2
_geom_bond_distance
_geom_bond_site_symmetry_2
Ba0 N4 2.728426 1_655
Ba0 N3 2.802154 1_655
Ba0 N0 2.881486 1_555
Ba0 N0 2.881486 1_554
Ba0 N5 3.050823 1_555
Ba1 N5 2.728319 1_545
Ba1 N4 2.802001 1_545
Ba1 N1 2.881455 1_554
Ba1 N1 2.881455 1_555
Ba1 N3 3.051484 1_655
Ba2 N3 2.728852 1_555
Ba2 N5 2.801757 1_555
Ba2 N2 2.881391 1_555
Ba2 N2 2.881391 1_554
Ba2 N4 3.050665 1_545
Ba3 N1 2.728426 1_455
Ba3 N0 2.802154 1_455
Ba3 N3 2.881486 1_556
Ba3 N3 2.881486 1_555
Ba3 N2 3.050823 1_555
Ba4 N2 2.728319 1_565
Ba4 N1 2.802001 1_565
Ba4 N4 2.881455 1_555
Ba4 N4 2.881455 1_556
Ba4 N0 3.051484 1_455
Ba5 N0 2.728852 1_555
Ba5 N2 2.801757 1_555
Ba5 N5 2.881391 1_556
Ba5 N5 2.881391 1_555
Ba5 N1 3.050665 1_565
Cu0 N1 1.906522 1_555
Cu0 N0 1.906724 1_555
Cu0 N2 1.906736 1_555
Cu1 N4 1.906522 1_555
Cu1 N3 1.906724 1_555
Cu1 N5 1.906736 1_555
