# generated using pymatgen
data_Sr4CaYCu6(PbO4)4
_symmetry_space_group_name_H-M   'P 1'
_cell_length_a   5.40918200
_cell_length_b   5.43484807
_cell_length_c   15.91871111
_cell_angle_alpha   89.83830574
_cell_angle_beta   89.87802056
_cell_angle_gamma   89.17890622
_symmetry_Int_Tables_number   1
_chemical_formula_structural   Sr4CaYCu6(PbO4)4
_chemical_formula_sum   'Sr4 Ca1 Y1 Cu6 Pb4 O16'
_cell_volume   467.92864237
_cell_formula_units_Z   1
loop_
 _symmetry_equiv_pos_site_id
 _symmetry_equiv_pos_as_xyz
  1  'x, y, z'
loop_
 _atom_site_type_symbol
 _atom_site_label
 _atom_site_symmetry_multiplicity
 _atom_site_fract_x
 _atom_site_fract_y
 _atom_site_fract_z
 _atom_site_occupancy
  Sr  Sr0  1  0.50128200  0.50147100  0.78024600  1
  Sr  Sr1  1  0.49871800  0.49852900  0.21975400  1
  Sr  Sr2  1  0.00077300  0.00133800  0.78258300  1
  Sr  Sr3  1  0.99922700  0.99866200  0.21741700  1
  Ca  Ca0  1  0.00000000  0.00000000  0.00000000  1
  Y  Y0  1  0.50000000  0.50000000  0.00000000  1
  Cu  Cu0  1  0.50000000  0.50000000  0.50000000  1
  Cu  Cu1  1  0.50015900  0.99969500  0.89462300  1
  Cu  Cu2  1  0.49984100  0.00030500  0.10537700  1
  Cu  Cu3  1  0.00000000  0.00000000  0.50000000  1
  Cu  Cu4  1  0.99988800  0.50060100  0.89483700  1
  Cu  Cu5  1  0.00011200  0.49939900  0.10516300  1
  Pb  Pb0  1  0.49343600  0.01283300  0.61209100  1
  Pb  Pb1  1  0.50656400  0.98716700  0.38790900  1
  Pb  Pb2  1  0.01158000  0.49688800  0.61216600  1
  Pb  Pb3  1  0.98842000  0.50311200  0.38783400  1
  O  O0  1  0.74578500  0.25427700  0.90368200  1
  O  O1  1  0.25421500  0.74572300  0.09631800  1
  O  O2  1  0.74487400  0.74511600  0.90701300  1
  O  O3  1  0.25512600  0.25488400  0.09298700  1
  O  O4  1  0.50539900  0.99326000  0.74881100  1
  O  O5  1  0.49460100  0.00674000  0.25118900  1
  O  O6  1  0.99624100  0.50910200  0.74870000  1
  O  O7  1  0.00375900  0.49089800  0.25130000  1
  O  O8  1  0.25564500  0.25554300  0.90521100  1
  O  O9  1  0.74435500  0.74445700  0.09478900  1
  O  O10  1  0.04603000  0.05928200  0.61399200  1
  O  O11  1  0.95397000  0.94071800  0.38600800  1
  O  O12  1  0.25426800  0.74589400  0.90411300  1
  O  O13  1  0.74573200  0.25410600  0.09588700  1
  O  O14  1  0.46794400  0.45128000  0.61497100  1
  O  O15  1  0.53205600  0.54872000  0.38502900  1
loop_
_geom_bond_atom_site_label_1
_geom_bond_atom_site_label_2
_geom_bond_distance
_geom_bond_site_symmetry_2
Ca0 O13 2.465222 1_455
Ca0 O12 2.465222 1_544
Ca0 O3 2.467701 1_555
Ca0 O2 2.467701 1_444
Ca0 O1 2.468628 1_545
Ca0 O0 2.468628 1_454
Ca0 O8 2.480374 1_554
Ca0 O9 2.480374 1_445
Cu0 O14 1.856611 1_555
Cu0 O15 1.856611 1_555
Cu1 O2 1.911159 1_555
Cu1 O8 1.912818 1_565
Cu1 O12 1.935231 1_555
Cu1 O0 1.937805 1_565
Cu1 O4 2.321608 1_555
Cu2 O3 1.911159 1_555
Cu2 O9 1.912818 1_545
Cu2 O13 1.935231 1_555
Cu2 O1 1.937805 1_545
Cu2 O5 2.321608 1_555
Cu3 O10 1.861751 1_555
Cu3 O11 1.861751 1_445
Cu4 O2 1.911575 1_555
Cu4 O8 1.913615 1_655
Cu4 O12 1.935700 1_655
Cu4 O0 1.937035 1_555
Cu4 O6 2.326761 1_555
Cu5 O3 1.911575 1_555
Cu5 O9 1.913615 1_455
Cu5 O13 1.935700 1_455
Cu5 O1 1.937035 1_555
Cu5 O7 2.326761 1_555
O0 Y0 2.419484 1_556
O0 Sr0 2.712987 1_555
O0 Sr2 2.730868 1_655
O1 Y0 2.419484 1_555
O1 Sr1 2.712987 1_555
O1 Sr3 2.730868 1_455
O2 Y0 2.398195 1_556
O2 Sr0 2.763728 1_555
O2 Sr2 2.794027 1_665
O3 Y0 2.398195 1_555
O3 Sr1 2.763728 1_555
O3 Sr3 2.794027 1_445
O4 Pb0 2.179758 1_565
O4 Sr0 2.718246 1_555
O4 Sr2 2.735082 1_665
O4 Sr2 2.780682 1_565
O4 Sr0 2.808168 1_565
O5 Pb1 2.179758 1_545
O5 Sr1 2.718246 1_555
O5 Sr3 2.735082 1_445
O5 Sr3 2.780682 1_545
O5 Sr1 2.808168 1_545
O6 Pb2 2.176016 1_655
O6 Sr0 2.723839 1_555
O6 Sr2 2.731016 1_665
O6 Sr0 2.778385 1_655
O6 Sr2 2.810115 1_655
O7 Pb3 2.176016 1_455
O7 Sr1 2.723839 1_555
O7 Sr3 2.731016 1_445
O7 Sr1 2.778385 1_455
O7 Sr3 2.810115 1_455
O8 Y0 2.420572 1_556
O8 Sr0 2.744770 1_555
O8 Sr2 2.775118 1_555
O9 Y0 2.420572 1_555
O9 Sr1 2.744770 1_555
O9 Sr3 2.775118 1_555
O10 Pb2 2.383048 1_555
O10 Pb0 2.429764 1_555
O10 Sr2 2.712244 1_555
O11 Pb3 2.383048 1_555
O11 Pb1 2.429764 1_555
O11 Sr3 2.712244 1_555
O12 Y0 2.414302 1_556
O12 Sr0 2.718572 1_555
O12 Sr2 2.737120 1_565
O13 Y0 2.414302 1_555
O13 Sr1 2.718572 1_555
O13 Sr3 2.737120 1_545
O14 Pb0 2.385470 1_555
O14 Pb2 2.477917 1_555
O14 Sr0 2.652619 1_555
O15 Pb1 2.385470 1_555
O15 Pb3 2.477917 1_555
O15 Sr1 2.652619 1_555
