# generated using pymatgen
data_Sr3TaAs3O
_symmetry_space_group_name_H-M   'P 1'
_cell_length_a   6.45376400
_cell_length_b   10.78407000
_cell_length_c   13.08003700
_cell_angle_alpha   90.00000000
_cell_angle_beta   90.00000000
_cell_angle_gamma   90.00000000
_symmetry_Int_Tables_number   1
_chemical_formula_structural   Sr3TaAs3O
_chemical_formula_sum   'Sr12 Ta4 As12 O4'
_cell_volume   910.34235815
_cell_formula_units_Z   4
loop_
 _symmetry_equiv_pos_site_id
 _symmetry_equiv_pos_as_xyz
  1  'x, y, z'
loop_
 _atom_site_type_symbol
 _atom_site_label
 _atom_site_symmetry_multiplicity
 _atom_site_fract_x
 _atom_site_fract_y
 _atom_site_fract_z
 _atom_site_occupancy
  Sr  Sr0  1  0.24565200  0.04294600  0.62809900  1
  Sr  Sr1  1  0.74565200  0.45705400  0.87190100  1
  Sr  Sr2  1  0.75434800  0.54294600  0.37190100  1
  Sr  Sr3  1  0.25434800  0.95705400  0.12809900  1
  Sr  Sr4  1  0.24565200  0.45705400  0.62809900  1
  Sr  Sr5  1  0.75434800  0.95705400  0.37190100  1
  Sr  Sr6  1  0.76778400  0.25000000  0.12870900  1
  Sr  Sr7  1  0.26778400  0.25000000  0.37129100  1
  Sr  Sr8  1  0.23221600  0.75000000  0.87129100  1
  Sr  Sr9  1  0.73221600  0.75000000  0.62870900  1
  Sr  Sr10  1  0.25434800  0.54294600  0.12809900  1
  Sr  Sr11  1  0.74565200  0.04294600  0.87190100  1
  Ta  Ta0  1  0.34187600  0.25000000  0.95164900  1
  Ta  Ta1  1  0.84187600  0.25000000  0.54835100  1
  Ta  Ta2  1  0.65812400  0.75000000  0.04835100  1
  Ta  Ta3  1  0.15812400  0.75000000  0.45164900  1
  As  As0  1  0.23633800  0.75000000  0.63626200  1
  As  As1  1  0.73633800  0.75000000  0.86373800  1
  As  As2  1  0.76366200  0.25000000  0.36373800  1
  As  As3  1  0.26366200  0.25000000  0.13626200  1
  As  As4  1  0.23683400  0.45153800  0.87626800  1
  As  As5  1  0.73683400  0.04846200  0.62373200  1
  As  As6  1  0.23683400  0.04846200  0.87626800  1
  As  As7  1  0.73683400  0.45153800  0.62373200  1
  As  As8  1  0.76316600  0.54846200  0.12373200  1
  As  As9  1  0.26316600  0.54846200  0.37626800  1
  As  As10  1  0.26316600  0.95153800  0.37626800  1
  As  As11  1  0.76316600  0.95153800  0.12373200  1
  O  O0  1  0.63461000  0.25000000  0.94546800  1
  O  O1  1  0.13461000  0.25000000  0.55453200  1
  O  O2  1  0.36539000  0.75000000  0.05453200  1
  O  O3  1  0.86539000  0.75000000  0.44546800  1
loop_
_geom_bond_atom_site_label_1
_geom_bond_atom_site_label_2
_geom_bond_distance
_geom_bond_site_symmetry_2
As0 Ta3 2.466939 1_555
As0 Sr8 3.074303 1_555
As0 Sr0 3.161525 1_565
As0 Sr4 3.161525 1_555
As0 Sr9 3.201804 1_555
As0 Sr9 3.254984 1_455
As1 Ta2 2.466939 1_556
As1 Sr9 3.074303 1_555
As1 Sr11 3.161525 1_565
As1 Sr1 3.161525 1_555
As1 Sr8 3.201804 1_655
As1 Sr8 3.254984 1_555
As2 Ta1 2.466939 1_555
As2 Sr6 3.074303 1_555
As2 Sr2 3.161525 1_555
As2 Sr5 3.161525 1_545
As2 Sr7 3.201804 1_555
As2 Sr7 3.254984 1_655
As3 Ta0 2.466939 1_554
As3 Sr7 3.074303 1_555
As3 Sr3 3.161525 1_545
As3 Sr10 3.161525 1_555
As3 Sr6 3.201804 1_455
As3 Sr6 3.254984 1_555
As4 Ta0 2.481009 1_555
As4 Sr1 3.171045 1_455
As4 Sr8 3.219431 1_555
As4 Sr4 3.247103 1_555
As4 Sr1 3.284827 1_555
As4 Sr10 3.440152 1_556
As5 Ta1 2.481009 1_555
As5 Sr0 3.171045 1_555
As5 Sr9 3.219431 1_545
As5 Sr11 3.247103 1_555
As5 Sr0 3.284827 1_655
As5 Sr5 3.440152 1_545
As6 Ta0 2.481009 1_555
As6 Sr11 3.171045 1_455
As6 Sr8 3.219431 1_545
As6 Sr0 3.247103 1_555
As6 Sr11 3.284827 1_555
As6 Sr3 3.440152 1_546
As7 Ta1 2.481009 1_555
As7 Sr4 3.171045 1_555
As7 Sr9 3.219431 1_555
As7 Sr1 3.247103 1_555
As7 Sr4 3.284827 1_655
As7 Sr2 3.440152 1_555
As8 Ta2 2.481009 1_555
As8 Sr10 3.171045 1_655
As8 Sr6 3.219431 1_555
As8 Sr2 3.247103 1_555
As8 Sr10 3.284827 1_555
As8 Sr1 3.440152 1_554
As9 Ta3 2.481009 1_555
As9 Sr2 3.171045 1_555
As9 Sr7 3.219431 1_555
As9 Sr10 3.247103 1_555
As9 Sr2 3.284827 1_455
As9 Sr4 3.440152 1_555
As10 Ta3 2.481009 1_555
As10 Sr5 3.171045 1_555
As10 Sr7 3.219431 1_565
As10 Sr3 3.247103 1_555
As10 Sr5 3.284827 1_455
As10 Sr0 3.440152 1_565
As11 Ta2 2.481009 1_555
As11 Sr3 3.171045 1_655
As11 Sr6 3.219431 1_565
As11 Sr5 3.247103 1_555
As11 Sr3 3.284827 1_555
As11 Sr11 3.440152 1_564
O0 Ta0 1.890965 1_555
O0 Sr1 2.534815 1_555
O0 Sr11 2.534815 1_555
O0 Sr6 2.546240 1_556
O1 Ta1 1.890965 1_455
O1 Sr0 2.534815 1_555
O1 Sr4 2.534815 1_555
O1 Sr7 2.546240 1_555
O2 Ta2 1.890965 1_555
O2 Sr3 2.534815 1_555
O2 Sr10 2.534815 1_555
O2 Sr8 2.546240 1_554
O3 Ta3 1.890965 1_655
O3 Sr2 2.534815 1_555
O3 Sr5 2.534815 1_555
O3 Sr9 2.546240 1_555
