# generated using pymatgen
data_GaSb
_symmetry_space_group_name_H-M   'P 1'
_cell_length_a   13.46586277
_cell_length_b   14.27182898
_cell_length_c   14.22523293
_cell_angle_alpha   89.34797498
_cell_angle_beta   92.82219116
_cell_angle_gamma   94.46264511
_symmetry_Int_Tables_number   1
_chemical_formula_structural   GaSb
_chemical_formula_sum   'Ga50 Sb50'
_cell_volume   2722.16850886
_cell_formula_units_Z   50
loop_
 _symmetry_equiv_pos_site_id
 _symmetry_equiv_pos_as_xyz
  1  'x, y, z'
loop_
 _atom_site_type_symbol
 _atom_site_label
 _atom_site_symmetry_multiplicity
 _atom_site_fract_x
 _atom_site_fract_y
 _atom_site_fract_z
 _atom_site_occupancy
  Ga  Ga0  1  0.00346328  0.21901262  0.15253735  1
  Ga  Ga1  1  0.55564173  0.40995636  0.08802098  1
  Ga  Ga2  1  0.47719452  0.09064465  0.09855621  1
  Ga  Ga3  1  0.78520154  0.81553856  0.89995284  1
  Ga  Ga4  1  0.16048920  0.31349958  0.20659399  1
  Ga  Ga5  1  0.98739167  0.52514944  0.60530632  1
  Ga  Ga6  1  0.85125383  0.64067003  0.93529547  1
  Ga  Ga7  1  0.88669448  0.66841232  0.54923425  1
  Ga  Ga8  1  0.81740122  0.31909659  0.79248564  1
  Ga  Ga9  1  0.68945328  0.24594380  0.47510999  1
  Ga  Ga10  1  0.35619391  0.56445304  0.97417360  1
  Ga  Ga11  1  0.34049054  0.05046961  0.70183605  1
  Ga  Ga12  1  0.17921028  0.54968679  0.55108959  1
  Ga  Ga13  1  0.32376183  0.93473915  0.10154394  1
  Ga  Ga14  1  0.97284534  0.63722168  0.32091081  1
  Ga  Ga15  1  0.29069474  0.76027070  0.93819752  1
  Ga  Ga16  1  0.61638838  0.15801331  0.62474461  1
  Ga  Ga17  1  0.33115134  0.17323687  0.42585147  1
  Ga  Ga18  1  0.36596834  0.89614624  0.79706396  1
  Ga  Ga19  1  0.00143244  0.92400024  0.74496121  1
  Ga  Ga20  1  0.18563453  0.63877031  0.05971002  1
  Ga  Ga21  1  0.05207592  0.79621539  0.61999150  1
  Ga  Ga22  1  0.27547342  0.43943312  0.84465050  1
  Ga  Ga23  1  0.19086492  0.29551434  0.00924232  1
  Ga  Ga24  1  0.20488658  0.29086871  0.37849785  1
  Ga  Ga25  1  0.54727034  0.97229333  0.60911924  1
  Ga  Ga26  1  0.75091367  0.40084127  0.08854048  1
  Ga  Ga27  1  0.14868056  0.87895208  0.29587603  1
  Ga  Ga28  1  0.73763076  0.33178865  0.27793546  1
  Ga  Ga29  1  0.11453877  0.36669384  0.56726202  1
  Ga  Ga30  1  0.08199019  0.54607068  0.76511873  1
  Ga  Ga31  1  0.29018275  0.54342969  0.31685177  1
  Ga  Ga32  1  0.68917183  0.94222840  0.98133661  1
  Ga  Ga33  1  0.28517437  0.07767009  0.25086142  1
  Ga  Ga34  1  0.74722766  0.11068494  0.93338968  1
  Ga  Ga35  1  0.78055111  0.17928742  0.18013693  1
  Ga  Ga36  1  0.27466690  0.77164815  0.17151837  1
  Ga  Ga37  1  0.97770655  0.85598191  0.93373888  1
  Ga  Ga38  1  0.24063223  0.46287718  0.10584527  1
  Ga  Ga39  1  0.86790614  0.33098168  0.42458847  1
  Ga  Ga40  1  0.98257193  0.02221513  0.49071843  1
  Ga  Ga41  1  0.85597986  0.51307677  0.40735722  1
  Ga  Ga42  1  0.25847403  0.08720235  0.01326640  1
  Ga  Ga43  1  0.19396821  0.76016324  0.75957575  1
  Ga  Ga44  1  0.07034728  0.14084391  0.97305423  1
  Ga  Ga45  1  0.67130839  0.50966381  0.55280213  1
  Ga  Ga46  1  0.51190232  0.06889913  0.43515655  1
  Ga  Ga47  1  0.33834642  0.23397349  0.14894490  1
  Ga  Ga48  1  0.69002401  0.01330119  0.75539452  1
  Ga  Ga49  1  0.25245067  0.82722250  0.57926596  1
  Sb  Sb0  1  0.09038854  0.03713860  0.15615081  1
  Sb  Sb1  1  0.61602071  0.80382514  0.24375873  1
  Sb  Sb2  1  0.27993423  0.59535187  0.71872577  1
  Sb  Sb3  1  0.65956547  0.00217362  0.16813360  1
  Sb  Sb4  1  0.16552106  0.70854801  0.44195277  1
  Sb  Sb5  1  0.63098498  0.49423583  0.30489523  1
  Sb  Sb6  1  0.17169649  0.93326670  0.89210197  1
  Sb  Sb7  1  0.41085721  0.14520961  0.88680698  1
  Sb  Sb8  1  0.05444834  0.67633821  0.90472324  1
  Sb  Sb9  1  0.03009518  0.48167007  0.02406049  1
  Sb  Sb10  1  0.72836422  0.06688645  0.39283330  1
  Sb  Sb11  1  0.48171484  0.91691588  0.96766123  1
  Sb  Sb12  1  0.97162050  0.82556884  0.42801388  1
  Sb  Sb13  1  0.67417930  0.76345004  0.73970258  1
  Sb  Sb14  1  0.45702493  0.94855167  0.27406337  1
  Sb  Sb15  1  0.31419275  0.43541036  0.47122987  1
  Sb  Sb16  1  0.70717266  0.66406186  0.41766917  1
  Sb  Sb17  1  0.43380916  0.52773050  0.18212751  1
  Sb  Sb18  1  0.74716768  0.47628703  0.88595952  1
  Sb  Sb19  1  0.02520373  0.22396071  0.44923602  1
  Sb  Sb20  1  0.07330730  0.36951856  0.84970009  1
  Sb  Sb21  1  0.50890839  0.65296331  0.50137849  1
  Sb  Sb22  1  0.63670459  0.21303657  0.80889701  1
  Sb  Sb23  1  0.27290833  0.31886412  0.68980313  1
  Sb  Sb24  1  0.39758448  0.32700110  0.97279943  1
  Sb  Sb25  1  0.74336012  0.73841368  0.08919778  1
  Sb  Sb26  1  0.46876252  0.73588693  0.09387041  1
  Sb  Sb27  1  0.82167488  0.07512621  0.59604584  1
  Sb  Sb28  1  0.19437928  0.15310343  0.79304491  1
  Sb  Sb29  1  0.92185281  0.07065054  0.84062882  1
  Sb  Sb30  1  0.62282154  0.56016409  0.73662397  1
  Sb  Sb31  1  0.64683643  0.88270550  0.46983965  1
  Sb  Sb32  1  0.35786833  0.72696163  0.35135361  1
  Sb  Sb33  1  0.86207157  0.57611006  0.13339957  1
  Sb  Sb34  1  0.15485180  0.99510592  0.60241964  1
  Sb  Sb35  1  0.93213874  0.08139268  0.29206998  1
  Sb  Sb36  1  0.29509775  0.97063351  0.42975572  1
  Sb  Sb37  1  0.48941229  0.22810606  0.30083646  1
  Sb  Sb38  1  0.96289399  0.21813867  0.70136722  1
  Sb  Sb39  1  0.44359479  0.79690261  0.64240427  1
  Sb  Sb40  1  0.10011053  0.49504171  0.25161511  1
  Sb  Sb41  1  0.48686932  0.68003192  0.83672152  1
  Sb  Sb42  1  0.92025984  0.89479412  0.11543444  1
  Sb  Sb43  1  0.53511991  0.37599361  0.44966710  1
  Sb  Sb44  1  0.04020290  0.73930370  0.16799871  1
  Sb  Sb45  1  0.86651139  0.26444672  0.01219368  1
  Sb  Sb46  1  0.82065193  0.84563125  0.59926939  1
  Sb  Sb47  1  0.59521935  0.59535825  0.99870774  1
  Sb  Sb48  1  0.41512286  0.20393540  0.60371103  1
  Sb  Sb49  1  0.82467785  0.39569789  0.60473179  1
loop_
_geom_bond_atom_site_label_1
_geom_bond_atom_site_label_2
_geom_bond_distance
_geom_bond_site_symmetry_2
Ga0 Ga4 2.510098 1_555
Ga0 Sb45 2.757030 1_455
Ga0 Sb35 2.919813 1_455
Ga0 Sb0 2.928165 1_555
Ga0 Ga44 3.003692 1_554
Ga0 Ga35 3.054825 1_455
Ga1 Ga26 2.642456 1_555
Ga1 Sb24 2.815434 1_554
Ga1 Sb17 2.829393 1_555
Ga1 Sb47 2.944548 1_554
Ga2 Sb3 2.969763 1_555
Ga2 Ga47 2.992400 1_555
Ga2 Sb11 3.123792 1_544
Ga2 Sb7 3.204301 1_554
Ga2 Sb14 3.207062 1_545
Ga3 Ga32 2.615447 1_555
Ga3 Ga37 2.633377 1_555
Ga3 Sb13 2.741218 1_555
Ga3 Ga6 2.746857 1_555
Ga3 Sb25 2.959998 1_556
Ga4 Sb40 2.863744 1_555
Ga4 Ga47 2.886926 1_555
Ga5 Ga7 2.634995 1_555
Ga5 Sb49 2.753694 1_555
Ga6 Sb18 2.718434 1_555
Ga6 Sb8 2.798283 1_655
Ga6 Sb33 2.955182 1_556
Ga6 Sb25 3.089981 1_556
Ga7 Sb46 2.854449 1_555
Ga7 Sb16 2.980637 1_555
Ga7 Sb12 3.003164 1_555
Ga8 Sb22 2.782278 1_555
Ga8 Sb18 2.866574 1_555
Ga8 Sb49 2.877642 1_555
Ga8 Sb38 2.885554 1_555
Ga8 Sb45 3.261139 1_556
Ga9 Sb43 2.899287 1_555
Ga9 Sb10 2.917479 1_555
Ga9 Sb49 3.230639 1_555
Ga10 Ga22 2.708447 1_555
Ga10 Ga38 2.811697 1_556
Ga10 Ga20 2.926453 1_556
Ga10 Ga15 3.025993 1_555
Ga10 Sb41 3.074764 1_555
Ga10 Sb17 3.140610 1_556
Ga10 Sb47 3.216867 1_555
Ga10 Sb26 3.232137 1_556
Ga11 Ga18 2.609133 1_545
Ga11 Sb48 2.735244 1_555
Ga11 Sb34 2.871098 1_545
Ga11 Sb28 2.905721 1_555
Ga11 Sb7 3.047234 1_555
Ga12 Ga29 2.698912 1_555
Ga12 Ga5 2.727383 1_455
Ga12 Sb2 2.744143 1_555
Ga12 Sb4 2.746152 1_555
Ga12 Sb15 2.821559 1_555
Ga13 Ga36 2.572595 1_555
Ga13 Ga42 2.685391 1_565
Ga13 Ga2 2.917628 1_565
Ga13 Sb11 2.951273 1_554
Ga13 Sb14 2.967177 1_555
Ga13 Ga33 3.052061 1_565
Ga14 Ga41 2.614382 1_555
Ga14 Sb44 2.755595 1_655
Ga14 Sb40 2.962962 1_655
Ga14 Sb33 3.091829 1_555
Ga14 Sb12 3.106408 1_555
Ga14 Sb4 3.149862 1_655
Ga15 Ga20 2.790522 1_556
Ga15 Ga43 2.797634 1_555
Ga15 Ga18 2.936748 1_555
Ga15 Sb6 3.093359 1_555
Ga15 Sb26 3.219330 1_556
Ga15 Sb11 3.287914 1_555
Ga15 Sb8 3.324583 1_555
Ga15 Sb41 3.355203 1_555
Ga16 Ga9 2.650858 1_555
Ga16 Sb22 2.738008 1_555
Ga16 Ga25 2.747779 1_545
Ga16 Sb48 2.838384 1_555
Ga16 Ga48 2.958491 1_555
Ga16 Sb27 3.136675 1_555
Ga17 Ga24 2.543379 1_555
Ga17 Sb48 2.745602 1_555
Ga17 Ga33 2.869522 1_555
Ga17 Sb36 2.894861 1_545
Ga17 Sb37 2.898153 1_555
Ga17 Ga46 2.947358 1_555
Ga18 Sb11 2.824620 1_555
Ga18 Sb39 2.909797 1_555
Ga18 Ga43 2.935590 1_555
Ga18 Sb6 3.087443 1_555
Ga19 Ga21 2.708883 1_555
Ga19 Sb29 2.817508 1_465
Ga19 Ga37 2.869272 1_455
Ga19 Sb6 3.023551 1_555
Ga19 Sb34 3.073892 1_555
Ga19 Sb46 3.256469 1_455
Ga20 Ga36 2.662795 1_555
Ga20 Ga38 2.735842 1_555
Ga20 Sb8 2.829467 1_554
Ga20 Sb9 2.976832 1_555
Ga20 Sb44 3.008552 1_555
Ga21 Ga43 2.759410 1_555
Ga21 Ga49 2.788211 1_555
Ga21 Ga7 2.913504 1_455
Ga21 Sb12 2.925826 1_455
Ga21 Sb34 3.072733 1_555
Ga21 Sb46 3.246934 1_455
Ga21 Sb4 3.326249 1_555
Ga22 Sb23 2.807798 1_555
Ga22 Sb20 2.829634 1_555
Ga22 Sb2 2.839575 1_555
Ga22 Sb24 2.941188 1_555
Ga23 Ga44 2.675366 1_554
Ga23 Ga38 2.788860 1_555
Ga23 Sb24 2.856846 1_554
Ga23 Ga4 2.874084 1_555
Ga23 Ga47 2.916832 1_555
Ga23 Sb20 2.936671 1_554
Ga24 Ga4 2.511911 1_555
Ga24 Sb15 2.749597 1_555
Ga24 Sb19 2.763537 1_555
Ga25 Ga48 2.797544 1_565
Ga25 Sb39 2.816606 1_555
Ga25 Sb31 2.818486 1_555
Ga25 Ga46 2.856601 1_565
Ga26 Sb45 2.842176 1_555
Ga26 Ga28 2.867308 1_555
Ga26 Sb33 2.874782 1_555
Ga26 Sb18 3.064310 1_554
Ga27 Sb36 2.917517 1_555
Ga27 Sb44 2.963586 1_555
Ga27 Ga36 3.018997 1_555
Ga27 Sb0 3.111851 1_565
Ga27 Sb12 3.150313 1_455
Ga27 Sb4 3.195047 1_555
Ga28 Ga39 2.659310 1_555
Ga28 Ga35 2.711156 1_555
Ga28 Sb5 2.859554 1_555
Ga29 Sb23 2.808189 1_555
Ga29 Sb19 2.813048 1_555
Ga29 Ga5 3.010005 1_455
Ga30 Ga5 2.559520 1_455
Ga30 Sb20 2.776570 1_555
Ga30 Sb8 2.793151 1_555
Ga30 Sb2 2.811752 1_555
Ga31 Sb15 2.689695 1_555
Ga31 Sb40 2.719320 1_555
Ga31 Sb32 2.747039 1_555
Ga31 Sb17 2.811740 1_555
Ga32 Ga34 2.564988 1_565
Ga32 Sb11 2.786308 1_555
Ga32 Sb3 2.856726 1_566
Ga33 Ga47 2.714919 1_555
Ga33 Sb0 2.909180 1_555
Ga33 Sb36 2.955896 1_545
Ga33 Sb14 3.071543 1_545
Ga34 Sb22 2.739506 1_555
Ga34 Sb45 2.825336 1_556
Ga34 Sb29 2.851122 1_555
Ga34 Ga48 2.942378 1_555
Ga35 Sb3 2.900759 1_555
Ga35 Sb45 2.917498 1_555
Ga35 Sb35 2.954180 1_555
Ga36 Sb32 2.828106 1_555
Ga36 Sb26 2.969257 1_555
Ga36 Sb44 3.153100 1_555
Ga37 Sb42 2.807467 1_556
Ga37 Sb6 2.842592 1_655
Ga37 Sb8 2.879229 1_655
Ga38 Ga4 2.736484 1_555
Ga38 Sb17 2.858522 1_555
Ga38 Sb40 2.938435 1_555
Ga38 Sb9 3.041294 1_555
Ga39 Ga41 2.624189 1_555
Ga39 Sb19 2.713029 1_655
Ga39 Ga9 2.731358 1_555
Ga39 Sb49 2.836048 1_555
Ga40 Sb34 2.796273 1_645
Ga40 Sb27 2.847703 1_555
Ga40 Sb12 2.945074 1_545
Ga40 Sb19 2.950506 1_655
Ga40 Sb35 3.000956 1_555
Ga41 Ga7 3.005997 1_555
Ga41 Sb16 3.064015 1_555
Ga41 Sb49 3.281278 1_555
Ga41 Sb5 3.289896 1_555
Ga42 Ga44 2.734958 1_554
Ga42 Sb7 2.863091 1_554
Ga42 Sb6 2.941283 1_544
Ga42 Ga47 2.967603 1_555
Ga42 Sb0 3.151696 1_555
Ga43 Sb2 2.780551 1_555
Ga43 Ga49 2.853219 1_555
Ga43 Sb8 3.033178 1_555
Ga43 Sb6 3.166125 1_555
Ga44 Sb29 2.812637 1_455
Ga44 Sb0 2.992077 1_556
Ga44 Sb28 3.121331 1_555
Ga45 Sb49 2.793141 1_555
Ga45 Sb30 2.840379 1_555
Ga45 Sb43 2.899882 1_555
Ga45 Sb16 2.934871 1_555
Ga45 Sb21 3.162987 1_555
Ga46 Sb14 2.910814 1_545
Ga46 Sb37 2.976019 1_555
Ga46 Sb10 3.007634 1_555
Ga46 Sb36 3.136746 1_545
Ga47 Sb37 2.898840 1_555
Ga47 Sb24 2.938352 1_554
Ga48 Sb27 3.027602 1_555
Ga48 Sb22 3.105208 1_555
Ga48 Sb29 3.337323 1_555
Ga49 Sb39 2.748787 1_555
Ga49 Sb4 2.756070 1_555
Ga49 Sb34 2.850824 1_555
Ga49 Sb36 2.980029 1_555
Sb0 Sb42 2.980394 1_445
Sb0 Sb35 3.053073 1_455
Sb1 Sb26 2.958042 1_555
Sb1 Sb3 3.041224 1_565
Sb1 Sb25 3.051725 1_555
Sb1 Sb14 3.136155 1_555
Sb1 Sb16 3.402247 1_555
Sb1 Sb31 3.414796 1_555
Sb2 Sb41 3.332328 1_555
Sb8 Sb9 3.242510 1_556
Sb10 Sb27 3.094530 1_555
Sb10 Sb35 3.149466 1_555
Sb11 Sb26 3.127926 1_556
Sb12 Sb4 3.204085 1_655
Sb12 Sb46 3.277762 1_555
Sb13 Sb30 2.930049 1_555
Sb13 Sb46 3.038320 1_555
Sb13 Sb41 3.085794 1_555
Sb14 Sb3 3.216925 1_565
Sb14 Sb36 3.218290 1_555
Sb15 Sb43 3.186221 1_555
Sb16 Sb21 2.968812 1_555
Sb16 Sb5 3.006665 1_555
Sb16 Sb31 3.384477 1_555
Sb17 Sb5 3.170190 1_555
Sb17 Sb26 3.221639 1_555
Sb18 Sb30 2.941644 1_555
Sb18 Sb47 3.251633 1_555
Sb19 Sb35 3.184309 1_455
Sb20 Sb9 3.070819 1_556
Sb20 Sb38 3.259687 1_455
Sb21 Sb39 3.093028 1_555
Sb21 Sb32 3.108392 1_555
Sb22 Sb7 3.356157 1_555
Sb23 Sb28 2.925108 1_555
Sb23 Sb48 2.936513 1_555
Sb24 Sb7 2.902698 1_555
Sb25 Sb33 2.959798 1_555
Sb25 Sb47 2.996319 1_554
Sb25 Sb42 3.146250 1_555
Sb26 Sb47 3.094339 1_554
Sb27 Sb38 3.035096 1_555
Sb27 Sb46 3.274078 1_545
Sb28 Sb7 3.155009 1_555
Sb30 Sb41 3.017475 1_555
Sb31 Sb46 2.982340 1_555
Sb32 Sb4 2.941746 1_555
Sb33 Sb9 3.197490 1_655
Sb33 Sb44 3.234343 1_655
Sb34 Sb36 3.209413 1_555
Sb37 Sb43 3.014485 1_555
Sb39 Sb41 3.263466 1_555
Sb40 Sb9 3.330035 1_555
Sb41 Sb47 2.962904 1_555
Sb42 Sb44 2.914345 1_655
Sb43 Sb5 2.932419 1_555
