# generated using pymatgen
data_Ac3Ce
_symmetry_space_group_name_H-M   'P 1'
_cell_length_a   7.85140013
_cell_length_b   7.85140013
_cell_length_c   6.34916300
_cell_angle_alpha   90.00000000
_cell_angle_beta   90.00000000
_cell_angle_gamma   120.00000106
_symmetry_Int_Tables_number   1
_chemical_formula_structural   Ac3Ce
_chemical_formula_sum   'Ac6 Ce2'
_cell_volume   338.95443826
_cell_formula_units_Z   2
loop_
 _symmetry_equiv_pos_site_id
 _symmetry_equiv_pos_as_xyz
  1  'x, y, z'
loop_
 _atom_site_type_symbol
 _atom_site_label
 _atom_site_symmetry_multiplicity
 _atom_site_fract_x
 _atom_site_fract_y
 _atom_site_fract_z
 _atom_site_occupancy
  Ac  Ac0  1  0.16902200  0.33804300  0.25000000  1
  Ac  Ac1  1  0.66195700  0.83097800  0.25000000  1
  Ac  Ac2  1  0.16902200  0.83097800  0.25000000  1
  Ac  Ac3  1  0.83097800  0.66195700  0.75000000  1
  Ac  Ac4  1  0.33804300  0.16902200  0.75000000  1
  Ac  Ac5  1  0.83097800  0.16902200  0.75000000  1
  Ce  Ce0  1  0.33333300  0.66666700  0.75000000  1
  Ce  Ce1  1  0.66666700  0.33333300  0.25000000  1
loop_
_geom_bond_atom_site_label_1
_geom_bond_atom_site_label_2
_geom_bond_distance
_geom_bond_site_symmetry_2
Ac0 Ac1 3.870230 1_555
Ac0 Ac2 3.870230 1_555
Ac0 Ce0 3.882123 1_555
Ac0 Ce0 3.882123 1_554
Ac0 Ac4 3.919332 1_554
Ac0 Ac4 3.919332 1_555
Ac0 Ac5 3.919340 1_454
Ac0 Ac5 3.919340 1_455
Ac0 Ce1 3.925831 1_455
Ac0 Ce1 3.925831 1_555
Ac0 Ac1 3.981170 1_445
Ac0 Ac2 3.981170 1_545
Ac1 Ac2 3.870230 1_555
Ac1 Ce0 3.882123 1_555
Ac1 Ce0 3.882123 1_554
Ac1 Ac3 3.919332 1_554
Ac1 Ac3 3.919332 1_555
Ac1 Ac5 3.919340 1_565
Ac1 Ac5 3.919340 1_564
Ac1 Ce1 3.925831 1_565
Ac1 Ce1 3.925831 1_555
Ac1 Ac2 3.981170 1_655
Ac2 Ce0 3.882115 1_555
Ac2 Ce0 3.882115 1_554
Ac2 Ac3 3.919340 1_455
Ac2 Ac3 3.919340 1_454
Ac2 Ac4 3.919340 1_565
Ac2 Ac4 3.919340 1_564
Ac2 Ce1 3.925831 1_455
Ac2 Ce1 3.925831 1_565
Ac3 Ac4 3.870230 1_555
Ac3 Ac5 3.870230 1_555
Ac3 Ce1 3.882123 1_555
Ac3 Ce1 3.882123 1_556
Ac3 Ce0 3.925831 1_655
Ac3 Ce0 3.925831 1_555
Ac3 Ac4 3.981170 1_665
Ac3 Ac5 3.981170 1_565
Ac4 Ac5 3.870230 1_555
Ac4 Ce1 3.882123 1_555
Ac4 Ce1 3.882123 1_556
Ac4 Ce0 3.925831 1_545
Ac4 Ce0 3.925831 1_555
Ac4 Ac5 3.981170 1_455
Ac5 Ce1 3.882115 1_555
Ac5 Ce1 3.882115 1_556
Ac5 Ce0 3.925831 1_545
Ac5 Ce0 3.925831 1_655
