# generated using pymatgen
data_Th4P6PbO24
_symmetry_space_group_name_H-M   'P 1'
_cell_length_a   6.91175400
_cell_length_b   8.22878291
_cell_length_c   9.45045494
_cell_angle_alpha   100.83002049
_cell_angle_beta   111.14272300
_cell_angle_gamma   90.02691838
_symmetry_Int_Tables_number   1
_chemical_formula_structural   Th4P6PbO24
_chemical_formula_sum   'Th4 P6 Pb1 O24'
_cell_volume   491.01882966
_cell_formula_units_Z   1
loop_
 _symmetry_equiv_pos_site_id
 _symmetry_equiv_pos_as_xyz
  1  'x, y, z'
loop_
 _atom_site_type_symbol
 _atom_site_label
 _atom_site_symmetry_multiplicity
 _atom_site_fract_x
 _atom_site_fract_y
 _atom_site_fract_z
 _atom_site_occupancy
  Th  Th0  1  0.75482900  0.46619400  0.69368300  1
  Th  Th1  1  0.06712100  0.03504100  0.31080500  1
  Th  Th2  1  0.24890100  0.53898600  0.30209000  1
  Th  Th3  1  0.94048700  0.95783500  0.68720200  1
  P  P0  1  0.09436400  0.24859600  0.99954700  1
  P  P1  1  0.90216100  0.75048600  0.99724900  1
  P  P2  1  0.59836700  0.18561100  0.37555100  1
  P  P3  1  0.22292300  0.31528500  0.62427600  1
  P  P4  1  0.40096400  0.81451500  0.62533900  1
  P  P5  1  0.77679000  0.68362000  0.37444300  1
  Pb  Pb0  1  0.57177700  0.13136400  0.95252400  1
  O  O0  1  0.72815800  0.15614700  0.27093500  1
  O  O1  1  0.45671100  0.33671300  0.72401100  1
  O  O2  1  0.27030200  0.84966000  0.72766500  1
  O  O3  1  0.54332600  0.65728600  0.28245300  1
  O  O4  1  0.72783100  0.16771700  0.54493300  1
  O  O5  1  0.18017300  0.32995200  0.45349400  1
  O  O6  1  0.27724400  0.83167500  0.45505600  1
  O  O7  1  0.82258800  0.67085300  0.54780800  1
  O  O8  1  0.54943900  0.37296700  0.40330000  1
  O  O9  1  0.14841100  0.12696900  0.60017900  1
  O  O10  1  0.45266700  0.62920100  0.59982300  1
  O  O11  1  0.85410600  0.87177400  0.40132500  1
  O  O12  1  0.23885000  0.40752500  0.04939600  1
  O  O13  1  0.19787000  0.09275300  0.94707300  1
  O  O14  1  0.76393400  0.58792600  0.94734100  1
  O  O15  1  0.80659700  0.91399400  0.04654600  1
  O  O16  1  0.39566600  0.07417200  0.30563500  1
  O  O17  1  0.08981500  0.42665500  0.69493900  1
  O  O18  1  0.60004800  0.93390200  0.70264200  1
  O  O19  1  0.91084200  0.57209400  0.30549400  1
  O  O20  1  0.88951100  0.24506800  0.85557100  1
  O  O21  1  0.03412000  0.23994900  0.14186300  1
  O  O22  1  0.09627800  0.75244600  0.14711400  1
  O  O23  1  0.95412700  0.75796800  0.85129300  1
loop_
_geom_bond_atom_site_label_1
_geom_bond_atom_site_label_2
_geom_bond_distance
_geom_bond_site_symmetry_2
O0 P2 1.546267 1_555
O0 Th1 2.475972 1_655
O0 Pb0 2.772656 1_554
O1 P3 1.539201 1_555
O1 Th0 2.449865 1_555
O1 Pb0 2.878387 1_555
O2 P4 1.536076 1_555
O2 Th3 2.374058 1_455
O3 P5 1.524297 1_555
O3 Th2 2.337034 1_555
O4 P2 1.562099 1_555
O4 Th3 2.529876 1_545
O4 Th0 2.560519 1_555
O5 P3 1.560762 1_555
O5 Th1 2.515247 1_555
O5 Th2 2.578007 1_555
O6 P4 1.560022 1_555
O6 Th1 2.489868 1_565
O6 Th2 2.532934 1_555
O7 P5 1.576740 1_555
O7 Th3 2.455790 1_555
O7 Th0 2.508682 1_555
O8 P2 1.572432 1_555
O8 Th2 2.481240 1_555
O8 Th0 2.555820 1_555
O9 P3 1.581272 1_555
O9 Th3 2.441216 1_445
O9 Th1 2.545655 1_555
O10 P4 1.560670 1_555
O10 Th0 2.461931 1_555
O10 Th2 2.609021 1_555
O11 P5 1.581377 1_555
O11 Th1 2.458266 1_665
O11 Th3 2.504795 1_555
O12 P0 1.535390 1_554
O12 Th2 2.405700 1_555
O13 P0 1.555661 1_555
O13 Th3 2.500111 1_445
O13 Pb0 2.584477 1_555
O14 P1 1.536630 1_555
O14 Th0 2.396372 1_555
O15 P1 1.565529 1_554
O15 Pb0 2.486520 1_564
O15 Th1 2.508170 1_665
O16 P2 1.530896 1_555
O16 Th1 2.312567 1_555
O17 P3 1.531746 1_555
O17 Th0 2.334338 1_455
O18 P4 1.547938 1_555
O18 Th3 2.419685 1_555
O18 Pb0 2.673252 1_565
O19 P5 1.528681 1_555
O19 Th2 2.363556 1_655
O20 P0 1.565979 1_655
O20 Th0 2.557045 1_555
O20 Th3 2.689675 1_545
O20 Pb0 2.882634 1_555
O21 P0 1.557969 1_554
O21 Th1 2.488670 1_555
O21 Th2 2.743446 1_555
O22 P1 1.557844 1_454
O22 Th2 2.489407 1_555
O22 Th1 2.591278 1_565
O23 P1 1.557143 1_555
O23 Th3 2.443705 1_555
O23 Th0 2.655841 1_555
