# generated using pymatgen
data_Sr(B3O7)2
_symmetry_space_group_name_H-M   'P 1'
_cell_length_a   8.07613400
_cell_length_b   10.11736700
_cell_length_c   14.61549824
_cell_angle_alpha   61.87432069
_cell_angle_beta   90.00000000
_cell_angle_gamma   90.00000000
_symmetry_Int_Tables_number   1
_chemical_formula_structural   Sr(B3O7)2
_chemical_formula_sum   'Sr4 B24 O56'
_cell_volume   1053.20207733
_cell_formula_units_Z   4
loop_
 _symmetry_equiv_pos_site_id
 _symmetry_equiv_pos_as_xyz
  1  'x, y, z'
loop_
 _atom_site_type_symbol
 _atom_site_label
 _atom_site_symmetry_multiplicity
 _atom_site_fract_x
 _atom_site_fract_y
 _atom_site_fract_z
 _atom_site_occupancy
  Sr  Sr0  1  0.43815300  0.78292100  0.69307800  1
  Sr  Sr1  1  0.93815300  0.21707900  0.80692200  1
  Sr  Sr2  1  0.56184700  0.21707900  0.30692200  1
  Sr  Sr3  1  0.06184700  0.78292100  0.19307800  1
  B  B0  1  0.33474900  0.16811900  0.67877900  1
  B  B1  1  0.83474900  0.83188100  0.82122100  1
  B  B2  1  0.66525100  0.83188100  0.32122100  1
  B  B3  1  0.16525100  0.16811900  0.17877900  1
  B  B4  1  0.33816800  0.42601300  0.68279000  1
  B  B5  1  0.83816800  0.57398700  0.81721000  1
  B  B6  1  0.66183200  0.57398700  0.31721000  1
  B  B7  1  0.16183200  0.42601300  0.18279000  1
  B  B8  1  0.26158100  0.40544600  0.52774700  1
  B  B9  1  0.76158100  0.59455400  0.97225300  1
  B  B10  1  0.73841900  0.59455400  0.47225300  1
  B  B11  1  0.23841900  0.40544600  0.02774700  1
  B  B12  1  0.04116100  0.78954400  0.69281300  1
  B  B13  1  0.54116100  0.21045600  0.80718700  1
  B  B14  1  0.95883900  0.21045600  0.30718700  1
  B  B15  1  0.45883900  0.78954400  0.19281300  1
  B  B16  1  0.09974900  0.52008800  0.74795000  1
  B  B17  1  0.59974900  0.47991200  0.75205000  1
  B  B18  1  0.90025100  0.47991200  0.25205000  1
  B  B19  1  0.40025100  0.52008800  0.24795000  1
  B  B20  1  0.09677500  0.98161900  0.74958000  1
  B  B21  1  0.59677500  0.01838100  0.75042000  1
  B  B22  1  0.90322500  0.01838100  0.25042000  1
  B  B23  1  0.40322500  0.98161900  0.24958000  1
  O  O0  1  0.45183500  0.04955600  0.69394000  1
  O  O1  1  0.95183500  0.95044400  0.80606000  1
  O  O2  1  0.54816500  0.95044400  0.30606000  1
  O  O3  1  0.04816500  0.04955600  0.19394000  1
  O  O4  1  0.45436800  0.52448400  0.69711900  1
  O  O5  1  0.95436800  0.47551600  0.80288100  1
  O  O6  1  0.54563200  0.47551600  0.30288100  1
  O  O7  1  0.04563200  0.52448400  0.19711900  1
  O  O8  1  0.81158400  0.52139100  0.57676200  1
  O  O9  1  0.31158400  0.47860900  0.92323800  1
  O  O10  1  0.18841600  0.47860900  0.42323800  1
  O  O11  1  0.68841600  0.52139100  0.07676200  1
  O  O12  1  0.30087700  0.75712400  0.47450300  1
  O  O13  1  0.80087700  0.24287600  0.02549700  1
  O  O14  1  0.69912300  0.24287600  0.52549700  1
  O  O15  1  0.19912300  0.75712400  0.97450300  1
  O  O16  1  0.96363000  0.85370700  0.59264300  1
  O  O17  1  0.46363000  0.14629300  0.90735700  1
  O  O18  1  0.03637000  0.14629300  0.40735700  1
  O  O19  1  0.53637000  0.85370700  0.09264300  1
  O  O20  1  0.68618000  0.59323800  0.75671000  1
  O  O21  1  0.18618000  0.40676200  0.74329000  1
  O  O22  1  0.31382000  0.40676200  0.24329000  1
  O  O23  1  0.81382000  0.59323800  0.25671000  1
  O  O24  1  0.14874800  0.66694300  0.70135400  1
  O  O25  1  0.64874800  0.33305700  0.79864600  1
  O  O26  1  0.85125200  0.33305700  0.29864600  1
  O  O27  1  0.35125200  0.66694300  0.20135400  1
  O  O28  1  0.68216400  0.89516600  0.75963100  1
  O  O29  1  0.18216400  0.10483400  0.74036900  1
  O  O30  1  0.31783600  0.10483400  0.24036900  1
  O  O31  1  0.81783600  0.89516600  0.25963100  1
  O  O32  1  0.14823000  0.89777600  0.70352200  1
  O  O33  1  0.64823000  0.10222400  0.79647800  1
  O  O34  1  0.85177000  0.10222400  0.29647800  1
  O  O35  1  0.35177000  0.89777600  0.20352200  1
  O  O36  1  0.28993000  0.25755300  0.56836100  1
  O  O37  1  0.78993000  0.74244700  0.93163900  1
  O  O38  1  0.71007000  0.74244700  0.43163900  1
  O  O39  1  0.21007000  0.25755300  0.06836100  1
  O  O40  1  0.29663600  0.49184400  0.57233200  1
  O  O41  1  0.79663600  0.50815600  0.92766800  1
  O  O42  1  0.70336400  0.50815600  0.42766800  1
  O  O43  1  0.20336400  0.49184400  0.07233200  1
  O  O44  1  0.57777000  0.98927000  0.50785300  1
  O  O45  1  0.07777000  0.01073000  0.99214700  1
  O  O46  1  0.42223000  0.01073000  0.49214700  1
  O  O47  1  0.92223000  0.98927000  0.00785300  1
  O  O48  1  0.87186300  0.38315600  0.60381800  1
  O  O49  1  0.37186300  0.61684400  0.89618200  1
  O  O50  1  0.12813700  0.61684400  0.39618200  1
  O  O51  1  0.62813700  0.38315600  0.10381800  1
  O  O52  1  0.41425400  0.27238300  0.71660700  1
  O  O53  1  0.91425400  0.72761700  0.78339300  1
  O  O54  1  0.58574600  0.72761700  0.28339300  1
  O  O55  1  0.08574600  0.27238300  0.21660700  1
loop_
_geom_bond_atom_site_label_1
_geom_bond_atom_site_label_2
_geom_bond_distance
_geom_bond_site_symmetry_2
B0 O0 1.459990 1_555
B0 O36 1.475605 1_555
B0 O29 1.481694 1_555
B0 O52 1.542914 1_555
B1 O1 1.459990 1_555
B1 O37 1.475605 1_555
B1 O28 1.481694 1_555
B1 O53 1.542914 1_555
B2 O2 1.459990 1_555
B2 O38 1.475605 1_555
B2 O31 1.481694 1_555
B2 O54 1.542914 1_555
B3 O3 1.459990 1_555
B3 O39 1.475605 1_555
B3 O30 1.481694 1_555
B3 O55 1.542914 1_555
B4 O4 1.453892 1_555
B4 O40 1.465822 1_555
B4 O21 1.471099 1_555
B4 O52 1.521025 1_555
B5 O5 1.453892 1_555
B5 O41 1.465822 1_555
B5 O20 1.471099 1_555
B5 O53 1.521025 1_555
B6 O6 1.453892 1_555
B6 O42 1.465822 1_555
B6 O23 1.471099 1_555
B6 O54 1.521025 1_555
B7 O7 1.453892 1_555
B7 O43 1.465822 1_555
B7 O22 1.471099 1_555
B7 O55 1.521025 1_555
B8 O40 1.343835 1_555
B8 O36 1.343969 1_555
B8 O10 1.471119 1_555
B9 O41 1.343835 1_555
B9 O37 1.343969 1_555
B9 O11 1.471119 1_556
B10 O42 1.343835 1_555
B10 O38 1.343969 1_555
B10 O8 1.471119 1_555
B11 O43 1.343835 1_555
B11 O39 1.343969 1_555
B11 O9 1.471119 1_554
B12 O16 1.435558 1_455
B12 O32 1.460436 1_555
B12 O24 1.470766 1_555
B12 O53 1.553583 1_455
B13 O17 1.435558 1_555
B13 O33 1.460436 1_555
B13 O25 1.470766 1_555
B13 O52 1.553583 1_555
B14 O18 1.435558 1_655
B14 O34 1.460436 1_555
B14 O26 1.470766 1_555
B14 O55 1.553583 1_655
B15 O19 1.435558 1_555
B15 O35 1.460436 1_555
B15 O27 1.470766 1_555
B15 O54 1.553583 1_555
B16 O24 1.368926 1_555
B16 O21 1.371170 1_555
B16 O5 1.372999 1_455
B17 O25 1.368926 1_555
B17 O20 1.371170 1_555
B17 O4 1.372999 1_555
B18 O26 1.368926 1_555
B18 O23 1.371170 1_555
B18 O7 1.372999 1_655
B19 O27 1.368926 1_555
B19 O22 1.371170 1_555
B19 O6 1.372999 1_555
B20 O32 1.372503 1_555
B20 O29 1.374592 1_565
B20 O1 1.380445 1_455
B21 O33 1.372503 1_555
B21 O28 1.374592 1_545
B21 O0 1.380445 1_555
B22 O34 1.372503 1_555
B22 O31 1.374592 1_545
B22 O3 1.380445 1_655
B23 O35 1.372503 1_555
B23 O30 1.374592 1_565
B23 O2 1.380445 1_555
O0 Sr0 2.705863 1_545
O1 Sr1 2.705863 1_565
O2 Sr2 2.705863 1_565
O3 Sr3 2.705863 1_545
O4 Sr0 2.590696 1_555
O5 Sr1 2.590696 1_555
O6 Sr2 2.590696 1_555
O7 Sr3 2.590696 1_555
O10 O50 1.352018 1_555
O11 O51 1.352018 1_555
O20 Sr0 2.622505 1_555
O21 Sr1 2.622505 1_455
O22 Sr2 2.622505 1_555
O23 Sr3 2.622505 1_655
O24 Sr0 2.592395 1_555
O25 Sr1 2.592395 1_555
O26 Sr2 2.592395 1_555
O27 Sr3 2.592395 1_555
O28 Sr0 2.675963 1_555
O29 Sr1 2.675963 1_455
O30 Sr2 2.675963 1_555
O31 Sr3 2.675963 1_655
O32 Sr0 2.650145 1_555
O33 Sr1 2.650145 1_555
O34 Sr2 2.650145 1_555
O35 Sr3 2.650145 1_555
O44 O46 1.277023 1_565
O44 Sr2 2.751632 1_565
O44 Sr0 2.762258 1_555
O45 O47 1.277023 1_446
O45 Sr3 2.751632 1_546
O45 Sr1 2.762258 1_455
O46 Sr0 2.751632 1_545
O46 Sr2 2.762258 1_555
O47 Sr1 2.751632 1_564
O47 Sr3 2.762258 1_655
O48 O8 1.352018 1_555
O48 Sr1 2.686842 1_555
O49 O9 1.352018 1_555
O49 Sr0 2.686842 1_555
O50 Sr3 2.686842 1_555
O51 Sr2 2.686842 1_555
