# generated using pymatgen
data_TbCeO4
_symmetry_space_group_name_H-M   'P 1'
_cell_length_a   10.94847203
_cell_length_b   10.94847203
_cell_length_c   10.94847203
_cell_angle_alpha   90.00000000
_cell_angle_beta   90.00000000
_cell_angle_gamma   90.00000000
_symmetry_Int_Tables_number   1
_chemical_formula_structural   TbCeO4
_chemical_formula_sum   'Tb16 Ce16 O64'
_cell_volume   1312.38282942
_cell_formula_units_Z   16
loop_
 _symmetry_equiv_pos_site_id
 _symmetry_equiv_pos_as_xyz
  1  'x, y, z'
loop_
 _atom_site_type_symbol
 _atom_site_label
 _atom_site_symmetry_multiplicity
 _atom_site_fract_x
 _atom_site_fract_y
 _atom_site_fract_z
 _atom_site_occupancy
  Tb  Tb0  1  0.12804440  0.62571287  0.12406355  1
  Tb  Tb1  1  0.12406355  0.12804440  0.62571287  1
  Tb  Tb2  1  0.12664838  0.87335162  0.37335162  1
  Tb  Tb3  1  0.12571287  0.37593645  0.87195560  1
  Tb  Tb4  1  0.37428713  0.62406355  0.37195560  1
  Tb  Tb5  1  0.37335162  0.12664838  0.87335162  1
  Tb  Tb6  1  0.37593645  0.87195560  0.12571287  1
  Tb  Tb7  1  0.37195560  0.37428713  0.62406355  1
  Tb  Tb8  1  0.62804440  0.87428713  0.87593645  1
  Tb  Tb9  1  0.62406355  0.37195560  0.37428713  1
  Tb  Tb10  1  0.62664838  0.62664838  0.62664838  1
  Tb  Tb11  1  0.62571287  0.12406355  0.12804440  1
  Tb  Tb12  1  0.87428713  0.87593645  0.62804440  1
  Tb  Tb13  1  0.87335162  0.37335162  0.12664838  1
  Tb  Tb14  1  0.87593645  0.62804440  0.87428713  1
  Tb  Tb15  1  0.87195560  0.12571287  0.37593645  1
  Ce  Ce0  1  0.12458854  0.37445034  0.37426650  1
  Ce  Ce1  1  0.12573350  0.87541146  0.87445034  1
  Ce  Ce2  1  0.12554966  0.62573350  0.62458854  1
  Ce  Ce3  1  0.12497604  0.12497604  0.12497604  1
  Ce  Ce4  1  0.37502396  0.87502396  0.62497604  1
  Ce  Ce5  1  0.37445034  0.37426650  0.12458854  1
  Ce  Ce6  1  0.37426650  0.12458854  0.37445034  1
  Ce  Ce7  1  0.37541146  0.62554966  0.87426650  1
  Ce  Ce8  1  0.62458854  0.12554966  0.62573350  1
  Ce  Ce9  1  0.62573350  0.62458854  0.12554966  1
  Ce  Ce10  1  0.62554966  0.87426650  0.37541146  1
  Ce  Ce11  1  0.62497604  0.37502396  0.87502396  1
  Ce  Ce12  1  0.87502396  0.62497604  0.37502396  1
  Ce  Ce13  1  0.87445034  0.12573350  0.87541146  1
  Ce  Ce14  1  0.87426650  0.37541146  0.62554966  1
  Ce  Ce15  1  0.87541146  0.87445034  0.12573350  1
  O  O0  1  0.99729276  0.74862647  0.24925020  1
  O  O1  1  0.00029141  0.99906781  0.24774994  1
  O  O2  1  0.00314166  0.75403028  0.99944853  1
  O  O3  1  0.00081252  0.00081252  0.00081252  1
  O  O4  1  0.99958515  0.00041485  0.50041485  1
  O  O5  1  0.99944853  0.00314166  0.75403028  1
  O  O6  1  0.00093219  0.74774994  0.49970859  1
  O  O7  1  0.99478732  0.25296671  0.75022020  1
  O  O8  1  0.24703329  0.24977980  0.49478732  1
  O  O9  1  0.24977980  0.49478732  0.24703329  1
  O  O10  1  0.24916163  0.25083837  0.74916163  1
  O  O11  1  0.24925020  0.99729276  0.74862647  1
  O  O12  1  0.25225006  0.99970859  0.49906781  1
  O  O13  1  0.25403028  0.50055147  0.99685834  1
  O  O14  1  0.25137353  0.74925020  0.50270724  1
  O  O15  1  0.25124042  0.75124042  0.74875958  1
  O  O16  1  0.24875958  0.24875958  0.24875958  1
  O  O17  1  0.24862647  0.25074980  0.00270724  1
  O  O18  1  0.24596972  0.49944853  0.49685834  1
  O  O19  1  0.24774994  0.00029141  0.99906781  1
  O  O20  1  0.25074980  0.00270724  0.24862647  1
  O  O21  1  0.25083837  0.74916163  0.24916163  1
  O  O22  1  0.25022020  0.50521268  0.74703329  1
  O  O23  1  0.25296671  0.75022020  0.99478732  1
  O  O24  1  0.50521268  0.74703329  0.25022020  1
  O  O25  1  0.49918748  0.99918748  0.50081252  1
  O  O26  1  0.50041485  0.99958515  0.00041485  1
  O  O27  1  0.50055147  0.99685834  0.25403028  1
  O  O28  1  0.49906781  0.25225006  0.99970859  1
  O  O29  1  0.49685834  0.24596972  0.49944853  1
  O  O30  1  0.50270724  0.25137353  0.74925020  1
  O  O31  1  0.49970859  0.00093219  0.74774994  1
  O  O32  1  0.50029141  0.50093219  0.75225006  1
  O  O33  1  0.49729276  0.75137353  0.75074980  1
  O  O34  1  0.50314166  0.74596972  0.00055147  1
  O  O35  1  0.49944853  0.49685834  0.24596972  1
  O  O36  1  0.49958515  0.49958515  0.49958515  1
  O  O37  1  0.50081252  0.49918748  0.99918748  1
  O  O38  1  0.50093219  0.75225006  0.50029141  1
  O  O39  1  0.49478732  0.24703329  0.24977980  1
  O  O40  1  0.74703329  0.25022020  0.50521268  1
  O  O41  1  0.74977980  0.00521268  0.75296671  1
  O  O42  1  0.74916163  0.24916163  0.25083837  1
  O  O43  1  0.74925020  0.50270724  0.25137353  1
  O  O44  1  0.75225006  0.50029141  0.50093219  1
  O  O45  1  0.75403028  0.99944853  0.00314166  1
  O  O46  1  0.75137353  0.75074980  0.49729276  1
  O  O47  1  0.75124042  0.74875958  0.25124042  1
  O  O48  1  0.74875958  0.25124042  0.75124042  1
  O  O49  1  0.74862647  0.24925020  0.99729276  1
  O  O50  1  0.74596972  0.00055147  0.50314166  1
  O  O51  1  0.74774994  0.49970859  0.00093219  1
  O  O52  1  0.75074980  0.49729276  0.75137353  1
  O  O53  1  0.75083837  0.75083837  0.75083837  1
  O  O54  1  0.75022020  0.99478732  0.25296671  1
  O  O55  1  0.75296671  0.74977980  0.00521268  1
  O  O56  1  0.00521268  0.75296671  0.74977980  1
  O  O57  1  0.99906781  0.24774994  0.00029141  1
  O  O58  1  0.00041485  0.50041485  0.99958515  1
  O  O59  1  0.00055147  0.50314166  0.74596972  1
  O  O60  1  0.99918748  0.50081252  0.49918748  1
  O  O61  1  0.99685834  0.25403028  0.50055147  1
  O  O62  1  0.00270724  0.24862647  0.25074980  1
  O  O63  1  0.99970859  0.49906781  0.25225006  1
loop_
_geom_bond_atom_site_label_1
_geom_bond_atom_site_label_2
_geom_bond_distance
_geom_bond_site_symmetry_2
Ce0 O8 2.324088 1_555
Ce0 O18 2.332479 1_555
Ce0 O62 2.346732 1_555
Ce0 O63 2.348505 1_455
Ce0 O9 2.356902 1_555
Ce0 O61 2.367603 1_455
Ce0 O16 2.372779 1_555
Ce0 O60 2.381087 1_455
Ce1 O56 2.324088 1_555
Ce1 O2 2.332479 1_555
Ce1 O11 2.346732 1_555
Ce1 O19 2.348505 1_565
Ce1 O23 2.356902 1_555
Ce1 O5 2.367603 1_465
Ce1 O15 2.372779 1_555
Ce1 O3 2.381087 1_566
Ce2 O22 2.324088 1_555
Ce2 O59 2.332479 1_555
Ce2 O14 2.346732 1_555
Ce2 O6 2.348505 1_555
Ce2 O56 2.356902 1_555
Ce2 O18 2.367603 1_555
Ce2 O15 2.372779 1_555
Ce2 O60 2.381087 1_455
Ce3 O16 2.347346 1_555
Ce3 O17 2.349669 1_555
Ce3 O20 2.349669 1_555
Ce3 O62 2.349669 1_555
Ce3 O3 2.354551 1_555
Ce3 O19 2.360217 1_554
Ce3 O57 2.360217 1_455
Ce3 O1 2.360217 1_545
Ce4 O15 2.347346 1_555
Ce4 O14 2.349669 1_555
Ce4 O11 2.349669 1_555
Ce4 O33 2.349669 1_555
Ce4 O25 2.354551 1_555
Ce4 O12 2.360217 1_555
Ce4 O38 2.360217 1_555
Ce4 O31 2.360217 1_565
Ce5 O9 2.324088 1_555
Ce5 O35 2.332479 1_555
Ce5 O17 2.346732 1_555
Ce5 O28 2.348505 1_554
Ce5 O39 2.356902 1_555
Ce5 O13 2.367603 1_554
Ce5 O16 2.372779 1_555
Ce5 O37 2.381087 1_554
Ce6 O39 2.324088 1_555
Ce6 O29 2.332479 1_555
Ce6 O20 2.346732 1_555
Ce6 O12 2.348505 1_545
Ce6 O8 2.356902 1_555
Ce6 O27 2.367603 1_545
Ce6 O16 2.372779 1_555
Ce6 O25 2.381087 1_545
Ce7 O23 2.324088 1_555
Ce7 O13 2.332479 1_555
Ce7 O33 2.346732 1_555
Ce7 O32 2.348505 1_555
Ce7 O22 2.356902 1_555
Ce7 O34 2.367603 1_556
Ce7 O15 2.372779 1_555
Ce7 O37 2.381087 1_555
Ce8 O40 2.324088 1_555
Ce8 O50 2.332479 1_555
Ce8 O30 2.346732 1_555
Ce8 O31 2.348505 1_555
Ce8 O41 2.356902 1_555
Ce8 O29 2.367603 1_555
Ce8 O48 2.372779 1_555
Ce8 O25 2.381087 1_545
Ce9 O24 2.324088 1_555
Ce9 O34 2.332479 1_555
Ce9 O43 2.346732 1_555
Ce9 O51 2.348505 1_555
Ce9 O55 2.356902 1_555
Ce9 O35 2.367603 1_555
Ce9 O47 2.372779 1_555
Ce9 O37 2.381087 1_554
Ce10 O54 2.324088 1_555
Ce10 O27 2.332479 1_555
Ce10 O46 2.346732 1_555
Ce10 O38 2.348505 1_555
Ce10 O24 2.356902 1_555
Ce10 O50 2.367603 1_565
Ce10 O47 2.372779 1_555
Ce10 O25 2.381087 1_555
Ce11 O48 2.347346 1_555
Ce11 O49 2.349669 1_555
Ce11 O30 2.349669 1_555
Ce11 O52 2.349669 1_555
Ce11 O37 2.354551 1_555
Ce11 O28 2.360217 1_555
Ce11 O32 2.360217 1_555
Ce11 O51 2.360217 1_556
Ce12 O47 2.347346 1_555
Ce12 O43 2.349669 1_555
Ce12 O0 2.349669 1_555
Ce12 O46 2.349669 1_555
Ce12 O60 2.354551 1_555
Ce12 O63 2.360217 1_555
Ce12 O44 2.360217 1_555
Ce12 O6 2.360217 1_655
Ce13 O41 2.324088 1_555
Ce13 O5 2.332479 1_555
Ce13 O49 2.346732 1_555
Ce13 O57 2.348505 1_556
Ce13 O7 2.356902 1_555
Ce13 O45 2.367603 1_546
Ce13 O48 2.372779 1_555
Ce13 O3 2.381087 1_656
Ce14 O7 2.324088 1_555
Ce14 O61 2.332479 1_555
Ce14 O52 2.346732 1_555
Ce14 O44 2.348505 1_555
Ce14 O40 2.356902 1_555
Ce14 O59 2.367603 1_655
Ce14 O48 2.372779 1_555
Ce14 O60 2.381087 1_555
Ce15 O55 2.324088 1_555
Ce15 O45 2.332479 1_555
Ce15 O0 2.346732 1_555
Ce15 O1 2.348505 1_655
Ce15 O54 2.356902 1_555
Ce15 O2 2.367603 1_654
Ce15 O47 2.372779 1_555
Ce15 O3 2.381087 1_665
O0 Tb2 2.390942 1_655
O0 Tb0 2.395576 1_655
O1 Tb2 2.387330 1_555
O1 Tb15 2.422084 1_465
O2 Tb0 2.388548 1_556
O2 Tb14 2.391658 1_455
O4 Tb12 2.385756 1_545
O4 Tb1 2.385756 1_655
O4 Tb15 2.385756 1_555
O4 Tb2 2.409539 1_645
O5 Tb1 2.388548 1_655
O5 Tb12 2.391658 1_545
O6 Tb2 2.387330 1_555
O6 Tb12 2.422084 1_455
O7 Tb3 2.375656 1_655
O7 Tb1 2.394188 1_655
O8 Tb1 2.375656 1_555
O8 Tb7 2.394188 1_555
O9 Tb0 2.375656 1_555
O9 Tb4 2.394188 1_555
O10 Tb1 2.347356 1_555
O10 Tb7 2.347356 1_555
O10 Tb3 2.347356 1_555
O10 Tb5 2.355053 1_555
O11 Tb5 2.390942 1_565
O11 Tb1 2.395576 1_565
O12 Tb2 2.387330 1_555
O12 Tb1 2.422084 1_565
O13 Tb3 2.388548 1_555
O13 Tb0 2.391658 1_556
O14 Tb2 2.390942 1_555
O14 Tb4 2.395576 1_555
O17 Tb5 2.390942 1_554
O17 Tb3 2.395576 1_554
O18 Tb4 2.388548 1_555
O18 Tb7 2.391658 1_555
O19 Tb5 2.387330 1_555
O19 Tb6 2.422084 1_546
O20 Tb2 2.390942 1_545
O20 Tb6 2.395576 1_545
O21 Tb4 2.347356 1_555
O21 Tb6 2.347356 1_555
O21 Tb0 2.347356 1_555
O21 Tb2 2.355053 1_555
O22 Tb7 2.375656 1_555
O22 Tb3 2.394188 1_555
O23 Tb6 2.375656 1_556
O23 Tb0 2.394188 1_556
O24 Tb4 2.375656 1_555
O24 Tb6 2.394188 1_555
O26 Tb8 2.385756 1_554
O26 Tb6 2.385756 1_555
O26 Tb11 2.385756 1_565
O26 Tb5 2.409539 1_564
O27 Tb6 2.388548 1_555
O27 Tb11 2.391658 1_565
O28 Tb5 2.387330 1_555
O28 Tb11 2.422084 1_556
O29 Tb7 2.388548 1_555
O29 Tb9 2.391658 1_555
O30 Tb5 2.390942 1_555
O30 Tb7 2.395576 1_555
O31 Tb5 2.387330 1_555
O31 Tb8 2.422084 1_545
O32 Tb10 2.387330 1_555
O32 Tb7 2.422084 1_555
O33 Tb10 2.390942 1_555
O33 Tb8 2.395576 1_555
O34 Tb8 2.388548 1_554
O34 Tb6 2.391658 1_555
O35 Tb9 2.388548 1_555
O35 Tb4 2.391658 1_555
O36 Tb7 2.385756 1_555
O36 Tb9 2.385756 1_555
O36 Tb4 2.385756 1_555
O36 Tb10 2.409539 1_555
O38 Tb10 2.387330 1_555
O38 Tb4 2.422084 1_555
O39 Tb11 2.375656 1_555
O39 Tb9 2.394188 1_555
O40 Tb9 2.375656 1_555
O40 Tb15 2.394188 1_555
O41 Tb8 2.375656 1_545
O41 Tb12 2.394188 1_545
O42 Tb9 2.347356 1_555
O42 Tb11 2.347356 1_555
O42 Tb15 2.347356 1_555
O42 Tb13 2.355053 1_555
O43 Tb13 2.390942 1_555
O43 Tb9 2.395576 1_555
O44 Tb10 2.387330 1_555
O44 Tb9 2.422084 1_555
O45 Tb11 2.388548 1_565
O45 Tb8 2.391658 1_554
O46 Tb10 2.390942 1_555
O46 Tb12 2.395576 1_555
O49 Tb13 2.390942 1_556
O49 Tb11 2.395576 1_556
O50 Tb12 2.388548 1_545
O50 Tb15 2.391658 1_555
O51 Tb13 2.387330 1_555
O51 Tb14 2.422084 1_554
O52 Tb10 2.390942 1_555
O52 Tb14 2.395576 1_555
O53 Tb8 2.347356 1_555
O53 Tb12 2.347356 1_555
O53 Tb14 2.347356 1_555
O53 Tb10 2.355053 1_555
O54 Tb15 2.375656 1_565
O54 Tb11 2.394188 1_565
O55 Tb14 2.375656 1_554
O55 Tb8 2.394188 1_554
O56 Tb12 2.375656 1_455
O56 Tb14 2.394188 1_455
O57 Tb13 2.387330 1_555
O57 Tb3 2.422084 1_654
O58 Tb3 2.385756 1_555
O58 Tb14 2.385756 1_455
O58 Tb0 2.385756 1_556
O58 Tb13 2.409539 1_456
O59 Tb14 2.388548 1_455
O59 Tb3 2.391658 1_555
O61 Tb15 2.388548 1_555
O61 Tb1 2.391658 1_655
O62 Tb13 2.390942 1_455
O62 Tb15 2.395576 1_455
O63 Tb13 2.387330 1_555
O63 Tb0 2.422084 1_655
