# generated using pymatgen
data_Li5Fe4(P2O7)4
_symmetry_space_group_name_H-M   'P 1'
_cell_length_a   9.75036600
_cell_length_b   9.76737461
_cell_length_c   11.18886458
_cell_angle_alpha   89.85669275
_cell_angle_beta   78.43131461
_cell_angle_gamma   89.78998954
_symmetry_Int_Tables_number   1
_chemical_formula_structural   Li5Fe4(P2O7)4
_chemical_formula_sum   'Li10 Fe8 P16 O56'
_cell_volume   1043.92095776
_cell_formula_units_Z   2
loop_
 _symmetry_equiv_pos_site_id
 _symmetry_equiv_pos_as_xyz
  1  'x, y, z'
loop_
 _atom_site_type_symbol
 _atom_site_label
 _atom_site_symmetry_multiplicity
 _atom_site_fract_x
 _atom_site_fract_y
 _atom_site_fract_z
 _atom_site_occupancy
  Li  Li0  1  0.12200800  0.27880400  0.55051600  1
  Li  Li1  1  0.18840700  0.59267600  0.44698200  1
  Li  Li2  1  0.09164600  0.88928000  0.97630000  1
  Li  Li3  1  0.41892900  0.40869600  0.02346600  1
  Li  Li4  1  0.60747000  0.96246700  0.49510400  1
  Li  Li5  1  0.85093300  0.41557700  0.04020200  1
  Li  Li6  1  0.64648200  0.89568000  0.95731600  1
  Li  Li7  1  0.90947100  0.10663700  0.03071300  1
  Li  Li8  1  0.81562000  0.40517700  0.55369300  1
  Li  Li9  1  0.88133400  0.71590600  0.45349500  1
  Fe  Fe0  1  0.20781900  0.07253000  0.32959800  1
  Fe  Fe1  1  0.25605100  0.78258800  0.17490800  1
  Fe  Fe2  1  0.25665900  0.29572300  0.82142200  1
  Fe  Fe3  1  0.29819200  0.58755600  0.67701900  1
  Fe  Fe4  1  0.69983100  0.42044800  0.32641400  1
  Fe  Fe5  1  0.74889000  0.71385900  0.17030200  1
  Fe  Fe6  1  0.73619300  0.22147500  0.82816300  1
  Fe  Fe7  1  0.79689100  0.92553800  0.67726800  1
  P  P0  1  0.02286600  0.54966500  0.24747400  1
  P  P1  1  0.12174800  0.28853200  0.11456100  1
  P  P2  1  0.06121800  0.07269400  0.76307800  1
  P  P3  1  0.12424800  0.85540900  0.57427600  1
  P  P4  1  0.37585400  0.35244300  0.41909100  1
  P  P5  1  0.43165300  0.57601600  0.23954100  1
  P  P6  1  0.52501100  0.94558000  0.24262800  1
  P  P7  1  0.38457800  0.79012600  0.88739400  1
  P  P8  1  0.61334200  0.20935000  0.11880900  1
  P  P9  1  0.47693000  0.04726700  0.74508200  1
  P  P10  1  0.56736100  0.42467500  0.75611700  1
  P  P11  1  0.62108400  0.64799000  0.58040900  1
  P  P12  1  0.87718400  0.14423400  0.42547600  1
  P  P13  1  0.94062200  0.92337100  0.24045400  1
  P  P14  1  0.89020600  0.70700200  0.88147700  1
  P  P15  1  0.98039900  0.44848400  0.75632100  1
  O  O0  1  0.02234800  0.57530500  0.38130000  1
  O  O1  1  0.03075600  0.15768200  0.43909500  1
  O  O2  1  0.09418600  0.91362200  0.26349700  1
  O  O3  1  0.11263900  0.41291100  0.21164900  1
  O  O4  1  0.09862500  0.66064800  0.16152000  1
  O  O5  1  0.17839800  0.17094000  0.18055500  1
  O  O6  1  0.22794700  0.33532600  0.99681100  1
  O  O7  1  0.03364200  0.74609300  0.89478400  1
  O  O8  1  0.13195300  0.93757400  0.69662100  1
  O  O9  1  0.06310900  0.06035000  0.89648100  1
  O  O10  1  0.13784000  0.46406800  0.77253200  1
  O  O11  1  0.18531000  0.71218200  0.59096200  1
  O  O12  1  0.15480700  0.19491100  0.70825300  1
  O  O13  1  0.20495600  0.93412600  0.46677700  1
  O  O14  1  0.28127100  0.43614700  0.52058000  1
  O  O15  1  0.32852900  0.68475200  0.30936900  1
  O  O16  1  0.30842800  0.21335500  0.40754000  1
  O  O17  1  0.36722500  0.95782700  0.22544500  1
  O  O18  1  0.36894900  0.43114200  0.29309900  1
  O  O19  1  0.41654600  0.58521900  0.10807600  1
  O  O20  1  0.47444400  0.24899700  0.09408100  1
  O  O21  1  0.27742700  0.83616500  0.00516300  1
  O  O22  1  0.32066100  0.67295800  0.82500400  1
  O  O23  1  0.38443300  0.91443200  0.79220800  1
  O  O24  1  0.41253900  0.42066700  0.73235800  1
  O  O25  1  0.40028100  0.16319600  0.82650700  1
  O  O26  1  0.46915600  0.65290600  0.56671000  1
  O  O27  1  0.53927400  0.89683600  0.36543500  1
  O  O28  1  0.48199200  0.06062300  0.61221500  1
  O  O29  1  0.52969700  0.34631900  0.42795500  1
  O  O30  1  0.60640200  0.86215700  0.13500300  1
  O  O31  1  0.58277800  0.58120700  0.26446100  1
  O  O32  1  0.59024900  0.09823400  0.22834900  1
  O  O33  1  0.69289900  0.32642700  0.17221500  1
  O  O34  1  0.71713300  0.14558100  0.00852800  1
  O  O35  1  0.52734500  0.76685700  0.90980500  1
  O  O36  1  0.57416600  0.40853700  0.88838600  1
  O  O37  1  0.62367300  0.57469800  0.70928800  1
  O  O38  1  0.62598800  0.02801000  0.78014400  1
  O  O39  1  0.68599300  0.79057900  0.58955300  1
  O  O40  1  0.66843900  0.32182200  0.68098200  1
  O  O41  1  0.71879600  0.56300900  0.48123300  1
  O  O42  1  0.78813300  0.05577500  0.52438800  1
  O  O43  1  0.84668400  0.80917900  0.30519000  1
  O  O44  1  0.81542700  0.28704100  0.40927400  1
  O  O45  1  0.87175200  0.52591500  0.22355600  1
  O  O46  1  0.93361100  0.93168000  0.10738800  1
  O  O47  1  0.88038000  0.06839600  0.29725800  1
  O  O48  1  0.97841100  0.27047500  0.08687000  1
  O  O49  1  0.80070600  0.63862700  0.99544000  1
  O  O50  1  0.80855600  0.82515700  0.83074600  1
  O  O51  1  0.90023200  0.35840000  0.85899000  1
  O  O52  1  0.90845300  0.59653000  0.76987100  1
  O  O53  1  0.91205500  0.08349000  0.73314400  1
  O  O54  1  0.96655100  0.83841400  0.57176300  1
  O  O55  1  0.97544700  0.40526000  0.62735600  1
loop_
_geom_bond_atom_site_label_1
_geom_bond_atom_site_label_2
_geom_bond_distance
_geom_bond_site_symmetry_2
Li0 O55 1.951015 1_455
Li0 O12 2.026278 1_555
Li0 O1 2.050710 1_555
Li0 O14 2.166044 1_555
Li0 O16 2.258772 1_555
Li1 O0 1.915821 1_555
Li1 O11 1.987027 1_555
Li1 O14 2.029298 1_555
Li1 O15 2.050499 1_555
Li2 O7 1.823946 1_555
Li2 O9 1.937973 1_565
Li2 O46 1.946546 1_456
Li2 O21 1.970186 1_556
Li3 O20 1.873376 1_555
Li3 O36 1.912535 1_554
Li3 O19 1.966865 1_555
Li3 O6 2.074534 1_554
Li4 O27 1.831052 1_555
Li4 O28 1.867533 1_565
Li4 O42 2.070195 1_565
Li4 O39 2.197241 1_555
Li5 O48 2.017408 1_555
Li5 O51 2.065605 1_554
Li5 O33 2.098773 1_555
Li5 O49 2.306973 1_554
Li5 O45 2.364553 1_555
Li6 O35 1.864655 1_555
Li6 O30 1.974487 1_556
Li6 O50 2.019061 1_555
Li6 O38 2.405083 1_565
Li6 O34 2.634084 1_566
Li7 O48 1.894681 1_555
Li7 O46 1.944827 1_545
Li7 O9 1.949418 1_654
Li7 O34 1.975933 1_555
Li8 O55 1.903421 1_555
Li8 O40 1.983352 1_555
Li8 O44 1.988237 1_555
Li8 O41 2.053092 1_555
Li9 O43 1.978042 1_555
Li9 O0 1.993782 1_655
Li9 O54 2.080742 1_555
Li9 O41 2.157761 1_555
Li9 O39 2.304249 1_555
Fe0 O5 1.992237 1_555
Fe0 O16 1.993447 1_555
Fe0 O13 2.038828 1_545
Fe0 O17 2.072743 1_545
Fe0 O1 2.078343 1_555
Fe0 O2 2.128534 1_545
Fe1 O21 1.939462 1_555
Fe1 O4 1.975759 1_555
Fe1 O15 2.022445 1_555
Fe1 O2 2.115533 1_555
Fe1 O17 2.165343 1_555
Fe1 O19 2.498021 1_555
Fe2 O25 1.912627 1_555
Fe2 O6 1.965117 1_555
Fe2 O12 2.019138 1_555
Fe2 O24 2.047550 1_555
Fe2 O10 2.140287 1_555
Fe3 O22 1.907661 1_555
Fe3 O26 1.971845 1_555
Fe3 O11 2.007404 1_555
Fe3 O10 2.092512 1_555
Fe3 O24 2.131215 1_555
Fe3 O14 2.325650 1_555
Fe4 O29 1.953368 1_555
Fe4 O33 1.969712 1_555
Fe4 O44 2.056721 1_555
Fe4 O45 2.104421 1_555
Fe4 O31 2.132447 1_555
Fe4 O41 2.261906 1_555
Fe5 O49 2.056973 1_554
Fe5 O30 2.094455 1_555
Fe5 O43 2.155129 1_555
Fe5 O31 2.176260 1_555
Fe5 O45 2.329096 1_555
Fe6 O34 2.121270 1_556
Fe6 O40 2.128970 1_555
Fe6 O51 2.169117 1_555
Fe6 O53 2.268488 1_555
Fe6 O38 2.294685 1_555
Fe6 O36 2.417897 1_555
Fe7 O50 1.998065 1_555
Fe7 O54 2.016355 1_555
Fe7 O39 2.076681 1_555
Fe7 O38 2.080315 1_565
Fe7 O53 2.081105 1_565
Fe7 O42 2.144379 1_565
O0 P0 1.517783 1_555
O1 P12 1.541327 1_455
O2 P13 1.571983 1_455
O3 P0 1.601377 1_555
O3 P1 1.622016 1_555
O4 P0 1.536675 1_555
O5 P1 1.524541 1_555
O6 P1 1.571680 1_556
O7 P14 1.487152 1_455
O8 P2 1.600911 1_565
O8 P3 1.603367 1_555
O9 P2 1.500979 1_555
O10 P15 1.589388 1_455
O11 P3 1.543880 1_555
O12 P2 1.553648 1_555
O13 P3 1.509069 1_555
O14 P4 1.545142 1_555
O15 P5 1.559059 1_555
O16 P4 1.528401 1_555
O17 P6 1.592274 1_555
O18 P5 1.609467 1_555
O18 P4 1.617080 1_555
O19 P5 1.509834 1_555
O20 P8 1.485451 1_555
O21 P7 1.573985 1_554
O22 P7 1.539196 1_555
O23 P9 1.609103 1_565
O23 P7 1.613240 1_555
O24 P10 1.585070 1_555
O25 P9 1.548088 1_555
O26 P11 1.520105 1_555
O27 P6 1.485587 1_555
O28 P9 1.482961 1_555
O29 P4 1.523966 1_555
O30 P6 1.536457 1_555
O31 P5 1.554669 1_555
O32 P8 1.617163 1_555
O32 P6 1.618119 1_545
O33 P8 1.569172 1_555
O34 P8 1.559817 1_555
O35 P7 1.479756 1_555
O36 P10 1.502535 1_555
O37 P11 1.613011 1_555
O37 P10 1.615510 1_555
O38 P9 1.589929 1_555
O39 P11 1.543965 1_555
O40 P10 1.533599 1_555
O41 P11 1.550096 1_555
O42 P12 1.529882 1_555
O43 P13 1.531322 1_555
O44 P12 1.541887 1_555
O45 P0 1.567595 1_655
O46 P13 1.506032 1_555
O47 P12 1.610899 1_555
O47 P13 1.613738 1_545
O48 P1 1.502036 1_655
O49 P14 1.545050 1_555
O50 P14 1.568151 1_555
O51 P15 1.531225 1_555
O52 P15 1.599083 1_555
O52 P14 1.634481 1_555
O53 P2 1.559690 1_655
O54 P3 1.552999 1_655
O55 P15 1.514556 1_555
