# generated using pymatgen
data_NaMg14B
_symmetry_space_group_name_H-M   'P 1'
_cell_length_a   6.28524196
_cell_length_b   6.28524196
_cell_length_c   10.15200200
_cell_angle_alpha   90.00000000
_cell_angle_beta   90.00000000
_cell_angle_gamma   119.55633020
_symmetry_Int_Tables_number   1
_chemical_formula_structural   NaMg14B
_chemical_formula_sum   'Na1 Mg14 B1'
_cell_volume   348.85955695
_cell_formula_units_Z   1
loop_
 _symmetry_equiv_pos_site_id
 _symmetry_equiv_pos_as_xyz
  1  'x, y, z'
loop_
 _atom_site_type_symbol
 _atom_site_label
 _atom_site_symmetry_multiplicity
 _atom_site_fract_x
 _atom_site_fract_y
 _atom_site_fract_z
 _atom_site_occupancy
  Na  Na0  1  0.83259200  0.16740800  0.50000000  1
  Mg  Mg0  1  0.83533700  0.16466300  0.00000000  1
  Mg  Mg1  1  0.33335500  0.66664500  0.00000000  1
  Mg  Mg2  1  0.34256200  0.17351800  0.50000000  1
  Mg  Mg3  1  0.32946200  0.16446300  0.00000000  1
  Mg  Mg4  1  0.82648200  0.65743800  0.50000000  1
  Mg  Mg5  1  0.83553700  0.67053800  0.00000000  1
  Mg  Mg6  1  0.17533800  0.34837900  0.26003900  1
  Mg  Mg7  1  0.17533800  0.34837900  0.73996100  1
  Mg  Mg8  1  0.65162100  0.82466200  0.26003900  1
  Mg  Mg9  1  0.65162100  0.82466200  0.73996100  1
  Mg  Mg10  1  0.66430300  0.33569700  0.24370800  1
  Mg  Mg11  1  0.66430300  0.33569700  0.75629200  1
  Mg  Mg12  1  0.17212500  0.82787500  0.26579800  1
  Mg  Mg13  1  0.17212500  0.82787500  0.73420200  1
  B  B0  1  0.33790800  0.66209200  0.50000000  1
loop_
_geom_bond_atom_site_label_1
_geom_bond_atom_site_label_2
_geom_bond_distance
_geom_bond_site_symmetry_2
Mg0 Mg10 3.093957 1_555
Mg0 Mg11 3.093957 1_554
Mg0 Mg3 3.106315 1_655
Mg0 Mg5 3.106315 1_545
Mg0 Mg1 3.163745 1_545
Mg0 Mg1 3.163745 1_655
Mg0 Mg5 3.178927 1_555
Mg0 Mg3 3.178927 1_555
Mg0 Mg6 3.230294 1_655
Mg0 Mg8 3.230294 1_545
Mg0 Mg9 3.230294 1_544
Mg0 Mg7 3.230294 1_654
Mg1 Mg3 3.141048 1_565
Mg1 Mg5 3.141048 1_455
Mg1 Mg5 3.144338 1_555
Mg1 Mg3 3.144338 1_555
Mg1 Mg9 3.161811 1_554
Mg1 Mg8 3.161811 1_555
Mg1 Mg7 3.161811 1_554
Mg1 Mg6 3.161811 1_555
Mg1 Mg13 3.216864 1_554
Mg1 Mg12 3.216864 1_555
Mg2 Mg4 3.061928 1_555
Mg2 Mg6 3.063774 1_555
Mg2 Mg7 3.063774 1_555
Mg2 Na0 3.099080 1_555
Mg2 Na0 3.186517 1_455
Mg2 Mg4 3.265416 1_445
Mg3 Mg5 3.125233 1_445
Mg3 Mg5 3.202111 1_555
Mg3 Mg6 3.216911 1_555
Mg3 Mg7 3.216911 1_554
Mg4 Mg8 3.063774 1_555
Mg4 Mg9 3.063774 1_555
Mg4 Na0 3.099080 1_555
Mg4 Na0 3.186517 1_565
Mg5 Mg9 3.216911 1_554
Mg5 Mg8 3.216911 1_555
Mg6 Mg8 3.013606 1_555
Mg6 Na0 3.074354 1_455
Mg6 Mg8 3.313738 1_445
Mg7 Mg9 3.013606 1_555
Mg7 Na0 3.074354 1_455
Mg7 Mg9 3.313738 1_445
Mg8 Na0 3.074354 1_565
Mg9 Na0 3.074354 1_565
Mg10 Mg5 3.078016 1_555
Mg10 Mg3 3.078016 1_555
Mg10 Mg8 3.117766 1_555
Mg10 Mg6 3.117766 1_555
Mg10 Mg4 3.140791 1_555
Mg10 Mg2 3.140791 1_555
Mg10 Mg12 3.172748 1_545
Mg10 Mg12 3.172748 1_655
Mg10 Mg6 3.177745 1_655
Mg10 Mg8 3.177745 1_545
Mg10 Na0 3.179803 1_555
Mg11 Mg5 3.078016 1_556
Mg11 Mg3 3.078016 1_556
Mg11 Mg7 3.117766 1_555
Mg11 Mg9 3.117766 1_555
Mg11 Mg4 3.140791 1_555
Mg11 Mg2 3.140791 1_555
Mg11 Mg13 3.172748 1_655
Mg11 Mg13 3.172748 1_545
Mg11 Mg7 3.177745 1_655
Mg11 Mg9 3.177745 1_545
Mg11 Na0 3.179803 1_555
Mg12 Mg8 3.024326 1_555
Mg12 Mg6 3.024326 1_555
Mg12 Mg4 3.037142 1_455
Mg12 Mg2 3.037142 1_565
Mg12 Mg8 3.262103 1_455
Mg12 Mg6 3.262103 1_565
Mg12 Mg5 3.266612 1_455
Mg12 Mg3 3.266612 1_565
Mg13 Mg7 3.024326 1_555
Mg13 Mg9 3.024326 1_555
Mg13 Mg4 3.037142 1_455
Mg13 Mg2 3.037142 1_565
Mg13 Mg9 3.262103 1_455
Mg13 Mg7 3.262103 1_565
Mg13 Mg5 3.266612 1_456
Mg13 Mg3 3.266612 1_566
B0 Mg7 2.979725 1_555
B0 Mg8 2.979725 1_555
B0 Mg9 2.979725 1_555
B0 Mg6 2.979725 1_555
B0 Mg12 2.982563 1_555
B0 Mg13 2.982563 1_555
B0 Mg2 3.085340 1_555
B0 Mg4 3.085340 1_555
B0 Na0 3.164199 1_455
B0 Na0 3.164199 1_565
