# generated using pymatgen
data_CdP2(H4O5)2
_symmetry_space_group_name_H-M   'P 1'
_cell_length_a   10.55431400
_cell_length_b   5.45274000
_cell_length_c   8.92132117
_cell_angle_alpha   56.58023089
_cell_angle_beta   90.00000000
_cell_angle_gamma   90.00000000
_symmetry_Int_Tables_number   1
_chemical_formula_structural   CdP2(H4O5)2
_chemical_formula_sum   'Cd2 P4 H16 O20'
_cell_volume   428.53122471
_cell_formula_units_Z   2
loop_
 _symmetry_equiv_pos_site_id
 _symmetry_equiv_pos_as_xyz
  1  'x, y, z'
loop_
 _atom_site_type_symbol
 _atom_site_label
 _atom_site_symmetry_multiplicity
 _atom_site_fract_x
 _atom_site_fract_y
 _atom_site_fract_z
 _atom_site_occupancy
  Cd  Cd0  1  0.50000000  0.00000000  0.50000000  1
  Cd  Cd1  1  0.00000000  0.00000000  0.00000000  1
  P  P0  1  0.71747100  0.08379600  0.17253400  1
  P  P1  1  0.78252900  0.08379600  0.67253400  1
  P  P2  1  0.28252900  0.91620400  0.82746600  1
  P  P3  1  0.21747100  0.91620400  0.32746600  1
  H  H0  1  0.58239600  0.38905700  0.68394300  1
  H  H1  1  0.91760400  0.38905700  0.18394300  1
  H  H2  1  0.41760400  0.61094300  0.31605700  1
  H  H3  1  0.08239600  0.61094300  0.81605700  1
  H  H4  1  0.45748300  0.40129400  0.77677900  1
  H  H5  1  0.04251700  0.40129400  0.27677900  1
  H  H6  1  0.54251700  0.59870600  0.22322100  1
  H  H7  1  0.95748300  0.59870600  0.72322100  1
  H  H8  1  0.61103100  0.42774200  0.92935400  1
  H  H9  1  0.88896900  0.42774200  0.42935400  1
  H  H10  1  0.38896900  0.57225800  0.07064600  1
  H  H11  1  0.11103100  0.57225800  0.57064600  1
  H  H12  1  0.72198200  0.87482800  0.02067400  1
  H  H13  1  0.77801800  0.87482800  0.52067400  1
  H  H14  1  0.27801800  0.12517200  0.97932600  1
  H  H15  1  0.22198200  0.12517200  0.47932600  1
  O  O0  1  0.67949300  0.96079700  0.36659800  1
  O  O1  1  0.82050700  0.96079700  0.86659800  1
  O  O2  1  0.32050700  0.03920300  0.63340200  1
  O  O3  1  0.17949300  0.03920300  0.13340200  1
  O  O4  1  0.85938700  0.14529200  0.13857400  1
  O  O5  1  0.64061300  0.14529200  0.63857400  1
  O  O6  1  0.14061300  0.85470800  0.86142600  1
  O  O7  1  0.35938700  0.85470800  0.36142600  1
  O  O8  1  0.63792500  0.37493900  0.05112200  1
  O  O9  1  0.86207500  0.37493900  0.55112200  1
  O  O10  1  0.36207500  0.62506100  0.94887800  1
  O  O11  1  0.13792500  0.62506100  0.44887800  1
  O  O12  1  0.67308800  0.85361000  0.12604900  1
  O  O13  1  0.82691200  0.85361000  0.62604900  1
  O  O14  1  0.32691200  0.14639000  0.87395100  1
  O  O15  1  0.17308800  0.14639000  0.37395100  1
  O  O16  1  0.53988900  0.50198900  0.72921700  1
  O  O17  1  0.96011100  0.50198900  0.22921700  1
  O  O18  1  0.46011100  0.49801100  0.27078300  1
  O  O19  1  0.03988900  0.49801100  0.77078300  1
loop_
_geom_bond_atom_site_label_1
_geom_bond_atom_site_label_2
_geom_bond_distance
_geom_bond_site_symmetry_2
Cd0 O2 2.308933 1_555
Cd0 O0 2.308933 1_545
Cd0 O5 2.331808 1_555
Cd0 O7 2.331808 1_545
Cd0 O16 2.369840 1_545
Cd0 O18 2.369840 1_555
Cd1 O3 2.308933 1_555
Cd1 O1 2.308933 1_444
Cd1 O4 2.331808 1_455
Cd1 O6 2.331808 1_544
Cd1 O17 2.369840 1_445
Cd1 O19 2.369840 1_554
H0 O16 1.008751 1_555
H0 O5 1.703149 1_555
H1 O17 1.008751 1_555
H1 O4 1.703149 1_555
H2 O18 1.008751 1_555
H2 O7 1.703149 1_555
H3 O19 1.008751 1_555
H3 O6 1.703149 1_555
H4 O16 0.990620 1_555
H5 O17 0.990620 1_455
H6 O18 0.990620 1_555
H7 O19 0.990620 1_655
H8 O8 0.999524 1_556
H9 O9 0.999524 1_555
H10 O10 0.999524 1_554
H11 O11 0.999524 1_555
H12 O12 1.021585 1_555
H12 O1 1.575025 1_554
H13 O13 1.021585 1_555
H13 O0 1.575025 1_555
H14 O14 1.021585 1_555
H14 O3 1.575025 1_556
H15 O15 1.021585 1_555
H15 O2 1.575025 1_555
O0 P0 1.526056 1_565
O1 P1 1.526056 1_565
O2 P2 1.526056 1_545
O3 P3 1.526056 1_545
O4 P0 1.528334 1_555
O5 P1 1.528334 1_555
O6 P2 1.528334 1_555
O7 P3 1.528334 1_555
O8 P0 1.582461 1_555
O9 P1 1.582461 1_555
O10 P2 1.582461 1_555
O11 P3 1.582461 1_555
O12 P0 1.593791 1_565
O13 P1 1.593791 1_565
O14 P2 1.593791 1_545
O15 P3 1.593791 1_545
