# generated using pymatgen
data_LiMn(CO3)2
_symmetry_space_group_name_H-M   'P 1'
_cell_length_a   7.46670371
_cell_length_b   8.03277601
_cell_length_c   7.44616588
_cell_angle_alpha   110.54857959
_cell_angle_beta   100.66274033
_cell_angle_gamma   70.23914159
_symmetry_Int_Tables_number   1
_chemical_formula_structural   LiMn(CO3)2
_chemical_formula_sum   'Li4 Mn4 C8 O24'
_cell_volume   392.44937584
_cell_formula_units_Z   4
loop_
 _symmetry_equiv_pos_site_id
 _symmetry_equiv_pos_as_xyz
  1  'x, y, z'
loop_
 _atom_site_type_symbol
 _atom_site_label
 _atom_site_symmetry_multiplicity
 _atom_site_fract_x
 _atom_site_fract_y
 _atom_site_fract_z
 _atom_site_occupancy
  Li  Li0  1  0.50069200  0.99985300  0.49993100  1
  Li  Li1  1  0.75019100  0.49988300  0.74996200  1
  Li  Li2  1  0.00041000  0.99994900  0.99983600  1
  Li  Li3  1  0.25015400  0.49989800  0.24994400  1
  Mn  Mn0  1  0.25000800  0.49982200  0.74992600  1
  Mn  Mn1  1  0.50018800  0.99998600  0.00046600  1
  Mn  Mn2  1  0.74966100  0.50006700  0.25000100  1
  Mn  Mn3  1  0.00027500  0.99971500  0.50006700  1
  C  C0  1  0.39250600  0.74323100  0.12493000  1
  C  C1  1  0.63001600  0.24863700  0.36508300  1
  C  C2  1  0.89254800  0.74318900  0.62496600  1
  C  C3  1  0.12998800  0.24853100  0.86491500  1
  C  C4  1  0.10722300  0.25691300  0.37495600  1
  C  C5  1  0.36999000  0.75148400  0.63521300  1
  C  C6  1  0.60733300  0.25689100  0.87499600  1
  C  C7  1  0.86995200  0.75143400  0.13507000  1
  O  O0  1  0.46417900  0.26211500  0.74438600  1
  O  O1  1  0.74864700  0.75141000  0.99036200  1
  O  O2  1  0.96404600  0.26226100  0.24442600  1
  O  O3  1  0.24876300  0.75142900  0.49042100  1
  O  O4  1  0.07052100  0.38728900  0.79328100  1
  O  O5  1  0.32982700  0.88674000  0.06022400  1
  O  O6  1  0.57039500  0.38734400  0.29336800  1
  O  O7  1  0.82981500  0.88669900  0.56014300  1
  O  O8  1  0.30955100  0.61666500  0.06258300  1
  O  O9  1  0.55672000  0.11063600  0.28695000  1
  O  O10  1  0.80950500  0.61669400  0.56262800  1
  O  O11  1  0.05671600  0.11058200  0.78672800  1
  O  O12  1  0.19025800  0.38350400  0.43751300  1
  O  O13  1  0.44348100  0.88928200  0.71362300  1
  O  O14  1  0.69028800  0.38345700  0.93749300  1
  O  O15  1  0.94348200  0.88919400  0.21338200  1
  O  O16  1  0.42932200  0.61262100  0.70662300  1
  O  O17  1  0.66995300  0.11322100  0.93952500  1
  O  O18  1  0.92926000  0.61260800  0.20655300  1
  O  O19  1  0.16989900  0.11320700  0.43941200  1
  O  O20  1  0.03585100  0.73792700  0.75532700  1
  O  O21  1  0.25123400  0.24880300  0.00968100  1
  O  O22  1  0.53583200  0.73796600  0.25538300  1
  O  O23  1  0.75132200  0.24886500  0.50972400  1
loop_
_geom_bond_atom_site_label_1
_geom_bond_atom_site_label_2
_geom_bond_distance
_geom_bond_site_symmetry_2
Li0 O22 2.219138 1_555
Li0 O0 2.220156 1_565
Li0 O9 2.229337 1_565
Li0 O13 2.236841 1_555
Li0 O7 2.331153 1_555
Li0 O19 2.342681 1_565
Li1 O10 2.109699 1_555
Li1 O14 2.110770 1_555
Li1 O23 2.174345 1_555
Li1 O1 2.177068 1_555
Li1 O4 2.258173 1_655
Li1 O16 2.261904 1_555
Li2 O20 2.219550 1_555
Li2 O2 2.220969 1_466
Li2 O11 2.230261 1_565
Li2 O15 2.235964 1_456
Li2 O5 2.333320 1_556
Li2 O17 2.340183 1_465
Li3 O8 2.109906 1_555
Li3 O12 2.110795 1_555
Li3 O21 2.174892 1_555
Li3 O3 2.177552 1_555
Li3 O6 2.257615 1_555
Li3 O18 2.262085 1_455
Mn0 O4 1.975236 1_555
Mn0 O16 1.975538 1_555
Mn0 O0 2.027153 1_555
Mn0 O20 2.029411 1_555
Mn0 O12 2.203541 1_555
Mn0 O8 2.205404 1_556
Mn1 O5 1.979810 1_555
Mn1 O17 1.980476 1_564
Mn1 O9 2.026871 1_565
Mn1 O13 2.029442 1_554
Mn1 O1 2.208102 1_554
Mn1 O21 2.212133 1_565
Mn2 O6 1.974988 1_555
Mn2 O18 1.976317 1_555
Mn2 O22 2.027169 1_555
Mn2 O2 2.028399 1_555
Mn2 O14 2.204020 1_554
Mn2 O10 2.205335 1_555
Mn3 O19 1.980073 1_565
Mn3 O7 1.980232 1_455
Mn3 O11 2.028138 1_565
Mn3 O15 2.028330 1_455
Mn3 O3 2.207240 1_555
Mn3 O23 2.213329 1_465
C0 O8 1.273138 1_555
C0 O22 1.305441 1_555
C0 O5 1.312143 1_555
C1 O23 1.272444 1_555
C1 O9 1.306328 1_555
C1 O6 1.311143 1_555
C2 O10 1.273115 1_555
C2 O20 1.304912 1_655
C2 O7 1.312678 1_555
C3 O21 1.272840 1_556
C3 O11 1.305897 1_555
C3 O4 1.311142 1_555
C4 O12 1.273710 1_555
C4 O2 1.305052 1_455
C4 O19 1.312413 1_555
C5 O3 1.272997 1_555
C5 O13 1.306024 1_555
C5 O16 1.310837 1_555
C6 O14 1.273133 1_555
C6 O0 1.305280 1_555
C6 O17 1.312491 1_555
C7 O1 1.272887 1_554
C7 O15 1.305899 1_555
C7 O18 1.310929 1_555
