# generated using pymatgen
data_CoAg(PO3)3
_symmetry_space_group_name_H-M   'P 1'
_cell_length_a   10.11227000
_cell_length_b   10.91008800
_cell_length_c   14.14223700
_cell_angle_alpha   90.00000000
_cell_angle_beta   90.00000000
_cell_angle_gamma   90.00000000
_symmetry_Int_Tables_number   1
_chemical_formula_structural   CoAg(PO3)3
_chemical_formula_sum   'Co8 Ag8 P24 O72'
_cell_volume   1560.25298261
_cell_formula_units_Z   8
loop_
 _symmetry_equiv_pos_site_id
 _symmetry_equiv_pos_as_xyz
  1  'x, y, z'
loop_
 _atom_site_type_symbol
 _atom_site_label
 _atom_site_symmetry_multiplicity
 _atom_site_fract_x
 _atom_site_fract_y
 _atom_site_fract_z
 _atom_site_occupancy
  Co  Co0  1  0.96787500  0.50000000  0.75000000  1
  Co  Co1  1  0.03212500  0.50000000  0.25000000  1
  Co  Co2  1  0.53212500  0.50000000  0.25000000  1
  Co  Co3  1  0.46787500  0.50000000  0.75000000  1
  Co  Co4  1  0.50000000  0.00000000  0.50000000  1
  Co  Co5  1  0.50000000  0.00000000  0.00000000  1
  Co  Co6  1  0.00000000  0.00000000  0.50000000  1
  Co  Co7  1  0.00000000  0.00000000  0.00000000  1
  Ag  Ag0  1  0.52415100  0.24849900  0.87686400  1
  Ag  Ag1  1  0.47584900  0.75150100  0.12313600  1
  Ag  Ag2  1  0.52415100  0.75150100  0.62313600  1
  Ag  Ag3  1  0.97584900  0.24849900  0.12313600  1
  Ag  Ag4  1  0.47584900  0.24849900  0.37686400  1
  Ag  Ag5  1  0.02415100  0.75150100  0.87686400  1
  Ag  Ag6  1  0.97584900  0.75150100  0.37686400  1
  Ag  Ag7  1  0.02415100  0.24849900  0.62313600  1
  P  P0  1  0.71413900  0.46947700  0.60105700  1
  P  P1  1  0.28586100  0.53052300  0.39894300  1
  P  P2  1  0.71413900  0.53052300  0.89894300  1
  P  P3  1  0.78586100  0.46947700  0.39894300  1
  P  P4  1  0.28586100  0.46947700  0.10105700  1
  P  P5  1  0.21413900  0.53052300  0.60105700  1
  P  P6  1  0.78586100  0.53052300  0.10105700  1
  P  P7  1  0.21413900  0.46947700  0.89894300  1
  P  P8  1  0.73798600  0.04604400  0.64874500  1
  P  P9  1  0.26201400  0.95395600  0.35125500  1
  P  P10  1  0.73798600  0.95395600  0.85125500  1
  P  P11  1  0.76201400  0.04604400  0.35125500  1
  P  P12  1  0.26201400  0.04604400  0.14874500  1
  P  P13  1  0.23798600  0.95395600  0.64874500  1
  P  P14  1  0.76201400  0.95395600  0.14874500  1
  P  P15  1  0.23798600  0.04604400  0.85125500  1
  P  P16  1  0.54924600  0.25079500  0.62658100  1
  P  P17  1  0.45075400  0.74920500  0.37341900  1
  P  P18  1  0.54924600  0.74920500  0.87341900  1
  P  P19  1  0.95075400  0.25079500  0.37341900  1
  P  P20  1  0.45075400  0.25079500  0.12658100  1
  P  P21  1  0.04924600  0.74920500  0.62658100  1
  P  P22  1  0.95075400  0.74920500  0.12658100  1
  P  P23  1  0.04924600  0.25079500  0.87341900  1
  O  O0  1  0.83843100  0.43196000  0.65047100  1
  O  O1  1  0.16156900  0.56804000  0.34952900  1
  O  O2  1  0.83843100  0.56804000  0.84952900  1
  O  O3  1  0.66156900  0.43196000  0.34952900  1
  O  O4  1  0.16156900  0.43196000  0.15047100  1
  O  O5  1  0.33843100  0.56804000  0.65047100  1
  O  O6  1  0.66156900  0.56804000  0.15047100  1
  O  O7  1  0.33843100  0.43196000  0.84952900  1
  O  O8  1  0.52480700  0.17477000  0.05554600  1
  O  O9  1  0.47519300  0.82523000  0.94445400  1
  O  O10  1  0.52480700  0.82523000  0.44445400  1
  O  O11  1  0.97519300  0.17477000  0.94445400  1
  O  O12  1  0.47519300  0.17477000  0.55554600  1
  O  O13  1  0.02480700  0.82523000  0.05554600  1
  O  O14  1  0.97519300  0.82523000  0.55554600  1
  O  O15  1  0.02480700  0.17477000  0.44445400  1
  O  O16  1  0.75000000  0.52931400  0.50000000  1
  O  O17  1  0.25000000  0.47068600  0.50000000  1
  O  O18  1  0.75000000  0.47068600  0.00000000  1
  O  O19  1  0.25000000  0.52931400  0.00000000  1
  O  O20  1  0.64115400  0.04391800  0.89318500  1
  O  O21  1  0.35884600  0.95608200  0.10681500  1
  O  O22  1  0.64115400  0.95608200  0.60681500  1
  O  O23  1  0.85884600  0.04391800  0.10681500  1
  O  O24  1  0.35884600  0.04391800  0.39318500  1
  O  O25  1  0.14115400  0.95608200  0.89318500  1
  O  O26  1  0.85884600  0.95608200  0.39318500  1
  O  O27  1  0.14115400  0.04391800  0.60681500  1
  O  O28  1  0.63612400  0.34759700  0.56629800  1
  O  O29  1  0.36387600  0.65240300  0.43370200  1
  O  O30  1  0.63612400  0.65240300  0.93370200  1
  O  O31  1  0.86387600  0.34759700  0.43370200  1
  O  O32  1  0.36387600  0.34759700  0.06629800  1
  O  O33  1  0.13612400  0.65240300  0.56629800  1
  O  O34  1  0.86387600  0.65240300  0.06629800  1
  O  O35  1  0.13612400  0.34759700  0.93370200  1
  O  O36  1  0.85824100  0.08284700  0.59287200  1
  O  O37  1  0.14175900  0.91715300  0.40712800  1
  O  O38  1  0.85824100  0.91715300  0.90712800  1
  O  O39  1  0.64175900  0.08284700  0.40712800  1
  O  O40  1  0.14175900  0.08284700  0.09287200  1
  O  O41  1  0.35824100  0.91715300  0.59287200  1
  O  O42  1  0.64175900  0.91715300  0.09287200  1
  O  O43  1  0.35824100  0.08284700  0.90712800  1
  O  O44  1  0.61908900  0.44481100  0.84962400  1
  O  O45  1  0.38091100  0.55518900  0.15037600  1
  O  O46  1  0.61908900  0.55518900  0.65037600  1
  O  O47  1  0.88091100  0.44481100  0.15037600  1
  O  O48  1  0.38091100  0.44481100  0.34962400  1
  O  O49  1  0.11908900  0.55518900  0.84962400  1
  O  O50  1  0.88091100  0.55518900  0.34962400  1
  O  O51  1  0.11908900  0.44481100  0.65037600  1
  O  O52  1  0.65964400  0.16914900  0.68061300  1
  O  O53  1  0.34035600  0.83085100  0.31938700  1
  O  O54  1  0.65964400  0.83085100  0.81938700  1
  O  O55  1  0.84035600  0.16914900  0.31938700  1
  O  O56  1  0.34035600  0.16914900  0.18061300  1
  O  O57  1  0.15964400  0.83085100  0.68061300  1
  O  O58  1  0.84035600  0.83085100  0.18061300  1
  O  O59  1  0.15964400  0.16914900  0.81938700  1
  O  O60  1  0.79098600  0.00000000  0.75000000  1
  O  O61  1  0.20901400  0.00000000  0.25000000  1
  O  O62  1  0.70901400  0.00000000  0.25000000  1
  O  O63  1  0.29098600  0.00000000  0.75000000  1
  O  O64  1  0.97387600  0.31711000  0.79786600  1
  O  O65  1  0.02612400  0.68289000  0.20213400  1
  O  O66  1  0.97387600  0.68289000  0.70213400  1
  O  O67  1  0.52612400  0.31711000  0.20213400  1
  O  O68  1  0.02612400  0.31711000  0.29786600  1
  O  O69  1  0.47387600  0.68289000  0.79786600  1
  O  O70  1  0.52612400  0.68289000  0.29786600  1
  O  O71  1  0.47387600  0.31711000  0.70213400  1
loop_
_geom_bond_atom_site_label_1
_geom_bond_atom_site_label_2
_geom_bond_distance
_geom_bond_site_symmetry_2
Co0 O0 2.060506 1_555
Co0 O2 2.060506 1_555
Co0 O64 2.107920 1_555
Co0 O66 2.107920 1_555
Co0 O49 2.164662 1_655
Co0 O51 2.164662 1_655
Co1 O4 2.060506 1_555
Co1 O1 2.060506 1_555
Co1 O68 2.107920 1_555
Co1 O65 2.107920 1_555
Co1 O50 2.164662 1_455
Co1 O47 2.164662 1_455
Co2 O3 2.060506 1_555
Co2 O6 2.060506 1_555
Co2 O70 2.107920 1_555
Co2 O67 2.107920 1_555
Co2 O48 2.164662 1_555
Co2 O45 2.164662 1_555
Co3 O7 2.060506 1_555
Co3 O5 2.060506 1_555
Co3 O69 2.107920 1_555
Co3 O71 2.107920 1_555
Co3 O44 2.164662 1_555
Co3 O46 2.164662 1_555
Co4 O12 2.077433 1_555
Co4 O10 2.077433 1_545
Co4 O22 2.132824 1_545
Co4 O24 2.132824 1_555
Co4 O39 2.144057 1_555
Co4 O41 2.144057 1_545
Co5 O8 2.077433 1_555
Co5 O9 2.077433 1_544
Co5 O21 2.132824 1_545
Co5 O20 2.132824 1_554
Co5 O42 2.144057 1_545
Co5 O43 2.144057 1_554
Co6 O14 2.077433 1_445
Co6 O15 2.077433 1_555
Co6 O27 2.132824 1_555
Co6 O26 2.132824 1_445
Co6 O37 2.144057 1_545
Co6 O36 2.144057 1_455
Co7 O13 2.077433 1_545
Co7 O11 2.077433 1_454
Co7 O23 2.132824 1_455
Co7 O25 2.132824 1_544
Co7 O40 2.144057 1_555
Co7 O38 2.144057 1_444
Ag0 O44 2.378509 1_555
Ag0 O43 2.502839 1_555
Ag0 O20 2.536724 1_555
Ag0 O71 2.631539 1_555
Ag0 O8 2.651911 1_556
Ag0 O7 2.771790 1_555
Ag1 O45 2.378509 1_555
Ag1 O42 2.502839 1_555
Ag1 O21 2.536724 1_555
Ag1 O70 2.631539 1_555
Ag1 O9 2.651911 1_554
Ag1 O6 2.771790 1_555
Ag2 O46 2.378509 1_555
Ag2 O41 2.502839 1_555
Ag2 O22 2.536724 1_555
Ag2 O69 2.631539 1_555
Ag2 O10 2.651911 1_555
Ag2 O5 2.771790 1_555
Ag3 O47 2.378509 1_555
Ag3 O40 2.502839 1_655
Ag3 O23 2.536724 1_555
Ag3 O68 2.631539 1_655
Ag3 O11 2.651911 1_554
Ag3 O4 2.771790 1_655
Ag4 O48 2.378509 1_555
Ag4 O39 2.502839 1_555
Ag4 O24 2.536724 1_555
Ag4 O67 2.631539 1_555
Ag4 O12 2.651911 1_555
Ag4 O3 2.771790 1_555
Ag5 O49 2.378509 1_555
Ag5 O38 2.502839 1_455
Ag5 O25 2.536724 1_555
Ag5 O66 2.631539 1_455
Ag5 O13 2.651911 1_556
Ag5 O2 2.771790 1_455
Ag6 O50 2.378509 1_555
Ag6 O37 2.502839 1_655
Ag6 O26 2.536724 1_555
Ag6 O65 2.631539 1_655
Ag6 O14 2.651911 1_555
Ag6 O1 2.771790 1_655
Ag7 O51 2.378509 1_555
Ag7 O36 2.502839 1_455
Ag7 O27 2.536724 1_555
Ag7 O64 2.631539 1_455
Ag7 O15 2.651911 1_555
Ag7 O0 2.771790 1_455
O0 P0 1.495201 1_555
O1 P1 1.495201 1_555
O2 P2 1.495201 1_555
O3 P3 1.495201 1_555
O4 P4 1.495201 1_555
O5 P5 1.495201 1_555
O6 P6 1.495201 1_555
O7 P7 1.495201 1_555
O8 P20 1.502646 1_555
O9 P18 1.502646 1_555
O10 P17 1.502646 1_555
O11 P23 1.502646 1_655
O12 P16 1.502646 1_555
O13 P22 1.502646 1_455
O14 P21 1.502646 1_655
O15 P19 1.502646 1_455
O16 P3 1.612520 1_555
O16 P0 1.612520 1_555
O17 P5 1.612520 1_555
O17 P1 1.612520 1_555
O18 P6 1.612520 1_555
O18 P2 1.612520 1_554
O19 P4 1.612520 1_555
O19 P7 1.612520 1_554
O20 P10 1.507904 1_545
O21 P12 1.507904 1_565
O22 P8 1.507904 1_565
O23 P14 1.507904 1_545
O24 P9 1.507904 1_545
O25 P15 1.507904 1_565
O26 P11 1.507904 1_565
O27 P13 1.507904 1_545
O28 P16 1.616795 1_555
O28 P0 1.622399 1_555
O29 P17 1.616795 1_555
O29 P1 1.622399 1_555
O30 P18 1.616795 1_555
O30 P2 1.622399 1_555
O31 P19 1.616795 1_555
O31 P3 1.622399 1_555
O32 P20 1.616795 1_555
O32 P4 1.622399 1_555
O33 P21 1.616795 1_555
O33 P5 1.622399 1_555
O34 P22 1.616795 1_555
O34 P6 1.622399 1_555
O35 P23 1.616795 1_555
O35 P7 1.622399 1_555
O36 P8 1.504782 1_555
O37 P9 1.504782 1_555
O38 P10 1.504782 1_555
O39 P11 1.504782 1_555
O40 P12 1.504782 1_555
O41 P13 1.504782 1_555
O42 P14 1.504782 1_555
O43 P15 1.504782 1_555
O44 P2 1.511552 1_555
O45 P4 1.511552 1_555
O46 P0 1.511552 1_555
O47 P6 1.511552 1_555
O48 P1 1.511552 1_555
O49 P7 1.511552 1_555
O50 P3 1.511552 1_555
O51 P5 1.511552 1_555
O52 P16 1.619770 1_555
O52 P8 1.623146 1_555
O53 P17 1.619770 1_555
O53 P9 1.623146 1_555
O54 P18 1.619770 1_555
O54 P10 1.623146 1_555
O55 P19 1.619770 1_555
O55 P11 1.623146 1_555
O56 P20 1.619770 1_555
O56 P12 1.623146 1_555
O57 P21 1.619770 1_555
O57 P13 1.623146 1_555
O58 P22 1.619770 1_555
O58 P14 1.623146 1_555
O59 P23 1.619770 1_555
O59 P15 1.623146 1_555
O60 P8 1.609390 1_555
O60 P10 1.609390 1_545
O61 P12 1.609390 1_555
O61 P9 1.609390 1_545
O62 P11 1.609390 1_555
O62 P14 1.609390 1_545
O63 P15 1.609390 1_555
O63 P13 1.609390 1_545
O64 P23 1.498671 1_655
O65 P22 1.498671 1_455
O66 P21 1.498671 1_655
O67 P20 1.498671 1_555
O68 P19 1.498671 1_455
O69 P18 1.498671 1_555
O70 P17 1.498671 1_555
O71 P16 1.498671 1_555
