# generated using pymatgen
data_Na3In2(PO4)3
_symmetry_space_group_name_H-M   'P 1'
_cell_length_a   9.05353741
_cell_length_b   9.05353741
_cell_length_c   6.70580566
_cell_angle_alpha   73.28573592
_cell_angle_beta   73.28573592
_cell_angle_gamma   91.58217302
_symmetry_Int_Tables_number   1
_chemical_formula_structural   Na3In2(PO4)3
_chemical_formula_sum   'Na6 In4 P6 O24'
_cell_volume   500.52834925
_cell_formula_units_Z   2
loop_
 _symmetry_equiv_pos_site_id
 _symmetry_equiv_pos_as_xyz
  1  'x, y, z'
loop_
 _atom_site_type_symbol
 _atom_site_label
 _atom_site_symmetry_multiplicity
 _atom_site_fract_x
 _atom_site_fract_y
 _atom_site_fract_z
 _atom_site_occupancy
  Na  Na0  1  0.72475300  0.27524700  0.25000000  1
  Na  Na1  1  0.01678000  0.98322000  0.25000000  1
  Na  Na2  1  0.50000000  0.50000000  0.50000000  1
  Na  Na3  1  0.98322000  0.01678000  0.75000000  1
  Na  Na4  1  0.27524700  0.72475300  0.75000000  1
  Na  Na5  1  0.50000000  0.50000000  0.00000000  1
  In  In0  1  0.61614000  0.92891800  0.15420300  1
  In  In1  1  0.38386000  0.07108200  0.84579700  1
  In  In2  1  0.92891800  0.61614000  0.65420300  1
  In  In3  1  0.07108200  0.38386000  0.34579700  1
  P  P0  1  0.34112000  0.13791400  0.36664600  1
  P  P1  1  0.13791400  0.34112000  0.86664600  1
  P  P2  1  0.27453400  0.72546600  0.25000000  1
  P  P3  1  0.72546600  0.27453400  0.75000000  1
  P  P4  1  0.86208600  0.65888000  0.13335400  1
  P  P5  1  0.65888000  0.86208600  0.63335400  1
  O  O0  1  0.26005300  0.56238500  0.21837000  1
  O  O1  1  0.43761500  0.73994700  0.28163000  1
  O  O2  1  0.73994700  0.43761500  0.78163000  1
  O  O3  1  0.56238500  0.26005300  0.71837000  1
  O  O4  1  0.15343700  0.74491700  0.45569200  1
  O  O5  1  0.25508300  0.84656300  0.04430800  1
  O  O6  1  0.84656300  0.25508300  0.54430800  1
  O  O7  1  0.74491700  0.15343700  0.95569200  1
  O  O8  1  0.66618900  0.98986200  0.41577300  1
  O  O9  1  0.01013800  0.33381100  0.08422700  1
  O  O10  1  0.33381100  0.01013800  0.58422700  1
  O  O11  1  0.98986200  0.66618900  0.91577300  1
  O  O12  1  0.83241800  0.83585000  0.62018300  1
  O  O13  1  0.16415000  0.16758200  0.87981700  1
  O  O14  1  0.16758200  0.16415000  0.37981700  1
  O  O15  1  0.83585000  0.83241800  0.12018300  1
  O  O16  1  0.71308800  0.55806500  0.17235600  1
  O  O17  1  0.44193500  0.28691200  0.32764400  1
  O  O18  1  0.28691200  0.44193500  0.82764400  1
  O  O19  1  0.55806500  0.71308800  0.67235600  1
  O  O20  1  0.93515400  0.59372100  0.32445700  1
  O  O21  1  0.40627900  0.06484600  0.17554300  1
  O  O22  1  0.06484600  0.40627900  0.67554300  1
  O  O23  1  0.59372100  0.93515400  0.82445700  1
loop_
_geom_bond_atom_site_label_1
_geom_bond_atom_site_label_2
_geom_bond_distance
_geom_bond_site_symmetry_2
Na0 O17 2.473489 1_555
Na0 O16 2.473489 1_555
Na0 O8 2.475045 1_545
Na0 O9 2.475045 1_655
Na0 O6 2.490039 1_555
Na0 O7 2.490039 1_554
Na1 O13 2.513362 1_564
Na1 O12 2.513362 1_455
Na1 O15 2.585619 1_455
Na1 O14 2.585619 1_565
Na1 O4 2.739583 1_555
Na1 O5 2.739583 1_555
Na2 O16 2.380556 1_555
Na2 O18 2.380556 1_555
Na2 O3 2.428214 1_555
Na2 O1 2.428214 1_555
Na2 O17 2.628694 1_555
Na2 O19 2.628694 1_555
Na3 O14 2.513362 1_655
Na3 O15 2.513362 1_546
Na3 O12 2.585619 1_545
Na3 O13 2.585619 1_655
Na3 O7 2.739583 1_555
Na3 O6 2.739583 1_555
Na4 O18 2.473489 1_555
Na4 O19 2.473489 1_555
Na4 O11 2.475045 1_455
Na4 O10 2.475045 1_565
Na4 O5 2.490039 1_556
Na4 O4 2.490039 1_555
Na5 O17 2.380556 1_555
Na5 O19 2.380556 1_554
Na5 O0 2.428214 1_555
Na5 O2 2.428214 1_554
Na5 O18 2.628694 1_554
Na5 O16 2.628694 1_555
In0 O1 2.116969 1_555
In0 O8 2.141597 1_555
In0 O7 2.164063 1_564
In0 O15 2.172937 1_555
In0 O23 2.262924 1_554
In0 O21 2.284489 1_565
In1 O3 2.116969 1_555
In1 O10 2.141597 1_555
In1 O5 2.164063 1_546
In1 O13 2.172937 1_555
In1 O21 2.262924 1_556
In1 O23 2.284489 1_545
In2 O2 2.116969 1_555
In2 O11 2.141597 1_555
In2 O4 2.164063 1_655
In2 O12 2.172937 1_555
In2 O20 2.262924 1_555
In2 O22 2.284489 1_655
In3 O0 2.116969 1_555
In3 O9 2.141597 1_555
In3 O6 2.164063 1_455
In3 O14 2.172937 1_555
In3 O22 2.262924 1_555
In3 O20 2.284489 1_455
O0 P2 1.558059 1_555
O1 P2 1.558059 1_555
O2 P3 1.558059 1_555
O3 P3 1.558059 1_555
O4 P2 1.554382 1_555
O5 P2 1.554382 1_555
O6 P3 1.554382 1_555
O7 P3 1.554382 1_555
O8 P5 1.562320 1_555
O9 P1 1.562320 1_554
O10 P0 1.562320 1_555
O11 P4 1.562320 1_556
O12 P5 1.576558 1_555
O13 P1 1.576558 1_555
O14 P0 1.576558 1_555
O15 P4 1.576558 1_555
O16 P4 1.520836 1_555
O17 P0 1.520836 1_555
O18 P1 1.520836 1_555
O19 P5 1.520836 1_555
O20 P4 1.581831 1_555
O21 P0 1.581831 1_555
O22 P1 1.581831 1_555
O23 P5 1.581831 1_555
