# generated using pymatgen
data_In4CuAg3Te8
_symmetry_space_group_name_H-M   'P 1'
_cell_length_a   6.52372700
_cell_length_b   6.52372700
_cell_length_c   12.83391500
_cell_angle_alpha   90.00000000
_cell_angle_beta   90.00000000
_cell_angle_gamma   90.00000000
_symmetry_Int_Tables_number   1
_chemical_formula_structural   In4CuAg3Te8
_chemical_formula_sum   'In4 Cu1 Ag3 Te8'
_cell_volume   546.19876778
_cell_formula_units_Z   1
loop_
 _symmetry_equiv_pos_site_id
 _symmetry_equiv_pos_as_xyz
  1  'x, y, z'
loop_
 _atom_site_type_symbol
 _atom_site_label
 _atom_site_symmetry_multiplicity
 _atom_site_fract_x
 _atom_site_fract_y
 _atom_site_fract_z
 _atom_site_occupancy
  In  In0  1  0.50000000  0.00000000  0.25231800  1
  In  In1  1  0.00000000  0.50000000  0.74768200  1
  In  In2  1  0.50000000  0.50000000  0.00000000  1
  In  In3  1  0.00000000  0.00000000  0.50000000  1
  Cu  Cu0  1  0.50000000  0.50000000  0.50000000  1
  Ag  Ag0  1  0.00000000  0.50000000  0.25152600  1
  Ag  Ag1  1  0.50000000  0.00000000  0.74847400  1
  Ag  Ag2  1  0.00000000  0.00000000  0.00000000  1
  Te  Te0  1  0.73794800  0.26798800  0.38120100  1
  Te  Te1  1  0.24937600  0.75695300  0.87451400  1
  Te  Te2  1  0.26205200  0.73201200  0.38120100  1
  Te  Te3  1  0.75062400  0.24304700  0.87451400  1
  Te  Te4  1  0.24304700  0.24937600  0.12548600  1
  Te  Te5  1  0.73201200  0.73794800  0.61879900  1
  Te  Te6  1  0.75695300  0.75062400  0.12548600  1
  Te  Te7  1  0.26798800  0.26205200  0.61879900  1
loop_
_geom_bond_atom_site_label_1
_geom_bond_atom_site_label_2
_geom_bond_distance
_geom_bond_site_symmetry_2
In0 Te6 2.847139 1_545
In0 Te4 2.847139 1_555
In0 Te0 2.863931 1_555
In0 Te2 2.863931 1_545
In1 Te1 2.847139 1_555
In1 Te3 2.847139 1_455
In1 Te5 2.863931 1_455
In1 Te7 2.863931 1_555
In2 Te1 2.841975 1_554
In2 Te6 2.841975 1_555
In2 Te3 2.841975 1_554
In2 Te4 2.841975 1_555
In3 Te7 2.881604 1_555
In3 Te5 2.881604 1_445
In3 Te2 2.881604 1_545
In3 Te0 2.881604 1_455
Cu0 Te5 2.650504 1_555
Cu0 Te7 2.650504 1_555
Cu0 Te0 2.650504 1_555
Cu0 Te2 2.650504 1_555
Ag0 Te4 2.793539 1_555
Ag0 Te6 2.793539 1_455
Ag0 Te2 2.825456 1_555
Ag0 Te0 2.825456 1_455
Ag1 Te3 2.793539 1_555
Ag1 Te1 2.793539 1_545
Ag1 Te7 2.825456 1_555
Ag1 Te5 2.825456 1_545
Ag2 Te3 2.784664 1_454
Ag2 Te4 2.784664 1_555
Ag2 Te1 2.784664 1_544
Ag2 Te6 2.784664 1_445
