# generated using pymatgen
data_Lu2AlCo3
_symmetry_space_group_name_H-M   'P 1'
_cell_length_a   4.85137010
_cell_length_b   4.85140441
_cell_length_c   4.85132942
_cell_angle_alpha   64.92907122
_cell_angle_beta   64.92951333
_cell_angle_gamma   64.92849432
_symmetry_Int_Tables_number   1
_chemical_formula_structural   Lu2AlCo3
_chemical_formula_sum   'Lu2 Al1 Co3'
_cell_volume   89.43359453
_cell_formula_units_Z   1
loop_
 _symmetry_equiv_pos_site_id
 _symmetry_equiv_pos_as_xyz
  1  'x, y, z'
loop_
 _atom_site_type_symbol
 _atom_site_label
 _atom_site_symmetry_multiplicity
 _atom_site_fract_x
 _atom_site_fract_y
 _atom_site_fract_z
 _atom_site_occupancy
  Lu  Lu0  1  0.62884841  0.62885031  0.62884682  1
  Lu  Lu1  1  0.37115159  0.37114969  0.37115318  1
  Al  Al0  1  0.00000000  0.00000000  -0.00000000  1
  Co  Co0  1  0.00000000  0.50000000  -0.00000000  1
  Co  Co1  1  0.50000000  0.00000000  -0.00000000  1
  Co  Co2  1  0.00000000  0.00000000  0.50000000  1
loop_
_geom_bond_atom_site_label_1
_geom_bond_atom_site_label_2
_geom_bond_distance
_geom_bond_site_symmetry_2
Lu0 Lu1 2.943230 1_555
Lu0 Lu1 3.128579 1_565
Lu0 Lu1 3.128589 1_655
Lu0 Lu1 3.128597 1_556
Al0 Co2 2.425665 1_555
Al0 Co2 2.425665 1_554
Al0 Co1 2.425685 1_455
Al0 Co1 2.425685 1_555
Al0 Co0 2.425702 1_555
Al0 Co0 2.425702 1_545
Al0 Lu1 3.037815 1_545
Al0 Lu0 3.037815 1_454
Al0 Lu1 3.037821 1_455
Al0 Lu0 3.037821 1_544
Al0 Lu1 3.037834 1_554
Al0 Lu0 3.037834 1_445
Co0 Co1 2.604095 1_555
Co0 Co1 2.604095 1_465
Co0 Co2 2.604104 1_555
Co0 Co2 2.604104 1_564
Co0 Lu0 2.777553 1_454
Co0 Lu1 2.777553 1_555
Co0 Lu1 2.991143 1_554
Co0 Lu0 2.991143 1_455
Co0 Lu0 2.991180 1_554
Co0 Lu1 2.991180 1_455
Co1 Co2 2.604111 1_555
Co1 Co2 2.604111 1_654
Co1 Lu1 2.777571 1_555
Co1 Lu0 2.777571 1_544
Co1 Lu1 2.991120 1_554
Co1 Lu0 2.991120 1_545
Co1 Lu0 2.991191 1_554
Co1 Lu1 2.991191 1_545
Co2 Lu0 2.777596 1_445
Co2 Lu1 2.777596 1_555
Co2 Lu0 2.991131 1_545
Co2 Lu1 2.991131 1_455
Co2 Lu1 2.991164 1_545
Co2 Lu0 2.991164 1_455
