# generated using pymatgen
data_Ho2MgCu(SiO3)4
_symmetry_space_group_name_H-M   'P 1'
_cell_length_a   5.22426215
_cell_length_b   7.28525296
_cell_length_c   7.71214151
_cell_angle_alpha   63.43838140
_cell_angle_beta   88.05641000
_cell_angle_gamma   81.22397100
_symmetry_Int_Tables_number   1
_chemical_formula_structural   Ho2MgCu(SiO3)4
_chemical_formula_sum   'Ho2 Mg1 Cu1 Si4 O12'
_cell_volume   259.27500881
_cell_formula_units_Z   1
loop_
 _symmetry_equiv_pos_site_id
 _symmetry_equiv_pos_as_xyz
  1  'x, y, z'
loop_
 _atom_site_type_symbol
 _atom_site_label
 _atom_site_symmetry_multiplicity
 _atom_site_fract_x
 _atom_site_fract_y
 _atom_site_fract_z
 _atom_site_occupancy
  Ho  Ho0  1  0.00306900  0.78773600  0.42315900  1
  Ho  Ho1  1  0.96983900  0.21489700  0.58788400  1
  Mg  Mg0  1  0.91205300  0.22517700  0.02891400  1
  Cu  Cu0  1  0.17137300  0.92646800  0.99354100  1
  Si  Si0  1  0.57420100  0.58801500  0.22633000  1
  Si  Si1  1  0.40041300  0.43559800  0.77472100  1
  Si  Si2  1  0.40561000  0.19933100  0.22827000  1
  Si  Si3  1  0.56438900  0.82273500  0.76682400  1
  O  O0  1  0.32720800  0.73902800  0.24724300  1
  O  O1  1  0.68651600  0.30752100  0.78949600  1
  O  O2  1  0.27826800  0.35223700  0.99911700  1
  O  O3  1  0.65158100  0.65431500  0.99688400  1
  O  O4  1  0.16728100  0.44360300  0.63870700  1
  O  O5  1  0.82452900  0.55845500  0.35934500  1
  O  O6  1  0.33948600  0.01325100  0.74415300  1
  O  O7  1  0.66668100  0.05099700  0.22395800  1
  O  O8  1  0.50109100  0.34931400  0.31507700  1
  O  O9  1  0.42602200  0.68640000  0.68150700  1
  O  O10  1  0.14520500  0.11302300  0.33802200  1
  O  O11  1  0.81851600  0.90227000  0.64518200  1
loop_
_geom_bond_atom_site_label_1
_geom_bond_atom_site_label_2
_geom_bond_distance
_geom_bond_site_symmetry_2
Ho0 O0 2.219331 1_555
Ho0 O5 2.268058 1_455
Ho0 O11 2.340510 1_455
Ho0 O4 2.344800 1_555
Ho0 O7 2.376236 1_465
Ho0 O10 2.389726 1_565
Ho0 O9 2.807586 1_555
Ho1 O6 2.246919 1_655
Ho1 O4 2.264877 1_655
Ho1 O5 2.347990 1_555
Ho1 O1 2.353981 1_555
Ho1 O11 2.373437 1_545
Ho1 O10 2.460726 1_655
Mg0 O1 2.024536 1_554
Mg0 O7 2.043190 1_555
Mg0 O2 2.211415 1_654
Mg0 O10 2.446520 1_655
Cu0 O0 1.932641 1_556
Cu0 O6 1.958977 1_565
Cu0 Mg0 2.500347 1_466
O0 Si0 1.616411 1_555
O1 Si1 1.615106 1_555
O2 Si1 1.695384 1_555
O2 Si2 1.702850 1_556
O3 Si0 1.665715 1_556
O3 Si3 1.672817 1_555
O4 Si1 1.611638 1_555
O5 Si0 1.617555 1_555
O6 Si3 1.623820 1_545
O7 Si2 1.615071 1_555
O8 Si2 1.653508 1_555
O8 Si0 1.661007 1_555
O9 Si1 1.663298 1_555
O9 Si3 1.666671 1_555
O10 Si2 1.633858 1_555
O11 Si3 1.625585 1_555
