# generated using pymatgen
data_PrS2
_symmetry_space_group_name_H-M   'P 1'
_cell_length_a   4.10661074
_cell_length_b   8.08922397
_cell_length_c   16.33887093
_cell_angle_alpha   90.00000000
_cell_angle_beta   90.00000000
_cell_angle_gamma   90.00000000
_symmetry_Int_Tables_number   1
_chemical_formula_structural   PrS2
_chemical_formula_sum   'Pr8 S16'
_cell_volume   542.76575760
_cell_formula_units_Z   8
loop_
 _symmetry_equiv_pos_site_id
 _symmetry_equiv_pos_as_xyz
  1  'x, y, z'
loop_
 _atom_site_type_symbol
 _atom_site_label
 _atom_site_symmetry_multiplicity
 _atom_site_fract_x
 _atom_site_fract_y
 _atom_site_fract_z
 _atom_site_occupancy
  Pr  Pr0  1  0.21801038  0.12914621  0.38802660  1
  Pr  Pr1  1  0.71801038  0.37085479  0.61197340  1
  Pr  Pr2  1  0.28198962  0.62914521  0.11197340  1
  Pr  Pr3  1  0.78198962  0.87085479  0.88802660  1
  Pr  Pr4  1  0.78198962  0.87085479  0.61197340  1
  Pr  Pr5  1  0.28198962  0.62914521  0.38802660  1
  Pr  Pr6  1  0.71801038  0.37085479  0.88802660  1
  Pr  Pr7  1  0.21801038  0.12914621  0.11197340  1
  S  S0  1  0.74034958  0.37471766  0.43355824  1
  S  S1  1  0.24034958  0.12528234  0.56644176  1
  S  S2  1  0.75965042  0.87471766  0.06644176  1
  S  S3  1  0.25965042  0.62528234  0.93355824  1
  S  S4  1  0.25965042  0.62528234  0.56644176  1
  S  S5  1  0.75965042  0.87471766  0.43355824  1
  S  S6  1  0.24034958  0.12528234  0.93355824  1
  S  S7  1  0.74034958  0.37471766  0.06644176  1
  S  S8  1  0.14187942  0.39132401  0.25000000  1
  S  S9  1  0.64187942  0.10867599  0.75000000  1
  S  S10  1  0.35812058  0.89132401  0.25000000  1
  S  S11  1  0.85812058  0.60867599  0.75000000  1
  S  S12  1  0.66341855  0.09939898  0.25000000  1
  S  S13  1  0.16341855  0.40060102  0.75000000  1
  S  S14  1  0.83658145  0.59939898  0.25000000  1
  S  S15  1  0.33658145  0.90060102  0.75000000  1
loop_
_geom_bond_atom_site_label_1
_geom_bond_atom_site_label_2
_geom_bond_distance
_geom_bond_site_symmetry_2
Pr0 S5 2.886592 1_445
Pr0 S0 2.889169 1_455
Pr0 S12 2.913674 1_555
Pr0 S1 2.916713 1_555
Pr0 S0 3.016748 1_555
Pr0 S10 3.019599 1_545
Pr0 S8 3.111514 1_555
Pr0 S5 3.120396 1_545
Pr0 S12 3.214156 1_455
Pr1 S4 2.886586 1_555
Pr1 S1 2.889175 1_555
Pr1 S13 2.913674 1_655
Pr1 S0 2.916713 1_555
Pr1 S1 3.016753 1_655
Pr1 S11 3.019594 1_555
Pr1 S9 3.111520 1_555
Pr1 S4 3.120390 1_655
Pr1 S13 3.214155 1_555
Pr2 S7 2.886586 1_555
Pr2 S2 2.889175 1_555
Pr2 S14 2.913674 1_455
Pr2 S3 2.916713 1_554
Pr2 S2 3.016753 1_455
Pr2 S8 3.019594 1_555
Pr2 S10 3.111520 1_555
Pr2 S7 3.120390 1_455
Pr2 S14 3.214155 1_555
Pr3 S6 2.886586 1_665
Pr3 S3 2.889175 1_655
Pr3 S15 2.913674 1_555
Pr3 S2 2.916713 1_556
Pr3 S3 3.016753 1_555
Pr3 S9 3.019594 1_565
Pr3 S11 3.111520 1_555
Pr3 S6 3.120390 1_565
Pr3 S15 3.214155 1_655
Pr4 S1 2.886586 1_665
Pr4 S4 2.889175 1_655
Pr4 S15 2.913674 1_555
Pr4 S5 2.916713 1_555
Pr4 S4 3.016753 1_555
Pr4 S9 3.019594 1_565
Pr4 S11 3.111520 1_555
Pr4 S1 3.120390 1_565
Pr4 S15 3.214155 1_655
Pr5 S0 2.886586 1_555
Pr5 S5 2.889175 1_555
Pr5 S14 2.913674 1_455
Pr5 S4 2.916713 1_555
Pr5 S5 3.016753 1_455
Pr5 S8 3.019594 1_555
Pr5 S10 3.111520 1_555
Pr5 S0 3.120390 1_455
Pr5 S14 3.214155 1_555
Pr6 S3 2.886586 1_555
Pr6 S6 2.889175 1_555
Pr6 S13 2.913674 1_655
Pr6 S7 2.916713 1_556
Pr6 S6 3.016753 1_655
Pr6 S11 3.019594 1_555
Pr6 S9 3.111520 1_555
Pr6 S3 3.120390 1_655
Pr6 S13 3.214155 1_555
Pr7 S2 2.886592 1_445
Pr7 S7 2.889169 1_455
Pr7 S12 2.913674 1_555
Pr7 S6 2.916713 1_554
Pr7 S7 3.016748 1_555
Pr7 S10 3.019599 1_545
Pr7 S8 3.111514 1_555
Pr7 S2 3.120396 1_545
Pr7 S12 3.214156 1_455
S10 S12 2.098787 1_565
S11 S13 2.098787 1_655
S14 S8 2.098787 1_655
S15 S9 2.098787 1_565
