# generated using pymatgen
data_TaTlSe3
_symmetry_space_group_name_H-M   'P 1'
_cell_length_a   3.65071300
_cell_length_b   9.84224300
_cell_length_c   15.34572600
_cell_angle_alpha   90.00000000
_cell_angle_beta   90.00000000
_cell_angle_gamma   90.00000000
_symmetry_Int_Tables_number   1
_chemical_formula_structural   TaTlSe3
_chemical_formula_sum   'Ta4 Tl4 Se12'
_cell_volume   551.39041864
_cell_formula_units_Z   4
loop_
 _symmetry_equiv_pos_site_id
 _symmetry_equiv_pos_as_xyz
  1  'x, y, z'
loop_
 _atom_site_type_symbol
 _atom_site_label
 _atom_site_symmetry_multiplicity
 _atom_site_fract_x
 _atom_site_fract_y
 _atom_site_fract_z
 _atom_site_occupancy
  Ta  Ta0  1  0.25000000  0.15829600  0.42798800  1
  Ta  Ta1  1  0.75000000  0.84170400  0.57201200  1
  Ta  Ta2  1  0.25000000  0.65829600  0.07201200  1
  Ta  Ta3  1  0.75000000  0.34170400  0.92798800  1
  Tl  Tl0  1  0.75000000  0.99912800  0.17197600  1
  Tl  Tl1  1  0.25000000  0.00087200  0.82802400  1
  Tl  Tl2  1  0.75000000  0.49912800  0.32802400  1
  Tl  Tl3  1  0.25000000  0.50087200  0.67197600  1
  Se  Se0  1  0.25000000  0.02884600  0.59645100  1
  Se  Se1  1  0.75000000  0.97115400  0.40354900  1
  Se  Se2  1  0.25000000  0.52884600  0.90354900  1
  Se  Se3  1  0.75000000  0.47115400  0.09645100  1
  Se  Se4  1  0.25000000  0.24377700  0.28145500  1
  Se  Se5  1  0.75000000  0.75622300  0.71854500  1
  Se  Se6  1  0.25000000  0.74377700  0.21854500  1
  Se  Se7  1  0.75000000  0.25622300  0.78145500  1
  Se  Se8  1  0.25000000  0.18894400  0.99782200  1
  Se  Se9  1  0.75000000  0.81105600  0.00217800  1
  Se  Se10  1  0.25000000  0.68894400  0.50217800  1
  Se  Se11  1  0.75000000  0.31105600  0.49782200  1
loop_
_geom_bond_atom_site_label_1
_geom_bond_atom_site_label_2
_geom_bond_distance
_geom_bond_site_symmetry_2
Se0 Ta1 2.620145 1_545
Se0 Ta1 2.620145 1_445
Se0 Ta0 2.882094 1_555
Se1 Ta0 2.620145 1_665
Se1 Ta0 2.620145 1_565
Se1 Ta1 2.882094 1_555
Se2 Ta3 2.620145 1_555
Se2 Ta3 2.620145 1_455
Se2 Ta2 2.882094 1_556
Se3 Ta2 2.620145 1_655
Se3 Ta2 2.620145 1_555
Se3 Ta3 2.882094 1_554
Se4 Ta0 2.400891 1_555
Se4 Tl2 3.187309 1_555
Se4 Tl2 3.187309 1_455
Se5 Ta1 2.400891 1_555
Se5 Tl3 3.187309 1_555
Se5 Tl3 3.187309 1_655
Se6 Ta2 2.400891 1_555
Se6 Tl0 3.187309 1_555
Se6 Tl0 3.187309 1_455
Se7 Ta3 2.400891 1_555
Se7 Tl1 3.187309 1_555
Se7 Tl1 3.187309 1_655
Se8 Ta3 2.596321 1_555
Se8 Ta3 2.596321 1_455
Se8 Tl1 3.196236 1_555
Se9 Ta2 2.596321 1_655
Se9 Ta2 2.596321 1_555
Se9 Tl0 3.196236 1_555
Se10 Ta1 2.596321 1_555
Se10 Ta1 2.596321 1_455
Se10 Tl3 3.196236 1_555
Se11 Ta0 2.596321 1_655
Se11 Ta0 2.596321 1_555
Se11 Tl2 3.196236 1_555
