# generated using pymatgen
data_Sr3Er2(BO3)4
_symmetry_space_group_name_H-M   'P 1'
_cell_length_a   7.37573400
_cell_length_b   8.71819000
_cell_length_c   16.27192900
_cell_angle_alpha   90.00000000
_cell_angle_beta   90.00000000
_cell_angle_gamma   90.00000000
_symmetry_Int_Tables_number   1
_chemical_formula_structural   Sr3Er2(BO3)4
_chemical_formula_sum   'Sr12 Er8 B16 O48'
_cell_volume   1046.33467062
_cell_formula_units_Z   4
loop_
 _symmetry_equiv_pos_site_id
 _symmetry_equiv_pos_as_xyz
  1  'x, y, z'
loop_
 _atom_site_type_symbol
 _atom_site_label
 _atom_site_symmetry_multiplicity
 _atom_site_fract_x
 _atom_site_fract_y
 _atom_site_fract_z
 _atom_site_occupancy
  Sr  Sr0  1  0.66907900  0.35195800  0.93621100  1
  Sr  Sr1  1  0.33092100  0.64804200  0.43621100  1
  Sr  Sr2  1  0.83092100  0.85195800  0.43621100  1
  Sr  Sr3  1  0.16907900  0.14804200  0.93621100  1
  Sr  Sr4  1  0.96602400  0.33888000  0.73063100  1
  Sr  Sr5  1  0.03397600  0.66112000  0.23063100  1
  Sr  Sr6  1  0.53397600  0.83888000  0.23063100  1
  Sr  Sr7  1  0.46602400  0.16112000  0.73063100  1
  Sr  Sr8  1  0.69642600  0.34764500  0.18778900  1
  Sr  Sr9  1  0.30357400  0.65235500  0.68778900  1
  Sr  Sr10  1  0.80357400  0.84764500  0.68778900  1
  Sr  Sr11  1  0.19642600  0.15235500  0.18778900  1
  Er  Er0  1  0.00173000  0.32347100  0.39742100  1
  Er  Er1  1  0.99827000  0.67652900  0.89742100  1
  Er  Er2  1  0.49827000  0.82347100  0.89742100  1
  Er  Er3  1  0.50173000  0.17652900  0.39742100  1
  Er  Er4  1  0.68265100  0.47328600  0.56302200  1
  Er  Er5  1  0.31734900  0.52671400  0.06302200  1
  Er  Er6  1  0.81734900  0.97328600  0.06302200  1
  Er  Er7  1  0.18265100  0.02671400  0.56302200  1
  B  B0  1  0.98578300  0.37432800  0.05685000  1
  B  B1  1  0.01421700  0.62567200  0.55685000  1
  B  B2  1  0.51421700  0.87432800  0.55685000  1
  B  B3  1  0.48578300  0.12567200  0.05685000  1
  B  B4  1  0.28907700  0.34503300  0.55848000  1
  B  B5  1  0.71092300  0.65496700  0.05848000  1
  B  B6  1  0.21092300  0.84503300  0.05848000  1
  B  B7  1  0.78907700  0.15496700  0.55848000  1
  B  B8  1  0.34582500  0.43222400  0.27257800  1
  B  B9  1  0.65417500  0.56777600  0.77257800  1
  B  B10  1  0.15417500  0.93222400  0.77257800  1
  B  B11  1  0.84582500  0.06777600  0.27257800  1
  B  B12  1  0.32419500  0.45646500  0.86318400  1
  B  B13  1  0.67580500  0.54353500  0.36318400  1
  B  B14  1  0.17580500  0.95646500  0.36318400  1
  B  B15  1  0.82419500  0.04353500  0.86318400  1
  O  O0  1  0.38292300  0.25949400  0.05266500  1
  O  O1  1  0.61707700  0.74050600  0.55266500  1
  O  O2  1  0.11707700  0.75949400  0.55266500  1
  O  O3  1  0.88292300  0.24050600  0.05266500  1
  O  O4  1  0.05704600  0.42417900  0.13109300  1
  O  O5  1  0.94295400  0.57582100  0.63109300  1
  O  O6  1  0.44295400  0.92417900  0.63109300  1
  O  O7  1  0.55704600  0.07582100  0.13109300  1
  O  O8  1  0.03487000  0.45784300  0.98686100  1
  O  O9  1  0.96513000  0.54215700  0.48686100  1
  O  O10  1  0.46513000  0.95784300  0.48686100  1
  O  O11  1  0.53487000  0.04215700  0.98686100  1
  O  O12  1  0.22439900  0.26425800  0.62515200  1
  O  O13  1  0.77560100  0.73574200  0.12515200  1
  O  O14  1  0.27560100  0.76425800  0.12515200  1
  O  O15  1  0.72439900  0.23574200  0.62515200  1
  O  O16  1  0.26996900  0.27248600  0.48208900  1
  O  O17  1  0.73003100  0.72751400  0.98208900  1
  O  O18  1  0.23003100  0.77248600  0.98208900  1
  O  O19  1  0.76996900  0.22751400  0.48208900  1
  O  O20  1  0.62567200  0.51633200  0.06639100  1
  O  O21  1  0.37432800  0.48366800  0.56639100  1
  O  O22  1  0.87432800  0.01633200  0.56639100  1
  O  O23  1  0.12567200  0.98366800  0.06639100  1
  O  O24  1  0.20640400  0.46656300  0.32703300  1
  O  O25  1  0.79359600  0.53343700  0.82703300  1
  O  O26  1  0.29359600  0.96656300  0.82703300  1
  O  O27  1  0.70640400  0.03343700  0.32703300  1
  O  O28  1  0.44156500  0.29608800  0.28221400  1
  O  O29  1  0.55843500  0.70391200  0.78221400  1
  O  O30  1  0.05843500  0.79608800  0.78221400  1
  O  O31  1  0.94156500  0.20391200  0.28221400  1
  O  O32  1  0.61384200  0.47765600  0.70574500  1
  O  O33  1  0.38615800  0.52234400  0.20574500  1
  O  O34  1  0.88615800  0.97765600  0.20574500  1
  O  O35  1  0.11384200  0.02234400  0.70574500  1
  O  O36  1  0.81730900  0.48404900  0.31755700  1
  O  O37  1  0.18269100  0.51595100  0.81755700  1
  O  O38  1  0.68269100  0.98404900  0.81755700  1
  O  O39  1  0.31730900  0.01595100  0.31755700  1
  O  O40  1  0.38228400  0.30748700  0.85094800  1
  O  O41  1  0.61771600  0.69251300  0.35094800  1
  O  O42  1  0.11771600  0.80748700  0.35094800  1
  O  O43  1  0.88228400  0.19251300  0.85094800  1
  O  O44  1  0.58994100  0.45607100  0.42378900  1
  O  O45  1  0.41005900  0.54392900  0.92378900  1
  O  O46  1  0.91005900  0.95607100  0.92378900  1
  O  O47  1  0.08994100  0.04392900  0.42378900  1
loop_
_geom_bond_atom_site_label_1
_geom_bond_atom_site_label_2
_geom_bond_distance
_geom_bond_site_symmetry_2
Er0 O31 2.190358 1_455
Er0 O24 2.268710 1_555
Er0 O36 2.344978 1_455
Er0 O19 2.349471 1_455
Er0 O9 2.413684 1_455
Er0 O16 2.451524 1_555
Er0 O47 2.558683 1_555
Er1 O30 2.190358 1_655
Er1 O25 2.268710 1_555
Er1 O37 2.344978 1_655
Er1 O18 2.349471 1_655
Er1 O8 2.413684 1_655
Er1 O17 2.451524 1_555
Er1 O46 2.558683 1_555
Er2 O29 2.190358 1_555
Er2 O26 2.268710 1_555
Er2 O38 2.344978 1_555
Er2 O17 2.349471 1_555
Er2 O11 2.413684 1_565
Er2 O18 2.451524 1_555
Er2 O45 2.558683 1_555
Er3 O28 2.190358 1_555
Er3 O27 2.268710 1_555
Er3 O39 2.344978 1_555
Er3 O16 2.349471 1_555
Er3 O10 2.413684 1_545
Er3 O19 2.451524 1_555
Er3 O44 2.558683 1_555
Er4 O21 2.276569 1_555
Er4 O15 2.325024 1_555
Er4 O44 2.371289 1_555
Er4 O32 2.377492 1_555
Er4 O1 2.385311 1_555
Er4 O5 2.389997 1_555
Er4 O9 2.497454 1_555
Er4 O19 2.596191 1_555
Er5 O20 2.276569 1_555
Er5 O14 2.325024 1_555
Er5 O45 2.371289 1_554
Er5 O33 2.377492 1_555
Er5 O0 2.385311 1_555
Er5 O4 2.389997 1_555
Er5 O8 2.497454 1_554
Er5 O18 2.596191 1_554
Er6 O23 2.276569 1_655
Er6 O13 2.325024 1_555
Er6 O46 2.371289 1_554
Er6 O34 2.377492 1_555
Er6 O3 2.385311 1_565
Er6 O7 2.389997 1_565
Er6 O11 2.497454 1_564
Er6 O17 2.596191 1_554
Er7 O22 2.276569 1_455
Er7 O12 2.325024 1_555
Er7 O47 2.371289 1_555
Er7 O35 2.377492 1_555
Er7 O2 2.385311 1_545
Er7 O6 2.389997 1_545
Er7 O10 2.497454 1_545
Er7 O16 2.596191 1_555
B0 O4 1.387303 1_655
B0 O3 1.393330 1_555
B0 O8 1.399359 1_654
B1 O5 1.387303 1_455
B1 O2 1.393330 1_555
B1 O9 1.399359 1_455
B2 O6 1.387303 1_555
B2 O1 1.393330 1_555
B2 O10 1.399359 1_555
B3 O7 1.387303 1_555
B3 O0 1.393330 1_555
B3 O11 1.399359 1_554
B4 O21 1.368493 1_555
B4 O12 1.378571 1_555
B4 O16 1.401789 1_555
B5 O20 1.368493 1_555
B5 O13 1.378571 1_555
B5 O17 1.401789 1_554
B6 O23 1.368493 1_555
B6 O14 1.378571 1_555
B6 O18 1.401789 1_554
B7 O22 1.368493 1_555
B7 O15 1.378571 1_555
B7 O19 1.401789 1_555
B8 O33 1.374211 1_555
B8 O28 1.389918 1_555
B8 O24 1.390052 1_555
B9 O32 1.374211 1_555
B9 O29 1.389918 1_555
B9 O25 1.390052 1_555
B10 O35 1.374211 1_565
B10 O30 1.389918 1_555
B10 O26 1.390052 1_555
B11 O34 1.374211 1_545
B11 O31 1.389918 1_555
B11 O27 1.390052 1_555
B12 O37 1.381837 1_555
B12 O40 1.382078 1_555
B12 O45 1.398228 1_555
B13 O36 1.381837 1_555
B13 O41 1.382078 1_555
B13 O44 1.398228 1_555
B14 O39 1.381837 1_565
B14 O42 1.382078 1_555
B14 O47 1.398228 1_565
B15 O38 1.381837 1_545
B15 O43 1.382078 1_555
B15 O46 1.398228 1_545
O0 Sr3 2.650024 1_554
O0 Sr11 2.756631 1_555
O0 Sr0 2.948774 1_554
O1 Sr2 2.650024 1_555
O1 Sr10 2.756631 1_555
O1 Sr1 2.948774 1_555
O2 Sr1 2.650024 1_555
O2 Sr9 2.756631 1_555
O2 Sr2 2.948774 1_455
O3 Sr0 2.650024 1_554
O3 Sr8 2.756631 1_555
O3 Sr3 2.948774 1_654
O4 Sr5 2.630476 1_555
O4 Sr11 2.742985 1_555
O4 Sr8 2.893276 1_455
O5 Sr4 2.630476 1_555
O5 Sr10 2.742985 1_555
O5 Sr9 2.893276 1_655
O6 Sr7 2.630476 1_565
O6 Sr9 2.742985 1_555
O6 Sr10 2.893276 1_555
O7 Sr6 2.630476 1_545
O7 Sr8 2.742985 1_555
O7 Sr11 2.893276 1_555
O8 Sr0 2.968249 1_455
O8 Sr3 2.992328 1_555
O9 Sr1 2.968249 1_655
O9 Sr2 2.992328 1_555
O10 Sr2 2.968249 1_555
O10 Sr1 2.992328 1_555
O11 Sr3 2.968249 1_555
O11 Sr0 2.992328 1_555
O12 Sr7 2.632578 1_555
O12 Sr4 2.645902 1_455
O13 Sr6 2.632578 1_555
O13 Sr5 2.645902 1_655
O14 Sr5 2.632578 1_555
O14 Sr6 2.645902 1_555
O15 Sr4 2.632578 1_555
O15 Sr7 2.645902 1_555
O20 Sr8 2.517392 1_555
O20 Sr0 2.577445 1_554
O21 Sr9 2.517392 1_555
O21 Sr1 2.577445 1_555
O22 Sr10 2.517392 1_545
O22 Sr2 2.577445 1_545
O23 Sr11 2.517392 1_565
O23 Sr3 2.577445 1_564
O24 Sr1 2.550060 1_555
O24 Sr5 2.637258 1_555
O25 Sr0 2.550060 1_555
O25 Sr4 2.637258 1_555
O26 Sr3 2.550060 1_565
O26 Sr7 2.637258 1_565
O27 Sr2 2.550060 1_545
O27 Sr6 2.637258 1_545
O28 Sr8 2.469088 1_555
O28 Sr11 2.683310 1_555
O29 Sr9 2.469088 1_555
O29 Sr10 2.683310 1_555
O30 Sr10 2.469088 1_455
O30 Sr9 2.683310 1_555
O31 Sr11 2.469088 1_655
O31 Sr8 2.683310 1_555
O32 Sr9 2.764435 1_555
O32 Sr4 2.894012 1_555
O32 Sr7 2.994690 1_555
O33 Sr8 2.764435 1_555
O33 Sr5 2.894012 1_555
O33 Sr6 2.994690 1_555
O34 Sr11 2.764435 1_665
O34 Sr6 2.894012 1_555
O34 Sr5 2.994690 1_655
O35 Sr10 2.764435 1_445
O35 Sr7 2.894012 1_555
O35 Sr4 2.994690 1_455
O36 Sr8 2.582226 1_555
O36 Sr5 2.633944 1_655
O37 Sr9 2.582226 1_555
O37 Sr4 2.633944 1_455
O38 Sr10 2.582226 1_555
O38 Sr7 2.633944 1_565
O39 Sr11 2.582226 1_555
O39 Sr6 2.633944 1_545
O40 Sr7 2.417176 1_555
O40 Sr3 2.515960 1_555
O40 Sr0 2.559252 1_555
O41 Sr6 2.417176 1_555
O41 Sr2 2.515960 1_555
O41 Sr1 2.559252 1_555
O42 Sr5 2.417176 1_555
O42 Sr1 2.515960 1_555
O42 Sr2 2.559252 1_455
O43 Sr4 2.417176 1_555
O43 Sr0 2.515960 1_555
O43 Sr3 2.559252 1_655
O44 Sr1 2.547900 1_555
O45 Sr0 2.547900 1_555
O46 Sr3 2.547900 1_665
O47 Sr2 2.547900 1_445
