# generated using pymatgen
data_ScFe2BO5
_symmetry_space_group_name_H-M   'P 1'
_cell_length_a   3.17797800
_cell_length_b   9.65471800
_cell_length_c   12.71565100
_cell_angle_alpha   90.00000000
_cell_angle_beta   90.00000000
_cell_angle_gamma   90.00000000
_symmetry_Int_Tables_number   1
_chemical_formula_structural   ScFe2BO5
_chemical_formula_sum   'Sc4 Fe8 B4 O20'
_cell_volume   390.14772530
_cell_formula_units_Z   4
loop_
 _symmetry_equiv_pos_site_id
 _symmetry_equiv_pos_as_xyz
  1  'x, y, z'
loop_
 _atom_site_type_symbol
 _atom_site_label
 _atom_site_symmetry_multiplicity
 _atom_site_fract_x
 _atom_site_fract_y
 _atom_site_fract_z
 _atom_site_occupancy
  Sc  Sc0  1  0.00000000  0.74384000  0.38504600  1
  Sc  Sc1  1  0.00000000  0.25616000  0.61495400  1
  Sc  Sc2  1  0.00000000  0.24384000  0.11495400  1
  Sc  Sc3  1  0.00000000  0.75616000  0.88504600  1
  Fe  Fe0  1  0.50000000  0.50541000  0.21973300  1
  Fe  Fe1  1  0.50000000  0.49459000  0.78026700  1
  Fe  Fe2  1  0.50000000  0.00541000  0.28026700  1
  Fe  Fe3  1  0.50000000  0.99459000  0.71973300  1
  Fe  Fe4  1  0.50000000  0.50000000  0.50000000  1
  Fe  Fe5  1  0.50000000  0.00000000  0.00000000  1
  Fe  Fe6  1  0.00000000  0.00000000  0.50000000  1
  Fe  Fe7  1  0.00000000  0.50000000  0.00000000  1
  B  B0  1  0.00000000  0.77603100  0.13833000  1
  B  B1  1  0.00000000  0.22396900  0.86167000  1
  B  B2  1  0.00000000  0.27603100  0.36167000  1
  B  B3  1  0.00000000  0.72396900  0.63833000  1
  O  O0  1  0.00000000  0.84634900  0.04324200  1
  O  O1  1  0.00000000  0.15365100  0.95675800  1
  O  O2  1  0.00000000  0.34634900  0.45675800  1
  O  O3  1  0.00000000  0.65365100  0.54324200  1
  O  O4  1  0.50000000  0.61089600  0.35983400  1
  O  O5  1  0.50000000  0.38910400  0.64016600  1
  O  O6  1  0.50000000  0.11089600  0.14016600  1
  O  O7  1  0.50000000  0.88910400  0.85983400  1
  O  O8  1  0.00000000  0.63102800  0.14111300  1
  O  O9  1  0.00000000  0.36897200  0.85888700  1
  O  O10  1  0.00000000  0.13102800  0.35888700  1
  O  O11  1  0.00000000  0.86897200  0.64111300  1
  O  O12  1  0.50000000  0.88715800  0.42156100  1
  O  O13  1  0.50000000  0.11284200  0.57843900  1
  O  O14  1  0.50000000  0.38715800  0.07843900  1
  O  O15  1  0.50000000  0.61284200  0.92156100  1
  O  O16  1  0.00000000  0.84967700  0.23323600  1
  O  O17  1  0.00000000  0.15032300  0.76676400  1
  O  O18  1  0.00000000  0.34967700  0.26676400  1
  O  O19  1  0.00000000  0.65032300  0.73323600  1
loop_
_geom_bond_atom_site_label_1
_geom_bond_atom_site_label_2
_geom_bond_distance
_geom_bond_site_symmetry_2
Fe0 O4 2.052040 1_555
Fe0 O14 2.128706 1_555
Fe0 O8 2.234993 1_555
Fe0 O8 2.234993 1_655
Fe0 O18 2.267865 1_555
Fe0 O18 2.267865 1_655
Fe1 O5 2.052040 1_555
Fe1 O15 2.128706 1_555
Fe1 O9 2.234993 1_655
Fe1 O9 2.234993 1_555
Fe1 O19 2.267865 1_555
Fe1 O19 2.267865 1_655
Fe2 O6 2.052040 1_555
Fe2 O12 2.128706 1_545
Fe2 O10 2.234993 1_555
Fe2 O10 2.234993 1_655
Fe2 O16 2.267865 1_645
Fe2 O16 2.267865 1_545
Fe3 O7 2.052040 1_555
Fe3 O13 2.128706 1_565
Fe3 O11 2.234993 1_555
Fe3 O11 2.234993 1_655
Fe3 O17 2.267865 1_665
Fe3 O17 2.267865 1_565
Fe4 O4 2.079167 1_555
Fe4 O5 2.079167 1_555
Fe4 O3 2.242290 1_655
Fe4 O3 2.242290 1_555
Fe4 O2 2.242290 1_655
Fe4 O2 2.242290 1_555
Fe5 O6 2.079167 1_555
Fe5 O7 2.079167 1_544
Fe5 O1 2.242290 1_554
Fe5 O1 2.242290 1_654
Fe5 O0 2.242290 1_545
Fe5 O0 2.242290 1_645
Fe6 O13 2.169474 1_455
Fe6 O13 2.169474 1_555
Fe6 O12 2.169474 1_545
Fe6 O12 2.169474 1_445
Fe6 O11 2.195448 1_545
Fe6 O10 2.195448 1_555
Fe7 O15 2.169474 1_554
Fe7 O15 2.169474 1_454
Fe7 O14 2.169474 1_455
Fe7 O14 2.169474 1_555
Fe7 O8 2.195448 1_555
Fe7 O9 2.195448 1_554
B0 O0 1.386666 1_555
B0 O8 1.400410 1_555
B0 O16 1.400683 1_555
B1 O1 1.386666 1_555
B1 O9 1.400410 1_555
B1 O17 1.400683 1_555
B2 O2 1.386666 1_555
B2 O10 1.400410 1_555
B2 O18 1.400683 1_555
B3 O3 1.386666 1_555
B3 O11 1.400410 1_555
B3 O19 1.400683 1_555
O0 Sc3 2.191939 1_554
O1 Sc2 2.191939 1_556
O2 Sc1 2.191939 1_555
O3 Sc0 2.191939 1_555
O4 Sc0 2.067638 1_655
O4 Sc0 2.067638 1_555
O5 Sc1 2.067638 1_655
O5 Sc1 2.067638 1_555
O6 Sc2 2.067638 1_555
O6 Sc2 2.067638 1_655
O7 Sc3 2.067638 1_555
O7 Sc3 2.067638 1_655
O12 Sc0 2.157564 1_655
O12 Sc0 2.157564 1_555
O13 Sc1 2.157564 1_555
O13 Sc1 2.157564 1_655
O14 Sc2 2.157564 1_655
O14 Sc2 2.157564 1_555
O15 Sc3 2.157564 1_555
O15 Sc3 2.157564 1_655
O16 Sc0 2.184131 1_555
O17 Sc1 2.184131 1_555
O18 Sc2 2.184131 1_555
O19 Sc3 2.184131 1_555
