# generated using pymatgen
data_Mn2Sb2PtRh
_symmetry_space_group_name_H-M   'P 1'
_cell_length_a   7.60587445
_cell_length_b   7.60587445
_cell_length_c   7.60587511
_cell_angle_alpha   33.50985406
_cell_angle_beta   33.50985406
_cell_angle_gamma   33.50985525
_symmetry_Int_Tables_number   1
_chemical_formula_structural   Mn2Sb2PtRh
_chemical_formula_sum   'Mn2 Sb2 Pt1 Rh1'
_cell_volume   119.44314015
_cell_formula_units_Z   1
loop_
 _symmetry_equiv_pos_site_id
 _symmetry_equiv_pos_as_xyz
  1  'x, y, z'
loop_
 _atom_site_type_symbol
 _atom_site_label
 _atom_site_symmetry_multiplicity
 _atom_site_fract_x
 _atom_site_fract_y
 _atom_site_fract_z
 _atom_site_occupancy
  Mn  Mn0  1  0.99945800  0.99945800  0.99945800  1
  Mn  Mn1  1  0.50049600  0.50049600  0.50049600  1
  Sb  Sb0  1  0.12656100  0.12656100  0.12656100  1
  Sb  Sb1  1  0.62342000  0.62342000  0.62342000  1
  Pt  Pt0  1  0.74964400  0.74964400  0.74964400  1
  Rh  Rh0  1  0.25042100  0.25042100  0.25042100  1
loop_
_geom_bond_atom_site_label_1
_geom_bond_atom_site_label_2
_geom_bond_distance
_geom_bond_site_symmetry_2
Mn0 Sb1 2.693388 1_556
Mn0 Sb1 2.693388 1_655
Mn0 Sb1 2.693388 1_565
Mn0 Sb0 2.734793 1_666
Mn0 Rh0 3.090491 1_656
Mn0 Rh0 3.090491 1_566
Mn0 Rh0 3.090492 1_665
Mn0 Pt0 3.104735 1_565
Mn0 Pt0 3.104735 1_655
Mn0 Pt0 3.104735 1_556
Mn1 Sb1 2.644876 1_555
Mn1 Sb0 2.678289 1_556
Mn1 Sb0 2.678289 1_565
Mn1 Sb0 2.678289 1_655
Mn1 Rh0 3.101488 1_565
Mn1 Rh0 3.101488 1_655
Mn1 Rh0 3.101488 1_556
Mn1 Pt0 3.113051 1_455
Mn1 Pt0 3.113051 1_545
Mn1 Pt0 3.113051 1_554
Pt0 Sb0 2.699899 1_665
Pt0 Sb0 2.699899 1_656
Pt0 Sb0 2.699899 1_566
Pt0 Sb1 2.715880 1_555
Rh0 Sb0 2.665015 1_555
Rh0 Sb1 2.671788 1_554
Rh0 Sb1 2.671788 1_545
Rh0 Sb1 2.671788 1_455
