# generated using pymatgen
data_La3Mo4O16F
_symmetry_space_group_name_H-M   'P 1'
_cell_length_a   7.33763200
_cell_length_b   7.52797519
_cell_length_c   14.86876856
_cell_angle_alpha   102.49656286
_cell_angle_beta   101.18791849
_cell_angle_gamma   100.25312014
_symmetry_Int_Tables_number   1
_chemical_formula_structural   La3Mo4O16F
_chemical_formula_sum   'La6 Mo8 O32 F2'
_cell_volume   765.58761552
_cell_formula_units_Z   2
loop_
 _symmetry_equiv_pos_site_id
 _symmetry_equiv_pos_as_xyz
  1  'x, y, z'
loop_
 _atom_site_type_symbol
 _atom_site_label
 _atom_site_symmetry_multiplicity
 _atom_site_fract_x
 _atom_site_fract_y
 _atom_site_fract_z
 _atom_site_occupancy
  La  La0  1  0.37125400  0.42253500  0.73901200  1
  La  La1  1  0.62874600  0.57746500  0.26098800  1
  La  La2  1  0.34123300  0.84487100  0.87806300  1
  La  La3  1  0.65876700  0.15512900  0.12193700  1
  La  La4  1  0.67499100  0.04854200  0.60544100  1
  La  La5  1  0.32500900  0.95145800  0.39455900  1
  Mo  Mo0  1  0.23867500  0.27346100  0.98895100  1
  Mo  Mo1  1  0.76132500  0.72653900  0.01104900  1
  Mo  Mo2  1  0.16919500  0.90383500  0.66944600  1
  Mo  Mo3  1  0.83080500  0.09616500  0.33055400  1
  Mo  Mo4  1  0.77362700  0.24791300  0.82792900  1
  Mo  Mo5  1  0.22637300  0.75208700  0.17207100  1
  Mo  Mo6  1  0.20555300  0.42611600  0.48585100  1
  Mo  Mo7  1  0.79444700  0.57388400  0.51414900  1
  O  O0  1  0.40162500  0.27735800  0.06131800  1
  O  O1  1  0.59837500  0.72264200  0.93868200  1
  O  O2  1  0.00422000  0.16636400  0.06205400  1
  O  O3  1  0.99578000  0.83363600  0.93794600  1
  O  O4  1  0.24617800  0.50268300  0.91912500  1
  O  O5  1  0.75382200  0.49731700  0.08087500  1
  O  O6  1  0.31692300  0.16678300  0.89160500  1
  O  O7  1  0.68307700  0.83321700  0.10839500  1
  O  O8  1  0.11553600  0.69470600  0.75910900  1
  O  O9  1  0.88446400  0.30529400  0.24089100  1
  O  O10  1  0.03756500  0.02958800  0.36055900  1
  O  O11  1  0.96243500  0.97041200  0.63944100  1
  O  O12  1  0.34171800  0.88777100  0.56694000  1
  O  O13  1  0.65828200  0.11222900  0.43306000  1
  O  O14  1  0.31418500  0.07047300  0.71545000  1
  O  O15  1  0.68581500  0.92952700  0.28455000  1
  O  O16  1  0.67945600  0.44756900  0.79866800  1
  O  O17  1  0.32054400  0.55243100  0.20133200  1
  O  O18  1  0.02816700  0.29652900  0.78473600  1
  O  O19  1  0.97183300  0.70347100  0.21526400  1
  O  O20  1  0.71035100  0.15528200  0.95410400  1
  O  O21  1  0.28964900  0.84471800  0.04589600  1
  O  O22  1  0.65644100  0.07450700  0.77558600  1
  O  O23  1  0.34355900  0.92549300  0.22441400  1
  O  O24  1  0.30148600  0.23882600  0.45645900  1
  O  O25  1  0.69851400  0.76117400  0.54354100  1
  O  O26  1  0.26393400  0.44674300  0.59396900  1
  O  O27  1  0.73606600  0.55325700  0.40603100  1
  O  O28  1  0.94680600  0.32587800  0.50258700  1
  O  O29  1  0.05319400  0.67412200  0.49741300  1
  O  O30  1  0.64298800  0.37834600  0.61408500  1
  O  O31  1  0.35701200  0.62165400  0.38591500  1
  F  F0  1  0.50015300  0.24721000  0.26805100  1
  F  F1  1  0.49984700  0.75279000  0.73194900  1
loop_
_geom_bond_atom_site_label_1
_geom_bond_atom_site_label_2
_geom_bond_distance
_geom_bond_site_symmetry_2
La0 O26 2.206001 1_555
La0 O16 2.221280 1_555
La0 O14 2.543307 1_555
La0 O18 2.791535 1_555
La0 O4 2.971523 1_555
La0 O30 2.990404 1_555
La1 O27 2.206001 1_555
La1 O17 2.221280 1_555
La1 O15 2.543307 1_555
La1 O19 2.791535 1_555
La1 O5 2.971523 1_555
La1 O31 2.990404 1_555
La2 O8 2.116699 1_555
La2 O1 2.352898 1_555
La2 O6 2.429326 1_565
La2 O21 2.595816 1_556
La2 O4 2.775101 1_555
La2 O3 2.838535 1_455
La2 O20 3.080541 1_565
La3 O9 2.116699 1_555
La3 O0 2.352898 1_555
La3 O7 2.429326 1_545
La3 O20 2.595816 1_554
La3 O5 2.775101 1_555
La3 O2 2.838535 1_655
La3 O21 3.080541 1_545
La4 O25 2.211260 1_545
La4 O11 2.281793 1_545
La4 O12 2.424034 1_545
La4 O30 2.513346 1_555
La4 O22 2.527045 1_555
La4 O13 2.691674 1_555
La5 O24 2.211260 1_565
La5 O10 2.281793 1_565
La5 O13 2.424034 1_565
La5 O31 2.513346 1_555
La5 O23 2.527045 1_555
La5 O12 2.691674 1_555
Mo0 O0 1.436271 1_556
Mo0 O6 1.747337 1_555
Mo0 O4 2.195959 1_555
Mo0 O2 2.324256 1_556
Mo1 O1 1.436271 1_554
Mo1 O7 1.747337 1_555
Mo1 O5 2.195959 1_555
Mo1 O3 2.324256 1_554
Mo2 O14 1.429871 1_565
Mo2 O11 1.690180 1_455
Mo2 O12 2.159538 1_555
Mo2 O8 2.302650 1_555
Mo2 O29 2.640966 1_555
Mo3 O15 1.429871 1_545
Mo3 O10 1.690180 1_655
Mo3 O13 2.159538 1_555
Mo3 O9 2.302650 1_555
Mo3 O28 2.640966 1_555
Mo4 O22 1.396493 1_555
Mo4 O16 1.860602 1_555
Mo4 O18 2.087733 1_655
Mo4 O20 2.238385 1_555
Mo5 O23 1.396493 1_555
Mo5 O17 1.860602 1_555
Mo5 O19 2.087733 1_455
Mo5 O21 2.238385 1_555
Mo6 O26 1.546931 1_555
Mo6 O24 1.697171 1_555
Mo6 O28 1.997637 1_455
Mo6 O29 2.333177 1_555
Mo6 O31 2.571945 1_555
Mo7 O27 1.546931 1_555
Mo7 O25 1.697171 1_555
Mo7 O29 1.997637 1_655
Mo7 O28 2.333177 1_555
Mo7 O30 2.571945 1_555
F0 La1 2.529552 1_555
F0 La3 2.677992 1_555
F1 La0 2.529552 1_555
F1 La2 2.677992 1_555
