# generated using pymatgen
data_Pr3(ReO5)2
_symmetry_space_group_name_H-M   'P 1'
_cell_length_a   5.52143049
_cell_length_b   5.52143049
_cell_length_c   7.12018973
_cell_angle_alpha   72.47909082
_cell_angle_beta   72.47909082
_cell_angle_gamma   89.62321873
_symmetry_Int_Tables_number   1
_chemical_formula_structural   Pr3(ReO5)2
_chemical_formula_sum   'Pr3 Re2 O10'
_cell_volume   196.54882413
_cell_formula_units_Z   1
loop_
 _symmetry_equiv_pos_site_id
 _symmetry_equiv_pos_as_xyz
  1  'x, y, z'
loop_
 _atom_site_type_symbol
 _atom_site_label
 _atom_site_symmetry_multiplicity
 _atom_site_fract_x
 _atom_site_fract_y
 _atom_site_fract_z
 _atom_site_occupancy
  Pr  Pr0  1  -0.00000000  0.00000000  0.50000000  1
  Pr  Pr1  1  0.74349588  0.25650412  0.00000000  1
  Pr  Pr2  1  0.25650412  0.74349588  -0.00000000  1
  Re  Re0  1  0.63468684  0.63468684  0.32409646  1
  Re  Re1  1  0.36531316  0.36531316  0.67590354  1
  O  O0  1  0.39590189  0.87380461  0.28517375  1
  O  O1  1  0.60409811  0.12619539  0.71482625  1
  O  O2  1  0.12619539  0.60409811  0.71482625  1
  O  O3  1  0.87380461  0.39590189  0.28517375  1
  O  O4  1  0.64946231  0.64946231  0.59561919  1
  O  O5  1  0.35053769  0.35053769  0.40438081  1
  O  O6  1  0.67207694  0.67207694  0.02730417  1
  O  O7  1  0.32792306  0.32792306  0.97269583  1
  O  O8  1  0.90719269  0.90719269  0.21759637  1
  O  O9  1  0.09280731  0.09280731  0.78240363  1
loop_
_geom_bond_atom_site_label_1
_geom_bond_atom_site_label_2
_geom_bond_distance
_geom_bond_site_symmetry_2
O0 Re0 1.880158 1_555
O0 Pr0 2.492390 1_565
O0 Pr2 2.657228 1_555
O0 Pr1 2.719348 1_565
O1 Re1 1.880158 1_555
O1 Pr0 2.492390 1_655
O1 Pr1 2.657228 1_556
O1 Pr2 2.719348 1_546
O2 Re1 1.880158 1_555
O2 Pr0 2.492390 1_565
O2 Pr2 2.657228 1_556
O2 Pr1 2.719348 1_456
O3 Re0 1.880158 1_555
O3 Pr0 2.492390 1_655
O3 Pr1 2.657228 1_555
O3 Pr2 2.719348 1_655
O4 Re0 1.985183 1_555
O4 Re1 2.049902 1_555
O4 Pr0 2.533389 1_665
O5 Re1 1.985183 1_555
O5 Re0 2.049902 1_555
O5 Pr0 2.533389 1_555
O6 Re0 2.006522 1_555
O6 Pr2 2.380928 1_555
O6 Pr1 2.380928 1_555
O7 Re1 2.006522 1_555
O7 Pr2 2.380928 1_556
O7 Pr1 2.380928 1_556
O8 Re0 1.938714 1_555
O8 Pr0 2.410934 1_665
O8 Pr1 2.440951 1_565
O8 Pr2 2.440951 1_655
O9 Re1 1.938714 1_555
O9 Pr0 2.410934 1_555
O9 Pr1 2.440951 1_456
O9 Pr2 2.440951 1_546
