# generated using pymatgen
data_Rb2TaCuSe4
_symmetry_space_group_name_H-M   'P 1'
_cell_length_a   14.49023747
_cell_length_b   12.93446399
_cell_length_c   7.71366873
_cell_angle_alpha   85.16063209
_cell_angle_beta   62.80432411
_cell_angle_gamma   32.03504380
_symmetry_Int_Tables_number   1
_chemical_formula_structural   Rb2TaCuSe4
_chemical_formula_sum   'Rb4 Ta2 Cu2 Se8'
_cell_volume   522.74465719
_cell_formula_units_Z   2
loop_
 _symmetry_equiv_pos_site_id
 _symmetry_equiv_pos_as_xyz
  1  'x, y, z'
loop_
 _atom_site_type_symbol
 _atom_site_label
 _atom_site_symmetry_multiplicity
 _atom_site_fract_x
 _atom_site_fract_y
 _atom_site_fract_z
 _atom_site_occupancy
  Rb  Rb0  1  0.32112900  0.32112900  0.67887100  1
  Rb  Rb1  1  0.67887100  0.67887100  0.32112900  1
  Rb  Rb2  1  0.92887100  0.92887100  0.57112900  1
  Rb  Rb3  1  0.57112900  0.57112900  0.92887100  1
  Ta  Ta0  1  0.50000000  0.50000000  0.50000000  1
  Ta  Ta1  1  0.75000000  0.75000000  0.75000000  1
  Cu  Cu0  1  0.00000000  0.00000000  0.00000000  1
  Cu  Cu1  1  0.25000000  0.25000000  0.25000000  1
  Se  Se0  1  0.29930200  0.59034800  0.89687700  1
  Se  Se1  1  0.21347300  0.89687700  0.59034800  1
  Se  Se2  1  0.89687700  0.21347300  0.29930200  1
  Se  Se3  1  0.59034800  0.29930200  0.21347300  1
  Se  Se4  1  0.65965200  0.95069800  0.03652700  1
  Se  Se5  1  0.35312300  0.03652700  0.95069800  1
  Se  Se6  1  0.03652700  0.35312300  0.65965200  1
  Se  Se7  1  0.95069800  0.65965200  0.35312300  1
loop_
_geom_bond_atom_site_label_1
_geom_bond_atom_site_label_2
_geom_bond_distance
_geom_bond_site_symmetry_2
Rb0 Se7 3.616698 1_545
Rb0 Se4 3.616698 1_456
Rb0 Se4 3.675678 1_545
Rb0 Se7 3.675678 1_456
Rb0 Se3 3.699760 1_555
Rb0 Se0 3.699760 1_555
Rb0 Se6 3.854249 1_555
Rb0 Se5 3.854249 1_555
Rb1 Se6 3.616698 1_654
Rb1 Se5 3.616698 1_565
Rb1 Se5 3.675678 1_654
Rb1 Se6 3.675678 1_565
Rb1 Se2 3.699760 1_555
Rb1 Se1 3.699760 1_555
Rb1 Se7 3.854249 1_555
Rb1 Se4 3.854249 1_555
Rb2 Se0 3.616698 1_565
Rb2 Se3 3.616698 1_655
Rb2 Se0 3.675678 1_654
Rb2 Se3 3.675678 1_566
Rb2 Se7 3.699760 1_555
Rb2 Se4 3.699760 1_556
Rb2 Se2 3.854249 1_565
Rb2 Se1 3.854249 1_655
Rb3 Se2 3.616698 1_555
Rb3 Se1 3.616698 1_556
Rb3 Se2 3.675678 1_466
Rb3 Se1 3.675678 1_645
Rb3 Se5 3.699760 1_565
Rb3 Se6 3.699760 1_655
Rb3 Se0 3.854249 1_555
Rb3 Se3 3.854249 1_556
Cu0 Se1 2.472634 1_544
Cu0 Se0 2.472634 1_544
Cu0 Se3 2.472634 1_455
Cu0 Se2 2.472634 1_455
Cu1 Se5 2.472634 1_554
Cu1 Se6 2.472634 1_555
Cu1 Se7 2.472634 1_455
Cu1 Se4 2.472634 1_545
Se0 Ta0 2.428757 1_555
Se1 Ta0 2.428757 1_555
Se2 Ta0 2.428757 1_555
Se3 Ta0 2.428757 1_555
Se4 Ta1 2.428757 1_554
Se5 Ta1 2.428757 1_545
Se6 Ta1 2.428757 1_455
Se7 Ta1 2.428757 1_555
