# generated using pymatgen
data_Y(Al2Cu)4
_symmetry_space_group_name_H-M   'P 1'
_cell_length_a   5.09508660
_cell_length_b   6.68213053
_cell_length_c   6.68213219
_cell_angle_alpha   81.59582060
_cell_angle_beta   67.58905579
_cell_angle_gamma   67.58905387
_symmetry_Int_Tables_number   1
_chemical_formula_structural   Y(Al2Cu)4
_chemical_formula_sum   'Y1 Al8 Cu4'
_cell_volume   194.43304001
_cell_formula_units_Z   1
loop_
 _symmetry_equiv_pos_site_id
 _symmetry_equiv_pos_as_xyz
  1  'x, y, z'
loop_
 _atom_site_type_symbol
 _atom_site_label
 _atom_site_symmetry_multiplicity
 _atom_site_fract_x
 _atom_site_fract_y
 _atom_site_fract_z
 _atom_site_occupancy
  Y  Y0  1  0.00000000  -0.00000000  -0.00000000  1
  Al  Al0  1  0.34830461  0.65169339  0.65169639  1
  Al  Al1  1  0.99999900  0.34837460  0.65162740  1
  Al  Al2  1  0.00000100  0.65162540  0.34837260  1
  Al  Al3  1  0.65169539  0.34830661  0.34830361  1
  Al  Al4  1  0.28098353  0.21901847  0.21901447  1
  Al  Al5  1  0.50000200  0.78105566  0.21894134  1
  Al  Al6  1  0.49999800  0.21894434  0.78105866  1
  Al  Al7  1  0.71901647  0.78098153  0.78098553  1
  Cu  Cu0  1  0.50000000  -0.00000000  0.50000000  1
  Cu  Cu1  1  0.00000000  0.50000000  -0.00000000  1
  Cu  Cu2  1  0.50000000  0.50000000  -0.00000000  1
  Cu  Cu3  1  0.00000000  -0.00000000  0.50000000  1
loop_
_geom_bond_atom_site_label_1
_geom_bond_atom_site_label_2
_geom_bond_distance
_geom_bond_site_symmetry_2
Al0 Al3 2.651734 1_555
Al0 Cu1 2.669515 1_556
Al0 Cu2 2.669517 1_556
Al0 Cu3 2.669536 1_565
Al0 Cu0 2.669538 1_565
Al0 Al7 2.786921 1_455
Al0 Al7 2.786925 1_555
Al0 Al6 2.789451 1_555
Al0 Al5 2.789487 1_555
Al0 Y0 3.044310 1_566
Al1 Al2 2.648039 1_655
Al1 Cu1 2.671136 1_656
Al1 Cu2 2.671136 1_556
Al1 Cu3 2.671149 1_655
Al1 Cu0 2.671150 1_655
Al1 Al6 2.786992 1_655
Al1 Al6 2.786997 1_555
Al1 Al7 2.790046 1_555
Al1 Al4 2.790079 1_655
Al1 Y0 3.042039 1_656
Al2 Cu1 2.671136 1_555
Al2 Cu2 2.671136 1_555
Al2 Cu3 2.671149 1_565
Al2 Cu0 2.671150 1_465
Al2 Al5 2.786992 1_455
Al2 Al5 2.786997 1_555
Al2 Al4 2.790046 1_555
Al2 Al7 2.790079 1_455
Al2 Y0 3.042039 1_565
Al3 Cu1 2.669515 1_655
Al3 Cu2 2.669517 1_555
Al3 Cu3 2.669536 1_655
Al3 Cu0 2.669538 1_555
Al3 Al4 2.786921 1_655
Al3 Al4 2.786925 1_555
Al3 Al5 2.789451 1_555
Al3 Al6 2.789487 1_555
Al3 Y0 3.044310 1_655
Al4 Cu2 2.541922 1_555
Al4 Cu1 2.541922 1_555
Al4 Cu3 2.541952 1_555
Al4 Cu0 2.541953 1_555
Al4 Al6 2.705452 1_554
Al4 Al5 2.705494 1_545
Al4 Y0 3.186605 1_555
Al4 Y0 3.186605 1_655
Al5 Cu1 2.543735 1_655
Al5 Cu2 2.543737 1_555
Al5 Cu0 2.543758 1_565
Al5 Cu3 2.543761 1_565
Al5 Al7 2.705452 1_554
Al5 Y0 3.185133 1_665
Al5 Y0 3.185137 1_565
Al6 Cu1 2.543735 1_556
Al6 Cu2 2.543737 1_556
Al6 Cu0 2.543758 1_555
Al6 Cu3 2.543761 1_655
Al6 Al7 2.705494 1_545
Al6 Y0 3.185133 1_556
Al6 Y0 3.185137 1_656
Al7 Cu2 2.541922 1_556
Al7 Cu1 2.541922 1_656
Al7 Cu3 2.541952 1_665
Al7 Cu0 2.541953 1_565
Al7 Y0 3.186605 1_666
Al7 Y0 3.186605 1_566
Cu0 Cu3 2.547543 1_655
Cu0 Cu3 2.547543 1_555
Cu0 Y0 3.341066 1_655
Cu0 Y0 3.341066 1_556
Cu1 Cu2 2.547543 1_455
Cu1 Cu2 2.547543 1_555
Cu1 Y0 3.341065 1_555
Cu1 Y0 3.341065 1_565
Cu2 Y0 3.341066 1_655
Cu2 Y0 3.341066 1_565
Cu3 Y0 3.341066 1_556
Cu3 Y0 3.341066 1_555
