# generated using pymatgen
data_Ti2N2O
_symmetry_space_group_name_H-M   'P 1'
_cell_length_a   8.21096400
_cell_length_b   8.22249659
_cell_length_c   8.22237628
_cell_angle_alpha   109.60630718
_cell_angle_beta   109.31778930
_cell_angle_gamma   109.41157849
_symmetry_Int_Tables_number   1
_chemical_formula_structural   Ti2N2O
_chemical_formula_sum   'Ti16 N16 O8'
_cell_volume   427.74845100
_cell_formula_units_Z   8
loop_
 _symmetry_equiv_pos_site_id
 _symmetry_equiv_pos_as_xyz
  1  'x, y, z'
loop_
 _atom_site_type_symbol
 _atom_site_label
 _atom_site_symmetry_multiplicity
 _atom_site_fract_x
 _atom_site_fract_y
 _atom_site_fract_z
 _atom_site_occupancy
  Ti  Ti0  1  0.24226200  0.95319300  0.80016200  1
  Ti  Ti1  1  0.01132900  0.51004100  0.00037100  1
  Ti  Ti2  1  0.04324000  0.79812200  0.23994200  1
  Ti  Ti3  1  0.45649500  0.69520900  0.76364300  1
  Ti  Ti4  1  0.28933500  0.74612100  0.46883800  1
  Ti  Ti5  1  0.78402600  0.75178100  0.95942800  1
  Ti  Ti6  1  0.50978200  0.00766200  0.00496200  1
  Ti  Ti7  1  0.99711500  0.00610300  0.49037000  1
  Ti  Ti8  1  0.49768300  0.49861500  0.49753900  1
  Ti  Ti9  1  0.25384400  0.45313500  0.29171400  1
  Ti  Ti10  1  0.73998700  0.53709700  0.70315100  1
  Ti  Ti11  1  0.71593100  0.25725100  0.53683900  1
  Ti  Ti12  1  0.21075300  0.24470400  0.04845200  1
  Ti  Ti13  1  0.54915600  0.29355800  0.24510200  1
  Ti  Ti14  1  0.95505400  0.21646100  0.74138400  1
  Ti  Ti15  1  0.75252500  0.04694100  0.20621600  1
  N  N0  1  0.22588200  0.73314800  0.72439800  1
  N  N1  1  0.22373100  0.46185100  0.55242500  1
  N  N2  1  0.72461200  0.77330200  0.73856700  1
  N  N3  1  0.45976300  0.45127500  0.77266800  1
  N  N4  1  0.27335700  0.04758500  0.98782300  1
  N  N5  1  0.23566000  0.51234100  0.04145200  1
  N  N6  1  0.94648200  0.98795700  0.27869700  1
  N  N7  1  0.73454900  0.27564000  0.77757900  1
  N  N8  1  0.72749300  0.95268900  0.00575300  1
  N  N9  1  0.54164300  0.54747900  0.22602100  1
  N  N10  1  0.27441800  0.22261300  0.26594000  1
  N  N11  1  0.77409100  0.53748500  0.45084900  1
  N  N12  1  0.48811700  0.03711900  0.23666300  1
  N  N13  1  0.98933400  0.72348100  0.04928800  1
  N  N14  1  0.77330400  0.26513500  0.27402300  1
  N  N15  1  0.95779100  0.23005300  0.49401500  1
  O  O0  1  0.04314100  0.76648500  0.50490900  1
  O  O1  1  0.50855500  0.96498500  0.75933800  1
  O  O2  1  0.00825500  0.27256300  0.95379700  1
  O  O3  1  0.05578900  0.01051700  0.72339000  1
  O  O4  1  0.26321600  0.72484100  0.22671900  1
  O  O5  1  0.55119000  0.77375200  0.45521500  1
  O  O6  1  0.76343700  0.48685500  0.96036100  1
  O  O7  1  0.44766900  0.22485400  0.54199600  1
loop_
_geom_bond_atom_site_label_1
_geom_bond_atom_site_label_2
_geom_bond_distance
_geom_bond_site_symmetry_2
Ti4 Ti9 2.215301 1_555
Ti8 Ti9 1.961725 1_555
Ti10 Ti8 1.978327 1_555
Ti10 Ti5 2.064552 1_555
Ti10 Ti11 2.147375 1_555
Ti12 Ti9 1.972638 1_555
N0 Ti0 1.645049 1_555
N0 Ti3 1.960338 1_555
N0 Ti6 2.302339 1_566
N1 Ti3 1.865636 1_555
N1 Ti9 2.218315 1_555
N1 Ti8 2.380356 1_555
N2 Ti5 1.803905 1_555
N2 Ti10 1.918488 1_555
N2 Ti8 2.063078 1_555
N2 Ti3 2.179668 1_555
N3 Ti3 2.040488 1_555
N3 O7 2.110936 1_555
N3 Ti10 2.486052 1_555
N3 Ti8 2.518431 1_555
N4 Ti0 1.361027 1_545
N4 Ti12 1.822326 1_556
N4 Ti6 2.042011 1_556
N4 Ti13 2.146779 1_556
N5 Ti1 1.751637 1_555
N5 O4 1.774153 1_555
N5 O2 1.897902 1_554
N5 Ti12 2.163703 1_555
N5 Ti9 2.238514 1_555
N5 Ti14 2.408215 1_454
N6 Ti7 1.590611 1_565
N6 Ti15 1.790566 1_565
N6 Ti2 1.956322 1_655
N6 Ti5 2.232043 1_554
N7 O6 1.752086 1_555
N7 Ti11 1.883624 1_555
N7 Ti1 2.049371 1_656
N7 Ti14 2.109124 1_555
N7 Ti10 2.415675 1_555
N8 Ti15 1.473902 1_565
N8 Ti5 1.814925 1_554
N8 Ti6 1.982755 1_565
N8 Ti3 2.122719 1_554
N9 O5 2.114567 1_555
N9 Ti13 2.164865 1_555
N9 Ti12 2.480203 1_555
N9 Ti8 2.512890 1_555
N9 Ti9 2.526861 1_555
N10 Ti12 1.779547 1_555
N10 Ti9 1.906093 1_555
N10 Ti8 2.040079 1_555
N10 Ti13 2.215097 1_555
N11 Ti13 1.867949 1_555
N11 Ti10 2.184093 1_555
N11 Ti8 2.361600 1_555
N12 Ti6 1.913904 1_555
N12 Ti13 1.969369 1_555
N12 Ti11 2.136300 1_555
N12 Ti15 2.244827 1_555
N13 Ti2 1.320880 1_655
N13 Ti5 1.730306 1_554
N13 Ti1 1.749132 1_655
N13 O6 1.873429 1_554
N13 Ti10 2.402603 1_554
N14 Ti15 1.618966 1_555
N14 Ti13 1.879400 1_555
N14 Ti6 2.168636 1_555
N15 Ti7 1.964839 1_555
N15 Ti15 1.997687 1_555
N15 Ti14 2.081134 1_555
N15 Ti11 2.196091 1_555
O0 Ti0 2.031727 1_555
O0 Ti7 2.159200 1_465
O0 Ti4 2.188781 1_555
O0 Ti2 2.279387 1_555
O1 Ti6 1.926303 1_566
O1 Ti4 2.073991 1_555
O1 Ti3 2.130014 1_555
O1 Ti0 2.295533 1_555
O2 Ti14 1.508178 1_455
O2 Ti12 1.714479 1_556
O2 Ti1 1.849104 1_556
O2 Ti9 2.350564 1_556
O3 Ti0 1.733466 1_545
O3 Ti7 1.798719 1_455
O3 Ti14 2.101759 1_455
O3 Ti12 2.266722 1_556
O4 Ti4 1.870475 1_555
O4 Ti1 1.918329 1_555
O4 Ti2 2.108717 1_555
O4 Ti9 2.448862 1_555
O5 Ti4 2.130431 1_555
O5 Ti8 2.324013 1_555
O5 Ti9 2.426879 1_555
O6 Ti1 1.882685 1_656
O6 Ti5 2.130997 1_555
O6 Ti10 2.247274 1_555
O6 Ti2 2.400423 1_656
O7 Ti11 2.145682 1_555
O7 Ti8 2.325154 1_555
O7 Ti10 2.371701 1_555
