# generated using pymatgen
data_K
_symmetry_space_group_name_H-M   'P 1'
_cell_length_a   6.17781366
_cell_length_b   6.17781366
_cell_length_c   11.25644358
_cell_angle_alpha   90.00000000
_cell_angle_beta   90.00000000
_cell_angle_gamma   89.99015156
_symmetry_Int_Tables_number   1
_chemical_formula_structural   K
_chemical_formula_sum   K5
_cell_volume   429.60645839
_cell_formula_units_Z   5
loop_
 _symmetry_equiv_pos_site_id
 _symmetry_equiv_pos_as_xyz
  1  'x, y, z'
loop_
 _atom_site_type_symbol
 _atom_site_label
 _atom_site_symmetry_multiplicity
 _atom_site_fract_x
 _atom_site_fract_y
 _atom_site_fract_z
 _atom_site_occupancy
  K  K0  1  -0.00000000  -0.00000000  0.00000000  1
  K  K1  1  0.50000000  0.00000000  0.30797237  1
  K  K2  1  -0.00000000  0.50000000  0.30797237  1
  K  K3  1  0.00000000  0.50000000  0.69202763  1
  K  K4  1  0.50000000  0.00000000  0.69202763  1
loop_
_geom_bond_atom_site_label_1
_geom_bond_atom_site_label_2
_geom_bond_distance
_geom_bond_site_symmetry_2
K0 K3 4.643185 1_554
K0 K1 4.643185 1_555
K0 K4 4.643185 1_554
K0 K3 4.643185 1_544
K0 K2 4.643185 1_555
K0 K2 4.643185 1_545
K0 K1 4.643185 1_455
K0 K4 4.643185 1_454
K1 K4 4.323096 1_555
K1 K2 4.367998 1_555
K1 K2 4.367998 1_645
K1 K2 4.368749 1_545
K1 K2 4.368749 1_655
K2 K3 4.323096 1_555
K3 K4 4.367998 1_555
K3 K4 4.367998 1_465
K3 K4 4.368749 1_565
K3 K4 4.368749 1_455
