# generated using pymatgen
data_Sc7CoBr12
_symmetry_space_group_name_H-M   'P 1'
_cell_length_a   8.65320036
_cell_length_b   8.65320037
_cell_length_c   8.65320073
_cell_angle_alpha   106.95847617
_cell_angle_beta   106.95847622
_cell_angle_gamma   106.95848210
_symmetry_Int_Tables_number   1
_chemical_formula_structural   Sc7CoBr12
_chemical_formula_sum   'Sc7 Co1 Br12'
_cell_volume   540.21507882
_cell_formula_units_Z   1
loop_
 _symmetry_equiv_pos_site_id
 _symmetry_equiv_pos_as_xyz
  1  'x, y, z'
loop_
 _atom_site_type_symbol
 _atom_site_label
 _atom_site_symmetry_multiplicity
 _atom_site_fract_x
 _atom_site_fract_y
 _atom_site_fract_z
 _atom_site_occupancy
  Sc  Sc0  1  0.29904233  0.09540115  0.02302816  1
  Sc  Sc1  1  0.09540115  0.02302816  0.29904233  1
  Sc  Sc2  1  0.02302816  0.29904233  0.09540115  1
  Sc  Sc3  1  0.70095767  0.90459885  0.97697184  1
  Sc  Sc4  1  0.90459885  0.97697184  0.70095767  1
  Sc  Sc5  1  0.97697184  0.70095767  0.90459885  1
  Sc  Sc6  1  0.50000000  0.50000000  0.50000000  1
  Co  Co0  1  -0.00000000  -0.00000000  0.00000000  1
  Br  Br0  1  0.22339357  0.07116884  0.67899034  1
  Br  Br1  1  0.07116884  0.67899034  0.22339357  1
  Br  Br2  1  0.67899034  0.22339357  0.07116884  1
  Br  Br3  1  0.77660643  0.92883116  0.32100966  1
  Br  Br4  1  0.92883116  0.32100966  0.77660643  1
  Br  Br5  1  0.32100966  0.77660643  0.92883116  1
  Br  Br6  1  0.38663646  0.46135617  0.16391374  1
  Br  Br7  1  0.46135617  0.16391374  0.38663646  1
  Br  Br8  1  0.16391374  0.38663646  0.46135617  1
  Br  Br9  1  0.61336354  0.53864383  0.83608626  1
  Br  Br10  1  0.53864383  0.83608626  0.61336354  1
  Br  Br11  1  0.83608626  0.61336354  0.53864383  1
loop_
_geom_bond_atom_site_label_1
_geom_bond_atom_site_label_2
_geom_bond_distance
_geom_bond_site_symmetry_2
Co0 Sc0 2.402983 1_555
Co0 Sc3 2.402983 1_444
Co0 Sc2 2.402983 1_555
Co0 Sc5 2.402983 1_444
Co0 Sc1 2.402983 1_555
Co0 Sc4 2.402983 1_444
Br0 Sc4 2.719366 1_445
Br0 Sc0 2.784620 1_556
Br0 Sc1 3.002879 1_555
Br1 Sc5 2.719366 1_454
Br1 Sc1 2.784620 1_565
Br1 Sc2 3.002879 1_555
Br2 Sc3 2.719366 1_544
Br2 Sc2 2.784620 1_655
Br2 Sc0 3.002879 1_555
Br3 Sc1 2.719366 1_665
Br3 Sc3 2.784620 1_554
Br3 Sc4 3.002879 1_555
Br4 Sc2 2.719366 1_656
Br4 Sc4 2.784620 1_545
Br4 Sc5 3.002879 1_555
Br5 Sc0 2.719366 1_566
Br5 Sc5 2.784620 1_455
Br5 Sc3 3.002879 1_555
Br6 Sc6 2.666263 1_555
Br6 Sc0 2.810214 1_555
Br6 Sc2 2.841125 1_555
Br7 Sc6 2.666263 1_555
Br7 Sc1 2.810213 1_555
Br7 Sc0 2.841125 1_555
Br8 Sc6 2.666263 1_555
Br8 Sc2 2.810214 1_555
Br8 Sc1 2.841125 1_555
Br9 Sc6 2.666263 1_555
Br9 Sc3 2.810214 1_555
Br9 Sc5 2.841125 1_555
Br10 Sc6 2.666263 1_555
Br10 Sc4 2.810213 1_555
Br10 Sc3 2.841125 1_555
Br11 Sc6 2.666263 1_555
Br11 Sc5 2.810214 1_555
Br11 Sc4 2.841125 1_555
