# generated using pymatgen
data_Er11Cd45
_symmetry_space_group_name_H-M   'P 1'
_cell_length_a   15.34871294
_cell_length_b   15.34871294
_cell_length_c   15.34871294
_cell_angle_alpha   60.00000000
_cell_angle_beta   60.00000000
_cell_angle_gamma   60.00000000
_symmetry_Int_Tables_number   1
_chemical_formula_structural   Er11Cd45
_chemical_formula_sum   'Er22 Cd90'
_cell_volume   2556.82434693
_cell_formula_units_Z   2
loop_
 _symmetry_equiv_pos_site_id
 _symmetry_equiv_pos_as_xyz
  1  'x, y, z'
loop_
 _atom_site_type_symbol
 _atom_site_label
 _atom_site_symmetry_multiplicity
 _atom_site_fract_x
 _atom_site_fract_y
 _atom_site_fract_z
 _atom_site_occupancy
  Er  Er0  1  0.00000000  0.00000000  0.00000000  1
  Er  Er1  1  0.01382200  0.33398500  0.63837100  1
  Er  Er2  1  0.01382200  0.01382200  0.63837100  1
  Er  Er3  1  0.33398500  0.01382200  0.63837100  1
  Er  Er4  1  0.01382200  0.63837100  0.33398500  1
  Er  Er5  1  0.33398500  0.63837100  0.01382200  1
  Er  Er6  1  0.01382200  0.63837100  0.01382200  1
  Er  Er7  1  0.63837100  0.01382200  0.01382200  1
  Er  Er8  1  0.63837100  0.33398500  0.01382200  1
  Er  Er9  1  0.63837100  0.01382200  0.33398500  1
  Er  Er10  1  0.33398500  0.01382200  0.01382200  1
  Er  Er11  1  0.01382200  0.01382200  0.33398500  1
  Er  Er12  1  0.01382200  0.33398500  0.01382200  1
  Er  Er13  1  0.25000000  0.25000000  0.25000000  1
  Er  Er14  1  0.40625800  0.40625800  0.78122700  1
  Er  Er15  1  0.40625800  0.78122700  0.40625800  1
  Er  Er16  1  0.78122700  0.40625800  0.40625800  1
  Er  Er17  1  0.40625800  0.40625800  0.40625800  1
  Er  Er18  1  0.66187800  0.66187800  0.01436500  1
  Er  Er19  1  0.66187800  0.01436500  0.66187800  1
  Er  Er20  1  0.01436500  0.66187800  0.66187800  1
  Er  Er21  1  0.66187800  0.66187800  0.66187800  1
  Cd  Cd0  1  0.08319900  0.08319900  0.75040200  1
  Cd  Cd1  1  0.08319900  0.75040200  0.08319900  1
  Cd  Cd2  1  0.75040200  0.08319900  0.08319900  1
  Cd  Cd3  1  0.08319900  0.08319900  0.08319900  1
  Cd  Cd4  1  0.91325000  0.91325000  0.26025100  1
  Cd  Cd5  1  0.91325000  0.26025100  0.91325000  1
  Cd  Cd6  1  0.26025100  0.91325000  0.91325000  1
  Cd  Cd7  1  0.91325000  0.91325000  0.91325000  1
  Cd  Cd8  1  0.15634600  0.15634600  0.84365400  1
  Cd  Cd9  1  0.84365400  0.15634600  0.84365400  1
  Cd  Cd10  1  0.15634600  0.84365400  0.84365400  1
  Cd  Cd11  1  0.84365400  0.84365400  0.15634600  1
  Cd  Cd12  1  0.15634600  0.84365400  0.15634600  1
  Cd  Cd13  1  0.84365400  0.15634600  0.15634600  1
  Cd  Cd14  1  0.39057200  0.20121700  0.01764000  1
  Cd  Cd15  1  0.39057200  0.39057200  0.01764000  1
  Cd  Cd16  1  0.20121700  0.39057200  0.01764000  1
  Cd  Cd17  1  0.39057200  0.01764000  0.20121700  1
  Cd  Cd18  1  0.20121700  0.01764000  0.39057200  1
  Cd  Cd19  1  0.39057200  0.01764000  0.39057200  1
  Cd  Cd20  1  0.01764000  0.39057200  0.39057200  1
  Cd  Cd21  1  0.01764000  0.20121700  0.39057200  1
  Cd  Cd22  1  0.01764000  0.39057200  0.20121700  1
  Cd  Cd23  1  0.20121700  0.39057200  0.39057200  1
  Cd  Cd24  1  0.39057200  0.39057200  0.20121700  1
  Cd  Cd25  1  0.39057200  0.20121700  0.39057200  1
  Cd  Cd26  1  0.16358000  0.16358000  0.50926000  1
  Cd  Cd27  1  0.16358000  0.50926000  0.16358000  1
  Cd  Cd28  1  0.50926000  0.16358000  0.16358000  1
  Cd  Cd29  1  0.16358000  0.16358000  0.16358000  1
  Cd  Cd30  1  0.26323200  0.61190900  0.86162800  1
  Cd  Cd31  1  0.26323200  0.26323200  0.86162800  1
  Cd  Cd32  1  0.61190900  0.26323200  0.86162800  1
  Cd  Cd33  1  0.26323200  0.86162800  0.61190900  1
  Cd  Cd34  1  0.61190900  0.86162800  0.26323200  1
  Cd  Cd35  1  0.26323200  0.86162800  0.26323200  1
  Cd  Cd36  1  0.86162800  0.26323200  0.26323200  1
  Cd  Cd37  1  0.86162800  0.61190900  0.26323200  1
  Cd  Cd38  1  0.86162800  0.26323200  0.61190900  1
  Cd  Cd39  1  0.61190900  0.26323200  0.26323200  1
  Cd  Cd40  1  0.26323200  0.26323200  0.61190900  1
  Cd  Cd41  1  0.26323200  0.61190900  0.26323200  1
  Cd  Cd42  1  0.50000000  0.50000000  0.50000000  1
  Cd  Cd43  1  0.64043100  0.45044000  0.26869800  1
  Cd  Cd44  1  0.64043100  0.64043100  0.26869800  1
  Cd  Cd45  1  0.45044000  0.64043100  0.26869800  1
  Cd  Cd46  1  0.64043100  0.26869800  0.45044000  1
  Cd  Cd47  1  0.45044000  0.26869800  0.64043100  1
  Cd  Cd48  1  0.64043100  0.26869800  0.64043100  1
  Cd  Cd49  1  0.26869800  0.64043100  0.64043100  1
  Cd  Cd50  1  0.26869800  0.45044000  0.64043100  1
  Cd  Cd51  1  0.26869800  0.64043100  0.45044000  1
  Cd  Cd52  1  0.45044000  0.64043100  0.64043100  1
  Cd  Cd53  1  0.64043100  0.64043100  0.45044000  1
  Cd  Cd54  1  0.64043100  0.45044000  0.64043100  1
  Cd  Cd55  1  0.51239000  0.83377900  0.14144000  1
  Cd  Cd56  1  0.51239000  0.51239000  0.14144000  1
  Cd  Cd57  1  0.83377900  0.51239000  0.14144000  1
  Cd  Cd58  1  0.51239000  0.14144000  0.83377900  1
  Cd  Cd59  1  0.83377900  0.14144000  0.51239000  1
  Cd  Cd60  1  0.51239000  0.14144000  0.51239000  1
  Cd  Cd61  1  0.14144000  0.51239000  0.51239000  1
  Cd  Cd62  1  0.14144000  0.83377900  0.51239000  1
  Cd  Cd63  1  0.14144000  0.51239000  0.83377900  1
  Cd  Cd64  1  0.83377900  0.51239000  0.51239000  1
  Cd  Cd65  1  0.51239000  0.51239000  0.83377900  1
  Cd  Cd66  1  0.51239000  0.83377900  0.51239000  1
  Cd  Cd67  1  0.75000000  0.75000000  0.75000000  1
  Cd  Cd68  1  0.83004800  0.83004800  0.50985500  1
  Cd  Cd69  1  0.83004800  0.50985500  0.83004800  1
  Cd  Cd70  1  0.50985500  0.83004800  0.83004800  1
  Cd  Cd71  1  0.83004800  0.83004800  0.83004800  1
  Cd  Cd72  1  0.91088200  0.91088200  0.58911800  1
  Cd  Cd73  1  0.58911800  0.91088200  0.58911800  1
  Cd  Cd74  1  0.91088200  0.58911800  0.58911800  1
  Cd  Cd75  1  0.58911800  0.58911800  0.91088200  1
  Cd  Cd76  1  0.91088200  0.58911800  0.91088200  1
  Cd  Cd77  1  0.58911800  0.91088200  0.91088200  1
  Cd  Cd78  1  0.76388000  0.06736800  0.40487100  1
  Cd  Cd79  1  0.76388000  0.76388000  0.40487100  1
  Cd  Cd80  1  0.06736800  0.76388000  0.40487100  1
  Cd  Cd81  1  0.76388000  0.40487100  0.06736800  1
  Cd  Cd82  1  0.06736800  0.40487100  0.76388000  1
  Cd  Cd83  1  0.76388000  0.40487100  0.76388000  1
  Cd  Cd84  1  0.40487100  0.76388000  0.76388000  1
  Cd  Cd85  1  0.40487100  0.06736800  0.76388000  1
  Cd  Cd86  1  0.40487100  0.76388000  0.06736800  1
  Cd  Cd87  1  0.06736800  0.76388000  0.76388000  1
  Cd  Cd88  1  0.76388000  0.76388000  0.06736800  1
  Cd  Cd89  1  0.76388000  0.06736800  0.76388000  1
loop_
_geom_bond_atom_site_label_1
_geom_bond_atom_site_label_2
_geom_bond_distance
_geom_bond_site_symmetry_2
Cd0 Cd9 3.007301 1_455
Cd0 Cd10 3.007301 1_545
Cd0 Cd8 3.007314 1_555
Cd0 Cd26 3.022033 1_555
Cd0 Er0 3.128005 1_556
Cd0 Er2 3.165528 1_555
Cd0 Er3 3.165540 1_555
Cd0 Er1 3.165540 1_555
Cd1 Cd10 3.007301 1_554
Cd1 Cd11 3.007301 1_455
Cd1 Cd12 3.007314 1_555
Cd1 Cd27 3.022033 1_555
Cd1 Er0 3.128005 1_565
Cd1 Er6 3.165528 1_555
Cd1 Er4 3.165540 1_555
Cd1 Er5 3.165540 1_555
Cd2 Cd9 3.007301 1_554
Cd2 Cd28 3.022033 1_555
Cd2 Er0 3.128005 1_655
Cd2 Er7 3.165528 1_555
Cd2 Er9 3.165540 1_555
Cd2 Er8 3.165540 1_555
Cd3 Cd8 3.007301 1_554
Cd3 Er0 3.127992 1_555
Cd3 Er11 3.165542 1_555
Cd3 Er12 3.165542 1_555
Cd3 Er10 3.165542 1_555
Cd4 Cd68 3.128080 1_555
Cd4 Cd80 3.243076 1_655
Cd4 Cd78 3.243076 1_565
Cd4 Cd79 3.243098 1_555
Cd4 Er0 3.261510 1_665
Cd4 Er11 3.453018 1_665
Cd4 Er4 3.453031 1_655
Cd4 Er9 3.453031 1_565
Cd5 Cd8 3.061654 1_655
Cd5 Cd9 3.061666 1_555
Cd5 Cd69 3.128080 1_555
Cd5 Cd82 3.243076 1_655
Cd5 Cd81 3.243076 1_556
Cd5 Cd83 3.243098 1_555
Cd5 Er0 3.261510 1_656
Cd5 Er12 3.453018 1_656
Cd5 Er8 3.453031 1_556
Cd5 Er1 3.453031 1_655
Cd6 Cd8 3.061654 1_565
Cd6 Cd70 3.128080 1_555
Cd6 Cd85 3.243076 1_565
Cd6 Cd86 3.243076 1_556
Cd6 Cd84 3.243098 1_555
Cd6 Er0 3.261510 1_566
Cd6 Er10 3.453018 1_566
Cd6 Er3 3.453031 1_565
Cd6 Er5 3.453031 1_556
Cd7 Cd9 3.061653 1_565
Cd7 Cd71 3.128105 1_555
Cd7 Cd88 3.243098 1_556
Cd7 Cd89 3.243098 1_565
Cd7 Cd87 3.243098 1_655
Cd7 Er0 3.261498 1_666
Cd7 Er7 3.453030 1_566
Cd7 Er2 3.453030 1_665
Cd7 Er6 3.453030 1_656
Cd8 Cd85 3.115626 1_555
Cd8 Cd82 3.115626 1_555
Cd8 Er0 3.393702 1_556
Cd9 Er0 3.393702 1_656
Cd10 Cd30 3.009245 1_555
Cd10 Cd33 3.009245 1_555
Cd10 Cd7 3.061653 1_455
Cd10 Cd6 3.061666 1_555
Cd10 Cd84 3.115625 1_555
Cd10 Cd87 3.115638 1_555
Cd10 Er0 3.393702 1_566
Cd11 Cd2 3.007301 1_565
Cd11 Cd34 3.009245 1_555
Cd11 Cd37 3.009245 1_555
Cd11 Cd7 3.061653 1_554
Cd11 Cd4 3.061666 1_555
Cd11 Cd79 3.115625 1_555
Cd11 Cd88 3.115638 1_555
Cd11 Er0 3.393702 1_665
Cd12 Cd3 3.007301 1_565
Cd12 Cd41 3.009248 1_555
Cd12 Cd35 3.009258 1_555
Cd12 Cd4 3.061654 1_455
Cd12 Cd6 3.061654 1_554
Cd12 Cd86 3.115626 1_555
Cd12 Cd80 3.115626 1_555
Cd12 Er0 3.393702 1_565
Cd13 Cd3 3.007301 1_655
Cd13 Cd2 3.007314 1_555
Cd13 Cd39 3.009248 1_555
Cd13 Cd36 3.009258 1_555
Cd13 Cd5 3.061654 1_554
Cd13 Cd4 3.061654 1_545
Cd13 Cd81 3.115626 1_555
Cd13 Cd78 3.115626 1_555
Cd13 Er0 3.393702 1_655
Cd14 Cd58 2.810489 1_554
Cd14 Cd17 2.817671 1_555
Cd14 Cd16 2.906356 1_555
Cd14 Cd15 2.906356 1_555
Cd14 Cd28 3.225545 1_555
Cd14 Cd29 3.225558 1_555
Cd14 Cd32 3.316728 1_554
Cd14 Cd31 3.316728 1_554
Cd14 Er13 3.360836 1_555
Cd14 Er14 3.404942 1_554
Cd14 Er7 3.427574 1_555
Cd14 Er10 3.427584 1_555
Cd15 Cd65 2.810474 1_554
Cd15 Cd24 2.817671 1_555
Cd15 Cd16 2.906356 1_555
Cd15 Cd27 3.225552 1_555
Cd15 Cd28 3.225552 1_555
Cd15 Cd32 3.316728 1_554
Cd15 Cd30 3.316728 1_554
Cd15 Er13 3.360843 1_555
Cd15 Er14 3.404942 1_554
Cd15 Er5 3.427569 1_555
Cd15 Er8 3.427569 1_555
Cd16 Cd63 2.810489 1_554
Cd16 Cd22 2.817671 1_555
Cd16 Cd27 3.225545 1_555
Cd16 Cd29 3.225558 1_555
Cd16 Cd30 3.316728 1_554
Cd16 Cd31 3.316728 1_554
Cd16 Er13 3.360836 1_555
Cd16 Er14 3.404942 1_554
Cd16 Er6 3.427574 1_555
Cd16 Er12 3.427584 1_555
Cd17 Cd55 2.810489 1_545
Cd17 Cd19 2.906356 1_555
Cd17 Cd18 2.906356 1_555
Cd17 Cd28 3.225545 1_555
Cd17 Cd29 3.225558 1_555
Cd17 Cd34 3.316728 1_545
Cd17 Cd35 3.316728 1_545
Cd17 Er13 3.360836 1_555
Cd17 Er15 3.404942 1_545
Cd17 Er7 3.427574 1_555
Cd17 Er10 3.427584 1_555
Cd18 Cd62 2.810489 1_545
Cd18 Cd21 2.817671 1_555
Cd18 Cd19 2.906356 1_555
Cd18 Cd26 3.225545 1_555
Cd18 Cd29 3.225558 1_555
Cd18 Cd33 3.316728 1_545
Cd18 Cd35 3.316728 1_545
Cd18 Er13 3.360836 1_555
Cd18 Er15 3.404942 1_545
Cd18 Er2 3.427574 1_555
Cd18 Er11 3.427584 1_555
Cd19 Cd66 2.810474 1_545
Cd19 Cd25 2.817671 1_555
Cd19 Cd26 3.225552 1_555
Cd19 Cd28 3.225552 1_555
Cd19 Cd33 3.316728 1_545
Cd19 Cd34 3.316728 1_545
Cd19 Er13 3.360843 1_555
Cd19 Er15 3.404942 1_545
Cd19 Er9 3.427569 1_555
Cd19 Er3 3.427569 1_555
Cd20 Cd64 2.810474 1_455
Cd20 Cd23 2.817671 1_555
Cd20 Cd22 2.906356 1_555
Cd20 Cd21 2.906356 1_555
Cd20 Cd26 3.225552 1_555
Cd20 Cd27 3.225552 1_555
Cd20 Cd38 3.316728 1_455
Cd20 Cd37 3.316728 1_455
Cd20 Er13 3.360843 1_555
Cd20 Er16 3.404942 1_455
Cd20 Er1 3.427569 1_555
Cd20 Er4 3.427569 1_555
Cd21 Cd59 2.810489 1_455
Cd21 Cd22 2.906356 1_555
Cd21 Cd26 3.225545 1_555
Cd21 Cd29 3.225558 1_555
Cd21 Cd38 3.316728 1_455
Cd21 Cd36 3.316728 1_455
Cd21 Er13 3.360836 1_555
Cd21 Er16 3.404942 1_455
Cd21 Er2 3.427574 1_555
Cd21 Er11 3.427584 1_555
Cd22 Cd57 2.810489 1_455
Cd22 Cd27 3.225545 1_555
Cd22 Cd29 3.225558 1_555
Cd22 Cd37 3.316728 1_455
Cd22 Cd36 3.316728 1_455
Cd22 Er13 3.360836 1_555
Cd22 Er16 3.404942 1_455
Cd22 Er6 3.427574 1_555
Cd22 Er12 3.427584 1_555
Cd23 Cd61 2.810464 1_555
Cd23 Cd24 2.906356 1_555
Cd23 Cd25 2.906356 1_555
Cd23 Cd27 3.225559 1_555
Cd23 Cd26 3.225559 1_555
Cd23 Cd40 3.316728 1_555
Cd23 Cd41 3.316728 1_555
Cd23 Er13 3.360849 1_555
Cd23 Er17 3.404942 1_555
Cd23 Er1 3.427576 1_555
Cd23 Er4 3.427576 1_555
Cd24 Cd56 2.810464 1_555
Cd24 Cd25 2.906356 1_555
Cd24 Cd28 3.225559 1_555
Cd24 Cd27 3.225559 1_555
Cd24 Cd41 3.316728 1_555
Cd24 Cd39 3.316728 1_555
Cd24 Er13 3.360849 1_555
Cd24 Er17 3.404942 1_555
Cd24 Er5 3.427576 1_555
Cd24 Er8 3.427576 1_555
Cd25 Cd60 2.810464 1_555
Cd25 Cd28 3.225559 1_555
Cd25 Cd26 3.225559 1_555
Cd25 Cd40 3.316728 1_555
Cd25 Cd39 3.316728 1_555
Cd25 Er13 3.360849 1_555
Cd25 Er17 3.404942 1_555
Cd25 Er9 3.427576 1_555
Cd25 Er3 3.427576 1_555
Cd26 Er13 3.249091 1_555
Cd26 Er3 3.266111 1_555
Cd26 Er1 3.266111 1_555
Cd26 Er2 3.266111 1_555
Cd27 Er13 3.249091 1_555
Cd27 Er5 3.266111 1_555
Cd27 Er4 3.266111 1_555
Cd27 Er6 3.266111 1_555
Cd28 Er13 3.249091 1_555
Cd28 Er9 3.266111 1_555
Cd28 Er8 3.266111 1_555
Cd28 Er7 3.266111 1_555
Cd29 Cd3 3.022045 1_555
Cd29 Er13 3.249091 1_555
Cd29 Er11 3.266111 1_555
Cd29 Er12 3.266111 1_555
Cd29 Er10 3.266111 1_555
Cd30 Cd52 3.160835 1_555
Cd30 Cd49 3.160842 1_555
Cd30 Cd65 3.212103 1_555
Cd30 Cd63 3.212130 1_555
Cd30 Er14 3.249970 1_555
Cd30 Cd84 3.275312 1_555
Cd30 Er5 3.275325 1_556
Cd30 Er6 3.275336 1_556
Cd30 Cd87 3.275337 1_555
Cd31 Cd8 3.009258 1_555
Cd31 Cd50 3.160836 1_555
Cd31 Cd47 3.160836 1_555
Cd31 Cd58 3.212105 1_555
Cd31 Cd63 3.212105 1_555
Cd31 Er14 3.249970 1_555
Cd31 Er10 3.275335 1_556
Cd31 Er12 3.275335 1_556
Cd31 Cd85 3.275337 1_555
Cd31 Cd82 3.275337 1_555
Cd32 Cd9 3.009245 1_555
Cd32 Cd54 3.160835 1_555
Cd32 Cd48 3.160842 1_555
Cd32 Cd65 3.212103 1_555
Cd32 Cd58 3.212130 1_555
Cd32 Er14 3.249970 1_555
Cd32 Cd83 3.275312 1_555
Cd32 Er8 3.275325 1_556
Cd32 Er7 3.275336 1_556
Cd32 Cd89 3.275337 1_555
Cd33 Cd52 3.160835 1_555
Cd33 Cd49 3.160842 1_555
Cd33 Cd66 3.212103 1_555
Cd33 Cd62 3.212130 1_555
Cd33 Er15 3.249970 1_555
Cd33 Cd84 3.275312 1_555
Cd33 Er3 3.275325 1_565
Cd33 Er2 3.275336 1_565
Cd33 Cd87 3.275337 1_555
Cd34 Cd53 3.160835 1_555
Cd34 Cd44 3.160842 1_555
Cd34 Cd66 3.212103 1_555
Cd34 Cd55 3.212130 1_555
Cd34 Er15 3.249970 1_555
Cd34 Cd79 3.275312 1_555
Cd34 Er9 3.275325 1_565
Cd34 Er7 3.275336 1_565
Cd34 Cd88 3.275337 1_555
Cd35 Cd45 3.160836 1_555
Cd35 Cd51 3.160836 1_555
Cd35 Cd62 3.212105 1_555
Cd35 Cd55 3.212105 1_555
Cd35 Er15 3.249970 1_555
Cd35 Er10 3.275335 1_565
Cd35 Er11 3.275335 1_565
Cd35 Cd86 3.275337 1_555
Cd35 Cd80 3.275337 1_555
Cd36 Cd46 3.160836 1_555
Cd36 Cd43 3.160836 1_555
Cd36 Cd59 3.212105 1_555
Cd36 Cd57 3.212105 1_555
Cd36 Er16 3.249970 1_555
Cd36 Er12 3.275335 1_655
Cd36 Er11 3.275335 1_655
Cd36 Cd78 3.275337 1_555
Cd36 Cd81 3.275337 1_555
Cd37 Cd53 3.160835 1_555
Cd37 Cd44 3.160842 1_555
Cd37 Cd64 3.212103 1_555
Cd37 Cd57 3.212130 1_555
Cd37 Er16 3.249970 1_555
Cd37 Cd79 3.275312 1_555
Cd37 Er4 3.275325 1_655
Cd37 Er6 3.275336 1_655
Cd37 Cd88 3.275337 1_555
Cd38 Cd9 3.009245 1_555
Cd38 Cd54 3.160835 1_555
Cd38 Cd48 3.160842 1_555
Cd38 Cd64 3.212103 1_555
Cd38 Cd59 3.212130 1_555
Cd38 Er16 3.249970 1_555
Cd38 Cd83 3.275312 1_555
Cd38 Er1 3.275325 1_655
Cd38 Er2 3.275336 1_655
Cd38 Cd89 3.275337 1_555
Cd39 Cd46 3.160827 1_555
Cd39 Cd43 3.160827 1_555
Cd39 Cd56 3.212110 1_555
Cd39 Cd60 3.212110 1_555
Cd39 Er17 3.249970 1_555
Cd39 Cd81 3.275319 1_555
Cd39 Cd78 3.275319 1_555
Cd39 Er9 3.275339 1_555
Cd39 Er8 3.275339 1_555
Cd40 Cd8 3.009248 1_555
Cd40 Cd47 3.160827 1_555
Cd40 Cd50 3.160827 1_555
Cd40 Cd61 3.212110 1_555
Cd40 Cd60 3.212110 1_555
Cd40 Er17 3.249970 1_555
Cd40 Cd85 3.275319 1_555
Cd40 Cd82 3.275319 1_555
Cd40 Er1 3.275339 1_555
Cd40 Er3 3.275339 1_555
Cd41 Cd51 3.160827 1_555
Cd41 Cd45 3.160827 1_555
Cd41 Cd56 3.212110 1_555
Cd41 Cd61 3.212110 1_555
Cd41 Er17 3.249970 1_555
Cd41 Cd80 3.275319 1_555
Cd41 Cd86 3.275319 1_555
Cd41 Er4 3.275339 1_555
Cd41 Er5 3.275339 1_555
Cd42 Cd45 3.352184 1_555
Cd42 Cd54 3.352184 1_555
Cd42 Cd51 3.352184 1_555
Cd42 Cd48 3.352184 1_555
Cd42 Cd49 3.352184 1_555
Cd42 Cd52 3.352184 1_555
Cd42 Cd46 3.352184 1_555
Cd42 Cd43 3.352184 1_555
Cd42 Cd53 3.352184 1_555
Cd42 Cd50 3.352184 1_555
Cd42 Cd47 3.352184 1_555
Cd42 Cd44 3.352184 1_555
Cd42 Er17 3.524373 1_555
Cd42 Er16 3.524385 1_555
Cd42 Er15 3.524385 1_555
Cd42 Er14 3.524385 1_555
Cd43 Cd46 2.789506 1_555
Cd43 Cd44 2.916117 1_555
Cd43 Cd45 2.916117 1_555
Cd43 Cd81 2.934172 1_555
Cd43 Cd57 2.948593 1_555
Cd43 Cd56 2.948606 1_555
Cd43 Er17 3.354581 1_555
Cd43 Er16 3.354594 1_555
Cd43 Er18 3.604682 1_555
Cd44 Cd53 2.789506 1_555
Cd44 Cd45 2.916117 1_555
Cd44 Cd88 2.934165 1_555
Cd44 Cd55 2.948601 1_555
Cd44 Cd57 2.948601 1_555
Cd44 Er16 3.354588 1_555
Cd44 Er15 3.354588 1_555
Cd44 Er18 3.604688 1_555
Cd45 Cd51 2.789506 1_555
Cd45 Cd86 2.934172 1_555
Cd45 Cd55 2.948593 1_555
Cd45 Cd56 2.948606 1_555
Cd45 Er17 3.354581 1_555
Cd45 Er15 3.354594 1_555
Cd45 Er18 3.604682 1_555
Cd46 Cd48 2.916117 1_555
Cd46 Cd47 2.916117 1_555
Cd46 Cd78 2.934172 1_555
Cd46 Cd59 2.948593 1_555
Cd46 Cd60 2.948606 1_555
Cd46 Er17 3.354581 1_555
Cd46 Er16 3.354594 1_555
Cd46 Er19 3.604682 1_555
Cd47 Cd50 2.789506 1_555
Cd47 Cd48 2.916117 1_555
Cd47 Cd85 2.934172 1_555
Cd47 Cd58 2.948593 1_555
Cd47 Cd60 2.948606 1_555
Cd47 Er17 3.354581 1_555
Cd47 Er14 3.354594 1_555
Cd47 Er19 3.604682 1_555
Cd48 Cd54 2.789506 1_555
Cd48 Cd89 2.934165 1_555
Cd48 Cd58 2.948601 1_555
Cd48 Cd59 2.948601 1_555
Cd48 Er14 3.354588 1_555
Cd48 Er16 3.354588 1_555
Cd48 Er19 3.604688 1_555
Cd49 Cd52 2.789506 1_555
Cd49 Cd51 2.916117 1_555
Cd49 Cd50 2.916117 1_555
Cd49 Cd87 2.934165 1_555
Cd49 Cd62 2.948601 1_555
Cd49 Cd63 2.948601 1_555
Cd49 Er15 3.354588 1_555
Cd49 Er14 3.354588 1_555
Cd49 Er20 3.604688 1_555
Cd50 Cd51 2.916117 1_555
Cd50 Cd82 2.934172 1_555
Cd50 Cd63 2.948593 1_555
Cd50 Cd61 2.948606 1_555
Cd50 Er17 3.354581 1_555
Cd50 Er14 3.354594 1_555
Cd50 Er20 3.604682 1_555
Cd51 Cd80 2.934172 1_555
Cd51 Cd62 2.948593 1_555
Cd51 Cd61 2.948606 1_555
Cd51 Er17 3.354581 1_555
Cd51 Er15 3.354594 1_555
Cd51 Er20 3.604682 1_555
Cd52 Cd53 2.916117 1_555
Cd52 Cd54 2.916117 1_555
Cd52 Cd84 2.934159 1_555
Cd52 Cd65 2.948593 1_555
Cd52 Cd66 2.948593 1_555
Cd52 Er15 3.354581 1_555
Cd52 Er14 3.354581 1_555
Cd52 Er21 3.604673 1_555
Cd53 Cd54 2.916117 1_555
Cd53 Cd79 2.934159 1_555
Cd53 Cd66 2.948593 1_555
Cd53 Cd64 2.948593 1_555
Cd53 Er15 3.354581 1_555
Cd53 Er16 3.354581 1_555
Cd53 Er21 3.604673 1_555
Cd54 Cd83 2.934159 1_555
Cd54 Cd65 2.948593 1_555
Cd54 Cd64 2.948593 1_555
Cd54 Er16 3.354581 1_555
Cd54 Er14 3.354581 1_555
Cd54 Er21 3.604673 1_555
Cd55 Cd77 2.889394 1_554
Cd55 Cd86 3.167568 1_555
Cd55 Cd88 3.167568 1_555
Cd55 Er18 3.263025 1_555
Cd55 Er15 3.352538 1_555
Cd55 Er10 3.369753 1_565
Cd55 Er7 3.369764 1_565
Cd56 Cd75 2.889394 1_554
Cd56 Cd81 3.167568 1_555
Cd56 Cd86 3.167568 1_555
Cd56 Er18 3.263025 1_555
Cd56 Er17 3.352535 1_555
Cd56 Er8 3.369751 1_555
Cd56 Er5 3.369751 1_555
Cd57 Cd76 2.889394 1_554
Cd57 Cd81 3.167568 1_555
Cd57 Cd88 3.167568 1_555
Cd57 Er18 3.263025 1_555
Cd57 Er16 3.352538 1_555
Cd57 Er12 3.369753 1_655
Cd57 Er6 3.369764 1_655
Cd58 Cd77 2.889394 1_545
Cd58 Cd85 3.167568 1_555
Cd58 Cd89 3.167568 1_555
Cd58 Er19 3.263025 1_555
Cd58 Er14 3.352538 1_555
Cd58 Er10 3.369753 1_556
Cd58 Er7 3.369764 1_556
Cd59 Cd72 2.889394 1_545
Cd59 Cd78 3.167568 1_555
Cd59 Cd89 3.167568 1_555
Cd59 Er19 3.263025 1_555
Cd59 Er16 3.352538 1_555
Cd59 Er11 3.369753 1_655
Cd59 Er2 3.369764 1_655
Cd60 Cd73 2.889394 1_545
Cd60 Cd78 3.167568 1_555
Cd60 Cd85 3.167568 1_555
Cd60 Er19 3.263025 1_555
Cd60 Er17 3.352535 1_555
Cd60 Er3 3.369751 1_555
Cd60 Er9 3.369751 1_555
Cd61 Cd74 2.889394 1_455
Cd61 Cd80 3.167568 1_555
Cd61 Cd82 3.167568 1_555
Cd61 Er20 3.263025 1_555
Cd61 Er17 3.352535 1_555
Cd61 Er1 3.369751 1_555
Cd61 Er4 3.369751 1_555
Cd62 Cd72 2.889394 1_455
Cd62 Cd80 3.167568 1_555
Cd62 Cd87 3.167568 1_555
Cd62 Er20 3.263025 1_555
Cd62 Er15 3.352538 1_555
Cd62 Er11 3.369753 1_565
Cd62 Er2 3.369764 1_565
Cd63 Cd76 2.889394 1_455
Cd63 Cd82 3.167568 1_555
Cd63 Cd87 3.167568 1_555
Cd63 Er20 3.263025 1_555
Cd63 Er14 3.352538 1_555
Cd63 Er12 3.369753 1_556
Cd63 Er6 3.369764 1_556
Cd64 Cd74 2.889407 1_555
Cd64 Cd83 3.167568 1_555
Cd64 Cd79 3.167568 1_555
Cd64 Er21 3.263025 1_555
Cd64 Er16 3.352512 1_555
Cd64 Er1 3.369762 1_655
Cd64 Er4 3.369762 1_655
Cd65 Cd75 2.889407 1_555
Cd65 Cd84 3.167568 1_555
Cd65 Cd83 3.167568 1_555
Cd65 Er21 3.263025 1_555
Cd65 Er14 3.352512 1_555
Cd65 Er8 3.369762 1_556
Cd65 Er5 3.369762 1_556
Cd66 Cd73 2.889407 1_555
Cd66 Cd84 3.167568 1_555
Cd66 Cd79 3.167568 1_555
Cd66 Er21 3.263025 1_555
Cd66 Er15 3.352512 1_555
Cd66 Er3 3.369762 1_565
Cd66 Er9 3.369762 1_565
Cd67 Cd71 3.009526 1_555
Cd67 Cd68 3.009538 1_555
Cd67 Cd69 3.009538 1_555
Cd67 Cd70 3.009538 1_555
Cd67 Er19 3.313068 1_565
Cd67 Er20 3.313068 1_655
Cd67 Er18 3.313068 1_556
Cd67 Er21 3.313080 1_555
Cd67 Cd77 3.492162 1_555
Cd67 Cd72 3.492162 1_555
Cd67 Cd76 3.492162 1_555
Cd67 Cd74 3.492162 1_555
Cd67 Cd75 3.492162 1_555
Cd67 Cd73 3.492162 1_555
Cd68 Cd79 2.993960 1_555
Cd68 Cd78 2.993960 1_565
Cd68 Cd80 2.993960 1_655
Cd68 Cd73 3.019408 1_555
Cd68 Cd74 3.019408 1_555
Cd68 Cd72 3.019421 1_555
Cd69 Cd83 2.993960 1_555
Cd69 Cd82 2.993960 1_655
Cd69 Cd81 2.993960 1_556
Cd69 Cd74 3.019408 1_555
Cd69 Cd75 3.019408 1_555
Cd69 Cd76 3.019421 1_555
Cd70 Cd84 2.993960 1_555
Cd70 Cd85 2.993960 1_565
Cd70 Cd86 2.993960 1_556
Cd70 Cd75 3.019408 1_555
Cd70 Cd73 3.019408 1_555
Cd70 Cd77 3.019421 1_555
Cd71 Cd89 2.993960 1_565
Cd71 Cd88 2.993960 1_556
Cd71 Cd87 2.993960 1_655
Cd71 Cd72 3.019408 1_555
Cd71 Cd76 3.019408 1_555
Cd71 Cd77 3.019408 1_555
Cd72 Er20 3.132414 1_655
Cd72 Er19 3.132414 1_565
Cd72 Er11 3.232571 1_665
Cd72 Er2 3.232571 1_665
Cd73 Er19 3.132402 1_565
Cd73 Er21 3.132416 1_555
Cd73 Er3 3.232571 1_565
Cd73 Er9 3.232571 1_565
Cd74 Er20 3.132402 1_655
Cd74 Er21 3.132416 1_555
Cd74 Er4 3.232571 1_655
Cd74 Er1 3.232571 1_655
Cd75 Er18 3.132402 1_556
Cd75 Er21 3.132416 1_555
Cd75 Er8 3.232571 1_556
Cd75 Er5 3.232571 1_556
Cd76 Er20 3.132414 1_655
Cd76 Er18 3.132414 1_556
Cd76 Er12 3.232571 1_656
Cd76 Er6 3.232571 1_656
Cd77 Er18 3.132414 1_556
Cd77 Er19 3.132414 1_565
Cd77 Er10 3.232571 1_566
Cd77 Er7 3.232571 1_566
Cd78 Er9 3.184904 1_555
Cd78 Er11 3.184918 1_655
Cd78 Er19 3.249992 1_555
Cd79 Er9 3.184916 1_565
Cd79 Er4 3.184916 1_655
Cd79 Er21 3.249992 1_555
Cd80 Er4 3.184904 1_555
Cd80 Er11 3.184918 1_565
Cd80 Er20 3.249992 1_555
Cd81 Er8 3.184904 1_555
Cd81 Er12 3.184918 1_655
Cd81 Er18 3.249992 1_555
Cd82 Er1 3.184904 1_555
Cd82 Er12 3.184918 1_556
Cd82 Er20 3.249992 1_555
Cd83 Cd9 3.115625 1_555
Cd83 Er8 3.184916 1_556
Cd83 Er1 3.184916 1_655
Cd83 Er21 3.249992 1_555
Cd84 Er5 3.184916 1_556
Cd84 Er3 3.184916 1_565
Cd84 Er21 3.249992 1_555
Cd85 Er3 3.184904 1_555
Cd85 Er10 3.184918 1_556
Cd85 Er19 3.249992 1_555
Cd86 Er5 3.184904 1_555
Cd86 Er10 3.184918 1_565
Cd86 Er18 3.249992 1_555
Cd87 Er2 3.184916 1_565
Cd87 Er6 3.184916 1_556
Cd87 Er20 3.249992 1_555
Cd88 Er7 3.184916 1_565
Cd88 Er6 3.184916 1_655
Cd88 Er18 3.249992 1_555
Cd89 Cd9 3.115638 1_555
Cd89 Er7 3.184916 1_556
Cd89 Er2 3.184916 1_655
Cd89 Er19 3.249992 1_555
