# generated using pymatgen
data_Li7Co5O12
_symmetry_space_group_name_H-M   'P 1'
_cell_length_a   8.39867621
_cell_length_b   4.85100776
_cell_length_c   4.91562233
_cell_angle_alpha   70.86981420
_cell_angle_beta   90.00000000
_cell_angle_gamma   90.00000000
_symmetry_Int_Tables_number   1
_chemical_formula_structural   Li7Co5O12
_chemical_formula_sum   'Li7 Co5 O12'
_cell_volume   189.21272804
_cell_formula_units_Z   1
loop_
 _symmetry_equiv_pos_site_id
 _symmetry_equiv_pos_as_xyz
  1  'x, y, z'
loop_
 _atom_site_type_symbol
 _atom_site_label
 _atom_site_symmetry_multiplicity
 _atom_site_fract_x
 _atom_site_fract_y
 _atom_site_fract_z
 _atom_site_occupancy
  Li  Li0  1  0.16833243  -0.00000000  0.50000000  1
  Li  Li1  1  0.00000000  0.50000000  0.50000000  1
  Li  Li2  1  0.83166757  -0.00000000  0.50000000  1
  Li  Li3  1  0.65789479  0.50000000  0.50000000  1
  Li  Li4  1  0.50000000  -0.00000000  0.50000000  1
  Li  Li5  1  0.34210521  0.50000000  0.50000000  1
  Li  Li6  1  0.50000000  0.50000000  -0.00000000  1
  Co  Co0  1  0.33637717  -0.00000000  -0.00000000  1
  Co  Co1  1  0.66362283  -0.00000000  -0.00000000  1
  Co  Co2  1  0.17151927  0.50000000  -0.00000000  1
  Co  Co3  1  0.00000000  -0.00000000  -0.00000000  1
  Co  Co4  1  0.82848073  0.50000000  -0.00000000  1
  O  O0  1  0.16699331  0.75898287  0.21971969  1
  O  O1  1  0.00000000  0.26291064  0.21481668  1
  O  O2  1  0.83300669  0.75898287  0.21971969  1
  O  O3  1  0.67911809  0.24760654  0.22364449  1
  O  O4  1  0.50000000  0.77974956  0.22833669  1
  O  O5  1  0.32088191  0.24760654  0.22364449  1
  O  O6  1  0.16699331  0.24101713  0.78028031  1
  O  O7  1  0.00000000  0.73708936  0.78518332  1
  O  O8  1  0.83300669  0.24101713  0.78028031  1
  O  O9  1  0.67911809  0.75239346  0.77635551  1
  O  O10  1  0.50000000  0.22025044  0.77166331  1
  O  O11  1  0.32088191  0.75239346  0.77635551  1
loop_
_geom_bond_atom_site_label_1
_geom_bond_atom_site_label_2
_geom_bond_distance
_geom_bond_site_symmetry_2
Li0 O11 1.964737 1_545
Li0 O5 1.964737 1_555
Li0 O6 2.078724 1_555
Li0 O0 2.078724 1_545
Li0 O7 2.102068 1_545
Li0 O1 2.102068 1_555
Li1 O8 2.075847 1_455
Li1 O2 2.075847 1_455
Li1 O6 2.075847 1_555
Li1 O0 2.075847 1_555
Li1 O1 2.084401 1_555
Li1 O7 2.084401 1_555
Li2 O9 1.964737 1_545
Li2 O3 1.964737 1_555
Li2 O8 2.078724 1_555
Li2 O2 2.078724 1_545
Li2 O1 2.102068 1_655
Li2 O7 2.102068 1_645
Li3 O10 2.048337 1_555
Li3 O4 2.048337 1_555
Li3 O3 2.113384 1_555
Li3 O9 2.113384 1_555
Li3 O8 2.122511 1_555
Li3 O2 2.122511 1_555
Li4 O4 1.964687 1_545
Li4 O10 1.964687 1_555
Li4 O9 2.117018 1_545
Li4 O11 2.117018 1_545
Li4 O5 2.117018 1_555
Li4 O3 2.117018 1_555
Li5 O4 2.048337 1_555
Li5 O10 2.048337 1_555
Li5 O5 2.113384 1_555
Li5 O11 2.113384 1_555
Li5 O6 2.122511 1_555
Li5 O0 2.122511 1_555
Li6 O5 2.022006 1_555
Li6 O9 2.022006 1_554
Li6 O3 2.022006 1_555
Li6 O11 2.022006 1_554
Li6 O10 2.024797 1_554
Li6 O4 2.024797 1_555
Co0 O4 1.871852 1_545
Co0 O10 1.871852 1_554
Co0 O11 1.879823 1_544
Co0 O5 1.879823 1_555
Co0 O6 1.931224 1_554
Co0 O0 1.931224 1_545
Co1 O4 1.871852 1_545
Co1 O10 1.871852 1_554
Co1 O9 1.879823 1_544
Co1 O3 1.879823 1_555
Co1 O2 1.931224 1_545
Co1 O8 1.931224 1_554
Co2 O11 1.843655 1_554
Co2 O5 1.843655 1_555
Co2 O0 1.906749 1_555
Co2 O6 1.906749 1_554
Co2 O1 1.927942 1_555
Co2 O7 1.927942 1_554
Co3 O7 1.903772 1_544
Co3 O1 1.903772 1_555
Co3 O8 1.916482 1_454
Co3 O2 1.916482 1_445
Co3 O0 1.916482 1_545
Co3 O6 1.916482 1_554
Co4 O3 1.843655 1_555
Co4 O9 1.843655 1_554
Co4 O2 1.906749 1_555
Co4 O8 1.906749 1_554
Co4 O7 1.927942 1_654
Co4 O1 1.927942 1_655
