# generated using pymatgen
data_Mn9O13
_symmetry_space_group_name_H-M   'P 1'
_cell_length_a   5.35524089
_cell_length_b   5.35524089
_cell_length_c   17.10125210
_cell_angle_alpha   82.65592697
_cell_angle_beta   82.65592697
_cell_angle_gamma   33.38630999
_symmetry_Int_Tables_number   1
_chemical_formula_structural   Mn9O13
_chemical_formula_sum   'Mn9 O13'
_cell_volume   267.46597759
_cell_formula_units_Z   1
loop_
 _symmetry_equiv_pos_site_id
 _symmetry_equiv_pos_as_xyz
  1  'x, y, z'
loop_
 _atom_site_type_symbol
 _atom_site_label
 _atom_site_symmetry_multiplicity
 _atom_site_fract_x
 _atom_site_fract_y
 _atom_site_fract_z
 _atom_site_occupancy
  Mn  Mn0  1  0.50000000  0.50000000  0.50000000  1
  Mn  Mn1  1  0.35343500  0.35343500  0.04248300  1
  Mn  Mn2  1  0.64656500  0.64656500  0.95751700  1
  Mn  Mn3  1  0.24986200  0.24986200  0.41746500  1
  Mn  Mn4  1  0.75013800  0.75013800  0.58253500  1
  Mn  Mn5  1  0.06333200  0.06333200  0.12440700  1
  Mn  Mn6  1  0.93666800  0.93666800  0.87559300  1
  Mn  Mn7  1  0.00864800  0.00864800  0.32426800  1
  Mn  Mn8  1  0.99135200  0.99135200  0.67573200  1
  O  O0  1  0.00000000  0.00000000  0.00000000  1
  O  O1  1  0.11033800  0.11033800  0.22187100  1
  O  O2  1  0.88966200  0.88966200  0.77812900  1
  O  O3  1  0.70501600  0.70501600  0.06736200  1
  O  O4  1  0.29498400  0.29498400  0.93263800  1
  O  O5  1  0.44362000  0.44362000  0.13419500  1
  O  O6  1  0.55638000  0.55638000  0.86580500  1
  O  O7  1  0.38470900  0.38470900  0.32926600  1
  O  O8  1  0.61529100  0.61529100  0.67073400  1
  O  O9  1  0.61540200  0.61540200  0.38912900  1
  O  O10  1  0.38459800  0.38459800  0.61087100  1
  O  O11  1  0.86285600  0.86285600  0.47244000  1
  O  O12  1  0.13714400  0.13714400  0.52756000  1
loop_
_geom_bond_atom_site_label_1
_geom_bond_atom_site_label_2
_geom_bond_distance
_geom_bond_site_symmetry_2
Mn0 O9 2.097017 1_555
Mn0 O10 2.097017 1_555
Mn0 O12 2.178298 1_565
Mn0 O12 2.178298 1_655
Mn0 O11 2.178298 1_545
Mn0 O11 2.178298 1_455
Mn1 O5 1.924365 1_555
Mn1 O4 2.046693 1_554
Mn1 O3 2.166297 1_545
Mn1 O3 2.166297 1_455
Mn1 O0 2.205318 1_565
Mn1 O0 2.205318 1_655
Mn2 O6 1.924365 1_555
Mn2 O3 2.046693 1_556
Mn2 O4 2.166297 1_565
Mn2 O4 2.166297 1_655
Mn2 O0 2.205318 1_566
Mn2 O0 2.205318 1_656
Mn3 O7 1.905756 1_555
Mn3 O12 2.073866 1_555
Mn3 O9 2.163877 1_455
Mn3 O9 2.163877 1_545
Mn3 O11 2.210161 1_455
Mn3 O11 2.210161 1_545
Mn4 O8 1.905756 1_555
Mn4 O11 2.073866 1_555
Mn4 O10 2.163877 1_655
Mn4 O10 2.163877 1_565
Mn4 O12 2.210161 1_655
Mn4 O12 2.210161 1_565
Mn5 O1 1.795874 1_555
Mn5 O5 1.961569 1_455
Mn5 O5 1.961569 1_545
Mn5 O3 2.247733 1_545
Mn5 O3 2.247733 1_455
Mn5 O0 2.305952 1_555
Mn6 O2 1.795874 1_555
Mn6 O6 1.961569 1_565
Mn6 O6 1.961569 1_655
Mn6 O4 2.247733 1_655
Mn6 O4 2.247733 1_565
Mn6 O0 2.305952 1_666
Mn7 O1 1.914990 1_555
Mn7 O7 1.990302 1_455
Mn7 O7 1.990302 1_545
Mn7 O9 2.262811 1_545
Mn7 O9 2.262811 1_455
Mn8 O2 1.914990 1_555
Mn8 O8 1.990302 1_655
Mn8 O8 1.990302 1_565
Mn8 O10 2.262811 1_655
Mn8 O10 2.262811 1_565
