# generated using pymatgen
data_Bi6O5F8
_symmetry_space_group_name_H-M   'P 1'
_cell_length_a   4.12601600
_cell_length_b   5.83756238
_cell_length_c   12.46637450
_cell_angle_alpha   87.91177413
_cell_angle_beta   87.68856022
_cell_angle_gamma   87.74904351
_symmetry_Int_Tables_number   1
_chemical_formula_structural   Bi6O5F8
_chemical_formula_sum   'Bi6 O5 F8'
_cell_volume   299.60501285
_cell_formula_units_Z   1
loop_
 _symmetry_equiv_pos_site_id
 _symmetry_equiv_pos_as_xyz
  1  'x, y, z'
loop_
 _atom_site_type_symbol
 _atom_site_label
 _atom_site_symmetry_multiplicity
 _atom_site_fract_x
 _atom_site_fract_y
 _atom_site_fract_z
 _atom_site_occupancy
  Bi  Bi0  1  0.73986200  0.19888100  0.91819600  1
  Bi  Bi1  1  0.70654500  0.21978400  0.24276700  1
  Bi  Bi2  1  0.77102800  0.23112600  0.59514600  1
  Bi  Bi3  1  0.27043400  0.81441000  0.44278300  1
  Bi  Bi4  1  0.25462200  0.76645700  0.07170700  1
  Bi  Bi5  1  0.26343800  0.78426900  0.75686300  1
  O  O0  1  0.28370100  0.01584500  0.59758600  1
  O  O1  1  0.24970900  0.00388700  0.91935800  1
  O  O2  1  0.72590000  0.96843200  0.07161000  1
  O  O3  1  0.76572600  0.98940700  0.76185600  1
  O  O4  1  0.80521400  0.05705000  0.42704200  1
  F  F0  1  0.21772600  0.93638100  0.25078000  1
  F  F1  1  0.60401400  0.55244500  0.31571200  1
  F  F2  1  0.34504200  0.51999300  0.60710400  1
  F  F3  1  0.18060500  0.37434600  0.20459400  1
  F  F4  1  0.25256900  0.52224500  0.92591900  1
  F  F5  1  0.70122300  0.47060100  0.08340700  1
  F  F6  1  0.86756500  0.58361800  0.49295100  1
  F  F7  1  0.82442500  0.49082200  0.75773800  1
loop_
_geom_bond_atom_site_label_1
_geom_bond_atom_site_label_2
_geom_bond_distance
_geom_bond_site_symmetry_2
Bi0 O2 2.297926 1_546
Bi0 O3 2.334931 1_545
Bi0 O1 2.352522 1_655
Bi0 O1 2.358643 1_555
Bi0 F7 2.601809 1_555
Bi0 F5 2.641022 1_556
Bi0 F4 2.704523 1_555
Bi1 F1 2.193199 1_555
Bi1 F3 2.213291 1_655
Bi1 F3 2.376512 1_555
Bi1 F5 2.424872 1_555
Bi1 O4 2.496301 1_555
Bi1 O2 2.630060 1_545
Bi1 F0 2.631785 1_645
Bi1 F0 2.654912 1_545
Bi2 O4 2.358887 1_555
Bi2 F2 2.391521 1_555
Bi2 O0 2.411230 1_555
Bi2 F6 2.418314 1_555
Bi2 O0 2.418331 1_655
Bi2 O3 2.468965 1_545
Bi2 F7 2.596425 1_555
Bi3 F6 2.236061 1_455
Bi3 O0 2.299765 1_565
Bi3 O4 2.350707 1_465
Bi3 F0 2.487793 1_555
Bi3 F1 2.564699 1_555
Bi3 F2 2.645306 1_555
Bi3 O4 2.665293 1_565
Bi4 O1 2.310327 1_564
Bi4 O2 2.313228 1_555
Bi4 F4 2.350860 1_554
Bi4 O2 2.438691 1_455
Bi4 F0 2.472407 1_555
Bi4 F5 2.480500 1_555
Bi5 O3 2.336018 1_455
Bi5 O0 2.361560 1_565
Bi5 O1 2.434066 1_565
Bi5 O3 2.437976 1_555
Bi5 F2 2.469266 1_555
Bi5 F7 2.540946 1_455
Bi5 F4 2.558533 1_555
