# generated using pymatgen
data_Li7Mn4CoO12
_symmetry_space_group_name_H-M   'P 1'
_cell_length_a   2.96978852
_cell_length_b   7.66798205
_cell_length_c   19.76227031
_cell_angle_alpha   99.85649275
_cell_angle_beta   87.47183157
_cell_angle_gamma   81.28737501
_symmetry_Int_Tables_number   1
_chemical_formula_structural   Li7Mn4CoO12
_chemical_formula_sum   'Li14 Mn8 Co2 O24'
_cell_volume   437.13796853
_cell_formula_units_Z   2
loop_
 _symmetry_equiv_pos_site_id
 _symmetry_equiv_pos_as_xyz
  1  'x, y, z'
loop_
 _atom_site_type_symbol
 _atom_site_label
 _atom_site_symmetry_multiplicity
 _atom_site_fract_x
 _atom_site_fract_y
 _atom_site_fract_z
 _atom_site_occupancy
  Li  Li0  1  0.33324000  0.33333600  0.99996100  1
  Li  Li1  1  0.83346200  0.83328500  0.50001800  1
  Li  Li2  1  0.76867000  0.30613100  0.12048100  1
  Li  Li3  1  0.26985000  0.80656300  0.62073000  1
  Li  Li4  1  0.39801500  0.86053400  0.37951600  1
  Li  Li5  1  0.89683700  0.36012500  0.87927200  1
  Li  Li6  1  0.02890900  0.55320900  0.37782000  1
  Li  Li7  1  0.52439600  0.05428400  0.87733300  1
  Li  Li8  1  0.13774500  0.61347300  0.12219000  1
  Li  Li9  1  0.64227100  0.11239200  0.62266900  1
  Li  Li10  1  0.46340800  0.95985800  0.12662300  1
  Li  Li11  1  0.96312600  0.46112000  0.62670700  1
  Li  Li12  1  0.70326200  0.20683400  0.37337600  1
  Li  Li13  1  0.20355600  0.70555200  0.87330200  1
  Mn  Mn0  1  0.50604000  0.50806000  0.49813500  1
  Mn  Mn1  1  0.00510200  0.00819000  0.99792700  1
  Mn  Mn2  1  0.66065200  0.65844900  0.00184400  1
  Mn  Mn3  1  0.16152500  0.15847500  0.50208800  1
  Mn  Mn4  1  0.23894800  0.25116600  0.24881900  1
  Mn  Mn5  1  0.74589000  0.75230100  0.74870000  1
  Mn  Mn6  1  0.92769700  0.91552400  0.25116700  1
  Mn  Mn7  1  0.42081700  0.41439100  0.75129700  1
  Co  Co0  1  0.08333500  0.08334700  0.74999800  1
  Co  Co1  1  0.58333500  0.58334700  0.25000100  1
  O  O0  1  0.44389500  0.12024600  0.05380600  1
  O  O1  1  0.94427200  0.62044500  0.55390700  1
  O  O2  1  0.72277900  0.04639600  0.44618800  1
  O  O3  1  0.22235800  0.54621300  0.94611600  1
  O  O4  1  0.59750900  0.40180200  0.30738000  1
  O  O5  1  0.10339700  0.90466200  0.80602700  1
  O  O6  1  0.56916400  0.76488800  0.19261700  1
  O  O7  1  0.06327000  0.26203000  0.69396700  1
  O  O8  1  0.71181900  0.49569800  0.05894900  1
  O  O9  1  0.21479400  0.99510600  0.55892200  1
  O  O10  1  0.45481000  0.67096400  0.44106100  1
  O  O11  1  0.95188700  0.17153400  0.94107500  1
  O  O12  1  0.99302000  0.73225600  0.30896600  1
  O  O13  1  0.45238200  0.23165500  0.80887800  1
  O  O14  1  0.17364200  0.43443900  0.19103400  1
  O  O15  1  0.71429400  0.93504400  0.69111800  1
  O  O16  1  0.08367800  0.80244300  0.05275100  1
  O  O17  1  0.58375600  0.30233200  0.55308300  1
  O  O18  1  0.08295500  0.36421300  0.44727300  1
  O  O19  1  0.58290500  0.86429800  0.94692700  1
  O  O20  1  0.27641500  0.07102400  0.30948300  1
  O  O21  1  0.77147700  0.57208800  0.80962300  1
  O  O22  1  0.89024900  0.09567200  0.19050300  1
  O  O23  1  0.39518600  0.59460500  0.69037000  1
loop_
_geom_bond_atom_site_label_1
_geom_bond_atom_site_label_2
_geom_bond_distance
_geom_bond_site_symmetry_2
Li0 O8 2.053240 1_556
Li0 O11 2.055205 1_455
Li0 O3 2.089978 1_555
Li0 O0 2.091315 1_556
Li0 O11 2.212589 1_555
Li0 O8 2.220814 1_456
Li1 O10 2.052899 1_555
Li1 O9 2.055423 1_655
Li1 O1 2.090290 1_555
Li1 O2 2.091264 1_565
Li1 O9 2.212824 1_555
Li1 O10 2.220309 1_655
Li2 O8 2.041825 1_555
Li2 O14 2.096482 1_655
Li2 O0 2.140973 1_555
Li2 O14 2.195669 1_555
Li2 O22 2.298193 1_555
Li2 O0 2.459057 1_655
Li3 O9 2.039481 1_555
Li3 O15 2.112718 1_455
Li3 O1 2.145001 1_455
Li3 O15 2.175879 1_555
Li3 O23 2.302580 1_555
Li3 O1 2.459204 1_555
Li4 O10 2.042029 1_555
Li4 O12 2.096390 1_455
Li4 O2 2.140812 1_565
Li4 O12 2.195539 1_555
Li4 O20 2.298542 1_565
Li4 O2 2.458992 1_465
Li5 O11 2.039703 1_555
Li5 O13 2.112741 1_655
Li5 O3 2.144975 1_655
Li5 O13 2.175935 1_555
Li5 O21 2.302745 1_555
Li5 O3 2.459406 1_555
Li6 O10 2.018957 1_555
Li6 O10 2.059953 1_455
Li6 O12 2.087074 1_455
Li6 O18 2.154031 1_555
Li6 O4 2.186898 1_555
Li6 O4 2.231982 1_455
Li7 O11 2.026343 1_555
Li7 O11 2.060613 1_455
Li7 O13 2.071960 1_555
Li7 O19 2.162032 1_545
Li7 O5 2.212198 1_645
Li7 O5 2.213988 1_545
Li8 O8 2.019078 1_455
Li8 O8 2.059930 1_555
Li8 O14 2.086846 1_555
Li8 O16 2.153669 1_555
Li8 O6 2.186748 1_455
Li8 O6 2.231907 1_555
Li9 O9 2.026489 1_545
Li9 O9 2.060750 1_645
Li9 O15 2.071737 1_545
Li9 O17 2.161641 1_555
Li9 O7 2.212152 1_555
Li9 O7 2.213958 1_655
Li10 O0 2.044107 1_565
Li10 O22 2.091922 1_565
Li10 O22 2.097350 1_465
Li10 O6 2.143847 1_555
Li10 O16 2.194154 1_555
Li10 O16 2.338224 1_655
Li11 O1 2.038054 1_555
Li11 O23 2.079487 1_555
Li11 O23 2.091984 1_655
Li11 O7 2.185832 1_655
Li11 O17 2.196020 1_555
Li11 O17 2.339582 1_655
Li12 O2 2.044302 1_555
Li12 O20 2.092060 1_555
Li12 O20 2.097453 1_655
Li12 O4 2.143864 1_555
Li12 O18 2.194237 1_655
Li12 O18 2.338467 1_555
Li13 O3 2.038360 1_555
Li13 O21 2.079558 1_555
Li13 O21 2.092119 1_455
Li13 O5 2.186171 1_555
Li13 O19 2.195825 1_555
Li13 O19 2.339540 1_455
Mn0 O10 1.815384 1_555
Mn0 O1 1.947403 1_555
Mn0 O1 1.953921 1_455
Mn0 O18 1.989323 1_555
Mn0 O18 2.014543 1_655
Mn0 O17 2.054090 1_555
Mn1 O11 1.814819 1_455
Mn1 O0 1.948645 1_556
Mn1 O0 1.953065 1_456
Mn1 O19 1.988770 1_445
Mn1 O19 2.017627 1_545
Mn1 O16 2.052635 1_546
Mn2 O8 1.814921 1_555
Mn2 O3 1.946581 1_554
Mn2 O3 1.953143 1_654
Mn2 O16 1.990219 1_655
Mn2 O16 2.015376 1_555
Mn2 O19 2.054466 1_554
Mn3 O9 1.814707 1_545
Mn3 O2 1.948834 1_455
Mn3 O2 1.953397 1_555
Mn3 O17 1.988650 1_555
Mn3 O17 2.017426 1_455
Mn3 O18 2.052458 1_555
Mn4 O14 1.950143 1_555
Mn4 O22 1.957320 1_455
Mn4 O4 1.957329 1_555
Mn4 O20 1.972274 1_555
Mn4 O4 2.232390 1_455
Mn4 O22 2.263900 1_555
Mn5 O15 1.944943 1_555
Mn5 O5 1.950495 1_655
Mn5 O23 1.971291 1_555
Mn5 O21 1.977564 1_555
Mn5 O5 2.229336 1_555
Mn5 O23 2.264840 1_655
Mn6 O12 1.950311 1_555
Mn6 O6 1.957162 1_555
Mn6 O20 1.957383 1_665
Mn6 O22 1.972311 1_565
Mn6 O6 2.232368 1_655
Mn6 O20 2.263872 1_565
Mn7 O13 1.944888 1_555
Mn7 O7 1.950603 1_555
Mn7 O21 1.971171 1_555
Mn7 O23 1.977623 1_555
Mn7 O7 2.229269 1_655
Mn7 O21 2.264910 1_455
Co0 O5 1.899312 1_545
Co0 O7 1.899327 1_555
Co0 O15 1.971138 1_445
Co0 O13 1.971171 1_555
Co0 O13 2.206216 1_455
Co0 O15 2.206218 1_545
Co1 O4 1.937105 1_555
Co1 O6 1.937151 1_555
Co1 O12 2.057278 1_555
Co1 O14 2.057310 1_555
Co1 O14 2.119633 1_655
Co1 O12 2.119636 1_455
