# generated using pymatgen
data_HfCd
_symmetry_space_group_name_H-M   'P 1'
_cell_length_a   5.82961200
_cell_length_b   5.82961200
_cell_length_c   23.71749000
_cell_angle_alpha   90.00000000
_cell_angle_beta   90.00000000
_cell_angle_gamma   90.00000000
_symmetry_Int_Tables_number   1
_chemical_formula_structural   HfCd
_chemical_formula_sum   'Hf16 Cd16'
_cell_volume   806.02409961
_cell_formula_units_Z   16
loop_
 _symmetry_equiv_pos_site_id
 _symmetry_equiv_pos_as_xyz
  1  'x, y, z'
loop_
 _atom_site_type_symbol
 _atom_site_label
 _atom_site_symmetry_multiplicity
 _atom_site_fract_x
 _atom_site_fract_y
 _atom_site_fract_z
 _atom_site_occupancy
  Hf  Hf0_0  1  0.25000000  0.25000000  0.31156500  1
  Hf  Hf0_1  1  0.25000000  0.25000000  0.81156500  1
  Hf  Hf0_2  1  0.25000000  0.75000000  0.31156500  1
  Hf  Hf0_3  1  0.25000000  0.75000000  0.81156500  1
  Hf  Hf0_4  1  0.75000000  0.25000000  0.31156500  1
  Hf  Hf0_5  1  0.75000000  0.25000000  0.81156500  1
  Hf  Hf0_6  1  0.75000000  0.75000000  0.31156500  1
  Hf  Hf0_7  1  0.75000000  0.75000000  0.81156500  1
  Hf  Hf1_0  1  0.25000000  0.25000000  0.18843500  1
  Hf  Hf1_1  1  0.25000000  0.25000000  0.68843500  1
  Hf  Hf1_2  1  0.25000000  0.75000000  0.18843500  1
  Hf  Hf1_3  1  0.25000000  0.75000000  0.68843500  1
  Hf  Hf1_4  1  0.75000000  0.25000000  0.18843500  1
  Hf  Hf1_5  1  0.75000000  0.25000000  0.68843500  1
  Hf  Hf1_6  1  0.75000000  0.75000000  0.18843500  1
  Hf  Hf1_7  1  0.75000000  0.75000000  0.68843500  1
  Cd  Cd0_0  1  0.25000000  0.25000000  0.06214600  1
  Cd  Cd0_1  1  0.25000000  0.25000000  0.56214600  1
  Cd  Cd0_2  1  0.25000000  0.75000000  0.06214600  1
  Cd  Cd0_3  1  0.25000000  0.75000000  0.56214600  1
  Cd  Cd0_4  1  0.75000000  0.25000000  0.06214600  1
  Cd  Cd0_5  1  0.75000000  0.25000000  0.56214600  1
  Cd  Cd0_6  1  0.75000000  0.75000000  0.06214600  1
  Cd  Cd0_7  1  0.75000000  0.75000000  0.56214600  1
  Cd  Cd1_0  1  0.25000000  0.25000000  0.43785400  1
  Cd  Cd1_1  1  0.25000000  0.25000000  0.93785400  1
  Cd  Cd1_2  1  0.25000000  0.75000000  0.43785400  1
  Cd  Cd1_3  1  0.25000000  0.75000000  0.93785400  1
  Cd  Cd1_4  1  0.75000000  0.25000000  0.43785400  1
  Cd  Cd1_5  1  0.75000000  0.25000000  0.93785400  1
  Cd  Cd1_6  1  0.75000000  0.75000000  0.43785400  1
  Cd  Cd1_7  1  0.75000000  0.75000000  0.93785400  1
loop_
_geom_bond_atom_site_label_1
_geom_bond_atom_site_label_2
_geom_bond_distance
_geom_bond_site_symmetry_2
Hf0_0 Hf0_2 2.914806 1_555
Hf0_0 Hf0_4 2.914806 1_555
Hf0_0 Hf0_2 2.914806 1_545
Hf0_0 Hf0_4 2.914806 1_455
Hf0_0 Hf1_0 2.920335 1_555
Hf0_1 Hf0_5 2.914806 1_555
Hf0_1 Hf0_3 2.914806 1_555
Hf0_1 Hf0_3 2.914806 1_545
Hf0_1 Hf0_5 2.914806 1_455
Hf0_1 Hf1_1 2.920335 1_555
Hf0_2 Hf0_6 2.914806 1_555
Hf0_2 Hf0_6 2.914806 1_455
Hf0_2 Hf1_2 2.920335 1_555
Hf0_3 Hf0_7 2.914806 1_555
Hf0_3 Hf0_7 2.914806 1_455
Hf0_3 Hf1_3 2.920335 1_555
Hf0_4 Hf0_6 2.914806 1_555
Hf0_4 Hf0_6 2.914806 1_545
Hf0_4 Hf1_4 2.920335 1_555
Hf0_5 Hf0_7 2.914806 1_555
Hf0_5 Hf0_7 2.914806 1_545
Hf0_5 Hf1_5 2.920335 1_555
Hf0_6 Hf1_6 2.920335 1_555
Hf0_7 Hf1_7 2.920335 1_555
Hf1_0 Hf1_2 2.914806 1_555
Hf1_0 Hf1_4 2.914806 1_555
Hf1_0 Hf1_2 2.914806 1_545
Hf1_0 Hf1_4 2.914806 1_455
Hf1_1 Hf1_3 2.914806 1_555
Hf1_1 Hf1_5 2.914806 1_555
Hf1_1 Hf1_3 2.914806 1_545
Hf1_1 Hf1_5 2.914806 1_455
Hf1_2 Hf1_6 2.914806 1_555
Hf1_2 Hf1_6 2.914806 1_455
Hf1_3 Hf1_7 2.914806 1_555
Hf1_3 Hf1_7 2.914806 1_455
Hf1_4 Hf1_6 2.914806 1_555
Hf1_4 Hf1_6 2.914806 1_545
Hf1_5 Hf1_7 2.914806 1_555
Hf1_5 Hf1_7 2.914806 1_545
Cd0_0 Cd0_2 2.914806 1_555
Cd0_0 Cd0_4 2.914806 1_555
Cd0_0 Cd0_4 2.914806 1_455
Cd0_0 Cd0_2 2.914806 1_545
Cd0_0 Cd1_1 2.947894 1_554
Cd0_0 Hf1_0 2.995258 1_555
Cd0_1 Cd0_5 2.914806 1_555
Cd0_1 Cd0_3 2.914806 1_555
Cd0_1 Cd0_5 2.914806 1_455
Cd0_1 Cd0_3 2.914806 1_545
Cd0_1 Cd1_0 2.947894 1_555
Cd0_1 Hf1_1 2.995258 1_555
Cd0_2 Cd0_6 2.914806 1_555
Cd0_2 Cd0_6 2.914806 1_455
Cd0_2 Cd1_3 2.947894 1_554
Cd0_2 Hf1_2 2.995258 1_555
Cd0_3 Cd0_7 2.914806 1_555
Cd0_3 Cd0_7 2.914806 1_455
Cd0_3 Cd1_2 2.947894 1_555
Cd0_3 Hf1_3 2.995258 1_555
Cd0_4 Cd0_6 2.914806 1_555
Cd0_4 Cd0_6 2.914806 1_545
Cd0_4 Cd1_5 2.947894 1_554
Cd0_4 Hf1_4 2.995258 1_555
Cd0_5 Cd0_7 2.914806 1_555
Cd0_5 Cd0_7 2.914806 1_545
Cd0_5 Cd1_4 2.947894 1_555
Cd0_5 Hf1_5 2.995258 1_555
Cd0_6 Cd1_7 2.947894 1_554
Cd0_6 Hf1_6 2.995258 1_555
Cd0_7 Cd1_6 2.947894 1_555
Cd0_7 Hf1_7 2.995258 1_555
Cd1_0 Cd1_2 2.914806 1_555
Cd1_0 Cd1_4 2.914806 1_555
Cd1_0 Cd1_4 2.914806 1_455
Cd1_0 Cd1_2 2.914806 1_545
Cd1_0 Hf0_0 2.995258 1_555
Cd1_1 Cd1_3 2.914806 1_555
Cd1_1 Cd1_5 2.914806 1_555
Cd1_1 Cd1_5 2.914806 1_455
Cd1_1 Cd1_3 2.914806 1_545
Cd1_1 Hf0_1 2.995258 1_555
Cd1_2 Cd1_6 2.914806 1_555
Cd1_2 Cd1_6 2.914806 1_455
Cd1_2 Hf0_2 2.995258 1_555
Cd1_3 Cd1_7 2.914806 1_555
Cd1_3 Cd1_7 2.914806 1_455
Cd1_3 Hf0_3 2.995258 1_555
Cd1_4 Cd1_6 2.914806 1_555
Cd1_4 Cd1_6 2.914806 1_545
Cd1_4 Hf0_4 2.995258 1_555
Cd1_5 Cd1_7 2.914806 1_555
Cd1_5 Cd1_7 2.914806 1_545
Cd1_5 Hf0_5 2.995258 1_555
Cd1_6 Hf0_6 2.995258 1_555
Cd1_7 Hf0_7 2.995258 1_555
