# generated using pymatgen
data_Yb2Fe12P7
_symmetry_space_group_name_H-M   'P 1'
_cell_length_a   8.96207111
_cell_length_b   8.96207111
_cell_length_c   3.61552100
_cell_angle_alpha   90.00000000
_cell_angle_beta   90.00000000
_cell_angle_gamma   119.99999346
_symmetry_Int_Tables_number   1
_chemical_formula_structural   Yb2Fe12P7
_chemical_formula_sum   'Yb2 Fe12 P7'
_cell_volume   251.48860981
_cell_formula_units_Z   1
loop_
 _symmetry_equiv_pos_site_id
 _symmetry_equiv_pos_as_xyz
  1  'x, y, z'
loop_
 _atom_site_type_symbol
 _atom_site_label
 _atom_site_symmetry_multiplicity
 _atom_site_fract_x
 _atom_site_fract_y
 _atom_site_fract_z
 _atom_site_occupancy
  Yb  Yb0  1  0.66666700  0.33333300  0.00000000  1
  Yb  Yb1  1  0.33333300  0.66666700  0.50000000  1
  Fe  Fe0  1  0.05106500  0.62221800  0.00000000  1
  Fe  Fe1  1  0.57115300  0.94893500  0.00000000  1
  Fe  Fe2  1  0.37778200  0.42884700  0.00000000  1
  Fe  Fe3  1  0.27223100  0.11808500  0.00000000  1
  Fe  Fe4  1  0.84585400  0.72776900  0.00000000  1
  Fe  Fe5  1  0.88191500  0.15414600  0.00000000  1
  Fe  Fe6  1  0.43223000  0.04480800  0.50000000  1
  Fe  Fe7  1  0.61257800  0.56777000  0.50000000  1
  Fe  Fe8  1  0.95519200  0.38742200  0.50000000  1
  Fe  Fe9  1  0.09769700  0.87797800  0.50000000  1
  Fe  Fe10  1  0.78028100  0.90230300  0.50000000  1
  Fe  Fe11  1  0.12202200  0.21971900  0.50000000  1
  P  P0  1  0.29113300  0.88319600  0.00000000  1
  P  P1  1  0.59206300  0.70886700  0.00000000  1
  P  P2  1  0.11680400  0.40793700  0.00000000  1
  P  P3  1  0.39935600  0.28563800  0.50000000  1
  P  P4  1  0.88628200  0.60064400  0.50000000  1
  P  P5  1  0.71436200  0.11371800  0.50000000  1
  P  P6  1  0.00000000  0.00000000  0.00000000  1
loop_
_geom_bond_atom_site_label_1
_geom_bond_atom_site_label_2
_geom_bond_distance
_geom_bond_site_symmetry_2
Fe0 P0 2.251063 1_555
Fe0 P2 2.272987 1_555
Fe0 P4 2.280521 1_454
Fe0 P4 2.280521 1_455
Fe0 Yb1 2.969575 1_555
Fe0 Yb1 2.969575 1_554
Fe0 Yb0 3.106745 1_455
Fe1 P1 2.251063 1_555
Fe1 P0 2.272987 1_555
Fe1 P5 2.280521 1_565
Fe1 P5 2.280521 1_564
Fe1 Yb1 2.969578 1_555
Fe1 Yb1 2.969578 1_554
Fe1 Yb0 3.106743 1_565
Fe2 P2 2.251063 1_555
Fe2 P1 2.272987 1_555
Fe2 P3 2.280521 1_554
Fe2 P3 2.280521 1_555
Fe2 Yb1 2.969582 1_555
Fe2 Yb1 2.969582 1_554
Fe2 Yb0 3.106751 1_555
Fe3 P6 2.119059 1_555
Fe3 P0 2.194701 1_545
Fe3 P3 2.260548 1_554
Fe3 P3 2.260548 1_555
Fe3 Yb0 3.065630 1_555
Fe4 P6 2.119059 1_665
Fe4 P1 2.194701 1_555
Fe4 P4 2.260548 1_555
Fe4 P4 2.260548 1_554
Fe4 Yb0 3.065630 1_555
Fe5 P6 2.119059 1_655
Fe5 P2 2.194701 1_655
Fe5 P5 2.260548 1_555
Fe5 P5 2.260548 1_554
Fe5 Yb0 3.065622 1_555
Fe6 P0 2.265680 1_546
Fe6 P0 2.265680 1_545
Fe6 P5 2.283224 1_555
Fe6 P3 2.319720 1_555
Fe6 Yb0 2.989282 1_555
Fe6 Yb0 2.989282 1_556
Fe6 Yb1 3.044127 1_545
Fe7 P1 2.265680 1_555
Fe7 P1 2.265680 1_556
Fe7 P3 2.283225 1_555
Fe7 P4 2.319720 1_555
Fe7 Yb0 2.989286 1_555
Fe7 Yb0 2.989286 1_556
Fe7 Yb1 3.044136 1_555
Fe8 P2 2.265680 1_656
Fe8 P2 2.265680 1_655
Fe8 P4 2.283224 1_555
Fe8 P5 2.319720 1_555
Fe8 Yb0 2.989279 1_555
Fe8 Yb0 2.989279 1_556
Fe8 Yb1 3.044130 1_655
Fe9 P4 2.249067 1_455
Fe9 P6 2.487570 1_565
Fe9 P6 2.487570 1_566
Fe9 P0 2.488863 1_555
Fe9 P0 2.488863 1_556
Fe10 P5 2.249067 1_565
Fe10 P6 2.487570 1_666
Fe10 P6 2.487570 1_665
Fe10 P1 2.488863 1_555
Fe10 P1 2.488863 1_556
Fe11 P3 2.249067 1_555
Fe11 P6 2.487570 1_555
Fe11 P6 2.487570 1_556
Fe11 P2 2.488863 1_556
Fe11 P2 2.488863 1_555
P0 Yb1 2.812592 1_555
P0 Yb1 2.812592 1_554
P1 Yb1 2.812599 1_554
P1 Yb1 2.812599 1_555
P2 Yb1 2.812597 1_555
P2 Yb1 2.812597 1_554
P3 Yb0 2.857601 1_556
P3 Yb0 2.857601 1_555
P4 Yb0 2.857598 1_556
P4 Yb0 2.857598 1_555
P5 Yb0 2.857594 1_556
P5 Yb0 2.857594 1_555
