# generated using pymatgen
data_KPrNb4O12
_symmetry_space_group_name_H-M   'P 1'
_cell_length_a   5.67343154
_cell_length_b   5.67343154
_cell_length_c   7.97721160
_cell_angle_alpha   90.00000000
_cell_angle_beta   90.00000000
_cell_angle_gamma   91.52519359
_symmetry_Int_Tables_number   1
_chemical_formula_structural   KPrNb4O12
_chemical_formula_sum   'K1 Pr1 Nb4 O12'
_cell_volume   256.67812599
_cell_formula_units_Z   1
loop_
 _symmetry_equiv_pos_site_id
 _symmetry_equiv_pos_as_xyz
  1  'x, y, z'
loop_
 _atom_site_type_symbol
 _atom_site_label
 _atom_site_symmetry_multiplicity
 _atom_site_fract_x
 _atom_site_fract_y
 _atom_site_fract_z
 _atom_site_occupancy
  K  K0  1  0.00185837  0.99814163  -0.00000000  1
  Pr  Pr0  1  0.51233085  0.48766915  0.50000000  1
  Nb  Nb0  1  0.51048673  0.98399448  0.24804385  1
  Nb  Nb1  1  0.51048673  0.98399448  0.75195615  1
  Nb  Nb2  1  0.01600552  0.48951327  0.75195615  1
  Nb  Nb3  1  0.01600552  0.48951327  0.24804385  1
  O  O0  1  0.27252103  0.27987784  0.26553389  1
  O  O1  1  0.72012216  0.72747897  0.26553389  1
  O  O2  1  0.72012216  0.72747897  0.73446611  1
  O  O3  1  0.27252103  0.27987784  0.73446611  1
  O  O4  1  0.22714783  0.77285217  0.23492695  1
  O  O5  1  0.74971823  0.25028177  0.29037548  1
  O  O6  1  0.74971823  0.25028177  0.70962452  1
  O  O7  1  0.22714783  0.77285217  0.76507305  1
  O  O8  1  0.51875588  0.01926506  0.00000000  1
  O  O9  1  0.46779833  0.96478139  0.50000000  1
  O  O10  1  0.98073494  0.48124412  0.00000000  1
  O  O11  1  0.03521861  0.53220167  0.50000000  1
loop_
_geom_bond_atom_site_label_1
_geom_bond_atom_site_label_2
_geom_bond_distance
_geom_bond_site_symmetry_2
K0 O7 2.620398 1_554
K0 O4 2.620398 1_555
K0 O10 2.746653 1_465
K0 O8 2.746653 1_465
K0 O10 2.931841 1_455
K0 O8 2.931841 1_565
K0 O0 3.044526 1_565
K0 O3 3.044526 1_564
K0 O1 3.044526 1_455
K0 O2 3.044526 1_454
K0 O6 3.093095 1_464
K0 O5 3.093095 1_465
Nb0 O1 1.908961 1_555
Nb0 O4 1.981787 1_555
Nb0 O8 1.989218 1_565
Nb0 O9 2.027032 1_555
Nb0 O5 2.032104 1_565
Nb0 O0 2.186499 1_565
Nb1 O2 1.908961 1_555
Nb1 O7 1.981787 1_555
Nb1 O8 1.989218 1_566
Nb1 O9 2.027032 1_555
Nb1 O6 2.032104 1_565
Nb1 O3 2.186499 1_565
Nb2 O3 1.908961 1_555
Nb2 O7 1.981787 1_555
Nb2 O10 1.989218 1_456
Nb2 O11 2.027032 1_555
Nb2 O6 2.032104 1_455
Nb2 O2 2.186499 1_455
Nb3 O0 1.908961 1_555
Nb3 O4 1.981787 1_555
Nb3 O10 1.989218 1_455
Nb3 O11 2.027032 1_555
Nb3 O5 2.032104 1_455
Nb3 O1 2.186499 1_455
O0 Pr0 2.579501 1_555
O1 Pr0 2.579501 1_555
O2 Pr0 2.579501 1_555
O3 Pr0 2.579501 1_555
O4 Pr0 3.137878 1_555
O5 Pr0 2.553551 1_555
O6 Pr0 2.553551 1_555
O7 Pr0 3.137878 1_555
O9 Pr0 2.725316 1_555
O9 Pr0 2.970599 1_565
O11 Pr0 2.725316 1_555
O11 Pr0 2.970599 1_455
