# generated using pymatgen
data_EuMg5
_symmetry_space_group_name_H-M   'P 1'
_cell_length_a   6.05208946
_cell_length_b   6.05209479
_cell_length_c   5.03799106
_cell_angle_alpha   90.00000000
_cell_angle_beta   90.00000000
_cell_angle_gamma   120.00002773
_symmetry_Int_Tables_number   1
_chemical_formula_structural   EuMg5
_chemical_formula_sum   'Eu1 Mg5'
_cell_volume   159.80816456
_cell_formula_units_Z   1
loop_
 _symmetry_equiv_pos_site_id
 _symmetry_equiv_pos_as_xyz
  1  'x, y, z'
loop_
 _atom_site_type_symbol
 _atom_site_label
 _atom_site_symmetry_multiplicity
 _atom_site_fract_x
 _atom_site_fract_y
 _atom_site_fract_z
 _atom_site_occupancy
  Eu  Eu0  1  -0.00000000  -0.00000000  0.50000000  1
  Mg  Mg0  1  0.00000000  0.54935283  0.00000000  1
  Mg  Mg1  1  0.33333300  0.66666700  0.50000000  1
  Mg  Mg2  1  0.54935283  -0.00000000  0.00000000  1
  Mg  Mg3  1  0.66666700  0.33333300  0.50000000  1
  Mg  Mg4  1  0.45064717  0.45064717  -0.00000000  1
loop_
_geom_bond_atom_site_label_1
_geom_bond_atom_site_label_2
_geom_bond_distance
_geom_bond_site_symmetry_2
Eu0 Mg1 3.494174 1_545
Eu0 Mg3 3.494174 1_455
Eu0 Mg1 3.494176 1_445
Eu0 Mg3 3.494176 1_555
Eu0 Mg3 3.494179 1_445
Eu0 Mg1 3.494179 1_555
Eu0 Mg2 3.712656 1_455
Eu0 Mg2 3.712656 1_456
Eu0 Mg4 3.712656 1_556
Eu0 Mg4 3.712656 1_555
Eu0 Mg0 3.712658 1_545
Eu0 Mg0 3.712658 1_546
Mg0 Mg4 3.069949 1_455
Mg0 Mg2 3.069949 1_565
Mg0 Mg4 3.069950 1_555
Mg0 Mg2 3.069950 1_455
Mg0 Mg1 3.080075 1_555
Mg0 Mg1 3.080075 1_554
Mg0 Mg3 3.080075 1_455
Mg0 Mg3 3.080075 1_454
Mg1 Mg2 3.080076 1_566
Mg1 Mg2 3.080076 1_565
Mg1 Mg4 3.080079 1_556
Mg1 Mg4 3.080079 1_555
Mg1 Mg3 3.494171 1_455
Mg1 Mg3 3.494174 1_565
Mg1 Mg3 3.494184 1_555
Mg2 Mg4 3.069952 1_555
Mg2 Mg4 3.069952 1_545
Mg2 Mg3 3.080076 1_555
Mg2 Mg3 3.080076 1_554
Mg3 Mg4 3.080078 1_555
Mg3 Mg4 3.080078 1_556
