# generated using pymatgen
data_Li9Mn2Co5O16
_symmetry_space_group_name_H-M   'P 1'
_cell_length_a   5.88459100
_cell_length_b   6.44260800
_cell_length_c   7.83622555
_cell_angle_alpha   85.84782417
_cell_angle_beta   76.02758231
_cell_angle_gamma   76.69667615
_symmetry_Int_Tables_number   1
_chemical_formula_structural   Li9Mn2Co5O16
_chemical_formula_sum   'Li9 Mn2 Co5 O16'
_cell_volume   280.51670047
_cell_formula_units_Z   1
loop_
 _symmetry_equiv_pos_site_id
 _symmetry_equiv_pos_as_xyz
  1  'x, y, z'
loop_
 _atom_site_type_symbol
 _atom_site_label
 _atom_site_symmetry_multiplicity
 _atom_site_fract_x
 _atom_site_fract_y
 _atom_site_fract_z
 _atom_site_occupancy
  Li  Li0  1  0.93991500  0.87541300  0.36869300  1
  Li  Li1  1  0.68709400  0.36725500  0.87695100  1
  Li  Li2  1  0.43314800  0.87466600  0.36848600  1
  Li  Li3  1  0.81212800  0.63321000  0.12398900  1
  Li  Li4  1  0.56685200  0.12533400  0.63151400  1
  Li  Li5  1  0.31290600  0.63274500  0.12304900  1
  Li  Li6  1  0.18787200  0.36679000  0.87601100  1
  Li  Li7  1  0.06008500  0.12458700  0.63130700  1
  Li  Li8  1  0.00000000  0.00000000  0.00000000  1
  Mn  Mn0  1  0.88082800  0.75266100  0.75547100  1
  Mn  Mn1  1  0.11917200  0.24733900  0.24452900  1
  Co  Co0  1  0.62309900  0.24728000  0.24561300  1
  Co  Co1  1  0.37690100  0.75272000  0.75438700  1
  Co  Co2  1  0.50000000  0.00000000  0.00000000  1
  Co  Co3  1  0.24827700  0.50104000  0.49824600  1
  Co  Co4  1  0.75172300  0.49896000  0.50175400  1
  O  O0  1  0.14725100  0.79805800  0.56635600  1
  O  O1  1  0.90681800  0.30537000  0.08809500  1
  O  O2  1  0.66831600  0.79160000  0.58288600  1
  O  O3  1  0.01787900  0.54836500  0.31793000  1
  O  O4  1  0.77440900  0.04478900  0.81489900  1
  O  O5  1  0.51978400  0.54218800  0.32142300  1
  O  O6  1  0.38777700  0.29975000  0.06295600  1
  O  O7  1  0.30467700  0.03661100  0.82300800  1
  O  O8  1  0.69532300  0.96338900  0.17699200  1
  O  O9  1  0.48021600  0.45781200  0.67857700  1
  O  O10  1  0.22559100  0.95521100  0.18510100  1
  O  O11  1  0.61222300  0.70025000  0.93704400  1
  O  O12  1  0.33168400  0.20840000  0.41711400  1
  O  O13  1  0.09318200  0.69463000  0.91190500  1
  O  O14  1  0.98212100  0.45163500  0.68207000  1
  O  O15  1  0.85274900  0.20194200  0.43364400  1
loop_
_geom_bond_atom_site_label_1
_geom_bond_atom_site_label_2
_geom_bond_distance
_geom_bond_site_symmetry_2
Li0 O10 2.069500 1_655
Li0 O3 2.096834 1_655
Li0 O15 2.116621 1_565
Li0 O2 2.152599 1_555
Li0 O0 2.158049 1_655
Li0 O8 2.279242 1_555
Li1 O4 2.085887 1_555
Li1 O6 2.106423 1_556
Li1 O11 2.151633 1_555
Li1 O14 2.162302 1_555
Li1 O9 2.166699 1_555
Li1 O1 2.295368 1_556
Li2 O8 2.030362 1_555
Li2 O10 2.067389 1_555
Li2 O0 2.118920 1_555
Li2 O5 2.122552 1_555
Li2 O12 2.131355 1_565
Li2 O2 2.382419 1_555
Li3 O11 2.055036 1_554
Li3 O1 2.078334 1_555
Li3 O8 2.118297 1_555
Li3 O13 2.128982 1_654
Li3 O3 2.130289 1_655
Li3 O5 2.178217 1_555
Li4 O7 2.030362 1_555
Li4 O4 2.067389 1_555
Li4 O15 2.118920 1_555
Li4 O9 2.122552 1_555
Li4 O2 2.131355 1_545
Li4 O12 2.382419 1_555
Li5 O10 2.085887 1_555
Li5 O11 2.106423 1_554
Li5 O6 2.151633 1_555
Li5 O3 2.162302 1_555
Li5 O5 2.166699 1_555
Li5 O13 2.295368 1_554
Li6 O6 2.055036 1_556
Li6 O13 2.078334 1_555
Li6 O7 2.118297 1_555
Li6 O1 2.128982 1_456
Li6 O14 2.130289 1_455
Li6 O9 2.178217 1_555
Li7 O4 2.069500 1_455
Li7 O14 2.096834 1_455
Li7 O0 2.116621 1_545
Li7 O12 2.152599 1_555
Li7 O15 2.158049 1_455
Li7 O7 2.279242 1_555
Li8 O8 2.034740 1_445
Li8 O7 2.034740 1_554
Li8 O1 2.040887 1_455
Li8 O13 2.040887 1_544
Li8 O10 2.154633 1_545
Li8 O4 2.154633 1_454
Mn0 O4 1.896019 1_565
Mn0 O13 1.913740 1_655
Mn0 O11 1.930516 1_555
Mn0 O0 1.940606 1_655
Mn0 O14 1.977712 1_555
Mn0 O2 2.019664 1_555
Mn1 O10 1.896019 1_545
Mn1 O1 1.913740 1_455
Mn1 O6 1.930516 1_555
Mn1 O15 1.940606 1_455
Mn1 O3 1.977712 1_555
Mn1 O12 2.019664 1_555
Co0 O8 1.867977 1_545
Co0 O1 1.917448 1_555
Co0 O5 1.946762 1_555
Co0 O12 1.961023 1_555
Co0 O6 2.179972 1_555
Co0 O15 2.190947 1_555
Co1 O7 1.867977 1_565
Co1 O13 1.917448 1_555
Co1 O9 1.946762 1_555
Co1 O2 1.961023 1_555
Co1 O11 2.179972 1_555
Co1 O0 2.190947 1_555
Co2 O11 1.950034 1_544
Co2 O6 1.950034 1_555
Co2 O10 1.953834 1_545
Co2 O4 1.953834 1_554
Co2 O8 1.974352 1_545
Co2 O7 1.974352 1_554
Co3 O5 1.901462 1_555
Co3 O14 1.924288 1_455
Co3 O0 1.941950 1_555
Co3 O12 1.948519 1_555
Co3 O3 2.144810 1_555
Co3 O9 2.153319 1_555
Co4 O9 1.901462 1_555
Co4 O3 1.924288 1_655
Co4 O15 1.941950 1_555
Co4 O2 1.948519 1_555
Co4 O14 2.144810 1_555
Co4 O5 2.153319 1_555
