# generated using pymatgen
data_HfZn16
_symmetry_space_group_name_H-M   'P 1'
_cell_length_a   6.86500696
_cell_length_b   6.86500701
_cell_length_c   11.58666560
_cell_angle_alpha   90.00000000
_cell_angle_beta   90.00000000
_cell_angle_gamma   112.39107679
_symmetry_Int_Tables_number   1
_chemical_formula_structural   HfZn16
_chemical_formula_sum   'Hf2 Zn32'
_cell_volume   504.89009555
_cell_formula_units_Z   2
loop_
 _symmetry_equiv_pos_site_id
 _symmetry_equiv_pos_as_xyz
  1  'x, y, z'
loop_
 _atom_site_type_symbol
 _atom_site_label
 _atom_site_symmetry_multiplicity
 _atom_site_fract_x
 _atom_site_fract_y
 _atom_site_fract_z
 _atom_site_occupancy
  Hf  Hf0  1  0.04708611  0.95291389  0.75000000  1
  Hf  Hf1  1  0.95291389  0.04708611  0.25000000  1
  Zn  Zn0  1  0.35451694  0.98339037  0.93185954  1
  Zn  Zn1  1  0.64548306  0.01660963  0.43185954  1
  Zn  Zn2  1  0.98339037  0.35451694  0.06814046  1
  Zn  Zn3  1  0.01660963  0.64548306  0.56814046  1
  Zn  Zn4  1  0.64548306  0.01660963  0.06814046  1
  Zn  Zn5  1  0.35451694  0.98339037  0.56814046  1
  Zn  Zn6  1  0.01660963  0.64548306  0.93185954  1
  Zn  Zn7  1  0.98339037  0.35451694  0.43185954  1
  Zn  Zn8  1  0.64893179  0.75128203  0.86607970  1
  Zn  Zn9  1  0.35106821  0.24871797  0.36607970  1
  Zn  Zn10  1  0.75128203  0.64893179  0.13392030  1
  Zn  Zn11  1  0.24871797  0.35106821  0.63392030  1
  Zn  Zn12  1  0.35106821  0.24871797  0.13392030  1
  Zn  Zn13  1  0.64893179  0.75128203  0.63392030  1
  Zn  Zn14  1  0.24871797  0.35106821  0.86607970  1
  Zn  Zn15  1  0.75128203  0.64893179  0.36607970  1
  Zn  Zn16  1  0.48305886  0.19013207  0.75000000  1
  Zn  Zn17  1  0.51694114  0.80986793  0.25000000  1
  Zn  Zn18  1  0.19013207  0.48305886  0.25000000  1
  Zn  Zn19  1  0.80986793  0.51694114  0.75000000  1
  Zn  Zn20  1  0.17646603  0.82353397  0.36068555  1
  Zn  Zn21  1  0.82353397  0.17646603  0.86068555  1
  Zn  Zn22  1  0.82353397  0.17646603  0.63931445  1
  Zn  Zn23  1  0.17646603  0.82353397  0.13931445  1
  Zn  Zn24  1  0.62235674  0.37764326  0.96936561  1
  Zn  Zn25  1  0.37764326  0.62235674  0.46936561  1
  Zn  Zn26  1  0.37764326  0.62235674  0.03063439  1
  Zn  Zn27  1  0.62235674  0.37764326  0.53063439  1
  Zn  Zn28  1  0.29307906  0.70692094  0.75000000  1
  Zn  Zn29  1  0.70692094  0.29307906  0.25000000  1
  Zn  Zn30  1  0.00000000  0.00000000  -0.00000000  1
  Zn  Zn31  1  0.00000000  0.00000000  0.50000000  1
loop_
_geom_bond_atom_site_label_1
_geom_bond_atom_site_label_2
_geom_bond_distance
_geom_bond_site_symmetry_2
Hf0 Zn28 2.806493 1_555
Hf0 Zn16 2.810073 1_565
Hf0 Zn19 2.810073 1_455
Hf0 Zn22 2.854757 1_465
Hf0 Zn21 2.854757 1_465
Hf0 Zn13 2.883336 1_455
Hf0 Zn8 2.883336 1_455
Hf0 Zn11 2.883336 1_565
Hf0 Zn14 2.883336 1_565
Hf0 Zn5 2.932866 1_555
Hf0 Zn0 2.932866 1_555
Hf0 Zn6 2.932866 1_555
Hf0 Zn3 2.932866 1_555
Hf0 Zn31 2.946058 1_565
Hf0 Zn30 2.946058 1_566
Hf1 Zn29 2.806493 1_555
Hf1 Zn17 2.810073 1_545
Hf1 Zn18 2.810073 1_655
Hf1 Zn23 2.854757 1_645
Hf1 Zn20 2.854757 1_645
Hf1 Zn9 2.883336 1_655
Hf1 Zn12 2.883336 1_655
Hf1 Zn15 2.883336 1_545
Hf1 Zn10 2.883336 1_545
Hf1 Zn1 2.932866 1_555
Hf1 Zn4 2.932866 1_555
Hf1 Zn7 2.932866 1_555
Hf1 Zn2 2.932866 1_555
Hf1 Zn30 2.946058 1_655
Hf1 Zn31 2.946058 1_655
Zn0 Zn4 2.487625 1_566
Zn0 Zn16 2.505785 1_565
Zn0 Zn6 2.581218 1_555
Zn0 Zn30 2.602107 1_566
Zn0 Zn24 2.665282 1_565
Zn0 Zn23 2.730251 1_556
Zn0 Zn28 2.758687 1_555
Zn0 Zn26 2.788863 1_556
Zn0 Zn12 2.971945 1_566
Zn0 Zn14 2.979305 1_565
Zn0 Zn21 3.090743 1_565
Zn0 Zn8 3.107828 1_555
Zn1 Zn5 2.487625 1_545
Zn1 Zn17 2.505785 1_545
Zn1 Zn7 2.581218 1_555
Zn1 Zn31 2.602107 1_655
Zn1 Zn25 2.665282 1_545
Zn1 Zn22 2.730251 1_555
Zn1 Zn29 2.758687 1_555
Zn1 Zn27 2.788863 1_555
Zn1 Zn13 2.971945 1_545
Zn1 Zn15 2.979305 1_545
Zn1 Zn20 3.090743 1_545
Zn1 Zn9 3.107828 1_555
Zn2 Zn6 2.487625 1_654
Zn2 Zn4 2.581218 1_555
Zn2 Zn30 2.602107 1_655
Zn2 Zn26 2.665282 1_655
Zn2 Zn21 2.730251 1_554
Zn2 Zn29 2.758687 1_555
Zn2 Zn24 2.788863 1_554
Zn2 Zn23 3.090743 1_655
Zn3 Zn7 2.487625 1_455
Zn3 Zn5 2.581218 1_555
Zn3 Zn31 2.602107 1_565
Zn4 Zn8 2.971945 1_544
Zn5 Zn9 2.971945 1_565
Zn6 Zn8 2.979305 1_455
Zn7 Zn9 2.979305 1_655
Zn10 Zn24 2.575141 1_554
Zn10 Zn17 2.640417 1_555
Zn10 Zn15 2.689953 1_555
Zn10 Zn23 2.700940 1_655
Zn10 Zn29 2.702374 1_555
Zn10 Zn26 2.772787 1_555
Zn10 Zn30 2.827815 1_665
Zn10 Zn6 2.971945 1_654
Zn10 Zn4 2.979305 1_565
Zn10 Zn12 3.057167 1_555
Zn10 Zn2 3.107828 1_555
Zn11 Zn25 2.575141 1_555
Zn11 Zn16 2.640417 1_555
Zn11 Zn14 2.689953 1_555
Zn11 Zn22 2.700940 1_455
Zn11 Zn28 2.702374 1_555
Zn11 Zn27 2.772787 1_555
Zn11 Zn31 2.827815 1_555
Zn11 Zn7 2.971945 1_455
Zn11 Zn5 2.979305 1_545
Zn11 Zn13 3.057167 1_555
Zn11 Zn3 3.107828 1_555
Zn12 Zn24 2.575141 1_554
Zn12 Zn18 2.640417 1_555
Zn12 Zn9 2.689953 1_555
Zn12 Zn23 2.700940 1_545
Zn12 Zn29 2.702374 1_555
Zn12 Zn26 2.772787 1_555
Zn12 Zn30 2.827815 1_555
Zn12 Zn2 2.979305 1_455
Zn12 Zn4 3.107828 1_555
Zn13 Zn25 2.575141 1_555
Zn13 Zn19 2.640417 1_555
Zn13 Zn8 2.689953 1_555
Zn13 Zn22 2.700940 1_565
Zn13 Zn28 2.702374 1_555
Zn13 Zn27 2.772787 1_555
Zn13 Zn31 2.827815 1_665
Zn13 Zn3 2.979305 1_655
Zn13 Zn5 3.107828 1_555
Zn14 Zn26 2.575141 1_556
Zn14 Zn16 2.640417 1_555
Zn14 Zn21 2.700940 1_455
Zn14 Zn28 2.702374 1_555
Zn14 Zn24 2.772787 1_555
Zn14 Zn30 2.827815 1_556
Zn14 Zn2 2.971945 1_456
Zn14 Zn8 3.057167 1_555
Zn14 Zn6 3.107828 1_555
Zn15 Zn27 2.575141 1_555
Zn15 Zn17 2.640417 1_555
Zn15 Zn20 2.700940 1_655
Zn15 Zn29 2.702374 1_555
Zn15 Zn25 2.772787 1_555
Zn15 Zn31 2.827815 1_665
Zn15 Zn3 2.971945 1_655
Zn15 Zn9 3.057167 1_555
Zn15 Zn7 3.107828 1_555
Zn16 Zn19 2.496441 1_555
Zn16 Zn5 2.505785 1_545
Zn16 Zn21 2.698867 1_555
Zn16 Zn22 2.698867 1_555
Zn16 Zn27 2.844998 1_555
Zn16 Zn24 2.844998 1_555
Zn16 Zn28 3.067414 1_545
Zn17 Zn18 2.496441 1_555
Zn17 Zn4 2.505785 1_565
Zn17 Zn23 2.698867 1_555
Zn17 Zn20 2.698867 1_555
Zn17 Zn25 2.844998 1_555
Zn17 Zn26 2.844998 1_555
Zn17 Zn29 3.067414 1_565
Zn18 Zn2 2.505785 1_455
Zn18 Zn7 2.505785 1_455
Zn18 Zn9 2.640417 1_555
Zn18 Zn23 2.698867 1_555
Zn18 Zn20 2.698867 1_555
Zn18 Zn26 2.844998 1_555
Zn18 Zn25 2.844998 1_555
Zn18 Zn29 3.067414 1_455
Zn19 Zn6 2.505785 1_655
Zn19 Zn3 2.505785 1_655
Zn19 Zn8 2.640417 1_555
Zn19 Zn21 2.698867 1_555
Zn19 Zn22 2.698867 1_555
Zn19 Zn27 2.844998 1_555
Zn19 Zn24 2.844998 1_555
Zn19 Zn28 3.067414 1_655
Zn20 Zn23 2.564953 1_555
Zn20 Zn31 2.580479 1_565
Zn20 Zn25 2.617941 1_555
Zn20 Zn9 2.700940 1_565
Zn20 Zn5 2.730251 1_555
Zn20 Zn3 2.730251 1_555
Zn20 Zn7 3.090743 1_455
Zn21 Zn22 2.564953 1_555
Zn21 Zn30 2.580479 1_656
Zn21 Zn24 2.617941 1_555
Zn21 Zn8 2.700940 1_545
Zn21 Zn4 2.730251 1_556
Zn21 Zn6 3.090743 1_655
Zn22 Zn31 2.580479 1_655
Zn22 Zn27 2.617941 1_555
Zn22 Zn7 2.730251 1_555
Zn22 Zn5 3.090743 1_545
Zn22 Zn3 3.090743 1_655
Zn23 Zn30 2.580479 1_565
Zn23 Zn26 2.617941 1_555
Zn23 Zn6 2.730251 1_554
Zn23 Zn4 3.090743 1_565
Zn24 Zn6 2.665282 1_655
Zn24 Zn8 2.772787 1_555
Zn24 Zn4 2.788863 1_556
Zn24 Zn26 2.880736 1_556
Zn25 Zn7 2.665282 1_455
Zn25 Zn9 2.772787 1_555
Zn25 Zn3 2.788863 1_555
Zn25 Zn5 2.788863 1_555
Zn25 Zn27 2.880736 1_555
Zn26 Zn8 2.575141 1_554
Zn26 Zn4 2.665282 1_565
Zn26 Zn6 2.788863 1_554
Zn27 Zn9 2.575141 1_555
Zn27 Zn3 2.665282 1_655
Zn27 Zn5 2.665282 1_545
Zn27 Zn7 2.788863 1_555
Zn28 Zn8 2.702374 1_555
Zn28 Zn6 2.758687 1_555
Zn28 Zn3 2.758687 1_555
Zn28 Zn5 2.758687 1_555
Zn29 Zn9 2.702374 1_555
Zn29 Zn7 2.758687 1_555
Zn29 Zn4 2.758687 1_555
Zn30 Zn4 2.602107 1_455
Zn30 Zn6 2.602107 1_544
Zn30 Zn8 2.827815 1_444
Zn31 Zn5 2.602107 1_545
Zn31 Zn7 2.602107 1_455
Zn31 Zn9 2.827815 1_555
