# generated using pymatgen
data_Hg3H4(IO6)2
_symmetry_space_group_name_H-M   'P 1'
_cell_length_a   13.88812900
_cell_length_b   9.30627500
_cell_length_c   10.05904061
_cell_angle_alpha   87.94051095
_cell_angle_beta   90.00000000
_cell_angle_gamma   90.00000000
_symmetry_Int_Tables_number   1
_chemical_formula_structural   Hg3H4(IO6)2
_chemical_formula_sum   'Hg12 H16 I8 O48'
_cell_volume   1299.25848896
_cell_formula_units_Z   4
loop_
 _symmetry_equiv_pos_site_id
 _symmetry_equiv_pos_as_xyz
  1  'x, y, z'
loop_
 _atom_site_type_symbol
 _atom_site_label
 _atom_site_symmetry_multiplicity
 _atom_site_fract_x
 _atom_site_fract_y
 _atom_site_fract_z
 _atom_site_occupancy
  Hg  Hg0  1  0.08202200  0.03663100  0.64359700  1
  Hg  Hg1  1  0.58202200  0.96336900  0.85640300  1
  Hg  Hg2  1  0.91797800  0.96336900  0.35640300  1
  Hg  Hg3  1  0.41797800  0.03663100  0.14359700  1
  Hg  Hg4  1  0.47175800  0.20541300  0.48536600  1
  Hg  Hg5  1  0.97175800  0.79458700  0.01463400  1
  Hg  Hg6  1  0.52824200  0.79458700  0.51463400  1
  Hg  Hg7  1  0.02824200  0.20541300  0.98536600  1
  Hg  Hg8  1  0.40655700  0.65242800  0.93510800  1
  Hg  Hg9  1  0.90655700  0.34757200  0.56489200  1
  Hg  Hg10  1  0.59344300  0.34757200  0.06489200  1
  Hg  Hg11  1  0.09344300  0.65242800  0.43510800  1
  H  H0  1  0.74554800  0.90724500  0.50088300  1
  H  H1  1  0.24554800  0.09275500  0.99911700  1
  H  H2  1  0.25445200  0.09275500  0.49911700  1
  H  H3  1  0.75445200  0.90724500  0.00088300  1
  H  H4  1  0.34336800  0.21176200  0.81711600  1
  H  H5  1  0.84336800  0.78823800  0.68288400  1
  H  H6  1  0.65663200  0.78823800  0.18288400  1
  H  H7  1  0.15663200  0.21176200  0.31711600  1
  H  H8  1  0.27824200  0.64234200  0.49818900  1
  H  H9  1  0.77824200  0.35765800  0.00181100  1
  H  H10  1  0.72175800  0.35765800  0.50181100  1
  H  H11  1  0.22175800  0.64234200  0.99818900  1
  H  H12  1  0.16157600  0.84390000  0.95797900  1
  H  H13  1  0.66157600  0.15610000  0.54202100  1
  H  H14  1  0.83842400  0.15610000  0.04202100  1
  H  H15  1  0.33842400  0.84390000  0.45797900  1
  I  I0  1  0.84030700  0.03346300  0.79461000  1
  I  I1  1  0.34030700  0.96653700  0.70539000  1
  I  I2  1  0.15969300  0.96653700  0.20539000  1
  I  I3  1  0.65969300  0.03346300  0.29461000  1
  I  I4  1  0.11960900  0.51634800  0.77865400  1
  I  I5  1  0.61960900  0.48365200  0.72134600  1
  I  I6  1  0.88039100  0.48365200  0.22134600  1
  I  I7  1  0.38039100  0.51634800  0.27865400  1
  O  O0  1  0.46888000  0.04015800  0.65637900  1
  O  O1  1  0.96888000  0.95984200  0.84362100  1
  O  O2  1  0.53112000  0.95984200  0.34362100  1
  O  O3  1  0.03112000  0.04015800  0.15637900  1
  O  O4  1  0.30696900  0.11392200  0.56297600  1
  O  O5  1  0.80696900  0.88607800  0.93702400  1
  O  O6  1  0.69303100  0.88607800  0.43702400  1
  O  O7  1  0.19303100  0.11392200  0.06297600  1
  O  O8  1  0.69978400  0.07925800  0.78621600  1
  O  O9  1  0.19978400  0.92074200  0.71378400  1
  O  O10  1  0.30021600  0.92074200  0.21378400  1
  O  O11  1  0.80021600  0.07925800  0.28621600  1
  O  O12  1  0.95064400  0.12833800  0.59699100  1
  O  O13  1  0.45064400  0.87166200  0.90300900  1
  O  O14  1  0.04935600  0.87166200  0.40300900  1
  O  O15  1  0.54935600  0.12833800  0.09699100  1
  O  O16  1  0.31963500  0.11603800  0.84501300  1
  O  O17  1  0.81963500  0.88396200  0.65498700  1
  O  O18  1  0.68036500  0.88396200  0.15498700  1
  O  O19  1  0.18036500  0.11603800  0.34501300  1
  O  O20  1  0.85794200  0.19466600  0.95379600  1
  O  O21  1  0.35794200  0.80533400  0.54620400  1
  O  O22  1  0.14205800  0.80533400  0.04620400  1
  O  O23  1  0.64205800  0.19466600  0.45379600  1
  O  O24  1  0.11879900  0.32356900  0.83219500  1
  O  O25  1  0.61879900  0.67643100  0.66780500  1
  O  O26  1  0.88120100  0.67643100  0.16780500  1
  O  O27  1  0.38120100  0.32356900  0.33219500  1
  O  O28  1  0.04223400  0.50321800  0.62708800  1
  O  O29  1  0.54223400  0.49678200  0.87291200  1
  O  O30  1  0.95776600  0.49678200  0.37291200  1
  O  O31  1  0.45776600  0.50321800  0.12708800  1
  O  O32  1  0.28537900  0.39825000  0.63501900  1
  O  O33  1  0.78537900  0.60175000  0.86498100  1
  O  O34  1  0.71462100  0.60175000  0.36498100  1
  O  O35  1  0.21462100  0.39825000  0.13501900  1
  O  O36  1  0.03216100  0.59078600  0.88915900  1
  O  O37  1  0.53216100  0.40921400  0.61084100  1
  O  O38  1  0.96783900  0.40921400  0.11084100  1
  O  O39  1  0.46783900  0.59078600  0.38915900  1
  O  O40  1  0.25475900  0.57922500  0.93564100  1
  O  O41  1  0.75475900  0.42077500  0.56435900  1
  O  O42  1  0.74524100  0.42077500  0.06435900  1
  O  O43  1  0.24524100  0.57922500  0.43564100  1
  O  O44  1  0.14997700  0.40929900  0.21920100  1
  O  O45  1  0.64997700  0.59070100  0.28079900  1
  O  O46  1  0.85002300  0.59070100  0.78079900  1
  O  O47  1  0.35002300  0.40929900  0.71920100  1
loop_
_geom_bond_atom_site_label_1
_geom_bond_atom_site_label_2
_geom_bond_distance
_geom_bond_site_symmetry_2
Hg0 O12 2.061201 1_455
Hg0 O9 2.069232 1_545
Hg0 O1 2.631494 1_445
Hg1 O13 2.061201 1_555
Hg1 O8 2.069232 1_565
Hg1 O0 2.631494 1_565
Hg2 O14 2.061201 1_655
Hg2 O11 2.069232 1_565
Hg2 O3 2.631494 1_665
Hg3 O15 2.061201 1_555
Hg3 O10 2.069232 1_545
Hg3 O2 2.631494 1_545
Hg4 O27 2.245658 1_555
Hg4 O0 2.266229 1_555
Hg4 O23 2.388945 1_555
Hg4 O37 2.462930 1_555
Hg4 O4 2.554287 1_555
Hg5 O26 2.245658 1_555
Hg5 O1 2.266229 1_554
Hg5 O22 2.388945 1_655
Hg5 O36 2.462930 1_654
Hg5 O5 2.554287 1_554
Hg6 O25 2.245658 1_555
Hg6 O2 2.266229 1_555
Hg6 O21 2.388945 1_555
Hg6 O39 2.462930 1_555
Hg6 O6 2.554287 1_555
Hg7 O24 2.245658 1_555
Hg7 O3 2.266229 1_556
Hg7 O20 2.388945 1_455
Hg7 O38 2.462930 1_456
Hg7 O7 2.554287 1_556
Hg8 O13 2.143462 1_555
Hg8 O40 2.215475 1_555
Hg8 O31 2.443466 1_556
Hg8 O29 2.470879 1_555
Hg9 O12 2.143462 1_555
Hg9 O41 2.215475 1_555
Hg9 O30 2.443466 1_555
Hg9 O28 2.470879 1_655
Hg10 O15 2.143462 1_555
Hg10 O42 2.215475 1_555
Hg10 O29 2.443466 1_554
Hg10 O31 2.470879 1_555
Hg11 O14 2.143462 1_555
Hg11 O43 2.215475 1_555
Hg11 O28 2.443466 1_555
Hg11 O30 2.470879 1_455
H0 O6 0.996240 1_555
H1 O7 0.996240 1_556
H2 O4 0.996240 1_555
H3 O5 0.996240 1_554
H4 O16 0.981328 1_555
H5 O17 0.981328 1_555
H6 O18 0.981328 1_555
H7 O19 0.981328 1_555
H8 O43 0.988686 1_555
H9 O42 0.988686 1_555
H10 O41 0.988686 1_555
H11 O40 0.988686 1_555
H12 O22 0.983352 1_556
H13 O23 0.983352 1_555
H14 O20 0.983352 1_554
H15 O21 0.983352 1_555
I0 O1 1.968932 1_545
I0 O8 1.998730 1_555
I0 O5 2.001660 1_545
I0 O17 2.032516 1_545
I0 O20 2.246613 1_555
I0 O12 2.636886 1_555
I1 O0 1.968932 1_565
I1 O9 1.998730 1_555
I1 O4 2.001660 1_565
I1 O16 2.032516 1_565
I1 O21 2.246613 1_555
I1 O13 2.636886 1_555
I2 O3 1.968932 1_565
I2 O10 1.998730 1_555
I2 O7 2.001660 1_565
I2 O19 2.032516 1_565
I2 O22 2.246613 1_555
I2 O14 2.636886 1_555
I3 O2 1.968932 1_545
I3 O11 1.998730 1_555
I3 O6 2.001660 1_545
I3 O18 2.032516 1_545
I3 O23 2.246613 1_555
I3 O15 2.636886 1_555
I4 O36 1.801615 1_555
I4 O24 1.854554 1_555
I4 O28 1.872833 1_555
I4 O40 2.534867 1_555
I5 O37 1.801615 1_555
I5 O25 1.854554 1_555
I5 O29 1.872833 1_555
I5 O41 2.534867 1_555
I6 O38 1.801615 1_555
I6 O26 1.854554 1_555
I6 O30 1.872833 1_555
I6 O42 2.534867 1_555
I7 O39 1.801615 1_555
I7 O27 1.854554 1_555
I7 O31 1.872833 1_555
I7 O43 2.534867 1_555
O32 O47 1.240928 1_555
O33 O46 1.240928 1_555
O34 O45 1.240928 1_555
O35 O44 1.240928 1_555
