# generated using pymatgen
data_La7SmMn5Fe3O20
_symmetry_space_group_name_H-M   'P 1'
_cell_length_a   11.17519893
_cell_length_b   11.86709950
_cell_length_c   17.84769481
_cell_angle_alpha   109.41240065
_cell_angle_beta   108.30647386
_cell_angle_gamma   89.96609442
_symmetry_Int_Tables_number   1
_chemical_formula_structural   La7SmMn5Fe3O20
_chemical_formula_sum   'La28 Sm4 Mn20 Fe12 O80'
_cell_volume   2105.08501999
_cell_formula_units_Z   4
loop_
 _symmetry_equiv_pos_site_id
 _symmetry_equiv_pos_as_xyz
  1  'x, y, z'
loop_
 _atom_site_type_symbol
 _atom_site_label
 _atom_site_symmetry_multiplicity
 _atom_site_fract_x
 _atom_site_fract_y
 _atom_site_fract_z
 _atom_site_occupancy
  La  La0  1  0.29973100  0.06592800  0.11060100  1
  La  La1  1  0.30591800  0.06364100  0.60900700  1
  La  La2  1  0.29916400  0.56609100  0.61060100  1
  La  La3  1  0.79929000  0.06504300  0.61055900  1
  La  La4  1  0.80111100  0.56798100  0.10941300  1
  La  La5  1  0.80278400  0.56486800  0.60944400  1
  La  La6  1  0.19124300  0.43538100  0.39010500  1
  La  La7  1  0.19044400  0.43464700  0.89168300  1
  La  La8  1  0.19173400  0.93322900  0.38729700  1
  La  La9  1  0.19351000  0.93544300  0.89073200  1
  La  La10  1  0.69545000  0.43528200  0.38936700  1
  La  La11  1  0.68612400  0.93385700  0.38989400  1
  La  La12  1  0.69261000  0.93305600  0.89003000  1
  La  La13  1  0.04720000  0.29430900  0.11060500  1
  La  La14  1  0.05238300  0.29436100  0.61121100  1
  La  La15  1  0.05233100  0.79429200  0.61012500  1
  La  La16  1  0.55447700  0.29265800  0.10993400  1
  La  La17  1  0.55394300  0.29611400  0.61200100  1
  La  La18  1  0.54742200  0.79478700  0.11112300  1
  La  La19  1  0.55026200  0.79114900  0.60840000  1
  La  La20  1  0.44331300  0.20942300  0.38957400  1
  La  La21  1  0.44674900  0.20659200  0.89011100  1
  La  La22  1  0.43722400  0.70465000  0.38738600  1
  La  La23  1  0.44350500  0.70425000  0.89035700  1
  La  La24  1  0.93978700  0.20380900  0.38814600  1
  La  La25  1  0.93583800  0.20668700  0.88999100  1
  La  La26  1  0.94063000  0.70498000  0.38943700  1
  La  La27  1  0.94336300  0.70503500  0.89059000  1
  Sm  Sm0  1  0.29560800  0.56712400  0.10818400  1
  Sm  Sm1  1  0.79937200  0.06497200  0.10796500  1
  Sm  Sm2  1  0.68979600  0.43472800  0.89235500  1
  Sm  Sm3  1  0.04948400  0.79321100  0.10880200  1
  Mn  Mn0  1  0.00365800  0.99861200  0.49973200  1
  Mn  Mn1  1  0.25460300  0.25185900  0.00131000  1
  Mn  Mn2  1  0.25491700  0.24986400  0.49954600  1
  Mn  Mn3  1  0.75381200  0.25024800  0.50026100  1
  Mn  Mn4  1  0.10549300  0.09598100  0.24796100  1
  Mn  Mn5  1  0.10979900  0.09870200  0.75098900  1
  Mn  Mn6  1  0.10848000  0.59800500  0.24791100  1
  Mn  Mn7  1  0.10936900  0.59709400  0.75091800  1
  Mn  Mn8  1  0.61033200  0.09640000  0.24874400  1
  Mn  Mn9  1  0.60966900  0.09712000  0.75044500  1
  Mn  Mn10  1  0.60468900  0.59764600  0.24816300  1
  Mn  Mn11  1  0.60986400  0.59660200  0.75103700  1
  Mn  Mn12  1  0.35771700  0.40398600  0.24827800  1
  Mn  Mn13  1  0.36127900  0.40199600  0.75062600  1
  Mn  Mn14  1  0.35521800  0.90191900  0.24786900  1
  Mn  Mn15  1  0.36025200  0.90236600  0.75092000  1
  Mn  Mn16  1  0.85889000  0.40182200  0.24890900  1
  Mn  Mn17  1  0.85746100  0.40321800  0.75203500  1
  Mn  Mn18  1  0.85871600  0.90235600  0.24789100  1
  Mn  Mn19  1  0.85859100  0.90162900  0.75026700  1
  Fe  Fe0  1  0.00527200  0.99961500  0.00116100  1
  Fe  Fe1  1  0.00391900  0.50242200  0.00152500  1
  Fe  Fe2  1  0.00510400  0.49966000  0.49997300  1
  Fe  Fe3  1  0.50698900  0.99899800  0.00083400  1
  Fe  Fe4  1  0.50336900  0.99948800  0.49918500  1
  Fe  Fe5  1  0.50496200  0.50052500  0.00080800  1
  Fe  Fe6  1  0.50472500  0.50203200  0.50026200  1
  Fe  Fe7  1  0.25503400  0.75044400  0.00118500  1
  Fe  Fe8  1  0.25468300  0.74958400  0.50007100  1
  Fe  Fe9  1  0.75484600  0.24981000  0.00058300  1
  Fe  Fe10  1  0.75611800  0.75060800  0.00113000  1
  Fe  Fe11  1  0.75285300  0.74932500  0.49928100  1
  O  O0  1  0.11342600  0.11661700  0.47516600  1
  O  O1  1  0.11217000  0.11717600  0.97749900  1
  O  O2  1  0.11403100  0.61659300  0.47789700  1
  O  O3  1  0.11543700  0.61913300  0.98192800  1
  O  O4  1  0.61146200  0.11927400  0.47846700  1
  O  O5  1  0.61777800  0.11593800  0.97967100  1
  O  O6  1  0.61459600  0.61805000  0.47770700  1
  O  O7  1  0.61513100  0.61378300  0.97480700  1
  O  O8  1  0.13732400  0.38715600  0.02615900  1
  O  O9  1  0.13615400  0.38282400  0.52237000  1
  O  O10  1  0.13753300  0.88075000  0.02565400  1
  O  O11  1  0.13949200  0.88061500  0.52280100  1
  O  O12  1  0.63486400  0.38085100  0.01923200  1
  O  O13  1  0.63761800  0.38412900  0.52294000  1
  O  O14  1  0.64181500  0.88351200  0.02496700  1
  O  O15  1  0.63592000  0.88505200  0.52161700  1
  O  O16  1  0.36534400  0.10773100  0.47659000  1
  O  O17  1  0.36756600  0.10981900  0.97713500  1
  O  O18  1  0.36256600  0.61209200  0.47643000  1
  O  O19  1  0.36485200  0.61070800  0.97956100  1
  O  O20  1  0.86163500  0.10694300  0.47618700  1
  O  O21  1  0.86432100  0.11039300  0.98016400  1
  O  O22  1  0.86528700  0.60905000  0.47746200  1
  O  O23  1  0.86182800  0.60978100  0.97504400  1
  O  O24  1  0.38828400  0.39741000  0.02799200  1
  O  O25  1  0.38866700  0.39406800  0.52244600  1
  O  O26  1  0.38799300  0.88994000  0.02167500  1
  O  O27  1  0.38727600  0.88855800  0.52148700  1
  O  O28  1  0.88234300  0.39025700  0.01855600  1
  O  O29  1  0.88988200  0.38939600  0.52244000  1
  O  O30  1  0.89124300  0.89384200  0.02867700  1
  O  O31  1  0.88556000  0.88581400  0.52239800  1
  O  O32  1  0.09921300  0.12008300  0.13982500  1
  O  O33  1  0.09901600  0.11692300  0.63964100  1
  O  O34  1  0.10114200  0.62032400  0.13890000  1
  O  O35  1  0.09593900  0.61697100  0.64019100  1
  O  O36  1  0.60636900  0.11555500  0.13955300  1
  O  O37  1  0.59623900  0.11746300  0.63968200  1
  O  O38  1  0.60254500  0.61909500  0.13971300  1
  O  O39  1  0.59786500  0.61534800  0.63987200  1
  O  O40  1  0.45864900  0.38770000  0.36056500  1
  O  O41  1  0.46590200  0.38357500  0.86043100  1
  O  O42  1  0.45271000  0.88257300  0.35908300  1
  O  O43  1  0.45907800  0.88125700  0.86114600  1
  O  O44  1  0.95543600  0.38229800  0.36014100  1
  O  O45  1  0.95991400  0.38339100  0.86172600  1
  O  O46  1  0.95980800  0.88076400  0.35831000  1
  O  O47  1  0.95674000  0.88315400  0.86172200  1
  O  O48  1  0.35258200  0.26972500  0.14086900  1
  O  O49  1  0.35087000  0.27215200  0.63949100  1
  O  O50  1  0.34891600  0.76990500  0.13948000  1
  O  O51  1  0.34626500  0.77212200  0.63981400  1
  O  O52  1  0.84500700  0.27003400  0.13846000  1
  O  O53  1  0.84738300  0.27283500  0.64110400  1
  O  O54  1  0.85783000  0.77134700  0.13976900  1
  O  O55  1  0.84568700  0.77219500  0.63916900  1
  O  O56  1  0.20874800  0.22646000  0.35869200  1
  O  O57  1  0.21260700  0.22961900  0.86095000  1
  O  O58  1  0.20733400  0.72734700  0.35944100  1
  O  O59  1  0.20612200  0.72737400  0.86205800  1
  O  O60  1  0.70782000  0.22807200  0.35945700  1
  O  O61  1  0.70536500  0.22936600  0.86111300  1
  O  O62  1  0.70418300  0.72664600  0.35989600  1
  O  O63  1  0.70827200  0.72845800  0.86110400  1
  O  O64  1  0.41961000  0.07155900  0.25015200  1
  O  O65  1  0.41953900  0.07150900  0.75016800  1
  O  O66  1  0.41097900  0.57285600  0.24396100  1
  O  O67  1  0.41812900  0.57207600  0.75027000  1
  O  O68  1  0.91264800  0.07243200  0.24495300  1
  O  O69  1  0.91819400  0.07245100  0.75087000  1
  O  O70  1  0.91882600  0.57083600  0.24898000  1
  O  O71  1  0.91832100  0.57092800  0.75035400  1
  O  O72  1  0.16730000  0.42842200  0.24979600  1
  O  O73  1  0.17048500  0.42787300  0.75093900  1
  O  O74  1  0.16234300  0.92393700  0.24404600  1
  O  O75  1  0.16932700  0.92874000  0.75102200  1
  O  O76  1  0.66846400  0.42932900  0.24942100  1
  O  O77  1  0.66810600  0.42761600  0.75574100  1
  O  O78  1  0.66866400  0.92720600  0.25045400  1
  O  O79  1  0.66763500  0.92732900  0.74953900  1
loop_
_geom_bond_atom_site_label_1
_geom_bond_atom_site_label_2
_geom_bond_distance
_geom_bond_site_symmetry_2
La0 O48 2.328625 1_555
La0 O64 2.407481 1_555
La0 O32 2.493206 1_555
La0 O10 2.544975 1_545
La0 O26 2.575104 1_545
La0 O1 2.870087 1_554
La0 O17 2.912004 1_554
La1 O49 2.367700 1_555
La1 O65 2.408837 1_555
La1 O27 2.513181 1_545
La1 O11 2.555303 1_545
La1 O33 2.570504 1_555
La1 O16 2.847540 1_555
La1 O0 2.915028 1_555
La1 O37 3.144513 1_555
La2 O51 2.347044 1_555
La2 O67 2.405609 1_555
La2 O35 2.518163 1_555
La2 O9 2.540523 1_555
La2 O25 2.548414 1_555
La2 O2 2.848326 1_555
La2 O18 2.910258 1_555
La2 O39 3.234341 1_555
La3 O53 2.364438 1_555
La3 O69 2.409971 1_555
La3 O37 2.516037 1_555
La3 O15 2.519035 1_545
La3 O31 2.579727 1_545
La3 O4 2.876860 1_555
La3 O20 2.885637 1_555
La3 O33 3.250454 1_655
La4 O54 2.331641 1_555
La4 O70 2.412871 1_555
La4 O38 2.473583 1_555
La4 O28 2.559465 1_555
La4 O12 2.593089 1_555
La4 O7 2.848966 1_554
La4 O23 2.875951 1_554
La4 O34 3.252915 1_655
La5 O55 2.353443 1_555
La5 O71 2.416007 1_555
La5 O13 2.530642 1_555
La5 O39 2.541910 1_555
La5 O29 2.548030 1_555
La5 O22 2.857713 1_555
La5 O6 2.868414 1_555
La5 O35 3.172308 1_655
La6 O56 2.375668 1_555
La6 O72 2.406456 1_555
La6 O2 2.536029 1_555
La6 O18 2.537903 1_555
La6 O44 2.553385 1_455
La6 O25 2.860370 1_555
La6 O9 2.869259 1_555
La6 O40 3.212100 1_555
La7 O57 2.340859 1_555
La7 O73 2.424862 1_555
La7 O45 2.492616 1_455
La7 O19 2.555426 1_555
La7 O3 2.567468 1_555
La7 O8 2.867926 1_556
La7 O24 2.887291 1_556
La8 O58 2.343801 1_555
La8 O74 2.437594 1_555
La8 O46 2.513618 1_455
La8 O16 2.541825 1_565
La8 O0 2.559811 1_565
La8 O27 2.889119 1_555
La8 O11 2.910439 1_555
La8 O42 3.136869 1_555
La9 O59 2.362947 1_555
La9 O75 2.396198 1_555
La9 O17 2.538284 1_565
La9 O1 2.556841 1_565
La9 O47 2.565530 1_455
La9 O26 2.850192 1_556
La9 O10 2.932060 1_556
La9 O43 3.202577 1_555
La10 O60 2.350331 1_555
La10 O76 2.396676 1_555
La10 O22 2.510274 1_555
La10 O40 2.557391 1_555
La10 O6 2.574101 1_555
La10 O29 2.876619 1_555
La10 O13 2.898242 1_555
La10 O44 3.136975 1_555
La11 O62 2.359274 1_555
La11 O78 2.408784 1_555
La11 O42 2.520934 1_555
La11 O20 2.538164 1_565
La11 O4 2.559488 1_565
La11 O15 2.812695 1_555
La11 O31 2.910106 1_555
La11 O46 3.303586 1_555
La12 O63 2.327081 1_555
La12 O79 2.411822 1_555
La12 O43 2.529939 1_555
La12 O5 2.549380 1_565
La12 O21 2.552265 1_565
La12 O14 2.875463 1_556
La12 O30 2.929304 1_556
La12 O47 3.170867 1_555
La13 O32 2.325838 1_555
La13 O72 2.405321 1_555
La13 O52 2.497467 1_455
La13 O8 2.560993 1_555
La13 O28 2.594067 1_455
La13 O21 2.828245 1_454
La13 O1 2.889929 1_554
La14 O33 2.346427 1_555
La14 O73 2.404105 1_555
La14 O53 2.541122 1_455
La14 O29 2.541217 1_455
La14 O9 2.555926 1_555
La14 O0 2.905941 1_555
La14 O20 2.917836 1_455
La15 O35 2.353416 1_555
La15 O75 2.418418 1_555
La15 O31 2.529698 1_455
La15 O11 2.538366 1_555
La15 O55 2.552126 1_455
La15 O2 2.864290 1_555
La15 O22 2.871281 1_455
La15 O51 3.184015 1_555
La16 O36 2.361649 1_555
La16 O76 2.403573 1_555
La16 O48 2.520430 1_555
La16 O12 2.562002 1_555
La16 O24 2.575449 1_555
La16 O5 2.844997 1_554
La16 O17 2.857502 1_554
La16 O52 3.150234 1_555
La17 O37 2.347455 1_555
La17 O77 2.435043 1_555
La17 O49 2.502925 1_555
La17 O13 2.555472 1_555
La17 O25 2.587532 1_555
La17 O4 2.851898 1_555
La17 O16 2.914607 1_555
La17 O53 3.181806 1_555
La18 O38 2.344160 1_555
La18 O78 2.403614 1_555
La18 O50 2.463694 1_555
La18 O26 2.531226 1_555
La18 O14 2.585021 1_555
La18 O19 2.834472 1_554
La18 O7 2.964161 1_554
La19 O39 2.353906 1_555
La19 O79 2.428654 1_555
La19 O51 2.539704 1_555
La19 O27 2.544510 1_555
La19 O15 2.576260 1_555
La19 O18 2.835018 1_555
La19 O6 2.836211 1_555
La19 O55 3.192793 1_555
La20 O40 2.357459 1_555
La20 O64 2.412267 1_555
La20 O56 2.526216 1_555
La20 O4 2.538824 1_555
La20 O16 2.593183 1_555
La20 O13 2.856070 1_555
La20 O25 2.872650 1_555
La20 O60 3.186429 1_555
La21 O41 2.355606 1_555
La21 O65 2.400521 1_555
La21 O57 2.535795 1_555
La21 O17 2.562129 1_555
La21 O5 2.566477 1_555
La21 O12 2.792929 1_556
La21 O24 2.985721 1_556
La21 O61 3.118818 1_555
La22 O42 2.346825 1_555
La22 O66 2.439749 1_555
La22 O58 2.490974 1_555
La22 O18 2.534284 1_555
La22 O6 2.583658 1_555
La22 O27 2.858076 1_555
La22 O15 2.916795 1_555
La22 O62 3.196031 1_555
La23 O43 2.345173 1_555
La23 O67 2.395851 1_555
La23 O7 2.521919 1_555
La23 O19 2.567999 1_555
La23 O59 2.572418 1_555
La23 O26 2.865730 1_556
La23 O14 2.910718 1_556
La23 O63 3.190753 1_555
La24 O44 2.350756 1_555
La24 O68 2.432930 1_555
La24 O60 2.515606 1_555
La24 O0 2.533923 1_655
La24 O20 2.572394 1_555
La24 O29 2.869784 1_555
La24 O9 2.896137 1_655
La24 O56 3.235778 1_655
La25 O45 2.348030 1_555
La25 O69 2.409417 1_555
La25 O61 2.495830 1_555
La25 O21 2.562476 1_555
La25 O1 2.572474 1_655
La25 O28 2.811687 1_556
La25 O8 2.944682 1_656
La26 O46 2.356232 1_555
La26 O70 2.416977 1_555
La26 O22 2.548341 1_555
La26 O2 2.554277 1_655
La26 O62 2.557380 1_555
La26 O31 2.854125 1_555
La26 O11 2.886730 1_655
La26 O58 3.215281 1_655
La27 O47 2.351269 1_555
La27 O71 2.405878 1_555
La27 O23 2.525190 1_555
La27 O63 2.546403 1_555
La27 O3 2.554901 1_655
La27 O10 2.871513 1_656
La27 O30 2.943297 1_556
La27 O59 3.159422 1_655
Mn0 O20 2.070266 1_465
Mn0 O31 2.096351 1_455
Mn0 O0 2.099064 1_565
Mn0 O11 2.103011 1_555
Mn0 O33 2.311232 1_565
Mn0 O46 2.333280 1_455
Mn1 O8 2.093232 1_555
Mn1 O1 2.096494 1_554
Mn1 O24 2.109828 1_555
Mn1 O17 2.115948 1_554
Mn1 O48 2.320326 1_555
Mn1 O57 2.321108 1_554
Mn2 O0 2.074427 1_555
Mn2 O9 2.080122 1_555
Mn2 O16 2.095588 1_555
Mn2 O25 2.117534 1_555
Mn2 O49 2.310188 1_555
Mn2 O56 2.320425 1_555
Mn3 O13 2.067459 1_555
Mn3 O4 2.076063 1_555
Mn3 O20 2.089422 1_555
Mn3 O29 2.094283 1_555
Mn3 O53 2.320622 1_555
Mn3 O60 2.323333 1_555
Mn4 O32 2.023210 1_555
Mn4 O56 2.042100 1_555
Mn4 O74 2.123302 1_545
Mn4 O68 2.154858 1_455
Mn5 O57 2.035718 1_555
Mn5 O33 2.036132 1_555
Mn5 O75 2.123584 1_545
Mn5 O69 2.163188 1_455
Mn6 O34 2.025959 1_555
Mn6 O58 2.031819 1_555
Mn6 O72 2.124322 1_555
Mn6 O70 2.150945 1_455
Mn7 O35 2.026603 1_555
Mn7 O59 2.027333 1_555
Mn7 O73 2.120825 1_555
Mn7 O71 2.154054 1_455
Mn8 O36 2.022801 1_555
Mn8 O60 2.032298 1_555
Mn8 O78 2.117542 1_545
Mn8 O64 2.160909 1_555
Mn9 O37 2.029682 1_555
Mn9 O61 2.030375 1_555
Mn9 O79 2.112626 1_545
Mn9 O65 2.144781 1_555
Mn10 O38 2.027363 1_555
Mn10 O62 2.033802 1_555
Mn10 O76 2.125150 1_555
Mn10 O66 2.159260 1_555
Mn11 O63 2.029406 1_555
Mn11 O39 2.032267 1_555
Mn11 O77 2.127967 1_555
Mn11 O67 2.157690 1_555
Mn12 O48 2.029151 1_555
Mn12 O40 2.040356 1_555
Mn12 O66 2.123459 1_555
Mn12 O72 2.154820 1_555
Mn13 O41 2.024976 1_555
Mn13 O49 2.036109 1_555
Mn13 O67 2.118962 1_555
Mn13 O73 2.155460 1_555
Mn14 O50 2.025224 1_555
Mn14 O42 2.030688 1_555
Mn14 O64 2.121546 1_565
Mn14 O74 2.153496 1_555
Mn15 O51 2.028254 1_555
Mn15 O43 2.028554 1_555
Mn15 O65 2.119720 1_565
Mn15 O75 2.156754 1_555
Mn16 O52 2.028470 1_555
Mn16 O44 2.029487 1_555
Mn16 O70 2.114439 1_555
Mn16 O76 2.155143 1_555
Mn17 O45 2.024038 1_555
Mn17 O53 2.037250 1_555
Mn17 O71 2.116270 1_555
Mn17 O77 2.154175 1_555
Mn18 O54 2.033411 1_555
Mn18 O46 2.040197 1_555
Mn18 O68 2.128664 1_565
Mn18 O78 2.156664 1_555
Mn19 O55 2.026789 1_555
Mn19 O47 2.031522 1_555
Mn19 O69 2.129730 1_565
Mn19 O79 2.152084 1_555
Fe0 O30 2.060429 1_455
Fe0 O1 2.064533 1_564
Fe0 O21 2.074601 1_464
Fe0 O10 2.089733 1_555
Fe0 O47 2.294414 1_454
Fe0 O32 2.299669 1_565
Fe1 O3 2.047339 1_554
Fe1 O28 2.059263 1_455
Fe1 O8 2.067013 1_555
Fe1 O23 2.072289 1_454
Fe1 O34 2.279813 1_555
Fe1 O45 2.312969 1_454
Fe2 O29 2.050880 1_455
Fe2 O9 2.055536 1_555
Fe2 O2 2.056534 1_555
Fe2 O22 2.058611 1_455
Fe2 O44 2.301402 1_455
Fe2 O35 2.306790 1_555
Fe3 O26 2.052916 1_555
Fe3 O5 2.060481 1_564
Fe3 O17 2.071089 1_564
Fe3 O14 2.077540 1_555
Fe3 O36 2.296609 1_565
Fe3 O43 2.302457 1_554
Fe4 O16 2.035449 1_565
Fe4 O15 2.045775 1_555
Fe4 O4 2.061219 1_565
Fe4 O27 2.061376 1_555
Fe4 O42 2.302931 1_555
Fe4 O37 2.314784 1_565
Fe5 O24 2.055936 1_555
Fe5 O12 2.059256 1_555
Fe5 O19 2.063800 1_554
Fe5 O7 2.076783 1_554
Fe5 O38 2.302141 1_555
Fe5 O41 2.322947 1_554
Fe6 O25 2.035235 1_555
Fe6 O6 2.060608 1_555
Fe6 O13 2.079280 1_555
Fe6 O18 2.086375 1_555
Fe6 O39 2.290293 1_555
Fe6 O40 2.295226 1_555
Fe7 O10 2.053068 1_555
Fe7 O19 2.067511 1_554
Fe7 O3 2.071252 1_554
Fe7 O26 2.083508 1_555
Fe7 O59 2.288045 1_554
Fe7 O50 2.289302 1_555
Fe8 O11 2.036157 1_555
Fe8 O18 2.037979 1_555
Fe8 O27 2.071155 1_555
Fe8 O2 2.077251 1_555
Fe8 O51 2.300618 1_555
Fe8 O58 2.318385 1_555
Fe9 O21 2.060027 1_554
Fe9 O5 2.063751 1_554
Fe9 O12 2.064141 1_555
Fe9 O28 2.066677 1_555
Fe9 O52 2.275611 1_555
Fe9 O61 2.301059 1_554
Fe10 O14 2.047712 1_555
Fe10 O23 2.056988 1_554
Fe10 O7 2.090576 1_554
Fe10 O30 2.095790 1_555
Fe10 O54 2.303007 1_555
Fe10 O63 2.307542 1_554
Fe11 O31 2.041410 1_555
Fe11 O6 2.047617 1_555
Fe11 O15 2.087764 1_555
Fe11 O22 2.091756 1_555
Fe11 O62 2.293915 1_555
Fe11 O55 2.303502 1_555
O3 Sm0 2.754171 1_556
O3 Sm3 2.806323 1_556
O5 Sm1 2.779765 1_556
O7 Sm2 2.463232 1_555
O8 Sm0 2.476415 1_555
O10 Sm3 2.488553 1_555
O12 Sm2 2.783801 1_554
O14 Sm1 2.485404 1_565
O19 Sm0 2.835815 1_556
O21 Sm1 2.806750 1_556
O23 Sm2 2.524659 1_555
O23 Sm3 2.870776 1_656
O24 Sm0 2.487955 1_555
O28 Sm2 2.779571 1_554
O30 Sm3 2.478379 1_655
O30 Sm1 2.486103 1_565
O34 Sm3 2.316800 1_555
O34 Sm0 2.436929 1_555
O36 Sm1 2.422301 1_555
O41 Sm2 2.414490 1_555
O50 Sm0 2.314503 1_555
O52 Sm1 2.329136 1_555
O54 Sm3 2.408231 1_655
O61 Sm2 2.331855 1_555
O66 Sm0 2.338190 1_555
O68 Sm1 2.345190 1_555
O74 Sm3 2.329044 1_555
O77 Sm2 2.345821 1_555
