# generated using pymatgen
data_CaTi3V5O16
_symmetry_space_group_name_H-M   'P 1'
_cell_length_a   6.01385258
_cell_length_b   6.12012560
_cell_length_c   10.57226246
_cell_angle_alpha   89.26185716
_cell_angle_beta   91.18468122
_cell_angle_gamma   121.54723332
_symmetry_Int_Tables_number   1
_chemical_formula_structural   CaTi3V5O16
_chemical_formula_sum   'Ca1 Ti3 V5 O16'
_cell_volume   331.53785134
_cell_formula_units_Z   1
loop_
 _symmetry_equiv_pos_site_id
 _symmetry_equiv_pos_as_xyz
  1  'x, y, z'
loop_
 _atom_site_type_symbol
 _atom_site_label
 _atom_site_symmetry_multiplicity
 _atom_site_fract_x
 _atom_site_fract_y
 _atom_site_fract_z
 _atom_site_occupancy
  Ca  Ca0  1  0.31575200  0.65694600  0.44429600  1
  Ti  Ti0  1  0.05640200  0.75113800  0.15589500  1
  Ti  Ti1  1  0.33715700  0.36371800  0.16803600  1
  Ti  Ti2  1  0.33415100  0.16730900  0.69224400  1
  V  V0  1  0.32774500  0.66368600  0.74977800  1
  V  V1  1  0.65944800  0.99525300  0.17290800  1
  V  V2  1  0.65945900  0.30084200  0.95961100  1
  V  V3  1  0.82289600  0.15948800  0.70704700  1
  V  V4  1  0.83132200  0.67626500  0.72394900  1
  O  O0  1  0.16700600  0.82687200  0.62602300  1
  O  O1  1  0.01124900  0.60192600  0.29846500  1
  O  O2  1  0.35230100  0.67596600  0.11592300  1
  O  O3  1  0.00276600  0.02740200  0.19753500  1
  O  O4  1  0.99569400  0.98340600  0.80292200  1
  O  O5  1  0.17570200  0.34889800  0.62738600  1
  O  O6  1  0.59230400  0.01360800  0.32355700  1
  O  O7  1  0.43031200  0.43077200  0.32106400  1
  O  O8  1  0.40065200  0.09939100  0.08690500  1
  O  O9  1  0.63190100  0.80854100  0.63209200  1
  O  O10  1  0.50905500  0.46166700  0.82504000  1
  O  O11  1  0.50348100  0.02234400  0.82047700  1
  O  O12  1  0.65863600  0.34452400  0.61770300  1
  O  O13  1  0.72225600  0.57173500  0.07188200  1
  O  O14  1  0.96739800  0.48785600  0.81949600  1
  O  O15  1  0.87870600  0.23772800  0.03405900  1
loop_
_geom_bond_atom_site_label_1
_geom_bond_atom_site_label_2
_geom_bond_distance
_geom_bond_site_symmetry_2
Ca0 O1 2.257263 1_555
Ca0 O7 2.273669 1_555
Ca0 O6 2.318911 1_565
Ca0 O5 2.514433 1_555
Ca0 O9 2.542262 1_555
Ca0 O0 2.582440 1_555
O0 Ti2 1.912739 1_565
O0 V4 2.027694 1_455
O0 V0 2.137279 1_555
O1 Ti0 1.703396 1_555
O2 Ti1 1.938190 1_555
O2 V1 1.949531 1_555
O2 Ti0 2.109410 1_555
O3 Ti0 1.937080 1_545
O3 V1 1.980744 1_445
O3 Ti1 2.013955 1_555
O4 V4 1.808209 1_555
O4 V3 2.090159 1_565
O4 Ti2 2.108619 1_665
O5 Ti2 1.916963 1_555
O5 V3 2.007450 1_455
O5 V0 2.096178 1_555
O6 V1 1.670638 1_545
O7 Ti1 1.684862 1_555
O8 V2 1.946677 1_554
O8 Ti1 2.047976 1_555
O8 V1 2.149348 1_545
O8 Ti0 2.183079 1_545
O9 V4 1.996065 1_555
O9 V3 1.996296 1_565
O9 V0 2.012118 1_555
O10 V4 2.002314 1_555
O10 Ti2 2.084266 1_555
O10 V2 2.157162 1_555
O10 V0 2.167976 1_555
O11 V0 2.018891 1_545
O11 V3 2.052978 1_555
O11 V2 2.069610 1_555
O11 Ti2 2.125884 1_555
O12 Ti2 1.852633 1_555
O12 V3 2.062738 1_555
O12 V4 2.065556 1_555
O13 Ti0 1.917062 1_655
O13 V2 1.917583 1_554
O13 Ti1 2.235284 1_555
O14 V4 1.985674 1_555
O14 V0 2.000724 1_655
O14 V3 2.097288 1_555
O14 V2 2.187619 1_555
O15 V2 1.728982 1_554
O15 V1 2.017942 1_545
