# generated using pymatgen
data_Li2CrFe(PO4)2
_symmetry_space_group_name_H-M   'P 1'
_cell_length_a   4.77438737
_cell_length_b   10.77876385
_cell_length_c   5.98070233
_cell_angle_alpha   90.54030400
_cell_angle_beta   89.68199140
_cell_angle_gamma   91.50414206
_symmetry_Int_Tables_number   1
_chemical_formula_structural   Li2CrFe(PO4)2
_chemical_formula_sum   'Li4 Cr2 Fe2 P4 O16'
_cell_volume   307.65480688
_cell_formula_units_Z   2
loop_
 _symmetry_equiv_pos_site_id
 _symmetry_equiv_pos_as_xyz
  1  'x, y, z'
loop_
 _atom_site_type_symbol
 _atom_site_label
 _atom_site_symmetry_multiplicity
 _atom_site_fract_x
 _atom_site_fract_y
 _atom_site_fract_z
 _atom_site_occupancy
  Li  Li0  1  0.99976500  0.00017800  0.00024200  1
  Li  Li1  1  0.99976100  0.00013300  0.50016600  1
  Li  Li2  1  0.50012300  0.49994600  0.99977700  1
  Li  Li3  1  0.50032100  0.49994000  0.49975900  1
  Cr  Cr0  1  0.49058300  0.77505500  0.25207900  1
  Cr  Cr1  1  0.50921300  0.22496200  0.74804400  1
  Fe  Fe0  1  0.98473400  0.27998800  0.24727300  1
  Fe  Fe1  1  0.01405700  0.72027200  0.75243500  1
  P  P0  1  0.41307500  0.09876100  0.25248800  1
  P  P1  1  0.58638200  0.90135600  0.74777400  1
  P  P2  1  0.92125500  0.41199600  0.74790900  1
  P  P3  1  0.07940300  0.58778300  0.25171100  1
  O  O0  1  0.71574600  0.03444200  0.75426700  1
  O  O1  1  0.28383400  0.96566100  0.24624200  1
  O  O2  1  0.73561400  0.10323800  0.25067900  1
  O  O3  1  0.26392300  0.89684700  0.74974600  1
  O  O4  1  0.23973800  0.41567800  0.74924500  1
  O  O5  1  0.76075900  0.58415300  0.25047400  1
  O  O6  1  0.21104200  0.45762000  0.24913400  1
  O  O7  1  0.79066700  0.54217700  0.75075900  1
  O  O8  1  0.28215400  0.17019300  0.04939200  1
  O  O9  1  0.28456500  0.16474800  0.46506600  1
  O  O10  1  0.71500400  0.83537200  0.53526200  1
  O  O11  1  0.71769000  0.82970600  0.95063000  1
  O  O12  1  0.78932200  0.33885500  0.54131400  1
  O  O13  1  0.78456000  0.33691000  0.94953700  1
  O  O14  1  0.21584000  0.66294300  0.05012300  1
  O  O15  1  0.21086900  0.66108900  0.45847300  1
loop_
_geom_bond_atom_site_label_1
_geom_bond_atom_site_label_2
_geom_bond_distance
_geom_bond_site_symmetry_2
Li0 O0 2.048904 1_554
Li0 O1 2.049731 1_645
Li0 O2 2.255904 1_555
Li0 O3 2.257619 1_644
Li0 O8 2.264270 1_655
Li0 O11 2.267664 1_544
Li1 O1 2.068036 1_645
Li1 O0 2.068293 1_555
Li1 O9 2.217775 1_655
Li1 O10 2.218875 1_545
Li1 O2 2.275453 1_555
Li1 O3 2.276857 1_645
Li2 O6 2.072207 1_556
Li2 O7 2.075131 1_555
Li2 O4 2.133381 1_555
Li2 O5 2.134498 1_556
Li2 O14 2.265008 1_556
Li2 O13 2.265717 1_555
Li3 O6 2.083111 1_555
Li3 O7 2.087925 1_555
Li3 O5 2.130384 1_555
Li3 O4 2.131840 1_555
Li3 O12 2.262315 1_555
Li3 O15 2.264021 1_555
Cr0 O10 2.098080 1_555
Cr0 O14 2.132288 1_555
Cr0 O11 2.176664 1_554
Cr0 O15 2.177230 1_555
Cr0 O1 2.303203 1_555
Cr0 O5 2.457013 1_555
Cr1 O9 2.097320 1_555
Cr1 O13 2.131505 1_555
Cr1 O8 2.176390 1_556
Cr1 O12 2.179062 1_555
Cr1 O0 2.301961 1_555
Cr1 O4 2.453494 1_555
Fe0 O12 2.087448 1_555
Fe0 O13 2.128588 1_554
Fe0 O6 2.173612 1_655
Fe0 O8 2.204702 1_655
Fe0 O2 2.219496 1_555
Fe0 O9 2.330956 1_655
Fe1 O15 2.091121 1_555
Fe1 O14 2.133254 1_556
Fe1 O7 2.171390 1_455
Fe1 O11 2.200270 1_455
Fe1 O3 2.219678 1_555
Fe1 O10 2.325672 1_455
O0 P1 1.547087 1_545
O1 P0 1.546979 1_565
O2 P0 1.539397 1_555
O3 P1 1.539019 1_555
O4 P2 1.520101 1_455
O5 P3 1.520863 1_655
O6 P3 1.552230 1_555
O7 P2 1.550264 1_555
O8 P0 1.584378 1_555
O9 P0 1.579844 1_555
O10 P1 1.579726 1_555
O11 P1 1.585215 1_555
O12 P2 1.584034 1_555
O13 P2 1.586516 1_555
O14 P3 1.586254 1_555
O15 P3 1.584800 1_555
