# generated using pymatgen
data_Li9Mn2Co5O16
_symmetry_space_group_name_H-M   'P 1'
_cell_length_a   3.00009700
_cell_length_b   5.00125387
_cell_length_c   19.34272883
_cell_angle_alpha   94.50027818
_cell_angle_beta   92.66504018
_cell_angle_gamma   92.17796290
_symmetry_Int_Tables_number   1
_chemical_formula_structural   Li9Mn2Co5O16
_chemical_formula_sum   'Li9 Mn2 Co5 O16'
_cell_volume   288.76246332
_cell_formula_units_Z   1
loop_
 _symmetry_equiv_pos_site_id
 _symmetry_equiv_pos_as_xyz
  1  'x, y, z'
loop_
 _atom_site_type_symbol
 _atom_site_label
 _atom_site_symmetry_multiplicity
 _atom_site_fract_x
 _atom_site_fract_y
 _atom_site_fract_z
 _atom_site_occupancy
  Li  Li0  1  0.06237700  0.68796500  0.12459500  1
  Li  Li1  1  0.68825800  0.57751500  0.38401600  1
  Li  Li2  1  0.30143400  0.43556900  0.61980400  1
  Li  Li3  1  0.93544300  0.31462100  0.87357400  1
  Li  Li4  1  0.56300100  0.18677700  0.12488900  1
  Li  Li5  1  0.20088600  0.06230000  0.38181300  1
  Li  Li6  1  0.81401800  0.92839300  0.62012100  1
  Li  Li7  1  0.43798000  0.80965400  0.87206900  1
  Li  Li8  1  0.24993900  0.75043200  0.50065200  1
  Mn  Mn0  1  0.99894400  0.00017600  0.99935500  1
  Mn  Mn1  1  0.12748700  0.37554200  0.25124100  1
  Co  Co0  1  0.62817700  0.87567600  0.25117900  1
  Co  Co1  1  0.87281500  0.62401500  0.74828100  1
  Co  Co2  1  0.49865700  0.49993200  0.99954100  1
  Co  Co3  1  0.74951300  0.24981000  0.50033300  1
  Co  Co4  1  0.37145500  0.12493200  0.74897500  1
  O  O0  1  0.56002000  0.83106500  0.05756500  1
  O  O1  1  0.18563400  0.71625300  0.30800400  1
  O  O2  1  0.78361700  0.55065400  0.55589100  1
  O  O3  1  0.39815200  0.46122300  0.80743100  1
  O  O4  1  0.06231900  0.33867400  0.05727600  1
  O  O5  1  0.67688200  0.21045300  0.30625900  1
  O  O6  1  0.25858400  0.10945100  0.55433000  1
  O  O7  1  0.90172100  0.95826200  0.80762500  1
  O  O8  1  0.57282800  0.54225600  0.19359500  1
  O  O9  1  0.23876800  0.39141400  0.44555500  1
  O  O10  1  0.85143100  0.28652500  0.69249300  1
  O  O11  1  0.44016200  0.16878200  0.94236500  1
  O  O12  1  0.06497400  0.03622400  0.19326100  1
  O  O13  1  0.71569300  0.94761700  0.44439900  1
  O  O14  1  0.35000400  0.78820200  0.69046900  1
  O  O15  1  0.93882700  0.65963400  0.94304300  1
loop_
_geom_bond_atom_site_label_1
_geom_bond_atom_site_label_2
_geom_bond_distance
_geom_bond_site_symmetry_2
Li0 O4 2.095276 1_555
Li0 O12 2.105410 1_565
Li0 O0 2.123797 1_455
Li0 O0 2.160235 1_555
Li0 O8 2.169079 1_555
Li0 O8 2.173237 1_455
Li1 O9 2.080718 1_555
Li1 O13 2.106480 1_555
Li1 O1 2.224958 1_555
Li1 O9 2.262470 1_655
Li1 O1 2.270502 1_655
Li1 O5 2.278269 1_555
Li2 O6 1.981249 1_555
Li2 O2 2.041304 1_555
Li2 O2 2.067363 1_455
Li2 O14 2.140908 1_555
Li2 O10 2.149330 1_455
Li2 O10 2.301594 1_555
Li3 O3 2.082409 1_655
Li3 O15 2.101566 1_555
Li3 O7 2.105085 1_545
Li3 O11 2.155041 1_655
Li3 O11 2.182696 1_555
Li3 O3 2.194985 1_555
Li4 O0 2.120118 1_545
Li4 O8 2.132915 1_555
Li4 O4 2.145634 1_555
Li4 O12 2.154328 1_655
Li4 O4 2.187033 1_655
Li4 O12 2.191548 1_555
Li5 O9 1.973983 1_555
Li5 O13 2.030444 1_445
Li5 O13 2.045066 1_545
Li5 O1 2.153070 1_545
Li5 O5 2.237771 1_555
Li5 O5 2.280560 1_455
Li6 O6 2.113092 1_665
Li6 O14 2.129023 1_555
Li6 O2 2.174589 1_555
Li6 O10 2.181043 1_565
Li6 O14 2.227280 1_655
Li6 O6 2.305315 1_565
Li7 O3 2.059726 1_555
Li7 O7 2.066373 1_555
Li7 O11 2.165605 1_565
Li7 O7 2.178144 1_455
Li7 O15 2.181942 1_555
Li7 O15 2.226554 1_455
Li8 O6 2.001019 1_565
Li8 O9 2.013126 1_555
Li8 O2 2.073027 1_455
Li8 O13 2.077011 1_555
Li8 O2 2.198505 1_555
Li8 O13 2.202669 1_455
Mn0 O15 1.945993 1_545
Mn0 O4 1.953300 1_656
Mn0 O11 1.968531 1_655
Mn0 O0 1.979831 1_546
Mn0 O11 2.194994 1_555
Mn0 O0 2.213120 1_646
Mn1 O1 1.950765 1_555
Mn1 O5 1.956675 1_455
Mn1 O12 1.957132 1_555
Mn1 O8 1.980736 1_555
Mn1 O5 2.146885 1_555
Mn1 O8 2.187758 1_455
Co0 O5 1.909639 1_565
Co0 O8 1.928496 1_555
Co0 O1 1.949187 1_555
Co0 O12 1.953129 1_665
Co0 O1 2.169973 1_655
Co0 O12 2.196129 1_565
Co1 O10 1.927947 1_555
Co1 O7 1.948889 1_555
Co1 O14 2.043985 1_655
Co1 O3 2.051664 1_555
Co1 O14 2.112762 1_555
Co1 O3 2.128819 1_655
Co2 O11 1.915519 1_555
Co2 O0 1.924079 1_556
Co2 O15 1.940895 1_555
Co2 O4 1.951470 1_556
Co2 O15 2.172861 1_455
Co2 O4 2.196944 1_656
Co3 O2 1.775803 1_555
Co3 O13 1.785087 1_545
Co3 O6 1.983029 1_555
Co3 O9 1.990489 1_655
Co3 O6 1.991073 1_655
Co3 O9 2.005331 1_555
Co4 O3 1.948464 1_555
Co4 O14 1.951108 1_545
Co4 O10 2.028954 1_555
Co4 O7 2.043419 1_445
Co4 O10 2.087246 1_455
Co4 O7 2.143352 1_545
