# generated using pymatgen
data_Ca2TiSbO6
_symmetry_space_group_name_H-M   'P 1'
_cell_length_a   7.95551600
_cell_length_b   5.51761100
_cell_length_c   5.70249878
_cell_angle_alpha   89.91845457
_cell_angle_beta   90.00000000
_cell_angle_gamma   90.00000000
_symmetry_Int_Tables_number   1
_chemical_formula_structural   Ca2TiSbO6
_chemical_formula_sum   'Ca4 Ti2 Sb2 O12'
_cell_volume   250.31345411
_cell_formula_units_Z   2
loop_
 _symmetry_equiv_pos_site_id
 _symmetry_equiv_pos_as_xyz
  1  'x, y, z'
loop_
 _atom_site_type_symbol
 _atom_site_label
 _atom_site_symmetry_multiplicity
 _atom_site_fract_x
 _atom_site_fract_y
 _atom_site_fract_z
 _atom_site_occupancy
  Ca  Ca0  1  0.75000000  0.48459700  0.56135200  1
  Ca  Ca1  1  0.25000000  0.51540300  0.43864800  1
  Ca  Ca2  1  0.75000000  0.00869900  0.04555900  1
  Ca  Ca3  1  0.25000000  0.99130100  0.95444100  1
  Ti  Ti0  1  0.50000000  0.50000000  0.00000000  1
  Ti  Ti1  1  0.00000000  0.50000000  0.00000000  1
  Sb  Sb0  1  0.50000000  0.00000000  0.50000000  1
  Sb  Sb1  1  0.00000000  0.00000000  0.50000000  1
  O  O0  1  0.44955200  0.68785000  0.70851400  1
  O  O1  1  0.05064400  0.79324400  0.19189000  1
  O  O2  1  0.94955200  0.31215000  0.29148600  1
  O  O3  1  0.55064400  0.20675600  0.80811000  1
  O  O4  1  0.44935600  0.79324400  0.19189000  1
  O  O5  1  0.94935600  0.20675600  0.80811000  1
  O  O6  1  0.25000000  0.09525600  0.53164000  1
  O  O7  1  0.05044800  0.68785000  0.70851400  1
  O  O8  1  0.75000000  0.59098500  0.96798200  1
  O  O9  1  0.55044800  0.31215000  0.29148600  1
  O  O10  1  0.75000000  0.90474400  0.46836000  1
  O  O11  1  0.25000000  0.40901500  0.03201800  1
loop_
_geom_bond_atom_site_label_1
_geom_bond_atom_site_label_2
_geom_bond_distance
_geom_bond_site_symmetry_2
Ca0 O10 2.377350 1_555
Ca0 O8 2.392764 1_555
Ca0 O2 2.407911 1_555
Ca0 O9 2.407911 1_555
Ca0 O5 2.615219 1_555
Ca0 O3 2.615219 1_555
Ca0 O0 2.770878 1_555
Ca0 O7 2.770878 1_655
Ca1 O6 2.377350 1_555
Ca1 O11 2.392764 1_555
Ca1 O0 2.407911 1_555
Ca1 O7 2.407911 1_555
Ca1 O4 2.615219 1_555
Ca1 O1 2.615219 1_555
Ca1 O9 2.770878 1_555
Ca1 O2 2.770878 1_455
Ca2 O8 2.347473 1_544
Ca2 O5 2.353464 1_554
Ca2 O3 2.353464 1_554
Ca2 O10 2.477517 1_545
Ca2 O2 2.701305 1_555
Ca2 O9 2.701305 1_555
Ca2 O1 2.797736 1_645
Ca2 O4 2.797736 1_545
Ca3 O11 2.347473 1_566
Ca3 O4 2.353464 1_556
Ca3 O1 2.353464 1_556
Ca3 O6 2.477517 1_565
Ca3 O0 2.701305 1_555
Ca3 O7 2.701305 1_555
Ca3 O5 2.797736 1_465
Ca3 O3 2.797736 1_565
O0 Ti0 1.998342 1_556
O0 Sb0 2.129667 1_565
O1 Ti1 1.995670 1_555
O1 Sb1 2.134595 1_565
O2 Ti1 1.998342 1_655
O2 Sb1 2.129667 1_655
O3 Ti0 1.995670 1_556
O3 Sb0 2.134595 1_555
O4 Ti0 1.995670 1_555
O4 Sb0 2.134595 1_565
O5 Ti1 1.995670 1_656
O5 Sb1 2.134595 1_655
O6 Sb1 2.065116 1_555
O6 Sb0 2.065116 1_555
O7 Ti1 1.998342 1_556
O7 Sb1 2.129667 1_565
O8 Ti1 2.059305 1_656
O8 Ti0 2.059305 1_556
O9 Ti0 1.998342 1_555
O9 Sb0 2.129667 1_555
O10 Sb1 2.065116 1_665
O10 Sb0 2.065116 1_565
O11 Ti1 2.059305 1_555
O11 Ti0 2.059305 1_555
