# generated using pymatgen
data_Li2CuB4(PbO5)2
_symmetry_space_group_name_H-M   'P 1'
_cell_length_a   8.70763844
_cell_length_b   8.70763844
_cell_length_c   13.91363696
_cell_angle_alpha   56.22185194
_cell_angle_beta   56.22185194
_cell_angle_gamma   32.07452034
_symmetry_Int_Tables_number   1
_chemical_formula_structural   Li2CuB4(PbO5)2
_chemical_formula_sum   'Li4 Cu2 B8 Pb4 O20'
_cell_volume   456.95959602
_cell_formula_units_Z   2
loop_
 _symmetry_equiv_pos_site_id
 _symmetry_equiv_pos_as_xyz
  1  'x, y, z'
loop_
 _atom_site_type_symbol
 _atom_site_label
 _atom_site_symmetry_multiplicity
 _atom_site_fract_x
 _atom_site_fract_y
 _atom_site_fract_z
 _atom_site_occupancy
  Li  Li0  1  0.13229304  0.50008112  0.13272783  1
  Li  Li1  1  0.49991888  0.86770696  0.36727217  1
  Li  Li2  1  0.86770696  0.49991888  0.86727217  1
  Li  Li3  1  0.50008112  0.13229304  0.63272783  1
  Cu  Cu0  1  -0.00000000  0.50000000  0.00000000  1
  Cu  Cu1  1  0.50000000  -0.00000000  0.50000000  1
  B  B0  1  0.03412688  0.66259816  0.31803474  1
  B  B1  1  0.33740184  0.96587312  0.18196526  1
  B  B2  1  0.96587312  0.33740184  0.68196526  1
  B  B3  1  0.66259816  0.03412688  0.81803474  1
  B  B4  1  0.08341725  0.66585737  0.47941911  1
  B  B5  1  0.33414263  0.91658275  0.02058089  1
  B  B6  1  0.91658275  0.33414263  0.52058089  1
  B  B7  1  0.66585737  0.08341725  0.97941911  1
  Pb  Pb0  1  0.65071163  0.28516222  0.13956983  1
  Pb  Pb1  1  0.71483778  0.34928837  0.36043017  1
  Pb  Pb2  1  0.34928837  0.71483778  0.86043017  1
  Pb  Pb3  1  0.28516222  0.65071163  0.63956983  1
  O  O0  1  0.17871659  0.56759580  0.21574604  1
  O  O1  1  0.43240420  0.82128341  0.28425396  1
  O  O2  1  0.82128341  0.43240420  0.78425396  1
  O  O3  1  0.56759580  0.17871659  0.71574604  1
  O  O4  1  0.14737892  0.25863800  0.14485075  1
  O  O5  1  0.74136200  0.85262108  0.35514925  1
  O  O6  1  0.85262108  0.74136200  0.85514925  1
  O  O7  1  0.25863800  0.14737892  0.64485075  1
  O  O8  1  0.86939659  0.79655780  0.02935914  1
  O  O9  1  0.20344220  0.13060341  0.47064086  1
  O  O10  1  0.13060341  0.20344220  0.97064086  1
  O  O11  1  0.79655780  0.86939659  0.52935914  1
  O  O12  1  0.19504573  0.57203852  0.37871550  1
  O  O13  1  0.42796148  0.80495427  0.12128450  1
  O  O14  1  0.80495427  0.42796148  0.62128450  1
  O  O15  1  0.57203852  0.19504573  0.87871550  1
  O  O16  1  0.53644913  0.29696051  0.01815766  1
  O  O17  1  0.70303949  0.46355087  0.48184234  1
  O  O18  1  0.46355087  0.70303949  0.98184234  1
  O  O19  1  0.29696051  0.53644913  0.51815766  1
loop_
_geom_bond_atom_site_label_1
_geom_bond_atom_site_label_2
_geom_bond_distance
_geom_bond_site_symmetry_2
Li0 O8 1.868306 1_455
Li0 O0 1.876246 1_555
Li0 O4 1.904748 1_555
Li0 O16 2.098289 1_555
Li1 O9 1.868306 1_565
Li1 O1 1.876246 1_555
Li1 O5 1.904748 1_555
Li1 O17 2.098289 1_555
Li2 O10 1.868306 1_655
Li2 O2 1.876246 1_555
Li2 O6 1.904748 1_555
Li2 O18 2.098289 1_555
Li3 O11 1.868306 1_545
Li3 O3 1.876246 1_555
Li3 O7 1.904748 1_555
Li3 O19 2.098289 1_555
Cu0 O4 1.928980 1_555
Cu0 O6 1.928980 1_454
Cu0 O10 1.951415 1_554
Cu0 O8 1.951415 1_455
Cu1 O5 1.928980 1_545
Cu1 O7 1.928980 1_555
Cu1 O11 1.951415 1_545
Cu1 O9 1.951415 1_555
B0 O5 1.356863 1_455
B0 O0 1.358896 1_555
B0 O12 1.414454 1_555
B1 O4 1.356863 1_565
B1 O1 1.358896 1_555
B1 O13 1.414454 1_555
B2 O7 1.356863 1_655
B2 O2 1.358896 1_555
B2 O14 1.414454 1_555
B3 O6 1.356863 1_545
B3 O3 1.358896 1_555
B3 O15 1.414454 1_555
B4 O11 1.341695 1_455
B4 O19 1.380577 1_555
B4 O12 1.409994 1_555
B5 O10 1.341695 1_564
B5 O18 1.380577 1_554
B5 O13 1.409994 1_555
B6 O9 1.341695 1_655
B6 O17 1.380577 1_555
B6 O14 1.409994 1_555
B7 O8 1.341695 1_546
B7 O16 1.380577 1_556
B7 O15 1.409994 1_555
O0 Pb0 2.233457 1_555
O1 Pb1 2.233457 1_555
O2 Pb2 2.233457 1_555
O3 Pb3 2.233457 1_555
O16 Pb0 2.314499 1_555
O16 Pb2 2.400015 1_554
O17 Pb1 2.314499 1_555
O17 Pb3 2.400015 1_555
O18 Pb2 2.314499 1_555
O18 Pb0 2.400015 1_556
O19 Pb3 2.314499 1_555
O19 Pb1 2.400015 1_555
