# generated using pymatgen
data_Mg6CoBi
_symmetry_space_group_name_H-M   'P 1'
_cell_length_a   4.85010300
_cell_length_b   6.29960300
_cell_length_c   11.06283500
_cell_angle_alpha   90.00000000
_cell_angle_beta   90.00000000
_cell_angle_gamma   90.00000000
_symmetry_Int_Tables_number   1
_chemical_formula_structural   Mg6CoBi
_chemical_formula_sum   'Mg12 Co2 Bi2'
_cell_volume   338.01080071
_cell_formula_units_Z   2
loop_
 _symmetry_equiv_pos_site_id
 _symmetry_equiv_pos_as_xyz
  1  'x, y, z'
loop_
 _atom_site_type_symbol
 _atom_site_label
 _atom_site_symmetry_multiplicity
 _atom_site_fract_x
 _atom_site_fract_y
 _atom_site_fract_z
 _atom_site_occupancy
  Mg  Mg0  1  0.00000000  0.23443900  0.07159100  1
  Mg  Mg1  1  0.00000000  0.76556100  0.07159100  1
  Mg  Mg2  1  0.00000000  0.00000000  0.33243700  1
  Mg  Mg3  1  0.50000000  0.73352400  0.40942900  1
  Mg  Mg4  1  0.50000000  0.26647600  0.40942900  1
  Mg  Mg5  1  0.50000000  0.00000000  0.16977800  1
  Mg  Mg6  1  0.00000000  0.73443900  0.57159100  1
  Mg  Mg7  1  0.00000000  0.26556100  0.57159100  1
  Mg  Mg8  1  0.00000000  0.50000000  0.83243700  1
  Mg  Mg9  1  0.50000000  0.23352400  0.90942900  1
  Mg  Mg10  1  0.50000000  0.76647600  0.90942900  1
  Mg  Mg11  1  0.50000000  0.50000000  0.66977800  1
  Co  Co0  1  0.00000000  0.50000000  0.36465700  1
  Co  Co1  1  0.00000000  0.00000000  0.86465700  1
  Bi  Bi0  1  0.50000000  0.50000000  0.17108800  1
  Bi  Bi1  1  0.50000000  0.00000000  0.67108800  1
loop_
_geom_bond_atom_site_label_1
_geom_bond_atom_site_label_2
_geom_bond_distance
_geom_bond_site_symmetry_2
Mg0 Mg9 3.016495 1_554
Mg0 Mg9 3.016495 1_454
Mg0 Mg5 3.040052 1_455
Mg0 Mg5 3.040052 1_555
Mg0 Mg8 3.130261 1_554
Mg0 Mg2 3.241666 1_555
Mg1 Mg10 3.016495 1_454
Mg1 Mg10 3.016495 1_554
Mg1 Mg5 3.040052 1_565
Mg1 Mg5 3.040052 1_465
Mg1 Mg8 3.130261 1_554
Mg1 Mg2 3.241666 1_565
Mg2 Mg5 3.019763 1_555
Mg2 Mg5 3.019763 1_455
Mg2 Mg4 3.069912 1_555
Mg2 Mg3 3.069912 1_545
Mg2 Mg3 3.069912 1_445
Mg2 Mg4 3.069912 1_455
Mg2 Mg6 3.130261 1_545
Mg2 Mg7 3.130261 1_555
Mg3 Mg4 2.942217 1_555
Mg3 Mg6 3.016495 1_555
Mg3 Mg6 3.016495 1_655
Mg3 Mg5 3.137989 1_565
Mg3 Mg4 3.357386 1_565
Mg4 Mg7 3.016495 1_555
Mg4 Mg7 3.016495 1_655
Mg4 Mg5 3.137989 1_555
Mg5 Mg9 3.234146 1_554
Mg6 Mg8 3.241666 1_555
Mg7 Mg8 3.241666 1_555
Mg8 Mg9 3.069912 1_555
Mg8 Mg9 3.069912 1_455
Mg10 Mg9 2.942217 1_565
Mg10 Mg8 3.069912 1_555
Mg10 Mg8 3.069912 1_655
Mg10 Mg11 3.137989 1_555
Mg10 Mg5 3.234146 1_566
Mg10 Mg9 3.357386 1_555
Mg11 Mg8 3.019763 1_655
Mg11 Mg8 3.019763 1_555
Mg11 Mg7 3.040052 1_655
Mg11 Mg6 3.040052 1_555
Mg11 Mg6 3.040052 1_655
Mg11 Mg7 3.040052 1_555
Mg11 Mg9 3.137989 1_555
Mg11 Mg3 3.234146 1_555
Mg11 Mg4 3.234146 1_555
Co0 Mg6 2.724324 1_555
Co0 Mg7 2.724324 1_555
Co0 Mg3 2.879299 1_555
Co0 Mg3 2.879299 1_455
Co0 Mg4 2.879299 1_455
Co0 Mg4 2.879299 1_555
Co0 Mg2 3.169906 1_565
Co0 Mg2 3.169906 1_555
Co1 Mg0 2.724324 1_556
Co1 Mg1 2.724324 1_546
Co1 Mg9 2.879299 1_555
Co1 Mg9 2.879299 1_455
Co1 Mg10 2.879299 1_445
Co1 Mg10 2.879299 1_545
Co1 Mg8 3.169906 1_555
Co1 Mg8 3.169906 1_545
Bi0 Mg4 3.019353 1_555
Bi0 Mg3 3.019353 1_555
Bi0 Mg1 3.145020 1_555
Bi0 Mg1 3.145020 1_655
Bi0 Mg0 3.145020 1_555
Bi0 Mg0 3.145020 1_655
Bi0 Mg5 3.149835 1_565
Bi0 Mg5 3.149835 1_555
Bi0 Co0 3.235207 1_555
Bi0 Co0 3.235207 1_655
Bi0 Mg10 3.346228 1_554
Bi0 Mg9 3.346228 1_554
Bi1 Mg9 3.019353 1_555
Bi1 Mg10 3.019353 1_545
Bi1 Mg7 3.145020 1_555
Bi1 Mg7 3.145020 1_655
Bi1 Mg6 3.145020 1_645
Bi1 Mg6 3.145020 1_545
Bi1 Mg11 3.149835 1_545
Bi1 Mg11 3.149835 1_555
Bi1 Co1 3.235207 1_555
Bi1 Co1 3.235207 1_655
Bi1 Mg4 3.346228 1_555
Bi1 Mg3 3.346228 1_545
