# generated using pymatgen
data_LiAl2H4Pb2(O2F3)2
_symmetry_space_group_name_H-M   'P 1'
_cell_length_a   7.06666500
_cell_length_b   7.51791695
_cell_length_c   4.96765010
_cell_angle_alpha   92.76706475
_cell_angle_beta   110.66503242
_cell_angle_gamma   105.72187162
_symmetry_Int_Tables_number   1
_chemical_formula_structural   LiAl2H4Pb2(O2F3)2
_chemical_formula_sum   'Li1 Al2 H4 Pb2 O4 F6'
_cell_volume   234.64227067
_cell_formula_units_Z   1
loop_
 _symmetry_equiv_pos_site_id
 _symmetry_equiv_pos_as_xyz
  1  'x, y, z'
loop_
 _atom_site_type_symbol
 _atom_site_label
 _atom_site_symmetry_multiplicity
 _atom_site_fract_x
 _atom_site_fract_y
 _atom_site_fract_z
 _atom_site_occupancy
  Li  Li0  1  0.56895257  0.31477773  0.20159784  1
  Al  Al0  1  0.21103254  0.65674198  0.17950447  1
  Al  Al1  1  0.83041960  0.34349954  0.81189933  1
  H  H0  1  0.17264959  0.47187564  0.71334594  1
  H  H1  1  0.87574163  0.54707253  0.29092969  1
  H  H2  1  0.17708101  0.86440184  0.80126111  1
  H  H3  1  0.80927588  0.13984844  0.17351786  1
  Pb  Pb0  1  0.72208506  0.79054891  0.77165856  1
  Pb  Pb1  1  0.21585426  0.12849783  0.34983721  1
  O  O0  1  0.11441469  0.45610657  0.86717879  1
  O  O1  1  0.91182478  0.55524274  0.11770483  1
  O  O2  1  0.11675733  0.84023278  0.95137732  1
  O  O3  1  0.87094315  0.14633153  0.02308698  1
  F  F0  1  0.28514511  0.82793378  0.50871225  1
  F  F1  1  0.73681987  0.18029602  0.47070239  1
  F  F2  1  0.27972761  0.49705428  0.44776349  1
  F  F3  1  0.74169876  0.50425065  0.53339341  1
  F  F4  1  0.48382915  0.73558484  0.19437487  1
  F  F5  1  0.56324742  0.28673938  0.82965466  1
loop_
_geom_bond_atom_site_label_1
_geom_bond_atom_site_label_2
_geom_bond_distance
_geom_bond_site_symmetry_2
Li0 Pb1 2.869218 1_555
Al0 F4 1.830048 1_555
Al0 F0 1.852605 1_555
Al0 F2 1.861847 1_555
Al0 O0 1.901788 1_554
Al0 O2 1.935756 1_554
Al0 O1 1.947322 1_455
Al1 F1 1.839530 1_555
Al1 F5 1.854463 1_555
Al1 O0 1.867503 1_655
Al1 O3 1.883603 1_556
Al1 F3 1.930684 1_555
Al1 O1 1.956061 1_556
H0 O0 0.985730 1_555
H1 O1 0.980190 1_555
H2 O2 0.983015 1_555
H3 O3 0.986193 1_555
O1 Pb0 2.799022 1_554
O2 Pb0 2.522099 1_455
O2 Pb1 2.624886 1_566
O3 Pb1 2.449325 1_655
O3 Pb0 2.654454 1_544
F0 Pb1 2.543139 1_565
F1 Li0 1.969173 1_555
F2 Pb1 2.674827 1_555
F3 Li0 1.909651 1_555
F3 Pb0 2.466645 1_555
F4 Pb0 2.707421 1_555
F5 Li0 1.834450 1_556
F5 Pb1 2.671469 1_555
