# generated using pymatgen
data_CuH6C2SeCl
_symmetry_space_group_name_H-M   'P 1'
_cell_length_a   6.88454400
_cell_length_b   7.29126200
_cell_length_c   11.40249336
_cell_angle_alpha   82.32876734
_cell_angle_beta   90.00000000
_cell_angle_gamma   90.00000000
_symmetry_Int_Tables_number   1
_chemical_formula_structural   CuH6C2SeCl
_chemical_formula_sum   'Cu4 H24 C8 Se4 Cl4'
_cell_volume   567.24859649
_cell_formula_units_Z   4
loop_
 _symmetry_equiv_pos_site_id
 _symmetry_equiv_pos_as_xyz
  1  'x, y, z'
loop_
 _atom_site_type_symbol
 _atom_site_label
 _atom_site_symmetry_multiplicity
 _atom_site_fract_x
 _atom_site_fract_y
 _atom_site_fract_z
 _atom_site_occupancy
  Cu  Cu0  1  0.04759900  0.99986800  0.62270200  1
  Cu  Cu1  1  0.54759900  0.00013200  0.87729800  1
  Cu  Cu2  1  0.95240100  0.00013200  0.37729800  1
  Cu  Cu3  1  0.45240100  0.99986800  0.12270200  1
  H  H0  1  0.08292000  0.86847900  0.94782800  1
  H  H1  1  0.58292000  0.13152100  0.55217200  1
  H  H2  1  0.91708000  0.13152100  0.05217200  1
  H  H3  1  0.41708000  0.86847900  0.44782800  1
  H  H4  1  0.20613600  0.65039000  0.94926500  1
  H  H5  1  0.70613600  0.34961000  0.55073500  1
  H  H6  1  0.79386400  0.34961000  0.05073500  1
  H  H7  1  0.29386400  0.65039000  0.44926500  1
  H  H8  1  0.98907700  0.70094700  0.86056700  1
  H  H9  1  0.48907700  0.29905300  0.63943300  1
  H  H10  1  0.01092300  0.29905300  0.13943300  1
  H  H11  1  0.51092300  0.70094700  0.36056700  1
  H  H12  1  0.50825600  0.67082500  0.65891000  1
  H  H13  1  0.00825600  0.32917500  0.84109000  1
  H  H14  1  0.49174400  0.32917500  0.34109000  1
  H  H15  1  0.99174400  0.67082500  0.15891000  1
  H  H16  1  0.42747800  0.54638400  0.79769000  1
  H  H17  1  0.92747800  0.45361600  0.70231000  1
  H  H18  1  0.57252200  0.45361600  0.20231000  1
  H  H19  1  0.07252200  0.54638400  0.29769000  1
  H  H20  1  0.26778300  0.57087200  0.67086900  1
  H  H21  1  0.76778300  0.42912800  0.82913100  1
  H  H22  1  0.73221700  0.42912800  0.32913100  1
  H  H23  1  0.23221700  0.57087200  0.17086900  1
  C  C0  1  0.38347000  0.63529800  0.71725000  1
  C  C1  1  0.88347000  0.36470200  0.78275000  1
  C  C2  1  0.61653000  0.36470200  0.28275000  1
  C  C3  1  0.11653000  0.63529800  0.21725000  1
  C  C4  1  0.12035200  0.75721900  0.89623700  1
  C  C5  1  0.62035200  0.24278100  0.60376300  1
  C  C6  1  0.87964800  0.24278100  0.10376300  1
  C  C7  1  0.37964800  0.75721900  0.39623700  1
  Se  Se0  1  0.28543000  0.86853100  0.76493800  1
  Se  Se1  1  0.78543000  0.13146900  0.73506200  1
  Se  Se2  1  0.71457000  0.13146900  0.23506200  1
  Se  Se3  1  0.21457000  0.86853100  0.26493800  1
  Cl  Cl0  1  0.13167500  0.22452200  0.46677400  1
  Cl  Cl1  1  0.63167500  0.77547800  0.03322600  1
  Cl  Cl2  1  0.86832500  0.77547800  0.53322600  1
  Cl  Cl3  1  0.36832500  0.22452200  0.96677400  1
loop_
_geom_bond_atom_site_label_1
_geom_bond_atom_site_label_2
_geom_bond_distance
_geom_bond_site_symmetry_2
Cu0 Se0 2.411162 1_555
Cu0 Se1 2.479529 1_465
Cu1 Se1 2.411162 1_555
Cu1 Se0 2.479529 1_545
Cu2 Se2 2.411162 1_555
Cu2 Se3 2.479529 1_645
Cu3 Se3 2.411162 1_555
Cu3 Se2 2.479529 1_565
C0 H16 1.092984 1_555
C0 H20 1.095908 1_555
C0 H12 1.096202 1_555
C0 Se0 1.972318 1_555
C1 H17 1.092984 1_555
C1 H21 1.095908 1_555
C1 H13 1.096202 1_655
C1 Se1 1.972318 1_555
C2 H18 1.092984 1_555
C2 H22 1.095908 1_555
C2 H14 1.096202 1_555
C2 Se2 1.972318 1_555
C3 H19 1.092984 1_555
C3 H23 1.095908 1_555
C3 H15 1.096202 1_455
C3 Se3 1.972318 1_555
C4 H8 1.093214 1_455
C4 H4 1.093328 1_555
C4 H0 1.094514 1_555
C4 Se0 1.966551 1_555
C5 H9 1.093214 1_555
C5 H5 1.093328 1_555
C5 H1 1.094514 1_555
C5 Se1 1.966551 1_555
C6 H10 1.093214 1_655
C6 H6 1.093328 1_555
C6 H2 1.094514 1_555
C6 Se2 1.966551 1_555
C7 H11 1.093214 1_555
C7 H7 1.093328 1_555
C7 H3 1.094514 1_555
C7 Se3 1.966551 1_555
Cl0 Cu0 2.324169 1_545
Cl0 Cu2 2.384665 1_455
Cl1 Cu1 2.324169 1_564
Cl1 Cu3 2.384665 1_555
Cl2 Cu2 2.324169 1_565
Cl2 Cu0 2.384665 1_655
Cl3 Cu3 2.324169 1_546
Cl3 Cu1 2.384665 1_555
