# generated using pymatgen
data_Tm5BiPd2
_symmetry_space_group_name_H-M   'P 1'
_cell_length_a   8.68265609
_cell_length_b   8.68265609
_cell_length_c   8.68265609
_cell_angle_alpha   127.61258364
_cell_angle_beta   127.61258364
_cell_angle_gamma   77.25347305
_symmetry_Int_Tables_number   1
_chemical_formula_structural   Tm5BiPd2
_chemical_formula_sum   'Tm10 Bi2 Pd4'
_cell_volume   398.54315194
_cell_formula_units_Z   2
loop_
 _symmetry_equiv_pos_site_id
 _symmetry_equiv_pos_as_xyz
  1  'x, y, z'
loop_
 _atom_site_type_symbol
 _atom_site_label
 _atom_site_symmetry_multiplicity
 _atom_site_fract_x
 _atom_site_fract_y
 _atom_site_fract_z
 _atom_site_occupancy
  Tm  Tm0  1  0.00000000  0.00000000  0.00000000  1
  Tm  Tm1  1  0.50000000  0.50000000  0.00000000  1
  Tm  Tm2  1  0.79377571  0.29377571  0.80711815  1
  Tm  Tm3  1  0.20622429  0.70622429  0.19288185  1
  Tm  Tm4  1  0.48665756  0.98665756  0.19288185  1
  Tm  Tm5  1  0.29377571  0.48665756  0.50000000  1
  Tm  Tm6  1  0.01334244  0.20622429  0.50000000  1
  Tm  Tm7  1  0.51334244  0.01334244  0.80711815  1
  Tm  Tm8  1  0.70622429  0.51334244  0.50000000  1
  Tm  Tm9  1  0.98665756  0.79377571  0.50000000  1
  Bi  Bi0  1  0.25000000  0.25000000  0.00000000  1
  Bi  Bi1  1  0.75000000  0.75000000  0.00000000  1
  Pd  Pd0  1  0.13885976  0.63885976  0.77772052  1
  Pd  Pd1  1  0.86114024  0.36114024  0.22227948  1
  Pd  Pd2  1  0.63885976  0.86114024  0.50000000  1
  Pd  Pd3  1  0.36114024  0.13885976  0.50000000  1
loop_
_geom_bond_atom_site_label_1
_geom_bond_atom_site_label_2
_geom_bond_distance
_geom_bond_site_symmetry_2
Bi0 Tm4 3.264273 1_545
Bi0 Tm9 3.264273 1_444
Bi0 Tm2 3.264273 1_454
Bi0 Tm8 3.264273 1_555
Bi0 Tm7 3.264273 1_554
Bi0 Tm5 3.264273 1_555
Bi0 Tm3 3.264273 1_555
Bi0 Tm6 3.264273 1_554
Bi0 Tm0 3.391572 1_555
Bi0 Tm1 3.391572 1_555
Bi1 Tm2 3.264273 1_554
Bi1 Tm9 3.264273 1_555
Bi1 Tm6 3.264273 1_665
Bi1 Tm7 3.264273 1_564
Bi1 Tm8 3.264273 1_554
Bi1 Tm5 3.264273 1_554
Bi1 Tm4 3.264273 1_555
Bi1 Tm3 3.264273 1_655
Bi1 Tm0 3.391572 1_665
Bi1 Tm1 3.391572 1_555
Pd0 Tm6 2.941970 1_555
Pd0 Tm8 2.941970 1_455
Pd0 Tm9 2.941979 1_455
Pd0 Tm5 2.941979 1_555
Pd0 Tm3 2.946503 1_556
Pd0 Tm4 2.946512 1_556
Pd0 Tm1 2.965780 1_556
Pd0 Tm0 2.965780 1_566
Pd1 Tm5 2.941970 1_655
Pd1 Tm9 2.941970 1_555
Pd1 Tm8 2.941979 1_555
Pd1 Tm6 2.941979 1_655
Pd1 Tm2 2.946503 1_554
Pd1 Tm7 2.946512 1_554
Pd1 Tm1 2.965780 1_555
Pd1 Tm0 2.965780 1_655
Pd2 Tm7 2.941971 1_565
Pd2 Tm3 2.941971 1_555
Pd2 Tm4 2.941971 1_555
Pd2 Tm2 2.941971 1_565
Pd2 Tm9 2.946512 1_555
Pd2 Tm8 2.946512 1_555
Pd2 Tm1 2.965782 1_555
Pd2 Tm0 2.965782 1_666
Pd3 Tm4 2.941971 1_545
Pd3 Tm7 2.941971 1_555
Pd3 Tm2 2.941971 1_555
Pd3 Tm3 2.941971 1_545
Pd3 Tm6 2.946512 1_555
Pd3 Tm5 2.946512 1_555
Pd3 Tm1 2.965782 1_556
Pd3 Tm0 2.965782 1_555
