# generated using pymatgen
data_Ba2LuB2ClO6
_symmetry_space_group_name_H-M   'P 1'
_cell_length_a   5.31153700
_cell_length_b   6.42515500
_cell_length_c   11.38393072
_cell_angle_alpha   83.99088946
_cell_angle_beta   90.00000000
_cell_angle_gamma   90.00000000
_symmetry_Int_Tables_number   1
_chemical_formula_structural   Ba2LuB2ClO6
_chemical_formula_sum   'Ba4 Lu2 B4 Cl2 O12'
_cell_volume   386.36977892
_cell_formula_units_Z   2
loop_
 _symmetry_equiv_pos_site_id
 _symmetry_equiv_pos_as_xyz
  1  'x, y, z'
loop_
 _atom_site_type_symbol
 _atom_site_label
 _atom_site_symmetry_multiplicity
 _atom_site_fract_x
 _atom_site_fract_y
 _atom_site_fract_z
 _atom_site_occupancy
  Ba  Ba0  1  0.75000000  0.65665700  0.07927800  1
  Ba  Ba1  1  0.25000000  0.34334300  0.92072200  1
  Ba  Ba2  1  0.75000000  0.90539900  0.70363300  1
  Ba  Ba3  1  0.25000000  0.09460100  0.29636700  1
  Lu  Lu0  1  0.75000000  0.65297600  0.41609300  1
  Lu  Lu1  1  0.25000000  0.34702400  0.58390700  1
  B  B0  1  0.75000000  0.21063200  0.43118500  1
  B  B1  1  0.25000000  0.78936800  0.56881500  1
  B  B2  1  0.25000000  0.62507400  0.23092600  1
  B  B3  1  0.75000000  0.37492600  0.76907400  1
  Cl  Cl0  1  0.75000000  0.14808200  0.08861500  1
  Cl  Cl1  1  0.25000000  0.85191800  0.91138500  1
  O  O0  1  0.01994400  0.70899900  0.26804000  1
  O  O1  1  0.51994400  0.29100100  0.73196000  1
  O  O2  1  0.98005600  0.29100100  0.73196000  1
  O  O3  1  0.48005600  0.70899900  0.26804000  1
  O  O4  1  0.25000000  0.48219900  0.14758800  1
  O  O5  1  0.75000000  0.51780100  0.85241200  1
  O  O6  1  0.97120200  0.33020900  0.43688500  1
  O  O7  1  0.47120200  0.66979100  0.56311500  1
  O  O8  1  0.02879800  0.66979100  0.56311500  1
  O  O9  1  0.52879800  0.33020900  0.43688500  1
  O  O10  1  0.75000000  0.00406800  0.41268000  1
  O  O11  1  0.25000000  0.99593200  0.58732000  1
loop_
_geom_bond_atom_site_label_1
_geom_bond_atom_site_label_2
_geom_bond_distance
_geom_bond_site_symmetry_2
Ba0 O3 2.633973 1_555
Ba0 O0 2.633973 1_655
Ba0 O5 2.819283 1_554
Ba0 O4 2.954959 1_555
Ba0 O4 2.954959 1_655
Ba0 Cl0 3.170372 1_565
Ba0 Cl0 3.258261 1_555
Ba0 Cl1 3.431914 1_554
Ba0 Cl1 3.431914 1_654
Ba1 O1 2.633973 1_555
Ba1 O2 2.633973 1_455
Ba1 O4 2.819283 1_556
Ba1 O5 2.954959 1_455
Ba1 O5 2.954959 1_555
Ba1 Cl1 3.170372 1_545
Ba1 Cl1 3.258261 1_555
Ba1 Cl0 3.431914 1_556
Ba1 Cl0 3.431914 1_456
Ba2 O8 2.747805 1_655
Ba2 O7 2.747805 1_555
Ba2 O2 2.811174 1_565
Ba2 O1 2.811174 1_565
Ba2 O5 2.861371 1_555
Ba2 O11 2.997239 1_655
Ba2 O11 2.997239 1_555
Ba2 Cl1 3.548861 1_555
Ba2 Cl1 3.548861 1_655
Ba3 O6 2.747805 1_455
Ba3 O9 2.747805 1_555
Ba3 O3 2.811174 1_545
Ba3 O0 2.811174 1_545
Ba3 O4 2.861371 1_555
Ba3 O10 2.997239 1_555
Ba3 O10 2.997239 1_455
Ba3 Cl0 3.548861 1_455
Ba3 Cl0 3.548861 1_555
Lu0 O3 2.213377 1_555
Lu0 O0 2.213377 1_655
Lu0 O8 2.245811 1_655
Lu0 O7 2.245811 1_555
Lu0 O10 2.252085 1_565
Lu0 O6 2.373701 1_555
Lu0 O9 2.373701 1_555
Lu1 O1 2.213377 1_555
Lu1 O2 2.213377 1_455
Lu1 O9 2.245811 1_555
Lu1 O6 2.245811 1_455
Lu1 O11 2.252085 1_545
Lu1 O7 2.373701 1_555
Lu1 O8 2.373701 1_555
B0 O10 1.365427 1_555
B0 O9 1.409034 1_555
B0 O6 1.409034 1_555
B1 O11 1.365427 1_555
B1 O7 1.409034 1_555
B1 O8 1.409034 1_555
B2 O4 1.387486 1_555
B2 O3 1.417796 1_555
B2 O0 1.417796 1_555
B3 O5 1.387486 1_555
B3 O2 1.417796 1_555
B3 O1 1.417796 1_555
