# generated using pymatgen
data_Mn5Ni(BO5)2
_symmetry_space_group_name_H-M   'P 1'
_cell_length_a   3.08705600
_cell_length_b   9.51103400
_cell_length_c   12.93434000
_cell_angle_alpha   90.00000000
_cell_angle_beta   90.00000000
_cell_angle_gamma   90.00000000
_symmetry_Int_Tables_number   1
_chemical_formula_structural   Mn5Ni(BO5)2
_chemical_formula_sum   'Mn10 Ni2 B4 O20'
_cell_volume   379.76638002
_cell_formula_units_Z   2
loop_
 _symmetry_equiv_pos_site_id
 _symmetry_equiv_pos_as_xyz
  1  'x, y, z'
loop_
 _atom_site_type_symbol
 _atom_site_label
 _atom_site_symmetry_multiplicity
 _atom_site_fract_x
 _atom_site_fract_y
 _atom_site_fract_z
 _atom_site_occupancy
  Mn  Mn0  1  0.00000000  0.25053500  0.49927300  1
  Mn  Mn1  1  0.00000000  0.74946500  0.99927300  1
  Mn  Mn2  1  0.50000000  0.25260800  0.00127300  1
  Mn  Mn3  1  0.50000000  0.74739200  0.50127300  1
  Mn  Mn4  1  0.00000000  0.24719100  0.77551700  1
  Mn  Mn5  1  0.00000000  0.75280900  0.27551700  1
  Mn  Mn6  1  0.50000000  0.51037900  0.88118100  1
  Mn  Mn7  1  0.50000000  0.99586700  0.11693800  1
  Mn  Mn8  1  0.50000000  0.00413300  0.61693800  1
  Mn  Mn9  1  0.50000000  0.48962100  0.38118100  1
  Ni  Ni0  1  0.00000000  0.25020600  0.22219900  1
  Ni  Ni1  1  0.00000000  0.74979400  0.72219900  1
  B  B0  1  0.50000000  0.47861000  0.63979800  1
  B  B1  1  0.50000000  0.02818300  0.36088200  1
  B  B2  1  0.50000000  0.97181700  0.86088200  1
  B  B3  1  0.50000000  0.52139000  0.13979800  1
  O  O0  1  0.50000000  0.40826000  0.54611800  1
  O  O1  1  0.50000000  0.09729400  0.45480500  1
  O  O2  1  0.50000000  0.90270600  0.95480500  1
  O  O3  1  0.50000000  0.59174000  0.04611800  1
  O  O4  1  0.50000000  0.11941600  0.85855600  1
  O  O5  1  0.50000000  0.37368400  0.14486500  1
  O  O6  1  0.50000000  0.62631600  0.64486500  1
  O  O7  1  0.50000000  0.88058400  0.35855600  1
  O  O8  1  0.50000000  0.40181000  0.73163100  1
  O  O9  1  0.50000000  0.10505800  0.26832800  1
  O  O10  1  0.50000000  0.89494200  0.76832800  1
  O  O11  1  0.50000000  0.59819000  0.23163100  1
  O  O12  1  0.00000000  0.37128000  0.91913400  1
  O  O13  1  0.00000000  0.13463600  0.08303800  1
  O  O14  1  0.00000000  0.86536400  0.58303800  1
  O  O15  1  0.00000000  0.62872000  0.41913400  1
  O  O16  1  0.00000000  0.13265700  0.64161300  1
  O  O17  1  0.00000000  0.36250800  0.35485200  1
  O  O18  1  0.00000000  0.63749200  0.85485200  1
  O  O19  1  0.00000000  0.86734300  0.14161300  1
loop_
_geom_bond_atom_site_label_1
_geom_bond_atom_site_label_2
_geom_bond_distance
_geom_bond_site_symmetry_2
Mn0 O17 2.150248 1_555
Mn0 O16 2.155577 1_555
Mn0 O1 2.199441 1_455
Mn0 O1 2.199441 1_555
Mn0 O0 2.236065 1_455
Mn0 O0 2.236065 1_555
Mn1 O18 2.150248 1_555
Mn1 O19 2.155577 1_556
Mn1 O2 2.199441 1_555
Mn1 O2 2.199441 1_455
Mn1 O3 2.236065 1_456
Mn1 O3 2.236065 1_556
Mn2 O13 2.181722 1_655
Mn2 O13 2.181722 1_555
Mn2 O5 2.185298 1_555
Mn2 O12 2.187499 1_554
Mn2 O12 2.187499 1_654
Mn2 O4 2.238816 1_554
Mn3 O14 2.181722 1_555
Mn3 O14 2.181722 1_655
Mn3 O6 2.185298 1_555
Mn3 O15 2.187499 1_555
Mn3 O15 2.187499 1_655
Mn3 O7 2.238816 1_555
Mn4 O16 2.046055 1_555
Mn4 O12 2.200807 1_555
Mn4 O8 2.206199 1_455
Mn4 O8 2.206199 1_555
Mn4 O4 2.238964 1_555
Mn4 O4 2.238964 1_455
Mn5 O19 2.046055 1_555
Mn5 O15 2.200807 1_555
Mn5 O11 2.206199 1_555
Mn5 O11 2.206199 1_455
Mn5 O7 2.238964 1_455
Mn5 O7 2.238964 1_555
Mn6 O18 1.989994 1_555
Mn6 O18 1.989994 1_655
Mn6 O12 2.091345 1_655
Mn6 O12 2.091345 1_555
Mn6 O8 2.192693 1_555
Mn6 O3 2.269360 1_556
Mn7 O19 1.994641 1_555
Mn7 O19 1.994641 1_655
Mn7 O13 2.077669 1_565
Mn7 O13 2.077669 1_665
Mn7 O9 2.216482 1_565
Mn7 O2 2.276589 1_554
Mn8 O16 1.994641 1_555
Mn8 O16 1.994641 1_655
Mn8 O14 2.077669 1_545
Mn8 O14 2.077669 1_645
Mn8 O10 2.216482 1_545
Mn8 O1 2.276589 1_555
Mn9 O17 1.989994 1_655
Mn9 O17 1.989994 1_555
Mn9 O15 2.091345 1_555
Mn9 O15 2.091345 1_655
Mn9 O11 2.192693 1_555
Mn9 O0 2.269360 1_555
Ni0 O17 2.021077 1_555
Ni0 O13 2.109042 1_555
Ni0 O9 2.155057 1_555
Ni0 O9 2.155057 1_455
Ni0 O5 2.182254 1_555
Ni0 O5 2.182254 1_455
Ni1 O18 2.021077 1_555
Ni1 O14 2.109042 1_555
Ni1 O10 2.155057 1_455
Ni1 O10 2.155057 1_555
Ni1 O6 2.182254 1_455
Ni1 O6 2.182254 1_555
B0 O0 1.384156 1_555
B0 O8 1.394425 1_555
B0 O6 1.406365 1_555
B1 O1 1.381261 1_555
B1 O9 1.402749 1_555
B1 O7 1.404141 1_545
B2 O2 1.381261 1_555
B2 O10 1.402749 1_555
B2 O4 1.404141 1_565
B3 O3 1.384156 1_555
B3 O11 1.394425 1_555
B3 O5 1.406365 1_555
