# generated using pymatgen
data_NaMg14Zn
_symmetry_space_group_name_H-M   'P 1'
_cell_length_a   6.39072021
_cell_length_b   6.39168381
_cell_length_c   10.34871492
_cell_angle_alpha   90.00000000
_cell_angle_beta   90.00000000
_cell_angle_gamma   120.00499320
_symmetry_Int_Tables_number   1
_chemical_formula_structural   NaMg14Zn
_chemical_formula_sum   'Na1 Mg14 Zn1'
_cell_volume   366.06675418
_cell_formula_units_Z   1
loop_
 _symmetry_equiv_pos_site_id
 _symmetry_equiv_pos_as_xyz
  1  'x, y, z'
loop_
 _atom_site_type_symbol
 _atom_site_label
 _atom_site_symmetry_multiplicity
 _atom_site_fract_x
 _atom_site_fract_y
 _atom_site_fract_z
 _atom_site_occupancy
  Na  Na0  1  0.16578404  0.83289152  0.12500000  1
  Mg  Mg0  1  0.16700784  0.33350342  0.62500000  1
  Mg  Mg1  1  0.16692308  0.83346104  0.62500000  1
  Mg  Mg2  1  0.66718960  0.33615918  0.12500000  1
  Mg  Mg3  1  0.66615240  0.33313962  0.62500000  1
  Mg  Mg4  1  0.66718960  0.83102942  0.12500000  1
  Mg  Mg5  1  0.66615240  0.83301178  0.62500000  1
  Mg  Mg6  1  0.33238086  0.16986723  0.37457420  1
  Mg  Mg7  1  0.33238086  0.16986723  0.87542580  1
  Mg  Mg8  1  0.33238086  0.66251464  0.37457420  1
  Mg  Mg9  1  0.33238086  0.66251464  0.87542580  1
  Mg  Mg10  1  0.83614357  0.16807228  0.37143929  1
  Mg  Mg11  1  0.83614357  0.16807228  0.87856071  1
  Mg  Mg12  1  0.83117825  0.66558963  0.37792698  1
  Mg  Mg13  1  0.83117825  0.66558963  0.87207302  1
  Zn  Zn0  1  0.16943395  0.33471648  0.12500000  1
loop_
_geom_bond_atom_site_label_1
_geom_bond_atom_site_label_2
_geom_bond_distance
_geom_bond_site_symmetry_2
Na0 Zn0 3.195906 1_555
Na0 Zn0 3.195906 1_565
Mg0 Mg6 3.167447 1_555
Mg0 Mg7 3.167447 1_555
Mg0 Mg8 3.167453 1_555
Mg0 Mg9 3.167453 1_555
Mg0 Mg5 3.191056 1_555
Mg0 Mg3 3.191057 1_555
Mg0 Mg1 3.195842 1_545
Mg0 Mg1 3.195842 1_555
Mg0 Mg5 3.199665 1_445
Mg0 Mg3 3.199665 1_455
Mg0 Mg10 3.199749 1_455
Mg0 Mg11 3.199749 1_455
Mg1 Mg12 3.160727 1_455
Mg1 Mg13 3.160727 1_455
Mg1 Mg8 3.191202 1_555
Mg1 Mg9 3.191202 1_555
Mg1 Mg6 3.191208 1_565
Mg1 Mg7 3.191208 1_565
Mg1 Mg3 3.191872 1_565
Mg1 Mg5 3.191872 1_555
Mg1 Mg3 3.198850 1_455
Mg1 Mg5 3.198850 1_455
Mg2 Mg4 3.163054 1_555
Mg2 Zn0 3.176416 1_555
Mg2 Mg7 3.178688 1_554
Mg2 Mg6 3.178688 1_555
Mg2 Na0 3.180442 1_655
Mg2 Na0 3.210311 1_545
Mg2 Zn0 3.214324 1_655
Mg2 Mg4 3.228630 1_545
Mg3 Mg6 3.182593 1_555
Mg3 Mg7 3.182593 1_555
Mg3 Mg5 3.195025 1_555
Mg3 Mg5 3.196659 1_545
Mg4 Zn0 3.176416 1_555
Mg4 Mg9 3.178688 1_554
Mg4 Mg8 3.178688 1_555
Mg4 Na0 3.180442 1_655
Mg4 Na0 3.210311 1_555
Mg4 Zn0 3.214324 1_665
Mg5 Mg8 3.182593 1_555
Mg5 Mg9 3.182593 1_555
Mg6 Mg8 3.148846 1_555
Mg6 Zn0 3.156378 1_555
Mg6 Na0 3.185874 1_545
Mg6 Mg8 3.242837 1_545
Mg7 Mg9 3.148846 1_555
Mg7 Zn0 3.156378 1_556
Mg7 Na0 3.185874 1_546
Mg7 Mg9 3.242837 1_545
Mg8 Zn0 3.156385 1_555
Mg8 Na0 3.185868 1_555
Mg9 Zn0 3.156385 1_556
Mg9 Na0 3.185868 1_556
Mg10 Zn0 3.147444 1_655
Mg10 Mg2 3.159820 1_555
Mg10 Mg4 3.159826 1_545
Mg10 Mg8 3.165758 1_655
Mg10 Mg6 3.165758 1_655
Mg10 Mg12 3.196665 1_545
Mg10 Mg12 3.196665 1_555
Mg10 Mg3 3.213287 1_555
Mg10 Mg5 3.213293 1_545
Mg10 Mg8 3.225322 1_545
Mg10 Mg6 3.225322 1_555
Mg11 Zn0 3.147444 1_656
Mg11 Mg2 3.159820 1_556
Mg11 Mg4 3.159826 1_546
Mg11 Mg9 3.165758 1_655
Mg11 Mg7 3.165758 1_655
Mg11 Mg13 3.196665 1_545
Mg11 Mg13 3.196665 1_555
Mg11 Mg3 3.213287 1_555
Mg11 Mg5 3.213293 1_545
Mg11 Mg9 3.225322 1_545
Mg11 Mg7 3.225322 1_555
Mg12 Mg5 3.150208 1_555
Mg12 Mg3 3.150214 1_555
Mg12 Mg6 3.178081 1_555
Mg12 Mg8 3.178081 1_555
Mg12 Mg4 3.189985 1_555
Mg12 Mg2 3.189992 1_555
Mg12 Na0 3.206287 1_655
Mg12 Mg6 3.213106 1_665
Mg12 Mg8 3.213107 1_655
Mg13 Mg5 3.150208 1_555
Mg13 Mg3 3.150214 1_555
Mg13 Mg7 3.178081 1_555
Mg13 Mg9 3.178081 1_555
Mg13 Mg4 3.189985 1_556
Mg13 Mg2 3.189992 1_556
Mg13 Na0 3.206287 1_656
Mg13 Mg7 3.213106 1_665
Mg13 Mg9 3.213107 1_655
