# generated using pymatgen
data_Tb2Si3Rh
_symmetry_space_group_name_H-M   'P 1'
_cell_length_a   8.17461589
_cell_length_b   8.17461589
_cell_length_c   7.97694500
_cell_angle_alpha   90.00000000
_cell_angle_beta   90.00000000
_cell_angle_gamma   119.99999914
_symmetry_Int_Tables_number   1
_chemical_formula_structural   Tb2Si3Rh
_chemical_formula_sum   'Tb8 Si12 Rh4'
_cell_volume   461.63841771
_cell_formula_units_Z   4
loop_
 _symmetry_equiv_pos_site_id
 _symmetry_equiv_pos_as_xyz
  1  'x, y, z'
loop_
 _atom_site_type_symbol
 _atom_site_label
 _atom_site_symmetry_multiplicity
 _atom_site_fract_x
 _atom_site_fract_y
 _atom_site_fract_z
 _atom_site_occupancy
  Tb  Tb0  1  0.00000000  0.00000000  0.75000000  1
  Tb  Tb1  1  0.00000000  0.00000000  0.25000000  1
  Tb  Tb2  1  0.49621200  0.50378800  0.75000000  1
  Tb  Tb3  1  0.49621200  0.99242400  0.75000000  1
  Tb  Tb4  1  0.00757600  0.50378800  0.75000000  1
  Tb  Tb5  1  0.50378800  0.49621200  0.25000000  1
  Tb  Tb6  1  0.99242400  0.49621200  0.25000000  1
  Tb  Tb7  1  0.50378800  0.00757600  0.25000000  1
  Si  Si0  1  0.83383000  0.16617000  0.99937100  1
  Si  Si1  1  0.83383000  0.66766000  0.99937100  1
  Si  Si2  1  0.33234000  0.16617000  0.99937100  1
  Si  Si3  1  0.83383000  0.16617000  0.50062900  1
  Si  Si4  1  0.83383000  0.66766000  0.50062900  1
  Si  Si5  1  0.33234000  0.16617000  0.50062900  1
  Si  Si6  1  0.16617000  0.83383000  0.49937100  1
  Si  Si7  1  0.66766000  0.83383000  0.49937100  1
  Si  Si8  1  0.16617000  0.33234000  0.49937100  1
  Si  Si9  1  0.16617000  0.83383000  0.00062900  1
  Si  Si10  1  0.66766000  0.83383000  0.00062900  1
  Si  Si11  1  0.16617000  0.33234000  0.00062900  1
  Rh  Rh0  1  0.66666700  0.33333300  0.98523800  1
  Rh  Rh1  1  0.66666700  0.33333300  0.51476200  1
  Rh  Rh2  1  0.33333300  0.66666700  0.48523800  1
  Rh  Rh3  1  0.33333300  0.66666700  0.01476200  1
loop_
_geom_bond_atom_site_label_1
_geom_bond_atom_site_label_2
_geom_bond_distance
_geom_bond_site_symmetry_2
Si0 Si11 2.352798 1_656
Si0 Si10 2.352798 1_546
Si0 Tb6 3.075556 1_556
Si0 Tb7 3.075556 1_556
Si0 Tb0 3.080998 1_655
Si0 Tb1 3.087486 1_656
Si0 Tb4 3.109887 1_655
Si0 Tb3 3.109887 1_545
Si1 Si10 2.352798 1_556
Si1 Si9 2.352798 1_656
Si1 Tb6 3.075556 1_556
Si1 Tb5 3.075556 1_556
Si1 Tb0 3.080998 1_665
Si1 Tb1 3.087486 1_666
Si1 Tb4 3.109887 1_655
Si1 Tb2 3.109887 1_555
Si2 Si9 2.352798 1_546
Si2 Tb7 3.075556 1_556
Si2 Tb5 3.075556 1_556
Si2 Tb0 3.080998 1_555
Si2 Tb1 3.087486 1_556
Si2 Tb3 3.109887 1_545
Si2 Tb2 3.109887 1_555
Si3 Si8 2.352798 1_655
Si3 Si7 2.352798 1_545
Si3 Tb6 3.075556 1_555
Si3 Tb7 3.075556 1_555
Si3 Tb0 3.080998 1_655
Si3 Tb1 3.087486 1_655
Si3 Tb4 3.109887 1_655
Si3 Tb3 3.109887 1_545
Si4 Si7 2.352798 1_555
Si4 Si6 2.352798 1_655
Si4 Tb6 3.075556 1_555
Si4 Tb5 3.075556 1_555
Si4 Tb0 3.080998 1_665
Si4 Tb1 3.087486 1_665
Si4 Tb4 3.109887 1_655
Si4 Tb2 3.109887 1_555
Si5 Si8 2.352798 1_555
Si5 Si6 2.352798 1_545
Si5 Tb7 3.075556 1_555
Si5 Tb5 3.075556 1_555
Si5 Tb0 3.080998 1_555
Si5 Tb1 3.087486 1_555
Si5 Tb3 3.109887 1_545
Si5 Tb2 3.109887 1_555
Si6 Tb3 3.075556 1_555
Si6 Tb4 3.075556 1_555
Si6 Tb1 3.080998 1_565
Si6 Tb0 3.087486 1_565
Si6 Tb7 3.109887 1_565
Si6 Tb6 3.109887 1_455
Si7 Tb3 3.075556 1_555
Si7 Tb2 3.075556 1_555
Si7 Tb1 3.080998 1_665
Si7 Tb0 3.087486 1_665
Si7 Tb7 3.109887 1_565
Si7 Tb5 3.109887 1_555
Si8 Tb4 3.075556 1_555
Si8 Tb2 3.075556 1_555
Si8 Tb1 3.080998 1_555
Si8 Tb0 3.087486 1_555
Si8 Tb6 3.109887 1_455
Si8 Tb5 3.109887 1_555
Si9 Tb3 3.075556 1_554
Si9 Tb4 3.075556 1_554
Si9 Tb1 3.080998 1_565
Si9 Tb0 3.087486 1_564
Si9 Tb7 3.109887 1_565
Si9 Tb6 3.109887 1_455
Si10 Tb3 3.075556 1_554
Si10 Tb2 3.075556 1_554
Si10 Tb1 3.080998 1_665
Si10 Tb0 3.087486 1_664
Si10 Tb7 3.109887 1_565
Si10 Tb5 3.109887 1_555
Si11 Si2 2.352798 1_554
Si11 Tb4 3.075556 1_554
Si11 Tb2 3.075556 1_554
Si11 Tb1 3.080998 1_555
Si11 Tb0 3.087486 1_554
Si11 Tb6 3.109887 1_455
Si11 Tb5 3.109887 1_555
Rh0 Si0 2.369519 1_555
Rh0 Si2 2.369526 1_555
Rh0 Si1 2.369526 1_555
Rh0 Tb4 3.057102 1_655
Rh0 Tb3 3.057102 1_545
Rh0 Tb2 3.057107 1_555
Rh0 Tb6 3.127130 1_556
Rh0 Tb7 3.127130 1_556
Rh0 Tb5 3.127135 1_556
Rh1 Si3 2.369519 1_555
Rh1 Si5 2.369526 1_555
Rh1 Si4 2.369526 1_555
Rh1 Tb4 3.057102 1_655
Rh1 Tb3 3.057102 1_545
Rh1 Tb2 3.057107 1_555
Rh1 Tb6 3.127130 1_555
Rh1 Tb7 3.127130 1_555
Rh1 Tb5 3.127135 1_555
Rh2 Si6 2.369519 1_555
Rh2 Si8 2.369526 1_555
Rh2 Si7 2.369526 1_555
Rh2 Tb7 3.057102 1_565
Rh2 Tb6 3.057102 1_455
Rh2 Tb5 3.057107 1_555
Rh2 Tb3 3.127130 1_555
Rh2 Tb4 3.127130 1_555
Rh2 Tb2 3.127135 1_555
Rh3 Si9 2.369519 1_555
Rh3 Si11 2.369526 1_555
Rh3 Si10 2.369526 1_555
Rh3 Tb7 3.057102 1_565
Rh3 Tb6 3.057102 1_455
Rh3 Tb5 3.057107 1_555
Rh3 Tb3 3.127130 1_554
Rh3 Tb4 3.127130 1_554
Rh3 Tb2 3.127135 1_554
