# generated using pymatgen
data_K8MgMn4O16
_symmetry_space_group_name_H-M   'P 1'
_cell_length_a   5.81566997
_cell_length_b   8.81036069
_cell_length_c   11.74218605
_cell_angle_alpha   92.82659587
_cell_angle_beta   117.39301683
_cell_angle_gamma   90.23337933
_symmetry_Int_Tables_number   1
_chemical_formula_structural   K8MgMn4O16
_chemical_formula_sum   'K8 Mg1 Mn4 O16'
_cell_volume   533.29307083
_cell_formula_units_Z   1
loop_
 _symmetry_equiv_pos_site_id
 _symmetry_equiv_pos_as_xyz
  1  'x, y, z'
loop_
 _atom_site_type_symbol
 _atom_site_label
 _atom_site_symmetry_multiplicity
 _atom_site_fract_x
 _atom_site_fract_y
 _atom_site_fract_z
 _atom_site_occupancy
  K  K0  1  0.15218100  0.70922400  0.86712700  1
  K  K1  1  0.45251400  0.50548900  0.69837900  1
  K  K2  1  0.22910400  0.83122100  0.42050400  1
  K  K3  1  0.51601200  0.98947000  0.77453600  1
  K  K4  1  0.39757200  0.05533900  0.18265700  1
  K  K5  1  0.80077400  0.17415700  0.59819800  1
  K  K6  1  0.52628600  0.44387100  0.34291900  1
  K  K7  1  0.77212700  0.30608900  0.07862700  1
  Mg  Mg0  1  0.60902900  0.73422000  0.21114100  1
  Mn  Mn0  1  0.14579900  0.27075300  0.92630400  1
  Mn  Mn1  1  0.13770100  0.25204300  0.43434800  1
  Mn  Mn2  1  0.84755900  0.73857400  0.56032700  1
  Mn  Mn3  1  0.89299500  0.73930600  0.07875400  1
  O  O0  1  0.26303000  0.09946700  0.92109600  1
  O  O1  1  0.25871600  0.39947300  0.86554600  1
  O  O2  1  0.26145600  0.20687900  0.58724800  1
  O  O3  1  0.17486000  0.76864600  0.63215300  1
  O  O4  1  0.17119400  0.43774600  0.42955700  1
  O  O5  1  0.30203000  0.15953500  0.36921500  1
  O  O6  1  0.82313300  0.25857600  0.84736000  1
  O  O7  1  0.72635500  0.73178700  0.91830300  1
  O  O8  1  0.24463300  0.32138200  0.08211500  1
  O  O9  1  0.22736600  0.75173100  0.13111100  1
  O  O10  1  0.71684200  0.87658300  0.61804400  1
  O  O11  1  0.77893600  0.56355500  0.59357600  1
  O  O12  1  0.82289700  0.20509400  0.35367700  1
  O  O13  1  0.71275800  0.74873400  0.39130500  1
  O  O14  1  0.79168000  0.59402500  0.14325000  1
  O  O15  1  0.78613100  0.88536300  0.14818000  1
loop_
_geom_bond_atom_site_label_1
_geom_bond_atom_site_label_2
_geom_bond_distance
_geom_bond_site_symmetry_2
K0 O1 2.801984 1_555
K0 O7 2.809821 1_455
K0 O3 2.894982 1_555
K0 O9 2.928630 1_556
K0 O7 3.112443 1_555
K0 O11 3.135487 1_455
K0 O10 3.283333 1_455
K1 O11 2.753867 1_555
K1 O3 2.764138 1_555
K1 O4 2.837409 1_555
K1 O2 2.856965 1_555
K1 O1 2.864210 1_555
K1 O7 2.976924 1_555
K1 O6 3.063046 1_555
K2 O10 2.725974 1_555
K2 O3 2.726706 1_555
K2 O13 2.945055 1_455
K2 O5 3.050632 1_565
K2 O13 3.071951 1_555
K2 O15 3.109593 1_455
K3 O3 2.666858 1_555
K3 O10 2.744821 1_555
K3 O6 2.811194 1_565
K3 O7 2.828565 1_555
K3 O2 2.853010 1_565
K3 O0 2.870955 1_565
K4 O5 2.622221 1_555
K4 O8 2.646237 1_555
K4 O12 2.652023 1_555
K4 O9 2.787236 1_545
K4 O0 2.846958 1_554
K4 O15 2.884875 1_545
K5 O10 2.705653 1_545
K5 O2 2.755353 1_655
K5 O5 2.906122 1_555
K5 O6 2.926495 1_555
K5 O12 2.958297 1_555
K5 O2 3.094702 1_555
K6 O4 2.690756 1_555
K6 O12 2.696742 1_555
K6 O11 2.763230 1_555
K6 O13 2.823472 1_555
K6 O8 2.875728 1_555
K6 O5 2.914112 1_555
K7 O14 2.598573 1_555
K7 O8 2.732010 1_655
K7 O6 2.875367 1_554
K7 O1 3.033306 1_554
K7 O8 3.090185 1_555
K7 O0 3.175839 1_554
K7 O12 3.273820 1_555
Mg0 O13 1.911556 1_555
Mg0 O9 1.982766 1_555
Mg0 O14 1.995568 1_555
Mg0 O15 2.041377 1_555
Mn0 O1 1.652627 1_555
Mn0 O6 1.667340 1_455
Mn0 O0 1.668401 1_555
Mn0 O8 1.681189 1_556
Mn1 O4 1.653641 1_555
Mn1 O12 1.667207 1_455
Mn1 O5 1.667323 1_555
Mn1 O2 1.668376 1_555
Mn2 O11 1.699157 1_555
Mn2 O3 1.703331 1_655
Mn2 O10 1.707631 1_555
Mn2 O13 1.774248 1_555
Mn3 O7 1.673394 1_554
Mn3 O14 1.749036 1_555
Mn3 O9 1.750121 1_655
Mn3 O15 1.753843 1_555
