# generated using pymatgen
data_Zn2Bi6Ru8O27
_symmetry_space_group_name_H-M   'P 1'
_cell_length_a   7.27945504
_cell_length_b   10.31825898
_cell_length_c   7.27945504
_cell_angle_alpha   90.47005013
_cell_angle_beta   90.05619885
_cell_angle_gamma   89.52994987
_symmetry_Int_Tables_number   1
_chemical_formula_structural   Zn2Bi6Ru8O27
_chemical_formula_sum   'Zn2 Bi6 Ru8 O27'
_cell_volume   546.73232076
_cell_formula_units_Z   1
loop_
 _symmetry_equiv_pos_site_id
 _symmetry_equiv_pos_as_xyz
  1  'x, y, z'
loop_
 _atom_site_type_symbol
 _atom_site_label
 _atom_site_symmetry_multiplicity
 _atom_site_fract_x
 _atom_site_fract_y
 _atom_site_fract_z
 _atom_site_occupancy
  Zn  Zn0  1  0.80984400  0.24850900  0.75389100  1
  Zn  Zn1  1  0.00389100  0.00149100  0.55984400  1
  Bi  Bi0  1  0.24152700  0.76175700  0.25068200  1
  Bi  Bi1  1  0.76155300  0.24400800  0.26282200  1
  Bi  Bi2  1  0.24317700  0.75536600  0.74650100  1
  Bi  Bi3  1  0.50068200  0.48824300  0.99152700  1
  Bi  Bi4  1  0.99650100  0.49463400  0.99317700  1
  Bi  Bi5  1  0.51282200  0.00599200  0.51155300  1
  Ru  Ru0  1  0.25021600  0.24968200  0.24938900  1
  Ru  Ru1  1  0.74757600  0.74977100  0.74799800  1
  Ru  Ru2  1  0.74840500  0.75007700  0.25070500  1
  Ru  Ru3  1  0.25343300  0.25221600  0.74543000  1
  Ru  Ru4  1  0.49938900  0.00031800  0.00021600  1
  Ru  Ru5  1  0.99799800  0.50022900  0.49757600  1
  Ru  Ru6  1  0.99543000  0.99778400  0.00343300  1
  Ru  Ru7  1  0.50070500  0.49992300  0.49840500  1
  O  O0  1  0.24927800  0.91468800  0.99755000  1
  O  O1  1  0.75026800  0.41332400  0.49661000  1
  O  O2  1  0.24755000  0.33531200  0.99927800  1
  O  O3  1  0.74661000  0.83667600  0.50026800  1
  O  O4  1  0.55493000  0.62500000  0.30493000  1
  O  O5  1  0.03379100  0.12500000  0.78379100  1
  O  O6  1  0.95327300  0.62500000  0.70327300  1
  O  O7  1  0.44683500  0.12500000  0.19683500  1
  O  O8  1  0.55256100  0.62336300  0.70020400  1
  O  O9  1  0.04398900  0.13244400  0.18962600  1
  O  O10  1  0.95020400  0.62663700  0.30256100  1
  O  O11  1  0.43962600  0.11755600  0.79398900  1
  O  O12  1  0.74682900  0.06080800  0.01054800  1
  O  O13  1  0.24848500  0.57083500  0.49679000  1
  O  O14  1  0.74679000  0.67916500  0.99848500  1
  O  O15  1  0.26054800  0.18919200  0.49682900  1
  O  O16  1  0.44431500  0.38180300  0.70972800  1
  O  O17  1  0.95972800  0.86819700  0.19431600  1
  O  O18  1  0.03493600  0.37384100  0.28898800  1
  O  O19  1  0.53898800  0.87615900  0.78493600  1
  O  O20  1  0.45923300  0.37399700  0.28814700  1
  O  O21  1  0.95937200  0.87432800  0.78990300  1
  O  O22  1  0.03990300  0.37567200  0.70937200  1
  O  O23  1  0.53814700  0.87600300  0.20923300  1
  O  O24  1  0.75168500  0.34163500  0.99059500  1
  O  O25  1  0.24059500  0.90836500  0.50168500  1
  O  O26  1  0.24838100  0.62500000  0.99838100  1
loop_
_geom_bond_atom_site_label_1
_geom_bond_atom_site_label_2
_geom_bond_distance
_geom_bond_site_symmetry_2
Bi0 O26 2.307234 1_554
Bi0 O17 2.356131 1_455
Bi0 O25 2.362512 1_555
Bi0 O0 2.436799 1_554
Bi0 O23 2.488336 1_555
Bi0 O10 2.577285 1_455
Bi0 O13 2.673776 1_555
Bi0 O4 2.703051 1_555
Bi1 O24 2.231182 1_554
Bi1 O9 2.406107 1_655
Bi1 O18 2.414575 1_655
Bi1 O1 2.429886 1_555
Bi1 O20 2.573803 1_555
Bi1 O12 2.627385 1_555
Bi1 O7 2.649811 1_555
Bi2 O26 2.283038 1_555
Bi2 O25 2.390435 1_555
Bi2 O21 2.414119 1_455
Bi2 O0 2.448666 1_555
Bi2 O19 2.511124 1_555
Bi2 O6 2.529887 1_455
Bi2 O13 2.621688 1_555
Bi2 O8 2.642826 1_555
Bi3 O26 2.307234 1_555
Bi3 O16 2.356132 1_555
Bi3 O24 2.362512 1_555
Bi3 O2 2.436799 1_555
Bi3 O20 2.488336 1_556
Bi3 O8 2.577285 1_555
Bi3 O14 2.673776 1_555
Bi3 O4 2.703051 1_556
Bi4 O26 2.283038 1_655
Bi4 O24 2.390435 1_555
Bi4 O22 2.414119 1_655
Bi4 O2 2.448666 1_655
Bi4 O18 2.511124 1_656
Bi4 O6 2.529887 1_555
Bi4 O14 2.621688 1_555
Bi4 O10 2.642826 1_556
Bi5 O25 2.231182 1_545
Bi5 O11 2.406107 1_555
Bi5 O19 2.414575 1_545
Bi5 O3 2.429886 1_545
Bi5 O23 2.573803 1_545
Bi5 O15 2.627385 1_555
Bi5 O7 2.649811 1_555
O0 Ru4 2.030254 1_566
O0 Ru6 2.031054 1_456
O1 Ru7 2.017959 1_555
O1 Ru5 2.020538 1_555
O1 Zn0 2.574164 1_555
O2 Ru0 2.030254 1_556
O2 Ru3 2.031054 1_555
O3 Ru2 2.017959 1_555
O3 Ru1 2.020538 1_555
O3 Zn1 2.574164 1_665
O4 Ru2 1.960674 1_555
O4 Ru7 1.960674 1_555
O5 Zn1 2.073360 1_555
O5 Zn0 2.073360 1_455
O5 Ru6 2.097319 1_446
O5 Ru3 2.097319 1_555
O6 Ru1 1.991981 1_555
O6 Ru5 1.991981 1_555
O7 Ru0 1.952636 1_555
O7 Ru4 1.952636 1_555
O8 Ru1 1.964563 1_555
O8 Ru7 1.974536 1_555
O9 Ru6 1.966933 1_445
O9 Ru0 1.981454 1_555
O10 Ru5 1.964563 1_555
O10 Ru2 1.974536 1_555
O11 Ru3 1.966933 1_555
O11 Ru4 1.981454 1_556
O12 Ru4 1.912343 1_555
O12 Ru6 1.918550 1_545
O13 Ru5 1.969136 1_455
O13 Ru7 1.970926 1_555
O14 Ru1 1.969136 1_555
O14 Ru2 1.970926 1_556
O15 Ru0 1.912343 1_555
O15 Ru3 1.918550 1_555
O16 Ru3 1.955266 1_555
O16 Ru7 2.015089 1_555
O17 Ru6 1.955271 1_555
O17 Ru2 2.015087 1_555
O18 Ru5 2.010250 1_455
O18 Ru0 2.035209 1_555
O19 Ru1 2.010250 1_555
O19 Ru4 2.035209 1_566
O20 Ru0 2.016247 1_555
O20 Ru7 2.023596 1_555
O21 Ru6 2.019875 1_556
O21 Ru1 2.036418 1_555
O21 Zn1 2.162258 1_665
O22 Ru3 2.019875 1_555
O22 Ru5 2.036418 1_455
O22 Zn0 2.162258 1_455
O23 Ru4 2.016247 1_565
O23 Ru2 2.023596 1_555
O24 Zn0 2.009763 1_555
O25 Zn1 2.009763 1_565
