# generated using pymatgen
data_BaPd(SeO3)2
_symmetry_space_group_name_H-M   'P 1'
_cell_length_a   4.92731614
_cell_length_b   4.92731614
_cell_length_c   16.26155698
_cell_angle_alpha   88.70161817
_cell_angle_beta   88.70161817
_cell_angle_gamma   65.25916892
_symmetry_Int_Tables_number   1
_chemical_formula_structural   BaPd(SeO3)2
_chemical_formula_sum   'Ba2 Pd2 Se4 O12'
_cell_volume   358.43638273
_cell_formula_units_Z   2
loop_
 _symmetry_equiv_pos_site_id
 _symmetry_equiv_pos_as_xyz
  1  'x, y, z'
loop_
 _atom_site_type_symbol
 _atom_site_label
 _atom_site_symmetry_multiplicity
 _atom_site_fract_x
 _atom_site_fract_y
 _atom_site_fract_z
 _atom_site_occupancy
  Ba  Ba0  1  0.47549900  0.52450100  0.75000000  1
  Ba  Ba1  1  0.52450100  0.47549900  0.25000000  1
  Pd  Pd0  1  0.50000000  0.50000000  0.50000000  1
  Pd  Pd1  1  0.50000000  0.50000000  0.00000000  1
  Se  Se0  1  0.87664000  0.86215500  0.59331800  1
  Se  Se1  1  0.13784500  0.12336000  0.90668200  1
  Se  Se2  1  0.12336000  0.13784500  0.40668200  1
  Se  Se3  1  0.86215500  0.87664000  0.09331800  1
  O  O0  1  0.87031000  0.77301800  0.69473900  1
  O  O1  1  0.22698200  0.12969000  0.80526100  1
  O  O2  1  0.12969000  0.22698200  0.30526100  1
  O  O3  1  0.77301800  0.87031000  0.19473900  1
  O  O4  1  0.24995000  0.82262500  0.58200700  1
  O  O5  1  0.17737500  0.75005000  0.91799300  1
  O  O6  1  0.75005000  0.17737500  0.41799300  1
  O  O7  1  0.82262500  0.24995000  0.08200700  1
  O  O8  1  0.69642400  0.25349500  0.60145700  1
  O  O9  1  0.74650500  0.30357600  0.89854300  1
  O  O10  1  0.30357600  0.74650500  0.39854300  1
  O  O11  1  0.25349500  0.69642400  0.10145700  1
loop_
_geom_bond_atom_site_label_1
_geom_bond_atom_site_label_2
_geom_bond_distance
_geom_bond_site_symmetry_2
Ba0 O9 2.759209 1_555
Ba0 O8 2.759209 1_555
Ba0 O0 2.820680 1_555
Ba0 O1 2.820680 1_555
Ba0 O0 2.866050 1_455
Ba0 O1 2.866050 1_565
Ba0 O5 3.073282 1_555
Ba0 O4 3.073282 1_555
Ba1 O10 2.759209 1_555
Ba1 O11 2.759209 1_555
Ba1 O2 2.820680 1_555
Ba1 O3 2.820680 1_555
Ba1 O3 2.866050 1_545
Ba1 O2 2.866050 1_655
Ba1 O7 3.073282 1_555
Ba1 O6 3.073282 1_555
O0 Se0 1.700074 1_555
O1 Se1 1.700074 1_555
O2 Se2 1.700074 1_555
O3 Se3 1.700074 1_555
O4 Se0 1.772463 1_455
O4 Pd0 2.050773 1_555
O5 Se1 1.772463 1_565
O5 Pd1 2.050773 1_556
O6 Se2 1.772463 1_655
O6 Pd0 2.050773 1_555
O7 Se3 1.772463 1_545
O7 Pd1 2.050773 1_555
O8 Se0 1.759895 1_545
O8 Pd0 2.032628 1_555
O9 Se1 1.759895 1_655
O9 Pd1 2.032628 1_556
O10 Se2 1.759895 1_565
O10 Pd0 2.032628 1_555
O11 Se3 1.759895 1_455
O11 Pd1 2.032628 1_555
