# generated using pymatgen
data_Zn4Sn5(TeO6)3
_symmetry_space_group_name_H-M   'P 1'
_cell_length_a   9.19242959
_cell_length_b   9.19242959
_cell_length_c   11.31760892
_cell_angle_alpha   89.35410744
_cell_angle_beta   89.35410744
_cell_angle_gamma   60.92830126
_symmetry_Int_Tables_number   1
_chemical_formula_structural   Zn4Sn5(TeO6)3
_chemical_formula_sum   'Zn8 Sn10 Te6 O36'
_cell_volume   835.78722416
_cell_formula_units_Z   2
loop_
 _symmetry_equiv_pos_site_id
 _symmetry_equiv_pos_as_xyz
  1  'x, y, z'
loop_
 _atom_site_type_symbol
 _atom_site_label
 _atom_site_symmetry_multiplicity
 _atom_site_fract_x
 _atom_site_fract_y
 _atom_site_fract_z
 _atom_site_occupancy
  Zn  Zn0  1  0.44724000  0.14716700  0.32333700  1
  Zn  Zn1  1  0.42122500  0.52315400  0.20836700  1
  Zn  Zn2  1  0.85283300  0.55276000  0.67666300  1
  Zn  Zn3  1  0.47684600  0.57877500  0.79163300  1
  Zn  Zn4  1  0.12850100  0.81811100  0.70723500  1
  Zn  Zn5  1  0.75278900  0.84023100  0.82199500  1
  Zn  Zn6  1  0.15976900  0.24721100  0.17800500  1
  Zn  Zn7  1  0.18188900  0.87149900  0.29276500  1
  Sn  Sn0  1  0.50601200  0.19773100  0.00112700  1
  Sn  Sn1  1  0.80188600  0.90228800  0.49583600  1
  Sn  Sn2  1  0.69495600  0.63784800  0.30918700  1
  Sn  Sn3  1  0.24539900  0.08050300  0.80113800  1
  Sn  Sn4  1  0.36215200  0.30504400  0.69081300  1
  Sn  Sn5  1  0.99472000  0.00528000  0.00000000  1
  Sn  Sn6  1  0.62330500  0.37669500  0.50000000  1
  Sn  Sn7  1  0.91949700  0.75460100  0.19886200  1
  Sn  Sn8  1  0.09771200  0.19811400  0.50416400  1
  Sn  Sn9  1  0.80226900  0.49398800  0.99887300  1
  Te  Te0  1  0.16070700  0.53754400  0.95478500  1
  Te  Te1  1  0.80329200  0.20016500  0.24189700  1
  Te  Te2  1  0.79983500  0.19670800  0.75810300  1
  Te  Te3  1  0.14529400  0.55380300  0.45721100  1
  Te  Te4  1  0.44619700  0.85470600  0.54278900  1
  Te  Te5  1  0.46245600  0.83929300  0.04521500  1
  O  O0  1  0.86669100  0.58777600  0.85158100  1
  O  O1  1  0.58585300  0.29636900  0.86220300  1
  O  O2  1  0.38803500  0.46018700  0.56118400  1
  O  O3  1  0.86114600  0.30405900  0.43011700  1
  O  O4  1  0.70363100  0.41414700  0.13779700  1
  O  O5  1  0.69594100  0.13885400  0.56988300  1
  O  O6  1  0.19463500  0.64329300  0.30518500  1
  O  O7  1  0.91658300  0.94369300  0.83618600  1
  O  O8  1  0.68918200  0.44725900  0.67638500  1
  O  O9  1  0.59875900  0.92872500  0.39507200  1
  O  O10  1  0.36274200  0.45486600  0.05702200  1
  O  O11  1  0.01049100  0.45327900  0.09464500  1
  O  O12  1  0.03545900  0.09539400  0.65946800  1
  O  O13  1  0.26538500  0.29937200  0.92213600  1
  O  O14  1  0.54513400  0.63725800  0.94297800  1
  O  O15  1  0.41029600  0.74810000  0.19701100  1
  O  O16  1  0.23840200  0.93995200  0.44587600  1
  O  O17  1  0.70062800  0.73461500  0.07786400  1
  O  O18  1  0.53981300  0.61196500  0.43881600  1
  O  O19  1  0.06004800  0.76159800  0.55412400  1
  O  O20  1  0.19553000  0.25868300  0.35271600  1
  O  O21  1  0.34358900  0.09677600  0.57316700  1
  O  O22  1  0.05630700  0.08341700  0.16381400  1
  O  O23  1  0.25190000  0.58970400  0.80298900  1
  O  O24  1  0.22132900  0.92626600  0.92921300  1
  O  O25  1  0.90655600  0.24460400  0.90913000  1
  O  O26  1  0.54672100  0.98950900  0.90535500  1
  O  O27  1  0.35670700  0.80536500  0.69481500  1
  O  O28  1  0.90460600  0.96454100  0.34053200  1
  O  O29  1  0.90322400  0.65641100  0.42683300  1
  O  O30  1  0.74131700  0.80447000  0.64728400  1
  O  O31  1  0.75539600  0.09344400  0.09087000  1
  O  O32  1  0.55274100  0.31081800  0.32361500  1
  O  O33  1  0.07127500  0.40124100  0.60492800  1
  O  O34  1  0.07373400  0.77867100  0.07078700  1
  O  O35  1  0.41222400  0.13330900  0.14841900  1
loop_
_geom_bond_atom_site_label_1
_geom_bond_atom_site_label_2
_geom_bond_distance
_geom_bond_site_symmetry_2
O0 Zn2 2.024540 1_555
O0 Zn5 2.054992 1_555
O0 Sn9 2.077101 1_555
O1 Te2 2.077825 1_555
O1 Sn0 2.102723 1_556
O1 Zn3 2.413405 1_555
O2 Sn6 2.027555 1_555
O2 Sn4 2.125454 1_555
O2 Te3 2.296643 1_555
O3 Sn8 2.084293 1_655
O3 Sn6 2.098973 1_555
O3 Te1 2.509518 1_555
O4 Te1 2.077825 1_555
O4 Sn9 2.102723 1_554
O4 Zn1 2.413405 1_555
O5 Sn1 2.084293 1_545
O5 Sn6 2.098973 1_555
O5 Te2 2.509518 1_555
O6 Te3 2.038602 1_555
O6 Zn7 2.046700 1_555
O6 Zn1 2.121130 1_555
O6 Sn7 2.533311 1_455
O7 Zn5 2.144263 1_555
O7 Sn5 2.173138 1_566
O7 Te2 2.211673 1_565
O7 Zn4 2.246302 1_655
O8 Zn2 2.149789 1_555
O8 Zn3 2.158157 1_555
O8 Te2 2.211584 1_555
O8 Sn6 2.282693 1_555
O9 Zn0 1.975345 1_565
O9 Sn1 2.108771 1_555
O9 Te4 2.464442 1_555
O9 Sn2 2.572499 1_555
O10 Zn1 1.997479 1_555
O10 Te0 2.005627 1_554
O10 Sn0 2.170583 1_555
O11 Zn6 1.955540 1_555
O11 Sn9 2.078485 1_454
O11 Te0 2.444339 1_554
O11 Sn7 2.750080 1_455
O12 Sn8 2.184835 1_555
O12 Te2 2.193964 1_455
O12 Zn4 2.319798 1_545
O12 Sn3 2.474261 1_555
O13 Te0 1.954157 1_555
O13 Sn0 2.140614 1_556
O13 Sn3 2.526643 1_555
O14 Zn3 1.997479 1_555
O14 Te5 2.005627 1_556
O14 Sn9 2.170583 1_555
O15 Zn1 2.023568 1_555
O15 Te5 2.055140 1_555
O15 Zn7 2.128712 1_555
O15 Sn2 2.637197 1_555
O16 Zn7 2.007772 1_555
O16 Te4 2.009715 1_555
O16 Sn8 2.184716 1_565
O17 Te5 1.954157 1_555
O17 Sn9 2.140614 1_554
O17 Sn7 2.526643 1_555
O18 Sn6 2.027555 1_555
O18 Sn2 2.125454 1_555
O18 Te4 2.296643 1_555
O19 Zn4 2.007772 1_555
O19 Te3 2.009715 1_555
O19 Sn1 2.184716 1_455
O20 Zn6 2.020393 1_555
O20 Zn0 2.049508 1_555
O20 Sn8 2.118182 1_555
O21 Te4 1.982342 1_545
O21 Sn8 2.136226 1_555
O21 Sn4 2.418113 1_555
O22 Zn6 2.144263 1_555
O22 Sn5 2.173138 1_455
O22 Te1 2.211673 1_455
O22 Zn7 2.246302 1_545
O23 Zn3 2.023568 1_555
O23 Te0 2.055140 1_555
O23 Zn4 2.128712 1_555
O23 Sn4 2.637197 1_555
O24 Sn5 2.003440 1_466
O24 Sn3 2.100359 1_565
O24 Te5 2.365515 1_556
O25 Te2 2.133627 1_555
O25 Sn5 2.188481 1_556
O25 Sn9 2.258486 1_555
O26 Zn5 1.955540 1_555
O26 Sn0 2.078485 1_566
O26 Te5 2.444339 1_556
O26 Sn3 2.750080 1_565
O27 Te4 2.038602 1_555
O27 Zn4 2.046700 1_555
O27 Zn3 2.121130 1_555
O27 Sn3 2.533311 1_565
O28 Sn1 2.184835 1_555
O28 Te1 2.193964 1_565
O28 Zn7 2.319798 1_655
O28 Sn7 2.474261 1_555
O29 Te3 1.982342 1_655
O29 Sn1 2.136226 1_555
O29 Sn2 2.418113 1_555
O30 Zn5 2.020393 1_555
O30 Zn2 2.049508 1_555
O30 Sn1 2.118182 1_555
O31 Te1 2.133627 1_555
O31 Sn5 2.188481 1_555
O31 Sn0 2.258486 1_555
O32 Zn0 2.149789 1_555
O32 Zn1 2.158157 1_555
O32 Te1 2.211584 1_555
O32 Sn6 2.282693 1_555
O33 Zn2 1.975345 1_455
O33 Sn8 2.108771 1_555
O33 Te3 2.464442 1_555
O33 Sn4 2.572499 1_555
O34 Sn5 2.003440 1_465
O34 Sn7 2.100359 1_455
O34 Te0 2.365515 1_554
O35 Zn0 2.024540 1_555
O35 Zn6 2.054992 1_555
O35 Sn0 2.077101 1_555
