# generated using pymatgen
data_MgZn2(AsO4)2
_symmetry_space_group_name_H-M   'P 1'
_cell_length_a   8.58507100
_cell_length_b   5.35266700
_cell_length_c   9.02978875
_cell_angle_alpha   60.23532503
_cell_angle_beta   90.00000000
_cell_angle_gamma   90.00000000
_symmetry_Int_Tables_number   1
_chemical_formula_structural   MgZn2(AsO4)2
_chemical_formula_sum   'Mg2 Zn4 As4 O16'
_cell_volume   360.20297995
_cell_formula_units_Z   2
loop_
 _symmetry_equiv_pos_site_id
 _symmetry_equiv_pos_as_xyz
  1  'x, y, z'
loop_
 _atom_site_type_symbol
 _atom_site_label
 _atom_site_symmetry_multiplicity
 _atom_site_fract_x
 _atom_site_fract_y
 _atom_site_fract_z
 _atom_site_occupancy
  Mg  Mg0  1  0.00000000  0.00000000  0.00000000  1
  Mg  Mg1  1  0.50000000  0.00000000  0.50000000  1
  Zn  Zn0  1  0.36085300  0.98174400  0.11170900  1
  Zn  Zn1  1  0.63914700  0.01825600  0.88829100  1
  Zn  Zn2  1  0.86085300  0.01825600  0.38829100  1
  Zn  Zn3  1  0.13914700  0.98174400  0.61170900  1
  As  As0  1  0.69339000  0.64863200  0.30672500  1
  As  As1  1  0.30661000  0.35136800  0.69327500  1
  As  As2  1  0.19339000  0.35136800  0.19327500  1
  As  As3  1  0.80661000  0.64863200  0.80672500  1
  O  O0  1  0.63697000  0.72687500  0.46041200  1
  O  O1  1  0.36303000  0.27312500  0.53958800  1
  O  O2  1  0.13697000  0.27312500  0.03958800  1
  O  O3  1  0.86303000  0.72687500  0.96041200  1
  O  O4  1  0.56716200  0.79330800  0.13590500  1
  O  O5  1  0.43283800  0.20669200  0.86409500  1
  O  O6  1  0.06716200  0.20669200  0.36409500  1
  O  O7  1  0.93283800  0.79330800  0.63590500  1
  O  O8  1  0.87174400  0.82329200  0.24509000  1
  O  O9  1  0.12825600  0.17670800  0.75491000  1
  O  O10  1  0.37174400  0.17670800  0.25491000  1
  O  O11  1  0.62825600  0.82329200  0.74509000  1
  O  O12  1  0.69647500  0.28422600  0.38449500  1
  O  O13  1  0.30352500  0.71577400  0.61550500  1
  O  O14  1  0.19647500  0.71577400  0.11550500  1
  O  O15  1  0.80352500  0.28422600  0.88449500  1
loop_
_geom_bond_atom_site_label_1
_geom_bond_atom_site_label_2
_geom_bond_distance
_geom_bond_site_symmetry_2
Mg0 O3 2.041248 1_444
Mg0 O2 2.041248 1_555
Mg0 O15 2.161492 1_454
Mg0 O14 2.161492 1_545
Mg0 O8 2.219576 1_445
Mg0 O9 2.219576 1_554
Mg1 O1 2.041248 1_555
Mg1 O0 2.041248 1_545
Mg1 O12 2.161492 1_555
Mg1 O13 2.161492 1_545
Mg1 O10 2.219576 1_555
Mg1 O11 2.219576 1_545
As0 O0 1.706740 1_555
As0 O12 1.714196 1_555
As0 O4 1.722579 1_555
As0 O8 1.735421 1_555
As1 O1 1.706740 1_555
As1 O13 1.714196 1_555
As1 O5 1.722579 1_555
As1 O9 1.735421 1_555
As2 O2 1.706740 1_555
As2 O14 1.714196 1_555
As2 O6 1.722579 1_555
As2 O10 1.735421 1_555
As3 O3 1.706740 1_555
As3 O15 1.714196 1_555
As3 O7 1.722579 1_555
As3 O11 1.735421 1_555
O0 Zn2 2.354245 1_565
O1 Zn3 2.354245 1_545
O2 Zn0 2.354245 1_545
O3 Zn1 2.354245 1_565
O4 Zn0 1.995833 1_555
O4 Zn1 2.039106 1_564
O5 Zn1 1.995833 1_555
O5 Zn0 2.039106 1_546
O6 Zn2 1.995833 1_455
O6 Zn3 2.039106 1_545
O7 Zn3 1.995833 1_655
O7 Zn2 2.039106 1_565
O8 Zn2 2.027227 1_565
O9 Zn3 2.027227 1_545
O10 Zn0 2.027227 1_545
O11 Zn1 2.027227 1_565
O12 Zn2 1.992731 1_555
O13 Zn3 1.992731 1_555
O14 Zn0 1.992731 1_555
O15 Zn1 1.992731 1_555
