# generated using pymatgen
data_ZnH13RuN5(Cl2O)2
_symmetry_space_group_name_H-M   'P 1'
_cell_length_a   8.13149400
_cell_length_b   9.19547986
_cell_length_c   9.64091200
_cell_angle_alpha   90.00000000
_cell_angle_beta   90.00000000
_cell_angle_gamma   116.24090114
_symmetry_Int_Tables_number   1
_chemical_formula_structural   ZnH13RuN5(Cl2O)2
_chemical_formula_sum   'Zn2 H26 Ru2 N10 Cl8 O4'
_cell_volume   646.58807644
_cell_formula_units_Z   2
loop_
 _symmetry_equiv_pos_site_id
 _symmetry_equiv_pos_as_xyz
  1  'x, y, z'
loop_
 _atom_site_type_symbol
 _atom_site_label
 _atom_site_symmetry_multiplicity
 _atom_site_fract_x
 _atom_site_fract_y
 _atom_site_fract_z
 _atom_site_occupancy
  Zn  Zn0  1  0.88902400  0.77804700  0.92029000  1
  Zn  Zn1  1  0.11097600  0.22195300  0.42029000  1
  H  H0  1  0.46615800  0.93231600  0.90634900  1
  H  H1  1  0.53384200  0.06768400  0.40634900  1
  H  H2  1  0.86557700  0.16580700  0.67301500  1
  H  H3  1  0.30023000  0.16580700  0.67301500  1
  H  H4  1  0.13442300  0.83419300  0.17301500  1
  H  H5  1  0.69977000  0.83419300  0.17301500  1
  H  H6  1  0.73988900  0.00228000  0.76437700  1
  H  H7  1  0.26239100  0.00228000  0.76437700  1
  H  H8  1  0.26011100  0.99772000  0.26437700  1
  H  H9  1  0.73760900  0.99772000  0.26437700  1
  H  H10  1  0.66049000  0.03323300  0.61449500  1
  H  H11  1  0.37274300  0.03323300  0.61449500  1
  H  H12  1  0.33951000  0.96676700  0.11449500  1
  H  H13  1  0.62725700  0.96676700  0.11449500  1
  H  H14  1  0.94990100  0.42923100  0.89775200  1
  H  H15  1  0.47933000  0.42923100  0.89775200  1
  H  H16  1  0.05009900  0.57076900  0.39775200  1
  H  H17  1  0.52067000  0.57076900  0.39775200  1
  H  H18  1  0.82723100  0.35127500  0.03787400  1
  H  H19  1  0.52404500  0.35127500  0.03787400  1
  H  H20  1  0.17276900  0.64872500  0.53787400  1
  H  H21  1  0.47595500  0.64872500  0.53787400  1
  H  H22  1  0.90770500  0.24263700  0.94966600  1
  H  H23  1  0.33493200  0.24263700  0.94966600  1
  H  H24  1  0.09229500  0.75736300  0.44966600  1
  H  H25  1  0.66506800  0.75736300  0.44966600  1
  Ru  Ru0  1  0.60953600  0.21907100  0.81204500  1
  Ru  Ru1  1  0.39046400  0.78092900  0.31204500  1
  N  N0  1  0.68688600  0.37377100  0.68632300  1
  N  N1  1  0.31311400  0.62622900  0.18632300  1
  N  N2  1  0.73267000  0.09048400  0.70248600  1
  N  N3  1  0.35781400  0.09048400  0.70248600  1
  N  N4  1  0.26733000  0.90951600  0.20248600  1
  N  N5  1  0.64218600  0.90951600  0.20248600  1
  N  N6  1  0.85146100  0.32310800  0.93931500  1
  N  N7  1  0.47164700  0.32310800  0.93931500  1
  N  N8  1  0.14853900  0.67689200  0.43931500  1
  N  N9  1  0.52835300  0.67689200  0.43931500  1
  Cl  Cl0  1  0.61249600  0.70789200  0.81717500  1
  Cl  Cl1  1  0.09539600  0.70789200  0.81717500  1
  Cl  Cl2  1  0.38750400  0.29210800  0.31717500  1
  Cl  Cl3  1  0.90460400  0.29210800  0.31717500  1
  Cl  Cl4  1  0.02687800  0.05375500  0.96079500  1
  Cl  Cl5  1  0.97312200  0.94624500  0.46079500  1
  Cl  Cl6  1  0.82539100  0.65078200  0.13427300  1
  Cl  Cl7  1  0.17460900  0.34921800  0.63427300  1
  O  O0  1  0.73253400  0.46506900  0.59368400  1
  O  O1  1  0.26746600  0.53493100  0.09368400  1
  O  O2  1  0.51963900  0.03927900  0.95045200  1
  O  O3  1  0.48036100  0.96072100  0.45045200  1
loop_
_geom_bond_atom_site_label_1
_geom_bond_atom_site_label_2
_geom_bond_distance
_geom_bond_site_symmetry_2
H0 O2 0.979330 1_565
H1 O3 0.979330 1_545
H2 N2 1.032721 1_555
H3 N3 1.032721 1_555
H4 N4 1.032721 1_555
H5 N5 1.032721 1_555
H6 N2 1.029286 1_555
H7 N3 1.029286 1_555
H8 N4 1.029286 1_555
H9 N5 1.029286 1_555
H10 N2 1.033458 1_555
H11 N3 1.033458 1_555
H12 N4 1.033458 1_555
H13 N5 1.033458 1_555
H14 N6 1.030943 1_555
H15 N7 1.030943 1_555
H16 N8 1.030943 1_555
H17 N9 1.030943 1_555
H18 N6 1.026601 1_554
H19 N7 1.026603 1_554
H20 N8 1.026601 1_555
H21 N9 1.026603 1_555
H22 N6 1.032446 1_555
H23 N7 1.032446 1_555
H24 N8 1.032446 1_555
H25 N9 1.032446 1_555
N0 O0 1.168201 1_555
N0 Ru0 1.759870 1_555
N1 O1 1.168201 1_555
N1 Ru1 1.759870 1_555
N2 Ru0 2.136172 1_555
N3 Ru0 2.136178 1_555
N4 Ru1 2.136172 1_555
N5 Ru1 2.136178 1_555
N6 Ru0 2.150919 1_555
N7 Ru0 2.150925 1_555
N8 Ru1 2.150919 1_555
N9 Ru1 2.150925 1_555
Cl0 Zn0 2.275488 1_555
Cl1 Zn0 2.275481 1_455
Cl2 Zn1 2.275488 1_555
Cl3 Zn1 2.275481 1_655
Cl4 Zn0 2.307277 1_445
Cl5 Zn1 2.307277 1_665
Cl6 Zn0 2.314674 1_554
Cl7 Zn1 2.314674 1_555
O2 Ru0 1.994871 1_555
O3 Ru1 1.994871 1_555
