# generated using pymatgen
data_NdAs2Au
_symmetry_space_group_name_H-M   'P 1'
_cell_length_a   4.07473940
_cell_length_b   4.11873135
_cell_length_c   20.80356537
_cell_angle_alpha   90.00000000
_cell_angle_beta   90.00000000
_cell_angle_gamma   90.00000000
_symmetry_Int_Tables_number   1
_chemical_formula_structural   NdAs2Au
_chemical_formula_sum   'Nd4 As8 Au4'
_cell_volume   349.14118046
_cell_formula_units_Z   4
loop_
 _symmetry_equiv_pos_site_id
 _symmetry_equiv_pos_as_xyz
  1  'x, y, z'
loop_
 _atom_site_type_symbol
 _atom_site_label
 _atom_site_symmetry_multiplicity
 _atom_site_fract_x
 _atom_site_fract_y
 _atom_site_fract_z
 _atom_site_occupancy
  Nd  Nd0  1  0.25000000  0.22623586  0.11756852  1
  Nd  Nd1  1  0.75000000  0.72623586  0.38243148  1
  Nd  Nd2  1  0.25000000  0.27376414  0.61756852  1
  Nd  Nd3  1  0.75000000  0.77376414  0.88243148  1
  As  As0  1  0.25000000  0.69699676  0.00214579  1
  As  As1  1  0.75000000  0.72621758  0.16046822  1
  As  As2  1  0.25000000  0.22621758  0.33953178  1
  As  As3  1  0.75000000  0.19699676  0.49785421  1
  As  As4  1  0.25000000  0.80300324  0.50214579  1
  As  As5  1  0.75000000  0.77378242  0.66046822  1
  As  As6  1  0.25000000  0.27378242  0.83953178  1
  As  As7  1  0.75000000  0.30300324  0.99785421  1
  Au  Au0  1  0.75000000  0.22229609  0.25028012  1
  Au  Au1  1  0.25000000  0.72229609  0.24971988  1
  Au  Au2  1  0.75000000  0.27770391  0.75028012  1
  Au  Au3  1  0.25000000  0.77770391  0.74971988  1
loop_
_geom_bond_atom_site_label_1
_geom_bond_atom_site_label_2
_geom_bond_distance
_geom_bond_site_symmetry_2
As0 As7 2.606180 1_554
As0 As7 2.606180 1_454
As0 Nd0 3.086302 1_555
As0 Nd3 3.233166 1_554
As0 Nd3 3.233166 1_454
As0 Nd0 3.243036 1_565
As1 Au1 2.756568 1_555
As1 Au1 2.756568 1_655
As1 Au0 2.768695 1_565
As1 Au0 2.792619 1_555
As1 Nd0 3.031179 1_555
As1 Nd0 3.031179 1_655
As1 Nd0 3.031282 1_665
As1 Nd0 3.031282 1_565
As2 Au0 2.756568 1_455
As2 Au0 2.756568 1_555
As2 Au1 2.768695 1_555
As2 Au1 2.792619 1_545
As2 Nd1 3.031179 1_545
As2 Nd1 3.031179 1_445
As2 Nd1 3.031282 1_455
As2 Nd1 3.031282 1_555
As3 As4 2.606180 1_545
As3 As4 2.606180 1_645
As3 Nd1 3.086302 1_545
As3 Nd2 3.233166 1_555
As3 Nd2 3.233166 1_655
As3 Nd1 3.243036 1_555
As4 Nd2 3.086302 1_565
As4 Nd1 3.233166 1_555
As4 Nd1 3.233166 1_455
As4 Nd2 3.243036 1_555
As5 Au3 2.756568 1_555
As5 Au3 2.756568 1_655
As5 Au2 2.768695 1_555
As5 Au2 2.792619 1_565
As5 Nd2 3.031179 1_665
As5 Nd2 3.031179 1_565
As5 Nd2 3.031282 1_555
As5 Nd2 3.031282 1_655
As6 Au2 2.756568 1_455
As6 Au2 2.756568 1_555
As6 Au3 2.768695 1_545
As6 Au3 2.792619 1_555
As6 Nd3 3.031179 1_455
As6 Nd3 3.031179 1_555
As6 Nd3 3.031282 1_445
As6 Nd3 3.031282 1_545
As7 Nd3 3.086302 1_555
As7 Nd0 3.233166 1_656
As7 Nd0 3.233166 1_556
As7 Nd3 3.243036 1_545
Au0 Au1 2.896895 1_555
Au0 Au1 2.896895 1_655
Au0 Au1 2.896895 1_645
Au0 Au1 2.896895 1_545
Au0 Nd1 3.425292 1_545
Au0 Nd0 3.431263 1_655
Au0 Nd0 3.431263 1_555
Au0 Nd1 3.444748 1_555
Au1 Nd0 3.425292 1_555
Au1 Nd1 3.431263 1_555
Au1 Nd1 3.431263 1_455
Au1 Nd0 3.444748 1_565
Au2 Au3 2.896895 1_545
Au2 Au3 2.896895 1_645
Au2 Au3 2.896895 1_555
Au2 Au3 2.896895 1_655
Au2 Nd3 3.425292 1_555
Au2 Nd2 3.431263 1_655
Au2 Nd2 3.431263 1_555
Au2 Nd3 3.444748 1_545
Au3 Nd2 3.425292 1_565
Au3 Nd3 3.431263 1_455
Au3 Nd3 3.431263 1_555
Au3 Nd2 3.444748 1_555
