# generated using pymatgen
data_MgAl4(HO)12
_symmetry_space_group_name_H-M   'P 1'
_cell_length_a   7.12988043
_cell_length_b   8.21342829
_cell_length_c   7.55808058
_cell_angle_alpha   104.20167499
_cell_angle_beta   137.88013741
_cell_angle_gamma   98.47250759
_symmetry_Int_Tables_number   1
_chemical_formula_structural   MgAl4(HO)12
_chemical_formula_sum   'Mg1 Al4 H12 O12'
_cell_volume   248.13508093
_cell_formula_units_Z   1
loop_
 _symmetry_equiv_pos_site_id
 _symmetry_equiv_pos_as_xyz
  1  'x, y, z'
loop_
 _atom_site_type_symbol
 _atom_site_label
 _atom_site_symmetry_multiplicity
 _atom_site_fract_x
 _atom_site_fract_y
 _atom_site_fract_z
 _atom_site_occupancy
  Mg  Mg0  1  0.69858666  0.78535702  0.66873449  1
  Al  Al0  1  0.42315199  0.90508589  0.26186660  1
  Al  Al1  1  0.49875593  0.14971334  0.66590550  1
  Al  Al2  1  0.99555765  0.59944226  0.62061276  1
  Al  Al3  1  0.04991435  0.31058109  0.36397472  1
  H  H0  1  0.92157294  0.93759048  0.51167398  1
  H  H1  1  0.90010984  0.95146779  0.16531888  1
  H  H2  1  0.63951443  0.50491504  0.91957179  1
  H  H3  1  0.44647407  0.51648702  0.12735392  1
  H  H4  1  0.17785376  0.67105276  0.45761175  1
  H  H5  1  0.88135815  0.28882838  0.56813798  1
  H  H6  1  0.33837246  0.19164160  0.24844918  1
  H  H7  1  0.70900573  0.78411856  0.91385711  1
  H  H8  1  0.44762636  0.94528095  0.95038418  1
  H  H9  1  0.45105864  0.20768007  0.96597700  1
  H  H10  1  0.13679140  0.36429499  0.10613149  1
  H  H11  1  0.88592676  0.58138517  0.88156679  1
  O  O0  1  0.82638318  0.93894724  0.55909060  1
  O  O1  1  0.06341495  0.08538304  0.37015664  1
  O  O2  1  0.51655999  0.40704315  0.71705721  1
  O  O3  1  0.57163468  0.53892422  0.32975341  1
  O  O4  1  0.03360253  0.55781760  0.40059608  1
  O  O5  1  0.04513191  0.38698040  0.62810124  1
  O  O6  1  0.48779908  0.15123320  0.38628395  1
  O  O7  1  0.41618300  0.90020866  0.49667776  1
  O  O8  1  0.34229312  0.84847462  0.94688834  1
  O  O9  1  0.57677249  0.16356378  0.97639497  1
  O  O10  1  0.97805442  0.27108997  0.05374150  1
  O  O11  1  0.02422351  0.66645072  0.90388116  1
loop_
_geom_bond_atom_site_label_1
_geom_bond_atom_site_label_2
_geom_bond_distance
_geom_bond_site_symmetry_2
Mg0 O7 1.977979 1_555
Mg0 O0 2.098278 1_555
Mg0 O11 2.213915 1_655
Mg0 O3 2.226112 1_555
Al0 O0 1.807249 1_555
Al0 O7 1.821764 1_555
Al0 O6 1.825823 1_565
Al0 O8 1.886215 1_554
Al0 O11 1.894990 1_554
Al1 O7 1.850249 1_545
Al1 O1 1.885362 1_555
Al1 O9 1.934753 1_555
Al1 O10 1.991574 1_556
Al1 O2 2.019880 1_555
Al1 O6 2.059377 1_555
Al2 O8 1.835114 1_655
Al2 O4 1.836639 1_655
Al2 O5 1.836801 1_655
Al2 O3 1.838332 1_555
Al2 O11 1.915190 1_655
Al3 O1 1.876391 1_555
Al3 O10 1.913457 1_455
Al3 O9 1.955389 1_454
Al3 O2 1.957855 1_555
Al3 O5 1.967924 1_555
Al3 O4 2.013771 1_555
H0 O0 0.974822 1_555
H1 O1 1.036956 1_665
H1 H7 1.297167 1_554
H2 O2 0.977527 1_555
H3 O3 0.979041 1_555
H4 O4 0.986143 1_555
H5 O5 0.988466 1_655
H6 O6 0.978687 1_555
H7 Mg0 1.800905 1_555
H8 O8 0.990564 1_555
H9 O9 0.972572 1_555
H10 O10 0.977183 1_455
H11 O11 0.990628 1_655
