# generated using pymatgen
data_Ca(SnO2)2
_symmetry_space_group_name_H-M   'P 1'
_cell_length_a   6.93511880
_cell_length_b   6.93511880
_cell_length_c   6.93511866
_cell_angle_alpha   57.89297885
_cell_angle_beta   57.89297885
_cell_angle_gamma   57.89297938
_symmetry_Int_Tables_number   1
_chemical_formula_structural   Ca(SnO2)2
_chemical_formula_sum   'Ca2 Sn4 O8'
_cell_volume   224.44979289
_cell_formula_units_Z   2
loop_
 _symmetry_equiv_pos_site_id
 _symmetry_equiv_pos_as_xyz
  1  'x, y, z'
loop_
 _atom_site_type_symbol
 _atom_site_label
 _atom_site_symmetry_multiplicity
 _atom_site_fract_x
 _atom_site_fract_y
 _atom_site_fract_z
 _atom_site_occupancy
  Ca  Ca0  1  0.00421200  0.00421200  0.00421200  1
  Ca  Ca1  1  0.62521900  0.62521900  0.62521900  1
  Sn  Sn0  1  0.24536100  0.24536100  0.24536100  1
  Sn  Sn1  1  0.62601800  0.62601800  0.12177600  1
  Sn  Sn2  1  0.12177600  0.62601800  0.62601800  1
  Sn  Sn3  1  0.62601800  0.12177600  0.62601800  1
  O  O0  1  0.37695300  0.82682700  0.37695300  1
  O  O1  1  0.82682700  0.37695300  0.37695300  1
  O  O2  1  0.37695300  0.37695300  0.82682700  1
  O  O3  1  0.40017000  0.40017000  0.40017000  1
  O  O4  1  0.86055800  0.86055800  0.86055800  1
  O  O5  1  0.87008700  0.87008700  0.41976000  1
  O  O6  1  0.41976000  0.87008700  0.87008700  1
  O  O7  1  0.87008700  0.41976000  0.87008700  1
loop_
_geom_bond_atom_site_label_1
_geom_bond_atom_site_label_2
_geom_bond_distance
_geom_bond_site_symmetry_2
Ca0 O5 2.292664 1_445
Ca0 O6 2.292664 1_544
Ca0 O7 2.292664 1_454
Ca0 O4 2.478463 1_444
Ca1 O7 2.391479 1_555
Ca1 O6 2.391479 1_555
Ca1 O5 2.391479 1_555
Ca1 O1 2.432490 1_555
Ca1 O0 2.432490 1_555
Ca1 O2 2.432490 1_555
O0 Sn1 2.206389 1_555
O0 Sn2 2.206389 1_555
O0 Sn0 2.311794 1_565
O1 Sn1 2.206389 1_555
O1 Sn3 2.206389 1_555
O1 Sn0 2.311794 1_655
O2 Sn2 2.206389 1_555
O2 Sn3 2.206389 1_555
O2 Sn0 2.311794 1_556
O3 Sn1 2.193807 1_555
O3 Sn2 2.193807 1_555
O3 Sn3 2.193807 1_555
O3 Sn0 2.670920 1_555
O4 Sn3 2.262969 1_565
O4 Sn2 2.262969 1_655
O4 Sn1 2.262969 1_556
O5 Sn3 2.213056 1_565
O5 Sn2 2.213056 1_655
O6 Sn1 2.213056 1_556
O6 Sn3 2.213056 1_565
O7 Sn1 2.213056 1_556
O7 Sn2 2.213056 1_655
