# generated using pymatgen
data_TbMgNi
_symmetry_space_group_name_H-M   'P 1'
_cell_length_a   9.04785653
_cell_length_b   9.04785653
_cell_length_c   3.94678720
_cell_angle_alpha   90.00000000
_cell_angle_beta   90.00000000
_cell_angle_gamma   156.89314931
_symmetry_Int_Tables_number   1
_chemical_formula_structural   TbMgNi
_chemical_formula_sum   'Tb2 Mg2 Ni2'
_cell_volume   126.79911994
_cell_formula_units_Z   2
loop_
 _symmetry_equiv_pos_site_id
 _symmetry_equiv_pos_as_xyz
  1  'x, y, z'
loop_
 _atom_site_type_symbol
 _atom_site_label
 _atom_site_symmetry_multiplicity
 _atom_site_fract_x
 _atom_site_fract_y
 _atom_site_fract_z
 _atom_site_occupancy
  Tb  Tb0  1  0.58675992  0.41324008  0.75000000  1
  Tb  Tb1  1  0.41324008  0.58675992  0.25000000  1
  Mg  Mg0  1  0.79623222  0.20376778  0.75000000  1
  Mg  Mg1  1  0.20376778  0.79623222  0.25000000  1
  Ni  Ni0  1  0.95787548  0.04212452  0.75000000  1
  Ni  Ni1  1  0.04212452  0.95787548  0.25000000  1
loop_
_geom_bond_atom_site_label_1
_geom_bond_atom_site_label_2
_geom_bond_distance
_geom_bond_site_symmetry_2
Mg0 Ni0 2.865784 1_555
Mg1 Ni1 2.865784 1_555
Ni0 Ni1 2.474933 1_645
Ni0 Ni1 2.474933 1_646
Ni0 Tb1 2.793615 1_545
Ni0 Tb1 2.793615 1_656
Ni0 Tb1 2.793615 1_655
Ni0 Tb1 2.793615 1_546
Ni0 Tb0 2.916334 1_655
Ni0 Tb0 2.916334 1_545
Ni1 Tb0 2.793615 1_454
Ni1 Tb0 2.793615 1_455
Ni1 Tb0 2.793615 1_564
Ni1 Tb0 2.793615 1_565
Ni1 Tb1 2.916334 1_455
Ni1 Tb1 2.916334 1_565
