# generated using pymatgen
data_MgP2WO7
_symmetry_space_group_name_H-M   'P 1'
_cell_length_a   5.57943500
_cell_length_b   6.68262987
_cell_length_c   8.00382738
_cell_angle_alpha   99.66607744
_cell_angle_beta   88.60348680
_cell_angle_gamma   108.68244114
_symmetry_Int_Tables_number   1
_chemical_formula_structural   MgP2WO7
_chemical_formula_sum   'Mg2 P4 W2 O14'
_cell_volume   278.54887997
_cell_formula_units_Z   2
loop_
 _symmetry_equiv_pos_site_id
 _symmetry_equiv_pos_as_xyz
  1  'x, y, z'
loop_
 _atom_site_type_symbol
 _atom_site_label
 _atom_site_symmetry_multiplicity
 _atom_site_fract_x
 _atom_site_fract_y
 _atom_site_fract_z
 _atom_site_occupancy
  Mg  Mg0  1  0.65568400  0.66076500  0.37266700  1
  Mg  Mg1  1  0.34431600  0.33923500  0.62733300  1
  P  P0  1  0.82841900  0.67189300  0.88118000  1
  P  P1  1  0.17158100  0.32810700  0.11882000  1
  P  P2  1  0.79609800  0.21585100  0.38917100  1
  P  P3  1  0.20390200  0.78414900  0.61082900  1
  W  W0  1  0.70599800  0.14828600  0.82794400  1
  W  W1  1  0.29400200  0.85171400  0.17205600  1
  O  O0  1  0.91120100  0.69479300  0.06608000  1
  O  O1  1  0.08879900  0.30520700  0.93392000  1
  O  O2  1  0.73095700  0.84227800  0.83929700  1
  O  O3  1  0.26904300  0.15772200  0.16070300  1
  O  O4  1  0.63167100  0.44851700  0.81757100  1
  O  O5  1  0.36832900  0.55148300  0.18242900  1
  O  O6  1  0.38446200  0.65460300  0.55452700  1
  O  O7  1  0.61553800  0.34539700  0.44547300  1
  O  O8  1  0.00066600  0.23768600  0.51803300  1
  O  O9  1  0.99933400  0.76231400  0.48196700  1
  O  O10  1  0.91808400  0.32196500  0.22559400  1
  O  O11  1  0.34713800  0.02533900  0.67730200  1
  O  O12  1  0.65286200  0.97466100  0.32269800  1
  O  O13  1  0.08191600  0.67803500  0.77440600  1
loop_
_geom_bond_atom_site_label_1
_geom_bond_atom_site_label_2
_geom_bond_distance
_geom_bond_site_symmetry_2
Mg0 O9 1.987703 1_555
Mg0 O6 2.069592 1_555
Mg0 O5 2.101835 1_555
Mg0 O12 2.205342 1_555
Mg0 O7 2.221456 1_555
Mg1 O8 1.987703 1_555
Mg1 O7 2.069592 1_555
Mg1 O4 2.101835 1_555
Mg1 O11 2.205342 1_555
Mg1 O6 2.221456 1_555
O0 P0 1.529333 1_554
O0 W1 2.176136 1_655
O1 P1 1.529333 1_556
O1 W0 2.176136 1_455
O2 P0 1.496080 1_555
O2 W0 2.110658 1_565
O3 P1 1.496080 1_555
O3 W1 2.110658 1_545
O4 P0 1.553947 1_555
O4 W0 2.189725 1_555
O5 P1 1.553947 1_555
O5 W1 2.189725 1_555
O6 P3 1.540459 1_555
O7 P2 1.540459 1_555
O8 P2 1.512592 1_455
O9 P3 1.512592 1_655
O10 P2 1.624604 1_555
O10 P1 1.627311 1_655
O11 P3 1.557927 1_545
O11 W0 2.206546 1_555
O12 P2 1.557927 1_565
O12 W1 2.206546 1_555
O13 P3 1.624604 1_555
O13 P0 1.627311 1_455
