# generated using pymatgen
data_Ta3Cr8Si
_symmetry_space_group_name_H-M   'P 1'
_cell_length_a   4.84607830
_cell_length_b   4.84607830
_cell_length_c   7.95610200
_cell_angle_alpha   90.00000000
_cell_angle_beta   90.00000000
_cell_angle_gamma   120.00000406
_symmetry_Int_Tables_number   1
_chemical_formula_structural   Ta3Cr8Si
_chemical_formula_sum   'Ta3 Cr8 Si1'
_cell_volume   161.81240380
_cell_formula_units_Z   1
loop_
 _symmetry_equiv_pos_site_id
 _symmetry_equiv_pos_as_xyz
  1  'x, y, z'
loop_
 _atom_site_type_symbol
 _atom_site_label
 _atom_site_symmetry_multiplicity
 _atom_site_fract_x
 _atom_site_fract_y
 _atom_site_fract_z
 _atom_site_occupancy
  Ta  Ta0  1  0.33333300  0.66666700  0.44316500  1
  Ta  Ta1  1  0.33333300  0.66666700  0.06012200  1
  Ta  Ta2  1  0.66666700  0.33333300  0.93315600  1
  Cr  Cr0  1  0.00000000  0.00000000  0.50010700  1
  Cr  Cr1  1  0.00000000  0.00000000  0.00080500  1
  Cr  Cr2  1  0.16935900  0.33871800  0.74667800  1
  Cr  Cr3  1  0.16935900  0.83064100  0.74667800  1
  Cr  Cr4  1  0.66128200  0.83064100  0.74667800  1
  Cr  Cr5  1  0.82861000  0.65722000  0.25306200  1
  Cr  Cr6  1  0.82861000  0.17139000  0.25306200  1
  Cr  Cr7  1  0.34278000  0.17139000  0.25306200  1
  Si  Si0  1  0.66666700  0.33333300  0.56343300  1
loop_
_geom_bond_atom_site_label_1
_geom_bond_atom_site_label_2
_geom_bond_distance
_geom_bond_site_symmetry_2
Ta0 Ta1 3.047529 1_555
Ta1 Ta2 2.974652 1_454
Ta1 Ta2 2.974652 1_564
Ta1 Ta2 2.974660 1_554
Cr0 Cr2 2.422647 1_555
Cr0 Cr4 2.422647 1_445
Cr0 Cr3 2.422647 1_545
Cr0 Cr7 2.435731 1_555
Cr0 Cr5 2.435731 1_445
Cr0 Cr6 2.435731 1_455
Cr0 Ta0 2.834323 1_545
Cr0 Ta0 2.834327 1_445
Cr0 Ta0 2.834327 1_555
Cr0 Si0 2.842883 1_455
Cr0 Si0 2.842887 1_445
Cr0 Si0 2.842887 1_555
Cr1 Cr7 2.469315 1_555
Cr1 Cr5 2.469315 1_445
Cr1 Cr6 2.469315 1_455
Cr1 Cr2 2.471578 1_554
Cr1 Cr4 2.471578 1_444
Cr1 Cr3 2.471578 1_544
Cr1 Ta1 2.837404 1_545
Cr1 Ta1 2.837408 1_555
Cr1 Ta1 2.837408 1_445
Cr1 Ta2 2.849180 1_454
Cr1 Ta2 2.849184 1_444
Cr1 Ta2 2.849184 1_554
Cr2 Cr4 2.383897 1_555
Cr2 Cr3 2.383897 1_555
Cr2 Cr4 2.462181 1_445
Cr2 Cr3 2.462181 1_545
Cr2 Ta0 2.779477 1_555
Cr2 Si0 2.827921 1_455
Cr2 Si0 2.827925 1_555
Cr2 Ta2 2.841267 1_455
Cr2 Ta2 2.841271 1_555
Cr2 Ta1 2.848390 1_556
Cr3 Cr4 2.383897 1_555
Cr3 Cr4 2.462181 1_455
Cr3 Ta0 2.779475 1_555
Cr3 Si0 2.827923 1_455
Cr3 Si0 2.827923 1_565
Cr3 Ta2 2.841269 1_455
Cr3 Ta2 2.841269 1_565
Cr3 Ta1 2.848388 1_556
Cr4 Ta0 2.779477 1_555
Cr4 Si0 2.827921 1_565
Cr4 Si0 2.827925 1_555
Cr4 Ta2 2.841267 1_565
Cr4 Ta2 2.841271 1_555
Cr4 Ta1 2.848390 1_556
Cr5 Cr7 2.354370 1_555
Cr5 Cr6 2.354370 1_555
Cr5 Cr7 2.491708 1_665
Cr5 Cr6 2.491708 1_565
Cr5 Si0 2.818749 1_555
Cr5 Ta0 2.856619 1_655
Cr5 Ta0 2.856623 1_555
Cr5 Ta1 2.868634 1_655
Cr5 Ta1 2.868638 1_555
Cr5 Ta2 2.885439 1_554
Cr6 Cr7 2.354370 1_555
Cr6 Cr7 2.491708 1_655
Cr6 Si0 2.818747 1_555
Cr6 Ta0 2.856621 1_545
Cr6 Ta0 2.856621 1_655
Cr6 Ta1 2.868635 1_655
Cr6 Ta1 2.868635 1_545
Cr6 Ta2 2.885437 1_554
Cr7 Si0 2.818749 1_555
Cr7 Ta0 2.856619 1_545
Cr7 Ta0 2.856623 1_555
Cr7 Ta1 2.868634 1_545
Cr7 Ta1 2.868638 1_555
Cr7 Ta2 2.885439 1_554
Si0 Ta2 2.941554 1_555
Si0 Ta0 2.956980 1_545
Si0 Ta0 2.956980 1_655
Si0 Ta0 2.956988 1_555
