# generated using pymatgen
data_Ce4Al16Ni4C3
_symmetry_space_group_name_H-M   'P 1'
_cell_length_a   3.55015900
_cell_length_b   7.75341100
_cell_length_c   15.91497300
_cell_angle_alpha   90.00000000
_cell_angle_beta   90.00000000
_cell_angle_gamma   90.00000000
_symmetry_Int_Tables_number   1
_chemical_formula_structural   Ce4Al16Ni4C3
_chemical_formula_sum   'Ce4 Al16 Ni4 C3'
_cell_volume   438.07302972
_cell_formula_units_Z   1
loop_
 _symmetry_equiv_pos_site_id
 _symmetry_equiv_pos_as_xyz
  1  'x, y, z'
loop_
 _atom_site_type_symbol
 _atom_site_label
 _atom_site_symmetry_multiplicity
 _atom_site_fract_x
 _atom_site_fract_y
 _atom_site_fract_z
 _atom_site_occupancy
  Ce  Ce0  1  0.50000000  0.75000000  0.38732100  1
  Ce  Ce1  1  0.00000000  0.75000000  0.88069200  1
  Ce  Ce2  1  0.00000000  0.25000000  0.10729200  1
  Ce  Ce3  1  0.50000000  0.25000000  0.60720200  1
  Al  Al0  1  0.50000000  0.55599200  0.18545700  1
  Al  Al1  1  0.00000000  0.54943700  0.68827100  1
  Al  Al2  1  0.00000000  0.44951300  0.30616200  1
  Al  Al3  1  0.50000000  0.44820600  0.81038500  1
  Al  Al4  1  0.50000000  0.94400800  0.18545700  1
  Al  Al5  1  0.00000000  0.95056300  0.68827100  1
  Al  Al6  1  0.00000000  0.05048700  0.30616200  1
  Al  Al7  1  0.50000000  0.05179400  0.81038500  1
  Al  Al8  1  0.50000000  0.51552000  0.99693900  1
  Al  Al9  1  0.00000000  0.50000800  0.49822400  1
  Al  Al10  1  0.50000000  0.98448000  0.99693900  1
  Al  Al11  1  0.00000000  0.99999200  0.49822400  1
  Al  Al12  1  0.00000000  0.75000000  0.07876200  1
  Al  Al13  1  0.50000000  0.75000000  0.57977500  1
  Al  Al14  1  0.50000000  0.25000000  0.41445700  1
  Al  Al15  1  0.00000000  0.25000000  0.91894400  1
  Ni  Ni0  1  0.00000000  0.75000000  0.23262200  1
  Ni  Ni1  1  0.50000000  0.75000000  0.73206300  1
  Ni  Ni2  1  0.50000000  0.25000000  0.26134600  1
  Ni  Ni3  1  0.00000000  0.25000000  0.76853600  1
  C  C0  1  0.00000000  0.75000000  0.50297900  1
  C  C1  1  0.00000000  0.25000000  0.49103800  1
  C  C2  1  0.50000000  0.25000000  0.99409800  1
loop_
_geom_bond_atom_site_label_1
_geom_bond_atom_site_label_2
_geom_bond_distance
_geom_bond_site_symmetry_2
Ce0 Ni0 3.035210 1_555
Ce0 Ni0 3.035210 1_655
Ce1 Ni1 2.957389 1_555
Ce1 Ni1 2.957389 1_455
Ce2 Ni2 3.026890 1_555
Ce2 Ni2 3.026890 1_455
Ce3 Ni3 3.121476 1_555
Ce3 Ni3 3.121476 1_655
Al0 Ni0 2.444799 1_555
Al0 Ni0 2.444799 1_655
Al0 Ni2 2.662214 1_555
Al1 Ni1 2.460654 1_555
Al1 Ni1 2.460654 1_455
Al1 Ni3 2.649884 1_555
Al2 Ni2 2.460192 1_455
Al2 Ni2 2.460192 1_555
Al2 Ni0 2.607253 1_555
Al3 Ni3 2.440526 1_555
Al3 Ni3 2.440526 1_655
Al3 Ni1 2.651232 1_555
Al3 Ce1 3.142961 1_655
Al3 Ce1 3.142961 1_555
Al4 Ni0 2.444799 1_555
Al4 Ni0 2.444799 1_655
Al4 Ni2 2.662214 1_565
Al5 Ni1 2.460654 1_455
Al5 Ni1 2.460654 1_555
Al5 Ni3 2.649884 1_565
Al6 Ni2 2.460192 1_455
Al6 Ni2 2.460192 1_555
Al6 Ni0 2.607253 1_545
Al7 Ni3 2.440526 1_555
Al7 Ni3 2.440526 1_655
Al7 Ni1 2.651232 1_545
Al7 Ce1 3.142961 1_645
Al7 Ce1 3.142961 1_545
Al8 C2 2.059182 1_555
Al8 Ce1 3.143064 1_555
Al8 Ce1 3.143064 1_655
Al9 C0 1.939767 1_555
Al9 C1 1.941786 1_555
Al10 C2 2.059182 1_565
Al10 Ce1 3.143064 1_555
Al10 Ce1 3.143064 1_655
Al11 C0 1.939767 1_555
Al11 C1 1.941786 1_565
Al12 Ni0 2.448678 1_555
Al12 Ce1 3.152279 1_554
Al13 C0 2.155156 1_655
Al13 C0 2.155156 1_555
Al13 Ni1 2.423659 1_555
Al14 C1 2.153217 1_655
Al14 C1 2.153217 1_555
Al14 Ni2 2.436757 1_555
Al15 C2 2.140444 1_455
Al15 C2 2.140444 1_555
Al15 Ni3 2.393739 1_555
C0 Ce0 2.557159 1_455
C0 Ce0 2.557159 1_555
C1 Ce3 2.562962 1_455
C1 Ce3 2.562962 1_555
C2 Ce2 2.529078 1_656
C2 Ce2 2.529078 1_556
