# generated using pymatgen
data_Na2Mg(SO6)2
_symmetry_space_group_name_H-M   'P 1'
_cell_length_a   8.74710200
_cell_length_b   5.11964100
_cell_length_c   11.46071448
_cell_angle_alpha   81.82468573
_cell_angle_beta   90.00000000
_cell_angle_gamma   90.00000000
_symmetry_Int_Tables_number   1
_chemical_formula_structural   Na2Mg(SO6)2
_chemical_formula_sum   'Na4 Mg2 S4 O24'
_cell_volume   508.01827429
_cell_formula_units_Z   2
loop_
 _symmetry_equiv_pos_site_id
 _symmetry_equiv_pos_as_xyz
  1  'x, y, z'
loop_
 _atom_site_type_symbol
 _atom_site_label
 _atom_site_symmetry_multiplicity
 _atom_site_fract_x
 _atom_site_fract_y
 _atom_site_fract_z
 _atom_site_occupancy
  Na  Na0  1  0.43000900  0.12010600  0.13788600  1
  Na  Na1  1  0.93000900  0.87989400  0.36211400  1
  Na  Na2  1  0.56999100  0.87989400  0.86211400  1
  Na  Na3  1  0.06999100  0.12010600  0.63788600  1
  Mg  Mg0  1  0.50000000  0.00000000  0.50000000  1
  Mg  Mg1  1  0.00000000  0.00000000  0.00000000  1
  S  S0  1  0.21126100  0.37533300  0.35998700  1
  S  S1  1  0.71126100  0.62466700  0.14001300  1
  S  S2  1  0.78873900  0.62466700  0.64001300  1
  S  S3  1  0.28873900  0.37533300  0.85998700  1
  O  O0  1  0.21550200  0.33251700  0.23272600  1
  O  O1  1  0.71550200  0.66748300  0.26727400  1
  O  O2  1  0.78449800  0.66748300  0.76727400  1
  O  O3  1  0.28449800  0.33251700  0.73272600  1
  O  O4  1  0.08611000  0.22882000  0.42488200  1
  O  O5  1  0.58611000  0.77118000  0.07511800  1
  O  O6  1  0.91389000  0.77118000  0.57511800  1
  O  O7  1  0.41389000  0.22882000  0.92488200  1
  O  O8  1  0.36148800  0.30342400  0.41672700  1
  O  O9  1  0.86148800  0.69657600  0.08327300  1
  O  O10  1  0.63851200  0.69657600  0.58327300  1
  O  O11  1  0.13851200  0.30342400  0.91672700  1
  O  O12  1  0.18473000  0.66487100  0.35375600  1
  O  O13  1  0.68473000  0.33512900  0.14624400  1
  O  O14  1  0.81527000  0.33512900  0.64624400  1
  O  O15  1  0.31527000  0.66487100  0.85375600  1
  O  O16  1  0.49363000  0.91948600  0.33164400  1
  O  O17  1  0.99363000  0.08051400  0.16835600  1
  O  O18  1  0.50637000  0.08051400  0.66835600  1
  O  O19  1  0.00637000  0.91948600  0.83164400  1
  O  O20  1  0.69344400  0.10978200  0.40126100  1
  O  O21  1  0.19344400  0.89021800  0.09873900  1
  O  O22  1  0.30655600  0.89021800  0.59873900  1
  O  O23  1  0.80655600  0.10978200  0.90126100  1
loop_
_geom_bond_atom_site_label_1
_geom_bond_atom_site_label_2
_geom_bond_distance
_geom_bond_site_symmetry_2
Na0 O16 2.376352 1_545
Na0 O7 2.429524 1_554
Na0 O5 2.436905 1_545
Na0 O21 2.453262 1_545
Na0 O13 2.493053 1_555
Na0 O0 2.494141 1_555
Na1 O17 2.376352 1_565
Na1 O6 2.429524 1_555
Na1 O4 2.436905 1_665
Na1 O20 2.453262 1_565
Na1 O12 2.493053 1_655
Na1 O1 2.494141 1_555
Na2 O18 2.376352 1_565
Na2 O5 2.429524 1_556
Na2 O7 2.436905 1_565
Na2 O23 2.453262 1_565
Na2 O15 2.493053 1_555
Na2 O2 2.494141 1_555
Na3 O19 2.376352 1_545
Na3 O4 2.429524 1_555
Na3 O6 2.436905 1_445
Na3 O22 2.453262 1_545
Na3 O14 2.493053 1_455
Na3 O3 2.494141 1_555
Mg0 O18 2.030297 1_555
Mg0 O16 2.030297 1_545
Mg0 O20 2.068498 1_555
Mg0 O22 2.068498 1_545
Mg0 O10 2.090507 1_545
Mg0 O8 2.090507 1_555
Mg1 O19 2.030297 1_544
Mg1 O17 2.030297 1_455
Mg1 O21 2.068498 1_545
Mg1 O23 2.068498 1_454
Mg1 O11 2.090507 1_554
Mg1 O9 2.090507 1_445
O0 S0 1.505849 1_555
O1 S1 1.505849 1_555
O2 S2 1.505849 1_555
O3 S3 1.505849 1_555
O4 S0 1.468168 1_555
O5 S1 1.468168 1_555
O6 S2 1.468168 1_555
O7 S3 1.468168 1_555
O8 S0 1.488973 1_555
O9 S1 1.488973 1_555
O10 S2 1.488973 1_555
O11 S3 1.488973 1_555
O12 S0 1.492030 1_555
O13 S1 1.492030 1_555
O14 S2 1.492030 1_555
O15 S3 1.492030 1_555
