# generated using pymatgen
data_LiZn2AgWO6
_symmetry_space_group_name_H-M   'P 1'
_cell_length_a   5.93511070
_cell_length_b   6.83521157
_cell_length_c   7.19553638
_cell_angle_alpha   89.13220902
_cell_angle_beta   128.70450300
_cell_angle_gamma   127.53295832
_symmetry_Int_Tables_number   1
_chemical_formula_structural   LiZn2AgWO6
_chemical_formula_sum   'Li1 Zn2 Ag1 W1 O6'
_cell_volume   145.70743506
_cell_formula_units_Z   1
loop_
 _symmetry_equiv_pos_site_id
 _symmetry_equiv_pos_as_xyz
  1  'x, y, z'
loop_
 _atom_site_type_symbol
 _atom_site_label
 _atom_site_symmetry_multiplicity
 _atom_site_fract_x
 _atom_site_fract_y
 _atom_site_fract_z
 _atom_site_occupancy
  Li  Li0  1  0.53089300  0.49828100  0.50022900  1
  Zn  Zn0  1  0.99189100  0.52997200  0.19253500  1
  Zn  Zn1  1  0.99136000  0.41312900  0.80283700  1
  Ag  Ag0  1  0.00256100  0.00290600  0.50173600  1
  W  W0  1  0.99181700  0.97531000  0.99854200  1
  O  O0  1  0.33990500  0.12524200  0.41156800  1
  O  O1  1  0.65171900  0.83982100  0.58733400  1
  O  O2  1  0.01848200  0.27950800  0.05349700  1
  O  O3  1  0.44347300  0.67000000  0.85026800  1
  O  O4  1  0.53915300  0.28384500  0.14507200  1
  O  O5  1  0.97135200  0.67822800  0.94630600  1
loop_
_geom_bond_atom_site_label_1
_geom_bond_atom_site_label_2
_geom_bond_distance
_geom_bond_site_symmetry_2
Li0 O1 1.949205 1_555
Li0 O0 1.953623 1_555
Li0 O2 2.048566 1_555
Li0 O5 2.087460 1_555
Ag0 O0 2.167279 1_555
Ag0 O1 2.170906 1_445
O0 W0 1.996202 1_444
O0 Zn1 2.007990 1_555
O1 W0 2.005738 1_555
O1 Zn0 2.013800 1_455
O2 Zn1 1.969598 1_454
O2 W0 2.012566 1_444
O2 Zn0 2.129604 1_455
O3 Zn1 1.879340 1_455
O3 W0 1.880101 1_555
O4 Zn0 1.878538 1_555
O4 W0 1.883768 1_444
O5 W0 1.986189 1_555
O5 Zn0 2.001720 1_556
O5 Zn1 2.198941 1_555
