# generated using pymatgen
data_UVCuO10
_symmetry_space_group_name_H-M   'P 1'
_cell_length_a   8.23418600
_cell_length_b   9.76557896
_cell_length_c   10.73865124
_cell_angle_alpha   105.36891344
_cell_angle_beta   90.00000000
_cell_angle_gamma   90.00000000
_symmetry_Int_Tables_number   1
_chemical_formula_structural   UVCuO10
_chemical_formula_sum   'U4 V4 Cu4 O40'
_cell_volume   832.63230059
_cell_formula_units_Z   4
loop_
 _symmetry_equiv_pos_site_id
 _symmetry_equiv_pos_as_xyz
  1  'x, y, z'
loop_
 _atom_site_type_symbol
 _atom_site_label
 _atom_site_symmetry_multiplicity
 _atom_site_fract_x
 _atom_site_fract_y
 _atom_site_fract_z
 _atom_site_occupancy
  U  U0  1  0.51721200  0.99570300  0.67876800  1
  U  U1  1  0.01721200  0.00429700  0.82123200  1
  U  U2  1  0.48278800  0.00429700  0.32123200  1
  U  U3  1  0.98278800  0.99570300  0.17876800  1
  V  V0  1  0.35984200  0.91086300  0.93966300  1
  V  V1  1  0.85984200  0.08913700  0.56033700  1
  V  V2  1  0.64015800  0.08913700  0.06033700  1
  V  V3  1  0.14015800  0.91086300  0.43966300  1
  Cu  Cu0  1  0.53753400  0.56692000  0.90042600  1
  Cu  Cu1  1  0.03753400  0.43308000  0.59957400  1
  Cu  Cu2  1  0.46246600  0.43308000  0.09957400  1
  Cu  Cu3  1  0.96246600  0.56692000  0.40042600  1
  O  O0  1  0.28996900  0.93387300  0.78338600  1
  O  O1  1  0.78996900  0.06612700  0.71661400  1
  O  O2  1  0.71003100  0.06612700  0.21661400  1
  O  O3  1  0.21003100  0.93387300  0.28338600  1
  O  O4  1  0.95903700  0.81865800  0.76789100  1
  O  O5  1  0.45903700  0.18134200  0.73210900  1
  O  O6  1  0.04096300  0.18134200  0.23210900  1
  O  O7  1  0.54096300  0.81865800  0.26789100  1
  O  O8  1  0.57691800  0.81026100  0.62968100  1
  O  O9  1  0.07691800  0.18973900  0.87031900  1
  O  O10  1  0.42308200  0.18973900  0.37031900  1
  O  O11  1  0.92308200  0.81026100  0.12968100  1
  O  O12  1  0.05821800  0.01206400  0.60495800  1
  O  O13  1  0.55821800  0.98793600  0.89504200  1
  O  O14  1  0.94178200  0.98793600  0.39504200  1
  O  O15  1  0.44178200  0.01206400  0.10495800  1
  O  O16  1  0.65426400  0.04349000  0.49953900  1
  O  O17  1  0.15426400  0.95651000  0.00046100  1
  O  O18  1  0.34573600  0.95651000  0.50046100  1
  O  O19  1  0.84573600  0.04349000  0.99953900  1
  O  O20  1  0.89531800  0.26200300  0.57497300  1
  O  O21  1  0.39531800  0.73799700  0.92502700  1
  O  O22  1  0.10468200  0.73799700  0.42502700  1
  O  O23  1  0.60468200  0.26200300  0.07497300  1
  O  O24  1  0.42405600  0.41515900  0.92856500  1
  O  O25  1  0.92405600  0.58484100  0.57143500  1
  O  O26  1  0.57594400  0.58484100  0.07143500  1
  O  O27  1  0.07594400  0.41515900  0.42856500  1
  O  O28  1  0.52976600  0.51427900  0.71590500  1
  O  O29  1  0.02976600  0.48572100  0.78409500  1
  O  O30  1  0.47023400  0.48572100  0.28409500  1
  O  O31  1  0.97023400  0.51427900  0.21590500  1
  O  O32  1  0.80635800  0.59318900  0.88201400  1
  O  O33  1  0.30635800  0.40681100  0.61798600  1
  O  O34  1  0.19364200  0.40681100  0.11798600  1
  O  O35  1  0.69364200  0.59318900  0.38201400  1
  O  O36  1  0.88074500  0.47051600  0.83633300  1
  O  O37  1  0.38074500  0.52948400  0.66366700  1
  O  O38  1  0.11925500  0.52948400  0.16366700  1
  O  O39  1  0.61925500  0.47051600  0.33633300  1
loop_
_geom_bond_atom_site_label_1
_geom_bond_atom_site_label_2
_geom_bond_distance
_geom_bond_site_symmetry_2
Cu0 O26 1.825565 1_556
Cu0 O24 1.843425 1_555
Cu0 O28 1.911749 1_555
Cu0 O21 1.999571 1_555
Cu0 O32 2.243118 1_555
Cu1 O27 1.825565 1_555
Cu1 O25 1.843425 1_455
Cu1 O29 1.911749 1_555
Cu1 O20 1.999571 1_455
Cu1 O33 2.243118 1_555
Cu2 O24 1.825565 1_554
Cu2 O26 1.843425 1_555
Cu2 O30 1.911749 1_555
Cu2 O23 1.999571 1_555
Cu2 O34 2.243118 1_555
Cu3 O25 1.825565 1_555
Cu3 O27 1.843425 1_655
Cu3 O31 1.911749 1_555
Cu3 O22 1.999571 1_655
Cu3 O35 2.243118 1_555
O0 V0 1.843306 1_555
O0 U0 2.342552 1_555
O0 U1 2.352488 1_565
O1 V1 1.843306 1_555
O1 U1 2.342552 1_655
O1 U0 2.352488 1_545
O2 V2 1.843306 1_555
O2 U2 2.342552 1_555
O2 U3 2.352488 1_545
O3 V3 1.843306 1_555
O3 U3 2.342552 1_455
O3 U2 2.352488 1_565
O4 U1 1.814840 1_665
O5 U0 1.814840 1_545
O6 U3 1.814840 1_445
O7 U2 1.814840 1_565
O8 U0 1.814689 1_555
O9 U1 1.814689 1_555
O10 U2 1.814689 1_555
O11 U3 1.814689 1_555
O12 V3 1.911245 1_545
O12 V1 1.911931 1_455
O12 U1 2.367932 1_555
O13 V2 1.911245 1_566
O13 V0 1.911931 1_555
O13 U0 2.367932 1_555
O14 V1 1.911245 1_565
O14 V3 1.911931 1_655
O14 U3 2.367932 1_555
O15 V0 1.911245 1_544
O15 V2 1.911931 1_555
O15 U2 2.367932 1_555
O16 V1 1.826518 1_555
O16 U2 2.327668 1_555
O16 U0 2.381554 1_545
O17 V0 1.826518 1_554
O17 U3 2.327668 1_455
O17 U1 2.381554 1_564
O18 V3 1.826518 1_555
O18 U0 2.327668 1_555
O18 U2 2.381554 1_565
O19 V2 1.826518 1_556
O19 U1 2.327668 1_655
O19 U3 2.381554 1_546
O20 V1 1.679047 1_555
O21 V0 1.679047 1_555
O22 V3 1.679047 1_555
O23 V2 1.679047 1_555
O28 O37 1.373526 1_555
O29 O36 1.373526 1_455
O30 O39 1.373526 1_555
O31 O38 1.373526 1_655
O32 O36 1.318884 1_555
O33 O37 1.318884 1_555
O34 O38 1.318884 1_555
O35 O39 1.318884 1_555
