# generated using pymatgen
data_CaBiSbO5
_symmetry_space_group_name_H-M   'P 1'
_cell_length_a   5.66711600
_cell_length_b   11.60574000
_cell_length_c   16.36996600
_cell_angle_alpha   90.00000000
_cell_angle_beta   90.00000000
_cell_angle_gamma   90.00000000
_symmetry_Int_Tables_number   1
_chemical_formula_structural   CaBiSbO5
_chemical_formula_sum   'Ca8 Bi8 Sb8 O40'
_cell_volume   1076.67025901
_cell_formula_units_Z   8
loop_
 _symmetry_equiv_pos_site_id
 _symmetry_equiv_pos_as_xyz
  1  'x, y, z'
loop_
 _atom_site_type_symbol
 _atom_site_label
 _atom_site_symmetry_multiplicity
 _atom_site_fract_x
 _atom_site_fract_y
 _atom_site_fract_z
 _atom_site_occupancy
  Ca  Ca0  1  0.49942400  0.35975700  0.55277700  1
  Ca  Ca1  1  0.99942400  0.14024300  0.55277700  1
  Ca  Ca2  1  0.99942400  0.64024300  0.94722300  1
  Ca  Ca3  1  0.00057600  0.35975700  0.05277700  1
  Ca  Ca4  1  0.50057600  0.14024300  0.05277700  1
  Ca  Ca5  1  0.00057600  0.85975700  0.44722300  1
  Ca  Ca6  1  0.50057600  0.64024300  0.44722300  1
  Ca  Ca7  1  0.49942400  0.85975700  0.94722300  1
  Bi  Bi0  1  0.95032900  0.84240400  0.77293300  1
  Bi  Bi1  1  0.04967100  0.15759600  0.22706700  1
  Bi  Bi2  1  0.54967100  0.34240400  0.22706700  1
  Bi  Bi3  1  0.04967100  0.65759600  0.27293300  1
  Bi  Bi4  1  0.45032900  0.15759600  0.72706700  1
  Bi  Bi5  1  0.45032900  0.65759600  0.77293300  1
  Bi  Bi6  1  0.54967100  0.84240400  0.27293300  1
  Bi  Bi7  1  0.95032900  0.34240400  0.72706700  1
  Sb  Sb0  1  0.98467300  0.40091100  0.40405500  1
  Sb  Sb1  1  0.51532700  0.90091100  0.59594500  1
  Sb  Sb2  1  0.01532700  0.59908900  0.59594500  1
  Sb  Sb3  1  0.48467300  0.09908900  0.40405500  1
  Sb  Sb4  1  0.01532700  0.09908900  0.90405500  1
  Sb  Sb5  1  0.98467300  0.90091100  0.09594500  1
  Sb  Sb6  1  0.51532700  0.40091100  0.90405500  1
  Sb  Sb7  1  0.48467300  0.59908900  0.09594500  1
  O  O0  1  0.93023300  0.32546300  0.30065700  1
  O  O1  1  0.31142400  0.04349500  0.93976400  1
  O  O2  1  0.18857600  0.54349500  0.06023600  1
  O  O3  1  0.24052400  0.76798200  0.84718800  1
  O  O4  1  0.25947600  0.26798200  0.15281200  1
  O  O5  1  0.93023300  0.82546300  0.19934300  1
  O  O6  1  0.25947600  0.76798200  0.34718800  1
  O  O7  1  0.56976700  0.82546300  0.69934300  1
  O  O8  1  0.31142400  0.54349500  0.56023600  1
  O  O9  1  0.06976700  0.67453700  0.69934300  1
  O  O10  1  0.56976700  0.32546300  0.80065700  1
  O  O11  1  0.64865300  0.19318700  0.47933100  1
  O  O12  1  0.81142400  0.95650500  0.56023600  1
  O  O13  1  0.75947600  0.73201800  0.34718800  1
  O  O14  1  0.17674500  0.03082300  0.12703400  1
  O  O15  1  0.81142400  0.45650500  0.93976400  1
  O  O16  1  0.06976700  0.17453700  0.80065700  1
  O  O17  1  0.74052400  0.23201800  0.65281200  1
  O  O18  1  0.14865300  0.80681300  0.02066900  1
  O  O19  1  0.18857600  0.04349500  0.43976400  1
  O  O20  1  0.35134700  0.80681300  0.52066900  1
  O  O21  1  0.82325500  0.96917700  0.87296600  1
  O  O22  1  0.75947600  0.23201800  0.15281200  1
  O  O23  1  0.67674500  0.96917700  0.37296600  1
  O  O24  1  0.35134700  0.30681300  0.97933100  1
  O  O25  1  0.14865300  0.30681300  0.47933100  1
  O  O26  1  0.68857600  0.45650500  0.43976400  1
  O  O27  1  0.68857600  0.95650500  0.06023600  1
  O  O28  1  0.67674500  0.46917700  0.12703400  1
  O  O29  1  0.85134700  0.69318700  0.52066900  1
  O  O30  1  0.85134700  0.19318700  0.97933100  1
  O  O31  1  0.64865300  0.69318700  0.02066900  1
  O  O32  1  0.82325500  0.46917700  0.62703400  1
  O  O33  1  0.74052400  0.73201800  0.84718800  1
  O  O34  1  0.24052400  0.26798200  0.65281200  1
  O  O35  1  0.17674500  0.53082300  0.37296600  1
  O  O36  1  0.32325500  0.53082300  0.87296600  1
  O  O37  1  0.43023300  0.17453700  0.30065700  1
  O  O38  1  0.32325500  0.03082300  0.62703400  1
  O  O39  1  0.43023300  0.67453700  0.19934300  1
loop_
_geom_bond_atom_site_label_1
_geom_bond_atom_site_label_2
_geom_bond_distance
_geom_bond_site_symmetry_2
Ca0 O8 2.386885 1_555
Ca0 O25 2.403058 1_555
Ca0 O26 2.415034 1_555
Ca0 O11 2.428557 1_555
Ca0 O34 2.443119 1_555
Ca0 O32 2.541300 1_555
Ca0 O17 2.597373 1_555
Ca1 O12 2.386885 1_545
Ca1 O11 2.403058 1_555
Ca1 O19 2.415034 1_655
Ca1 O25 2.428557 1_655
Ca1 O17 2.443119 1_555
Ca1 O38 2.541300 1_655
Ca1 O34 2.597373 1_655
Ca2 O15 2.386885 1_555
Ca2 O31 2.403058 1_556
Ca2 O2 2.415034 1_656
Ca2 O18 2.428557 1_656
Ca2 O33 2.443119 1_555
Ca2 O36 2.541300 1_655
Ca2 O3 2.597373 1_655
Ca3 O2 2.386885 1_555
Ca3 O24 2.403058 1_554
Ca3 O15 2.415034 1_454
Ca3 O30 2.428557 1_454
Ca3 O4 2.443119 1_555
Ca3 O28 2.541300 1_455
Ca3 O22 2.597373 1_455
Ca4 O27 2.386885 1_545
Ca4 O30 2.403058 1_554
Ca4 O1 2.415034 1_554
Ca4 O24 2.428557 1_554
Ca4 O22 2.443119 1_555
Ca4 O14 2.541300 1_555
Ca4 O4 2.597373 1_555
Ca5 O19 2.386885 1_565
Ca5 O20 2.403058 1_555
Ca5 O12 2.415034 1_455
Ca5 O29 2.428557 1_455
Ca5 O6 2.443119 1_555
Ca5 O23 2.541300 1_455
Ca5 O13 2.597373 1_455
Ca6 O26 2.386885 1_555
Ca6 O29 2.403058 1_555
Ca6 O8 2.415034 1_555
Ca6 O20 2.428557 1_555
Ca6 O13 2.443119 1_555
Ca6 O35 2.541300 1_555
Ca6 O6 2.597373 1_555
Ca7 O1 2.386885 1_565
Ca7 O18 2.403058 1_556
Ca7 O27 2.415034 1_556
Ca7 O31 2.428557 1_556
Ca7 O3 2.443119 1_555
Ca7 O21 2.541300 1_555
Ca7 O33 2.597373 1_555
Bi0 O33 2.128969 1_555
Bi0 O3 2.219952 1_655
Bi0 O21 2.316212 1_555
Bi0 O9 2.388501 1_655
Bi0 O7 2.478141 1_555
Bi1 O4 2.128969 1_555
Bi1 O22 2.219952 1_455
Bi1 O14 2.316212 1_555
Bi1 O0 2.388501 1_455
Bi1 O37 2.478141 1_555
Bi2 O22 2.128969 1_555
Bi2 O4 2.219952 1_555
Bi2 O28 2.316212 1_555
Bi2 O37 2.388501 1_555
Bi2 O0 2.478141 1_555
Bi3 O6 2.128969 1_555
Bi3 O13 2.219952 1_455
Bi3 O35 2.316212 1_555
Bi3 O5 2.388501 1_455
Bi3 O39 2.478141 1_555
Bi4 O34 2.128969 1_555
Bi4 O17 2.219952 1_555
Bi4 O38 2.316212 1_555
Bi4 O10 2.388501 1_555
Bi4 O16 2.478141 1_555
Bi5 O3 2.128969 1_555
Bi5 O33 2.219952 1_555
Bi5 O36 2.316212 1_555
Bi5 O7 2.388501 1_555
Bi5 O9 2.478141 1_555
Bi6 O13 2.128969 1_555
Bi6 O6 2.219952 1_555
Bi6 O23 2.316212 1_555
Bi6 O39 2.388501 1_555
Bi6 O5 2.478141 1_555
Bi7 O17 2.128969 1_555
Bi7 O34 2.219952 1_655
Bi7 O32 2.316212 1_555
Bi7 O16 2.388501 1_655
Bi7 O10 2.478141 1_555
O0 Sb0 1.930513 1_555
O1 Sb4 1.890433 1_555
O2 Sb7 1.890433 1_555
O5 Sb5 1.930513 1_555
O7 Sb1 1.930513 1_555
O8 Sb2 1.890433 1_555
O9 Sb2 1.930513 1_555
O10 Sb6 1.930513 1_555
O11 Sb3 1.890687 1_555
O12 Sb1 1.890433 1_555
O14 Sb5 1.927968 1_445
O15 Sb6 1.890433 1_555
O16 Sb4 1.930513 1_555
O18 Sb5 1.890687 1_455
O19 Sb3 1.890433 1_555
O20 Sb1 1.890687 1_555
O21 Sb4 1.927968 1_665
O23 Sb3 1.927968 1_565
O24 Sb6 1.890687 1_555
O25 Sb0 1.890687 1_455
O26 Sb0 1.890433 1_555
O27 Sb5 1.890433 1_555
O28 Sb7 1.927968 1_555
O29 Sb2 1.890687 1_655
O30 Sb4 1.890687 1_655
O31 Sb7 1.890687 1_555
O32 Sb2 1.927968 1_655
O35 Sb0 1.927968 1_455
O36 Sb6 1.927968 1_555
O37 Sb3 1.930513 1_555
O38 Sb1 1.927968 1_545
O39 Sb7 1.930513 1_555
