# generated using pymatgen
data_Ti3Fe(CuS4)2
_symmetry_space_group_name_H-M   'P 1'
_cell_length_a   6.96987338
_cell_length_b   6.96987338
_cell_length_c   6.96987338
_cell_angle_alpha   60.01783454
_cell_angle_beta   60.01783454
_cell_angle_gamma   60.01783305
_symmetry_Int_Tables_number   1
_chemical_formula_structural   Ti3Fe(CuS4)2
_chemical_formula_sum   'Ti3 Fe1 Cu2 S8'
_cell_volume   239.51637831
_cell_formula_units_Z   1
loop_
 _symmetry_equiv_pos_site_id
 _symmetry_equiv_pos_as_xyz
  1  'x, y, z'
loop_
 _atom_site_type_symbol
 _atom_site_label
 _atom_site_symmetry_multiplicity
 _atom_site_fract_x
 _atom_site_fract_y
 _atom_site_fract_z
 _atom_site_occupancy
  Ti  Ti0  1  0.00000000  0.50000000  0.50000000  1
  Ti  Ti1  1  0.50000000  0.50000000  0.00000000  1
  Ti  Ti2  1  0.50000000  0.00000000  0.50000000  1
  Fe  Fe0  1  0.50000000  0.50000000  0.50000000  1
  Cu  Cu0  1  0.12366000  0.12366000  0.12366000  1
  Cu  Cu1  1  0.87634000  0.87634000  0.87634000  1
  S  S0  1  0.26294200  0.73037900  0.26294200  1
  S  S1  1  0.26294200  0.26294200  0.73037900  1
  S  S2  1  0.73037900  0.26294200  0.26294200  1
  S  S3  1  0.25439900  0.25439900  0.25439900  1
  S  S4  1  0.73705800  0.26962100  0.73705800  1
  S  S5  1  0.73705800  0.73705800  0.26962100  1
  S  S6  1  0.26962100  0.73705800  0.73705800  1
  S  S7  1  0.74560100  0.74560100  0.74560100  1
loop_
_geom_bond_atom_site_label_1
_geom_bond_atom_site_label_2
_geom_bond_distance
_geom_bond_site_symmetry_2
Fe0 S0 2.337415 1_555
Fe0 S4 2.337415 1_555
Fe0 S2 2.337415 1_555
Fe0 S6 2.337415 1_555
Fe0 S1 2.337415 1_555
Fe0 S5 2.337415 1_555
Cu0 S3 2.231758 1_555
Cu0 S0 2.240823 1_545
Cu0 S2 2.240823 1_455
Cu0 S1 2.240823 1_554
Cu1 S7 2.231758 1_555
Cu1 S6 2.240823 1_655
Cu1 S4 2.240823 1_565
Cu1 S5 2.240823 1_556
S0 Ti1 2.435175 1_555
S0 Ti0 2.435175 1_555
S1 Ti0 2.435175 1_555
S1 Ti2 2.435175 1_555
S2 Ti1 2.435175 1_555
S2 Ti2 2.435175 1_555
S3 Ti0 2.421988 1_555
S3 Ti2 2.421988 1_555
S3 Ti1 2.421988 1_555
S4 Ti1 2.435175 1_556
S4 Ti0 2.435175 1_655
S5 Ti0 2.435175 1_655
S5 Ti2 2.435175 1_565
S6 Ti1 2.435175 1_556
S6 Ti2 2.435175 1_565
S7 Ti0 2.421988 1_655
S7 Ti2 2.421988 1_565
S7 Ti1 2.421988 1_556
