# generated using pymatgen
data_Mg2CoWO6
_symmetry_space_group_name_H-M   'P 1'
_cell_length_a   5.18106195
_cell_length_b   5.32837743
_cell_length_c   7.78690572
_cell_angle_alpha   89.98886117
_cell_angle_beta   90.27091629
_cell_angle_gamma   90.03301255
_symmetry_Int_Tables_number   1
_chemical_formula_structural   Mg2CoWO6
_chemical_formula_sum   'Mg4 Co2 W2 O12'
_cell_volume   214.96796569
_cell_formula_units_Z   2
loop_
 _symmetry_equiv_pos_site_id
 _symmetry_equiv_pos_as_xyz
  1  'x, y, z'
loop_
 _atom_site_type_symbol
 _atom_site_label
 _atom_site_symmetry_multiplicity
 _atom_site_fract_x
 _atom_site_fract_y
 _atom_site_fract_z
 _atom_site_occupancy
  Mg  Mg0  1  0.99433400  0.04808600  0.26938000  1
  Mg  Mg1  1  0.50617300  0.54847300  0.23053900  1
  Mg  Mg2  1  0.00567000  0.95191500  0.73062100  1
  Mg  Mg3  1  0.49382200  0.45152400  0.76946400  1
  Co  Co0  1  0.00000100  0.49999900  0.50000100  1
  Co  Co1  1  0.49999900  0.00000100  0.00000000  1
  W  W0  1  0.50000100  0.00000000  0.50000100  1
  W  W1  1  0.99999900  0.50000000  0.99999800  1
  O  O0  1  0.66702500  0.30039200  0.40846100  1
  O  O1  1  0.83328700  0.80016700  0.09170000  1
  O  O2  1  0.33298000  0.69960300  0.59154000  1
  O  O3  1  0.16671400  0.19983500  0.90829600  1
  O  O4  1  0.18322300  0.17756000  0.54942700  1
  O  O5  1  0.31690600  0.67779700  0.95060600  1
  O  O6  1  0.81678000  0.82244000  0.45057300  1
  O  O7  1  0.68308900  0.32220800  0.04939200  1
  O  O8  1  0.13153100  0.41294100  0.23042600  1
  O  O9  1  0.36859700  0.91300100  0.26934500  1
  O  O10  1  0.63140700  0.08700000  0.73065600  1
  O  O11  1  0.86846600  0.58705900  0.76957300  1
loop_
_geom_bond_atom_site_label_1
_geom_bond_atom_site_label_2
_geom_bond_distance
_geom_bond_site_symmetry_2
Mg0 O9 2.068751 1_645
Mg0 O6 2.071934 1_545
Mg0 O1 2.084246 1_545
Mg0 O8 2.092120 1_655
Mg0 O0 2.424170 1_555
Mg0 O4 2.483700 1_655
Mg1 O8 2.070638 1_555
Mg1 O7 2.073064 1_555
Mg1 O0 2.085908 1_555
Mg1 O9 2.091874 1_555
Mg1 O1 2.419488 1_555
Mg1 O5 2.483543 1_554
Mg2 O10 2.068751 1_465
Mg2 O4 2.071934 1_565
Mg2 O3 2.084217 1_565
Mg2 O11 2.092135 1_455
Mg2 O2 2.424191 1_555
Mg2 O6 2.483710 1_455
Mg3 O11 2.070654 1_555
Mg3 O5 2.073062 1_555
Mg3 O2 2.085891 1_555
Mg3 O10 2.091873 1_555
Mg3 O3 2.419427 1_555
Mg3 O7 2.483497 1_556
Co0 O4 1.999806 1_555
Co0 O6 1.999816 1_455
Co0 O0 2.145243 1_455
Co0 O2 2.145245 1_555
Co0 O11 2.258373 1_455
Co0 O8 2.258384 1_555
Co1 O5 1.997555 1_544
Co1 O7 1.997558 1_555
Co1 O3 2.148395 1_554
Co1 O1 2.148398 1_545
Co1 O9 2.256122 1_545
Co1 O10 2.256123 1_554
O0 W0 1.955166 1_555
O1 W1 1.954973 1_554
O2 W0 1.955178 1_565
O3 W1 1.954971 1_455
O4 W0 1.935159 1_555
O5 W1 1.935292 1_455
O6 W0 1.935167 1_565
O7 W1 1.935296 1_554
O8 W1 1.971715 1_454
O9 W0 1.973007 1_565
O10 W0 1.973004 1_555
O11 W1 1.971696 1_555
