# generated using pymatgen
data_Cu3(NiO3)4
_symmetry_space_group_name_H-M   'P 1'
_cell_length_a   6.30410549
_cell_length_b   6.30410549
_cell_length_c   6.30410549
_cell_angle_alpha   109.47122063
_cell_angle_beta   109.47122063
_cell_angle_gamma   109.47122063
_symmetry_Int_Tables_number   1
_chemical_formula_structural   Cu3(NiO3)4
_chemical_formula_sum   'Cu3 Ni4 O12'
_cell_volume   192.86282511
_cell_formula_units_Z   1
loop_
 _symmetry_equiv_pos_site_id
 _symmetry_equiv_pos_as_xyz
  1  'x, y, z'
loop_
 _atom_site_type_symbol
 _atom_site_label
 _atom_site_symmetry_multiplicity
 _atom_site_fract_x
 _atom_site_fract_y
 _atom_site_fract_z
 _atom_site_occupancy
  Cu  Cu0  1  0.50000000  0.00000000  0.50000000  1
  Cu  Cu1  1  0.50000000  0.50000000  0.00000000  1
  Cu  Cu2  1  0.00000000  0.50000000  0.50000000  1
  Ni  Ni0  1  0.00000000  0.50000000  0.00000000  1
  Ni  Ni1  1  0.50000000  0.00000000  0.00000000  1
  Ni  Ni2  1  0.50000000  0.50000000  0.50000000  1
  Ni  Ni3  1  0.00000000  0.00000000  0.50000000  1
  O  O0  1  0.31926400  0.14514900  0.82588500  1
  O  O1  1  0.68073600  0.85485100  0.17411500  1
  O  O2  1  0.68073600  0.50662100  0.82588500  1
  O  O3  1  0.49337900  0.17411500  0.31926400  1
  O  O4  1  0.17411500  0.31926400  0.49337900  1
  O  O5  1  0.82588500  0.31926400  0.14514900  1
  O  O6  1  0.85485100  0.17411500  0.68073600  1
  O  O7  1  0.82588500  0.68073600  0.50662100  1
  O  O8  1  0.31926400  0.49337900  0.17411500  1
  O  O9  1  0.50662100  0.82588500  0.68073600  1
  O  O10  1  0.17411500  0.68073600  0.85485100  1
  O  O11  1  0.14514900  0.82588500  0.31926400  1
loop_
_geom_bond_atom_site_label_1
_geom_bond_atom_site_label_2
_geom_bond_distance
_geom_bond_site_symmetry_2
Cu0 O3 1.826836 1_555
Cu0 O11 1.826836 1_545
Cu0 O6 1.826836 1_555
Cu0 O9 1.826836 1_545
Cu1 O2 1.826836 1_554
Cu1 O1 1.826836 1_555
Cu1 O8 1.826836 1_555
Cu1 O0 1.826836 1_554
Cu2 O7 1.826836 1_455
Cu2 O4 1.826836 1_555
Cu2 O5 1.826836 1_455
Cu2 O10 1.826836 1_555
Ni0 O6 1.967528 1_454
Ni0 O10 1.967528 1_554
Ni0 O2 1.967528 1_454
Ni0 O11 1.967528 1_555
Ni0 O8 1.967528 1_555
Ni0 O5 1.967528 1_455
Ni1 O5 1.967528 1_555
Ni1 O10 1.967528 1_544
Ni1 O3 1.967528 1_555
Ni1 O1 1.967528 1_545
Ni1 O0 1.967528 1_554
Ni1 O9 1.967528 1_544
Ni2 O9 1.967528 1_555
Ni2 O3 1.967528 1_555
Ni2 O4 1.967528 1_555
Ni2 O7 1.967528 1_555
Ni2 O8 1.967528 1_555
Ni2 O2 1.967528 1_555
Ni3 O4 1.967528 1_555
Ni3 O6 1.967528 1_455
Ni3 O0 1.967528 1_555
Ni3 O11 1.967528 1_545
Ni3 O7 1.967528 1_445
Ni3 O1 1.967528 1_445
