# generated using pymatgen
data_NaVS2
_symmetry_space_group_name_H-M   'P 1'
_cell_length_a   6.78689001
_cell_length_b   6.78689001
_cell_length_c   6.78688938
_cell_angle_alpha   30.74747841
_cell_angle_beta   30.74747841
_cell_angle_gamma   30.74748116
_symmetry_Int_Tables_number   1
_chemical_formula_structural   NaVS2
_chemical_formula_sum   'Na1 V1 S2'
_cell_volume   72.46055717
_cell_formula_units_Z   1
loop_
 _symmetry_equiv_pos_site_id
 _symmetry_equiv_pos_as_xyz
  1  'x, y, z'
loop_
 _atom_site_type_symbol
 _atom_site_label
 _atom_site_symmetry_multiplicity
 _atom_site_fract_x
 _atom_site_fract_y
 _atom_site_fract_z
 _atom_site_occupancy
  Na  Na0  1  0.50000000  0.50000000  0.50000000  1
  V  V0  1  0.00000000  0.00000000  -0.00000000  1
  S  S0  1  0.26437887  0.26437887  0.26437887  1
  S  S1  1  0.73562113  0.73562113  0.73562113  1
loop_
_geom_bond_atom_site_label_1
_geom_bond_atom_site_label_2
_geom_bond_distance
_geom_bond_site_symmetry_2
Na0 S1 2.811365 1_554
Na0 S0 2.811365 1_556
Na0 S1 2.811365 1_545
Na0 S1 2.811365 1_455
Na0 S0 2.811365 1_565
Na0 S0 2.811365 1_655
S0 V0 2.470430 1_556
S0 V0 2.470431 1_655
S0 V0 2.470431 1_565
S1 V0 2.470430 1_665
S1 V0 2.470431 1_656
S1 V0 2.470431 1_566
