# generated using pymatgen
data_Na5FeO4
_symmetry_space_group_name_H-M   'P 1'
_cell_length_a   6.02520600
_cell_length_b   10.48643800
_cell_length_c   18.15226400
_cell_angle_alpha   90.00000000
_cell_angle_beta   90.00000000
_cell_angle_gamma   90.00000000
_symmetry_Int_Tables_number   1
_chemical_formula_structural   Na5FeO4
_chemical_formula_sum   'Na40 Fe8 O32'
_cell_volume   1146.91357338
_cell_formula_units_Z   8
loop_
 _symmetry_equiv_pos_site_id
 _symmetry_equiv_pos_as_xyz
  1  'x, y, z'
loop_
 _atom_site_type_symbol
 _atom_site_label
 _atom_site_symmetry_multiplicity
 _atom_site_fract_x
 _atom_site_fract_y
 _atom_site_fract_z
 _atom_site_occupancy
  Na  Na0  1  0.10177100  0.42225900  0.75230600  1
  Na  Na1  1  0.42807000  0.29940200  0.64016200  1
  Na  Na2  1  0.57193000  0.20059800  0.14016200  1
  Na  Na3  1  0.07193000  0.79940200  0.35983800  1
  Na  Na4  1  0.07193000  0.29940200  0.14016200  1
  Na  Na5  1  0.57193000  0.70059800  0.35983800  1
  Na  Na6  1  0.42807000  0.79940200  0.85983800  1
  Na  Na7  1  0.92807000  0.20059800  0.64016200  1
  Na  Na8  1  0.89774600  0.82689200  0.17112000  1
  Na  Na9  1  0.39774600  0.17310800  0.32888000  1
  Na  Na10  1  0.60225400  0.32689200  0.82888000  1
  Na  Na11  1  0.10225400  0.67310800  0.67112000  1
  Na  Na12  1  0.10225400  0.17310800  0.82888000  1
  Na  Na13  1  0.60225400  0.82689200  0.67112000  1
  Na  Na14  1  0.39774600  0.67310800  0.17112000  1
  Na  Na15  1  0.89774600  0.32689200  0.32888000  1
  Na  Na16  1  0.91070300  0.16175400  0.00160800  1
  Na  Na17  1  0.41070300  0.83824600  0.49839200  1
  Na  Na18  1  0.58929700  0.66175400  0.99839200  1
  Na  Na19  1  0.08929700  0.33824600  0.50160800  1
  Na  Na20  1  0.08929700  0.83824600  0.99839200  1
  Na  Na21  1  0.58929700  0.16175400  0.50160800  1
  Na  Na22  1  0.41070300  0.33824600  0.00160800  1
  Na  Na23  1  0.91070300  0.66175400  0.49839200  1
  Na  Na24  1  0.92056600  0.93985000  0.56555300  1
  Na  Na25  1  0.39822900  0.92225900  0.24769400  1
  Na  Na26  1  0.60177100  0.57774100  0.74769400  1
  Na  Na27  1  0.92807000  0.70059800  0.85983800  1
  Na  Na28  1  0.10177100  0.92225900  0.74769400  1
  Na  Na29  1  0.60177100  0.07774100  0.75230600  1
  Na  Na30  1  0.39822900  0.42225900  0.25230600  1
  Na  Na31  1  0.89822900  0.57774100  0.24769400  1
  Na  Na32  1  0.92056600  0.43985000  0.93444700  1
  Na  Na33  1  0.42056600  0.56015000  0.56555300  1
  Na  Na34  1  0.57943400  0.93985000  0.06555300  1
  Na  Na35  1  0.07943400  0.06015000  0.43444700  1
  Na  Na36  1  0.07943400  0.56015000  0.06555300  1
  Na  Na37  1  0.57943400  0.43985000  0.43444700  1
  Na  Na38  1  0.42056600  0.06015000  0.93444700  1
  Na  Na39  1  0.89822900  0.07774100  0.25230600  1
  Fe  Fe0  1  0.82816200  0.45963000  0.62335600  1
  Fe  Fe1  1  0.32816200  0.54037000  0.87664400  1
  Fe  Fe2  1  0.67183800  0.95963000  0.37664400  1
  Fe  Fe3  1  0.17183800  0.04037000  0.12335600  1
  Fe  Fe4  1  0.17183800  0.54037000  0.37664400  1
  Fe  Fe5  1  0.67183800  0.45963000  0.12335600  1
  Fe  Fe6  1  0.32816200  0.04037000  0.62335600  1
  Fe  Fe7  1  0.82816200  0.95963000  0.87664400  1
  O  O0  1  0.85768400  0.04915800  0.12118900  1
  O  O1  1  0.35768400  0.95084200  0.37881100  1
  O  O2  1  0.64231600  0.54915800  0.87881100  1
  O  O3  1  0.14231600  0.45084200  0.62118900  1
  O  O4  1  0.14231600  0.95084200  0.87881100  1
  O  O5  1  0.64231600  0.04915800  0.62118900  1
  O  O6  1  0.35768400  0.45084200  0.12118900  1
  O  O7  1  0.85768400  0.54915800  0.37881100  1
  O  O8  1  0.80236800  0.36719200  0.04461500  1
  O  O9  1  0.30236800  0.63280800  0.45538500  1
  O  O10  1  0.69763200  0.86719200  0.95538500  1
  O  O11  1  0.19763200  0.13280800  0.54461500  1
  O  O12  1  0.19763200  0.63280800  0.95538500  1
  O  O13  1  0.69763200  0.36719200  0.54461500  1
  O  O14  1  0.30236800  0.13280800  0.04461500  1
  O  O15  1  0.80236800  0.86719200  0.45538500  1
  O  O16  1  0.73657100  0.37322300  0.71201000  1
  O  O17  1  0.23657100  0.62677700  0.78799000  1
  O  O18  1  0.76342900  0.87322300  0.28799000  1
  O  O19  1  0.26342900  0.12677700  0.21201000  1
  O  O20  1  0.26342900  0.62677700  0.28799000  1
  O  O21  1  0.76342900  0.37322300  0.21201000  1
  O  O22  1  0.23657100  0.12677700  0.71201000  1
  O  O23  1  0.73657100  0.87322300  0.78799000  1
  O  O24  1  0.73782400  0.13571400  0.87458100  1
  O  O25  1  0.23782400  0.86428600  0.62541900  1
  O  O26  1  0.76217600  0.63571400  0.12541900  1
  O  O27  1  0.26217600  0.36428600  0.37458100  1
  O  O28  1  0.26217600  0.86428600  0.12541900  1
  O  O29  1  0.76217600  0.13571400  0.37458100  1
  O  O30  1  0.23782400  0.36428600  0.87458100  1
  O  O31  1  0.73782400  0.63571400  0.62541900  1
loop_
_geom_bond_atom_site_label_1
_geom_bond_atom_site_label_2
_geom_bond_distance
_geom_bond_site_symmetry_2
Na0 O16 2.375129 1_455
Na0 O17 2.383029 1_555
Na0 O3 2.411276 1_555
Na0 O30 2.442959 1_555
Na1 O3 2.367469 1_555
Na1 O16 2.399016 1_555
Na1 O13 2.480199 1_555
Na1 O22 2.511803 1_555
Na1 O11 2.826271 1_555
Na2 O0 2.367469 1_555
Na2 O19 2.399016 1_555
Na2 O14 2.480199 1_555
Na2 O21 2.511803 1_555
Na2 O8 2.826271 1_555
Na3 O1 2.367469 1_555
Na3 O18 2.399016 1_455
Na3 O15 2.480199 1_455
Na3 O20 2.511803 1_555
Na3 O9 2.826271 1_555
Na4 O6 2.367469 1_555
Na4 O21 2.399016 1_455
Na4 O8 2.480199 1_455
Na4 O19 2.511803 1_555
Na4 O14 2.826271 1_555
Na5 O7 2.367469 1_555
Na5 O20 2.399016 1_555
Na5 O9 2.480199 1_555
Na5 O18 2.511803 1_555
Na5 O15 2.826271 1_555
Na6 O4 2.367469 1_555
Na6 O23 2.399016 1_555
Na6 O10 2.480199 1_555
Na6 O17 2.511803 1_555
Na6 O12 2.826271 1_555
Na7 O5 2.367469 1_555
Na7 O22 2.399016 1_655
Na7 O11 2.480199 1_655
Na7 O16 2.511803 1_555
Na7 O13 2.826271 1_555
Na8 O26 2.318307 1_555
Na8 O18 2.321975 1_555
Na8 O28 2.379780 1_655
Na8 O0 2.512426 1_565
Na9 O27 2.318307 1_555
Na9 O19 2.321975 1_555
Na9 O29 2.379780 1_555
Na9 O1 2.512426 1_545
Na10 O24 2.318307 1_555
Na10 O16 2.321975 1_555
Na10 O30 2.379780 1_555
Na10 O2 2.512426 1_555
Na11 O25 2.318307 1_555
Na11 O17 2.321975 1_555
Na11 O31 2.379780 1_455
Na11 O3 2.512426 1_555
Na12 O30 2.318307 1_555
Na12 O22 2.321975 1_555
Na12 O24 2.379780 1_455
Na12 O4 2.512426 1_545
Na13 O31 2.318307 1_555
Na13 O23 2.321975 1_555
Na13 O25 2.379780 1_555
Na13 O5 2.512426 1_565
Na14 O28 2.318307 1_555
Na14 O20 2.321975 1_555
Na14 O26 2.379780 1_555
Na14 O6 2.512426 1_555
Na15 O29 2.318307 1_555
Na15 O21 2.321975 1_555
Na15 O27 2.379780 1_655
Na15 O7 2.512426 1_555
Na16 O8 2.382559 1_555
Na16 O0 2.491579 1_555
Na16 O14 2.504105 1_655
Na16 O24 2.544878 1_554
Na17 O9 2.382559 1_555
Na17 O1 2.491579 1_555
Na17 O15 2.504105 1_555
Na17 O25 2.544878 1_555
Na18 O10 2.382559 1_555
Na18 O2 2.491579 1_555
Na18 O12 2.504105 1_555
Na18 O26 2.544878 1_556
Na19 O11 2.382559 1_555
Na19 O3 2.491579 1_555
Na19 O13 2.504105 1_455
Na19 O27 2.544878 1_555
Na20 O12 2.382559 1_555
Na20 O4 2.491579 1_555
Na20 O10 2.504105 1_455
Na20 O28 2.544878 1_556
Na21 O13 2.382559 1_555
Na21 O5 2.491579 1_555
Na21 O11 2.504105 1_555
Na21 O29 2.544878 1_555
Na22 O14 2.382559 1_555
Na22 O6 2.491579 1_555
Na22 O8 2.504105 1_555
Na22 O30 2.544878 1_554
Na23 O15 2.382559 1_555
Na23 O7 2.491579 1_555
Na23 O9 2.504105 1_655
Na23 O31 2.544878 1_555
Na24 O15 2.255417 1_555
Na24 O5 2.268155 1_565
Na24 O25 2.337268 1_655
Na24 O11 2.650585 1_665
Na25 O18 2.375129 1_555
Na25 O19 2.383029 1_565
Na25 O1 2.411276 1_555
Na25 O28 2.442959 1_555
Na26 O17 2.375129 1_555
Na26 O16 2.383029 1_555
Na26 O2 2.411276 1_555
Na26 O31 2.442959 1_555
Na27 O2 2.367469 1_555
Na27 O17 2.399016 1_655
Na27 O12 2.480199 1_655
Na27 O23 2.511803 1_555
Na27 O10 2.826271 1_555
Na28 O23 2.375129 1_455
Na28 O22 2.383029 1_565
Na28 O4 2.411276 1_555
Na28 O25 2.442959 1_555
Na29 O22 2.375129 1_555
Na29 O23 2.383029 1_545
Na29 O5 2.411276 1_555
Na29 O24 2.442959 1_555
Na30 O21 2.375129 1_555
Na30 O20 2.383029 1_555
Na30 O6 2.411276 1_555
Na30 O27 2.442959 1_555
Na31 O20 2.375129 1_655
Na31 O21 2.383029 1_555
Na31 O7 2.411276 1_555
Na31 O26 2.442959 1_555
Na32 O8 2.255417 1_556
Na32 O2 2.268155 1_555
Na32 O30 2.337268 1_655
Na32 O12 2.650585 1_655
Na33 O9 2.255417 1_555
Na33 O3 2.268155 1_555
Na33 O31 2.337268 1_555
Na33 O13 2.650585 1_555
Na34 O10 2.255417 1_554
Na34 O0 2.268155 1_565
Na34 O28 2.337268 1_555
Na34 O14 2.650585 1_565
Na35 O11 2.255417 1_555
Na35 O1 2.268155 1_545
Na35 O29 2.337268 1_455
Na35 O15 2.650585 1_445
Na36 O12 2.255417 1_554
Na36 O6 2.268155 1_555
Na36 O26 2.337268 1_455
Na36 O8 2.650585 1_455
Na37 O13 2.255417 1_555
Na37 O7 2.268155 1_555
Na37 O27 2.337268 1_555
Na37 O9 2.650585 1_555
Na38 O14 2.255417 1_556
Na38 O4 2.268155 1_545
Na38 O24 2.337268 1_555
Na38 O10 2.650585 1_545
Na39 O19 2.375129 1_655
Na39 O18 2.383029 1_545
Na39 O0 2.411276 1_555
Na39 O29 2.442959 1_555
Fe0 O3 1.895493 1_655
Fe0 O13 1.897668 1_555
Fe0 O31 1.925412 1_555
Fe0 O16 1.927516 1_555
Fe1 O2 1.895493 1_555
Fe1 O12 1.897668 1_555
Fe1 O30 1.925412 1_555
Fe1 O17 1.927516 1_555
Fe2 O1 1.895493 1_555
Fe2 O15 1.897668 1_555
Fe2 O29 1.925412 1_565
Fe2 O18 1.927516 1_555
Fe3 O0 1.895493 1_455
Fe3 O14 1.897668 1_555
Fe3 O28 1.925412 1_545
Fe3 O19 1.927516 1_555
Fe4 O7 1.895493 1_455
Fe4 O9 1.897668 1_555
Fe4 O27 1.925412 1_555
Fe4 O20 1.927516 1_555
Fe5 O6 1.895493 1_555
Fe5 O8 1.897668 1_555
Fe5 O26 1.925412 1_555
Fe5 O21 1.927516 1_555
Fe6 O5 1.895493 1_555
Fe6 O11 1.897668 1_555
Fe6 O25 1.925412 1_545
Fe6 O22 1.927516 1_555
Fe7 O4 1.895493 1_655
Fe7 O10 1.897668 1_555
Fe7 O24 1.925412 1_565
Fe7 O23 1.927516 1_555
