# generated using pymatgen
data_LiTbS2
_symmetry_space_group_name_H-M   'P 1'
_cell_length_a   6.54372156
_cell_length_b   6.54372156
_cell_length_c   6.54372103
_cell_angle_alpha   34.86146458
_cell_angle_beta   34.86146458
_cell_angle_gamma   34.86145588
_symmetry_Int_Tables_number   1
_chemical_formula_structural   LiTbS2
_chemical_formula_sum   'Li1 Tb1 S2'
_cell_volume   81.72231737
_cell_formula_units_Z   1
loop_
 _symmetry_equiv_pos_site_id
 _symmetry_equiv_pos_as_xyz
  1  'x, y, z'
loop_
 _atom_site_type_symbol
 _atom_site_label
 _atom_site_symmetry_multiplicity
 _atom_site_fract_x
 _atom_site_fract_y
 _atom_site_fract_z
 _atom_site_occupancy
  Li  Li0  1  0.00000000  0.00000000  -0.00000000  1
  Tb  Tb0  1  0.50000000  0.50000000  0.50000000  1
  S  S0  1  0.25056446  0.25056446  0.25056446  1
  S  S1  1  0.74943554  0.74943554  0.74943554  1
loop_
_geom_bond_atom_site_label_1
_geom_bond_atom_site_label_2
_geom_bond_distance
_geom_bond_site_symmetry_2
Li0 S1 2.728989 1_445
Li0 S0 2.728989 1_554
Li0 S0 2.728989 1_545
Li0 S1 2.728989 1_544
Li0 S0 2.728989 1_455
Li0 S1 2.728989 1_454
S0 Tb0 2.740660 1_554
S0 Tb0 2.740660 1_545
S0 Tb0 2.740660 1_455
S1 Tb0 2.740660 1_556
S1 Tb0 2.740660 1_565
S1 Tb0 2.740660 1_655
