# generated using pymatgen
data_Tm2Al3Si2
_symmetry_space_group_name_H-M   'P 1'
_cell_length_a   3.99830730
_cell_length_b   5.37776459
_cell_length_c   6.52488878
_cell_angle_alpha   99.80409452
_cell_angle_beta   90.00000000
_cell_angle_gamma   111.82323669
_symmetry_Int_Tables_number   1
_chemical_formula_structural   Tm2Al3Si2
_chemical_formula_sum   'Tm2 Al3 Si2'
_cell_volume   128.03369119
_cell_formula_units_Z   1
loop_
 _symmetry_equiv_pos_site_id
 _symmetry_equiv_pos_as_xyz
  1  'x, y, z'
loop_
 _atom_site_type_symbol
 _atom_site_label
 _atom_site_symmetry_multiplicity
 _atom_site_fract_x
 _atom_site_fract_y
 _atom_site_fract_z
 _atom_site_occupancy
  Tm  Tm0  1  0.38066041  0.76132082  0.67726659  1
  Tm  Tm1  1  0.61933959  0.23867918  0.32273341  1
  Al  Al0  1  0.69525913  0.39052126  0.86800871  1
  Al  Al1  1  0.00000000  0.00000000  -0.00000000  1
  Al  Al2  1  0.30474087  0.60947874  0.13199129  1
  Si  Si0  1  0.90666978  0.81333956  0.35998565  1
  Si  Si1  1  0.09333122  0.18666044  0.64001435  1
loop_
_geom_bond_atom_site_label_1
_geom_bond_atom_site_label_2
_geom_bond_distance
_geom_bond_site_symmetry_2
Al0 Si1 2.586509 1_555
Al0 Si1 2.586524 1_655
Al0 Tm0 3.133299 1_555
Al0 Tm0 3.133306 1_655
Al0 Tm0 3.159417 1_545
Al0 Tm1 3.194214 1_556
Al1 Si0 2.681147 1_445
Al1 Si1 2.681147 1_554
Al1 Tm1 2.988369 1_455
Al1 Tm0 2.988369 1_544
Al1 Tm0 2.988369 1_444
Al1 Tm1 2.988369 1_555
Al2 Si0 2.586512 1_555
Al2 Si0 2.586521 1_455
Al2 Tm1 3.133299 1_555
Al2 Tm1 3.133306 1_455
Al2 Tm1 3.159417 1_565
Al2 Tm0 3.194214 1_554
Si0 Si1 2.358564 1_665
Si0 Tm1 2.834421 1_555
Si0 Tm0 2.923544 1_555
Si0 Tm0 2.923544 1_655
Si0 Tm1 2.958731 1_565
Si0 Tm1 2.958731 1_665
Si1 Tm0 2.834421 1_555
Si1 Tm1 2.923541 1_555
Si1 Tm1 2.923547 1_455
Si1 Tm0 2.958729 1_545
Si1 Tm0 2.958734 1_445
