# generated using pymatgen
data_Li5Mn2Co2(PO4)4
_symmetry_space_group_name_H-M   'P 1'
_cell_length_a   4.87658300
_cell_length_b   6.24570669
_cell_length_c   10.43055139
_cell_angle_alpha   91.78218550
_cell_angle_beta   90.74182727
_cell_angle_gamma   90.28760357
_symmetry_Int_Tables_number   1
_chemical_formula_structural   Li5Mn2Co2(PO4)4
_chemical_formula_sum   'Li5 Mn2 Co2 P4 O16'
_cell_volume   317.50571735
_cell_formula_units_Z   1
loop_
 _symmetry_equiv_pos_site_id
 _symmetry_equiv_pos_as_xyz
  1  'x, y, z'
loop_
 _atom_site_type_symbol
 _atom_site_label
 _atom_site_symmetry_multiplicity
 _atom_site_fract_x
 _atom_site_fract_y
 _atom_site_fract_z
 _atom_site_occupancy
  Li  Li0  1  0.02155300  0.99002900  0.99218600  1
  Li  Li1  1  0.11074000  0.47697800  0.87083400  1
  Li  Li2  1  0.51604800  0.49035800  0.50843300  1
  Li  Li3  1  0.48528600  0.99545800  0.49392400  1
  Li  Li4  1  0.88925800  0.52286200  0.13034300  1
  Mn  Mn0  1  0.55008200  0.22768900  0.77852500  1
  Mn  Mn1  1  0.44999800  0.76926500  0.22105400  1
  Co  Co0  1  0.03002300  0.76588300  0.70614600  1
  Co  Co1  1  0.96988300  0.23388900  0.29108400  1
  P  P0  1  0.60649100  0.74483200  0.90553700  1
  P  P1  1  0.09366400  0.25279200  0.59562400  1
  P  P2  1  0.90569800  0.75086200  0.40334100  1
  P  P3  1  0.39527700  0.25481300  0.09517000  1
  O  O0  1  0.29327800  0.24572000  0.95173300  1
  O  O1  1  0.29103500  0.75133500  0.89624300  1
  O  O2  1  0.74442300  0.94185100  0.84074700  1
  O  O3  1  0.72779200  0.54062100  0.83720600  1
  O  O4  1  0.21443800  0.44838500  0.67777100  1
  O  O5  1  0.22657800  0.05361100  0.66030000  1
  O  O6  1  0.77681700  0.24645000  0.59615200  1
  O  O7  1  0.78335600  0.73719800  0.53975300  1
  O  O8  1  0.21592700  0.26270900  0.45930200  1
  O  O9  1  0.22075000  0.76342500  0.40265000  1
  O  O10  1  0.76680900  0.94943500  0.33994000  1
  O  O11  1  0.79016800  0.55409800  0.32063600  1
  O  O12  1  0.26887100  0.45794000  0.16267600  1
  O  O13  1  0.25699100  0.05625500  0.15819500  1
  O  O14  1  0.70867800  0.25182800  0.10585900  1
  O  O15  1  0.71000800  0.75319700  0.04800100  1
loop_
_geom_bond_atom_site_label_1
_geom_bond_atom_site_label_2
_geom_bond_distance
_geom_bond_site_symmetry_2
Li0 O2 2.079217 1_455
Li0 O13 2.094474 1_566
Li0 O0 2.125880 1_565
Li0 O15 2.211113 1_456
Li0 O1 2.216285 1_555
Li0 O14 2.521643 1_466
Li1 O0 1.913084 1_555
Li1 O1 1.931355 1_555
Li1 O3 1.941049 1_455
Li1 O4 2.085120 1_555
Li2 O7 2.029838 1_555
Li2 O8 2.083412 1_555
Li2 O6 2.202491 1_555
Li2 O4 2.333244 1_555
Li2 O11 2.427633 1_555
Li2 O9 2.510069 1_555
Li3 O9 2.129408 1_555
Li3 O10 2.139958 1_555
Li3 O8 2.165452 1_565
Li3 O5 2.181114 1_565
Li3 O7 2.235325 1_555
Li3 O6 2.334521 1_565
Li4 O15 1.908241 1_555
Li4 O14 1.912744 1_555
Li4 O12 1.924844 1_655
Li4 O11 2.052543 1_555
Mn0 O2 2.140016 1_545
Mn0 O3 2.200116 1_555
Mn0 O0 2.211866 1_555
Mn0 O6 2.218529 1_555
Mn0 O5 2.245121 1_555
Mn0 O4 2.398278 1_555
Mn1 O13 2.145395 1_565
Mn1 O12 2.197046 1_555
Mn1 O9 2.213063 1_555
Mn1 O15 2.219286 1_555
Mn1 O10 2.244331 1_555
Mn1 O11 2.387740 1_555
Co0 O7 2.101354 1_455
Co0 O5 2.103544 1_565
Co0 O4 2.194753 1_555
Co0 O2 2.255835 1_455
Co0 O1 2.346694 1_555
Co0 O3 2.484234 1_455
Co1 O10 2.109142 1_545
Co1 O8 2.115270 1_655
Co1 O11 2.202057 1_555
Co1 O13 2.254475 1_655
Co1 O14 2.306270 1_555
Co1 O12 2.454515 1_655
O0 P3 1.569776 1_556
O1 P0 1.540964 1_555
O2 P0 1.574329 1_555
O3 P0 1.564160 1_555
O4 P1 1.577340 1_555
O5 P1 1.572192 1_555
O6 P1 1.545525 1_655
O7 P2 1.554593 1_555
O8 P1 1.551844 1_555
O9 P2 1.538108 1_455
O10 P2 1.575463 1_555
O11 P2 1.576827 1_555
O12 P3 1.564874 1_555
O13 P3 1.574372 1_555
O14 P3 1.531196 1_555
O15 P0 1.562426 1_554
