# generated using pymatgen
data_DyErMn4
_symmetry_space_group_name_H-M   'P 1'
_cell_length_a   5.10928046
_cell_length_b   5.12570100
_cell_length_c   8.39352858
_cell_angle_alpha   90.00000000
_cell_angle_beta   89.88492786
_cell_angle_gamma   59.89362265
_symmetry_Int_Tables_number   1
_chemical_formula_structural   DyErMn4
_chemical_formula_sum   'Dy2 Er2 Mn8'
_cell_volume   190.16058949
_cell_formula_units_Z   2
loop_
 _symmetry_equiv_pos_site_id
 _symmetry_equiv_pos_as_xyz
  1  'x, y, z'
loop_
 _atom_site_type_symbol
 _atom_site_label
 _atom_site_symmetry_multiplicity
 _atom_site_fract_x
 _atom_site_fract_y
 _atom_site_fract_z
 _atom_site_occupancy
  Dy  Dy0  1  0.33334000  0.33333000  0.56356600  1
  Dy  Dy1  1  0.66666000  0.66667000  0.43643400  1
  Er  Er0  1  0.66654800  0.66672600  0.06295000  1
  Er  Er1  1  0.33345200  0.33327400  0.93705000  1
  Mn  Mn0  1  0.00000000  0.00000000  0.50000000  1
  Mn  Mn1  1  0.00000000  0.00000000  0.00000000  1
  Mn  Mn2  1  0.83081300  0.33782100  0.75303500  1
  Mn  Mn3  1  0.33828700  0.83085700  0.75341000  1
  Mn  Mn4  1  0.83081300  0.83136600  0.75303500  1
  Mn  Mn5  1  0.16918700  0.66217900  0.24696500  1
  Mn  Mn6  1  0.66171300  0.16914300  0.24659000  1
  Mn  Mn7  1  0.16918700  0.16863400  0.24696500  1
loop_
_geom_bond_atom_site_label_1
_geom_bond_atom_site_label_2
_geom_bond_distance
_geom_bond_site_symmetry_2
Dy0 Mn0 2.993343 1_655
Dy0 Mn0 3.004552 1_565
Dy0 Mn0 3.004552 1_555
Dy0 Mn4 3.007699 1_455
Dy0 Mn2 3.007699 1_455
Dy0 Mn4 3.010805 1_545
Dy0 Mn2 3.010805 1_555
Dy0 Mn3 3.017938 1_545
Dy0 Mn3 3.017942 1_555
Dy0 Mn6 3.027736 1_555
Dy0 Mn5 3.032670 1_555
Dy0 Mn7 3.032670 1_555
Dy0 Er1 3.134850 1_555
Dy0 Dy1 3.136324 1_455
Dy0 Dy1 3.141676 1_545
Dy0 Dy1 3.141676 1_555
Dy1 Mn0 2.993343 1_565
Dy1 Mn0 3.004552 1_655
Dy1 Mn0 3.004552 1_665
Dy1 Mn7 3.007699 1_655
Dy1 Mn5 3.007699 1_655
Dy1 Mn7 3.010805 1_565
Dy1 Mn5 3.010805 1_555
Dy1 Mn6 3.017938 1_565
Dy1 Mn6 3.017942 1_555
Dy1 Mn3 3.027736 1_555
Dy1 Mn2 3.032670 1_555
Dy1 Mn4 3.032670 1_555
Dy1 Er0 3.134850 1_555
Er0 Mn3 2.978752 1_554
Er0 Mn2 2.980767 1_554
Er0 Mn4 2.980767 1_554
Er0 Mn7 2.981151 1_565
Er0 Mn5 2.981151 1_555
Er0 Mn7 2.989528 1_655
Er0 Mn5 2.989528 1_655
Er0 Mn6 2.990714 1_565
Er0 Mn6 2.990718 1_555
Er0 Mn1 2.994365 1_565
Er0 Mn1 3.002672 1_655
Er0 Mn1 3.002672 1_665
Er0 Er1 3.129111 1_654
Er0 Er1 3.140028 1_564
Er0 Er1 3.140028 1_554
Er1 Mn6 2.978752 1_556
Er1 Mn5 2.980767 1_556
Er1 Mn7 2.980767 1_556
Er1 Mn4 2.981151 1_545
Er1 Mn2 2.981151 1_555
Er1 Mn4 2.989528 1_455
Er1 Mn2 2.989528 1_455
Er1 Mn3 2.990714 1_545
Er1 Mn3 2.990718 1_555
Er1 Mn1 2.994365 1_656
Er1 Mn1 3.002672 1_566
Er1 Mn1 3.002672 1_556
Mn0 Mn2 2.597563 1_455
Mn0 Mn5 2.597563 1_545
Mn0 Mn4 2.597563 1_445
Mn0 Mn7 2.597563 1_555
Mn0 Mn3 2.602813 1_545
Mn0 Mn6 2.602813 1_455
Mn1 Mn3 2.550542 1_544
Mn1 Mn6 2.550542 1_455
Mn1 Mn2 2.558923 1_454
Mn1 Mn5 2.558923 1_545
Mn1 Mn4 2.558923 1_444
Mn1 Mn7 2.558923 1_555
Mn2 Mn3 2.517761 1_555
Mn2 Mn4 2.529764 1_555
Mn2 Mn3 2.591525 1_645
Mn2 Mn4 2.595937 1_545
Mn3 Mn4 2.517759 1_555
Mn3 Mn4 2.591528 1_455
Mn5 Mn6 2.517761 1_555
Mn5 Mn7 2.529764 1_555
Mn5 Mn6 2.591525 1_465
Mn5 Mn7 2.595937 1_565
Mn6 Mn7 2.517759 1_555
Mn6 Mn7 2.591528 1_655
