# generated using pymatgen
data_Er2Ge2S7
_symmetry_space_group_name_H-M   'P 1'
_cell_length_a   6.21267100
_cell_length_b   9.53692100
_cell_length_c   9.59525235
_cell_angle_alpha   61.83645161
_cell_angle_beta   90.00000000
_cell_angle_gamma   90.00000000
_symmetry_Int_Tables_number   1
_chemical_formula_structural   Er2Ge2S7
_chemical_formula_sum   'Er4 Ge4 S14'
_cell_volume   501.20621756
_cell_formula_units_Z   2
loop_
 _symmetry_equiv_pos_site_id
 _symmetry_equiv_pos_as_xyz
  1  'x, y, z'
loop_
 _atom_site_type_symbol
 _atom_site_label
 _atom_site_symmetry_multiplicity
 _atom_site_fract_x
 _atom_site_fract_y
 _atom_site_fract_z
 _atom_site_occupancy
  Er  Er0  1  0.17301700  0.14834600  0.60657600  1
  Er  Er1  1  0.17181900  0.60238000  0.22352400  1
  Er  Er2  1  0.67301700  0.85165400  0.39342400  1
  Er  Er3  1  0.67181900  0.39762000  0.77647600  1
  Ge  Ge0  1  0.48248400  0.99192800  0.00891600  1
  Ge  Ge1  1  0.98248400  0.00807200  0.99108400  1
  Ge  Ge2  1  0.10152500  0.66822600  0.66916500  1
  Ge  Ge3  1  0.60152500  0.33177400  0.33083500  1
  S  S0  1  0.27646900  0.22097600  0.86331900  1
  S  S1  1  0.24279300  0.86511200  0.90652200  1
  S  S2  1  0.28363900  0.88027400  0.23917400  1
  S  S3  1  0.77646900  0.77902400  0.13668100  1
  S  S4  1  0.74279300  0.13488800  0.09347800  1
  S  S5  1  0.78363900  0.11972600  0.76082600  1
  S  S6  1  0.47612700  0.08410000  0.44721700  1
  S  S7  1  0.43737300  0.42494600  0.48326000  1
  S  S8  1  0.46235600  0.48893200  0.09803800  1
  S  S9  1  0.97612700  0.91590000  0.55278300  1
  S  S10  1  0.93737300  0.57505400  0.51674000  1
  S  S11  1  0.96235600  0.51106800  0.90196200  1
  S  S12  1  0.46017700  0.67519200  0.67058400  1
  S  S13  1  0.96017700  0.32480800  0.32941600  1
loop_
_geom_bond_atom_site_label_1
_geom_bond_atom_site_label_2
_geom_bond_distance
_geom_bond_site_symmetry_2
Er0 S6 2.672842 1_555
Er0 S13 2.725499 1_455
Er0 S5 2.781310 1_455
Er0 S9 2.785154 1_445
Er0 S7 2.847726 1_555
Er0 S1 2.903251 1_545
Er0 S0 2.927895 1_555
Er1 S8 2.666123 1_555
Er1 S13 2.688828 1_455
Er1 S7 2.795617 1_555
Er1 S2 2.811527 1_555
Er1 S3 2.870548 1_455
Er1 S1 2.920655 1_554
Er1 S10 3.068054 1_455
Er2 S9 2.672842 1_555
Er2 S12 2.725499 1_555
Er2 S2 2.781310 1_555
Er2 S6 2.785154 1_565
Er2 S10 2.847726 1_555
Er2 S4 2.903251 1_565
Er2 S3 2.927895 1_555
Er3 S11 2.666123 1_555
Er3 S12 2.688828 1_555
Er3 S10 2.795617 1_555
Er3 S5 2.811527 1_555
Er3 S0 2.870548 1_555
Er3 S4 2.920655 1_556
Er3 S7 3.068054 1_555
Ge0 S2 2.306626 1_555
Ge0 S0 2.341106 1_564
Ge0 S1 2.401502 1_554
Ge0 S4 2.485332 1_565
Ge0 S3 2.571331 1_555
Ge0 S5 2.813172 1_564
Ge1 S5 2.306626 1_555
Ge1 S3 2.341106 1_546
Ge1 S4 2.401502 1_556
Ge1 S1 2.485332 1_645
Ge1 S0 2.571331 1_655
Ge1 S2 2.813172 1_646
Ge2 S11 2.196177 1_455
Ge2 S9 2.223349 1_455
Ge2 S12 2.229410 1_555
Ge2 S10 2.279355 1_455
Ge3 S8 2.196177 1_555
Ge3 S6 2.223349 1_555
Ge3 S13 2.229410 1_555
Ge3 S7 2.279355 1_555
