# generated using pymatgen
data_SrGeAu3
_symmetry_space_group_name_H-M   'P 1'
_cell_length_a   6.28212474
_cell_length_b   6.28212474
_cell_length_c   5.60321956
_cell_angle_alpha   90.00000000
_cell_angle_beta   90.00000000
_cell_angle_gamma   90.00000000
_symmetry_Int_Tables_number   1
_chemical_formula_structural   SrGeAu3
_chemical_formula_sum   'Sr2 Ge2 Au6'
_cell_volume   221.13157122
_cell_formula_units_Z   2
loop_
 _symmetry_equiv_pos_site_id
 _symmetry_equiv_pos_as_xyz
  1  'x, y, z'
loop_
 _atom_site_type_symbol
 _atom_site_label
 _atom_site_symmetry_multiplicity
 _atom_site_fract_x
 _atom_site_fract_y
 _atom_site_fract_z
 _atom_site_occupancy
  Sr  Sr0  1  0.50000000  0.50000000  0.00000000  1
  Sr  Sr1  1  -0.00000000  -0.00000000  0.00000000  1
  Ge  Ge0  1  0.50000000  -0.00000000  0.73336469  1
  Ge  Ge1  1  -0.00000000  0.50000000  0.26663531  1
  Au  Au0  1  0.25000000  0.25000000  0.50000000  1
  Au  Au1  1  0.25000000  0.75000000  0.50000000  1
  Au  Au2  1  0.75000000  0.25000000  0.50000000  1
  Au  Au3  1  0.75000000  0.75000000  0.50000000  1
  Au  Au4  1  0.50000000  -0.00000000  0.17437487  1
  Au  Au5  1  0.00000000  0.50000000  0.82562513  1
loop_
_geom_bond_atom_site_label_1
_geom_bond_atom_site_label_2
_geom_bond_distance
_geom_bond_site_symmetry_2
Ge0 Sr0 3.478269 1_556
Ge0 Sr0 3.478269 1_546
Ge0 Sr1 3.478269 1_656
Ge0 Sr1 3.478269 1_556
Ge1 Sr0 3.478269 1_555
Ge1 Sr0 3.478269 1_455
Ge1 Sr1 3.478269 1_555
Ge1 Sr1 3.478269 1_565
Au0 Ge1 2.577390 1_555
Au0 Ge0 2.577390 1_555
Au0 Sr1 3.575214 1_556
Au0 Sr0 3.575214 1_555
Au0 Sr0 3.575214 1_556
Au0 Sr1 3.575214 1_555
Au1 Ge1 2.577390 1_555
Au1 Ge0 2.577390 1_565
Au1 Sr1 3.575214 1_566
Au1 Sr0 3.575214 1_555
Au1 Sr0 3.575214 1_556
Au1 Sr1 3.575214 1_565
Au2 Ge1 2.577390 1_655
Au2 Ge0 2.577390 1_555
Au2 Sr0 3.575214 1_555
Au2 Sr0 3.575214 1_556
Au2 Sr1 3.575214 1_655
Au2 Sr1 3.575214 1_656
Au3 Ge1 2.577390 1_655
Au3 Ge0 2.577390 1_565
Au3 Sr1 3.575214 1_665
Au3 Sr0 3.575214 1_555
Au3 Sr0 3.575214 1_556
Au3 Sr1 3.575214 1_666
Au4 Ge0 2.471077 1_554
Au4 Sr1 3.289517 1_655
Au4 Sr0 3.289517 1_545
Au4 Sr1 3.289517 1_555
Au4 Sr0 3.289517 1_555
Au5 Ge1 2.471077 1_556
Au5 Sr1 3.289517 1_556
Au5 Sr1 3.289517 1_566
Au5 Sr0 3.289517 1_456
Au5 Sr0 3.289517 1_556
