# generated using pymatgen
data_SiH12C4(N5F3)2
_symmetry_space_group_name_H-M   'P 1'
_cell_length_a   6.18920000
_cell_length_b   7.63084945
_cell_length_c   7.66724271
_cell_angle_alpha   100.81580214
_cell_angle_beta   106.71022969
_cell_angle_gamma   109.01032712
_symmetry_Int_Tables_number   1
_chemical_formula_structural   SiH12C4(N5F3)2
_chemical_formula_sum   'Si1 H12 C4 N10 F6'
_cell_volume   311.68320099
_cell_formula_units_Z   1
loop_
 _symmetry_equiv_pos_site_id
 _symmetry_equiv_pos_as_xyz
  1  'x, y, z'
loop_
 _atom_site_type_symbol
 _atom_site_label
 _atom_site_symmetry_multiplicity
 _atom_site_fract_x
 _atom_site_fract_y
 _atom_site_fract_z
 _atom_site_occupancy
  Si  Si0  1  0.00000000  0.50000000  0.00000000  1
  H  H0  1  0.51495500  0.44316400  0.66619300  1
  H  H1  1  0.48504500  0.55683600  0.33380700  1
  H  H2  1  0.31004700  0.50939800  0.74408400  1
  H  H3  1  0.68995300  0.49060200  0.25591600  1
  H  H4  1  0.42471500  0.88398500  0.12925500  1
  H  H5  1  0.57528500  0.11601500  0.87074500  1
  H  H6  1  0.41907500  0.07448800  0.29383500  1
  H  H7  1  0.58092500  0.92551200  0.70616500  1
  H  H8  1  0.85572400  0.32740900  0.55707000  1
  H  H9  1  0.14427600  0.67259100  0.44293000  1
  H  H10  1  0.87907700  0.90617300  0.14718400  1
  H  H11  1  0.12092300  0.09382700  0.85281600  1
  C  C0  1  0.15297800  0.28416800  0.49388600  1
  C  C1  1  0.84702200  0.71583200  0.50611400  1
  C  C2  1  0.76439400  0.09301800  0.30798800  1
  C  C3  1  0.23560600  0.90698200  0.69201200  1
  N  N0  1  0.16545900  0.14765700  0.36740400  1
  N  N1  1  0.83454100  0.85234300  0.63259600  1
  N  N2  1  0.34240400  0.44182200  0.63190900  1
  N  N3  1  0.65759600  0.55817800  0.36809100  1
  N  N4  1  0.51888900  0.01821900  0.23141500  1
  N  N5  1  0.48111100  0.98178100  0.76858500  1
  N  N6  1  0.91054700  0.25519600  0.46208400  1
  N  N7  1  0.08945300  0.74480400  0.53791600  1
  N  N8  1  0.91903900  0.03149600  0.25048300  1
  N  N9  1  0.08096100  0.96850400  0.74951700  1
  F  F0  1  0.82972800  0.44347000  0.75860100  1
  F  F1  1  0.17027200  0.55653000  0.24139900  1
  F  F2  1  0.94435000  0.70515400  0.04830400  1
  F  F3  1  0.05565000  0.29484600  0.95169600  1
  F  F4  1  0.26228100  0.63075500  0.96748900  1
  F  F5  1  0.73771900  0.36924500  0.03251100  1
loop_
_geom_bond_atom_site_label_1
_geom_bond_atom_site_label_2
_geom_bond_distance
_geom_bond_site_symmetry_2
H0 N2 1.019880 1_555
H1 N3 1.019880 1_555
H2 N2 1.022553 1_555
H3 N3 1.022553 1_555
H4 N4 1.024634 1_565
H5 N5 1.024634 1_545
H6 N4 1.029932 1_555
H7 N5 1.029932 1_555
H8 N6 1.030765 1_555
H9 N7 1.030765 1_555
H10 N8 1.025674 1_565
H11 N9 1.025674 1_545
C0 N0 1.322087 1_555
C0 N2 1.353351 1_555
C0 N6 1.383098 1_455
C1 N1 1.322087 1_555
C1 N3 1.353351 1_555
C1 N7 1.383098 1_655
C2 N4 1.332480 1_555
C2 N8 1.337392 1_555
C2 N6 1.361273 1_555
C3 N5 1.332480 1_555
C3 N9 1.337392 1_555
C3 N7 1.361273 1_555
N0 N8 1.396502 1_455
N1 N9 1.396502 1_655
F0 Si0 1.733462 1_656
F1 Si0 1.733462 1_555
F2 Si0 1.706933 1_655
F3 Si0 1.706933 1_556
F4 Si0 1.721529 1_556
F5 Si0 1.721529 1_655
