# generated using pymatgen
data_NaLa(SeO3)4
_symmetry_space_group_name_H-M   'P 1'
_cell_length_a   6.15485582
_cell_length_b   6.15485582
_cell_length_c   7.40850818
_cell_angle_alpha   90.00000000
_cell_angle_beta   90.00000000
_cell_angle_gamma   106.01424357
_symmetry_Int_Tables_number   1
_chemical_formula_structural   NaLa(SeO3)4
_chemical_formula_sum   'Na1 La1 Se4 O12'
_cell_volume   269.75977853
_cell_formula_units_Z   1
loop_
 _symmetry_equiv_pos_site_id
 _symmetry_equiv_pos_as_xyz
  1  'x, y, z'
loop_
 _atom_site_type_symbol
 _atom_site_label
 _atom_site_symmetry_multiplicity
 _atom_site_fract_x
 _atom_site_fract_y
 _atom_site_fract_z
 _atom_site_occupancy
  Na  Na0  1  0.97850535  0.02149465  0.50000000  1
  La  La0  1  0.43257609  0.56742391  -0.00000000  1
  Se  Se0  1  0.47497664  0.05207953  0.25448466  1
  Se  Se1  1  0.47497664  0.05207953  0.74551534  1
  Se  Se2  1  0.94792047  0.52502336  0.74551534  1
  Se  Se3  1  0.94792047  0.52502336  0.25448466  1
  O  O0  1  0.33308016  0.24739478  0.23556352  1
  O  O1  1  0.75260522  0.66691984  0.23556352  1
  O  O2  1  0.75260522  0.66691984  0.76443648  1
  O  O3  1  0.33308016  0.24739478  0.76443648  1
  O  O4  1  0.24276120  0.75723880  0.21626793  1
  O  O5  1  0.78072354  0.21927646  0.28287770  1
  O  O6  1  0.78072354  0.21927646  0.71712230  1
  O  O7  1  0.24276120  0.75723880  0.78373207  1
  O  O8  1  0.53891433  -0.00370154  -0.00000000  1
  O  O9  1  0.44391000  0.97174176  0.50000000  1
  O  O10  1  0.00370154  0.46108567  -0.00000000  1
  O  O11  1  0.02825824  0.55609000  0.50000000  1
loop_
_geom_bond_atom_site_label_1
_geom_bond_atom_site_label_2
_geom_bond_distance
_geom_bond_site_symmetry_2
Na0 O5 2.523647 1_555
Na0 O6 2.523647 1_555
Na0 O11 2.963630 1_645
Na0 O9 2.963630 1_645
Na0 O1 2.976516 1_545
Na0 O3 2.976516 1_655
Na0 O0 2.976516 1_655
Na0 O2 2.976516 1_545
La0 O4 2.459668 1_555
La0 O7 2.459668 1_554
La0 O8 2.538295 1_565
La0 O10 2.538295 1_555
La0 O1 2.575840 1_555
La0 O2 2.575840 1_554
La0 O3 2.575840 1_554
La0 O0 2.575840 1_555
O0 Se0 1.675353 1_555
O1 Se3 1.675353 1_555
O2 Se2 1.675353 1_555
O3 Se1 1.675353 1_555
O4 Se3 1.996248 1_455
O4 Se0 1.996248 1_565
O5 Se0 1.891038 1_555
O5 Se3 1.891038 1_555
O6 Se1 1.891038 1_555
O6 Se2 1.891038 1_555
O7 Se2 1.996248 1_455
O7 Se1 1.996248 1_565
O8 Se0 1.975306 1_555
O8 Se1 1.975306 1_554
O9 Se1 1.880771 1_565
O9 Se0 1.880771 1_565
O10 Se3 1.975306 1_455
O10 Se2 1.975306 1_454
O11 Se2 1.880771 1_455
O11 Se3 1.880771 1_455
