# generated using pymatgen
data_NaAu(IO3)4
_symmetry_space_group_name_H-M   'P 1'
_cell_length_a   5.71472409
_cell_length_b   7.19006014
_cell_length_c   8.29263574
_cell_angle_alpha   105.80137481
_cell_angle_beta   95.51586875
_cell_angle_gamma   110.34437832
_symmetry_Int_Tables_number   1
_chemical_formula_structural   NaAu(IO3)4
_chemical_formula_sum   'Na1 Au1 I4 O12'
_cell_volume   300.45721231
_cell_formula_units_Z   1
loop_
 _symmetry_equiv_pos_site_id
 _symmetry_equiv_pos_as_xyz
  1  'x, y, z'
loop_
 _atom_site_type_symbol
 _atom_site_label
 _atom_site_symmetry_multiplicity
 _atom_site_fract_x
 _atom_site_fract_y
 _atom_site_fract_z
 _atom_site_occupancy
  Na  Na0  1  0.68013900  0.10959700  0.17655500  1
  Au  Au0  1  0.92581400  0.12115600  0.64168800  1
  I  I0  1  0.32152700  0.46347500  0.02538200  1
  I  I1  1  0.01927600  0.82349600  0.87232400  1
  I  I2  1  0.01213300  0.74978000  0.33611200  1
  I  I3  1  0.39650400  0.41942800  0.50575700  1
  O  O0  1  0.33190700  0.72863400  0.05561400  1
  O  O1  1  0.17244000  0.42433900  0.20634500  1
  O  O2  1  0.99999600  0.34244800  0.86986200  1
  O  O3  1  0.87148200  0.84329200  0.05781200  1
  O  O4  1  0.29309300  0.07580400  0.94297400  1
  O  O5  1  0.78145900  0.89780400  0.74968300  1
  O  O6  1  0.80937600  0.91006100  0.40547300  1
  O  O7  1  0.72087600  0.50760900  0.26309400  1
  O  O8  1  0.14856300  0.76021700  0.54647400  1
  O  O9  1  0.04751000  0.34100500  0.52655500  1
  O  O10  1  0.53888800  0.45941900  0.72581500  1
  O  O11  1  0.39345700  0.16248700  0.39474200  1
loop_
_geom_bond_atom_site_label_1
_geom_bond_atom_site_label_2
_geom_bond_distance
_geom_bond_site_symmetry_2
Na0 O3 2.543139 1_545
Na0 O11 2.594366 1_555
Na0 O0 2.607495 1_545
Na0 O7 2.672994 1_555
Na0 O4 2.692527 1_554
Na0 O6 2.856201 1_545
Na0 O1 2.869198 1_655
Au0 O6 2.002879 1_545
Au0 O2 2.007184 1_555
Au0 O5 2.016346 1_545
Au0 O9 2.019679 1_655
I0 O0 1.832853 1_555
I0 O1 1.834698 1_555
I0 O2 1.902160 1_454
I0 O4 2.624732 1_554
I1 O3 1.820365 1_456
I1 O4 1.831371 1_565
I1 O5 1.924035 1_455
I1 O0 2.618640 1_556
I2 O8 1.811956 1_555
I2 O7 1.840050 1_455
I2 O6 1.922791 1_455
I3 O11 1.819092 1_555
I3 O10 1.827834 1_555
I3 O9 1.913762 1_555
