# generated using pymatgen
data_Ho4Al2O9
_symmetry_space_group_name_H-M   'P 1'
_cell_length_a   10.55088100
_cell_length_b   7.43200300
_cell_length_c   11.16038785
_cell_angle_alpha   71.26184628
_cell_angle_beta   90.00000000
_cell_angle_gamma   90.00000000
_symmetry_Int_Tables_number   1
_chemical_formula_structural   Ho4Al2O9
_chemical_formula_sum   'Ho16 Al8 O36'
_cell_volume   828.74761990
_cell_formula_units_Z   4
loop_
 _symmetry_equiv_pos_site_id
 _symmetry_equiv_pos_as_xyz
  1  'x, y, z'
loop_
 _atom_site_type_symbol
 _atom_site_label
 _atom_site_symmetry_multiplicity
 _atom_site_fract_x
 _atom_site_fract_y
 _atom_site_fract_z
 _atom_site_occupancy
  Ho  Ho0  1  0.59166000  0.47689900  0.30657700  1
  Ho  Ho1  1  0.40834000  0.52310100  0.69342300  1
  Ho  Ho2  1  0.09166000  0.52310100  0.19342300  1
  Ho  Ho3  1  0.90834000  0.47689900  0.80657700  1
  Ho  Ho4  1  0.60545600  0.97692200  0.28465300  1
  Ho  Ho5  1  0.39454400  0.02307800  0.71534700  1
  Ho  Ho6  1  0.10545600  0.02307800  0.21534700  1
  Ho  Ho7  1  0.89454400  0.97692200  0.78465300  1
  Ho  Ho8  1  0.37611400  0.83680800  0.06626800  1
  Ho  Ho9  1  0.62388600  0.16319200  0.93373200  1
  Ho  Ho10  1  0.87611400  0.16319200  0.43373200  1
  Ho  Ho11  1  0.12388600  0.83680800  0.56626800  1
  Ho  Ho12  1  0.87820200  0.66348300  0.41341900  1
  Ho  Ho13  1  0.12179800  0.33651700  0.58658100  1
  Ho  Ho14  1  0.37820200  0.33651700  0.08658100  1
  Ho  Ho15  1  0.62179800  0.66348300  0.91341900  1
  Al  Al0  1  0.81610100  0.84509300  0.11483500  1
  Al  Al1  1  0.18389900  0.15490700  0.88516500  1
  Al  Al2  1  0.31610100  0.15490700  0.38516500  1
  Al  Al3  1  0.68389900  0.84509300  0.61483500  1
  Al  Al4  1  0.81367000  0.28290300  0.12865400  1
  Al  Al5  1  0.18633000  0.71709700  0.87134700  1
  Al  Al6  1  0.31367000  0.71709700  0.37134700  1
  Al  Al7  1  0.68633000  0.28290300  0.62865300  1
  O  O0  1  0.73428900  0.42927300  0.47879500  1
  O  O1  1  0.26571100  0.57072700  0.52120500  1
  O  O2  1  0.23428900  0.57072700  0.02120500  1
  O  O3  1  0.76571100  0.42927300  0.97879500  1
  O  O4  1  0.72974500  0.86090900  0.46024200  1
  O  O5  1  0.27025500  0.13909100  0.53975800  1
  O  O6  1  0.22974500  0.13909100  0.03975800  1
  O  O7  1  0.77025500  0.86090900  0.96024200  1
  O  O8  1  0.97425300  0.80043200  0.16759300  1
  O  O9  1  0.02574700  0.19956800  0.83240700  1
  O  O10  1  0.47425300  0.19956800  0.33240700  1
  O  O11  1  0.52574700  0.80043200  0.66759300  1
  O  O12  1  0.50544100  0.57678800  0.10648000  1
  O  O13  1  0.49455900  0.42321200  0.89352000  1
  O  O14  1  0.00544100  0.42321200  0.39352000  1
  O  O15  1  0.99455900  0.57678800  0.60648000  1
  O  O16  1  0.72879400  0.71175000  0.24864200  1
  O  O17  1  0.27120600  0.28825000  0.75135800  1
  O  O18  1  0.22879400  0.28825000  0.25135800  1
  O  O19  1  0.77120600  0.71175000  0.74864200  1
  O  O20  1  0.73043300  0.26726100  0.27012700  1
  O  O21  1  0.26956700  0.73273900  0.72987300  1
  O  O22  1  0.23043300  0.73273900  0.22987300  1
  O  O23  1  0.76956700  0.26726100  0.77012700  1
  O  O24  1  0.25441400  0.93267600  0.38537800  1
  O  O25  1  0.74558600  0.06732400  0.61462200  1
  O  O26  1  0.75441400  0.06732400  0.11462200  1
  O  O27  1  0.24558600  0.93267600  0.88537800  1
  O  O28  1  0.47547200  0.71575200  0.33774200  1
  O  O29  1  0.52452800  0.28424800  0.66225800  1
  O  O30  1  0.97547200  0.28424800  0.16225800  1
  O  O31  1  0.02452800  0.71575200  0.83774200  1
  O  O32  1  0.99145100  0.93368700  0.39476200  1
  O  O33  1  0.00854900  0.06631300  0.60523800  1
  O  O34  1  0.49145100  0.06631300  0.10523800  1
  O  O35  1  0.50854900  0.93368700  0.89476200  1
loop_
_geom_bond_atom_site_label_1
_geom_bond_atom_site_label_2
_geom_bond_distance
_geom_bond_site_symmetry_2
Ho0 O16 2.198392 1_555
Ho0 O20 2.268031 1_555
Ho0 O28 2.274123 1_555
Ho0 O12 2.302284 1_555
Ho0 O10 2.341813 1_555
Ho0 O0 2.376334 1_555
Ho1 O17 2.198392 1_555
Ho1 O21 2.268031 1_555
Ho1 O29 2.274123 1_555
Ho1 O13 2.302284 1_555
Ho1 O11 2.341813 1_555
Ho1 O1 2.376334 1_555
Ho2 O18 2.198392 1_555
Ho2 O22 2.268031 1_555
Ho2 O30 2.274123 1_455
Ho2 O14 2.302284 1_555
Ho2 O8 2.341813 1_455
Ho2 O2 2.376334 1_555
Ho3 O19 2.198392 1_555
Ho3 O23 2.268031 1_555
Ho3 O31 2.274123 1_655
Ho3 O15 2.302284 1_555
Ho3 O9 2.341813 1_655
Ho3 O3 2.376334 1_555
Ho4 O34 2.245643 1_565
Ho4 O4 2.284228 1_555
Ho4 O28 2.293593 1_555
Ho4 O10 2.346272 1_565
Ho4 O26 2.388147 1_565
Ho4 O20 2.489254 1_565
Ho4 O16 2.499547 1_555
Ho5 O35 2.245643 1_545
Ho5 O5 2.284228 1_555
Ho5 O29 2.293593 1_555
Ho5 O11 2.346272 1_545
Ho5 O27 2.388147 1_545
Ho5 O21 2.489254 1_545
Ho5 O17 2.499547 1_555
Ho6 O32 2.245643 1_445
Ho6 O6 2.284228 1_555
Ho6 O30 2.293593 1_455
Ho6 O8 2.346272 1_445
Ho6 O24 2.388147 1_545
Ho6 O22 2.489254 1_545
Ho6 O18 2.499547 1_555
Ho7 O33 2.245643 1_665
Ho7 O7 2.284228 1_555
Ho7 O31 2.293593 1_655
Ho7 O9 2.346272 1_665
Ho7 O25 2.388147 1_565
Ho7 O23 2.489254 1_565
Ho7 O19 2.499547 1_555
Ho8 O34 2.248553 1_565
Ho8 O12 2.289222 1_555
Ho8 O35 2.291093 1_554
Ho8 O22 2.321063 1_555
Ho8 O27 2.357055 1_554
Ho8 O2 2.653605 1_555
Ho8 O6 2.663173 1_565
Ho8 O28 3.055569 1_555
Ho9 O35 2.248553 1_545
Ho9 O13 2.289222 1_555
Ho9 O34 2.291093 1_556
Ho9 O23 2.321063 1_555
Ho9 O26 2.357055 1_556
Ho9 O3 2.653605 1_555
Ho9 O7 2.663173 1_545
Ho9 O29 3.055569 1_555
Ho10 O32 2.248553 1_545
Ho10 O14 2.289222 1_655
Ho10 O33 2.291093 1_655
Ho10 O20 2.321063 1_555
Ho10 O25 2.357055 1_555
Ho10 O0 2.653605 1_555
Ho10 O4 2.663173 1_545
Ho10 O30 3.055569 1_555
Ho11 O33 2.248553 1_565
Ho11 O15 2.289222 1_455
Ho11 O32 2.291093 1_455
Ho11 O21 2.321063 1_555
Ho11 O24 2.357055 1_555
Ho11 O1 2.653605 1_555
Ho11 O5 2.663173 1_565
Ho11 O31 3.055569 1_555
Ho12 O0 2.247622 1_555
Ho12 O32 2.288041 1_555
Ho12 O14 2.301104 1_655
Ho12 O4 2.317765 1_555
Ho12 O16 2.360438 1_555
Ho12 O15 2.381769 1_555
Ho12 O8 2.792089 1_555
Ho13 O1 2.247622 1_555
Ho13 O33 2.288041 1_555
Ho13 O15 2.301104 1_455
Ho13 O5 2.317765 1_555
Ho13 O17 2.360438 1_555
Ho13 O14 2.381769 1_555
Ho13 O9 2.792089 1_555
Ho14 O2 2.247622 1_555
Ho14 O34 2.288041 1_555
Ho14 O12 2.301104 1_555
Ho14 O6 2.317765 1_555
Ho14 O18 2.360438 1_555
Ho14 O13 2.381769 1_554
Ho14 O10 2.792089 1_555
Ho15 O3 2.247622 1_555
Ho15 O35 2.288041 1_555
Ho15 O13 2.301104 1_555
Ho15 O7 2.317765 1_555
Ho15 O19 2.360438 1_555
Ho15 O12 2.381769 1_556
Ho15 O11 2.792089 1_555
Al0 O7 1.759040 1_554
Al0 O16 1.763484 1_555
Al0 O8 1.765124 1_555
Al0 O26 1.774527 1_565
Al1 O6 1.759040 1_556
Al1 O17 1.763484 1_555
Al1 O9 1.765124 1_555
Al1 O27 1.774527 1_545
Al2 O5 1.759040 1_555
Al2 O18 1.763484 1_555
Al2 O10 1.765124 1_555
Al2 O24 1.774527 1_545
Al3 O4 1.759040 1_555
Al3 O19 1.763484 1_555
Al3 O11 1.765124 1_555
Al3 O25 1.774527 1_565
Al4 O30 1.748580 1_555
Al4 O3 1.751482 1_554
Al4 O26 1.773020 1_555
Al4 O20 1.777574 1_555
Al5 O31 1.748583 1_555
Al5 O2 1.751473 1_556
Al5 O27 1.773016 1_555
Al5 O21 1.777583 1_555
Al6 O28 1.748583 1_555
Al6 O1 1.751473 1_555
Al6 O24 1.773016 1_555
Al6 O22 1.777583 1_555
Al7 O29 1.748583 1_555
Al7 O0 1.751473 1_555
Al7 O25 1.773016 1_555
Al7 O23 1.777583 1_555
