# generated using pymatgen
data_Sb3Cl9OF4
_symmetry_space_group_name_H-M   'P 1'
_cell_length_a   7.21814500
_cell_length_b   10.16149582
_cell_length_c   13.76195555
_cell_angle_alpha   91.02805263
_cell_angle_beta   93.06929989
_cell_angle_gamma   105.41554370
_symmetry_Int_Tables_number   1
_chemical_formula_structural   Sb3Cl9OF4
_chemical_formula_sum   'Sb6 Cl18 O2 F8'
_cell_volume   971.14656743
_cell_formula_units_Z   2
loop_
 _symmetry_equiv_pos_site_id
 _symmetry_equiv_pos_as_xyz
  1  'x, y, z'
loop_
 _atom_site_type_symbol
 _atom_site_label
 _atom_site_symmetry_multiplicity
 _atom_site_fract_x
 _atom_site_fract_y
 _atom_site_fract_z
 _atom_site_occupancy
  Sb  Sb0  1  0.19925000  0.94277600  0.71356300  1
  Sb  Sb1  1  0.80075000  0.05722400  0.28643700  1
  Sb  Sb2  1  0.18804900  0.26696600  0.89365700  1
  Sb  Sb3  1  0.81195100  0.73303400  0.10634300  1
  Sb  Sb4  1  0.40025200  0.35870000  0.69217500  1
  Sb  Sb5  1  0.59974800  0.64130000  0.30782500  1
  Cl  Cl0  1  0.49655700  0.59136800  0.73038500  1
  Cl  Cl1  1  0.50344300  0.40863200  0.26961500  1
  Cl  Cl2  1  0.29557500  0.85283100  0.57410000  1
  Cl  Cl3  1  0.70442500  0.14716900  0.42590000  1
  Cl  Cl4  1  0.06603000  0.74450300  0.79491700  1
  Cl  Cl5  1  0.93397000  0.25549700  0.20508300  1
  Cl  Cl6  1  0.32219800  0.17762200  0.02565000  1
  Cl  Cl7  1  0.67780200  0.82237800  0.97435000  1
  Cl  Cl8  1  0.25941700  0.36382500  0.53704600  1
  Cl  Cl9  1  0.74058300  0.63617500  0.46295400  1
  Cl  Cl10  1  0.70395600  0.34169700  0.65598200  1
  Cl  Cl11  1  0.29604400  0.65830300  0.34401800  1
  Cl  Cl12  1  0.86165700  0.19017200  0.91594500  1
  Cl  Cl13  1  0.13834300  0.80982800  0.08405500  1
  Cl  Cl14  1  0.90790200  0.96761500  0.64557600  1
  Cl  Cl15  1  0.09209800  0.03238500  0.35442400  1
  Cl  Cl16  1  0.24213600  0.48586300  0.96163000  1
  Cl  Cl17  1  0.75786400  0.51413700  0.03837000  1
  O  O0  1  0.15515300  0.31547100  0.75703000  1
  O  O1  1  0.84484700  0.68452900  0.24297000  1
  F  F0  1  0.32670900  0.13842200  0.66632100  1
  F  F1  1  0.67329100  0.86157800  0.33367900  1
  F  F2  1  0.15814300  0.06213200  0.83107300  1
  F  F3  1  0.84185700  0.93786800  0.16892700  1
  F  F4  1  0.44582300  0.96583400  0.77972900  1
  F  F5  1  0.55417700  0.03416600  0.22027100  1
  F  F6  1  0.47139400  0.30679600  0.83799400  1
  F  F7  1  0.52860600  0.69320400  0.16200600  1
loop_
_geom_bond_atom_site_label_1
_geom_bond_atom_site_label_2
_geom_bond_distance
_geom_bond_site_symmetry_2
Cl0 Sb4 2.322055 1_555
Cl1 Sb5 2.322055 1_555
Cl2 Sb0 2.328138 1_555
Cl3 Sb1 2.328138 1_555
Cl4 Sb0 2.324571 1_555
Cl5 Sb1 2.324571 1_555
Cl6 Sb2 2.323710 1_554
Cl7 Sb3 2.323710 1_556
Cl8 Sb4 2.322403 1_555
Cl9 Sb5 2.322403 1_555
Cl10 Sb4 2.323530 1_555
Cl11 Sb5 2.323530 1_555
Cl12 Sb2 2.315617 1_655
Cl13 Sb3 2.315617 1_455
Cl14 Sb0 2.332734 1_655
Cl15 Sb1 2.332734 1_455
Cl16 Sb2 2.323711 1_555
Cl17 Sb3 2.323711 1_555
O0 Sb2 1.970365 1_555
O0 Sb4 1.972183 1_555
O1 Sb3 1.970365 1_555
O1 Sb5 1.972183 1_555
F0 Sb0 2.087949 1_545
F0 Sb4 2.176721 1_555
F1 Sb1 2.087949 1_565
F1 Sb5 2.176721 1_555
F2 Sb0 2.084841 1_545
F2 Sb2 2.190343 1_555
F3 Sb1 2.084841 1_565
F3 Sb3 2.190343 1_555
F4 Sb0 1.910190 1_555
F5 Sb1 1.910190 1_555
F6 Sb4 2.154193 1_555
F6 Sb2 2.161571 1_555
F7 Sb5 2.154193 1_555
F7 Sb3 2.161571 1_555
