# generated using pymatgen
data_CeMnIn
_symmetry_space_group_name_H-M   'P 1'
_cell_length_a   6.66972000
_cell_length_b   9.84564408
_cell_length_c   9.83916148
_cell_angle_alpha   120.00620875
_cell_angle_beta   90.00000000
_cell_angle_gamma   90.00000000
_symmetry_Int_Tables_number   1
_chemical_formula_structural   CeMnIn
_chemical_formula_sum   'Ce8 Mn8 In8'
_cell_volume   559.51699162
_cell_formula_units_Z   8
loop_
 _symmetry_equiv_pos_site_id
 _symmetry_equiv_pos_as_xyz
  1  'x, y, z'
loop_
 _atom_site_type_symbol
 _atom_site_label
 _atom_site_symmetry_multiplicity
 _atom_site_fract_x
 _atom_site_fract_y
 _atom_site_fract_z
 _atom_site_occupancy
  Ce  Ce0_0  1  0.00000000  0.49993600  0.00030850  1
  Ce  Ce0_1  1  0.00000000  0.49993600  0.50030850  1
  Ce  Ce0_2  1  0.00000000  0.99993600  0.00030850  1
  Ce  Ce0_3  1  0.00000000  0.99993600  0.50030850  1
  Ce  Ce0_4  1  0.50000000  0.49993600  0.00030850  1
  Ce  Ce0_5  1  0.50000000  0.49993600  0.50030850  1
  Ce  Ce0_6  1  0.50000000  0.99993600  0.00030850  1
  Ce  Ce0_7  1  0.50000000  0.99993600  0.50030850  1
  Mn  Mn0_0  1  0.25000000  0.16678250  0.33297550  1
  Mn  Mn0_1  1  0.25000000  0.16678250  0.83297550  1
  Mn  Mn0_2  1  0.25000000  0.66678250  0.33297550  1
  Mn  Mn0_3  1  0.25000000  0.66678250  0.83297550  1
  Mn  Mn0_4  1  0.75000000  0.16678250  0.33297550  1
  Mn  Mn0_5  1  0.75000000  0.16678250  0.83297550  1
  Mn  Mn0_6  1  0.75000000  0.66678250  0.33297550  1
  Mn  Mn0_7  1  0.75000000  0.66678250  0.83297550  1
  In  In0_0  1  0.25000000  0.33323150  0.16671600  1
  In  In0_1  1  0.25000000  0.33323150  0.66671600  1
  In  In0_2  1  0.25000000  0.83323150  0.16671600  1
  In  In0_3  1  0.25000000  0.83323150  0.66671600  1
  In  In0_4  1  0.75000000  0.33323150  0.16671600  1
  In  In0_5  1  0.75000000  0.33323150  0.66671600  1
  In  In0_6  1  0.75000000  0.83323150  0.16671600  1
  In  In0_7  1  0.75000000  0.83323150  0.66671600  1
loop_
_geom_bond_atom_site_label_1
_geom_bond_atom_site_label_2
_geom_bond_distance
_geom_bond_site_symmetry_2
Ce0_0 Mn0_6 3.288549 1_455
Ce0_0 Mn0_2 3.288549 1_555
Ce0_0 In0_4 3.292850 1_455
Ce0_0 In0_0 3.292850 1_555
Ce0_0 Mn0_5 3.293736 1_454
Ce0_0 Mn0_1 3.293736 1_554
Ce0_0 In0_2 3.294776 1_555
Ce0_0 In0_6 3.294776 1_455
Ce0_0 In0_1 3.295343 1_554
Ce0_0 In0_5 3.295343 1_454
Ce0_0 Mn0_7 3.300698 1_454
Ce0_0 Mn0_3 3.300698 1_554
Ce0_0 Ce0_4 3.334860 1_455
Ce0_0 Ce0_4 3.334860 1_555
Ce0_1 Mn0_3 3.288549 1_555
Ce0_1 Mn0_7 3.288549 1_455
Ce0_1 In0_5 3.292850 1_455
Ce0_1 In0_1 3.292850 1_555
Ce0_1 Mn0_4 3.293736 1_455
Ce0_1 Mn0_0 3.293736 1_555
Ce0_1 In0_7 3.294776 1_455
Ce0_1 In0_3 3.294776 1_555
Ce0_1 In0_4 3.295343 1_455
Ce0_1 In0_0 3.295343 1_555
Ce0_1 Mn0_6 3.300698 1_455
Ce0_1 Mn0_2 3.300698 1_555
Ce0_1 Ce0_5 3.334860 1_555
Ce0_1 Ce0_5 3.334860 1_455
Ce0_2 Mn0_4 3.288549 1_465
Ce0_2 Mn0_0 3.288549 1_565
Ce0_2 In0_2 3.292850 1_555
Ce0_2 In0_6 3.292850 1_455
Ce0_2 Mn0_7 3.293736 1_454
Ce0_2 Mn0_3 3.293736 1_554
Ce0_2 In0_4 3.294776 1_465
Ce0_2 In0_0 3.294776 1_565
Ce0_2 In0_3 3.295343 1_554
Ce0_2 In0_7 3.295343 1_454
Ce0_2 Mn0_1 3.300698 1_564
Ce0_2 Mn0_5 3.300698 1_464
Ce0_2 Ce0_6 3.334860 1_555
Ce0_2 Ce0_6 3.334860 1_455
Ce0_3 Mn0_1 3.288549 1_565
Ce0_3 Mn0_5 3.288549 1_465
Ce0_3 In0_7 3.292850 1_455
Ce0_3 In0_3 3.292850 1_555
Ce0_3 Mn0_6 3.293736 1_455
Ce0_3 Mn0_2 3.293736 1_555
Ce0_3 In0_5 3.294776 1_465
Ce0_3 In0_1 3.294776 1_565
Ce0_3 In0_6 3.295343 1_455
Ce0_3 In0_2 3.295343 1_555
Ce0_3 Mn0_4 3.300698 1_465
Ce0_3 Mn0_0 3.300698 1_565
Ce0_3 Ce0_7 3.334860 1_455
Ce0_3 Ce0_7 3.334860 1_555
Ce0_4 Mn0_2 3.288549 1_555
Ce0_4 Mn0_6 3.288549 1_555
Ce0_4 In0_0 3.292850 1_555
Ce0_4 In0_4 3.292850 1_555
Ce0_4 Mn0_1 3.293736 1_554
Ce0_4 Mn0_5 3.293736 1_554
Ce0_4 In0_2 3.294776 1_555
Ce0_4 In0_6 3.294776 1_555
Ce0_4 In0_1 3.295343 1_554
Ce0_4 In0_5 3.295343 1_554
Ce0_4 Mn0_3 3.300698 1_554
Ce0_4 Mn0_7 3.300698 1_554
Ce0_5 Mn0_3 3.288549 1_555
Ce0_5 Mn0_7 3.288549 1_555
Ce0_5 In0_1 3.292850 1_555
Ce0_5 In0_5 3.292850 1_555
Ce0_5 Mn0_0 3.293736 1_555
Ce0_5 Mn0_4 3.293736 1_555
Ce0_5 In0_3 3.294776 1_555
Ce0_5 In0_7 3.294776 1_555
Ce0_5 In0_0 3.295343 1_555
Ce0_5 In0_4 3.295343 1_555
Ce0_5 Mn0_2 3.300698 1_555
Ce0_5 Mn0_6 3.300698 1_555
Ce0_6 Mn0_0 3.288549 1_565
Ce0_6 Mn0_4 3.288549 1_565
Ce0_6 In0_2 3.292850 1_555
Ce0_6 In0_6 3.292850 1_555
Ce0_6 Mn0_3 3.293736 1_554
Ce0_6 Mn0_7 3.293736 1_554
Ce0_6 In0_0 3.294776 1_565
Ce0_6 In0_4 3.294776 1_565
Ce0_6 In0_3 3.295343 1_554
Ce0_6 In0_7 3.295343 1_554
Ce0_6 Mn0_1 3.300698 1_564
Ce0_6 Mn0_5 3.300698 1_564
Ce0_7 Mn0_1 3.288549 1_565
Ce0_7 Mn0_5 3.288549 1_565
Ce0_7 In0_3 3.292850 1_555
Ce0_7 In0_7 3.292850 1_555
Ce0_7 Mn0_2 3.293736 1_555
Ce0_7 Mn0_6 3.293736 1_555
Ce0_7 In0_1 3.294776 1_565
Ce0_7 In0_5 3.294776 1_565
Ce0_7 In0_2 3.295343 1_555
Ce0_7 In0_6 3.295343 1_555
Ce0_7 Mn0_0 3.300698 1_565
Ce0_7 Mn0_4 3.300698 1_565
Mn0_0 Mn0_4 3.334860 1_455
Mn0_0 Mn0_4 3.334860 1_555
Mn0_1 Mn0_5 3.334860 1_455
Mn0_1 Mn0_5 3.334860 1_555
Mn0_2 Mn0_6 3.334860 1_455
Mn0_2 Mn0_6 3.334860 1_555
Mn0_3 Mn0_7 3.334860 1_455
Mn0_3 Mn0_7 3.334860 1_555
In0_0 Mn0_0 2.836021 1_555
In0_0 Mn0_1 2.843615 1_554
In0_0 Mn0_2 2.843878 1_555
In0_0 In0_4 3.334860 1_455
In0_0 In0_4 3.334860 1_555
In0_1 Mn0_1 2.836021 1_555
In0_1 Mn0_0 2.843615 1_555
In0_1 Mn0_3 2.843878 1_555
In0_1 In0_5 3.334860 1_455
In0_1 In0_5 3.334860 1_555
In0_2 Mn0_2 2.836021 1_555
In0_2 Mn0_3 2.843615 1_554
In0_2 Mn0_0 2.843878 1_565
In0_2 In0_6 3.334860 1_455
In0_2 In0_6 3.334860 1_555
In0_3 Mn0_3 2.836021 1_555
In0_3 Mn0_2 2.843615 1_555
In0_3 Mn0_1 2.843878 1_565
In0_3 In0_7 3.334860 1_455
In0_3 In0_7 3.334860 1_555
In0_4 Mn0_4 2.836021 1_555
In0_4 Mn0_5 2.843615 1_554
In0_4 Mn0_6 2.843878 1_555
In0_5 Mn0_5 2.836021 1_555
In0_5 Mn0_4 2.843615 1_555
In0_5 Mn0_7 2.843878 1_555
In0_6 Mn0_6 2.836021 1_555
In0_6 Mn0_7 2.843615 1_554
In0_6 Mn0_4 2.843878 1_565
In0_7 Mn0_7 2.836021 1_555
In0_7 Mn0_6 2.843615 1_555
In0_7 Mn0_5 2.843878 1_565
