# generated using pymatgen
data_LiCu2(RhO2)4
_symmetry_space_group_name_H-M   'P 1'
_cell_length_a   6.23918012
_cell_length_b   6.24123336
_cell_length_c   6.28024166
_cell_angle_alpha   89.99939808
_cell_angle_beta   120.21862963
_cell_angle_gamma   120.01016728
_symmetry_Int_Tables_number   1
_chemical_formula_structural   LiCu2(RhO2)4
_chemical_formula_sum   'Li1 Cu2 Rh4 O8'
_cell_volume   172.32620177
_cell_formula_units_Z   1
loop_
 _symmetry_equiv_pos_site_id
 _symmetry_equiv_pos_as_xyz
  1  'x, y, z'
loop_
 _atom_site_type_symbol
 _atom_site_label
 _atom_site_symmetry_multiplicity
 _atom_site_fract_x
 _atom_site_fract_y
 _atom_site_fract_z
 _atom_site_occupancy
  Li  Li0  1  0.13005900  0.56502900  0.06502900  1
  Cu  Cu0  1  0.96011000  0.98007000  0.98005300  1
  Cu  Cu1  1  0.66564600  0.83281700  0.33282500  1
  Rh  Rh0  1  0.69813100  0.34902700  0.10018100  1
  Rh  Rh1  1  0.69810700  0.34911200  0.59792400  1
  Rh  Rh2  1  0.21182900  0.35754600  0.60601500  1
  Rh  Rh3  1  0.21179500  0.85424200  0.60577400  1
  O  O0  1  0.17507000  0.58740300  0.37499800  1
  O  O1  1  0.73795000  0.15594800  0.36906300  1
  O  O2  1  0.68555900  0.12210700  0.84274900  1
  O  O3  1  0.73795300  0.58200600  0.36889400  1
  O  O4  1  0.17505600  0.58767300  0.80007600  1
  O  O5  1  0.22816100  0.11392500  0.83628200  1
  O  O6  1  0.22815800  0.11421100  0.39187700  1
  O  O7  1  0.68558300  0.56346500  0.84284500  1
loop_
_geom_bond_atom_site_label_1
_geom_bond_atom_site_label_2
_geom_bond_distance
_geom_bond_site_symmetry_2
Li0 O4 1.816074 1_554
Li0 O0 1.816152 1_555
Li0 O7 2.390687 1_454
Li0 O2 2.390818 1_454
Cu0 O6 2.105365 1_666
Cu0 O5 2.105368 1_665
Cu0 O2 2.120336 1_565
Cu0 O7 2.120470 1_555
Cu1 O3 1.818999 1_555
Cu1 O1 1.819100 1_565
Cu1 Li0 2.354694 1_555
O0 Rh2 2.051762 1_555
O0 Rh3 2.051994 1_555
O0 Rh0 2.109237 1_455
O1 Rh1 2.059256 1_555
O1 Rh0 2.059739 1_555
O1 Rh2 2.095036 1_655
O2 Rh3 2.091853 1_545
O2 Rh0 2.094529 1_556
O2 Rh1 2.094681 1_555
O3 Rh0 2.059274 1_555
O3 Rh1 2.059593 1_555
O3 Rh3 2.094867 1_655
O4 Rh3 2.051727 1_555
O4 Rh2 2.052320 1_555
O4 Rh1 2.109267 1_455
O5 Rh0 2.074174 1_556
O5 Rh3 2.102051 1_545
O5 Rh2 2.102426 1_555
O6 Rh1 2.074092 1_555
O6 Rh2 2.101948 1_555
O6 Rh3 2.102342 1_545
O7 Rh2 2.091786 1_555
O7 Rh0 2.094426 1_556
O7 Rh1 2.094619 1_555
