# generated using pymatgen
data_CaSbAsO5
_symmetry_space_group_name_H-M   'P 1'
_cell_length_a   7.35896100
_cell_length_b   7.85670000
_cell_length_c   8.59766300
_cell_angle_alpha   90.00000000
_cell_angle_beta   90.00000000
_cell_angle_gamma   90.00000000
_symmetry_Int_Tables_number   1
_chemical_formula_structural   CaSbAsO5
_chemical_formula_sum   'Ca4 Sb4 As4 O20'
_cell_volume   497.09236177
_cell_formula_units_Z   4
loop_
 _symmetry_equiv_pos_site_id
 _symmetry_equiv_pos_as_xyz
  1  'x, y, z'
loop_
 _atom_site_type_symbol
 _atom_site_label
 _atom_site_symmetry_multiplicity
 _atom_site_fract_x
 _atom_site_fract_y
 _atom_site_fract_z
 _atom_site_occupancy
  Ca  Ca0  1  0.00862500  0.64233300  0.60640000  1
  Ca  Ca1  1  0.49137500  0.35766700  0.10640000  1
  Ca  Ca2  1  0.99137500  0.14233300  0.89360000  1
  Ca  Ca3  1  0.50862500  0.85766700  0.39360000  1
  Sb  Sb0  1  0.21061900  0.74231400  0.95527700  1
  Sb  Sb1  1  0.28938100  0.25768600  0.45527700  1
  Sb  Sb2  1  0.78938100  0.24231400  0.54472300  1
  Sb  Sb3  1  0.71061900  0.75768600  0.04472300  1
  As  As0  1  0.45797400  0.08269300  0.79783600  1
  As  As1  1  0.04202600  0.91730700  0.29783600  1
  As  As2  1  0.54202600  0.58269300  0.70216400  1
  As  As3  1  0.95797400  0.41730700  0.20216400  1
  O  O0  1  0.43742500  0.89421000  0.90457700  1
  O  O1  1  0.06257500  0.10579000  0.40457700  1
  O  O2  1  0.56257500  0.39421000  0.59542300  1
  O  O3  1  0.93742500  0.60579000  0.09542300  1
  O  O4  1  0.32937500  0.22901700  0.89515200  1
  O  O5  1  0.17062500  0.77098300  0.39515200  1
  O  O6  1  0.67062500  0.72901700  0.60484800  1
  O  O7  1  0.82937500  0.27098300  0.10484800  1
  O  O8  1  0.68624900  0.12397300  0.79372100  1
  O  O9  1  0.81375100  0.87602700  0.29372100  1
  O  O10  1  0.31375100  0.62397300  0.70627900  1
  O  O11  1  0.18624900  0.37602700  0.20627900  1
  O  O12  1  0.37495700  0.04912800  0.61140500  1
  O  O13  1  0.12504300  0.95087200  0.11140500  1
  O  O14  1  0.62504300  0.54912800  0.88859500  1
  O  O15  1  0.87495700  0.45087200  0.38859500  1
  O  O16  1  0.03753800  0.84645900  0.81400700  1
  O  O17  1  0.46246200  0.15354100  0.31400700  1
  O  O18  1  0.96246200  0.34645900  0.68599300  1
  O  O19  1  0.53753800  0.65354100  0.18599300  1
loop_
_geom_bond_atom_site_label_1
_geom_bond_atom_site_label_2
_geom_bond_distance
_geom_bond_site_symmetry_2
Ca0 O5 2.396163 1_555
Ca0 O10 2.408337 1_555
Ca0 O16 2.409004 1_555
Ca0 O18 2.446921 1_455
Ca0 O6 2.578917 1_455
Ca0 O15 2.595581 1_455
Ca1 O4 2.396163 1_554
Ca1 O11 2.408337 1_555
Ca1 O17 2.409004 1_555
Ca1 O19 2.446921 1_555
Ca1 O7 2.578917 1_555
Ca1 O14 2.595581 1_554
Ca2 O7 2.396163 1_556
Ca2 O8 2.408337 1_555
Ca2 O18 2.409004 1_555
Ca2 O16 2.446921 1_645
Ca2 O4 2.578917 1_655
Ca2 O13 2.595581 1_646
Ca3 O6 2.396163 1_555
Ca3 O9 2.408337 1_555
Ca3 O19 2.409004 1_555
Ca3 O17 2.446921 1_565
Ca3 O5 2.578917 1_555
Ca3 O12 2.595581 1_565
As0 O4 1.708003 1_555
As0 O8 1.711254 1_555
As0 O12 1.735500 1_555
As0 O0 1.748717 1_545
As1 O5 1.708003 1_555
As1 O9 1.711254 1_455
As1 O13 1.735500 1_555
As1 O1 1.748717 1_565
As2 O6 1.708003 1_555
As2 O10 1.711254 1_555
As2 O14 1.735500 1_555
As2 O2 1.748717 1_555
As3 O7 1.708003 1_555
As3 O11 1.711254 1_655
As3 O15 1.735500 1_555
As3 O3 1.748717 1_555
O0 Sb0 2.097610 1_555
O0 Sb3 2.577632 1_556
O1 Sb1 2.097610 1_555
O1 Sb2 2.577632 1_455
O2 Sb2 2.097610 1_555
O2 Sb1 2.577632 1_555
O3 Sb3 2.097610 1_555
O3 Sb0 2.577632 1_654
O8 Sb2 2.454281 1_555
O9 Sb3 2.454281 1_555
O10 Sb0 2.454281 1_555
O11 Sb1 2.454281 1_555
O12 Sb1 2.209839 1_555
O13 Sb0 2.209839 1_554
O14 Sb3 2.209839 1_556
O15 Sb2 2.209839 1_555
O16 Sb0 1.940888 1_555
O17 Sb1 1.940888 1_555
O18 Sb2 1.940888 1_555
O19 Sb3 1.940888 1_555
