# generated using pymatgen
data_SrCa3Mn4O11
_symmetry_space_group_name_H-M   'P 1'
_cell_length_a   7.71935100
_cell_length_b   7.72002000
_cell_length_c   7.71057000
_cell_angle_alpha   90.00000000
_cell_angle_beta   90.00000000
_cell_angle_gamma   90.00000000
_symmetry_Int_Tables_number   1
_chemical_formula_structural   SrCa3Mn4O11
_chemical_formula_sum   'Sr2 Ca6 Mn8 O22'
_cell_volume   459.50019339
_cell_formula_units_Z   2
loop_
 _symmetry_equiv_pos_site_id
 _symmetry_equiv_pos_as_xyz
  1  'x, y, z'
loop_
 _atom_site_type_symbol
 _atom_site_label
 _atom_site_symmetry_multiplicity
 _atom_site_fract_x
 _atom_site_fract_y
 _atom_site_fract_z
 _atom_site_occupancy
  Sr  Sr0  1  0.25000000  0.25000000  0.25000000  1
  Sr  Sr1  1  0.75000000  0.25000000  0.25000000  1
  Ca  Ca0  1  0.25000000  0.25000000  0.75000000  1
  Ca  Ca1  1  0.25000000  0.75000000  0.25000000  1
  Ca  Ca2  1  0.25000000  0.75000000  0.75000000  1
  Ca  Ca3  1  0.75000000  0.25000000  0.75000000  1
  Ca  Ca4  1  0.75000000  0.75000000  0.25000000  1
  Ca  Ca5  1  0.75000000  0.75000000  0.75000000  1
  Mn  Mn0  1  0.00000000  0.99844200  0.99110400  1
  Mn  Mn1  1  0.00000000  0.99844200  0.50889600  1
  Mn  Mn2  1  0.00000000  0.50237800  0.00528000  1
  Mn  Mn3  1  0.00000000  0.50237800  0.49472000  1
  Mn  Mn4  1  0.50000000  0.99762200  0.00528000  1
  Mn  Mn5  1  0.50000000  0.99762200  0.49472000  1
  Mn  Mn6  1  0.50000000  0.50155800  0.99110400  1
  Mn  Mn7  1  0.50000000  0.50155800  0.50889600  1
  O  O0  1  0.00000000  0.99627600  0.75000000  1
  O  O1  1  0.00000000  0.50215700  0.25000000  1
  O  O2  1  0.00000000  0.50446300  0.75000000  1
  O  O3  1  0.50000000  0.99784300  0.25000000  1
  O  O4  1  0.50000000  0.99553700  0.75000000  1
  O  O5  1  0.50000000  0.50372400  0.75000000  1
  O  O6  1  0.24542100  0.99483900  0.01674700  1
  O  O7  1  0.24542100  0.99483900  0.48325300  1
  O  O8  1  0.25457900  0.50516100  0.01674700  1
  O  O9  1  0.25457900  0.50516100  0.48325300  1
  O  O10  1  0.75457900  0.99483900  0.01674700  1
  O  O11  1  0.75457900  0.99483900  0.48325300  1
  O  O12  1  0.74542100  0.50516100  0.01674700  1
  O  O13  1  0.74542100  0.50516100  0.48325300  1
  O  O14  1  0.00000000  0.24609600  0.01018800  1
  O  O15  1  0.00000000  0.24609600  0.48981200  1
  O  O16  1  0.00000000  0.75539900  0.02340000  1
  O  O17  1  0.00000000  0.75539900  0.47660000  1
  O  O18  1  0.50000000  0.25390400  0.01018800  1
  O  O19  1  0.50000000  0.25390400  0.48981200  1
  O  O20  1  0.50000000  0.74460100  0.02340000  1
  O  O21  1  0.50000000  0.74460100  0.47660000  1
loop_
_geom_bond_atom_site_label_1
_geom_bond_atom_site_label_2
_geom_bond_distance
_geom_bond_site_symmetry_2
Ca0 O5 2.749726 1_555
Ca0 O0 2.749726 1_545
Ca0 O2 2.753793 1_555
Ca0 O4 2.753793 1_545
Ca0 O18 2.783884 1_556
Ca0 O14 2.783884 1_556
Ca0 O15 2.783884 1_555
Ca0 O19 2.783884 1_555
Ca0 O8 2.848133 1_556
Ca0 O6 2.848133 1_546
Ca0 O9 2.848133 1_555
Ca0 O7 2.848133 1_545
Ca1 O16 2.603607 1_555
Ca1 O20 2.603607 1_555
Ca1 O21 2.603607 1_555
Ca1 O17 2.603607 1_555
Ca1 O7 2.609332 1_555
Ca1 O6 2.609332 1_555
Ca1 O9 2.609332 1_555
Ca1 O8 2.609332 1_555
Ca1 O3 2.717571 1_555
Ca1 O1 2.717571 1_555
Ca2 O2 2.705067 1_555
Ca2 O4 2.705067 1_555
Ca2 O0 2.709068 1_555
Ca2 O5 2.709068 1_555
Ca2 O6 2.793612 1_556
Ca2 O8 2.793612 1_556
Ca2 O7 2.793612 1_555
Ca2 O9 2.793612 1_555
Ca2 O17 2.858316 1_555
Ca2 O21 2.858316 1_555
Ca2 O16 2.858316 1_556
Ca2 O20 2.858316 1_556
Ca3 O5 2.749726 1_555
Ca3 O0 2.749726 1_645
Ca3 O4 2.753793 1_545
Ca3 O2 2.753793 1_655
Ca3 O18 2.783884 1_556
Ca3 O14 2.783884 1_656
Ca3 O15 2.783884 1_655
Ca3 O19 2.783884 1_555
Ca3 O12 2.848133 1_556
Ca3 O10 2.848133 1_546
Ca3 O13 2.848133 1_555
Ca3 O11 2.848133 1_545
Ca4 O20 2.603607 1_555
Ca4 O16 2.603607 1_655
Ca4 O21 2.603607 1_555
Ca4 O17 2.603607 1_655
Ca4 O11 2.609332 1_555
Ca4 O10 2.609332 1_555
Ca4 O13 2.609332 1_555
Ca4 O12 2.609332 1_555
Ca4 O3 2.717571 1_555
Ca4 O1 2.717571 1_655
Ca5 O4 2.705067 1_555
Ca5 O2 2.705067 1_655
Ca5 O0 2.709068 1_655
Ca5 O5 2.709068 1_555
Ca5 O10 2.793612 1_556
Ca5 O12 2.793612 1_556
Ca5 O11 2.793612 1_555
Ca5 O13 2.793612 1_555
Ca5 O17 2.858316 1_655
Ca5 O21 2.858316 1_555
Ca5 O20 2.858316 1_556
Ca5 O16 2.858316 1_656
Mn0 O0 1.859124 1_555
Mn0 O16 1.892750 1_556
Mn0 O10 1.904984 1_456
Mn0 O6 1.904984 1_556
Mn0 O14 1.917548 1_566
Mn1 O0 1.859124 1_555
Mn1 O17 1.892750 1_555
Mn1 O7 1.904984 1_555
Mn1 O11 1.904984 1_455
Mn1 O15 1.917548 1_565
Mn2 O1 1.886931 1_555
Mn2 O16 1.958318 1_555
Mn2 O8 1.967290 1_555
Mn2 O12 1.967290 1_455
Mn2 O2 1.968420 1_554
Mn2 O14 1.978864 1_555
Mn3 O1 1.886931 1_555
Mn3 O17 1.958318 1_555
Mn3 O9 1.967290 1_555
Mn3 O13 1.967290 1_455
Mn3 O2 1.968420 1_555
Mn3 O15 1.978864 1_555
Mn4 O3 1.886931 1_555
Mn4 O20 1.958318 1_555
Mn4 O6 1.967290 1_555
Mn4 O10 1.967290 1_555
Mn4 O4 1.968420 1_554
Mn4 O18 1.978864 1_565
Mn5 O3 1.886931 1_555
Mn5 O21 1.958318 1_555
Mn5 O11 1.967290 1_555
Mn5 O7 1.967290 1_555
Mn5 O4 1.968420 1_555
Mn5 O19 1.978864 1_565
Mn6 O5 1.859124 1_555
Mn6 O20 1.892750 1_556
Mn6 O12 1.904984 1_556
Mn6 O8 1.904984 1_556
Mn6 O18 1.917548 1_556
Mn7 O5 1.859124 1_555
Mn7 O21 1.892750 1_555
Mn7 O13 1.904984 1_555
Mn7 O9 1.904984 1_555
Mn7 O19 1.917548 1_555
O1 Sr0 2.741122 1_555
O1 Sr1 2.741122 1_455
O3 Sr1 2.741122 1_565
O3 Sr0 2.741122 1_565
O6 Sr0 2.667621 1_565
O7 Sr0 2.667621 1_565
O8 Sr0 2.667621 1_555
O9 Sr0 2.667621 1_555
O10 Sr1 2.667621 1_565
O11 Sr1 2.667621 1_565
O12 Sr1 2.667621 1_555
O13 Sr1 2.667621 1_555
O14 Sr1 2.672883 1_455
O14 Sr0 2.672883 1_555
O15 Sr0 2.672883 1_555
O15 Sr1 2.672883 1_455
O18 Sr1 2.672883 1_555
O18 Sr0 2.672883 1_555
O19 Sr1 2.672883 1_555
O19 Sr0 2.672883 1_555
