# generated using pymatgen
data_Ca2CoWO6
_symmetry_space_group_name_H-M   'P 1'
_cell_length_a   5.57678752
_cell_length_b   5.59831284
_cell_length_c   9.68356432
_cell_angle_alpha   72.69118411
_cell_angle_beta   73.08980548
_cell_angle_gamma   60.11751931
_symmetry_Int_Tables_number   1
_chemical_formula_structural   Ca2CoWO6
_chemical_formula_sum   'Ca4 Co2 W2 O12'
_cell_volume   246.51798987
_cell_formula_units_Z   2
loop_
 _symmetry_equiv_pos_site_id
 _symmetry_equiv_pos_as_xyz
  1  'x, y, z'
loop_
 _atom_site_type_symbol
 _atom_site_label
 _atom_site_symmetry_multiplicity
 _atom_site_fract_x
 _atom_site_fract_y
 _atom_site_fract_z
 _atom_site_occupancy
  Ca  Ca0  1  0.11313700  0.15244100  0.63575500  1
  Ca  Ca1  1  0.61189400  0.65414700  0.13579900  1
  Ca  Ca2  1  0.36298500  0.40372000  0.88506800  1
  Ca  Ca3  1  0.86418100  0.90064600  0.38562600  1
  Co  Co0  1  0.26332500  0.23476700  0.25285000  1
  Co  Co1  1  0.76159400  0.73857600  0.75314000  1
  W  W0  1  0.01746000  0.97900500  0.00097100  1
  W  W1  1  0.51844700  0.47782800  0.50069700  1
  O  O0  1  0.18948600  0.12795300  0.07773600  1
  O  O1  1  0.68900500  0.62731100  0.57818500  1
  O  O2  1  0.81959600  0.33091200  0.87630400  1
  O  O3  1  0.32003200  0.83065200  0.37630600  1
  O  O4  1  0.70468000  0.04267400  0.16209600  1
  O  O5  1  0.20486900  0.54147900  0.66185300  1
  O  O6  1  0.87170300  0.79616600  0.92371700  1
  O  O7  1  0.37147600  0.29639900  0.42345900  1
  O  O8  1  0.33560000  0.88474900  0.83621900  1
  O  O9  1  0.83587400  0.38479000  0.33618900  1
  O  O10  1  0.23693600  0.60517300  0.11174400  1
  O  O11  1  0.73810600  0.10407500  0.61128600  1
loop_
_geom_bond_atom_site_label_1
_geom_bond_atom_site_label_2
_geom_bond_distance
_geom_bond_site_symmetry_2
Ca0 O8 2.317466 1_545
Ca0 O11 2.322597 1_455
Ca0 O7 2.323677 1_555
Ca0 O5 2.565544 1_555
Ca0 O1 2.567560 1_455
Ca0 O2 2.576983 1_455
Ca1 O9 2.321988 1_555
Ca1 O6 2.322581 1_554
Ca1 O10 2.322628 1_555
Ca1 O0 2.560860 1_565
Ca1 O4 2.567368 1_565
Ca1 O3 2.571236 1_555
Ca2 O5 2.341729 1_555
Ca2 O2 2.349093 1_555
Ca2 O0 2.350497 1_556
Ca2 O6 2.523526 1_455
Ca2 O10 2.523825 1_556
Ca2 O8 2.524537 1_555
Ca3 O4 2.345207 1_565
Ca3 O1 2.346250 1_555
Ca3 O3 2.349330 1_655
Ca3 O11 2.521028 1_565
Ca3 O7 2.534585 1_565
Ca3 O9 2.538866 1_565
Co0 O10 2.077407 1_555
Co0 O9 2.080476 1_455
Co0 O7 2.082906 1_555
Co0 O3 2.131935 1_545
Co0 O4 2.157199 1_555
Co0 O0 2.158146 1_555
Co1 O11 2.063011 1_565
Co1 O8 2.074476 1_555
Co1 O6 2.076933 1_555
Co1 O2 2.145884 1_555
Co1 O1 2.168026 1_555
Co1 O5 2.168209 1_655
O0 W0 1.936256 1_545
O1 W1 1.936514 1_555
O2 W0 1.936438 1_646
O3 W1 1.938708 1_555
O4 W0 1.931894 1_645
O5 W1 1.934643 1_555
O6 W0 1.976510 1_656
O7 W1 1.975105 1_555
O8 W0 1.973042 1_556
O9 W1 1.969049 1_555
O10 W0 1.975898 1_555
O11 W1 1.975166 1_555
