# generated using pymatgen
data_UAl7Cu5
_symmetry_space_group_name_H-M   'P 1'
_cell_length_a   5.08493082
_cell_length_b   6.63226637
_cell_length_c   6.63333562
_cell_angle_alpha   97.95604867
_cell_angle_beta   112.47112333
_cell_angle_gamma   67.53550106
_symmetry_Int_Tables_number   1
_chemical_formula_structural   UAl7Cu5
_chemical_formula_sum   'U1 Al7 Cu5'
_cell_volume   191.02678729
_cell_formula_units_Z   1
loop_
 _symmetry_equiv_pos_site_id
 _symmetry_equiv_pos_as_xyz
  1  'x, y, z'
loop_
 _atom_site_type_symbol
 _atom_site_label
 _atom_site_symmetry_multiplicity
 _atom_site_fract_x
 _atom_site_fract_y
 _atom_site_fract_z
 _atom_site_occupancy
  U  U0  1  0.99924340  0.00060833  0.99938349  1
  Al  Al0  1  0.65053196  0.34931992  0.65065609  1
  Al  Al1  1  0.34528618  0.65506479  0.34496625  1
  Al  Al2  1  0.99293067  0.35490623  0.34007444  1
  Al  Al3  1  0.99286995  0.65996267  0.64506884  1
  Al  Al4  1  0.27327407  0.22657486  0.77342569  1
  Al  Al5  1  0.50612510  0.78306677  0.79578487  1
  Al  Al6  1  0.50611331  0.20418178  0.21691831  1
  Cu  Cu0  1  0.50004308  0.00029235  0.50330303  1
  Cu  Cu1  1  0.00229502  0.00064507  0.50300168  1
  Cu  Cu2  1  0.50006668  0.49672597  0.99976453  1
  Cu  Cu3  1  0.00231926  0.49695814  0.99934365  1
  Cu  Cu4  1  0.72890033  0.77169412  0.22830812  1
loop_
_geom_bond_atom_site_label_1
_geom_bond_atom_site_label_2
_geom_bond_distance
_geom_bond_site_symmetry_2
Al0 Al1 2.638141 1_555
Al0 Cu0 2.656137 1_555
Al0 Cu3 2.656547 1_655
Al0 Cu1 2.656601 1_655
Al0 Cu2 2.657054 1_555
Al0 Al4 2.752659 1_555
Al0 Al4 2.755981 1_655
Al0 Al5 2.810858 1_555
Al0 Al6 2.811077 1_555
Al0 U0 3.009225 1_555
Al1 Cu0 2.654105 1_565
Al1 Cu2 2.654425 1_554
Al1 Cu1 2.659239 1_565
Al1 Cu3 2.659467 1_554
Al1 Cu4 2.734025 1_555
Al1 Cu4 2.734903 1_455
Al1 U0 2.981993 1_464
Al2 Cu3 2.589329 1_654
Al2 Cu2 2.592876 1_554
Al2 Cu4 2.638838 1_555
Al2 Al3 2.655813 1_555
Al2 Cu1 2.696071 1_655
Al2 Cu0 2.699809 1_655
Al2 Al4 2.763556 1_655
Al2 Al6 2.808234 1_655
Al2 Al6 2.813109 1_555
Al2 U0 3.026148 1_554
Al3 Cu1 2.588905 1_665
Al3 Cu0 2.592767 1_565
Al3 Cu4 2.638883 1_555
Al3 Cu3 2.696472 1_655
Al3 Cu2 2.700380 1_655
Al3 Al4 2.763550 1_655
Al3 Al5 2.808098 1_655
Al3 Al5 2.813060 1_555
Al3 U0 3.026043 1_565
Al4 Cu0 2.510987 1_555
Al4 Cu2 2.511004 1_555
Al4 Cu1 2.511179 1_555
Al4 Cu3 2.511190 1_555
Al4 U0 3.201331 1_455
Al4 U0 3.206872 1_555
Al5 Cu2 2.495231 1_555
Al5 Cu3 2.497214 1_655
Al5 Cu0 2.556272 1_565
Al5 Cu1 2.562175 1_565
Al5 Cu4 2.651533 1_556
Al5 U0 3.135046 1_465
Al5 U0 3.135231 1_565
Al6 Cu0 2.495233 1_555
Al6 Cu1 2.497090 1_655
Al6 Cu2 2.556283 1_554
Al6 Cu3 2.562034 1_554
Al6 Cu4 2.651018 1_545
Al6 U0 3.134506 1_454
Al6 U0 3.135628 1_554
Cu0 Cu1 2.529358 1_555
Cu0 Cu4 2.547377 1_545
Cu0 Cu1 2.555576 1_655
Cu0 U0 3.299814 1_555
Cu0 U0 3.339024 1_454
Cu1 Cu4 2.543509 1_445
Cu1 U0 3.298663 1_455
Cu1 U0 3.334735 1_454
Cu2 Cu3 2.529357 1_555
Cu2 Cu4 2.546735 1_556
Cu2 Cu3 2.555577 1_655
Cu2 U0 3.299907 1_555
Cu2 U0 3.338718 1_465
Cu3 Cu4 2.543997 1_456
Cu3 U0 3.297969 1_455
Cu3 U0 3.334361 1_465
Cu4 U0 3.213972 1_564
Cu4 U0 3.225423 1_464
