# generated using pymatgen
data_Dy2Ni22C3
_symmetry_space_group_name_H-M   'P 1'
_cell_length_a   9.35053869
_cell_length_b   9.35053869
_cell_length_c   14.50687585
_cell_angle_alpha   90.00000000
_cell_angle_beta   90.00000000
_cell_angle_gamma   105.80866957
_symmetry_Int_Tables_number   1
_chemical_formula_structural   Dy2Ni22C3
_chemical_formula_sum   'Dy8 Ni88 C12'
_cell_volume   1220.39952785
_cell_formula_units_Z   4
loop_
 _symmetry_equiv_pos_site_id
 _symmetry_equiv_pos_as_xyz
  1  'x, y, z'
loop_
 _atom_site_type_symbol
 _atom_site_label
 _atom_site_symmetry_multiplicity
 _atom_site_fract_x
 _atom_site_fract_y
 _atom_site_fract_z
 _atom_site_occupancy
  Dy  Dy0  1  0.81496113  0.68503887  0.25000000  1
  Dy  Dy1  1  0.68503887  0.81496113  0.75000000  1
  Dy  Dy2  1  0.18503887  0.31496113  0.75000000  1
  Dy  Dy3  1  0.31496113  0.18503887  0.25000000  1
  Dy  Dy4  1  0.70699951  0.29300049  0.52810771  1
  Dy  Dy5  1  0.29300049  0.70699951  0.47189229  1
  Dy  Dy6  1  0.79300049  0.20699951  0.02810771  1
  Dy  Dy7  1  0.20699951  0.79300049  0.97189229  1
  Ni  Ni0  1  0.92840005  0.43039044  0.18197897  1
  Ni  Ni1  1  0.43039044  0.92840005  0.81802103  1
  Ni  Ni2  1  0.93039044  0.42840005  0.68197897  1
  Ni  Ni3  1  0.42840005  0.93039044  0.31802103  1
  Ni  Ni4  1  0.07159995  0.56960956  0.81802103  1
  Ni  Ni5  1  0.56960956  0.07159995  0.18197897  1
  Ni  Ni6  1  0.06960956  0.57159995  0.31802103  1
  Ni  Ni7  1  0.57159995  0.06960956  0.68197897  1
  Ni  Ni8  1  0.56048809  0.43951191  0.34065304  1
  Ni  Ni9  1  0.43951191  0.56048809  0.65934696  1
  Ni  Ni10  1  0.93951191  0.06048809  0.84065304  1
  Ni  Ni11  1  0.06048809  0.93951191  0.15934696  1
  Ni  Ni12  1  0.00905763  0.76838975  0.42229591  1
  Ni  Ni13  1  0.76838975  0.00905763  0.57770409  1
  Ni  Ni14  1  0.26838975  0.50905763  0.92229591  1
  Ni  Ni15  1  0.50905763  0.26838975  0.07770409  1
  Ni  Ni16  1  0.99094237  0.23161025  0.57770409  1
  Ni  Ni17  1  0.23161025  0.99094237  0.42229591  1
  Ni  Ni18  1  0.73161025  0.49094237  0.07770409  1
  Ni  Ni19  1  0.49094237  0.73161025  0.92229591  1
  Ni  Ni20  1  0.75127749  0.59657009  0.44949154  1
  Ni  Ni21  1  0.59657009  0.75127749  0.55050846  1
  Ni  Ni22  1  0.09657009  0.25127749  0.94949154  1
  Ni  Ni23  1  0.25127749  0.09657009  0.05050846  1
  Ni  Ni24  1  0.24872251  0.40342991  0.55050846  1
  Ni  Ni25  1  0.40342991  0.24872251  0.44949154  1
  Ni  Ni26  1  0.90342991  0.74872251  0.05050846  1
  Ni  Ni27  1  0.74872251  0.90342991  0.94949154  1
  Ni  Ni28  1  0.14133238  0.21180045  0.42694305  1
  Ni  Ni29  1  0.21180045  0.14133238  0.57305695  1
  Ni  Ni30  1  0.71180045  0.64133238  0.92694305  1
  Ni  Ni31  1  0.64133238  0.71180045  0.07305695  1
  Ni  Ni32  1  0.85866762  0.78819955  0.57305695  1
  Ni  Ni33  1  0.78819955  0.85866762  0.42694305  1
  Ni  Ni34  1  0.28819955  0.35866762  0.07305695  1
  Ni  Ni35  1  0.35866762  0.28819955  0.92694305  1
  Ni  Ni36  1  0.82100164  0.39541197  0.34375145  1
  Ni  Ni37  1  0.39541197  0.82100164  0.65624855  1
  Ni  Ni38  1  0.89541197  0.32100164  0.84375145  1
  Ni  Ni39  1  0.32100164  0.89541197  0.15624855  1
  Ni  Ni40  1  0.17899836  0.60458803  0.65624855  1
  Ni  Ni41  1  0.60458803  0.17899836  0.34375145  1
  Ni  Ni42  1  0.10458803  0.67899836  0.15624855  1
  Ni  Ni43  1  0.67899836  0.10458803  0.84375145  1
  Ni  Ni44  1  0.94921350  0.79685707  0.86975677  1
  Ni  Ni45  1  0.79685707  0.94921350  0.13024323  1
  Ni  Ni46  1  0.29685707  0.44921350  0.36975677  1
  Ni  Ni47  1  0.44921350  0.29685707  0.63024323  1
  Ni  Ni48  1  0.05078650  0.20314293  0.13024323  1
  Ni  Ni49  1  0.20314293  0.05078650  0.86975677  1
  Ni  Ni50  1  0.70314293  0.55078650  0.63024323  1
  Ni  Ni51  1  0.55078650  0.70314293  0.36975677  1
  Ni  Ni52  1  0.04668787  0.29232668  0.29851861  1
  Ni  Ni53  1  0.29232668  0.04668787  0.70148139  1
  Ni  Ni54  1  0.79232668  0.54668787  0.79851861  1
  Ni  Ni55  1  0.54668787  0.79232668  0.20148139  1
  Ni  Ni56  1  0.95331213  0.70767332  0.70148139  1
  Ni  Ni57  1  0.70767332  0.95331213  0.29851861  1
  Ni  Ni58  1  0.20767332  0.45331213  0.20148139  1
  Ni  Ni59  1  0.45331213  0.20767332  0.79851861  1
  Ni  Ni60  1  0.81895162  0.18104838  0.23279353  1
  Ni  Ni61  1  0.18104838  0.81895162  0.76720647  1
  Ni  Ni62  1  0.68104838  0.31895162  0.73279353  1
  Ni  Ni63  1  0.31895162  0.68104838  0.26720647  1
  Ni  Ni64  1  0.85524557  0.14475443  0.41378889  1
  Ni  Ni65  1  0.14475443  0.85524557  0.58621111  1
  Ni  Ni66  1  0.64475443  0.35524557  0.91378889  1
  Ni  Ni67  1  0.35524557  0.64475443  0.08621111  1
  Ni  Ni68  1  0.99803526  0.00196474  0.32551065  1
  Ni  Ni69  1  0.00196474  0.99803526  0.67448935  1
  Ni  Ni70  1  0.50196474  0.49803526  0.82551065  1
  Ni  Ni71  1  0.49803526  0.50196474  0.17448935  1
  Ni  Ni72  1  0.65859815  0.34140185  0.21121019  1
  Ni  Ni73  1  0.34140185  0.65859815  0.78878981  1
  Ni  Ni74  1  0.84140185  0.15859815  0.71121019  1
  Ni  Ni75  1  0.15859815  0.84140185  0.28878981  1
  Ni  Ni76  1  0.00000000  -0.00000000  0.50000000  1
  Ni  Ni77  1  0.50000000  0.50000000  -0.00000000  1
  Ni  Ni78  1  0.09008754  0.46739147  0.04864697  1
  Ni  Ni79  1  0.46739147  0.09008754  0.95135303  1
  Ni  Ni80  1  0.96739147  0.59008754  0.54864697  1
  Ni  Ni81  1  0.59008754  0.96739147  0.45135303  1
  Ni  Ni82  1  0.90991246  0.53260853  0.95135303  1
  Ni  Ni83  1  0.53260853  0.90991246  0.04864697  1
  Ni  Ni84  1  0.03260853  0.40991246  0.45135303  1
  Ni  Ni85  1  0.40991246  0.03260853  0.54864697  1
  Ni  Ni86  1  0.50000000  0.50000000  0.50000000  1
  Ni  Ni87  1  0.00000000  -0.00000000  -0.00000000  1
  C  C0  1  0.94475868  0.05524132  0.21221471  1
  C  C1  1  0.05524132  0.94475868  0.78778529  1
  C  C2  1  0.55524132  0.44475868  0.71221471  1
  C  C3  1  0.44475868  0.55524132  0.28778529  1
  C  C4  1  0.93172043  0.55703686  0.41626524  1
  C  C5  1  0.55703686  0.93172043  0.58373476  1
  C  C6  1  0.05703686  0.43172043  0.91626524  1
  C  C7  1  0.43172043  0.05703686  0.08373476  1
  C  C8  1  0.06827957  0.44296314  0.58373476  1
  C  C9  1  0.44296314  0.06827957  0.41626524  1
  C  C10  1  0.94296314  0.56827957  0.08373476  1
  C  C11  1  0.56827957  0.94296314  0.91626524  1
loop_
_geom_bond_atom_site_label_1
_geom_bond_atom_site_label_2
_geom_bond_distance
_geom_bond_site_symmetry_2
Dy0 Ni6 3.024002 1_655
Dy0 Ni0 3.024002 1_555
Dy0 Ni26 3.024193 1_555
Dy0 Ni20 3.024193 1_555
Dy0 Ni57 3.027461 1_555
Dy0 Ni55 3.027461 1_555
Dy0 Ni42 3.044735 1_655
Dy0 Ni36 3.044735 1_555
Dy0 Ni45 3.062100 1_555
Dy0 Ni51 3.062100 1_555
Dy0 Ni12 3.062352 1_655
Dy0 Ni18 3.062352 1_555
Dy0 Ni31 3.083622 1_555
Dy0 Ni33 3.083622 1_555
Dy0 Ni8 3.112174 1_555
Dy0 Ni11 3.112174 1_655
Dy0 Ni71 3.185635 1_555
Dy0 Ni68 3.185635 1_565
Dy0 Ni72 3.196755 1_555
Dy0 Ni75 3.196755 1_655
Dy1 Ni7 3.024002 1_565
Dy1 Ni1 3.024002 1_555
Dy1 Ni27 3.024193 1_555
Dy1 Ni21 3.024193 1_555
Dy1 Ni56 3.027461 1_555
Dy1 Ni54 3.027461 1_555
Dy1 Ni43 3.044735 1_565
Dy1 Ni37 3.044735 1_555
Dy1 Ni44 3.062100 1_555
Dy1 Ni50 3.062100 1_555
Dy1 Ni19 3.062352 1_555
Dy1 Ni13 3.062352 1_565
Dy1 Ni30 3.083622 1_555
Dy1 Ni32 3.083622 1_555
Dy1 Ni10 3.112174 1_565
Dy1 Ni9 3.112174 1_555
Dy1 Ni70 3.185635 1_555
Dy1 Ni69 3.185635 1_655
Dy1 Ni74 3.196755 1_565
Dy1 Ni73 3.196755 1_555
Dy2 Ni2 3.024002 1_455
Dy2 Ni4 3.024002 1_555
Dy2 Ni22 3.024193 1_555
Dy2 Ni24 3.024193 1_555
Dy2 Ni53 3.027461 1_555
Dy2 Ni59 3.027461 1_555
Dy2 Ni38 3.044735 1_455
Dy2 Ni40 3.044735 1_555
Dy2 Ni47 3.062100 1_555
Dy2 Ni49 3.062100 1_555
Dy2 Ni16 3.062352 1_455
Dy2 Ni14 3.062352 1_555
Dy2 Ni29 3.083622 1_555
Dy2 Ni35 3.083622 1_555
Dy2 Ni9 3.112174 1_555
Dy2 Ni10 3.112174 1_455
Dy2 Ni70 3.185635 1_555
Dy2 Ni69 3.185635 1_545
Dy2 Ni73 3.196755 1_555
Dy2 Ni74 3.196755 1_455
Dy3 Ni5 3.024002 1_555
Dy3 Ni3 3.024002 1_545
Dy3 Ni23 3.024193 1_555
Dy3 Ni25 3.024193 1_555
Dy3 Ni52 3.027461 1_555
Dy3 Ni58 3.027461 1_555
Dy3 Ni39 3.044735 1_545
Dy3 Ni41 3.044735 1_555
Dy3 Ni46 3.062100 1_555
Dy3 Ni48 3.062100 1_555
Dy3 Ni17 3.062352 1_545
Dy3 Ni15 3.062352 1_555
Dy3 Ni28 3.083622 1_555
Dy3 Ni34 3.083622 1_555
Dy3 Ni11 3.112174 1_545
Dy3 Ni8 3.112174 1_555
Dy3 Ni68 3.185635 1_455
Dy3 Ni71 3.185635 1_555
Dy3 Ni72 3.196755 1_555
Dy3 Ni75 3.196755 1_545
Dy4 Ni64 2.764099 1_555
Dy4 Ni50 2.837994 1_555
Dy4 Ni47 2.837994 1_555
Dy4 Ni41 2.941043 1_555
Dy4 Ni36 2.941043 1_555
Dy4 Ni13 2.954097 1_555
Dy4 Ni16 2.954097 1_555
Dy4 Ni25 2.981456 1_555
Dy4 Ni20 2.981456 1_555
Dy4 Ni62 2.994478 1_555
Dy4 Ni2 3.083484 1_555
Dy4 Ni7 3.083484 1_555
Dy4 Ni86 3.114522 1_555
Dy4 Ni81 3.145017 1_545
Dy4 Ni84 3.145017 1_655
Dy4 Ni80 3.169969 1_555
Dy4 Ni85 3.169969 1_555
Dy4 Ni74 3.327901 1_555
Dy5 Ni65 2.764099 1_555
Dy5 Ni51 2.837994 1_555
Dy5 Ni46 2.837994 1_555
Dy5 Ni40 2.941043 1_555
Dy5 Ni37 2.941043 1_555
Dy5 Ni12 2.954097 1_555
Dy5 Ni17 2.954097 1_555
Dy5 Ni21 2.981456 1_555
Dy5 Ni24 2.981456 1_555
Dy5 Ni63 2.994478 1_555
Dy5 Ni3 3.083484 1_555
Dy5 Ni6 3.083484 1_555
Dy5 Ni86 3.114522 1_555
Dy5 Ni80 3.145017 1_455
Dy5 Ni85 3.145017 1_565
Dy5 Ni81 3.169969 1_555
Dy5 Ni84 3.169969 1_555
Dy5 Ni75 3.327901 1_555
Dy6 Ni66 2.764099 1_554
Dy6 Ni48 2.837994 1_655
Dy6 Ni45 2.837994 1_545
Dy6 Ni43 2.941043 1_554
Dy6 Ni38 2.941043 1_554
Dy6 Ni15 2.954097 1_555
Dy6 Ni18 2.954097 1_555
Dy6 Ni22 2.981456 1_654
Dy6 Ni27 2.981456 1_544
Dy6 Ni60 2.994478 1_555
Dy6 Ni0 3.083484 1_555
Dy6 Ni5 3.083484 1_555
Dy6 Ni87 3.114522 1_655
Dy6 Ni79 3.145017 1_554
Dy6 Ni82 3.145017 1_554
Dy6 Ni78 3.169969 1_655
Dy6 Ni83 3.169969 1_545
Dy6 Ni72 3.327901 1_555
Dy7 Ni67 2.764099 1_556
Dy7 Ni49 2.837994 1_565
Dy7 Ni44 2.837994 1_455
Dy7 Ni42 2.941043 1_556
Dy7 Ni39 2.941043 1_556
Dy7 Ni14 2.954097 1_555
Dy7 Ni19 2.954097 1_555
Dy7 Ni23 2.981456 1_566
Dy7 Ni26 2.981456 1_456
Dy7 Ni61 2.994478 1_555
Dy7 Ni1 3.083484 1_555
Dy7 Ni4 3.083484 1_555
Dy7 Ni87 3.114522 1_566
Dy7 Ni83 3.145017 1_556
Dy7 Ni78 3.145017 1_556
Dy7 Ni82 3.169969 1_455
Dy7 Ni79 3.169969 1_565
Dy7 Ni73 3.327901 1_555
Ni0 Ni72 2.468387 1_555
Ni0 Ni52 2.554636 1_655
Ni0 Ni58 2.576860 1_655
Ni1 Ni73 2.468387 1_555
Ni1 Ni53 2.554636 1_565
Ni1 Ni59 2.576860 1_565
Ni2 Ni74 2.468387 1_555
Ni2 Ni54 2.554636 1_555
Ni2 Ni56 2.576860 1_555
Ni3 Ni75 2.468387 1_555
Ni3 Ni55 2.554636 1_555
Ni3 Ni57 2.576860 1_555
Ni4 Ni73 2.468387 1_555
Ni4 Ni56 2.554636 1_455
Ni4 Ni54 2.576860 1_455
Ni5 Ni72 2.468387 1_555
Ni5 Ni57 2.554636 1_545
Ni5 Ni55 2.576860 1_545
Ni6 Ni75 2.468387 1_555
Ni7 Ni74 2.468387 1_555
Ni8 Ni86 2.481474 1_555
Ni10 Ni74 2.380734 1_555
Ni10 Ni87 2.481474 1_656
Ni11 Ni75 2.380734 1_555
Ni11 Ni87 2.481474 1_565
Ni12 Ni75 2.377433 1_555
Ni12 Ni33 2.435523 1_455
Ni12 Ni76 2.463323 1_565
Ni12 Ni32 2.633817 1_455
Ni12 Ni65 2.713387 1_555
Ni13 Ni74 2.377433 1_555
Ni13 Ni32 2.435523 1_545
Ni13 Ni76 2.463323 1_655
Ni13 Ni33 2.633817 1_545
Ni13 Ni64 2.713387 1_555
Ni14 Ni73 2.377433 1_555
Ni14 Ni35 2.435523 1_555
Ni14 Ni77 2.463323 1_556
Ni14 Ni34 2.633817 1_556
Ni14 Ni67 2.713387 1_556
Ni15 Ni72 2.377433 1_555
Ni15 Ni34 2.435523 1_555
Ni15 Ni77 2.463323 1_555
Ni15 Ni35 2.633817 1_554
Ni15 Ni66 2.713387 1_554
Ni16 Ni74 2.377433 1_555
Ni16 Ni29 2.435523 1_655
Ni16 Ni76 2.463323 1_655
Ni16 Ni28 2.633817 1_655
Ni16 Ni64 2.713387 1_555
Ni17 Ni75 2.377433 1_555
Ni17 Ni28 2.435523 1_565
Ni17 Ni76 2.463323 1_565
Ni17 Ni29 2.633817 1_565
Ni17 Ni65 2.713387 1_555
Ni18 Ni72 2.377433 1_555
Ni18 Ni31 2.435523 1_555
Ni18 Ni77 2.463323 1_555
Ni18 Ni30 2.633817 1_554
Ni18 Ni66 2.713387 1_554
Ni19 Ni73 2.377433 1_555
Ni19 Ni30 2.435523 1_555
Ni19 Ni77 2.463323 1_556
Ni19 Ni31 2.633817 1_556
Ni19 Ni67 2.713387 1_556
Ni20 Ni86 2.390985 1_555
Ni20 Ni33 2.402370 1_555
Ni20 Ni32 2.540059 1_555
Ni21 Ni86 2.390985 1_555
Ni21 Ni32 2.402370 1_555
Ni21 Ni33 2.540059 1_555
Ni22 Ni87 2.390985 1_556
Ni22 Ni35 2.402370 1_555
Ni22 Ni34 2.540059 1_556
Ni23 Ni87 2.390985 1_555
Ni23 Ni34 2.402370 1_555
Ni23 Ni35 2.540059 1_554
Ni24 Ni86 2.390985 1_555
Ni24 Ni29 2.402370 1_555
Ni24 Ni28 2.540059 1_555
Ni25 Ni86 2.390985 1_555
Ni25 Ni28 2.402370 1_555
Ni25 Ni29 2.540059 1_555
Ni26 Ni87 2.390985 1_665
Ni26 Ni31 2.402370 1_555
Ni26 Ni30 2.540059 1_554
Ni27 Ni87 2.390985 1_666
Ni27 Ni30 2.402370 1_555
Ni27 Ni31 2.540059 1_556
Ni28 Ni52 2.276865 1_555
Ni28 Ni76 2.316433 1_555
Ni28 Ni29 2.365975 1_555
Ni28 Ni84 2.369938 1_555
Ni28 Ni46 2.443812 1_555
Ni28 Ni68 2.525449 1_455
Ni28 Ni64 2.582959 1_455
Ni29 Ni53 2.276865 1_555
Ni29 Ni76 2.316433 1_555
Ni29 Ni85 2.369938 1_555
Ni29 Ni47 2.443812 1_555
Ni29 Ni69 2.525449 1_545
Ni29 Ni65 2.582959 1_545
Ni30 Ni54 2.276865 1_555
Ni30 Ni77 2.316433 1_556
Ni30 Ni31 2.365975 1_556
Ni30 Ni82 2.369938 1_555
Ni30 Ni44 2.443812 1_555
Ni30 Ni70 2.525449 1_555
Ni30 Ni66 2.582959 1_555
Ni31 Ni55 2.276865 1_555
Ni31 Ni77 2.316433 1_555
Ni31 Ni83 2.369938 1_555
Ni31 Ni45 2.443812 1_555
Ni31 Ni71 2.525449 1_555
Ni31 Ni67 2.582959 1_555
Ni32 Ni56 2.276865 1_555
Ni32 Ni76 2.316433 1_665
Ni32 Ni33 2.365975 1_555
Ni32 Ni80 2.369938 1_555
Ni32 Ni50 2.443812 1_555
Ni32 Ni69 2.525449 1_655
Ni32 Ni65 2.582959 1_655
Ni33 Ni57 2.276865 1_555
Ni33 Ni76 2.316433 1_665
Ni33 Ni81 2.369938 1_555
Ni33 Ni51 2.443812 1_555
Ni33 Ni68 2.525449 1_565
Ni33 Ni64 2.582959 1_565
Ni34 Ni58 2.276865 1_555
Ni34 Ni77 2.316433 1_555
Ni34 Ni35 2.365975 1_554
Ni34 Ni78 2.369938 1_555
Ni34 Ni48 2.443812 1_555
Ni34 Ni71 2.525449 1_555
Ni34 Ni67 2.582959 1_555
Ni35 Ni59 2.276865 1_555
Ni35 Ni77 2.316433 1_556
Ni35 Ni79 2.369938 1_555
Ni35 Ni49 2.443812 1_555
Ni35 Ni70 2.525449 1_555
Ni35 Ni66 2.582959 1_555
Ni36 Ni72 2.416656 1_555
Ni36 Ni52 2.630835 1_655
Ni36 Ni64 2.652744 1_555
Ni37 Ni73 2.416656 1_555
Ni37 Ni53 2.630835 1_565
Ni37 Ni65 2.652744 1_555
Ni38 Ni74 2.416656 1_555
Ni38 Ni54 2.630835 1_555
Ni38 Ni66 2.652744 1_555
Ni39 Ni75 2.416656 1_555
Ni39 Ni55 2.630835 1_555
Ni39 Ni67 2.652744 1_555
Ni40 Ni73 2.416656 1_555
Ni40 Ni56 2.630835 1_455
Ni40 Ni65 2.652744 1_555
Ni41 Ni72 2.416656 1_555
Ni41 Ni57 2.630835 1_545
Ni41 Ni64 2.652744 1_555
Ni42 Ni75 2.416656 1_555
Ni42 Ni58 2.630835 1_555
Ni42 Ni67 2.652744 1_555
Ni43 Ni74 2.416656 1_555
Ni43 Ni59 2.630835 1_555
Ni43 Ni66 2.652744 1_555
Ni44 Ni56 2.583314 1_555
Ni44 Ni54 2.611946 1_555
Ni44 Ni87 2.629076 1_666
Ni45 Ni57 2.583314 1_555
Ni45 Ni55 2.611946 1_555
Ni45 Ni87 2.629076 1_665
Ni46 Ni58 2.583314 1_555
Ni46 Ni52 2.611946 1_555
Ni46 Ni86 2.629076 1_555
Ni47 Ni59 2.583314 1_555
Ni47 Ni53 2.611946 1_555
Ni47 Ni86 2.629076 1_555
Ni48 Ni52 2.583314 1_555
Ni48 Ni58 2.611946 1_555
Ni48 Ni87 2.629076 1_555
Ni49 Ni53 2.583314 1_555
Ni49 Ni59 2.611946 1_555
Ni49 Ni87 2.629076 1_556
Ni50 Ni54 2.583314 1_555
Ni50 Ni56 2.611946 1_555
Ni50 Ni86 2.629076 1_555
Ni51 Ni55 2.583314 1_555
Ni51 Ni57 2.611946 1_555
Ni51 Ni86 2.629076 1_555
Ni52 Ni58 2.297586 1_555
Ni52 Ni60 2.306319 1_455
Ni52 Ni84 2.494159 1_555
Ni52 Ni64 2.561042 1_455
Ni52 Ni6 2.576860 1_555
Ni52 Ni68 2.656833 1_455
Ni53 Ni59 2.297586 1_555
Ni53 Ni61 2.306319 1_545
Ni53 Ni85 2.494159 1_555
Ni53 Ni65 2.561042 1_545
Ni53 Ni7 2.576860 1_555
Ni53 Ni69 2.656833 1_545
Ni54 Ni56 2.297586 1_555
Ni54 Ni62 2.306319 1_555
Ni54 Ni82 2.494159 1_555
Ni54 Ni66 2.561042 1_555
Ni54 Ni70 2.656833 1_555
Ni55 Ni57 2.297586 1_555
Ni55 Ni63 2.306319 1_555
Ni55 Ni83 2.494159 1_555
Ni55 Ni67 2.561042 1_555
Ni55 Ni71 2.656833 1_555
Ni56 Ni61 2.306319 1_655
Ni56 Ni80 2.494159 1_555
Ni56 Ni65 2.561042 1_655
Ni56 Ni69 2.656833 1_655
Ni57 Ni60 2.306319 1_565
Ni57 Ni81 2.494159 1_555
Ni57 Ni64 2.561042 1_565
Ni57 Ni68 2.656833 1_565
Ni58 Ni63 2.306319 1_555
Ni58 Ni78 2.494159 1_555
Ni58 Ni6 2.554636 1_555
Ni58 Ni67 2.561042 1_555
Ni58 Ni71 2.656833 1_555
Ni59 Ni62 2.306319 1_555
Ni59 Ni79 2.494159 1_555
Ni59 Ni7 2.554636 1_555
Ni59 Ni66 2.561042 1_555
Ni59 Ni70 2.656833 1_555
Ni60 Ni72 2.412324 1_555
Ni60 Ni64 2.680909 1_555
Ni61 Ni73 2.412324 1_555
Ni61 Ni65 2.680909 1_555
Ni62 Ni74 2.412324 1_555
Ni62 Ni66 2.680909 1_555
Ni63 Ni75 2.412324 1_555
Ni63 Ni67 2.680909 1_555
Ni64 Ni68 2.485283 1_555
Ni64 Ni76 2.495281 1_655
Ni64 Ni81 2.637099 1_545
Ni64 Ni84 2.637099 1_655
Ni65 Ni69 2.485283 1_555
Ni65 Ni76 2.495281 1_565
Ni65 Ni80 2.637099 1_455
Ni65 Ni85 2.637099 1_565
Ni66 Ni70 2.485283 1_555
Ni66 Ni77 2.495281 1_556
Ni66 Ni82 2.637099 1_555
Ni66 Ni79 2.637099 1_555
Ni67 Ni71 2.485283 1_555
Ni67 Ni77 2.495281 1_555
Ni67 Ni78 2.637099 1_555
Ni67 Ni83 2.637099 1_555
Ni68 Ni75 2.453568 1_645
Ni68 Ni76 2.531465 1_655
Ni69 Ni74 2.453568 1_465
Ni69 Ni76 2.531465 1_565
Ni70 Ni73 2.453568 1_555
Ni70 Ni77 2.531465 1_556
Ni71 Ni72 2.453568 1_555
Ni71 Ni77 2.531465 1_555
Ni72 Ni8 2.380734 1_555
Ni73 Ni9 2.380734 1_555
Ni86 Ni9 2.481474 1_555
C0 Ni68 1.825616 1_555
C0 Ni48 1.887465 1_655
C0 Ni45 1.887465 1_545
C0 Ni11 1.888982 1_645
C0 Ni60 1.900202 1_555
C0 Ni52 2.497843 1_655
C0 Ni57 2.497843 1_545
C1 Ni69 1.825616 1_555
C1 Ni49 1.887465 1_565
C1 Ni44 1.887465 1_455
C1 Ni10 1.888982 1_465
C1 Ni61 1.900202 1_555
C1 Ni53 2.497843 1_565
C1 Ni56 2.497843 1_455
C2 Ni70 1.825616 1_555
C2 Ni50 1.887465 1_555
C2 Ni47 1.887465 1_555
C2 Ni9 1.888982 1_555
C2 Ni62 1.900202 1_555
C2 Ni59 2.497843 1_555
C2 Ni54 2.497843 1_555
C3 Ni71 1.825616 1_555
C3 Ni51 1.887465 1_555
C3 Ni46 1.887465 1_555
C3 Ni8 1.888982 1_555
C3 Ni63 1.900202 1_555
C3 Ni55 2.497843 1_555
C3 Ni58 2.497843 1_555
C4 Ni20 1.885624 1_555
C4 Ni36 1.899972 1_555
C4 Ni6 1.901714 1_655
C4 Ni12 1.912472 1_655
C4 Ni84 1.936141 1_655
C4 Ni80 1.959261 1_555
C4 Dy0 3.025582 1_555
C5 Ni21 1.885624 1_555
C5 Ni37 1.899972 1_555
C5 Ni7 1.901714 1_565
C5 Ni13 1.912472 1_565
C5 Ni85 1.936141 1_565
C5 Ni81 1.959261 1_555
C5 Dy1 3.025582 1_555
C6 Ni22 1.885624 1_555
C6 Ni38 1.899972 1_455
C6 Ni4 1.901714 1_555
C6 Ni14 1.912472 1_555
C6 Ni82 1.936141 1_455
C6 Ni78 1.959261 1_556
C6 Dy2 3.025582 1_555
C7 Ni23 1.885624 1_555
C7 Ni39 1.899972 1_545
C7 Ni5 1.901714 1_555
C7 Ni15 1.912472 1_555
C7 Ni83 1.936141 1_545
C7 Ni79 1.959261 1_554
C7 Dy3 3.025582 1_555
C8 Ni24 1.885624 1_555
C8 Ni40 1.899972 1_555
C8 Ni2 1.901714 1_455
C8 Ni16 1.912472 1_455
C8 Ni80 1.936141 1_455
C8 Ni84 1.959261 1_555
C8 Dy2 3.025582 1_555
C9 Ni25 1.885624 1_555
C9 Ni41 1.899972 1_555
C9 Ni3 1.901714 1_545
C9 Ni17 1.912472 1_545
C9 Ni81 1.936141 1_545
C9 Ni85 1.959261 1_555
C9 Dy3 3.025582 1_555
C10 Ni26 1.885624 1_555
C10 Ni42 1.899972 1_655
C10 Ni0 1.901714 1_555
C10 Ni18 1.912472 1_555
C10 Ni78 1.936141 1_655
C10 Ni82 1.959261 1_554
C10 Dy0 3.025582 1_555
C11 Ni27 1.885624 1_555
C11 Ni43 1.899972 1_565
C11 Ni1 1.901714 1_555
C11 Ni19 1.912472 1_555
C11 Ni79 1.936141 1_565
C11 Ni83 1.959261 1_556
C11 Dy1 3.025582 1_555
