# generated using pymatgen
data_Hf10CuSn7
_symmetry_space_group_name_H-M   'P 1'
_cell_length_a   5.83402914
_cell_length_b   8.62025880
_cell_length_c   8.62027394
_cell_angle_alpha   119.99979746
_cell_angle_beta   90.00009532
_cell_angle_gamma   89.99987011
_symmetry_Int_Tables_number   1
_chemical_formula_structural   Hf10CuSn7
_chemical_formula_sum   'Hf10 Cu1 Sn7'
_cell_volume   375.44081493
_cell_formula_units_Z   1
loop_
 _symmetry_equiv_pos_site_id
 _symmetry_equiv_pos_as_xyz
  1  'x, y, z'
loop_
 _atom_site_type_symbol
 _atom_site_label
 _atom_site_symmetry_multiplicity
 _atom_site_fract_x
 _atom_site_fract_y
 _atom_site_fract_z
 _atom_site_occupancy
  Hf  Hf0  1  0.50000005  0.33333417  0.66666769  1
  Hf  Hf1  1  0.49999987  0.66666708  0.33333234  1
  Hf  Hf2  1  -0.00000013  0.66666741  0.33333402  1
  Hf  Hf3  1  -0.00000008  0.33333300  0.66666599  1
  Hf  Hf4  1  0.73583789  0.27150178  0.00000022  1
  Hf  Hf5  1  0.73583910  0.72849942  0.72849920  1
  Hf  Hf6  1  0.73583856  -0.00000027  0.27150027  1
  Hf  Hf7  1  0.26416515  0.72850348  0.00000030  1
  Hf  Hf8  1  0.26415995  0.27149990  0.27150350  1
  Hf  Hf9  1  0.26416065  -0.00000328  0.72849739  1
  Cu  Cu0  1  0.50000353  -0.00000399  -0.00000072  1
  Sn  Sn0  1  0.75521977  0.61267346  0.00000031  1
  Sn  Sn1  1  0.75522004  0.38732907  0.38732988  1
  Sn  Sn2  1  0.75522052  -0.00000170  0.61266947  1
  Sn  Sn3  1  0.24477656  0.38733102  0.00000048  1
  Sn  Sn4  1  0.24478033  0.61267081  0.61267185  1
  Sn  Sn5  1  0.24477996  -0.00000172  0.38732810  1
  Sn  Sn6  1  -0.00000070  0.00000038  -0.00000027  1
loop_
_geom_bond_atom_site_label_1
_geom_bond_atom_site_label_2
_geom_bond_distance
_geom_bond_site_symmetry_2
Hf0 Sn4 3.058214 1_555
Hf0 Sn1 3.058228 1_555
Hf0 Sn3 3.058236 1_556
Hf0 Sn0 3.058236 1_556
Hf0 Sn2 3.058237 1_555
Hf0 Sn5 3.058252 1_555
Hf1 Sn5 3.058207 1_565
Hf1 Sn2 3.058225 1_565
Hf1 Sn0 3.058229 1_555
Hf1 Sn3 3.058233 1_555
Hf1 Sn1 3.058234 1_555
Hf1 Sn4 3.058246 1_555
Hf2 Sn2 3.029026 1_465
Hf2 Sn5 3.029029 1_565
Hf2 Sn3 3.029036 1_555
Hf2 Sn4 3.029046 1_555
Hf2 Sn1 3.029046 1_455
Hf2 Sn0 3.029050 1_455
Hf3 Sn1 3.029029 1_455
Hf3 Sn3 3.029036 1_556
Hf3 Sn4 3.029036 1_555
Hf3 Sn2 3.029049 1_455
Hf3 Sn5 3.029053 1_555
Hf3 Sn0 3.029061 1_456
Hf4 Sn6 2.802244 1_655
Hf4 Sn0 2.943161 1_555
Hf4 Sn1 2.970547 1_555
Hf4 Sn2 2.970560 1_554
Hf4 Sn3 3.033876 1_555
Hf4 Sn3 3.132555 1_655
Hf5 Sn6 2.802248 1_666
Hf5 Sn1 2.943157 1_555
Hf5 Sn0 2.970521 1_556
Hf5 Sn2 2.970524 1_565
Hf5 Sn4 3.033862 1_555
Hf5 Sn4 3.132564 1_655
Hf6 Sn6 2.802248 1_655
Hf6 Sn2 2.943151 1_555
Hf6 Sn0 2.970521 1_545
Hf6 Sn1 2.970535 1_555
Hf6 Sn5 3.033863 1_555
Hf6 Sn5 3.132565 1_655
Hf7 Sn6 2.802230 1_565
Hf7 Sn3 2.943170 1_555
Hf7 Sn5 2.970525 1_565
Hf7 Sn4 2.970528 1_554
Hf7 Sn0 3.033841 1_555
Hf7 Sn0 3.132594 1_455
Hf8 Sn6 2.802256 1_555
Hf8 Sn4 2.943154 1_555
Hf8 Sn5 2.970514 1_555
Hf8 Sn3 2.970570 1_555
Hf8 Sn1 3.033869 1_555
Hf8 Sn1 3.132556 1_455
Hf9 Sn6 2.802248 1_556
Hf9 Sn5 2.943152 1_555
Hf9 Sn4 2.970514 1_545
Hf9 Sn3 2.970578 1_556
Hf9 Sn2 3.033871 1_555
Hf9 Sn2 3.132558 1_455
Cu0 Hf7 2.714825 1_545
Cu0 Hf6 2.714859 1_555
Cu0 Hf5 2.714861 1_544
Cu0 Hf4 2.714904 1_555
Cu0 Hf9 2.714906 1_554
Cu0 Hf8 2.714927 1_555
