# generated using pymatgen
data_Ba5P3O12F
_symmetry_space_group_name_H-M   'P 1'
_cell_length_a   10.31524816
_cell_length_b   10.31524816
_cell_length_c   7.83784400
_cell_angle_alpha   90.00000000
_cell_angle_beta   90.00000000
_cell_angle_gamma   120.00000103
_symmetry_Int_Tables_number   1
_chemical_formula_structural   Ba5P3O12F
_chemical_formula_sum   'Ba10 P6 O24 F2'
_cell_volume   722.24842516
_cell_formula_units_Z   2
loop_
 _symmetry_equiv_pos_site_id
 _symmetry_equiv_pos_as_xyz
  1  'x, y, z'
loop_
 _atom_site_type_symbol
 _atom_site_label
 _atom_site_symmetry_multiplicity
 _atom_site_fract_x
 _atom_site_fract_y
 _atom_site_fract_z
 _atom_site_occupancy
  Ba  Ba0  1  0.33333300  0.66666700  0.99889300  1
  Ba  Ba1  1  0.66666700  0.33333300  0.49889300  1
  Ba  Ba2  1  0.66666700  0.33333300  0.00114800  1
  Ba  Ba3  1  0.33333300  0.66666700  0.50114800  1
  Ba  Ba4  1  0.75964300  0.74130100  0.75001400  1
  Ba  Ba5  1  0.98165800  0.24035700  0.75001400  1
  Ba  Ba6  1  0.25869900  0.01834200  0.75001400  1
  Ba  Ba7  1  0.24035700  0.25869900  0.25001400  1
  Ba  Ba8  1  0.01834200  0.75964300  0.25001400  1
  Ba  Ba9  1  0.74130100  0.98165800  0.25001400  1
  P  P0  1  0.59821500  0.96768500  0.74988300  1
  P  P1  1  0.36947000  0.40178500  0.74988300  1
  P  P2  1  0.03231500  0.63053000  0.74988300  1
  P  P3  1  0.40178500  0.03231500  0.24988300  1
  P  P4  1  0.63053000  0.59821500  0.24988300  1
  P  P5  1  0.96768500  0.36947000  0.24988300  1
  O  O0  1  0.65933500  0.14018800  0.74999200  1
  O  O1  1  0.48085300  0.34066500  0.74999200  1
  O  O2  1  0.85981200  0.51914700  0.74999200  1
  O  O3  1  0.34066500  0.85981200  0.24999200  1
  O  O4  1  0.51914700  0.65933500  0.24999200  1
  O  O5  1  0.14018800  0.48085300  0.24999200  1
  O  O6  1  0.42328100  0.88230400  0.75013100  1
  O  O7  1  0.45902300  0.57671900  0.75013100  1
  O  O8  1  0.11769600  0.54097700  0.75013100  1
  O  O9  1  0.57671900  0.11769600  0.25013100  1
  O  O10  1  0.54097700  0.42328100  0.25013100  1
  O  O11  1  0.88230400  0.45902300  0.25013100  1
  O  O12  1  0.65354100  0.92105300  0.91131000  1
  O  O13  1  0.26751200  0.34645900  0.91131000  1
  O  O14  1  0.07894700  0.73248800  0.91131000  1
  O  O15  1  0.34645900  0.07894700  0.41131000  1
  O  O16  1  0.73248800  0.65354100  0.41131000  1
  O  O17  1  0.92105300  0.26751200  0.41131000  1
  O  O18  1  0.34703400  0.07921600  0.08846600  1
  O  O19  1  0.73218200  0.65296600  0.08846600  1
  O  O20  1  0.92078400  0.26781800  0.08846600  1
  O  O21  1  0.65296600  0.92078400  0.58846600  1
  O  O22  1  0.26781800  0.34703400  0.58846600  1
  O  O23  1  0.07921600  0.73218200  0.58846600  1
  F  F0  1  0.00000000  0.00000000  0.71938100  1
  F  F1  1  0.00000000  0.00000000  0.21938100  1
loop_
_geom_bond_atom_site_label_1
_geom_bond_atom_site_label_2
_geom_bond_distance
_geom_bond_site_symmetry_2
Ba0 O6 2.747059 1_555
Ba0 O8 2.747060 1_555
Ba0 O7 2.747066 1_555
Ba0 O3 2.774485 1_556
Ba0 O5 2.774489 1_556
Ba0 O4 2.774492 1_556
Ba0 O14 3.098307 1_555
Ba0 O12 3.098314 1_555
Ba0 O13 3.098317 1_555
Ba1 O9 2.747059 1_555
Ba1 O11 2.747060 1_555
Ba1 O10 2.747066 1_555
Ba1 O0 2.774485 1_555
Ba1 O2 2.774489 1_555
Ba1 O1 2.774492 1_555
Ba1 O17 3.098307 1_555
Ba1 O15 3.098314 1_555
Ba1 O16 3.098317 1_555
Ba2 O9 2.748289 1_555
Ba2 O11 2.748289 1_555
Ba2 O10 2.748295 1_555
Ba2 O0 2.774802 1_554
Ba2 O2 2.774806 1_554
Ba2 O1 2.774809 1_554
Ba2 O20 3.093165 1_555
Ba2 O18 3.093172 1_555
Ba2 O19 3.093175 1_555
Ba3 O6 2.748289 1_555
Ba3 O8 2.748289 1_555
Ba3 O7 2.748295 1_555
Ba3 O3 2.774802 1_555
Ba3 O5 2.774806 1_555
Ba3 O4 2.774809 1_555
Ba3 O23 3.093165 1_555
Ba3 O21 3.093172 1_555
Ba3 O22 3.093175 1_555
Ba4 F0 2.590305 1_665
Ba4 O7 2.689551 1_555
Ba4 O19 2.772978 1_556
Ba4 O16 2.773423 1_555
Ba4 O12 2.874622 1_555
Ba4 O21 2.877348 1_555
Ba4 O2 2.947331 1_555
Ba5 F0 2.590305 1_655
Ba5 O8 2.689551 1_655
Ba5 O20 2.772978 1_556
Ba5 O17 2.773423 1_555
Ba5 O13 2.874622 1_655
Ba5 O22 2.877348 1_655
Ba5 O0 2.947331 1_555
Ba6 F0 2.590305 1_555
Ba6 O6 2.689551 1_545
Ba6 O18 2.772978 1_556
Ba6 O15 2.773423 1_555
Ba6 O14 2.874622 1_545
Ba6 O23 2.877348 1_545
Ba6 O1 2.947331 1_555
Ba7 F1 2.590305 1_555
Ba7 O10 2.689551 1_555
Ba7 O22 2.772978 1_555
Ba7 O13 2.773423 1_554
Ba7 O15 2.874622 1_555
Ba7 O18 2.877348 1_555
Ba7 O5 2.947331 1_555
Ba8 F1 2.590305 1_565
Ba8 O11 2.689551 1_455
Ba8 O23 2.772978 1_555
Ba8 O14 2.773423 1_554
Ba8 O16 2.874622 1_455
Ba8 O19 2.877348 1_455
Ba8 O3 2.947331 1_555
Ba9 F1 2.590305 1_665
Ba9 O9 2.689551 1_565
Ba9 O21 2.772978 1_555
Ba9 O12 2.773423 1_554
Ba9 O17 2.874622 1_565
Ba9 O20 2.877348 1_565
Ba9 O4 2.947331 1_555
O0 P0 1.562669 1_545
O1 P1 1.562669 1_555
O2 P2 1.562669 1_655
O3 P3 1.562669 1_565
O4 P4 1.562669 1_555
O5 P5 1.562669 1_455
O6 P0 1.562881 1_555
O7 P1 1.562881 1_555
O8 P2 1.562881 1_555
O9 P3 1.562881 1_555
O10 P4 1.562881 1_555
O11 P5 1.562881 1_555
O12 P0 1.559625 1_555
O13 P1 1.559625 1_555
O14 P2 1.559625 1_555
O15 P3 1.559625 1_555
O16 P4 1.559625 1_555
O17 P5 1.559625 1_555
O18 P3 1.557848 1_555
O19 P4 1.557848 1_555
O20 P5 1.557848 1_555
O21 P0 1.557848 1_555
O22 P1 1.557848 1_555
O23 P2 1.557848 1_555
