# generated using pymatgen
data_Yb2Al3Ga
_symmetry_space_group_name_H-M   'P 1'
_cell_length_a   5.44628362
_cell_length_b   5.44628362
_cell_length_c   5.44628364
_cell_angle_alpha   59.86372632
_cell_angle_beta   59.86372632
_cell_angle_gamma   59.86372504
_symmetry_Int_Tables_number   1
_chemical_formula_structural   Yb2Al3Ga
_chemical_formula_sum   'Yb2 Al3 Ga1'
_cell_volume   113.87823056
_cell_formula_units_Z   1
loop_
 _symmetry_equiv_pos_site_id
 _symmetry_equiv_pos_as_xyz
  1  'x, y, z'
loop_
 _atom_site_type_symbol
 _atom_site_label
 _atom_site_symmetry_multiplicity
 _atom_site_fract_x
 _atom_site_fract_y
 _atom_site_fract_z
 _atom_site_occupancy
  Yb  Yb0  1  0.12364522  0.12364522  0.12364522  1
  Yb  Yb1  1  0.87635478  0.87635478  0.87635478  1
  Al  Al0  1  0.50000000  0.00000000  0.50000000  1
  Al  Al1  1  0.00000000  0.50000000  0.50000000  1
  Al  Al2  1  0.50000000  0.50000000  0.00000000  1
  Ga  Ga0  1  0.50000000  0.50000000  0.50000000  1
loop_
_geom_bond_atom_site_label_1
_geom_bond_atom_site_label_2
_geom_bond_distance
_geom_bond_site_symmetry_2
Yb0 Yb1 3.302400 1_444
Yb0 Yb1 3.341697 1_544
Yb0 Yb1 3.341697 1_454
Yb0 Yb1 3.341697 1_445
Al0 Al1 2.717531 1_555
Al0 Al1 2.717531 1_645
Al0 Al2 2.717531 1_555
Al0 Al2 2.717531 1_546
Al0 Ga0 2.723142 1_545
Al0 Ga0 2.723142 1_555
Al0 Yb0 3.179848 1_556
Al0 Yb1 3.179848 1_544
Al0 Yb0 3.179848 1_655
Al0 Yb1 3.179848 1_445
Al0 Yb1 3.209834 1_545
Al0 Yb0 3.209834 1_555
Al1 Al2 2.717531 1_555
Al1 Al2 2.717531 1_456
Al1 Ga0 2.723142 1_455
Al1 Ga0 2.723142 1_555
Al1 Yb0 3.179848 1_556
Al1 Yb1 3.179848 1_454
Al1 Yb0 3.179848 1_565
Al1 Yb1 3.179848 1_445
Al1 Yb1 3.209834 1_455
Al1 Yb0 3.209834 1_555
Al2 Ga0 2.723142 1_555
Al2 Ga0 2.723142 1_554
Al2 Yb0 3.179848 1_655
Al2 Yb0 3.179848 1_565
Al2 Yb1 3.179848 1_544
Al2 Yb1 3.179848 1_454
Al2 Yb1 3.209834 1_554
Al2 Yb0 3.209834 1_555
Ga0 Yb1 3.190095 1_455
Ga0 Yb1 3.190095 1_545
Ga0 Yb0 3.190095 1_655
Ga0 Yb0 3.190095 1_565
Ga0 Yb1 3.190095 1_554
Ga0 Yb0 3.190095 1_556
