# generated using pymatgen
data_Li4V3P8O29
_symmetry_space_group_name_H-M   'P 1'
_cell_length_a   9.79087500
_cell_length_b   9.81991080
_cell_length_c   14.19782044
_cell_angle_alpha   90.25146294
_cell_angle_beta   89.90568550
_cell_angle_gamma   119.80728232
_symmetry_Int_Tables_number   1
_chemical_formula_structural   Li4V3P8O29
_chemical_formula_sum   'Li8 V6 P16 O58'
_cell_volume   1184.45128093
_cell_formula_units_Z   2
loop_
 _symmetry_equiv_pos_site_id
 _symmetry_equiv_pos_as_xyz
  1  'x, y, z'
loop_
 _atom_site_type_symbol
 _atom_site_label
 _atom_site_symmetry_multiplicity
 _atom_site_fract_x
 _atom_site_fract_y
 _atom_site_fract_z
 _atom_site_occupancy
  Li  Li0  1  0.90105500  0.66622000  0.44434500  1
  Li  Li1  1  0.31129700  0.08382900  0.93909900  1
  Li  Li2  1  0.90672000  0.22666500  0.93859900  1
  Li  Li3  1  0.76327200  0.09014000  0.44198600  1
  Li  Li4  1  0.68639400  0.90699000  0.05330300  1
  Li  Li5  1  0.10102200  0.33332300  0.56093100  1
  Li  Li6  1  0.23117100  0.32010100  0.05982000  1
  Li  Li7  1  0.04169600  0.98861900  0.50983400  1
  V  V0  1  0.42971200  0.99563900  0.74297800  1
  V  V1  1  0.56227300  0.99774800  0.25101400  1
  V  V2  1  0.00121800  0.57107800  0.24438800  1
  V  V3  1  0.00015900  0.43758500  0.75424600  1
  V  V4  1  0.56743200  0.56868900  0.74918700  1
  V  V5  1  0.44044500  0.43346700  0.25732300  1
  P  P0  1  0.76797500  0.68423700  0.15665900  1
  P  P1  1  0.91258800  0.68598200  0.65875300  1
  P  P2  1  0.30835100  0.22551000  0.66130000  1
  P  P3  1  0.65786600  0.32627400  0.86768200  1
  P  P4  1  0.67613400  0.33818400  0.37074800  1
  P  P5  1  0.31940200  0.08980700  0.15918000  1
  P  P6  1  0.21985600  0.91393900  0.34014700  1
  P  P7  1  0.91070800  0.23001700  0.15853200  1
  P  P8  1  0.08647300  0.77520200  0.84074600  1
  P  P9  1  0.77567000  0.09108100  0.65834800  1
  P  P10  1  0.68119000  0.91169500  0.83739200  1
  P  P11  1  0.33500200  0.66281500  0.63004300  1
  P  P12  1  0.33492600  0.66015000  0.13200900  1
  P  P13  1  0.69249800  0.77577000  0.34121700  1
  P  P14  1  0.08732600  0.31861100  0.33907800  1
  P  P15  1  0.23348400  0.32046100  0.84439400  1
  O  O0  1  0.78708300  0.78081200  0.42423900  1
  O  O1  1  0.74155100  0.65655500  0.67225400  1
  O  O2  1  0.00477400  0.77438700  0.92764300  1
  O  O3  1  0.90970500  0.65460200  0.16407200  1
  O  O4  1  0.61585900  0.52583400  0.17835600  1
  O  O5  1  0.65331400  0.46882400  0.81947600  1
  O  O6  1  0.46125200  0.38442100  0.66841500  1
  O  O7  1  0.24808100  0.24706600  0.93390100  1
  O  O8  1  0.34160900  0.25822900  0.16810500  1
  O  O9  1  0.81875400  0.49021900  0.32707300  1
  O  O10  1  0.91226000  0.53135600  0.67034000  1
  O  O11  1  0.52399100  0.33449400  0.32490500  1
  O  O12  1  0.64665000  0.32373900  0.97227700  1
  O  O13  1  0.67796500  0.35355900  0.47507700  1
  O  O14  1  0.51080100  0.17634100  0.82426900  1
  O  O15  1  0.90071400  0.38020100  0.17799300  1
  O  O16  1  0.81112600  0.32692500  0.83306700  1
  O  O17  1  0.34426300  0.08804300  0.66449900  1
  O  O18  1  0.20289100  0.99351500  0.24353300  1
  O  O19  1  0.19260600  0.98910100  0.42283700  1
  O  O20  1  0.25577400  0.01818400  0.06627200  1
  O  O21  1  0.47944500  0.09784700  0.18203600  1
  O  O22  1  0.67908500  0.18983100  0.33464600  1
  O  O23  1  0.25886700  0.91733300  0.83381500  1
  O  O24  1  0.61825900  0.09059500  0.67331900  1
  O  O25  1  0.91708200  0.26037800  0.66666800  1
  O  O26  1  0.00843600  0.79841600  0.74540800  1
  O  O27  1  0.97868000  0.77038800  0.56792100  1
  O  O28  1  0.00572100  0.23397900  0.42799000  1
  O  O29  1  0.07966700  0.73969100  0.33211900  1
  O  O30  1  0.37774700  0.91694000  0.33210600  1
  O  O31  1  0.74595800  0.08272300  0.15841300  1
  O  O32  1  0.33384900  0.81295000  0.67420800  1
  O  O33  1  0.52376200  0.90748600  0.81942200  1
  O  O34  1  0.75773500  0.99964500  0.92665400  1
  O  O35  1  0.78225400  0.01824700  0.56731300  1
  O  O36  1  0.79357700  0.00096400  0.74837100  1
  O  O37  1  0.65866000  0.91441300  0.33840100  1
  O  O38  1  0.18400700  0.65887000  0.17771400  1
  O  O39  1  0.09333100  0.62063700  0.82201600  1
  O  O40  1  0.48279700  0.81197300  0.17007900  1
  O  O41  1  0.32382100  0.65130500  0.02761800  1
  O  O42  1  0.34381200  0.67065800  0.52559000  1
  O  O43  1  0.48350500  0.66819600  0.67727200  1
  O  O44  1  0.08523400  0.47260200  0.32529300  1
  O  O45  1  0.18785700  0.51282700  0.66762500  1
  O  O46  1  0.65626700  0.74420300  0.83463200  1
  O  O47  1  0.79113700  0.79519200  0.24672300  1
  O  O48  1  0.75918800  0.76265900  0.07041000  1
  O  O49  1  0.53371600  0.61850100  0.32851200  1
  O  O50  1  0.33413000  0.51262700  0.17486700  1
  O  O51  1  0.38118600  0.47836300  0.82304400  1
  O  O52  1  0.08427200  0.33683900  0.84364800  1
  O  O53  1  0.00134600  0.24610800  0.06965800  1
  O  O54  1  0.00031400  0.20903000  0.24834400  1
  O  O55  1  0.25812800  0.34808200  0.33374900  1
  O  O56  1  0.20169200  0.20615400  0.58043500  1
  O  O57  1  0.21199800  0.20451300  0.75818700  1
loop_
_geom_bond_atom_site_label_1
_geom_bond_atom_site_label_2
_geom_bond_distance
_geom_bond_site_symmetry_2
Li0 O0 1.960914 1_555
Li0 O27 1.979401 1_555
Li0 O29 2.205472 1_655
Li0 O9 2.236791 1_555
Li1 O20 1.905198 1_556
Li1 O7 1.986354 1_555
Li1 O23 2.077925 1_545
Li1 O14 2.353104 1_555
Li2 O34 1.972554 1_545
Li2 O52 2.035967 1_655
Li2 O53 2.045458 1_656
Li2 O16 2.241423 1_555
Li3 O35 1.960017 1_555
Li3 O28 2.082545 1_655
Li3 O37 2.101258 1_545
Li3 O22 2.186269 1_555
Li4 O48 1.893038 1_555
Li4 O34 1.981779 1_554
Li4 O31 2.127176 1_565
Li4 O40 2.397218 1_555
Li5 O56 1.958386 1_555
Li5 O28 2.114135 1_555
Li5 O45 2.148387 1_555
Li5 O25 2.174443 1_455
Li6 O7 1.960547 1_554
Li6 O53 1.996297 1_555
Li6 O8 2.137467 1_555
Li6 O50 2.311311 1_555
Li7 O19 1.922467 1_555
Li7 O27 2.086300 1_455
Li7 O56 2.163678 1_565
O0 P13 1.485585 1_555
O1 P1 1.562971 1_555
O1 V4 1.839458 1_555
O2 P8 1.467147 1_555
O3 P0 1.556788 1_555
O3 V2 1.875638 1_655
O4 P0 1.559540 1_555
O4 V5 1.866346 1_555
O5 P3 1.581288 1_555
O5 V4 1.869706 1_555
O6 P2 1.537231 1_555
O6 V4 1.945684 1_555
O7 P15 1.505279 1_555
O8 P5 1.561867 1_555
O8 V5 1.957441 1_555
O9 P4 1.579880 1_555
O9 V2 1.947096 1_655
O10 P1 1.526433 1_555
O10 V3 1.951555 1_655
O11 P4 1.610346 1_555
O11 V5 1.826341 1_555
O12 P3 1.488300 1_555
O13 P4 1.487493 1_555
O14 P3 1.583756 1_555
O14 V0 1.922398 1_545
O15 P7 1.549431 1_555
O15 V2 1.877266 1_655
O16 P3 1.575209 1_555
O16 V3 1.965461 1_655
O17 P2 1.555772 1_555
O17 V0 1.879224 1_545
O18 P5 1.600875 1_565
O18 P6 1.630645 1_555
O19 P6 1.476958 1_555
O20 P5 1.477069 1_555
O21 P5 1.563765 1_555
O21 V1 1.840253 1_545
O22 P4 1.555992 1_555
O22 V1 2.028778 1_545
O23 P8 1.570113 1_555
O23 V0 1.943049 1_555
O24 P9 1.553091 1_555
O24 V0 1.883147 1_545
O25 P9 1.550878 1_555
O25 V3 1.952690 1_655
O26 P1 1.604727 1_455
O26 P8 1.627028 1_555
O27 P1 1.497419 1_555
O28 P14 1.506105 1_555
O29 P6 1.577562 1_555
O29 V2 1.898341 1_555
O30 P6 1.535526 1_555
O30 V1 1.948126 1_555
O31 P7 1.540940 1_555
O31 V1 2.041836 1_545
O32 P11 1.604780 1_555
O32 V0 1.834752 1_555
O33 P10 1.542871 1_555
O33 V0 1.891893 1_555
O34 P10 1.504566 1_555
O35 P9 1.491208 1_555
O36 P9 1.616289 1_555
O36 P10 1.619533 1_545
O37 P13 1.553669 1_555
O37 V1 1.969815 1_555
O38 P12 1.607197 1_555
O38 V2 1.819321 1_555
O39 P8 1.573755 1_555
O39 V3 1.829387 1_555
O40 P12 1.568626 1_555
O40 V1 1.956335 1_555
O41 P12 1.485285 1_555
O42 P11 1.485481 1_555
O43 P11 1.578919 1_555
O43 V4 1.866102 1_555
O44 P14 1.535842 1_555
O44 V2 1.932598 1_555
O45 P11 1.557054 1_555
O45 V3 2.021451 1_555
O46 P10 1.538428 1_555
O46 V4 1.921858 1_555
O47 P13 1.607435 1_555
O47 P0 1.617643 1_555
O48 P0 1.474605 1_555
O49 P13 1.563975 1_555
O49 V5 1.869319 1_555
O50 P12 1.570173 1_555
O50 V5 1.968434 1_555
O51 P15 1.536522 1_555
O51 V4 1.898786 1_555
O52 P15 1.547227 1_555
O52 V3 2.023012 1_555
O53 P7 1.504437 1_455
O54 P14 1.619658 1_555
O54 P7 1.619839 1_455
O55 P14 1.550709 1_555
O55 V5 1.892207 1_555
O56 P2 1.499835 1_555
O57 P15 1.609102 1_555
O57 P2 1.621588 1_555
