# generated using pymatgen
data_Li2In2GeSe6
_symmetry_space_group_name_H-M   'P 1'
_cell_length_a   7.52404528
_cell_length_b   7.52404528
_cell_length_c   12.88569812
_cell_angle_alpha   73.08112445
_cell_angle_beta   73.08112445
_cell_angle_gamma   60.83523121
_symmetry_Int_Tables_number   1
_chemical_formula_structural   Li2In2GeSe6
_chemical_formula_sum   'Li4 In4 Ge2 Se12'
_cell_volume   599.62628856
_cell_formula_units_Z   2
loop_
 _symmetry_equiv_pos_site_id
 _symmetry_equiv_pos_as_xyz
  1  'x, y, z'
loop_
 _atom_site_type_symbol
 _atom_site_label
 _atom_site_symmetry_multiplicity
 _atom_site_fract_x
 _atom_site_fract_y
 _atom_site_fract_z
 _atom_site_occupancy
  Li  Li0  1  0.01415400  0.40415000  0.84137900  1
  Li  Li1  1  0.40415000  0.01415400  0.34137900  1
  Li  Li2  1  0.60337300  0.40117800  0.49652100  1
  Li  Li3  1  0.40117800  0.60337300  0.99652100  1
  In  In0  1  0.93057900  0.11070400  0.18832100  1
  In  In1  1  0.11070400  0.93057900  0.68832100  1
  In  In2  1  0.91494000  0.77319200  0.49239000  1
  In  In3  1  0.77319200  0.91494000  0.99239000  1
  Ge  Ge0  1  0.00574600  0.54314400  0.24733100  1
  Ge  Ge1  1  0.54314400  0.00574600  0.74733100  1
  Se  Se0  1  0.77076700  0.25981700  0.00681600  1
  Se  Se1  1  0.25981700  0.77076700  0.50681600  1
  Se  Se2  1  0.12100900  0.67170600  0.87863300  1
  Se  Se3  1  0.67170600  0.12100900  0.37863300  1
  Se  Se4  1  0.21556200  0.71907200  0.19411200  1
  Se  Se5  1  0.71907200  0.21556200  0.69411200  1
  Se  Se6  1  0.67841300  0.72671400  0.19482200  1
  Se  Se7  1  0.72671400  0.67841300  0.69482200  1
  Se  Se8  1  0.21139400  0.24072800  0.16729400  1
  Se  Se9  1  0.24072800  0.21139400  0.66729400  1
  Se  Se10  1  0.95992400  0.43601400  0.44113000  1
  Se  Se11  1  0.43601400  0.95992400  0.94113000  1
loop_
_geom_bond_atom_site_label_1
_geom_bond_atom_site_label_2
_geom_bond_distance
_geom_bond_site_symmetry_2
Li0 Se2 2.700736 1_555
Li0 Se9 2.701778 1_555
Li0 Se0 2.719548 1_456
Li0 Se7 2.874239 1_455
Li1 Se3 2.700736 1_555
Li1 Se8 2.701778 1_555
Li1 Se1 2.719548 1_545
Li1 Se6 2.874239 1_545
Li2 Se5 2.688189 1_555
Li2 Se10 2.690172 1_555
Li2 Se3 2.714494 1_555
Li2 Se1 2.727916 1_555
Li3 Se4 2.688189 1_556
Li3 Se11 2.690172 1_555
Li3 Se2 2.714494 1_555
Li3 Se0 2.727916 1_556
In0 Se0 2.639960 1_555
In0 Se3 2.645182 1_555
In0 Se8 2.649874 1_655
In0 Se4 2.663289 1_645
In1 Se1 2.639960 1_555
In1 Se2 2.645182 1_555
In1 Se9 2.649874 1_565
In1 Se5 2.663289 1_465
In2 Se10 2.644850 1_555
In2 Se1 2.645915 1_655
In2 Se3 2.647135 1_565
In2 Se7 2.658927 1_555
In3 Se11 2.644850 1_555
In3 Se0 2.645915 1_566
In3 Se2 2.647135 1_655
In3 Se6 2.658927 1_556
Ge0 Se6 2.354093 1_455
Ge0 Se4 2.364921 1_555
Ge0 Se10 2.367051 1_455
Ge0 Se8 2.375036 1_555
Ge1 Se7 2.354093 1_545
Ge1 Se5 2.364921 1_555
Ge1 Se11 2.367051 1_545
Ge1 Se9 2.375036 1_555
