# generated using pymatgen
data_V(NiN)4
_symmetry_space_group_name_H-M   'P 1'
_cell_length_a   4.85498468
_cell_length_b   5.14774339
_cell_length_c   7.73896092
_cell_angle_alpha   82.89674743
_cell_angle_beta   82.83280458
_cell_angle_gamma   80.37779136
_symmetry_Int_Tables_number   1
_chemical_formula_structural   V(NiN)4
_chemical_formula_sum   'V2 Ni8 N8'
_cell_volume   188.15499023
_cell_formula_units_Z   2
loop_
 _symmetry_equiv_pos_site_id
 _symmetry_equiv_pos_as_xyz
  1  'x, y, z'
loop_
 _atom_site_type_symbol
 _atom_site_label
 _atom_site_symmetry_multiplicity
 _atom_site_fract_x
 _atom_site_fract_y
 _atom_site_fract_z
 _atom_site_occupancy
  V  V0  1  0.72404200  0.85947700  0.74908300  1
  V  V1  1  0.27595800  0.14052300  0.25091700  1
  Ni  Ni0  1  0.63060600  0.68622900  0.15640100  1
  Ni  Ni1  1  0.36939400  0.31377100  0.84359900  1
  Ni  Ni2  1  0.78051900  0.17377000  0.06472000  1
  Ni  Ni3  1  0.21948100  0.82623000  0.93528000  1
  Ni  Ni4  1  0.75647800  0.44156900  0.60513400  1
  Ni  Ni5  1  0.24352200  0.55843100  0.39486600  1
  Ni  Ni6  1  0.25406700  0.95065500  0.59760100  1
  Ni  Ni7  1  0.74593300  0.04934500  0.40239900  1
  N  N0  1  0.96057600  0.74812800  0.54613700  1
  N  N1  1  0.03942400  0.25187200  0.45386300  1
  N  N2  1  0.82931700  0.84561700  0.97118200  1
  N  N3  1  0.17068300  0.15438300  0.02881800  1
  N  N4  1  0.44844600  0.65216800  0.75558900  1
  N  N5  1  0.55155400  0.34783200  0.24441100  1
  N  N6  1  0.45828200  0.83726800  0.36058100  1
  N  N7  1  0.54171800  0.16273200  0.63941900  1
loop_
_geom_bond_atom_site_label_1
_geom_bond_atom_site_label_2
_geom_bond_distance
_geom_bond_site_symmetry_2
N0 Ni5 1.908956 1_655
N0 V0 1.914837 1_555
N0 Ni4 1.977967 1_555
N0 Ni6 2.004194 1_655
N0 Ni7 2.012501 1_565
N1 Ni4 1.908956 1_455
N1 V1 1.914837 1_555
N1 Ni5 1.977967 1_555
N1 Ni7 2.004194 1_455
N1 Ni6 2.012501 1_545
N2 Ni0 1.813079 1_556
N2 V0 1.843188 1_555
N2 Ni3 1.867521 1_655
N2 Ni2 1.886674 1_566
N3 Ni1 1.813079 1_554
N3 V1 1.843188 1_555
N3 Ni2 1.867521 1_455
N3 Ni3 1.886674 1_544
N4 V0 1.838185 1_555
N4 Ni1 1.873644 1_555
N4 Ni3 1.887285 1_555
N4 Ni6 2.021131 1_555
N4 Ni4 2.025640 1_555
N5 V1 1.838185 1_555
N5 Ni0 1.873644 1_555
N5 Ni2 1.887285 1_555
N5 Ni7 2.021131 1_555
N5 Ni5 2.025640 1_555
N6 V1 1.827191 1_565
N6 Ni5 1.885457 1_555
N6 Ni0 1.886220 1_555
N6 Ni7 1.989159 1_565
N6 Ni6 2.075048 1_555
N7 V0 1.827191 1_545
N7 Ni4 1.885457 1_555
N7 Ni1 1.886220 1_555
N7 Ni6 1.989159 1_545
N7 Ni7 2.075048 1_555
