# generated using pymatgen
data_Sr2Al5Pd4
_symmetry_space_group_name_H-M   'P 1'
_cell_length_a   4.32168200
_cell_length_b   11.13856100
_cell_length_c   18.30957400
_cell_angle_alpha   90.00000000
_cell_angle_beta   90.00000000
_cell_angle_gamma   90.00000000
_symmetry_Int_Tables_number   1
_chemical_formula_structural   Sr2Al5Pd4
_chemical_formula_sum   'Sr8 Al20 Pd16'
_cell_volume   881.37379669
_cell_formula_units_Z   4
loop_
 _symmetry_equiv_pos_site_id
 _symmetry_equiv_pos_as_xyz
  1  'x, y, z'
loop_
 _atom_site_type_symbol
 _atom_site_label
 _atom_site_symmetry_multiplicity
 _atom_site_fract_x
 _atom_site_fract_y
 _atom_site_fract_z
 _atom_site_occupancy
  Sr  Sr0  1  0.25000000  0.16617200  0.80653900  1
  Sr  Sr1  1  0.25000000  0.33382800  0.30653900  1
  Sr  Sr2  1  0.75000000  0.83382800  0.19346100  1
  Sr  Sr3  1  0.75000000  0.66617200  0.69346100  1
  Sr  Sr4  1  0.25000000  0.73932700  0.50773100  1
  Sr  Sr5  1  0.25000000  0.76067300  0.00773100  1
  Sr  Sr6  1  0.75000000  0.26067300  0.49226900  1
  Sr  Sr7  1  0.75000000  0.23932700  0.99226900  1
  Al  Al0  1  0.25000000  0.85796600  0.82664800  1
  Al  Al1  1  0.25000000  0.64203400  0.32664800  1
  Al  Al2  1  0.75000000  0.14203400  0.17335200  1
  Al  Al3  1  0.75000000  0.35796600  0.67335200  1
  Al  Al4  1  0.25000000  0.04437200  0.54654800  1
  Al  Al5  1  0.25000000  0.45562800  0.04654800  1
  Al  Al6  1  0.75000000  0.95562800  0.45345200  1
  Al  Al7  1  0.75000000  0.54437200  0.95345200  1
  Al  Al8  1  0.25000000  0.92876700  0.67756000  1
  Al  Al9  1  0.25000000  0.57123300  0.17756000  1
  Al  Al10  1  0.75000000  0.07123300  0.32244000  1
  Al  Al11  1  0.75000000  0.42876700  0.82244000  1
  Al  Al12  1  0.25000000  0.45252700  0.60115000  1
  Al  Al13  1  0.25000000  0.04747300  0.10115000  1
  Al  Al14  1  0.75000000  0.54747300  0.39885000  1
  Al  Al15  1  0.75000000  0.95252700  0.89885000  1
  Al  Al16  1  0.25000000  0.60898900  0.83727200  1
  Al  Al17  1  0.25000000  0.89101100  0.33727200  1
  Al  Al18  1  0.75000000  0.39101100  0.16272800  1
  Al  Al19  1  0.75000000  0.10898900  0.66272800  1
  Pd  Pd0  1  0.25000000  0.43530400  0.74432100  1
  Pd  Pd1  1  0.25000000  0.06469600  0.24432100  1
  Pd  Pd2  1  0.75000000  0.56469600  0.25567900  1
  Pd  Pd3  1  0.75000000  0.93530400  0.75567900  1
  Pd  Pd4  1  0.25000000  0.41994800  0.90922300  1
  Pd  Pd5  1  0.25000000  0.08005200  0.40922300  1
  Pd  Pd6  1  0.75000000  0.58005200  0.09077700  1
  Pd  Pd7  1  0.75000000  0.91994800  0.59077700  1
  Pd  Pd8  1  0.25000000  0.22498900  0.63588700  1
  Pd  Pd9  1  0.25000000  0.27501100  0.13588700  1
  Pd  Pd10  1  0.75000000  0.77501100  0.36411300  1
  Pd  Pd11  1  0.75000000  0.72498900  0.86411300  1
  Pd  Pd12  1  0.25000000  0.01507700  0.95154200  1
  Pd  Pd13  1  0.25000000  0.48492300  0.45154200  1
  Pd  Pd14  1  0.75000000  0.98492300  0.04845800  1
  Pd  Pd15  1  0.75000000  0.51507700  0.54845800  1
loop_
_geom_bond_atom_site_label_1
_geom_bond_atom_site_label_2
_geom_bond_distance
_geom_bond_site_symmetry_2
Sr0 Sr7 4.110661 1_555
Sr0 Sr7 4.110661 1_455
Sr1 Sr6 4.110661 1_555
Sr1 Sr6 4.110661 1_455
Sr2 Sr5 4.110661 1_655
Sr2 Sr5 4.110661 1_555
Sr3 Sr4 4.110661 1_555
Sr3 Sr4 4.110661 1_655
Al0 Pd3 2.664540 1_555
Al0 Pd3 2.664540 1_455
Al0 Pd11 2.708073 1_555
Al0 Pd11 2.708073 1_455
Al0 Al15 2.743405 1_555
Al0 Al15 2.743405 1_455
Al0 Al16 2.780059 1_555
Al0 Al8 2.841371 1_555
Al0 Pd12 2.879535 1_565
Al0 Sr5 3.488166 1_556
Al1 Pd2 2.664540 1_455
Al1 Pd2 2.664540 1_555
Al1 Pd10 2.708073 1_555
Al1 Pd10 2.708073 1_455
Al1 Al14 2.743405 1_555
Al1 Al14 2.743405 1_455
Al1 Al17 2.780059 1_555
Al1 Al9 2.841371 1_555
Al1 Pd13 2.879535 1_555
Al1 Sr4 3.488166 1_555
Al2 Pd1 2.664540 1_655
Al2 Pd1 2.664540 1_555
Al2 Pd9 2.708073 1_555
Al2 Pd9 2.708073 1_655
Al2 Pd14 2.879535 1_545
Al2 Sr7 3.488166 1_554
Al3 Pd0 2.664540 1_555
Al3 Pd0 2.664540 1_655
Al3 Pd8 2.708073 1_555
Al3 Pd8 2.708073 1_655
Al3 Pd15 2.879535 1_555
Al3 Sr6 3.488166 1_555
Al4 Pd5 2.545577 1_555
Al4 Pd8 2.592894 1_555
Al4 Pd7 2.691796 1_445
Al4 Pd7 2.691796 1_545
Al4 Al8 2.722539 1_545
Al4 Al6 2.924348 1_545
Al4 Al6 2.924348 1_445
Al4 Sr6 3.385493 1_455
Al4 Sr6 3.385493 1_555
Al4 Sr4 3.471299 1_545
Al5 Pd4 2.545577 1_554
Al5 Pd9 2.592894 1_555
Al5 Pd6 2.691796 1_555
Al5 Pd6 2.691796 1_455
Al5 Al9 2.722539 1_555
Al5 Al7 2.924348 1_454
Al5 Al7 2.924348 1_554
Al5 Sr7 3.385493 1_554
Al5 Sr7 3.385493 1_454
Al5 Sr5 3.471299 1_555
Al6 Pd7 2.545577 1_555
Al6 Pd10 2.592894 1_555
Al6 Pd5 2.691796 1_665
Al6 Pd5 2.691796 1_565
Al6 Sr4 3.385493 1_555
Al6 Sr4 3.385493 1_655
Al6 Sr6 3.471299 1_565
Al7 Pd6 2.545577 1_556
Al7 Pd11 2.592894 1_555
Al7 Pd4 2.691796 1_655
Al7 Pd4 2.691796 1_555
Al7 Sr5 3.385493 1_556
Al7 Sr5 3.385493 1_656
Al7 Sr7 3.471299 1_555
Al8 Pd3 2.592367 1_455
Al8 Pd3 2.592367 1_555
Al8 Pd7 2.683967 1_555
Al8 Pd7 2.683967 1_455
Al8 Sr4 3.757851 1_555
Al9 Pd2 2.592367 1_455
Al9 Pd2 2.592367 1_555
Al9 Pd6 2.683967 1_455
Al9 Pd6 2.683967 1_555
Al9 Sr5 3.757851 1_555
Al10 Pd1 2.592367 1_555
Al10 Pd1 2.592367 1_655
Al10 Pd5 2.683967 1_655
Al10 Pd5 2.683967 1_555
Al10 Al6 2.722539 1_545
Al10 Al2 2.841371 1_555
Al10 Al17 2.961873 1_545
Al10 Al17 2.961873 1_645
Al10 Sr6 3.757851 1_555
Al11 Pd0 2.592367 1_555
Al11 Pd0 2.592367 1_655
Al11 Pd4 2.683967 1_555
Al11 Pd4 2.683967 1_655
Al11 Al7 2.722539 1_555
Al11 Al3 2.841371 1_555
Al11 Al16 2.961873 1_555
Al11 Al16 2.961873 1_655
Al11 Sr7 3.757851 1_555
Al12 Pd15 2.466866 1_555
Al12 Pd15 2.466866 1_455
Al12 Pd8 2.613032 1_555
Al12 Pd0 2.628410 1_555
Al12 Al3 2.743405 1_555
Al12 Al3 2.743405 1_455
Al12 Pd13 2.762924 1_555
Al12 Sr4 3.623639 1_555
Al12 Sr6 3.634585 1_455
Al12 Sr6 3.634585 1_555
Al13 Pd14 2.466866 1_545
Al13 Pd14 2.466866 1_445
Al13 Pd9 2.613032 1_555
Al13 Pd1 2.628410 1_555
Al13 Al2 2.743405 1_555
Al13 Al2 2.743405 1_455
Al13 Pd12 2.762924 1_554
Al13 Sr5 3.623639 1_545
Al13 Sr7 3.634585 1_454
Al13 Sr7 3.634585 1_554
Al14 Pd13 2.466866 1_655
Al14 Pd13 2.466866 1_555
Al14 Pd10 2.613032 1_555
Al14 Pd2 2.628410 1_555
Al14 Pd15 2.762924 1_555
Al14 Sr6 3.623639 1_555
Al14 Sr4 3.634585 1_655
Al14 Sr4 3.634585 1_555
Al15 Pd12 2.466866 1_565
Al15 Pd12 2.466866 1_665
Al15 Pd11 2.613032 1_555
Al15 Pd3 2.628410 1_555
Al15 Pd14 2.762924 1_556
Al15 Sr7 3.623639 1_565
Al15 Sr5 3.634585 1_656
Al15 Sr5 3.634585 1_556
Al16 Pd4 2.483800 1_555
Al16 Pd11 2.565191 1_455
Al16 Pd11 2.565191 1_555
Al16 Pd0 2.576649 1_555
Al16 Al7 3.116451 1_455
Al16 Al7 3.116451 1_555
Al16 Sr5 3.548998 1_556
Al17 Pd5 2.483800 1_565
Al17 Pd10 2.565191 1_455
Al17 Pd10 2.565191 1_555
Al17 Pd1 2.576649 1_565
Al17 Al6 3.116451 1_555
Al17 Al6 3.116451 1_455
Al17 Sr4 3.548998 1_555
Al18 Pd6 2.483800 1_555
Al18 Pd9 2.565191 1_555
Al18 Pd9 2.565191 1_655
Al18 Pd2 2.576649 1_555
Al18 Al2 2.780059 1_555
Al18 Al9 2.961873 1_555
Al18 Al9 2.961873 1_655
Al18 Al5 3.116451 1_655
Al18 Al5 3.116451 1_555
Al18 Sr7 3.548998 1_554
Al19 Pd7 2.483800 1_545
Al19 Pd8 2.565191 1_555
Al19 Pd8 2.565191 1_655
Al19 Pd3 2.576649 1_545
Al19 Al3 2.780059 1_555
Al19 Al8 2.961873 1_545
Al19 Al8 2.961873 1_645
Al19 Al4 3.116451 1_555
Al19 Al4 3.116451 1_655
Al19 Sr6 3.548998 1_555
Pd0 Pd4 3.024126 1_555
Pd0 Pd8 3.070756 1_555
Pd0 Sr0 3.206900 1_555
Pd0 Sr3 3.485573 1_555
Pd0 Sr3 3.485573 1_455
Pd1 Pd5 3.024126 1_555
Pd1 Pd9 3.070756 1_555
Pd1 Sr1 3.206900 1_555
Pd1 Sr2 3.485573 1_545
Pd1 Sr2 3.485573 1_445
Pd2 Pd6 3.024126 1_555
Pd2 Sr2 3.206900 1_555
Pd2 Sr1 3.485573 1_655
Pd2 Sr1 3.485573 1_555
Pd3 Pd7 3.024126 1_555
Pd3 Sr3 3.206900 1_555
Pd3 Sr0 3.485573 1_665
Pd3 Sr0 3.485573 1_565
Pd4 Sr7 3.320970 1_455
Pd4 Sr7 3.320970 1_555
Pd4 Sr0 3.394850 1_555
Pd5 Sr6 3.320970 1_555
Pd5 Sr6 3.320970 1_455
Pd5 Sr1 3.394850 1_555
Pd6 Sr5 3.320970 1_555
Pd6 Sr5 3.320970 1_655
Pd6 Sr2 3.394850 1_555
Pd7 Sr4 3.320970 1_655
Pd7 Sr4 3.320970 1_555
Pd7 Sr3 3.394850 1_555
Pd8 Sr0 3.192509 1_555
Pd8 Sr6 3.426650 1_455
Pd8 Sr6 3.426650 1_555
Pd9 Sr1 3.192509 1_555
Pd9 Sr7 3.426650 1_554
Pd9 Sr7 3.426650 1_454
Pd10 Pd2 3.070756 1_555
Pd10 Sr2 3.192509 1_555
Pd10 Sr4 3.426650 1_555
Pd10 Sr4 3.426650 1_655
Pd11 Pd3 3.070756 1_555
Pd11 Sr3 3.192509 1_555
Pd11 Sr5 3.426650 1_656
Pd11 Sr5 3.426650 1_556
Pd12 Pd14 2.816178 1_546
Pd12 Pd14 2.816178 1_446
Pd12 Sr5 3.014672 1_546
Pd12 Sr0 3.143429 1_555
Pd12 Sr7 3.385913 1_455
Pd12 Sr7 3.385913 1_555
Pd13 Pd15 2.816178 1_455
Pd13 Pd15 2.816178 1_555
Pd13 Sr4 3.014672 1_555
Pd13 Sr1 3.143429 1_555
Pd13 Sr6 3.385913 1_455
Pd13 Sr6 3.385913 1_555
Pd14 Sr7 3.014672 1_564
Pd14 Sr2 3.143429 1_555
Pd14 Sr5 3.385913 1_555
Pd14 Sr5 3.385913 1_655
Pd15 Sr6 3.014672 1_555
Pd15 Sr3 3.143429 1_555
Pd15 Sr4 3.385913 1_655
Pd15 Sr4 3.385913 1_555
