# generated using pymatgen
data_NdI3O10
_symmetry_space_group_name_H-M   'P 1'
_cell_length_a   6.69954900
_cell_length_b   7.51914600
_cell_length_c   10.22214145
_cell_angle_alpha   70.00390261
_cell_angle_beta   90.00000000
_cell_angle_gamma   90.00000000
_symmetry_Int_Tables_number   1
_chemical_formula_structural   NdI3O10
_chemical_formula_sum   'Nd2 I6 O20'
_cell_volume   483.89658103
_cell_formula_units_Z   2
loop_
 _symmetry_equiv_pos_site_id
 _symmetry_equiv_pos_as_xyz
  1  'x, y, z'
loop_
 _atom_site_type_symbol
 _atom_site_label
 _atom_site_symmetry_multiplicity
 _atom_site_fract_x
 _atom_site_fract_y
 _atom_site_fract_z
 _atom_site_occupancy
  Nd  Nd0  1  0.00081800  0.26307000  0.81231000  1
  Nd  Nd1  1  0.50081800  0.73693000  0.18769000  1
  I  I0  1  0.47476100  0.03049900  0.77556600  1
  I  I1  1  0.97476100  0.96950100  0.22443400  1
  I  I2  1  0.02784500  0.66971900  0.95951100  1
  I  I3  1  0.52784500  0.33028100  0.04048900  1
  I  I4  1  0.12887900  0.39195500  0.41995000  1
  I  I5  1  0.62887900  0.60804500  0.58005000  1
  O  O0  1  0.36361200  0.20219600  0.84881100  1
  O  O1  1  0.86361200  0.79780400  0.15118900  1
  O  O2  1  0.71138400  0.15451100  0.72013300  1
  O  O3  1  0.21138400  0.84548900  0.27986700  1
  O  O4  1  0.55589200  0.85124500  0.93697600  1
  O  O5  1  0.05589200  0.14875500  0.06302400  1
  O  O6  1  0.14164100  0.54588700  0.85157100  1
  O  O7  1  0.64164100  0.45411300  0.14842900  1
  O  O8  1  0.09985200  0.91278900  0.85904500  1
  O  O9  1  0.59985200  0.08721100  0.14095500  1
  O  O10  1  0.21827600  0.60104900  0.09669100  1
  O  O11  1  0.71827600  0.39895100  0.90330900  1
  O  O12  1  0.39390900  0.46206900  0.38929000  1
  O  O13  1  0.89390900  0.53793100  0.61071000  1
  O  O14  1  0.13242200  0.20499100  0.34041300  1
  O  O15  1  0.63242200  0.79500900  0.65958700  1
  O  O16  1  0.16128100  0.24573300  0.60283200  1
  O  O17  1  0.66128100  0.75426700  0.39716800  1
  O  O18  1  0.82391600  0.22976800  0.41463700  1
  O  O19  1  0.32391600  0.77023200  0.58536300  1
loop_
_geom_bond_atom_site_label_1
_geom_bond_atom_site_label_2
_geom_bond_distance
_geom_bond_site_symmetry_2
Nd0 O2 2.416643 1_455
Nd0 O5 2.436494 1_556
Nd0 O16 2.439019 1_555
Nd0 O13 2.473528 1_455
Nd0 O0 2.477807 1_555
Nd0 O11 2.478355 1_455
Nd0 O6 2.481337 1_555
Nd0 O8 2.597090 1_545
Nd1 O3 2.416643 1_555
Nd1 O4 2.436494 1_554
Nd1 O17 2.439019 1_555
Nd1 O12 2.473528 1_555
Nd1 O1 2.477807 1_555
Nd1 O10 2.478355 1_555
Nd1 O7 2.481337 1_555
Nd1 O9 2.597090 1_565
I0 O4 1.820308 1_545
I0 O2 1.828192 1_555
I0 O0 1.855500 1_555
I1 O5 1.820308 1_665
I1 O3 1.828192 1_655
I1 O1 1.855500 1_555
I2 O8 1.828694 1_555
I2 O10 1.834519 1_556
I2 O6 1.835284 1_555
I3 O9 1.828694 1_555
I3 O11 1.834519 1_554
I3 O7 1.835284 1_555
I4 O16 1.828952 1_555
I4 O12 1.848202 1_555
I4 O14 1.849214 1_555
I4 O18 2.389511 1_455
I5 O17 1.828952 1_555
I5 O13 1.848202 1_555
I5 O15 1.849214 1_555
I5 O19 2.389511 1_555
