# generated using pymatgen
data_CeCoSi2Rh
_symmetry_space_group_name_H-M   'P 1'
_cell_length_a   5.75115577
_cell_length_b   5.75115577
_cell_length_c   5.75115577
_cell_angle_alpha   139.13898581
_cell_angle_beta   139.13898581
_cell_angle_gamma   59.16299001
_symmetry_Int_Tables_number   1
_chemical_formula_structural   CeCoSi2Rh
_chemical_formula_sum   'Ce1 Co1 Si2 Rh1'
_cell_volume   80.63057569
_cell_formula_units_Z   1
loop_
 _symmetry_equiv_pos_site_id
 _symmetry_equiv_pos_as_xyz
  1  'x, y, z'
loop_
 _atom_site_type_symbol
 _atom_site_label
 _atom_site_symmetry_multiplicity
 _atom_site_fract_x
 _atom_site_fract_y
 _atom_site_fract_z
 _atom_site_occupancy
  Ce  Ce0  1  0.00000000  0.00000000  0.00000000  1
  Co  Co0  1  0.25000000  0.75000000  0.50000000  1
  Si  Si0  1  0.62470700  0.62470700  0.00000000  1
  Si  Si1  1  0.37529300  0.37529300  0.00000000  1
  Rh  Rh0  1  0.75000000  0.25000000  0.50000000  1
loop_
_geom_bond_atom_site_label_1
_geom_bond_atom_site_label_2
_geom_bond_distance
_geom_bond_site_symmetry_2
Ce0 Si0 3.101087 1_444
Ce0 Si1 3.101087 1_455
Ce0 Si0 3.101087 1_545
Ce0 Si1 3.101087 1_545
Ce0 Si1 3.101087 1_556
Ce0 Si0 3.101087 1_455
Ce0 Si0 3.101087 1_556
Ce0 Si1 3.101087 1_444
Ce0 Rh0 3.206883 1_455
Ce0 Co0 3.206883 1_545
Ce0 Co0 3.206883 1_555
Ce0 Rh0 3.206883 1_444
Ce0 Co0 3.206883 1_444
Ce0 Rh0 3.206883 1_454
Ce0 Rh0 3.206883 1_555
Ce0 Co0 3.206883 1_544
Co0 Si0 2.366663 1_556
Co0 Si1 2.366663 1_555
Co0 Si0 2.366663 1_455
Co0 Si1 2.366663 1_566
Co0 Rh0 2.839121 1_465
Co0 Rh0 2.839121 1_566
Co0 Rh0 2.839121 1_555
Co0 Rh0 2.839121 1_454
Si0 Si1 2.494897 1_555
Rh0 Si0 2.366663 1_545
Rh0 Si0 2.366663 1_556
Rh0 Si1 2.366663 1_555
Rh0 Si1 2.366663 1_656
