# generated using pymatgen
data_Te3MoWS
_symmetry_space_group_name_H-M   'P 1'
_cell_length_a   3.45911348
_cell_length_b   3.45911348
_cell_length_c   39.32433300
_cell_angle_alpha   90.00000000
_cell_angle_beta   90.00000000
_cell_angle_gamma   119.99999009
_symmetry_Int_Tables_number   1
_chemical_formula_structural   Te3MoWS
_chemical_formula_sum   'Te6 Mo2 W2 S2'
_cell_volume   407.49441431
_cell_formula_units_Z   2
loop_
 _symmetry_equiv_pos_site_id
 _symmetry_equiv_pos_as_xyz
  1  'x, y, z'
loop_
 _atom_site_type_symbol
 _atom_site_label
 _atom_site_symmetry_multiplicity
 _atom_site_fract_x
 _atom_site_fract_y
 _atom_site_fract_z
 _atom_site_occupancy
  Te  Te0  1  0.00000000  0.00000000  0.70493300  1
  Te  Te1  1  0.33333300  0.66666700  0.04698000  1
  Te  Te2  1  0.33333300  0.66666700  0.42221600  1
  Te  Te3  1  0.33333300  0.66666700  0.14099300  1
  Te  Te4  1  0.33333300  0.66666700  0.51670700  1
  Te  Te5  1  0.00000000  0.00000000  0.61047500  1
  Mo  Mo0  1  0.00000000  0.00000000  0.09391300  1
  Mo  Mo1  1  0.33333300  0.66666700  0.28176800  1
  W  W0  1  0.00000000  0.00000000  0.46947300  1
  W  W1  1  0.33333300  0.66666700  0.65772900  1
  S  S0  1  0.00000000  0.00000000  0.31960800  1
  S  S1  1  0.00000000  0.00000000  0.24395400  1
loop_
_geom_bond_atom_site_label_1
_geom_bond_atom_site_label_2
_geom_bond_distance
_geom_bond_site_symmetry_2
Te0 W1 2.726574 1_545
Te0 W1 2.726576 1_555
Te0 W1 2.726576 1_445
Te2 W0 2.727993 1_565
Te2 W0 2.727995 1_665
Te2 W0 2.727995 1_555
Te4 W0 2.727377 1_565
Te4 W0 2.727379 1_555
Te4 W0 2.727379 1_665
Te5 W1 2.727912 1_545
Te5 W1 2.727915 1_555
Te5 W1 2.727915 1_445
Mo0 Te1 2.719329 1_545
Mo0 Te1 2.719332 1_555
Mo0 Te1 2.719332 1_445
Mo0 Te3 2.723256 1_545
Mo0 Te3 2.723259 1_445
Mo0 Te3 2.723259 1_555
Mo1 S1 2.489916 1_565
Mo1 S1 2.489918 1_555
Mo1 S1 2.489918 1_665
Mo1 S0 2.490526 1_565
Mo1 S0 2.490529 1_665
Mo1 S0 2.490529 1_555
