# generated using pymatgen
data_LaNi4(BiO4)3
_symmetry_space_group_name_H-M   'P 1'
_cell_length_a   5.45861305
_cell_length_b   5.71171194
_cell_length_c   7.89638010
_cell_angle_alpha   87.81431295
_cell_angle_beta   90.80404560
_cell_angle_gamma   88.72888472
_symmetry_Int_Tables_number   1
_chemical_formula_structural   LaNi4(BiO4)3
_chemical_formula_sum   'La1 Ni4 Bi3 O12'
_cell_volume   245.92660833
_cell_formula_units_Z   1
loop_
 _symmetry_equiv_pos_site_id
 _symmetry_equiv_pos_as_xyz
  1  'x, y, z'
loop_
 _atom_site_type_symbol
 _atom_site_label
 _atom_site_symmetry_multiplicity
 _atom_site_fract_x
 _atom_site_fract_y
 _atom_site_fract_z
 _atom_site_occupancy
  La  La0  1  0.01753300  0.94260400  0.24488000  1
  Ni  Ni0  1  0.00057400  0.49906300  0.50260500  1
  Ni  Ni1  1  0.00442600  0.49892100  0.99896700  1
  Ni  Ni2  1  0.50141700  0.00084200  0.99861800  1
  Ni  Ni3  1  0.49742100  0.00282400  0.50254700  1
  Bi  Bi0  1  0.99188800  0.05991700  0.77529100  1
  Bi  Bi1  1  0.51743800  0.56420700  0.72711900  1
  Bi  Bi2  1  0.48972000  0.43969700  0.28167100  1
  O  O0  1  0.85927900  0.53511600  0.25155500  1
  O  O1  1  0.14747000  0.46644300  0.74686500  1
  O  O2  1  0.21100600  0.22725500  0.42000700  1
  O  O3  1  0.78623100  0.77740800  0.57870700  1
  O  O4  1  0.39336700  0.92457500  0.75677200  1
  O  O5  1  0.59220400  0.07591100  0.24364600  1
  O  O6  1  0.67013800  0.31706700  0.54381800  1
  O  O7  1  0.31675900  0.69574900  0.44836500  1
  O  O8  1  0.82415000  0.81976600  0.95872800  1
  O  O9  1  0.16912000  0.16609300  0.02312100  1
  O  O10  1  0.31923200  0.65974900  0.08526500  1
  O  O11  1  0.69062600  0.32679700  0.91145400  1
loop_
_geom_bond_atom_site_label_1
_geom_bond_atom_site_label_2
_geom_bond_distance
_geom_bond_site_symmetry_2
La0 O9 2.301630 1_565
La0 O2 2.424401 1_565
La0 O5 2.427042 1_465
La0 O0 2.499435 1_455
La0 O8 2.607496 1_454
La0 O7 2.624693 1_555
La0 O10 2.646951 1_555
La0 O3 3.064244 1_455
Ni0 O2 2.043086 1_555
Ni0 O3 2.065836 1_455
Ni0 O1 2.078553 1_555
Ni0 O0 2.118025 1_455
Ni0 O7 2.120002 1_555
Ni0 O6 2.124560 1_455
Ni1 O8 2.072307 1_455
Ni1 O10 2.084712 1_556
Ni1 O9 2.085703 1_556
Ni1 O11 2.114579 1_455
Ni1 O1 2.161555 1_555
Ni1 O0 2.171905 1_456
Ni2 O9 2.041153 1_556
Ni2 O5 2.053976 1_556
Ni2 O4 2.056175 1_545
Ni2 O8 2.057178 1_545
Ni2 O11 2.239223 1_555
Ni2 O10 2.292613 1_546
Ni3 O6 2.080308 1_555
Ni3 O3 2.080622 1_545
Ni3 O2 2.081128 1_555
Ni3 O7 2.086613 1_545
Ni3 O4 2.127693 1_545
Ni3 O5 2.143739 1_555
Bi0 O8 2.181594 1_545
Bi0 O9 2.279656 1_656
Bi0 O4 2.316069 1_645
Bi0 O1 2.493233 1_655
Bi0 O11 2.499475 1_555
Bi0 O3 2.548751 1_545
Bi1 O1 2.113476 1_555
Bi1 O11 2.145964 1_555
Bi1 O4 2.174751 1_555
Bi1 O6 2.218080 1_555
Bi1 O3 2.242264 1_555
Bi1 O7 2.525704 1_555
Bi2 O0 2.115504 1_555
Bi2 O10 2.147090 1_555
Bi2 O5 2.172846 1_555
Bi2 O7 2.209822 1_555
Bi2 O2 2.237783 1_555
Bi2 O6 2.355214 1_555
