# generated using pymatgen
data_K9Ta2VS12
_symmetry_space_group_name_H-M   'P 1'
_cell_length_a   9.33580500
_cell_length_b   14.42360111
_cell_length_c   21.82888093
_cell_angle_alpha   78.92062648
_cell_angle_beta   89.99009150
_cell_angle_gamma   89.99307220
_symmetry_Int_Tables_number   1
_chemical_formula_structural   K9Ta2VS12
_chemical_formula_sum   'K36 Ta8 V4 S48'
_cell_volume   2884.60356291
_cell_formula_units_Z   4
loop_
 _symmetry_equiv_pos_site_id
 _symmetry_equiv_pos_as_xyz
  1  'x, y, z'
loop_
 _atom_site_type_symbol
 _atom_site_label
 _atom_site_symmetry_multiplicity
 _atom_site_fract_x
 _atom_site_fract_y
 _atom_site_fract_z
 _atom_site_occupancy
  K  K0  1  0.63781700  0.69429100  0.44423900  1
  K  K1  1  0.63680900  0.36065600  0.11065400  1
  K  K2  1  0.63782600  0.02753500  0.77758300  1
  K  K3  1  0.13604700  0.80594100  0.55603600  1
  K  K4  1  0.13658100  0.47217000  0.22211300  1
  K  K5  1  0.13628700  0.13993600  0.88993400  1
  K  K6  1  0.36284100  0.97242800  0.22241600  1
  K  K7  1  0.36282200  0.63907400  0.88902300  1
  K  K8  1  0.36293800  0.30572700  0.55577800  1
  K  K9  1  0.86272600  0.86106500  0.11093600  1
  K  K10  1  0.86274300  0.52749400  0.77766500  1
  K  K11  1  0.86276800  0.19434200  0.44430000  1
  K  K12  1  0.55618000  0.96011800  0.41517000  1
  K  K13  1  0.55580100  0.62645100  0.08183200  1
  K  K14  1  0.55616900  0.29341700  0.74855400  1
  K  K15  1  0.05582600  0.20691200  0.25143200  1
  K  K16  1  0.05525600  0.87312900  0.91882500  1
  K  K17  1  0.05528200  0.53975600  0.58552200  1
  K  K18  1  0.44618700  0.43459200  0.38726700  1
  K  K19  1  0.44518800  0.10235500  0.05397900  1
  K  K20  1  0.44622500  0.76787000  0.72061200  1
  K  K21  1  0.94336300  0.73124300  0.27851000  1
  K  K22  1  0.94513500  0.39764800  0.94601400  1
  K  K23  1  0.94334400  0.06456700  0.61187400  1
  K  K24  1  0.44615400  0.70484700  0.25213100  1
  K  K25  1  0.44516800  0.37122300  0.91958300  1
  K  K26  1  0.44617400  0.03815700  0.58550200  1
  K  K27  1  0.94331200  0.46095900  0.41365800  1
  K  K28  1  0.94510900  0.12879000  0.08040000  1
  K  K29  1  0.94332900  0.79424800  0.74701800  1
  K  K30  1  0.55576400  0.23362700  0.27825500  1
  K  K31  1  0.55617800  0.90028600  0.94513500  1
  K  K32  1  0.55613300  0.56684900  0.61182900  1
  K  K33  1  0.05522800  0.93406400  0.38832700  1
  K  K34  1  0.05583300  0.59963600  0.05506600  1
  K  K35  1  0.05520200  0.26739600  0.72169000  1
  Ta  Ta0  1  0.21573800  0.99549600  0.74550900  1
  Ta  Ta1  1  0.21574100  0.66217100  0.41215100  1
  Ta  Ta2  1  0.28413100  0.82874500  0.07875200  1
  Ta  Ta3  1  0.28412500  0.49539400  0.74545800  1
  Ta  Ta4  1  0.28410400  0.16214800  0.41204900  1
  Ta  Ta5  1  0.78427100  0.67119200  0.92128800  1
  Ta  Ta6  1  0.78440500  0.33788300  0.58789400  1
  Ta  Ta7  1  0.78427800  0.00465700  0.25455400  1
  V  V0  1  0.71497500  0.17139700  0.92142400  1
  V  V1  1  0.71484800  0.83812200  0.58812800  1
  V  V2  1  0.71495800  0.50472800  0.25473100  1
  V  V3  1  0.21503700  0.32861600  0.07860000  1
  S  S0  1  0.82803100  0.92601800  0.51218600  1
  S  S1  1  0.82803700  0.59258100  0.17879000  1
  S  S2  1  0.82816500  0.25932700  0.84549300  1
  S  S3  1  0.33415900  0.56884700  0.49224800  1
  S  S4  1  0.32815100  0.24076100  0.15456900  1
  S  S5  1  0.33416200  0.90216000  0.82558800  1
  S  S6  1  0.16537100  0.96664900  0.04292200  1
  S  S7  1  0.16525900  0.63327700  0.70965700  1
  S  S8  1  0.16531500  0.29998200  0.37635300  1
  S  S9  1  0.66603000  0.86674200  0.29016700  1
  S  S10  1  0.66535700  0.53333600  0.95704400  1
  S  S11  1  0.66602800  0.20000200  0.62348500  1
  S  S12  1  0.16531400  0.73518300  0.15875500  1
  S  S13  1  0.16532600  0.40170800  0.82545900  1
  S  S14  1  0.16533300  0.06847100  0.49204700  1
  S  S15  1  0.66537500  0.09823100  0.17455700  1
  S  S16  1  0.66606900  0.76462500  0.84120600  1
  S  S17  1  0.66601400  0.43130100  0.50782300  1
  S  S18  1  0.82801700  0.70758400  0.62140600  1
  S  S19  1  0.82802800  0.37419600  0.28799300  1
  S  S20  1  0.82818800  0.04085800  0.95472800  1
  S  S21  1  0.33415000  0.80009400  0.37662500  1
  S  S22  1  0.32815900  0.45917300  0.04536600  1
  S  S23  1  0.33416600  0.13337300  0.70995500  1
  S  S24  1  0.50249700  0.80700100  0.55697300  1
  S  S25  1  0.50260400  0.47362600  0.22360200  1
  S  S26  1  0.50232100  0.14032900  0.89034900  1
  S  S27  1  0.99133300  0.69467500  0.44468800  1
  S  S28  1  0.00233300  0.35968800  0.10968600  1
  S  S29  1  0.99138500  0.02802400  0.77803600  1
  S  S30  1  0.50819600  0.86125900  0.11133800  1
  S  S31  1  0.50822000  0.52800200  0.77796000  1
  S  S32  1  0.50821000  0.19463800  0.44463300  1
  S  S33  1  0.00832300  0.97201700  0.22204100  1
  S  S34  1  0.00832000  0.63871300  0.88867700  1
  S  S35  1  0.00848400  0.30535900  0.55533700  1
  S  S36  1  0.69487400  0.58106800  0.33105700  1
  S  S37  1  0.69522500  0.24772700  0.99774500  1
  S  S38  1  0.69484300  0.91444900  0.66445900  1
  S  S39  1  0.19399500  0.58181000  0.33180800  1
  S  S40  1  0.19523100  0.25231700  0.00231800  1
  S  S41  1  0.19399300  0.91512700  0.66514200  1
  S  S42  1  0.30648700  0.08197300  0.33161700  1
  S  S43  1  0.30650100  0.74817200  0.99851900  1
  S  S44  1  0.30644600  0.41512600  0.66513700  1
  S  S45  1  0.80654500  0.08505200  0.33500600  1
  S  S46  1  0.80654800  0.75165900  0.00169900  1
  S  S47  1  0.80652700  0.41836200  0.66834900  1
loop_
_geom_bond_atom_site_label_1
_geom_bond_atom_site_label_2
_geom_bond_distance
_geom_bond_site_symmetry_2
K0 S36 3.256499 1_555
K0 S27 3.300381 1_555
K0 S21 3.417466 1_555
K0 S3 3.417614 1_555
K0 S24 3.439571 1_555
K1 S37 3.250762 1_554
K1 S22 3.402260 1_555
K1 S4 3.402359 1_555
K1 S28 3.412566 1_655
K1 S25 3.441824 1_555
K2 S38 3.254077 1_545
K2 S29 3.300787 1_555
K2 S5 3.417174 1_545
K2 S23 3.417701 1_555
K2 S26 3.441507 1_555
K3 S41 3.144415 1_555
K3 S18 3.397061 1_455
K3 S0 3.398144 1_455
K3 S24 3.421224 1_555
K3 S27 3.436498 1_455
K4 S39 3.158778 1_555
K4 S1 3.402421 1_455
K4 S19 3.403138 1_455
K4 S25 3.417385 1_555
K4 S28 3.428947 1_555
K5 S40 3.236903 1_556
K5 S20 3.396887 1_455
K5 S2 3.396894 1_455
K5 S26 3.417244 1_555
K5 S29 3.452381 1_455
K6 S42 3.146811 1_565
K6 S33 3.309731 1_555
K6 S15 3.410691 1_565
K6 S9 3.414189 1_555
K6 S30 3.432835 1_555
K7 S43 3.148093 1_555
K7 S34 3.309578 1_555
K7 S10 3.411457 1_555
K7 S16 3.414303 1_555
K7 S31 3.431890 1_555
K8 S44 3.148609 1_555
K8 S35 3.309137 1_555
K8 S11 3.413294 1_555
K8 S17 3.413751 1_555
K8 S32 3.432998 1_555
K9 S46 3.146111 1_555
K9 S30 3.309835 1_555
K9 S6 3.411327 1_655
K9 S12 3.411406 1_655
K9 S33 3.432798 1_655
K10 S47 3.145088 1_555
K10 S31 3.309773 1_555
K10 S13 3.410601 1_655
K10 S7 3.411327 1_655
K10 S34 3.433428 1_655
K11 S45 3.146162 1_555
K11 S32 3.310095 1_555
K11 S8 3.410352 1_655
K11 S14 3.410833 1_655
K11 S35 3.432621 1_655
K12 S45 3.249651 1_565
K12 S42 3.258529 1_565
K12 S0 3.281644 1_555
K12 S21 3.328686 1_555
K12 S9 3.423809 1_555
K12 S24 3.475986 1_555
K12 S32 3.590543 1_565
K13 S43 3.252681 1_554
K13 S46 3.253709 1_555
K13 S1 3.283561 1_555
K13 S10 3.416835 1_554
K13 S22 3.422213 1_555
K13 S25 3.472827 1_555
K13 S30 3.594515 1_555
K14 S47 3.250062 1_555
K14 S44 3.256467 1_555
K14 S2 3.281652 1_555
K14 S23 3.329199 1_555
K14 S11 3.425399 1_555
K14 S26 3.475880 1_555
K14 S31 3.590986 1_555
K15 S42 3.251992 1_555
K15 S45 3.255872 1_455
K15 S4 3.282445 1_555
K15 S8 3.419207 1_555
K15 S19 3.423413 1_455
K15 S28 3.472570 1_555
K15 S33 3.594848 1_545
K16 S46 3.242656 1_456
K16 S43 3.251426 1_555
K16 S5 3.281515 1_555
K16 S6 3.408832 1_556
K16 S20 3.418733 1_465
K16 S29 3.486162 1_465
K16 S34 3.593430 1_555
K17 S47 3.242029 1_455
K17 S44 3.248014 1_555
K17 S3 3.281789 1_555
K17 S7 3.409174 1_555
K17 S18 3.420795 1_455
K17 S27 3.487195 1_455
K17 S35 3.593300 1_555
K18 S36 3.219196 1_555
K18 S39 3.244922 1_555
K18 S8 3.298697 1_555
K18 S17 3.330645 1_555
K18 S3 3.435021 1_555
K18 S32 3.495133 1_555
K18 S25 3.547448 1_555
K19 S37 3.219199 1_554
K19 S40 3.233869 1_555
K19 S6 3.301027 1_545
K19 S15 3.331464 1_555
K19 S4 3.418168 1_555
K19 S30 3.511818 1_545
K19 S26 3.548264 1_554
K20 S38 3.219282 1_555
K20 S41 3.245580 1_555
K20 S7 3.299413 1_555
K20 S16 3.331488 1_555
K20 S5 3.435385 1_555
K20 S31 3.493881 1_555
K20 S24 3.546645 1_555
K21 S36 3.230264 1_555
K21 S39 3.241916 1_655
K21 S9 3.282929 1_555
K21 S12 3.327381 1_655
K21 S1 3.401785 1_555
K21 S33 3.507526 1_655
K21 S27 3.592008 1_555
K22 S40 3.219589 1_656
K22 S37 3.233629 1_555
K22 S10 3.300030 1_555
K22 S13 3.330663 1_655
K22 S2 3.416361 1_555
K22 S34 3.511672 1_655
K22 S28 3.549425 1_656
K23 S38 3.230037 1_545
K23 S41 3.241940 1_645
K23 S11 3.282049 1_555
K23 S14 3.328901 1_655
K23 S0 3.400062 1_545
K23 S35 3.508296 1_655
K23 S29 3.591765 1_555
K24 S36 3.219564 1_555
K24 S39 3.244919 1_555
K24 S12 3.298345 1_555
K24 S9 3.332066 1_555
K24 S21 3.435030 1_555
K24 S30 3.493638 1_555
K24 S25 3.547640 1_555
K25 S37 3.219640 1_555
K25 S40 3.233687 1_556
K25 S13 3.300695 1_555
K25 S10 3.331426 1_555
K25 S22 3.417411 1_556
K25 S31 3.511427 1_555
K25 S26 3.549540 1_555
K26 S38 3.219048 1_545
K26 S41 3.244675 1_545
K26 S14 3.299370 1_555
K26 S11 3.330955 1_555
K26 S23 3.434018 1_555
K26 S32 3.495357 1_555
K26 S24 3.546551 1_545
K27 S36 3.229822 1_555
K27 S39 3.241973 1_655
K27 S17 3.281845 1_555
K27 S8 3.327869 1_655
K27 S19 3.401456 1_555
K27 S35 3.507781 1_655
K27 S27 3.591888 1_555
K28 S40 3.219427 1_655
K28 S37 3.232873 1_554
K28 S15 3.299863 1_555
K28 S6 3.331766 1_645
K28 S20 3.415294 1_554
K28 S33 3.512025 1_645
K28 S28 3.550259 1_655
K29 S38 3.230296 1_555
K29 S41 3.242274 1_655
K29 S16 3.281862 1_555
K29 S7 3.327844 1_655
K29 S18 3.399777 1_555
K29 S34 3.506716 1_655
K29 S29 3.592676 1_565
K30 S42 3.252449 1_555
K30 S45 3.253910 1_555
K30 S19 3.283874 1_555
K30 S15 3.417985 1_555
K30 S4 3.422099 1_555
K30 S25 3.473494 1_555
K30 S32 3.594186 1_555
K31 S46 3.250553 1_556
K31 S43 3.259239 1_555
K31 S20 3.281487 1_565
K31 S5 3.328881 1_555
K31 S16 3.425330 1_555
K31 S26 3.475462 1_565
K31 S30 3.590917 1_556
K32 S47 3.249288 1_555
K32 S44 3.255521 1_555
K32 S18 3.281995 1_555
K32 S3 3.328963 1_555
K32 S17 3.425462 1_555
K32 S24 3.476860 1_555
K32 S31 3.589394 1_555
K33 S45 3.242391 1_465
K33 S42 3.251349 1_565
K33 S21 3.281467 1_555
K33 S14 3.410170 1_565
K33 S0 3.420510 1_455
K33 S27 3.487005 1_455
K33 S33 3.592205 1_555
K34 S43 3.251757 1_554
K34 S46 3.255653 1_455
K34 S22 3.282771 1_555
K34 S12 3.419368 1_555
K34 S1 3.423384 1_455
K34 S28 3.473216 1_555
K34 S34 3.594465 1_554
K35 S47 3.242247 1_455
K35 S44 3.248872 1_555
K35 S23 3.282377 1_555
K35 S13 3.410097 1_555
K35 S2 3.418586 1_455
K35 S29 3.486601 1_455
K35 S35 3.593421 1_555
S0 V1 2.159589 1_555
S1 V2 2.158827 1_555
S2 V0 2.159679 1_555
S3 Ta1 2.277468 1_555
S4 V3 2.159531 1_555
S5 Ta0 2.277315 1_555
S6 Ta2 2.280185 1_555
S7 Ta3 2.280311 1_555
S8 Ta4 2.278991 1_555
S9 Ta7 2.277269 1_565
S10 Ta5 2.280146 1_555
S11 Ta6 2.277373 1_555
S12 Ta2 2.279327 1_555
S13 Ta3 2.280013 1_555
S14 Ta4 2.279786 1_555
S15 Ta7 2.279845 1_555
S16 Ta5 2.276973 1_555
S17 Ta6 2.277576 1_555
S18 V1 2.159418 1_555
S19 V2 2.158838 1_555
S20 V0 2.159727 1_555
S21 Ta1 2.277762 1_555
S22 V3 2.159363 1_555
S23 Ta0 2.277418 1_545
S24 V1 2.170757 1_555
S25 V2 2.170509 1_555
S26 V0 2.172521 1_555
S27 Ta1 2.289240 1_655
S28 V3 2.172734 1_555
S29 Ta0 2.288785 1_645
S30 Ta2 2.287051 1_555
S31 Ta3 2.287025 1_555
S32 Ta4 2.287295 1_555
S33 Ta7 2.286476 1_465
S34 Ta5 2.286644 1_455
S35 Ta6 2.286659 1_455
S36 V2 2.174495 1_555
S37 V0 2.174040 1_555
S38 V1 2.174403 1_555
S39 Ta1 2.289540 1_555
S40 V3 2.173129 1_555
S41 Ta0 2.290066 1_555
S42 Ta4 2.289921 1_555
S43 Ta2 2.289912 1_556
S44 Ta3 2.288651 1_555
S45 Ta7 2.292351 1_555
S46 Ta5 2.292266 1_554
S47 Ta6 2.293077 1_555
