# generated using pymatgen
data_Ca5Cr3ClO12
_symmetry_space_group_name_H-M   'P 1'
_cell_length_a   10.21306634
_cell_length_b   10.21306634
_cell_length_c   6.78206700
_cell_angle_alpha   90.00000000
_cell_angle_beta   90.00000000
_cell_angle_gamma   120.00000221
_symmetry_Int_Tables_number   1
_chemical_formula_structural   Ca5Cr3ClO12
_chemical_formula_sum   'Ca10 Cr6 Cl2 O24'
_cell_volume   612.63951303
_cell_formula_units_Z   2
loop_
 _symmetry_equiv_pos_site_id
 _symmetry_equiv_pos_as_xyz
  1  'x, y, z'
loop_
 _atom_site_type_symbol
 _atom_site_label
 _atom_site_symmetry_multiplicity
 _atom_site_fract_x
 _atom_site_fract_y
 _atom_site_fract_z
 _atom_site_occupancy
  Ca  Ca0  1  0.66666700  0.33333300  0.50265000  1
  Ca  Ca1  1  0.33333300  0.66666700  0.00265000  1
  Ca  Ca2  1  0.33333300  0.66666700  0.49735000  1
  Ca  Ca3  1  0.66666700  0.33333300  0.99735000  1
  Ca  Ca4  1  0.03005300  0.26652400  0.75000000  1
  Ca  Ca5  1  0.73347600  0.76352800  0.75000000  1
  Ca  Ca6  1  0.23647200  0.96994700  0.75000000  1
  Ca  Ca7  1  0.96994700  0.73347600  0.25000000  1
  Ca  Ca8  1  0.26652400  0.23647200  0.25000000  1
  Ca  Ca9  1  0.76352800  0.03005300  0.25000000  1
  Cr  Cr0  1  0.38296000  0.41240600  0.75000000  1
  Cr  Cr1  1  0.58759400  0.97055400  0.75000000  1
  Cr  Cr2  1  0.02944600  0.61704000  0.75000000  1
  Cr  Cr3  1  0.61704000  0.58759400  0.25000000  1
  Cr  Cr4  1  0.41240600  0.02944600  0.25000000  1
  Cr  Cr5  1  0.97055400  0.38296000  0.25000000  1
  Cl  Cl0  1  0.00000000  0.00000000  0.50000000  1
  Cl  Cl1  1  0.00000000  0.00000000  0.00000000  1
  O  O0  1  0.50304400  0.34185300  0.75000000  1
  O  O1  1  0.65814700  0.16119100  0.75000000  1
  O  O2  1  0.83880900  0.49695600  0.75000000  1
  O  O3  1  0.49695600  0.65814700  0.25000000  1
  O  O4  1  0.34185300  0.83880900  0.25000000  1
  O  O5  1  0.16119100  0.50304400  0.25000000  1
  O  O6  1  0.46627100  0.60867300  0.75000000  1
  O  O7  1  0.39132700  0.85759900  0.75000000  1
  O  O8  1  0.14240100  0.53372900  0.75000000  1
  O  O9  1  0.53372900  0.39132700  0.25000000  1
  O  O10  1  0.60867300  0.14240100  0.25000000  1
  O  O11  1  0.85759900  0.46627100  0.25000000  1
  O  O12  1  0.26217200  0.34961500  0.54969600  1
  O  O13  1  0.65038500  0.91255800  0.54969600  1
  O  O14  1  0.08744200  0.73782800  0.54969600  1
  O  O15  1  0.73782800  0.65038500  0.04969600  1
  O  O16  1  0.34961500  0.08744200  0.04969600  1
  O  O17  1  0.91255800  0.26217200  0.04969600  1
  O  O18  1  0.73782800  0.65038500  0.45030400  1
  O  O19  1  0.34961500  0.08744200  0.45030400  1
  O  O20  1  0.91255800  0.26217200  0.45030400  1
  O  O21  1  0.26217200  0.34961500  0.95030400  1
  O  O22  1  0.65038500  0.91255800  0.95030400  1
  O  O23  1  0.08744200  0.73782800  0.95030400  1
loop_
_geom_bond_atom_site_label_1
_geom_bond_atom_site_label_2
_geom_bond_distance
_geom_bond_site_symmetry_2
Ca0 O1 2.399928 1_555
Ca0 O2 2.399931 1_555
Ca0 O0 2.399935 1_555
Ca0 O11 2.436060 1_555
Ca0 O10 2.436060 1_555
Ca0 O9 2.436060 1_555
Ca1 O4 2.399928 1_555
Ca1 O5 2.399931 1_555
Ca1 O3 2.399935 1_555
Ca1 O8 2.436060 1_554
Ca1 O7 2.436060 1_554
Ca1 O6 2.436060 1_554
Ca2 O4 2.399928 1_555
Ca2 O5 2.399931 1_555
Ca2 O3 2.399935 1_555
Ca2 O8 2.436060 1_555
Ca2 O7 2.436060 1_555
Ca2 O6 2.436060 1_555
Ca3 O1 2.399928 1_555
Ca3 O2 2.399931 1_555
Ca3 O0 2.399935 1_555
Ca3 O11 2.436060 1_556
Ca3 O10 2.436060 1_556
Ca3 O9 2.436060 1_556
Ca4 O17 2.349446 1_456
Ca4 O20 2.349446 1_455
Ca4 O8 2.373316 1_555
Ca4 O12 2.484714 1_555
Ca4 O21 2.484714 1_555
Ca4 Cl1 3.089164 1_556
Ca4 Cl0 3.089164 1_555
Ca5 O18 2.349446 1_555
Ca5 O15 2.349446 1_556
Ca5 O6 2.373314 1_555
Ca5 O13 2.484730 1_555
Ca5 O22 2.484730 1_555
Ca5 Cl1 3.089168 1_666
Ca5 Cl0 3.089168 1_665
Ca6 O16 2.349446 1_566
Ca6 O19 2.349446 1_565
Ca6 O7 2.373298 1_555
Ca6 O14 2.484716 1_555
Ca6 O23 2.484716 1_555
Ca6 Cl1 3.089173 1_566
Ca6 Cl0 3.089173 1_565
Ca7 O23 2.349446 1_654
Ca7 O14 2.349446 1_655
Ca7 O11 2.373316 1_555
Ca7 O18 2.484714 1_555
Ca7 O15 2.484714 1_555
Ca7 Cl0 3.089164 1_665
Ca7 Cl1 3.089164 1_665
Ca8 O21 2.349446 1_554
Ca8 O12 2.349446 1_555
Ca8 O9 2.373314 1_555
Ca8 O19 2.484730 1_555
Ca8 O16 2.484730 1_555
Ca8 Cl0 3.089168 1_555
Ca8 Cl1 3.089168 1_555
Ca9 O22 2.349446 1_544
Ca9 O13 2.349446 1_545
Ca9 O10 2.373298 1_555
Ca9 O17 2.484716 1_555
Ca9 O20 2.484716 1_555
Ca9 Cl1 3.089173 1_655
Ca9 Cl0 3.089173 1_655
Cr0 O0 1.705006 1_555
Cr0 O21 1.728413 1_555
Cr0 O12 1.728413 1_555
Cr0 O6 1.742526 1_555
Cr1 O1 1.705006 1_565
Cr1 O13 1.728407 1_555
Cr1 O22 1.728407 1_555
Cr1 O7 1.742525 1_555
Cr2 O2 1.705006 1_455
Cr2 O14 1.728413 1_555
Cr2 O23 1.728413 1_555
Cr2 O8 1.742516 1_555
Cr3 O3 1.705006 1_555
Cr3 O18 1.728413 1_555
Cr3 O15 1.728413 1_555
Cr3 O9 1.742526 1_555
Cr4 O4 1.705006 1_545
Cr4 O19 1.728407 1_555
Cr4 O16 1.728407 1_555
Cr4 O10 1.742525 1_555
Cr5 O5 1.705006 1_655
Cr5 O20 1.728413 1_555
Cr5 O17 1.728413 1_555
Cr5 O11 1.742516 1_555
