# generated using pymatgen
data_Rb2MgNb2(TeO6)2
_symmetry_space_group_name_H-M   'P 1'
_cell_length_a   7.50262159
_cell_length_b   6.98777912
_cell_length_c   8.39571273
_cell_angle_alpha   90.00000000
_cell_angle_beta   61.74374466
_cell_angle_gamma   117.75483254
_symmetry_Int_Tables_number   1
_chemical_formula_structural   Rb2MgNb2(TeO6)2
_chemical_formula_sum   'Rb2 Mg1 Nb2 Te2 O12'
_cell_volume   329.09401005
_cell_formula_units_Z   1
loop_
 _symmetry_equiv_pos_site_id
 _symmetry_equiv_pos_as_xyz
  1  'x, y, z'
loop_
 _atom_site_type_symbol
 _atom_site_label
 _atom_site_symmetry_multiplicity
 _atom_site_fract_x
 _atom_site_fract_y
 _atom_site_fract_z
 _atom_site_occupancy
  Rb  Rb0  1  0.77675400  0.38837700  0.35507500  1
  Rb  Rb1  1  0.14973900  0.57486900  0.76001500  1
  Mg  Mg0  1  0.45562100  0.72781000  0.28540300  1
  Nb  Nb0  1  0.52535900  0.51466000  0.92827400  1
  Nb  Nb1  1  0.52535900  0.01069900  0.92827400  1
  Te  Te0  1  0.13716600  0.06858300  0.49804700  1
  Te  Te1  1  0.99112200  0.99556100  0.98620100  1
  O  O0  1  0.77499800  0.88749800  0.24922200  1
  O  O1  1  0.53900700  0.26950400  0.00995900  1
  O  O2  1  0.19078900  0.89308000  0.98820600  1
  O  O3  1  0.32609300  0.38763200  0.38562600  1
  O  O4  1  0.19078900  0.29770900  0.98820600  1
  O  O5  1  0.32609300  0.93846100  0.38562600  1
  O  O6  1  0.20692700  0.10346400  0.69872600  1
  O  O7  1  0.39213100  0.69606500  0.07095000  1
  O  O8  1  0.80442200  0.09955800  0.95758300  1
  O  O9  1  0.68267700  0.60607100  0.67703100  1
  O  O10  1  0.80442200  0.70486400  0.95758300  1
  O  O11  1  0.68267700  0.07660600  0.67703100  1
loop_
_geom_bond_atom_site_label_1
_geom_bond_atom_site_label_2
_geom_bond_distance
_geom_bond_site_symmetry_2
Mg0 O0 1.974727 1_555
Mg0 O7 2.057058 1_555
Mg0 O3 2.092176 1_555
Mg0 O5 2.092182 1_555
Nb0 O9 1.786347 1_555
Nb0 O1 1.909287 1_556
Nb0 O7 2.021705 1_556
Nb0 O10 2.026494 1_555
Nb0 O4 2.027847 1_555
Nb1 O11 1.786347 1_555
Nb1 O1 1.909293 1_556
Nb1 O7 2.021711 1_546
Nb1 O8 2.026494 1_555
Nb1 O2 2.027847 1_545
O0 Te1 1.882851 1_554
O2 Te1 1.944275 1_455
O2 Rb1 2.937758 1_555
O2 Rb0 3.508815 1_456
O3 Te0 1.913228 1_555
O3 Rb0 3.265024 1_555
O3 Rb1 3.319205 1_555
O4 Te1 1.944275 1_445
O4 Rb1 2.937753 1_555
O4 Rb0 3.508815 1_456
O5 Te0 1.913228 1_565
O5 Rb0 3.265024 1_565
O5 Rb1 3.319210 1_555
O6 Te0 1.971845 1_555
O6 Te1 2.044068 1_445
O6 Rb0 3.310433 1_555
O7 Rb0 3.457722 1_455
O8 Te1 1.953111 1_545
O8 Rb1 2.900283 1_655
O9 Rb0 3.051604 1_555
O10 Te1 1.953111 1_555
O10 Rb1 2.900288 1_655
O11 Rb0 3.051604 1_555
