# generated using pymatgen
data_Li9Mn2Co5O16
_symmetry_space_group_name_H-M   'P 1'
_cell_length_a   5.11333640
_cell_length_b   5.11333640
_cell_length_c   20.73705515
_cell_angle_alpha   81.79385688
_cell_angle_beta   81.79385688
_cell_angle_gamma   32.80278345
_symmetry_Int_Tables_number   1
_chemical_formula_structural   Li9Mn2Co5O16
_chemical_formula_sum   'Li9 Mn2 Co5 O16'
_cell_volume   290.46423657
_cell_formula_units_Z   1
loop_
 _symmetry_equiv_pos_site_id
 _symmetry_equiv_pos_as_xyz
  1  'x, y, z'
loop_
 _atom_site_type_symbol
 _atom_site_label
 _atom_site_symmetry_multiplicity
 _atom_site_fract_x
 _atom_site_fract_y
 _atom_site_fract_z
 _atom_site_occupancy
  Li  Li0  1  0.24692600  0.24692600  0.81863600  1
  Li  Li1  1  0.73567000  0.73567000  0.94522700  1
  Li  Li2  1  0.26433000  0.26433000  0.05477300  1
  Li  Li3  1  0.75307400  0.75307400  0.18136400  1
  Li  Li4  1  0.24892100  0.24892100  0.31258700  1
  Li  Li5  1  0.74988100  0.74988100  0.44107600  1
  Li  Li6  1  0.25011900  0.25011900  0.55892400  1
  Li  Li7  1  0.75107900  0.75107900  0.68741300  1
  Li  Li8  1  0.00000000  0.00000000  0.00000000  1
  Mn  Mn0  1  0.99909100  0.99909100  0.75116700  1
  Mn  Mn1  1  0.00090900  0.00090900  0.24883300  1
  Co  Co0  1  0.48828600  0.48828600  0.88690000  1
  Co  Co1  1  0.51171400  0.51171400  0.11310000  1
  Co  Co2  1  0.50018900  0.50018900  0.37558300  1
  Co  Co3  1  0.00000000  0.00000000  0.50000000  1
  Co  Co4  1  0.49981100  0.49981100  0.62441700  1
  O  O0  1  0.38620000  0.38620000  0.72314200  1
  O  O1  1  0.89428600  0.89428600  0.83642600  1
  O  O2  1  0.37543200  0.37543200  0.96237100  1
  O  O3  1  0.88603800  0.88603800  0.09798100  1
  O  O4  1  0.38714900  0.38714900  0.22531400  1
  O  O5  1  0.89364900  0.89364900  0.34029800  1
  O  O6  1  0.38284900  0.38284900  0.47031100  1
  O  O7  1  0.88600300  0.88600300  0.59521000  1
  O  O8  1  0.11396200  0.11396200  0.90201900  1
  O  O9  1  0.62456800  0.62456800  0.03762900  1
  O  O10  1  0.10571400  0.10571400  0.16357400  1
  O  O11  1  0.61380000  0.61380000  0.27685800  1
  O  O12  1  0.11399700  0.11399700  0.40479000  1
  O  O13  1  0.61715100  0.61715100  0.52968900  1
  O  O14  1  0.10635100  0.10635100  0.65970200  1
  O  O15  1  0.61285100  0.61285100  0.77468600  1
loop_
_geom_bond_atom_site_label_1
_geom_bond_atom_site_label_2
_geom_bond_distance
_geom_bond_site_symmetry_2
Li0 O8 2.005050 1_555
Li0 O1 2.114101 1_545
Li0 O1 2.114101 1_455
Li0 O0 2.232306 1_555
Li0 O15 2.236547 1_455
Li0 O15 2.236547 1_545
Li1 O2 2.058180 1_655
Li1 O2 2.058180 1_565
Li1 O9 2.058674 1_556
Li1 O8 2.152094 1_565
Li1 O8 2.152094 1_655
Li1 O1 2.543066 1_555
Li2 O9 2.058180 1_545
Li2 O9 2.058180 1_455
Li2 O2 2.058674 1_554
Li2 O3 2.152094 1_455
Li2 O3 2.152094 1_545
Li2 O10 2.543066 1_555
Li3 O3 2.005050 1_555
Li3 O10 2.114101 1_565
Li3 O10 2.114101 1_655
Li3 O11 2.232306 1_555
Li3 O4 2.236547 1_655
Li3 O4 2.236547 1_565
Li4 O4 2.093793 1_555
Li4 O12 2.157496 1_555
Li4 O5 2.161861 1_455
Li4 O5 2.161861 1_545
Li4 O11 2.164046 1_455
Li4 O11 2.164046 1_545
Li5 O13 2.088114 1_555
Li5 O6 2.095039 1_655
Li5 O6 2.095039 1_565
Li5 O12 2.174046 1_655
Li5 O12 2.174046 1_565
Li5 O5 2.340859 1_555
Li6 O6 2.088114 1_555
Li6 O13 2.095039 1_455
Li6 O13 2.095039 1_545
Li6 O7 2.174046 1_545
Li6 O7 2.174046 1_455
Li6 O14 2.340859 1_555
Li7 O15 2.093793 1_555
Li7 O7 2.157496 1_555
Li7 O14 2.161861 1_655
Li7 O14 2.161861 1_565
Li7 O0 2.164046 1_655
Li7 O0 2.164046 1_565
Li8 O2 2.114419 1_544
Li8 O2 2.114419 1_454
Li8 O9 2.114419 1_545
Li8 O9 2.114419 1_455
Li8 O8 2.168490 1_554
Li8 O3 2.168490 1_445
Mn0 O1 1.908433 1_555
Mn0 O15 1.931329 1_655
Mn0 O15 1.931329 1_565
Mn0 O0 1.959722 1_565
Mn0 O0 1.959722 1_655
Mn0 O14 2.027531 1_665
Mn1 O10 1.908433 1_555
Mn1 O4 1.931329 1_545
Mn1 O4 1.931329 1_455
Mn1 O11 1.959722 1_455
Mn1 O11 1.959722 1_545
Mn1 O5 2.027531 1_445
Co0 O2 1.777508 1_555
Co0 O8 1.954001 1_565
Co0 O8 1.954001 1_655
Co0 O1 2.077942 1_455
Co0 O1 2.077942 1_545
Co0 O15 2.462123 1_555
Co1 O9 1.777508 1_555
Co1 O3 1.954001 1_545
Co1 O3 1.954001 1_455
Co1 O10 2.077942 1_655
Co1 O10 2.077942 1_565
Co1 O4 2.462123 1_555
Co2 O12 1.974666 1_565
Co2 O12 1.974666 1_655
Co2 O5 1.984965 1_455
Co2 O5 1.984965 1_545
Co2 O6 2.123923 1_555
Co2 O11 2.180496 1_555
Co3 O13 1.998789 1_545
Co3 O13 1.998789 1_455
Co3 O6 1.998789 1_545
Co3 O6 1.998789 1_455
Co3 O7 2.119393 1_445
Co3 O12 2.119393 1_555
Co4 O7 1.974666 1_545
Co4 O7 1.974666 1_455
Co4 O14 1.984965 1_655
Co4 O14 1.984965 1_565
Co4 O13 2.123923 1_555
Co4 O0 2.180496 1_555
