# generated using pymatgen
data_La4Rh
_symmetry_space_group_name_H-M   'P 1'
_cell_length_a   8.01692071
_cell_length_b   8.01692071
_cell_length_c   8.01692071
_cell_angle_alpha   60.00000000
_cell_angle_beta   60.00000000
_cell_angle_gamma   60.00000000
_symmetry_Int_Tables_number   1
_chemical_formula_structural   La4Rh
_chemical_formula_sum   'La8 Rh2'
_cell_volume   364.34076634
_cell_formula_units_Z   2
loop_
 _symmetry_equiv_pos_site_id
 _symmetry_equiv_pos_as_xyz
  1  'x, y, z'
loop_
 _atom_site_type_symbol
 _atom_site_label
 _atom_site_symmetry_multiplicity
 _atom_site_fract_x
 _atom_site_fract_y
 _atom_site_fract_z
 _atom_site_occupancy
  La  La0  1  0.61329000  0.61329000  0.61329000  1
  La  La1  1  0.16013000  0.61329000  0.61329000  1
  La  La2  1  0.61329000  0.16013000  0.61329000  1
  La  La3  1  0.58987000  0.13671000  0.13671000  1
  La  La4  1  0.13671000  0.13671000  0.13671000  1
  La  La5  1  0.61329000  0.61329000  0.16013000  1
  La  La6  1  0.13671000  0.58987000  0.13671000  1
  La  La7  1  0.13671000  0.13671000  0.58987000  1
  Rh  Rh0  1  0.00000000  0.00000000  0.00000000  1
  Rh  Rh1  1  0.75000000  0.75000000  0.75000000  1
loop_
_geom_bond_atom_site_label_1
_geom_bond_atom_site_label_2
_geom_bond_distance
_geom_bond_site_symmetry_2
La0 Rh1 2.684624 1_555
La1 Rh1 2.684624 1_455
La2 Rh1 2.684624 1_545
La3 Rh0 2.684624 1_655
La4 Rh0 2.684624 1_555
La5 Rh1 2.684624 1_554
La6 Rh0 2.684624 1_565
La7 Rh0 2.684624 1_556
