# generated using pymatgen
data_Cs2MnSO4F3
_symmetry_space_group_name_H-M   'P 1'
_cell_length_a   11.94097400
_cell_length_b   7.56489100
_cell_length_c   9.40642096
_cell_angle_alpha   87.44459790
_cell_angle_beta   90.00000000
_cell_angle_gamma   90.00000000
_symmetry_Int_Tables_number   1
_chemical_formula_structural   Cs2MnSO4F3
_chemical_formula_sum   'Cs8 Mn4 S4 O16 F12'
_cell_volume   848.85742315
_cell_formula_units_Z   4
loop_
 _symmetry_equiv_pos_site_id
 _symmetry_equiv_pos_as_xyz
  1  'x, y, z'
loop_
 _atom_site_type_symbol
 _atom_site_label
 _atom_site_symmetry_multiplicity
 _atom_site_fract_x
 _atom_site_fract_y
 _atom_site_fract_z
 _atom_site_occupancy
  Cs  Cs0  1  0.18777600  0.79141000  0.33054400  1
  Cs  Cs1  1  0.68777600  0.20859000  0.16945600  1
  Cs  Cs2  1  0.81222400  0.20859000  0.66945600  1
  Cs  Cs3  1  0.31222400  0.79141000  0.83054400  1
  Cs  Cs4  1  0.30963200  0.28828500  0.17525300  1
  Cs  Cs5  1  0.80963200  0.71171500  0.32474700  1
  Cs  Cs6  1  0.69036800  0.71171500  0.82474700  1
  Cs  Cs7  1  0.19036800  0.28828500  0.67525300  1
  Mn  Mn0  1  0.00000000  0.50000000  0.00000000  1
  Mn  Mn1  1  0.50000000  0.50000000  0.50000000  1
  Mn  Mn2  1  0.00000000  0.00000000  0.00000000  1
  Mn  Mn3  1  0.50000000  0.00000000  0.50000000  1
  S  S0  1  0.99799000  0.25420600  0.29059400  1
  S  S1  1  0.49799000  0.74579400  0.20940600  1
  S  S2  1  0.00201000  0.74579400  0.70940600  1
  S  S3  1  0.50201000  0.25420600  0.79059400  1
  O  O0  1  0.45317400  0.89218800  0.29575500  1
  O  O1  1  0.95317400  0.10781200  0.20424500  1
  O  O2  1  0.54682600  0.10781200  0.70424500  1
  O  O3  1  0.04682600  0.89218800  0.79575500  1
  O  O4  1  0.04710700  0.39897100  0.18834300  1
  O  O5  1  0.54710700  0.60102900  0.31165700  1
  O  O6  1  0.95289300  0.60102900  0.81165700  1
  O  O7  1  0.45289300  0.39897100  0.68834300  1
  O  O8  1  0.90617000  0.32916200  0.37276200  1
  O  O9  1  0.40617000  0.67083800  0.12723800  1
  O  O10  1  0.09383000  0.67083800  0.62723800  1
  O  O11  1  0.59383000  0.32916200  0.87276200  1
  O  O12  1  0.09257500  0.19172900  0.37975300  1
  O  O13  1  0.59257500  0.80827100  0.12024700  1
  O  O14  1  0.90742500  0.80827100  0.62024700  1
  O  O15  1  0.40742500  0.19172900  0.87975300  1
  F  F0  1  0.34736700  0.51793000  0.45330800  1
  F  F1  1  0.84736700  0.48207000  0.04669200  1
  F  F2  1  0.65263300  0.48207000  0.54669200  1
  F  F3  1  0.15263300  0.51793000  0.95330800  1
  F  F4  1  0.15276700  0.01955400  0.03759000  1
  F  F5  1  0.65276700  0.98044600  0.46241000  1
  F  F6  1  0.84723300  0.98044600  0.96241000  1
  F  F7  1  0.34723300  0.01955400  0.53759000  1
  F  F8  1  0.00154700  0.76261100  0.09110700  1
  F  F9  1  0.50154700  0.23738900  0.40889300  1
  F  F10  1  0.99845300  0.23738900  0.90889300  1
  F  F11  1  0.49845300  0.76261100  0.59110700  1
loop_
_geom_bond_atom_site_label_1
_geom_bond_atom_site_label_2
_geom_bond_distance
_geom_bond_site_symmetry_2
Cs0 F0 3.005357 1_555
Cs0 O10 3.106789 1_555
Cs0 F8 3.179452 1_555
Cs0 F4 3.212934 1_565
Cs0 F7 3.270610 1_565
Cs0 O0 3.272509 1_555
Cs0 O12 3.286727 1_565
Cs0 O9 3.383122 1_555
Cs0 O4 3.711911 1_555
Cs1 F1 3.005357 1_555
Cs1 O11 3.106789 1_554
Cs1 F9 3.179452 1_555
Cs1 F5 3.212934 1_545
Cs1 F6 3.270610 1_544
Cs1 O1 3.272509 1_555
Cs1 O13 3.286727 1_545
Cs1 O8 3.383122 1_555
Cs1 O5 3.711911 1_555
Cs2 F2 3.005357 1_555
Cs2 O8 3.106789 1_555
Cs2 F10 3.179452 1_555
Cs2 F6 3.212934 1_545
Cs2 F5 3.270610 1_545
Cs2 O2 3.272509 1_555
Cs2 O14 3.286727 1_545
Cs2 O11 3.383122 1_555
Cs2 O6 3.711911 1_555
Cs3 F3 3.005357 1_555
Cs3 O9 3.106789 1_556
Cs3 F11 3.179452 1_555
Cs3 F7 3.212934 1_565
Cs3 F4 3.270610 1_566
Cs3 O3 3.272509 1_555
Cs3 O15 3.286727 1_565
Cs3 O10 3.383122 1_555
Cs3 O7 3.711911 1_555
Cs4 F4 3.090776 1_555
Cs4 O9 3.129115 1_555
Cs4 O15 3.131193 1_554
Cs4 F9 3.186599 1_555
Cs4 F0 3.235283 1_555
Cs4 O4 3.248456 1_555
Cs4 F3 3.250799 1_554
Cs4 O12 3.290339 1_555
Cs4 O0 3.591440 1_545
Cs5 F5 3.090776 1_555
Cs5 O8 3.129115 1_555
Cs5 O14 3.131193 1_555
Cs5 F8 3.186599 1_655
Cs5 F1 3.235283 1_555
Cs5 O5 3.248456 1_555
Cs5 F2 3.250799 1_555
Cs5 O13 3.290339 1_555
Cs5 O1 3.591440 1_565
Cs6 F6 3.090776 1_555
Cs6 O11 3.129115 1_555
Cs6 O13 3.131193 1_556
Cs6 F11 3.186599 1_555
Cs6 F2 3.235283 1_555
Cs6 O6 3.248456 1_555
Cs6 F1 3.250799 1_556
Cs6 O14 3.290339 1_555
Cs6 O2 3.591440 1_565
Cs7 F7 3.090776 1_555
Cs7 O10 3.129115 1_555
Cs7 O12 3.131193 1_555
Cs7 F10 3.186599 1_455
Cs7 F3 3.235283 1_555
Cs7 O7 3.248456 1_555
Cs7 F0 3.250799 1_555
Cs7 O15 3.290339 1_555
Cs7 O3 3.591440 1_545
Mn0 O4 1.979513 1_555
Mn0 O6 1.979513 1_454
Mn1 O5 1.979513 1_555
Mn1 O7 1.979513 1_555
Mn2 O1 2.192855 1_455
Mn2 O3 2.192855 1_544
Mn3 O0 2.192855 1_545
Mn3 O2 2.192855 1_555
O0 S1 1.500924 1_555
O1 S0 1.500924 1_555
O2 S3 1.500924 1_555
O3 S2 1.500924 1_555
O4 S0 1.540930 1_455
O5 S1 1.540930 1_555
O6 S2 1.540930 1_655
O7 S3 1.540930 1_555
O8 S0 1.469738 1_555
O9 S1 1.469738 1_555
O10 S2 1.469738 1_555
O11 S3 1.469738 1_555
O12 S0 1.472082 1_455
O13 S1 1.472082 1_555
O14 S2 1.472082 1_655
O15 S3 1.472082 1_555
F0 Mn1 1.878246 1_555
F1 Mn0 1.878246 1_655
F2 Mn1 1.878246 1_555
F3 Mn0 1.878246 1_556
F4 Mn2 1.865269 1_555
F5 Mn3 1.865269 1_565
F6 Mn2 1.865269 1_666
F7 Mn3 1.865269 1_555
F8 Mn2 1.955126 1_565
F8 Mn0 2.198468 1_555
F9 Mn3 1.955126 1_555
F9 Mn1 2.198468 1_555
F10 Mn2 1.955126 1_656
F10 Mn0 2.198468 1_656
F11 Mn3 1.955126 1_565
F11 Mn1 2.198468 1_555
