# generated using pymatgen
data_Pr10Ni5O22
_symmetry_space_group_name_H-M   'P 1'
_cell_length_a   3.96116621
_cell_length_b   3.99144948
_cell_length_c   34.72745295
_cell_angle_alpha   106.52889127
_cell_angle_beta   106.68310869
_cell_angle_gamma   89.27492142
_symmetry_Int_Tables_number   1
_chemical_formula_structural   Pr10Ni5O22
_chemical_formula_sum   'Pr10 Ni5 O22'
_cell_volume   502.79625432
_cell_formula_units_Z   1
loop_
 _symmetry_equiv_pos_site_id
 _symmetry_equiv_pos_as_xyz
  1  'x, y, z'
loop_
 _atom_site_type_symbol
 _atom_site_label
 _atom_site_symmetry_multiplicity
 _atom_site_fract_x
 _atom_site_fract_y
 _atom_site_fract_z
 _atom_site_occupancy
  Pr  Pr0  1  0.41931700  0.46667400  0.95509300  1
  Pr  Pr1  1  0.32888400  0.30962300  0.74408800  1
  Pr  Pr2  1  0.64285300  0.60605400  0.85517700  1
  Pr  Pr3  1  0.35860300  0.31870900  0.54230400  1
  Pr  Pr4  1  0.67185700  0.66233200  0.65248300  1
  Pr  Pr5  1  0.41734300  0.35615100  0.34255300  1
  Pr  Pr6  1  0.65864700  0.65461200  0.44768600  1
  Pr  Pr7  1  0.41003700  0.34966300  0.15043800  1
  Pr  Pr8  1  0.67356900  0.59590900  0.25435200  1
  Pr  Pr9  1  0.65712900  0.65235100  0.06250400  1
  Ni  Ni0  1  0.96821200  0.95901300  0.79348900  1
  Ni  Ni1  1  0.01332600  0.01775300  0.60180000  1
  Ni  Ni2  1  0.03398300  0.96224400  0.39355500  1
  Ni  Ni3  1  0.06996800  0.96803800  0.20179100  1
  Ni  Ni4  1  0.03777100  0.04190300  0.00523000  1
  O  O0  1  0.02084100  0.49450300  0.80850200  1
  O  O1  1  0.04790000  0.52748000  0.60666700  1
  O  O2  1  0.46223200  0.92902100  0.79078600  1
  O  O3  1  0.03673000  0.46638100  0.39590000  1
  O  O4  1  0.19523700  0.02992100  0.46889300  1
  O  O5  1  0.87283900  0.77691200  0.94038600  1
  O  O6  1  0.92936100  0.17222300  0.88441300  1
  O  O7  1  0.55218200  0.18049400  0.88621500  1
  O  O8  1  0.49655900  0.97616300  0.59417900  1
  O  O9  1  0.04382700  0.47103000  0.20314500  1
  O  O10  1  0.07804000  0.20437100  0.67185300  1
  O  O11  1  0.79208400  0.92096700  0.72814800  1
  O  O12  1  0.54044000  0.99789200  0.39627200  1
  O  O13  1  0.03823500  0.57002300  0.01620200  1
  O  O14  1  0.78229000  0.53311000  0.51475600  1
  O  O15  1  0.84505100  0.91985700  0.53245200  1
  O  O16  1  0.57907700  0.97722600  0.20536000  1
  O  O17  1  0.28516400  0.12316900  0.27232900  1
  O  O18  1  0.88963300  0.73121300  0.32715700  1
  O  O19  1  0.52814600  0.06703700  0.00241700  1
  O  O20  1  0.99911600  0.81621100  0.13409400  1
  O  O21  1  0.39551400  0.20576700  0.08213200  1
loop_
_geom_bond_atom_site_label_1
_geom_bond_atom_site_label_2
_geom_bond_distance
_geom_bond_site_symmetry_2
Ni0 O2 1.982902 1_555
Ni0 O2 1.986385 1_655
Ni0 O0 2.049021 1_665
Ni0 O0 2.056861 1_655
Ni0 O11 2.134574 1_555
Ni1 O8 1.990065 1_445
Ni1 O1 1.996199 1_555
Ni1 O8 2.004859 1_545
Ni1 O1 2.011195 1_545
Ni1 O15 2.224022 1_445
Ni1 O10 2.270369 1_555
Ni2 O12 1.985555 1_455
Ni2 O12 1.986135 1_555
Ni2 O3 1.990642 1_565
Ni2 O3 2.003668 1_555
Ni2 O18 2.130879 1_455
Ni2 O4 2.443094 1_565
Ni3 O16 1.982870 1_455
Ni3 O16 1.984797 1_555
Ni3 O9 1.996868 1_565
Ni3 O9 2.002348 1_555
Ni3 O20 2.188099 1_455
Ni3 O17 2.249891 1_565
Ni4 O19 1.977929 1_555
Ni4 O19 1.995500 1_455
Ni4 O13 2.024985 1_545
Ni4 O13 2.032579 1_555
Ni4 O5 2.105711 1_444
Ni4 O21 2.534711 1_555
O0 Pr2 2.456282 1_455
O0 Pr2 2.494080 1_555
O0 Pr1 2.764502 1_555
O0 Pr1 2.941575 1_455
O1 Pr4 2.427596 1_455
O1 Pr4 2.493700 1_555
O1 Pr3 2.774669 1_555
O1 Pr3 2.939267 1_455
O2 Pr1 2.471116 1_565
O2 Pr1 2.506213 1_555
O2 Pr2 2.805756 1_555
O2 Pr2 2.916653 1_565
O3 Pr5 2.568880 1_455
O3 Pr6 2.569421 1_555
O3 Pr6 2.605913 1_455
O3 Pr5 2.649888 1_555
O4 Pr3 2.376207 1_555
O4 Pr6 2.420410 1_445
O4 Pr6 2.496980 1_545
O5 Pr0 2.442238 1_555
O5 Pr0 2.477369 1_655
O5 Pr2 2.714947 1_555
O6 O7 1.512781 1_555
O6 Pr2 2.350215 1_545
O6 Pr2 2.367774 1_555
O6 Pr0 2.617994 1_655
O7 Pr2 2.311530 1_545
O7 Pr2 2.335707 1_555
O7 Pr0 2.540899 1_555
O8 Pr3 2.496141 1_565
O8 Pr4 2.600918 1_555
O8 Pr3 2.685430 1_555
O8 Pr4 2.858046 1_565
O9 Pr8 2.556649 1_455
O9 Pr8 2.571680 1_555
O9 Pr7 2.586781 1_555
O9 Pr7 2.603012 1_455
O10 Pr1 2.331600 1_555
O10 Pr4 2.522036 1_445
O10 Pr4 2.527122 1_455
O10 Pr4 3.258492 1_545
O10 Pr4 3.323193 1_555
O11 Pr4 2.438760 1_555
O11 Pr1 2.470221 1_565
O11 Pr1 2.480604 1_665
O12 Pr6 2.486031 1_555
O12 Pr5 2.596290 1_565
O12 Pr5 2.658850 1_555
O12 Pr6 2.676982 1_565
O13 Pr9 2.460275 1_455
O13 Pr9 2.481932 1_555
O13 Pr0 2.687850 1_454
O13 Pr0 2.877121 1_554
O14 O15 1.484799 1_555
O14 Pr6 2.425251 1_555
O14 Pr3 2.426577 1_555
O14 Pr3 2.453879 1_655
O15 Pr3 2.482374 1_665
O15 Pr3 2.520996 1_565
O15 Pr6 2.707397 1_555
O16 Pr8 2.529832 1_565
O16 Pr8 2.538626 1_555
O16 Pr7 2.636544 1_555
O16 Pr7 2.674109 1_565
O17 Pr5 2.252774 1_555
O17 Pr8 2.628278 1_545
O17 Pr8 2.759081 1_555
O17 Pr8 3.033318 1_445
O17 Pr8 3.083106 1_455
O18 Pr8 2.325719 1_555
O18 Pr5 2.575089 1_655
O18 Pr5 2.669754 1_555
O18 Pr5 3.099824 1_665
O18 Pr5 3.115324 1_565
O19 Pr0 2.451045 1_544
O19 Pr0 2.549242 1_554
O19 Pr9 2.591820 1_555
O19 Pr9 2.947306 1_545
O20 Pr9 2.367973 1_555
O20 Pr7 2.524868 1_665
O20 Pr7 2.536472 1_655
O21 Pr7 2.259932 1_555
O21 Pr9 2.420655 1_555
O21 Pr9 2.430808 1_545
