# generated using pymatgen
data_Ba2Fe8Ni3(SbO11)2
_symmetry_space_group_name_H-M   'P 1'
_cell_length_a   6.02267341
_cell_length_b   6.02267341
_cell_length_c   14.42683800
_cell_angle_alpha   90.00000000
_cell_angle_beta   90.00000000
_cell_angle_gamma   119.99999351
_symmetry_Int_Tables_number   1
_chemical_formula_structural   Ba2Fe8Ni3(SbO11)2
_chemical_formula_sum   'Ba2 Fe8 Ni3 Sb2 O22'
_cell_volume   453.19012904
_cell_formula_units_Z   1
loop_
 _symmetry_equiv_pos_site_id
 _symmetry_equiv_pos_as_xyz
  1  'x, y, z'
loop_
 _atom_site_type_symbol
 _atom_site_label
 _atom_site_symmetry_multiplicity
 _atom_site_fract_x
 _atom_site_fract_y
 _atom_site_fract_z
 _atom_site_occupancy
  Ba  Ba0  1  0.66666700  0.33333300  0.57536600  1
  Ba  Ba1  1  0.33333300  0.66666700  0.42463400  1
  Fe  Fe0  1  0.83506000  0.67012000  0.82838300  1
  Fe  Fe1  1  0.83506000  0.16494000  0.82838300  1
  Fe  Fe2  1  0.32988000  0.16494000  0.82838300  1
  Fe  Fe3  1  0.16494000  0.32988000  0.17161700  1
  Fe  Fe4  1  0.16494000  0.83506000  0.17161700  1
  Fe  Fe5  1  0.67012000  0.83506000  0.17161700  1
  Fe  Fe6  1  0.66666700  0.33333300  0.04635600  1
  Fe  Fe7  1  0.33333300  0.66666700  0.95364400  1
  Ni  Ni0  1  0.00000000  0.00000000  0.62220300  1
  Ni  Ni1  1  0.00000000  0.00000000  0.37779700  1
  Ni  Ni2  1  0.00000000  0.00000000  0.00000000  1
  Sb  Sb0  1  0.66666700  0.33333300  0.32412800  1
  Sb  Sb1  1  0.33333300  0.66666700  0.67587200  1
  O  O0  1  0.84448200  0.68896400  0.08657900  1
  O  O1  1  0.84448200  0.15551800  0.08657900  1
  O  O2  1  0.31103600  0.15551800  0.08657900  1
  O  O3  1  0.15551800  0.31103600  0.91342100  1
  O  O4  1  0.15551800  0.84448200  0.91342100  1
  O  O5  1  0.68896400  0.84448200  0.91342100  1
  O  O6  1  0.82051400  0.64102800  0.40706500  1
  O  O7  1  0.82051400  0.17948600  0.40706500  1
  O  O8  1  0.35897200  0.17948600  0.40706500  1
  O  O9  1  0.17948600  0.35897200  0.59293500  1
  O  O10  1  0.17948600  0.82051400  0.59293500  1
  O  O11  1  0.64102800  0.82051400  0.59293500  1
  O  O12  1  0.00000000  0.00000000  0.76078800  1
  O  O13  1  0.00000000  0.00000000  0.23921200  1
  O  O14  1  0.66666700  0.33333300  0.90896600  1
  O  O15  1  0.33333300  0.66666700  0.09103400  1
  O  O16  1  0.50366400  0.00732700  0.75510400  1
  O  O17  1  0.50366400  0.49633600  0.75510400  1
  O  O18  1  0.99267300  0.49633600  0.75510400  1
  O  O19  1  0.49633600  0.99267300  0.24489600  1
  O  O20  1  0.49633600  0.50366400  0.24489600  1
  O  O21  1  0.00732700  0.50366400  0.24489600  1
loop_
_geom_bond_atom_site_label_1
_geom_bond_atom_site_label_2
_geom_bond_distance
_geom_bond_site_symmetry_2
Ba0 O7 2.910503 1_555
Ba0 O8 2.910506 1_555
Ba0 O6 2.910506 1_555
Ba0 O11 3.024939 1_545
Ba0 O9 3.024939 1_655
Ba0 O10 3.024942 1_545
Ba0 O10 3.024942 1_655
Ba0 O9 3.024945 1_555
Ba0 O11 3.024945 1_555
Ba0 O17 3.100839 1_555
Ba0 O16 3.100839 1_555
Ba0 O18 3.100839 1_555
Ba1 O10 2.910503 1_555
Ba1 O9 2.910506 1_555
Ba1 O11 2.910506 1_555
Ba1 O8 3.024939 1_565
Ba1 O6 3.024939 1_455
Ba1 O7 3.024942 1_565
Ba1 O7 3.024942 1_455
Ba1 O8 3.024945 1_555
Ba1 O6 3.024945 1_555
Ba1 O20 3.100839 1_555
Ba1 O19 3.100839 1_555
Ba1 O21 3.100839 1_555
Fe0 O12 1.977724 1_665
Fe0 O17 2.026744 1_555
Fe0 O18 2.026749 1_555
Fe0 O5 2.075107 1_555
Fe0 O4 2.075108 1_655
Fe0 O14 2.106471 1_555
Fe1 O12 1.977723 1_655
Fe1 O18 2.026744 1_555
Fe1 O16 2.026744 1_555
Fe1 O5 2.075108 1_545
Fe1 O3 2.075108 1_655
Fe1 O14 2.106466 1_555
Fe2 O12 1.977724 1_555
Fe2 O17 2.026744 1_555
Fe2 O16 2.026749 1_555
Fe2 O3 2.075107 1_555
Fe2 O4 2.075108 1_545
Fe2 O14 2.106471 1_555
Fe3 O13 1.977724 1_555
Fe3 O20 2.026744 1_555
Fe3 O21 2.026749 1_555
Fe3 O2 2.075107 1_555
Fe3 O1 2.075108 1_455
Fe3 O15 2.106471 1_555
Fe4 O13 1.977723 1_565
Fe4 O19 2.026744 1_555
Fe4 O21 2.026744 1_555
Fe4 O2 2.075108 1_565
Fe4 O0 2.075108 1_455
Fe4 O15 2.106466 1_555
Fe5 O13 1.977724 1_665
Fe5 O20 2.026744 1_555
Fe5 O19 2.026749 1_555
Fe5 O0 2.075107 1_555
Fe5 O1 2.075108 1_565
Fe5 O15 2.106471 1_555
Fe6 O1 1.943542 1_555
Fe6 O0 1.943547 1_555
Fe6 O2 1.943547 1_555
Fe6 O14 1.982103 1_554
Fe7 O4 1.943542 1_555
Fe7 O5 1.943547 1_555
Fe7 O3 1.943547 1_555
Fe7 O15 1.982103 1_556
Ni0 O10 1.919344 1_545
Ni0 O9 1.919344 1_555
Ni0 O11 1.919344 1_445
Ni0 O12 1.999343 1_555
Ni1 O7 1.919344 1_455
Ni1 O6 1.919344 1_445
Ni1 O8 1.919344 1_555
Ni1 O13 1.999343 1_555
Ni2 O4 2.047438 1_544
Ni2 O1 2.047438 1_455
Ni2 O5 2.047439 1_444
Ni2 O3 2.047439 1_554
Ni2 O0 2.047439 1_445
Ni2 O2 2.047439 1_555
O6 Sb0 2.001817 1_555
O7 Sb0 2.001813 1_555
O8 Sb0 2.001817 1_555
O9 Sb1 2.001817 1_555
O10 Sb1 2.001813 1_555
O11 Sb1 2.001817 1_555
O16 Sb1 2.112737 1_545
O17 Sb1 2.112746 1_555
O18 Sb1 2.112737 1_655
O19 Sb0 2.112737 1_565
O20 Sb0 2.112746 1_555
O21 Sb0 2.112737 1_455
