# generated using pymatgen
data_Ba3Y4O9
_symmetry_space_group_name_H-M   'P 1'
_cell_length_a   9.19147366
_cell_length_b   9.19147366
_cell_length_c   9.19147316
_cell_angle_alpha   38.82228703
_cell_angle_beta   38.82228700
_cell_angle_gamma   38.82228833
_symmetry_Int_Tables_number   1
_chemical_formula_structural   Ba3Y4O9
_chemical_formula_sum   'Ba3 Y4 O9'
_cell_volume   274.36509794
_cell_formula_units_Z   1
loop_
 _symmetry_equiv_pos_site_id
 _symmetry_equiv_pos_as_xyz
  1  'x, y, z'
loop_
 _atom_site_type_symbol
 _atom_site_label
 _atom_site_symmetry_multiplicity
 _atom_site_fract_x
 _atom_site_fract_y
 _atom_site_fract_z
 _atom_site_occupancy
  Ba  Ba0  1  0.41653171  0.41653171  0.41653171  1
  Ba  Ba1  1  0.83586529  0.83586529  0.83586529  1
  Ba  Ba2  1  0.00105075  0.00105075  0.00105075  1
  Y  Y0  1  0.70057124  0.70057124  0.70057124  1
  Y  Y1  1  0.26187638  0.26187638  0.26187638  1
  Y  Y2  1  0.13671840  0.13671840  0.13671840  1
  Y  Y3  1  0.57515965  0.57515965  0.57515965  1
  O  O0  1  0.42528040  0.96210822  0.53810603  1
  O  O1  1  0.96210822  0.53810603  0.42528040  1
  O  O2  1  0.53810603  0.42528040  0.96210822  1
  O  O3  1  0.29606506  0.87702315  0.41502120  1
  O  O4  1  0.87702315  0.41502120  0.29606506  1
  O  O5  1  0.41502120  0.29606506  0.87702315  1
  O  O6  1  0.41806721  0.85928737  0.97826795  1
  O  O7  1  0.97826795  0.41806721  0.85928737  1
  O  O8  1  0.85928737  0.97826795  0.41806721  1
loop_
_geom_bond_atom_site_label_1
_geom_bond_atom_site_label_2
_geom_bond_distance
_geom_bond_site_symmetry_2
Ba0 O7 2.691769 1_455
Ba0 O6 2.691769 1_554
Ba0 O8 2.691770 1_545
Ba1 O4 2.777795 1_556
Ba1 O3 2.777795 1_655
Ba1 O5 2.777795 1_565
Ba1 O8 2.797384 1_555
Ba1 O7 2.797384 1_555
Ba1 O6 2.797384 1_555
Ba2 O0 2.789944 1_544
Ba2 O1 2.789944 1_445
Ba2 O2 2.789944 1_454
Ba2 O8 2.797452 1_445
Ba2 O6 2.797452 1_544
Ba2 O7 2.797452 1_454
O0 Y1 2.210656 1_565
O0 Y0 2.286365 1_555
O0 Y3 2.423316 1_555
O1 Y1 2.210656 1_655
O1 Y0 2.286365 1_555
O1 Y3 2.423316 1_555
O2 Y1 2.210656 1_556
O2 Y0 2.286365 1_555
O2 Y3 2.423316 1_555
O3 Y3 2.207930 1_555
O3 Y2 2.293989 1_565
O3 Y1 2.406580 1_565
O4 Y3 2.207930 1_555
O4 Y2 2.293989 1_655
O4 Y1 2.406580 1_655
O5 Y3 2.207930 1_555
O5 Y2 2.293989 1_556
O5 Y1 2.406580 1_556
O6 Y2 2.225783 1_566
O6 Y0 2.226640 1_555
O7 Y2 2.225783 1_656
O7 Y0 2.226640 1_555
O8 Y2 2.225783 1_665
O8 Y0 2.226640 1_555
