# generated using pymatgen
data_Nd2(ZnGe2)3
_symmetry_space_group_name_H-M   'P 1'
_cell_length_a   12.76487060
_cell_length_b   12.76487060
_cell_length_c   5.95625200
_cell_angle_alpha   90.00000000
_cell_angle_beta   90.00000000
_cell_angle_gamma   152.99806920
_symmetry_Int_Tables_number   1
_chemical_formula_structural   Nd2(ZnGe2)3
_chemical_formula_sum   'Nd4 Zn6 Ge12'
_cell_volume   440.63742854
_cell_formula_units_Z   2
loop_
 _symmetry_equiv_pos_site_id
 _symmetry_equiv_pos_as_xyz
  1  'x, y, z'
loop_
 _atom_site_type_symbol
 _atom_site_label
 _atom_site_symmetry_multiplicity
 _atom_site_fract_x
 _atom_site_fract_y
 _atom_site_fract_z
 _atom_site_occupancy
  Nd  Nd0  1  0.89352600  0.10647400  0.75000000  1
  Nd  Nd1  1  0.39340900  0.60659100  0.25000000  1
  Nd  Nd2  1  0.60659100  0.39340900  0.75000000  1
  Nd  Nd3  1  0.10647400  0.89352600  0.25000000  1
  Zn  Zn0  1  0.16057400  0.83942600  0.75000000  1
  Zn  Zn1  1  0.26328300  0.26328300  0.50000000  1
  Zn  Zn2  1  0.26328300  0.26328300  0.00000000  1
  Zn  Zn3  1  0.73671700  0.73671700  0.00000000  1
  Zn  Zn4  1  0.83942600  0.16057400  0.25000000  1
  Zn  Zn5  1  0.73671700  0.73671700  0.50000000  1
  Ge  Ge0  1  0.94101000  0.05899000  0.25000000  1
  Ge  Ge1  1  0.48546900  0.08334400  0.03467800  1
  Ge  Ge2  1  0.05899000  0.94101000  0.75000000  1
  Ge  Ge3  1  0.43025500  0.56974500  0.75000000  1
  Ge  Ge4  1  0.51453100  0.91665600  0.53467800  1
  Ge  Ge5  1  0.91665600  0.51453100  0.03467800  1
  Ge  Ge6  1  0.91665600  0.51453100  0.46532200  1
  Ge  Ge7  1  0.51453100  0.91665600  0.96532200  1
  Ge  Ge8  1  0.48546900  0.08334400  0.46532200  1
  Ge  Ge9  1  0.08334400  0.48546900  0.53467800  1
  Ge  Ge10  1  0.56974500  0.43025500  0.25000000  1
  Ge  Ge11  1  0.08334400  0.48546900  0.96532200  1
loop_
_geom_bond_atom_site_label_1
_geom_bond_atom_site_label_2
_geom_bond_distance
_geom_bond_site_symmetry_2
Nd0 Zn4 3.266935 1_555
Nd0 Zn4 3.266935 1_556
Nd0 Zn3 3.415545 1_546
Nd0 Zn5 3.415545 1_545
Nd0 Zn2 3.415545 1_656
Nd0 Zn1 3.415545 1_655
Nd1 Zn4 3.267550 1_565
Nd1 Zn4 3.267550 1_455
Nd1 Zn1 3.348051 1_555
Nd1 Zn2 3.348051 1_555
Nd1 Zn3 3.348051 1_555
Nd1 Zn5 3.348051 1_555
Nd2 Zn0 3.267550 1_545
Nd2 Zn0 3.267550 1_655
Nd2 Zn2 3.348051 1_556
Nd2 Zn1 3.348051 1_555
Nd2 Zn3 3.348051 1_556
Nd2 Zn5 3.348051 1_555
Nd3 Zn0 3.266935 1_555
Nd3 Zn0 3.266935 1_554
Nd3 Zn5 3.415545 1_455
Nd3 Zn3 3.415545 1_455
Nd3 Zn2 3.415545 1_565
Nd3 Zn1 3.415545 1_565
Ge0 Zn4 2.521747 1_555
Ge0 Zn2 2.612315 1_655
Ge0 Zn1 2.612315 1_655
Ge0 Zn3 2.612315 1_545
Ge0 Zn5 2.612315 1_545
Ge0 Nd0 3.202920 1_554
Ge0 Nd0 3.202920 1_555
Ge0 Nd1 3.205833 1_655
Ge0 Nd1 3.205833 1_545
Ge1 Ge7 2.498436 1_544
Ge1 Ge8 2.565024 1_555
Ge1 Ge5 2.569969 1_555
Ge1 Zn0 2.599764 1_544
Ge1 Nd2 3.166414 1_554
Ge1 Nd3 3.167303 1_545
Ge2 Zn0 2.521747 1_555
Ge2 Zn2 2.612315 1_566
Ge2 Zn1 2.612315 1_565
Ge2 Zn5 2.612315 1_455
Ge2 Zn3 2.612315 1_456
Ge2 Nd3 3.202920 1_556
Ge2 Nd3 3.202920 1_555
Ge2 Nd2 3.205833 1_565
Ge2 Nd2 3.205833 1_455
Ge3 Zn3 2.684313 1_556
Ge3 Zn2 2.684313 1_556
Ge3 Zn5 2.684313 1_555
Ge3 Zn1 2.684313 1_555
Ge3 Nd1 3.115424 1_555
Ge3 Nd1 3.115424 1_556
Ge3 Nd0 3.116468 1_565
Ge3 Nd0 3.116468 1_455
Ge4 Ge8 2.498436 1_565
Ge4 Ge7 2.565024 1_555
Ge4 Ge9 2.569969 1_555
Ge4 Zn4 2.599764 1_565
Ge4 Nd1 3.166414 1_555
Ge4 Nd0 3.167303 1_565
Ge5 Ge6 2.565024 1_555
Ge5 Zn0 2.599764 1_654
Ge5 Nd2 3.166414 1_554
Ge5 Nd3 3.167303 1_655
Ge6 Ge9 2.498436 1_655
Ge6 Ge8 2.569969 1_555
Ge6 Zn0 2.599764 1_655
Ge6 Nd2 3.166414 1_555
Ge6 Nd3 3.167303 1_655
Ge7 Zn4 2.599764 1_566
Ge7 Nd1 3.166414 1_556
Ge7 Nd0 3.167303 1_565
Ge8 Zn0 2.599764 1_545
Ge8 Nd2 3.166414 1_555
Ge8 Nd3 3.167303 1_545
Ge9 Zn4 2.599764 1_455
Ge9 Nd1 3.166414 1_555
Ge9 Nd0 3.167303 1_455
Ge10 Zn2 2.684313 1_555
Ge10 Zn3 2.684313 1_555
Ge10 Zn1 2.684313 1_555
Ge10 Zn5 2.684313 1_555
Ge10 Nd2 3.115424 1_555
Ge10 Nd2 3.115424 1_554
Ge10 Nd3 3.116468 1_655
Ge10 Nd3 3.116468 1_545
Ge11 Ge5 2.498436 1_456
Ge11 Ge9 2.565024 1_555
Ge11 Ge7 2.569969 1_555
Ge11 Zn4 2.599764 1_456
Ge11 Nd1 3.166414 1_556
Ge11 Nd0 3.167303 1_455
