# generated using pymatgen
data_Nb2Tl4S11
_symmetry_space_group_name_H-M   'P 1'
_cell_length_a   7.96578818
_cell_length_b   9.02520493
_cell_length_c   13.33970924
_cell_angle_alpha   107.78695407
_cell_angle_beta   89.20764920
_cell_angle_gamma   94.51505491
_symmetry_Int_Tables_number   1
_chemical_formula_structural   Nb2Tl4S11
_chemical_formula_sum   'Nb4 Tl8 S22'
_cell_volume   910.30071210
_cell_formula_units_Z   2
loop_
 _symmetry_equiv_pos_site_id
 _symmetry_equiv_pos_as_xyz
  1  'x, y, z'
loop_
 _atom_site_type_symbol
 _atom_site_label
 _atom_site_symmetry_multiplicity
 _atom_site_fract_x
 _atom_site_fract_y
 _atom_site_fract_z
 _atom_site_occupancy
  Nb  Nb0  1  0.12180596  0.63586023  0.30556299  1
  Nb  Nb1  1  0.87819404  0.36413977  0.69443701  1
  Nb  Nb2  1  0.33388995  0.89118642  0.18958136  1
  Nb  Nb3  1  0.66611005  0.10881358  0.81041864  1
  Tl  Tl0  1  0.24259241  0.57968442  0.58455553  1
  Tl  Tl1  1  0.75740759  0.42031558  0.41544447  1
  Tl  Tl2  1  0.50252310  0.72560957  0.88496365  1
  Tl  Tl3  1  0.49747690  0.27439043  0.11503635  1
  Tl  Tl4  1  0.21623011  0.03248711  0.57312753  1
  Tl  Tl5  1  0.78376989  0.96751289  0.42687247  1
  Tl  Tl6  1  0.05910534  0.23959488  0.97642710  1
  Tl  Tl7  1  0.94089466  0.76040512  0.02357290  1
  S  S0  1  0.00846968  0.29213078  0.53283530  1
  S  S1  1  0.99153032  0.70786922  0.46716470  1
  S  S2  1  0.60947282  0.19473140  0.62776739  1
  S  S3  1  0.39052718  0.80526860  0.37223261  1
  S  S4  1  0.04400742  0.35316189  0.24538958  1
  S  S5  1  0.95599258  0.64683811  0.75461042  1
  S  S6  1  0.10835944  0.51523448  0.81331807  1
  S  S7  1  0.89164056  0.48476552  0.18668193  1
  S  S8  1  0.39619824  0.56977395  0.35197998  1
  S  S9  1  0.60380176  0.43022605  0.64802002  1
  S  S10  1  0.36394592  0.13882805  0.33283638  1
  S  S11  1  0.63605408  0.86117195  0.66716362  1
  S  S12  1  0.72950716  0.04187825  0.95757655  1
  S  S13  1  0.27049284  0.95812175  0.04242345  1
  S  S14  1  0.52407478  0.68375557  0.11805494  1
  S  S15  1  0.47592522  0.31624443  0.88194506  1
  S  S16  1  0.72530867  0.39814116  0.88899359  1
  S  S17  1  0.27469133  0.60185884  0.11100641  1
  S  S18  1  0.96122532  0.13413645  0.74695472  1
  S  S19  1  0.03877468  0.86586355  0.25304528  1
  S  S20  1  0.58633598  0.07430642  0.25481163  1
  S  S21  1  0.41366402  0.92569358  0.74518837  1
loop_
_geom_bond_atom_site_label_1
_geom_bond_atom_site_label_2
_geom_bond_distance
_geom_bond_site_symmetry_2
Nb0 S1 2.309714 1_455
Nb0 S8 2.446418 1_555
Nb0 S4 2.460010 1_555
Nb0 S7 2.470131 1_455
Nb0 S19 2.520871 1_555
Nb0 S3 2.533239 1_555
Nb0 S17 2.792472 1_555
Nb1 S0 2.309714 1_655
Nb1 S9 2.446418 1_555
Nb1 S5 2.460010 1_555
Nb1 S6 2.470131 1_655
Nb1 S18 2.520871 1_555
Nb1 S2 2.533239 1_555
Nb1 S16 2.792472 1_555
Nb2 S13 2.296408 1_555
Nb2 S10 2.454268 1_565
Nb2 S14 2.454697 1_555
Nb2 S20 2.485748 1_565
Nb2 S19 2.504777 1_555
Nb2 S17 2.507430 1_555
Nb2 S3 2.825105 1_555
Nb3 S12 2.296408 1_555
Nb3 S11 2.454268 1_545
Nb3 S15 2.454697 1_555
Nb3 S21 2.485748 1_545
Nb3 S18 2.504777 1_555
Nb3 S16 2.507430 1_555
Nb3 S2 2.825105 1_555
S0 Tl0 2.978082 1_555
S0 Tl1 3.057448 1_455
S0 Tl4 3.150200 1_555
S0 Tl5 3.240283 1_445
S1 Tl1 2.978082 1_555
S1 Tl0 3.057448 1_655
S1 Tl5 3.150200 1_555
S1 Tl4 3.240283 1_665
S2 S9 2.063072 1_555
S2 Tl5 3.209762 1_545
S3 S8 2.063072 1_555
S3 Tl4 3.209762 1_565
S4 S7 2.078158 1_455
S4 Tl1 3.155951 1_455
S5 S6 2.078158 1_655
S5 Tl0 3.155951 1_655
S10 S20 2.074077 1_555
S11 S21 2.074077 1_555
S12 Tl6 3.024438 1_655
S12 Tl2 3.146698 1_545
S12 Tl3 3.168926 1_556
S13 Tl7 3.024438 1_455
S13 Tl3 3.146698 1_565
S13 Tl2 3.168926 1_554
S14 S17 2.057430 1_555
S14 Tl2 3.253138 1_554
S15 S16 2.057430 1_555
S15 Tl3 3.253138 1_556
S18 Tl6 3.008864 1_655
S18 Tl4 3.034497 1_655
S19 Tl7 3.008864 1_455
S19 Tl5 3.034497 1_455
S20 Tl3 3.087617 1_555
S20 Tl5 3.218791 1_545
S21 Tl2 3.087617 1_555
S21 Tl4 3.218791 1_565
