# generated using pymatgen
data_Eu3Si4
_symmetry_space_group_name_H-M   'P 1'
_cell_length_a   9.64676049
_cell_length_b   9.64676049
_cell_length_c   9.64676049
_cell_angle_alpha   156.27429432
_cell_angle_beta   152.66318132
_cell_angle_gamma   36.50504469
_symmetry_Int_Tables_number   1
_chemical_formula_structural   Eu3Si4
_chemical_formula_sum   'Eu3 Si4'
_cell_volume   165.65768470
_cell_formula_units_Z   1
loop_
 _symmetry_equiv_pos_site_id
 _symmetry_equiv_pos_as_xyz
  1  'x, y, z'
loop_
 _atom_site_type_symbol
 _atom_site_label
 _atom_site_symmetry_multiplicity
 _atom_site_fract_x
 _atom_site_fract_y
 _atom_site_fract_z
 _atom_site_occupancy
  Eu  Eu0  1  0.99588900  0.00000000  0.99588900  1
  Eu  Eu1  1  0.81342700  0.31510500  0.49832200  1
  Eu  Eu2  1  0.18321800  0.68489500  0.49832200  1
  Si  Si0  1  0.63935900  0.13826700  0.50109200  1
  Si  Si1  1  0.36282400  0.86173300  0.50109200  1
  Si  Si2  1  0.41596300  0.43532100  0.98064200  1
  Si  Si3  1  0.54532000  0.56467900  0.98064200  1
loop_
_geom_bond_atom_site_label_1
_geom_bond_atom_site_label_2
_geom_bond_distance
_geom_bond_site_symmetry_2
Eu0 Si3 3.197079 1_645
Eu0 Si3 3.197081 1_656
Eu0 Si2 3.197085 1_656
Eu0 Si2 3.197085 1_645
Eu0 Si3 3.294718 1_544
Eu0 Si3 3.294720 1_555
Eu0 Si2 3.294720 1_555
Eu0 Si2 3.294720 1_544
Eu0 Si0 3.392207 1_555
Eu0 Si1 3.392216 1_545
Eu0 Si0 3.423940 1_656
Eu0 Si1 3.423945 1_646
Eu1 Si2 3.112430 1_655
Eu1 Si1 3.130730 1_544
Eu1 Si1 3.130732 1_555
Eu1 Si1 3.149063 1_645
Eu1 Si1 3.149066 1_656
Eu1 Si2 3.228342 1_554
Eu1 Si0 3.240187 1_555
Eu2 Si3 3.112439 1_555
Eu2 Si0 3.130735 1_454
Eu2 Si0 3.130737 1_465
Eu2 Si0 3.149068 1_555
Eu2 Si0 3.149071 1_566
Eu2 Si3 3.228358 1_454
Eu2 Si1 3.240169 1_555
Si0 Si3 2.399861 1_544
Si0 Si3 2.399865 1_555
Si1 Si2 2.399861 1_565
Si1 Si2 2.399865 1_554
Si2 Si3 2.370188 1_555
