# generated using pymatgen
data_LiMg6Zn
_symmetry_space_group_name_H-M   'P 1'
_cell_length_a   5.03969900
_cell_length_b   6.28184400
_cell_length_c   10.75027000
_cell_angle_alpha   90.00000000
_cell_angle_beta   90.00000000
_cell_angle_gamma   90.00000000
_symmetry_Int_Tables_number   1
_chemical_formula_structural   LiMg6Zn
_chemical_formula_sum   'Li2 Mg12 Zn2'
_cell_volume   340.33852927
_cell_formula_units_Z   2
loop_
 _symmetry_equiv_pos_site_id
 _symmetry_equiv_pos_as_xyz
  1  'x, y, z'
loop_
 _atom_site_type_symbol
 _atom_site_label
 _atom_site_symmetry_multiplicity
 _atom_site_fract_x
 _atom_site_fract_y
 _atom_site_fract_z
 _atom_site_occupancy
  Li  Li0  1  0.50000000  0.50000000  0.83294100  1
  Li  Li1  1  0.50000000  0.00000000  0.33294100  1
  Mg  Mg0  1  0.50000000  0.24856700  0.08387300  1
  Mg  Mg1  1  0.50000000  0.75143300  0.08387300  1
  Mg  Mg2  1  0.00000000  0.24858200  0.91372000  1
  Mg  Mg3  1  0.00000000  0.75141800  0.91372000  1
  Mg  Mg4  1  0.00000000  0.50000000  0.16952900  1
  Mg  Mg5  1  0.00000000  0.50000000  0.66865300  1
  Mg  Mg6  1  0.50000000  0.74856700  0.58387300  1
  Mg  Mg7  1  0.50000000  0.25143300  0.58387300  1
  Mg  Mg8  1  0.00000000  0.74858200  0.41372000  1
  Mg  Mg9  1  0.00000000  0.25141800  0.41372000  1
  Mg  Mg10  1  0.00000000  0.00000000  0.66952900  1
  Mg  Mg11  1  0.00000000  0.00000000  0.16865300  1
  Zn  Zn0  1  0.50000000  0.50000000  0.33369500  1
  Zn  Zn1  1  0.50000000  0.00000000  0.83369500  1
loop_
_geom_bond_atom_site_label_1
_geom_bond_atom_site_label_2
_geom_bond_distance
_geom_bond_site_symmetry_2
Li0 Mg5 3.077157 1_555
Li0 Mg5 3.077157 1_655
Li0 Mg3 3.098090 1_655
Li0 Mg2 3.098090 1_655
Li0 Mg3 3.098090 1_555
Li0 Mg2 3.098090 1_555
Li0 Mg6 3.099584 1_555
Li0 Mg7 3.099584 1_555
Li0 Mg1 3.125968 1_556
Li0 Mg0 3.125968 1_556
Li0 Zn1 3.140932 1_565
Li0 Zn1 3.140932 1_555
Li1 Mg11 3.077157 1_555
Li1 Mg11 3.077157 1_655
Li1 Mg9 3.098090 1_655
Li1 Mg8 3.098090 1_645
Li1 Mg8 3.098090 1_545
Li1 Mg9 3.098090 1_555
Li1 Mg0 3.099584 1_555
Li1 Mg1 3.099584 1_545
Li1 Mg7 3.125968 1_555
Li1 Mg6 3.125968 1_545
Li1 Zn0 3.140932 1_545
Li1 Zn0 3.140932 1_555
Mg0 Mg11 3.101364 1_655
Mg0 Mg11 3.101364 1_555
Mg0 Zn1 3.109898 1_554
Mg0 Mg4 3.113240 1_555
Mg0 Mg4 3.113240 1_655
Mg0 Mg2 3.113773 1_554
Mg0 Mg2 3.113773 1_654
Mg0 Zn0 3.115677 1_555
Mg0 Mg1 3.122918 1_545
Mg0 Mg1 3.158926 1_555
Mg1 Mg11 3.101364 1_565
Mg1 Mg11 3.101364 1_665
Mg1 Zn1 3.109898 1_564
Mg1 Mg4 3.113240 1_555
Mg1 Mg4 3.113240 1_655
Mg1 Mg3 3.113773 1_654
Mg1 Mg3 3.113773 1_554
Mg1 Zn0 3.115677 1_555
Mg2 Mg5 3.071675 1_555
Mg2 Zn1 3.086777 1_555
Mg2 Zn1 3.086777 1_455
Mg2 Mg3 3.123107 1_545
Mg2 Mg3 3.158737 1_555
Mg2 Mg4 3.171276 1_556
Mg3 Mg5 3.071675 1_555
Mg3 Zn1 3.086777 1_565
Mg3 Zn1 3.086777 1_465
Mg3 Mg4 3.171276 1_556
Mg4 Mg8 3.054456 1_555
Mg4 Mg9 3.054456 1_555
Mg4 Zn0 3.076404 1_455
Mg4 Zn0 3.076404 1_555
Mg5 Mg7 3.101364 1_555
Mg5 Mg6 3.101364 1_455
Mg5 Mg6 3.101364 1_555
Mg5 Mg7 3.101364 1_455
Mg5 Mg8 3.154256 1_555
Mg5 Mg9 3.154256 1_555
Mg6 Zn0 3.109898 1_555
Mg6 Mg8 3.113773 1_655
Mg6 Mg8 3.113773 1_555
Mg6 Zn1 3.115677 1_565
Mg6 Mg7 3.122918 1_555
Mg6 Mg7 3.158926 1_565
Mg7 Zn0 3.109898 1_555
Mg7 Mg9 3.113773 1_555
Mg7 Mg9 3.113773 1_655
Mg7 Zn1 3.115677 1_555
Mg8 Zn0 3.086777 1_455
Mg8 Zn0 3.086777 1_555
Mg8 Mg9 3.123107 1_555
Mg8 Mg9 3.158737 1_565
Mg9 Zn0 3.086777 1_455
Mg9 Zn0 3.086777 1_555
Mg10 Mg3 3.054456 1_545
Mg10 Mg2 3.054456 1_555
Mg10 Zn1 3.076404 1_455
Mg10 Zn1 3.076404 1_555
Mg10 Mg7 3.113240 1_555
Mg10 Mg6 3.113240 1_445
Mg10 Mg6 3.113240 1_545
Mg10 Mg7 3.113240 1_455
Mg10 Mg5 3.140936 1_555
Mg10 Mg5 3.140936 1_545
Mg10 Mg8 3.171276 1_545
Mg10 Mg9 3.171276 1_555
Mg11 Mg9 3.071675 1_555
Mg11 Mg8 3.071675 1_545
Mg11 Mg4 3.140936 1_555
Mg11 Mg4 3.140936 1_545
Mg11 Mg3 3.154256 1_544
Mg11 Mg2 3.154256 1_554
