# generated using pymatgen
data_KHo2Cu3Se5
_symmetry_space_group_name_H-M   'P 1'
_cell_length_a   7.48229600
_cell_length_b   7.48229600
_cell_length_c   16.89656000
_cell_angle_alpha   90.00000000
_cell_angle_beta   90.00000000
_cell_angle_gamma   148.19741974
_symmetry_Int_Tables_number   1
_chemical_formula_structural   KHo2Cu3Se5
_chemical_formula_sum   'K2 Ho4 Cu6 Se10'
_cell_volume   498.50990608
_cell_formula_units_Z   2
loop_
 _symmetry_equiv_pos_site_id
 _symmetry_equiv_pos_as_xyz
  1  'x, y, z'
loop_
 _atom_site_type_symbol
 _atom_site_label
 _atom_site_symmetry_multiplicity
 _atom_site_fract_x
 _atom_site_fract_y
 _atom_site_fract_z
 _atom_site_occupancy
  K  K0  1  0.93760200  0.06239800  0.75000000  1
  K  K1  1  0.06239800  0.93760200  0.25000000  1
  Ho  Ho0  1  0.80804800  0.19195200  0.09307000  1
  Ho  Ho1  1  0.19195200  0.80804800  0.90693000  1
  Ho  Ho2  1  0.80804800  0.19195200  0.40693000  1
  Ho  Ho3  1  0.19195200  0.80804800  0.59307000  1
  Cu  Cu0  1  0.34058400  0.65941600  0.25000000  1
  Cu  Cu1  1  0.65941600  0.34058400  0.75000000  1
  Cu  Cu2  1  0.58389000  0.41611000  0.03064900  1
  Cu  Cu3  1  0.41611000  0.58389000  0.96935100  1
  Cu  Cu4  1  0.58389000  0.41611000  0.46935100  1
  Cu  Cu5  1  0.41611000  0.58389000  0.53064900  1
  Se  Se0  1  0.44119000  0.55881000  0.11916200  1
  Se  Se1  1  0.55881000  0.44119000  0.88083800  1
  Se  Se2  1  0.44119000  0.55881000  0.38083800  1
  Se  Se3  1  0.55881000  0.44119000  0.61916200  1
  Se  Se4  1  0.74912500  0.25087500  0.25000000  1
  Se  Se5  1  0.25087500  0.74912500  0.75000000  1
  Se  Se6  1  0.83403700  0.16596300  0.92769500  1
  Se  Se7  1  0.16596300  0.83403700  0.07230500  1
  Se  Se8  1  0.83403700  0.16596300  0.57230500  1
  Se  Se9  1  0.16596300  0.83403700  0.42769500  1
loop_
_geom_bond_atom_site_label_1
_geom_bond_atom_site_label_2
_geom_bond_distance
_geom_bond_site_symmetry_2
K0 Se6 3.352047 1_555
K0 Se8 3.352047 1_555
K0 Se5 3.380012 1_545
K0 Se5 3.380012 1_655
K0 Se1 3.483214 1_545
K0 Se3 3.483214 1_545
K0 Se3 3.483214 1_655
K0 Se1 3.483214 1_655
K1 Se9 3.352047 1_555
K1 Se7 3.352047 1_555
K1 Se4 3.380012 1_455
K1 Se4 3.380012 1_565
K1 Se2 3.483214 1_455
K1 Se2 3.483214 1_565
K1 Se0 3.483214 1_455
K1 Se0 3.483214 1_565
Ho0 Se4 2.783882 1_555
Ho0 Se6 2.819191 1_554
Ho0 Se0 2.840531 1_545
Ho0 Se0 2.840531 1_655
Ho0 Se7 2.916706 1_655
Ho0 Se7 2.916706 1_545
Ho1 Se5 2.783882 1_555
Ho1 Se7 2.819191 1_556
Ho1 Se1 2.840531 1_455
Ho1 Se1 2.840531 1_565
Ho1 Se6 2.916706 1_565
Ho1 Se6 2.916706 1_455
Ho2 Se4 2.783882 1_555
Ho2 Se8 2.819191 1_555
Ho2 Se2 2.840531 1_545
Ho2 Se2 2.840531 1_655
Ho2 Se9 2.916706 1_655
Ho2 Se9 2.916706 1_545
Ho3 Se5 2.783882 1_555
Ho3 Se9 2.819191 1_555
Ho3 Se3 2.840531 1_455
Ho3 Se3 2.840531 1_565
Ho3 Se8 2.916706 1_455
Ho3 Se8 2.916706 1_565
Cu0 Se4 2.436207 1_565
Cu0 Se4 2.436207 1_455
Cu0 Se2 2.642672 1_555
Cu0 Se0 2.642672 1_555
Cu1 Se5 2.436207 1_655
Cu1 Se5 2.436207 1_545
Cu1 Se1 2.642672 1_555
Cu1 Se3 2.642672 1_555
Cu2 Se7 2.468428 1_655
Cu2 Se7 2.468428 1_545
Cu2 Se0 2.540579 1_555
Cu2 Se1 2.556896 1_554
Cu3 Se6 2.468428 1_565
Cu3 Se6 2.468428 1_455
Cu3 Se1 2.540579 1_555
Cu3 Se0 2.556896 1_556
Cu4 Se9 2.468428 1_655
Cu4 Se9 2.468428 1_545
Cu4 Se2 2.540579 1_555
Cu4 Se3 2.556896 1_555
Cu5 Se8 2.468428 1_565
Cu5 Se8 2.468428 1_455
Cu5 Se3 2.540579 1_555
Cu5 Se2 2.556896 1_555
