# generated using pymatgen
data_K5Na3Nb4(WO6)4
_symmetry_space_group_name_H-M   'P 1'
_cell_length_a   8.04315636
_cell_length_b   8.04315636
_cell_length_c   8.03730610
_cell_angle_alpha   89.91175682
_cell_angle_beta   89.91175682
_cell_angle_gamma   90.10539643
_symmetry_Int_Tables_number   1
_chemical_formula_structural   K5Na3Nb4(WO6)4
_chemical_formula_sum   'K5 Na3 Nb4 W4 O24'
_cell_volume   519.95021857
_cell_formula_units_Z   1
loop_
 _symmetry_equiv_pos_site_id
 _symmetry_equiv_pos_as_xyz
  1  'x, y, z'
loop_
 _atom_site_type_symbol
 _atom_site_label
 _atom_site_symmetry_multiplicity
 _atom_site_fract_x
 _atom_site_fract_y
 _atom_site_fract_z
 _atom_site_occupancy
  K  K0  1  0.74898400  0.74898400  0.24985200  1
  K  K1  1  0.25132000  0.74931800  0.25040700  1
  K  K2  1  0.74931800  0.25132000  0.25040700  1
  K  K3  1  0.25066000  0.25066000  0.25026400  1
  K  K4  1  0.25107700  0.25107700  0.75014300  1
  Na  Na0  1  0.74899900  0.74899900  0.74978500  1
  Na  Na1  1  0.25104300  0.74874600  0.74981600  1
  Na  Na2  1  0.74874600  0.25104300  0.74981600  1
  Nb  Nb0  1  0.50075400  0.99950400  0.50182500  1
  Nb  Nb1  1  0.99950400  0.50075400  0.50182500  1
  Nb  Nb2  1  0.50063100  0.50063100  0.99832700  1
  Nb  Nb3  1  0.50051200  0.50051200  0.50144900  1
  W  W0  1  0.99966500  0.99966500  0.99831600  1
  W  W1  1  0.99951400  0.99951400  0.50145400  1
  W  W2  1  0.50054000  0.99949300  0.99873900  1
  W  W3  1  0.99949300  0.50054000  0.99873900  1
  O  O0  1  0.00143900  0.75261800  0.99676000  1
  O  O1  1  0.99966500  0.75598100  0.50325100  1
  O  O2  1  0.50043900  0.75290100  0.99483200  1
  O  O3  1  0.50029200  0.75124200  0.50321300  1
  O  O4  1  0.99660100  0.24735300  0.99732800  1
  O  O5  1  0.99846400  0.24363000  0.50211200  1
  O  O6  1  0.50149000  0.24673600  0.99941900  1
  O  O7  1  0.50165500  0.24874000  0.50249600  1
  O  O8  1  0.75261800  0.00143900  0.99676000  1
  O  O9  1  0.75598100  0.99966500  0.50325100  1
  O  O10  1  0.24735300  0.99660100  0.99732800  1
  O  O11  1  0.24363000  0.99846400  0.50211200  1
  O  O12  1  0.75290100  0.50044000  0.99483200  1
  O  O13  1  0.75124200  0.50029200  0.50321300  1
  O  O14  1  0.24673600  0.50149000  0.99941900  1
  O  O15  1  0.24874000  0.50165500  0.50249600  1
  O  O16  1  0.99912300  0.99912300  0.25678000  1
  O  O17  1  0.99902200  0.99902200  0.74408700  1
  O  O18  1  0.50013100  0.00116600  0.24922500  1
  O  O19  1  0.50170500  0.99708000  0.75036100  1
  O  O20  1  0.00116600  0.50013100  0.24922500  1
  O  O21  1  0.99708000  0.50170500  0.75036100  1
  O  O22  1  0.50052100  0.50052100  0.24862700  1
  O  O23  1  0.50124700  0.50124700  0.75134300  1
loop_
_geom_bond_atom_site_label_1
_geom_bond_atom_site_label_2
_geom_bond_distance
_geom_bond_site_symmetry_2
K0 O22 2.823640 1_555
K0 O16 2.843315 1_555
K0 O18 2.852258 1_565
K0 O20 2.852258 1_655
K0 O13 2.852330 1_555
K0 O3 2.852330 1_555
K0 O12 2.865506 1_554
K0 O2 2.865511 1_554
K0 O9 2.868624 1_555
K0 O1 2.868624 1_555
K0 O8 2.872052 1_564
K0 O0 2.872052 1_654
K1 O22 2.834940 1_555
K1 O20 2.837366 1_555
K1 O14 2.838379 1_554
K1 O15 2.839172 1_555
K1 O10 2.842940 1_554
K1 O18 2.844861 1_565
K1 O11 2.850391 1_555
K1 O3 2.855062 1_555
K1 O16 2.858187 1_455
K1 O0 2.865105 1_554
K1 O1 2.866652 1_455
K1 O2 2.867412 1_554
K2 O22 2.834940 1_555
K2 O18 2.837366 1_555
K2 O6 2.838379 1_554
K2 O7 2.839172 1_555
K2 O4 2.842940 1_554
K2 O20 2.844861 1_655
K2 O5 2.850391 1_555
K2 O13 2.855062 1_555
K2 O16 2.858187 1_545
K2 O8 2.865105 1_554
K2 O9 2.866652 1_545
K2 O12 2.867418 1_554
K3 O22 2.839491 1_555
K3 O18 2.840420 1_555
K3 O20 2.840420 1_555
K3 O6 2.850227 1_554
K3 O14 2.850227 1_554
K3 O16 2.858901 1_445
K3 O7 2.863248 1_555
K3 O15 2.863248 1_555
K3 O5 2.863860 1_455
K3 O11 2.863860 1_545
K3 O4 2.884767 1_454
K3 O10 2.884767 1_544
K4 O15 2.830546 1_555
K4 O7 2.830546 1_555
K4 O23 2.843038 1_555
K4 O14 2.843304 1_555
K4 O6 2.843304 1_555
K4 O11 2.849257 1_545
K4 O5 2.849257 1_455
K4 O4 2.850315 1_455
K4 O10 2.850315 1_545
K4 O17 2.864942 1_445
K4 O19 2.872692 1_545
K4 O21 2.872692 1_455
Na0 O12 2.804474 1_555
Na0 O2 2.804480 1_555
Na0 O23 2.815522 1_555
Na0 O13 2.818075 1_555
Na0 O3 2.818075 1_555
Na0 O19 2.819979 1_555
Na0 O21 2.819979 1_555
Na0 O9 2.825093 1_555
Na0 O1 2.825093 1_555
Na0 O17 2.841599 1_555
Na0 O8 2.841845 1_565
Na0 O0 2.841845 1_655
Na1 O15 2.813096 1_555
Na1 O2 2.813364 1_555
Na1 O3 2.816972 1_555
Na1 O10 2.818644 1_555
Na1 O0 2.821149 1_555
Na1 O14 2.822769 1_555
Na1 O11 2.826619 1_555
Na1 O23 2.833292 1_555
Na1 O1 2.833899 1_455
Na1 O19 2.835408 1_555
Na1 O21 2.847040 1_455
Na1 O17 2.859764 1_455
Na2 O7 2.813096 1_555
Na2 O12 2.813370 1_555
Na2 O13 2.816972 1_555
Na2 O4 2.818644 1_555
Na2 O8 2.821149 1_555
Na2 O6 2.822769 1_555
Na2 O5 2.826619 1_555
Na2 O23 2.833292 1_555
Na2 O9 2.833899 1_545
Na2 O21 2.835408 1_555
Na2 O19 2.847040 1_545
Na2 O17 2.859764 1_545
Nb0 O3 1.996821 1_555
Nb0 O19 1.997652 1_555
Nb0 O7 2.004659 1_565
Nb0 O18 2.030261 1_565
Nb0 O9 2.052878 1_555
Nb0 O11 2.068088 1_555
Nb1 O13 1.996821 1_555
Nb1 O21 1.997652 1_555
Nb1 O15 2.004659 1_655
Nb1 O20 2.030261 1_655
Nb1 O1 2.052878 1_555
Nb1 O5 2.068088 1_555
Nb2 O23 1.985083 1_555
Nb2 O22 2.011735 1_556
Nb2 O12 2.029202 1_555
Nb2 O2 2.029202 1_555
Nb2 O14 2.042147 1_555
Nb2 O6 2.042147 1_555
Nb3 O23 2.008510 1_555
Nb3 O13 2.016736 1_555
Nb3 O3 2.016736 1_555
Nb3 O7 2.025084 1_555
Nb3 O15 2.025084 1_555
Nb3 O22 2.032008 1_555
O0 W0 1.987174 1_455
O0 W3 2.027572 1_455
O1 W1 1.958808 1_555
O2 W2 1.983674 1_555
O4 W0 1.992395 1_545
O4 W3 2.036562 1_555
O5 W1 1.963512 1_545
O6 W2 1.988631 1_545
O8 W0 1.987174 1_545
O8 W2 2.027572 1_545
O9 W1 1.958808 1_555
O10 W0 1.992395 1_455
O10 W2 2.036562 1_555
O11 W1 1.963512 1_455
O12 W3 1.983674 1_555
O14 W3 1.988631 1_455
O16 W1 1.966535 1_555
O16 W0 2.077350 1_554
O17 W1 1.950112 1_555
O17 W0 2.043345 1_555
O18 W2 2.013296 1_544
O19 W2 1.996422 1_555
O20 W3 2.013296 1_454
O21 W3 1.996422 1_555
