# generated using pymatgen
data_Y2MgTiO6
_symmetry_space_group_name_H-M   'P 1'
_cell_length_a   5.63825400
_cell_length_b   5.34176800
_cell_length_c   9.36185386
_cell_angle_alpha   55.58334291
_cell_angle_beta   90.00000000
_cell_angle_gamma   90.00000000
_symmetry_Int_Tables_number   1
_chemical_formula_structural   Y2MgTiO6
_chemical_formula_sum   'Y4 Mg2 Ti2 O12'
_cell_volume   232.60483092
_cell_formula_units_Z   2
loop_
 _symmetry_equiv_pos_site_id
 _symmetry_equiv_pos_as_xyz
  1  'x, y, z'
loop_
 _atom_site_type_symbol
 _atom_site_label
 _atom_site_symmetry_multiplicity
 _atom_site_fract_x
 _atom_site_fract_y
 _atom_site_fract_z
 _atom_site_occupancy
  Y  Y0  1  0.06588300  0.72838700  0.75299400  1
  Y  Y1  1  0.93411700  0.27161300  0.24700600  1
  Y  Y2  1  0.56588300  0.27161300  0.74700600  1
  Y  Y3  1  0.43411700  0.72838700  0.25299400  1
  Mg  Mg0  1  0.50000000  0.50000000  0.00000000  1
  Mg  Mg1  1  0.00000000  0.50000000  0.50000000  1
  Ti  Ti0  1  0.50000000  0.00000000  0.50000000  1
  Ti  Ti1  1  0.00000000  0.00000000  0.00000000  1
  O  O0  1  0.45687100  0.87119000  0.74274700  1
  O  O1  1  0.54312900  0.12881000  0.25725300  1
  O  O2  1  0.95687100  0.12881000  0.75725300  1
  O  O3  1  0.04312900  0.87119000  0.24274700  1
  O  O4  1  0.79428500  0.74944300  0.56361600  1
  O  O5  1  0.20571500  0.25055700  0.43638400  1
  O  O6  1  0.29428500  0.25055700  0.93638400  1
  O  O7  1  0.70571500  0.74944300  0.06361600  1
  O  O8  1  0.31054800  0.64690600  0.55470300  1
  O  O9  1  0.68945200  0.35309400  0.44529700  1
  O  O10  1  0.81054800  0.35309400  0.94529700  1
  O  O11  1  0.18945200  0.64690600  0.05470300  1
loop_
_geom_bond_atom_site_label_1
_geom_bond_atom_site_label_2
_geom_bond_distance
_geom_bond_site_symmetry_2
Mg0 O7 2.091060 1_555
Mg0 O6 2.091060 1_554
Mg0 O1 2.095899 1_555
Mg0 O0 2.095899 1_554
Mg0 O11 2.097187 1_555
Mg0 O10 2.097187 1_554
Mg1 O5 2.091060 1_555
Mg1 O4 2.091060 1_455
Mg1 O2 2.095899 1_455
Mg1 O3 2.095899 1_555
Mg1 O8 2.097187 1_555
Mg1 O9 2.097187 1_455
O0 Ti0 1.982297 1_565
O0 Y2 2.247433 1_565
O0 Y0 2.316927 1_555
O1 Ti0 1.982297 1_555
O1 Y3 2.247433 1_545
O1 Y1 2.316927 1_555
O2 Ti1 1.982297 1_656
O2 Y0 2.247433 1_645
O2 Y2 2.316927 1_555
O3 Ti1 1.982297 1_565
O3 Y1 2.247433 1_465
O3 Y3 2.316927 1_555
O4 Ti0 1.999528 1_565
O4 Y0 2.296847 1_655
O4 Y2 2.483413 1_555
O4 Y1 2.800282 1_565
O5 Ti0 1.999528 1_555
O5 Y1 2.296847 1_455
O5 Y3 2.483413 1_555
O5 Y0 2.800282 1_545
O6 Ti1 1.999528 1_556
O6 Y2 2.296847 1_555
O6 Y0 2.483413 1_555
O6 Y3 2.800282 1_546
O7 Ti1 1.999528 1_665
O7 Y3 2.296847 1_555
O7 Y1 2.483413 1_555
O7 Y2 2.800282 1_564
O8 Ti0 1.966956 1_565
O8 Y2 2.291902 1_555
O8 Y0 2.540059 1_555
O8 Y3 2.695041 1_555
O9 Ti0 1.966956 1_555
O9 Y3 2.291902 1_555
O9 Y1 2.540059 1_555
O9 Y2 2.695041 1_555
O10 Ti1 1.966956 1_656
O10 Y0 2.291902 1_655
O10 Y2 2.540059 1_555
O10 Y1 2.695041 1_556
O11 Ti1 1.966956 1_565
O11 Y1 2.291902 1_455
O11 Y3 2.540059 1_555
O11 Y0 2.695041 1_554
