# generated using pymatgen
data_O2
_symmetry_space_group_name_H-M   'P 1'
_cell_length_a   3.04073200
_cell_length_b   6.19132400
_cell_length_c   9.42877106
_cell_angle_alpha   77.35990145
_cell_angle_beta   90.00000000
_cell_angle_gamma   90.00000000
_symmetry_Int_Tables_number   1
_chemical_formula_structural   O2
_chemical_formula_sum   O8
_cell_volume   173.20542633
_cell_formula_units_Z   4
loop_
 _symmetry_equiv_pos_site_id
 _symmetry_equiv_pos_as_xyz
  1  'x, y, z'
loop_
 _atom_site_type_symbol
 _atom_site_label
 _atom_site_symmetry_multiplicity
 _atom_site_fract_x
 _atom_site_fract_y
 _atom_site_fract_z
 _atom_site_occupancy
  O  O0_0  1  0.25000000  0.00000000  0.25000000  1
  O  O0_1  1  0.25000000  0.00000000  0.75000000  1
  O  O0_2  1  0.25000000  0.50000000  0.25000000  1
  O  O0_3  1  0.25000000  0.50000000  0.75000000  1
  O  O0_4  1  0.75000000  0.00000000  0.25000000  1
  O  O0_5  1  0.75000000  0.00000000  0.75000000  1
  O  O0_6  1  0.75000000  0.50000000  0.25000000  1
  O  O0_7  1  0.75000000  0.50000000  0.75000000  1
loop_
_geom_bond_atom_site_label_1
_geom_bond_atom_site_label_2
_geom_bond_distance
_geom_bond_site_symmetry_2
O0_0 O0_4 1.520366 1_455
O0_0 O0_4 1.520366 1_555
O0_1 O0_5 1.520366 1_455
O0_1 O0_5 1.520366 1_555
O0_2 O0_6 1.520366 1_455
O0_2 O0_6 1.520366 1_555
O0_3 O0_7 1.520366 1_455
O0_3 O0_7 1.520366 1_555
