# generated using pymatgen
data_Mn5Cu3(Te2O5)8
_symmetry_space_group_name_H-M   'P 1'
_cell_length_a   8.90551074
_cell_length_b   8.90551074
_cell_length_c   12.96278600
_cell_angle_alpha   90.00000000
_cell_angle_beta   90.00000000
_cell_angle_gamma   90.83714138
_symmetry_Int_Tables_number   1
_chemical_formula_structural   Mn5Cu3(Te2O5)8
_chemical_formula_sum   'Mn5 Cu3 Te16 O40'
_cell_volume   1027.94447709
_cell_formula_units_Z   1
loop_
 _symmetry_equiv_pos_site_id
 _symmetry_equiv_pos_as_xyz
  1  'x, y, z'
loop_
 _atom_site_type_symbol
 _atom_site_label
 _atom_site_symmetry_multiplicity
 _atom_site_fract_x
 _atom_site_fract_y
 _atom_site_fract_z
 _atom_site_occupancy
  Mn  Mn0  1  0.50000000  0.50000000  0.25071200  1
  Mn  Mn1  1  0.00000000  0.00000000  0.25061000  1
  Mn  Mn2  1  0.00000000  0.00000000  0.74939000  1
  Mn  Mn3  1  0.50000000  0.50000000  0.74928800  1
  Mn  Mn4  1  0.50000000  0.50000000  0.00000000  1
  Cu  Cu0  1  0.00000000  0.00000000  0.00000000  1
  Cu  Cu1  1  0.00000000  0.00000000  0.50000000  1
  Cu  Cu2  1  0.50000000  0.50000000  0.50000000  1
  Te  Te0  1  0.71316900  0.81761000  0.86719200  1
  Te  Te1  1  0.21260600  0.68425900  0.86634700  1
  Te  Te2  1  0.78739400  0.31574100  0.86634700  1
  Te  Te3  1  0.28683100  0.18239000  0.86719200  1
  Te  Te4  1  0.68199600  0.78654700  0.36779800  1
  Te  Te5  1  0.18170900  0.71447500  0.36802300  1
  Te  Te6  1  0.81829100  0.28552500  0.36802300  1
  Te  Te7  1  0.31800400  0.21345300  0.36779800  1
  Te  Te8  1  0.78654700  0.68199600  0.63220200  1
  Te  Te9  1  0.28552500  0.81829100  0.63197700  1
  Te  Te10  1  0.71447500  0.18170900  0.63197700  1
  Te  Te11  1  0.21345300  0.31800400  0.63220200  1
  Te  Te12  1  0.81761000  0.71316900  0.13280800  1
  Te  Te13  1  0.31574100  0.78739400  0.13365300  1
  Te  Te14  1  0.68425900  0.21260600  0.13365300  1
  Te  Te15  1  0.18239000  0.28683100  0.13280800  1
  O  O0  1  0.72858000  0.62652900  0.79836600  1
  O  O1  1  0.22762000  0.87516700  0.79710300  1
  O  O2  1  0.77238000  0.12483300  0.79710300  1
  O  O3  1  0.27142000  0.37347100  0.79836600  1
  O  O4  1  0.87247700  0.77042700  0.29784500  1
  O  O5  1  0.37260900  0.73203200  0.29924100  1
  O  O6  1  0.62739100  0.26796800  0.29924100  1
  O  O7  1  0.12752300  0.22957300  0.29784500  1
  O  O8  1  0.77042700  0.87247700  0.70215500  1
  O  O9  1  0.26796800  0.62739100  0.70075900  1
  O  O10  1  0.73203200  0.37260900  0.70075900  1
  O  O11  1  0.22957300  0.12752300  0.70215500  1
  O  O12  1  0.62652900  0.72858000  0.20163400  1
  O  O13  1  0.12483300  0.77238000  0.20289700  1
  O  O14  1  0.87516700  0.22762000  0.20289700  1
  O  O15  1  0.37347100  0.27142000  0.20163400  1
  O  O16  1  0.57920500  0.35478400  0.88250400  1
  O  O17  1  0.07762600  0.13786000  0.88836200  1
  O  O18  1  0.92237400  0.86214000  0.88836200  1
  O  O19  1  0.42079500  0.64521600  0.88250400  1
  O  O20  1  0.13734600  0.92315500  0.38811000  1
  O  O21  1  0.63668800  0.57724900  0.38783000  1
  O  O22  1  0.36331200  0.42275100  0.38783000  1
  O  O23  1  0.86265400  0.07684500  0.38811000  1
  O  O24  1  0.92315500  0.13734600  0.61189000  1
  O  O25  1  0.42275100  0.36331200  0.61217000  1
  O  O26  1  0.57724900  0.63668800  0.61217000  1
  O  O27  1  0.07684500  0.86265400  0.61189000  1
  O  O28  1  0.35478400  0.57920500  0.11749600  1
  O  O29  1  0.86214000  0.92237400  0.11163800  1
  O  O30  1  0.13786000  0.07762600  0.11163800  1
  O  O31  1  0.64521600  0.42079500  0.11749600  1
  O  O32  1  0.20149800  0.79850200  0.00000000  1
  O  O33  1  0.69666500  0.69666500  0.00000000  1
  O  O34  1  0.30333500  0.30333500  0.00000000  1
  O  O35  1  0.79850200  0.20149800  0.00000000  1
  O  O36  1  0.70184000  0.29816000  0.50000000  1
  O  O37  1  0.20109200  0.20109200  0.50000000  1
  O  O38  1  0.79890800  0.79890800  0.50000000  1
  O  O39  1  0.29816000  0.70184000  0.50000000  1
loop_
_geom_bond_atom_site_label_1
_geom_bond_atom_site_label_2
_geom_bond_distance
_geom_bond_site_symmetry_2
Mn0 O21 2.256063 1_555
Mn0 O22 2.256063 1_555
Mn0 O28 2.275660 1_555
Mn0 O31 2.275660 1_555
Mn0 O12 2.398157 1_555
Mn0 O15 2.398157 1_555
Mn0 O5 2.453801 1_555
Mn0 O6 2.453801 1_555
Mn1 O23 2.272826 1_455
Mn1 O20 2.272826 1_545
Mn1 O29 2.281589 1_445
Mn1 O30 2.281589 1_555
Mn1 O7 2.403459 1_555
Mn1 O4 2.403459 1_445
Mn1 O14 2.406925 1_455
Mn1 O13 2.406925 1_545
Mn2 O27 2.272826 1_545
Mn2 O24 2.272826 1_455
Mn2 O18 2.281589 1_445
Mn2 O17 2.281589 1_555
Mn2 O11 2.403459 1_555
Mn2 O8 2.403459 1_445
Mn2 O1 2.406925 1_545
Mn2 O2 2.406925 1_455
Mn3 O26 2.256063 1_555
Mn3 O25 2.256063 1_555
Mn3 O16 2.275660 1_555
Mn3 O19 2.275660 1_555
Mn3 O0 2.398157 1_555
Mn3 O3 2.398157 1_555
Mn3 O10 2.453801 1_555
Mn3 O9 2.453801 1_555
Mn4 O28 2.125176 1_555
Mn4 O31 2.125176 1_555
Mn4 O19 2.125176 1_554
Mn4 O16 2.125176 1_554
Mn4 O34 2.458696 1_555
Mn4 O33 2.458696 1_555
Cu0 O30 2.013601 1_555
Cu0 O29 2.013601 1_445
Cu0 O17 2.013601 1_554
Cu0 O18 2.013601 1_444
Cu0 O35 2.556196 1_455
Cu0 O32 2.556196 1_545
Cu1 O23 2.022999 1_455
Cu1 O20 2.022999 1_545
Cu1 O24 2.022999 1_455
Cu1 O27 2.022999 1_545
Cu1 O37 2.514043 1_555
Cu1 O38 2.514043 1_445
Cu2 O25 2.011163 1_555
Cu2 O22 2.011163 1_555
Cu2 O26 2.011163 1_555
Cu2 O21 2.011163 1_555
Cu2 O39 2.560535 1_555
Cu2 O36 2.560535 1_555
O0 Te0 1.928039 1_555
O0 Te8 2.267715 1_555
O1 Te1 1.925452 1_555
O1 Te9 2.260932 1_555
O2 Te2 1.925452 1_555
O2 Te10 2.260932 1_555
O3 Te3 1.928039 1_555
O3 Te11 2.267715 1_555
O4 Te4 1.930679 1_555
O4 Te12 2.251278 1_555
O5 Te5 1.924020 1_555
O5 Te13 2.261468 1_555
O6 Te6 1.924020 1_555
O6 Te14 2.261468 1_555
O7 Te7 1.930679 1_555
O7 Te15 2.251278 1_555
O8 Te8 1.930679 1_555
O8 Te0 2.251278 1_555
O9 Te9 1.924020 1_555
O9 Te1 2.261468 1_555
O10 Te10 1.924020 1_555
O10 Te2 2.261468 1_555
O11 Te11 1.930679 1_555
O11 Te3 2.251278 1_555
O12 Te12 1.928039 1_555
O12 Te4 2.267715 1_555
O13 Te13 1.925452 1_555
O13 Te5 2.260932 1_555
O14 Te14 1.925452 1_555
O14 Te6 2.260932 1_555
O15 Te15 1.928039 1_555
O15 Te7 2.267715 1_555
O16 Te2 1.902898 1_555
O17 Te3 1.918864 1_555
O18 Te0 1.918864 1_555
O19 Te1 1.902898 1_555
O20 Te5 1.923277 1_555
O21 Te4 1.918959 1_555
O22 Te7 1.918959 1_555
O23 Te6 1.923277 1_555
O24 Te10 1.923277 1_555
O25 Te11 1.918959 1_555
O26 Te8 1.918959 1_555
O27 Te9 1.923277 1_555
O28 Te13 1.902898 1_555
O29 Te12 1.918864 1_555
O30 Te15 1.918864 1_555
O31 Te14 1.902898 1_555
O32 Te13 2.012318 1_555
O32 Te1 2.012318 1_554
O33 Te0 2.034907 1_554
O33 Te12 2.034907 1_555
O34 Te15 2.034907 1_555
O34 Te3 2.034907 1_554
O35 Te14 2.012318 1_555
O35 Te2 2.012318 1_554
O36 Te10 2.004584 1_555
O36 Te6 2.004584 1_555
O37 Te7 2.007380 1_555
O37 Te11 2.007380 1_555
O38 Te4 2.007380 1_555
O38 Te8 2.007380 1_555
O39 Te5 2.004584 1_555
O39 Te9 2.004584 1_555
