# generated using pymatgen
data_Er3NiGe2
_symmetry_space_group_name_H-M   'P 1'
_cell_length_a   4.10566768
_cell_length_b   11.13978711
_cell_length_c   11.21153956
_cell_angle_alpha   90.00000000
_cell_angle_beta   90.00000000
_cell_angle_gamma   90.00000000
_symmetry_Int_Tables_number   1
_chemical_formula_structural   Er3NiGe2
_chemical_formula_sum   'Er12 Ni4 Ge8'
_cell_volume   512.77393204
_cell_formula_units_Z   4
loop_
 _symmetry_equiv_pos_site_id
 _symmetry_equiv_pos_as_xyz
  1  'x, y, z'
loop_
 _atom_site_type_symbol
 _atom_site_label
 _atom_site_symmetry_multiplicity
 _atom_site_fract_x
 _atom_site_fract_y
 _atom_site_fract_z
 _atom_site_occupancy
  Er  Er0  1  0.25000000  0.37288259  0.05836141  1
  Er  Er1  1  0.75000000  0.62711741  0.94163859  1
  Er  Er2  1  0.75000000  0.87288259  0.44163859  1
  Er  Er3  1  0.25000000  0.12711741  0.55836141  1
  Er  Er4  1  0.25000000  0.69783861  0.22059885  1
  Er  Er5  1  0.75000000  0.30216139  0.77940115  1
  Er  Er6  1  0.75000000  0.19783861  0.27940115  1
  Er  Er7  1  0.25000000  0.80216139  0.72059885  1
  Er  Er8  1  0.25000000  0.44416097  0.38072164  1
  Er  Er9  1  0.75000000  0.55583903  0.61927836  1
  Er  Er10  1  0.75000000  0.94416097  0.11927836  1
  Er  Er11  1  0.25000000  0.05583903  0.88072164  1
  Ni  Ni0  1  0.25000000  0.13370975  0.12893501  1
  Ni  Ni1  1  0.75000000  0.86629025  0.87106499  1
  Ni  Ni2  1  0.75000000  0.63370975  0.37106499  1
  Ni  Ni3  1  0.25000000  0.36629025  0.62893501  1
  Ge  Ge0  1  0.25000000  0.68755339  0.48288285  1
  Ge  Ge1  1  0.75000000  0.31244661  0.51711715  1
  Ge  Ge2  1  0.75000000  0.18755339  0.01711715  1
  Ge  Ge3  1  0.25000000  0.81244661  0.98288285  1
  Ge  Ge4  1  0.25000000  0.00416896  0.30763354  1
  Ge  Ge5  1  0.75000000  0.99583104  0.69236646  1
  Ge  Ge6  1  0.75000000  0.50416896  0.19236646  1
  Ge  Ge7  1  0.25000000  0.49583104  0.80763354  1
loop_
_geom_bond_atom_site_label_1
_geom_bond_atom_site_label_2
_geom_bond_distance
_geom_bond_site_symmetry_2
Er0 Ni0 2.779341 1_555
Er0 Ge6 2.934323 1_455
Er0 Ge6 2.934323 1_555
Er0 Ge2 2.947919 1_455
Er0 Ge2 2.947919 1_555
Er0 Ge7 3.126953 1_554
Er1 Ni1 2.779341 1_555
Er1 Ge7 2.934323 1_555
Er1 Ge7 2.934323 1_655
Er1 Ge3 2.947919 1_555
Er1 Ge3 2.947919 1_655
Er1 Ge6 3.126953 1_556
Er2 Ni2 2.779341 1_555
Er2 Ge4 2.934323 1_565
Er2 Ge4 2.934323 1_665
Er2 Ge0 2.947919 1_555
Er2 Ge0 2.947919 1_655
Er2 Ge5 3.126953 1_555
Er3 Ni3 2.779341 1_555
Er3 Ge5 2.934323 1_445
Er3 Ge5 2.934323 1_545
Er3 Ge1 2.947919 1_455
Er3 Ge1 2.947919 1_555
Er3 Ge4 3.126953 1_555
Er4 Ni2 2.751416 1_555
Er4 Ni2 2.751416 1_455
Er4 Ge0 2.942839 1_555
Er4 Ge3 2.955178 1_554
Er4 Ge6 2.994805 1_455
Er4 Ge6 2.994805 1_555
Er4 Ge4 3.549228 1_565
Er5 Ni3 2.751416 1_655
Er5 Ni3 2.751416 1_555
Er5 Ge1 2.942839 1_555
Er5 Ge2 2.955178 1_556
Er5 Ge7 2.994805 1_555
Er5 Ge7 2.994805 1_655
Er5 Ge5 3.549228 1_545
Er6 Ni0 2.751416 1_655
Er6 Ni0 2.751416 1_555
Er6 Ge2 2.942839 1_555
Er6 Ge1 2.955178 1_555
Er6 Ge4 2.994805 1_655
Er6 Ge4 2.994805 1_555
Er6 Ge6 3.549228 1_555
Er7 Ni1 2.751416 1_555
Er7 Ni1 2.751416 1_455
Er7 Ge3 2.942839 1_555
Er7 Ge0 2.955178 1_555
Er7 Ge5 2.994805 1_455
Er7 Ge5 2.994805 1_555
Er7 Ge7 3.549228 1_555
Er8 Ni3 2.914922 1_555
Er8 Ge0 2.943343 1_555
Er8 Ni2 2.946934 1_555
Er8 Ni2 2.946934 1_455
Er8 Ge1 2.950504 1_455
Er8 Ge1 2.950504 1_555
Er8 Ge6 3.020014 1_555
Er8 Ge6 3.020014 1_455
Er9 Ni2 2.914922 1_555
Er9 Ge1 2.943343 1_555
Er9 Ni3 2.946934 1_655
Er9 Ni3 2.946934 1_555
Er9 Ge0 2.950504 1_555
Er9 Ge0 2.950504 1_655
Er9 Ge7 3.020014 1_555
Er9 Ge7 3.020014 1_655
Er10 Ni1 2.914922 1_554
Er10 Ge2 2.943343 1_565
Er10 Ni0 2.946934 1_665
Er10 Ni0 2.946934 1_565
Er10 Ge3 2.950504 1_654
Er10 Ge3 2.950504 1_554
Er10 Ge4 3.020014 1_665
Er10 Ge4 3.020014 1_565
Er11 Ni0 2.914922 1_556
Er11 Ge3 2.943343 1_545
Er11 Ni1 2.946934 1_445
Er11 Ni1 2.946934 1_545
Er11 Ge2 2.950504 1_556
Er11 Ge2 2.950504 1_456
Er11 Ge5 3.020014 1_445
Er11 Ge5 3.020014 1_545
Ge0 Ni2 2.479019 1_455
Ge0 Ni2 2.479019 1_555
Ge1 Ni3 2.479019 1_655
Ge1 Ni3 2.479019 1_555
Ge2 Ni0 2.479019 1_555
Ge2 Ni0 2.479019 1_655
Ge3 Ni1 2.479019 1_455
Ge3 Ni1 2.479019 1_555
Ge4 Ni0 2.469082 1_555
Ge5 Ni1 2.469082 1_555
Ge6 Ni2 2.469082 1_555
Ge7 Ni3 2.469082 1_555
