# generated using pymatgen
data_Li9Mn2Co5O16
_symmetry_space_group_name_H-M   'P 1'
_cell_length_a   5.81096200
_cell_length_b   5.84323500
_cell_length_c   8.47346952
_cell_angle_alpha   89.68565656
_cell_angle_beta   90.00000000
_cell_angle_gamma   90.00000000
_symmetry_Int_Tables_number   1
_chemical_formula_structural   Li9Mn2Co5O16
_chemical_formula_sum   'Li9 Mn2 Co5 O16'
_cell_volume   287.71077311
_cell_formula_units_Z   1
loop_
 _symmetry_equiv_pos_site_id
 _symmetry_equiv_pos_as_xyz
  1  'x, y, z'
loop_
 _atom_site_type_symbol
 _atom_site_label
 _atom_site_symmetry_multiplicity
 _atom_site_fract_x
 _atom_site_fract_y
 _atom_site_fract_z
 _atom_site_occupancy
  Li  Li0  1  0.25052300  0.00000000  0.50000000  1
  Li  Li1  1  0.25349800  0.50000000  0.00000000  1
  Li  Li2  1  0.50101400  0.74698100  0.74129200  1
  Li  Li3  1  0.50101400  0.25301900  0.25870800  1
  Li  Li4  1  0.74618100  0.50000000  0.00000000  1
  Li  Li5  1  0.74759900  0.00000000  0.50000000  1
  Li  Li6  1  0.99833700  0.25416600  0.25718400  1
  Li  Li7  1  0.99833700  0.74583400  0.74281600  1
  Li  Li8  1  0.74637700  0.50000000  0.50000000  1
  Mn  Mn0  1  0.00258500  0.74509200  0.25220200  1
  Mn  Mn1  1  0.00258500  0.25490800  0.74779800  1
  Co  Co0  1  0.24901900  0.50000000  0.50000000  1
  Co  Co1  1  0.25561900  0.00000000  0.00000000  1
  Co  Co2  1  0.50496100  0.25825100  0.74308000  1
  Co  Co3  1  0.50496100  0.74174900  0.25692000  1
  Co  Co4  1  0.74816900  0.00000000  0.00000000  1
  O  O0  1  0.24778800  0.97724100  0.24321600  1
  O  O1  1  0.23636200  0.48559800  0.75773500  1
  O  O2  1  0.47929300  0.73135800  0.49013600  1
  O  O3  1  0.50199800  0.23220800  0.99848700  1
  O  O4  1  0.75279400  0.47531600  0.75415300  1
  O  O5  1  0.76412000  0.98576900  0.24912200  1
  O  O6  1  0.99979000  0.23317600  0.98173000  1
  O  O7  1  0.01246600  0.73402200  0.47822400  1
  O  O8  1  0.24778800  0.02275900  0.75678400  1
  O  O9  1  0.23636200  0.51440200  0.24226500  1
  O  O10  1  0.50199800  0.76779200  0.00151300  1
  O  O11  1  0.47929300  0.26864200  0.50986400  1
  O  O12  1  0.75279400  0.52468400  0.24584700  1
  O  O13  1  0.76412000  0.01423100  0.75087800  1
  O  O14  1  0.01246600  0.26597800  0.52177600  1
  O  O15  1  0.99979000  0.76682400  0.01827000  1
loop_
_geom_bond_atom_site_label_1
_geom_bond_atom_site_label_2
_geom_bond_distance
_geom_bond_site_symmetry_2
Li0 O11 2.059063 1_555
Li0 O2 2.059063 1_545
Li0 O14 2.089563 1_555
Li0 O7 2.089563 1_545
Li0 O0 2.180698 1_545
Li0 O8 2.180698 1_555
Li1 O1 2.057422 1_554
Li1 O9 2.057422 1_555
Li1 O3 2.129343 1_554
Li1 O10 2.129343 1_555
Li1 O6 2.151971 1_454
Li1 O15 2.151971 1_455
Li2 O2 2.134355 1_555
Li2 O4 2.161120 1_555
Li2 O1 2.171376 1_555
Li2 O8 2.186676 1_565
Li2 O13 2.187266 1_565
Li2 O10 2.208999 1_556
Li3 O11 2.134355 1_555
Li3 O12 2.161120 1_555
Li3 O9 2.171376 1_555
Li3 O0 2.186676 1_545
Li3 O5 2.187266 1_545
Li3 O3 2.208999 1_554
Li4 O12 2.089307 1_555
Li4 O4 2.089307 1_554
Li4 O3 2.112411 1_554
Li4 O10 2.112411 1_555
Li4 O15 2.151577 1_555
Li4 O6 2.151577 1_554
Li5 O5 2.130053 1_545
Li5 O13 2.130053 1_555
Li5 O7 2.195808 1_645
Li5 O14 2.195808 1_655
Li5 O2 2.214350 1_545
Li5 O11 2.214350 1_555
Li6 O9 2.058949 1_655
Li6 O5 2.077937 1_545
Li6 O12 2.131209 1_555
Li6 O0 2.176161 1_645
Li6 O14 2.244955 1_655
Li6 O6 2.337958 1_554
Li7 O1 2.058949 1_655
Li7 O13 2.077937 1_565
Li7 O4 2.131209 1_555
Li7 O8 2.176161 1_665
Li7 O7 2.244955 1_655
Li7 O15 2.337958 1_556
Li8 O2 2.059630 1_555
Li8 O11 2.059630 1_555
Li8 O7 2.071720 1_655
Li8 O14 2.071720 1_655
Li8 O4 2.157915 1_555
Li8 O12 2.157915 1_555
Mn0 O9 1.915937 1_555
Mn0 O7 1.916788 1_555
Mn0 O12 1.941459 1_455
Mn0 O0 1.968502 1_555
Mn0 O5 1.974397 1_455
Mn0 O15 1.985650 1_455
Mn1 O1 1.915937 1_555
Mn1 O14 1.916788 1_555
Mn1 O4 1.941459 1_455
Mn1 O8 1.968502 1_555
Mn1 O13 1.974397 1_455
Mn1 O6 1.985650 1_455
Co0 O2 1.903647 1_555
Co0 O11 1.903647 1_555
Co0 O7 1.946975 1_555
Co0 O14 1.946975 1_555
Co0 O9 2.186307 1_555
Co0 O1 2.186307 1_555
Co1 O10 1.972503 1_545
Co1 O3 1.972503 1_554
Co1 O6 2.021900 1_454
Co1 O15 2.021900 1_445
Co1 O0 2.064943 1_545
Co1 O8 2.064943 1_554
Co2 O4 1.921686 1_555
Co2 O11 1.982368 1_555
Co2 O8 2.034331 1_555
Co2 O1 2.053812 1_555
Co2 O13 2.074693 1_555
Co2 O3 2.168762 1_555
Co3 O12 1.921686 1_555
Co3 O2 1.982368 1_555
Co3 O0 2.034331 1_555
Co3 O9 2.053812 1_555
Co3 O5 2.074693 1_555
Co3 O10 2.168762 1_555
Co4 O3 1.971625 1_554
Co4 O10 1.971625 1_545
Co4 O6 2.003990 1_554
Co4 O15 2.003990 1_545
Co4 O13 2.114142 1_554
Co4 O5 2.114142 1_545
