# generated using pymatgen
data_Tb3S
_symmetry_space_group_name_H-M   'P 1'
_cell_length_a   4.60829600
_cell_length_b   4.60829600
_cell_length_c   4.60829600
_cell_angle_alpha   90.00000000
_cell_angle_beta   90.00000000
_cell_angle_gamma   90.00000000
_symmetry_Int_Tables_number   1
_chemical_formula_structural   Tb3S
_chemical_formula_sum   'Tb3 S1'
_cell_volume   97.86358042
_cell_formula_units_Z   1
loop_
 _symmetry_equiv_pos_site_id
 _symmetry_equiv_pos_as_xyz
  1  'x, y, z'
loop_
 _atom_site_type_symbol
 _atom_site_label
 _atom_site_symmetry_multiplicity
 _atom_site_fract_x
 _atom_site_fract_y
 _atom_site_fract_z
 _atom_site_occupancy
  Tb  Tb0  1  0.00000000  0.50000000  0.50000000  1
  Tb  Tb1  1  0.50000000  0.00000000  0.50000000  1
  Tb  Tb2  1  0.50000000  0.50000000  0.00000000  1
  S  S0  1  0.00000000  0.00000000  0.00000000  1
loop_
_geom_bond_atom_site_label_1
_geom_bond_atom_site_label_2
_geom_bond_distance
_geom_bond_site_symmetry_2
S0 Tb0 3.258557 1_544
S0 Tb1 3.258557 1_554
S0 Tb1 3.258557 1_555
S0 Tb2 3.258557 1_455
S0 Tb2 3.258557 1_545
S0 Tb2 3.258557 1_555
S0 Tb0 3.258557 1_555
S0 Tb2 3.258557 1_445
S0 Tb0 3.258557 1_554
S0 Tb0 3.258557 1_545
S0 Tb1 3.258557 1_455
S0 Tb1 3.258557 1_454
