# generated using pymatgen
data_Sm3MgBi(Ru2O7)2
_symmetry_space_group_name_H-M   'P 1'
_cell_length_a   7.46515951
_cell_length_b   7.46329051
_cell_length_c   7.34340459
_cell_angle_alpha   89.99636035
_cell_angle_beta   59.44379480
_cell_angle_gamma   119.99750761
_symmetry_Int_Tables_number   1
_chemical_formula_structural   Sm3MgBi(Ru2O7)2
_chemical_formula_sum   'Sm3 Mg1 Bi1 Ru4 O14'
_cell_volume   286.84779623
_cell_formula_units_Z   1
loop_
 _symmetry_equiv_pos_site_id
 _symmetry_equiv_pos_as_xyz
  1  'x, y, z'
loop_
 _atom_site_type_symbol
 _atom_site_label
 _atom_site_symmetry_multiplicity
 _atom_site_fract_x
 _atom_site_fract_y
 _atom_site_fract_z
 _atom_site_occupancy
  Sm  Sm0  1  0.23552816  0.35574830  0.40893458  1
  Sm  Sm1  1  0.23537895  0.87993990  0.40930088  1
  Sm  Sm2  1  0.71170386  0.35617835  0.40791226  1
  Mg  Mg0  1  0.28143747  0.64085632  0.07801984  1
  Bi  Bi0  1  0.74069236  0.37021098  0.88689774  1
  Ru  Ru0  1  0.75549528  0.87797091  0.36688802  1
  Ru  Ru1  1  0.24048518  0.88230309  0.87743772  1
  Ru  Ru2  1  0.24054112  0.35863441  0.87739797  1
  Ru  Ru3  1  0.76441090  0.88238332  0.87747963  1
  O  O0  1  0.50301406  0.25161535  0.24492934  1
  O  O1  1  0.05667092  0.52847640  0.41491259  1
  O  O2  1  0.92726703  0.96384700  0.53945911  1
  O  O3  1  0.49717073  0.53372873  0.53925881  1
  O  O4  1  0.49716963  0.96397350  0.53939017  1
  O  O5  1  0.06882234  0.53466548  0.96904235  1
  O  O6  1  0.49704590  0.96287560  0.96858676  1
  O  O7  1  0.49698590  0.53462787  0.96872633  1
  O  O8  1  0.59575943  0.79818257  0.20538987  1
  O  O9  1  0.99692059  0.19918013  0.20539417  1
  O  O10  1  0.99693805  0.79816114  0.20534561  1
  O  O11  1  0.40965145  0.20499927  0.79918416  1
  O  O12  1  0.99600177  0.79155170  0.79955491  1
  O  O13  1  0.99597892  0.20488968  0.79944520  1
loop_
_geom_bond_atom_site_label_1
_geom_bond_atom_site_label_2
_geom_bond_distance
_geom_bond_site_symmetry_2
Mg0 O5 1.954866 1_554
Mg0 O7 1.955638 1_554
Mg0 O6 1.956794 1_554
Mg0 O1 2.002775 1_555
Bi0 O0 2.128454 1_556
Bi0 O6 2.504283 1_545
Bi0 O7 2.509491 1_555
Bi0 O5 2.523249 1_655
Bi0 O11 2.571788 1_555
Bi0 O13 2.583333 1_555
Bi0 O12 2.587716 1_555
Bi0 O1 2.805891 1_655
O0 Sm0 2.269021 1_555
O0 Sm2 2.269095 1_555
O0 Sm1 2.269183 1_545
O1 Sm1 2.259856 1_555
O1 Sm0 2.260093 1_555
O1 Sm2 2.260836 1_455
O2 Ru3 2.049748 1_555
O2 Ru0 2.119338 1_555
O2 Sm0 2.407466 1_665
O2 Sm1 2.408575 1_655
O3 Ru2 2.050144 1_555
O3 Ru0 2.117855 1_555
O3 Sm0 2.408695 1_555
O3 Sm2 2.408878 1_555
O4 Ru1 2.049658 1_555
O4 Ru0 2.118850 1_555
O4 Sm1 2.407903 1_555
O4 Sm2 2.409381 1_565
O5 Ru1 2.150568 1_555
O5 Ru2 2.151544 1_555
O5 Sm2 2.642110 1_456
O6 Ru1 2.151688 1_555
O6 Ru3 2.152546 1_555
O6 Sm1 2.652485 1_556
O7 Ru3 2.151569 1_555
O7 Ru2 2.152015 1_555
O7 Sm0 2.649603 1_556
O8 Ru3 1.975995 1_554
O8 Ru0 1.977617 1_555
O8 Sm1 2.719887 1_555
O8 Sm0 2.720762 1_555
O9 Ru2 1.976552 1_654
O9 Ru0 1.976805 1_545
O9 Sm2 2.719072 1_555
O9 Sm0 2.719985 1_655
O10 Ru1 1.976102 1_654
O10 Ru0 1.977452 1_555
O10 Sm2 2.717225 1_555
O10 Sm1 2.721863 1_655
O11 Ru1 1.986468 1_545
O11 Ru2 1.987119 1_555
O11 Sm2 2.341218 1_555
O12 Ru3 1.985455 1_555
O12 Ru1 1.985491 1_655
O12 Sm1 2.335655 1_655
O13 Ru3 1.985505 1_545
O13 Ru2 1.986318 1_655
O13 Sm0 2.336942 1_655
