# generated using pymatgen
data_Zn2CrN3
_symmetry_space_group_name_H-M   'P 1'
_cell_length_a   5.49768472
_cell_length_b   5.49768472
_cell_length_c   5.17426101
_cell_angle_alpha   89.99982184
_cell_angle_beta   89.99982184
_cell_angle_gamma   119.54436836
_symmetry_Int_Tables_number   1
_chemical_formula_structural   Zn2CrN3
_chemical_formula_sum   'Zn4 Cr2 N6'
_cell_volume   136.05494278
_cell_formula_units_Z   2
loop_
 _symmetry_equiv_pos_site_id
 _symmetry_equiv_pos_as_xyz
  1  'x, y, z'
loop_
 _atom_site_type_symbol
 _atom_site_label
 _atom_site_symmetry_multiplicity
 _atom_site_fract_x
 _atom_site_fract_y
 _atom_site_fract_z
 _atom_site_occupancy
  Zn  Zn0  1  0.17017944  0.49776451  0.52832977  1
  Zn  Zn1  1  0.49776451  0.17017944  0.52832977  1
  Zn  Zn2  1  0.82981557  0.50223980  0.02832777  1
  Zn  Zn3  1  0.50223980  0.82981557  0.02832777  1
  Cr  Cr0  1  0.16645262  0.16645262  0.04215177  1
  Cr  Cr1  1  0.83355275  0.83355275  0.54214791  1
  N  N0  1  0.16351437  0.47083625  0.13608102  1
  N  N1  1  0.47083625  0.16351437  0.13608102  1
  N  N2  1  0.83647764  0.52917213  0.63607688  1
  N  N3  1  0.52917213  0.83647764  0.63607688  1
  N  N4  1  0.14047237  0.14047237  0.68464744  1
  N  N5  1  0.85952056  0.85952056  0.18466400  1
loop_
_geom_bond_atom_site_label_1
_geom_bond_atom_site_label_2
_geom_bond_distance
_geom_bond_site_symmetry_2
Cr0 N1 1.750263 1_555
Cr0 N0 1.750263 1_555
Cr0 N5 1.852138 1_445
Cr0 N4 1.855404 1_554
Cr1 N3 1.750208 1_555
Cr1 N2 1.750208 1_555
Cr1 N4 1.852057 1_665
Cr1 N5 1.855291 1_555
N0 Zn2 2.004664 1_455
N0 Zn3 2.012248 1_555
N0 Zn0 2.034005 1_555
N1 Zn3 2.004664 1_545
N1 Zn2 2.012248 1_555
N1 Zn1 2.034005 1_555
N2 Zn0 2.004680 1_655
N2 Zn1 2.012254 1_555
N2 Zn2 2.034017 1_556
N3 Zn1 2.004680 1_565
N3 Zn0 2.012254 1_555
N3 Zn3 2.034017 1_556
N4 Zn0 2.054965 1_555
N4 Zn1 2.054965 1_555
N5 Zn3 2.054956 1_555
N5 Zn2 2.054956 1_555
