# generated using pymatgen
data_LuFe2
_symmetry_space_group_name_H-M   'P 1'
_cell_length_a   5.06400003
_cell_length_b   5.06400003
_cell_length_c   8.24055300
_cell_angle_alpha   90.00000000
_cell_angle_beta   90.00000000
_cell_angle_gamma   119.98829415
_symmetry_Int_Tables_number   1
_chemical_formula_structural   LuFe2
_chemical_formula_sum   'Lu4 Fe8'
_cell_volume   183.03140096
_cell_formula_units_Z   4
loop_
 _symmetry_equiv_pos_site_id
 _symmetry_equiv_pos_as_xyz
  1  'x, y, z'
loop_
 _atom_site_type_symbol
 _atom_site_label
 _atom_site_symmetry_multiplicity
 _atom_site_fract_x
 _atom_site_fract_y
 _atom_site_fract_z
 _atom_site_occupancy
  Lu  Lu0  1  0.66669800  0.33330200  0.56228500  1
  Lu  Lu1  1  0.33330200  0.66669800  0.43771500  1
  Lu  Lu2  1  0.33330200  0.66669800  0.06228500  1
  Lu  Lu3  1  0.66669800  0.33330200  0.93771500  1
  Fe  Fe0  1  0.00000000  0.00000000  0.50000000  1
  Fe  Fe1  1  0.00000000  0.00000000  0.00000000  1
  Fe  Fe2  1  0.16691400  0.33380100  0.75000000  1
  Fe  Fe3  1  0.16689300  0.83310700  0.75000000  1
  Fe  Fe4  1  0.66619900  0.83308600  0.75000000  1
  Fe  Fe5  1  0.83308600  0.66619900  0.25000000  1
  Fe  Fe6  1  0.83310700  0.16689300  0.25000000  1
  Fe  Fe7  1  0.33380100  0.16691400  0.25000000  1
loop_
_geom_bond_atom_site_label_1
_geom_bond_atom_site_label_2
_geom_bond_distance
_geom_bond_site_symmetry_2
Fe0 Fe3 2.527199 1_545
Fe0 Fe6 2.527199 1_455
Fe0 Fe2 2.527387 1_555
Fe0 Fe7 2.527387 1_555
Fe0 Fe5 2.527387 1_445
Fe0 Fe4 2.527387 1_445
Fe0 Lu0 2.967972 1_455
Fe0 Lu1 2.967972 1_545
Fe0 Lu0 2.968887 1_555
Fe0 Lu0 2.968887 1_445
Fe0 Lu1 2.968887 1_445
Fe0 Lu1 2.968887 1_555
Fe1 Fe3 2.527199 1_544
Fe1 Fe6 2.527199 1_455
Fe1 Fe7 2.527387 1_555
Fe1 Fe2 2.527387 1_554
Fe1 Fe5 2.527387 1_445
Fe1 Fe4 2.527387 1_444
Fe1 Lu2 2.967972 1_545
Fe1 Lu3 2.967972 1_454
Fe1 Lu2 2.968887 1_555
Fe1 Lu2 2.968887 1_445
Fe1 Lu3 2.968887 1_444
Fe1 Lu3 2.968887 1_554
Fe2 Fe3 2.528539 1_555
Fe2 Fe4 2.528827 1_555
Fe2 Fe3 2.535461 1_545
Fe2 Fe4 2.536069 1_445
Fe2 Lu2 2.958769 1_556
Fe2 Lu1 2.958769 1_555
Fe2 Lu3 2.966984 1_455
Fe2 Lu0 2.966984 1_455
Fe2 Lu3 2.967273 1_555
Fe2 Lu0 2.967273 1_555
Fe3 Fe4 2.528539 1_555
Fe3 Fe4 2.535461 1_455
Fe3 Lu2 2.958470 1_556
Fe3 Lu1 2.958470 1_555
Fe3 Lu3 2.967511 1_455
Fe3 Lu0 2.967511 1_455
Fe3 Lu3 2.967511 1_565
Fe3 Lu0 2.967511 1_565
Fe4 Lu2 2.958769 1_556
Fe4 Lu1 2.958769 1_555
Fe4 Lu3 2.966984 1_565
Fe4 Lu0 2.966984 1_565
Fe4 Lu3 2.967273 1_555
Fe4 Lu0 2.967273 1_555
Fe5 Fe6 2.528539 1_555
Fe5 Fe7 2.528827 1_555
Fe5 Fe6 2.535461 1_565
Fe5 Fe7 2.536069 1_665
Fe5 Lu0 2.958769 1_555
Fe5 Lu3 2.958769 1_554
Fe5 Lu1 2.966984 1_655
Fe5 Lu2 2.966984 1_655
Fe5 Lu1 2.967273 1_555
Fe5 Lu2 2.967273 1_555
Fe6 Fe7 2.528539 1_555
Fe6 Fe7 2.535461 1_655
Fe6 Lu0 2.958470 1_555
Fe6 Lu3 2.958470 1_554
Fe6 Lu1 2.967511 1_545
Fe6 Lu2 2.967511 1_545
Fe6 Lu1 2.967511 1_655
Fe6 Lu2 2.967511 1_655
Fe7 Lu0 2.958769 1_555
Fe7 Lu3 2.958769 1_554
Fe7 Lu1 2.966984 1_545
Fe7 Lu2 2.966984 1_545
Fe7 Lu1 2.967273 1_555
Fe7 Lu2 2.967273 1_555
