# generated using pymatgen
data_CaCeMnO4
_symmetry_space_group_name_H-M   'P 1'
_cell_length_a   5.43135543
_cell_length_b   5.43135543
_cell_length_c   13.18981360
_cell_angle_alpha   78.11827639
_cell_angle_beta   78.11827639
_cell_angle_gamma   90.00000000
_symmetry_Int_Tables_number   1
_chemical_formula_structural   CaCeMnO4
_chemical_formula_sum   'Ca4 Ce4 Mn4 O16'
_cell_volume   372.23493389
_cell_formula_units_Z   4
loop_
 _symmetry_equiv_pos_site_id
 _symmetry_equiv_pos_as_xyz
  1  'x, y, z'
loop_
 _atom_site_type_symbol
 _atom_site_label
 _atom_site_symmetry_multiplicity
 _atom_site_fract_x
 _atom_site_fract_y
 _atom_site_fract_z
 _atom_site_occupancy
  Ca  Ca0  1  0.30106240  0.55106240  0.39787519  1
  Ca  Ca1  1  0.55106240  0.30106240  0.89787519  1
  Ca  Ca2  1  0.19893760  0.94893760  0.60212481  1
  Ca  Ca3  1  0.94893760  0.19893760  0.10212481  1
  Ce  Ce0  1  0.80369721  0.05369721  0.39260559  1
  Ce  Ce1  1  0.05369721  0.80369721  0.89260559  1
  Ce  Ce2  1  0.69630279  0.44630279  0.60739441  1
  Ce  Ce3  1  0.44630279  0.69630279  0.10739441  1
  Mn  Mn0  1  0.12500000  0.37500000  0.75000000  1
  Mn  Mn1  1  0.62500000  0.87500000  0.75000000  1
  Mn  Mn2  1  0.37500000  0.12500000  0.25000000  1
  Mn  Mn3  1  0.87500000  0.62500000  0.25000000  1
  O  O0  1  0.21096812  0.46096812  0.57806376  1
  O  O1  1  0.71631557  0.96631557  0.56736885  1
  O  O2  1  0.46096812  0.21096812  0.07806376  1
  O  O3  1  0.96631557  0.71631557  0.06736885  1
  O  O4  1  0.78368443  0.53368443  0.43263115  1
  O  O5  1  0.28903188  0.03903188  0.42193624  1
  O  O6  1  0.53368443  0.78368443  0.93263115  1
  O  O7  1  0.03903188  0.28903188  0.92193624  1
  O  O8  1  0.05765246  0.31781155  0.25300611  1
  O  O9  1  0.18218845  0.81065857  0.24699389  1
  O  O10  1  0.31781155  0.05765246  0.75300611  1
  O  O11  1  0.44234754  0.57081766  0.74699389  1
  O  O12  1  0.92918234  0.68934143  0.75300611  1
  O  O13  1  0.81065857  0.18218845  0.74699389  1
  O  O14  1  0.68934143  0.92918234  0.25300611  1
  O  O15  1  0.57081766  0.44234754  0.24699389  1
loop_
_geom_bond_atom_site_label_1
_geom_bond_atom_site_label_2
_geom_bond_distance
_geom_bond_site_symmetry_2
Ca0 O0 2.273673 1_555
Ca0 O9 2.395617 1_555
Ca0 O15 2.395617 1_555
Ca0 O5 2.732597 1_555
Ca0 O5 2.732597 1_565
Ca0 O4 2.750862 1_455
Ca0 O4 2.750862 1_555
Ca1 O2 2.273673 1_556
Ca1 O13 2.395617 1_555
Ca1 O11 2.395617 1_555
Ca1 O7 2.732597 1_555
Ca1 O7 2.732597 1_655
Ca1 O6 2.750862 1_545
Ca1 O6 2.750862 1_555
Ca2 O5 2.273673 1_565
Ca2 O10 2.395617 1_565
Ca2 O12 2.395617 1_455
Ca2 O0 2.732597 1_565
Ca2 O0 2.732597 1_555
Ca2 O1 2.750862 1_555
Ca2 O1 2.750862 1_455
Ca3 O7 2.273673 1_654
Ca3 O8 2.395617 1_655
Ca3 O14 2.395617 1_545
Ca3 O2 2.732597 1_655
Ca3 O2 2.732597 1_555
Ca3 O3 2.750862 1_555
Ca3 O3 2.750862 1_545
Ce0 O1 2.205214 1_545
Ce0 O8 2.284116 1_655
Ce0 O14 2.284117 1_545
Ce0 O5 2.740781 1_655
Ce0 O5 2.740781 1_555
Ce0 O4 2.762243 1_545
Ce0 O4 2.762243 1_555
Ce1 O3 2.205214 1_456
Ce1 O10 2.284116 1_565
Ce1 O12 2.284117 1_455
Ce1 O7 2.740781 1_565
Ce1 O7 2.740781 1_555
Ce1 O6 2.762243 1_455
Ce1 O6 2.762243 1_555
Ce2 O4 2.205214 1_555
Ce2 O13 2.284117 1_555
Ce2 O11 2.284117 1_555
Ce2 O0 2.740781 1_555
Ce2 O0 2.740781 1_655
Ce2 O1 2.762243 1_555
Ce2 O1 2.762243 1_545
Ce3 O6 2.205214 1_554
Ce3 O9 2.284117 1_555
Ce3 O15 2.284117 1_555
Ce3 O2 2.740781 1_555
Ce3 O2 2.740781 1_565
Ce3 O3 2.762243 1_555
Ce3 O3 2.762243 1_455
Mn0 O11 2.014474 1_555
Mn0 O10 2.014474 1_555
Mn0 O12 2.014474 1_455
Mn0 O13 2.014474 1_455
Mn0 O0 2.169542 1_555
Mn0 O7 2.169542 1_555
Mn1 O13 1.938664 1_565
Mn1 O10 1.938664 1_565
Mn1 O12 1.938664 1_555
Mn1 O11 1.938664 1_555
Mn1 O1 2.304494 1_555
Mn1 O6 2.304494 1_555
Mn2 O15 2.014474 1_555
Mn2 O8 2.014474 1_555
Mn2 O14 2.014474 1_545
Mn2 O9 2.014474 1_545
Mn2 O2 2.169542 1_555
Mn2 O5 2.169542 1_555
Mn3 O9 1.938664 1_655
Mn3 O8 1.938664 1_655
Mn3 O14 1.938664 1_555
Mn3 O15 1.938664 1_555
Mn3 O3 2.304494 1_555
Mn3 O4 2.304494 1_555
