# generated using pymatgen
data_Fe14Cu7(PO4)18
_symmetry_space_group_name_H-M   'P 1'
_cell_length_a   9.89190200
_cell_length_b   12.87022619
_cell_length_c   11.13135927
_cell_angle_alpha   70.88029026
_cell_angle_beta   101.28676148
_cell_angle_gamma   107.72925321
_symmetry_Int_Tables_number   1
_chemical_formula_structural   Fe14Cu7(PO4)18
_chemical_formula_sum   'Fe14 Cu7 P18 O72'
_cell_volume   1268.10360015
_cell_formula_units_Z   1
loop_
 _symmetry_equiv_pos_site_id
 _symmetry_equiv_pos_as_xyz
  1  'x, y, z'
loop_
 _atom_site_type_symbol
 _atom_site_label
 _atom_site_symmetry_multiplicity
 _atom_site_fract_x
 _atom_site_fract_y
 _atom_site_fract_z
 _atom_site_occupancy
  Fe  Fe0  1  0.98431200  0.86801100  0.53321100  1
  Fe  Fe1  1  0.65106600  0.53473000  0.19914300  1
  Fe  Fe2  1  0.31770300  0.20104200  0.86661200  1
  Fe  Fe3  1  0.34893400  0.46527000  0.80085700  1
  Fe  Fe4  1  0.01568900  0.13198900  0.46678900  1
  Fe  Fe5  1  0.68229700  0.79895800  0.13338800  1
  Fe  Fe6  1  0.09771500  0.57313300  0.37701000  1
  Fe  Fe7  1  0.76449900  0.23972100  0.04371900  1
  Fe  Fe8  1  0.43075800  0.90633100  0.71059900  1
  Fe  Fe9  1  0.23550100  0.76027900  0.95628100  1
  Fe  Fe10  1  0.90228500  0.42686700  0.62299000  1
  Fe  Fe11  1  0.56924200  0.09366900  0.28940100  1
  Fe  Fe12  1  0.66663900  0.66644100  0.66684100  1
  Fe  Fe13  1  0.33336100  0.33355900  0.33315900  1
  Cu  Cu0  1  0.11100100  0.84093100  0.30777200  1
  Cu  Cu1  1  0.77896600  0.50706900  0.97497400  1
  Cu  Cu2  1  0.44572600  0.17372900  0.64163600  1
  Cu  Cu3  1  0.22103400  0.49293100  0.02502600  1
  Cu  Cu4  1  0.88899900  0.15906900  0.69222800  1
  Cu  Cu5  1  0.55427400  0.82627100  0.35836400  1
  Cu  Cu6  1  0.00000000  0.00000000  0.00000000  1
  P  P0  1  0.17400400  0.34248800  0.57870100  1
  P  P1  1  0.84270900  0.00898600  0.24237000  1
  P  P2  1  0.50754100  0.67587400  0.91195600  1
  P  P3  1  0.15729100  0.99101400  0.75763000  1
  P  P4  1  0.82599600  0.65751200  0.42129900  1
  P  P5  1  0.49245900  0.32412600  0.08804400  1
  P  P6  1  0.00006600  0.62897200  0.77190800  1
  P  P7  1  0.66677700  0.29574900  0.43851500  1
  P  P8  1  0.33414800  0.96196500  0.10573800  1
  P  P9  1  0.33322300  0.70425100  0.56148500  1
  P  P10  1  0.99993400  0.37102800  0.22809200  1
  P  P11  1  0.66585200  0.03803500  0.89426200  1
  P  P12  1  0.05050800  0.27905000  0.90284700  1
  P  P13  1  0.71742200  0.94628800  0.56950200  1
  P  P14  1  0.38409600  0.61293400  0.23611000  1
  P  P15  1  0.28257800  0.05371200  0.43049800  1
  P  P16  1  0.94949200  0.72095000  0.09715300  1
  P  P17  1  0.61590400  0.38706600  0.76389000  1
  O  O0  1  0.25534900  0.33956400  0.71562300  1
  O  O1  1  0.92313000  0.00662500  0.38007900  1
  O  O2  1  0.58867000  0.67275200  0.04906300  1
  O  O3  1  0.07687000  0.99337500  0.61992100  1
  O  O4  1  0.74465100  0.66043600  0.28437700  1
  O  O5  1  0.41133000  0.32724800  0.95093700  1
  O  O6  1  0.27459200  0.35846600  0.48470700  1
  O  O7  1  0.94515000  0.02460400  0.14930700  1
  O  O8  1  0.60856000  0.69235000  0.81815900  1
  O  O9  1  0.05485000  0.97539600  0.85069300  1
  O  O10  1  0.72540800  0.64153400  0.51529300  1
  O  O11  1  0.39144000  0.30765000  0.18184100  1
  O  O12  1  0.16556800  0.39445800  0.90230700  1
  O  O13  1  0.83306700  0.06114400  0.56918300  1
  O  O14  1  0.49960300  0.72763300  0.23617700  1
  O  O15  1  0.16693300  0.93885600  0.43081700  1
  O  O16  1  0.83443200  0.60554200  0.09769300  1
  O  O17  1  0.50039700  0.27236700  0.76382300  1
  O  O18  1  0.28632400  0.58282100  0.33750800  1
  O  O19  1  0.95277600  0.24959400  0.00406600  1
  O  O20  1  0.61960600  0.91641200  0.67081200  1
  O  O21  1  0.04722400  0.75040600  0.99593400  1
  O  O22  1  0.71367600  0.41717900  0.66249200  1
  O  O23  1  0.38039400  0.08358800  0.32918800  1
  O  O24  1  0.99699700  0.53180700  0.71991100  1
  O  O25  1  0.66358100  0.19841000  0.38651700  1
  O  O26  1  0.33100900  0.86502300  0.05326900  1
  O  O27  1  0.33641900  0.80159000  0.61348300  1
  O  O28  1  0.00300300  0.46819300  0.28008900  1
  O  O29  1  0.66899100  0.13497700  0.94673100  1
  O  O30  1  0.85228500  0.61160400  0.81710600  1
  O  O31  1  0.51884000  0.27832600  0.48355400  1
  O  O32  1  0.18798600  0.94391400  0.15330800  1
  O  O33  1  0.48116000  0.72167400  0.51644600  1
  O  O34  1  0.14771500  0.38839600  0.18289400  1
  O  O35  1  0.81201400  0.05608600  0.84669200  1
  O  O36  1  0.20919500  0.70157100  0.45214800  1
  O  O37  1  0.87581100  0.36833700  0.11863800  1
  O  O38  1  0.54063500  0.03491900  0.78544600  1
  O  O39  1  0.12418900  0.63166300  0.88136200  1
  O  O40  1  0.79080500  0.29842900  0.54785200  1
  O  O41  1  0.45936500  0.96508100  0.21455400  1
  O  O42  1  0.37144000  0.04024700  0.56662900  1
  O  O43  1  0.03847200  0.70709900  0.23366700  1
  O  O44  1  0.70528300  0.37358400  0.89979100  1
  O  O45  1  0.96152800  0.29290100  0.76633300  1
  O  O46  1  0.62856000  0.95975300  0.43337100  1
  O  O47  1  0.29471700  0.62641600  0.10020900  1
  O  O48  1  0.02793200  0.74510300  0.66863100  1
  O  O49  1  0.69430900  0.41177600  0.33502400  1
  O  O50  1  0.36046200  0.07796000  0.00240400  1
  O  O51  1  0.30569100  0.58822400  0.66497600  1
  O  O52  1  0.97206800  0.25489700  0.33136900  1
  O  O53  1  0.63953800  0.92204000  0.99759600  1
  O  O54  1  0.93882700  0.77643800  0.40766500  1
  O  O55  1  0.60478000  0.44305500  0.07396200  1
  O  O56  1  0.27034600  0.10964400  0.74183100  1
  O  O57  1  0.39522000  0.55694500  0.92603800  1
  O  O58  1  0.06117300  0.22356200  0.59233500  1
  O  O59  1  0.72965400  0.89035600  0.25816900  1
  O  O60  1  0.12504600  0.18181000  0.92606000  1
  O  O61  1  0.79190500  0.84883300  0.59263400  1
  O  O62  1  0.45837300  0.51533000  0.25922800  1
  O  O63  1  0.20809500  0.15116700  0.40736600  1
  O  O64  1  0.87495400  0.81819100  0.07394000  1
  O  O65  1  0.54162700  0.48467000  0.74077200  1
  O  O66  1  0.09172700  0.43668200  0.54115900  1
  O  O67  1  0.76032300  0.10322600  0.20618500  1
  O  O68  1  0.42505800  0.77004700  0.87452600  1
  O  O69  1  0.23967700  0.89677400  0.79381500  1
  O  O70  1  0.90827300  0.56331800  0.45884100  1
  O  O71  1  0.57494200  0.22995300  0.12547400  1
loop_
_geom_bond_atom_site_label_1
_geom_bond_atom_site_label_2
_geom_bond_distance
_geom_bond_site_symmetry_2
Fe0 O48 1.886734 1_655
Fe0 O54 2.013535 1_555
Fe0 O3 2.036592 1_655
Fe0 O61 2.054416 1_555
Fe0 O15 2.125044 1_655
Fe0 O1 2.171667 1_565
Fe1 O49 1.888367 1_555
Fe1 O55 2.010391 1_555
Fe1 O4 2.030815 1_555
Fe1 O62 2.059774 1_555
Fe1 O16 2.125246 1_555
Fe1 O2 2.155794 1_555
Fe2 O50 1.887401 1_556
Fe2 O56 2.003111 1_555
Fe2 O5 2.029644 1_555
Fe2 O60 2.056716 1_555
Fe2 O17 2.128085 1_555
Fe2 O0 2.164413 1_555
Fe3 O51 1.888367 1_555
Fe3 O57 2.010391 1_555
Fe3 O0 2.030815 1_555
Fe3 O65 2.059774 1_555
Fe3 O12 2.125246 1_555
Fe3 O5 2.155794 1_555
Fe4 O52 1.886737 1_455
Fe4 O58 2.013536 1_555
Fe4 O1 2.036593 1_455
Fe4 O63 2.054406 1_555
Fe4 O13 2.125052 1_455
Fe4 O3 2.171663 1_545
Fe5 O53 1.887401 1_554
Fe5 O59 2.003111 1_555
Fe5 O2 2.029644 1_555
Fe5 O64 2.056712 1_555
Fe5 O14 2.128085 1_555
Fe5 O4 2.164413 1_555
Fe6 O28 1.911556 1_555
Fe6 O18 1.957873 1_555
Fe6 O36 2.020536 1_555
Fe6 O66 2.074414 1_555
Fe6 O43 2.075885 1_555
Fe6 O70 2.192249 1_455
Fe7 O29 1.911522 1_554
Fe7 O19 1.954606 1_555
Fe7 O37 2.020582 1_555
Fe7 O67 2.064506 1_555
Fe7 O44 2.077787 1_554
Fe7 O71 2.193022 1_555
Fe8 O27 1.910572 1_555
Fe8 O20 1.959909 1_555
Fe8 O38 2.016835 1_565
Fe8 O68 2.071892 1_555
Fe8 O42 2.078833 1_565
Fe8 O69 2.216976 1_555
Fe9 O26 1.911522 1_556
Fe9 O21 1.954606 1_555
Fe9 O39 2.020582 1_555
Fe9 O69 2.064506 1_555
Fe9 O47 2.077787 1_556
Fe9 O68 2.193022 1_555
Fe10 O24 1.911556 1_555
Fe10 O22 1.957873 1_555
Fe10 O40 2.020536 1_555
Fe10 O70 2.074414 1_555
Fe10 O45 2.075885 1_555
Fe10 O66 2.192249 1_655
Fe11 O25 1.910572 1_555
Fe11 O23 1.959909 1_555
Fe11 O41 2.016835 1_545
Fe11 O71 2.071892 1_555
Fe11 O46 2.078833 1_545
Fe11 O67 2.216976 1_555
Fe12 O10 2.034227 1_555
Fe12 O8 2.035137 1_555
Fe12 O65 2.248250 1_555
Fe12 O61 2.255444 1_555
Fe12 O30 2.341339 1_555
Fe12 O33 2.342357 1_555
Fe13 O6 2.034227 1_555
Fe13 O11 2.035137 1_555
Fe13 O62 2.248250 1_555
Fe13 O63 2.255444 1_555
Fe13 O34 2.341339 1_555
Fe13 O31 2.342357 1_555
Cu0 O32 1.922991 1_555
Cu0 O54 2.025276 1_455
Cu0 O43 2.026938 1_555
Cu0 O15 2.044498 1_555
Cu0 O36 2.303249 1_555
Cu1 O30 1.944214 1_555
Cu1 O44 2.030653 1_555
Cu1 O55 2.036084 1_556
Cu1 O16 2.047081 1_556
Cu1 O37 2.287952 1_556
Cu2 O31 1.945540 1_555
Cu2 O42 2.029541 1_555
Cu2 O17 2.044265 1_555
Cu2 O56 2.053577 1_555
Cu2 O38 2.279335 1_555
Cu3 O34 1.944214 1_555
Cu3 O47 2.030653 1_555
Cu3 O57 2.036084 1_554
Cu3 O12 2.047081 1_554
Cu3 O39 2.287952 1_554
Cu4 O35 1.922991 1_555
Cu4 O58 2.025276 1_655
Cu4 O45 2.026938 1_555
Cu4 O13 2.044498 1_555
Cu4 O40 2.303249 1_555
Cu5 O33 1.945540 1_555
Cu5 O46 2.029541 1_555
Cu5 O14 2.044265 1_555
Cu5 O59 2.053577 1_555
Cu5 O41 2.279335 1_555
Cu6 O9 1.989785 1_544
Cu6 O7 1.989785 1_455
Cu6 O64 2.248734 1_445
Cu6 O60 2.248744 1_554
Cu6 O35 2.378979 1_454
Cu6 O32 2.378979 1_545
O0 P0 1.572470 1_555
O1 P1 1.578097 1_555
O2 P2 1.573192 1_554
O3 P3 1.578097 1_555
O4 P4 1.572470 1_555
O5 P5 1.573192 1_556
O6 P0 1.506312 1_555
O7 P1 1.513548 1_555
O8 P2 1.505967 1_555
O9 P3 1.513548 1_555
O10 P4 1.506312 1_555
O11 P5 1.505967 1_555
O12 P12 1.571263 1_555
O13 P13 1.569087 1_545
O14 P14 1.567738 1_555
O15 P15 1.569087 1_565
O16 P16 1.571263 1_555
O17 P17 1.567738 1_555
O18 P14 1.507315 1_555
O19 P12 1.507033 1_654
O20 P13 1.507413 1_555
O21 P16 1.507033 1_456
O22 P17 1.507315 1_555
O23 P15 1.507413 1_555
O24 P6 1.530988 1_655
O25 P7 1.532708 1_555
O26 P8 1.531475 1_555
O27 P9 1.532708 1_555
O28 P10 1.530988 1_455
O29 P11 1.531475 1_555
O30 P6 1.566927 1_655
O31 P7 1.567415 1_555
O32 P8 1.561820 1_555
O33 P9 1.567415 1_555
O34 P10 1.566927 1_455
O35 P11 1.561820 1_555
O36 P9 1.550774 1_555
O37 P10 1.552202 1_555
O38 P11 1.554761 1_555
O39 P6 1.552202 1_555
O40 P7 1.550774 1_555
O41 P8 1.554761 1_555
O42 P15 1.580588 1_555
O43 P16 1.584359 1_455
O44 P17 1.580564 1_555
O45 P12 1.584359 1_655
O46 P13 1.580588 1_555
O47 P14 1.580564 1_555
O48 P6 1.542414 1_555
O49 P7 1.542526 1_555
O50 P8 1.541152 1_545
O51 P9 1.542526 1_555
O52 P10 1.542414 1_555
O53 P11 1.541152 1_565
O54 P4 1.576448 1_555
O55 P5 1.573896 1_555
O56 P3 1.572855 1_545
O57 P2 1.573896 1_555
O58 P0 1.576448 1_555
O59 P1 1.572855 1_565
O60 P12 1.565965 1_555
O61 P13 1.568224 1_555
O62 P14 1.568572 1_555
O63 P15 1.568224 1_555
O64 P16 1.565976 1_555
O65 P17 1.568572 1_555
O66 P0 1.562883 1_555
O67 P1 1.565557 1_555
O68 P2 1.564202 1_555
O69 P3 1.565557 1_555
O70 P4 1.562883 1_555
O71 P5 1.564202 1_555
