# generated using pymatgen
data_Li9Mn2Co5O16
_symmetry_space_group_name_H-M   'P 1'
_cell_length_a   10.68439329
_cell_length_b   10.68439329
_cell_length_c   9.87052015
_cell_angle_alpha   72.35957064
_cell_angle_beta   72.35957064
_cell_angle_gamma   15.67997512
_symmetry_Int_Tables_number   1
_chemical_formula_structural   Li9Mn2Co5O16
_chemical_formula_sum   'Li9 Mn2 Co5 O16'
_cell_volume   289.93033249
_cell_formula_units_Z   1
loop_
 _symmetry_equiv_pos_site_id
 _symmetry_equiv_pos_as_xyz
  1  'x, y, z'
loop_
 _atom_site_type_symbol
 _atom_site_label
 _atom_site_symmetry_multiplicity
 _atom_site_fract_x
 _atom_site_fract_y
 _atom_site_fract_z
 _atom_site_occupancy
  Li  Li0  1  0.43887400  0.43887400  0.81440900  1
  Li  Li1  1  0.31081900  0.31081900  0.43873800  1
  Li  Li2  1  0.18272800  0.18272800  0.05407600  1
  Li  Li3  1  0.80717000  0.80717000  0.94203500  1
  Li  Li4  1  0.68640500  0.68640500  0.56351200  1
  Li  Li5  1  0.56503300  0.56503300  0.17893400  1
  Li  Li6  1  0.07087000  0.07087000  0.69301200  1
  Li  Li7  1  0.93904300  0.93904300  0.30961300  1
  Li  Li8  1  0.62477600  0.62477600  0.88008700  1
  Mn  Mn0  1  0.00462200  0.00462200  0.99886700  1
  Mn  Mn1  1  0.87446900  0.87446900  0.62826400  1
  Co  Co0  1  0.74952400  0.74952400  0.24808700  1
  Co  Co1  1  0.50312000  0.50312000  0.50105400  1
  Co  Co2  1  0.37484200  0.37484200  0.12451800  1
  Co  Co3  1  0.23868800  0.23868800  0.75344400  1
  Co  Co4  1  0.12429800  0.12429800  0.37251900  1
  O  O0  1  0.52724700  0.52724700  0.86218200  1
  O  O1  1  0.40427000  0.40427000  0.48807200  1
  O  O2  1  0.28241700  0.28241700  0.10286300  1
  O  O3  1  0.90928700  0.90928700  0.98148400  1
  O  O4  1  0.78789200  0.78789200  0.60498200  1
  O  O5  1  0.65635500  0.65635500  0.22590300  1
  O  O6  1  0.16235900  0.16235900  0.71236600  1
  O  O7  1  0.02837300  0.02837300  0.35625700  1
  O  O8  1  0.34796200  0.34796200  0.76392200  1
  O  O9  1  0.21948100  0.21948100  0.39255900  1
  O  O10  1  0.08527200  0.08527200  0.02991700  1
  O  O11  1  0.72201600  0.72201600  0.89376100  1
  O  O12  1  0.59074000  0.59074000  0.52734400  1
  O  O13  1  0.47072400  0.47072400  0.13988000  1
  O  O14  1  0.96431900  0.96431900  0.64737500  1
  O  O15  1  0.84600400  0.84600400  0.26996500  1
loop_
_geom_bond_atom_site_label_1
_geom_bond_atom_site_label_2
_geom_bond_distance
_geom_bond_site_symmetry_2
Li0 O0 2.064424 1_555
Li0 O8 2.130462 1_555
Li0 O14 2.142232 1_545
Li0 O14 2.142232 1_455
Li0 O3 2.145703 1_545
Li0 O3 2.145703 1_455
Li1 O9 2.117908 1_555
Li1 O4 2.136587 1_545
Li1 O4 2.136587 1_455
Li1 O15 2.166769 1_545
Li1 O15 2.166769 1_455
Li1 O1 2.177162 1_555
Li2 O11 2.124757 1_544
Li2 O11 2.124757 1_454
Li2 O10 2.148028 1_555
Li2 O5 2.175539 1_455
Li2 O5 2.175539 1_545
Li2 O2 2.303711 1_555
Li3 O11 2.000503 1_555
Li3 O2 2.099945 1_656
Li3 O2 2.099945 1_566
Li3 O8 2.243161 1_655
Li3 O8 2.243161 1_565
Li3 O3 2.310763 1_555
Li4 O6 2.020984 1_655
Li4 O6 2.020984 1_565
Li4 O12 2.161236 1_555
Li4 O9 2.176882 1_565
Li4 O9 2.176882 1_655
Li4 O4 2.306756 1_555
Li5 O10 2.021281 1_565
Li5 O10 2.021281 1_655
Li5 O5 2.121443 1_555
Li5 O13 2.145967 1_555
Li5 O7 2.226832 1_655
Li5 O7 2.226832 1_565
Li6 O6 2.003445 1_555
Li6 O12 2.134053 1_545
Li6 O12 2.134053 1_455
Li6 O0 2.195835 1_545
Li6 O0 2.195835 1_455
Li6 O14 2.431501 1_445
Li7 O7 2.078611 1_665
Li7 O15 2.122223 1_555
Li7 O13 2.166394 1_655
Li7 O13 2.166394 1_565
Li7 O1 2.230578 1_655
Li7 O1 2.230578 1_565
Li8 O10 2.062504 1_566
Li8 O10 2.062504 1_656
Li8 O11 2.103694 1_555
Li8 O0 2.125330 1_555
Li8 O6 2.166083 1_565
Li8 O6 2.166083 1_655
Mn0 O10 1.824520 1_556
Mn0 O0 1.943801 1_455
Mn0 O0 1.943801 1_545
Mn0 O13 1.991298 1_456
Mn0 O13 1.991298 1_546
Mn0 O3 2.077071 1_445
Mn1 O4 1.915586 1_555
Mn1 O8 1.942224 1_655
Mn1 O8 1.942224 1_565
Mn1 O14 1.967955 1_555
Mn1 O1 1.975552 1_655
Mn1 O1 1.975552 1_565
Co0 O9 2.001805 1_565
Co0 O9 2.001805 1_655
Co0 O2 2.013214 1_565
Co0 O2 2.013214 1_655
Co0 O5 2.049910 1_555
Co0 O15 2.118449 1_555
Co1 O12 1.949927 1_555
Co1 O7 1.996272 1_655
Co1 O7 1.996272 1_565
Co1 O14 2.039333 1_545
Co1 O14 2.039333 1_455
Co1 O1 2.135247 1_555
Co2 O3 2.004791 1_454
Co2 O3 2.004791 1_544
Co2 O15 2.005400 1_545
Co2 O15 2.005400 1_455
Co2 O2 2.032150 1_555
Co2 O13 2.081128 1_555
Co3 O6 1.782154 1_555
Co3 O11 1.966679 1_545
Co3 O11 1.966679 1_455
Co3 O4 2.102993 1_545
Co3 O4 2.102993 1_455
Co3 O8 2.346931 1_555
Co4 O5 2.019428 1_455
Co4 O5 2.019428 1_545
Co4 O12 2.073635 1_545
Co4 O12 2.073635 1_455
Co4 O9 2.083969 1_555
Co4 O7 2.085350 1_555
