# generated using pymatgen
data_FeSO7
_symmetry_space_group_name_H-M   'P 1'
_cell_length_a   6.99009000
_cell_length_b   7.47837600
_cell_length_c   19.52064000
_cell_angle_alpha   90.00000000
_cell_angle_beta   90.00000000
_cell_angle_gamma   90.00000000
_symmetry_Int_Tables_number   1
_chemical_formula_structural   FeSO7
_chemical_formula_sum   'Fe8 S8 O56'
_cell_volume   1020.43211135
_cell_formula_units_Z   8
loop_
 _symmetry_equiv_pos_site_id
 _symmetry_equiv_pos_as_xyz
  1  'x, y, z'
loop_
 _atom_site_type_symbol
 _atom_site_label
 _atom_site_symmetry_multiplicity
 _atom_site_fract_x
 _atom_site_fract_y
 _atom_site_fract_z
 _atom_site_occupancy
  Fe  Fe0  1  0.00086600  0.29598500  0.37305200  1
  Fe  Fe1  1  0.49913400  0.20401500  0.87305200  1
  Fe  Fe2  1  0.50086600  0.70401500  0.62694800  1
  Fe  Fe3  1  0.99913400  0.79598500  0.12694800  1
  Fe  Fe4  1  0.99913400  0.70401500  0.62694800  1
  Fe  Fe5  1  0.50086600  0.79598500  0.12694800  1
  Fe  Fe6  1  0.49913400  0.29598500  0.37305200  1
  Fe  Fe7  1  0.00086600  0.20401500  0.87305200  1
  S  S0  1  0.75000000  0.94841500  0.37983200  1
  S  S1  1  0.75000000  0.55158500  0.87983200  1
  S  S2  1  0.25000000  0.05158500  0.62016800  1
  S  S3  1  0.25000000  0.44841500  0.12016800  1
  S  S4  1  0.25000000  0.63886600  0.37281500  1
  S  S5  1  0.25000000  0.86113400  0.87281500  1
  S  S6  1  0.75000000  0.36113400  0.62718500  1
  S  S7  1  0.75000000  0.13886600  0.12718500  1
  O  O0  1  0.92584100  0.04910300  0.35660700  1
  O  O1  1  0.57415900  0.45089700  0.85660700  1
  O  O2  1  0.42584100  0.95089700  0.64339300  1
  O  O3  1  0.07415900  0.54910300  0.14339300  1
  O  O4  1  0.07415900  0.95089700  0.64339300  1
  O  O5  1  0.42584100  0.54910300  0.14339300  1
  O  O6  1  0.57415900  0.04910300  0.35660700  1
  O  O7  1  0.92584100  0.45089700  0.85660700  1
  O  O8  1  0.07313300  0.53471300  0.39715000  1
  O  O9  1  0.42686700  0.96528700  0.89715000  1
  O  O10  1  0.57313300  0.46528700  0.60285000  1
  O  O11  1  0.92686700  0.03471300  0.10285000  1
  O  O12  1  0.92686700  0.46528700  0.60285000  1
  O  O13  1  0.57313300  0.03471300  0.10285000  1
  O  O14  1  0.42686700  0.53471300  0.39715000  1
  O  O15  1  0.07313300  0.96528700  0.89715000  1
  O  O16  1  0.75000000  0.77507900  0.34447700  1
  O  O17  1  0.75000000  0.72492100  0.84447700  1
  O  O18  1  0.25000000  0.22492100  0.65552300  1
  O  O19  1  0.25000000  0.27507900  0.15552300  1
  O  O20  1  0.75000000  0.91783100  0.45426900  1
  O  O21  1  0.75000000  0.58216900  0.95426900  1
  O  O22  1  0.25000000  0.08216900  0.54573100  1
  O  O23  1  0.25000000  0.41783100  0.04573100  1
  O  O24  1  0.25000000  0.80857000  0.40781700  1
  O  O25  1  0.25000000  0.69143000  0.90781700  1
  O  O26  1  0.75000000  0.19143000  0.59218300  1
  O  O27  1  0.75000000  0.30857000  0.09218300  1
  O  O28  1  0.25000000  0.64657700  0.29734400  1
  O  O29  1  0.25000000  0.85342300  0.79734400  1
  O  O30  1  0.75000000  0.35342300  0.70265600  1
  O  O31  1  0.75000000  0.14657700  0.20265600  1
  O  O32  1  0.75000000  0.37778300  0.37558400  1
  O  O33  1  0.75000000  0.12221700  0.87558400  1
  O  O34  1  0.25000000  0.62221700  0.62441600  1
  O  O35  1  0.25000000  0.87778300  0.12441600  1
  O  O36  1  0.25000000  0.21076000  0.37079600  1
  O  O37  1  0.25000000  0.28924000  0.87079600  1
  O  O38  1  0.75000000  0.78924000  0.62920400  1
  O  O39  1  0.75000000  0.71076000  0.12920400  1
  O  O40  1  0.96569100  0.27736800  0.46498400  1
  O  O41  1  0.53430900  0.22263200  0.96498400  1
  O  O42  1  0.46569100  0.72263200  0.53501600  1
  O  O43  1  0.03430900  0.77736800  0.03501600  1
  O  O44  1  0.03430900  0.72263200  0.53501600  1
  O  O45  1  0.46569100  0.77736800  0.03501600  1
  O  O46  1  0.53430900  0.27736800  0.46498400  1
  O  O47  1  0.96569100  0.22263200  0.96498400  1
  O  O48  1  0.03972800  0.32569300  0.28326700  1
  O  O49  1  0.46027200  0.17430700  0.78326700  1
  O  O50  1  0.53972800  0.67430700  0.71673300  1
  O  O51  1  0.96027200  0.82569300  0.21673300  1
  O  O52  1  0.96027200  0.67430700  0.71673300  1
  O  O53  1  0.53972800  0.82569300  0.21673300  1
  O  O54  1  0.46027200  0.32569300  0.28326700  1
  O  O55  1  0.03972800  0.17430700  0.78326700  1
loop_
_geom_bond_atom_site_label_1
_geom_bond_atom_site_label_2
_geom_bond_distance
_geom_bond_site_symmetry_2
Fe0 O48 1.787448 1_555
Fe0 O40 1.816680 1_455
Fe0 O36 1.854956 1_555
Fe0 O32 1.857867 1_455
Fe0 O8 1.914093 1_555
Fe0 O0 1.945975 1_455
Fe1 O49 1.787448 1_555
Fe1 O41 1.816680 1_555
Fe1 O37 1.854956 1_555
Fe1 O33 1.857867 1_555
Fe1 O9 1.914093 1_545
Fe1 O1 1.945975 1_555
Fe2 O50 1.787448 1_555
Fe2 O42 1.816680 1_555
Fe2 O38 1.854956 1_555
Fe2 O34 1.857867 1_555
Fe2 O10 1.914093 1_555
Fe2 O2 1.945975 1_555
Fe3 O51 1.787448 1_555
Fe3 O43 1.816680 1_655
Fe3 O39 1.854956 1_555
Fe3 O35 1.857867 1_655
Fe3 O11 1.914093 1_565
Fe3 O3 1.945975 1_655
Fe4 O52 1.787448 1_555
Fe4 O44 1.816680 1_655
Fe4 O38 1.854956 1_555
Fe4 O34 1.857867 1_655
Fe4 O12 1.914093 1_555
Fe4 O4 1.945975 1_655
Fe5 O53 1.787448 1_555
Fe5 O45 1.816680 1_555
Fe5 O39 1.854956 1_555
Fe5 O35 1.857867 1_555
Fe5 O13 1.914093 1_565
Fe5 O5 1.945975 1_555
Fe6 O54 1.787448 1_555
Fe6 O46 1.816680 1_555
Fe6 O36 1.854956 1_555
Fe6 O32 1.857867 1_555
Fe6 O14 1.914093 1_555
Fe6 O6 1.945975 1_555
Fe7 O55 1.787448 1_555
Fe7 O47 1.816680 1_455
Fe7 O37 1.854956 1_555
Fe7 O33 1.857867 1_455
Fe7 O15 1.914093 1_545
Fe7 O7 1.945975 1_455
O0 S0 1.511066 1_545
O1 S1 1.511066 1_555
O2 S2 1.511066 1_565
O3 S3 1.511066 1_555
O4 S2 1.511066 1_565
O5 S3 1.511066 1_555
O6 S0 1.511066 1_545
O7 S1 1.511066 1_555
O8 S4 1.536494 1_555
O9 S5 1.536494 1_555
O10 S6 1.536494 1_555
O11 S7 1.536494 1_555
O12 S6 1.536494 1_555
O13 S7 1.536494 1_555
O14 S4 1.536494 1_555
O15 S5 1.536494 1_555
O16 S0 1.468547 1_555
O17 S1 1.468547 1_555
O18 S2 1.468547 1_555
O19 S3 1.468547 1_555
O20 S0 1.470948 1_555
O21 S1 1.470948 1_555
O22 S2 1.470948 1_555
O23 S3 1.470948 1_555
O24 S4 1.441349 1_555
O25 S5 1.441349 1_555
O26 S6 1.441349 1_555
O27 S7 1.441349 1_555
O28 S4 1.474370 1_555
O29 S5 1.474370 1_555
O30 S6 1.474370 1_555
O31 S7 1.474370 1_555
