# generated using pymatgen
data_Na2In2GeSe6
_symmetry_space_group_name_H-M   'P 1'
_cell_length_a   7.70550323
_cell_length_b   7.70550323
_cell_length_c   13.06852909
_cell_angle_alpha   74.23722899
_cell_angle_beta   74.23722899
_cell_angle_gamma   65.19203848
_symmetry_Int_Tables_number   1
_chemical_formula_structural   Na2In2GeSe6
_chemical_formula_sum   'Na4 In4 Ge2 Se12'
_cell_volume   666.71715806
_cell_formula_units_Z   2
loop_
 _symmetry_equiv_pos_site_id
 _symmetry_equiv_pos_as_xyz
  1  'x, y, z'
loop_
 _atom_site_type_symbol
 _atom_site_label
 _atom_site_symmetry_multiplicity
 _atom_site_fract_x
 _atom_site_fract_y
 _atom_site_fract_z
 _atom_site_occupancy
  Na  Na0  1  0.18493000  0.33414400  0.00879000  1
  Na  Na1  1  0.33414400  0.18493000  0.50879000  1
  Na  Na2  1  0.35859600  0.72574800  0.16932500  1
  Na  Na3  1  0.72574800  0.35859600  0.66932500  1
  In  In0  1  0.84503800  0.97704500  0.01219700  1
  In  In1  1  0.97704500  0.84503800  0.51219700  1
  In  In2  1  0.65113500  0.80403500  0.81731000  1
  In  In3  1  0.80403500  0.65113500  0.31731000  1
  Ge  Ge0  1  0.19552800  0.74818800  0.76151900  1
  Ge  Ge1  1  0.74818800  0.19552800  0.26151900  1
  Se  Se0  1  0.04541700  0.05510900  0.81652400  1
  Se  Se1  1  0.05510900  0.04541700  0.31652400  1
  Se  Se2  1  0.78969400  0.30249100  0.07070500  1
  Se  Se3  1  0.30249100  0.78969400  0.57070500  1
  Se  Se4  1  0.04175400  0.65361400  0.13084300  1
  Se  Se5  1  0.65361400  0.04175400  0.63084300  1
  Se  Se6  1  0.52215600  0.96793100  0.98762900  1
  Se  Se7  1  0.96793100  0.52215600  0.48762900  1
  Se  Se8  1  0.47199500  0.55771700  0.84901100  1
  Se  Se9  1  0.55771700  0.47199500  0.34901100  1
  Se  Se10  1  0.01235500  0.54523900  0.80791600  1
  Se  Se11  1  0.54523900  0.01235500  0.30791600  1
loop_
_geom_bond_atom_site_label_1
_geom_bond_atom_site_label_2
_geom_bond_distance
_geom_bond_site_symmetry_2
Na0 Se6 2.944810 1_544
Na0 Se4 2.952866 1_555
Na0 Se10 3.011141 1_554
Na0 Se2 3.027620 1_455
Na0 Se8 3.309785 1_554
Na1 Se7 2.944810 1_455
Na1 Se5 2.952866 1_555
Na1 Se11 3.011141 1_555
Na1 Se3 3.027620 1_545
Na1 Se9 3.309785 1_555
Na2 Se4 2.912064 1_555
Na2 Se9 2.938866 1_555
Na2 Se6 2.940977 1_554
Na2 Se1 3.245483 1_565
Na3 Se5 2.912064 1_555
Na3 Se8 2.938866 1_555
Na3 Se7 2.940977 1_555
Na3 Se0 3.245483 1_655
In0 Se6 2.625047 1_554
In0 Se4 2.630635 1_655
In0 Se2 2.649976 1_565
In0 Se0 2.661466 1_664
In1 Se7 2.625047 1_555
In1 Se5 2.630635 1_565
In1 Se3 2.649976 1_655
In1 Se1 2.661466 1_665
In2 Se6 2.609414 1_555
In2 Se5 2.621602 1_565
In2 Se10 2.651144 1_655
In2 Se8 2.672093 1_555
In3 Se7 2.609414 1_555
In3 Se4 2.621602 1_655
In3 Se11 2.651144 1_565
In3 Se9 2.672093 1_555
Ge0 Se0 2.371525 1_565
Ge0 Se3 2.381422 1_555
Ge0 Se10 2.382737 1_555
Ge0 Se8 2.405742 1_555
Ge1 Se1 2.371525 1_655
Ge1 Se2 2.381422 1_555
Ge1 Se11 2.382737 1_555
Ge1 Se9 2.405742 1_555
