# generated using pymatgen
data_MgSiNiO5
_symmetry_space_group_name_H-M   'P 1'
_cell_length_a   5.25783700
_cell_length_b   5.29120680
_cell_length_c   6.85296502
_cell_angle_alpha   105.51397656
_cell_angle_beta   104.32917687
_cell_angle_gamma   106.74113391
_symmetry_Int_Tables_number   1
_chemical_formula_structural   MgSiNiO5
_chemical_formula_sum   'Mg2 Si2 Ni2 O10'
_cell_volume   164.67898198
_cell_formula_units_Z   2
loop_
 _symmetry_equiv_pos_site_id
 _symmetry_equiv_pos_as_xyz
  1  'x, y, z'
loop_
 _atom_site_type_symbol
 _atom_site_label
 _atom_site_symmetry_multiplicity
 _atom_site_fract_x
 _atom_site_fract_y
 _atom_site_fract_z
 _atom_site_occupancy
  Mg  Mg0  1  0.83907900  0.67442200  0.25036000  1
  Mg  Mg1  1  0.16092100  0.32557800  0.74964000  1
  Si  Si0  1  0.17805500  0.32496900  0.24254900  1
  Si  Si1  1  0.82722300  0.67883000  0.74273900  1
  Ni  Ni0  1  0.50300900  0.00219900  0.49237700  1
  Ni  Ni1  1  0.50273400  0.00250600  0.99234800  1
  O  O0  1  0.41471200  0.34777900  0.12359600  1
  O  O1  1  0.15894400  0.10029100  0.36730500  1
  O  O2  1  0.58866900  0.65685400  0.85987400  1
  O  O3  1  0.84671600  0.90153800  0.61593000  1
  O  O4  1  0.78045500  0.36373900  0.57742000  1
  O  O5  1  0.13689300  0.73550600  0.91716500  1
  O  O6  1  0.22667000  0.64000000  0.40891500  1
  O  O7  1  0.86798900  0.27012400  0.06856600  1
  O  O8  1  0.41060000  0.08967500  0.74273100  1
  O  O9  1  0.59503300  0.91502600  0.24187300  1
loop_
_geom_bond_atom_site_label_1
_geom_bond_atom_site_label_2
_geom_bond_distance
_geom_bond_site_symmetry_2
Mg0 O9 2.052894 1_555
Mg0 O6 2.142534 1_655
Mg0 O1 2.175297 1_665
Mg0 O0 2.176245 1_555
Mg0 O7 2.237599 1_555
Mg0 O3 2.456392 1_555
Mg0 O2 2.637327 1_554
Mg1 O8 2.055917 1_555
Mg1 O3 2.149066 1_445
Mg1 O4 2.151034 1_455
Mg1 O2 2.209270 1_555
Mg1 O5 2.221746 1_555
Mg1 O0 2.533347 1_556
Mg1 O1 2.568019 1_555
Ni0 O4 1.871439 1_555
Ni0 O6 1.873276 1_545
Ni0 O9 1.873508 1_545
Ni0 O8 1.873817 1_555
Ni0 O1 2.070760 1_555
Ni0 O3 2.074792 1_545
Ni1 O7 1.872769 1_556
Ni1 O8 1.874624 1_555
Ni1 O5 1.875057 1_545
Ni1 O9 1.875068 1_546
Ni1 O2 2.040627 1_545
Ni1 O0 2.043256 1_556
O0 Si0 1.641820 1_555
O1 Si0 1.634544 1_555
O2 Si1 1.641760 1_555
O3 Si1 1.636040 1_555
O4 Si1 1.655018 1_555
O5 Si1 1.653290 1_455
O6 Si0 1.654499 1_555
O7 Si0 1.656445 1_655
