# generated using pymatgen
data_Ca2Ni10H
_symmetry_space_group_name_H-M   'P 1'
_cell_length_a   4.94198901
_cell_length_b   5.02683344
_cell_length_c   7.81957700
_cell_angle_alpha   89.99895449
_cell_angle_beta   90.00135385
_cell_angle_gamma   119.41993377
_symmetry_Int_Tables_number   1
_chemical_formula_structural   Ca2Ni10H
_chemical_formula_sum   'Ca2 Ni10 H1'
_cell_volume   169.20730559
_cell_formula_units_Z   1
loop_
 _symmetry_equiv_pos_site_id
 _symmetry_equiv_pos_as_xyz
  1  'x, y, z'
loop_
 _atom_site_type_symbol
 _atom_site_label
 _atom_site_symmetry_multiplicity
 _atom_site_fract_x
 _atom_site_fract_y
 _atom_site_fract_z
 _atom_site_occupancy
  Ca  Ca0  1  0.00342700  0.99999400  0.99713800  1
  Ca  Ca1  1  0.00348800  0.99999500  0.49683600  1
  Ni  Ni0  1  0.31908600  0.63131400  0.99848700  1
  Ni  Ni1  1  0.68776100  0.36866400  0.99848500  1
  Ni  Ni2  1  0.50356600  0.00001100  0.75034800  1
  Ni  Ni3  1  0.50355000  0.50006400  0.74170900  1
  Ni  Ni4  1  0.00346300  0.49997000  0.74170200  1
  Ni  Ni5  1  0.34358300  0.68027300  0.49738500  1
  Ni  Ni6  1  0.66330100  0.31971400  0.49736400  1
  Ni  Ni7  1  0.50354800  0.00002300  0.24296000  1
  Ni  Ni8  1  0.50360800  0.50008500  0.25297300  1
  Ni  Ni9  1  0.00348200  0.49991000  0.25298200  1
  H  H0  1  0.50323700  0.99998300  0.97313000  1
loop_
_geom_bond_atom_site_label_1
_geom_bond_atom_site_label_2
_geom_bond_distance
_geom_bond_site_symmetry_2
Ca0 H0 2.477211 1_555
Ca0 H0 2.479020 1_455
Ca0 Ni0 2.764311 1_565
Ca0 Ni1 2.764354 1_455
Ca0 Ni4 3.210241 1_565
Ca0 Ni4 3.210624 1_555
Ca0 Ni3 3.210699 1_455
Ca0 Ni3 3.211467 1_565
Ca0 Ni9 3.212012 1_566
Ca0 Ni8 3.212537 1_456
Ca0 Ni9 3.212825 1_556
Ca0 Ni8 3.213580 1_566
Ca1 Ni5 2.839323 1_555
Ca1 Ni6 2.839705 1_465
Ca1 Ni6 2.840295 1_565
Ca1 Ni5 2.840691 1_455
Ca1 Ni5 2.978660 1_565
Ca1 Ni6 2.978673 1_455
Ca1 Ni9 3.154526 1_565
Ca1 Ni8 3.155196 1_455
Ca1 Ni9 3.155239 1_555
Ca1 Ni8 3.156048 1_565
Ca1 Ni4 3.159648 1_565
Ca1 Ni4 3.159696 1_555
Ca1 Ni3 3.160146 1_455
Ca1 Ni3 3.160656 1_565
Ca1 Ni2 3.167661 1_465
Ca1 Ni2 3.168127 1_565
Ca1 Ni7 3.169462 1_465
Ca1 Ni7 3.169890 1_565
Ni0 Ni9 2.411897 1_556
Ni0 Ni8 2.411963 1_556
Ni0 Ni4 2.426713 1_555
Ni0 Ni3 2.426728 1_555
Ni1 Ni8 2.411540 1_556
Ni1 Ni9 2.412201 1_656
Ni1 Ni3 2.426367 1_555
Ni1 Ni4 2.426949 1_655
Ni2 Ni5 2.423382 1_545
Ni2 Ni6 2.423410 1_555
Ni2 Ni3 2.514020 1_545
Ni2 Ni3 2.514628 1_555
Ni2 Ni4 2.514844 1_655
Ni2 Ni4 2.515557 1_545
Ni3 Ni5 2.408125 1_555
Ni3 Ni6 2.408145 1_555
Ni3 Ni4 2.470797 1_655
Ni3 Ni4 2.471192 1_555
Ni4 Ni5 2.408331 1_555
Ni4 Ni6 2.408523 1_455
Ni5 Ni9 2.408790 1_555
Ni5 Ni8 2.408817 1_555
Ni5 Ni7 2.432736 1_565
Ni6 Ni8 2.408284 1_555
Ni6 Ni9 2.408871 1_655
Ni6 Ni7 2.432470 1_555
Ni7 Ni8 2.514469 1_545
Ni7 Ni8 2.514803 1_555
Ni7 Ni9 2.515058 1_655
Ni7 Ni9 2.515967 1_545
Ni8 Ni9 2.470804 1_655
Ni8 Ni9 2.471185 1_555
H0 Ni0 1.626380 1_555
H0 Ni1 1.626434 1_565
H0 Ni2 1.742062 1_565
H0 Ni7 2.109957 1_566
