# generated using pymatgen
data_Mg14CoBi
_symmetry_space_group_name_H-M   'P 1'
_cell_length_a   6.27552275
_cell_length_b   6.30584404
_cell_length_c   10.15760867
_cell_angle_alpha   90.00000000
_cell_angle_beta   90.00000000
_cell_angle_gamma   120.15996497
_symmetry_Int_Tables_number   1
_chemical_formula_structural   Mg14CoBi
_chemical_formula_sum   'Mg14 Co1 Bi1'
_cell_volume   347.54651532
_cell_formula_units_Z   1
loop_
 _symmetry_equiv_pos_site_id
 _symmetry_equiv_pos_as_xyz
  1  'x, y, z'
loop_
 _atom_site_type_symbol
 _atom_site_label
 _atom_site_symmetry_multiplicity
 _atom_site_fract_x
 _atom_site_fract_y
 _atom_site_fract_z
 _atom_site_occupancy
  Mg  Mg0  1  0.16631807  0.33315853  0.62500000  1
  Mg  Mg1  1  0.16915133  0.83457516  0.62500000  1
  Mg  Mg2  1  0.66928307  0.33583203  0.12500000  1
  Mg  Mg3  1  0.66620725  0.33036665  0.62500000  1
  Mg  Mg4  1  0.66928307  0.83345003  0.12500000  1
  Mg  Mg5  1  0.66620725  0.83583960  0.62500000  1
  Mg  Mg6  1  0.33013709  0.17609034  0.36700925  1
  Mg  Mg7  1  0.33013709  0.17609034  0.88299075  1
  Mg  Mg8  1  0.33013709  0.65404775  0.36700925  1
  Mg  Mg9  1  0.33013709  0.65404775  0.88299075  1
  Mg  Mg10  1  0.84482568  0.17241334  0.36443917  1
  Mg  Mg11  1  0.84482568  0.17241334  0.88556083  1
  Mg  Mg12  1  0.82957122  0.66478611  0.38232915  1
  Mg  Mg13  1  0.82957122  0.66478611  0.86767085  1
  Co  Co0  1  0.16460495  0.33230198  0.12500000  1
  Bi  Bi0  1  0.15960287  0.82980093  0.12500000  1
loop_
_geom_bond_atom_site_label_1
_geom_bond_atom_site_label_2
_geom_bond_distance
_geom_bond_site_symmetry_2
Mg0 Mg5 3.129648 1_445
Mg0 Mg3 3.129649 1_455
Mg0 Mg5 3.145948 1_555
Mg0 Mg3 3.145948 1_555
Mg0 Mg6 3.150937 1_555
Mg0 Mg7 3.150937 1_555
Mg0 Mg8 3.150943 1_555
Mg0 Mg9 3.150943 1_555
Mg0 Mg1 3.152959 1_555
Mg0 Mg1 3.152960 1_545
Mg0 Mg11 3.169836 1_455
Mg0 Mg10 3.169836 1_455
Mg1 Mg12 3.077501 1_455
Mg1 Mg13 3.077501 1_455
Mg1 Mg3 3.115287 1_565
Mg1 Mg5 3.115287 1_555
Mg1 Mg3 3.160250 1_455
Mg1 Mg5 3.160250 1_455
Mg1 Mg8 3.215518 1_555
Mg1 Mg9 3.215518 1_555
Mg1 Mg6 3.215525 1_565
Mg1 Mg7 3.215525 1_565
Mg2 Mg7 3.071335 1_554
Mg2 Mg6 3.071335 1_555
Mg2 Mg4 3.137902 1_555
Mg2 Mg4 3.167943 1_545
Mg3 Mg5 3.118410 1_545
Mg3 Mg5 3.187434 1_555
Mg3 Mg6 3.193759 1_555
Mg3 Mg7 3.193759 1_555
Mg4 Mg9 3.071335 1_554
Mg4 Mg8 3.071335 1_555
Mg5 Mg8 3.193759 1_555
Mg5 Mg9 3.193759 1_555
Mg10 Mg2 3.054740 1_555
Mg10 Mg4 3.054747 1_545
Mg10 Mg12 3.159239 1_545
Mg10 Mg12 3.159239 1_555
Mg10 Mg3 3.221071 1_555
Mg10 Mg5 3.221077 1_545
Mg11 Mg2 3.054740 1_556
Mg11 Mg4 3.054747 1_546
Mg11 Mg13 3.159239 1_545
Mg11 Mg13 3.159239 1_555
Mg11 Mg3 3.221071 1_555
Mg11 Mg5 3.221077 1_545
Mg12 Mg5 3.066210 1_555
Mg12 Mg3 3.066216 1_555
Mg12 Mg6 3.104644 1_555
Mg12 Mg8 3.104645 1_555
Mg12 Mg4 3.170206 1_555
Mg12 Mg2 3.170212 1_555
Mg12 Mg6 3.179683 1_665
Mg12 Mg8 3.179683 1_655
Mg13 Mg5 3.066210 1_555
Mg13 Mg3 3.066216 1_555
Mg13 Mg7 3.104644 1_555
Mg13 Mg9 3.104645 1_555
Mg13 Mg4 3.170206 1_556
Mg13 Mg2 3.170212 1_556
Mg13 Mg7 3.179683 1_665
Mg13 Mg9 3.179683 1_655
Co0 Mg11 2.987621 1_454
Co0 Mg10 2.987621 1_455
Co0 Mg6 3.020026 1_555
Co0 Mg7 3.020026 1_554
Co0 Mg8 3.020032 1_555
Co0 Mg9 3.020032 1_554
Co0 Mg4 3.119647 1_445
Co0 Mg2 3.119647 1_455
Co0 Mg4 3.155994 1_555
Co0 Mg2 3.155994 1_555
Bi0 Mg2 3.088638 1_455
Bi0 Mg4 3.088638 1_455
Bi0 Mg9 3.099724 1_554
Bi0 Mg8 3.099724 1_555
Bi0 Mg7 3.099731 1_564
Bi0 Mg6 3.099731 1_565
Bi0 Co0 3.153039 1_555
Bi0 Co0 3.153039 1_565
Bi0 Mg13 3.168434 1_454
Bi0 Mg12 3.168434 1_455
Bi0 Mg2 3.187011 1_565
Bi0 Mg4 3.187011 1_555
