# generated using pymatgen
data_Na3Nb6Bi5O24
_symmetry_space_group_name_H-M   'P 1'
_cell_length_a   5.55924400
_cell_length_b   5.61125563
_cell_length_c   16.84774708
_cell_angle_alpha   99.50784884
_cell_angle_beta   89.96475753
_cell_angle_gamma   90.34822331
_symmetry_Int_Tables_number   1
_chemical_formula_structural   Na3Nb6Bi5O24
_chemical_formula_sum   'Na3 Nb6 Bi5 O24'
_cell_volume   518.32517517
_cell_formula_units_Z   1
loop_
 _symmetry_equiv_pos_site_id
 _symmetry_equiv_pos_as_xyz
  1  'x, y, z'
loop_
 _atom_site_type_symbol
 _atom_site_label
 _atom_site_symmetry_multiplicity
 _atom_site_fract_x
 _atom_site_fract_y
 _atom_site_fract_z
 _atom_site_occupancy
  Na  Na0  1  0.49156800  0.58026300  0.13317500  1
  Na  Na1  1  0.50595300  0.44574200  0.87818900  1
  Na  Na2  1  0.00720100  0.07788000  0.13273200  1
  Nb  Nb0  1  0.50319900  0.90313700  0.75254900  1
  Nb  Nb1  1  0.50065600  0.14999200  0.24910700  1
  Nb  Nb2  1  0.00897400  0.39241700  0.75106500  1
  Nb  Nb3  1  0.00200300  0.64931900  0.24926100  1
  Nb  Nb4  1  0.50467700  0.01771200  0.00563800  1
  Nb  Nb5  1  0.99498600  0.51002500  0.00654600  1
  Bi  Bi0  1  0.01125200  0.90438000  0.87474000  1
  Bi  Bi1  1  0.46419600  0.74953800  0.42286100  1
  Bi  Bi2  1  0.53416700  0.32441600  0.57416200  1
  Bi  Bi3  1  0.03555800  0.24802400  0.42257400  1
  Bi  Bi4  1  0.96583800  0.82252000  0.57385700  1
  O  O0  1  0.23912600  0.27845400  0.01622400  1
  O  O1  1  0.75070400  0.26356200  0.97417800  1
  O  O2  1  0.25487300  0.78226300  0.01598300  1
  O  O3  1  0.75114200  0.76805200  0.97573100  1
  O  O4  1  0.57864100  0.85648100  0.64143900  1
  O  O5  1  0.42262800  0.22146300  0.36048600  1
  O  O6  1  0.91403200  0.36429000  0.64175300  1
  O  O7  1  0.07604500  0.72166100  0.36060600  1
  O  O8  1  0.24938300  0.54068800  0.50184800  1
  O  O9  1  0.74871300  0.03873800  0.49700300  1
  O  O10  1  0.24776700  0.03932900  0.50154600  1
  O  O11  1  0.74992600  0.53840300  0.49626200  1
  O  O12  1  0.41646800  0.98852500  0.87901600  1
  O  O13  1  0.57371200  0.10727600  0.11664600  1
  O  O14  1  0.07842900  0.51246700  0.87738900  1
  O  O15  1  0.92032800  0.60168300  0.11626400  1
  O  O16  1  0.22131900  0.38531300  0.22091400  1
  O  O17  1  0.79073600  0.15081800  0.78077000  1
  O  O18  1  0.27530700  0.88483300  0.22045700  1
  O  O19  1  0.71829700  0.66129600  0.78223600  1
  O  O20  1  0.30141100  0.21788700  0.74173600  1
  O  O21  1  0.71207800  0.46214800  0.25463800  1
  O  O22  1  0.19349800  0.72730000  0.74626300  1
  O  O23  1  0.78520900  0.96170600  0.25415400  1
loop_
_geom_bond_atom_site_label_1
_geom_bond_atom_site_label_2
_geom_bond_distance
_geom_bond_site_symmetry_2
Na0 O18 2.391879 1_555
Na0 O15 2.405011 1_555
Na0 O16 2.479997 1_555
Na0 O21 2.567239 1_555
Na0 O13 2.664672 1_555
Na0 O0 2.755355 1_555
Na0 O2 2.770418 1_555
Na1 O14 2.408659 1_555
Na1 O1 2.465245 1_555
Na1 O19 2.469030 1_555
Na1 O3 2.611589 1_555
Na1 O12 2.612673 1_545
Na1 O17 2.659001 1_555
Na1 O20 2.688355 1_555
Na2 O16 2.393856 1_555
Na2 O13 2.434859 1_455
Na2 O18 2.475990 1_545
Na2 O23 2.561344 1_445
Na2 O15 2.681361 1_445
Na2 O2 2.731809 1_545
Na2 O0 2.736988 1_555
Nb0 O4 1.893966 1_555
Nb0 O19 1.940690 1_555
Nb0 O22 1.973333 1_555
Nb0 O17 2.113860 1_565
Nb0 O20 2.131076 1_565
Nb0 O12 2.160125 1_555
Nb1 O5 1.903337 1_555
Nb1 O23 1.917298 1_545
Nb1 O18 1.938303 1_545
Nb1 O21 2.092694 1_555
Nb1 O16 2.147961 1_555
Nb1 O13 2.241896 1_555
Nb2 O20 1.896042 1_555
Nb2 O6 1.897198 1_455
Nb2 O17 1.940016 1_455
Nb2 O22 2.148628 1_555
Nb2 O14 2.157923 1_555
Nb2 O19 2.220411 1_455
Nb3 O7 1.897526 1_555
Nb3 O16 1.922675 1_555
Nb3 O21 1.928658 1_455
Nb3 O18 2.115883 1_555
Nb3 O23 2.123617 1_455
Nb3 O15 2.258375 1_455
Nb4 O13 1.893584 1_555
Nb4 O2 1.938523 1_545
Nb4 O3 1.970544 1_544
Nb4 O1 2.066986 1_554
Nb4 O0 2.071598 1_555
Nb4 O12 2.168669 1_544
Nb5 O15 1.881836 1_555
Nb5 O0 1.910190 1_655
Nb5 O1 1.945029 1_554
Nb5 O2 2.083129 1_655
Nb5 O3 2.115771 1_554
Nb5 O14 2.226859 1_654
Bi0 O14 2.240543 1_555
Bi0 O12 2.297562 1_555
Bi0 O3 2.446358 1_455
Bi0 O22 2.449093 1_555
Bi0 O19 2.493108 1_455
Bi0 O17 2.582202 1_465
Bi1 O8 2.250918 1_555
Bi1 O10 2.271315 1_565
Bi1 O7 2.392752 1_555
Bi1 O11 2.442402 1_555
Bi1 O9 2.448888 1_565
Bi2 O9 2.239420 1_555
Bi2 O11 2.259234 1_555
Bi2 O6 2.391528 1_555
Bi2 O10 2.432211 1_555
Bi2 O8 2.444932 1_555
Bi3 O10 2.250948 1_555
Bi3 O8 2.268768 1_555
Bi3 O5 2.386704 1_555
Bi3 O9 2.440428 1_455
Bi3 O11 2.465430 1_455
Bi4 O11 2.231939 1_555
Bi4 O9 2.268087 1_565
Bi4 O8 2.419004 1_655
Bi4 O10 2.425866 1_665
Bi4 O4 2.428246 1_555
