# generated using pymatgen
data_NaYCl4
_symmetry_space_group_name_H-M   'P 1'
_cell_length_a   6.61072253
_cell_length_b   6.70478605
_cell_length_c   6.95697280
_cell_angle_alpha   89.40191851
_cell_angle_beta   88.00001030
_cell_angle_gamma   78.85721814
_symmetry_Int_Tables_number   1
_chemical_formula_structural   NaYCl4
_chemical_formula_sum   'Na2 Y2 Cl8'
_cell_volume   302.35784640
_cell_formula_units_Z   2
loop_
 _symmetry_equiv_pos_site_id
 _symmetry_equiv_pos_as_xyz
  1  'x, y, z'
loop_
 _atom_site_type_symbol
 _atom_site_label
 _atom_site_symmetry_multiplicity
 _atom_site_fract_x
 _atom_site_fract_y
 _atom_site_fract_z
 _atom_site_occupancy
  Na  Na0  1  0.23121808  0.19512555  0.53531338  1
  Na  Na1  1  0.76878192  0.80487445  0.46468662  1
  Y  Y0  1  0.78947222  0.30001914  0.05430764  1
  Y  Y1  1  0.21052778  0.69998086  0.94569236  1
  Cl  Cl0  1  0.60885759  0.20652945  0.36790830  1
  Cl  Cl1  1  0.39114241  0.79347055  0.63209170  1
  Cl  Cl2  1  0.09674371  0.00269185  0.20802906  1
  Cl  Cl3  1  0.90325629  0.99730815  0.79197094  1
  Cl  Cl4  1  0.04815474  0.50281545  0.24513834  1
  Cl  Cl5  1  0.95184526  0.49718455  0.75486166  1
  Cl  Cl6  1  0.56757618  0.68802309  0.12042874  1
  Cl  Cl7  1  0.43242382  0.31197691  0.87957126  1
loop_
_geom_bond_atom_site_label_1
_geom_bond_atom_site_label_2
_geom_bond_distance
_geom_bond_site_symmetry_2
Cl0 Y0 2.580174 1_555
Cl0 Na0 2.731951 1_555
Cl0 Na1 2.781138 1_545
Cl1 Y1 2.580174 1_555
Cl1 Na1 2.731951 1_555
Cl1 Na0 2.781138 1_565
Cl2 Y1 2.721662 1_544
Cl2 Y0 2.790324 1_455
Cl2 Na0 2.878401 1_555
Cl2 Na1 3.231044 1_445
Cl3 Y0 2.721662 1_566
Cl3 Y1 2.790324 1_655
Cl3 Na1 2.878401 1_555
Cl3 Na0 3.231044 1_665
Cl4 Y1 2.752182 1_554
Cl4 Y0 2.762347 1_455
Cl4 Na1 2.875312 1_455
Cl4 Na0 2.985702 1_555
Cl5 Y0 2.752182 1_556
Cl5 Y1 2.762347 1_655
Cl5 Na0 2.875312 1_655
Cl5 Na1 2.985702 1_555
Cl6 Y1 2.679653 1_554
Cl6 Y0 2.762973 1_555
Cl6 Na1 2.963666 1_555
Cl7 Y0 2.679653 1_556
Cl7 Y1 2.762973 1_555
Cl7 Na0 2.963666 1_555
