# generated using pymatgen
data_HfVSi
_symmetry_space_group_name_H-M   'P 1'
_cell_length_a   5.05703242
_cell_length_b   5.05703242
_cell_length_c   8.45818200
_cell_angle_alpha   90.00000000
_cell_angle_beta   90.00000000
_cell_angle_gamma   118.20847046
_symmetry_Int_Tables_number   1
_chemical_formula_structural   HfVSi
_chemical_formula_sum   'Hf4 V4 Si4'
_cell_volume   190.61608262
_cell_formula_units_Z   4
loop_
 _symmetry_equiv_pos_site_id
 _symmetry_equiv_pos_as_xyz
  1  'x, y, z'
loop_
 _atom_site_type_symbol
 _atom_site_label
 _atom_site_symmetry_multiplicity
 _atom_site_fract_x
 _atom_site_fract_y
 _atom_site_fract_z
 _atom_site_occupancy
  Hf  Hf0  1  0.33199800  0.66800200  0.18615500  1
  Hf  Hf1  1  0.66911500  0.33088500  0.31065100  1
  Hf  Hf2  1  0.66911500  0.33088500  0.68934900  1
  Hf  Hf3  1  0.33199800  0.66800200  0.81384500  1
  V  V0  1  0.83799400  0.16200600  0.00000000  1
  V  V1  1  0.17563800  0.35229600  0.50000000  1
  V  V2  1  0.64770400  0.82436200  0.50000000  1
  V  V3  1  0.17234200  0.82765800  0.50000000  1
  Si  Si0  1  0.99261800  0.00738200  0.25959500  1
  Si  Si1  1  0.99261800  0.00738200  0.74040500  1
  Si  Si2  1  0.82780100  0.65015600  0.00000000  1
  Si  Si3  1  0.34984400  0.17219900  0.00000000  1
loop_
_geom_bond_atom_site_label_1
_geom_bond_atom_site_label_2
_geom_bond_distance
_geom_bond_site_symmetry_2
Hf0 Si2 2.961577 1_455
Hf0 Si3 2.961577 1_565
Hf0 V3 2.994441 1_555
Hf0 Si3 2.997953 1_555
Hf0 Si2 2.997953 1_555
Hf0 V1 3.004564 1_555
Hf0 V2 3.004564 1_555
Hf0 Si0 3.010235 1_465
Hf0 Si0 3.011946 1_455
Hf0 Si0 3.011946 1_565
Hf0 V0 3.037199 1_565
Hf0 V0 3.037199 1_455
Hf0 Hf1 3.109530 1_555
Hf0 Hf1 3.138462 1_455
Hf0 Hf1 3.138462 1_565
Hf0 Hf3 3.149066 1_554
Hf1 Si0 2.840669 1_555
Hf1 V1 2.979225 1_655
Hf1 V2 2.979225 1_545
Hf1 Si2 2.988295 1_555
Hf1 Si3 2.988295 1_555
Hf1 V0 3.008690 1_555
Hf1 V2 3.009948 1_555
Hf1 V1 3.009948 1_555
Hf1 Si0 3.045590 1_455
Hf1 Si0 3.045590 1_565
Hf1 V3 3.050976 1_545
Hf1 V3 3.050976 1_655
Hf1 Hf2 3.203097 1_555
Hf2 Si1 2.840669 1_555
Hf2 V1 2.979225 1_655
Hf2 V2 2.979225 1_545
Hf2 Si2 2.988295 1_556
Hf2 Si3 2.988295 1_556
Hf2 V0 3.008690 1_556
Hf2 V2 3.009948 1_555
Hf2 V1 3.009948 1_555
Hf2 Si1 3.045590 1_565
Hf2 Si1 3.045590 1_455
Hf2 V3 3.050976 1_545
Hf2 V3 3.050976 1_655
Hf2 Hf3 3.109530 1_555
Hf2 Hf3 3.138462 1_655
Hf2 Hf3 3.138462 1_545
Hf3 Si2 2.961577 1_456
Hf3 Si3 2.961577 1_566
Hf3 V3 2.994441 1_555
Hf3 Si3 2.997953 1_556
Hf3 Si2 2.997953 1_556
Hf3 V1 3.004564 1_555
Hf3 V2 3.004564 1_555
Hf3 Si1 3.010235 1_465
Hf3 Si1 3.011946 1_455
Hf3 Si1 3.011946 1_565
Hf3 V0 3.037199 1_566
Hf3 V0 3.037199 1_456
V1 V3 2.411844 1_555
V1 V2 2.451603 1_555
V1 V3 2.645274 1_545
V1 V2 2.741745 1_445
V2 V3 2.411844 1_555
V2 V3 2.645274 1_655
Si0 V2 2.550983 1_545
Si0 V1 2.550983 1_655
Si0 V3 2.562747 1_645
Si0 V0 2.573321 1_555
Si0 Si3 2.712164 1_655
Si0 Si2 2.712164 1_545
Si1 V1 2.550983 1_655
Si1 V2 2.550983 1_545
Si1 V3 2.562747 1_645
Si1 V0 2.573321 1_556
Si1 Si3 2.712164 1_656
Si1 Si2 2.712164 1_546
Si2 Si3 2.482197 1_555
Si2 V0 2.493369 1_555
Si2 V0 2.564479 1_565
Si2 Si3 2.711151 1_665
Si3 V0 2.493369 1_555
Si3 V0 2.564479 1_455
