# generated using pymatgen
data_Ba2FeN2
_symmetry_space_group_name_H-M   'P 1'
_cell_length_a   4.13689200
_cell_length_b   4.14440200
_cell_length_c   7.04864496
_cell_angle_alpha   107.09672698
_cell_angle_beta   107.06479556
_cell_angle_gamma   90.00000000
_symmetry_Int_Tables_number   1
_chemical_formula_structural   Ba2FeN2
_chemical_formula_sum   'Ba2 Fe1 N2'
_cell_volume   109.92958855
_cell_formula_units_Z   1
loop_
 _symmetry_equiv_pos_site_id
 _symmetry_equiv_pos_as_xyz
  1  'x, y, z'
loop_
 _atom_site_type_symbol
 _atom_site_label
 _atom_site_symmetry_multiplicity
 _atom_site_fract_x
 _atom_site_fract_y
 _atom_site_fract_z
 _atom_site_occupancy
  Ba  Ba0  1  0.86220300  0.86220300  0.22440600  1
  Ba  Ba1  1  0.13779700  0.13779700  0.77559400  1
  Fe  Fe0  1  0.50000000  0.50000000  0.50000000  1
  N  N0  1  0.36733900  0.36733900  0.23467700  1
  N  N1  1  0.63266100  0.63266100  0.76532300  1
loop_
_geom_bond_atom_site_label_1
_geom_bond_atom_site_label_2
_geom_bond_distance
_geom_bond_site_symmetry_2
Ba0 N0 2.928618 1_555
Ba0 N0 2.928621 1_655
Ba0 N0 2.928621 1_565
Ba0 N0 2.928624 1_665
Ba0 N1 2.943539 1_554
Ba1 N1 2.928618 1_555
Ba1 N1 2.928621 1_455
Ba1 N1 2.928621 1_545
Ba1 N1 2.928624 1_445
Ba1 N0 2.943539 1_556
Fe0 N0 1.701192 1_555
Fe0 N1 1.701192 1_555
