# generated using pymatgen
data_Mg14ZnCd
_symmetry_space_group_name_H-M   'P 1'
_cell_length_a   6.29065260
_cell_length_b   6.31615680
_cell_length_c   10.32186448
_cell_angle_alpha   90.00000000
_cell_angle_beta   90.00000000
_cell_angle_gamma   120.13421133
_symmetry_Int_Tables_number   1
_chemical_formula_structural   Mg14ZnCd
_chemical_formula_sum   'Mg14 Zn1 Cd1'
_cell_volume   354.68960313
_cell_formula_units_Z   1
loop_
 _symmetry_equiv_pos_site_id
 _symmetry_equiv_pos_as_xyz
  1  'x, y, z'
loop_
 _atom_site_type_symbol
 _atom_site_label
 _atom_site_symmetry_multiplicity
 _atom_site_fract_x
 _atom_site_fract_y
 _atom_site_fract_z
 _atom_site_occupancy
  Mg  Mg0  1  0.16753306  0.33376603  0.62500000  1
  Mg  Mg1  1  0.16793214  0.83396557  0.62500000  1
  Mg  Mg2  1  0.67031763  0.33527189  0.12500000  1
  Mg  Mg3  1  0.66620008  0.33248672  0.62500000  1
  Mg  Mg4  1  0.67031763  0.83504475  0.12500000  1
  Mg  Mg5  1  0.66620008  0.83371235  0.62500000  1
  Mg  Mg6  1  0.33088840  0.16783365  0.36836571  1
  Mg  Mg7  1  0.33088840  0.16783365  0.88163429  1
  Mg  Mg8  1  0.33088840  0.66305575  0.36836571  1
  Mg  Mg9  1  0.33088840  0.66305575  0.88163429  1
  Mg  Mg10  1  0.83720643  0.16860371  0.37195081  1
  Mg  Mg11  1  0.83720643  0.16860371  0.87804919  1
  Mg  Mg12  1  0.83419121  0.66709610  0.37431490  1
  Mg  Mg13  1  0.83419121  0.66709610  0.87568510  1
  Zn  Zn0  1  0.16179974  0.33089937  0.12500000  1
  Cd  Cd0  1  0.16335077  0.83167488  0.12500000  1
loop_
_geom_bond_atom_site_label_1
_geom_bond_atom_site_label_2
_geom_bond_distance
_geom_bond_site_symmetry_2
Mg0 Mg5 3.141005 1_555
Mg0 Mg3 3.141005 1_555
Mg0 Mg5 3.149663 1_445
Mg0 Mg3 3.149663 1_455
Mg0 Mg1 3.158079 1_555
Mg0 Mg1 3.158079 1_545
Mg0 Mg10 3.170477 1_455
Mg0 Mg11 3.170477 1_455
Mg0 Mg6 3.201979 1_555
Mg0 Mg7 3.201979 1_555
Mg0 Mg8 3.201985 1_555
Mg0 Mg9 3.201985 1_555
Mg1 Mg3 3.135233 1_565
Mg1 Mg5 3.135234 1_555
Mg1 Mg3 3.155419 1_455
Mg1 Mg5 3.155419 1_455
Mg1 Mg13 3.161038 1_455
Mg1 Mg12 3.161038 1_455
Mg1 Mg8 3.216228 1_555
Mg1 Mg9 3.216228 1_555
Mg1 Mg6 3.216234 1_565
Mg1 Mg7 3.216234 1_565
Mg2 Zn0 3.105700 1_655
Mg2 Mg7 3.117762 1_554
Mg2 Mg6 3.117762 1_555
Mg2 Mg4 3.156644 1_555
Mg2 Mg4 3.159513 1_545
Mg2 Zn0 3.185134 1_555
Mg3 Mg5 3.150337 1_545
Mg3 Mg5 3.165820 1_555
Mg3 Mg7 3.216392 1_555
Mg3 Mg6 3.216392 1_555
Mg4 Zn0 3.105700 1_665
Mg4 Mg9 3.117762 1_554
Mg4 Mg8 3.117762 1_555
Mg4 Zn0 3.185134 1_555
Mg5 Mg8 3.216392 1_555
Mg5 Mg9 3.216392 1_555
Mg6 Zn0 3.098752 1_555
Mg6 Mg8 3.127900 1_555
Mg6 Mg8 3.188256 1_545
Mg7 Zn0 3.098752 1_556
Mg7 Mg9 3.127900 1_555
Mg7 Mg9 3.188256 1_545
Mg8 Zn0 3.098758 1_555
Mg9 Zn0 3.098758 1_556
Mg10 Zn0 3.100955 1_655
Mg10 Mg8 3.108246 1_655
Mg10 Mg6 3.108247 1_655
Mg10 Mg2 3.133266 1_555
Mg10 Mg4 3.133273 1_545
Mg10 Mg12 3.158215 1_545
Mg10 Mg12 3.158215 1_555
Mg10 Mg8 3.182847 1_545
Mg10 Mg6 3.182847 1_555
Mg10 Mg3 3.188876 1_555
Mg10 Mg5 3.188882 1_545
Mg11 Zn0 3.100955 1_656
Mg11 Mg9 3.108246 1_655
Mg11 Mg7 3.108247 1_655
Mg11 Mg2 3.133266 1_556
Mg11 Mg4 3.133273 1_546
Mg11 Mg13 3.158215 1_545
Mg11 Mg13 3.158215 1_555
Mg11 Mg9 3.182847 1_545
Mg11 Mg7 3.182847 1_555
Mg11 Mg3 3.188876 1_555
Mg11 Mg5 3.188882 1_545
Mg12 Mg6 3.138039 1_665
Mg12 Mg8 3.138039 1_655
Mg12 Mg4 3.147746 1_555
Mg12 Mg2 3.147752 1_555
Mg12 Mg6 3.153966 1_555
Mg12 Mg8 3.153967 1_555
Mg12 Mg5 3.168003 1_555
Mg12 Mg3 3.168009 1_555
Mg13 Mg7 3.138039 1_665
Mg13 Mg9 3.138039 1_655
Mg13 Mg4 3.147746 1_556
Mg13 Mg2 3.147752 1_556
Mg13 Mg7 3.153966 1_555
Mg13 Mg9 3.153967 1_555
Mg13 Mg5 3.168003 1_555
Mg13 Mg3 3.168009 1_555
Cd0 Mg9 3.111609 1_554
Cd0 Mg8 3.111609 1_555
Cd0 Mg7 3.111616 1_564
Cd0 Mg6 3.111616 1_565
Cd0 Mg2 3.112240 1_455
Cd0 Mg4 3.112240 1_455
Cd0 Mg12 3.135168 1_455
Cd0 Mg13 3.135168 1_454
Cd0 Zn0 3.158090 1_555
Cd0 Zn0 3.158090 1_565
Cd0 Mg2 3.178520 1_565
Cd0 Mg4 3.178520 1_555
