# generated using pymatgen
data_MgTi
_symmetry_space_group_name_H-M   'P 1'
_cell_length_a   16.81196270
_cell_length_b   16.81196270
_cell_length_c   9.60295600
_cell_angle_alpha   90.00000000
_cell_angle_beta   90.00000000
_cell_angle_gamma   159.72362286
_symmetry_Int_Tables_number   1
_chemical_formula_structural   MgTi
_chemical_formula_sum   'Mg24 Ti24'
_cell_volume   940.60296029
_cell_formula_units_Z   24
loop_
 _symmetry_equiv_pos_site_id
 _symmetry_equiv_pos_as_xyz
  1  'x, y, z'
loop_
 _atom_site_type_symbol
 _atom_site_label
 _atom_site_symmetry_multiplicity
 _atom_site_fract_x
 _atom_site_fract_y
 _atom_site_fract_z
 _atom_site_occupancy
  Mg  Mg0_0  1  0.49919950  0.00080050  0.00000000  1
  Mg  Mg0_1  1  0.49919950  0.00080050  0.50000000  1
  Mg  Mg0_2  1  0.49919950  0.50080050  0.00000000  1
  Mg  Mg0_3  1  0.49919950  0.50080050  0.50000000  1
  Mg  Mg0_4  1  0.99919950  0.00080050  0.00000000  1
  Mg  Mg0_5  1  0.99919950  0.00080050  0.50000000  1
  Mg  Mg0_6  1  0.99919950  0.50080050  0.00000000  1
  Mg  Mg0_7  1  0.99919950  0.50080050  0.50000000  1
  Mg  Mg1_0  1  0.33949100  0.16050900  0.00000000  1
  Mg  Mg1_1  1  0.33949100  0.16050900  0.50000000  1
  Mg  Mg1_2  1  0.33949100  0.66050900  0.00000000  1
  Mg  Mg1_3  1  0.33949100  0.66050900  0.50000000  1
  Mg  Mg1_4  1  0.83949100  0.16050900  0.00000000  1
  Mg  Mg1_5  1  0.83949100  0.16050900  0.50000000  1
  Mg  Mg1_6  1  0.83949100  0.66050900  0.00000000  1
  Mg  Mg1_7  1  0.83949100  0.66050900  0.50000000  1
  Mg  Mg2_0  1  0.05301200  0.44698800  0.25000000  1
  Mg  Mg2_1  1  0.05301200  0.44698800  0.75000000  1
  Mg  Mg2_2  1  0.05301200  0.94698800  0.25000000  1
  Mg  Mg2_3  1  0.05301200  0.94698800  0.75000000  1
  Mg  Mg2_4  1  0.55301200  0.44698800  0.25000000  1
  Mg  Mg2_5  1  0.55301200  0.44698800  0.75000000  1
  Mg  Mg2_6  1  0.55301200  0.94698800  0.25000000  1
  Mg  Mg2_7  1  0.55301200  0.94698800  0.75000000  1
  Ti  Ti0_0  1  0.16998400  0.33001600  0.00000000  1
  Ti  Ti0_1  1  0.16998400  0.33001600  0.50000000  1
  Ti  Ti0_2  1  0.16998400  0.83001600  0.00000000  1
  Ti  Ti0_3  1  0.16998400  0.83001600  0.50000000  1
  Ti  Ti0_4  1  0.66998400  0.33001600  0.00000000  1
  Ti  Ti0_5  1  0.66998400  0.33001600  0.50000000  1
  Ti  Ti0_6  1  0.66998400  0.83001600  0.00000000  1
  Ti  Ti0_7  1  0.66998400  0.83001600  0.50000000  1
  Ti  Ti1_0  1  0.21272950  0.28727050  0.25000000  1
  Ti  Ti1_1  1  0.21272950  0.28727050  0.75000000  1
  Ti  Ti1_2  1  0.21272950  0.78727050  0.25000000  1
  Ti  Ti1_3  1  0.21272950  0.78727050  0.75000000  1
  Ti  Ti1_4  1  0.71272950  0.28727050  0.25000000  1
  Ti  Ti1_5  1  0.71272950  0.28727050  0.75000000  1
  Ti  Ti1_6  1  0.71272950  0.78727050  0.25000000  1
  Ti  Ti1_7  1  0.71272950  0.78727050  0.75000000  1
  Ti  Ti2_0  1  0.39225050  0.10774950  0.25000000  1
  Ti  Ti2_1  1  0.39225050  0.10774950  0.75000000  1
  Ti  Ti2_2  1  0.39225050  0.60774950  0.25000000  1
  Ti  Ti2_3  1  0.39225050  0.60774950  0.75000000  1
  Ti  Ti2_4  1  0.89225050  0.10774950  0.25000000  1
  Ti  Ti2_5  1  0.89225050  0.10774950  0.75000000  1
  Ti  Ti2_6  1  0.89225050  0.60774950  0.25000000  1
  Ti  Ti2_7  1  0.89225050  0.60774950  0.75000000  1
loop_
_geom_bond_atom_site_label_1
_geom_bond_atom_site_label_2
_geom_bond_distance
_geom_bond_site_symmetry_2
Mg0_0 Mg0_6 2.959290 1_445
Mg0_0 Mg0_6 2.959290 1_555
Mg0_0 Mg2_6 2.989313 1_545
Mg0_0 Mg2_7 2.989313 1_544
Mg0_0 Ti0_2 3.010641 1_545
Mg0_0 Ti0_4 3.010641 1_555
Mg0_0 Ti1_2 3.067577 1_545
Mg0_0 Ti1_3 3.067577 1_544
Mg0_0 Ti1_4 3.067577 1_555
Mg0_0 Ti1_5 3.067577 1_554
Mg0_0 Mg1_4 3.334785 1_555
Mg0_0 Mg1_2 3.334785 1_545
Mg0_1 Mg0_7 2.959290 1_555
Mg0_1 Mg0_7 2.959290 1_445
Mg0_1 Mg2_6 2.989313 1_545
Mg0_1 Mg2_7 2.989313 1_545
Mg0_1 Ti0_3 3.010641 1_545
Mg0_1 Ti0_5 3.010641 1_555
Mg0_1 Ti1_2 3.067577 1_545
Mg0_1 Ti1_3 3.067577 1_545
Mg0_1 Ti1_4 3.067577 1_555
Mg0_1 Ti1_5 3.067577 1_555
Mg0_1 Mg1_5 3.334785 1_555
Mg0_1 Mg1_3 3.334785 1_545
Mg0_2 Mg0_4 2.959290 1_455
Mg0_2 Mg0_4 2.959290 1_565
Mg0_2 Mg2_4 2.989313 1_555
Mg0_2 Mg2_5 2.989313 1_554
Mg0_2 Ti0_0 3.010641 1_555
Mg0_2 Ti0_6 3.010641 1_555
Mg0_2 Ti1_0 3.067577 1_555
Mg0_2 Ti1_1 3.067577 1_554
Mg0_2 Ti1_6 3.067577 1_555
Mg0_2 Ti1_7 3.067577 1_554
Mg0_2 Mg1_0 3.334785 1_555
Mg0_2 Mg1_6 3.334785 1_555
Mg0_3 Mg0_5 2.959290 1_455
Mg0_3 Mg0_5 2.959290 1_565
Mg0_3 Mg2_4 2.989313 1_555
Mg0_3 Mg2_5 2.989313 1_555
Mg0_3 Ti0_1 3.010641 1_555
Mg0_3 Ti0_7 3.010641 1_555
Mg0_3 Ti1_0 3.067577 1_555
Mg0_3 Ti1_1 3.067577 1_555
Mg0_3 Ti1_6 3.067577 1_555
Mg0_3 Ti1_7 3.067577 1_555
Mg0_3 Mg1_7 3.334785 1_555
Mg0_3 Mg1_1 3.334785 1_555
Mg0_4 Mg2_2 2.989313 1_645
Mg0_4 Mg2_3 2.989313 1_644
Mg0_4 Ti0_6 3.010641 1_545
Mg0_4 Ti0_0 3.010641 1_655
Mg0_4 Ti1_6 3.067577 1_545
Mg0_4 Ti1_7 3.067577 1_544
Mg0_4 Ti1_1 3.067577 1_654
Mg0_4 Ti1_0 3.067577 1_655
Mg0_4 Mg1_6 3.334785 1_545
Mg0_4 Mg1_0 3.334785 1_655
Mg0_5 Mg2_2 2.989313 1_645
Mg0_5 Mg2_3 2.989313 1_645
Mg0_5 Ti0_7 3.010641 1_545
Mg0_5 Ti0_1 3.010641 1_655
Mg0_5 Ti1_6 3.067577 1_545
Mg0_5 Ti1_7 3.067577 1_545
Mg0_5 Ti1_0 3.067577 1_655
Mg0_5 Ti1_1 3.067577 1_655
Mg0_5 Mg1_7 3.334785 1_545
Mg0_5 Mg1_1 3.334785 1_655
Mg0_6 Mg2_1 2.989313 1_654
Mg0_6 Mg2_0 2.989313 1_655
Mg0_6 Ti0_4 3.010641 1_555
Mg0_6 Ti0_2 3.010641 1_655
Mg0_6 Ti1_4 3.067577 1_555
Mg0_6 Ti1_5 3.067577 1_554
Mg0_6 Ti1_2 3.067577 1_655
Mg0_6 Ti1_3 3.067577 1_654
Mg0_6 Mg1_4 3.334785 1_555
Mg0_6 Mg1_2 3.334785 1_655
Mg0_7 Mg2_0 2.989313 1_655
Mg0_7 Mg2_1 2.989313 1_655
Mg0_7 Ti0_5 3.010641 1_555
Mg0_7 Ti0_3 3.010641 1_655
Mg0_7 Ti1_4 3.067577 1_555
Mg0_7 Ti1_5 3.067577 1_555
Mg0_7 Ti1_2 3.067577 1_655
Mg0_7 Ti1_3 3.067577 1_655
Mg0_7 Mg1_3 3.334785 1_655
Mg0_7 Mg1_5 3.334785 1_555
Mg1_0 Mg1_6 2.959290 1_555
Mg1_0 Mg1_6 2.959290 1_445
Mg1_0 Ti2_0 2.968678 1_555
Mg1_0 Ti2_1 2.968678 1_554
Mg1_0 Ti0_2 3.047537 1_545
Mg1_0 Ti0_4 3.047537 1_555
Mg1_0 Mg2_2 3.067695 1_545
Mg1_0 Mg2_3 3.067695 1_544
Mg1_0 Mg2_4 3.067695 1_555
Mg1_0 Mg2_5 3.067695 1_554
Mg1_1 Mg1_7 2.959290 1_445
Mg1_1 Mg1_7 2.959290 1_555
Mg1_1 Ti2_0 2.968678 1_555
Mg1_1 Ti2_1 2.968678 1_555
Mg1_1 Ti0_3 3.047537 1_545
Mg1_1 Ti0_5 3.047537 1_555
Mg1_1 Mg2_2 3.067695 1_545
Mg1_1 Mg2_3 3.067695 1_545
Mg1_1 Mg2_4 3.067695 1_555
Mg1_1 Mg2_5 3.067695 1_555
Mg1_2 Mg1_4 2.959290 1_455
Mg1_2 Mg1_4 2.959290 1_565
Mg1_2 Ti2_2 2.968678 1_555
Mg1_2 Ti2_3 2.968678 1_554
Mg1_2 Ti0_0 3.047537 1_555
Mg1_2 Ti0_6 3.047537 1_555
Mg1_2 Mg2_0 3.067695 1_555
Mg1_2 Mg2_1 3.067695 1_554
Mg1_2 Mg2_6 3.067695 1_555
Mg1_2 Mg2_7 3.067695 1_554
Mg1_3 Mg1_5 2.959290 1_455
Mg1_3 Mg1_5 2.959290 1_565
Mg1_3 Ti2_2 2.968678 1_555
Mg1_3 Ti2_3 2.968678 1_555
Mg1_3 Ti0_1 3.047537 1_555
Mg1_3 Ti0_7 3.047537 1_555
Mg1_3 Mg2_0 3.067695 1_555
Mg1_3 Mg2_1 3.067695 1_555
Mg1_3 Mg2_6 3.067695 1_555
Mg1_3 Mg2_7 3.067695 1_555
Mg1_4 Ti2_4 2.968678 1_555
Mg1_4 Ti2_5 2.968678 1_554
Mg1_4 Ti0_6 3.047537 1_545
Mg1_4 Ti0_0 3.047537 1_655
Mg1_4 Mg2_7 3.067695 1_544
Mg1_4 Mg2_6 3.067695 1_545
Mg1_4 Mg2_0 3.067695 1_655
Mg1_4 Mg2_1 3.067695 1_654
Mg1_5 Ti2_4 2.968678 1_555
Mg1_5 Ti2_5 2.968678 1_555
Mg1_5 Ti0_7 3.047537 1_545
Mg1_5 Ti0_1 3.047537 1_655
Mg1_5 Mg2_6 3.067695 1_545
Mg1_5 Mg2_7 3.067695 1_545
Mg1_5 Mg2_0 3.067695 1_655
Mg1_5 Mg2_1 3.067695 1_655
Mg1_6 Ti2_7 2.968678 1_554
Mg1_6 Ti2_6 2.968678 1_555
Mg1_6 Ti0_2 3.047537 1_655
Mg1_6 Ti0_4 3.047537 1_555
Mg1_6 Mg2_2 3.067695 1_655
Mg1_6 Mg2_5 3.067695 1_554
Mg1_6 Mg2_4 3.067695 1_555
Mg1_6 Mg2_3 3.067695 1_654
Mg1_7 Ti2_6 2.968678 1_555
Mg1_7 Ti2_7 2.968678 1_555
Mg1_7 Ti0_5 3.047537 1_555
Mg1_7 Ti0_3 3.047537 1_655
Mg1_7 Mg2_2 3.067695 1_655
Mg1_7 Mg2_4 3.067695 1_555
Mg1_7 Mg2_5 3.067695 1_555
Mg1_7 Mg2_3 3.067695 1_655
Mg2_0 Mg2_6 2.959290 1_445
Mg2_0 Mg2_6 2.959290 1_555
Mg2_0 Ti2_4 3.303586 1_455
Mg2_0 Ti2_2 3.303586 1_555
Mg2_0 Ti1_2 3.334518 1_555
Mg2_0 Ti1_4 3.334518 1_455
Mg2_1 Mg2_7 2.959290 1_445
Mg2_1 Mg2_7 2.959290 1_555
Mg2_1 Ti2_3 3.303586 1_555
Mg2_1 Ti2_5 3.303586 1_455
Mg2_1 Ti1_3 3.334518 1_555
Mg2_1 Ti1_5 3.334518 1_455
Mg2_2 Mg2_4 2.959290 1_565
Mg2_2 Mg2_4 2.959290 1_455
Mg2_2 Ti2_6 3.303586 1_455
Mg2_2 Ti2_0 3.303586 1_565
Mg2_2 Ti1_6 3.334518 1_455
Mg2_2 Ti1_0 3.334518 1_565
Mg2_3 Mg2_5 2.959290 1_455
Mg2_3 Mg2_5 2.959290 1_565
Mg2_3 Ti2_7 3.303586 1_455
Mg2_3 Ti2_1 3.303586 1_565
Mg2_3 Ti1_7 3.334518 1_455
Mg2_3 Ti1_1 3.334518 1_565
Mg2_4 Ti2_6 3.303586 1_555
Mg2_4 Ti2_0 3.303586 1_555
Mg2_4 Ti1_0 3.334518 1_555
Mg2_4 Ti1_6 3.334518 1_555
Mg2_5 Ti2_7 3.303586 1_555
Mg2_5 Ti2_1 3.303586 1_555
Mg2_5 Ti1_1 3.334518 1_555
Mg2_5 Ti1_7 3.334518 1_555
Mg2_6 Ti2_2 3.303586 1_555
Mg2_6 Ti2_4 3.303586 1_565
Mg2_6 Ti1_4 3.334518 1_565
Mg2_6 Ti1_2 3.334518 1_555
Mg2_7 Ti2_5 3.303586 1_565
Mg2_7 Ti2_3 3.303586 1_555
Mg2_7 Ti1_5 3.334518 1_565
Mg2_7 Ti1_3 3.334518 1_555
Ti0_0 Ti1_0 2.786627 1_555
Ti0_0 Ti1_1 2.786627 1_554
Ti0_0 Ti0_6 2.959290 1_445
Ti0_0 Ti0_6 2.959290 1_555
Ti0_0 Ti2_4 2.965725 1_455
Ti0_0 Ti2_5 2.965725 1_454
Ti0_0 Ti2_3 2.965725 1_554
Ti0_0 Ti2_2 2.965725 1_555
Ti0_1 Ti1_0 2.786627 1_555
Ti0_1 Ti1_1 2.786627 1_555
Ti0_1 Ti0_7 2.959290 1_445
Ti0_1 Ti0_7 2.959290 1_555
Ti0_1 Ti2_4 2.965725 1_455
Ti0_1 Ti2_2 2.965725 1_555
Ti0_1 Ti2_3 2.965725 1_555
Ti0_1 Ti2_5 2.965725 1_455
Ti0_2 Ti1_2 2.786627 1_555
Ti0_2 Ti1_3 2.786627 1_554
Ti0_2 Ti0_4 2.959290 1_455
Ti0_2 Ti0_4 2.959290 1_565
Ti0_2 Ti2_0 2.965725 1_565
Ti0_2 Ti2_1 2.965725 1_564
Ti0_2 Ti2_6 2.965725 1_455
Ti0_2 Ti2_7 2.965725 1_454
Ti0_3 Ti1_2 2.786627 1_555
Ti0_3 Ti1_3 2.786627 1_555
Ti0_3 Ti0_5 2.959290 1_455
Ti0_3 Ti0_5 2.959290 1_565
Ti0_3 Ti2_0 2.965725 1_565
Ti0_3 Ti2_6 2.965725 1_455
Ti0_3 Ti2_1 2.965725 1_565
Ti0_3 Ti2_7 2.965725 1_455
Ti0_4 Ti1_4 2.786627 1_555
Ti0_4 Ti1_5 2.786627 1_554
Ti0_4 Ti2_0 2.965725 1_555
Ti0_4 Ti2_1 2.965725 1_554
Ti0_4 Ti2_6 2.965725 1_555
Ti0_4 Ti2_7 2.965725 1_554
Ti0_5 Ti1_4 2.786627 1_555
Ti0_5 Ti1_5 2.786627 1_555
Ti0_5 Ti2_0 2.965725 1_555
Ti0_5 Ti2_6 2.965725 1_555
Ti0_5 Ti2_1 2.965725 1_555
Ti0_5 Ti2_7 2.965725 1_555
Ti0_6 Ti1_6 2.786627 1_555
Ti0_6 Ti1_7 2.786627 1_554
Ti0_6 Ti2_4 2.965725 1_565
Ti0_6 Ti2_5 2.965725 1_564
Ti0_6 Ti2_3 2.965725 1_554
Ti0_6 Ti2_2 2.965725 1_555
Ti0_7 Ti1_6 2.786627 1_555
Ti0_7 Ti1_7 2.786627 1_555
Ti0_7 Ti2_4 2.965725 1_565
Ti0_7 Ti2_5 2.965725 1_565
Ti0_7 Ti2_2 2.965725 1_555
Ti0_7 Ti2_3 2.965725 1_555
Ti1_0 Ti2_2 2.762464 1_555
Ti1_0 Ti2_4 2.762464 1_455
Ti1_0 Ti1_6 2.959290 1_445
Ti1_0 Ti1_6 2.959290 1_555
Ti1_1 Ti2_3 2.762464 1_555
Ti1_1 Ti2_5 2.762464 1_455
Ti1_1 Ti1_7 2.959290 1_445
Ti1_1 Ti1_7 2.959290 1_555
Ti1_2 Ti2_0 2.762464 1_565
Ti1_2 Ti2_6 2.762464 1_455
Ti1_2 Ti1_4 2.959290 1_455
Ti1_2 Ti1_4 2.959290 1_565
Ti1_3 Ti2_1 2.762464 1_565
Ti1_3 Ti2_7 2.762464 1_455
Ti1_3 Ti1_5 2.959290 1_455
Ti1_3 Ti1_5 2.959290 1_565
Ti1_4 Ti2_0 2.762464 1_555
Ti1_4 Ti2_6 2.762464 1_555
Ti1_5 Ti2_1 2.762464 1_555
Ti1_5 Ti2_7 2.762464 1_555
Ti1_6 Ti2_4 2.762464 1_565
Ti1_6 Ti2_2 2.762464 1_555
Ti1_7 Ti2_5 2.762464 1_565
Ti1_7 Ti2_3 2.762464 1_555
Ti2_0 Ti2_6 2.959290 1_445
Ti2_0 Ti2_6 2.959290 1_555
Ti2_1 Ti2_7 2.959290 1_445
Ti2_1 Ti2_7 2.959290 1_555
Ti2_2 Ti2_4 2.959290 1_565
Ti2_2 Ti2_4 2.959290 1_455
Ti2_3 Ti2_5 2.959290 1_565
Ti2_3 Ti2_5 2.959290 1_455
