# generated using pymatgen
data_U2Fe3Si
_symmetry_space_group_name_H-M   'P 1'
_cell_length_a   5.11548877
_cell_length_b   5.11230303
_cell_length_c   7.30748079
_cell_angle_alpha   90.00030818
_cell_angle_beta   90.00028452
_cell_angle_gamma   60.02060904
_symmetry_Int_Tables_number   1
_chemical_formula_structural   U2Fe3Si
_chemical_formula_sum   'U4 Fe6 Si2'
_cell_volume   165.53589864
_cell_formula_units_Z   2
loop_
 _symmetry_equiv_pos_site_id
 _symmetry_equiv_pos_as_xyz
  1  'x, y, z'
loop_
 _atom_site_type_symbol
 _atom_site_label
 _atom_site_symmetry_multiplicity
 _atom_site_fract_x
 _atom_site_fract_y
 _atom_site_fract_z
 _atom_site_occupancy
  U  U0  1  0.33395064  0.33302544  0.56459765  1
  U  U1  1  0.66604654  0.66697595  0.43539177  1
  U  U2  1  0.66604955  0.66697511  0.06460426  1
  U  U3  1  0.33395273  0.33302455  0.93540352  1
  Fe  Fe0  1  0.83254328  0.33536320  0.75000238  1
  Fe  Fe1  1  0.33560023  0.83220129  0.75000142  1
  Fe  Fe2  1  0.83254038  0.83209485  0.75000060  1
  Fe  Fe3  1  0.16744733  0.66465622  0.24999872  1
  Fe  Fe4  1  0.66442041  0.16778840  0.24999897  1
  Fe  Fe5  1  0.16744974  0.16789546  0.25000042  1
  Si  Si0  1  -0.00000105  0.00000049  0.49999797  1
  Si  Si1  1  0.00000023  0.00000005  0.00000333  1
loop_
_geom_bond_atom_site_label_1
_geom_bond_atom_site_label_2
_geom_bond_distance
_geom_bond_site_symmetry_2
U0 U3 2.709657 1_555
U1 U2 2.709523 1_555
Fe0 Si1 2.354356 1_656
Fe0 Si0 2.354366 1_655
Fe0 Fe2 2.539435 1_555
Fe0 Fe1 2.541839 1_555
Fe0 Fe2 2.572868 1_545
Fe0 Fe1 2.573651 1_645
Fe0 U2 2.727927 1_556
Fe0 U1 2.727991 1_555
Fe0 U3 2.893338 1_555
Fe0 U0 2.893345 1_555
Fe0 U3 2.895510 1_655
Fe0 U0 2.895526 1_655
Fe1 Si1 2.355606 1_566
Fe1 Si0 2.355613 1_565
Fe1 Fe2 2.541820 1_555
Fe1 Fe2 2.573669 1_455
Fe1 U2 2.725652 1_556
Fe1 U1 2.725693 1_555
Fe1 U3 2.893001 1_565
Fe1 U0 2.893012 1_555
Fe1 U3 2.893019 1_555
Fe1 U0 2.893019 1_565
Fe2 Si1 2.354360 1_666
Fe2 Si0 2.354371 1_665
Fe2 U2 2.727946 1_556
Fe2 U1 2.727968 1_555
Fe2 U3 2.893332 1_565
Fe2 U0 2.893340 1_565
Fe2 U0 2.895521 1_655
Fe2 U3 2.895528 1_655
Fe3 Si1 2.354270 1_565
Fe3 Si0 2.354285 1_565
Fe3 Fe5 2.539585 1_555
Fe3 Fe4 2.541992 1_555
Fe3 Fe5 2.572718 1_565
Fe3 Fe4 2.573498 1_465
Fe3 U3 2.727933 1_554
Fe3 U0 2.727962 1_555
Fe3 U1 2.893294 1_555
Fe3 U2 2.893323 1_555
Fe3 U2 2.895478 1_455
Fe3 U1 2.895497 1_455
Fe4 Si1 2.355514 1_655
Fe4 Si0 2.355524 1_655
Fe4 Fe5 2.541974 1_555
Fe4 Fe5 2.573514 1_655
Fe4 U3 2.725650 1_554
Fe4 U0 2.725681 1_555
Fe4 U2 2.892972 1_545
Fe4 U1 2.892974 1_555
Fe4 U1 2.892982 1_545
Fe4 U2 2.892997 1_555
Fe5 Si1 2.354272 1_555
Fe5 Si0 2.354291 1_555
Fe5 U0 2.727940 1_555
Fe5 U3 2.727956 1_554
Fe5 U1 2.893291 1_545
Fe5 U2 2.893315 1_545
Fe5 U1 2.895490 1_455
Fe5 U2 2.895498 1_455
Si0 U0 2.988818 1_455
Si0 U1 2.988822 1_545
Si0 U0 2.991059 1_545
Si0 U0 2.991061 1_555
Si0 U1 2.991068 1_455
Si0 U1 2.991070 1_445
Si1 U3 2.988812 1_454
Si1 U2 2.988821 1_545
Si1 U2 2.991057 1_455
Si1 U3 2.991058 1_544
Si1 U2 2.991064 1_445
Si1 U3 2.991069 1_554
