# generated using pymatgen
data_MgTiSb(PO4)3
_symmetry_space_group_name_H-M   'P 1'
_cell_length_a   8.38961198
_cell_length_b   8.38961220
_cell_length_c   8.38961202
_cell_angle_alpha   63.98503850
_cell_angle_beta   63.98503989
_cell_angle_gamma   63.98504327
_symmetry_Int_Tables_number   1
_chemical_formula_structural   MgTiSb(PO4)3
_chemical_formula_sum   'Mg2 Ti2 Sb2 P6 O24'
_cell_volume   454.20318509
_cell_formula_units_Z   2
loop_
 _symmetry_equiv_pos_site_id
 _symmetry_equiv_pos_as_xyz
  1  'x, y, z'
loop_
 _atom_site_type_symbol
 _atom_site_label
 _atom_site_symmetry_multiplicity
 _atom_site_fract_x
 _atom_site_fract_y
 _atom_site_fract_z
 _atom_site_occupancy
  Mg  Mg0  1  0.99597200  0.99597200  0.99597200  1
  Mg  Mg1  1  0.49597200  0.49597200  0.49597200  1
  Ti  Ti0  1  0.15041700  0.15041700  0.15041700  1
  Ti  Ti1  1  0.65041700  0.65041700  0.65041700  1
  Sb  Sb0  1  0.33640400  0.33640400  0.33640400  1
  Sb  Sb1  1  0.83640400  0.83640400  0.83640400  1
  P  P0  1  0.06666800  0.43161300  0.75483300  1
  P  P1  1  0.43161300  0.75483300  0.06666800  1
  P  P2  1  0.75483300  0.06666800  0.43161300  1
  P  P3  1  0.25483300  0.93161300  0.56666800  1
  P  P4  1  0.56666800  0.25483300  0.93161300  1
  P  P5  1  0.93161300  0.56666800  0.25483300  1
  O  O0  1  0.06661800  0.56759500  0.32862300  1
  O  O1  1  0.32862300  0.06661800  0.56759500  1
  O  O2  1  0.07028000  0.23873600  0.90668400  1
  O  O3  1  0.56759500  0.32862300  0.06661800  1
  O  O4  1  0.06759500  0.56661800  0.82862300  1
  O  O5  1  0.24636600  0.41711400  0.58473100  1
  O  O6  1  0.23873600  0.90668400  0.07028000  1
  O  O7  1  0.41711400  0.58473100  0.24636600  1
  O  O8  1  0.20206300  0.00355000  0.38172900  1
  O  O9  1  0.58473100  0.24636600  0.41711400  1
  O  O10  1  0.08473100  0.91711400  0.74636600  1
  O  O11  1  0.38172900  0.20206300  0.00355000  1
  O  O12  1  0.56661800  0.82862300  0.06759500  1
  O  O13  1  0.90668400  0.07028000  0.23873600  1
  O  O14  1  0.40668400  0.73873600  0.57028000  1
  O  O15  1  0.82862300  0.06759500  0.56661800  1
  O  O16  1  0.57028000  0.40668400  0.73873600  1
  O  O17  1  0.74636600  0.08473100  0.91711400  1
  O  O18  1  0.73873600  0.57028000  0.40668400  1
  O  O19  1  0.00355000  0.38172900  0.20206300  1
  O  O20  1  0.50355000  0.70206300  0.88172900  1
  O  O21  1  0.91711400  0.74636600  0.08473100  1
  O  O22  1  0.70206300  0.88172900  0.50355000  1
  O  O23  1  0.88172900  0.50355000  0.70206300  1
loop_
_geom_bond_atom_site_label_1
_geom_bond_atom_site_label_2
_geom_bond_distance
_geom_bond_site_symmetry_2
Mg0 O2 2.112753 1_665
Mg0 O6 2.112753 1_656
Mg0 O13 2.112753 1_566
Mg0 O21 2.189224 1_556
Mg0 O17 2.189224 1_565
Mg0 O10 2.189224 1_655
Mg1 O18 2.112753 1_555
Mg1 O16 2.112753 1_555
Mg1 O14 2.112753 1_555
Mg1 O5 2.189224 1_555
Mg1 O7 2.189224 1_555
Mg1 O9 2.189224 1_555
O0 P5 1.514337 1_455
O0 Sb0 2.248733 1_555
O1 P3 1.514337 1_545
O1 Sb0 2.248732 1_555
O2 P0 1.557195 1_555
O2 Ti0 2.149936 1_556
O3 P4 1.514337 1_554
O3 Sb0 2.248732 1_555
O4 P0 1.514337 1_555
O4 Sb1 2.248733 1_455
O5 P0 1.558313 1_555
O5 Sb0 2.185822 1_555
O6 P1 1.557195 1_555
O6 Ti0 2.149936 1_565
O7 P1 1.558313 1_555
O7 Sb0 2.185822 1_555
O8 P3 1.585671 1_545
O8 Ti0 1.908844 1_555
O9 P2 1.558313 1_555
O9 Sb0 2.185822 1_555
O10 P3 1.558313 1_555
O10 Sb1 2.185822 1_455
O11 P4 1.585671 1_554
O11 Ti0 1.908844 1_555
O12 P1 1.514337 1_555
O12 Sb1 2.248732 1_554
O13 P2 1.557195 1_555
O13 Ti0 2.149936 1_655
O14 P3 1.557195 1_555
O14 Ti1 2.149936 1_555
O15 P2 1.514337 1_555
O15 Sb1 2.248732 1_545
O16 P4 1.557195 1_555
O16 Ti1 2.149936 1_555
O17 P4 1.558313 1_555
O17 Sb1 2.185822 1_545
O18 P5 1.557195 1_555
O18 Ti1 2.149936 1_555
O19 P5 1.585672 1_455
O19 Ti0 1.908844 1_555
O20 P1 1.585671 1_556
O20 Ti1 1.908844 1_555
O21 P5 1.558313 1_555
O21 Sb1 2.185822 1_554
O22 P2 1.585671 1_565
O22 Ti1 1.908844 1_555
O23 P0 1.585671 1_655
O23 Ti1 1.908844 1_555
