# generated using pymatgen
data_HgWO4
_symmetry_space_group_name_H-M   'P 1'
_cell_length_a   7.45255700
_cell_length_b   6.82137600
_cell_length_c   14.23735303
_cell_angle_alpha   62.39953776
_cell_angle_beta   90.00000000
_cell_angle_gamma   90.00000000
_symmetry_Int_Tables_number   1
_chemical_formula_structural   HgWO4
_chemical_formula_sum   'Hg8 W8 O32'
_cell_volume   641.41367850
_cell_formula_units_Z   8
loop_
 _symmetry_equiv_pos_site_id
 _symmetry_equiv_pos_as_xyz
  1  'x, y, z'
loop_
 _atom_site_type_symbol
 _atom_site_label
 _atom_site_symmetry_multiplicity
 _atom_site_fract_x
 _atom_site_fract_y
 _atom_site_fract_z
 _atom_site_occupancy
  Hg  Hg0  1  0.80535900  0.01193400  0.34243800  1
  Hg  Hg1  1  0.69464100  0.01193400  0.84243800  1
  Hg  Hg2  1  0.19464100  0.98806600  0.65756200  1
  Hg  Hg3  1  0.30535900  0.98806600  0.15756200  1
  Hg  Hg4  1  0.55603400  0.50889200  0.36471600  1
  Hg  Hg5  1  0.94396600  0.50889200  0.86471600  1
  Hg  Hg6  1  0.44396600  0.49110800  0.63528400  1
  Hg  Hg7  1  0.05603400  0.49110800  0.13528400  1
  W  W0  1  0.33136000  0.98641200  0.41547300  1
  W  W1  1  0.16864000  0.98641200  0.91547300  1
  W  W2  1  0.66864000  0.01358800  0.58452700  1
  W  W3  1  0.83136000  0.01358800  0.08452700  1
  W  W4  1  0.04475300  0.43582100  0.40807400  1
  W  W5  1  0.45524700  0.43582100  0.90807400  1
  W  W6  1  0.95524700  0.56417900  0.59192600  1
  W  W7  1  0.54475300  0.56417900  0.09192600  1
  O  O0  1  0.46510700  0.75639200  0.41633400  1
  O  O1  1  0.03489300  0.75639200  0.91633400  1
  O  O2  1  0.53489300  0.24360800  0.58366600  1
  O  O3  1  0.96510700  0.24360800  0.08366600  1
  O  O4  1  0.93327400  0.35987400  0.31105200  1
  O  O5  1  0.56672600  0.35987400  0.81105200  1
  O  O6  1  0.06672600  0.64012600  0.68894800  1
  O  O7  1  0.43327400  0.64012600  0.18894800  1
  O  O8  1  0.85677600  0.58602500  0.44890500  1
  O  O9  1  0.64322400  0.58602500  0.94890500  1
  O  O10  1  0.14322400  0.41397500  0.55109500  1
  O  O11  1  0.35677600  0.41397500  0.05109500  1
  O  O12  1  0.28133600  0.12971500  0.27261700  1
  O  O13  1  0.21866400  0.12971500  0.77261700  1
  O  O14  1  0.71866400  0.87028500  0.72738300  1
  O  O15  1  0.78133600  0.87028500  0.22738300  1
  O  O16  1  0.25066000  0.24756300  0.43092200  1
  O  O17  1  0.24934000  0.24756300  0.93092200  1
  O  O18  1  0.74934000  0.75243700  0.56907800  1
  O  O19  1  0.75066000  0.75243700  0.06907800  1
  O  O20  1  0.14748200  0.68416400  0.31677400  1
  O  O21  1  0.35251800  0.68416400  0.81677400  1
  O  O22  1  0.85251800  0.31583600  0.68322600  1
  O  O23  1  0.64748200  0.31583600  0.18322600  1
  O  O24  1  0.11333100  0.85142900  0.47271400  1
  O  O25  1  0.38666900  0.85142900  0.97271400  1
  O  O26  1  0.88666900  0.14857100  0.52728600  1
  O  O27  1  0.61333100  0.14857100  0.02728600  1
  O  O28  1  0.58191900  0.14021300  0.41624500  1
  O  O29  1  0.91808100  0.14021300  0.91624500  1
  O  O30  1  0.41808100  0.85978700  0.58375500  1
  O  O31  1  0.08191900  0.85978700  0.08375500  1
loop_
_geom_bond_atom_site_label_1
_geom_bond_atom_site_label_2
_geom_bond_distance
_geom_bond_site_symmetry_2
Hg0 O15 2.261767 1_545
Hg0 O28 2.344103 1_555
Hg0 O4 2.399766 1_555
Hg0 O23 2.542799 1_555
Hg0 O8 2.608553 1_545
Hg1 O14 2.261767 1_545
Hg1 O29 2.344103 1_555
Hg1 O5 2.399766 1_555
Hg1 O22 2.542799 1_555
Hg1 O9 2.608553 1_545
Hg2 O13 2.261767 1_565
Hg2 O30 2.344103 1_555
Hg2 O6 2.399766 1_555
Hg2 O21 2.542799 1_555
Hg2 O10 2.608553 1_565
Hg3 O12 2.261767 1_565
Hg3 O31 2.344103 1_555
Hg3 O7 2.399766 1_555
Hg3 O20 2.542799 1_555
Hg3 O11 2.608553 1_565
Hg4 O0 2.235905 1_555
Hg4 O28 2.278276 1_555
Hg4 O7 2.413493 1_555
Hg5 O1 2.235905 1_655
Hg5 O29 2.278276 1_555
Hg5 O6 2.413493 1_655
Hg6 O2 2.235905 1_555
Hg6 O30 2.278276 1_555
Hg6 O5 2.413493 1_555
Hg7 O3 2.235905 1_455
Hg7 O31 2.278276 1_555
Hg7 O4 2.413493 1_455
O0 W0 1.854125 1_555
O1 W1 1.854125 1_555
O2 W2 1.854125 1_555
O3 W3 1.854125 1_555
O4 W4 1.878779 1_655
O5 W5 1.878779 1_555
O6 W6 1.878779 1_455
O7 W7 1.878779 1_555
O8 W4 1.975398 1_655
O8 W6 2.103774 1_555
O9 W5 1.975398 1_555
O9 W7 2.103774 1_556
O10 W6 1.975398 1_455
O10 W4 2.103774 1_555
O11 W7 1.975398 1_555
O11 W5 2.103774 1_554
O12 W0 1.840922 1_545
O13 W1 1.840922 1_545
O14 W2 1.840922 1_565
O15 W3 1.840922 1_565
O16 W4 1.929416 1_555
O16 W0 1.986599 1_545
O17 W5 1.929416 1_555
O17 W1 1.986599 1_545
O18 W6 1.929416 1_555
O18 W2 1.986599 1_565
O19 W7 1.929416 1_555
O19 W3 1.986599 1_565
O20 W4 1.762144 1_555
O21 W5 1.762144 1_555
O22 W6 1.762144 1_555
O23 W7 1.762144 1_555
O24 W0 1.859267 1_555
O24 W6 2.241985 1_455
O25 W1 1.859267 1_555
O25 W7 2.241985 1_556
O26 W2 1.859267 1_555
O26 W4 2.241985 1_655
O27 W3 1.859267 1_555
O27 W5 2.241985 1_554
O28 W0 2.144369 1_545
O28 W2 2.233043 1_555
O29 W1 2.144369 1_645
O29 W3 2.233043 1_556
O30 W2 2.144369 1_565
O30 W0 2.233043 1_555
O31 W3 2.144369 1_465
O31 W1 2.233043 1_554
