# generated using pymatgen
data_AlGa2Bi(BO3)4
_symmetry_space_group_name_H-M   'P 1'
_cell_length_a   6.04214397
_cell_length_b   6.04214397
_cell_length_c   6.06103193
_cell_angle_alpha   76.06324192
_cell_angle_beta   76.06324192
_cell_angle_gamma   103.95345280
_symmetry_Int_Tables_number   1
_chemical_formula_structural   AlGa2Bi(BO3)4
_chemical_formula_sum   'Al1 Ga2 Bi1 B4 O12'
_cell_volume   197.64790336
_cell_formula_units_Z   1
loop_
 _symmetry_equiv_pos_site_id
 _symmetry_equiv_pos_as_xyz
  1  'x, y, z'
loop_
 _atom_site_type_symbol
 _atom_site_label
 _atom_site_symmetry_multiplicity
 _atom_site_fract_x
 _atom_site_fract_y
 _atom_site_fract_z
 _atom_site_occupancy
  Al  Al0  1  0.55502200  0.44497800  0.50000000  1
  Ga  Ga0  1  0.44702400  0.00228700  0.94428500  1
  Ga  Ga1  1  0.99771300  0.55297600  0.05571500  1
  Bi  Bi0  1  0.00056900  0.99943100  0.50000000  1
  B  B0  1  0.05702800  0.49951300  0.55571300  1
  B  B1  1  0.50048700  0.94297200  0.44428700  1
  B  B2  1  0.94401400  0.05598600  0.00000000  1
  B  B3  1  0.50040900  0.49959100  0.00000000  1
  O  O0  1  0.90321700  0.49502000  0.41712900  1
  O  O1  1  0.50498000  0.09678300  0.58287100  1
  O  O2  1  0.08957800  0.91042200  0.00000000  1
  O  O3  1  0.63861600  0.49474000  0.15442700  1
  O  O4  1  0.50526000  0.36138400  0.84557300  1
  O  O5  1  0.35433700  0.64566300  0.00000000  1
  O  O6  1  0.62000700  0.77569500  0.47086100  1
  O  O7  1  0.78571500  0.03246500  0.87193900  1
  O  O8  1  0.03174800  0.62752800  0.71543700  1
  O  O9  1  0.22430500  0.37999300  0.52913900  1
  O  O10  1  0.96753500  0.21428500  0.12806100  1
  O  O11  1  0.37247200  0.96825200  0.28456300  1
loop_
_geom_bond_atom_site_label_1
_geom_bond_atom_site_label_2
_geom_bond_distance
_geom_bond_site_symmetry_2
Al0 O6 1.896453 1_555
Al0 O9 1.896453 1_555
Al0 O3 1.961216 1_555
Al0 O4 1.961216 1_555
Al0 O1 1.970002 1_555
Al0 O0 1.970002 1_555
Ga0 O7 1.939752 1_555
Ga0 O11 1.949961 1_546
Ga0 O5 2.011751 1_546
Ga0 O2 2.016647 1_546
Ga0 O4 2.023493 1_555
Ga0 O1 2.044186 1_555
Ga1 O10 1.939752 1_555
Ga1 O8 1.949961 1_654
Ga1 O5 2.011751 1_655
Ga1 O2 2.016647 1_655
Ga1 O3 2.023493 1_555
Ga1 O0 2.044186 1_555
Bi0 O8 2.387299 1_555
Bi0 O11 2.387299 1_555
Bi0 O7 2.395646 1_465
Bi0 O10 2.395646 1_465
Bi0 O6 2.440797 1_455
Bi0 O9 2.440797 1_565
B0 O9 1.377899 1_555
B0 O8 1.380312 1_555
B0 O0 1.394562 1_455
B1 O6 1.377899 1_555
B1 O11 1.380312 1_555
B1 O1 1.394562 1_565
B2 O7 1.372106 1_554
B2 O10 1.372106 1_555
B2 O2 1.385700 1_645
B3 O5 1.390536 1_555
B3 O3 1.396195 1_555
B3 O4 1.396195 1_554
