# generated using pymatgen
data_Mg2P
_symmetry_space_group_name_H-M   'P 1'
_cell_length_a   5.66673000
_cell_length_b   5.66673000
_cell_length_c   5.66673000
_cell_angle_alpha   90.00000000
_cell_angle_beta   90.00000000
_cell_angle_gamma   90.00000000
_symmetry_Int_Tables_number   1
_chemical_formula_structural   Mg2P
_chemical_formula_sum   'Mg4 P2'
_cell_volume   181.96906414
_cell_formula_units_Z   2
loop_
 _symmetry_equiv_pos_site_id
 _symmetry_equiv_pos_as_xyz
  1  'x, y, z'
loop_
 _atom_site_type_symbol
 _atom_site_label
 _atom_site_symmetry_multiplicity
 _atom_site_fract_x
 _atom_site_fract_y
 _atom_site_fract_z
 _atom_site_occupancy
  Mg  Mg0  1  0.25000000  0.75000000  0.75000000  1
  Mg  Mg1  1  0.75000000  0.25000000  0.75000000  1
  Mg  Mg2  1  0.75000000  0.75000000  0.25000000  1
  Mg  Mg3  1  0.25000000  0.25000000  0.25000000  1
  P  P0  1  0.00000000  0.00000000  0.00000000  1
  P  P1  1  0.50000000  0.50000000  0.50000000  1
loop_
_geom_bond_atom_site_label_1
_geom_bond_atom_site_label_2
_geom_bond_distance
_geom_bond_site_symmetry_2
Mg0 P0 2.453766 1_566
Mg0 P1 2.453766 1_555
Mg1 P0 2.453766 1_656
Mg1 P1 2.453766 1_555
Mg2 P1 2.453766 1_555
Mg2 P0 2.453766 1_665
Mg3 P0 2.453766 1_555
Mg3 P1 2.453766 1_555
