# generated using pymatgen
data_SmGaCo2
_symmetry_space_group_name_H-M   'P 1'
_cell_length_a   5.26309674
_cell_length_b   5.26483000
_cell_length_c   16.46437805
_cell_angle_alpha   90.00000000
_cell_angle_beta   89.99199317
_cell_angle_gamma   59.98910545
_symmetry_Int_Tables_number   1
_chemical_formula_structural   SmGaCo2
_chemical_formula_sum   'Sm6 Ga6 Co12'
_cell_volume   395.05173459
_cell_formula_units_Z   6
loop_
 _symmetry_equiv_pos_site_id
 _symmetry_equiv_pos_as_xyz
  1  'x, y, z'
loop_
 _atom_site_type_symbol
 _atom_site_label
 _atom_site_symmetry_multiplicity
 _atom_site_fract_x
 _atom_site_fract_y
 _atom_site_fract_z
 _atom_site_occupancy
  Sm  Sm0  1  0.33342000  0.33329000  0.03145700  1
  Sm  Sm1  1  0.66658000  0.66671000  0.96854300  1
  Sm  Sm2  1  0.66658800  0.66670600  0.53848700  1
  Sm  Sm3  1  0.33341200  0.33329400  0.46151300  1
  Sm  Sm4  1  0.33336600  0.33331700  0.25626300  1
  Sm  Sm5  1  0.66663400  0.66668300  0.74373700  1
  Ga  Ga0  1  0.83428900  0.33141200  0.13549900  1
  Ga  Ga1  1  0.33144800  0.83427600  0.13555300  1
  Ga  Ga2  1  0.83428900  0.83429900  0.13549900  1
  Ga  Ga3  1  0.16571100  0.66858800  0.86450100  1
  Ga  Ga4  1  0.66855200  0.16572400  0.86444700  1
  Ga  Ga5  1  0.16571100  0.16570100  0.86450100  1
  Co  Co0  1  0.33288800  0.33355600  0.73496400  1
  Co  Co1  1  0.66711100  0.66644400  0.26503600  1
  Co  Co2  1  0.00029600  0.99985200  0.74026600  1
  Co  Co3  1  0.99970400  0.00014800  0.25973400  1
  Co  Co4  1  0.00000000  0.00000000  0.50000000  1
  Co  Co5  1  0.00000000  0.00000000  0.00000000  1
  Co  Co6  1  0.16206400  0.67565200  0.62517000  1
  Co  Co7  1  0.67562600  0.16218700  0.62521400  1
  Co  Co8  1  0.16206400  0.16228400  0.62517000  1
  Co  Co9  1  0.83793600  0.32434800  0.37483000  1
  Co  Co10  1  0.32437400  0.83781300  0.37478600  1
  Co  Co11  1  0.83793600  0.83771600  0.37483000  1
loop_
_geom_bond_atom_site_label_1
_geom_bond_atom_site_label_2
_geom_bond_distance
_geom_bond_site_symmetry_2
Ga0 Ga1 2.616536 1_645
Ga0 Ga2 2.617215 1_545
Ga0 Ga1 2.646561 1_555
Ga0 Ga2 2.647615 1_555
Ga0 Sm0 3.139865 1_555
Ga0 Sm0 3.140086 1_655
Ga0 Sm1 3.145376 1_554
Ga0 Sm4 3.297905 1_555
Ga0 Sm4 3.298601 1_655
Ga1 Ga2 2.616536 1_455
Ga1 Ga2 2.646561 1_555
Ga1 Sm0 3.141187 1_565
Ga1 Sm0 3.141187 1_555
Ga1 Sm1 3.145218 1_554
Ga1 Sm4 3.298410 1_565
Ga1 Sm4 3.298410 1_555
Ga2 Sm0 3.139865 1_565
Ga2 Sm0 3.140086 1_655
Ga2 Sm1 3.145376 1_554
Ga2 Sm4 3.297905 1_565
Ga2 Sm4 3.298601 1_655
Ga3 Ga4 2.616536 1_465
Ga3 Ga5 2.617215 1_565
Ga3 Ga4 2.646561 1_555
Ga3 Ga5 2.647615 1_555
Ga3 Sm1 3.139865 1_555
Ga3 Sm1 3.140086 1_455
Ga3 Sm0 3.145376 1_556
Ga3 Sm5 3.297905 1_555
Ga3 Sm5 3.298601 1_455
Ga4 Ga5 2.616536 1_655
Ga4 Ga5 2.646561 1_555
Ga4 Sm1 3.141187 1_555
Ga4 Sm1 3.141187 1_545
Ga4 Sm0 3.145218 1_556
Ga4 Sm5 3.298410 1_555
Ga4 Sm5 3.298410 1_545
Ga5 Sm1 3.139865 1_545
Ga5 Sm1 3.140086 1_455
Ga5 Sm0 3.145376 1_556
Ga5 Sm5 3.297905 1_545
Ga5 Sm5 3.298601 1_455
Co0 Co8 2.387588 1_555
Co0 Co6 2.387588 1_555
Co0 Co7 2.388330 1_555
Co0 Ga3 2.623175 1_555
Co0 Ga5 2.623175 1_555
Co0 Ga4 2.624137 1_555
Co0 Sm5 3.039846 1_455
Co0 Sm5 3.043699 1_555
Co0 Sm5 3.043699 1_545
Co1 Co9 2.387588 1_555
Co1 Co11 2.387591 1_555
Co1 Co10 2.388327 1_555
Co1 Ga0 2.623175 1_555
Co1 Ga2 2.623178 1_555
Co1 Ga1 2.624134 1_555
Co1 Sm4 3.039851 1_655
Co1 Sm4 3.043694 1_555
Co1 Sm4 3.043699 1_565
Co2 Co6 2.403136 1_555
Co2 Co8 2.403136 1_565
Co2 Co7 2.403864 1_465
Co2 Ga4 2.542661 1_465
Co2 Ga5 2.542666 1_565
Co2 Ga3 2.542666 1_555
Co2 Sm5 3.037366 1_555
Co2 Sm5 3.040599 1_465
Co2 Sm5 3.040599 1_455
Co3 Co9 2.403136 1_555
Co3 Ga1 2.542661 1_645
Co3 Ga2 2.542666 1_545
Co3 Ga0 2.542666 1_555
Co3 Sm4 3.037366 1_555
Co3 Sm4 3.040599 1_655
Co3 Sm4 3.040599 1_645
Co4 Co6 2.536556 1_545
Co4 Co9 2.536556 1_455
Co4 Co8 2.536556 1_555
Co4 Co7 2.536639 1_455
Co4 Sm2 3.103440 1_545
Co4 Sm3 3.103440 1_455
Co4 Sm3 3.104796 1_555
Co4 Sm2 3.104796 1_455
Co4 Sm2 3.104796 1_445
Co4 Sm3 3.104796 1_545
Co5 Ga0 2.694294 1_455
Co5 Ga2 2.694294 1_445
Co5 Ga3 2.694294 1_544
Co5 Ga5 2.694294 1_554
Co5 Ga1 2.695146 1_545
Co5 Ga4 2.695146 1_454
Co5 Sm1 3.081672 1_544
Co5 Sm0 3.081672 1_455
Co5 Sm1 3.083366 1_454
Co5 Sm0 3.083366 1_555
Co5 Sm0 3.083366 1_545
Co5 Sm1 3.083366 1_444
Co6 Co7 2.560426 1_465
Co6 Co8 2.562035 1_565
Co6 Co7 2.702671 1_555
Co6 Co8 2.702795 1_555
Co6 Sm2 2.993872 1_455
Co6 Sm2 2.993966 1_555
Co6 Sm3 3.113810 1_555
Co6 Sm5 3.276252 1_455
Co6 Sm5 3.277388 1_555
Co7 Co8 2.560426 1_655
Co7 Co8 2.702671 1_555
Co7 Sm2 2.995036 1_545
Co7 Sm2 2.995036 1_555
Co7 Sm3 3.114177 1_555
Co7 Sm5 3.277080 1_545
Co7 Sm5 3.277080 1_555
Co8 Sm2 2.993872 1_455
Co8 Sm2 2.993966 1_545
Co8 Sm3 3.113810 1_555
Co8 Sm5 3.276252 1_455
Co8 Sm5 3.277388 1_545
Co9 Sm3 2.993872 1_655
Co9 Sm3 2.993966 1_555
Co9 Sm2 3.113810 1_555
Co9 Sm4 3.276252 1_655
Co9 Sm4 3.277388 1_555
Co10 Co3 2.403864 1_465
Co10 Co4 2.536639 1_565
Co10 Co11 2.560426 1_455
Co10 Co9 2.560426 1_465
Co10 Co11 2.702671 1_555
Co10 Co9 2.702671 1_555
Co10 Sm3 2.995036 1_565
Co10 Sm3 2.995036 1_555
Co10 Sm2 3.114177 1_555
Co10 Sm4 3.277080 1_555
Co10 Sm4 3.277080 1_565
Co11 Co3 2.403136 1_565
Co11 Co4 2.536556 1_665
Co11 Co9 2.562035 1_565
Co11 Co9 2.702795 1_555
Co11 Sm3 2.993872 1_655
Co11 Sm3 2.993966 1_565
Co11 Sm2 3.113810 1_555
Co11 Sm4 3.276252 1_655
Co11 Sm4 3.277388 1_565
