# generated using pymatgen
data_BaOsN2
_symmetry_space_group_name_H-M   'P 1'
_cell_length_a   7.42061199
_cell_length_b   13.48860525
_cell_length_c   7.78792100
_cell_angle_alpha   90.00000000
_cell_angle_beta   90.00000000
_cell_angle_gamma   24.65161585
_symmetry_Int_Tables_number   1
_chemical_formula_structural   BaOsN2
_chemical_formula_sum   'Ba4 Os4 N8'
_cell_volume   325.13835801
_cell_formula_units_Z   4
loop_
 _symmetry_equiv_pos_site_id
 _symmetry_equiv_pos_as_xyz
  1  'x, y, z'
loop_
 _atom_site_type_symbol
 _atom_site_label
 _atom_site_symmetry_multiplicity
 _atom_site_fract_x
 _atom_site_fract_y
 _atom_site_fract_z
 _atom_site_occupancy
  Ba  Ba0  1  0.00000000  0.14630600  0.57055100  1
  Ba  Ba1  1  0.00000000  0.85369400  0.42944900  1
  Ba  Ba2  1  0.00000000  0.35369400  0.07055100  1
  Ba  Ba3  1  0.00000000  0.64630600  0.92944900  1
  Os  Os0  1  0.00000000  0.40723600  0.62270800  1
  Os  Os1  1  0.00000000  0.59276400  0.37729200  1
  Os  Os2  1  0.00000000  0.09276400  0.12270800  1
  Os  Os3  1  0.00000000  0.90723600  0.87729200  1
  N  N0  1  0.00000000  0.15760300  0.92291900  1
  N  N1  1  0.00000000  0.84239700  0.07708100  1
  N  N2  1  0.00000000  0.34239700  0.42291900  1
  N  N3  1  0.00000000  0.65760300  0.57708100  1
  N  N4  1  0.50000000  0.68128900  0.75000000  1
  N  N5  1  0.50000000  0.81871100  0.25000000  1
  N  N6  1  0.50000000  0.31871100  0.25000000  1
  N  N7  1  0.50000000  0.18128900  0.75000000  1
loop_
_geom_bond_atom_site_label_1
_geom_bond_atom_site_label_2
_geom_bond_distance
_geom_bond_site_symmetry_2
Ba0 N0 2.748442 1_555
Ba0 N2 2.884079 1_555
Ba0 N3 3.099301 1_455
Ba0 N3 3.099301 1_645
Ba0 N5 3.118105 1_545
Ba0 N6 3.118105 1_455
Ba1 N1 2.748442 1_555
Ba1 N3 2.884079 1_555
Ba1 N2 3.099301 1_655
Ba1 N2 3.099301 1_465
Ba1 N7 3.118105 1_465
Ba1 N4 3.118105 1_555
Ba2 N2 2.748442 1_555
Ba2 N0 2.884079 1_554
Ba2 N1 3.099301 1_645
Ba2 N1 3.099301 1_455
Ba2 N4 3.118105 1_454
Ba2 N7 3.118105 1_554
Ba3 N3 2.748442 1_555
Ba3 N1 2.884079 1_556
Ba3 N0 3.099301 1_465
Ba3 N0 3.099301 1_655
Ba3 N6 3.118105 1_556
Ba3 N5 3.118105 1_456
N0 Os2 1.784897 1_556
N1 Os3 1.784897 1_554
N2 Os0 1.784897 1_555
N3 Os1 1.784897 1_555
N4 Os0 1.866275 1_655
N4 Os3 1.866275 1_555
N5 Os2 1.866275 1_565
N5 Os1 1.866275 1_655
N6 Os1 1.866275 1_555
N6 Os2 1.866275 1_655
N7 Os3 1.866275 1_645
N7 Os0 1.866275 1_555
