# generated using pymatgen
data_RbGa(SO4)2
_symmetry_space_group_name_H-M   'P 1'
_cell_length_a   4.87763404
_cell_length_b   4.87763404
_cell_length_c   8.62164600
_cell_angle_alpha   90.00000000
_cell_angle_beta   90.00000000
_cell_angle_gamma   120.00000054
_symmetry_Int_Tables_number   1
_chemical_formula_structural   RbGa(SO4)2
_chemical_formula_sum   'Rb1 Ga1 S2 O8'
_cell_volume   177.63937725
_cell_formula_units_Z   1
loop_
 _symmetry_equiv_pos_site_id
 _symmetry_equiv_pos_as_xyz
  1  'x, y, z'
loop_
 _atom_site_type_symbol
 _atom_site_label
 _atom_site_symmetry_multiplicity
 _atom_site_fract_x
 _atom_site_fract_y
 _atom_site_fract_z
 _atom_site_occupancy
  Rb  Rb0  1  0.00000000  0.00000000  0.50000000  1
  Ga  Ga0  1  0.00000000  0.00000000  0.00000000  1
  S  S0  1  0.33333300  0.66666700  0.20492900  1
  S  S1  1  0.66666700  0.33333300  0.79507100  1
  O  O0  1  0.08491400  0.34903800  0.14742900  1
  O  O1  1  0.65096200  0.73587500  0.14742900  1
  O  O2  1  0.34903800  0.08491400  0.85257100  1
  O  O3  1  0.26412500  0.91508600  0.14742900  1
  O  O4  1  0.73587500  0.65096200  0.85257100  1
  O  O5  1  0.91508600  0.26412500  0.85257100  1
  O  O6  1  0.33333300  0.66666700  0.37403600  1
  O  O7  1  0.66666700  0.33333300  0.62596400  1
loop_
_geom_bond_atom_site_label_1
_geom_bond_atom_site_label_2
_geom_bond_distance
_geom_bond_site_symmetry_2
Ga0 O0 1.995118 1_555
Ga0 O2 1.995118 1_554
Ga0 O1 1.995119 1_445
Ga0 O4 1.995119 1_444
Ga0 O3 1.995122 1_545
Ga0 O5 1.995122 1_454
O0 S0 1.495653 1_555
O0 Rb0 3.406594 1_555
O1 S0 1.495656 1_555
O1 Rb0 3.406595 1_665
O2 S1 1.495653 1_555
O2 Rb0 3.406594 1_555
O3 S0 1.495647 1_555
O3 Rb0 3.406596 1_565
O4 S1 1.495656 1_555
O4 Rb0 3.406595 1_665
O5 S1 1.495647 1_555
O5 Rb0 3.406596 1_655
O6 S0 1.457981 1_555
O6 Rb0 3.018254 1_565
O6 Rb0 3.018258 1_555
O6 Rb0 3.018258 1_665
O7 S1 1.457981 1_555
O7 Rb0 3.018254 1_655
O7 Rb0 3.018258 1_555
O7 Rb0 3.018258 1_665
