# generated using pymatgen
data_ZnAsO5
_symmetry_space_group_name_H-M   'P 1'
_cell_length_a   6.53991400
_cell_length_b   7.50827508
_cell_length_c   16.01049302
_cell_angle_alpha   90.51829971
_cell_angle_beta   90.92600249
_cell_angle_gamma   93.84110292
_symmetry_Int_Tables_number   1
_chemical_formula_structural   ZnAsO5
_chemical_formula_sum   'Zn8 As8 O40'
_cell_volume   784.26195083
_cell_formula_units_Z   8
loop_
 _symmetry_equiv_pos_site_id
 _symmetry_equiv_pos_as_xyz
  1  'x, y, z'
loop_
 _atom_site_type_symbol
 _atom_site_label
 _atom_site_symmetry_multiplicity
 _atom_site_fract_x
 _atom_site_fract_y
 _atom_site_fract_z
 _atom_site_occupancy
  Zn  Zn0  1  0.62149100  0.89813800  0.93073200  1
  Zn  Zn1  1  0.37850900  0.10186200  0.06926800  1
  Zn  Zn2  1  0.62760200  0.85356400  0.55169700  1
  Zn  Zn3  1  0.37239800  0.14643600  0.44830300  1
  Zn  Zn4  1  0.87406800  0.60004500  0.43037000  1
  Zn  Zn5  1  0.12593200  0.39995500  0.56963000  1
  Zn  Zn6  1  0.87649000  0.64808600  0.05205900  1
  Zn  Zn7  1  0.12351000  0.35191400  0.94794100  1
  As  As0  1  0.11682000  0.91335800  0.89093100  1
  As  As1  1  0.88318000  0.08664200  0.10906900  1
  As  As2  1  0.12721100  0.84276800  0.59347200  1
  As  As3  1  0.87278900  0.15723200  0.40652800  1
  As  As4  1  0.37489900  0.58396800  0.39065400  1
  As  As5  1  0.62510100  0.41603200  0.60934600  1
  As  As6  1  0.37993900  0.65928700  0.09358000  1
  As  As7  1  0.62006100  0.34071300  0.90642000  1
  O  O0  1  0.32622000  0.93760400  0.95904700  1
  O  O1  1  0.67378000  0.06239600  0.04095300  1
  O  O2  1  0.90770900  0.81530200  0.94198400  1
  O  O3  1  0.09229100  0.18469800  0.05801600  1
  O  O4  1  0.52327000  0.76717800  0.82475900  1
  O  O5  1  0.47673000  0.23282200  0.17524100  1
  O  O6  1  0.58830400  0.68361500  0.44176700  1
  O  O7  1  0.41169600  0.31638500  0.55823300  1
  O  O8  1  0.33946700  0.92991100  0.54101300  1
  O  O9  1  0.66053300  0.07008900  0.45898700  1
  O  O10  1  0.56596300  0.63255800  0.63479800  1
  O  O11  1  0.43403700  0.36744200  0.36520200  1
  O  O12  1  0.71963400  0.99031400  0.66036500  1
  O  O13  1  0.28036600  0.00968600  0.33963500  1
  O  O14  1  0.92101100  0.81228700  0.52400600  1
  O  O15  1  0.07898900  0.18771300  0.47599400  1
  O  O16  1  0.96195700  0.72423000  0.32346500  1
  O  O17  1  0.03804300  0.27577000  0.67653500  1
  O  O18  1  0.58061400  0.68770600  0.02413800  1
  O  O19  1  0.41938600  0.31229400  0.97586200  1
  O  O20  1  0.79357500  0.51612800  0.16113600  1
  O  O21  1  0.20642500  0.48387200  0.83886400  1
  O  O22  1  0.94576700  0.87130400  0.13448500  1
  O  O23  1  0.05423300  0.12869600  0.86551500  1
  O  O24  1  0.18799500  0.77809400  0.80912400  1
  O  O25  1  0.81200500  0.22190600  0.19087600  1
  O  O26  1  0.04823200  0.98120600  0.67339000  1
  O  O27  1  0.95176800  0.01879400  0.32661000  1
  O  O28  1  0.19061100  0.63916300  0.63499500  1
  O  O29  1  0.80938900  0.36083700  0.36500500  1
  O  O30  1  0.17092400  0.56172800  0.45887700  1
  O  O31  1  0.82907600  0.43827200  0.54112300  1
  O  O32  1  0.29676100  0.71664600  0.30898800  1
  O  O33  1  0.70323900  0.28335400  0.69101200  1
  O  O34  1  0.32109400  0.86523900  0.13533300  1
  O  O35  1  0.67890600  0.13476100  0.86466700  1
  O  O36  1  0.16347300  0.57024500  0.04153200  1
  O  O37  1  0.83652700  0.42975500  0.95846800  1
  O  O38  1  0.46507200  0.52562500  0.17399100  1
  O  O39  1  0.53492800  0.47437500  0.82600900  1
loop_
_geom_bond_atom_site_label_1
_geom_bond_atom_site_label_2
_geom_bond_distance
_geom_bond_site_symmetry_2
As0 O2 1.729889 1_455
As0 O0 1.735694 1_555
As0 O24 1.738559 1_555
As0 O23 1.744249 1_565
As1 O3 1.729889 1_655
As1 O1 1.735694 1_555
As1 O25 1.738559 1_555
As1 O22 1.744249 1_545
As2 O8 1.728116 1_555
As2 O14 1.735925 1_455
As2 O28 1.745072 1_555
As2 O26 1.747462 1_555
As3 O9 1.728116 1_555
As3 O15 1.735925 1_655
As3 O29 1.745072 1_555
As3 O27 1.747462 1_555
As4 O6 1.728989 1_555
As4 O30 1.738108 1_555
As4 O32 1.741632 1_555
As4 O11 1.742414 1_555
As5 O7 1.728989 1_555
As5 O31 1.738108 1_555
As5 O33 1.741632 1_555
As5 O10 1.742414 1_555
As6 O36 1.723508 1_555
As6 O18 1.737225 1_555
As6 O38 1.746327 1_555
As6 O34 1.747999 1_555
As7 O37 1.723508 1_555
As7 O19 1.737225 1_555
As7 O39 1.746327 1_555
As7 O35 1.747999 1_555
O0 Zn0 2.030959 1_555
O0 Zn1 2.153302 1_566
O1 Zn1 2.030959 1_555
O1 Zn0 2.153302 1_544
O2 Zn0 2.017468 1_555
O2 Zn6 2.177427 1_556
O3 Zn1 2.017468 1_555
O3 Zn7 2.177427 1_554
O4 Zn0 2.026859 1_555
O5 Zn1 2.026859 1_555
O6 Zn4 2.021325 1_555
O6 Zn2 2.166291 1_555
O7 Zn5 2.021325 1_555
O7 Zn3 2.166291 1_555
O8 Zn2 2.011173 1_555
O8 Zn3 2.213527 1_565
O9 Zn3 2.011173 1_555
O9 Zn2 2.213527 1_545
O10 Zn2 2.157285 1_555
O11 Zn3 2.157285 1_555
O12 Zn2 2.072325 1_555
O13 Zn3 2.072325 1_555
O14 Zn2 2.019741 1_555
O14 Zn4 2.181181 1_555
O15 Zn3 2.019741 1_555
O15 Zn5 2.181181 1_555
O16 Zn4 2.029341 1_555
O17 Zn5 2.029341 1_555
O18 Zn6 2.020924 1_555
O18 Zn0 2.191651 1_554
O19 Zn7 2.020924 1_555
O19 Zn1 2.191651 1_556
O20 Zn6 2.077365 1_555
O21 Zn7 2.077365 1_555
O22 Zn6 2.143518 1_555
O23 Zn7 2.143518 1_555
O28 Zn5 2.085617 1_555
O29 Zn4 2.085617 1_555
O30 Zn4 2.027000 1_455
O30 Zn5 2.171207 1_555
O31 Zn5 2.027000 1_655
O31 Zn4 2.171207 1_555
O34 Zn1 2.091331 1_565
O35 Zn0 2.091331 1_545
O36 Zn6 2.011950 1_455
O36 Zn7 2.210518 1_554
O37 Zn7 2.011950 1_655
O37 Zn6 2.210518 1_556
