# generated using pymatgen
data_CaCr2(P2O7)2
_symmetry_space_group_name_H-M   'P 1'
_cell_length_a   6.34952100
_cell_length_b   6.43396453
_cell_length_c   7.12362896
_cell_angle_alpha   96.38916883
_cell_angle_beta   89.14596424
_cell_angle_gamma   111.72681473
_symmetry_Int_Tables_number   1
_chemical_formula_structural   CaCr2(P2O7)2
_chemical_formula_sum   'Ca1 Cr2 P4 O14'
_cell_volume   268.55650793
_cell_formula_units_Z   1
loop_
 _symmetry_equiv_pos_site_id
 _symmetry_equiv_pos_as_xyz
  1  'x, y, z'
loop_
 _atom_site_type_symbol
 _atom_site_label
 _atom_site_symmetry_multiplicity
 _atom_site_fract_x
 _atom_site_fract_y
 _atom_site_fract_z
 _atom_site_occupancy
  Ca  Ca0  1  0.69442100  0.71473800  0.37877900  1
  Cr  Cr0  1  0.74150000  0.12999500  0.79970900  1
  Cr  Cr1  1  0.25432700  0.87441800  0.19875900  1
  P  P0  1  0.84947600  0.66464000  0.88055200  1
  P  P1  1  0.15406400  0.33453300  0.11460400  1
  P  P2  1  0.74748200  0.21494300  0.38315700  1
  P  P3  1  0.25774400  0.78988700  0.61660600  1
  O  O0  1  0.93854500  0.74887500  0.08892300  1
  O  O1  1  0.04769400  0.25621400  0.91746500  1
  O  O2  1  0.74339200  0.81556200  0.80399700  1
  O  O3  1  0.26631900  0.18339900  0.18208400  1
  O  O4  1  0.69429600  0.41688500  0.86887700  1
  O  O5  1  0.31615500  0.58475300  0.13940200  1
  O  O6  1  0.36878500  0.63153500  0.54156300  1
  O  O7  1  0.64486500  0.37979900  0.45544400  1
  O  O8  1  0.84611200  0.12299800  0.53906400  1
  O  O9  1  0.12637400  0.84246800  0.45226300  1
  O  O10  1  0.94996400  0.33706900  0.25268700  1
  O  O11  1  0.41228700  0.00354900  0.73787300  1
  O  O12  1  0.58784300  0.00154000  0.25684100  1
  O  O13  1  0.06153200  0.66517400  0.75603900  1
loop_
_geom_bond_atom_site_label_1
_geom_bond_atom_site_label_2
_geom_bond_distance
_geom_bond_site_symmetry_2
Ca0 O7 2.189982 1_555
Ca0 O6 2.270152 1_555
Ca0 O12 2.432345 1_565
Ca0 O0 2.543213 1_555
Ca0 O8 2.573577 1_565
Ca0 O9 2.598089 1_655
Ca0 O5 2.773711 1_555
Ca0 O2 3.022305 1_555
Cr0 O8 1.964048 1_555
Cr0 O1 1.967510 1_655
Cr0 O11 1.978401 1_555
Cr0 O4 1.985577 1_555
Cr0 O2 2.031150 1_545
Cr1 O9 1.969445 1_555
Cr1 O3 1.977918 1_565
Cr1 O0 1.997990 1_455
Cr1 O12 1.998282 1_565
Cr1 O5 2.041473 1_555
O0 P0 1.560750 1_554
O1 P1 1.516929 1_556
O2 P0 1.518903 1_555
O3 P1 1.520538 1_555
O4 P0 1.526055 1_555
O5 P1 1.548439 1_555
O6 P3 1.490058 1_555
O7 P2 1.481504 1_555
O8 P2 1.554631 1_555
O9 P3 1.583351 1_555
O10 P2 1.585292 1_555
O10 P1 1.619066 1_655
O11 P3 1.536617 1_545
O12 P2 1.563382 1_555
O13 P0 1.600420 1_455
O13 P3 1.607155 1_555
