# generated using pymatgen
data_V5Si3N
_symmetry_space_group_name_H-M   'P 1'
_cell_length_a   7.05640867
_cell_length_b   7.05641029
_cell_length_c   4.93834231
_cell_angle_alpha   90.00000010
_cell_angle_beta   89.99999982
_cell_angle_gamma   120.00002379
_symmetry_Int_Tables_number   1
_chemical_formula_structural   V5Si3N
_chemical_formula_sum   'V10 Si6 N2'
_cell_volume   212.95079578
_cell_formula_units_Z   2
loop_
 _symmetry_equiv_pos_site_id
 _symmetry_equiv_pos_as_xyz
  1  'x, y, z'
loop_
 _atom_site_type_symbol
 _atom_site_label
 _atom_site_symmetry_multiplicity
 _atom_site_fract_x
 _atom_site_fract_y
 _atom_site_fract_z
 _atom_site_occupancy
  V  V0  1  0.22853779  0.00000468  0.75000054  1
  V  V1  1  0.77145923  0.00000019  0.24999941  1
  V  V2  1  0.00000454  0.22853598  0.75000058  1
  V  V3  1  0.00000166  0.77146463  0.24999942  1
  V  V4  1  0.77145100  0.77145124  0.75000058  1
  V  V5  1  0.22854051  0.22853914  0.24999948  1
  V  V6  1  0.33333463  0.66666297  0.49999769  1
  V  V7  1  0.66665858  0.33333151  0.49999768  1
  V  V8  1  0.66665859  0.33333151  0.00000232  1
  V  V9  1  0.33333464  0.66666297  0.00000231  1
  Si  Si0  1  0.59044528  -0.00000347  0.75000035  1
  Si  Si1  1  0.40955017  0.00000013  0.24999965  1
  Si  Si2  1  -0.00000327  0.59044693  0.75000035  1
  Si  Si3  1  -0.00000062  0.40954962  0.24999965  1
  Si  Si4  1  0.40955239  0.40955224  0.75000035  1
  Si  Si5  1  0.59044319  0.59044402  0.24999965  1
  N  N0  1  0.00001585  0.00001285  0.49999681  1
  N  N1  1  0.00001585  0.00001285  0.00000318  1
loop_
_geom_bond_atom_site_label_1
_geom_bond_atom_site_label_2
_geom_bond_distance
_geom_bond_site_symmetry_2
V6 V9 2.469148 1_555
V6 V9 2.469194 1_556
V7 V8 2.469148 1_555
V7 V8 2.469194 1_556
Si0 V9 2.465958 1_546
Si0 V6 2.465960 1_545
Si0 V8 2.465985 1_556
Si0 V7 2.465986 1_555
Si0 V4 2.508393 1_545
Si0 V2 2.508437 1_655
Si0 V0 2.553796 1_555
Si0 V1 2.779976 1_556
Si0 V1 2.779984 1_555
Si1 V8 2.465933 1_555
Si1 V7 2.465935 1_555
Si1 V9 2.465982 1_545
Si1 V6 2.465984 1_545
Si1 V3 2.508372 1_545
Si1 V5 2.508376 1_555
Si1 V1 2.553778 1_555
Si1 V0 2.779985 1_554
Si1 V0 2.779992 1_555
Si2 V8 2.465985 1_456
Si2 V7 2.465987 1_455
Si2 V9 2.465997 1_556
Si2 V6 2.465998 1_555
Si2 V4 2.508387 1_455
Si2 V0 2.508430 1_565
Si2 V2 2.553820 1_555
Si2 V3 2.779986 1_556
Si2 V3 2.779995 1_555
Si3 V9 2.465958 1_555
Si3 V6 2.465960 1_555
Si3 V8 2.465998 1_455
Si3 V7 2.466000 1_455
Si3 V1 2.508380 1_455
Si3 V5 2.508394 1_555
Si3 V3 2.553813 1_555
Si3 V2 2.779990 1_554
Si3 V2 2.779998 1_555
Si4 V8 2.465923 1_556
Si4 V7 2.465925 1_555
Si4 V9 2.465938 1_556
Si4 V6 2.465940 1_555
Si4 V0 2.508366 1_555
Si4 V2 2.508367 1_555
Si4 V4 2.553705 1_555
Si4 V5 2.779977 1_556
Si4 V5 2.779985 1_555
Si5 V9 2.465918 1_555
Si5 V6 2.465920 1_555
Si5 V8 2.465927 1_555
Si5 V7 2.465929 1_555
Si5 V1 2.508420 1_565
Si5 V3 2.508432 1_655
Si5 V5 2.553740 1_555
Si5 V4 2.779961 1_554
Si5 V4 2.779969 1_555
N0 V5 2.030898 1_555
N0 V0 2.030921 1_555
N0 V2 2.030937 1_555
N0 V3 2.030987 1_545
N0 V1 2.031038 1_455
N0 V4 2.031129 1_445
N1 V5 2.030895 1_555
N1 V0 2.030917 1_554
N1 V2 2.030933 1_554
N1 V3 2.030983 1_545
N1 V1 2.031034 1_455
N1 V4 2.031125 1_444
