# generated using pymatgen
data_LaPr3Al4O12
_symmetry_space_group_name_H-M   'P 1'
_cell_length_a   5.36642100
_cell_length_b   5.36642100
_cell_length_c   7.62676400
_cell_angle_alpha   90.00000000
_cell_angle_beta   90.00000000
_cell_angle_gamma   90.00000000
_symmetry_Int_Tables_number   1
_chemical_formula_structural   LaPr3Al4O12
_chemical_formula_sum   'La1 Pr3 Al4 O12'
_cell_volume   219.63916742
_cell_formula_units_Z   1
loop_
 _symmetry_equiv_pos_site_id
 _symmetry_equiv_pos_as_xyz
  1  'x, y, z'
loop_
 _atom_site_type_symbol
 _atom_site_label
 _atom_site_symmetry_multiplicity
 _atom_site_fract_x
 _atom_site_fract_y
 _atom_site_fract_z
 _atom_site_occupancy
  La  La0  1  0.00000000  0.00000000  0.50000000  1
  Pr  Pr0  1  0.00000000  0.00000000  0.00000000  1
  Pr  Pr1  1  0.50000000  0.50000000  0.50000000  1
  Pr  Pr2  1  0.50000000  0.50000000  0.00000000  1
  Al  Al0  1  0.00000000  0.50000000  0.75023300  1
  Al  Al1  1  0.50000000  0.00000000  0.24976700  1
  Al  Al2  1  0.50000000  0.00000000  0.75023300  1
  Al  Al3  1  0.00000000  0.50000000  0.24976700  1
  O  O0  1  0.71449100  0.28550900  0.75361100  1
  O  O1  1  0.21538700  0.78461300  0.25182900  1
  O  O2  1  0.78461300  0.21538700  0.25182900  1
  O  O3  1  0.28550900  0.71449100  0.75361100  1
  O  O4  1  0.00000000  0.50000000  0.00000000  1
  O  O5  1  0.50000000  0.00000000  0.50000000  1
  O  O6  1  0.50000000  0.00000000  0.00000000  1
  O  O7  1  0.00000000  0.50000000  0.50000000  1
  O  O8  1  0.78461300  0.78461300  0.74817100  1
  O  O9  1  0.28550900  0.28550900  0.24638900  1
  O  O10  1  0.21538700  0.21538700  0.74817100  1
  O  O11  1  0.71449100  0.71449100  0.24638900  1
loop_
_geom_bond_atom_site_label_1
_geom_bond_atom_site_label_2
_geom_bond_distance
_geom_bond_site_symmetry_2
La0 O2 2.500896 1_455
La0 O1 2.500896 1_545
La0 O8 2.500896 1_445
La0 O10 2.500896 1_555
La0 O5 2.683210 1_555
La0 O7 2.683210 1_545
La0 O5 2.683210 1_455
La0 O7 2.683210 1_555
La0 O3 2.904529 1_545
La0 O0 2.904529 1_455
La0 O11 2.904529 1_445
La0 O9 2.904529 1_555
Al0 O4 1.904914 1_556
Al0 O7 1.908468 1_555
Al0 O10 1.915479 1_555
Al0 O8 1.915479 1_455
Al0 O0 1.916532 1_455
Al0 O3 1.916532 1_555
Al1 O6 1.904914 1_555
Al1 O5 1.908468 1_555
Al1 O2 1.915479 1_555
Al1 O1 1.915479 1_545
Al1 O9 1.916532 1_555
Al1 O11 1.916532 1_545
Al2 O6 1.904914 1_556
Al2 O5 1.908468 1_555
Al2 O10 1.915479 1_555
Al2 O8 1.915479 1_545
Al2 O3 1.916532 1_545
Al2 O0 1.916532 1_555
Al3 O4 1.904914 1_555
Al3 O7 1.908468 1_555
Al3 O2 1.915479 1_455
Al3 O1 1.915479 1_555
Al3 O9 1.916532 1_555
Al3 O11 1.916532 1_455
O0 Pr2 2.486169 1_556
O0 Pr1 2.528058 1_555
O0 Pr0 2.868143 1_656
O1 Pr0 2.522077 1_565
O1 Pr1 2.871948 1_555
O1 Pr2 2.890411 1_555
O2 Pr0 2.522077 1_655
O2 Pr1 2.871948 1_555
O2 Pr2 2.890411 1_555
O3 Pr2 2.486169 1_556
O3 Pr1 2.528058 1_555
O3 Pr0 2.868143 1_566
O4 Pr0 2.683210 1_565
O4 Pr0 2.683210 1_555
O4 Pr2 2.683210 1_455
O4 Pr2 2.683210 1_555
O5 Pr1 2.683210 1_545
O5 Pr1 2.683210 1_555
O6 Pr0 2.683210 1_555
O6 Pr2 2.683210 1_555
O6 Pr2 2.683210 1_545
O6 Pr0 2.683210 1_655
O7 Pr1 2.683210 1_455
O7 Pr1 2.683210 1_555
O8 Pr0 2.522077 1_666
O8 Pr1 2.871948 1_555
O8 Pr2 2.890411 1_556
O9 Pr2 2.486169 1_555
O9 Pr1 2.528058 1_555
O9 Pr0 2.868143 1_555
O10 Pr0 2.522077 1_556
O10 Pr1 2.871948 1_555
O10 Pr2 2.890411 1_556
O11 Pr2 2.486169 1_555
O11 Pr1 2.528058 1_555
O11 Pr0 2.868143 1_665
