# generated using pymatgen
data_Mg9Si5
_symmetry_space_group_name_H-M   'P 1'
_cell_length_a   7.08600000
_cell_length_b   7.21525792
_cell_length_c   12.83866580
_cell_angle_alpha   77.11431790
_cell_angle_beta   81.07368196
_cell_angle_gamma   61.19659283
_symmetry_Int_Tables_number   1
_chemical_formula_structural   Mg9Si5
_chemical_formula_sum   'Mg18 Si10'
_cell_volume   559.83391638
_cell_formula_units_Z   2
loop_
 _symmetry_equiv_pos_site_id
 _symmetry_equiv_pos_as_xyz
  1  'x, y, z'
loop_
 _atom_site_type_symbol
 _atom_site_label
 _atom_site_symmetry_multiplicity
 _atom_site_fract_x
 _atom_site_fract_y
 _atom_site_fract_z
 _atom_site_occupancy
  Mg  Mg0  1  0.21665800  0.82579900  0.34185000  1
  Mg  Mg1  1  0.85346800  0.18402400  0.52351900  1
  Mg  Mg2  1  0.99239600  0.53699900  0.35026700  1
  Mg  Mg3  1  0.37126500  0.42346900  0.52314500  1
  Mg  Mg4  1  0.70549300  0.07268500  0.34539900  1
  Mg  Mg5  1  0.58539100  0.71646300  0.49050600  1
  Mg  Mg6  1  0.44480200  0.19557200  0.81601300  1
  Mg  Mg7  1  0.27003300  0.93821100  0.02036000  1
  Mg  Mg8  1  0.97625300  0.43300900  0.88148900  1
  Mg  Mg9  1  0.00010100  0.67105800  0.02810500  1
  Mg  Mg10  1  0.42709700  0.59711200  0.87872100  1
  Mg  Mg11  1  0.75829600  0.15848900  0.99559000  1
  Mg  Mg12  1  0.00040700  0.38164500  0.65266700  1
  Mg  Mg13  1  0.59320100  0.86463900  0.18238300  1
  Mg  Mg14  1  0.17204600  0.78612000  0.66426600  1
  Mg  Mg15  1  0.97041300  0.27721200  0.17692900  1
  Mg  Mg16  1  0.60651700  0.85823300  0.67802200  1
  Mg  Mg17  1  0.39502500  0.46973000  0.17967500  1
  Si  Si0  1  0.09614000  0.03267500  0.82938600  1
  Si  Si1  1  0.27256100  0.10994500  0.51730800  1
  Si  Si2  1  0.94478400  0.76817300  0.50991400  1
  Si  Si3  1  0.98255500  0.87801800  0.17831500  1
  Si  Si4  1  0.85235200  0.86819100  0.83184600  1
  Si  Si5  1  0.30595900  0.15177100  0.32066000  1
  Si  Si6  1  0.33092400  0.27626400  0.02154500  1
  Si  Si7  1  0.66292400  0.58150500  0.03494200  1
  Si  Si8  1  0.63461600  0.47968800  0.34458400  1
  Si  Si9  1  0.57793100  0.46353200  0.68291400  1
loop_
_geom_bond_atom_site_label_1
_geom_bond_atom_site_label_2
_geom_bond_distance
_geom_bond_site_symmetry_2
Mg0 Si5 2.664871 1_565
Mg0 Si3 2.725380 1_455
Mg0 Si2 2.760754 1_455
Mg0 Si8 2.806286 1_555
Mg1 Si1 2.743557 1_655
Mg1 Si2 2.789240 1_545
Mg1 Si8 2.822280 1_555
Mg1 Si9 2.978858 1_555
Mg2 Si5 2.658028 1_655
Mg2 Si8 2.772141 1_555
Mg2 Si2 2.804466 1_555
Mg2 Si3 2.896977 1_555
Mg3 Si1 2.688614 1_555
Mg3 Si8 2.808816 1_555
Mg3 Si9 2.835524 1_555
Mg3 Si2 2.841756 1_455
Mg4 Si5 2.661411 1_555
Mg4 Si8 2.728163 1_555
Mg4 Si2 2.759597 1_545
Mg4 Si3 2.794374 1_545
Mg5 Si8 2.683385 1_555
Mg5 Si1 2.688340 1_565
Mg5 Si9 2.734452 1_555
Mg5 Si2 2.800131 1_555
Mg6 Si9 2.707712 1_555
Mg6 Si4 2.712122 1_545
Mg6 Si6 2.743151 1_556
Mg6 Si0 3.176695 1_555
Mg7 Si6 2.677409 1_565
Mg7 Si0 2.716134 1_564
Mg7 Si7 2.729866 1_555
Mg7 Si3 2.761974 1_455
Mg8 Si7 2.692704 1_556
Mg8 Si4 2.767841 1_555
Mg8 Si0 2.798848 1_655
Mg8 Si6 2.930017 1_656
Mg9 Si3 2.644903 1_455
Mg9 Si6 2.688446 1_555
Mg9 Si4 2.693202 1_454
Mg9 Si7 2.744250 1_455
Mg10 Si7 2.754252 1_556
Mg10 Si9 2.764993 1_555
Mg10 Si0 2.872060 1_565
Mg10 Si6 2.902606 1_556
Mg11 Si6 2.708775 1_556
Mg11 Si3 2.839827 1_546
Mg11 Si0 2.879751 1_655
Mg11 Si7 2.936308 1_556
Mg11 Si4 3.071621 1_545
Mg12 Si1 2.723723 1_555
Mg12 Si9 2.738445 1_455
Mg12 Si2 2.859635 1_455
Mg12 Si0 2.869047 1_555
Mg13 Si3 2.798856 1_555
Mg13 Si5 2.835891 1_565
Mg13 Si7 2.909068 1_555
Mg13 Si8 2.993621 1_555
Mg13 Si6 3.110556 1_565
Mg14 Si9 2.694670 1_555
Mg14 Si2 2.800508 1_455
Mg14 Si4 2.806158 1_455
Mg14 Si0 2.890364 1_565
Mg14 Si1 2.957472 1_565
Mg15 Si7 2.780059 1_555
Mg15 Si3 2.835947 1_545
Mg15 Si5 2.901843 1_655
Mg15 Si8 2.982050 1_555
Mg15 Si6 2.985533 1_655
Mg16 Si4 2.862060 1_555
Mg16 Si2 2.888781 1_555
Mg16 Si9 2.937258 1_555
Mg16 Si1 2.976282 1_565
Mg17 Si7 2.723807 1_555
Mg17 Si5 2.850681 1_555
Mg17 Si6 2.904757 1_555
Mg17 Si8 2.944645 1_555
Mg17 Si3 2.986172 1_455
Si0 Si4 2.517059 1_445
Si1 Si5 2.462673 1_555
