# generated using pymatgen
data_K2MgZn4P4(HO8)2
_symmetry_space_group_name_H-M   'P 1'
_cell_length_a   5.27663404
_cell_length_b   9.10567802
_cell_length_c   9.62972996
_cell_angle_alpha   99.13356200
_cell_angle_beta   99.77013747
_cell_angle_gamma   106.99544391
_symmetry_Int_Tables_number   1
_chemical_formula_structural   K2MgZn4P4(HO8)2
_chemical_formula_sum   'K2 Mg1 Zn4 P4 H2 O16'
_cell_volume   425.27126065
_cell_formula_units_Z   1
loop_
 _symmetry_equiv_pos_site_id
 _symmetry_equiv_pos_as_xyz
  1  'x, y, z'
loop_
 _atom_site_type_symbol
 _atom_site_label
 _atom_site_symmetry_multiplicity
 _atom_site_fract_x
 _atom_site_fract_y
 _atom_site_fract_z
 _atom_site_occupancy
  K  K0  1  0.39341018  0.69416543  0.65656319  1
  K  K1  1  0.60658982  0.30583457  0.34343681  1
  Mg  Mg0  1  0.50000000  0.50000000  0.00000000  1
  Zn  Zn0  1  0.22392938  0.61280887  0.22086638  1
  Zn  Zn1  1  0.77607062  0.38719113  0.77913362  1
  Zn  Zn2  1  0.68149209  0.88556387  0.11143963  1
  Zn  Zn3  1  0.31850791  0.11443613  0.88856037  1
  P  P0  1  0.08861110  0.76134091  0.94216492  1
  P  P1  1  0.91138890  0.23865909  0.05783508  1
  P  P2  1  0.84238940  0.75184785  0.39382840  1
  P  P3  1  0.15761060  0.24815215  0.60617160  1
  H  H0  1  0.97872226  0.93200737  0.60435905  1
  H  H1  1  0.02127774  0.06799263  0.39564095  1
  O  O0  1  0.94409870  0.39966457  0.15375599  1
  O  O1  1  0.05590130  0.60033543  0.84624401  1
  O  O2  1  0.27290271  0.78165036  0.09784035  1
  O  O3  1  0.72709729  0.21834964  0.90215965  1
  O  O4  1  0.75186419  0.10997436  0.12647659  1
  O  O5  1  0.24813581  0.89002564  0.87352341  1
  O  O6  1  0.80479229  0.77150873  0.95727211  1
  O  O7  1  0.19520671  0.22849127  0.04272789  1
  O  O8  1  0.57438978  0.61195151  0.34263383  1
  O  O9  1  0.42561022  0.38804849  0.65736617  1
  O  O10  1  0.84358898  0.88856041  0.31524648  1
  O  O11  1  0.15641102  0.11143959  0.68475352  1
  O  O12  1  0.09077670  0.69780789  0.38820579  1
  O  O13  1  0.90922330  0.30219211  0.61179421  1
  O  O14  1  0.85844532  0.81888570  0.56034486  1
  O  O15  1  0.14155468  0.18111430  0.43965514  1
loop_
_geom_bond_atom_site_label_1
_geom_bond_atom_site_label_2
_geom_bond_distance
_geom_bond_site_symmetry_2
K0 O14 2.765156 1_555
K0 O12 2.808361 1_555
K0 O1 2.819214 1_555
K0 O9 2.842851 1_555
K0 O5 2.879781 1_555
K0 O6 3.149417 1_555
K1 O15 2.765156 1_555
K1 O13 2.808361 1_555
K1 O0 2.819214 1_555
K1 O8 2.842851 1_555
K1 O4 2.879781 1_555
K1 O7 3.149419 1_555
Mg0 O6 2.662916 1_554
Mg0 O7 2.662917 1_555
H0 O14 1.015566 1_555
H0 O11 1.613833 1_665
H1 O15 1.015566 1_555
H1 O10 1.613833 1_445
O0 P1 1.549319 1_555
O0 Zn0 1.991817 1_655
O1 P0 1.549319 1_555
O1 Zn1 1.991817 1_455
O2 P0 1.593508 1_554
O2 Zn2 2.057416 1_555
O2 Zn0 2.069746 1_555
O3 P1 1.593508 1_556
O3 Zn3 2.057416 1_555
O3 Zn1 2.069746 1_555
O4 P1 1.541630 1_555
O4 Zn2 1.943866 1_545
O5 P0 1.541630 1_555
O5 Zn3 1.943866 1_565
O6 P0 1.556692 1_655
O6 Zn2 1.984747 1_556
O7 P1 1.556687 1_455
O7 Zn3 1.984751 1_554
O8 P2 1.541575 1_555
O8 Zn0 2.017463 1_555
O9 P3 1.541575 1_555
O9 Zn1 2.017463 1_555
O10 P2 1.555130 1_555
O10 Zn2 1.995940 1_555
O11 P3 1.555130 1_555
O11 Zn3 1.995940 1_555
O12 P2 1.534768 1_455
O12 Zn0 1.998898 1_555
O13 P3 1.534768 1_655
O13 Zn1 1.998898 1_555
O14 P2 1.601233 1_555
O15 P3 1.601233 1_555
