# generated using pymatgen
data_La2USe5
_symmetry_space_group_name_H-M   'P 1'
_cell_length_a   7.94729208
_cell_length_b   8.61353638
_cell_length_c   12.51167074
_cell_angle_alpha   89.99999095
_cell_angle_beta   90.00523189
_cell_angle_gamma   89.99897249
_symmetry_Int_Tables_number   1
_chemical_formula_structural   La2USe5
_chemical_formula_sum   'La8 U4 Se20'
_cell_volume   856.47752657
_cell_formula_units_Z   4
loop_
 _symmetry_equiv_pos_site_id
 _symmetry_equiv_pos_as_xyz
  1  'x, y, z'
loop_
 _atom_site_type_symbol
 _atom_site_label
 _atom_site_symmetry_multiplicity
 _atom_site_fract_x
 _atom_site_fract_y
 _atom_site_fract_z
 _atom_site_occupancy
  La  La0  1  0.52851833  0.50046768  0.32337215  1
  La  La1  1  0.97229108  0.99951419  0.82384211  1
  La  La2  1  0.47147972  0.00048587  0.67664243  1
  La  La3  1  0.02774510  0.49958990  0.17612440  1
  La  La4  1  0.47224428  0.49946436  0.67619390  1
  La  La5  1  0.02842272  0.00050111  0.17664234  1
  La  La6  1  0.52771112  0.99945501  0.32380731  1
  La  La7  1  0.97161694  0.50037170  0.82339236  1
  U  U0  1  0.07078086  0.74968567  0.49110890  1
  U  U1  1  0.42890862  0.74973892  0.99088411  1
  U  U2  1  0.92921042  0.24970916  0.50887471  1
  U  U3  1  0.57108129  0.24967723  0.00906669  1
  Se  Se0  1  0.83551011  0.95952134  0.59305298  1
  Se  Se1  1  0.66543611  0.54137193  0.09192113  1
  Se  Se2  1  0.16454226  0.45951868  0.40698916  1
  Se  Se3  1  0.33448558  0.04145241  0.90805800  1
  Se  Se4  1  0.16551848  0.04132254  0.40804155  1
  Se  Se5  1  0.33536418  0.45935351  0.90715460  1
  Se  Se6  1  0.83448093  0.54131790  0.59196335  1
  Se  Se7  1  0.66464957  0.95936932  0.09286680  1
  Se  Se8  1  0.83535432  0.74962578  0.31304576  1
  Se  Se9  1  0.66453733  0.74974928  0.81300494  1
  Se  Se10  1  0.16469721  0.24962647  0.68693508  1
  Se  Se11  1  0.33542001  0.24972516  0.18699485  1
  Se  Se12  1  0.45470015  0.74994440  0.49849969  1
  Se  Se13  1  0.04525218  0.74996231  0.99848407  1
  Se  Se14  1  0.54522731  0.24992474  0.50153233  1
  Se  Se15  1  0.95474351  0.24993796  0.00152496  1
  Se  Se16  1  0.19134215  0.74988173  0.71378483  1
  Se  Se17  1  0.30871447  0.74993608  0.21363875  1
  Se  Se18  1  0.80870696  0.24993957  0.28621123  1
  Se  Se19  1  0.69130770  0.24985606  0.78634651  1
loop_
_geom_bond_atom_site_label_1
_geom_bond_atom_site_label_2
_geom_bond_distance
_geom_bond_site_symmetry_2
La0 Se17 3.090833 1_555
La0 Se2 3.096253 1_555
La0 Se14 3.105414 1_555
La0 Se1 3.113619 1_555
La0 Se12 3.124598 1_555
La0 Se18 3.135481 1_555
La0 Se11 3.151317 1_555
La0 Se8 3.251027 1_555
La1 Se3 3.086387 1_665
La1 Se16 3.090385 1_655
La1 Se15 3.100727 1_566
La1 Se0 3.104472 1_555
La1 Se13 3.119438 1_655
La1 Se19 3.139430 1_565
La1 Se10 3.148673 1_665
La1 Se9 3.260190 1_555
La2 Se19 3.090234 1_555
La2 Se0 3.096543 1_545
La2 Se12 3.105277 1_545
La2 Se3 3.113476 1_555
La2 Se14 3.124129 1_555
La2 Se16 3.135664 1_545
La2 Se9 3.150987 1_545
La2 Se10 3.250535 1_555
La3 Se1 3.087012 1_455
La3 Se18 3.090642 1_455
La3 Se13 3.100026 1_554
La3 Se2 3.105468 1_555
La3 Se15 3.119734 1_455
La3 Se17 3.139466 1_555
La3 Se8 3.148224 1_455
La3 Se11 3.260247 1_555
La4 Se6 3.086856 1_555
La4 Se19 3.090685 1_555
La4 Se12 3.101146 1_555
La4 Se5 3.107042 1_555
La4 Se14 3.119644 1_555
La4 Se16 3.139657 1_555
La4 Se9 3.148450 1_555
La4 Se10 3.259342 1_555
La5 Se18 3.089486 1_455
La5 Se7 3.095419 1_445
La5 Se13 3.105431 1_544
La5 Se4 3.113246 1_555
La5 Se15 3.123990 1_455
La5 Se17 3.135917 1_545
La5 Se8 3.152314 1_445
La5 Se11 3.252359 1_555
La6 Se4 3.086548 1_565
La6 Se17 3.089983 1_555
La6 Se14 3.101355 1_565
La6 Se7 3.106941 1_555
La6 Se12 3.119797 1_555
La6 Se18 3.140648 1_565
La6 Se11 3.148327 1_565
La6 Se8 3.259818 1_555
La7 Se16 3.090215 1_655
La7 Se5 3.095046 1_655
La7 Se15 3.104590 1_556
La7 Se6 3.113821 1_555
La7 Se13 3.124625 1_655
La7 Se19 3.135869 1_555
La7 Se10 3.151920 1_655
La7 Se9 3.253682 1_555
Se0 U2 2.812775 1_565
Se0 U0 2.896551 1_655
Se1 U3 2.819509 1_555
Se1 U1 2.890016 1_554
Se2 U0 2.812447 1_555
Se2 U2 2.896443 1_455
Se3 U1 2.819643 1_545
Se3 U3 2.889496 1_556
Se4 U0 2.820907 1_545
Se4 U2 2.888022 1_455
Se5 U1 2.811813 1_555
Se5 U3 2.897659 1_556
Se6 U2 2.820748 1_555
Se6 U0 2.888038 1_655
Se7 U3 2.811574 1_565
Se7 U1 2.897967 1_554
Se8 U0 2.909173 1_655
Se9 U1 2.908706 1_555
Se10 U2 2.909454 1_455
Se11 U3 2.909342 1_555
Se12 U0 3.052512 1_555
Se13 U1 3.050521 1_555
Se14 U2 3.053001 1_555
Se15 U3 3.050545 1_555
Se16 U0 2.946117 1_555
Se17 U1 2.946266 1_554
Se18 U2 2.945820 1_555
Se19 U3 2.945941 1_556
