# generated using pymatgen
data_Y4Si5Ir9
_symmetry_space_group_name_H-M   'P 1'
_cell_length_a   5.52945070
_cell_length_b   5.52944990
_cell_length_c   22.50514276
_cell_angle_alpha   90.00002870
_cell_angle_beta   89.99997487
_cell_angle_gamma   120.00000679
_symmetry_Int_Tables_number   1
_chemical_formula_structural   Y4Si5Ir9
_chemical_formula_sum   'Y8 Si10 Ir18'
_cell_volume   595.90398747
_cell_formula_units_Z   2
loop_
 _symmetry_equiv_pos_site_id
 _symmetry_equiv_pos_as_xyz
  1  'x, y, z'
loop_
 _atom_site_type_symbol
 _atom_site_label
 _atom_site_symmetry_multiplicity
 _atom_site_fract_x
 _atom_site_fract_y
 _atom_site_fract_z
 _atom_site_occupancy
  Y  Y0  1  0.33333331  0.66666654  0.52726418  1
  Y  Y1  1  0.66666660  0.33333323  0.47271968  1
  Y  Y2  1  0.66666671  0.33333321  0.02727959  1
  Y  Y3  1  0.33333337  0.66666664  0.97274991  1
  Y  Y4  1  0.33333320  0.66666670  0.67368019  1
  Y  Y5  1  0.66666666  0.33333327  0.32628855  1
  Y  Y6  1  0.66666661  0.33333310  0.17366984  1
  Y  Y7  1  0.33333310  0.66666659  0.82634523  1
  Si  Si0  1  -0.00000005  -0.00000005  0.00001116  1
  Si  Si1  1  -0.00000010  -0.00000014  0.49999361  1
  Si  Si2  1  0.33333327  0.66666637  0.16779853  1
  Si  Si3  1  0.66666648  0.33333330  0.83219840  1
  Si  Si4  1  0.66666646  0.33333324  0.66782429  1
  Si  Si5  1  0.33333362  0.66666738  0.33217873  1
  Si  Si6  1  0.00000035  0.00000066  0.16739835  1
  Si  Si7  1  -0.00000005  -0.00000005  0.83260845  1
  Si  Si8  1  -0.00000020  -0.00000007  0.66742016  1
  Si  Si9  1  0.00000003  -0.00000022  0.33257989  1
  Ir  Ir0  1  0.16719815  0.33439622  0.08744316  1
  Ir  Ir1  1  0.83279081  0.66558079  0.91257327  1
  Ir  Ir2  1  0.66560376  0.83280161  0.08744302  1
  Ir  Ir3  1  0.83279923  0.66559859  0.58743894  1
  Ir  Ir4  1  0.33441899  0.16720954  0.91257324  1
  Ir  Ir5  1  0.16719828  0.33439650  0.41254414  1
  Ir  Ir6  1  0.16719806  0.83280162  0.08744299  1
  Ir  Ir7  1  0.33440117  0.16720055  0.58743890  1
  Ir  Ir8  1  0.83279040  0.16720914  0.91257317  1
  Ir  Ir9  1  0.66560292  0.83280135  0.41254403  1
  Ir  Ir10  1  0.83279896  0.16720055  0.58743892  1
  Ir  Ir11  1  0.16719839  0.83280134  0.41254396  1
  Ir  Ir12  1  0.16692141  0.33384231  0.24998970  1
  Ir  Ir13  1  0.83308133  0.66616129  0.75001020  1
  Ir  Ir14  1  0.66616020  0.83308127  0.24998809  1
  Ir  Ir15  1  0.33383841  0.16691831  0.75001021  1
  Ir  Ir16  1  0.16692110  0.83308102  0.24998807  1
  Ir  Ir17  1  0.83307904  0.16691830  0.75001025  1
loop_
_geom_bond_atom_site_label_1
_geom_bond_atom_site_label_2
_geom_bond_distance
_geom_bond_site_symmetry_2
Y0 Y4 3.295113 1_555
Y1 Y5 3.295453 1_555
Y2 Y6 3.294533 1_555
Y3 Y7 3.294858 1_555
Y4 Y7 3.435749 1_555
Y5 Y6 3.434706 1_555
Si2 Y6 3.195163 1_565
Si2 Y6 3.195163 1_555
Si2 Y6 3.195163 1_455
Si3 Y7 3.195146 1_545
Si3 Y7 3.195146 1_655
Si3 Y7 3.195146 1_555
Si4 Y4 3.195148 1_545
Si4 Y4 3.195149 1_555
Si4 Y4 3.195149 1_655
Si5 Y5 3.195176 1_565
Si5 Y5 3.195182 1_455
Si5 Y5 3.195183 1_555
Si6 Y6 3.195546 1_455
Si6 Y6 3.195546 1_555
Si6 Y6 3.195552 1_445
Si7 Y7 3.195539 1_545
Si7 Y7 3.195539 1_555
Si7 Y7 3.195541 1_445
Si8 Y4 3.195536 1_445
Si8 Y4 3.195537 1_555
Si8 Y4 3.195537 1_545
Si9 Y5 3.195567 1_445
Si9 Y5 3.195568 1_555
Si9 Y5 3.195569 1_455
Ir0 Si2 2.408737 1_555
Ir0 Si6 2.408738 1_555
Ir0 Si0 2.536907 1_555
Ir0 Y3 3.032196 1_554
Ir0 Y2 3.078477 1_555
Ir0 Y2 3.078477 1_455
Ir0 Y6 3.377786 1_455
Ir0 Y6 3.377787 1_555
Ir1 Si7 2.408975 1_665
Ir1 Si3 2.408995 1_555
Ir1 Si0 2.537079 1_666
Ir1 Y2 3.032389 1_556
Ir1 Y3 3.078605 1_655
Ir1 Y3 3.078608 1_555
Ir1 Y7 3.377801 1_655
Ir1 Y7 3.377808 1_555
Ir2 Si2 2.408741 1_555
Ir2 Si6 2.408744 1_665
Ir2 Si0 2.536905 1_665
Ir2 Y3 3.032193 1_554
Ir2 Y2 3.078474 1_555
Ir2 Y2 3.078476 1_565
Ir2 Y6 3.377788 1_565
Ir2 Y6 3.377789 1_555
Ir3 Si8 2.409193 1_665
Ir3 Si4 2.409229 1_555
Ir3 Si1 2.537156 1_665
Ir3 Y1 3.032681 1_555
Ir3 Y0 3.078588 1_655
Ir3 Y0 3.078588 1_555
Ir3 Y4 3.377975 1_555
Ir3 Y4 3.377975 1_655
Ir4 Si7 2.408974 1_555
Ir4 Si3 2.408995 1_555
Ir4 Si0 2.537080 1_556
Ir4 Y2 3.032390 1_556
Ir4 Y3 3.078605 1_555
Ir4 Y3 3.078608 1_545
Ir4 Y7 3.377803 1_545
Ir4 Y7 3.377804 1_555
Ir5 Si9 2.408893 1_555
Ir5 Si5 2.408910 1_555
Ir5 Si1 2.537214 1_555
Ir5 Y0 3.032707 1_555
Ir5 Y1 3.078595 1_455
Ir5 Y1 3.078596 1_555
Ir5 Y5 3.378160 1_555
Ir5 Y5 3.378161 1_455
Ir6 Si2 2.408742 1_555
Ir6 Si6 2.408744 1_565
Ir6 Si0 2.536906 1_565
Ir6 Y3 3.032191 1_554
Ir6 Y2 3.078474 1_455
Ir6 Y2 3.078476 1_565
Ir6 Y6 3.377788 1_565
Ir6 Y6 3.377788 1_455
Ir7 Si8 2.409194 1_555
Ir7 Si4 2.409230 1_555
Ir7 Si1 2.537155 1_555
Ir7 Y1 3.032680 1_555
Ir7 Y0 3.078587 1_545
Ir7 Y0 3.078587 1_555
Ir7 Y4 3.377975 1_555
Ir7 Y4 3.377975 1_545
Ir8 Si7 2.408971 1_655
Ir8 Si3 2.408996 1_555
Ir8 Si0 2.537081 1_656
Ir8 Y2 3.032390 1_556
Ir8 Y3 3.078606 1_545
Ir8 Y3 3.078608 1_655
Ir8 Y7 3.377802 1_545
Ir8 Y7 3.377803 1_655
Ir9 Si9 2.408893 1_665
Ir9 Si5 2.408903 1_555
Ir9 Si1 2.537217 1_665
Ir9 Y0 3.032709 1_555
Ir9 Y1 3.078596 1_565
Ir9 Y1 3.078597 1_555
Ir9 Y5 3.378158 1_555
Ir9 Y5 3.378160 1_565
Ir10 Si8 2.409195 1_655
Ir10 Si4 2.409228 1_555
Ir10 Si1 2.537156 1_655
Ir10 Y1 3.032681 1_555
Ir10 Y0 3.078586 1_545
Ir10 Y0 3.078588 1_655
Ir10 Y4 3.377974 1_545
Ir10 Y4 3.377976 1_655
Ir11 Si9 2.408892 1_565
Ir11 Si5 2.408901 1_555
Ir11 Si1 2.537217 1_565
Ir11 Y0 3.032711 1_555
Ir11 Y1 3.078597 1_455
Ir11 Y1 3.078597 1_565
Ir11 Y5 3.378157 1_455
Ir11 Y5 3.378158 1_565
Ir12 Si5 2.441605 1_555
Ir12 Si2 2.441639 1_555
Ir12 Si9 2.451627 1_555
Ir12 Si6 2.451643 1_555
Ir12 Y5 3.254566 1_555
Ir12 Y5 3.254567 1_455
Ir12 Y6 3.254814 1_555
Ir12 Y6 3.254817 1_455
Ir13 Si4 2.441561 1_555
Ir13 Si3 2.441601 1_555
Ir13 Si8 2.451612 1_665
Ir13 Si7 2.451751 1_665
Ir13 Y4 3.254932 1_655
Ir13 Y4 3.254941 1_555
Ir13 Y7 3.254992 1_655
Ir13 Y7 3.254999 1_555
Ir14 Si2 2.441621 1_555
Ir14 Si5 2.441638 1_555
Ir14 Si6 2.451611 1_665
Ir14 Si9 2.451646 1_665
Ir14 Y5 3.254578 1_565
Ir14 Y5 3.254592 1_555
Ir14 Y6 3.254791 1_565
Ir14 Y6 3.254802 1_555
Ir15 Si4 2.441562 1_555
Ir15 Si3 2.441601 1_555
Ir15 Si8 2.451612 1_555
Ir15 Si7 2.451751 1_555
Ir15 Y4 3.254931 1_545
Ir15 Y4 3.254941 1_555
Ir15 Y7 3.254992 1_545
Ir15 Y7 3.254999 1_555
Ir16 Si2 2.441619 1_555
Ir16 Si5 2.441638 1_555
Ir16 Si6 2.451613 1_565
Ir16 Si9 2.451645 1_565
Ir16 Y5 3.254580 1_565
Ir16 Y5 3.254590 1_455
Ir16 Y6 3.254790 1_565
Ir16 Y6 3.254802 1_455
Ir17 Si4 2.441562 1_555
Ir17 Si3 2.441598 1_555
Ir17 Si8 2.451614 1_655
Ir17 Si7 2.451754 1_655
Ir17 Y4 3.254930 1_545
Ir17 Y4 3.254943 1_655
Ir17 Y7 3.254989 1_545
Ir17 Y7 3.255000 1_655
