# generated using pymatgen
data_MgB2H42C26(N7O3)2
_symmetry_space_group_name_H-M   'P 1'
_cell_length_a   9.07759900
_cell_length_b   11.59608271
_cell_length_c   12.66805432
_cell_angle_alpha   65.62129076
_cell_angle_beta   77.15737398
_cell_angle_gamma   77.04103072
_symmetry_Int_Tables_number   1
_chemical_formula_structural   MgB2H42C26(N7O3)2
_chemical_formula_sum   'Mg1 B2 H42 C26 N14 O6'
_cell_volume   1170.95829697
_cell_formula_units_Z   1
loop_
 _symmetry_equiv_pos_site_id
 _symmetry_equiv_pos_as_xyz
  1  'x, y, z'
loop_
 _atom_site_type_symbol
 _atom_site_label
 _atom_site_symmetry_multiplicity
 _atom_site_fract_x
 _atom_site_fract_y
 _atom_site_fract_z
 _atom_site_occupancy
  Mg  Mg0  1  0.00000000  0.50000000  0.50000000  1
  B  B0  1  0.77764100  0.85458400  0.83549700  1
  B  B1  1  0.22235900  0.14541600  0.16450300  1
  H  H0  1  0.25235800  0.67545200  0.48122800  1
  H  H1  1  0.74764200  0.32454800  0.51877200  1
  H  H2  1  0.43532900  0.74629400  0.50471300  1
  H  H3  1  0.56467100  0.25370600  0.49528700  1
  H  H4  1  0.44910000  0.70039900  0.65664900  1
  H  H5  1  0.55090000  0.29960100  0.34335100  1
  H  H6  1  0.58941000  0.62890000  0.56929000  1
  H  H7  1  0.41059000  0.37110000  0.43071000  1
  H  H8  1  0.33406300  0.38173600  0.73415100  1
  H  H9  1  0.66593700  0.61826400  0.26584900  1
  H  H10  1  0.52816000  0.40951400  0.70674600  1
  H  H11  1  0.47184000  0.59048600  0.29325400  1
  H  H12  1  0.38710600  0.47753500  0.79603000  1
  H  H13  1  0.61289400  0.52246500  0.20397000  1
  H  H14  1  0.89961700  0.54274300  0.74890300  1
  H  H15  1  0.10038300  0.45725700  0.25109700  1
  H  H16  1  0.85200200  0.50748300  0.93213800  1
  H  H17  1  0.14799800  0.49251700  0.06786200  1
  H  H18  1  0.70071000  0.41591300  0.01521100  1
  H  H19  1  0.29929000  0.58408700  0.98478900  1
  H  H20  1  0.89513200  0.34163900  0.02189100  1
  H  H21  1  0.10486800  0.65836100  0.97810900  1
  H  H22  1  0.76736100  0.24208400  0.81512900  1
  H  H23  1  0.23263900  0.75791600  0.18487100  1
  H  H24  1  0.84672100  0.17938500  0.94886700  1
  H  H25  1  0.15327900  0.82061500  0.05113300  1
  H  H26  1  0.65246400  0.25467600  0.94621900  1
  H  H27  1  0.34753600  0.74532400  0.05378100  1
  H  H28  1  0.14039000  0.23741900  0.68822400  1
  H  H29  1  0.85961000  0.76258100  0.31177600  1
  H  H30  1  0.25704100  0.05316900  0.78302300  1
  H  H31  1  0.74295900  0.94683100  0.21697700  1
  H  H32  1  0.22400100  0.92391400  0.75197100  1
  H  H33  1  0.77599900  0.07608600  0.24802900  1
  H  H34  1  0.39909800  0.98770500  0.69194000  1
  H  H35  1  0.60090200  0.01229500  0.30806000  1
  H  H36  1  0.16492200  0.13774400  0.44658200  1
  H  H37  1  0.83507800  0.86225600  0.55341800  1
  H  H38  1  0.34355800  0.04019600  0.48479100  1
  H  H39  1  0.65644200  0.95980400  0.51520900  1
  H  H40  1  0.17033300  0.97476800  0.54934300  1
  H  H41  1  0.82966700  0.02523200  0.45065700  1
  C  C0  1  0.79343000  0.84392200  0.96175000  1
  C  C1  1  0.20657000  0.15607800  0.03825000  1
  C  C2  1  0.65034000  0.77484200  0.84531000  1
  C  C3  1  0.34966000  0.22515800  0.15469000  1
  C  C4  1  0.73168900  0.00002600  0.75415200  1
  C  C5  1  0.26831100  0.99997400  0.24584800  1
  C  C6  1  0.93637000  0.79836500  0.77849900  1
  C  C7  1  0.06363000  0.20163500  0.22150100  1
  C  C8  1  0.26379300  0.58254600  0.55574000  1
  C  C9  1  0.73620700  0.41745400  0.44426000  1
  C  C10  1  0.46765000  0.66671700  0.58461200  1
  C  C11  1  0.53235000  0.33328300  0.41538800  1
  C  C12  1  0.40758100  0.45149900  0.71920800  1
  C  C13  1  0.59241900  0.54850100  0.28079200  1
  C  C14  1  0.86504400  0.45400200  0.75628300  1
  C  C15  1  0.13495600  0.54599800  0.24371700  1
  C  C16  1  0.81565000  0.41340200  0.96442400  1
  C  C17  1  0.18435000  0.58659800  0.03557600  1
  C  C18  1  0.76742000  0.25663000  0.89510700  1
  C  C19  1  0.23258000  0.74337000  0.10489300  1
  C  C20  1  0.14306700  0.22194100  0.60748300  1
  C  C21  1  0.85693300  0.77805900  0.39251700  1
  C  C22  1  0.27550200  0.01205700  0.71636900  1
  C  C23  1  0.72449800  0.98794300  0.28363100  1
  C  C24  1  0.22208100  0.06238100  0.51749200  1
  C  C25  1  0.77791900  0.93761900  0.48250800  1
  N  N0  1  0.80687800  0.83567400  0.05426300  1
  N  N1  1  0.19312200  0.16432600  0.94573700  1
  N  N2  1  0.55742700  0.71649000  0.85097100  1
  N  N3  1  0.44257300  0.28351000  0.14902900  1
  N  N4  1  0.69699900  0.10635700  0.69331300  1
  N  N5  1  0.30300100  0.89364300  0.30668700  1
  N  N6  1  0.05287300  0.75640100  0.73707400  1
  N  N7  1  0.94712700  0.24359900  0.26292600  1
  N  N8  1  0.37569400  0.56601600  0.61596900  1
  N  N9  1  0.62430600  0.43398400  0.38403100  1
  N  N10  1  0.81504400  0.37952200  0.86590100  1
  N  N11  1  0.18495600  0.62047800  0.13409900  1
  N  N12  1  0.20833800  0.10418500  0.61341700  1
  N  N13  1  0.79166200  0.89581500  0.38658300  1
  O  O0  1  0.17844900  0.50093700  0.57891000  1
  O  O1  1  0.82155100  0.49906300  0.42109000  1
  O  O2  1  0.87299700  0.42881000  0.66764400  1
  O  O3  1  0.12700300  0.57119000  0.33235600  1
  O  O4  1  0.08930800  0.30862400  0.52016900  1
  O  O5  1  0.91069200  0.69137600  0.47983100  1
loop_
_geom_bond_atom_site_label_1
_geom_bond_atom_site_label_2
_geom_bond_distance
_geom_bond_site_symmetry_2
Mg0 O0 2.088096 1_555
Mg0 O1 2.088096 1_455
Mg0 O3 2.100463 1_555
Mg0 O2 2.100463 1_455
Mg0 O5 2.112936 1_455
Mg0 O4 2.112936 1_555
B0 C4 1.587822 1_565
B0 C0 1.588886 1_555
B0 C2 1.589465 1_555
B0 C6 1.589743 1_555
B1 C5 1.587822 1_545
B1 C1 1.588886 1_555
B1 C3 1.589465 1_555
B1 C7 1.589743 1_555
C0 N0 1.167634 1_556
C1 N1 1.167634 1_554
C2 N2 1.167644 1_555
C3 N3 1.167644 1_555
C4 N4 1.167366 1_555
C5 N5 1.167366 1_555
C6 N6 1.167867 1_655
C7 N7 1.167867 1_455
C8 H0 1.102873 1_555
C8 O0 1.257115 1_555
C8 N8 1.336861 1_555
C9 H1 1.102873 1_555
C9 O1 1.257115 1_555
C9 N9 1.336861 1_555
C10 H2 1.096184 1_555
C10 H6 1.099613 1_555
C10 H4 1.100056 1_555
C10 N8 1.457751 1_555
C11 H3 1.096184 1_555
C11 H7 1.099613 1_555
C11 H5 1.100056 1_555
C11 N9 1.457751 1_555
C12 H8 1.093260 1_555
C12 H10 1.098935 1_555
C12 H12 1.099894 1_555
C12 N8 1.455963 1_555
C13 H9 1.093260 1_555
C13 H11 1.098935 1_555
C13 H13 1.099894 1_555
C13 N9 1.455963 1_555
C14 H14 1.103884 1_555
C14 O2 1.255675 1_555
C14 N10 1.336345 1_555
C15 H15 1.103884 1_555
C15 O3 1.255675 1_555
C15 N11 1.336345 1_555
C16 H16 1.095217 1_555
C16 H18 1.098562 1_556
C16 H20 1.098701 1_556
C16 N10 1.456344 1_555
C17 H17 1.095217 1_555
C17 H19 1.098562 1_554
C17 H21 1.098701 1_554
C17 N11 1.456344 1_555
C18 H22 1.093764 1_555
C18 H26 1.098556 1_555
C18 H24 1.099773 1_555
C18 N10 1.457580 1_555
C19 H23 1.093764 1_555
C19 H27 1.098556 1_555
C19 H25 1.099773 1_555
C19 N11 1.457580 1_555
C20 H28 1.103420 1_555
C20 O4 1.254628 1_555
C20 N12 1.339221 1_555
C21 H29 1.103420 1_555
C21 O5 1.254628 1_555
C21 N13 1.339221 1_555
C22 H30 1.096318 1_555
C22 H32 1.098505 1_545
C22 H34 1.099995 1_545
C22 N12 1.457775 1_555
C23 H31 1.096318 1_555
C23 H33 1.098505 1_565
C23 H35 1.099995 1_565
C23 N13 1.457775 1_555
C24 H36 1.093452 1_555
C24 H40 1.098651 1_545
C24 H38 1.100660 1_555
C24 N12 1.455683 1_555
C25 H37 1.093452 1_555
C25 H41 1.098651 1_565
C25 H39 1.100660 1_555
C25 N13 1.455683 1_555
