# generated using pymatgen
data_TiAlV2
_symmetry_space_group_name_H-M   'P 1'
_cell_length_a   5.38735941
_cell_length_b   5.38735941
_cell_length_c   17.19014600
_cell_angle_alpha   90.00000000
_cell_angle_beta   90.00000000
_cell_angle_gamma   107.16788386
_symmetry_Int_Tables_number   1
_chemical_formula_structural   TiAlV2
_chemical_formula_sum   'Ti8 Al8 V16'
_cell_volume   476.69070798
_cell_formula_units_Z   8
loop_
 _symmetry_equiv_pos_site_id
 _symmetry_equiv_pos_as_xyz
  1  'x, y, z'
loop_
 _atom_site_type_symbol
 _atom_site_label
 _atom_site_symmetry_multiplicity
 _atom_site_fract_x
 _atom_site_fract_y
 _atom_site_fract_z
 _atom_site_occupancy
  Ti  Ti0_0  1  0.25000000  0.25000000  0.36951450  1
  Ti  Ti0_1  1  0.25000000  0.25000000  0.86951450  1
  Ti  Ti0_2  1  0.25000000  0.75000000  0.36951450  1
  Ti  Ti0_3  1  0.25000000  0.75000000  0.86951450  1
  Ti  Ti0_4  1  0.75000000  0.25000000  0.36951450  1
  Ti  Ti0_5  1  0.75000000  0.25000000  0.86951450  1
  Ti  Ti0_6  1  0.75000000  0.75000000  0.36951450  1
  Ti  Ti0_7  1  0.75000000  0.75000000  0.86951450  1
  Al  Al0_0  1  0.00000000  0.00000000  0.00531950  1
  Al  Al0_1  1  0.00000000  0.00000000  0.50531950  1
  Al  Al0_2  1  0.00000000  0.50000000  0.00531950  1
  Al  Al0_3  1  0.00000000  0.50000000  0.50531950  1
  Al  Al0_4  1  0.50000000  0.00000000  0.00531950  1
  Al  Al0_5  1  0.50000000  0.00000000  0.50531950  1
  Al  Al0_6  1  0.50000000  0.50000000  0.00531950  1
  Al  Al0_7  1  0.50000000  0.50000000  0.50531950  1
  V  V0_0  1  0.00000000  0.00000000  0.24536000  1
  V  V0_1  1  0.00000000  0.00000000  0.74536000  1
  V  V0_2  1  0.00000000  0.50000000  0.24536000  1
  V  V0_3  1  0.00000000  0.50000000  0.74536000  1
  V  V0_4  1  0.50000000  0.00000000  0.24536000  1
  V  V0_5  1  0.50000000  0.00000000  0.74536000  1
  V  V0_6  1  0.50000000  0.50000000  0.24536000  1
  V  V0_7  1  0.50000000  0.50000000  0.74536000  1
  V  V1_0  1  0.25000000  0.25000000  0.12980600  1
  V  V1_1  1  0.25000000  0.25000000  0.62980600  1
  V  V1_2  1  0.25000000  0.75000000  0.12980600  1
  V  V1_3  1  0.25000000  0.75000000  0.62980600  1
  V  V1_4  1  0.75000000  0.25000000  0.12980600  1
  V  V1_5  1  0.75000000  0.25000000  0.62980600  1
  V  V1_6  1  0.75000000  0.75000000  0.12980600  1
  V  V1_7  1  0.75000000  0.75000000  0.62980600  1
loop_
_geom_bond_atom_site_label_1
_geom_bond_atom_site_label_2
_geom_bond_distance
_geom_bond_site_symmetry_2
Ti0_0 V0_6 2.666840 1_555
Ti0_0 V0_0 2.666840 1_555
Ti0_0 Ti0_4 2.693680 1_555
Ti0_0 Ti0_2 2.693680 1_545
Ti0_0 Ti0_2 2.693680 1_555
Ti0_0 Ti0_4 2.693680 1_455
Ti0_1 V0_7 2.666840 1_555
Ti0_1 V0_1 2.666840 1_555
Ti0_1 Ti0_5 2.693680 1_555
Ti0_1 Ti0_3 2.693680 1_545
Ti0_1 Ti0_3 2.693680 1_555
Ti0_1 Ti0_5 2.693680 1_455
Ti0_2 V0_4 2.666840 1_565
Ti0_2 V0_2 2.666840 1_555
Ti0_2 Ti0_6 2.693680 1_555
Ti0_2 Ti0_6 2.693680 1_455
Ti0_3 V0_5 2.666840 1_565
Ti0_3 V0_3 2.666840 1_555
Ti0_3 Ti0_7 2.693680 1_455
Ti0_3 Ti0_7 2.693680 1_555
Ti0_4 V0_4 2.666840 1_555
Ti0_4 V0_2 2.666840 1_655
Ti0_4 Ti0_6 2.693680 1_545
Ti0_4 Ti0_6 2.693680 1_555
Ti0_5 V0_5 2.666840 1_555
Ti0_5 V0_3 2.666840 1_655
Ti0_5 Ti0_7 2.693680 1_545
Ti0_5 Ti0_7 2.693680 1_555
Ti0_6 V0_0 2.666840 1_665
Ti0_6 V0_6 2.666840 1_555
Ti0_7 V0_1 2.666840 1_665
Ti0_7 V0_7 2.666840 1_555
Al0_0 V1_0 2.671410 1_555
Al0_0 V1_6 2.671410 1_445
Al0_0 Al0_4 2.693680 1_555
Al0_0 Al0_2 2.693680 1_545
Al0_0 Al0_2 2.693680 1_555
Al0_0 Al0_4 2.693680 1_455
Al0_0 Ti0_1 2.829666 1_554
Al0_0 Ti0_7 2.829666 1_444
Al0_1 V1_7 2.671410 1_445
Al0_1 V1_1 2.671410 1_555
Al0_1 Al0_5 2.693680 1_555
Al0_1 Al0_5 2.693680 1_455
Al0_1 Al0_3 2.693680 1_555
Al0_1 Al0_3 2.693680 1_545
Al0_1 Ti0_6 2.829666 1_445
Al0_1 Ti0_0 2.829666 1_555
Al0_2 V1_4 2.671410 1_455
Al0_2 V1_2 2.671410 1_555
Al0_2 Al0_6 2.693680 1_555
Al0_2 Al0_6 2.693680 1_455
Al0_2 Ti0_3 2.829666 1_554
Al0_2 Ti0_5 2.829666 1_454
Al0_3 V1_3 2.671410 1_555
Al0_3 V1_5 2.671410 1_455
Al0_3 Al0_7 2.693680 1_455
Al0_3 Al0_7 2.693680 1_555
Al0_3 Ti0_4 2.829666 1_455
Al0_3 Ti0_2 2.829666 1_555
Al0_4 V1_4 2.671410 1_555
Al0_4 V1_2 2.671410 1_545
Al0_4 Al0_6 2.693680 1_555
Al0_4 Al0_6 2.693680 1_545
Al0_4 Ti0_5 2.829666 1_554
Al0_4 Ti0_3 2.829666 1_544
Al0_5 V1_5 2.671410 1_555
Al0_5 V1_3 2.671410 1_545
Al0_5 Al0_7 2.693680 1_555
Al0_5 Al0_7 2.693680 1_545
Al0_5 Ti0_4 2.829666 1_555
Al0_5 Ti0_2 2.829666 1_545
Al0_6 V1_0 2.671410 1_555
Al0_6 V1_6 2.671410 1_555
Al0_6 Ti0_1 2.829666 1_554
Al0_6 Ti0_7 2.829666 1_554
Al0_7 V1_1 2.671410 1_555
Al0_7 V1_7 2.671410 1_555
Al0_7 Ti0_0 2.829666 1_555
Al0_7 Ti0_6 2.829666 1_555
V0_0 V1_0 2.550064 1_555
V0_0 V1_6 2.550064 1_445
V0_0 V0_4 2.693680 1_555
V0_0 V0_2 2.693680 1_545
V0_0 V0_2 2.693680 1_555
V0_0 V0_4 2.693680 1_455
V0_1 V1_1 2.550064 1_555
V0_1 V1_7 2.550064 1_445
V0_1 V0_5 2.693680 1_555
V0_1 V0_3 2.693680 1_555
V0_1 V0_3 2.693680 1_545
V0_1 V0_5 2.693680 1_455
V0_2 V1_2 2.550064 1_555
V0_2 V1_4 2.550064 1_455
V0_2 V0_6 2.693680 1_455
V0_2 V0_6 2.693680 1_555
V0_3 V1_3 2.550064 1_555
V0_3 V1_5 2.550064 1_455
V0_3 V0_7 2.693680 1_555
V0_3 V0_7 2.693680 1_455
V0_4 V1_2 2.550064 1_545
V0_4 V1_4 2.550064 1_555
V0_4 V0_6 2.693680 1_555
V0_4 V0_6 2.693680 1_545
V0_5 V1_5 2.550064 1_555
V0_5 V1_3 2.550064 1_545
V0_5 V0_7 2.693680 1_555
V0_5 V0_7 2.693680 1_545
V0_6 V1_0 2.550064 1_555
V0_6 V1_6 2.550064 1_555
V0_7 V1_1 2.550064 1_555
V0_7 V1_7 2.550064 1_555
V1_0 V1_4 2.693680 1_555
V1_0 V1_2 2.693680 1_555
V1_0 V1_2 2.693680 1_545
V1_0 V1_4 2.693680 1_455
V1_1 V1_5 2.693680 1_555
V1_1 V1_3 2.693680 1_555
V1_1 V1_3 2.693680 1_545
V1_1 V1_5 2.693680 1_455
V1_2 V1_6 2.693680 1_555
V1_2 V1_6 2.693680 1_455
V1_3 V1_7 2.693680 1_555
V1_3 V1_7 2.693680 1_455
V1_4 V1_6 2.693680 1_545
V1_4 V1_6 2.693680 1_555
V1_5 V1_7 2.693680 1_545
V1_5 V1_7 2.693680 1_555
