# generated using pymatgen
data_Hf2InNi2
_symmetry_space_group_name_H-M   'P 1'
_cell_length_a   7.20166600
_cell_length_b   7.20166600
_cell_length_c   6.55082000
_cell_angle_alpha   90.00000000
_cell_angle_beta   90.00000000
_cell_angle_gamma   90.00000000
_symmetry_Int_Tables_number   1
_chemical_formula_structural   Hf2InNi2
_chemical_formula_sum   'Hf8 In4 Ni8'
_cell_volume   339.75168377
_cell_formula_units_Z   4
loop_
 _symmetry_equiv_pos_site_id
 _symmetry_equiv_pos_as_xyz
  1  'x, y, z'
loop_
 _atom_site_type_symbol
 _atom_site_label
 _atom_site_symmetry_multiplicity
 _atom_site_fract_x
 _atom_site_fract_y
 _atom_site_fract_z
 _atom_site_occupancy
  Hf  Hf0  1  0.17455100  0.17455100  0.00000000  1
  Hf  Hf1  1  0.82544900  0.82544900  0.00000000  1
  Hf  Hf2  1  0.32544900  0.67455100  0.50000000  1
  Hf  Hf3  1  0.67455100  0.32544900  0.50000000  1
  Hf  Hf4  1  0.65798300  0.34201700  0.00000000  1
  Hf  Hf5  1  0.34201700  0.65798300  0.00000000  1
  Hf  Hf6  1  0.84201700  0.84201700  0.50000000  1
  Hf  Hf7  1  0.15798300  0.15798300  0.50000000  1
  In  In0  1  0.50000000  0.00000000  0.25000000  1
  In  In1  1  0.00000000  0.50000000  0.25000000  1
  In  In2  1  0.00000000  0.50000000  0.75000000  1
  In  In3  1  0.50000000  0.00000000  0.75000000  1
  Ni  Ni0  1  0.37399600  0.37399600  0.27038600  1
  Ni  Ni1  1  0.62600400  0.62600400  0.27038600  1
  Ni  Ni2  1  0.12600400  0.87399600  0.22961400  1
  Ni  Ni3  1  0.87399600  0.12600400  0.22961400  1
  Ni  Ni4  1  0.62600400  0.62600400  0.72961400  1
  Ni  Ni5  1  0.37399600  0.37399600  0.72961400  1
  Ni  Ni6  1  0.12600400  0.87399600  0.77038600  1
  Ni  Ni7  1  0.87399600  0.12600400  0.77038600  1
loop_
_geom_bond_atom_site_label_1
_geom_bond_atom_site_label_2
_geom_bond_distance
_geom_bond_site_symmetry_2
Hf0 Ni6 2.658905 1_544
Hf0 Ni7 2.658905 1_454
Hf0 Ni3 2.658905 1_455
Hf0 Ni2 2.658905 1_545
Hf0 Ni0 2.695079 1_555
Hf0 Ni5 2.695079 1_554
Hf0 In0 3.123388 1_555
Hf0 In3 3.123388 1_554
Hf0 In1 3.123388 1_555
Hf0 In2 3.123388 1_554
Hf1 Ni6 2.658905 1_654
Hf1 Ni7 2.658905 1_564
Hf1 Ni2 2.658905 1_655
Hf1 Ni3 2.658905 1_565
Hf1 Ni4 2.695079 1_554
Hf1 Ni1 2.695079 1_555
Hf1 In0 3.123388 1_565
Hf1 In1 3.123388 1_655
Hf1 In2 3.123388 1_654
Hf1 In3 3.123388 1_564
Hf2 Ni0 2.658905 1_555
Hf2 Ni1 2.658905 1_555
Hf2 Ni4 2.658905 1_555
Hf2 Ni5 2.658905 1_555
Hf2 Ni2 2.695079 1_555
Hf2 Ni6 2.695079 1_555
Hf2 In0 3.123388 1_565
Hf2 In1 3.123388 1_555
Hf2 In3 3.123388 1_565
Hf2 In2 3.123388 1_555
Hf3 Ni0 2.658905 1_555
Hf3 Ni1 2.658905 1_555
Hf3 Ni4 2.658905 1_555
Hf3 Ni5 2.658905 1_555
Hf3 Ni3 2.695079 1_555
Hf3 Ni7 2.695079 1_555
Hf3 In2 3.123388 1_655
Hf3 In0 3.123388 1_555
Hf3 In3 3.123388 1_555
Hf3 In1 3.123388 1_655
Hf4 Ni7 2.665073 1_554
Hf4 Ni3 2.665073 1_555
Hf4 Ni5 2.715350 1_554
Hf4 Ni1 2.715350 1_555
Hf4 Ni4 2.715350 1_554
Hf4 Ni0 2.715350 1_555
Hf4 In0 3.169125 1_555
Hf4 In2 3.169125 1_654
Hf4 In3 3.169125 1_554
Hf4 In1 3.169125 1_655
Hf5 Ni6 2.665073 1_554
Hf5 Ni2 2.665073 1_555
Hf5 Ni5 2.715350 1_554
Hf5 Ni1 2.715350 1_555
Hf5 Ni4 2.715350 1_554
Hf5 Ni0 2.715350 1_555
Hf5 In3 3.169125 1_564
Hf5 In0 3.169125 1_565
Hf5 In1 3.169125 1_555
Hf5 In2 3.169125 1_554
Hf6 Ni4 2.665073 1_555
Hf6 Ni1 2.665073 1_555
Hf6 Ni7 2.715350 1_565
Hf6 Ni2 2.715350 1_655
Hf6 Ni3 2.715350 1_565
Hf6 Ni6 2.715350 1_655
Hf6 In2 3.169125 1_655
Hf6 In0 3.169125 1_565
Hf6 In1 3.169125 1_655
Hf6 In3 3.169125 1_565
Hf7 Ni0 2.665073 1_555
Hf7 Ni5 2.665073 1_555
Hf7 Ni6 2.715350 1_545
Hf7 Ni3 2.715350 1_455
Hf7 Ni2 2.715350 1_545
Hf7 Ni7 2.715350 1_455
Hf7 In3 3.169125 1_555
Hf7 In0 3.169125 1_555
Hf7 In1 3.169125 1_555
Hf7 In2 3.169125 1_555
In0 Ni2 2.845286 1_545
In0 Ni3 2.845286 1_555
In0 Ni0 2.845286 1_555
In0 Ni1 2.845286 1_545
In0 In3 3.275410 1_555
In0 In3 3.275410 1_554
In1 Ni2 2.845286 1_555
In1 Ni1 2.845286 1_455
In1 Ni0 2.845286 1_555
In1 Ni3 2.845286 1_455
In1 In2 3.275410 1_555
In1 In2 3.275410 1_554
In2 Ni7 2.845286 1_455
In2 Ni5 2.845286 1_555
In2 Ni6 2.845286 1_555
In2 Ni4 2.845286 1_455
In3 Ni5 2.845286 1_555
In3 Ni6 2.845286 1_545
In3 Ni7 2.845286 1_555
In3 Ni4 2.845286 1_545
