# generated using pymatgen
data_Er5Re2C7
_symmetry_space_group_name_H-M   'P 1'
_cell_length_a   8.22106691
_cell_length_b   8.22106691
_cell_length_c   3.37774781
_cell_angle_alpha   90.00000000
_cell_angle_beta   90.00000000
_cell_angle_gamma   122.35253952
_symmetry_Int_Tables_number   1
_chemical_formula_structural   Er5Re2C7
_chemical_formula_sum   'Er5 Re2 C7'
_cell_volume   192.85141615
_cell_formula_units_Z   1
loop_
 _symmetry_equiv_pos_site_id
 _symmetry_equiv_pos_as_xyz
  1  'x, y, z'
loop_
 _atom_site_type_symbol
 _atom_site_label
 _atom_site_symmetry_multiplicity
 _atom_site_fract_x
 _atom_site_fract_y
 _atom_site_fract_z
 _atom_site_occupancy
  Er  Er0  1  0.50000000  0.50000000  -0.00000000  1
  Er  Er1  1  0.07603770  0.33546564  0.50000000  1
  Er  Er2  1  0.92396230  0.66453436  0.50000000  1
  Er  Er3  1  0.66453436  0.92396230  0.50000000  1
  Er  Er4  1  0.33546564  0.07603770  0.50000000  1
  Re  Re0  1  0.71515488  0.28484512  -0.00000000  1
  Re  Re1  1  0.28484512  0.71515488  -0.00000000  1
  C  C0  1  0.62476479  0.37523521  0.50000000  1
  C  C1  1  0.37523521  0.62476479  0.50000000  1
  C  C2  1  -0.00000000  -0.00000000  -0.00000000  1
  C  C3  1  0.17028095  0.17028095  -0.00000000  1
  C  C4  1  0.82971905  0.82971905  0.00000000  1
  C  C5  1  -0.00000000  0.50000000  -0.00000000  1
  C  C6  1  0.50000000  -0.00000000  -0.00000000  1
loop_
_geom_bond_atom_site_label_1
_geom_bond_atom_site_label_2
_geom_bond_distance
_geom_bond_site_symmetry_2
C0 Re0 2.132533 1_556
C0 Re0 2.132533 1_555
C0 Er4 2.333603 1_555
C0 Er2 2.333603 1_555
C0 Er0 2.466249 1_556
C0 Er0 2.466249 1_555
C1 Re1 2.132533 1_556
C1 Re1 2.132533 1_555
C1 Er1 2.333603 1_555
C1 Er3 2.333603 1_555
C1 Er0 2.466249 1_556
C1 Er0 2.466249 1_555
C2 C4 1.349821 1_445
C2 C3 1.349821 1_555
C3 Er1 2.534323 1_555
C3 Er4 2.534323 1_555
C3 Er1 2.534323 1_554
C3 Er4 2.534323 1_554
C3 Er0 2.613691 1_555
C4 Er2 2.534323 1_554
C4 Er3 2.534323 1_554
C4 Er2 2.534323 1_555
C4 Er3 2.534323 1_555
C4 Er0 2.613691 1_555
C5 Re0 2.044336 1_455
C5 Re1 2.044336 1_555
C5 Er2 2.444928 1_455
C5 Er2 2.444928 1_454
C5 Er1 2.444928 1_554
C5 Er1 2.444928 1_555
C6 Re1 2.044336 1_545
C6 Re0 2.044336 1_555
C6 Er4 2.444928 1_555
C6 Er4 2.444928 1_554
C6 Er3 2.444928 1_544
C6 Er3 2.444928 1_545
