# generated using pymatgen
data_B2Au
_symmetry_space_group_name_H-M   'P 1'
_cell_length_a   3.01246506
_cell_length_b   3.01246506
_cell_length_c   4.23968300
_cell_angle_alpha   90.00000000
_cell_angle_beta   90.00000000
_cell_angle_gamma   119.99997938
_symmetry_Int_Tables_number   1
_chemical_formula_structural   B2Au
_chemical_formula_sum   'B2 Au1'
_cell_volume   33.32024184
_cell_formula_units_Z   1
loop_
 _symmetry_equiv_pos_site_id
 _symmetry_equiv_pos_as_xyz
  1  'x, y, z'
loop_
 _atom_site_type_symbol
 _atom_site_label
 _atom_site_symmetry_multiplicity
 _atom_site_fract_x
 _atom_site_fract_y
 _atom_site_fract_z
 _atom_site_occupancy
  B  B0  1  0.66666700  0.33333300  0.50000000  1
  B  B1  1  0.33333300  0.66666700  0.50000000  1
  Au  Au0  1  0.00000000  0.00000000  0.00000000  1
loop_
_geom_bond_atom_site_label_1
_geom_bond_atom_site_label_2
_geom_bond_distance
_geom_bond_site_symmetry_2
B0 B1 1.739246 1_545
B0 B1 1.739246 1_655
B0 B1 1.739251 1_555
Au0 B1 2.742025 1_545
Au0 B1 2.742025 1_544
Au0 B0 2.742025 1_455
Au0 B0 2.742025 1_454
Au0 B1 2.742027 1_555
Au0 B1 2.742027 1_554
Au0 B0 2.742027 1_554
Au0 B0 2.742027 1_555
Au0 B0 2.742027 1_445
Au0 B0 2.742027 1_444
Au0 B1 2.742027 1_444
Au0 B1 2.742027 1_445
