# generated using pymatgen
data_TmCoGe
_symmetry_space_group_name_H-M   'P 1'
_cell_length_a   4.17911154
_cell_length_b   6.77050301
_cell_length_c   7.04787080
_cell_angle_alpha   89.99268058
_cell_angle_beta   90.00000000
_cell_angle_gamma   90.00000000
_symmetry_Int_Tables_number   1
_chemical_formula_structural   TmCoGe
_chemical_formula_sum   'Tm4 Co4 Ge4'
_cell_volume   199.41729875
_cell_formula_units_Z   4
loop_
 _symmetry_equiv_pos_site_id
 _symmetry_equiv_pos_as_xyz
  1  'x, y, z'
loop_
 _atom_site_type_symbol
 _atom_site_label
 _atom_site_symmetry_multiplicity
 _atom_site_fract_x
 _atom_site_fract_y
 _atom_site_fract_z
 _atom_site_occupancy
  Tm  Tm0  1  0.25000000  0.01228799  0.80163715  1
  Tm  Tm1  1  0.25000000  0.51237811  0.69839045  1
  Tm  Tm2  1  0.75000000  0.98765432  0.19838546  1
  Tm  Tm3  1  0.75000000  0.48766448  0.30161982  1
  Co  Co0  1  0.25000000  0.84571170  0.43607709  1
  Co  Co1  1  0.25000000  0.34586756  0.06385060  1
  Co  Co2  1  0.75000000  0.15426066  0.56388891  1
  Co  Co3  1  0.75000000  0.65417363  0.93615417  1
  Ge  Ge0  1  0.25000000  0.20424845  0.39756211  1
  Ge  Ge1  1  0.25000000  0.70421739  0.10245506  1
  Ge  Ge2  1  0.75000000  0.79574360  0.60243163  1
  Ge  Ge3  1  0.75000000  0.29579211  0.89754854  1
loop_
_geom_bond_atom_site_label_1
_geom_bond_atom_site_label_2
_geom_bond_distance
_geom_bond_site_symmetry_2
Co0 Ge2 2.419757 1_455
Co0 Ge2 2.419757 1_555
Co0 Ge0 2.442570 1_565
Co0 Ge1 2.539103 1_555
Co0 Tm0 2.812584 1_565
Co0 Tm2 2.845305 1_455
Co0 Tm2 2.845305 1_555
Co0 Tm1 2.917211 1_555
Co1 Ge3 2.419721 1_454
Co1 Ge3 2.419721 1_554
Co1 Ge1 2.441451 1_555
Co1 Ge0 2.539779 1_555
Co1 Tm1 2.811496 1_554
Co1 Tm3 2.845438 1_555
Co1 Tm3 2.845438 1_455
Co1 Tm0 2.918419 1_554
Co2 Ge0 2.419681 1_655
Co2 Ge0 2.419681 1_555
Co2 Ge2 2.442459 1_545
Co2 Ge3 2.539443 1_555
Co2 Tm2 2.812300 1_545
Co2 Tm0 2.845608 1_655
Co2 Tm0 2.845608 1_555
Co2 Tm3 2.917382 1_555
Co3 Ge1 2.419687 1_556
Co3 Ge1 2.419687 1_656
Co3 Ge3 2.441665 1_555
Co3 Ge2 2.539726 1_555
Co3 Tm3 2.811528 1_556
Co3 Tm1 2.845412 1_555
Co3 Tm1 2.845412 1_655
Co3 Tm2 2.917981 1_556
Ge0 Tm2 2.913387 1_445
Ge0 Tm2 2.913387 1_545
Ge0 Tm3 2.916368 1_455
Ge0 Tm3 2.916368 1_555
Ge0 Tm1 2.974656 1_555
Ge0 Tm0 3.130263 1_555
Ge1 Tm3 2.913025 1_455
Ge1 Tm3 2.913025 1_555
Ge1 Tm2 2.916555 1_455
Ge1 Tm2 2.916555 1_555
Ge1 Tm0 2.973943 1_564
Ge1 Tm1 3.130158 1_554
Ge2 Tm0 2.913315 1_565
Ge2 Tm0 2.913315 1_665
Ge2 Tm1 2.916170 1_655
Ge2 Tm1 2.916170 1_555
Ge2 Tm3 2.974332 1_555
Ge2 Tm2 3.129939 1_555
Ge3 Tm1 2.913115 1_555
Ge3 Tm1 2.913115 1_655
Ge3 Tm0 2.916824 1_655
Ge3 Tm0 2.916824 1_555
Ge3 Tm2 2.974357 1_546
Ge3 Tm3 3.130294 1_556
