# generated using pymatgen
data_Mn9Ga2SnC3
_symmetry_space_group_name_H-M   'P 1'
_cell_length_a   4.79753600
_cell_length_b   4.79753600
_cell_length_c   14.27391300
_cell_angle_alpha   90.00000000
_cell_angle_beta   90.00000000
_cell_angle_gamma   90.00000000
_symmetry_Int_Tables_number   1
_chemical_formula_structural   Mn9Ga2SnC3
_chemical_formula_sum   'Mn9 Ga2 Sn1 C3'
_cell_volume   328.53340133
_cell_formula_units_Z   1
loop_
 _symmetry_equiv_pos_site_id
 _symmetry_equiv_pos_as_xyz
  1  'x, y, z'
loop_
 _atom_site_type_symbol
 _atom_site_label
 _atom_site_symmetry_multiplicity
 _atom_site_fract_x
 _atom_site_fract_y
 _atom_site_fract_z
 _atom_site_occupancy
  Mn  Mn0  1  0.50000000  0.50000000  0.99101800  1
  Mn  Mn1  1  0.50000000  0.50000000  0.34231500  1
  Mn  Mn2  1  0.50000000  0.50000000  0.66666700  1
  Mn  Mn3  1  0.50000000  0.00000000  0.16666700  1
  Mn  Mn4  1  0.50000000  0.00000000  0.50022800  1
  Mn  Mn5  1  0.50000000  0.00000000  0.83310500  1
  Mn  Mn6  1  0.00000000  0.50000000  0.16666700  1
  Mn  Mn7  1  0.00000000  0.50000000  0.50022800  1
  Mn  Mn8  1  0.00000000  0.50000000  0.83310500  1
  Ga  Ga0  1  0.50000000  0.50000000  0.50484300  1
  Ga  Ga1  1  0.50000000  0.50000000  0.82849000  1
  Sn  Sn0  1  0.50000000  0.50000000  0.16666700  1
  C  C0  1  0.00000000  0.00000000  0.99964000  1
  C  C1  1  0.00000000  0.00000000  0.33369300  1
  C  C2  1  0.00000000  0.00000000  0.66666700  1
loop_
_geom_bond_atom_site_label_1
_geom_bond_atom_site_label_2
_geom_bond_distance
_geom_bond_site_symmetry_2
Mn0 Sn0 2.507199 1_556
Mn1 Sn0 2.507184 1_555
Mn3 Sn0 2.398768 1_555
Mn3 Sn0 2.398768 1_545
Mn6 Sn0 2.398768 1_555
Mn6 Sn0 2.398768 1_455
Ga0 Mn2 2.309862 1_555
Ga0 Mn1 2.319911 1_555
Ga0 Mn4 2.399672 1_565
Ga0 Mn4 2.399672 1_555
Ga0 Mn7 2.399672 1_555
Ga0 Mn7 2.399672 1_655
Ga1 Mn2 2.309847 1_555
Ga1 Mn0 2.319911 1_555
Ga1 Mn8 2.399672 1_555
Ga1 Mn8 2.399672 1_655
Ga1 Mn5 2.399672 1_555
Ga1 Mn5 2.399672 1_565
