# generated using pymatgen
data_MgTi6(H2O7)2
_symmetry_space_group_name_H-M   'P 1'
_cell_length_a   8.51960346
_cell_length_b   8.33673789
_cell_length_c   9.62908609
_cell_angle_alpha   78.25308109
_cell_angle_beta   101.52719435
_cell_angle_gamma   153.76107986
_symmetry_Int_Tables_number   1
_chemical_formula_structural   MgTi6(H2O7)2
_chemical_formula_sum   'Mg1 Ti6 H4 O14'
_cell_volume   295.80110294
_cell_formula_units_Z   1
loop_
 _symmetry_equiv_pos_site_id
 _symmetry_equiv_pos_as_xyz
  1  'x, y, z'
loop_
 _atom_site_type_symbol
 _atom_site_label
 _atom_site_symmetry_multiplicity
 _atom_site_fract_x
 _atom_site_fract_y
 _atom_site_fract_z
 _atom_site_occupancy
  Mg  Mg0  1  0.74150300  0.32978900  0.02051900  1
  Ti  Ti0  1  0.79701600  0.24180000  0.77481100  1
  Ti  Ti1  1  0.26158500  0.79971700  0.24100300  1
  Ti  Ti2  1  0.84282800  0.17586900  0.49069000  1
  Ti  Ti3  1  0.21422300  0.86600600  0.52084400  1
  Ti  Ti4  1  0.87999000  0.12914600  0.18633300  1
  Ti  Ti5  1  0.17915400  0.92604300  0.79915200  1
  H  H0  1  0.68427400  0.67310000  0.12885600  1
  H  H1  1  0.03548400  0.92639900  0.22607000  1
  H  H2  1  0.05262700  0.04477200  0.94854500  1
  H  H3  1  0.00791800  0.09828200  0.77997300  1
  O  O0  1  0.83118500  0.19030200  0.96378000  1
  O  O1  1  0.21572300  0.86908400  0.03658900  1
  O  O2  1  0.87831500  0.13355800  0.68452600  1
  O  O3  1  0.17622100  0.90911300  0.31948000  1
  O  O4  1  0.90613400  0.08034800  0.39151600  1
  O  O5  1  0.14524900  0.97621900  0.60098500  1
  O  O6  1  0.92839100  0.92871900  0.14726200  1
  O  O7  1  0.09622400  0.07438200  0.85071000  1
  O  O8  1  0.69926800  0.39514000  0.81900100  1
  O  O9  1  0.35675500  0.64977600  0.18073200  1
  O  O10  1  0.74338600  0.32244500  0.54278100  1
  O  O11  1  0.31210500  0.72166500  0.45097700  1
  O  O12  1  0.77896900  0.27004600  0.23317500  1
  O  O13  1  0.27073400  0.78338500  0.73835300  1
loop_
_geom_bond_atom_site_label_1
_geom_bond_atom_site_label_2
_geom_bond_distance
_geom_bond_site_symmetry_2
Mg0 O8 1.957995 1_554
Mg0 O1 2.002123 1_655
Mg0 O1 2.003105 1_545
Mg0 O12 2.037561 1_555
Mg0 O0 2.062509 1_554
H0 O6 0.976669 1_555
H1 O6 1.075940 1_455
H1 O3 1.446930 1_555
H2 O7 0.983389 1_555
H3 O7 1.038504 1_555
H3 O2 1.489040 1_455
O0 Ti0 1.809535 1_555
O0 Ti4 2.145809 1_556
O1 Ti1 1.998967 1_555
O1 Ti5 2.255744 1_554
O2 Ti2 1.843156 1_555
O2 Ti0 1.931622 1_555
O3 Ti1 1.903105 1_555
O3 Ti3 1.915100 1_555
O4 Ti2 1.767186 1_555
O4 Ti4 1.943708 1_555
O5 Ti3 1.795425 1_555
O5 Ti5 1.889704 1_555
O6 Ti4 2.158125 1_565
O7 Ti5 2.057324 1_545
O8 Ti5 1.960735 1_545
O8 Ti5 1.961506 1_655
O8 Ti0 2.186697 1_555
O9 Ti4 1.925081 1_455
O9 Ti4 1.969468 1_565
O9 Ti1 2.204181 1_555
O10 Ti3 2.002545 1_655
O10 Ti3 2.005222 1_545
O10 Ti2 2.176952 1_555
O10 Ti0 2.276847 1_555
O11 Ti2 2.025493 1_455
O11 Ti2 2.028142 1_565
O11 Ti1 2.077377 1_555
O11 Ti3 2.224867 1_555
O12 Ti1 1.953722 1_545
O12 Ti1 1.962513 1_655
O12 Ti4 2.123310 1_555
O12 Ti2 2.548608 1_555
O13 Ti0 2.002505 1_565
O13 Ti0 2.007239 1_455
O13 Ti5 2.120521 1_555
O13 Ti3 2.167321 1_555
