# generated using pymatgen
data_SrLaInO4
_symmetry_space_group_name_H-M   'P 1'
_cell_length_a   5.98184700
_cell_length_b   5.99076100
_cell_length_c   12.53917100
_cell_angle_alpha   90.00000000
_cell_angle_beta   90.00000000
_cell_angle_gamma   90.00000000
_symmetry_Int_Tables_number   1
_chemical_formula_structural   SrLaInO4
_chemical_formula_sum   'Sr4 La4 In4 O16'
_cell_volume   449.35142118
_cell_formula_units_Z   4
loop_
 _symmetry_equiv_pos_site_id
 _symmetry_equiv_pos_as_xyz
  1  'x, y, z'
loop_
 _atom_site_type_symbol
 _atom_site_label
 _atom_site_symmetry_multiplicity
 _atom_site_fract_x
 _atom_site_fract_y
 _atom_site_fract_z
 _atom_site_occupancy
  Sr  Sr0  1  0.46910000  0.01430800  0.35320900  1
  Sr  Sr1  1  0.03090000  0.51430800  0.64679100  1
  Sr  Sr2  1  0.46910000  0.51430800  0.14679100  1
  Sr  Sr3  1  0.03090000  0.01430800  0.85320900  1
  La  La0  1  0.54918400  0.48579600  0.85378100  1
  La  La1  1  0.95081600  0.98579600  0.14621900  1
  La  La2  1  0.54918400  0.98579600  0.64621900  1
  La  La3  1  0.95081600  0.48579600  0.35378100  1
  In  In0  1  0.49641700  0.99834600  0.00070900  1
  In  In1  1  0.49641700  0.49834600  0.49929100  1
  In  In2  1  0.00358300  0.49834600  0.99929100  1
  In  In3  1  0.00358300  0.99834600  0.50070900  1
  O  O0  1  0.72078600  0.77864200  0.46952100  1
  O  O1  1  0.29018000  0.70713600  0.96566200  1
  O  O2  1  0.77921400  0.27864200  0.53047900  1
  O  O3  1  0.20982000  0.20713600  0.03433800  1
  O  O4  1  0.29018000  0.20713600  0.53433800  1
  O  O5  1  0.72078600  0.27864200  0.03047900  1
  O  O6  1  0.20982000  0.70713600  0.46566200  1
  O  O7  1  0.77921400  0.77864200  0.96952100  1
  O  O8  1  0.56256900  0.91898800  0.17158900  1
  O  O9  1  0.46976700  0.59678500  0.67707500  1
  O  O10  1  0.93743100  0.41898800  0.82841100  1
  O  O11  1  0.03023300  0.09678500  0.32292500  1
  O  O12  1  0.46976700  0.09678500  0.82292500  1
  O  O13  1  0.56256900  0.41898800  0.32841100  1
  O  O14  1  0.03023300  0.59678500  0.17707500  1
  O  O15  1  0.93743100  0.91898800  0.67158900  1
loop_
_geom_bond_atom_site_label_1
_geom_bond_atom_site_label_2
_geom_bond_distance
_geom_bond_site_symmetry_2
La0 O9 2.361635 1_555
La0 O10 2.378042 1_555
La0 O12 2.409664 1_555
La0 O1 2.475233 1_555
La0 O7 2.660343 1_555
La0 O5 2.739141 1_556
La1 O11 2.361635 1_665
La1 O8 2.378042 1_555
La1 O14 2.409664 1_655
La1 O3 2.475233 1_665
La1 O5 2.660343 1_565
La1 O7 2.739141 1_554
La2 O12 2.361635 1_565
La2 O15 2.378042 1_555
La2 O9 2.409664 1_555
La2 O4 2.475233 1_565
La2 O2 2.660343 1_565
La2 O0 2.739141 1_555
La3 O14 2.361635 1_655
La3 O13 2.378042 1_555
La3 O11 2.409664 1_655
La3 O6 2.475233 1_655
La3 O0 2.660343 1_555
La3 O2 2.739141 1_555
In0 O3 2.163663 1_565
In0 O7 2.178756 1_554
In0 O1 2.181424 1_554
In0 O5 2.181824 1_565
In0 O8 2.230189 1_555
In0 O12 2.311451 1_564
In1 O6 2.163663 1_555
In1 O2 2.178756 1_555
In1 O4 2.181424 1_555
In1 O0 2.181824 1_555
In1 O13 2.230189 1_555
In1 O9 2.311451 1_555
In2 O1 2.163663 1_555
In2 O5 2.178756 1_456
In2 O3 2.181424 1_556
In2 O7 2.181824 1_455
In2 O10 2.230189 1_455
In2 O14 2.311451 1_556
In3 O4 2.163663 1_565
In3 O0 2.178756 1_455
In3 O6 2.181424 1_555
In3 O2 2.181824 1_465
In3 O15 2.230189 1_455
In3 O11 2.311451 1_565
O0 Sr0 2.527251 1_565
O1 Sr2 2.763751 1_556
O1 Sr3 2.789287 1_565
O2 Sr1 2.527251 1_655
O3 Sr3 2.763751 1_554
O3 Sr2 2.789287 1_555
O4 Sr0 2.763751 1_555
O4 Sr1 2.789287 1_555
O5 Sr2 2.527251 1_555
O6 Sr1 2.763751 1_555
O6 Sr0 2.789287 1_565
O7 Sr3 2.527251 1_665
O8 Sr0 2.413521 1_565
O8 Sr2 2.507335 1_555
O9 Sr1 2.698184 1_555
O10 Sr1 2.413521 1_655
O10 Sr3 2.507335 1_655
O11 Sr0 2.698184 1_555
O12 Sr3 2.698184 1_555
O13 Sr2 2.413521 1_555
O13 Sr0 2.507335 1_555
O14 Sr2 2.698184 1_555
O15 Sr3 2.413521 1_665
O15 Sr1 2.507335 1_655
