# generated using pymatgen
data_Mg5Si6
_symmetry_space_group_name_H-M   'P 1'
_cell_length_a   5.32865500
_cell_length_b   5.50475823
_cell_length_c   13.73359861
_cell_angle_alpha   91.23486880
_cell_angle_beta   91.79660338
_cell_angle_gamma   96.07378936
_symmetry_Int_Tables_number   1
_chemical_formula_structural   Mg5Si6
_chemical_formula_sum   'Mg10 Si12'
_cell_volume   400.26339303
_cell_formula_units_Z   2
loop_
 _symmetry_equiv_pos_site_id
 _symmetry_equiv_pos_as_xyz
  1  'x, y, z'
loop_
 _atom_site_type_symbol
 _atom_site_label
 _atom_site_symmetry_multiplicity
 _atom_site_fract_x
 _atom_site_fract_y
 _atom_site_fract_z
 _atom_site_occupancy
  Mg  Mg0  1  0.02307500  0.02209400  0.99538600  1
  Mg  Mg1  1  0.60595200  0.96535800  0.41968200  1
  Mg  Mg2  1  0.31249600  0.43035600  0.35274200  1
  Mg  Mg3  1  0.61999700  0.03774300  0.63936700  1
  Mg  Mg4  1  0.92773900  0.48200300  0.87003100  1
  Mg  Mg5  1  0.29168600  0.89693000  0.20011600  1
  Mg  Mg6  1  0.11066200  0.21210500  0.53616200  1
  Mg  Mg7  1  0.11716000  0.97311400  0.74765400  1
  Mg  Mg8  1  0.46743000  0.68834600  0.99407100  1
  Mg  Mg9  1  0.83993000  0.19452800  0.23065500  1
  Si  Si0  1  0.57521500  0.20130900  0.04878900  1
  Si  Si1  1  0.64783100  0.89435200  0.82418600  1
  Si  Si2  1  0.57528500  0.50073300  0.54581100  1
  Si  Si3  1  0.09433500  0.87480700  0.38454900  1
  Si  Si4  1  0.95873000  0.55626000  0.07651300  1
  Si  Si5  1  0.41929000  0.23009200  0.88087300  1
  Si  Si6  1  0.42165600  0.52314200  0.74278200  1
  Si  Si7  1  0.81481400  0.49339100  0.39398600  1
  Si  Si8  1  0.31461700  0.39459300  0.15769700  1
  Si  Si9  1  0.21015400  0.73309300  0.56180900  1
  Si  Si10  1  0.92186900  0.50014000  0.67194500  1
  Si  Si11  1  0.73733400  0.69551100  0.22882300  1
loop_
_geom_bond_atom_site_label_1
_geom_bond_atom_site_label_2
_geom_bond_distance
_geom_bond_site_symmetry_2
Mg0 Si0 2.789853 1_456
Mg0 Si4 2.809914 1_446
Mg0 Si5 2.831270 1_555
Mg0 Si1 3.058949 1_445
Mg0 Si0 3.063781 1_556
Mg0 Si4 3.178254 1_456
Mg1 Si3 2.744665 1_555
Mg1 Si3 2.756223 1_655
Mg1 Si7 2.951296 1_555
Mg1 Si7 3.032544 1_565
Mg1 Si9 3.112544 1_555
Mg1 Si2 3.112726 1_555
Mg1 Si11 3.120027 1_555
Mg2 Si8 2.682125 1_555
Mg2 Si7 2.702919 1_555
Mg2 Si7 2.784721 1_455
Mg2 Si3 2.848810 1_555
Mg2 Si2 2.957988 1_555
Mg2 Si11 3.130660 1_555
Mg2 Si3 3.198700 1_545
Mg3 Si1 2.678653 1_545
Mg3 Si9 2.778224 1_545
Mg3 Si10 2.882011 1_555
Mg3 Si2 2.907523 1_555
Mg3 Si2 3.180294 1_545
Mg3 Si6 3.285212 1_545
Mg3 Si6 3.286629 1_555
Mg4 Si10 2.723736 1_555
Mg4 Si4 2.853450 1_556
Mg4 Si1 2.914210 1_555
Mg4 Si5 2.919732 1_555
Mg4 Si5 3.091761 1_655
Mg4 Si6 3.195566 1_655
Mg4 Si6 3.198210 1_555
Mg5 Si11 2.746149 1_555
Mg5 Si3 2.773025 1_555
Mg5 Si8 2.803866 1_565
Mg5 Si8 2.829738 1_555
Mg5 Si4 2.918217 1_455
Mg5 Si0 3.036522 1_565
Mg5 Si11 3.083728 1_455
Mg6 Si10 2.707629 1_455
Mg6 Si3 2.752892 1_545
Mg6 Si9 2.771685 1_545
Mg6 Si2 2.794551 1_555
Mg6 Si9 2.872813 1_555
Mg6 Si7 3.024783 1_455
Mg7 Si5 2.676226 1_565
Mg7 Si1 2.739009 1_455
Mg7 Si10 2.860928 1_455
Mg7 Si9 2.928843 1_555
Mg7 Si1 3.062952 1_555
Mg7 Si6 3.102062 1_555
Mg7 Si6 3.283363 1_565
Mg8 Si1 2.770841 1_555
Mg8 Si8 2.884508 1_556
Mg8 Si0 2.899372 1_566
Mg8 Si0 2.910000 1_556
Mg8 Si5 2.918057 1_555
Mg8 Si4 2.986103 1_556
Mg8 Si4 2.994874 1_456
Mg9 Si11 2.742937 1_545
Mg9 Si7 2.768113 1_555
Mg9 Si0 2.832621 1_555
Mg9 Si11 2.868118 1_555
Mg9 Si8 2.869128 1_655
Mg9 Si4 2.974246 1_555
Mg9 Si3 3.144493 1_645
Si0 Si8 2.381552 1_555
Si0 Si5 2.440691 1_554
Si0 Si4 2.685757 1_555
Si1 Si5 2.445121 1_565
Si1 Si6 2.484722 1_555
Si2 Si9 2.451786 1_555
Si2 Si7 2.480436 1_555
Si2 Si6 2.854628 1_555
Si3 Si7 2.450651 1_455
Si3 Si9 2.646765 1_555
Si4 Si8 2.428736 1_655
Si5 Si6 2.515590 1_555
Si6 Si9 3.001160 1_555
Si10 Si9 2.470732 1_655
Si10 Si2 2.492483 1_555
Si10 Si6 2.795699 1_655
Si10 Si6 2.880254 1_555
Si11 Si4 2.575239 1_555
Si11 Si7 2.588582 1_555
Si11 Si8 2.788298 1_555
Si11 Si3 2.902334 1_655
