# generated using pymatgen
data_Zr6Ni23
_symmetry_space_group_name_H-M   'P 1'
_cell_length_a   8.08013889
_cell_length_b   8.08013889
_cell_length_c   8.08013889
_cell_angle_alpha   60.00000000
_cell_angle_beta   60.00000000
_cell_angle_gamma   60.00000000
_symmetry_Int_Tables_number   1
_chemical_formula_structural   Zr6Ni23
_chemical_formula_sum   'Zr6 Ni23'
_cell_volume   373.02804104
_cell_formula_units_Z   1
loop_
 _symmetry_equiv_pos_site_id
 _symmetry_equiv_pos_as_xyz
  1  'x, y, z'
loop_
 _atom_site_type_symbol
 _atom_site_label
 _atom_site_symmetry_multiplicity
 _atom_site_fract_x
 _atom_site_fract_y
 _atom_site_fract_z
 _atom_site_occupancy
  Zr  Zr0  1  0.71286700  0.71286700  0.28713300  1
  Zr  Zr1  1  0.28713300  0.71286700  0.28713300  1
  Zr  Zr2  1  0.71286700  0.28713300  0.28713300  1
  Zr  Zr3  1  0.28713300  0.28713300  0.71286700  1
  Zr  Zr4  1  0.71286700  0.28713300  0.71286700  1
  Zr  Zr5  1  0.28713300  0.71286700  0.71286700  1
  Ni  Ni0  1  0.00000000  0.00000000  0.00000000  1
  Ni  Ni1  1  0.00000000  0.00000000  0.50000000  1
  Ni  Ni2  1  0.50000000  0.00000000  0.50000000  1
  Ni  Ni3  1  0.00000000  0.50000000  0.50000000  1
  Ni  Ni4  1  0.50000000  0.50000000  0.00000000  1
  Ni  Ni5  1  0.00000000  0.50000000  0.00000000  1
  Ni  Ni6  1  0.50000000  0.00000000  0.00000000  1
  Ni  Ni7  1  0.88004200  0.88004200  0.35987300  1
  Ni  Ni8  1  0.88004200  0.35987300  0.88004200  1
  Ni  Ni9  1  0.35987300  0.88004200  0.88004200  1
  Ni  Ni10  1  0.88004200  0.88004200  0.88004200  1
  Ni  Ni11  1  0.11995800  0.11995800  0.64012700  1
  Ni  Ni12  1  0.11995800  0.64012700  0.11995800  1
  Ni  Ni13  1  0.64012700  0.11995800  0.11995800  1
  Ni  Ni14  1  0.11995800  0.11995800  0.11995800  1
  Ni  Ni15  1  0.67135600  0.67135600  0.98593100  1
  Ni  Ni16  1  0.67135600  0.98593100  0.67135600  1
  Ni  Ni17  1  0.98593100  0.67135600  0.67135600  1
  Ni  Ni18  1  0.67135600  0.67135600  0.67135600  1
  Ni  Ni19  1  0.32864400  0.32864400  0.01406900  1
  Ni  Ni20  1  0.32864400  0.01406900  0.32864400  1
  Ni  Ni21  1  0.01406900  0.32864400  0.32864400  1
  Ni  Ni22  1  0.32864400  0.32864400  0.32864400  1
loop_
_geom_bond_atom_site_label_1
_geom_bond_atom_site_label_2
_geom_bond_distance
_geom_bond_site_symmetry_2
Zr0 Zr5 3.439990 1_555
Zr0 Zr2 3.439990 1_555
Zr0 Zr1 3.439990 1_555
Zr0 Zr4 3.439990 1_555
Zr1 Zr5 3.439990 1_555
Zr1 Zr2 3.439990 1_555
Zr1 Zr3 3.439990 1_555
Zr2 Zr3 3.439990 1_555
Zr2 Zr4 3.439990 1_555
Zr3 Zr5 3.439990 1_555
Zr3 Zr4 3.439990 1_555
Zr4 Zr5 3.439990 1_555
Ni0 Ni9 2.374228 1_544
Ni0 Ni11 2.374228 1_554
Ni0 Ni7 2.374228 1_445
Ni0 Ni8 2.374228 1_454
Ni0 Ni13 2.374228 1_455
Ni0 Ni12 2.374228 1_545
Ni0 Ni14 2.374235 1_555
Ni0 Ni10 2.374235 1_444
Ni1 Ni21 2.334384 1_555
Ni1 Ni20 2.334384 1_555
Ni1 Ni16 2.334384 1_445
Ni1 Ni17 2.334384 1_445
Ni1 Ni10 2.509056 1_445
Ni1 Ni14 2.509056 1_555
Ni1 Ni11 2.509063 1_555
Ni1 Ni7 2.509063 1_445
Ni1 Zr4 2.888101 1_455
Ni1 Zr5 2.888101 1_545
Ni1 Zr2 2.888101 1_455
Ni1 Zr1 2.888101 1_545
Ni2 Ni20 2.334377 1_555
Ni2 Ni22 2.334381 1_555
Ni2 Ni7 2.509056 1_545
Ni2 Ni9 2.509056 1_545
Ni2 Zr3 2.888101 1_555
Ni2 Zr2 2.888101 1_555
Ni2 Zr5 2.888101 1_545
Ni2 Zr0 2.888101 1_545
Ni3 Ni7 2.509056 1_455
Ni3 Ni8 2.509056 1_455
Ni3 Zr3 2.888101 1_555
Ni3 Zr1 2.888101 1_555
Ni3 Zr4 2.888101 1_455
Ni3 Zr0 2.888101 1_455
Ni4 Ni8 2.509056 1_554
Ni4 Ni9 2.509056 1_554
Ni4 Zr2 2.888101 1_555
Ni4 Zr1 2.888101 1_555
Ni4 Zr5 2.888101 1_554
Ni4 Zr4 2.888101 1_554
Ni5 Ni8 2.509063 1_454
Ni5 Zr5 2.888101 1_554
Ni5 Zr0 2.888101 1_455
Ni5 Zr2 2.888101 1_455
Ni5 Zr3 2.888101 1_554
Ni6 Ni9 2.509063 1_544
Ni6 Zr4 2.888101 1_554
Ni6 Zr0 2.888101 1_545
Ni6 Zr1 2.888101 1_545
Ni6 Zr3 2.888101 1_554
Ni7 Zr0 2.721630 1_555
Ni7 Zr1 2.721637 1_655
Ni7 Zr2 2.721637 1_565
Ni8 Zr4 2.721630 1_555
Ni8 Zr3 2.721637 1_655
Ni8 Zr2 2.721637 1_556
Ni9 Zr5 2.721630 1_555
Ni9 Zr1 2.721637 1_556
Ni9 Zr3 2.721637 1_565
Ni10 Ni5 2.509056 1_656
Ni10 Ni6 2.509056 1_566
Ni10 Ni17 2.525181 1_555
Ni10 Ni15 2.525181 1_555
Ni10 Ni16 2.525181 1_555
Ni10 Zr5 2.721636 1_655
Ni10 Zr0 2.721636 1_556
Ni10 Zr4 2.721636 1_565
Ni10 Ni12 2.741530 1_656
Ni10 Ni11 2.741530 1_665
Ni10 Ni13 2.741530 1_566
Ni11 Ni2 2.509056 1_555
Ni11 Ni3 2.509056 1_555
Ni11 Ni21 2.525181 1_555
Ni11 Ni20 2.525181 1_555
Ni11 Ni22 2.525181 1_555
Ni11 Zr3 2.721630 1_555
Ni11 Zr5 2.721637 1_545
Ni11 Zr4 2.721637 1_455
Ni11 Ni8 2.741519 1_455
Ni11 Ni9 2.741519 1_545
Ni12 Ni4 2.509056 1_555
Ni12 Ni3 2.509056 1_555
Ni12 Ni5 2.509063 1_555
Ni12 Ni21 2.525181 1_555
Ni12 Ni19 2.525181 1_555
Ni12 Ni22 2.525181 1_555
Ni12 Zr1 2.721630 1_555
Ni12 Zr5 2.721637 1_554
Ni12 Zr0 2.721637 1_455
Ni12 Ni9 2.741519 1_554
Ni12 Ni7 2.741519 1_455
Ni13 Ni4 2.509056 1_555
Ni13 Ni2 2.509056 1_555
Ni13 Ni6 2.509063 1_555
Ni13 Ni19 2.525181 1_555
Ni13 Ni20 2.525181 1_555
Ni13 Ni22 2.525181 1_555
Ni13 Zr2 2.721630 1_555
Ni13 Zr0 2.721637 1_545
Ni13 Zr4 2.721637 1_554
Ni13 Ni8 2.741519 1_554
Ni13 Ni7 2.741519 1_545
Ni14 Ni5 2.509056 1_555
Ni14 Ni6 2.509056 1_555
Ni14 Ni21 2.525181 1_555
Ni14 Ni19 2.525181 1_555
Ni14 Ni20 2.525181 1_555
Ni14 Zr3 2.721636 1_554
Ni14 Zr1 2.721636 1_545
Ni14 Zr2 2.721636 1_455
Ni14 Ni8 2.741530 1_454
Ni14 Ni9 2.741530 1_544
Ni14 Ni7 2.741530 1_445
Ni15 Ni4 2.334377 1_556
Ni15 Ni5 2.334384 1_656
Ni15 Ni6 2.334384 1_566
Ni15 Ni8 2.525181 1_555
Ni15 Ni9 2.525181 1_555
Ni15 Ni17 2.541810 1_555
Ni15 Ni16 2.541810 1_555
Ni15 Ni18 2.541810 1_555
Ni15 Zr1 2.809497 1_556
Ni15 Zr2 2.809497 1_556
Ni15 Zr0 2.809502 1_556
Ni16 Ni2 2.334377 1_565
Ni16 Ni6 2.334384 1_566
Ni16 Ni7 2.525181 1_555
Ni16 Ni9 2.525181 1_555
Ni16 Ni17 2.541810 1_555
Ni16 Ni18 2.541810 1_555
Ni16 Zr2 2.809497 1_565
Ni16 Zr3 2.809497 1_565
Ni16 Zr4 2.809502 1_565
Ni17 Ni3 2.334377 1_655
Ni17 Ni5 2.334384 1_656
Ni17 Ni7 2.525181 1_555
Ni17 Ni8 2.525181 1_555
Ni17 Ni18 2.541810 1_555
Ni17 Zr3 2.809497 1_655
Ni17 Zr1 2.809497 1_655
Ni17 Zr5 2.809502 1_655
Ni18 Ni2 2.334381 1_565
Ni18 Ni4 2.334381 1_556
Ni18 Ni3 2.334381 1_655
Ni18 Ni8 2.525181 1_555
Ni18 Ni9 2.525181 1_555
Ni18 Ni7 2.525181 1_555
Ni18 Zr4 2.809494 1_555
Ni18 Zr0 2.809494 1_555
Ni18 Zr5 2.809494 1_555
Ni19 Ni4 2.334377 1_555
Ni19 Ni5 2.334384 1_555
Ni19 Ni6 2.334384 1_555
Ni19 Ni22 2.541810 1_555
Ni19 Ni20 2.541810 1_555
Ni19 Ni21 2.541810 1_555
Ni19 Zr4 2.809497 1_554
Ni19 Zr5 2.809497 1_554
Ni19 Zr3 2.809502 1_554
Ni20 Ni6 2.334384 1_555
Ni20 Ni22 2.541810 1_555
Ni20 Ni21 2.541810 1_555
Ni20 Zr0 2.809497 1_545
Ni20 Zr5 2.809497 1_545
Ni20 Zr1 2.809502 1_545
Ni21 Ni3 2.334377 1_555
Ni21 Ni5 2.334384 1_555
Ni21 Ni22 2.541810 1_555
Ni21 Zr0 2.809497 1_455
Ni21 Zr4 2.809497 1_455
Ni21 Zr2 2.809502 1_455
Ni22 Ni3 2.334381 1_555
Ni22 Ni4 2.334381 1_555
Ni22 Zr2 2.809494 1_555
Ni22 Zr1 2.809494 1_555
Ni22 Zr3 2.809494 1_555
