# generated using pymatgen
data_Y2ZnS4
_symmetry_space_group_name_H-M   'P 1'
_cell_length_a   6.30445957
_cell_length_b   7.88771925
_cell_length_c   13.52320200
_cell_angle_alpha   90.00000000
_cell_angle_beta   90.00000000
_cell_angle_gamma   90.00000000
_symmetry_Int_Tables_number   1
_chemical_formula_structural   Y2ZnS4
_chemical_formula_sum   'Y8 Zn4 S16'
_cell_volume   672.47918058
_cell_formula_units_Z   4
loop_
 _symmetry_equiv_pos_site_id
 _symmetry_equiv_pos_as_xyz
  1  'x, y, z'
loop_
 _atom_site_type_symbol
 _atom_site_label
 _atom_site_symmetry_multiplicity
 _atom_site_fract_x
 _atom_site_fract_y
 _atom_site_fract_z
 _atom_site_occupancy
  Y  Y0  1  -0.00000000  0.50000000  -0.00000000  1
  Y  Y1  1  0.50000000  -0.00000000  0.50000000  1
  Y  Y2  1  -0.00000000  -0.00000000  -0.00000000  1
  Y  Y3  1  0.50000000  0.50000000  0.50000000  1
  Y  Y4  1  0.00488840  0.75000000  0.26629591  1
  Y  Y5  1  0.49511160  0.75000000  0.76629591  1
  Y  Y6  1  0.99511160  0.25000000  0.73370409  1
  Y  Y7  1  0.50488840  0.25000000  0.23370409  1
  Zn  Zn0  1  0.58851856  0.75000000  0.09195954  1
  Zn  Zn1  1  0.91148144  0.75000000  0.59195954  1
  Zn  Zn2  1  0.41148144  0.25000000  0.90804046  1
  Zn  Zn3  1  0.08851856  0.25000000  0.40804046  1
  S  S0  1  0.22621826  0.75000000  0.09044350  1
  S  S1  1  0.27378174  0.75000000  0.59044350  1
  S  S2  1  0.77378174  0.25000000  0.90955650  1
  S  S3  1  0.72621826  0.25000000  0.40955650  1
  S  S4  1  0.75887535  0.75000000  0.43135415  1
  S  S5  1  0.74112465  0.75000000  0.93135415  1
  S  S6  1  0.24112465  0.25000000  0.56864585  1
  S  S7  1  0.25887535  0.25000000  0.06864585  1
  S  S8  1  0.75378827  0.51537332  0.16781819  1
  S  S9  1  0.74621173  0.98462668  0.66781819  1
  S  S10  1  0.24621173  0.01537332  0.83218181  1
  S  S11  1  0.25378827  0.48462668  0.33218181  1
  S  S12  1  0.24621173  0.48462668  0.83218181  1
  S  S13  1  0.25378827  0.01537332  0.33218181  1
  S  S14  1  0.75378827  0.98462668  0.16781819  1
  S  S15  1  0.74621173  0.51537332  0.66781819  1
loop_
_geom_bond_atom_site_label_1
_geom_bond_atom_site_label_2
_geom_bond_distance
_geom_bond_site_symmetry_2
S0 Zn0 2.284200 1_555
S0 Y0 2.723682 1_555
S0 Y2 2.723682 1_565
S0 Y4 2.757235 1_555
S1 Zn1 2.284200 1_455
S1 Y1 2.723682 1_565
S1 Y3 2.723682 1_555
S1 Y5 2.757235 1_555
S2 Zn2 2.284200 1_555
S2 Y2 2.723682 1_656
S2 Y0 2.723682 1_656
S2 Y6 2.757235 1_555
S3 Zn3 2.284200 1_655
S3 Y1 2.723682 1_555
S3 Y3 2.723682 1_555
S3 Y7 2.757235 1_555
S4 Zn1 2.375454 1_555
S4 Y4 2.718065 1_655
S4 Y1 2.722851 1_565
S4 Y3 2.722851 1_555
S5 Zn0 2.375454 1_556
S5 Y5 2.718065 1_555
S5 Y2 2.722851 1_666
S5 Y0 2.722851 1_656
S6 Zn3 2.375454 1_555
S6 Y6 2.718065 1_455
S6 Y1 2.722851 1_555
S6 Y3 2.722851 1_555
S7 Zn2 2.375454 1_554
S7 Y7 2.718065 1_555
S7 Y2 2.722851 1_555
S7 Y0 2.722851 1_555
S8 Zn0 2.358597 1_555
S8 Y0 2.752178 1_655
S8 Y7 2.763626 1_555
S8 Y4 2.775706 1_655
S9 Zn1 2.358597 1_555
S9 Y1 2.752178 1_565
S9 Y6 2.763626 1_565
S9 Y5 2.775706 1_555
S10 Zn2 2.358597 1_555
S10 Y2 2.752178 1_556
S10 Y5 2.763626 1_545
S10 Y6 2.775706 1_455
S11 Zn3 2.358597 1_555
S11 Y3 2.752178 1_555
S11 Y4 2.763626 1_555
S11 Y7 2.775706 1_555
S12 Zn2 2.358597 1_555
S12 Y0 2.752178 1_556
S12 Y5 2.763626 1_555
S12 Y6 2.775706 1_455
S13 Zn3 2.358597 1_555
S13 Y1 2.752178 1_555
S13 Y4 2.763626 1_545
S13 Y7 2.775706 1_555
S14 Zn0 2.358597 1_555
S14 Y2 2.752178 1_665
S14 Y7 2.763626 1_565
S14 Y4 2.775706 1_655
S15 Zn1 2.358597 1_555
S15 Y3 2.752178 1_555
S15 Y6 2.763626 1_555
S15 Y5 2.775706 1_555
