# generated using pymatgen
data_EuMg2
_symmetry_space_group_name_H-M   'P 1'
_cell_length_a   6.28522800
_cell_length_b   6.28522960
_cell_length_c   6.28290033
_cell_angle_alpha   120.01223713
_cell_angle_beta   59.98775974
_cell_angle_gamma   119.99998112
_symmetry_Int_Tables_number   1
_chemical_formula_structural   EuMg2
_chemical_formula_sum   'Eu2 Mg4'
_cell_volume   175.47168798
_cell_formula_units_Z   2
loop_
 _symmetry_equiv_pos_site_id
 _symmetry_equiv_pos_as_xyz
  1  'x, y, z'
loop_
 _atom_site_type_symbol
 _atom_site_label
 _atom_site_symmetry_multiplicity
 _atom_site_fract_x
 _atom_site_fract_y
 _atom_site_fract_z
 _atom_site_occupancy
  Eu  Eu0  1  0.87497434  0.45835966  0.37507797  1
  Eu  Eu1  1  0.12502666  0.20830734  0.62492103  1
  Mg  Mg0  1  -0.00000000  0.83347687  0.99999900  1
  Mg  Mg1  1  0.50014287  0.33333300  0.99999900  1
  Mg  Mg2  1  0.49985713  0.83319113  -0.00000000  1
  Mg  Mg3  1  0.50000000  0.83333300  0.50000000  1
loop_
_geom_bond_atom_site_label_1
_geom_bond_atom_site_label_2
_geom_bond_distance
_geom_bond_site_symmetry_2
Eu0 Mg0 3.683137 1_655
Eu0 Mg1 3.683140 1_555
Eu0 Mg2 3.683146 1_556
Eu0 Mg0 3.683925 1_644
Eu0 Mg2 3.683927 1_655
Eu0 Mg1 3.683931 1_554
Eu0 Mg3 3.684909 1_555
Eu0 Mg3 3.684909 1_655
Eu0 Mg3 3.684915 1_545
Eu0 Mg1 3.685459 1_654
Eu0 Mg2 3.685459 1_545
Eu0 Mg0 3.685466 1_654
Eu0 Eu1 3.847568 1_654
Eu0 Eu1 3.848395 1_655
Eu0 Eu1 3.848396 1_555
Eu0 Eu1 3.848397 1_665
Eu1 Mg2 3.683138 1_545
Eu1 Mg1 3.683142 1_554
Eu1 Mg0 3.683145 1_544
Eu1 Mg0 3.683921 1_545
Eu1 Mg1 3.683930 1_455
Eu1 Mg2 3.683930 1_556
Eu1 Mg3 3.684907 1_555
Eu1 Mg3 3.684911 1_545
Eu1 Mg3 3.684912 1_445
Eu1 Mg1 3.685455 1_555
Eu1 Mg2 3.685462 1_446
Eu1 Mg0 3.685465 1_555
Mg0 Mg3 3.141448 1_555
Mg0 Mg3 3.141454 1_456
Mg0 Mg2 3.142611 1_456
Mg0 Mg1 3.142613 1_565
Mg0 Mg2 3.142618 1_556
Mg0 Mg1 3.142619 1_455
Mg1 Mg3 3.141448 1_545
Mg1 Mg3 3.141455 1_556
Mg1 Mg2 3.142612 1_546
Mg1 Mg2 3.142618 1_556
Mg2 Mg3 3.141447 1_554
Mg2 Mg3 3.141453 1_555
