# generated using pymatgen
data_Si3Mo5
_symmetry_space_group_name_H-M   'P 1'
_cell_length_a   4.89711669
_cell_length_b   7.24696983
_cell_length_c   7.24697039
_cell_angle_alpha   83.44490674
_cell_angle_beta   70.25263081
_cell_angle_gamma   70.25263555
_symmetry_Int_Tables_number   1
_chemical_formula_structural   Si3Mo5
_chemical_formula_sum   'Si6 Mo10'
_cell_volume   227.82922166
_cell_formula_units_Z   2
loop_
 _symmetry_equiv_pos_site_id
 _symmetry_equiv_pos_as_xyz
  1  'x, y, z'
loop_
 _atom_site_type_symbol
 _atom_site_label
 _atom_site_symmetry_multiplicity
 _atom_site_fract_x
 _atom_site_fract_y
 _atom_site_fract_z
 _atom_site_occupancy
  Si  Si0  1  0.83278363  0.50000000  0.83443375  1
  Si  Si1  1  0.66721637  0.16556625  0.50000000  1
  Si  Si2  1  0.33278363  0.83443375  0.50000000  1
  Si  Si3  1  0.16721637  0.50000000  0.16556625  1
  Si  Si4  1  0.75000000  0.00000000  -0.00000000  1
  Si  Si5  1  0.25000000  0.00000000  -0.00000000  1
  Mo  Mo0  1  0.27611901  0.14694172  0.30081926  1
  Mo  Mo1  1  0.72388099  0.85305828  0.69918074  1
  Mo  Mo2  1  0.42305973  0.30081926  0.85305828  1
  Mo  Mo3  1  0.57694027  0.69918074  0.14694172  1
  Mo  Mo4  1  0.92305973  0.85305828  0.30081926  1
  Mo  Mo5  1  0.22388099  0.69918074  0.85305828  1
  Mo  Mo6  1  0.77611901  0.30081926  0.14694172  1
  Mo  Mo7  1  0.07694027  0.14694172  0.69918074  1
  Mo  Mo8  1  0.75000000  0.50000000  0.50000000  1
  Mo  Mo9  1  0.25000000  0.50000000  0.50000000  1
loop_
_geom_bond_atom_site_label_1
_geom_bond_atom_site_label_2
_geom_bond_distance
_geom_bond_site_symmetry_2
Si4 Si5 2.448558 1_555
Si4 Si5 2.448558 1_655
Mo0 Si2 2.527690 1_545
Mo0 Si3 2.578794 1_555
Mo0 Si5 2.591015 1_555
Mo0 Si4 2.591017 1_555
Mo0 Si1 2.803085 1_455
Mo0 Si1 2.803085 1_555
Mo1 Si1 2.527690 1_565
Mo1 Si0 2.578794 1_555
Mo1 Si4 2.591015 1_566
Mo1 Si5 2.591017 1_566
Mo1 Si2 2.803085 1_655
Mo1 Si2 2.803085 1_555
Mo2 Si3 2.527690 1_556
Mo2 Si1 2.578795 1_555
Mo2 Si5 2.591012 1_556
Mo2 Si4 2.591019 1_556
Mo2 Si0 2.803077 1_455
Mo2 Si0 2.803094 1_555
Mo3 Si0 2.527690 1_554
Mo3 Si2 2.578795 1_555
Mo3 Si4 2.591012 1_565
Mo3 Si5 2.591019 1_565
Mo3 Si3 2.803077 1_655
Mo3 Si3 2.803094 1_555
Mo4 Si1 2.527690 1_565
Mo4 Si3 2.578794 1_655
Mo4 Si4 2.591012 1_565
Mo4 Si5 2.591019 1_665
Mo4 Si2 2.803076 1_555
Mo4 Si2 2.803094 1_655
Mo5 Si3 2.527690 1_556
Mo5 Si2 2.578794 1_555
Mo5 Si5 2.591015 1_566
Mo5 Si4 2.591017 1_466
Mo5 Si0 2.803085 1_555
Mo5 Si0 2.803085 1_455
Mo6 Si0 2.527690 1_554
Mo6 Si1 2.578794 1_555
Mo6 Si4 2.591015 1_555
Mo6 Si5 2.591017 1_655
Mo6 Si3 2.803085 1_555
Mo6 Si3 2.803085 1_655
Mo7 Si2 2.527690 1_545
Mo7 Si0 2.578794 1_455
Mo7 Si5 2.591012 1_556
Mo7 Si4 2.591019 1_456
Mo7 Si1 2.803076 1_555
Mo7 Si1 2.803094 1_455
Mo8 Mo9 2.448558 1_655
Mo8 Mo9 2.448558 1_555
Mo8 Si3 2.588876 1_655
Mo8 Si2 2.588876 1_555
Mo8 Si1 2.588878 1_555
Mo8 Si0 2.588878 1_555
Mo9 Si0 2.588876 1_455
Mo9 Si1 2.588876 1_555
Mo9 Si2 2.588878 1_555
Mo9 Si3 2.588878 1_555
