# generated using pymatgen
data_ZnCu(MoO4)2
_symmetry_space_group_name_H-M   'P 1'
_cell_length_a   6.91873045
_cell_length_b   8.57135076
_cell_length_c   10.07935893
_cell_angle_alpha   100.68847539
_cell_angle_beta   106.45939659
_cell_angle_gamma   101.00821584
_symmetry_Int_Tables_number   1
_chemical_formula_structural   ZnCu(MoO4)2
_chemical_formula_sum   'Zn3 Cu3 Mo6 O24'
_cell_volume   544.16577646
_cell_formula_units_Z   3
loop_
 _symmetry_equiv_pos_site_id
 _symmetry_equiv_pos_as_xyz
  1  'x, y, z'
loop_
 _atom_site_type_symbol
 _atom_site_label
 _atom_site_symmetry_multiplicity
 _atom_site_fract_x
 _atom_site_fract_y
 _atom_site_fract_z
 _atom_site_occupancy
  Zn  Zn0  1  0.45945800  0.29182100  0.51670100  1
  Zn  Zn1  1  0.96364600  0.88818400  0.71867100  1
  Zn  Zn2  1  0.03435700  0.11049200  0.28143200  1
  Cu  Cu0  1  0.24178000  0.69118500  0.90635200  1
  Cu  Cu1  1  0.75760800  0.30642700  0.09468300  1
  Cu  Cu2  1  0.53876100  0.69873400  0.49055300  1
  Mo  Mo0  1  0.50368100  0.99379800  0.75424200  1
  Mo  Mo1  1  0.49356700  0.00798800  0.23820600  1
  Mo  Mo2  1  0.69883100  0.60250300  0.84429200  1
  Mo  Mo3  1  0.30440500  0.39749900  0.16091700  1
  Mo  Mo4  1  0.98723400  0.70664600  0.38116300  1
  Mo  Mo5  1  0.01516200  0.29304400  0.62230700  1
  O  O0  1  0.75446700  0.28560100  0.52657300  1
  O  O1  1  0.25061200  0.71209000  0.47495800  1
  O  O2  1  0.64838000  0.85539500  0.68077300  1
  O  O3  1  0.34667600  0.14764400  0.30921700  1
  O  O4  1  0.99022800  0.87514200  0.29894100  1
  O  O5  1  0.01197000  0.12453800  0.70501000  1
  O  O6  1  0.74782900  0.44820700  0.93092100  1
  O  O7  1  0.25668100  0.55231400  0.07541000  1
  O  O8  1  0.84967600  0.72742800  0.51423500  1
  O  O9  1  0.14250900  0.26908800  0.48500600  1
  O  O10  1  0.95573700  0.73746600  0.86109900  1
  O  O11  1  0.04307400  0.26577000  0.13831200  1
  O  O12  1  0.55057100  0.87921700  0.35118700  1
  O  O13  1  0.44849100  0.12765400  0.64311100  1
  O  O14  1  0.25965700  0.88371700  0.76165700  1
  O  O15  1  0.73967400  0.11802000  0.23089900  1
  O  O16  1  0.86562000  0.51724800  0.24872100  1
  O  O17  1  0.13603800  0.48524000  0.75296900  1
  O  O18  1  0.66566000  0.10821900  0.92774200  1
  O  O19  1  0.33300200  0.88796600  0.06490800  1
  O  O20  1  0.55650200  0.50653300  0.65819100  1
  O  O21  1  0.44619500  0.49561700  0.34874000  1
  O  O22  1  0.53890000  0.70927000  0.91929500  1
  O  O23  1  0.46336200  0.29229700  0.08260600  1
loop_
_geom_bond_atom_site_label_1
_geom_bond_atom_site_label_2
_geom_bond_distance
_geom_bond_site_symmetry_2
Cu0 O19 1.954299 1_556
Cu0 O17 1.973561 1_555
Cu0 O22 1.996436 1_555
Cu0 O10 2.034078 1_455
Cu0 O7 2.242935 1_556
Cu0 O14 2.404729 1_555
Cu1 O23 1.983417 1_555
Cu1 O16 2.005109 1_555
Cu1 O18 2.010622 1_554
Cu1 O11 2.010776 1_655
Cu1 O6 2.217682 1_554
Cu1 O15 2.313183 1_555
Cu2 O21 1.901756 1_555
Cu2 O2 1.971395 1_555
Cu2 O1 1.982072 1_555
Cu2 O8 2.056711 1_555
Cu2 O12 2.279455 1_555
Cu2 O20 2.564439 1_555
Mo0 O18 1.763370 1_565
Mo0 O13 1.765928 1_565
Mo0 O14 1.798785 1_555
Mo0 O2 1.872366 1_555
Mo1 O12 1.746018 1_545
Mo1 O19 1.772260 1_545
Mo1 O15 1.810468 1_555
Mo1 O3 1.880706 1_555
Mo2 O6 1.748785 1_555
Mo2 O20 1.799020 1_555
Mo2 O22 1.799303 1_555
Mo2 O10 1.870217 1_555
Mo3 O7 1.744413 1_555
Mo3 O23 1.803410 1_555
Mo3 O21 1.815365 1_555
Mo3 O11 1.867458 1_555
Mo4 O16 1.778597 1_555
Mo4 O1 1.786462 1_655
Mo4 O4 1.793140 1_555
Mo4 O8 1.853656 1_555
Mo5 O0 1.770705 1_455
Mo5 O17 1.786803 1_555
Mo5 O5 1.796187 1_555
Mo5 O9 1.840735 1_555
O0 Zn0 2.026628 1_555
O2 Zn1 2.058305 1_555
O3 Zn2 2.051906 1_555
O3 Zn0 2.063484 1_555
O4 Zn2 2.030051 1_665
O5 Zn1 2.026276 1_445
O8 Zn1 2.092249 1_555
O9 Zn2 2.079646 1_555
O9 Zn0 2.089381 1_555
O10 Zn1 2.106712 1_555
O11 Zn2 2.141693 1_555
O13 Zn0 2.070808 1_555
O14 Zn1 1.979101 1_455
O15 Zn2 1.973422 1_655
O20 Zn0 1.970671 1_555
