# generated using pymatgen
data_CaPr(NiO3)2
_symmetry_space_group_name_H-M   'P 1'
_cell_length_a   5.42046100
_cell_length_b   5.42646400
_cell_length_c   7.60236800
_cell_angle_alpha   90.00000000
_cell_angle_beta   90.00000000
_cell_angle_gamma   90.00000000
_symmetry_Int_Tables_number   1
_chemical_formula_structural   CaPr(NiO3)2
_chemical_formula_sum   'Ca2 Pr2 Ni4 O12'
_cell_volume   223.61556945
_cell_formula_units_Z   2
loop_
 _symmetry_equiv_pos_site_id
 _symmetry_equiv_pos_as_xyz
  1  'x, y, z'
loop_
 _atom_site_type_symbol
 _atom_site_label
 _atom_site_symmetry_multiplicity
 _atom_site_fract_x
 _atom_site_fract_y
 _atom_site_fract_z
 _atom_site_occupancy
  Ca  Ca0  1  0.49065700  0.20487300  0.00000000  1
  Ca  Ca1  1  0.99065700  0.79512700  0.50000000  1
  Pr  Pr0  1  0.00832500  0.71205300  0.00000000  1
  Pr  Pr1  1  0.50832500  0.28794700  0.50000000  1
  Ni  Ni0  1  0.00035800  0.24943500  0.75009700  1
  Ni  Ni1  1  0.00035800  0.24943500  0.24990300  1
  Ni  Ni2  1  0.50035800  0.75056500  0.25009700  1
  Ni  Ni3  1  0.50035800  0.75056500  0.74990300  1
  O  O0  1  0.07105500  0.23483800  0.50000000  1
  O  O1  1  0.21768700  0.96788700  0.78707400  1
  O  O2  1  0.21768700  0.96788700  0.21292600  1
  O  O3  1  0.28609600  0.46452500  0.20796600  1
  O  O4  1  0.28609600  0.46452500  0.79203400  1
  O  O5  1  0.42162400  0.73798000  0.50000000  1
  O  O6  1  0.57105500  0.76516200  0.00000000  1
  O  O7  1  0.71768700  0.03211300  0.71292600  1
  O  O8  1  0.71768700  0.03211300  0.28707400  1
  O  O9  1  0.78609600  0.53547500  0.70796600  1
  O  O10  1  0.78609600  0.53547500  0.29203400  1
  O  O11  1  0.92162400  0.26202000  0.00000000  1
loop_
_geom_bond_atom_site_label_1
_geom_bond_atom_site_label_2
_geom_bond_distance
_geom_bond_site_symmetry_2
Ca0 O11 2.356533 1_555
Ca0 O4 2.390481 1_554
Ca0 O3 2.390481 1_555
Ca0 O6 2.425546 1_545
Ca0 O1 2.542321 1_544
Ca0 O2 2.542321 1_545
Ca0 O8 2.675128 1_555
Ca0 O7 2.675128 1_554
Ca1 O5 2.356533 1_655
Ca1 O10 2.390481 1_555
Ca1 O9 2.390481 1_555
Ca1 O0 2.425546 1_665
Ca1 O7 2.542321 1_565
Ca1 O8 2.542321 1_565
Ca1 O2 2.675128 1_655
Ca1 O1 2.675128 1_655
Ni0 O0 1.941180 1_555
Ni0 O11 1.948396 1_456
Ni0 O1 1.949607 1_545
Ni0 O7 1.954032 1_455
Ni0 O9 1.964871 1_455
Ni0 O4 1.965409 1_555
Ni1 O0 1.941180 1_555
Ni1 O11 1.948396 1_455
Ni1 O2 1.949607 1_545
Ni1 O8 1.954032 1_455
Ni1 O10 1.964871 1_455
Ni1 O3 1.965409 1_555
Ni2 O6 1.941180 1_555
Ni2 O5 1.948396 1_555
Ni2 O8 1.949607 1_565
Ni2 O2 1.954032 1_555
Ni2 O3 1.964871 1_555
Ni2 O10 1.965409 1_555
Ni3 O6 1.941180 1_556
Ni3 O5 1.948396 1_555
Ni3 O7 1.949607 1_565
Ni3 O1 1.954032 1_555
Ni3 O4 1.964871 1_555
Ni3 O9 1.965409 1_555
O0 Pr1 2.387662 1_555
O1 Pr0 2.415676 1_556
O2 Pr0 2.415676 1_555
O3 Pr0 2.563363 1_555
O3 Pr1 2.701522 1_555
O4 Pr0 2.563363 1_556
O4 Pr1 2.701522 1_555
O5 Pr1 2.486897 1_555
O6 Pr0 2.387662 1_655
O7 Pr1 2.415676 1_555
O8 Pr1 2.415676 1_555
O9 Pr1 2.563363 1_555
O9 Pr0 2.701522 1_656
O10 Pr1 2.563363 1_555
O10 Pr0 2.701522 1_655
O11 Pr0 2.486897 1_655
