# generated using pymatgen
data_NaCr3O8
_symmetry_space_group_name_H-M   'P 1'
_cell_length_a   5.16493943
_cell_length_b   5.16493917
_cell_length_c   14.05640454
_cell_angle_alpha   90.08323258
_cell_angle_beta   90.08323472
_cell_angle_gamma   64.98590949
_symmetry_Int_Tables_number   1
_chemical_formula_structural   NaCr3O8
_chemical_formula_sum   'Na2 Cr6 O16'
_cell_volume   339.80513620
_cell_formula_units_Z   2
loop_
 _symmetry_equiv_pos_site_id
 _symmetry_equiv_pos_as_xyz
  1  'x, y, z'
loop_
 _atom_site_type_symbol
 _atom_site_label
 _atom_site_symmetry_multiplicity
 _atom_site_fract_x
 _atom_site_fract_y
 _atom_site_fract_z
 _atom_site_occupancy
  Na  Na0  1  0.00000100  0.00000100  0.00000900  1
  Na  Na1  1  0.00000000  0.99999900  0.49999600  1
  Cr  Cr0  1  0.00002000  0.00002100  0.24999100  1
  Cr  Cr1  1  0.00000500  0.00000600  0.74999900  1
  Cr  Cr2  1  0.35726700  0.35726700  0.63786300  1
  Cr  Cr3  1  0.64272600  0.64272700  0.36213600  1
  Cr  Cr4  1  0.64272200  0.64272200  0.86214700  1
  Cr  Cr5  1  0.35726500  0.35726500  0.13785600  1
  O  O0  1  0.22366000  0.22366000  0.22185800  1
  O  O1  1  0.22365800  0.22365800  0.72186800  1
  O  O2  1  0.77634200  0.77634100  0.27813000  1
  O  O3  1  0.77633400  0.77633400  0.77814500  1
  O  O4  1  0.72168200  0.72168200  0.46614300  1
  O  O5  1  0.72169200  0.72169100  0.96617100  1
  O  O6  1  0.27830700  0.27830600  0.03384500  1
  O  O7  1  0.27831000  0.27831000  0.53383900  1
  O  O8  1  0.78493800  0.28025900  0.35222200  1
  O  O9  1  0.78493200  0.28026700  0.85223800  1
  O  O10  1  0.71974900  0.21506400  0.14776500  1
  O  O11  1  0.71974500  0.21505600  0.64777700  1
  O  O12  1  0.21506400  0.71974900  0.14776500  1
  O  O13  1  0.21505600  0.71974500  0.64777700  1
  O  O14  1  0.28025900  0.78493800  0.35222200  1
  O  O15  1  0.28026700  0.78493200  0.85223800  1
loop_
_geom_bond_atom_site_label_1
_geom_bond_atom_site_label_2
_geom_bond_distance
_geom_bond_site_symmetry_2
Na0 O6 2.470224 1_555
Na0 O5 2.470263 1_444
Na0 O12 2.506981 1_545
Na0 O10 2.506981 1_455
Na0 O9 2.507190 1_454
Na0 O15 2.507190 1_544
Na1 O7 2.470285 1_565
Na1 O4 2.470372 1_455
Na1 O14 2.507203 1_555
Na1 O8 2.507206 1_465
Na1 O13 2.507269 1_555
Na1 O11 2.507272 1_465
Cr0 O0 1.988919 1_555
Cr0 O2 1.989274 1_445
Cr0 O10 2.008179 1_455
Cr0 O12 2.008183 1_545
Cr0 O8 2.008197 1_455
Cr0 O14 2.008200 1_545
Cr1 O1 1.989025 1_555
Cr1 O3 1.989229 1_445
Cr1 O11 2.008120 1_455
Cr1 O13 2.008124 1_545
Cr1 O9 2.008323 1_455
Cr1 O15 2.008327 1_545
Cr2 O7 1.614878 1_555
Cr2 O1 1.659577 1_555
Cr2 O13 1.703110 1_555
Cr2 O11 1.703110 1_555
Cr3 O4 1.614657 1_555
Cr3 O2 1.659624 1_555
Cr3 O14 1.703058 1_555
Cr3 O8 1.703063 1_555
Cr4 O5 1.614925 1_555
Cr4 O3 1.659565 1_555
Cr4 O9 1.702996 1_555
Cr4 O15 1.702996 1_555
Cr5 O6 1.614719 1_555
Cr5 O0 1.659522 1_555
Cr5 O12 1.703135 1_555
Cr5 O10 1.703135 1_555
