# generated using pymatgen
data_YMo2O7F
_symmetry_space_group_name_H-M   'P 1'
_cell_length_a   6.65999700
_cell_length_b   4.35898900
_cell_length_c   11.54535377
_cell_angle_alpha   89.49145365
_cell_angle_beta   90.00000000
_cell_angle_gamma   90.00000000
_symmetry_Int_Tables_number   1
_chemical_formula_structural   YMo2O7F
_chemical_formula_sum   'Y2 Mo4 O14 F2'
_cell_volume   335.15827342
_cell_formula_units_Z   2
loop_
 _symmetry_equiv_pos_site_id
 _symmetry_equiv_pos_as_xyz
  1  'x, y, z'
loop_
 _atom_site_type_symbol
 _atom_site_label
 _atom_site_symmetry_multiplicity
 _atom_site_fract_x
 _atom_site_fract_y
 _atom_site_fract_z
 _atom_site_occupancy
  Y  Y0  1  0.79906400  0.00000000  0.75000000  1
  Y  Y1  1  0.20093600  0.00000000  0.25000000  1
  Mo  Mo0  1  0.33149900  0.90307900  0.59422600  1
  Mo  Mo1  1  0.33149900  0.09692100  0.90577400  1
  Mo  Mo2  1  0.66850100  0.09692100  0.40577400  1
  Mo  Mo3  1  0.66850100  0.90307900  0.09422600  1
  O  O0  1  0.34229100  0.50587300  0.59706400  1
  O  O1  1  0.34229100  0.49412700  0.90293600  1
  O  O2  1  0.65770900  0.49412700  0.40293600  1
  O  O3  1  0.65770900  0.50587300  0.09706400  1
  O  O4  1  0.07789400  0.98304900  0.62815600  1
  O  O5  1  0.07789400  0.01695100  0.87184400  1
  O  O6  1  0.92210600  0.01695100  0.37184400  1
  O  O7  1  0.92210600  0.98304900  0.12815600  1
  O  O8  1  0.64931500  0.99908600  0.56654300  1
  O  O9  1  0.64931500  0.00091400  0.93345700  1
  O  O10  1  0.35068500  0.00091400  0.43345700  1
  O  O11  1  0.35068500  0.99908600  0.06654300  1
  O  O12  1  0.44041900  0.00000000  0.75000000  1
  O  O13  1  0.55958100  0.00000000  0.25000000  1
  F  F0  1  0.80290300  0.50000000  0.75000000  1
  F  F1  1  0.19709700  0.50000000  0.25000000  1
loop_
_geom_bond_atom_site_label_1
_geom_bond_atom_site_label_2
_geom_bond_distance
_geom_bond_site_symmetry_2
Mo0 O0 1.732927 1_555
Mo0 O4 1.769221 1_555
Mo0 O10 1.905094 1_565
Mo0 O12 1.988132 1_565
Mo0 O8 2.180627 1_555
Mo0 O0 2.629050 1_565
Mo1 O1 1.732927 1_555
Mo1 O5 1.769221 1_555
Mo1 O11 1.905094 1_546
Mo1 O12 1.988132 1_555
Mo1 O9 2.180627 1_555
Mo1 O1 2.629050 1_545
Mo2 O2 1.732927 1_555
Mo2 O6 1.769221 1_555
Mo2 O8 1.905094 1_545
Mo2 O13 1.988132 1_555
Mo2 O10 2.180627 1_555
Mo2 O2 2.629050 1_545
Mo3 O3 1.732927 1_555
Mo3 O7 1.769221 1_555
Mo3 O9 1.905094 1_564
Mo3 O13 1.988132 1_565
Mo3 O11 2.180627 1_555
Mo3 O3 2.629050 1_565
O4 Y0 2.331239 1_465
O5 Y0 2.331239 1_455
O6 Y1 2.331239 1_655
O7 Y1 2.331239 1_665
O8 Y0 2.341169 1_565
O9 Y0 2.341169 1_555
O10 Y1 2.341169 1_555
O11 Y1 2.341169 1_565
O12 Y0 2.388575 1_555
O13 Y1 2.388575 1_555
F0 Y0 2.179644 1_555
F0 Y0 2.179644 1_565
F1 Y1 2.179644 1_565
F1 Y1 2.179644 1_555
