# generated using pymatgen
data_Yb6Ta4Al43
_symmetry_space_group_name_H-M   'P 1'
_cell_length_a   11.20473462
_cell_length_b   11.20473462
_cell_length_c   17.85702500
_cell_angle_alpha   90.00000000
_cell_angle_beta   90.00000000
_cell_angle_gamma   120.00000365
_symmetry_Int_Tables_number   1
_chemical_formula_structural   Yb6Ta4Al43
_chemical_formula_sum   'Yb12 Ta8 Al86'
_cell_volume   1941.52448534
_cell_formula_units_Z   2
loop_
 _symmetry_equiv_pos_site_id
 _symmetry_equiv_pos_as_xyz
  1  'x, y, z'
loop_
 _atom_site_type_symbol
 _atom_site_label
 _atom_site_symmetry_multiplicity
 _atom_site_fract_x
 _atom_site_fract_y
 _atom_site_fract_z
 _atom_site_occupancy
  Yb  Yb0  1  0.53029800  0.00000000  0.59471500  1
  Yb  Yb1  1  0.46970200  0.00000000  0.40528500  1
  Yb  Yb2  1  0.00000000  0.53029800  0.59471500  1
  Yb  Yb3  1  0.46970200  0.00000000  0.09471500  1
  Yb  Yb4  1  0.00000000  0.53029800  0.90528500  1
  Yb  Yb5  1  0.00000000  0.46970200  0.40528500  1
  Yb  Yb6  1  0.53029800  0.00000000  0.90528500  1
  Yb  Yb7  1  0.00000000  0.46970200  0.09471500  1
  Yb  Yb8  1  0.46970200  0.46970200  0.59471500  1
  Yb  Yb9  1  0.53029800  0.53029800  0.40528500  1
  Yb  Yb10  1  0.53029800  0.53029800  0.09471500  1
  Yb  Yb11  1  0.46970200  0.46970200  0.90528500  1
  Ta  Ta0  1  0.72833700  0.00000000  0.75000000  1
  Ta  Ta1  1  0.27166300  0.00000000  0.25000000  1
  Ta  Ta2  1  0.00000000  0.72833700  0.75000000  1
  Ta  Ta3  1  0.00000000  0.27166300  0.25000000  1
  Ta  Ta4  1  0.27166300  0.27166300  0.75000000  1
  Ta  Ta5  1  0.72833700  0.72833700  0.25000000  1
  Ta  Ta6  1  0.00000000  0.00000000  0.50000000  1
  Ta  Ta7  1  0.00000000  0.00000000  0.00000000  1
  Al  Al0  1  0.14890400  0.00000000  0.75000000  1
  Al  Al1  1  0.85109600  0.00000000  0.25000000  1
  Al  Al2  1  0.00000000  0.14890400  0.75000000  1
  Al  Al3  1  0.00000000  0.85109600  0.25000000  1
  Al  Al4  1  0.85109600  0.85109600  0.75000000  1
  Al  Al5  1  0.14890400  0.14890400  0.25000000  1
  Al  Al6  1  0.15894900  0.00000000  0.11473100  1
  Al  Al7  1  0.84105100  0.00000000  0.88526900  1
  Al  Al8  1  0.00000000  0.15894900  0.11473100  1
  Al  Al9  1  0.84105100  0.00000000  0.61473100  1
  Al  Al10  1  0.00000000  0.15894900  0.38526900  1
  Al  Al11  1  0.00000000  0.84105100  0.88526900  1
  Al  Al12  1  0.15894900  0.00000000  0.38526900  1
  Al  Al13  1  0.00000000  0.84105100  0.61473100  1
  Al  Al14  1  0.84105100  0.84105100  0.11473100  1
  Al  Al15  1  0.15894900  0.15894900  0.88526900  1
  Al  Al16  1  0.15894900  0.15894900  0.61473100  1
  Al  Al17  1  0.84105100  0.84105100  0.38526900  1
  Al  Al18  1  0.33333300  0.66666700  0.62542800  1
  Al  Al19  1  0.66666700  0.33333300  0.37457200  1
  Al  Al20  1  0.66666700  0.33333300  0.12542800  1
  Al  Al21  1  0.66666700  0.33333300  0.87457200  1
  Al  Al22  1  0.33333300  0.66666700  0.87457200  1
  Al  Al23  1  0.33333300  0.66666700  0.12542800  1
  Al  Al24  1  0.33333300  0.66666700  0.37457200  1
  Al  Al25  1  0.66666700  0.33333300  0.62542800  1
  Al  Al26  1  0.15854200  0.39515500  0.66334400  1
  Al  Al27  1  0.84145800  0.60484500  0.33665600  1
  Al  Al28  1  0.60484500  0.76338800  0.66334400  1
  Al  Al29  1  0.84145800  0.60484500  0.16334400  1
  Al  Al30  1  0.39515500  0.15854200  0.83665600  1
  Al  Al31  1  0.39515500  0.23661200  0.33665600  1
  Al  Al32  1  0.15854200  0.39515500  0.83665600  1
  Al  Al33  1  0.60484500  0.84145800  0.16334400  1
  Al  Al34  1  0.23661200  0.84145800  0.66334400  1
  Al  Al35  1  0.39515500  0.23661200  0.16334400  1
  Al  Al36  1  0.76338800  0.60484500  0.83665600  1
  Al  Al37  1  0.76338800  0.15854200  0.33665600  1
  Al  Al38  1  0.60484500  0.76338800  0.83665600  1
  Al  Al39  1  0.23661200  0.39515500  0.16334400  1
  Al  Al40  1  0.60484500  0.84145800  0.33665600  1
  Al  Al41  1  0.39515500  0.15854200  0.66334400  1
  Al  Al42  1  0.76338800  0.15854200  0.16334400  1
  Al  Al43  1  0.23661200  0.39515500  0.33665600  1
  Al  Al44  1  0.23661200  0.84145800  0.83665600  1
  Al  Al45  1  0.76338800  0.60484500  0.66334400  1
  Al  Al46  1  0.84145800  0.23661200  0.83665600  1
  Al  Al47  1  0.15854200  0.76338800  0.16334400  1
  Al  Al48  1  0.15854200  0.76338800  0.33665600  1
  Al  Al49  1  0.84145800  0.23661200  0.66334400  1
  Al  Al50  1  0.24701000  0.49402000  0.50000000  1
  Al  Al51  1  0.75299000  0.50598000  0.50000000  1
  Al  Al52  1  0.50598000  0.75299000  0.50000000  1
  Al  Al53  1  0.75299000  0.50598000  0.00000000  1
  Al  Al54  1  0.49402000  0.24701000  0.00000000  1
  Al  Al55  1  0.49402000  0.24701000  0.50000000  1
  Al  Al56  1  0.24701000  0.49402000  0.00000000  1
  Al  Al57  1  0.50598000  0.75299000  0.00000000  1
  Al  Al58  1  0.24701000  0.75299000  0.50000000  1
  Al  Al59  1  0.75299000  0.24701000  0.50000000  1
  Al  Al60  1  0.75299000  0.24701000  0.00000000  1
  Al  Al61  1  0.24701000  0.75299000  0.00000000  1
  Al  Al62  1  0.14944000  0.59604600  0.75000000  1
  Al  Al63  1  0.85056000  0.40395400  0.25000000  1
  Al  Al64  1  0.40395400  0.55339400  0.75000000  1
  Al  Al65  1  0.59604600  0.14944000  0.75000000  1
  Al  Al66  1  0.59604600  0.44660600  0.25000000  1
  Al  Al67  1  0.40395400  0.85056000  0.25000000  1
  Al  Al68  1  0.44660600  0.85056000  0.75000000  1
  Al  Al69  1  0.55339400  0.40395400  0.75000000  1
  Al  Al70  1  0.55339400  0.14944000  0.25000000  1
  Al  Al71  1  0.44660600  0.59604600  0.25000000  1
  Al  Al72  1  0.85056000  0.44660600  0.75000000  1
  Al  Al73  1  0.14944000  0.55339400  0.25000000  1
  Al  Al74  1  0.25477300  0.00000000  0.53091800  1
  Al  Al75  1  0.74522700  0.00000000  0.46908200  1
  Al  Al76  1  0.00000000  0.25477300  0.53091800  1
  Al  Al77  1  0.74522700  0.00000000  0.03091800  1
  Al  Al78  1  0.00000000  0.25477300  0.96908200  1
  Al  Al79  1  0.00000000  0.74522700  0.46908200  1
  Al  Al80  1  0.25477300  0.00000000  0.96908200  1
  Al  Al81  1  0.00000000  0.74522700  0.03091800  1
  Al  Al82  1  0.74522700  0.74522700  0.53091800  1
  Al  Al83  1  0.25477300  0.25477300  0.46908200  1
  Al  Al84  1  0.25477300  0.25477300  0.03091800  1
  Al  Al85  1  0.74522700  0.74522700  0.96908200  1
loop_
_geom_bond_atom_site_label_1
_geom_bond_atom_site_label_2
_geom_bond_distance
_geom_bond_site_symmetry_2
Yb0 Yb1 3.450124 1_555
Yb2 Yb5 3.450124 1_555
Yb3 Yb6 3.450124 1_554
Yb4 Yb7 3.450124 1_556
Yb8 Yb9 3.450124 1_555
Yb10 Yb11 3.450124 1_554
Ta0 Yb6 3.551475 1_555
Ta0 Yb0 3.551475 1_555
Ta1 Yb3 3.551475 1_555
Ta1 Yb1 3.551475 1_555
Ta2 Yb2 3.551475 1_555
Ta2 Yb4 3.551475 1_555
Ta3 Yb7 3.551475 1_555
Ta3 Yb5 3.551475 1_555
Ta4 Yb11 3.551475 1_555
Ta4 Yb8 3.551475 1_555
Ta5 Yb9 3.551475 1_555
Ta5 Yb10 3.551475 1_555
Al0 Ta2 2.640171 1_545
Al0 Ta4 2.640171 1_555
Al0 Al34 2.874323 1_545
Al0 Al44 2.874323 1_545
Al0 Al41 2.874330 1_555
Al0 Al30 2.874330 1_555
Al0 Al4 2.889805 1_445
Al0 Al2 2.889805 1_555
Al0 Al11 2.969640 1_545
Al0 Al13 2.969640 1_545
Al0 Al15 2.969640 1_555
Al0 Al16 2.969640 1_555
Al1 Ta3 2.640171 1_655
Al1 Ta5 2.640171 1_545
Al1 Al37 2.874323 1_555
Al1 Al42 2.874323 1_555
Al1 Al40 2.874330 1_545
Al1 Al33 2.874330 1_545
Al1 Al5 2.889805 1_655
Al1 Al3 2.889805 1_645
Al1 Al10 2.969640 1_655
Al1 Al8 2.969640 1_655
Al1 Al17 2.969640 1_545
Al1 Al14 2.969640 1_545
Al2 Ta0 2.640171 1_455
Al2 Ta4 2.640171 1_555
Al2 Al49 2.874323 1_455
Al2 Al46 2.874323 1_455
Al2 Al32 2.874330 1_555
Al2 Al26 2.874330 1_555
Al2 Al4 2.889805 1_445
Al2 Al7 2.969640 1_455
Al2 Al9 2.969640 1_455
Al3 Ta1 2.640171 1_565
Al3 Ta5 2.640171 1_455
Al3 Al48 2.874323 1_555
Al3 Al47 2.874323 1_555
Al3 Al5 2.889805 1_565
Al3 Al6 2.969640 1_565
Al4 Ta2 2.640171 1_655
Al4 Ta0 2.640171 1_565
Al4 Al45 2.874332 1_555
Al4 Al9 2.969640 1_565
Al4 Al7 2.969640 1_565
Al5 Ta1 2.640171 1_555
Al5 Ta3 2.640171 1_555
Al5 Al6 2.969640 1_555
Al5 Al8 2.969640 1_555
Al6 Ta7 2.714643 1_555
Al6 Ta1 2.725737 1_555
Al6 Al80 2.813762 1_554
Al6 Al81 2.911505 1_545
Al6 Al84 2.911505 1_555
Al6 Al8 3.084750 1_555
Al6 Yb3 3.500202 1_555
Al7 Ta7 2.714643 1_656
Al7 Ta0 2.725737 1_555
Al7 Al77 2.813762 1_556
Al7 Al78 2.911505 1_655
Al7 Al85 2.911505 1_545
Al7 Yb6 3.500202 1_555
Al8 Ta7 2.714643 1_555
Al8 Ta3 2.725737 1_555
Al8 Al84 2.911505 1_555
Al8 Yb7 3.500202 1_555
Al9 Ta6 2.714643 1_655
Al9 Ta0 2.725737 1_555
Al9 Yb0 3.500202 1_555
Al10 Ta6 2.714643 1_555
Al10 Ta3 2.725737 1_555
Al10 Al37 2.787513 1_455
Al10 Al43 2.787518 1_555
Al10 Al76 2.813762 1_555
Al10 Al75 2.911505 1_455
Al10 Al83 2.911505 1_555
Al10 Al5 2.969640 1_555
Al10 Al17 3.084750 1_445
Al10 Al12 3.084750 1_555
Al10 Yb5 3.500202 1_555
Al11 Ta7 2.714643 1_566
Al11 Ta2 2.725737 1_555
Al11 Al44 2.787513 1_555
Al11 Al36 2.787518 1_455
Al11 Al81 2.813762 1_556
Al11 Al80 2.911505 1_565
Al11 Al85 2.911505 1_455
Al11 Al4 2.969640 1_455
Al11 Al15 3.084750 1_565
Al11 Al7 3.084750 1_465
Al11 Yb4 3.500202 1_555
Al12 Ta6 2.714643 1_555
Al12 Ta1 2.725737 1_555
Al12 Al48 2.787513 1_545
Al12 Al31 2.787518 1_555
Al12 Al74 2.813762 1_555
Al12 Al79 2.911505 1_545
Al12 Al83 2.911505 1_555
Al12 Al3 2.969640 1_545
Al12 Al5 2.969640 1_555
Al12 Al17 3.084750 1_445
Al12 Yb1 3.500202 1_555
Al13 Ta6 2.714643 1_565
Al13 Ta2 2.725737 1_555
Al13 Al34 2.787513 1_555
Al13 Al45 2.787518 1_455
Al13 Al79 2.813762 1_555
Al13 Al74 2.911505 1_565
Al13 Al82 2.911505 1_455
Al13 Al4 2.969640 1_455
Al13 Al16 3.084750 1_565
Al13 Al9 3.084750 1_465
Al13 Yb2 3.500202 1_555
Al14 Ta7 2.714643 1_665
Al14 Ta5 2.725737 1_555
Al14 Al33 2.787523 1_555
Al14 Al29 2.787523 1_555
Al14 Al85 2.813762 1_554
Al14 Al81 2.911505 1_655
Al14 Al77 2.911505 1_565
Al14 Al3 2.969640 1_655
Al14 Al6 3.084750 1_665
Al14 Al8 3.084750 1_665
Al14 Yb10 3.500202 1_555
Al15 Ta7 2.714643 1_556
Al15 Ta4 2.725737 1_555
Al15 Al30 2.787523 1_555
Al15 Al32 2.787523 1_555
Al15 Al84 2.813762 1_556
Al15 Al78 2.911505 1_555
Al15 Al80 2.911505 1_555
Al15 Al2 2.969640 1_555
Al15 Al7 3.084750 1_455
Al15 Yb11 3.500202 1_555
Al16 Ta6 2.714643 1_555
Al16 Ta4 2.725737 1_555
Al16 Al26 2.787523 1_555
Al16 Al41 2.787523 1_555
Al16 Al83 2.813762 1_555
Al16 Al76 2.911505 1_555
Al16 Al74 2.911505 1_555
Al16 Al2 2.969640 1_555
Al16 Al9 3.084750 1_455
Al16 Yb8 3.500202 1_555
Al17 Ta6 2.714643 1_665
Al17 Ta5 2.725737 1_555
Al17 Al27 2.787523 1_555
Al17 Al40 2.787523 1_555
Al17 Al82 2.813762 1_555
Al17 Al79 2.911505 1_655
Al17 Al75 2.911505 1_565
Al17 Al3 2.969640 1_655
Al17 Yb9 3.500202 1_555
Al18 Al26 2.755185 1_555
Al18 Al28 2.755185 1_555
Al18 Al34 2.755185 1_555
Al18 Al58 2.796990 1_555
Al18 Al52 2.796996 1_555
Al18 Al50 2.796996 1_555
Al18 Al62 2.861746 1_555
Al18 Al68 2.861747 1_555
Al18 Al64 2.861752 1_555
Al18 Yb2 3.298209 1_555
Al18 Yb0 3.298210 1_565
Al18 Yb8 3.298220 1_555
Al19 Al27 2.755185 1_555
Al19 Al31 2.755185 1_555
Al19 Al37 2.755185 1_555
Al19 Al59 2.796990 1_555
Al19 Al51 2.796996 1_555
Al19 Al55 2.796996 1_555
Al19 Al63 2.861746 1_555
Al19 Al70 2.861747 1_555
Al19 Al66 2.861752 1_555
Al19 Yb5 3.298209 1_655
Al19 Yb1 3.298210 1_555
Al19 Yb9 3.298220 1_555
Al20 Al29 2.755185 1_555
Al20 Al35 2.755185 1_555
Al20 Al42 2.755185 1_555
Al20 Al60 2.796990 1_555
Al20 Al54 2.796996 1_555
Al20 Al53 2.796996 1_555
Al20 Al63 2.861746 1_555
Al20 Al70 2.861747 1_555
Al20 Al66 2.861752 1_555
Al20 Yb7 3.298209 1_655
Al20 Yb3 3.298210 1_555
Al20 Yb10 3.298220 1_555
Al21 Al30 2.755185 1_555
Al21 Al36 2.755185 1_555
Al21 Al46 2.755185 1_555
Al21 Al60 2.796990 1_556
Al21 Al54 2.796996 1_556
Al21 Al53 2.796996 1_556
Al21 Al65 2.861746 1_555
Al21 Al72 2.861747 1_555
Al21 Al69 2.861752 1_555
Al21 Yb6 3.298209 1_555
Al21 Yb4 3.298210 1_655
Al21 Yb11 3.298220 1_555
Al22 Al32 2.755185 1_555
Al22 Al38 2.755185 1_555
Al22 Al44 2.755185 1_555
Al22 Al61 2.796990 1_556
Al22 Al56 2.796996 1_556
Al22 Al57 2.796996 1_556
Al22 Al62 2.861746 1_555
Al22 Al68 2.861747 1_555
Al22 Al64 2.861752 1_555
Al22 Yb4 3.298209 1_555
Al22 Yb6 3.298210 1_565
Al22 Yb11 3.298220 1_555
Al23 Al33 2.755185 1_555
Al23 Al39 2.755185 1_555
Al23 Al47 2.755185 1_555
Al23 Al61 2.796990 1_555
Al23 Al56 2.796996 1_555
Al23 Al57 2.796996 1_555
Al23 Al67 2.861746 1_555
Al23 Al73 2.861747 1_555
Al23 Al71 2.861752 1_555
Al23 Yb3 3.298209 1_565
Al23 Yb7 3.298210 1_555
Al23 Yb10 3.298220 1_555
Al24 Al40 2.755185 1_555
Al24 Al43 2.755185 1_555
Al24 Al48 2.755185 1_555
Al24 Al58 2.796990 1_555
Al24 Al52 2.796996 1_555
Al24 Al50 2.796996 1_555
Al24 Al67 2.861746 1_555
Al24 Al73 2.861747 1_555
Al24 Al71 2.861752 1_555
Al24 Yb1 3.298209 1_565
Al24 Yb5 3.298210 1_555
Al24 Yb9 3.298220 1_555
Al25 Al41 2.755185 1_555
Al25 Al45 2.755185 1_555
Al25 Al49 2.755185 1_555
Al25 Al59 2.796990 1_555
Al25 Al51 2.796996 1_555
Al25 Al55 2.796996 1_555
Al25 Al65 2.861746 1_555
Al25 Al72 2.861747 1_555
Al25 Al69 2.861752 1_555
Al25 Yb0 3.298209 1_555
Al25 Yb2 3.298210 1_655
Al25 Yb8 3.298220 1_555
Al26 Ta4 2.769381 1_555
Al26 Al62 2.775095 1_555
Al26 Al64 2.867746 1_555
Al26 Al76 2.903030 1_555
Al26 Al49 3.076851 1_455
Al26 Al32 3.094837 1_555
Al26 Al50 3.101546 1_555
Al26 Yb2 3.104900 1_555
Al26 Yb8 3.382726 1_555
Al27 Ta5 2.769381 1_555
Al27 Al63 2.775095 1_555
Al27 Al66 2.867746 1_555
Al27 Al3 2.874330 1_655
Al27 Al79 2.903030 1_655
Al27 Al48 3.076851 1_655
Al27 Al29 3.094837 1_555
Al27 Al51 3.101546 1_555
Al27 Yb5 3.104900 1_655
Al27 Yb9 3.382726 1_555
Al28 Ta0 2.769373 1_565
Al28 Al64 2.775100 1_555
Al28 Al9 2.787518 1_565
Al28 Al68 2.867739 1_555
Al28 Al4 2.874332 1_555
Al28 Al82 2.903033 1_555
Al28 Al45 3.076871 1_555
Al28 Al38 3.094837 1_555
Al28 Al52 3.101545 1_555
Al28 Yb8 3.104909 1_555
Al28 Yb0 3.382716 1_565
Al29 Ta5 2.769381 1_555
Al29 Al63 2.775095 1_555
Al29 Al66 2.867746 1_555
Al29 Al3 2.874330 1_655
Al29 Al81 2.903030 1_655
Al29 Al47 3.076851 1_655
Al29 Al53 3.101546 1_555
Al29 Yb7 3.104900 1_655
Al29 Yb10 3.382726 1_555
Al30 Ta4 2.769381 1_555
Al30 Al65 2.775095 1_555
Al30 Al69 2.867746 1_555
Al30 Al80 2.903030 1_555
Al30 Al44 3.076851 1_545
Al30 Al41 3.094837 1_555
Al30 Al54 3.101546 1_556
Al30 Yb6 3.104900 1_555
Al30 Yb11 3.382726 1_555
Al31 Ta1 2.769373 1_555
Al31 Al66 2.775100 1_555
Al31 Al70 2.867739 1_555
Al31 Al5 2.874332 1_555
Al31 Al83 2.903033 1_555
Al31 Al43 3.076871 1_555
Al31 Al35 3.094837 1_555
Al31 Al55 3.101545 1_555
Al31 Yb9 3.104909 1_555
Al31 Yb1 3.382716 1_555
Al32 Ta4 2.769381 1_555
Al32 Al62 2.775095 1_555
Al32 Al64 2.867746 1_555
Al32 Al78 2.903030 1_555
Al32 Al46 3.076851 1_455
Al32 Al56 3.101546 1_556
Al32 Yb4 3.104900 1_555
Al32 Yb11 3.382726 1_555
Al33 Ta5 2.769381 1_555
Al33 Al67 2.775095 1_555
Al33 Al71 2.867746 1_555
Al33 Al77 2.903030 1_565
Al33 Al42 3.076851 1_565
Al33 Al40 3.094837 1_555
Al33 Al57 3.101546 1_555
Al33 Yb3 3.104900 1_565
Al33 Yb10 3.382726 1_555
Al34 Ta2 2.769372 1_555
Al34 Al68 2.775105 1_555
Al34 Al62 2.867748 1_555
Al34 Al74 2.903027 1_565
Al34 Al41 3.076851 1_565
Al34 Al44 3.094837 1_555
Al34 Al58 3.101548 1_555
Al34 Yb0 3.104908 1_565
Al34 Yb2 3.382723 1_555
Al35 Ta1 2.769373 1_555
Al35 Al66 2.775100 1_555
Al35 Al6 2.787518 1_555
Al35 Al70 2.867739 1_555
Al35 Al5 2.874332 1_555
Al35 Al84 2.903033 1_555
Al35 Al39 3.076871 1_555
Al35 Al54 3.101545 1_555
Al35 Yb10 3.104909 1_555
Al35 Yb3 3.382716 1_555
Al36 Ta2 2.769373 1_655
Al36 Al69 2.775100 1_555
Al36 Al72 2.867739 1_555
Al36 Al4 2.874332 1_555
Al36 Al85 2.903033 1_555
Al36 Al38 3.076871 1_555
Al36 Al45 3.094837 1_555
Al36 Al53 3.101545 1_556
Al36 Yb11 3.104909 1_555
Al36 Yb4 3.382716 1_655
Al37 Ta3 2.769372 1_655
Al37 Al70 2.775105 1_555
Al37 Al63 2.867748 1_555
Al37 Al75 2.903027 1_555
Al37 Al40 3.076851 1_545
Al37 Al42 3.094837 1_555
Al37 Al59 3.101548 1_555
Al37 Yb1 3.104908 1_555
Al37 Yb5 3.382723 1_655
Al38 Ta0 2.769373 1_565
Al38 Al64 2.775100 1_555
Al38 Al7 2.787518 1_565
Al38 Al68 2.867739 1_555
Al38 Al4 2.874332 1_555
Al38 Al85 2.903033 1_555
Al38 Al57 3.101545 1_556
Al38 Yb11 3.104909 1_555
Al38 Yb6 3.382716 1_565
Al39 Ta3 2.769373 1_555
Al39 Al71 2.775100 1_555
Al39 Al8 2.787518 1_555
Al39 Al73 2.867739 1_555
Al39 Al5 2.874332 1_555
Al39 Al84 2.903033 1_555
Al39 Al43 3.094837 1_555
Al39 Al56 3.101545 1_555
Al39 Yb10 3.104909 1_555
Al39 Yb7 3.382716 1_555
Al40 Ta5 2.769381 1_555
Al40 Al67 2.775095 1_555
Al40 Al71 2.867746 1_555
Al40 Al75 2.903030 1_565
Al40 Al52 3.101546 1_555
Al40 Yb1 3.104900 1_565
Al40 Yb9 3.382726 1_555
Al41 Ta4 2.769381 1_555
Al41 Al65 2.775095 1_555
Al41 Al69 2.867746 1_555
Al41 Al74 2.903030 1_555
Al41 Al55 3.101546 1_555
Al41 Yb0 3.104900 1_555
Al41 Yb8 3.382726 1_555
Al42 Ta3 2.769372 1_655
Al42 Al70 2.775105 1_555
Al42 Al8 2.787513 1_655
Al42 Al63 2.867748 1_555
Al42 Al77 2.903027 1_555
Al42 Al60 3.101548 1_555
Al42 Yb3 3.104908 1_555
Al42 Yb7 3.382723 1_655
Al43 Ta3 2.769373 1_555
Al43 Al71 2.775100 1_555
Al43 Al73 2.867739 1_555
Al43 Al5 2.874332 1_555
Al43 Al83 2.903033 1_555
Al43 Al50 3.101545 1_555
Al43 Yb9 3.104909 1_555
Al43 Yb5 3.382716 1_555
Al44 Ta2 2.769372 1_555
Al44 Al68 2.775105 1_555
Al44 Al62 2.867748 1_555
Al44 Al80 2.903027 1_565
Al44 Al61 3.101548 1_556
Al44 Yb6 3.104908 1_565
Al44 Yb4 3.382723 1_555
Al45 Ta2 2.769373 1_655
Al45 Al69 2.775100 1_555
Al45 Al72 2.867739 1_555
Al45 Al82 2.903033 1_555
Al45 Al51 3.101545 1_555
Al45 Yb8 3.104909 1_555
Al45 Yb2 3.382716 1_655
Al46 Ta0 2.769372 1_555
Al46 Al72 2.775105 1_555
Al46 Al7 2.787513 1_555
Al46 Al65 2.867748 1_555
Al46 Al78 2.903027 1_655
Al46 Al49 3.094837 1_555
Al46 Al60 3.101548 1_556
Al46 Yb4 3.104908 1_655
Al46 Yb6 3.382723 1_555
Al47 Ta1 2.769372 1_565
Al47 Al73 2.775105 1_555
Al47 Al6 2.787513 1_565
Al47 Al67 2.867748 1_555
Al47 Al81 2.903027 1_555
Al47 Al48 3.094837 1_555
Al47 Al61 3.101548 1_555
Al47 Yb7 3.104908 1_555
Al47 Yb3 3.382723 1_565
Al48 Ta1 2.769372 1_565
Al48 Al73 2.775105 1_555
Al48 Al67 2.867748 1_555
Al48 Al79 2.903027 1_555
Al48 Al58 3.101548 1_555
Al48 Yb5 3.104908 1_555
Al48 Yb1 3.382723 1_565
Al49 Ta0 2.769372 1_555
Al49 Al72 2.775105 1_555
Al49 Al9 2.787513 1_555
Al49 Al65 2.867748 1_555
Al49 Al76 2.903027 1_655
Al49 Al59 3.101548 1_555
Al49 Yb2 3.104908 1_655
Al49 Yb0 3.382723 1_555
Al50 Al76 2.780594 1_555
Al50 Al83 2.780594 1_555
Al50 Al52 2.901690 1_555
Al50 Al58 2.901690 1_555
Al50 Yb5 3.137000 1_555
Al50 Yb8 3.137000 1_555
Al50 Yb9 3.436700 1_555
Al50 Yb2 3.436700 1_555
Al51 Al79 2.780594 1_655
Al51 Al82 2.780594 1_555
Al51 Al55 2.901690 1_555
Al51 Al59 2.901690 1_555
Al51 Yb2 3.137000 1_655
Al51 Yb9 3.137000 1_555
Al51 Yb8 3.436700 1_555
Al51 Yb5 3.436700 1_655
Al52 Al75 2.780594 1_565
Al52 Al82 2.780594 1_555
Al52 Al58 2.901690 1_555
Al52 Yb0 3.137000 1_565
Al52 Yb9 3.137000 1_555
Al52 Yb8 3.436700 1_555
Al52 Yb1 3.436700 1_565
Al53 Al81 2.780594 1_655
Al53 Al85 2.780594 1_554
Al53 Al54 2.901690 1_555
Al53 Al60 2.901690 1_555
Al53 Yb4 3.137000 1_654
Al53 Yb10 3.137000 1_555
Al53 Yb11 3.436700 1_554
Al53 Yb7 3.436700 1_655
Al54 Al80 2.780594 1_554
Al54 Al84 2.780594 1_555
Al54 Al60 2.901690 1_555
Al54 Yb3 3.137000 1_555
Al54 Yb11 3.137000 1_554
Al54 Yb10 3.436700 1_555
Al54 Yb6 3.436700 1_554
Al55 Al74 2.780594 1_555
Al55 Al83 2.780594 1_555
Al55 Al59 2.901690 1_555
Al55 Yb1 3.137000 1_555
Al55 Yb8 3.137000 1_555
Al55 Yb9 3.436700 1_555
Al55 Yb0 3.436700 1_555
Al56 Al78 2.780594 1_554
Al56 Al84 2.780594 1_555
Al56 Al57 2.901690 1_555
Al56 Al61 2.901690 1_555
Al56 Yb7 3.137000 1_555
Al56 Yb11 3.137000 1_554
Al56 Yb10 3.436700 1_555
Al56 Yb4 3.436700 1_554
Al57 Al77 2.780594 1_565
Al57 Al85 2.780594 1_554
Al57 Al61 2.901690 1_555
Al57 Yb6 3.137000 1_564
Al57 Yb10 3.137000 1_555
Al57 Yb11 3.436700 1_554
Al57 Yb3 3.436700 1_565
Al58 Al74 2.780594 1_565
Al58 Al79 2.780594 1_555
Al58 Yb1 3.136999 1_565
Al58 Yb2 3.136999 1_555
Al58 Yb5 3.436699 1_555
Al58 Yb0 3.436699 1_565
Al59 Al75 2.780594 1_555
Al59 Al76 2.780594 1_655
Al59 Yb5 3.136999 1_655
Al59 Yb0 3.136999 1_555
Al59 Yb1 3.436699 1_555
Al59 Yb2 3.436699 1_655
Al60 Al78 2.780594 1_654
Al60 Al77 2.780594 1_555
Al60 Yb7 3.136999 1_655
Al60 Yb6 3.136999 1_554
Al60 Yb4 3.436699 1_654
Al60 Yb3 3.436699 1_555
Al61 Al81 2.780594 1_555
Al61 Al80 2.780594 1_564
Al61 Yb3 3.136999 1_565
Al61 Yb4 3.136999 1_554
Al61 Yb7 3.436699 1_555
Al61 Yb6 3.436699 1_564
Al62 Ta2 2.735488 1_555
Al62 Al72 2.900207 1_455
Al62 Yb4 3.130821 1_555
Al62 Yb2 3.130821 1_555
Al63 Ta3 2.735488 1_655
Al63 Al73 2.900207 1_655
Al63 Yb7 3.130821 1_655
Al63 Yb5 3.130821 1_655
Al64 Ta4 2.735488 1_555
Al64 Al69 2.900207 1_555
Al64 Yb8 3.130821 1_555
Al64 Yb11 3.130821 1_555
Al65 Ta0 2.735488 1_555
Al65 Al68 2.900207 1_545
Al65 Yb6 3.130821 1_555
Al65 Yb0 3.130821 1_555
Al66 Ta5 2.735488 1_555
Al66 Al71 2.900207 1_555
Al66 Yb10 3.130821 1_555
Al66 Yb9 3.130821 1_555
Al67 Ta1 2.735488 1_565
Al67 Al70 2.900207 1_565
Al67 Yb3 3.130821 1_565
Al67 Yb1 3.130821 1_565
Al68 Ta0 2.735488 1_565
Al68 Yb0 3.130821 1_565
Al68 Yb6 3.130821 1_565
Al69 Ta4 2.735488 1_555
Al69 Yb8 3.130821 1_555
Al69 Yb11 3.130821 1_555
Al70 Ta1 2.735488 1_555
Al70 Yb1 3.130821 1_555
Al70 Yb3 3.130821 1_555
Al71 Ta5 2.735488 1_555
Al71 Yb10 3.130821 1_555
Al71 Yb9 3.130821 1_555
Al72 Ta2 2.735488 1_655
Al72 Yb4 3.130821 1_655
Al72 Yb2 3.130821 1_655
Al73 Ta3 2.735488 1_555
Al73 Yb7 3.130821 1_555
Al73 Yb5 3.130821 1_555
Al74 Ta6 2.907563 1_555
Al74 Al79 3.060781 1_545
Al74 Al83 3.060781 1_555
Al74 Yb0 3.290675 1_555
Al74 Yb1 3.291279 1_555
Al75 Al9 2.813762 1_555
Al75 Ta6 2.907563 1_655
Al75 Al76 3.060781 1_655
Al75 Al82 3.060781 1_545
Al75 Yb1 3.290675 1_555
Al75 Yb0 3.291279 1_555
Al76 Ta6 2.907563 1_555
Al76 Al9 2.911505 1_455
Al76 Al83 3.060781 1_555
Al76 Yb2 3.290675 1_555
Al76 Yb5 3.291279 1_555
Al77 Ta7 2.907563 1_655
Al77 Al8 2.911505 1_655
Al77 Al78 3.060781 1_654
Al77 Al85 3.060781 1_544
Al77 Yb3 3.290675 1_555
Al77 Yb6 3.291279 1_554
Al78 Al8 2.813762 1_556
Al78 Ta7 2.907563 1_556
Al78 Al84 3.060781 1_556
Al78 Yb4 3.290675 1_555
Al78 Yb7 3.291279 1_556
Al79 Ta6 2.907563 1_565
Al79 Al82 3.060781 1_455
Al79 Yb5 3.290675 1_555
Al79 Yb2 3.291279 1_555
Al80 Ta7 2.907563 1_556
Al80 Al81 3.060781 1_546
Al80 Al84 3.060781 1_556
Al80 Yb6 3.290675 1_555
Al80 Yb3 3.291279 1_556
Al81 Ta7 2.907563 1_565
Al81 Al85 3.060781 1_454
Al81 Yb7 3.290675 1_555
Al81 Yb4 3.291279 1_554
Al82 Ta6 2.907563 1_665
Al82 Al9 2.911505 1_565
Al82 Yb8 3.290675 1_555
Al82 Yb9 3.291279 1_555
Al83 Ta6 2.907563 1_555
Al83 Yb9 3.290675 1_555
Al83 Yb8 3.291279 1_555
Al84 Ta7 2.907563 1_555
Al84 Yb10 3.290675 1_555
Al84 Yb11 3.291279 1_554
Al85 Ta7 2.907563 1_666
Al85 Yb11 3.290675 1_555
Al85 Yb10 3.291279 1_556
