# generated using pymatgen
data_LaTiCrO6
_symmetry_space_group_name_H-M   'P 1'
_cell_length_a   5.41205600
_cell_length_b   5.38739300
_cell_length_c   9.37688255
_cell_angle_alpha   54.86928175
_cell_angle_beta   90.00000000
_cell_angle_gamma   90.00000000
_symmetry_Int_Tables_number   1
_chemical_formula_structural   LaTiCrO6
_chemical_formula_sum   'La2 Ti2 Cr2 O12'
_cell_volume   223.59828299
_cell_formula_units_Z   2
loop_
 _symmetry_equiv_pos_site_id
 _symmetry_equiv_pos_as_xyz
  1  'x, y, z'
loop_
 _atom_site_type_symbol
 _atom_site_label
 _atom_site_symmetry_multiplicity
 _atom_site_fract_x
 _atom_site_fract_y
 _atom_site_fract_z
 _atom_site_occupancy
  La  La0  1  0.22850100  0.74576400  0.25033200  1
  La  La1  1  0.77149900  0.74576400  0.75033200  1
  Ti  Ti0  1  0.25313800  0.48758600  0.00339900  1
  Ti  Ti1  1  0.74686200  0.48758600  0.50339900  1
  Cr  Cr0  1  0.25891800  0.98909900  0.50473600  1
  Cr  Cr1  1  0.74108200  0.98909900  0.00473600  1
  O  O0  1  0.74363800  0.20303100  0.74952700  1
  O  O1  1  0.47898300  0.75132400  0.02271900  1
  O  O2  1  0.46623300  0.28338600  0.47659200  1
  O  O3  1  0.97459700  0.73138000  0.01742400  1
  O  O4  1  0.98330000  0.25811000  0.47863700  1
  O  O5  1  0.24918800  0.79049700  0.74642700  1
  O  O6  1  0.25636200  0.20303100  0.24952700  1
  O  O7  1  0.52101700  0.75132400  0.52271900  1
  O  O8  1  0.53376700  0.28338600  0.97659200  1
  O  O9  1  0.02540300  0.73138000  0.51742400  1
  O  O10  1  0.01670000  0.25811000  0.97863700  1
  O  O11  1  0.75081200  0.79049700  0.24642700  1
loop_
_geom_bond_atom_site_label_1
_geom_bond_atom_site_label_2
_geom_bond_distance
_geom_bond_site_symmetry_2
La0 O6 2.463760 1_565
La0 O2 2.505868 1_555
La0 O1 2.514015 1_555
La0 O11 2.594790 1_455
La0 O4 2.602544 1_455
La0 O3 2.618910 1_455
La0 O9 2.695052 1_555
La0 O10 2.707423 1_564
La0 O11 2.835477 1_555
La0 O6 2.932146 1_555
La0 O7 3.019740 1_555
La0 O8 3.025034 1_564
La1 O0 2.463760 1_565
La1 O8 2.505868 1_555
La1 O7 2.514015 1_555
La1 O5 2.594790 1_655
La1 O10 2.602544 1_655
La1 O9 2.618910 1_655
La1 O3 2.695052 1_556
La1 O4 2.707423 1_565
La1 O5 2.835477 1_555
La1 O0 2.932146 1_555
La1 O1 3.019740 1_556
La1 O2 3.025034 1_565
Cr0 O9 1.830020 1_555
Cr0 O2 1.833198 1_565
Cr0 O7 1.852806 1_555
Cr0 O5 1.868958 1_555
Cr0 O6 1.970034 1_565
Cr0 O4 1.994274 1_465
Cr1 O3 1.830020 1_555
Cr1 O8 1.833198 1_564
Cr1 O1 1.852806 1_555
Cr1 O11 1.868958 1_555
Cr1 O0 1.970034 1_564
Cr1 O10 1.994274 1_664
O0 Ti1 1.898680 1_555
O1 Ti0 1.960074 1_555
O2 Ti1 1.974427 1_555
O3 Ti0 2.052714 1_655
O4 Ti1 1.884164 1_555
O5 Ti0 1.985992 1_556
O6 Ti0 1.898680 1_555
O7 Ti1 1.960074 1_555
O8 Ti0 1.974427 1_556
O9 Ti1 2.052714 1_455
O10 Ti0 1.884164 1_556
O11 Ti1 1.985992 1_555
