# generated using pymatgen
data_EuZn(BO2)5
_symmetry_space_group_name_H-M   'P 1'
_cell_length_a   7.67388600
_cell_length_b   8.78295500
_cell_length_c   12.65449834
_cell_angle_alpha   48.66108562
_cell_angle_beta   90.00000000
_cell_angle_gamma   90.00000000
_symmetry_Int_Tables_number   1
_chemical_formula_structural   EuZn(BO2)5
_chemical_formula_sum   'Eu4 Zn4 B20 O40'
_cell_volume   640.37486610
_cell_formula_units_Z   4
loop_
 _symmetry_equiv_pos_site_id
 _symmetry_equiv_pos_as_xyz
  1  'x, y, z'
loop_
 _atom_site_type_symbol
 _atom_site_label
 _atom_site_symmetry_multiplicity
 _atom_site_fract_x
 _atom_site_fract_y
 _atom_site_fract_z
 _atom_site_occupancy
  Eu  Eu0  1  0.68350700  0.04952000  0.26116000  1
  Eu  Eu1  1  0.81649300  0.04952000  0.76116000  1
  Eu  Eu2  1  0.31649300  0.95048000  0.73884000  1
  Eu  Eu3  1  0.18350700  0.95048000  0.23884000  1
  Zn  Zn0  1  0.58899500  0.51740700  0.87512700  1
  Zn  Zn1  1  0.91100500  0.51740700  0.37512700  1
  Zn  Zn2  1  0.41100500  0.48259300  0.12487300  1
  Zn  Zn3  1  0.08899500  0.48259300  0.62487300  1
  B  B0  1  0.82517400  0.90994500  0.10506500  1
  B  B1  1  0.67482600  0.90994500  0.60506500  1
  B  B2  1  0.17482600  0.09005500  0.89493500  1
  B  B3  1  0.32517400  0.09005500  0.39493500  1
  B  B4  1  0.60012500  0.84708400  0.99816500  1
  B  B5  1  0.89987500  0.84708400  0.49816500  1
  B  B6  1  0.39987500  0.15291600  0.00183500  1
  B  B7  1  0.10012500  0.15291600  0.50183500  1
  B  B8  1  0.57660700  0.65390400  0.25943400  1
  B  B9  1  0.92339300  0.65390400  0.75943400  1
  B  B10  1  0.42339300  0.34609600  0.74056600  1
  B  B11  1  0.07660700  0.34609600  0.24056600  1
  B  B12  1  0.31431100  0.51812900  0.41328700  1
  B  B13  1  0.18568900  0.51812900  0.91328700  1
  B  B14  1  0.68568900  0.48187100  0.58671300  1
  B  B15  1  0.81431100  0.48187100  0.08671300  1
  B  B16  1  0.53121600  0.27458300  0.44523300  1
  B  B17  1  0.96878400  0.27458300  0.94523300  1
  B  B18  1  0.46878400  0.72541700  0.55476700  1
  B  B19  1  0.03121600  0.72541700  0.05476700  1
  O  O0  1  0.89351600  0.08914900  0.08023900  1
  O  O1  1  0.60648400  0.08914900  0.58023900  1
  O  O2  1  0.10648400  0.91085100  0.91976100  1
  O  O3  1  0.39351600  0.91085100  0.41976100  1
  O  O4  1  0.97006100  0.76550100  0.14706700  1
  O  O5  1  0.52993900  0.76550100  0.64706700  1
  O  O6  1  0.02993900  0.23449900  0.85293300  1
  O  O7  1  0.47006100  0.23449900  0.35293300  1
  O  O8  1  0.72623000  0.97399300  0.98263500  1
  O  O9  1  0.77377000  0.97399300  0.48263500  1
  O  O10  1  0.27377000  0.02600700  0.01736500  1
  O  O11  1  0.22623000  0.02600700  0.51736500  1
  O  O12  1  0.54956000  0.88373600  0.88063100  1
  O  O13  1  0.95044000  0.88373600  0.38063100  1
  O  O14  1  0.45044000  0.11626400  0.11936900  1
  O  O15  1  0.04956000  0.11626400  0.61936900  1
  O  O16  1  0.53413500  0.68750300  0.12904600  1
  O  O17  1  0.96586500  0.68750300  0.62904600  1
  O  O18  1  0.46586500  0.31249700  0.87095400  1
  O  O19  1  0.03413500  0.31249700  0.37095400  1
  O  O20  1  0.71024100  0.79880600  0.23072100  1
  O  O21  1  0.78975900  0.79880600  0.73072100  1
  O  O22  1  0.28975900  0.20119400  0.76927900  1
  O  O23  1  0.21024100  0.20119400  0.26927900  1
  O  O24  1  0.41301800  0.68079800  0.30587900  1
  O  O25  1  0.08698200  0.68079800  0.80587900  1
  O  O26  1  0.58698200  0.31920200  0.69412100  1
  O  O27  1  0.91301800  0.31920200  0.19412100  1
  O  O28  1  0.15366100  0.56923500  0.43247800  1
  O  O29  1  0.34633900  0.56923500  0.93247800  1
  O  O30  1  0.84633900  0.43076500  0.56752200  1
  O  O31  1  0.65366100  0.43076500  0.06752200  1
  O  O32  1  0.37462500  0.32348700  0.49058500  1
  O  O33  1  0.12537500  0.32348700  0.99058500  1
  O  O34  1  0.62537500  0.67651300  0.50941500  1
  O  O35  1  0.87462500  0.67651300  0.00941500  1
  O  O36  1  0.64972600  0.44903300  0.36548100  1
  O  O37  1  0.85027400  0.44903300  0.86548100  1
  O  O38  1  0.35027400  0.55096700  0.63451900  1
  O  O39  1  0.14972600  0.55096700  0.13451900  1
loop_
_geom_bond_atom_site_label_1
_geom_bond_atom_site_label_2
_geom_bond_distance
_geom_bond_site_symmetry_2
Eu0 O14 2.317860 1_555
Eu0 O13 2.386164 1_545
Eu0 O20 2.481892 1_545
Eu0 O9 2.513708 1_545
Eu0 O31 2.535745 1_555
Eu0 O27 2.603362 1_555
Eu0 O0 2.628177 1_555
Eu0 O34 2.684241 1_545
Eu0 O3 2.689716 1_545
Eu0 O7 3.027151 1_555
Eu1 O15 2.317860 1_655
Eu1 O12 2.386164 1_545
Eu1 O21 2.481892 1_545
Eu1 O8 2.513708 1_545
Eu1 O30 2.535745 1_555
Eu1 O26 2.603362 1_555
Eu1 O1 2.628177 1_555
Eu1 O35 2.684241 1_546
Eu1 O2 2.689716 1_645
Eu1 O6 3.027151 1_655
Eu2 O12 2.317860 1_555
Eu2 O15 2.386164 1_565
Eu2 O22 2.481892 1_565
Eu2 O11 2.513708 1_565
Eu2 O29 2.535745 1_555
Eu2 O25 2.603362 1_555
Eu2 O2 2.628177 1_555
Eu2 O32 2.684241 1_565
Eu2 O1 2.689716 1_565
Eu2 O5 3.027151 1_555
Eu3 O13 2.317860 1_455
Eu3 O14 2.386164 1_565
Eu3 O23 2.481892 1_565
Eu3 O10 2.513708 1_565
Eu3 O28 2.535745 1_555
Eu3 O24 2.603362 1_555
Eu3 O3 2.628177 1_555
Eu3 O33 2.684241 1_564
Eu3 O0 2.689716 1_465
Eu3 O4 3.027151 1_455
B0 O8 1.463541 1_554
B0 O0 1.482507 1_565
B0 O20 1.486186 1_555
B0 O4 1.495794 1_555
B1 O9 1.463541 1_555
B1 O1 1.482507 1_565
B1 O21 1.486186 1_555
B1 O5 1.495794 1_555
B2 O10 1.463541 1_556
B2 O2 1.482507 1_545
B2 O22 1.486186 1_555
B2 O6 1.495794 1_555
B3 O11 1.463541 1_555
B3 O3 1.482507 1_545
B3 O23 1.486186 1_555
B3 O7 1.495794 1_555
B4 O12 1.354202 1_555
B4 O16 1.377474 1_556
B4 O8 1.388573 1_555
B5 O13 1.354202 1_555
B5 O17 1.377474 1_555
B5 O9 1.388573 1_555
B6 O14 1.354202 1_555
B6 O18 1.377474 1_554
B6 O10 1.388573 1_555
B7 O15 1.354202 1_555
B7 O19 1.377474 1_555
B7 O11 1.388573 1_555
B8 O24 1.469886 1_555
B8 O36 1.470913 1_555
B8 O20 1.480699 1_555
B8 O16 1.507505 1_555
B9 O25 1.469886 1_655
B9 O37 1.470913 1_555
B9 O21 1.480699 1_555
B9 O17 1.507505 1_555
B10 O26 1.469886 1_555
B10 O38 1.470913 1_555
B10 O22 1.480699 1_555
B10 O18 1.507505 1_555
B11 O27 1.469886 1_455
B11 O39 1.470913 1_555
B11 O23 1.480699 1_555
B11 O19 1.507505 1_555
B12 O32 1.372774 1_555
B12 O24 1.377350 1_555
B12 O28 1.387182 1_555
B13 O33 1.372774 1_555
B13 O25 1.377350 1_555
B13 O29 1.387182 1_555
B14 O34 1.372774 1_555
B14 O26 1.377350 1_555
B14 O30 1.387182 1_555
B15 O35 1.372774 1_555
B15 O27 1.377350 1_555
B15 O31 1.387182 1_555
B16 O36 1.466449 1_555
B16 O1 1.493052 1_555
B16 O7 1.500547 1_555
B16 O32 1.511121 1_555
B17 O37 1.466449 1_555
B17 O0 1.493052 1_556
B17 O6 1.500547 1_655
B17 O33 1.511121 1_655
B18 O38 1.466449 1_555
B18 O3 1.493052 1_555
B18 O5 1.500547 1_555
B18 O34 1.511121 1_555
B19 O39 1.466449 1_555
B19 O2 1.493052 1_554
B19 O4 1.500547 1_455
B19 O35 1.511121 1_455
O4 Zn1 2.230469 1_555
O5 Zn0 2.230469 1_555
O6 Zn3 2.230469 1_555
O7 Zn2 2.230469 1_555
O16 Zn2 2.064006 1_555
O17 Zn3 2.064006 1_655
O18 Zn0 2.064006 1_555
O19 Zn1 2.064006 1_455
O20 Zn1 2.419713 1_555
O21 Zn0 2.419713 1_555
O22 Zn3 2.419713 1_555
O23 Zn2 2.419713 1_555
O28 Zn3 2.074955 1_555
O28 Zn1 2.153557 1_455
O29 Zn2 2.074955 1_556
O29 Zn0 2.153557 1_555
O30 Zn1 2.074955 1_555
O30 Zn3 2.153557 1_655
O31 Zn0 2.074955 1_554
O31 Zn2 2.153557 1_555
O36 Zn1 2.119550 1_555
O37 Zn0 2.119550 1_555
O38 Zn3 2.119550 1_555
O39 Zn2 2.119550 1_555
