# generated using pymatgen
data_Li17(CoO4)3
_symmetry_space_group_name_H-M   'P 1'
_cell_length_a   6.58970800
_cell_length_b   8.08293693
_cell_length_c   11.46712178
_cell_angle_alpha   89.73630675
_cell_angle_beta   89.92285361
_cell_angle_gamma   89.95122413
_symmetry_Int_Tables_number   1
_chemical_formula_structural   Li17(CoO4)3
_chemical_formula_sum   'Li34 Co6 O24'
_cell_volume   610.77976029
_cell_formula_units_Z   2
loop_
 _symmetry_equiv_pos_site_id
 _symmetry_equiv_pos_as_xyz
  1  'x, y, z'
loop_
 _atom_site_type_symbol
 _atom_site_label
 _atom_site_symmetry_multiplicity
 _atom_site_fract_x
 _atom_site_fract_y
 _atom_site_fract_z
 _atom_site_occupancy
  Li  Li0  1  0.03263400  0.28167100  0.74013100  1
  Li  Li1  1  0.03099800  0.93945200  0.40769700  1
  Li  Li2  1  0.03574100  0.60265900  0.07168600  1
  Li  Li3  1  0.02973200  0.89545300  0.92056300  1
  Li  Li4  1  0.02582400  0.23662900  0.26784100  1
  Li  Li5  1  0.25036700  0.06901000  0.81214700  1
  Li  Li6  1  0.26942100  0.21691300  0.98751800  1
  Li  Li7  1  0.22612700  0.71880300  0.49282500  1
  Li  Li8  1  0.24486500  0.39445000  0.15067800  1
  Li  Li9  1  0.24662900  0.90023200  0.64842100  1
  Li  Li10  1  0.25061800  0.56649000  0.31077800  1
  Li  Li11  1  0.48167600  0.27962400  0.73671600  1
  Li  Li12  1  0.46570900  0.92753400  0.40956500  1
  Li  Li13  1  0.46793000  0.59228300  0.07268100  1
  Li  Li14  1  0.47232100  0.91506900  0.93194700  1
  Li  Li15  1  0.46747000  0.56096300  0.59274300  1
  Li  Li16  1  0.47934400  0.21714200  0.24474600  1
  Li  Li17  1  0.53695300  0.38815400  0.92713200  1
  Li  Li18  1  0.52870600  0.77108600  0.74287600  1
  Li  Li19  1  0.53952200  0.05634500  0.59679600  1
  Li  Li20  1  0.53292900  0.43361800  0.39683100  1
  Li  Li21  1  0.53880700  0.71983500  0.26208700  1
  Li  Li22  1  0.75075600  0.59950100  0.85318200  1
  Li  Li23  1  0.72612800  0.94815400  0.18140200  1
  Li  Li24  1  0.74439100  0.27323600  0.51836900  1
  Li  Li25  1  0.77136400  0.45266000  0.67559100  1
  Li  Li26  1  0.75044900  0.09853900  0.35534100  1
  Li  Li27  1  0.74759700  0.76569100  0.01808000  1
  Li  Li28  1  0.97351400  0.75064600  0.72916400  1
  Li  Li29  1  0.97618300  0.39195500  0.92963300  1
  Li  Li30  1  0.96460700  0.06830700  0.59590200  1
  Li  Li31  1  0.96928500  0.45502000  0.41931100  1
  Li  Li32  1  0.95996600  0.73226900  0.25968800  1
  Li  Li33  1  0.95386200  0.11056300  0.07261900  1
  Co  Co0  1  0.25345200  0.58181200  0.83508400  1
  Co  Co1  1  0.25335300  0.25346400  0.49954100  1
  Co  Co2  1  0.25277000  0.91884300  0.16429700  1
  Co  Co3  1  0.75296500  0.08517400  0.83118300  1
  Co  Co4  1  0.75297300  0.74613800  0.50313000  1
  Co  Co5  1  0.75396300  0.41556400  0.16761800  1
  O  O0  1  0.01794300  0.15098900  0.90477000  1
  O  O1  1  0.00701500  0.83891100  0.56618500  1
  O  O2  1  0.01282200  0.49208600  0.24024700  1
  O  O3  1  0.25383000  0.47095500  0.99496100  1
  O  O4  1  0.25239400  0.83148100  0.81470600  1
  O  O5  1  0.25208600  0.15356500  0.64888200  1
  O  O6  1  0.24606200  0.81450800  0.31887000  1
  O  O7  1  0.26211700  0.48046600  0.47230300  1
  O  O8  1  0.23130500  0.14937900  0.15746300  1
  O  O9  1  0.48531600  0.15722200  0.88740800  1
  O  O10  1  0.47997600  0.81855100  0.56942700  1
  O  O11  1  0.48329200  0.48173400  0.23385400  1
  O  O12  1  0.49444700  0.83284600  0.10322000  1
  O  O13  1  0.51814000  0.51706600  0.76039700  1
  O  O14  1  0.50256700  0.17556100  0.43098900  1
  O  O15  1  0.75047400  0.83819100  0.85369900  1
  O  O16  1  0.76385200  0.17581700  0.19772300  1
  O  O17  1  0.72874100  0.50414200  0.50863800  1
  O  O18  1  0.75429100  0.19278000  0.67170800  1
  O  O19  1  0.74521500  0.85683100  0.34109300  1
  O  O20  1  0.75178000  0.52258000  0.01168900  1
  O  O21  1  0.98739000  0.51067100  0.77644900  1
  O  O22  1  0.99350300  0.85019000  0.09864600  1
  O  O23  1  0.99569900  0.18622200  0.43628400  1
loop_
_geom_bond_atom_site_label_1
_geom_bond_atom_site_label_2
_geom_bond_distance
_geom_bond_site_symmetry_2
Li0 O21 1.922063 1_455
Li0 O5 2.064390 1_555
Li0 O18 2.123077 1_455
Li0 O0 2.161193 1_555
Li1 O1 1.993540 1_555
Li1 O6 2.017196 1_555
Li1 O23 2.035958 1_465
Li1 O19 2.141625 1_455
Li2 O3 1.993826 1_554
Li2 O22 2.044669 1_455
Li2 O20 2.098426 1_455
Li2 O2 2.131030 1_555
Li3 O4 1.973185 1_555
Li3 O15 2.048675 1_455
Li3 O0 2.073974 1_565
Li3 O22 2.086379 1_456
Li4 O16 1.969037 1_455
Li4 O23 1.981965 1_455
Li4 O8 1.983646 1_555
Li4 O2 2.089210 1_555
Li5 O9 1.913480 1_555
Li5 O4 1.920056 1_545
Li5 O0 1.978223 1_555
Li5 O5 1.990093 1_555
Li6 O9 1.890554 1_555
Li6 O0 1.985172 1_555
Li6 O8 2.036647 1_556
Li6 O3 2.058044 1_555
Li7 O1 1.933088 1_555
Li7 O7 1.956050 1_555
Li7 O10 2.057339 1_555
Li7 O6 2.140099 1_555
Li8 O3 1.887846 1_554
Li8 O11 1.971835 1_555
Li8 O8 1.984147 1_555
Li8 O2 2.004259 1_555
Li9 O10 1.902877 1_555
Li9 O1 1.907297 1_555
Li9 O4 1.984084 1_555
Li9 O5 2.048052 1_565
Li10 O2 1.865697 1_555
Li10 O11 1.896951 1_555
Li10 O7 1.976967 1_555
Li10 O6 2.007484 1_555
Li11 O13 1.954655 1_555
Li11 O9 1.987399 1_555
Li11 O18 2.067547 1_555
Li11 O5 2.087536 1_555
Li12 O6 2.006564 1_555
Li12 O10 2.032425 1_555
Li12 O14 2.035691 1_565
Li12 O19 2.081827 1_555
Li13 O3 1.939157 1_554
Li13 O12 1.985217 1_555
Li13 O11 2.051744 1_555
Li13 O20 2.074518 1_555
Li14 O9 2.022425 1_565
Li14 O12 2.075783 1_556
Li14 O4 2.092739 1_555
Li14 O15 2.133004 1_555
Li15 O13 1.982088 1_555
Li15 O17 2.025734 1_555
Li15 O7 2.043718 1_555
Li15 O10 2.099617 1_555
Li16 O16 1.978678 1_555
Li16 O8 1.996084 1_555
Li16 O11 2.141929 1_555
Li16 O14 2.166023 1_555
Li17 O9 1.953673 1_555
Li17 O20 2.034908 1_556
Li17 O3 2.128965 1_555
Li17 O13 2.176883 1_555
Li18 O15 2.014332 1_555
Li18 O10 2.049575 1_555
Li18 O4 2.056765 1_555
Li18 O13 2.063339 1_555
Li19 O10 1.988468 1_545
Li19 O18 1.992914 1_555
Li19 O5 2.135576 1_555
Li19 O14 2.141703 1_555
Li20 O17 1.909492 1_555
Li20 O11 1.935378 1_555
Li20 O7 2.018612 1_555
Li20 O14 2.130080 1_555
Li21 O19 1.977913 1_555
Li21 O11 1.987413 1_555
Li21 O12 2.055307 1_555
Li21 O6 2.174787 1_555
Li22 O20 1.918327 1_556
Li22 O21 1.929133 1_555
Li22 O15 1.929352 1_555
Li22 O13 1.984534 1_555
Li23 O16 1.867400 1_565
Li23 O19 1.975347 1_555
Li23 O12 2.004263 1_555
Li23 O22 2.152201 1_555
Li24 O17 1.871982 1_555
Li24 O18 1.873153 1_555
Li24 O23 2.030537 1_555
Li24 O14 2.044611 1_555
Li25 O21 1.895924 1_555
Li25 O17 1.977666 1_555
Li25 O13 2.000003 1_555
Li25 O18 2.104379 1_555
Li26 O16 1.911550 1_555
Li26 O14 1.951340 1_555
Li26 O19 1.961616 1_545
Li26 O23 1.996932 1_555
Li27 O20 1.966922 1_555
Li27 O15 1.971462 1_554
Li27 O22 1.989368 1_555
Li27 O12 2.007390 1_555
Li28 O1 2.009329 1_655
Li28 O21 2.013694 1_555
Li28 O15 2.168450 1_555
Li28 O4 2.186137 1_655
Li29 O0 1.988614 1_655
Li29 O21 1.999016 1_555
Li29 O20 2.046853 1_556
Li29 O3 2.080024 1_655
Li30 O1 1.907074 1_645
Li30 O18 1.921224 1_555
Li30 O23 2.069748 1_555
Li30 O5 2.107590 1_655
Li31 O17 1.928153 1_555
Li31 O7 2.034748 1_655
Li31 O2 2.093134 1_655
Li31 O23 2.187295 1_555
Li32 O19 1.972408 1_555
Li32 O2 1.985601 1_655
Li32 O22 2.085820 1_555
Li32 O6 2.113404 1_655
Li33 O16 1.976109 1_555
Li33 O0 1.995492 1_654
Li33 O8 2.096699 1_655
Li33 O22 2.140106 1_545
Co0 O21 1.965999 1_455
Co0 O13 2.012019 1_555
Co0 O4 2.030481 1_555
Co0 O3 2.036884 1_555
Co1 O7 1.860752 1_555
Co1 O5 1.889981 1_555
Co1 O14 1.926329 1_555
Co1 O23 1.926872 1_455
Co2 O8 1.869940 1_565
Co2 O12 1.873395 1_555
Co2 O22 1.950015 1_455
Co2 O6 1.959857 1_555
Co3 O9 1.965761 1_555
Co3 O15 2.011874 1_545
Co3 O0 2.013379 1_655
Co3 O18 2.021416 1_555
Co4 O17 1.963400 1_555
Co4 O1 1.974337 1_655
Co4 O10 2.038495 1_555
Co4 O19 2.059259 1_555
Co5 O16 1.967844 1_555
Co5 O20 1.982775 1_555
Co5 O2 1.999084 1_655
Co5 O11 2.010673 1_555
