# generated using pymatgen
data_Li9Mn7O16
_symmetry_space_group_name_H-M   'P 1'
_cell_length_a   5.09267200
_cell_length_b   5.10521497
_cell_length_c   12.06202784
_cell_angle_alpha   91.81898231
_cell_angle_beta   93.46371743
_cell_angle_gamma   107.33179163
_symmetry_Int_Tables_number   1
_chemical_formula_structural   Li9Mn7O16
_chemical_formula_sum   'Li9 Mn7 O16'
_cell_volume   298.40968602
_cell_formula_units_Z   1
loop_
 _symmetry_equiv_pos_site_id
 _symmetry_equiv_pos_as_xyz
  1  'x, y, z'
loop_
 _atom_site_type_symbol
 _atom_site_label
 _atom_site_symmetry_multiplicity
 _atom_site_fract_x
 _atom_site_fract_y
 _atom_site_fract_z
 _atom_site_occupancy
  Li  Li0  1  0.00000000  0.50000000  0.00000000  1
  Li  Li1  1  0.50151200  0.49477100  0.12087200  1
  Li  Li2  1  0.00661100  0.50430300  0.24236700  1
  Li  Li3  1  0.49437800  0.49516700  0.37733200  1
  Li  Li4  1  0.00000000  0.50000000  0.50000000  1
  Li  Li5  1  0.50562200  0.50483300  0.62266800  1
  Li  Li6  1  0.99338900  0.49569700  0.75763300  1
  Li  Li7  1  0.49848800  0.50522900  0.87912800  1
  Li  Li8  1  0.50000000  0.00000000  0.00000000  1
  Mn  Mn0  1  0.99369700  0.98745400  0.88119000  1
  Mn  Mn1  1  0.00630300  0.01254600  0.11881000  1
  Mn  Mn2  1  0.50993800  0.01169100  0.24090200  1
  Mn  Mn3  1  0.00621100  0.00471200  0.37181000  1
  Mn  Mn4  1  0.50000000  0.00000000  0.50000000  1
  Mn  Mn5  1  0.99378900  0.99528800  0.62819000  1
  Mn  Mn6  1  0.49006200  0.98830900  0.75909800  1
  O  O0  1  0.22727600  0.76084600  0.87839200  1
  O  O1  1  0.78552000  0.78068300  0.99670600  1
  O  O2  1  0.25165400  0.77799000  0.13202100  1
  O  O3  1  0.78009900  0.79184400  0.23860600  1
  O  O4  1  0.24878100  0.77056000  0.38171900  1
  O  O5  1  0.74625600  0.76499000  0.50565000  1
  O  O6  1  0.24380600  0.76900600  0.63397100  1
  O  O7  1  0.74069700  0.75891100  0.76092800  1
  O  O8  1  0.77272400  0.23915400  0.12160800  1
  O  O9  1  0.25930300  0.24108900  0.23907200  1
  O  O10  1  0.75619400  0.23099400  0.36602900  1
  O  O11  1  0.25374400  0.23501000  0.49435000  1
  O  O12  1  0.75121900  0.22944000  0.61828100  1
  O  O13  1  0.21990100  0.20815600  0.76139400  1
  O  O14  1  0.74834600  0.22201000  0.86797900  1
  O  O15  1  0.21448000  0.21931700  0.00329400  1
loop_
_geom_bond_atom_site_label_1
_geom_bond_atom_site_label_2
_geom_bond_distance
_geom_bond_site_symmetry_2
Li0 O1 2.044236 1_454
Li0 O15 2.044236 1_555
Li0 O8 2.162281 1_455
Li0 O0 2.162281 1_554
Li0 O2 2.172261 1_555
Li0 O14 2.172261 1_454
Li1 O15 2.126923 1_555
Li1 O9 2.146955 1_555
Li1 O3 2.160445 1_555
Li1 O8 2.164233 1_555
Li1 O2 2.198255 1_555
Li1 O1 2.368180 1_554
Li2 O8 2.019235 1_455
Li2 O3 2.120016 1_455
Li2 O9 2.120480 1_555
Li2 O2 2.135651 1_555
Li2 O4 2.190813 1_555
Li2 O10 2.258304 1_455
Li3 O5 2.123794 1_555
Li3 O9 2.143163 1_555
Li3 O4 2.143553 1_555
Li3 O11 2.148559 1_555
Li3 O10 2.167249 1_555
Li3 O3 2.520572 1_555
Li4 O11 2.133315 1_555
Li4 O5 2.133315 1_455
Li4 O6 2.154003 1_555
Li4 O10 2.154003 1_455
Li4 O12 2.202143 1_455
Li4 O4 2.202143 1_555
Li5 O11 2.123794 1_555
Li5 O7 2.143163 1_555
Li5 O12 2.143553 1_555
Li5 O5 2.148559 1_555
Li5 O6 2.167249 1_555
Li5 O13 2.520572 1_555
Li6 O0 2.019235 1_655
Li6 O13 2.120016 1_655
Li6 O7 2.120480 1_555
Li6 O14 2.135651 1_555
Li6 O12 2.190813 1_555
Li6 O6 2.258304 1_655
Li7 O1 2.126923 1_555
Li7 O7 2.146955 1_555
Li7 O13 2.160445 1_555
Li7 O0 2.164233 1_555
Li7 O14 2.198255 1_555
Li7 O15 2.368180 1_556
Li8 O8 2.049662 1_555
Li8 O0 2.049662 1_544
Li8 O15 2.084148 1_555
Li8 O1 2.084148 1_544
Li8 O14 2.218993 1_554
Li8 O2 2.218993 1_545
Mn0 O0 1.891250 1_655
Mn0 O15 1.931537 1_666
Mn0 O1 1.945459 1_555
Mn0 O7 1.974007 1_555
Mn0 O14 1.974853 1_565
Mn0 O13 2.053220 1_665
Mn1 O8 1.891250 1_455
Mn1 O1 1.931537 1_444
Mn1 O15 1.945459 1_555
Mn1 O9 1.974007 1_555
Mn1 O2 1.974853 1_545
Mn1 O3 2.053220 1_445
Mn2 O2 1.906625 1_545
Mn2 O9 1.972332 1_555
Mn2 O10 1.982837 1_555
Mn2 O3 2.018933 1_545
Mn2 O8 2.150079 1_555
Mn2 O4 2.366335 1_545
Mn3 O10 1.957376 1_455
Mn3 O4 1.959684 1_545
Mn3 O11 1.984348 1_555
Mn3 O3 2.002125 1_445
Mn3 O9 2.264142 1_555
Mn3 O5 2.296729 1_445
Mn4 O12 1.955715 1_555
Mn4 O4 1.955715 1_545
Mn4 O11 1.976922 1_555
Mn4 O5 1.976922 1_545
Mn4 O6 2.272292 1_545
Mn4 O10 2.272292 1_555
Mn5 O6 1.957376 1_655
Mn5 O12 1.959684 1_565
Mn5 O5 1.984348 1_555
Mn5 O13 2.002125 1_665
Mn5 O7 2.264142 1_555
Mn5 O11 2.296729 1_665
Mn6 O14 1.906625 1_565
Mn6 O7 1.972332 1_555
Mn6 O6 1.982837 1_555
Mn6 O13 2.018933 1_565
Mn6 O0 2.150079 1_555
Mn6 O12 2.366335 1_565
