# generated using pymatgen
data_Tm5Si3
_symmetry_space_group_name_H-M   'P 1'
_cell_length_a   6.22595430
_cell_length_b   8.27990980
_cell_length_c   8.27988895
_cell_angle_alpha   119.99983848
_cell_angle_beta   90.00000000
_cell_angle_gamma   90.00000000
_symmetry_Int_Tables_number   1
_chemical_formula_structural   Tm5Si3
_chemical_formula_sum   'Tm10 Si6'
_cell_volume   369.64716940
_cell_formula_units_Z   2
loop_
 _symmetry_equiv_pos_site_id
 _symmetry_equiv_pos_as_xyz
  1  'x, y, z'
loop_
 _atom_site_type_symbol
 _atom_site_label
 _atom_site_symmetry_multiplicity
 _atom_site_fract_x
 _atom_site_fract_y
 _atom_site_fract_z
 _atom_site_occupancy
  Tm  Tm0  1  0.49999974  0.33333434  0.66666960  1
  Tm  Tm1  1  0.49999974  0.66666374  0.33333040  1
  Tm  Tm2  1  0.99999974  0.66666666  0.33333040  1
  Tm  Tm3  1  0.99999974  0.33333726  0.66666960  1
  Tm  Tm4  1  0.75000147  0.24221647  -0.00000000  1
  Tm  Tm5  1  0.74999900  0.75777896  0.75777950  1
  Tm  Tm6  1  0.75000000  0.99999945  0.24222150  1
  Tm  Tm7  1  0.25000147  0.75778353  0.00000000  1
  Tm  Tm8  1  0.24999900  0.24222104  0.24221950  1
  Tm  Tm9  1  0.25000000  0.00000055  0.75777850  1
  Si  Si0  1  0.74999431  0.60553381  0.00000000  1
  Si  Si1  1  0.75000187  0.39446344  0.39446633  1
  Si  Si2  1  0.75000287  0.99999711  0.60553367  1
  Si  Si3  1  0.24999431  0.39446619  -0.00000000  1
  Si  Si4  1  0.25000087  0.60553756  0.60553367  1
  Si  Si5  1  0.25000187  0.00000289  0.39446533  1
loop_
_geom_bond_atom_site_label_1
_geom_bond_atom_site_label_2
_geom_bond_distance
_geom_bond_site_symmetry_2
Si0 Tm5 2.852975 1_554
Si0 Tm6 2.852988 1_555
Si0 Tm1 2.983130 1_555
Si0 Tm0 2.983133 1_554
Si0 Tm2 2.983158 1_555
Si0 Tm3 2.983162 1_554
Si0 Tm4 3.008235 1_555
Si0 Tm7 3.358496 1_555
Si0 Tm7 3.358579 1_655
Si1 Tm6 2.852973 1_545
Si1 Tm4 2.852981 1_555
Si1 Tm3 2.983142 1_555
Si1 Tm0 2.983169 1_555
Si1 Tm1 2.983184 1_555
Si1 Tm2 2.983190 1_555
Si1 Tm5 3.008214 1_555
Si1 Tm8 3.358506 1_655
Si1 Tm8 3.358539 1_555
Si2 Tm5 2.852964 1_555
Si2 Tm4 2.852984 1_566
Si2 Tm2 2.983153 1_555
Si2 Tm1 2.983186 1_555
Si2 Tm3 2.983197 1_565
Si2 Tm0 2.983197 1_565
Si2 Tm6 3.008194 1_555
Si2 Tm9 3.358499 1_665
Si2 Tm9 3.358532 1_565
Si3 Tm8 2.852967 1_555
Si3 Tm9 2.852988 1_554
Si3 Tm3 2.983132 1_454
Si3 Tm2 2.983136 1_455
Si3 Tm0 2.983161 1_554
Si3 Tm1 2.983164 1_555
Si3 Tm7 3.008235 1_555
Si3 Tm4 3.358496 1_455
Si3 Tm4 3.358579 1_555
Si4 Tm9 2.852966 1_565
Si4 Tm7 2.852982 1_556
Si4 Tm1 2.983145 1_555
Si4 Tm2 2.983166 1_455
Si4 Tm3 2.983180 1_455
Si4 Tm0 2.983193 1_555
Si4 Tm8 3.008222 1_555
Si4 Tm5 3.358508 1_555
Si4 Tm5 3.358530 1_455
Si5 Tm8 2.852964 1_555
Si5 Tm7 2.852977 1_545
Si5 Tm0 2.983163 1_555
Si5 Tm2 2.983189 1_445
Si5 Tm3 2.983190 1_455
Si5 Tm1 2.983196 1_545
Si5 Tm9 3.008202 1_555
Si5 Tm6 3.358502 1_545
Si5 Tm6 3.358523 1_445
