# generated using pymatgen
data_Na2MnFeF7
_symmetry_space_group_name_H-M   'P 1'
_cell_length_a   7.58634073
_cell_length_b   7.58634073
_cell_length_c   18.52389100
_cell_angle_alpha   90.00000000
_cell_angle_beta   90.00000000
_cell_angle_gamma   120.00000633
_symmetry_Int_Tables_number   1
_chemical_formula_structural   Na2MnFeF7
_chemical_formula_sum   'Na12 Mn6 Fe6 F42'
_cell_volume   923.26741756
_cell_formula_units_Z   6
loop_
 _symmetry_equiv_pos_site_id
 _symmetry_equiv_pos_as_xyz
  1  'x, y, z'
loop_
 _atom_site_type_symbol
 _atom_site_label
 _atom_site_symmetry_multiplicity
 _atom_site_fract_x
 _atom_site_fract_y
 _atom_site_fract_z
 _atom_site_occupancy
  Na  Na0  1  0.37087900  0.49745700  0.00174600  1
  Na  Na1  1  0.50254300  0.87342300  0.33508000  1
  Na  Na2  1  0.12657700  0.62912100  0.66841300  1
  Na  Na3  1  0.62692300  0.12617300  0.66643200  1
  Na  Na4  1  0.87382700  0.50075000  0.99976600  1
  Na  Na5  1  0.49925000  0.37307700  0.33309900  1
  Na  Na6  1  0.14419100  0.14219500  0.66807800  1
  Na  Na7  1  0.85780500  0.00199600  0.00141100  1
  Na  Na8  1  0.99800400  0.85580900  0.33474400  1
  Na  Na9  1  0.17759200  0.13535600  0.16975500  1
  Na  Na10  1  0.86464400  0.04223600  0.50308900  1
  Na  Na11  1  0.95776400  0.82240800  0.83642200  1
  Mn  Mn0  1  0.34320000  0.50607600  0.50334200  1
  Mn  Mn1  1  0.49392400  0.83712400  0.83667500  1
  Mn  Mn2  1  0.16287600  0.65680000  0.17000800  1
  Mn  Mn3  1  0.66200700  0.16273400  0.16318000  1
  Mn  Mn4  1  0.83726600  0.49927300  0.49651400  1
  Mn  Mn5  1  0.50072700  0.33799300  0.82984700  1
  Fe  Fe0  1  0.68365300  0.68389100  0.66625700  1
  Fe  Fe1  1  0.31610900  0.99976200  0.99959100  1
  Fe  Fe2  1  0.00023800  0.31634700  0.33292400  1
  Fe  Fe3  1  0.66423700  0.66354400  0.16659400  1
  Fe  Fe4  1  0.33645600  0.00069400  0.49992700  1
  Fe  Fe5  1  0.99930600  0.33576300  0.83326100  1
  F  F0  1  0.37515100  0.95223700  0.20741600  1
  F  F1  1  0.04776300  0.42291400  0.54074900  1
  F  F2  1  0.57708600  0.62484900  0.87408300  1
  F  F3  1  0.61914400  0.56634600  0.45687600  1
  F  F4  1  0.43365400  0.05279800  0.79020900  1
  F  F5  1  0.94720200  0.38085600  0.12354300  1
  F  F6  1  0.86354300  0.44100700  0.38555700  1
  F  F7  1  0.55899300  0.42253700  0.71889100  1
  F  F8  1  0.57746300  0.13645700  0.05222400  1
  F  F9  1  0.13735600  0.57919100  0.28132100  1
  F  F10  1  0.42080900  0.55816500  0.61465400  1
  F  F11  1  0.44183500  0.86264400  0.94798700  1
  F  F12  1  0.62274100  0.18941200  0.52400600  1
  F  F13  1  0.81058800  0.43332900  0.85733900  1
  F  F14  1  0.56667100  0.37725900  0.19067200  1
  F  F15  1  0.37976600  0.56899600  0.14224300  1
  F  F16  1  0.43100400  0.81077000  0.47557600  1
  F  F17  1  0.18923000  0.62023400  0.80890900  1
  F  F18  1  0.30347000  0.93349000  0.60418500  1
  F  F19  1  0.06651000  0.36998000  0.93751800  1
  F  F20  1  0.63002000  0.69653000  0.27085100  1
  F  F21  1  0.69691200  0.62978000  0.06236800  1
  F  F22  1  0.37022000  0.06713200  0.39570200  1
  F  F23  1  0.93286800  0.30308800  0.72903500  1
  F  F24  1  0.14007700  0.19744500  0.28122900  1
  F  F25  1  0.80255500  0.94263200  0.61456300  1
  F  F26  1  0.05736800  0.85992300  0.94789600  1
  F  F27  1  0.86058600  0.05865600  0.38574000  1
  F  F28  1  0.94134400  0.80192900  0.71907400  1
  F  F29  1  0.19807100  0.13941400  0.05240700  1
  F  F30  1  0.05205100  0.81111900  0.47453300  1
  F  F31  1  0.18888100  0.24093200  0.80786700  1
  F  F32  1  0.75906800  0.94794900  0.14120000  1
  F  F33  1  0.95005400  0.76049100  0.19194400  1
  F  F34  1  0.23950900  0.18956200  0.52527700  1
  F  F35  1  0.81043800  0.04994600  0.85861100  1
  F  F36  1  0.43511200  0.24017800  0.93858700  1
  F  F37  1  0.75982200  0.19493300  0.27192100  1
  F  F38  1  0.80506700  0.56488800  0.60525400  1
  F  F39  1  0.56646700  0.80413300  0.72853500  1
  F  F40  1  0.19586700  0.76233400  0.06186900  1
  F  F41  1  0.23766600  0.43353300  0.39520200  1
loop_
_geom_bond_atom_site_label_1
_geom_bond_atom_site_label_2
_geom_bond_distance
_geom_bond_site_symmetry_2
F0 Mn3 2.117117 1_565
F0 Mn2 2.118382 1_555
F0 Na9 2.597093 1_565
F0 Na1 2.731627 1_555
F1 Mn4 2.117110 1_455
F1 Mn0 2.118376 1_555
F1 Na10 2.597087 1_455
F1 Na2 2.731630 1_555
F2 Mn5 2.117117 1_555
F2 Mn1 2.118382 1_555
F2 Na11 2.597092 1_555
F2 Na0 2.731614 1_556
F3 Mn0 2.091673 1_555
F3 Mn4 2.092422 1_555
F3 Na5 2.626886 1_555
F4 Mn1 2.091673 1_545
F4 Mn5 2.092422 1_555
F4 Na3 2.626886 1_555
F5 Mn2 2.091665 1_655
F5 Mn3 2.092415 1_555
F5 Na4 2.626886 1_554
F6 Fe2 1.975109 1_655
F6 Mn4 2.132540 1_555
F6 Na5 2.724587 1_555
F7 Fe0 1.975112 1_555
F7 Mn5 2.132524 1_555
F7 Na3 2.724600 1_555
F8 Fe1 1.975103 1_544
F8 Mn3 2.132524 1_555
F8 Na4 2.724589 1_554
F9 Fe2 1.974256 1_555
F9 Mn2 2.126448 1_555
F9 Na1 2.732294 1_555
F10 Fe0 1.974256 1_555
F10 Mn0 2.126430 1_555
F10 Na2 2.732299 1_555
F11 Fe1 1.974266 1_555
F11 Mn1 2.126430 1_555
F11 Na0 2.732291 1_556
F12 Fe4 1.963723 1_555
F12 Mn4 2.146654 1_555
F12 Na10 2.610282 1_555
F12 Na3 2.684573 1_555
F13 Fe5 1.963714 1_555
F13 Mn5 2.146654 1_555
F13 Na11 2.610282 1_555
F13 Na4 2.684591 1_555
F14 Fe3 1.963721 1_555
F14 Mn3 2.146654 1_555
F14 Na9 2.610282 1_555
F14 Na5 2.684591 1_555
F15 Fe3 1.956368 1_555
F15 Mn2 2.124051 1_555
F15 Na0 2.652503 1_555
F15 Na9 2.896353 1_555
F16 Fe4 1.956375 1_565
F16 Mn0 2.124055 1_555
F16 Na1 2.652485 1_555
F16 Na10 2.896357 1_565
F17 Fe5 1.956374 1_455
F17 Mn1 2.124055 1_555
F17 Na2 2.652486 1_555
F17 Na11 2.896357 1_455
F18 Fe4 1.981098 1_565
F18 Na2 2.334399 1_555
F18 Na3 2.429122 1_565
F18 Na6 2.698319 1_565
F19 Fe5 1.981080 1_455
F19 Na0 2.334399 1_556
F19 Na4 2.429131 1_455
F19 Na7 2.698318 1_456
F20 Fe3 1.981078 1_555
F20 Na1 2.334414 1_555
F20 Na5 2.429131 1_555
F20 Na8 2.698318 1_555
F21 Fe3 1.979404 1_555
F21 Na4 2.327666 1_554
F21 Na0 2.429716 1_555
F21 Na7 2.700333 1_565
F22 Fe4 1.979385 1_555
F22 Na5 2.327675 1_555
F22 Na1 2.429710 1_545
F22 Na8 2.700341 1_445
F23 Fe5 1.979403 1_555
F23 Na3 2.327675 1_555
F23 Na2 2.429715 1_655
F23 Na6 2.700333 1_655
F24 Fe2 1.952694 1_555
F24 Na9 2.168148 1_555
F24 Na8 2.463368 1_445
F24 Na5 2.548046 1_555
F25 Fe0 1.952685 1_555
F25 Na10 2.168148 1_565
F25 Na6 2.463368 1_665
F25 Na3 2.548039 1_565
F26 Fe1 1.952694 1_555
F26 Na11 2.168148 1_455
F26 Na7 2.463369 1_466
F26 Na4 2.548046 1_455
F27 Fe2 1.957096 1_655
F27 Na10 2.178424 1_555
F27 Na8 2.439577 1_545
F27 Na1 2.533043 1_545
F28 Fe0 1.957105 1_555
F28 Na11 2.178406 1_555
F28 Na6 2.439583 1_665
F28 Na2 2.533038 1_655
F29 Fe1 1.957090 1_544
F29 Na9 2.178406 1_555
F29 Na7 2.439583 1_455
F29 Na0 2.533050 1_555
F30 Fe4 1.960060 1_565
F30 Mn4 2.136082 1_455
F30 Na8 2.669691 1_455
F30 Na10 2.805010 1_465
F31 Fe5 1.960066 1_455
F31 Mn5 2.136078 1_555
F31 Na6 2.669691 1_555
F31 Na11 2.805006 1_445
F32 Fe3 1.960059 1_555
F32 Mn3 2.136078 1_565
F32 Na7 2.669691 1_565
F32 Na9 2.805006 1_665
F33 Fe3 1.966785 1_555
F33 Mn2 2.158866 1_655
F33 Na9 2.515381 1_665
F33 Na8 2.718330 1_555
F34 Fe4 1.966771 1_555
F34 Mn0 2.158869 1_555
F34 Na10 2.515379 1_455
F34 Na6 2.718349 1_555
F35 Fe5 1.966782 1_555
F35 Mn1 2.158871 1_545
F35 Na11 2.515375 1_545
F35 Na7 2.718329 1_556
F36 Fe1 1.942151 1_545
F36 Mn5 2.118114 1_555
F36 Na0 2.523269 1_556
F37 Fe2 1.942141 1_655
F37 Mn3 2.118132 1_555
F37 Na1 2.523260 1_545
F38 Fe0 1.942146 1_555
F38 Mn4 2.118113 1_555
F38 Na2 2.523256 1_655
F39 Fe0 1.940172 1_555
F39 Mn1 2.125077 1_555
F39 Na3 2.526263 1_565
F40 Fe1 1.940172 1_554
F40 Mn2 2.125060 1_555
F40 Na4 2.526263 1_454
F41 Fe2 1.940172 1_555
F41 Mn0 2.125077 1_555
F41 Na5 2.526263 1_555
