# generated using pymatgen
data_Sr2Ti2O5
_symmetry_space_group_name_H-M   'P 1'
_cell_length_a   8.80536157
_cell_length_b   8.80536157
_cell_length_c   8.80536157
_cell_angle_alpha   142.75388866
_cell_angle_beta   142.73109130
_cell_angle_gamma   53.71193532
_symmetry_Int_Tables_number   1
_chemical_formula_structural   Sr2Ti2O5
_chemical_formula_sum   'Sr4 Ti4 O10'
_cell_volume   248.60036127
_cell_formula_units_Z   2
loop_
 _symmetry_equiv_pos_site_id
 _symmetry_equiv_pos_as_xyz
  1  'x, y, z'
loop_
 _atom_site_type_symbol
 _atom_site_label
 _atom_site_symmetry_multiplicity
 _atom_site_fract_x
 _atom_site_fract_y
 _atom_site_fract_z
 _atom_site_occupancy
  Sr  Sr0  1  0.11642100  0.63180100  0.48462000  1
  Sr  Sr1  1  0.35010500  0.86803900  0.48206600  1
  Sr  Sr2  1  0.61402800  0.13196100  0.48206600  1
  Sr  Sr3  1  0.85281800  0.36819900  0.48462000  1
  Ti  Ti0  1  0.23350200  0.25009700  0.98340500  1
  Ti  Ti1  1  0.73330700  0.74990300  0.98340500  1
  Ti  Ti2  1  0.96492500  0.00000000  0.96492500  1
  Ti  Ti3  1  0.49832900  0.50000000  0.99832900  1
  O  O0  1  0.49032200  0.50692000  0.48291300  1
  O  O1  1  0.97599200  0.49308000  0.98340100  1
  O  O2  1  0.49032200  0.00740900  0.98340100  1
  O  O3  1  0.97599200  0.99259100  0.48291300  1
  O  O4  1  0.14148900  0.12077300  0.02071600  1
  O  O5  1  0.32486100  0.37876900  0.94609100  1
  O  O6  1  0.56732200  0.62123100  0.94609100  1
  O  O7  1  0.89994300  0.87922700  0.02071600  1
  O  O8  1  0.72383700  0.75600600  0.47984300  1
  O  O9  1  0.72383700  0.24399400  0.96783100  1
loop_
_geom_bond_atom_site_label_1
_geom_bond_atom_site_label_2
_geom_bond_distance
_geom_bond_site_symmetry_2
O0 Ti0 1.990051 1_554
O0 Ti1 1.994131 1_555
O0 Sr1 2.647914 1_555
O0 Sr3 2.649215 1_555
O0 Sr2 2.793593 1_555
O0 Sr0 2.795704 1_555
O1 Ti1 1.990050 1_555
O1 Ti0 1.994135 1_655
O1 Sr2 2.647906 1_555
O1 Sr0 2.649227 1_656
O1 Sr1 2.793598 1_656
O1 Sr3 2.795696 1_555
O2 Ti0 1.990051 1_555
O2 Ti1 1.994128 1_545
O2 Sr1 2.647906 1_545
O2 Sr3 2.649216 1_556
O2 Sr2 2.793598 1_556
O2 Sr0 2.795707 1_545
O3 Ti1 1.990051 1_554
O3 Ti0 1.994131 1_665
O3 Sr2 2.647898 1_565
O3 Sr0 2.649221 1_655
O3 Sr1 2.793604 1_655
O3 Sr3 2.795704 1_565
O4 Ti2 1.923299 1_454
O4 Ti0 2.042669 1_554
O4 Sr2 2.602028 1_555
O4 Sr0 2.824556 1_544
O4 Sr0 2.824556 1_555
O4 Sr2 3.036149 1_454
O5 Ti3 1.927240 1_555
O5 Ti0 2.032489 1_555
O5 Sr3 2.602073 1_455
O5 Sr1 2.824221 1_545
O5 Sr1 2.824227 1_556
O5 Sr3 3.034920 1_556
O6 Ti3 1.927248 1_555
O6 Ti1 2.032474 1_555
O6 Sr0 2.602067 1_555
O6 Sr2 2.824221 1_566
O6 Sr2 2.824227 1_555
O6 Sr0 3.034925 1_656
O7 Ti2 1.923299 1_564
O7 Ti1 2.042677 1_554
O7 Sr1 2.602025 1_655
O7 Sr3 2.824554 1_554
O7 Sr3 2.824559 1_565
O7 Sr1 3.036152 1_554
O8 Ti3 1.919140 1_554
O8 Ti2 1.929594 1_565
O8 Sr1 2.834126 1_555
O8 Sr2 2.834129 1_565
O8 Sr0 2.917936 1_655
O8 Sr3 2.917939 1_555
O9 Ti3 1.919140 1_555
O9 Ti2 1.929594 1_555
O9 Sr1 2.834126 1_545
O9 Sr2 2.834132 1_555
O9 Sr0 2.917936 1_656
O9 Sr3 2.917942 1_556
