# generated using pymatgen
data_Mg14CrCd
_symmetry_space_group_name_H-M   'P 1'
_cell_length_a   6.31570903
_cell_length_b   6.31570853
_cell_length_c   10.19701968
_cell_angle_alpha   90.00000000
_cell_angle_beta   90.00000000
_cell_angle_gamma   120.00000268
_symmetry_Int_Tables_number   1
_chemical_formula_structural   Mg14CrCd
_chemical_formula_sum   'Mg14 Cr1 Cd1'
_cell_volume   352.24762198
_cell_formula_units_Z   1
loop_
 _symmetry_equiv_pos_site_id
 _symmetry_equiv_pos_as_xyz
  1  'x, y, z'
loop_
 _atom_site_type_symbol
 _atom_site_label
 _atom_site_symmetry_multiplicity
 _atom_site_fract_x
 _atom_site_fract_y
 _atom_site_fract_z
 _atom_site_occupancy
  Mg  Mg0  1  0.16735540  0.83367720  0.12500000  1
  Mg  Mg1  1  0.16568306  0.83284103  0.62500000  1
  Mg  Mg2  1  0.66632280  0.33264460  0.12500000  1
  Mg  Mg3  1  0.66715897  0.33431694  0.62500000  1
  Mg  Mg4  1  0.66632280  0.83367720  0.12500000  1
  Mg  Mg5  1  0.66715897  0.83284103  0.62500000  1
  Mg  Mg6  1  0.33126897  0.16873103  0.37354234  1
  Mg  Mg7  1  0.33126897  0.16873103  0.87645766  1
  Mg  Mg8  1  0.33126897  0.66253894  0.37354234  1
  Mg  Mg9  1  0.33126897  0.66253894  0.87645766  1
  Mg  Mg10  1  0.83746106  0.16873103  0.37354234  1
  Mg  Mg11  1  0.83746106  0.16873103  0.87645766  1
  Mg  Mg12  1  0.83333300  0.66666700  0.37528914  1
  Mg  Mg13  1  0.83333300  0.66666700  0.87471086  1
  Cr  Cr0  1  0.16666700  0.33333300  0.12500000  1
  Cd  Cd0  1  0.16666700  0.33333300  0.62500000  1
loop_
_geom_bond_atom_site_label_1
_geom_bond_atom_site_label_2
_geom_bond_distance
_geom_bond_site_symmetry_2
Mg0 Mg8 3.127625 1_555
Mg0 Mg9 3.127625 1_554
Mg0 Mg6 3.127631 1_565
Mg0 Mg7 3.127631 1_564
Mg0 Mg13 3.138712 1_454
Mg0 Mg12 3.138712 1_455
Mg0 Mg2 3.151333 1_565
Mg0 Mg4 3.151333 1_555
Mg0 Mg2 3.164376 1_455
Mg0 Mg4 3.164376 1_455
Mg1 Mg12 3.128596 1_455
Mg1 Mg13 3.128596 1_455
Mg1 Mg3 3.148533 1_455
Mg1 Mg5 3.148533 1_455
Mg1 Mg8 3.154376 1_555
Mg1 Mg9 3.154376 1_555
Mg1 Mg6 3.154382 1_565
Mg1 Mg7 3.154382 1_565
Mg1 Mg3 3.167176 1_565
Mg1 Mg5 3.167176 1_555
Mg2 Mg6 3.127631 1_555
Mg2 Mg7 3.127631 1_554
Mg2 Mg4 3.151333 1_545
Mg2 Mg4 3.164376 1_555
Mg3 Mg5 3.148533 1_555
Mg3 Mg7 3.154382 1_555
Mg3 Mg6 3.154382 1_555
Mg3 Mg5 3.167176 1_545
Mg4 Mg8 3.127631 1_555
Mg4 Mg9 3.127631 1_554
Mg5 Mg9 3.154382 1_555
Mg5 Mg8 3.154382 1_555
Mg6 Mg8 3.118747 1_555
Mg6 Mg8 3.196962 1_545
Mg7 Mg9 3.118747 1_555
Mg7 Mg9 3.196962 1_545
Mg10 Mg8 3.118747 1_655
Mg10 Mg6 3.118747 1_655
Mg10 Mg2 3.127625 1_555
Mg10 Mg4 3.127631 1_545
Mg10 Mg3 3.154376 1_555
Mg10 Mg5 3.154382 1_545
Mg10 Mg12 3.157985 1_545
Mg10 Mg12 3.157985 1_555
Mg10 Mg8 3.196962 1_545
Mg10 Mg6 3.196962 1_555
Mg11 Mg9 3.118747 1_655
Mg11 Mg7 3.118747 1_655
Mg11 Mg2 3.127625 1_556
Mg11 Mg4 3.127631 1_546
Mg11 Mg3 3.154376 1_555
Mg11 Mg5 3.154382 1_545
Mg11 Mg13 3.157985 1_545
Mg11 Mg13 3.157985 1_555
Mg11 Mg9 3.196962 1_545
Mg11 Mg7 3.196962 1_555
Mg12 Mg5 3.128589 1_555
Mg12 Mg3 3.128596 1_555
Mg12 Mg4 3.138706 1_555
Mg12 Mg2 3.138712 1_555
Mg12 Mg6 3.157985 1_665
Mg12 Mg6 3.157985 1_555
Mg12 Mg8 3.157985 1_555
Mg12 Mg8 3.157985 1_655
Mg13 Mg5 3.128589 1_555
Mg13 Mg3 3.128596 1_555
Mg13 Mg4 3.138706 1_556
Mg13 Mg2 3.138712 1_556
Mg13 Mg7 3.157985 1_665
Mg13 Mg7 3.157985 1_555
Mg13 Mg9 3.157985 1_555
Mg13 Mg9 3.157985 1_655
Cr0 Mg7 3.108908 1_554
Cr0 Mg6 3.108908 1_555
Cr0 Mg8 3.108914 1_555
Cr0 Mg9 3.108914 1_554
Cr0 Mg11 3.108914 1_454
Cr0 Mg10 3.108914 1_455
Cr0 Mg4 3.157857 1_555
Cr0 Mg4 3.157857 1_445
Cr0 Mg0 3.157857 1_555
Cr0 Mg0 3.157857 1_545
Cr0 Mg2 3.157857 1_455
Cr0 Mg2 3.157857 1_555
Cd0 Mg7 3.133189 1_555
Cd0 Mg6 3.133189 1_555
Cd0 Mg8 3.133195 1_555
Cd0 Mg9 3.133195 1_555
Cd0 Mg10 3.133195 1_455
Cd0 Mg11 3.133195 1_455
Cd0 Mg5 3.157859 1_445
Cd0 Mg5 3.157859 1_555
Cd0 Mg1 3.157859 1_545
Cd0 Mg1 3.157859 1_555
Cd0 Mg3 3.157859 1_555
Cd0 Mg3 3.157859 1_455
