# generated using pymatgen
data_TlPd3
_symmetry_space_group_name_H-M   'P 1'
_cell_length_a   4.14530129
_cell_length_b   4.14530127
_cell_length_c   8.26993275
_cell_angle_alpha   104.51617310
_cell_angle_beta   104.51617345
_cell_angle_gamma   90.01683043
_symmetry_Int_Tables_number   1
_chemical_formula_structural   TlPd3
_chemical_formula_sum   'Tl2 Pd6'
_cell_volume   132.87602308
_cell_formula_units_Z   2
loop_
 _symmetry_equiv_pos_site_id
 _symmetry_equiv_pos_as_xyz
  1  'x, y, z'
loop_
 _atom_site_type_symbol
 _atom_site_label
 _atom_site_symmetry_multiplicity
 _atom_site_fract_x
 _atom_site_fract_y
 _atom_site_fract_z
 _atom_site_occupancy
  Tl  Tl0  1  0.87469842  0.87469842  0.74935178  1
  Tl  Tl1  1  0.12530158  0.12530159  0.25064822  1
  Pd  Pd0  1  0.50000000  -0.00000000  -0.00000000  1
  Pd  Pd1  1  -0.00000000  0.50000000  -0.00000000  1
  Pd  Pd2  1  0.24999506  0.75000494  0.50000000  1
  Pd  Pd3  1  0.75000494  0.24999507  0.50000000  1
  Pd  Pd4  1  0.62572826  0.62572825  0.25145331  1
  Pd  Pd5  1  0.37427174  0.37427174  0.74854669  1
loop_
_geom_bond_atom_site_label_1
_geom_bond_atom_site_label_2
_geom_bond_distance
_geom_bond_site_symmetry_2
Pd0 Tl1 2.837471 1_655
Pd0 Tl0 2.837471 1_444
Pd0 Tl0 2.837917 1_544
Pd0 Tl1 2.837917 1_555
Pd0 Pd4 2.841800 1_555
Pd0 Pd5 2.841800 1_544
Pd0 Pd5 2.842100 1_554
Pd0 Pd4 2.842100 1_545
Pd0 Pd1 2.930740 1_655
Pd0 Pd1 2.930740 1_545
Pd0 Pd1 2.931601 1_555
Pd0 Pd1 2.931601 1_645
Pd1 Tl0 2.837471 1_444
Pd1 Tl1 2.837472 1_565
Pd1 Tl1 2.837917 1_555
Pd1 Tl0 2.837917 1_454
Pd1 Pd5 2.841800 1_454
Pd1 Pd4 2.841800 1_555
Pd1 Pd4 2.842100 1_455
Pd1 Pd5 2.842100 1_554
Pd2 Pd5 2.826446 1_565
Pd2 Pd4 2.826446 1_455
Pd2 Pd5 2.826793 1_555
Pd2 Pd4 2.826793 1_555
Pd2 Tl1 2.830786 1_555
Pd2 Tl0 2.830786 1_555
Pd2 Tl0 2.830927 1_455
Pd2 Tl1 2.830927 1_565
Pd2 Pd3 2.930740 1_455
Pd2 Pd3 2.930740 1_565
Pd2 Pd3 2.931543 1_465
Pd2 Pd3 2.931659 1_555
Pd3 Pd5 2.826446 1_655
Pd3 Pd4 2.826446 1_545
Pd3 Pd4 2.826793 1_555
Pd3 Pd5 2.826793 1_555
Pd3 Tl0 2.830786 1_555
Pd3 Tl1 2.830786 1_555
Pd3 Tl1 2.830927 1_655
Pd3 Tl0 2.830927 1_545
Pd4 Tl1 2.930606 1_665
Pd4 Tl1 2.930887 1_555
Pd4 Tl1 2.931608 1_655
Pd4 Tl1 2.931608 1_565
Pd5 Tl0 2.930606 1_445
Pd5 Tl0 2.930887 1_555
Pd5 Tl0 2.931608 1_545
Pd5 Tl0 2.931608 1_455
