# generated using pymatgen
data_HfPd5
_symmetry_space_group_name_H-M   'P 1'
_cell_length_a   13.77561189
_cell_length_b   13.77561189
_cell_length_c   26.24678800
_cell_angle_alpha   90.00000000
_cell_angle_beta   90.00000000
_cell_angle_gamma   156.40719134
_symmetry_Int_Tables_number   1
_chemical_formula_structural   HfPd5
_chemical_formula_sum   'Hf8 Pd40'
_cell_volume   1993.48033268
_cell_formula_units_Z   8
loop_
 _symmetry_equiv_pos_site_id
 _symmetry_equiv_pos_as_xyz
  1  'x, y, z'
loop_
 _atom_site_type_symbol
 _atom_site_label
 _atom_site_symmetry_multiplicity
 _atom_site_fract_x
 _atom_site_fract_y
 _atom_site_fract_z
 _atom_site_occupancy
  Hf  Hf0_0  1  0.00000000  0.00000000  0.00000000  1
  Hf  Hf0_1  1  0.00000000  0.00000000  0.50000000  1
  Hf  Hf0_2  1  0.00000000  0.50000000  0.00000000  1
  Hf  Hf0_3  1  0.00000000  0.50000000  0.50000000  1
  Hf  Hf0_4  1  0.50000000  0.00000000  0.00000000  1
  Hf  Hf0_5  1  0.50000000  0.00000000  0.50000000  1
  Hf  Hf0_6  1  0.50000000  0.50000000  0.00000000  1
  Hf  Hf0_7  1  0.50000000  0.50000000  0.50000000  1
  Pd  Pd0_0  1  0.08335050  0.41664950  0.25000000  1
  Pd  Pd0_1  1  0.08335050  0.41664950  0.75000000  1
  Pd  Pd0_2  1  0.08335050  0.91664950  0.25000000  1
  Pd  Pd0_3  1  0.08335050  0.91664950  0.75000000  1
  Pd  Pd0_4  1  0.58335050  0.41664950  0.25000000  1
  Pd  Pd0_5  1  0.58335050  0.41664950  0.75000000  1
  Pd  Pd0_6  1  0.58335050  0.91664950  0.25000000  1
  Pd  Pd0_7  1  0.58335050  0.91664950  0.75000000  1
  Pd  Pd1_0  1  0.41664950  0.08335050  0.25000000  1
  Pd  Pd1_1  1  0.41664950  0.08335050  0.75000000  1
  Pd  Pd1_2  1  0.41664950  0.58335050  0.25000000  1
  Pd  Pd1_3  1  0.41664950  0.58335050  0.75000000  1
  Pd  Pd1_4  1  0.91664950  0.08335050  0.25000000  1
  Pd  Pd1_5  1  0.91664950  0.08335050  0.75000000  1
  Pd  Pd1_6  1  0.91664950  0.58335050  0.25000000  1
  Pd  Pd1_7  1  0.91664950  0.58335050  0.75000000  1
  Pd  Pd2_0  1  0.16959250  0.33040750  0.00000000  1
  Pd  Pd2_1  1  0.16959250  0.33040750  0.50000000  1
  Pd  Pd2_2  1  0.16959250  0.83040750  0.00000000  1
  Pd  Pd2_3  1  0.16959250  0.83040750  0.50000000  1
  Pd  Pd2_4  1  0.66959250  0.33040750  0.00000000  1
  Pd  Pd2_5  1  0.66959250  0.33040750  0.50000000  1
  Pd  Pd2_6  1  0.66959250  0.83040750  0.00000000  1
  Pd  Pd2_7  1  0.66959250  0.83040750  0.50000000  1
  Pd  Pd3_0  1  0.33040750  0.16959250  0.00000000  1
  Pd  Pd3_1  1  0.33040750  0.16959250  0.50000000  1
  Pd  Pd3_2  1  0.33040750  0.66959250  0.00000000  1
  Pd  Pd3_3  1  0.33040750  0.66959250  0.50000000  1
  Pd  Pd3_4  1  0.83040750  0.16959250  0.00000000  1
  Pd  Pd3_5  1  0.83040750  0.16959250  0.50000000  1
  Pd  Pd3_6  1  0.83040750  0.66959250  0.00000000  1
  Pd  Pd3_7  1  0.83040750  0.66959250  0.50000000  1
  Pd  Pd4_0  1  0.25000000  0.25000000  0.25000000  1
  Pd  Pd4_1  1  0.25000000  0.25000000  0.75000000  1
  Pd  Pd4_2  1  0.25000000  0.75000000  0.25000000  1
  Pd  Pd4_3  1  0.25000000  0.75000000  0.75000000  1
  Pd  Pd4_4  1  0.75000000  0.25000000  0.25000000  1
  Pd  Pd4_5  1  0.75000000  0.25000000  0.75000000  1
  Pd  Pd4_6  1  0.75000000  0.75000000  0.25000000  1
  Pd  Pd4_7  1  0.75000000  0.75000000  0.75000000  1
loop_
_geom_bond_atom_site_label_1
_geom_bond_atom_site_label_2
_geom_bond_distance
_geom_bond_site_symmetry_2
Hf0_0 Pd3_6 2.585598 1_445
Hf0_0 Pd2_6 2.585598 1_445
Hf0_0 Pd3_0 2.585598 1_555
Hf0_0 Pd2_0 2.585598 1_555
Hf0_1 Pd3_7 2.585598 1_445
Hf0_1 Pd2_7 2.585598 1_445
Hf0_1 Pd3_1 2.585598 1_555
Hf0_1 Pd2_1 2.585598 1_555
Hf0_2 Pd3_2 2.585598 1_555
Hf0_2 Pd2_4 2.585598 1_455
Hf0_2 Pd3_4 2.585598 1_455
Hf0_2 Pd2_2 2.585598 1_555
Hf0_3 Pd3_3 2.585598 1_555
Hf0_3 Pd2_5 2.585598 1_455
Hf0_3 Pd2_3 2.585598 1_555
Hf0_3 Pd3_5 2.585598 1_455
Hf0_4 Pd3_2 2.585598 1_545
Hf0_4 Pd2_4 2.585598 1_555
Hf0_4 Pd2_2 2.585598 1_545
Hf0_4 Pd3_4 2.585598 1_555
Hf0_5 Pd3_3 2.585598 1_545
Hf0_5 Pd2_5 2.585598 1_555
Hf0_5 Pd2_3 2.585598 1_545
Hf0_5 Pd3_5 2.585598 1_555
Hf0_6 Pd2_6 2.585598 1_555
Hf0_6 Pd3_6 2.585598 1_555
Hf0_6 Pd3_0 2.585598 1_555
Hf0_6 Pd2_0 2.585598 1_555
Hf0_7 Pd2_7 2.585598 1_555
Hf0_7 Pd3_7 2.585598 1_555
Hf0_7 Pd3_1 2.585598 1_555
Hf0_7 Pd2_1 2.585598 1_555
Pd0_0 Pd1_2 2.651342 1_555
Pd0_0 Pd1_4 2.651342 1_455
Pd0_0 Pd4_4 2.652519 1_455
Pd0_0 Pd4_2 2.652519 1_555
Pd0_0 Pd0_6 2.816212 1_445
Pd0_0 Pd0_6 2.816212 1_555
Pd0_1 Pd1_3 2.651342 1_555
Pd0_1 Pd1_5 2.651342 1_455
Pd0_1 Pd4_5 2.652519 1_455
Pd0_1 Pd4_3 2.652519 1_555
Pd0_1 Pd0_7 2.816212 1_555
Pd0_1 Pd0_7 2.816212 1_445
Pd0_2 Pd1_6 2.651342 1_455
Pd0_2 Pd1_0 2.651342 1_565
Pd0_2 Pd4_6 2.652519 1_455
Pd0_2 Pd4_0 2.652519 1_565
Pd0_2 Pd0_4 2.816212 1_455
Pd0_2 Pd0_4 2.816212 1_565
Pd0_3 Pd1_7 2.651342 1_455
Pd0_3 Pd1_1 2.651342 1_565
Pd0_3 Pd4_7 2.652519 1_455
Pd0_3 Pd4_1 2.652519 1_565
Pd0_3 Pd0_5 2.816212 1_455
Pd0_3 Pd0_5 2.816212 1_565
Pd0_4 Pd1_6 2.651342 1_555
Pd0_4 Pd1_0 2.651342 1_555
Pd0_4 Pd4_0 2.652519 1_555
Pd0_4 Pd4_6 2.652519 1_555
Pd0_5 Pd1_1 2.651342 1_555
Pd0_5 Pd1_7 2.651342 1_555
Pd0_5 Pd4_1 2.652519 1_555
Pd0_5 Pd4_7 2.652519 1_555
Pd0_6 Pd1_2 2.651342 1_555
Pd0_6 Pd1_4 2.651342 1_565
Pd0_6 Pd4_2 2.652519 1_555
Pd0_6 Pd4_4 2.652519 1_565
Pd0_7 Pd1_3 2.651342 1_555
Pd0_7 Pd1_5 2.651342 1_565
Pd0_7 Pd4_3 2.652519 1_555
Pd0_7 Pd4_5 2.652519 1_565
Pd1_0 Pd4_4 2.652519 1_555
Pd1_0 Pd4_2 2.652519 1_545
Pd1_0 Pd1_6 2.816212 1_555
Pd1_0 Pd1_6 2.816212 1_445
Pd1_1 Pd4_5 2.652519 1_555
Pd1_1 Pd4_3 2.652519 1_545
Pd1_1 Pd1_7 2.816212 1_555
Pd1_1 Pd1_7 2.816212 1_445
Pd1_2 Pd4_6 2.652519 1_555
Pd1_2 Pd4_0 2.652519 1_555
Pd1_2 Pd1_4 2.816212 1_565
Pd1_2 Pd1_4 2.816212 1_455
Pd1_3 Pd4_7 2.652519 1_555
Pd1_3 Pd4_1 2.652519 1_555
Pd1_3 Pd1_5 2.816212 1_565
Pd1_3 Pd1_5 2.816212 1_455
Pd1_4 Pd4_0 2.652519 1_655
Pd1_4 Pd4_6 2.652519 1_545
Pd1_5 Pd4_1 2.652519 1_655
Pd1_5 Pd4_7 2.652519 1_545
Pd1_6 Pd4_2 2.652519 1_655
Pd1_6 Pd4_4 2.652519 1_555
Pd1_7 Pd4_3 2.652519 1_655
Pd1_7 Pd4_5 2.652519 1_555
Pd4_0 Pd4_6 2.816212 1_445
Pd4_0 Pd4_6 2.816212 1_555
Pd4_1 Pd4_7 2.816212 1_555
Pd4_1 Pd4_7 2.816212 1_445
Pd4_2 Pd4_4 2.816212 1_455
Pd4_2 Pd4_4 2.816212 1_565
Pd4_3 Pd4_5 2.816212 1_455
Pd4_3 Pd4_5 2.816212 1_565
