# generated using pymatgen
data_MnSnIr
_symmetry_space_group_name_H-M   'P 1'
_cell_length_a   4.34099358
_cell_length_b   4.34099358
_cell_length_c   4.34099358
_cell_angle_alpha   60.00000000
_cell_angle_beta   60.00000000
_cell_angle_gamma   60.00000000
_symmetry_Int_Tables_number   1
_chemical_formula_structural   MnSnIr
_chemical_formula_sum   'Mn1 Sn1 Ir1'
_cell_volume   57.84321637
_cell_formula_units_Z   1
loop_
 _symmetry_equiv_pos_site_id
 _symmetry_equiv_pos_as_xyz
  1  'x, y, z'
loop_
 _atom_site_type_symbol
 _atom_site_label
 _atom_site_symmetry_multiplicity
 _atom_site_fract_x
 _atom_site_fract_y
 _atom_site_fract_z
 _atom_site_occupancy
  Mn  Mn0  1  0.00000000  0.00000000  0.00000000  1
  Sn  Sn0  1  0.75000000  0.75000000  0.75000000  1
  Ir  Ir0  1  0.50000000  0.50000000  0.50000000  1
loop_
_geom_bond_atom_site_label_1
_geom_bond_atom_site_label_2
_geom_bond_distance
_geom_bond_site_symmetry_2
Mn0 Sn0 2.658305 1_445
Mn0 Sn0 2.658305 1_454
Mn0 Sn0 2.658305 1_544
Mn0 Sn0 2.658305 1_444
Ir0 Sn0 2.658305 1_455
Ir0 Sn0 2.658305 1_554
Ir0 Sn0 2.658305 1_545
Ir0 Sn0 2.658305 1_555
Ir0 Mn0 3.069546 1_655
Ir0 Mn0 3.069546 1_565
Ir0 Mn0 3.069546 1_566
Ir0 Mn0 3.069546 1_656
Ir0 Mn0 3.069546 1_665
Ir0 Mn0 3.069546 1_556
