# generated using pymatgen
data_BaAlCuSnO5
_symmetry_space_group_name_H-M   'P 1'
_cell_length_a   3.83045100
_cell_length_b   3.83045100
_cell_length_c   8.62997500
_cell_angle_alpha   90.00000000
_cell_angle_beta   90.00000000
_cell_angle_gamma   90.00000000
_symmetry_Int_Tables_number   1
_chemical_formula_structural   BaAlCuSnO5
_chemical_formula_sum   'Ba1 Al1 Cu1 Sn1 O5'
_cell_volume   126.62205566
_cell_formula_units_Z   1
loop_
 _symmetry_equiv_pos_site_id
 _symmetry_equiv_pos_as_xyz
  1  'x, y, z'
loop_
 _atom_site_type_symbol
 _atom_site_label
 _atom_site_symmetry_multiplicity
 _atom_site_fract_x
 _atom_site_fract_y
 _atom_site_fract_z
 _atom_site_occupancy
  Ba  Ba0  1  0.50000000  0.50000000  0.05025400  1
  Al  Al0  1  0.50000000  0.50000000  0.44250000  1
  Cu  Cu0  1  0.00000000  0.00000000  0.28794500  1
  Sn  Sn0  1  0.00000000  0.00000000  0.69442900  1
  O  O0  1  0.50000000  0.00000000  0.59119900  1
  O  O1  1  0.00000000  0.50000000  0.59119900  1
  O  O2  1  0.50000000  0.00000000  0.29965500  1
  O  O3  1  0.00000000  0.50000000  0.29965500  1
  O  O4  1  0.00000000  0.00000000  0.93108000  1
loop_
_geom_bond_atom_site_label_1
_geom_bond_atom_site_label_2
_geom_bond_distance
_geom_bond_site_symmetry_2
Ba0 O3 2.881074 1_555
Ba0 O2 2.881074 1_555
Ba0 O2 2.881074 1_565
Ba0 O3 2.881074 1_655
Ba0 O4 2.897227 1_664
Ba0 O4 2.897227 1_654
Ba0 O4 2.897227 1_564
Ba0 O4 2.897227 1_554
Al0 O3 2.277665 1_655
Al0 O3 2.277665 1_555
Al0 O2 2.277665 1_555
Al0 O2 2.277665 1_565
Al0 O1 2.305400 1_655
Al0 O0 2.305400 1_555
Al0 O0 2.305400 1_565
Al0 O1 2.305400 1_555
Cu0 O3 1.917890 1_555
Cu0 O3 1.917890 1_545
Cu0 O2 1.917890 1_555
Cu0 O2 1.917890 1_455
O0 Sn0 2.112284 1_655
O0 Sn0 2.112284 1_555
O1 Sn0 2.112284 1_565
O1 Sn0 2.112284 1_555
O4 Sn0 2.042292 1_555
