# generated using pymatgen
data_Nd5Mn8(PbO8)3
_symmetry_space_group_name_H-M   'P 1'
_cell_length_a   7.81720700
_cell_length_b   7.81720700
_cell_length_c   7.81720700
_cell_angle_alpha   90.00000000
_cell_angle_beta   90.00000000
_cell_angle_gamma   90.00000000
_symmetry_Int_Tables_number   1
_chemical_formula_structural   Nd5Mn8(PbO8)3
_chemical_formula_sum   'Nd5 Mn8 Pb3 O24'
_cell_volume   477.69955503
_cell_formula_units_Z   1
loop_
 _symmetry_equiv_pos_site_id
 _symmetry_equiv_pos_as_xyz
  1  'x, y, z'
loop_
 _atom_site_type_symbol
 _atom_site_label
 _atom_site_symmetry_multiplicity
 _atom_site_fract_x
 _atom_site_fract_y
 _atom_site_fract_z
 _atom_site_occupancy
  Nd  Nd0  1  0.00000000  0.00000000  0.00000000  1
  Nd  Nd1  1  0.00000000  0.50000000  0.50000000  1
  Nd  Nd2  1  0.50000000  0.00000000  0.50000000  1
  Nd  Nd3  1  0.50000000  0.50000000  0.00000000  1
  Nd  Nd4  1  0.50000000  0.50000000  0.50000000  1
  Mn  Mn0  1  0.25032200  0.25032200  0.25032200  1
  Mn  Mn1  1  0.74967800  0.74967800  0.74967800  1
  Mn  Mn2  1  0.74967800  0.74967800  0.25032200  1
  Mn  Mn3  1  0.74967800  0.25032200  0.74967800  1
  Mn  Mn4  1  0.25032200  0.25032200  0.74967800  1
  Mn  Mn5  1  0.25032200  0.74967800  0.25032200  1
  Mn  Mn6  1  0.25032200  0.74967800  0.74967800  1
  Mn  Mn7  1  0.74967800  0.25032200  0.25032200  1
  Pb  Pb0  1  0.50000000  0.00000000  0.00000000  1
  Pb  Pb1  1  0.00000000  0.50000000  0.00000000  1
  Pb  Pb2  1  0.00000000  0.00000000  0.50000000  1
  O  O0  1  0.50000000  0.25818600  0.25818600  1
  O  O1  1  0.50000000  0.74181400  0.74181400  1
  O  O2  1  0.50000000  0.74181400  0.25818600  1
  O  O3  1  0.50000000  0.25818600  0.74181400  1
  O  O4  1  0.25818600  0.50000000  0.25818600  1
  O  O5  1  0.25818600  0.50000000  0.74181400  1
  O  O6  1  0.74181400  0.50000000  0.74181400  1
  O  O7  1  0.74181400  0.50000000  0.25818600  1
  O  O8  1  0.25818600  0.25818600  0.50000000  1
  O  O9  1  0.74181400  0.74181400  0.50000000  1
  O  O10  1  0.25818600  0.74181400  0.50000000  1
  O  O11  1  0.74181400  0.25818600  0.50000000  1
  O  O12  1  0.00000000  0.25219900  0.25219900  1
  O  O13  1  0.00000000  0.74780100  0.74780100  1
  O  O14  1  0.00000000  0.74780100  0.25219900  1
  O  O15  1  0.00000000  0.25219900  0.74780100  1
  O  O16  1  0.25219900  0.00000000  0.25219900  1
  O  O17  1  0.25219900  0.00000000  0.74780100  1
  O  O18  1  0.74780100  0.00000000  0.74780100  1
  O  O19  1  0.74780100  0.00000000  0.25219900  1
  O  O20  1  0.25219900  0.25219900  0.00000000  1
  O  O21  1  0.74780100  0.74780100  0.00000000  1
  O  O22  1  0.25219900  0.74780100  0.00000000  1
  O  O23  1  0.74780100  0.25219900  0.00000000  1
loop_
_geom_bond_atom_site_label_1
_geom_bond_atom_site_label_2
_geom_bond_distance
_geom_bond_site_symmetry_2
Nd0 O12 2.788110 1_555
Nd0 O16 2.788110 1_555
Nd0 O20 2.788110 1_555
Nd0 O15 2.788110 1_554
Nd0 O19 2.788110 1_455
Nd0 O14 2.788110 1_545
Nd0 O23 2.788110 1_455
Nd0 O17 2.788110 1_554
Nd0 O22 2.788110 1_545
Nd0 O18 2.788110 1_454
Nd0 O21 2.788110 1_445
Nd0 O13 2.788110 1_544
Nd1 O13 2.739490 1_555
Nd1 O14 2.739490 1_555
Nd1 O15 2.739490 1_555
Nd1 O12 2.739490 1_555
Nd1 O5 2.765281 1_555
Nd1 O10 2.765281 1_555
Nd1 O8 2.765281 1_555
Nd1 O4 2.765281 1_555
Nd1 O9 2.765281 1_455
Nd1 O6 2.765281 1_455
Nd1 O11 2.765281 1_455
Nd1 O7 2.765281 1_455
Nd2 O18 2.739490 1_555
Nd2 O17 2.739490 1_555
Nd2 O19 2.739490 1_555
Nd2 O16 2.739490 1_555
Nd2 O3 2.765281 1_555
Nd2 O11 2.765281 1_555
Nd2 O0 2.765281 1_555
Nd2 O1 2.765281 1_545
Nd2 O9 2.765281 1_545
Nd2 O8 2.765281 1_555
Nd2 O10 2.765281 1_545
Nd2 O2 2.765281 1_545
Nd3 O21 2.739490 1_555
Nd3 O23 2.739490 1_555
Nd3 O22 2.739490 1_555
Nd3 O20 2.739490 1_555
Nd3 O2 2.765281 1_555
Nd3 O7 2.765281 1_555
Nd3 O1 2.765281 1_554
Nd3 O6 2.765281 1_554
Nd3 O4 2.765281 1_555
Nd3 O0 2.765281 1_555
Nd3 O3 2.765281 1_554
Nd3 O5 2.765281 1_554
Nd4 O1 2.673302 1_555
Nd4 O6 2.673302 1_555
Nd4 O9 2.673302 1_555
Nd4 O11 2.673302 1_555
Nd4 O5 2.673302 1_555
Nd4 O7 2.673302 1_555
Nd4 O10 2.673302 1_555
Nd4 O3 2.673302 1_555
Nd4 O2 2.673302 1_555
Nd4 O4 2.673302 1_555
Nd4 O8 2.673302 1_555
Nd4 O0 2.673302 1_555
Mn0 O0 1.953720 1_555
Mn0 O4 1.953720 1_555
Mn0 O8 1.953720 1_555
Mn0 O20 1.956929 1_555
Mn0 O12 1.956929 1_555
Mn0 O16 1.956929 1_555
Mn1 O1 1.953720 1_555
Mn1 O9 1.953720 1_555
Mn1 O6 1.953720 1_555
Mn1 O21 1.956929 1_556
Mn1 O18 1.956929 1_565
Mn1 O13 1.956929 1_655
Mn2 O2 1.953720 1_555
Mn2 O7 1.953720 1_555
Mn2 O9 1.953720 1_555
Mn2 O21 1.956929 1_555
Mn2 O14 1.956929 1_655
Mn2 O19 1.956929 1_565
Mn3 O3 1.953720 1_555
Mn3 O11 1.953720 1_555
Mn3 O6 1.953720 1_555
Mn3 O18 1.956929 1_555
Mn3 O15 1.956929 1_655
Mn3 O23 1.956929 1_556
Mn4 O8 1.953720 1_555
Mn4 O3 1.953720 1_555
Mn4 O5 1.953720 1_555
Mn4 O17 1.956929 1_555
Mn4 O15 1.956929 1_555
Mn4 O20 1.956929 1_556
Mn5 O4 1.953720 1_555
Mn5 O2 1.953720 1_555
Mn5 O10 1.953720 1_555
Mn5 O22 1.956929 1_555
Mn5 O14 1.956929 1_555
Mn5 O16 1.956929 1_565
Mn6 O5 1.953720 1_555
Mn6 O10 1.953720 1_555
Mn6 O1 1.953720 1_555
Mn6 O13 1.956929 1_555
Mn6 O17 1.956929 1_565
Mn6 O22 1.956929 1_556
Mn7 O0 1.953720 1_555
Mn7 O11 1.953720 1_555
Mn7 O7 1.953720 1_555
Mn7 O19 1.956929 1_555
Mn7 O23 1.956929 1_555
Mn7 O12 1.956929 1_655
O0 Pb0 2.854298 1_555
O1 Pb0 2.854298 1_566
O2 Pb0 2.854298 1_565
O3 Pb0 2.854298 1_556
O4 Pb1 2.854298 1_555
O5 Pb1 2.854298 1_556
O6 Pb1 2.854298 1_656
O7 Pb1 2.854298 1_655
O8 Pb2 2.854298 1_555
O9 Pb2 2.854298 1_665
O10 Pb2 2.854298 1_565
O11 Pb2 2.854298 1_655
O12 Pb1 2.763907 1_555
O12 Pb2 2.763907 1_555
O13 Pb2 2.763907 1_565
O13 Pb1 2.763907 1_556
O14 Pb1 2.763907 1_555
O14 Pb2 2.763907 1_565
O15 Pb2 2.763907 1_555
O15 Pb1 2.763907 1_556
O16 Pb0 2.763907 1_555
O16 Pb2 2.763907 1_555
O17 Pb2 2.763907 1_555
O17 Pb0 2.763907 1_556
O18 Pb2 2.763907 1_655
O18 Pb0 2.763907 1_556
O19 Pb0 2.763907 1_555
O19 Pb2 2.763907 1_655
O20 Pb0 2.763907 1_555
O20 Pb1 2.763907 1_555
O21 Pb0 2.763907 1_565
O21 Pb1 2.763907 1_655
O22 Pb1 2.763907 1_555
O22 Pb0 2.763907 1_565
O23 Pb0 2.763907 1_555
O23 Pb1 2.763907 1_655
