# generated using pymatgen
data_YbGa4Ni
_symmetry_space_group_name_H-M   'P 1'
_cell_length_a   9.13491304
_cell_length_b   9.13491304
_cell_length_c   7.41055800
_cell_angle_alpha   90.00000000
_cell_angle_beta   90.00000000
_cell_angle_gamma   23.10872278
_symmetry_Int_Tables_number   1
_chemical_formula_structural   YbGa4Ni
_chemical_formula_sum   'Yb2 Ga8 Ni2'
_cell_volume   242.70242713
_cell_formula_units_Z   2
loop_
 _symmetry_equiv_pos_site_id
 _symmetry_equiv_pos_as_xyz
  1  'x, y, z'
loop_
 _atom_site_type_symbol
 _atom_site_label
 _atom_site_symmetry_multiplicity
 _atom_site_fract_x
 _atom_site_fract_y
 _atom_site_fract_z
 _atom_site_occupancy
  Yb  Yb0  1  0.64025000  0.64025000  0.25000000  1
  Yb  Yb1  1  0.35975000  0.35975000  0.75000000  1
  Ga  Ga0  1  0.50000000  0.50000000  0.50000000  1
  Ga  Ga1  1  0.50000000  0.50000000  0.00000000  1
  Ga  Ga2  1  0.40079300  0.40079300  0.25000000  1
  Ga  Ga3  1  0.59920700  0.59920700  0.75000000  1
  Ga  Ga4  1  0.80659500  0.80659500  0.44906700  1
  Ga  Ga5  1  0.19340500  0.19340500  0.55093300  1
  Ga  Ga6  1  0.80659500  0.80659500  0.05093300  1
  Ga  Ga7  1  0.19340500  0.19340500  0.94906700  1
  Ni  Ni0  1  0.26172500  0.26172500  0.25000000  1
  Ni  Ni1  1  0.73827500  0.73827500  0.75000000  1
loop_
_geom_bond_atom_site_label_1
_geom_bond_atom_site_label_2
_geom_bond_distance
_geom_bond_site_symmetry_2
Ga0 Ga2 2.566245 1_555
Ga0 Ga3 2.566245 1_555
Ga0 Yb1 3.120011 1_555
Ga0 Yb0 3.120011 1_555
Ga1 Ga2 2.566245 1_555
Ga1 Ga3 2.566245 1_554
Ga1 Yb0 3.120011 1_555
Ga1 Yb1 3.120011 1_554
Ga2 Ni0 2.489260 1_555
Ga2 Ga4 2.892571 1_455
Ga2 Ga6 2.892571 1_455
Ga2 Ga4 2.892571 1_545
Ga2 Ga6 2.892571 1_545
Ga3 Ni1 2.489260 1_555
Ga3 Ga5 2.892571 1_655
Ga3 Ga7 2.892571 1_565
Ga3 Ga7 2.892571 1_655
Ga3 Ga5 2.892571 1_565
Ga4 Ni0 2.483761 1_655
Ga4 Ni0 2.483761 1_565
Ga4 Ni1 2.543373 1_555
Ga4 Yb1 3.037488 1_565
Ga4 Yb1 3.037488 1_655
Ga5 Ni1 2.483761 1_455
Ga5 Ni1 2.483761 1_545
Ga5 Ni0 2.543373 1_555
Ga5 Yb0 3.037488 1_455
Ga5 Yb0 3.037488 1_545
Ga6 Ni0 2.483761 1_655
Ga6 Ni0 2.483761 1_565
Ga6 Ni1 2.543373 1_554
Ga6 Yb1 3.037488 1_564
Ga6 Yb1 3.037488 1_654
Ga7 Ni1 2.483761 1_455
Ga7 Ni1 2.483761 1_545
Ga7 Ni0 2.543373 1_556
Ga7 Yb0 3.037488 1_546
Ga7 Yb0 3.037488 1_456
Ni0 Yb0 2.841763 1_455
Ni0 Yb0 2.841763 1_545
Ni1 Yb1 2.841763 1_655
Ni1 Yb1 2.841763 1_565
