# generated using pymatgen
data_TmMnSi
_symmetry_space_group_name_H-M   'P 1'
_cell_length_a   4.01496400
_cell_length_b   6.85058900
_cell_length_c   7.65036300
_cell_angle_alpha   90.00000000
_cell_angle_beta   90.00000000
_cell_angle_gamma   90.00000000
_symmetry_Int_Tables_number   1
_chemical_formula_structural   TmMnSi
_chemical_formula_sum   'Tm4 Mn4 Si4'
_cell_volume   210.42222610
_cell_formula_units_Z   4
loop_
 _symmetry_equiv_pos_site_id
 _symmetry_equiv_pos_as_xyz
  1  'x, y, z'
loop_
 _atom_site_type_symbol
 _atom_site_label
 _atom_site_symmetry_multiplicity
 _atom_site_fract_x
 _atom_site_fract_y
 _atom_site_fract_z
 _atom_site_occupancy
  Tm  Tm0  1  0.25000000  0.51853400  0.18384200  1
  Tm  Tm1  1  0.75000000  0.48146600  0.81615800  1
  Tm  Tm2  1  0.75000000  0.98146600  0.68384200  1
  Tm  Tm3  1  0.25000000  0.01853400  0.31615800  1
  Mn  Mn0  1  0.25000000  0.63756700  0.55746700  1
  Mn  Mn1  1  0.75000000  0.36243300  0.44253300  1
  Mn  Mn2  1  0.75000000  0.86243300  0.05746700  1
  Mn  Mn3  1  0.25000000  0.13756700  0.94253300  1
  Si  Si0  1  0.25000000  0.78217000  0.88543600  1
  Si  Si1  1  0.75000000  0.21783000  0.11456400  1
  Si  Si2  1  0.75000000  0.71783000  0.38543600  1
  Si  Si3  1  0.25000000  0.28217000  0.61456400  1
loop_
_geom_bond_atom_site_label_1
_geom_bond_atom_site_label_2
_geom_bond_distance
_geom_bond_site_symmetry_2
Mn0 Si2 2.462608 1_455
Mn0 Si2 2.462608 1_555
Mn0 Si3 2.473553 1_555
Mn0 Si0 2.697557 1_555
Mn0 Tm0 2.972409 1_555
Mn0 Tm1 3.015016 1_455
Mn0 Tm1 3.015016 1_555
Mn0 Tm3 3.196779 1_565
Mn0 Tm2 3.242689 1_555
Mn0 Tm2 3.242689 1_455
Mn1 Si3 2.462608 1_555
Mn1 Si3 2.462608 1_655
Mn1 Si2 2.473553 1_555
Mn1 Si1 2.697557 1_555
Mn1 Tm1 2.972409 1_555
Mn1 Tm0 3.015016 1_555
Mn1 Tm0 3.015016 1_655
Mn1 Tm2 3.196779 1_545
Mn1 Tm3 3.242689 1_555
Mn1 Tm3 3.242689 1_655
Mn2 Si0 2.462608 1_554
Mn2 Si0 2.462608 1_654
Mn2 Si1 2.473553 1_565
Mn2 Si2 2.697557 1_555
Mn2 Tm2 2.972409 1_554
Mn2 Tm3 3.015016 1_565
Mn2 Tm3 3.015016 1_665
Mn2 Tm1 3.196779 1_554
Mn2 Tm0 3.242689 1_555
Mn2 Tm0 3.242689 1_655
Mn3 Si1 2.462608 1_556
Mn3 Si1 2.462608 1_456
Mn3 Si0 2.473553 1_545
Mn3 Si3 2.697557 1_555
Mn3 Tm3 2.972409 1_556
Mn3 Tm2 3.015016 1_545
Mn3 Tm2 3.015016 1_445
Mn3 Tm0 3.196779 1_556
Mn3 Tm1 3.242689 1_455
Mn3 Tm1 3.242689 1_555
Si0 Tm2 2.876213 1_555
Si0 Tm2 2.876213 1_455
Si0 Tm0 2.910937 1_556
Si0 Tm1 2.924805 1_555
Si0 Tm1 2.924805 1_455
Si1 Tm3 2.876213 1_655
Si1 Tm3 2.876213 1_555
Si1 Tm1 2.910937 1_554
Si1 Tm0 2.924805 1_555
Si1 Tm0 2.924805 1_655
Si2 Tm0 2.876213 1_555
Si2 Tm0 2.876213 1_655
Si2 Tm2 2.910937 1_555
Si2 Tm3 2.924805 1_565
Si2 Tm3 2.924805 1_665
Si3 Tm1 2.876213 1_555
Si3 Tm1 2.876213 1_455
Si3 Tm3 2.910937 1_555
Si3 Tm2 2.924805 1_445
Si3 Tm2 2.924805 1_545
