# generated using pymatgen
data_Mg2MnIn3S8
_symmetry_space_group_name_H-M   'P 1'
_cell_length_a   7.64259264
_cell_length_b   7.56912500
_cell_length_c   7.64365295
_cell_angle_alpha   59.61870034
_cell_angle_beta   60.03442357
_cell_angle_gamma   59.63190720
_symmetry_Int_Tables_number   1
_chemical_formula_structural   Mg2MnIn3S8
_chemical_formula_sum   'Mg2 Mn1 In3 S8'
_cell_volume   310.95740086
_cell_formula_units_Z   1
loop_
 _symmetry_equiv_pos_site_id
 _symmetry_equiv_pos_as_xyz
  1  'x, y, z'
loop_
 _atom_site_type_symbol
 _atom_site_label
 _atom_site_symmetry_multiplicity
 _atom_site_fract_x
 _atom_site_fract_y
 _atom_site_fract_z
 _atom_site_occupancy
  Mg  Mg0  1  0.87583400  0.87177200  0.87624400  1
  Mg  Mg1  1  0.12403200  0.12824100  0.12384800  1
  Mn  Mn0  1  0.49988700  0.00005400  0.50010600  1
  In  In0  1  0.50002100  0.50006400  0.50006300  1
  In  In1  1  0.50012200  0.49996700  0.99976300  1
  In  In2  1  0.00003700  0.49988100  0.50006600  1
  S  S0  1  0.73234900  0.75883700  0.73238000  1
  S  S1  1  0.26751700  0.24153600  0.72373200  1
  S  S2  1  0.25733600  0.72809900  0.25714300  1
  S  S3  1  0.72429300  0.24211500  0.26690500  1
  S  S4  1  0.74274000  0.27180900  0.74276100  1
  S  S5  1  0.27564800  0.75790400  0.73308400  1
  S  S6  1  0.26772400  0.24121300  0.26757600  1
  S  S7  1  0.73246300  0.75850400  0.27633000  1
loop_
_geom_bond_atom_site_label_1
_geom_bond_atom_site_label_2
_geom_bond_distance
_geom_bond_site_symmetry_2
Mg0 S4 2.457983 1_565
Mg0 S5 2.495600 1_655
Mg0 S7 2.497638 1_556
Mg0 S0 2.499139 1_555
Mg1 S2 2.458628 1_545
Mg1 S3 2.495120 1_455
Mg1 S1 2.497819 1_554
Mg1 S6 2.499810 1_555
Mn0 S6 2.496634 1_555
Mn0 S0 2.496868 1_545
Mn0 S1 2.502448 1_555
Mn0 S7 2.503617 1_545
Mn0 S5 2.508667 1_545
Mn0 S3 2.509074 1_555
In0 S4 2.612010 1_555
In0 S2 2.613156 1_555
In0 S7 2.646125 1_555
In0 S5 2.646313 1_555
In0 S1 2.646999 1_555
In0 S3 2.647736 1_555
In1 S4 2.614308 1_555
In1 S2 2.616287 1_556
In1 S5 2.644095 1_555
In1 S3 2.645108 1_556
In1 S0 2.647323 1_555
In1 S6 2.647788 1_556
In2 S4 2.614812 1_455
In2 S2 2.615577 1_555
In2 S1 2.644507 1_555
In2 S7 2.645424 1_455
In2 S6 2.648448 1_555
In2 S0 2.649063 1_455
