# generated using pymatgen
data_CsHo2Ag3Te5
_symmetry_space_group_name_H-M   'P 1'
_cell_length_a   8.52953257
_cell_length_b   8.52953257
_cell_length_c   18.63810100
_cell_angle_alpha   90.00000000
_cell_angle_beta   90.00000000
_cell_angle_gamma   148.21693133
_symmetry_Int_Tables_number   1
_chemical_formula_structural   CsHo2Ag3Te5
_chemical_formula_sum   'Cs2 Ho4 Ag6 Te10'
_cell_volume   714.19902850
_cell_formula_units_Z   2
loop_
 _symmetry_equiv_pos_site_id
 _symmetry_equiv_pos_as_xyz
  1  'x, y, z'
loop_
 _atom_site_type_symbol
 _atom_site_label
 _atom_site_symmetry_multiplicity
 _atom_site_fract_x
 _atom_site_fract_y
 _atom_site_fract_z
 _atom_site_occupancy
  Cs  Cs0  1  0.55796900  0.44203100  0.25000000  1
  Cs  Cs1  1  0.44203100  0.55796900  0.75000000  1
  Ho  Ho0  1  0.69296700  0.30703300  0.90548200  1
  Ho  Ho1  1  0.30703300  0.69296700  0.09451800  1
  Ho  Ho2  1  0.69296700  0.30703300  0.59451800  1
  Ho  Ho3  1  0.30703300  0.69296700  0.40548200  1
  Ag  Ag0  1  0.84136100  0.15863900  0.25000000  1
  Ag  Ag1  1  0.15863900  0.84136100  0.75000000  1
  Ag  Ag2  1  0.08186400  0.91813600  0.46295000  1
  Ag  Ag3  1  0.91813600  0.08186400  0.53705000  1
  Ag  Ag4  1  0.08186400  0.91813600  0.03705000  1
  Ag  Ag5  1  0.91813600  0.08186400  0.96295000  1
  Te  Te0  1  0.06816400  0.93183600  0.88281400  1
  Te  Te1  1  0.93183600  0.06816400  0.11718600  1
  Te  Te2  1  0.06816400  0.93183600  0.61718600  1
  Te  Te3  1  0.93183600  0.06816400  0.38281400  1
  Te  Te4  1  0.68127100  0.31872900  0.43051900  1
  Te  Te5  1  0.31872900  0.68127100  0.56948100  1
  Te  Te6  1  0.68127100  0.31872900  0.06948100  1
  Te  Te7  1  0.31872900  0.68127100  0.93051900  1
  Te  Te8  1  0.24503400  0.75496600  0.25000000  1
  Te  Te9  1  0.75496600  0.24503400  0.75000000  1
loop_
_geom_bond_atom_site_label_1
_geom_bond_atom_site_label_2
_geom_bond_distance
_geom_bond_site_symmetry_2
Cs0 Te8 3.856768 1_655
Cs0 Te8 3.856768 1_545
Cs0 Te4 3.925903 1_555
Cs0 Te6 3.925903 1_555
Cs0 Te1 3.983096 1_455
Cs0 Te3 3.983096 1_455
Cs0 Te1 3.983096 1_565
Cs0 Te3 3.983096 1_565
Cs1 Te9 3.856768 1_455
Cs1 Te9 3.856768 1_565
Cs1 Te5 3.925903 1_555
Cs1 Te7 3.925903 1_555
Cs1 Te2 3.983096 1_545
Cs1 Te0 3.983096 1_545
Cs1 Te2 3.983096 1_655
Cs1 Te0 3.983096 1_655
Ho0 Te6 3.062648 1_556
Ho0 Te9 3.071238 1_555
Ho0 Te0 3.134661 1_545
Ho0 Te0 3.134661 1_655
Ho0 Te7 3.151197 1_545
Ho0 Te7 3.151197 1_655
Ho1 Te7 3.062648 1_554
Ho1 Te8 3.071238 1_555
Ho1 Te1 3.134661 1_455
Ho1 Te1 3.134661 1_565
Ho1 Te6 3.151197 1_565
Ho1 Te6 3.151197 1_455
Ho2 Te4 3.062648 1_555
Ho2 Te9 3.071238 1_555
Ho2 Te2 3.134661 1_655
Ho2 Te2 3.134661 1_545
Ho2 Te5 3.151197 1_545
Ho2 Te5 3.151197 1_655
Ho3 Te5 3.062648 1_555
Ho3 Te8 3.071238 1_555
Ho3 Te3 3.134661 1_455
Ho3 Te3 3.134661 1_565
Ho3 Te4 3.151197 1_455
Ho3 Te4 3.151197 1_565
Ag0 Te8 2.820021 1_545
Ag0 Te8 2.820021 1_655
Ag0 Te1 2.886373 1_555
Ag0 Te3 2.886373 1_555
Ag1 Te9 2.820021 1_565
Ag1 Te9 2.820021 1_455
Ag1 Te2 2.886373 1_555
Ag1 Te0 2.886373 1_555
Ag2 Te3 2.879217 1_465
Ag2 Te2 2.883441 1_555
Ag2 Te4 2.912073 1_455
Ag2 Te4 2.912073 1_565
Ag3 Te2 2.879217 1_645
Ag3 Te3 2.883441 1_555
Ag3 Te5 2.912073 1_545
Ag3 Te5 2.912073 1_655
Ag4 Te1 2.879217 1_465
Ag4 Te0 2.883441 1_554
Ag4 Te6 2.912073 1_455
Ag4 Te6 2.912073 1_565
Ag5 Te0 2.879217 1_645
Ag5 Te1 2.883441 1_556
Ag5 Te7 2.912073 1_545
Ag5 Te7 2.912073 1_655
