# generated using pymatgen
data_Ba2ClF3
_symmetry_space_group_name_H-M   'P 1'
_cell_length_a   4.49765793
_cell_length_b   4.49765793
_cell_length_c   7.50075600
_cell_angle_alpha   90.00000000
_cell_angle_beta   90.00000000
_cell_angle_gamma   119.99999891
_symmetry_Int_Tables_number   1
_chemical_formula_structural   Ba2ClF3
_chemical_formula_sum   'Ba2 Cl1 F3'
_cell_volume   131.40397950
_cell_formula_units_Z   1
loop_
 _symmetry_equiv_pos_site_id
 _symmetry_equiv_pos_as_xyz
  1  'x, y, z'
loop_
 _atom_site_type_symbol
 _atom_site_label
 _atom_site_symmetry_multiplicity
 _atom_site_fract_x
 _atom_site_fract_y
 _atom_site_fract_z
 _atom_site_occupancy
  Ba  Ba0  1  0.66666700  0.33333300  0.20123900  1
  Ba  Ba1  1  0.33333300  0.66666700  0.79876100  1
  Cl  Cl0  1  0.00000000  0.00000000  0.50000000  1
  F  F0  1  0.00000000  0.00000000  0.00000000  1
  F  F1  1  0.66666700  0.33333300  0.83573300  1
  F  F2  1  0.33333300  0.66666700  0.16426700  1
loop_
_geom_bond_atom_site_label_1
_geom_bond_atom_site_label_2
_geom_bond_distance
_geom_bond_site_symmetry_2
Ba0 F2 2.611488 1_545
Ba0 F2 2.611488 1_655
Ba0 F2 2.611495 1_555
Ba0 F1 2.741571 1_554
Ba0 F0 3.003562 1_655
Ba0 F0 3.003565 1_665
Ba0 F0 3.003565 1_555
Ba0 Cl0 3.429977 1_655
Ba0 Cl0 3.429980 1_665
Ba0 Cl0 3.429980 1_555
Ba1 F1 2.611488 1_455
Ba1 F1 2.611488 1_565
Ba1 F1 2.611495 1_555
Ba1 F2 2.741571 1_556
Ba1 F0 3.003562 1_566
Ba1 F0 3.003565 1_666
Ba1 F0 3.003565 1_556
Ba1 Cl0 3.429977 1_565
Ba1 Cl0 3.429980 1_555
Ba1 Cl0 3.429980 1_665
