# generated using pymatgen
data_TmIn2Pd
_symmetry_space_group_name_H-M   'P 1'
_cell_length_a   10.68139829
_cell_length_b   10.68139859
_cell_length_c   10.68306304
_cell_angle_alpha   100.49385300
_cell_angle_beta   100.49385591
_cell_angle_gamma   129.47962274
_symmetry_Int_Tables_number   1
_chemical_formula_structural   TmIn2Pd
_chemical_formula_sum   'Tm10 In20 Pd10'
_cell_volume   850.78338224
_cell_formula_units_Z   10
loop_
 _symmetry_equiv_pos_site_id
 _symmetry_equiv_pos_as_xyz
  1  'x, y, z'
loop_
 _atom_site_type_symbol
 _atom_site_label
 _atom_site_symmetry_multiplicity
 _atom_site_fract_x
 _atom_site_fract_y
 _atom_site_fract_z
 _atom_site_occupancy
  Tm  Tm0  1  0.47450879  0.47450847  0.00004275  1
  Tm  Tm1  1  0.68205997  0.40303250  0.27892514  1
  Tm  Tm2  1  0.12384515  0.40303295  0.72093491  1
  Tm  Tm3  1  0.40303251  0.68206079  0.27892528  1
  Tm  Tm4  1  0.40303256  0.12384522  0.72093467  1
  Tm  Tm5  1  0.68741661  0.68741655  0.59638532  1
  Tm  Tm6  1  0.09100930  0.09100888  0.40362089  1
  Tm  Tm7  1  0.09109873  0.68739682  0.00002956  1
  Tm  Tm8  1  0.68739591  0.09109776  0.00002938  1
  Tm  Tm9  1  0.00118267  0.00118279  0.00001323  1
  In  In0  1  0.28169246  0.48907263  0.49187321  1
  In  In1  1  0.99721741  0.78979579  0.50809243  1
  In  In2  1  0.78981550  0.28181610  0.79261882  1
  In  In3  1  0.28181637  0.78981565  0.79261881  1
  In  In4  1  0.48916188  0.99711397  0.20753355  1
  In  In5  1  0.99711403  0.48916176  0.20753340  1
  In  In6  1  0.78979636  0.99721545  0.50809195  1
  In  In7  1  0.48907257  0.28169280  0.49187293  1
  In  In8  1  0.89280892  0.73038338  0.16254226  1
  In  In9  1  0.56775787  0.73024551  0.83742396  1
  In  In10  1  0.73038293  0.89280930  0.16254254  1
  In  In11  1  0.73024761  0.56775794  0.83742252  1
  In  In12  1  0.36726926  0.36727036  0.26011781  1
  In  In13  1  0.10722624  0.10722736  0.73988422  1
  In  In14  1  0.10706892  0.36726299  0.00005220  1
  In  In15  1  0.36726294  0.10706976  0.00005211  1
  In  In16  1  0.26051682  0.87769179  0.38278029  1
  In  In17  1  0.49484335  0.87759671  0.61717532  1
  In  In18  1  0.87769140  0.26051719  0.38278015  1
  In  In19  1  0.87759574  0.49484212  0.61717408  1
  Pd  Pd0  1  0.12774966  0.62775726  0.50008706  1
  Pd  Pd1  1  0.62775179  0.12774270  0.50008730  1
  Pd  Pd2  1  0.24955411  0.03672127  0.21277633  1
  Pd  Pd3  1  0.82393440  0.03684535  0.78712224  1
  Pd  Pd4  1  0.03672203  0.24955434  0.21277668  1
  Pd  Pd5  1  0.03684585  0.82393490  0.78712224  1
  Pd  Pd6  1  0.38272449  0.38272293  0.67750281  1
  Pd  Pd7  1  0.70531669  0.70531511  0.32257247  1
  Pd  Pd8  1  0.70533340  0.38295700  0.99996349  1
  Pd  Pd9  1  0.38295677  0.70533586  0.99996369  1
loop_
_geom_bond_atom_site_label_1
_geom_bond_atom_site_label_2
_geom_bond_distance
_geom_bond_site_symmetry_2
In0 Pd6 2.826224 1_555
In0 Pd0 2.829929 1_555
In0 Pd4 2.854645 1_555
In0 In12 3.133902 1_555
In0 Tm6 3.153388 1_555
In0 Tm2 3.166579 1_555
In0 Tm5 3.196370 1_555
In0 Tm3 3.238720 1_555
In1 Pd7 2.825522 1_555
In1 Pd0 2.829330 1_655
In1 Pd5 2.854125 1_655
In1 In13 3.134377 1_665
In1 Tm5 3.153867 1_555
In1 Tm1 3.165789 1_555
In1 Tm6 3.196461 1_665
In1 Tm4 3.236979 1_665
In2 Pd8 2.825606 1_555
In2 Pd1 2.829279 1_555
In2 Pd3 2.854373 1_555
In2 Tm8 3.154316 1_556
In2 Tm4 3.164537 1_555
In2 Tm7 3.195566 1_656
In2 Tm2 3.236502 1_655
In3 Pd9 2.825588 1_555
In3 Pd0 2.829279 1_555
In3 Pd5 2.854373 1_555
In3 Tm7 3.154313 1_556
In3 Tm2 3.164533 1_555
In3 Tm8 3.195557 1_566
In3 Tm4 3.236504 1_565
In4 Pd9 2.826269 1_554
In4 Pd1 2.829472 1_565
In4 Pd2 2.855311 1_565
In4 Tm7 3.153663 1_555
In4 Tm3 3.163283 1_555
In4 Tm8 3.197307 1_565
In4 Tm1 3.238686 1_565
In5 Pd8 2.826290 1_554
In5 Pd0 2.829469 1_655
In5 Pd4 2.855313 1_655
In5 Tm8 3.153668 1_555
In5 Tm1 3.163292 1_555
In5 Tm7 3.197310 1_655
In5 Tm3 3.238683 1_655
In6 Pd7 2.825522 1_555
In6 Pd1 2.829342 1_565
In6 Pd3 2.854130 1_565
In6 Tm5 3.153851 1_555
In6 Tm3 3.165787 1_555
In6 Tm6 3.196452 1_665
In6 Tm2 3.236993 1_665
In7 Pd6 2.826203 1_555
In7 Pd1 2.829949 1_555
In7 Pd2 2.854648 1_555
In7 Tm6 3.153382 1_555
In7 Tm4 3.166581 1_555
In7 Tm5 3.196366 1_555
In7 Tm1 3.238714 1_555
In8 Pd8 2.780963 1_554
In8 Pd7 2.781584 1_555
In8 Pd2 2.876690 1_665
In8 Tm6 3.159609 1_665
In8 Tm7 3.161750 1_655
In8 Tm0 3.219443 1_555
In8 Tm9 3.320424 1_665
In8 Tm1 3.381329 1_555
In9 Pd9 2.780529 1_555
In9 Pd6 2.781182 1_555
In9 Pd3 2.877988 1_565
In9 Tm5 3.160211 1_555
In9 Tm8 3.161672 1_566
In9 Tm0 3.220423 1_556
In9 Tm9 3.320856 1_666
In9 Tm2 3.382293 1_555
In10 Pd9 2.780967 1_554
In10 Pd7 2.781603 1_555
In10 Pd4 2.876692 1_665
In10 Tm6 3.159616 1_665
In10 Tm8 3.161743 1_565
In10 Tm0 3.219450 1_555
In10 Tm9 3.320429 1_665
In10 Tm3 3.381324 1_555
In11 Pd8 2.780526 1_555
In11 Pd6 2.781178 1_555
In11 Pd5 2.877971 1_655
In11 Tm5 3.160203 1_555
In11 Tm7 3.161661 1_656
In11 Tm0 3.220448 1_556
In11 Tm9 3.320860 1_666
In11 Tm4 3.382296 1_555
In12 Pd4 2.788438 1_555
In12 Pd2 2.788460 1_555
In12 Pd7 2.861252 1_555
In12 Tm3 3.095915 1_555
In12 Tm1 3.095925 1_555
In12 In7 3.133910 1_555
In12 Tm9 3.308015 1_555
In12 Tm0 3.315683 1_555
In12 Tm6 3.462431 1_555
In12 Tm5 3.531747 1_555
In13 Pd3 2.788898 1_455
In13 Pd5 2.788911 1_545
In13 Pd6 2.860119 1_555
In13 Tm2 3.096537 1_555
In13 Tm4 3.096552 1_555
In13 In6 3.134352 1_445
In13 Tm9 3.309143 1_556
In13 Tm0 3.315343 1_556
In13 Tm5 3.462423 1_445
In13 Tm6 3.531754 1_555
In14 Pd4 2.787712 1_555
In14 Pd3 2.788159 1_454
In14 Pd9 2.862617 1_554
In14 Tm3 3.095032 1_555
In14 Tm2 3.097088 1_554
In14 In2 3.134023 1_454
In14 In5 3.135172 1_455
In14 Tm9 3.308282 1_555
In14 Tm0 3.316501 1_555
In14 Tm8 3.461312 1_455
In14 Tm7 3.530432 1_555
In15 Pd2 2.787712 1_555
In15 Pd5 2.788157 1_544
In15 Pd8 2.862600 1_554
In15 Tm1 3.095028 1_555
In15 Tm4 3.097087 1_554
In15 In3 3.134031 1_544
In15 In4 3.135182 1_545
In15 Tm9 3.308280 1_555
In15 Tm0 3.316487 1_555
In15 Tm7 3.461313 1_545
In15 Tm8 3.530435 1_555
In16 Pd2 2.738032 1_565
In16 Pd1 2.785426 1_565
In16 Pd0 2.785760 1_555
In16 Tm4 3.424635 1_565
In16 Tm3 3.424963 1_555
In17 Pd3 2.737340 1_565
In17 Pd0 2.784343 1_555
In17 Pd1 2.785676 1_565
In17 Tm4 3.423847 1_565
In17 Tm3 3.425952 1_555
In18 Pd4 2.738038 1_655
In18 Pd0 2.785464 1_655
In18 Pd1 2.785800 1_555
In18 Tm2 3.424640 1_655
In18 Tm1 3.424963 1_555
In19 Pd5 2.737353 1_655
In19 Pd1 2.784386 1_555
In19 Pd0 2.785728 1_655
In19 Tm2 3.423845 1_655
In19 Tm1 3.425945 1_555
Pd0 Tm2 3.647109 1_555
Pd0 Tm1 3.648757 1_455
Pd1 Tm4 3.647085 1_555
Pd1 Tm3 3.648710 1_545
Pd2 Tm9 2.925274 1_555
Pd2 Tm7 3.071119 1_545
Pd2 Tm6 3.071903 1_555
Pd2 Tm1 3.459660 1_555
Pd3 Tm9 2.926822 1_656
Pd3 Tm5 3.071750 1_545
Pd3 Tm8 3.072304 1_556
Pd3 Tm2 3.458385 1_655
Pd4 Tm9 2.925271 1_555
Pd4 Tm8 3.071129 1_455
Pd4 Tm6 3.071904 1_555
Pd4 Tm3 3.459662 1_555
Pd5 Tm9 2.926824 1_566
Pd5 Tm5 3.071751 1_455
Pd5 Tm7 3.072304 1_556
Pd5 Tm4 3.458380 1_565
Pd6 Tm6 2.998498 1_555
Pd6 Tm4 3.016944 1_555
Pd6 Tm2 3.016975 1_555
Pd6 Tm0 3.179938 1_556
Pd6 Tm5 3.243582 1_555
Pd7 Tm5 2.998436 1_555
Pd7 Tm1 3.015585 1_555
Pd7 Tm3 3.015618 1_555
Pd7 Tm0 3.179751 1_555
Pd7 Tm6 3.242452 1_665
Pd8 Tm8 2.999436 1_556
Pd8 Tm1 3.015631 1_556
Pd8 Tm4 3.016073 1_555
Pd8 Tm0 3.178281 1_556
Pd8 Tm7 3.242316 1_656
Pd9 Tm7 2.999413 1_556
Pd9 Tm3 3.015635 1_556
Pd9 Tm2 3.016080 1_555
Pd9 Tm0 3.178315 1_556
Pd9 Tm8 3.242293 1_566
