# generated using pymatgen
data_Sr5(PtN3)2
_symmetry_space_group_name_H-M   'P 1'
_cell_length_a   6.41933030
_cell_length_b   7.36064503
_cell_length_c   12.79083926
_cell_angle_alpha   89.99999818
_cell_angle_beta   102.02255141
_cell_angle_gamma   124.98197483
_symmetry_Int_Tables_number   1
_chemical_formula_structural   Sr5(PtN3)2
_chemical_formula_sum   'Sr10 Pt4 N12'
_cell_volume   478.91248913
_cell_formula_units_Z   2
loop_
 _symmetry_equiv_pos_site_id
 _symmetry_equiv_pos_as_xyz
  1  'x, y, z'
loop_
 _atom_site_type_symbol
 _atom_site_label
 _atom_site_symmetry_multiplicity
 _atom_site_fract_x
 _atom_site_fract_y
 _atom_site_fract_z
 _atom_site_occupancy
  Sr  Sr0  1  0.12420400  0.80704200  0.00023200  1
  Sr  Sr1  1  0.87579600  0.68283800  0.49976800  1
  Sr  Sr2  1  0.87579600  0.19295800  0.99976800  1
  Sr  Sr3  1  0.12420400  0.31716200  0.50023200  1
  Sr  Sr4  1  0.32844100  0.04800600  0.72549700  1
  Sr  Sr5  1  0.67155900  0.71956500  0.77450300  1
  Sr  Sr6  1  0.67155900  0.95199400  0.27450300  1
  Sr  Sr7  1  0.32844100  0.28043500  0.22549700  1
  Sr  Sr8  1  0.00000000  0.38731100  0.75000000  1
  Sr  Sr9  1  0.00000000  0.61268900  0.25000000  1
  Pt  Pt0  1  0.53001200  0.82445800  0.54739200  1
  Pt  Pt1  1  0.46998800  0.29444600  0.95260800  1
  Pt  Pt2  1  0.46998800  0.17554200  0.45260800  1
  Pt  Pt3  1  0.53001200  0.70555400  0.04739200  1
  N  N0  1  0.89635300  0.00161700  0.62471400  1
  N  N1  1  0.10364700  0.10526300  0.87528600  1
  N  N2  1  0.10364700  0.99838300  0.37528600  1
  N  N3  1  0.89635300  0.89473700  0.12471400  1
  N  N4  1  0.26999300  0.68488100  0.63228300  1
  N  N5  1  0.73000700  0.41488800  0.86771700  1
  N  N6  1  0.73000700  0.31511900  0.36771700  1
  N  N7  1  0.26999300  0.58511200  0.13228300  1
  N  N8  1  0.57540100  0.31548000  0.59876500  1
  N  N9  1  0.42459900  0.74007800  0.90123500  1
  N  N10  1  0.42459900  0.68452000  0.40123500  1
  N  N11  1  0.57540100  0.25992200  0.09876500  1
loop_
_geom_bond_atom_site_label_1
_geom_bond_atom_site_label_2
_geom_bond_distance
_geom_bond_site_symmetry_2
N0 Pt0 1.929694 1_545
N0 Sr4 2.626085 1_655
N0 Sr3 2.672816 1_655
N0 Sr1 2.763028 1_545
N0 Sr5 2.789238 1_545
N0 Sr8 2.908670 1_655
N1 Pt1 1.929694 1_555
N1 Sr5 2.626082 1_445
N1 Sr2 2.672820 1_455
N1 Sr0 2.763022 1_546
N1 Sr4 2.789235 1_555
N1 Sr8 2.908676 1_555
N2 Pt2 1.929694 1_565
N2 Sr6 2.626085 1_455
N2 Sr1 2.672816 1_455
N2 Sr3 2.763028 1_565
N2 Sr7 2.789238 1_565
N2 Sr9 2.908670 1_555
N3 Pt3 1.929694 1_555
N3 Sr7 2.626082 1_665
N3 Sr0 2.672820 1_655
N3 Sr2 2.763022 1_564
N3 Sr6 2.789235 1_555
N3 Sr9 2.908676 1_655
N4 Pt0 1.951745 1_555
N4 Sr8 2.608214 1_555
N4 Sr5 2.703923 1_555
N4 Sr4 2.714794 1_565
N4 Sr1 2.728747 1_455
N4 Sr3 2.737086 1_555
N5 Pt1 1.951745 1_555
N5 Sr8 2.608214 1_655
N5 Sr4 2.703923 1_555
N5 Sr5 2.714794 1_555
N5 Sr0 2.728748 1_656
N5 Sr2 2.737086 1_555
N6 Pt2 1.951745 1_555
N6 Sr9 2.608214 1_655
N6 Sr7 2.703923 1_555
N6 Sr6 2.714794 1_545
N6 Sr3 2.728747 1_655
N6 Sr1 2.737086 1_555
N7 Pt3 1.951745 1_555
N7 Sr9 2.608214 1_555
N7 Sr6 2.703923 1_555
N7 Sr7 2.714794 1_555
N7 Sr2 2.728748 1_454
N7 Sr0 2.737086 1_555
N8 Pt2 1.920305 1_555
N8 Sr4 2.551225 1_555
N8 Sr8 2.757122 1_655
N8 Sr1 2.769814 1_555
N8 Sr3 2.915131 1_555
N9 Pt3 1.920302 1_556
N9 Sr5 2.551222 1_555
N9 Sr8 2.757120 1_555
N9 Sr0 2.769818 1_556
N9 Sr2 2.915136 1_565
N10 Pt0 1.920305 1_555
N10 Sr6 2.551225 1_555
N10 Sr9 2.757122 1_555
N10 Sr3 2.769814 1_555
N10 Sr1 2.915131 1_555
N11 Pt1 1.920302 1_554
N11 Sr7 2.551222 1_555
N11 Sr9 2.757120 1_655
N11 Sr2 2.769818 1_554
N11 Sr0 2.915136 1_545
