# generated using pymatgen
data_Li(CoO2)4
_symmetry_space_group_name_H-M   'P 1'
_cell_length_a   5.65164356
_cell_length_b   8.28330465
_cell_length_c   5.97592090
_cell_angle_alpha   86.14412458
_cell_angle_beta   90.10523957
_cell_angle_gamma   89.89017882
_symmetry_Int_Tables_number   1
_chemical_formula_structural   Li(CoO2)4
_chemical_formula_sum   'Li2 Co8 O16'
_cell_volume   279.12414035
_cell_formula_units_Z   2
loop_
 _symmetry_equiv_pos_site_id
 _symmetry_equiv_pos_as_xyz
  1  'x, y, z'
loop_
 _atom_site_type_symbol
 _atom_site_label
 _atom_site_symmetry_multiplicity
 _atom_site_fract_x
 _atom_site_fract_y
 _atom_site_fract_z
 _atom_site_occupancy
  Li  Li0  1  0.49999800  0.99999900  0.00000100  1
  Li  Li1  1  0.99999900  0.50000100  0.49999900  1
  Co  Co0  1  0.75061300  0.24709400  0.25176100  1
  Co  Co1  1  0.24938700  0.75290600  0.74823900  1
  Co  Co2  1  0.24851100  0.24707800  0.25204800  1
  Co  Co3  1  0.75148900  0.75292200  0.74795300  1
  Co  Co4  1  0.00000000  0.50000100  0.00000000  1
  Co  Co5  1  0.50000100  0.99999800  0.49999900  1
  Co  Co6  1  0.00000100  0.99999900  0.50000000  1
  Co  Co7  1  0.49999900  0.50000200  0.00000300  1
  O  O0  1  0.99955800  0.26843000  0.04101600  1
  O  O1  1  0.50002300  0.77172600  0.53768600  1
  O  O2  1  0.00044200  0.73157000  0.95898900  1
  O  O3  1  0.49997800  0.22827300  0.46230900  1
  O  O4  1  0.23633700  0.47637400  0.22265500  1
  O  O5  1  0.74582200  0.98087500  0.71353800  1
  O  O6  1  0.49931500  0.25545400  0.04438400  1
  O  O7  1  0.00033900  0.76748200  0.53869200  1
  O  O8  1  0.76188500  0.47705200  0.22136400  1
  O  O9  1  0.25438300  0.98069900  0.71364500  1
  O  O10  1  0.23811300  0.52294900  0.77863600  1
  O  O11  1  0.74562000  0.01929900  0.28635300  1
  O  O12  1  0.50068300  0.74454900  0.95561200  1
  O  O13  1  0.99966300  0.23251400  0.46131300  1
  O  O14  1  0.76366200  0.52362800  0.77734500  1
  O  O15  1  0.25417800  0.01912300  0.28646100  1
loop_
_geom_bond_atom_site_label_1
_geom_bond_atom_site_label_2
_geom_bond_distance
_geom_bond_site_symmetry_2
Li0 O12 2.150157 1_554
Li0 O6 2.150191 1_565
Li0 O9 2.215789 1_554
Li0 O11 2.215795 1_565
Li0 O15 2.220371 1_565
Li0 O5 2.220400 1_554
Li1 O4 2.149436 1_655
Li1 O14 2.149442 1_555
Li1 O8 2.157549 1_555
Li1 O10 2.157558 1_655
Li1 O7 2.243076 1_655
Li1 O13 2.243118 1_555
Co0 O13 1.880549 1_555
Co0 O6 1.881302 1_555
Co0 O11 1.884587 1_555
Co0 O0 1.890593 1_555
Co0 O3 1.896022 1_555
Co0 O8 1.902455 1_555
Co1 O7 1.880520 1_555
Co1 O12 1.881278 1_555
Co1 O9 1.884571 1_555
Co1 O2 1.890613 1_555
Co1 O1 1.896046 1_555
Co1 O10 1.902447 1_555
Co2 O13 1.882343 1_455
Co2 O6 1.883956 1_555
Co2 O15 1.885793 1_555
Co2 O0 1.887814 1_455
Co2 O3 1.894504 1_555
Co2 O4 1.896740 1_555
Co3 O7 1.882335 1_655
Co3 O12 1.883945 1_555
Co3 O5 1.885777 1_555
Co3 O2 1.887830 1_655
Co3 O1 1.894523 1_555
Co3 O14 1.896723 1_555
Co4 O4 1.884207 1_555
Co4 O14 1.884211 1_454
Co4 O10 1.889647 1_554
Co4 O8 1.889655 1_455
Co4 O2 1.917339 1_554
Co4 O0 1.917357 1_455
Co5 O5 1.883904 1_555
Co5 O15 1.883909 1_565
Co5 O9 1.887447 1_555
Co5 O11 1.887452 1_565
Co5 O1 1.889113 1_555
Co5 O3 1.889138 1_565
Co6 O9 1.920267 1_555
Co6 O11 1.920270 1_465
Co6 O15 1.922890 1_565
Co6 O5 1.922895 1_455
Co6 O13 1.924318 1_465
Co6 O7 1.924336 1_555
Co7 O8 1.983582 1_555
Co7 O10 1.983604 1_554
Co7 O4 2.000629 1_555
Co7 O14 2.000656 1_554
Co7 O12 2.025200 1_554
Co7 O6 2.025205 1_555
