# generated using pymatgen
data_Sr2MgTi6N2O11
_symmetry_space_group_name_H-M   'P 1'
_cell_length_a   3.91746600
_cell_length_b   7.89843750
_cell_length_c   9.90815874
_cell_angle_alpha   75.19948892
_cell_angle_beta   89.99828518
_cell_angle_gamma   75.63936778
_symmetry_Int_Tables_number   1
_chemical_formula_structural   Sr2MgTi6N2O11
_chemical_formula_sum   'Sr2 Mg1 Ti6 N2 O11'
_cell_volume   286.48632598
_cell_formula_units_Z   1
loop_
 _symmetry_equiv_pos_site_id
 _symmetry_equiv_pos_as_xyz
  1  'x, y, z'
loop_
 _atom_site_type_symbol
 _atom_site_label
 _atom_site_symmetry_multiplicity
 _atom_site_fract_x
 _atom_site_fract_y
 _atom_site_fract_z
 _atom_site_occupancy
  Sr  Sr0  1  0.57029300  0.85638500  0.70974100  1
  Sr  Sr1  1  0.42223100  0.15253400  0.30345400  1
  Mg  Mg0  1  0.49575700  0.00550900  0.01262800  1
  Ti  Ti0  1  0.13927900  0.71838300  0.05124000  1
  Ti  Ti1  1  0.15572200  0.68546000  0.41212800  1
  Ti  Ti2  1  0.25052500  0.49594900  0.75003800  1
  Ti  Ti3  1  0.74252700  0.51192400  0.24224200  1
  Ti  Ti4  1  0.84101700  0.31487800  0.58219200  1
  Ti  Ti5  1  0.85592400  0.28512600  0.95905700  1
  N  N0  1  0.21577900  0.56540400  0.24659800  1
  N  N1  1  0.82732100  0.34232100  0.12334900  1
  O  O0  1  0.03938900  0.91810700  0.32581700  1
  O  O1  1  0.13952300  0.71799700  0.61043300  1
  O  O2  1  0.16973300  0.65750100  0.88259000  1
  O  O3  1  0.62664400  0.74368300  0.06834300  1
  O  O4  1  0.68716800  0.62257100  0.42852900  1
  O  O5  1  0.77200500  0.45301200  0.75479500  1
  O  O6  1  0.31162400  0.37373900  0.58701400  1
  O  O7  1  0.36725500  0.26239300  0.91797600  1
  O  O8  1  0.85761800  0.28173900  0.40270200  1
  O  O9  1  0.95536900  0.08599100  0.68173400  1
  O  O10  1  0.99795700  0.00107200  0.00924100  1
loop_
_geom_bond_atom_site_label_1
_geom_bond_atom_site_label_2
_geom_bond_distance
_geom_bond_site_symmetry_2
Mg0 O3 1.932642 1_545
Mg0 O7 1.941879 1_554
Mg0 O10 1.959393 1_555
Mg0 O10 1.959543 1_455
N0 Ti0 1.980396 1_555
N0 Ti3 2.003797 1_455
N0 Ti3 2.003828 1_555
N0 Ti1 2.080469 1_555
N1 Ti5 1.793616 1_554
N1 Ti3 1.969280 1_555
N1 Sr1 2.786221 1_555
N1 Sr1 2.786315 1_655
O0 Ti1 1.759934 1_555
O0 Sr1 2.625375 1_465
O0 Sr1 2.625785 1_565
O1 Ti2 1.886962 1_555
O1 Ti1 2.044637 1_555
O1 Sr0 2.544652 1_555
O1 Sr0 2.544766 1_455
O2 Ti0 1.849275 1_556
O2 Ti2 2.027090 1_555
O2 Sr0 2.776874 1_455
O2 Sr0 2.776889 1_555
O3 Ti0 1.979861 1_655
O3 Ti0 1.980001 1_555
O3 Ti3 2.121824 1_555
O4 Ti1 2.013290 1_555
O4 Ti1 2.013302 1_655
O4 Ti3 2.224350 1_555
O4 Ti4 2.443494 1_555
O5 Ti2 1.984563 1_655
O5 Ti2 1.984632 1_555
O5 Ti5 2.091680 1_555
O5 Ti4 2.234977 1_555
O5 Sr0 2.999821 1_555
O6 Ti4 2.013074 1_555
O6 Ti4 2.013394 1_455
O6 Ti2 2.068836 1_555
O6 Ti1 2.551865 1_555
O7 Ti5 2.017249 1_455
O7 Ti5 2.017555 1_555
O7 Ti2 2.096239 1_555
O8 Ti4 1.861418 1_555
O8 Ti3 2.037906 1_555
O8 Sr1 2.508713 1_655
O8 Sr1 2.508750 1_555
O9 Ti4 1.768916 1_555
O9 Sr0 2.596431 1_545
O9 Sr0 2.597065 1_645
O10 Ti0 2.092174 1_645
O10 Ti5 2.097930 1_554
