# generated using pymatgen
data_BaMg14Mo
_symmetry_space_group_name_H-M   'P 1'
_cell_length_a   6.53665226
_cell_length_b   6.53665170
_cell_length_c   10.37723067
_cell_angle_alpha   90.00000000
_cell_angle_beta   90.00000000
_cell_angle_gamma   120.00000282
_symmetry_Int_Tables_number   1
_chemical_formula_structural   BaMg14Mo
_chemical_formula_sum   'Ba1 Mg14 Mo1'
_cell_volume   383.99256587
_cell_formula_units_Z   1
loop_
 _symmetry_equiv_pos_site_id
 _symmetry_equiv_pos_as_xyz
  1  'x, y, z'
loop_
 _atom_site_type_symbol
 _atom_site_label
 _atom_site_symmetry_multiplicity
 _atom_site_fract_x
 _atom_site_fract_y
 _atom_site_fract_z
 _atom_site_occupancy
  Ba  Ba0  1  0.16666700  0.33333300  0.12500000  1
  Mg  Mg0  1  0.18079983  0.84039942  0.12500000  1
  Mg  Mg1  1  0.15857049  0.82928475  0.62500000  1
  Mg  Mg2  1  0.65960058  0.31920017  0.12500000  1
  Mg  Mg3  1  0.67071525  0.34142951  0.62500000  1
  Mg  Mg4  1  0.65960058  0.84039942  0.12500000  1
  Mg  Mg5  1  0.67071525  0.82928475  0.62500000  1
  Mg  Mg6  1  0.33286116  0.16713884  0.39970130  1
  Mg  Mg7  1  0.33286116  0.16713884  0.85029870  1
  Mg  Mg8  1  0.33286116  0.66572333  0.39970130  1
  Mg  Mg9  1  0.33286116  0.66572333  0.85029870  1
  Mg  Mg10  1  0.83427667  0.16713884  0.39970130  1
  Mg  Mg11  1  0.83427667  0.16713884  0.85029870  1
  Mg  Mg12  1  0.83333300  0.66666700  0.36592260  1
  Mg  Mg13  1  0.83333300  0.66666700  0.88407740  1
  Mo  Mo0  1  0.16666700  0.33333300  0.62500000  1
loop_
_geom_bond_atom_site_label_1
_geom_bond_atom_site_label_2
_geom_bond_distance
_geom_bond_site_symmetry_2
Ba0 Mg0 3.269305 1_545
Ba0 Mg4 3.269305 1_555
Ba0 Mg4 3.269305 1_445
Ba0 Mg0 3.269305 1_555
Ba0 Mg2 3.269305 1_555
Ba0 Mg2 3.269305 1_455
Ba0 Mg7 3.415645 1_554
Ba0 Mg6 3.415645 1_555
Ba0 Mg8 3.415651 1_555
Ba0 Mg9 3.415651 1_554
Ba0 Mg10 3.415652 1_455
Ba0 Mg11 3.415652 1_454
Mg0 Mg2 3.129754 1_565
Mg0 Mg4 3.129754 1_555
Mg0 Mg12 3.181124 1_455
Mg0 Mg13 3.181124 1_454
Mg0 Mg8 3.398932 1_555
Mg0 Mg9 3.398932 1_554
Mg0 Mg6 3.398938 1_565
Mg0 Mg7 3.398938 1_564
Mg0 Mg2 3.406898 1_455
Mg0 Mg4 3.406898 1_455
Mg1 Mg9 3.020796 1_555
Mg1 Mg8 3.020796 1_555
Mg1 Mg7 3.020803 1_565
Mg1 Mg6 3.020803 1_565
Mg1 Mg3 3.188940 1_455
Mg1 Mg5 3.188940 1_455
Mg1 Mg13 3.258505 1_455
Mg1 Mg12 3.258505 1_455
Mg1 Mo0 3.268647 1_565
Mg1 Mo0 3.268647 1_555
Mg1 Mg3 3.347712 1_565
Mg1 Mg5 3.347712 1_555
Mg2 Mg4 3.129754 1_545
Mg2 Mg6 3.398938 1_555
Mg2 Mg7 3.398938 1_554
Mg2 Mg4 3.406898 1_555
Mg3 Mg6 3.020803 1_555
Mg3 Mg7 3.020803 1_555
Mg3 Mg5 3.188940 1_555
Mg3 Mo0 3.268647 1_555
Mg3 Mo0 3.268648 1_655
Mg3 Mg5 3.347712 1_545
Mg4 Mg8 3.398938 1_555
Mg4 Mg9 3.398938 1_554
Mg5 Mg8 3.020803 1_555
Mg5 Mg9 3.020803 1_555
Mg5 Mo0 3.268647 1_665
Mg5 Mo0 3.268647 1_555
Mg6 Mo0 3.001104 1_555
Mg7 Mo0 3.001104 1_555
Mg8 Mo0 3.001111 1_555
Mg9 Mo0 3.001111 1_555
Mg10 Mo0 3.001111 1_655
Mg10 Mg3 3.020796 1_555
Mg10 Mg5 3.020803 1_545
Mg10 Mg12 3.287074 1_555
Mg10 Mg12 3.287074 1_545
Mg10 Mg2 3.398932 1_555
Mg10 Mg4 3.398937 1_545
Mg11 Mo0 3.001111 1_655
Mg11 Mg3 3.020796 1_555
Mg11 Mg5 3.020803 1_545
Mg11 Mg13 3.287074 1_555
Mg11 Mg13 3.287074 1_545
Mg11 Mg2 3.398932 1_556
Mg11 Mg4 3.398937 1_546
Mg12 Mg4 3.181117 1_555
Mg12 Mg2 3.181123 1_555
Mg12 Mg5 3.258499 1_555
Mg12 Mg3 3.258505 1_555
Mg12 Mg6 3.287074 1_665
Mg12 Mg6 3.287074 1_555
Mg12 Mg8 3.287074 1_655
Mg12 Mg8 3.287074 1_555
Mg13 Mg4 3.181117 1_556
Mg13 Mg2 3.181123 1_556
Mg13 Mg5 3.258499 1_555
Mg13 Mg3 3.258505 1_555
Mg13 Mg7 3.287074 1_665
Mg13 Mg7 3.287074 1_555
Mg13 Mg9 3.287074 1_655
Mg13 Mg9 3.287074 1_555
