# generated using pymatgen
data_CaFe2(PO4)2
_symmetry_space_group_name_H-M   'P 1'
_cell_length_a   9.10227172
_cell_length_b   9.10227172
_cell_length_c   16.95686224
_cell_angle_alpha   63.17755244
_cell_angle_beta   63.17755244
_cell_angle_gamma   32.23924192
_symmetry_Int_Tables_number   1
_chemical_formula_structural   CaFe2(PO4)2
_chemical_formula_sum   'Ca4 Fe8 P8 O32'
_cell_volume   661.63775872
_cell_formula_units_Z   4
loop_
 _symmetry_equiv_pos_site_id
 _symmetry_equiv_pos_as_xyz
  1  'x, y, z'
loop_
 _atom_site_type_symbol
 _atom_site_label
 _atom_site_symmetry_multiplicity
 _atom_site_fract_x
 _atom_site_fract_y
 _atom_site_fract_z
 _atom_site_occupancy
  Ca  Ca0  1  0.16741800  0.51927300  0.14113900  1
  Ca  Ca1  1  0.48072700  0.83258200  0.35886100  1
  Ca  Ca2  1  0.51927300  0.16741800  0.64113900  1
  Ca  Ca3  1  0.83258200  0.48072700  0.85886100  1
  Fe  Fe0  1  0.37727400  0.80650300  0.03894200  1
  Fe  Fe1  1  0.19349700  0.62272600  0.46105800  1
  Fe  Fe2  1  0.62272600  0.19349700  0.96105800  1
  Fe  Fe3  1  0.00000000  0.50000000  0.00000000  1
  Fe  Fe4  1  0.80650300  0.37727400  0.53894200  1
  Fe  Fe5  1  0.66057600  0.33942400  0.75000000  1
  Fe  Fe6  1  0.33942400  0.66057600  0.25000000  1
  Fe  Fe7  1  0.50000000  0.00000000  0.50000000  1
  P  P0  1  0.48468700  0.94725000  0.13144000  1
  P  P1  1  0.80391300  0.22650700  0.38855800  1
  P  P2  1  0.51531300  0.05275000  0.86856000  1
  P  P3  1  0.22650700  0.80391300  0.88855800  1
  P  P4  1  0.94725000  0.48468700  0.63144000  1
  P  P5  1  0.05275000  0.51531300  0.36856000  1
  P  P6  1  0.19608700  0.77349300  0.61144200  1
  P  P7  1  0.77349300  0.19608700  0.11144200  1
  O  O0  1  0.19542400  0.29890500  0.89497600  1
  O  O1  1  0.65505200  0.17980800  0.07241400  1
  O  O2  1  0.29890500  0.19542400  0.39497600  1
  O  O3  1  0.64067200  0.20004800  0.46058500  1
  O  O4  1  0.64312100  0.79822200  0.94691500  1
  O  O5  1  0.65842800  0.43292300  0.30552700  1
  O  O6  1  0.79995200  0.35932800  0.03941500  1
  O  O7  1  0.92913900  0.11188900  0.86681100  1
  O  O8  1  0.35932800  0.79995200  0.53941500  1
  O  O9  1  0.82019200  0.34494800  0.42758600  1
  O  O10  1  0.63164100  0.11777000  0.85689400  1
  O  O11  1  0.04726300  0.39337600  0.71452700  1
  O  O12  1  0.34494800  0.82019200  0.92758600  1
  O  O13  1  0.11188900  0.92913900  0.36681100  1
  O  O14  1  0.80457600  0.70109500  0.10502400  1
  O  O15  1  0.36835900  0.88223000  0.14310600  1
  O  O16  1  0.39337600  0.04726300  0.21452700  1
  O  O17  1  0.20004800  0.64067200  0.96058500  1
  O  O18  1  0.11777000  0.63164100  0.35689400  1
  O  O19  1  0.95273700  0.60662400  0.28547300  1
  O  O20  1  0.88811100  0.07086100  0.63318900  1
  O  O21  1  0.79822200  0.64312100  0.44691500  1
  O  O22  1  0.07086100  0.88811100  0.13318900  1
  O  O23  1  0.43292300  0.65842800  0.80552700  1
  O  O24  1  0.17980800  0.65505200  0.57241400  1
  O  O25  1  0.70109500  0.80457600  0.60502400  1
  O  O26  1  0.60662400  0.95273700  0.78547300  1
  O  O27  1  0.20177800  0.35687900  0.55308500  1
  O  O28  1  0.35687900  0.20177800  0.05308500  1
  O  O29  1  0.56707700  0.34157200  0.19447300  1
  O  O30  1  0.34157200  0.56707700  0.69447300  1
  O  O31  1  0.88223000  0.36835900  0.64310600  1
loop_
_geom_bond_atom_site_label_1
_geom_bond_atom_site_label_2
_geom_bond_distance
_geom_bond_site_symmetry_2
Ca0 O19 2.291826 1_455
Ca0 O14 2.384517 1_455
Ca0 O1 2.446932 1_555
Ca0 O28 2.587396 1_555
Ca0 O22 2.601696 1_555
Ca0 O16 2.602697 1_555
Ca0 O17 2.713721 1_554
Ca0 O29 2.891855 1_555
Ca1 O16 2.291826 1_565
Ca1 O2 2.384517 1_565
Ca1 O9 2.446932 1_555
Ca1 O21 2.587396 1_555
Ca1 O13 2.601696 1_555
Ca1 O19 2.602697 1_555
Ca1 O8 2.713721 1_555
Ca1 O5 2.891855 1_555
Ca2 O26 2.291826 1_545
Ca2 O25 2.384517 1_545
Ca2 O24 2.446932 1_555
Ca2 O27 2.587396 1_555
Ca2 O20 2.601696 1_555
Ca2 O11 2.602697 1_555
Ca2 O3 2.713721 1_555
Ca2 O30 2.891855 1_555
Ca3 O11 2.291826 1_655
Ca3 O0 2.384517 1_655
Ca3 O12 2.446932 1_555
Ca3 O4 2.587396 1_555
Ca3 O7 2.601696 1_555
Ca3 O26 2.602697 1_555
Ca3 O6 2.713721 1_556
Ca3 O23 2.891855 1_555
Fe0 O12 1.973484 1_554
Fe0 O22 2.104462 1_555
Fe0 O15 2.115716 1_555
Fe0 O4 2.164751 1_554
Fe0 O6 2.208344 1_555
Fe1 O24 1.973484 1_555
Fe1 O13 2.104462 1_555
Fe1 O18 2.115716 1_555
Fe1 O27 2.164751 1_555
Fe1 O3 2.208344 1_555
Fe2 O1 1.973484 1_556
Fe2 O7 2.104462 1_555
Fe2 O10 2.115716 1_555
Fe2 O28 2.164751 1_556
Fe2 O17 2.208344 1_555
Fe3 O28 2.061063 1_555
Fe3 O4 2.061063 1_454
Fe3 O14 2.064244 1_455
Fe3 O0 2.064244 1_554
Fe4 O9 1.973484 1_555
Fe4 O20 2.104462 1_555
Fe4 O31 2.115716 1_555
Fe4 O21 2.164751 1_555
Fe4 O8 2.208344 1_555
Fe5 O30 2.034635 1_555
Fe5 O23 2.034635 1_555
Fe5 O10 2.143169 1_555
Fe5 O31 2.143169 1_555
Fe5 O7 2.508281 1_555
Fe5 O20 2.508281 1_555
Fe6 O5 2.034635 1_555
Fe6 O29 2.034635 1_555
Fe6 O18 2.143169 1_555
Fe6 O15 2.143169 1_555
Fe6 O22 2.508281 1_555
Fe6 O13 2.508281 1_555
Fe7 O27 2.061063 1_555
Fe7 O21 2.061063 1_545
Fe7 O25 2.064244 1_545
Fe7 O2 2.064244 1_555
O0 P2 1.546410 1_555
O1 P7 1.620120 1_555
O2 P5 1.546410 1_555
O3 P1 1.568331 1_555
O4 P2 1.594919 1_565
O5 P1 1.533750 1_555
O6 P7 1.568331 1_555
O7 P3 1.566142 1_645
O8 P6 1.568331 1_555
O9 P1 1.620120 1_555
O10 P2 1.508630 1_555
O11 P4 1.524883 1_455
O12 P3 1.620120 1_555
O13 P1 1.566142 1_465
O14 P0 1.546410 1_555
O15 P0 1.508630 1_555
O16 P0 1.524883 1_545
O17 P3 1.568331 1_555
O18 P5 1.508630 1_555
O19 P5 1.524883 1_655
O20 P6 1.566142 1_645
O21 P5 1.594919 1_655
O22 P7 1.566142 1_465
O23 P3 1.533750 1_555
O24 P6 1.620120 1_555
O25 P4 1.546410 1_555
O26 P2 1.524883 1_565
O27 P4 1.594919 1_455
O28 P0 1.594919 1_545
O29 P7 1.533750 1_555
O30 P6 1.533750 1_555
O31 P4 1.508630 1_555
