# generated using pymatgen
data_RbVH6SeO9
_symmetry_space_group_name_H-M   'P 1'
_cell_length_a   10.23088000
_cell_length_b   6.47393500
_cell_length_c   6.91049565
_cell_angle_alpha   71.23389755
_cell_angle_beta   90.00000000
_cell_angle_gamma   90.00000000
_symmetry_Int_Tables_number   1
_chemical_formula_structural   RbVH6SeO9
_chemical_formula_sum   'Rb2 V2 H12 Se2 O18'
_cell_volume   433.37814587
_cell_formula_units_Z   2
loop_
 _symmetry_equiv_pos_site_id
 _symmetry_equiv_pos_as_xyz
  1  'x, y, z'
loop_
 _atom_site_type_symbol
 _atom_site_label
 _atom_site_symmetry_multiplicity
 _atom_site_fract_x
 _atom_site_fract_y
 _atom_site_fract_z
 _atom_site_occupancy
  Rb  Rb0  1  0.15200600  0.31379300  0.18032000  1
  Rb  Rb1  1  0.65200600  0.68620700  0.81968000  1
  V  V0  1  0.99781100  0.62129000  0.60457100  1
  V  V1  1  0.49781100  0.37871000  0.39542900  1
  H  H0  1  0.20448100  0.77621000  0.30890400  1
  H  H1  1  0.70448100  0.22379000  0.69109600  1
  H  H2  1  0.85184400  0.13841400  0.07551700  1
  H  H3  1  0.35184400  0.86158600  0.92448300  1
  H  H4  1  0.85848400  0.97909300  0.29908700  1
  H  H5  1  0.35848400  0.02090700  0.70091300  1
  H  H6  1  0.26028600  0.68602300  0.72816300  1
  H  H7  1  0.76028600  0.31397700  0.27183700  1
  H  H8  1  0.07508600  0.81173800  0.18295900  1
  H  H9  1  0.57508600  0.18826200  0.81704100  1
  H  H10  1  0.75982200  0.52690700  0.34651200  1
  H  H11  1  0.25982200  0.47309300  0.65348800  1
  Se  Se0  1  0.99863200  0.07697300  0.73170300  1
  Se  Se1  1  0.49863200  0.92302700  0.26829700  1
  O  O0  1  0.44225800  0.46112800  0.15788200  1
  O  O1  1  0.94225800  0.53887200  0.84211800  1
  O  O2  1  0.36167900  0.31321800  0.54049400  1
  O  O3  1  0.86167900  0.68678200  0.45950600  1
  O  O4  1  0.70488900  0.43656400  0.28631800  1
  O  O5  1  0.20488900  0.56343600  0.71368200  1
  O  O6  1  0.61533800  0.28514500  0.68972500  1
  O  O7  1  0.11533800  0.71485500  0.31027500  1
  O  O8  1  0.05106800  0.92830900  0.58323500  1
  O  O9  1  0.55106800  0.07169100  0.41676500  1
  O  O10  1  0.03397200  0.33080400  0.56892000  1
  O  O11  1  0.53397200  0.66919600  0.43108000  1
  O  O12  1  0.08533300  0.01933000  0.94337400  1
  O  O13  1  0.58533300  0.98067000  0.05662600  1
  O  O14  1  0.33978300  0.94822600  0.21954400  1
  O  O15  1  0.83978300  0.05177400  0.78045600  1
  O  O16  1  0.86322900  0.13566200  0.21685200  1
  O  O17  1  0.36322900  0.86433800  0.78314800  1
loop_
_geom_bond_atom_site_label_1
_geom_bond_atom_site_label_2
_geom_bond_distance
_geom_bond_site_symmetry_2
H0 O7 0.993583 1_555
H1 O6 0.993583 1_555
H2 O16 0.978070 1_555
H3 O17 0.978070 1_555
H4 O16 0.991012 1_565
H5 O17 0.991012 1_545
H6 O5 1.006063 1_555
H7 O4 1.006063 1_555
H8 O7 0.990964 1_555
H9 O6 0.990964 1_555
H10 O4 0.993732 1_555
H11 O5 0.993732 1_555
O0 V1 1.654966 1_555
O0 Rb0 3.107542 1_555
O0 Rb1 3.162160 1_554
O1 V0 1.654966 1_555
O1 Rb1 3.107542 1_555
O1 Rb0 3.162160 1_656
O2 V1 1.688489 1_555
O2 Rb0 3.284920 1_555
O3 V0 1.688489 1_555
O3 Rb1 3.284920 1_555
O4 V1 2.239539 1_555
O4 Rb1 3.154390 1_554
O5 V0 2.239539 1_455
O5 Rb0 3.154390 1_556
O6 V1 2.270712 1_555
O6 Rb1 3.031346 1_555
O7 V0 2.270712 1_455
O7 Rb0 3.031346 1_555
O8 Se0 1.703548 1_465
O8 V0 2.020074 1_455
O8 Rb0 3.252108 1_565
O9 Se1 1.703548 1_545
O9 V1 2.020074 1_555
O9 Rb1 3.252108 1_545
O10 Se0 1.705039 1_455
O10 V0 2.008053 1_455
O10 Rb0 2.978617 1_555
O11 Se1 1.705039 1_555
O11 V1 2.008053 1_555
O11 Rb1 2.978617 1_555
O12 Se0 1.647576 1_455
O12 Rb0 2.964610 1_556
O13 Se1 1.647576 1_555
O13 Rb1 2.964610 1_554
O14 Se1 1.657081 1_555
O14 Rb0 2.992074 1_565
O15 Se0 1.657081 1_555
O15 Rb1 2.992074 1_545
O16 Rb0 3.151989 1_655
O17 Rb1 3.151989 1_555
