# generated using pymatgen
data_Mo2P3O13
_symmetry_space_group_name_H-M   'P 1'
_cell_length_a   9.02272213
_cell_length_b   9.17916109
_cell_length_c   9.00861726
_cell_angle_alpha   106.06856421
_cell_angle_beta   69.32759922
_cell_angle_gamma   68.91176310
_symmetry_Int_Tables_number   1
_chemical_formula_structural   Mo2P3O13
_chemical_formula_sum   'Mo4 P6 O26'
_cell_volume   577.44106646
_cell_formula_units_Z   2
loop_
 _symmetry_equiv_pos_site_id
 _symmetry_equiv_pos_as_xyz
  1  'x, y, z'
loop_
 _atom_site_type_symbol
 _atom_site_label
 _atom_site_symmetry_multiplicity
 _atom_site_fract_x
 _atom_site_fract_y
 _atom_site_fract_z
 _atom_site_occupancy
  Mo  Mo0  1  0.82706200  0.83323300  0.15641700  1
  Mo  Mo1  1  0.67048100  0.34834700  0.67056300  1
  Mo  Mo2  1  0.17293800  0.16676700  0.84358300  1
  Mo  Mo3  1  0.32951900  0.65165300  0.32943700  1
  P  P0  1  0.43676600  0.73990000  0.65212800  1
  P  P1  1  0.56323400  0.26010000  0.34787200  1
  P  P2  1  0.74969600  0.51390500  0.99467000  1
  P  P3  1  0.25030400  0.48609500  0.00533000  1
  P  P4  1  0.06324700  0.85169700  0.76378200  1
  P  P5  1  0.93675300  0.14830300  0.23621800  1
  O  O0  1  0.91074500  0.84682200  0.89627900  1
  O  O1  1  0.28810500  0.29757700  0.94270100  1
  O  O2  1  0.77184200  0.44369700  0.80342100  1
  O  O3  1  0.40382100  0.92535500  0.74252000  1
  O  O4  1  0.45507800  0.69920000  0.46426500  1
  O  O5  1  0.59617900  0.07464500  0.25748000  1
  O  O6  1  0.72600300  0.16165400  0.69266500  1
  O  O7  1  0.88892400  0.24738500  0.43440300  1
  O  O8  1  0.11107600  0.75261500  0.56559700  1
  O  O9  1  0.42330800  0.48796400  0.88404600  1
  O  O10  1  0.08925500  0.15317800  0.10372100  1
  O  O11  1  0.27399700  0.83834600  0.30733500  1
  O  O12  1  0.23258300  0.18926700  0.65435100  1
  O  O13  1  0.75056100  0.25849000  0.23655900  1
  O  O14  1  0.24943900  0.74151000  0.76344100  1
  O  O15  1  0.54492200  0.30080000  0.53573500  1
  O  O16  1  0.08350000  0.60780000  0.00536300  1
  O  O17  1  0.71189500  0.70242300  0.05729900  1
  O  O18  1  0.96402300  0.96443700  0.19912500  1
  O  O19  1  0.76741700  0.81073300  0.34564900  1
  O  O20  1  0.91650000  0.39220000  0.99463700  1
  O  O21  1  0.57669200  0.51203600  0.11595400  1
  O  O22  1  0.03597700  0.03556300  0.80087500  1
  O  O23  1  0.59030900  0.59690800  0.64658600  1
  O  O24  1  0.22815800  0.55630300  0.19657900  1
  O  O25  1  0.40969100  0.40309200  0.35341400  1
loop_
_geom_bond_atom_site_label_1
_geom_bond_atom_site_label_2
_geom_bond_distance
_geom_bond_site_symmetry_2
Mo0 O19 1.692774 1_555
Mo0 O16 2.063979 1_655
Mo0 O18 2.067786 1_555
Mo0 O17 2.068395 1_555
Mo0 O5 2.073936 1_565
Mo0 O0 2.248967 1_554
Mo1 O6 1.693769 1_555
Mo1 O2 1.950355 1_555
Mo1 O9 1.966047 1_555
Mo1 O7 1.975658 1_555
Mo1 O15 1.995765 1_555
Mo1 O23 2.229574 1_555
Mo2 O12 1.692774 1_555
Mo2 O20 2.063979 1_455
Mo2 O22 2.067786 1_555
Mo2 O1 2.068395 1_555
Mo2 O3 2.073936 1_545
Mo2 O10 2.248967 1_556
Mo3 O11 1.693769 1_555
Mo3 O24 1.950355 1_555
Mo3 O21 1.966047 1_555
Mo3 O8 1.975658 1_555
Mo3 O4 1.995765 1_555
Mo3 O25 2.229574 1_555
O0 P4 1.494763 1_655
O1 P3 1.525786 1_556
O2 P2 1.572646 1_555
O3 P0 1.531973 1_555
O4 P0 1.561790 1_555
O5 P1 1.531973 1_555
O7 P5 1.573419 1_555
O8 P4 1.573419 1_555
O9 P3 1.567215 1_556
O10 P5 1.494763 1_455
O13 P5 1.617764 1_555
O13 P1 1.624715 1_555
O14 P4 1.617764 1_555
O14 P0 1.624715 1_555
O15 P1 1.561790 1_555
O16 P3 1.517471 1_555
O17 P2 1.525786 1_554
O18 P5 1.533484 1_565
O20 P2 1.517471 1_555
O21 P2 1.567215 1_554
O22 P4 1.533484 1_545
O23 P0 1.500303 1_555
O24 P3 1.572646 1_555
O25 P1 1.500303 1_555
