# generated using pymatgen
data_Li6V5SbO12
_symmetry_space_group_name_H-M   'P 1'
_cell_length_a   5.31670663
_cell_length_b   21.02196178
_cell_length_c   5.31641726
_cell_angle_alpha   94.84562959
_cell_angle_beta   61.11965706
_cell_angle_gamma   85.13425851
_symmetry_Int_Tables_number   1
_chemical_formula_structural   Li6V5SbO12
_chemical_formula_sum   'Li12 V10 Sb2 O24'
_cell_volume   513.04114126
_cell_formula_units_Z   2
loop_
 _symmetry_equiv_pos_site_id
 _symmetry_equiv_pos_as_xyz
  1  'x, y, z'
loop_
 _atom_site_type_symbol
 _atom_site_label
 _atom_site_symmetry_multiplicity
 _atom_site_fract_x
 _atom_site_fract_y
 _atom_site_fract_z
 _atom_site_occupancy
  Li  Li0  1  0.76343000  0.35620500  0.23737600  1
  Li  Li1  1  0.76228700  0.85610000  0.23714000  1
  Li  Li2  1  0.23706500  0.14384900  0.76215200  1
  Li  Li3  1  0.23704700  0.64380900  0.76368900  1
  Li  Li4  1  0.56874800  0.14262700  0.09934800  1
  Li  Li5  1  0.56975800  0.64284900  0.09913900  1
  Li  Li6  1  0.09913400  0.35713000  0.56967500  1
  Li  Li7  1  0.09941600  0.85732300  0.56891600  1
  Li  Li8  1  0.90125900  0.14293400  0.43003300  1
  Li  Li9  1  0.90012100  0.64259100  0.43149700  1
  Li  Li10  1  0.43171800  0.35746400  0.90010200  1
  Li  Li11  1  0.43024600  0.85705300  0.90084000  1
  V  V0  1  0.49984600  0.74988100  0.50009500  1
  V  V1  1  0.17021500  0.74986300  0.17075700  1
  V  V2  1  0.82954800  0.74991100  0.82951900  1
  V  V3  1  0.66506500  0.00013000  0.66531600  1
  V  V4  1  0.66539400  0.50005500  0.66548200  1
  V  V5  1  0.50025500  0.25008500  0.49974200  1
  V  V6  1  0.17074600  0.25017600  0.16995200  1
  V  V7  1  0.82979200  0.25012700  0.82949700  1
  V  V8  1  0.33448300  0.99998200  0.33461600  1
  V  V9  1  0.33480800  0.49996000  0.33492800  1
  Sb  Sb0  1  0.00049200  0.99991100  0.00059200  1
  Sb  Sb1  1  0.99937200  0.50006900  0.99957000  1
  O  O0  1  0.88019700  0.19642900  0.11972500  1
  O  O1  1  0.87970700  0.69618100  0.12033800  1
  O  O2  1  0.12037100  0.30375700  0.87965200  1
  O  O3  1  0.11999300  0.80358800  0.87988800  1
  O  O4  1  0.70872400  0.44797900  0.27793900  1
  O  O5  1  0.72195100  0.94791800  0.29169200  1
  O  O6  1  0.29118100  0.05203700  0.72219700  1
  O  O7  1  0.27777200  0.55209900  0.70858000  1
  O  O8  1  0.65053500  0.05124400  0.02153800  1
  O  O9  1  0.63748700  0.55168600  0.04752700  1
  O  O10  1  0.04727100  0.44834000  0.63786100  1
  O  O11  1  0.02133100  0.94873100  0.65053900  1
  O  O12  1  0.95263200  0.05168300  0.36218800  1
  O  O13  1  0.97853800  0.55129100  0.34952300  1
  O  O14  1  0.34945000  0.44878400  0.97855100  1
  O  O15  1  0.36244600  0.94831100  0.95263700  1
  O  O16  1  0.45689400  0.30637300  0.19563700  1
  O  O17  1  0.45634700  0.80632400  0.19599800  1
  O  O18  1  0.19616600  0.19363700  0.45616200  1
  O  O19  1  0.19563200  0.69362800  0.45691500  1
  O  O20  1  0.80415900  0.30652500  0.54330000  1
  O  O21  1  0.80411400  0.80612900  0.54342300  1
  O  O22  1  0.54355600  0.19378700  0.80401200  1
  O  O23  1  0.54334300  0.69345700  0.80416500  1
loop_
_geom_bond_atom_site_label_1
_geom_bond_atom_site_label_2
_geom_bond_distance
_geom_bond_site_symmetry_2
Li0 O4 1.904498 1_555
Li0 O2 2.058750 1_654
Li0 O20 2.090848 1_555
Li0 O16 2.098203 1_555
Li1 O5 1.905487 1_555
Li1 O3 2.059931 1_654
Li1 O17 2.093400 1_555
Li1 O21 2.098469 1_555
Li2 O6 1.905403 1_555
Li2 O0 2.059290 1_456
Li2 O18 2.092812 1_555
Li2 O22 2.099517 1_555
Li3 O7 1.903179 1_555
Li3 O1 2.056591 1_456
Li3 O23 2.092001 1_555
Li3 O19 2.098001 1_555
Li4 O8 1.897608 1_555
Li4 O22 2.025809 1_554
Li4 O18 2.082919 1_555
Li4 O0 2.122073 1_555
Li5 O9 1.891109 1_555
Li5 O23 2.019923 1_554
Li5 O19 2.087125 1_555
Li5 O1 2.111100 1_555
Li6 O10 1.892153 1_555
Li6 O20 2.020190 1_455
Li6 O16 2.086714 1_555
Li6 O2 2.111414 1_555
Li7 O11 1.898127 1_555
Li7 O21 2.027097 1_455
Li7 O17 2.083933 1_555
Li7 O3 2.119083 1_555
Li8 O12 1.893024 1_555
Li8 O18 2.020568 1_655
Li8 O22 2.087158 1_555
Li8 O0 2.114074 1_555
Li9 O13 1.896025 1_555
Li9 O19 2.025938 1_655
Li9 O23 2.081982 1_555
Li9 O1 2.117786 1_555
Li10 O14 1.896492 1_555
Li10 O16 2.025820 1_556
Li10 O20 2.082010 1_555
Li10 O2 2.120573 1_555
Li11 O15 1.893057 1_555
Li11 O17 2.021584 1_556
Li11 O21 2.086784 1_555
Li11 O3 2.113628 1_555
O0 V7 2.090268 1_554
O0 V6 2.092313 1_655
O0 V5 2.172742 1_555
O1 V1 2.091768 1_655
O1 V2 2.092750 1_554
O1 V0 2.172285 1_555
O2 V6 2.089068 1_556
O2 V7 2.090825 1_455
O2 V5 2.172480 1_555
O3 V2 2.091306 1_455
O3 V1 2.093060 1_556
O3 V0 2.172403 1_555
O4 Sb1 2.031986 1_554
O4 V9 2.057123 1_555
O4 V4 2.148068 1_555
O5 Sb0 2.032078 1_655
O5 V3 2.058346 1_565
O5 V8 2.148256 1_555
O6 Sb0 2.032644 1_546
O6 V3 2.056508 1_555
O6 V8 2.148117 1_545
O7 Sb1 2.032023 1_455
O7 V9 2.057508 1_555
O7 V4 2.148418 1_555
O8 Sb0 2.019343 1_645
O8 V3 2.061051 1_554
O8 V8 2.159587 1_545
O9 Sb1 2.017319 1_554
O9 V9 2.075836 1_555
O9 V4 2.152817 1_554
O10 Sb1 2.017917 1_455
O10 V9 2.075284 1_555
O10 V4 2.153202 1_455
O11 Sb0 2.018812 1_556
O11 V3 2.063065 1_465
O11 V8 2.159302 1_555
O12 Sb0 2.017892 1_645
O12 V3 2.074914 1_555
O12 V8 2.153071 1_645
O13 Sb1 2.018769 1_554
O13 V9 2.062886 1_655
O13 V4 2.159171 1_555
O14 Sb1 2.019265 1_455
O14 V9 2.062064 1_556
O14 V4 2.159428 1_555
O15 Sb0 2.017475 1_556
O15 V3 2.076791 1_565
O15 V8 2.152737 1_556
O16 V6 2.051135 1_555
O16 V7 2.145558 1_554
O16 V5 2.168904 1_555
O17 V1 2.053699 1_555
O17 V2 2.148404 1_554
O17 V0 2.171131 1_555
O18 V6 2.055038 1_555
O18 V7 2.149133 1_455
O18 V5 2.171762 1_555
O19 V1 2.050750 1_555
O19 V2 2.145061 1_455
O19 V0 2.168969 1_555
O20 V7 2.053524 1_555
O20 V6 2.148455 1_655
O20 V5 2.170783 1_555
O21 V2 2.050286 1_555
O21 V1 2.145101 1_655
O21 V0 2.169478 1_555
O22 V7 2.053025 1_555
O22 V6 2.146105 1_556
O22 V5 2.169636 1_555
O23 V2 2.054150 1_555
O23 V1 2.148425 1_556
O23 V0 2.170766 1_555
