# generated using pymatgen
data_Ba10Si69
_symmetry_space_group_name_H-M   'P 1'
_cell_length_a   10.34011045
_cell_length_b   10.36212107
_cell_length_c   31.17410789
_cell_angle_alpha   90.00000000
_cell_angle_beta   90.00000000
_cell_angle_gamma   90.00000000
_symmetry_Int_Tables_number   1
_chemical_formula_structural   Ba10Si69
_chemical_formula_sum   'Ba20 Si138'
_cell_volume   3340.16463997
_cell_formula_units_Z   2
loop_
 _symmetry_equiv_pos_site_id
 _symmetry_equiv_pos_as_xyz
  1  'x, y, z'
loop_
 _atom_site_type_symbol
 _atom_site_label
 _atom_site_symmetry_multiplicity
 _atom_site_fract_x
 _atom_site_fract_y
 _atom_site_fract_z
 _atom_site_occupancy
  Ba  Ba0  1  0.50000000  0.50000000  0.16649968  1
  Ba  Ba1  1  0.50000000  0.50000000  0.50012939  1
  Ba  Ba2  1  0.50000000  0.00000000  0.24862995  1
  Ba  Ba3  1  0.50000000  0.00000000  0.58317267  1
  Ba  Ba4  1  0.50000000  0.00000000  0.91670892  1
  Ba  Ba5  1  0.00000000  0.25294880  0.16658956  1
  Ba  Ba6  1  0.00000000  0.25297872  0.50004267  1
  Ba  Ba7  1  0.00000000  0.25034167  0.83336919  1
  Ba  Ba8  1  0.74983733  0.50000000  0.99914622  1
  Ba  Ba9  1  0.74851696  0.50000000  0.33330201  1
  Ba  Ba10  1  0.74982237  0.50000000  0.66754740  1
  Ba  Ba11  1  0.50000000  0.00000000  0.08349890  1
  Ba  Ba12  1  0.50000000  0.00000000  0.41796484  1
  Ba  Ba13  1  0.50000000  0.00000000  0.74999707  1
  Ba  Ba14  1  0.00000000  0.74705120  0.16658956  1
  Ba  Ba15  1  0.00000000  0.74702128  0.50004267  1
  Ba  Ba16  1  0.00000000  0.74965833  0.83336919  1
  Ba  Ba17  1  0.25016267  0.50000000  0.99914622  1
  Ba  Ba18  1  0.25148304  0.50000000  0.33330201  1
  Ba  Ba19  1  0.25017763  0.50000000  0.66754740  1
  Si  Si0  1  0.00000000  0.50000000  0.25182351  1
  Si  Si1  1  0.00000000  0.50000000  0.58480883  1
  Si  Si2  1  0.00000000  0.50000000  0.91673820  1
  Si  Si3  1  0.50000000  0.24843616  0.99948045  1
  Si  Si4  1  0.50000000  0.24670228  0.33333248  1
  Si  Si5  1  0.50000000  0.24842728  0.66718732  1
  Si  Si6  1  0.75270619  0.00000000  0.16686186  1
  Si  Si7  1  0.75269347  0.00000000  0.49981047  1
  Si  Si8  1  0.75032923  0.00000000  0.83334730  1
  Si  Si9  1  0.00000000  0.50000000  0.08187447  1
  Si  Si10  1  0.00000000  0.50000000  0.41482295  1
  Si  Si11  1  0.00000000  0.50000000  0.74993177  1
  Si  Si12  1  0.50000000  0.75156384  0.99948045  1
  Si  Si13  1  0.50000000  0.75329772  0.33333248  1
  Si  Si14  1  0.50000000  0.75157272  0.66718732  1
  Si  Si15  1  0.24729381  0.00000000  0.16686186  1
  Si  Si16  1  0.24730653  0.00000000  0.49981047  1
  Si  Si17  1  0.24967077  0.00000000  0.83334730  1
  Si  Si18  1  0.62318955  0.19341607  0.16657248  1
  Si  Si19  1  0.62316669  0.19344695  0.50008237  1
  Si  Si20  1  0.62100404  0.19655865  0.83333997  1
  Si  Si21  1  0.80652671  0.50000000  0.20771798  1
  Si  Si22  1  0.80670113  0.50000000  0.54079658  1
  Si  Si23  1  0.80434067  0.50000000  0.87395596  1
  Si  Si24  1  0.50000000  0.37972638  0.26902977  1
  Si  Si25  1  0.50000000  0.37767810  0.60266771  1
  Si  Si26  1  0.50000000  0.37679190  0.93481769  1
  Si  Si27  1  0.37681045  0.80658393  0.16657248  1
  Si  Si28  1  0.37683331  0.80655305  0.50008237  1
  Si  Si29  1  0.37899596  0.80344135  0.83333997  1
  Si  Si30  1  0.19330512  0.50000000  0.12587188  1
  Si  Si31  1  0.19348135  0.50000000  0.45894498  1
  Si  Si32  1  0.19564115  0.50000000  0.79271905  1
  Si  Si33  1  0.50000000  0.62232337  0.06400746  1
  Si  Si34  1  0.50000000  0.62026271  0.39762049  1
  Si  Si35  1  0.50000000  0.62318621  0.73185869  1
  Si  Si36  1  0.62318955  0.80658393  0.16657248  1
  Si  Si37  1  0.62316669  0.80655305  0.50008237  1
  Si  Si38  1  0.62100404  0.80344135  0.83333997  1
  Si  Si39  1  0.80669488  0.50000000  0.12587188  1
  Si  Si40  1  0.80651865  0.50000000  0.45894498  1
  Si  Si41  1  0.80435885  0.50000000  0.79271905  1
  Si  Si42  1  0.37681045  0.19341607  0.16657248  1
  Si  Si43  1  0.37683331  0.19344695  0.50008237  1
  Si  Si44  1  0.37899596  0.19655865  0.83333997  1
  Si  Si45  1  0.19347329  0.50000000  0.20771798  1
  Si  Si46  1  0.19329887  0.50000000  0.54079658  1
  Si  Si47  1  0.19565933  0.50000000  0.87395596  1
  Si  Si48  1  0.50000000  0.62027362  0.26902977  1
  Si  Si49  1  0.50000000  0.62232190  0.60266771  1
  Si  Si50  1  0.50000000  0.62320810  0.93481769  1
  Si  Si51  1  0.50000000  0.37767663  0.06400746  1
  Si  Si52  1  0.50000000  0.37973729  0.39762049  1
  Si  Si53  1  0.50000000  0.37681379  0.73185869  1
  Si  Si54  1  0.12075006  0.00000000  0.23206635  1
  Si  Si55  1  0.12000436  0.00000000  0.56550966  1
  Si  Si56  1  0.12328446  0.00000000  0.89862908  1
  Si  Si57  1  0.30316943  0.11935762  -0.00000834  1
  Si  Si58  1  0.30427848  0.11866121  0.33332462  1
  Si  Si59  1  0.30318822  0.11939265  0.66668577  1
  Si  Si60  1  0.00000000  0.30570599  0.29314171  1
  Si  Si61  1  0.00000000  0.30509732  0.62637390  1
  Si  Si62  1  0.00000000  0.30413833  0.95953446  1
  Si  Si63  1  0.87999705  0.00000000  0.10115428  1
  Si  Si64  1  0.87927749  0.00000000  0.43458601  1
  Si  Si65  1  0.87675146  0.00000000  0.76804842  1
  Si  Si66  1  0.69683057  0.88064238  -0.00000834  1
  Si  Si67  1  0.69572152  0.88133879  0.33332462  1
  Si  Si68  1  0.69681178  0.88060735  0.66668577  1
  Si  Si69  1  0.00000000  0.69492810  0.04029267  1
  Si  Si70  1  0.00000000  0.69428730  0.37351095  1
  Si  Si71  1  0.00000000  0.69584454  0.70714429  1
  Si  Si72  1  0.12000295  0.00000000  0.10115428  1
  Si  Si73  1  0.12072251  0.00000000  0.43458601  1
  Si  Si74  1  0.12324854  0.00000000  0.76804842  1
  Si  Si75  1  0.30316943  0.88064238  -0.00000834  1
  Si  Si76  1  0.30427848  0.88133879  0.33332462  1
  Si  Si77  1  0.30318822  0.88060735  0.66668577  1
  Si  Si78  1  0.87924994  0.00000000  0.23206635  1
  Si  Si79  1  0.87999564  0.00000000  0.56550966  1
  Si  Si80  1  0.87671554  0.00000000  0.89862908  1
  Si  Si81  1  0.69683057  0.11935762  -0.00000834  1
  Si  Si82  1  0.69572152  0.11866121  0.33332462  1
  Si  Si83  1  0.69681178  0.11939265  0.66668577  1
  Si  Si84  1  0.00000000  0.30507190  0.04029267  1
  Si  Si85  1  0.00000000  0.30571270  0.37351095  1
  Si  Si86  1  0.00000000  0.30415546  0.70714429  1
  Si  Si87  1  0.00000000  0.69429401  0.29314171  1
  Si  Si88  1  0.00000000  0.69490268  0.62637390  1
  Si  Si89  1  0.00000000  0.69586167  0.95953446  1
  Si  Si90  1  0.68799923  0.31359875  0.22896759  1
  Si  Si91  1  0.68753778  0.31342542  0.56204077  1
  Si  Si92  1  0.68423784  0.31578888  0.89483970  1
  Si  Si93  1  0.31246042  0.68659423  0.10462484  1
  Si  Si94  1  0.31200524  0.68641622  0.43769568  1
  Si  Si95  1  0.31577117  0.68419465  0.77183645  1
  Si  Si96  1  0.68753958  0.68659423  0.10462484  1
  Si  Si97  1  0.68799476  0.68641622  0.43769568  1
  Si  Si98  1  0.68422883  0.68419465  0.77183645  1
  Si  Si99  1  0.31200077  0.31359875  0.22896759  1
  Si  Si100  1  0.31246222  0.31342542  0.56204077  1
  Si  Si101  1  0.31576216  0.31578888  0.89483970  1
  Si  Si102  1  0.31200077  0.68640125  0.22896759  1
  Si  Si103  1  0.31246222  0.68657458  0.56204077  1
  Si  Si104  1  0.31576216  0.68421112  0.89483970  1
  Si  Si105  1  0.68753958  0.31340577  0.10462484  1
  Si  Si106  1  0.68799476  0.31358378  0.43769568  1
  Si  Si107  1  0.68422883  0.31580535  0.77183645  1
  Si  Si108  1  0.31246042  0.31340577  0.10462484  1
  Si  Si109  1  0.31200524  0.31358378  0.43769568  1
  Si  Si110  1  0.31577117  0.31580535  0.77183645  1
  Si  Si111  1  0.68799923  0.68640125  0.22896759  1
  Si  Si112  1  0.68753778  0.68657458  0.56204077  1
  Si  Si113  1  0.68423784  0.68421112  0.89483970  1
  Si  Si114  1  0.18176088  0.18207119  0.27250466  1
  Si  Si115  1  0.18197732  0.18207842  0.60573315  1
  Si  Si116  1  0.18425161  0.18405009  0.93843587  1
  Si  Si117  1  0.81801362  0.81793802  0.06094040  1
  Si  Si118  1  0.81823100  0.81792248  0.39415298  1
  Si  Si119  1  0.81575529  0.81592616  0.72823903  1
  Si  Si120  1  0.18198638  0.81793802  0.06094040  1
  Si  Si121  1  0.18176900  0.81792248  0.39415298  1
  Si  Si122  1  0.18424471  0.81592616  0.72823903  1
  Si  Si123  1  0.81823912  0.18207119  0.27250466  1
  Si  Si124  1  0.81802268  0.18207842  0.60573315  1
  Si  Si125  1  0.81574839  0.18405009  0.93843587  1
  Si  Si126  1  0.81801362  0.18206198  0.06094040  1
  Si  Si127  1  0.81823100  0.18207752  0.39415298  1
  Si  Si128  1  0.81575529  0.18407384  0.72823903  1
  Si  Si129  1  0.18176088  0.81792881  0.27250466  1
  Si  Si130  1  0.18197732  0.81792158  0.60573315  1
  Si  Si131  1  0.18425161  0.81594991  0.93843587  1
  Si  Si132  1  0.81823912  0.81792881  0.27250466  1
  Si  Si133  1  0.81802268  0.81792158  0.60573315  1
  Si  Si134  1  0.81574839  0.81594991  0.93843587  1
  Si  Si135  1  0.18198638  0.18206198  0.06094040  1
  Si  Si136  1  0.18176900  0.18207752  0.39415298  1
  Si  Si137  1  0.18424471  0.18407384  0.72823903  1
loop_
_geom_bond_atom_site_label_1
_geom_bond_atom_site_label_2
_geom_bond_distance
_geom_bond_site_symmetry_2
Ba0 Si93 3.349555 1_555
Ba0 Si108 3.349555 1_555
Ba0 Si96 3.349555 1_555
Ba0 Si105 3.349555 1_555
Ba0 Si111 3.361831 1_555
Ba0 Si102 3.361831 1_555
Ba0 Si90 3.361831 1_555
Ba0 Si99 3.361831 1_555
Ba0 Si30 3.414820 1_555
Ba0 Si39 3.414820 1_555
Ba0 Si21 3.420079 1_555
Ba0 Si45 3.420079 1_555
Ba0 Si18 3.422717 1_555
Ba0 Si42 3.422717 1_555
Ba0 Si27 3.422717 1_555
Ba0 Si36 3.422717 1_555
Ba0 Si48 3.430666 1_555
Ba0 Si24 3.430666 1_555
Ba0 Si51 3.437342 1_555
Ba0 Si33 3.437342 1_555
Ba1 Si100 3.350082 1_555
Ba1 Si91 3.350082 1_555
Ba1 Si112 3.350082 1_555
Ba1 Si103 3.350082 1_555
Ba1 Si109 3.361276 1_555
Ba1 Si94 3.361276 1_555
Ba1 Si106 3.361276 1_555
Ba1 Si97 3.361276 1_555
Ba1 Si22 3.415336 1_555
Ba1 Si46 3.415336 1_555
Ba1 Si31 3.419605 1_555
Ba1 Si40 3.419605 1_555
Ba1 Si28 3.422332 1_555
Ba1 Si43 3.422332 1_555
Ba1 Si37 3.422332 1_555
Ba1 Si19 3.422332 1_555
Ba1 Si34 3.430010 1_555
Ba1 Si52 3.430010 1_555
Ba1 Si49 3.438672 1_555
Ba1 Si25 3.438672 1_555
Ba2 Si27 3.490428 1_545
Ba2 Si36 3.490428 1_545
Ba2 Si18 3.490428 1_555
Ba2 Si42 3.490428 1_555
Ba2 Si76 3.546639 1_545
Ba2 Si67 3.546639 1_545
Ba2 Si58 3.546639 1_555
Ba2 Si82 3.546639 1_555
Ba2 Si15 3.650406 1_555
Ba2 Si6 3.650406 1_555
Ba2 Si13 3.675234 1_545
Ba2 Si4 3.675234 1_555
Ba2 Si99 3.835903 1_555
Ba2 Si90 3.835903 1_555
Ba2 Si111 3.835903 1_545
Ba2 Si102 3.835903 1_545
Ba2 Si129 3.865436 1_545
Ba2 Si132 3.865436 1_545
Ba2 Si114 3.865436 1_555
Ba2 Si123 3.865436 1_555
Ba2 Si78 3.955335 1_555
Ba2 Si54 3.955335 1_555
Ba2 Si48 3.985831 1_545
Ba2 Si24 3.985831 1_555
Ba3 Si28 3.514190 1_545
Ba3 Si37 3.514190 1_545
Ba3 Si19 3.514190 1_555
Ba3 Si43 3.514190 1_555
Ba3 Si59 3.528449 1_555
Ba3 Si83 3.528449 1_555
Ba3 Si77 3.528449 1_545
Ba3 Si68 3.528449 1_545
Ba3 Si5 3.672365 1_555
Ba3 Si14 3.672365 1_545
Ba3 Si7 3.685186 1_555
Ba3 Si16 3.685186 1_555
Ba3 Si112 3.839559 1_545
Ba3 Si103 3.839559 1_545
Ba3 Si100 3.839559 1_555
Ba3 Si91 3.839559 1_555
Ba3 Si133 3.855885 1_545
Ba3 Si130 3.855885 1_545
Ba3 Si124 3.855885 1_555
Ba3 Si115 3.855885 1_555
Ba3 Si25 3.960454 1_555
Ba3 Si49 3.960454 1_545
Ba3 Si79 3.967591 1_555
Ba3 Si55 3.967591 1_555
Ba4 Si75 3.523138 1_546
Ba4 Si57 3.523138 1_556
Ba4 Si81 3.523138 1_556
Ba4 Si66 3.523138 1_546
Ba4 Si20 3.531070 1_555
Ba4 Si38 3.531070 1_545
Ba4 Si44 3.531070 1_555
Ba4 Si29 3.531070 1_545
Ba4 Si12 3.644893 1_545
Ba4 Si3 3.644893 1_555
Ba4 Si17 3.667880 1_555
Ba4 Si8 3.667880 1_555
Ba4 Si131 3.841273 1_545
Ba4 Si134 3.841273 1_545
Ba4 Si116 3.841273 1_555
Ba4 Si125 3.841273 1_555
Ba4 Si113 3.847276 1_545
Ba4 Si104 3.847276 1_545
Ba4 Si101 3.847276 1_555
Ba4 Si92 3.847276 1_555
Ba4 Si56 3.935845 1_555
Ba4 Si80 3.935845 1_555
Ba4 Si26 3.944964 1_555
Ba4 Si50 3.944964 1_545
Ba5 Si39 3.487101 1_455
Ba5 Si30 3.487101 1_555
Ba5 Si45 3.492778 1_555
Ba5 Si21 3.492778 1_455
Ba5 Si63 3.545550 1_455
Ba5 Si72 3.545550 1_555
Ba5 Si78 3.549005 1_455
Ba5 Si54 3.549005 1_555
Ba5 Si15 3.661782 1_555
Ba5 Si6 3.661782 1_455
Ba5 Si9 3.678031 1_555
Ba5 Si0 3.689662 1_555
Ba5 Si108 3.816079 1_555
Ba5 Si105 3.816079 1_455
Ba5 Si99 3.818929 1_555
Ba5 Si90 3.818929 1_455
Ba5 Si126 3.863655 1_455
Ba5 Si135 3.863655 1_555
Ba5 Si123 3.869573 1_455
Ba5 Si114 3.869573 1_555
Ba5 Si18 3.944794 1_455
Ba5 Si42 3.944794 1_555
Ba5 Si84 3.974066 1_555
Ba5 Si60 3.982847 1_555
Ba6 Si46 3.487248 1_555
Ba6 Si22 3.487248 1_455
Ba6 Si40 3.492247 1_455
Ba6 Si31 3.492247 1_555
Ba6 Si79 3.546353 1_455
Ba6 Si55 3.546353 1_555
Ba6 Si73 3.548773 1_555
Ba6 Si64 3.548773 1_455
Ba6 Si7 3.662093 1_455
Ba6 Si16 3.662093 1_555
Ba6 Si1 3.678959 1_555
Ba6 Si10 3.689128 1_555
Ba6 Si91 3.816604 1_455
Ba6 Si100 3.816604 1_555
Ba6 Si106 3.818399 1_455
Ba6 Si109 3.818399 1_555
Ba6 Si115 3.864734 1_555
Ba6 Si124 3.864734 1_455
Ba6 Si136 3.868984 1_555
Ba6 Si127 3.868984 1_455
Ba6 Si19 3.945026 1_455
Ba6 Si43 3.945026 1_555
Ba6 Si61 3.975120 1_555
Ba6 Si85 3.982183 1_555
Ba7 Si47 3.519443 1_555
Ba7 Si23 3.519443 1_455
Ba7 Si41 3.520046 1_455
Ba7 Si32 3.520046 1_555
Ba7 Si80 3.534560 1_455
Ba7 Si56 3.534560 1_555
Ba7 Si74 3.535519 1_555
Ba7 Si65 3.535519 1_455
Ba7 Si8 3.659779 1_455
Ba7 Si17 3.659779 1_555
Ba7 Si2 3.667026 1_555
Ba7 Si11 3.668538 1_555
Ba7 Si101 3.846090 1_555
Ba7 Si92 3.846090 1_455
Ba7 Si107 3.847166 1_455
Ba7 Si110 3.847166 1_555
Ba7 Si125 3.850917 1_455
Ba7 Si116 3.850917 1_555
Ba7 Si128 3.852521 1_455
Ba7 Si137 3.852521 1_555
Ba7 Si44 3.958289 1_555
Ba7 Si20 3.958289 1_455
Ba7 Si62 3.972398 1_555
Ba7 Si86 3.974263 1_555
Ba8 Si50 3.510726 1_555
Ba8 Si26 3.510726 1_555
Ba8 Si62 3.512121 1_655
Ba8 Si89 3.512121 1_655
Ba8 Si51 3.516924 1_556
Ba8 Si33 3.516924 1_556
Ba8 Si69 3.523672 1_656
Ba8 Si84 3.523672 1_656
Ba8 Si2 3.645656 1_655
Ba8 Si9 3.652698 1_656
Ba8 Si12 3.669993 1_555
Ba8 Si3 3.669993 1_555
Ba8 Si92 3.831057 1_555
Ba8 Si113 3.831057 1_555
Ba8 Si125 3.842509 1_555
Ba8 Si134 3.842509 1_555
Ba8 Si96 3.868551 1_556
Ba8 Si105 3.868551 1_556
Ba8 Si126 3.880941 1_556
Ba8 Si117 3.880941 1_556
Ba8 Si23 3.943176 1_555
Ba8 Si81 3.982249 1_556
Ba8 Si66 3.982249 1_556
Ba8 Si39 3.994066 1_556
Ba9 Si48 3.488709 1_555
Ba9 Si24 3.488709 1_555
Ba9 Si34 3.489497 1_555
Ba9 Si52 3.489497 1_555
Ba9 Si60 3.518901 1_655
Ba9 Si87 3.518901 1_655
Ba9 Si70 3.519401 1_655
Ba9 Si85 3.519401 1_655
Ba9 Si0 3.635049 1_655
Ba9 Si10 3.635974 1_655
Ba9 Si4 3.673198 1_555
Ba9 Si13 3.673198 1_555
Ba9 Si111 3.834225 1_555
Ba9 Si90 3.834225 1_555
Ba9 Si106 3.835878 1_555
Ba9 Si97 3.835878 1_555
Ba9 Si123 3.868476 1_555
Ba9 Si132 3.868476 1_555
Ba9 Si118 3.869223 1_555
Ba9 Si127 3.869223 1_555
Ba9 Si21 3.960654 1_555
Ba9 Si40 3.962458 1_555
Ba9 Si82 3.989010 1_555
Ba9 Si67 3.989010 1_555
Ba10 Si53 3.510223 1_555
Ba10 Si35 3.510223 1_555
Ba10 Si86 3.511969 1_655
Ba10 Si71 3.511969 1_655
Ba10 Si49 3.517136 1_555
Ba10 Si25 3.517136 1_555
Ba10 Si61 3.523942 1_655
Ba10 Si88 3.523942 1_655
Ba10 Si11 3.645247 1_655
Ba10 Si1 3.653035 1_655
Ba10 Si14 3.669952 1_555
Ba10 Si5 3.669952 1_555
Ba10 Si98 3.830499 1_555
Ba10 Si107 3.830499 1_555
Ba10 Si128 3.842052 1_555
Ba10 Si119 3.842052 1_555
Ba10 Si91 3.869169 1_555
Ba10 Si112 3.869169 1_555
Ba10 Si133 3.881152 1_555
Ba10 Si124 3.881152 1_555
Ba10 Si41 3.942651 1_555
Ba10 Si68 3.981899 1_555
Ba10 Si83 3.981899 1_555
Ba10 Si22 3.994874 1_555
Ba11 Si18 3.513709 1_555
Ba11 Si42 3.513709 1_555
Ba11 Si27 3.513709 1_545
Ba11 Si36 3.513709 1_545
Ba11 Si66 3.528299 1_545
Ba11 Si57 3.528299 1_555
Ba11 Si75 3.528299 1_545
Ba11 Si81 3.528299 1_555
Ba11 Si12 3.672514 1_544
Ba11 Si3 3.672514 1_554
Ba11 Si15 3.685296 1_555
Ba11 Si6 3.685296 1_555
Ba11 Si93 3.839365 1_545
Ba11 Si108 3.839365 1_555
Ba11 Si105 3.839365 1_555
Ba11 Si96 3.839365 1_545
Ba11 Si117 3.855710 1_545
Ba11 Si120 3.855710 1_545
Ba11 Si126 3.855710 1_555
Ba11 Si135 3.855710 1_555
Ba11 Si33 3.960421 1_545
Ba11 Si51 3.960421 1_555
Ba11 Si72 3.967573 1_555
Ba11 Si63 3.967573 1_555
Ba12 Si37 3.491897 1_545
Ba12 Si43 3.491897 1_555
Ba12 Si19 3.491897 1_555
Ba12 Si28 3.491897 1_545
Ba12 Si67 3.545376 1_545
Ba12 Si58 3.545376 1_555
Ba12 Si82 3.545376 1_555
Ba12 Si76 3.545376 1_545
Ba12 Si7 3.652000 1_555
Ba12 Si16 3.652000 1_555
Ba12 Si4 3.673663 1_555
Ba12 Si13 3.673663 1_545
Ba12 Si94 3.836090 1_545
Ba12 Si97 3.836090 1_545
Ba12 Si109 3.836090 1_555
Ba12 Si106 3.836090 1_555
Ba12 Si127 3.865020 1_555
Ba12 Si118 3.865020 1_545
Ba12 Si136 3.865020 1_555
Ba12 Si121 3.865020 1_545
Ba12 Si64 3.955852 1_555
Ba12 Si73 3.955852 1_555
Ba12 Si34 3.985667 1_545
Ba12 Si52 3.985667 1_555
Ba13 Si59 3.523810 1_555
Ba13 Si83 3.523810 1_555
Ba13 Si77 3.523810 1_545
Ba13 Si68 3.523810 1_545
Ba13 Si29 3.530472 1_545
Ba13 Si38 3.530472 1_545
Ba13 Si44 3.530472 1_555
Ba13 Si20 3.530472 1_555
Ba13 Si5 3.645672 1_555
Ba13 Si14 3.645672 1_545
Ba13 Si17 3.667629 1_555
Ba13 Si8 3.667629 1_555
Ba13 Si122 3.841627 1_545
Ba13 Si119 3.841627 1_545
Ba13 Si128 3.841627 1_555
Ba13 Si137 3.841627 1_555
Ba13 Si107 3.847211 1_555
Ba13 Si98 3.847211 1_545
Ba13 Si110 3.847211 1_555
Ba13 Si95 3.847211 1_545
Ba13 Si74 3.936086 1_555
Ba13 Si65 3.936086 1_555
Ba13 Si53 3.945321 1_555
Ba13 Si35 3.945321 1_545
Ba14 Si39 3.487101 1_455
Ba14 Si30 3.487101 1_555
Ba14 Si45 3.492778 1_555
Ba14 Si21 3.492778 1_455
Ba14 Si63 3.545550 1_465
Ba14 Si72 3.545550 1_565
Ba14 Si78 3.549005 1_465
Ba14 Si54 3.549005 1_565
Ba14 Si6 3.661782 1_465
Ba14 Si15 3.661782 1_565
Ba14 Si9 3.678031 1_555
Ba14 Si0 3.689662 1_555
Ba14 Si96 3.816079 1_455
Ba14 Si93 3.816079 1_555
Ba14 Si102 3.818929 1_555
Ba14 Si111 3.818929 1_455
Ba14 Si117 3.863655 1_455
Ba14 Si120 3.863655 1_555
Ba14 Si132 3.869573 1_455
Ba14 Si129 3.869573 1_555
Ba14 Si36 3.944794 1_455
Ba14 Si27 3.944794 1_555
Ba14 Si69 3.974066 1_555
Ba14 Si87 3.982847 1_555
Ba15 Si22 3.487248 1_455
Ba15 Si46 3.487248 1_555
Ba15 Si40 3.492247 1_455
Ba15 Si31 3.492247 1_555
Ba15 Si79 3.546353 1_465
Ba15 Si55 3.546353 1_565
Ba15 Si64 3.548773 1_465
Ba15 Si73 3.548773 1_565
Ba15 Si16 3.662093 1_565
Ba15 Si7 3.662093 1_465
Ba15 Si1 3.678959 1_555
Ba15 Si10 3.689128 1_555
Ba15 Si103 3.816604 1_555
Ba15 Si112 3.816604 1_455
Ba15 Si97 3.818399 1_455
Ba15 Si94 3.818399 1_555
Ba15 Si130 3.864734 1_555
Ba15 Si133 3.864734 1_455
Ba15 Si121 3.868984 1_555
Ba15 Si118 3.868984 1_455
Ba15 Si37 3.945026 1_455
Ba15 Si28 3.945026 1_555
Ba15 Si88 3.975120 1_555
Ba15 Si70 3.982183 1_555
Ba16 Si23 3.519443 1_455
Ba16 Si47 3.519443 1_555
Ba16 Si41 3.520046 1_455
Ba16 Si32 3.520046 1_555
Ba16 Si80 3.534560 1_465
Ba16 Si56 3.534560 1_565
Ba16 Si65 3.535519 1_465
Ba16 Si74 3.535519 1_565
Ba16 Si8 3.659779 1_465
Ba16 Si17 3.659779 1_565
Ba16 Si2 3.667026 1_555
Ba16 Si11 3.668538 1_555
Ba16 Si113 3.846090 1_455
Ba16 Si104 3.846090 1_555
Ba16 Si95 3.847166 1_555
Ba16 Si98 3.847166 1_455
Ba16 Si131 3.850917 1_555
Ba16 Si134 3.850917 1_455
Ba16 Si122 3.852521 1_555
Ba16 Si119 3.852521 1_455
Ba16 Si29 3.958289 1_555
Ba16 Si38 3.958289 1_455
Ba16 Si89 3.972398 1_555
Ba16 Si71 3.974263 1_555
Ba17 Si50 3.510726 1_555
Ba17 Si26 3.510726 1_555
Ba17 Si89 3.512121 1_555
Ba17 Si62 3.512121 1_555
Ba17 Si51 3.516924 1_556
Ba17 Si33 3.516924 1_556
Ba17 Si69 3.523672 1_556
Ba17 Si84 3.523672 1_556
Ba17 Si2 3.645656 1_555
Ba17 Si9 3.652698 1_556
Ba17 Si12 3.669993 1_555
Ba17 Si3 3.669993 1_555
Ba17 Si104 3.831057 1_555
Ba17 Si101 3.831057 1_555
Ba17 Si116 3.842509 1_555
Ba17 Si131 3.842509 1_555
Ba17 Si108 3.868551 1_556
Ba17 Si93 3.868551 1_556
Ba17 Si135 3.880941 1_556
Ba17 Si120 3.880941 1_556
Ba17 Si47 3.943176 1_555
Ba17 Si57 3.982249 1_556
Ba17 Si75 3.982249 1_556
Ba17 Si30 3.994066 1_556
Ba18 Si48 3.488709 1_555
Ba18 Si24 3.488709 1_555
Ba18 Si34 3.489497 1_555
Ba18 Si52 3.489497 1_555
Ba18 Si60 3.518901 1_555
Ba18 Si87 3.518901 1_555
Ba18 Si70 3.519401 1_555
Ba18 Si85 3.519401 1_555
Ba18 Si0 3.635049 1_555
Ba18 Si10 3.635974 1_555
Ba18 Si4 3.673198 1_555
Ba18 Si13 3.673198 1_555
Ba18 Si102 3.834225 1_555
Ba18 Si99 3.834225 1_555
Ba18 Si94 3.835878 1_555
Ba18 Si109 3.835878 1_555
Ba18 Si114 3.868476 1_555
Ba18 Si129 3.868476 1_555
Ba18 Si121 3.869223 1_555
Ba18 Si136 3.869223 1_555
Ba18 Si45 3.960654 1_555
Ba18 Si31 3.962458 1_555
Ba18 Si58 3.989010 1_555
Ba18 Si76 3.989010 1_555
Ba19 Si35 3.510223 1_555
Ba19 Si53 3.510223 1_555
Ba19 Si71 3.511969 1_555
Ba19 Si86 3.511969 1_555
Ba19 Si49 3.517136 1_555
Ba19 Si25 3.517136 1_555
Ba19 Si61 3.523942 1_555
Ba19 Si88 3.523942 1_555
Ba19 Si11 3.645247 1_555
Ba19 Si1 3.653035 1_555
Ba19 Si14 3.669952 1_555
Ba19 Si5 3.669952 1_555
Ba19 Si110 3.830499 1_555
Ba19 Si95 3.830499 1_555
Ba19 Si137 3.842052 1_555
Ba19 Si122 3.842052 1_555
Ba19 Si100 3.869169 1_555
Ba19 Si103 3.869169 1_555
Ba19 Si130 3.881152 1_555
Ba19 Si115 3.881152 1_555
Ba19 Si32 3.942651 1_555
Ba19 Si77 3.981899 1_555
Ba19 Si59 3.981899 1_555
Ba19 Si46 3.994874 1_555
Si0 Si60 2.390076 1_555
Si0 Si87 2.390076 1_555
Si0 Si45 2.427474 1_555
Si0 Si21 2.427474 1_455
Si1 Si61 2.399538 1_555
Si1 Si88 2.399538 1_555
Si1 Si22 2.424341 1_455
Si1 Si46 2.424341 1_555
Si2 Si47 2.423189 1_555
Si2 Si23 2.423189 1_455
Si2 Si62 2.428777 1_555
Si2 Si89 2.428777 1_555
Si3 Si51 2.416587 1_556
Si3 Si57 2.435462 1_556
Si3 Si81 2.435462 1_556
Si4 Si82 2.419924 1_555
Si4 Si58 2.419924 1_555
Si4 Si52 2.432454 1_555
Si5 Si53 2.415449 1_555
Si5 Si59 2.435048 1_555
Si5 Si83 2.435048 1_555
Si6 Si78 2.417426 1_555
Si6 Si63 2.434795 1_555
Si7 Si79 2.434638 1_555
Si8 Si80 2.418572 1_555
Si10 Si70 2.389913 1_555
Si10 Si85 2.389913 1_555
Si10 Si31 2.427834 1_555
Si10 Si40 2.427834 1_455
Si11 Si41 2.423118 1_455
Si11 Si32 2.423118 1_555
Si11 Si86 2.428479 1_555
Si11 Si71 2.428479 1_555
Si12 Si50 2.415050 1_555
Si12 Si33 2.416587 1_556
Si12 Si75 2.435462 1_556
Si12 Si66 2.435462 1_556
Si13 Si76 2.419924 1_555
Si13 Si67 2.419924 1_555
Si13 Si34 2.432454 1_555
Si13 Si48 2.432768 1_555
Si14 Si35 2.415449 1_555
Si14 Si49 2.416454 1_555
Si14 Si77 2.435048 1_555
Si14 Si68 2.435048 1_555
Si15 Si27 2.410478 1_545
Si15 Si42 2.410478 1_555
Si15 Si54 2.417426 1_555
Si15 Si72 2.434795 1_555
Si16 Si28 2.410800 1_545
Si16 Si43 2.410800 1_555
Si16 Si73 2.418174 1_555
Si16 Si55 2.434638 1_555
Si17 Si56 2.418572 1_555
Si17 Si74 2.419221 1_555
Si17 Si29 2.436516 1_545
Si17 Si44 2.436516 1_555
Si18 Si90 2.404878 1_555
Si18 Si6 2.410478 1_555
Si18 Si42 2.547587 1_555
Si19 Si91 2.391514 1_555
Si19 Si7 2.410800 1_555
Si19 Si43 2.547114 1_555
Si20 Si92 2.372672 1_555
Si20 Si8 2.436516 1_555
Si20 Si44 2.502390 1_555
Si21 Si90 2.381518 1_555
Si21 Si39 2.551480 1_555
Si22 Si91 2.386316 1_555
Si22 Si40 2.551651 1_555
Si23 Si92 2.368478 1_555
Si23 Si41 2.532488 1_555
Si24 Si90 2.410013 1_555
Si24 Si99 2.410013 1_555
Si24 Si4 2.432768 1_555
Si24 Si48 2.492580 1_555
Si25 Si91 2.409911 1_555
Si25 Si5 2.416454 1_555
Si25 Si49 2.535029 1_555
Si26 Si92 2.362618 1_555
Si26 Si3 2.415050 1_555
Si26 Si50 2.553394 1_555
Si27 Si93 2.391243 1_555
Si27 Si36 2.547587 1_555
Si28 Si94 2.404472 1_555
Si28 Si37 2.547114 1_555
Si29 Si95 2.372830 1_555
Si29 Si38 2.502390 1_555
Si30 Si93 2.386463 1_555
Si30 Si9 2.424132 1_555
Si30 Si45 2.551480 1_555
Si31 Si94 2.381622 1_555
Si31 Si46 2.551651 1_555
Si32 Si95 2.368478 1_555
Si32 Si47 2.532488 1_555
Si33 Si93 2.409822 1_555
Si33 Si96 2.409822 1_555
Si33 Si51 2.535059 1_555
Si34 Si94 2.410262 1_555
Si34 Si97 2.410262 1_555
Si34 Si52 2.492354 1_555
Si35 Si98 2.362554 1_555
Si35 Si95 2.362554 1_555
Si35 Si53 2.552941 1_555
Si36 Si96 2.391243 1_555
Si36 Si6 2.410478 1_565
Si37 Si97 2.404472 1_555
Si37 Si7 2.410800 1_565
Si38 Si98 2.372830 1_555
Si38 Si8 2.436516 1_565
Si39 Si96 2.386463 1_555
Si39 Si9 2.424132 1_655
Si40 Si97 2.381622 1_555
Si41 Si98 2.368478 1_555
Si42 Si99 2.404878 1_555
Si45 Si99 2.381518 1_555
Si54 Si78 2.497138 1_455
Si55 Si79 2.481717 1_455
Si56 Si80 2.549550 1_455
Si57 Si75 2.473596 1_545
Si58 Si76 2.459164 1_545
Si59 Si77 2.474322 1_545
Si60 Si85 2.505439 1_555
Si61 Si86 2.517964 1_555
Si62 Si84 2.517584 1_556
Si63 Si72 2.481688 1_655
Si64 Si7 2.418174 1_555
Si64 Si73 2.496568 1_655
Si65 Si8 2.419221 1_555
Si65 Si74 2.548807 1_655
Si66 Si81 2.473596 1_565
Si67 Si82 2.459164 1_565
Si68 Si83 2.474322 1_565
Si69 Si9 2.400042 1_555
Si69 Si89 2.517584 1_554
Si70 Si87 2.505439 1_555
Si71 Si88 2.517964 1_555
Si84 Si9 2.400042 1_555
Si100 Si115 2.351184 1_555
Si100 Si46 2.386316 1_555
Si100 Si43 2.391514 1_555
Si100 Si25 2.409911 1_555
Si101 Si116 2.357902 1_555
Si101 Si26 2.362618 1_555
Si101 Si47 2.368478 1_555
Si101 Si44 2.372672 1_555
Si102 Si129 2.348013 1_555
Si102 Si45 2.381518 1_555
Si102 Si27 2.404878 1_555
Si102 Si48 2.410013 1_555
Si103 Si130 2.351184 1_555
Si103 Si46 2.386316 1_555
Si103 Si28 2.391514 1_555
Si103 Si49 2.409911 1_555
Si104 Si131 2.357902 1_555
Si104 Si50 2.362618 1_555
Si104 Si47 2.368478 1_555
Si104 Si29 2.372672 1_555
Si105 Si126 2.350957 1_555
Si105 Si39 2.386463 1_555
Si105 Si18 2.391243 1_555
Si105 Si51 2.409822 1_555
Si106 Si127 2.347965 1_555
Si106 Si40 2.381622 1_555
Si106 Si19 2.404472 1_555
Si106 Si52 2.410262 1_555
Si107 Si128 2.357976 1_555
Si107 Si53 2.362554 1_555
Si107 Si41 2.368478 1_555
Si107 Si20 2.372830 1_555
Si108 Si135 2.350957 1_555
Si108 Si30 2.386463 1_555
Si108 Si42 2.391243 1_555
Si108 Si51 2.409822 1_555
Si109 Si136 2.347965 1_555
Si109 Si31 2.381622 1_555
Si109 Si43 2.404472 1_555
Si109 Si52 2.410262 1_555
Si110 Si137 2.357976 1_555
Si110 Si53 2.362554 1_555
Si110 Si32 2.368478 1_555
Si110 Si44 2.372830 1_555
Si111 Si132 2.348013 1_555
Si111 Si21 2.381518 1_555
Si111 Si36 2.404878 1_555
Si111 Si48 2.410013 1_555
Si112 Si133 2.351184 1_555
Si112 Si22 2.386316 1_555
Si112 Si37 2.391514 1_555
Si112 Si49 2.409911 1_555
Si113 Si134 2.357902 1_555
Si113 Si50 2.362618 1_555
Si113 Si23 2.368478 1_555
Si113 Si38 2.372672 1_555
Si114 Si99 2.348013 1_555
Si114 Si54 2.355120 1_555
Si114 Si60 2.363769 1_555
Si114 Si58 2.373073 1_555
Si115 Si55 2.354291 1_555
Si115 Si61 2.362130 1_555
Si115 Si59 2.367133 1_555
Si116 Si56 2.361052 1_555
Si116 Si62 2.368709 1_555
Si116 Si57 2.375648 1_556
Si117 Si96 2.350957 1_555
Si117 Si63 2.354024 1_565
Si117 Si69 2.362213 1_655
Si117 Si66 2.366936 1_555
Si118 Si97 2.347965 1_555
Si118 Si64 2.355183 1_565
Si118 Si70 2.363880 1_655
Si118 Si67 2.373255 1_555
Si119 Si98 2.357976 1_555
Si119 Si65 2.361374 1_565
Si119 Si71 2.368582 1_655
Si119 Si68 2.375688 1_555
Si120 Si93 2.350957 1_555
Si120 Si72 2.354024 1_565
Si120 Si69 2.362213 1_555
Si120 Si75 2.366936 1_555
Si121 Si94 2.347965 1_555
Si121 Si73 2.355183 1_565
Si121 Si70 2.363880 1_555
Si121 Si76 2.373255 1_555
Si122 Si95 2.357976 1_555
Si122 Si74 2.361374 1_565
Si122 Si71 2.368582 1_555
Si122 Si77 2.375688 1_555
Si123 Si90 2.348013 1_555
Si123 Si78 2.355120 1_555
Si123 Si60 2.363769 1_655
Si123 Si82 2.373073 1_555
Si124 Si91 2.351184 1_555
Si124 Si79 2.354291 1_555
Si124 Si61 2.362130 1_655
Si124 Si83 2.367133 1_555
Si125 Si92 2.357902 1_555
Si125 Si80 2.361052 1_555
Si125 Si62 2.368709 1_655
Si125 Si81 2.375648 1_556
Si126 Si63 2.354024 1_555
Si126 Si84 2.362213 1_655
Si126 Si81 2.366936 1_555
Si127 Si64 2.355183 1_555
Si127 Si85 2.363880 1_655
Si127 Si82 2.373255 1_555
Si128 Si65 2.361374 1_555
Si128 Si86 2.368582 1_655
Si128 Si83 2.375688 1_555
Si129 Si54 2.355120 1_565
Si129 Si87 2.363769 1_555
Si129 Si76 2.373073 1_555
Si130 Si55 2.354291 1_565
Si130 Si88 2.362130 1_555
Si130 Si77 2.367133 1_555
Si131 Si56 2.361052 1_565
Si131 Si89 2.368709 1_555
Si131 Si75 2.375648 1_556
Si132 Si78 2.355120 1_565
Si132 Si87 2.363769 1_655
Si132 Si67 2.373073 1_555
Si133 Si79 2.354291 1_565
Si133 Si88 2.362130 1_655
Si133 Si68 2.367133 1_555
Si134 Si80 2.361052 1_565
Si134 Si89 2.368709 1_655
Si134 Si66 2.375648 1_556
Si135 Si72 2.354024 1_555
Si135 Si84 2.362213 1_555
Si135 Si57 2.366936 1_555
Si136 Si73 2.355183 1_555
Si136 Si85 2.363880 1_555
Si136 Si58 2.373255 1_555
Si137 Si74 2.361374 1_555
Si137 Si86 2.368582 1_555
Si137 Si59 2.375688 1_555
