# generated using pymatgen
data_TiSiO4
_symmetry_space_group_name_H-M   'P 1'
_cell_length_a   6.09611716
_cell_length_b   6.09611716
_cell_length_c   6.09611716
_cell_angle_alpha   135.66917633
_cell_angle_beta   135.66917633
_cell_angle_gamma   64.49221053
_symmetry_Int_Tables_number   1
_chemical_formula_structural   TiSiO4
_chemical_formula_sum   'Ti2 Si2 O8'
_cell_volume   109.09399343
_cell_formula_units_Z   2
loop_
 _symmetry_equiv_pos_site_id
 _symmetry_equiv_pos_as_xyz
  1  'x, y, z'
loop_
 _atom_site_type_symbol
 _atom_site_label
 _atom_site_symmetry_multiplicity
 _atom_site_fract_x
 _atom_site_fract_y
 _atom_site_fract_z
 _atom_site_occupancy
  Ti  Ti0  1  0.25000000  0.75000000  0.50000000  1
  Ti  Ti1  1  0.50000000  0.50000000  0.00000000  1
  Si  Si0  1  0.75000000  0.25000000  0.50000000  1
  Si  Si1  1  0.00000000  0.00000000  0.00000000  1
  O  O0  1  0.09201500  0.50475700  0.94341900  1
  O  O1  1  0.56133800  0.14859600  0.05658100  1
  O  O2  1  0.89859600  0.34201500  0.08725800  1
  O  O3  1  0.25475700  0.81133800  0.91274200  1
  O  O4  1  0.65798500  0.74524300  0.55658100  1
  O  O5  1  0.18866200  0.10140400  0.44341900  1
  O  O6  1  0.85140400  0.90798500  0.41274200  1
  O  O7  1  0.49524300  0.43866200  0.58725800  1
loop_
_geom_bond_atom_site_label_1
_geom_bond_atom_site_label_2
_geom_bond_distance
_geom_bond_site_symmetry_2
O0 Si0 1.669093 1_455
O0 Ti0 1.995765 1_556
O0 Ti1 2.242877 1_556
O1 Si0 1.669093 1_555
O1 Ti0 1.995765 1_544
O1 Ti1 2.242877 1_555
O2 Si1 1.669093 1_655
O2 Ti1 1.995765 1_555
O2 Ti0 2.242877 1_655
O3 Si1 1.669093 1_566
O3 Ti1 1.995765 1_556
O3 Ti0 2.242877 1_555
O4 Si1 1.669093 1_666
O4 Ti1 1.995765 1_555
O4 Ti0 2.242877 1_555
O5 Si1 1.669093 1_555
O5 Ti1 1.995765 1_556
O5 Ti0 2.242877 1_545
O6 Si0 1.669093 1_565
O6 Ti0 1.995765 1_655
O6 Ti1 2.242877 1_555
O7 Si0 1.669093 1_555
O7 Ti0 1.995765 1_555
O7 Ti1 2.242877 1_556
