# generated using pymatgen
data_CsUSbO6
_symmetry_space_group_name_H-M   'P 1'
_cell_length_a   7.70788916
_cell_length_b   7.70788916
_cell_length_c   7.70788916
_cell_angle_alpha   122.48935263
_cell_angle_beta   117.82615708
_cell_angle_gamma   89.77463809
_symmetry_Int_Tables_number   1
_chemical_formula_structural   CsUSbO6
_chemical_formula_sum   'Cs2 U2 Sb2 O12'
_cell_volume   322.36379325
_cell_formula_units_Z   2
loop_
 _symmetry_equiv_pos_site_id
 _symmetry_equiv_pos_as_xyz
  1  'x, y, z'
loop_
 _atom_site_type_symbol
 _atom_site_label
 _atom_site_symmetry_multiplicity
 _atom_site_fract_x
 _atom_site_fract_y
 _atom_site_fract_z
 _atom_site_occupancy
  Cs  Cs0  1  0.37174500  0.62174500  0.75000000  1
  Cs  Cs1  1  0.62825500  0.37825500  0.25000000  1
  U  U0  1  0.00000000  0.00000000  0.00000000  1
  U  U1  1  0.50000000  0.00000000  0.50000000  1
  Sb  Sb0  1  0.00000000  0.00000000  0.50000000  1
  Sb  Sb1  1  0.00000000  0.50000000  0.00000000  1
  O  O0  1  0.31763000  0.06763000  0.25000000  1
  O  O1  1  0.93215900  0.68215900  0.25000000  1
  O  O2  1  0.30487700  0.68042400  0.23662000  1
  O  O3  1  0.94380400  0.06825600  0.26338000  1
  O  O4  1  0.30487700  0.06825600  0.62445300  1
  O  O5  1  0.94380400  0.68042400  0.87554700  1
  O  O6  1  0.68237000  0.93237000  0.75000000  1
  O  O7  1  0.06784100  0.31784100  0.75000000  1
  O  O8  1  0.69512300  0.31957600  0.76338000  1
  O  O9  1  0.05619600  0.93174400  0.73662000  1
  O  O10  1  0.69512300  0.93174400  0.37554700  1
  O  O11  1  0.05619600  0.31957600  0.12445300  1
loop_
_geom_bond_atom_site_label_1
_geom_bond_atom_site_label_2
_geom_bond_distance
_geom_bond_site_symmetry_2
Cs0 O7 3.319245 1_555
Cs0 O6 3.392652 1_555
Cs0 O10 3.408889 1_556
Cs0 O11 3.408889 1_555
Cs0 O8 3.408889 1_555
Cs0 O9 3.408895 1_555
Cs1 O1 3.319245 1_555
Cs1 O0 3.392652 1_555
Cs1 O4 3.408889 1_554
Cs1 O2 3.408889 1_555
Cs1 O5 3.408889 1_555
Cs1 O3 3.408895 1_555
O0 U1 2.122608 1_555
O0 U0 2.122608 1_555
O1 Sb0 1.996598 1_665
O1 Sb1 1.996598 1_655
O2 Sb1 2.020477 1_555
O2 U1 2.063365 1_565
O3 Sb0 2.020472 1_655
O3 U0 2.063367 1_655
O4 Sb0 2.020477 1_555
O4 U1 2.063365 1_555
O5 Sb1 2.020477 1_656
O5 U0 2.063365 1_666
O6 U1 2.122608 1_565
O6 U0 2.122608 1_666
O7 Sb0 1.996598 1_555
O7 Sb1 1.996598 1_556
O8 Sb1 2.020477 1_656
O8 U1 2.063365 1_555
O9 Sb0 2.020472 1_565
O9 U0 2.063367 1_566
O10 Sb0 2.020477 1_665
O10 U1 2.063365 1_565
O11 Sb1 2.020477 1_555
O11 U0 2.063365 1_555
