# generated using pymatgen
data_FeSn(PO4)2
_symmetry_space_group_name_H-M   'P 1'
_cell_length_a   10.14363418
_cell_length_b   6.08351500
_cell_length_c   4.98758857
_cell_angle_alpha   90.00000000
_cell_angle_beta   90.13102609
_cell_angle_gamma   90.00000000
_symmetry_Int_Tables_number   1
_chemical_formula_structural   FeSn(PO4)2
_chemical_formula_sum   'Fe2 Sn2 P4 O16'
_cell_volume   307.77805255
_cell_formula_units_Z   2
loop_
 _symmetry_equiv_pos_site_id
 _symmetry_equiv_pos_as_xyz
  1  'x, y, z'
loop_
 _atom_site_type_symbol
 _atom_site_label
 _atom_site_symmetry_multiplicity
 _atom_site_fract_x
 _atom_site_fract_y
 _atom_site_fract_z
 _atom_site_occupancy
  Fe  Fe0  1  0.27615000  0.25000000  0.94664800  1
  Fe  Fe1  1  0.72385000  0.75000000  0.05335200  1
  Sn  Sn0  1  0.22146000  0.75000000  0.46800400  1
  Sn  Sn1  1  0.77854000  0.25000000  0.53199600  1
  P  P0  1  0.09519400  0.25000000  0.41950900  1
  P  P1  1  0.40310900  0.75000000  0.90740200  1
  P  P2  1  0.59689100  0.25000000  0.09259800  1
  P  P3  1  0.90480600  0.75000000  0.58049100  1
  O  O0  1  0.05063800  0.75000000  0.67940000  1
  O  O1  1  0.10489200  0.25000000  0.72083300  1
  O  O2  1  0.16803700  0.04893300  0.28136900  1
  O  O3  1  0.16803700  0.45106700  0.28136900  1
  O  O4  1  0.32616500  0.94528400  0.76276600  1
  O  O5  1  0.32616500  0.55471600  0.76276600  1
  O  O6  1  0.37791700  0.75000000  0.21375200  1
  O  O7  1  0.45174900  0.25000000  0.14939900  1
  O  O8  1  0.54825100  0.75000000  0.85060100  1
  O  O9  1  0.62208300  0.25000000  0.78624900  1
  O  O10  1  0.67383500  0.05471600  0.23723400  1
  O  O11  1  0.67383500  0.44528400  0.23723400  1
  O  O12  1  0.83196300  0.54893300  0.71863100  1
  O  O13  1  0.83196300  0.95106700  0.71863100  1
  O  O14  1  0.89510800  0.75000000  0.27916700  1
  O  O15  1  0.94936200  0.25000000  0.32060000  1
loop_
_geom_bond_atom_site_label_1
_geom_bond_atom_site_label_2
_geom_bond_distance
_geom_bond_site_symmetry_2
Fe0 O7 2.046236 1_556
Fe0 O1 2.068171 1_555
Fe0 O4 2.130025 1_545
Fe0 O5 2.130025 1_555
Fe0 O2 2.343993 1_556
Fe0 O3 2.343993 1_556
Fe1 O8 2.046236 1_554
Fe1 O14 2.068171 1_555
Fe1 O11 2.130025 1_555
Fe1 O10 2.130025 1_565
Fe1 O12 2.343993 1_554
Fe1 O13 2.343993 1_554
O0 P3 1.558285 1_455
O0 Sn0 2.030386 1_555
O1 P0 1.505872 1_555
O2 P0 1.587197 1_555
O2 Sn0 2.113060 1_545
O3 P0 1.587197 1_555
O3 Sn0 2.113060 1_555
O4 P1 1.593224 1_555
O4 Sn0 2.166475 1_555
O5 P1 1.593224 1_555
O5 Sn0 2.166475 1_555
O6 P1 1.549745 1_554
O6 Sn0 2.033715 1_555
O7 P2 1.499913 1_555
O8 P1 1.499913 1_555
O9 P2 1.549740 1_556
O9 Sn1 2.033718 1_555
O10 P2 1.593224 1_555
O10 Sn1 2.166475 1_555
O11 P2 1.593224 1_555
O11 Sn1 2.166475 1_555
O12 P3 1.587197 1_555
O12 Sn1 2.113060 1_555
O13 P3 1.587197 1_555
O13 Sn1 2.113060 1_565
O14 P3 1.505872 1_555
O15 P0 1.558285 1_655
O15 Sn1 2.030386 1_555
