# generated using pymatgen
data_SrCu(Si2O5)2
_symmetry_space_group_name_H-M   'P 1'
_cell_length_a   7.44542900
_cell_length_b   7.44542900
_cell_length_c   15.92885200
_cell_angle_alpha   90.00000000
_cell_angle_beta   90.00000000
_cell_angle_gamma   90.00000000
_symmetry_Int_Tables_number   1
_chemical_formula_structural   SrCu(Si2O5)2
_chemical_formula_sum   'Sr4 Cu4 Si16 O40'
_cell_volume   883.00656029
_cell_formula_units_Z   4
loop_
 _symmetry_equiv_pos_site_id
 _symmetry_equiv_pos_as_xyz
  1  'x, y, z'
loop_
 _atom_site_type_symbol
 _atom_site_label
 _atom_site_symmetry_multiplicity
 _atom_site_fract_x
 _atom_site_fract_y
 _atom_site_fract_z
 _atom_site_occupancy
  Sr  Sr0  1  0.50000000  0.50000000  0.50000000  1
  Sr  Sr1  1  0.00000000  0.00000000  0.50000000  1
  Sr  Sr2  1  0.00000000  0.00000000  0.00000000  1
  Sr  Sr3  1  0.50000000  0.50000000  0.00000000  1
  Cu  Cu0  1  0.50000000  0.00000000  0.59034500  1
  Cu  Cu1  1  0.00000000  0.50000000  0.90965500  1
  Cu  Cu2  1  0.00000000  0.50000000  0.40965500  1
  Cu  Cu3  1  0.50000000  0.00000000  0.09034500  1
  Si  Si0  1  0.18022300  0.25763600  0.65137400  1
  Si  Si1  1  0.81977700  0.74236400  0.65137400  1
  Si  Si2  1  0.25763600  0.18022300  0.84862600  1
  Si  Si3  1  0.75763600  0.31977700  0.65137400  1
  Si  Si4  1  0.24236400  0.68022300  0.65137400  1
  Si  Si5  1  0.31977700  0.75763600  0.84862600  1
  Si  Si6  1  0.68022300  0.24236400  0.84862600  1
  Si  Si7  1  0.74236400  0.81977700  0.84862600  1
  Si  Si8  1  0.31977700  0.24236400  0.34862600  1
  Si  Si9  1  0.68022300  0.75763600  0.34862600  1
  Si  Si10  1  0.24236400  0.31977700  0.15137400  1
  Si  Si11  1  0.74236400  0.18022300  0.34862600  1
  Si  Si12  1  0.25763600  0.81977700  0.34862600  1
  Si  Si13  1  0.18022300  0.74236400  0.15137400  1
  Si  Si14  1  0.81977700  0.25763600  0.15137400  1
  Si  Si15  1  0.75763600  0.68022300  0.15137400  1
  O  O0  1  0.26399600  0.11381000  0.58715300  1
  O  O1  1  0.73600400  0.88619000  0.58715300  1
  O  O2  1  0.11381000  0.26399600  0.91284700  1
  O  O3  1  0.61381000  0.23600400  0.58715300  1
  O  O4  1  0.38619000  0.76399600  0.58715300  1
  O  O5  1  0.23600400  0.61381000  0.91284700  1
  O  O6  1  0.76399600  0.38619000  0.91284700  1
  O  O7  1  0.88619000  0.73600400  0.91284700  1
  O  O8  1  0.23600400  0.38619000  0.41284700  1
  O  O9  1  0.76399600  0.61381000  0.41284700  1
  O  O10  1  0.38619000  0.23600400  0.08715300  1
  O  O11  1  0.88619000  0.26399600  0.41284700  1
  O  O12  1  0.11381000  0.73600400  0.41284700  1
  O  O13  1  0.26399600  0.88619000  0.08715300  1
  O  O14  1  0.73600400  0.11381000  0.08715300  1
  O  O15  1  0.24868600  0.03748300  0.36859300  1
  O  O16  1  0.61381000  0.76399600  0.08715300  1
  O  O17  1  0.74868600  0.53748300  0.63140700  1
  O  O18  1  0.46251700  0.25131400  0.86859300  1
  O  O19  1  0.96251700  0.24868600  0.63140700  1
  O  O20  1  0.03748300  0.75131400  0.63140700  1
  O  O21  1  0.24868600  0.96251700  0.86859300  1
  O  O22  1  0.75131400  0.03748300  0.86859300  1
  O  O23  1  0.53748300  0.74868600  0.86859300  1
  O  O24  1  0.71530200  0.71530200  0.25000000  1
  O  O25  1  0.78469800  0.21530200  0.25000000  1
  O  O26  1  0.21530200  0.78469800  0.25000000  1
  O  O27  1  0.28469800  0.28469800  0.25000000  1
  O  O28  1  0.78469800  0.78469800  0.75000000  1
  O  O29  1  0.71530200  0.28469800  0.75000000  1
  O  O30  1  0.28469800  0.71530200  0.75000000  1
  O  O31  1  0.21530200  0.21530200  0.75000000  1
  O  O32  1  0.96251700  0.75131400  0.13140700  1
  O  O33  1  0.74868600  0.46251700  0.13140700  1
  O  O34  1  0.25131400  0.53748300  0.13140700  1
  O  O35  1  0.46251700  0.74868600  0.36859300  1
  O  O36  1  0.53748300  0.25131400  0.36859300  1
  O  O37  1  0.03748300  0.24868600  0.13140700  1
  O  O38  1  0.75131400  0.96251700  0.36859300  1
  O  O39  1  0.25131400  0.46251700  0.63140700  1
loop_
_geom_bond_atom_site_label_1
_geom_bond_atom_site_label_2
_geom_bond_distance
_geom_bond_site_symmetry_2
Cu0 O1 1.951459 1_545
Cu0 O3 1.951459 1_555
Cu0 O4 1.951459 1_545
Cu0 O0 1.951459 1_555
Cu1 O5 1.951459 1_555
Cu1 O7 1.951459 1_455
Cu1 O2 1.951459 1_555
Cu1 O6 1.951459 1_455
Cu2 O11 1.951459 1_455
Cu2 O9 1.951459 1_455
Cu2 O12 1.951459 1_555
Cu2 O8 1.951459 1_555
Cu3 O13 1.951459 1_545
Cu3 O16 1.951459 1_545
Cu3 O14 1.951459 1_555
Cu3 O10 1.951459 1_555
O0 Si0 1.606925 1_555
O0 Sr1 2.551215 1_555
O1 Si1 1.606925 1_555
O1 Sr1 2.551215 1_665
O2 Si2 1.606925 1_555
O2 Sr2 2.551215 1_556
O3 Si3 1.606925 1_555
O3 Sr0 2.551215 1_555
O4 Si4 1.606925 1_555
O4 Sr0 2.551215 1_555
O5 Si5 1.606925 1_555
O5 Sr3 2.551215 1_556
O6 Si6 1.606925 1_555
O6 Sr3 2.551215 1_556
O7 Si7 1.606925 1_555
O7 Sr2 2.551215 1_666
O8 Si8 1.606925 1_555
O8 Sr0 2.551215 1_555
O9 Si9 1.606925 1_555
O9 Sr0 2.551215 1_555
O10 Si10 1.606925 1_555
O10 Sr3 2.551215 1_555
O11 Si11 1.606925 1_555
O11 Sr1 2.551215 1_655
O12 Si12 1.606925 1_555
O12 Sr1 2.551215 1_565
O13 Si13 1.606925 1_555
O13 Sr2 2.551215 1_565
O14 Si14 1.606925 1_555
O14 Sr2 2.551215 1_655
O15 Si8 1.645675 1_555
O15 Si12 1.653167 1_545
O15 Sr1 2.808476 1_555
O16 Si15 1.606925 1_555
O16 Sr3 2.551215 1_555
O17 Si1 1.645675 1_555
O17 Si3 1.653167 1_555
O17 Sr0 2.808476 1_555
O18 Si2 1.645675 1_555
O18 Si6 1.653167 1_555
O18 Sr3 2.808476 1_556
O19 Si3 1.645675 1_555
O19 Si0 1.653167 1_655
O19 Sr1 2.808476 1_655
O20 Si4 1.645675 1_555
O20 Si1 1.653167 1_455
O20 Sr1 2.808476 1_565
O21 Si5 1.645675 1_555
O21 Si2 1.653167 1_565
O21 Sr2 2.808476 1_566
O22 Si6 1.645675 1_555
O22 Si7 1.653167 1_545
O22 Sr2 2.808476 1_656
O23 Si7 1.645675 1_555
O23 Si5 1.653167 1_555
O23 Sr3 2.808476 1_556
O24 Si15 1.623453 1_555
O24 Si9 1.623453 1_555
O25 Si14 1.623453 1_555
O25 Si11 1.623453 1_555
O26 Si12 1.623453 1_555
O26 Si13 1.623453 1_555
O27 Si10 1.623453 1_555
O27 Si8 1.623453 1_555
O28 Si7 1.623453 1_555
O28 Si1 1.623453 1_555
O29 Si3 1.623453 1_555
O29 Si6 1.623453 1_555
O30 Si5 1.623453 1_555
O30 Si4 1.623453 1_555
O31 Si0 1.623453 1_555
O31 Si2 1.623453 1_555
O32 Si15 1.645675 1_555
O32 Si13 1.653167 1_655
O32 Sr2 2.808476 1_665
O33 Si14 1.645675 1_555
O33 Si15 1.653167 1_555
O33 Sr3 2.808476 1_555
O34 Si13 1.645675 1_555
O34 Si10 1.653167 1_555
O34 Sr3 2.808476 1_555
O35 Si12 1.645675 1_555
O35 Si9 1.653167 1_555
O35 Sr0 2.808476 1_555
O36 Si11 1.645675 1_555
O36 Si8 1.653167 1_555
O36 Sr0 2.808476 1_555
O37 Si10 1.645675 1_555
O37 Si14 1.653167 1_455
O37 Sr2 2.808476 1_555
O38 Si9 1.645675 1_555
O38 Si11 1.653167 1_565
O38 Sr1 2.808476 1_665
O39 Si0 1.645675 1_555
O39 Si4 1.653167 1_555
O39 Sr0 2.808476 1_555
