# generated using pymatgen
data_TbMnAl
_symmetry_space_group_name_H-M   'P 1'
_cell_length_a   5.45723806
_cell_length_b   5.45723806
_cell_length_c   5.45723806
_cell_angle_alpha   88.26739434
_cell_angle_beta   61.53713707
_cell_angle_gamma   119.54953841
_symmetry_Int_Tables_number   1
_chemical_formula_structural   TbMnAl
_chemical_formula_sum   'Tb2 Mn2 Al2'
_cell_volume   116.57809936
_cell_formula_units_Z   2
loop_
 _symmetry_equiv_pos_site_id
 _symmetry_equiv_pos_as_xyz
  1  'x, y, z'
loop_
 _atom_site_type_symbol
 _atom_site_label
 _atom_site_symmetry_multiplicity
 _atom_site_fract_x
 _atom_site_fract_y
 _atom_site_fract_z
 _atom_site_occupancy
  Tb  Tb0  1  0.50000000  0.75632700  0.74367300  1
  Tb  Tb1  1  0.00000000  0.99367300  0.00632700  1
  Mn  Mn0  1  0.25000000  0.87500000  0.37500000  1
  Mn  Mn1  1  0.75000000  0.37500000  0.37500000  1
  Al  Al0  1  0.75000000  0.37500000  0.87500000  1
  Al  Al1  1  0.25000000  0.37500000  0.37500000  1
loop_
_geom_bond_atom_site_label_1
_geom_bond_atom_site_label_2
_geom_bond_distance
_geom_bond_site_symmetry_2
Tb0 Tb1 3.323835 1_556
Tb0 Tb1 3.323835 1_655
Tb0 Tb1 3.395852 1_656
Tb0 Tb1 3.395852 1_546
Mn0 Mn1 2.747176 1_565
Mn0 Mn1 2.747176 1_455
Mn0 Tb0 3.120536 1_555
Mn0 Tb1 3.120536 1_555
Mn0 Tb1 3.267556 1_556
Mn0 Tb0 3.267556 1_455
Mn0 Tb1 3.267556 1_655
Mn0 Tb0 3.267556 1_554
Mn1 Tb1 3.120536 1_655
Mn1 Tb0 3.120536 1_545
Mn1 Tb1 3.267556 1_546
Mn1 Tb0 3.267556 1_555
Mn1 Tb0 3.267556 1_654
Mn1 Tb1 3.267556 1_645
Al0 Mn1 2.728619 1_556
Al0 Mn1 2.728619 1_555
Al0 Mn0 2.728619 1_546
Al0 Mn0 2.728619 1_655
Al0 Al1 2.791768 1_556
Al0 Al1 2.791768 1_655
Al0 Tb1 3.210755 1_656
Al0 Tb0 3.210755 1_655
Al0 Tb1 3.210755 1_546
Al0 Tb0 3.210755 1_545
Al0 Tb0 3.216781 1_555
Al0 Tb1 3.216781 1_646
Al1 Mn1 2.728619 1_455
Al1 Mn0 2.728619 1_555
Al1 Mn1 2.728619 1_555
Al1 Mn0 2.728619 1_545
Al1 Tb0 3.210755 1_555
Al1 Tb1 3.210755 1_655
Al1 Tb0 3.210755 1_445
Al1 Tb1 3.210755 1_545
Al1 Tb1 3.216781 1_546
Al1 Tb0 3.216781 1_554
