# generated using pymatgen
data_Bi13Mo6(AsO14)3
_symmetry_space_group_name_H-M   'P 1'
_cell_length_a   5.67655700
_cell_length_b   12.97675000
_cell_length_c   28.97220190
_cell_angle_alpha   74.84626989
_cell_angle_beta   90.00000000
_cell_angle_gamma   90.00000000
_symmetry_Int_Tables_number   1
_chemical_formula_structural   Bi13Mo6(AsO14)3
_chemical_formula_sum   'Bi26 Mo12 As6 O84'
_cell_volume   2059.97674201
_cell_formula_units_Z   2
loop_
 _symmetry_equiv_pos_site_id
 _symmetry_equiv_pos_as_xyz
  1  'x, y, z'
loop_
 _atom_site_type_symbol
 _atom_site_label
 _atom_site_symmetry_multiplicity
 _atom_site_fract_x
 _atom_site_fract_y
 _atom_site_fract_z
 _atom_site_occupancy
  Bi  Bi0  1  0.76773900  0.97778800  0.42541700  1
  Bi  Bi1  1  0.23226100  0.97778800  0.92541700  1
  Bi  Bi2  1  0.73124500  0.02315600  0.57450300  1
  Bi  Bi3  1  0.26875500  0.02315600  0.07450300  1
  Bi  Bi4  1  0.25528800  0.81201500  0.38733600  1
  Bi  Bi5  1  0.74471200  0.81201500  0.88733600  1
  Bi  Bi6  1  0.24042500  0.18568000  0.61152300  1
  Bi  Bi7  1  0.75957500  0.18568000  0.11152300  1
  Bi  Bi8  1  0.76326100  0.29791100  0.37809400  1
  Bi  Bi9  1  0.23673900  0.29791100  0.87809400  1
  Bi  Bi10  1  0.74025400  0.70225600  0.62283800  1
  Bi  Bi11  1  0.25974600  0.70225600  0.12283800  1
  Bi  Bi12  1  0.26322200  0.47516700  0.42650200  1
  Bi  Bi13  1  0.73677800  0.47516700  0.92650200  1
  Bi  Bi14  1  0.23460100  0.52772800  0.57207400  1
  Bi  Bi15  1  0.76539900  0.52772800  0.07207400  1
  Bi  Bi16  1  0.70464900  0.94496200  0.30068300  1
  Bi  Bi17  1  0.29535100  0.94496200  0.80068300  1
  Bi  Bi18  1  0.79754300  0.06343800  0.69900600  1
  Bi  Bi19  1  0.20245700  0.06343800  0.19900600  1
  Bi  Bi20  1  0.20370600  0.12187900  0.33927400  1
  Bi  Bi21  1  0.79629400  0.12187900  0.83927400  1
  Bi  Bi22  1  0.30484900  0.87409200  0.66174400  1
  Bi  Bi23  1  0.69515100  0.87409200  0.16174400  1
  Bi  Bi24  1  0.73796500  0.22653200  0.24247800  1
  Bi  Bi25  1  0.26203500  0.22653200  0.74247800  1
  Mo  Mo0  1  0.74002900  0.34921200  0.51961300  1
  Mo  Mo1  1  0.25997100  0.34921200  0.01961300  1
  Mo  Mo2  1  0.75960400  0.65091700  0.48033100  1
  Mo  Mo3  1  0.24039600  0.65091700  0.98033100  1
  Mo  Mo4  1  0.24332600  0.16780000  0.47322700  1
  Mo  Mo5  1  0.75667400  0.16780000  0.97322700  1
  Mo  Mo6  1  0.25606500  0.83214500  0.52660000  1
  Mo  Mo7  1  0.74393500  0.83214500  0.02660000  1
  Mo  Mo8  1  0.74795100  0.38003700  0.65207500  1
  Mo  Mo9  1  0.25204900  0.38003700  0.15207500  1
  Mo  Mo10  1  0.75392300  0.62088800  0.34747700  1
  Mo  Mo11  1  0.24607700  0.62088800  0.84747700  1
  As  As0  1  0.31138400  0.40519900  0.30921300  1
  As  As1  1  0.68861600  0.40519900  0.80921300  1
  As  As2  1  0.18666100  0.59594300  0.69058100  1
  As  As3  1  0.81333900  0.59594300  0.19058100  1
  As  As4  1  0.74548400  0.80402500  0.75751700  1
  As  As5  1  0.25451600  0.80402500  0.25751700  1
  O  O0  1  0.10331300  0.29684000  0.44640800  1
  O  O1  1  0.89668700  0.29684000  0.94640800  1
  O  O2  1  0.39551700  0.70292900  0.55326700  1
  O  O3  1  0.60448300  0.70292900  0.05326700  1
  O  O4  1  0.97881000  0.44423200  0.51059100  1
  O  O5  1  0.02119000  0.44423200  0.01059100  1
  O  O6  1  0.52129300  0.55576700  0.48957700  1
  O  O7  1  0.47870700  0.55576700  0.98957700  1
  O  O8  1  0.56432300  0.49899100  0.63004400  1
  O  O9  1  0.43567700  0.49899100  0.13004400  1
  O  O10  1  0.93763000  0.50050800  0.37046300  1
  O  O11  1  0.06237000  0.50050800  0.87046300  1
  O  O12  1  0.50725100  0.09410300  0.27074400  1
  O  O13  1  0.49274900  0.09410300  0.77074400  1
  O  O14  1  0.96667100  0.90496100  0.73244700  1
  O  O15  1  0.03332900  0.90496100  0.23244700  1
  O  O16  1  0.38582600  0.15641900  0.53014000  1
  O  O17  1  0.61417400  0.15641900  0.03014000  1
  O  O18  1  0.11517100  0.84322500  0.46936900  1
  O  O19  1  0.88482900  0.84322500  0.96936900  1
  O  O20  1  0.00969700  0.37261600  0.61610700  1
  O  O21  1  0.99030300  0.37261600  0.11610700  1
  O  O22  1  0.48981900  0.62686700  0.38401900  1
  O  O23  1  0.51018100  0.62686700  0.88401900  1
  O  O24  1  0.85704200  0.13343900  0.37618300  1
  O  O25  1  0.14295800  0.13343900  0.87618300  1
  O  O26  1  0.64054700  0.86673800  0.62351400  1
  O  O27  1  0.35945300  0.86673800  0.12351400  1
  O  O28  1  0.00884700  0.11551800  0.27634600  1
  O  O29  1  0.99115300  0.11551800  0.77634600  1
  O  O30  1  0.49970100  0.88490500  0.72523600  1
  O  O31  1  0.50029900  0.88490500  0.22523600  1
  O  O32  1  0.01584100  0.94889900  0.37048000  1
  O  O33  1  0.98415900  0.94889900  0.87048000  1
  O  O34  1  0.48430500  0.05091200  0.62961700  1
  O  O35  1  0.51569500  0.05091200  0.12961700  1
  O  O36  1  0.53911900  0.36595900  0.56494700  1
  O  O37  1  0.46088100  0.36595900  0.06494700  1
  O  O38  1  0.96382000  0.63444700  0.43544900  1
  O  O39  1  0.03618000  0.63444700  0.93544900  1
  O  O40  1  0.41349600  0.42103800  0.36674300  1
  O  O41  1  0.58650400  0.42103800  0.86674300  1
  O  O42  1  0.08753000  0.57637800  0.63315200  1
  O  O43  1  0.91247000  0.57637800  0.13315200  1
  O  O44  1  0.58318500  0.35665100  0.46334600  1
  O  O45  1  0.41681500  0.35665100  0.96334600  1
  O  O46  1  0.91750700  0.64314000  0.53665200  1
  O  O47  1  0.08249300  0.64314000  0.03665200  1
  O  O48  1  0.85573900  0.15005100  0.18782800  1
  O  O49  1  0.14426100  0.15005100  0.68782800  1
  O  O50  1  0.65164600  0.85407700  0.80900700  1
  O  O51  1  0.34835400  0.85407700  0.30900700  1
  O  O52  1  0.07798700  0.30608600  0.32788200  1
  O  O53  1  0.92201300  0.30608600  0.82788200  1
  O  O54  1  0.42039700  0.69462600  0.67110500  1
  O  O55  1  0.57960300  0.69462600  0.17110500  1
  O  O56  1  0.84711900  0.37872200  0.70972700  1
  O  O57  1  0.15288100  0.37872200  0.20972700  1
  O  O58  1  0.65725000  0.61893700  0.29061700  1
  O  O59  1  0.34275000  0.61893700  0.79061700  1
  O  O60  1  0.52034200  0.94635200  0.37128200  1
  O  O61  1  0.47965800  0.94635200  0.87128200  1
  O  O62  1  0.97877600  0.05109600  0.62826900  1
  O  O63  1  0.02122400  0.05109600  0.12826900  1
  O  O64  1  0.57597800  0.25725300  0.66324900  1
  O  O65  1  0.42402200  0.25725300  0.16324900  1
  O  O66  1  0.91796800  0.74418800  0.33827400  1
  O  O67  1  0.08203200  0.74418800  0.83827400  1
  O  O68  1  0.01874700  0.06880100  0.48203900  1
  O  O69  1  0.98125300  0.06880100  0.98203900  1
  O  O70  1  0.48121000  0.93054000  0.51782500  1
  O  O71  1  0.51879000  0.93054000  0.01782500  1
  O  O72  1  0.44684200  0.14319000  0.42924700  1
  O  O73  1  0.55315800  0.14319000  0.92924700  1
  O  O74  1  0.05544100  0.85679200  0.57109600  1
  O  O75  1  0.94455900  0.85679200  0.07109600  1
  O  O76  1  0.87569900  0.22091000  0.54369200  1
  O  O77  1  0.12430100  0.22091000  0.04369200  1
  O  O78  1  0.62361300  0.77882000  0.45637100  1
  O  O79  1  0.37638700  0.77882000  0.95637100  1
  O  O80  1  0.54132100  0.30442500  0.31204500  1
  O  O81  1  0.45867900  0.30442500  0.81204500  1
  O  O82  1  0.96150700  0.69623900  0.68683800  1
  O  O83  1  0.03849300  0.69623900  0.18683800  1
loop_
_geom_bond_atom_site_label_1
_geom_bond_atom_site_label_2
_geom_bond_distance
_geom_bond_site_symmetry_2
Bi0 O24 2.205698 1_565
Bi0 O60 2.221051 1_555
Bi0 O32 2.229199 1_655
Bi0 O78 2.632399 1_555
Bi0 O68 2.670054 1_665
Bi0 O18 2.719891 1_655
Bi0 O72 2.839361 1_565
Bi1 O25 2.205698 1_565
Bi1 O61 2.221051 1_555
Bi1 O33 2.229199 1_455
Bi1 O79 2.632399 1_555
Bi1 O69 2.670054 1_465
Bi1 O19 2.719891 1_455
Bi1 O73 2.839361 1_565
Bi2 O62 2.197180 1_555
Bi2 O26 2.212362 1_545
Bi2 O34 2.223750 1_555
Bi2 O76 2.618588 1_555
Bi2 O70 2.680902 1_545
Bi2 O16 2.706505 1_555
Bi2 O74 2.858079 1_645
Bi3 O63 2.197180 1_555
Bi3 O27 2.212362 1_545
Bi3 O35 2.223750 1_555
Bi3 O77 2.618588 1_555
Bi3 O71 2.680902 1_545
Bi3 O17 2.706505 1_555
Bi3 O75 2.858079 1_445
Bi4 O32 2.188094 1_555
Bi4 O51 2.253758 1_555
Bi4 O60 2.257249 1_555
Bi4 O18 2.636001 1_555
Bi4 O66 2.667547 1_455
Bi4 O22 2.770373 1_555
Bi4 O78 2.847282 1_555
Bi4 O38 2.882855 1_455
Bi5 O33 2.188094 1_555
Bi5 O50 2.253758 1_555
Bi5 O61 2.257249 1_555
Bi5 O19 2.636001 1_555
Bi5 O67 2.667547 1_655
Bi5 O23 2.770373 1_555
Bi5 O79 2.847282 1_555
Bi5 O39 2.882855 1_655
Bi6 O34 2.184155 1_555
Bi6 O49 2.205598 1_555
Bi6 O62 2.246894 1_455
Bi6 O16 2.617813 1_555
Bi6 O64 2.732107 1_555
Bi6 O20 2.790360 1_555
Bi6 O76 2.808532 1_455
Bi6 O36 2.918613 1_555
Bi7 O35 2.184155 1_555
Bi7 O48 2.205598 1_555
Bi7 O63 2.246894 1_655
Bi7 O17 2.617813 1_555
Bi7 O65 2.732107 1_555
Bi7 O21 2.790360 1_555
Bi7 O77 2.808532 1_655
Bi7 O37 2.918613 1_555
Bi8 O24 2.214392 1_555
Bi8 O80 2.274119 1_555
Bi8 O52 2.288814 1_655
Bi8 O40 2.515634 1_555
Bi8 O0 2.762105 1_655
Bi8 O10 2.763446 1_555
Bi8 O72 2.810353 1_555
Bi9 O25 2.214392 1_555
Bi9 O81 2.274119 1_555
Bi9 O53 2.288814 1_455
Bi9 O41 2.515634 1_555
Bi9 O1 2.762105 1_455
Bi9 O11 2.763446 1_555
Bi9 O73 2.810353 1_555
Bi10 O26 2.213239 1_555
Bi10 O82 2.223952 1_555
Bi10 O54 2.278082 1_555
Bi10 O42 2.527553 1_655
Bi10 O8 2.776798 1_555
Bi10 O2 2.807695 1_555
Bi10 O74 2.810376 1_655
Bi11 O27 2.213239 1_555
Bi11 O83 2.223952 1_555
Bi11 O55 2.278082 1_555
Bi11 O43 2.527553 1_455
Bi11 O9 2.776798 1_555
Bi11 O3 2.807695 1_555
Bi11 O75 2.810376 1_455
Bi12 O40 2.203283 1_555
Bi12 O22 2.403743 1_555
Bi12 O0 2.411206 1_555
Bi12 O10 2.425075 1_455
Bi12 O44 2.438308 1_555
Bi12 O38 2.740088 1_455
Bi12 O6 2.752965 1_555
Bi12 O4 2.862109 1_455
Bi13 O41 2.203283 1_555
Bi13 O23 2.403743 1_555
Bi13 O1 2.411206 1_555
Bi13 O11 2.425075 1_655
Bi13 O45 2.438308 1_555
Bi13 O39 2.740088 1_655
Bi13 O7 2.752965 1_555
Bi13 O5 2.862109 1_656
Bi14 O42 2.193395 1_555
Bi14 O2 2.377518 1_555
Bi14 O46 2.394297 1_455
Bi14 O20 2.442631 1_555
Bi14 O8 2.477015 1_555
Bi14 O4 2.732108 1_455
Bi14 O36 2.768421 1_555
Bi14 O6 2.835295 1_555
Bi15 O43 2.193395 1_555
Bi15 O3 2.377518 1_555
Bi15 O47 2.394297 1_655
Bi15 O21 2.442631 1_555
Bi15 O9 2.477015 1_555
Bi15 O5 2.732108 1_655
Bi15 O37 2.768421 1_555
Bi15 O7 2.835295 1_554
Bi16 O12 2.208157 1_565
Bi16 O60 2.301718 1_555
Bi16 O51 2.321862 1_555
Bi16 O32 2.695612 1_655
Bi16 O28 2.749841 1_665
Bi16 O31 2.760732 1_555
Bi16 O66 2.820818 1_555
Bi16 O15 2.862758 1_655
Bi17 O13 2.208157 1_565
Bi17 O61 2.301718 1_555
Bi17 O50 2.321862 1_555
Bi17 O33 2.695612 1_455
Bi17 O29 2.749841 1_465
Bi17 O30 2.760732 1_555
Bi17 O67 2.820818 1_555
Bi17 O14 2.862758 1_455
Bi18 O14 2.246768 1_545
Bi18 O49 2.247559 1_655
Bi18 O62 2.335746 1_555
Bi18 O34 2.720380 1_555
Bi18 O29 2.734435 1_555
Bi18 O64 2.760170 1_555
Bi18 O30 2.807670 1_545
Bi18 O13 2.811416 1_555
Bi19 O15 2.246768 1_545
Bi19 O48 2.247559 1_455
Bi19 O63 2.335746 1_555
Bi19 O35 2.720380 1_555
Bi19 O28 2.734435 1_555
Bi19 O65 2.760170 1_555
Bi19 O31 2.807670 1_545
Bi19 O12 2.811416 1_555
Bi20 O28 2.152426 1_555
Bi20 O24 2.263253 1_455
Bi20 O52 2.433064 1_555
Bi20 O32 2.435650 1_545
Bi20 O12 2.723084 1_555
Bi21 O29 2.152426 1_555
Bi21 O25 2.263253 1_655
Bi21 O53 2.433064 1_555
Bi21 O33 2.435650 1_545
Bi21 O13 2.723084 1_555
Bi22 O30 2.182164 1_555
Bi22 O26 2.218673 1_555
Bi22 O54 2.365854 1_555
Bi22 O34 2.460173 1_565
Bi23 O31 2.182164 1_555
Bi23 O27 2.218673 1_555
Bi23 O55 2.365854 1_555
Bi23 O35 2.460173 1_565
Bi24 O12 2.145533 1_555
Bi24 O28 2.159527 1_655
Bi24 O48 2.181850 1_555
Bi24 O80 2.719403 1_555
Bi25 O13 2.145533 1_555
Bi25 O29 2.159527 1_455
Bi25 O49 2.181850 1_555
Bi25 O81 2.719403 1_555
Mo0 O36 1.795059 1_555
Mo0 O76 1.801269 1_555
Mo0 O4 1.804851 1_555
Mo0 O44 1.837722 1_555
Mo1 O37 1.795059 1_555
Mo1 O77 1.801269 1_555
Mo1 O5 1.804851 1_555
Mo1 O45 1.837722 1_554
Mo2 O38 1.796019 1_555
Mo2 O78 1.797289 1_555
Mo2 O6 1.803729 1_555
Mo2 O46 1.841225 1_555
Mo3 O39 1.796019 1_555
Mo3 O79 1.797289 1_555
Mo3 O7 1.803729 1_555
Mo3 O47 1.841225 1_556
Mo4 O68 1.780260 1_555
Mo4 O16 1.807673 1_555
Mo4 O72 1.809134 1_555
Mo4 O0 1.832813 1_555
Mo5 O69 1.780260 1_555
Mo5 O17 1.807673 1_556
Mo5 O73 1.809134 1_555
Mo5 O1 1.832813 1_555
Mo6 O70 1.777264 1_555
Mo6 O74 1.810180 1_555
Mo6 O18 1.812463 1_555
Mo6 O2 1.832461 1_555
Mo7 O71 1.777264 1_555
Mo7 O75 1.810180 1_555
Mo7 O19 1.812463 1_554
Mo7 O3 1.832461 1_555
Mo8 O56 1.758466 1_555
Mo8 O64 1.823963 1_555
Mo8 O20 1.831749 1_655
Mo8 O8 1.833478 1_555
Mo9 O57 1.758466 1_555
Mo9 O65 1.823963 1_555
Mo9 O21 1.831749 1_455
Mo9 O9 1.833478 1_555
Mo10 O58 1.742810 1_555
Mo10 O66 1.809781 1_555
Mo10 O22 1.848627 1_555
Mo10 O10 1.851314 1_555
Mo11 O59 1.742810 1_555
Mo11 O67 1.809781 1_555
Mo11 O23 1.848627 1_555
Mo11 O11 1.851314 1_555
As0 O40 1.826327 1_555
As0 O52 1.827130 1_555
As0 O80 1.834242 1_555
As1 O41 1.826327 1_555
As1 O53 1.827130 1_555
As1 O81 1.834242 1_555
As2 O82 1.807056 1_455
As2 O54 1.827826 1_555
As2 O42 1.835852 1_555
As3 O83 1.807056 1_655
As3 O55 1.827826 1_555
As3 O43 1.835852 1_555
As4 O14 1.822713 1_555
As4 O30 1.846525 1_555
As4 O50 1.854074 1_555
As5 O15 1.822713 1_555
As5 O31 1.846525 1_555
As5 O51 1.854074 1_555
