# generated using pymatgen
data_La4ZnCu(RhO6)2
_symmetry_space_group_name_H-M   'P 1'
_cell_length_a   5.59626900
_cell_length_b   5.68506730
_cell_length_c   7.94369442
_cell_angle_alpha   90.25163288
_cell_angle_beta   90.03850159
_cell_angle_gamma   90.05157064
_symmetry_Int_Tables_number   1
_chemical_formula_structural   La4ZnCu(RhO6)2
_chemical_formula_sum   'La4 Zn1 Cu1 Rh2 O12'
_cell_volume   252.72735859
_cell_formula_units_Z   1
loop_
 _symmetry_equiv_pos_site_id
 _symmetry_equiv_pos_as_xyz
  1  'x, y, z'
loop_
 _atom_site_type_symbol
 _atom_site_label
 _atom_site_symmetry_multiplicity
 _atom_site_fract_x
 _atom_site_fract_y
 _atom_site_fract_z
 _atom_site_occupancy
  La  La0  1  0.00965100  0.44933800  0.24915700  1
  La  La1  1  0.49098500  0.95005400  0.24828600  1
  La  La2  1  0.99034900  0.55066200  0.75084300  1
  La  La3  1  0.50901500  0.04994600  0.75171400  1
  Zn  Zn0  1  0.00000000  0.00000000  0.50000000  1
  Cu  Cu0  1  0.50000000  0.50000000  0.00000000  1
  Rh  Rh0  1  0.50000000  0.50000000  0.50000000  1
  Rh  Rh1  1  0.00000000  0.00000000  0.00000000  1
  O  O0  1  0.91126500  0.02319100  0.24771200  1
  O  O1  1  0.58887100  0.52331200  0.25113400  1
  O  O2  1  0.08873500  0.97680900  0.75228800  1
  O  O3  1  0.41112900  0.47668800  0.74886600  1
  O  O4  1  0.19909600  0.70681200  0.04673800  1
  O  O5  1  0.30396100  0.20833600  0.45355300  1
  O  O6  1  0.79318600  0.30105900  0.54636600  1
  O  O7  1  0.70402900  0.79874200  0.95331300  1
  O  O8  1  0.80090400  0.29318800  0.95326200  1
  O  O9  1  0.69603900  0.79166400  0.54644700  1
  O  O10  1  0.20681400  0.69894000  0.45363400  1
  O  O11  1  0.29597100  0.20125800  0.04668700  1
loop_
_geom_bond_atom_site_label_1
_geom_bond_atom_site_label_2
_geom_bond_distance
_geom_bond_site_symmetry_2
La0 O1 2.392479 1_455
La0 O10 2.417416 1_555
La0 O4 2.423276 1_555
La0 O0 2.483945 1_455
La0 O11 2.670386 1_555
La0 O5 2.691880 1_555
La0 O8 2.766535 1_454
La0 O6 2.787759 1_455
La1 O0 2.388111 1_565
La1 O11 2.411578 1_565
La1 O5 2.427821 1_565
La1 O1 2.487811 1_555
La1 O4 2.667741 1_555
La1 O10 2.692179 1_555
La1 O7 2.764020 1_554
La1 O9 2.784672 1_555
La2 O3 2.392479 1_655
La2 O6 2.417420 1_555
La2 O8 2.423276 1_555
La2 O2 2.483945 1_655
La2 O7 2.670386 1_555
La2 O9 2.691880 1_555
La2 O4 2.766535 1_656
La2 O10 2.787758 1_655
La3 O2 2.388111 1_545
La3 O7 2.411578 1_545
La3 O9 2.427821 1_545
La3 O3 2.487811 1_555
La3 O8 2.667741 1_555
La3 O6 2.692176 1_555
La3 O11 2.764020 1_556
La3 O5 2.784672 1_555
Cu0 O3 2.059344 1_554
Cu0 O1 2.059344 1_555
Cu0 O11 2.080461 1_555
Cu0 O7 2.080461 1_554
Cu0 O8 2.087207 1_554
Cu0 O4 2.087207 1_555
O0 Rh1 2.033511 1_655
O0 Zn0 2.069177 1_655
O1 Rh0 2.043677 1_555
O2 Rh1 2.033511 1_566
O2 Zn0 2.069177 1_565
O3 Rh0 2.043677 1_555
O4 Rh1 2.041004 1_565
O5 Rh0 2.019884 1_555
O5 Zn0 2.105603 1_555
O6 Rh0 2.028064 1_555
O6 Zn0 2.098374 1_655
O7 Rh1 2.045026 1_666
O8 Rh1 2.041004 1_656
O9 Rh0 2.019884 1_555
O9 Zn0 2.105603 1_665
O10 Rh0 2.028061 1_555
O10 Zn0 2.098379 1_565
O11 Rh1 2.045026 1_555
