# generated using pymatgen
data_Nb3MoSe8
_symmetry_space_group_name_H-M   'P 1'
_cell_length_a   3.45979024
_cell_length_b   5.98991904
_cell_length_c   13.46316972
_cell_angle_alpha   81.29055727
_cell_angle_beta   90.00000000
_cell_angle_gamma   90.00000000
_symmetry_Int_Tables_number   1
_chemical_formula_structural   Nb3MoSe8
_chemical_formula_sum   'Nb3 Mo1 Se8'
_cell_volume   275.79162362
_cell_formula_units_Z   1
loop_
 _symmetry_equiv_pos_site_id
 _symmetry_equiv_pos_as_xyz
  1  'x, y, z'
loop_
 _atom_site_type_symbol
 _atom_site_label
 _atom_site_symmetry_multiplicity
 _atom_site_fract_x
 _atom_site_fract_y
 _atom_site_fract_z
 _atom_site_occupancy
  Nb  Nb0  1  -0.00000000  0.66688795  0.50175478  1
  Nb  Nb1  1  0.50000000  0.67355691  0.00075012  1
  Nb  Nb2  1  0.50000000  0.16692385  0.50171750  1
  Mo  Mo0  1  -0.00000000  0.15886568  0.00072620  1
  Se  Se0  1  0.50000000  0.28574769  0.12156569  1
  Se  Se1  1  0.50000000  0.79076038  0.62824334  1
  Se  Se2  1  0.00000000  0.79396969  0.12611362  1
  Se  Se3  1  0.00000000  0.29069114  0.62824937  1
  Se  Se4  1  0.00000000  0.87993396  0.87511602  1
  Se  Se5  1  0.50000000  0.87640671  0.37500748  1
  Se  Se6  1  0.50000000  0.36837763  0.87992788  1
  Se  Se7  1  0.00000000  0.37647942  0.37482801  1
loop_
_geom_bond_atom_site_label_1
_geom_bond_atom_site_label_2
_geom_bond_distance
_geom_bond_site_symmetry_2
Nb0 Se3 2.610715 1_555
Nb0 Se1 2.612611 1_455
Nb0 Se1 2.612611 1_555
Nb0 Se5 2.613593 1_555
Nb0 Se5 2.613593 1_455
Nb0 Se7 2.616543 1_555
Nb1 Se2 2.594236 1_655
Nb1 Se2 2.594236 1_555
Nb1 Se4 2.597768 1_554
Nb1 Se4 2.597768 1_654
Nb1 Se6 2.624518 1_554
Nb1 Se0 2.626308 1_555
Nb2 Se1 2.610782 1_545
Nb2 Se3 2.612776 1_655
Nb2 Se3 2.612776 1_555
Nb2 Se7 2.614788 1_555
Nb2 Se7 2.614788 1_655
Nb2 Se5 2.614841 1_545
Mo0 Se4 2.550891 1_544
Mo0 Se2 2.551388 1_545
Mo0 Se0 2.567364 1_455
Mo0 Se0 2.567364 1_555
Mo0 Se6 2.567937 1_554
Mo0 Se6 2.567937 1_454
