# generated using pymatgen
data_NaY(C2O5)2
_symmetry_space_group_name_H-M   'P 1'
_cell_length_a   6.43647836
_cell_length_b   11.62188300
_cell_length_c   6.45635299
_cell_angle_alpha   90.00000000
_cell_angle_beta   90.20675939
_cell_angle_gamma   90.00000000
_symmetry_Int_Tables_number   1
_chemical_formula_structural   NaY(C2O5)2
_chemical_formula_sum   'Na2 Y2 C8 O20'
_cell_volume   482.95787462
_cell_formula_units_Z   2
loop_
 _symmetry_equiv_pos_site_id
 _symmetry_equiv_pos_as_xyz
  1  'x, y, z'
loop_
 _atom_site_type_symbol
 _atom_site_label
 _atom_site_symmetry_multiplicity
 _atom_site_fract_x
 _atom_site_fract_y
 _atom_site_fract_z
 _atom_site_occupancy
  Na  Na0  1  0.89166200  0.23690600  0.06160100  1
  Na  Na1  1  0.10833800  0.73690600  0.93839900  1
  Y  Y0  1  0.84123300  0.47705400  0.73224200  1
  Y  Y1  1  0.15876700  0.97705400  0.26775800  1
  C  C0  1  0.32920100  0.38631900  0.80920600  1
  C  C1  1  0.67079900  0.88631900  0.19079400  1
  C  C2  1  0.93874800  0.51705500  0.24429400  1
  C  C3  1  0.06125200  0.01705500  0.75570600  1
  C  C4  1  0.89617200  0.18667300  0.58171700  1
  C  C5  1  0.10382800  0.68667300  0.41828300  1
  C  C6  1  0.62470900  0.72711800  0.92764800  1
  C  C7  1  0.37529100  0.22711800  0.07235200  1
  O  O0  1  0.51644100  0.41495000  0.81270000  1
  O  O1  1  0.48355900  0.91495000  0.18730000  1
  O  O2  1  0.18566000  0.43317700  0.70607100  1
  O  O3  1  0.81434000  0.93317700  0.29393000  1
  O  O4  1  0.08449300  0.60431600  0.24877500  1
  O  O5  1  0.91550700  0.10431600  0.75122500  1
  O  O6  1  0.94237400  0.45818800  0.07954500  1
  O  O7  1  0.05762600  0.95818800  0.92045500  1
  O  O8  1  0.83158300  0.28065300  0.65275900  1
  O  O9  1  0.16841700  0.78065300  0.34724100  1
  O  O10  1  0.93595800  0.15614000  0.40234600  1
  O  O11  1  0.06404200  0.65614000  0.59765400  1
  O  O12  1  0.44800900  0.75307600  0.87656100  1
  O  O13  1  0.55199100  0.25307600  0.12343900  1
  O  O14  1  0.74170400  0.64587600  0.86445400  1
  O  O15  1  0.25829600  0.14587600  0.13554600  1
  O  O16  1  0.81517300  0.50312300  0.39243800  1
  O  O17  1  0.18482700  0.00312300  0.60756200  1
  O  O18  1  0.74263500  0.79247600  0.07628400  1
  O  O19  1  0.25736500  0.29247600  0.92371600  1
loop_
_geom_bond_atom_site_label_1
_geom_bond_atom_site_label_2
_geom_bond_distance
_geom_bond_site_symmetry_2
Na0 O13 2.231783 1_555
Na0 O10 2.407841 1_555
Na0 O5 2.532961 1_554
Na0 O6 2.594880 1_555
Na0 O19 2.601018 1_654
Na0 O15 2.628276 1_655
Na0 O8 2.714461 1_554
Na1 O12 2.231783 1_555
Na1 O11 2.407841 1_555
Na1 O4 2.532961 1_556
Na1 O7 2.594880 1_555
Na1 O18 2.601018 1_456
Na1 O14 2.628276 1_455
Na1 O9 2.714461 1_556
C0 O0 1.250383 1_555
C0 O2 1.260597 1_555
C0 O19 1.397255 1_555
C1 O1 1.250383 1_555
C1 O3 1.260600 1_555
C1 O18 1.397255 1_555
C2 O16 1.256656 1_555
C2 O6 1.264986 1_555
C2 O4 1.381708 1_655
C3 O17 1.256656 1_555
C3 O7 1.264986 1_545
C3 O5 1.381708 1_455
C4 O10 1.238867 1_555
C4 O8 1.256001 1_555
C4 O5 1.458886 1_555
C5 O11 1.238867 1_555
C5 O9 1.256001 1_555
C5 O4 1.458886 1_555
C6 O12 1.220903 1_555
C6 O14 1.275630 1_555
C6 O18 1.438317 1_556
C7 O13 1.220903 1_555
C7 O15 1.275630 1_555
C7 O19 1.438317 1_554
O0 Y0 2.273519 1_555
O1 Y1 2.273519 1_555
O2 Y0 2.281648 1_455
O3 Y1 2.281649 1_655
O6 Y0 2.342923 1_554
O7 Y1 2.342923 1_556
O8 Y0 2.340300 1_555
O9 Y1 2.340300 1_555
O10 Y1 2.674435 1_645
O11 Y0 2.674435 1_455
O14 Y0 2.234400 1_555
O15 Y1 2.234400 1_545
O16 Y0 2.220460 1_555
O17 Y1 2.220460 1_545
