# generated using pymatgen
data_RbMg30MnO32
_symmetry_space_group_name_H-M   'P 1'
_cell_length_a   8.60072000
_cell_length_b   8.60072000
_cell_length_c   8.67426100
_cell_angle_alpha   90.00000000
_cell_angle_beta   90.00000000
_cell_angle_gamma   90.00000000
_symmetry_Int_Tables_number   1
_chemical_formula_structural   RbMg30MnO32
_chemical_formula_sum   'Rb1 Mg30 Mn1 O32'
_cell_volume   641.65577010
_cell_formula_units_Z   1
loop_
 _symmetry_equiv_pos_site_id
 _symmetry_equiv_pos_as_xyz
  1  'x, y, z'
loop_
 _atom_site_type_symbol
 _atom_site_label
 _atom_site_symmetry_multiplicity
 _atom_site_fract_x
 _atom_site_fract_y
 _atom_site_fract_z
 _atom_site_occupancy
  Rb  Rb0  1  0.50000000  0.50000000  0.00000000  1
  Mg  Mg0  1  0.00000000  0.50000000  0.00000000  1
  Mg  Mg1  1  0.50000000  0.00000000  0.00000000  1
  Mg  Mg2  1  0.00000000  0.00000000  0.50000000  1
  Mg  Mg3  1  0.00000000  0.50000000  0.50000000  1
  Mg  Mg4  1  0.50000000  0.00000000  0.50000000  1
  Mg  Mg5  1  0.50000000  0.50000000  0.50000000  1
  Mg  Mg6  1  0.24988100  0.24988100  0.00000000  1
  Mg  Mg7  1  0.24988100  0.75011900  0.00000000  1
  Mg  Mg8  1  0.75011900  0.24988100  0.00000000  1
  Mg  Mg9  1  0.75011900  0.75011900  0.00000000  1
  Mg  Mg10  1  0.25078500  0.25078500  0.50000000  1
  Mg  Mg11  1  0.25078500  0.74921600  0.50000000  1
  Mg  Mg12  1  0.74921600  0.25078500  0.50000000  1
  Mg  Mg13  1  0.74921600  0.74921600  0.50000000  1
  Mg  Mg14  1  0.00000000  0.25014100  0.25445600  1
  Mg  Mg15  1  0.00000000  0.74985900  0.25445600  1
  Mg  Mg16  1  0.50000000  0.24779400  0.25394200  1
  Mg  Mg17  1  0.50000000  0.75220600  0.25394200  1
  Mg  Mg18  1  0.00000000  0.25014100  0.74554400  1
  Mg  Mg19  1  0.00000000  0.74985900  0.74554400  1
  Mg  Mg20  1  0.50000000  0.24779400  0.74605800  1
  Mg  Mg21  1  0.50000000  0.75220600  0.74605800  1
  Mg  Mg22  1  0.25014100  0.00000000  0.25445600  1
  Mg  Mg23  1  0.24779400  0.50000000  0.25394200  1
  Mg  Mg24  1  0.74985900  0.00000000  0.25445600  1
  Mg  Mg25  1  0.75220600  0.50000000  0.25394200  1
  Mg  Mg26  1  0.25014100  0.00000000  0.74554400  1
  Mg  Mg27  1  0.24779400  0.50000000  0.74605800  1
  Mg  Mg28  1  0.74985900  0.00000000  0.74554400  1
  Mg  Mg29  1  0.75220600  0.50000000  0.74605800  1
  Mn  Mn0  1  0.00000000  0.00000000  0.00000000  1
  O  O0  1  0.00000000  0.00000000  0.25809400  1
  O  O1  1  0.00000000  0.50000000  0.25338800  1
  O  O2  1  0.50000000  0.00000000  0.25338800  1
  O  O3  1  0.50000000  0.50000000  0.27893600  1
  O  O4  1  0.00000000  0.00000000  0.74190600  1
  O  O5  1  0.00000000  0.50000000  0.74661200  1
  O  O6  1  0.50000000  0.00000000  0.74661200  1
  O  O7  1  0.50000000  0.50000000  0.72106400  1
  O  O8  1  0.24945500  0.24945500  0.24861800  1
  O  O9  1  0.24945500  0.75054500  0.24861800  1
  O  O10  1  0.75054500  0.24945500  0.24861800  1
  O  O11  1  0.75054500  0.75054500  0.24861800  1
  O  O12  1  0.24945500  0.24945500  0.75138200  1
  O  O13  1  0.24945500  0.75054500  0.75138200  1
  O  O14  1  0.75054500  0.24945500  0.75138200  1
  O  O15  1  0.75054500  0.75054500  0.75138200  1
  O  O16  1  0.00000000  0.23337800  0.00000000  1
  O  O17  1  0.00000000  0.76662200  0.00000000  1
  O  O18  1  0.50000000  0.21968400  0.00000000  1
  O  O19  1  0.50000000  0.78031600  0.00000000  1
  O  O20  1  0.00000000  0.24930200  0.50000000  1
  O  O21  1  0.00000000  0.75069800  0.50000000  1
  O  O22  1  0.50000000  0.24396000  0.50000000  1
  O  O23  1  0.50000000  0.75604000  0.50000000  1
  O  O24  1  0.23337800  0.00000000  0.00000000  1
  O  O25  1  0.21968400  0.50000000  0.00000000  1
  O  O26  1  0.76662200  0.00000000  0.00000000  1
  O  O27  1  0.78031600  0.50000000  0.00000000  1
  O  O28  1  0.24930200  0.00000000  0.50000000  1
  O  O29  1  0.24396000  0.50000000  0.50000000  1
  O  O30  1  0.75069800  0.00000000  0.50000000  1
  O  O31  1  0.75604000  0.50000000  0.50000000  1
loop_
_geom_bond_atom_site_label_1
_geom_bond_atom_site_label_2
_geom_bond_distance
_geom_bond_site_symmetry_2
Mg0 O27 1.889441 1_455
Mg0 O25 1.889441 1_555
Mg0 O5 2.197954 1_554
Mg0 O1 2.197954 1_555
Mg0 O17 2.293141 1_555
Mg0 O16 2.293141 1_555
Mg1 O18 1.889441 1_555
Mg1 O19 1.889441 1_545
Mg1 O6 2.197954 1_554
Mg1 O2 2.197954 1_555
Mg1 O24 2.293141 1_555
Mg1 O26 2.293141 1_555
Mg2 O4 2.098356 1_555
Mg2 O0 2.098356 1_555
Mg2 O28 2.144177 1_555
Mg2 O30 2.144177 1_455
Mg2 O21 2.144177 1_545
Mg2 O20 2.144177 1_555
Mg3 O31 2.098232 1_455
Mg3 O29 2.098232 1_555
Mg3 O1 2.139177 1_555
Mg3 O5 2.139177 1_555
Mg3 O21 2.156183 1_555
Mg3 O20 2.156183 1_555
Mg4 O23 2.098232 1_545
Mg4 O22 2.098232 1_555
Mg4 O2 2.139177 1_555
Mg4 O6 2.139177 1_555
Mg4 O28 2.156183 1_555
Mg4 O30 2.156183 1_555
Mg5 O3 1.917567 1_555
Mg5 O7 1.917567 1_555
Mg5 O22 2.202128 1_555
Mg5 O29 2.202128 1_555
Mg5 O23 2.202128 1_555
Mg5 O31 2.202128 1_555
Mg6 O24 2.153838 1_555
Mg6 O16 2.153838 1_555
Mg6 O8 2.156584 1_555
Mg6 O12 2.156584 1_554
Mg6 O18 2.166825 1_555
Mg6 O25 2.166825 1_555
Mg7 O17 2.153838 1_555
Mg7 O24 2.153838 1_565
Mg7 O13 2.156584 1_554
Mg7 O9 2.156584 1_555
Mg7 O19 2.166825 1_555
Mg7 O25 2.166825 1_555
Mg8 O26 2.153838 1_555
Mg8 O16 2.153838 1_655
Mg8 O10 2.156584 1_555
Mg8 O14 2.156584 1_554
Mg8 O18 2.166825 1_555
Mg8 O27 2.166825 1_555
Mg9 O17 2.153838 1_655
Mg9 O26 2.153838 1_565
Mg9 O15 2.156584 1_554
Mg9 O11 2.156584 1_555
Mg9 O19 2.166825 1_555
Mg9 O27 2.166825 1_555
Mg10 O29 2.144232 1_555
Mg10 O22 2.144232 1_555
Mg10 O28 2.156969 1_555
Mg10 O20 2.156969 1_555
Mg10 O8 2.180613 1_555
Mg10 O12 2.180613 1_555
Mg11 O23 2.144232 1_555
Mg11 O29 2.144241 1_555
Mg11 O28 2.156961 1_565
Mg11 O21 2.156969 1_555
Mg11 O9 2.180613 1_555
Mg11 O13 2.180613 1_555
Mg12 O31 2.144232 1_555
Mg12 O22 2.144241 1_555
Mg12 O20 2.156961 1_655
Mg12 O30 2.156969 1_555
Mg12 O14 2.180613 1_555
Mg12 O10 2.180613 1_555
Mg13 O31 2.144240 1_555
Mg13 O23 2.144240 1_555
Mg13 O30 2.156961 1_565
Mg13 O21 2.156961 1_655
Mg13 O15 2.180613 1_555
Mg13 O11 2.180613 1_555
Mg14 O20 2.129925 1_555
Mg14 O10 2.146098 1_455
Mg14 O8 2.146098 1_555
Mg14 O1 2.148987 1_555
Mg14 O0 2.151624 1_555
Mg14 O16 2.211921 1_555
Mg15 O21 2.129925 1_555
Mg15 O11 2.146098 1_455
Mg15 O9 2.146098 1_555
Mg15 O1 2.148987 1_555
Mg15 O0 2.151624 1_565
Mg15 O17 2.211921 1_555
Mg16 O2 2.131212 1_555
Mg16 O22 2.134626 1_555
Mg16 O8 2.155410 1_555
Mg16 O10 2.155410 1_555
Mg16 O3 2.179961 1_555
Mg16 O18 2.215987 1_555
Mg17 O2 2.131212 1_565
Mg17 O23 2.134626 1_555
Mg17 O11 2.155410 1_555
Mg17 O9 2.155410 1_555
Mg17 O3 2.179961 1_555
Mg17 O19 2.215987 1_555
Mg18 O20 2.129925 1_555
Mg18 O14 2.146098 1_455
Mg18 O12 2.146098 1_555
Mg18 O5 2.148987 1_555
Mg18 O4 2.151624 1_555
Mg18 O16 2.211921 1_556
Mg19 O21 2.129925 1_555
Mg19 O15 2.146098 1_455
Mg19 O13 2.146098 1_555
Mg19 O5 2.148987 1_555
Mg19 O4 2.151624 1_565
Mg19 O17 2.211921 1_556
Mg20 O6 2.131212 1_555
Mg20 O22 2.134626 1_555
Mg20 O14 2.155410 1_555
Mg20 O12 2.155410 1_555
Mg20 O7 2.179961 1_555
Mg20 O18 2.215987 1_556
Mg21 O6 2.131212 1_565
Mg21 O23 2.134626 1_555
Mg21 O15 2.155410 1_555
Mg21 O13 2.155410 1_555
Mg21 O7 2.179961 1_555
Mg21 O19 2.215987 1_556
Mg22 O28 2.129925 1_555
Mg22 O9 2.146098 1_545
Mg22 O8 2.146098 1_555
Mg22 O2 2.148987 1_555
Mg22 O0 2.151624 1_555
Mg22 O24 2.211921 1_555
Mg23 O1 2.131212 1_555
Mg23 O29 2.134626 1_555
Mg23 O8 2.155410 1_555
Mg23 O9 2.155410 1_555
Mg23 O3 2.179961 1_555
Mg23 O25 2.215987 1_555
Mg24 O30 2.129925 1_555
Mg24 O11 2.146098 1_545
Mg24 O10 2.146098 1_555
Mg24 O2 2.148987 1_555
Mg24 O0 2.151624 1_655
Mg24 O26 2.211921 1_555
Mg25 O1 2.131212 1_655
Mg25 O31 2.134626 1_555
Mg25 O10 2.155410 1_555
Mg25 O11 2.155410 1_555
Mg25 O3 2.179961 1_555
Mg25 O27 2.215987 1_555
Mg26 O28 2.129925 1_555
Mg26 O13 2.146098 1_545
Mg26 O12 2.146098 1_555
Mg26 O6 2.148987 1_555
Mg26 O4 2.151624 1_555
Mg26 O24 2.211921 1_556
Mg27 O5 2.131212 1_555
Mg27 O29 2.134626 1_555
Mg27 O12 2.155410 1_555
Mg27 O13 2.155410 1_555
Mg27 O7 2.179961 1_555
Mg27 O25 2.215987 1_556
Mg28 O30 2.129925 1_555
Mg28 O15 2.146098 1_545
Mg28 O14 2.146098 1_555
Mg28 O6 2.148987 1_555
Mg28 O4 2.151624 1_655
Mg28 O26 2.211921 1_556
Mg29 O5 2.131212 1_655
Mg29 O31 2.134626 1_555
Mg29 O14 2.155410 1_555
Mg29 O15 2.155410 1_555
Mg29 O7 2.179961 1_555
Mg29 O27 2.215987 1_556
Mn0 O26 2.007219 1_455
Mn0 O17 2.007219 1_545
Mn0 O24 2.007219 1_555
Mn0 O16 2.007219 1_555
Mn0 O0 2.238775 1_555
Mn0 O4 2.238775 1_554
O3 Rb0 2.419564 1_555
O7 Rb0 2.419564 1_556
O18 Rb0 2.410919 1_555
O19 Rb0 2.410919 1_555
O25 Rb0 2.410919 1_555
O27 Rb0 2.410919 1_555
