# generated using pymatgen
data_Li9Mn7O16
_symmetry_space_group_name_H-M   'P 1'
_cell_length_a   5.84023400
_cell_length_b   6.02116678
_cell_length_c   9.88326079
_cell_angle_alpha   77.62229449
_cell_angle_beta   81.81730715
_cell_angle_gamma   61.57030883
_symmetry_Int_Tables_number   1
_chemical_formula_structural   Li9Mn7O16
_chemical_formula_sum   'Li9 Mn7 O16'
_cell_volume   298.19925129
_cell_formula_units_Z   1
loop_
 _symmetry_equiv_pos_site_id
 _symmetry_equiv_pos_as_xyz
  1  'x, y, z'
loop_
 _atom_site_type_symbol
 _atom_site_label
 _atom_site_symmetry_multiplicity
 _atom_site_fract_x
 _atom_site_fract_y
 _atom_site_fract_z
 _atom_site_occupancy
  Li  Li0  1  0.50000000  0.50000000  0.50000000  1
  Li  Li1  1  0.87249800  0.37775000  0.25400300  1
  Li  Li2  1  0.25193700  0.24818700  0.99668500  1
  Li  Li3  1  0.62021900  0.12872100  0.74939000  1
  Li  Li4  1  0.00000000  0.00000000  0.50000000  1
  Li  Li5  1  0.37978100  0.87127900  0.25061000  1
  Li  Li6  1  0.74806300  0.75181300  0.00331500  1
  Li  Li7  1  0.12750200  0.62225000  0.74599700  1
  Li  Li8  1  0.50000000  0.00000000  0.50000000  1
  Mn  Mn0  1  0.62789900  0.62292900  0.74547400  1
  Mn  Mn1  1  0.00000000  0.50000000  0.50000000  1
  Mn  Mn2  1  0.37210100  0.37707100  0.25452600  1
  Mn  Mn3  1  0.25069200  0.75163000  0.99947900  1
  Mn  Mn4  1  0.13395800  0.11497800  0.74347000  1
  Mn  Mn5  1  0.86604200  0.88502200  0.25653000  1
  Mn  Mn6  1  0.74930800  0.24837000  0.00052100  1
  O  O0  1  0.32279800  0.81469000  0.63772000  1
  O  O1  1  0.71245800  0.68607500  0.37409500  1
  O  O2  1  0.07514600  0.57577500  0.12884100  1
  O  O3  1  0.46316200  0.42975100  0.87459000  1
  O  O4  1  0.83933200  0.30212500  0.61817300  1
  O  O5  1  0.17460100  0.23324400  0.38264400  1
  O  O6  1  0.58141000  0.05766600  0.12397600  1
  O  O7  1  0.96330300  0.93242800  0.87120300  1
  O  O8  1  0.67720200  0.18531000  0.36228000  1
  O  O9  1  0.03669700  0.06757200  0.12879700  1
  O  O10  1  0.41859000  0.94233400  0.87602400  1
  O  O11  1  0.82539900  0.76675600  0.61735600  1
  O  O12  1  0.16066800  0.69787500  0.38182700  1
  O  O13  1  0.53683800  0.57024900  0.12541000  1
  O  O14  1  0.92485400  0.42422500  0.87115900  1
  O  O15  1  0.28754200  0.31392500  0.62590500  1
loop_
_geom_bond_atom_site_label_1
_geom_bond_atom_site_label_2
_geom_bond_distance
_geom_bond_site_symmetry_2
Li0 O4 2.127238 1_555
Li0 O12 2.127238 1_555
Li0 O1 2.151686 1_555
Li0 O15 2.151686 1_555
Li0 O8 2.313334 1_555
Li0 O0 2.313334 1_555
Li1 O8 2.041578 1_555
Li1 O5 2.046710 1_655
Li1 O2 2.155723 1_655
Li1 O1 2.169220 1_555
Li1 O13 2.171589 1_555
Li1 O9 2.210569 1_655
Li2 O3 2.113726 1_555
Li2 O14 2.120042 1_455
Li2 O6 2.137715 1_556
Li2 O10 2.159937 1_545
Li2 O9 2.166425 1_556
Li2 O2 2.333260 1_556
Li3 O10 2.109302 1_545
Li3 O15 2.129898 1_555
Li3 O4 2.151465 1_555
Li3 O7 2.163990 1_545
Li3 O3 2.170995 1_555
Li3 O11 2.485199 1_545
Li4 O4 2.127773 1_455
Li4 O12 2.127773 1_545
Li4 O5 2.164716 1_555
Li4 O11 2.164716 1_445
Li4 O8 2.174432 1_455
Li4 O0 2.174432 1_545
Li5 O6 2.109302 1_565
Li5 O1 2.129898 1_555
Li5 O12 2.151465 1_555
Li5 O9 2.163990 1_565
Li5 O13 2.170995 1_555
Li5 O5 2.485199 1_565
Li6 O13 2.113726 1_555
Li6 O2 2.120042 1_655
Li6 O10 2.137715 1_554
Li6 O6 2.159937 1_565
Li6 O7 2.166425 1_554
Li6 O14 2.333260 1_554
Li7 O0 2.041578 1_555
Li7 O11 2.046710 1_455
Li7 O14 2.155723 1_455
Li7 O15 2.169220 1_555
Li7 O3 2.171589 1_555
Li7 O7 2.210569 1_455
Li8 O8 2.053304 1_555
Li8 O0 2.053304 1_545
Li8 O11 2.077746 1_545
Li8 O5 2.077746 1_555
Li8 O15 2.235291 1_555
Li8 O1 2.235291 1_545
Mn0 O0 1.922600 1_555
Mn0 O11 1.936227 1_555
Mn0 O14 1.995649 1_555
Mn0 O3 1.996672 1_555
Mn0 O4 2.273191 1_555
Mn0 O10 2.287815 1_555
Mn1 O4 1.954492 1_455
Mn1 O12 1.954492 1_555
Mn1 O15 1.956898 1_555
Mn1 O1 1.956898 1_455
Mn1 O11 1.966573 1_455
Mn1 O5 1.966573 1_555
Mn2 O8 1.922600 1_555
Mn2 O5 1.936227 1_555
Mn2 O2 1.995649 1_555
Mn2 O13 1.996672 1_555
Mn2 O12 2.273191 1_555
Mn2 O6 2.287815 1_555
Mn3 O13 1.950924 1_556
Mn3 O7 1.970725 1_455
Mn3 O2 1.971550 1_556
Mn3 O10 1.974743 1_555
Mn3 O3 2.262559 1_555
Mn3 O9 2.266766 1_566
Mn4 O15 1.928537 1_555
Mn4 O7 1.971104 1_445
Mn4 O4 1.981455 1_455
Mn4 O10 1.987690 1_545
Mn4 O0 2.039897 1_545
Mn4 O14 2.225908 1_455
Mn5 O1 1.928537 1_555
Mn5 O9 1.971104 1_665
Mn5 O12 1.981455 1_655
Mn5 O6 1.987690 1_565
Mn5 O8 2.039897 1_565
Mn5 O2 2.225908 1_655
Mn6 O3 1.950924 1_554
Mn6 O9 1.970725 1_655
Mn6 O14 1.971550 1_554
Mn6 O6 1.974743 1_555
Mn6 O13 2.262559 1_555
Mn6 O7 2.266766 1_544
