# generated using pymatgen
data_MgZrNi2
_symmetry_space_group_name_H-M   'P 1'
_cell_length_a   4.38780927
_cell_length_b   4.38780927
_cell_length_c   4.38780927
_cell_angle_alpha   60.00000000
_cell_angle_beta   60.00000000
_cell_angle_gamma   60.00000000
_symmetry_Int_Tables_number   1
_chemical_formula_structural   MgZrNi2
_chemical_formula_sum   'Mg1 Zr1 Ni2'
_cell_volume   59.73491175
_cell_formula_units_Z   1
loop_
 _symmetry_equiv_pos_site_id
 _symmetry_equiv_pos_as_xyz
  1  'x, y, z'
loop_
 _atom_site_type_symbol
 _atom_site_label
 _atom_site_symmetry_multiplicity
 _atom_site_fract_x
 _atom_site_fract_y
 _atom_site_fract_z
 _atom_site_occupancy
  Mg  Mg0  1  0.50000000  0.50000000  0.50000000  1
  Zr  Zr0  1  0.00000000  -0.00000000  -0.00000000  1
  Ni  Ni0  1  0.25000000  0.25000000  0.25000000  1
  Ni  Ni1  1  0.75000000  0.75000000  0.75000000  1
loop_
_geom_bond_atom_site_label_1
_geom_bond_atom_site_label_2
_geom_bond_distance
_geom_bond_site_symmetry_2
Mg0 Ni1 2.686973 1_545
Mg0 Ni1 2.686973 1_555
Mg0 Ni0 2.686973 1_556
Mg0 Ni0 2.686973 1_655
Mg0 Ni1 2.686973 1_554
Mg0 Ni0 2.686973 1_555
Mg0 Ni0 2.686973 1_565
Mg0 Ni1 2.686973 1_455
Ni0 Zr0 2.686973 1_555
Ni0 Zr0 2.686973 1_556
Ni0 Zr0 2.686973 1_565
Ni0 Zr0 2.686973 1_655
Ni1 Zr0 2.686973 1_656
Ni1 Zr0 2.686973 1_566
Ni1 Zr0 2.686973 1_666
Ni1 Zr0 2.686973 1_665
