# generated using pymatgen
data_Li7Mn5O12
_symmetry_space_group_name_H-M   'P 1'
_cell_length_a   6.04029676
_cell_length_b   9.85708354
_cell_length_c   8.68438787
_cell_angle_alpha   69.06254640
_cell_angle_beta   109.74755745
_cell_angle_gamma   85.77526491
_symmetry_Int_Tables_number   1
_chemical_formula_structural   Li7Mn5O12
_chemical_formula_sum   'Li14 Mn10 O24'
_cell_volume   443.26902116
_cell_formula_units_Z   2
loop_
 _symmetry_equiv_pos_site_id
 _symmetry_equiv_pos_as_xyz
  1  'x, y, z'
loop_
 _atom_site_type_symbol
 _atom_site_label
 _atom_site_symmetry_multiplicity
 _atom_site_fract_x
 _atom_site_fract_y
 _atom_site_fract_z
 _atom_site_occupancy
  Li  Li0  1  0.50012300  0.00001000  0.00006900  1
  Li  Li1  1  0.99996200  0.50002900  0.50004100  1
  Li  Li2  1  0.92081300  0.33524500  0.82959100  1
  Li  Li3  1  0.40747700  0.82024000  0.33887100  1
  Li  Li4  1  0.07916400  0.66477000  0.17040000  1
  Li  Li5  1  0.59225300  0.17956000  0.66107800  1
  Li  Li6  1  0.40084200  0.34138100  0.82042000  1
  Li  Li7  1  0.90995000  0.83700700  0.32095500  1
  Li  Li8  1  0.59909500  0.65844900  0.17965300  1
  Li  Li9  1  0.09023300  0.16301200  0.67891300  1
  Li  Li10  1  0.25719200  0.51144200  0.99204900  1
  Li  Li11  1  0.74834800  0.00249100  0.49612100  1
  Li  Li12  1  0.74283900  0.48847800  0.00797800  1
  Li  Li13  1  0.25181800  0.99742200  0.50386800  1
  Mn  Mn0  1  0.49991700  0.49990200  0.50004800  1
  Mn  Mn1  1  0.99999100  0.00006400  0.99971700  1
  Mn  Mn2  1  0.83518600  0.66279600  0.66558200  1
  Mn  Mn3  1  0.33111800  0.16236700  0.16783400  1
  Mn  Mn4  1  0.16462600  0.33715300  0.33444600  1
  Mn  Mn5  1  0.66887200  0.83749100  0.83224400  1
  Mn  Mn6  1  0.32485900  0.66140300  0.66611200  1
  Mn  Mn7  1  0.82416000  0.16255300  0.16695400  1
  Mn  Mn8  1  0.67517700  0.33856400  0.33395000  1
  Mn  Mn9  1  0.17587400  0.83763600  0.83297600  1
  O  O0  1  0.72915000  0.15774800  0.93422500  1
  O  O1  1  0.22873700  0.65913700  0.43079400  1
  O  O2  1  0.27090700  0.84237500  0.06568500  1
  O  O3  1  0.77123900  0.34070000  0.56934600  1
  O  O4  1  0.19199000  0.14905300  0.93874500  1
  O  O5  1  0.68779800  0.65062900  0.43336800  1
  O  O6  1  0.80815400  0.85108200  0.06111000  1
  O  O7  1  0.31207000  0.34919300  0.56675000  1
  O  O8  1  0.03221100  0.30702600  0.10531200  1
  O  O9  1  0.56635400  0.82823800  0.59799500  1
  O  O10  1  0.96786500  0.69308500  0.89473500  1
  O  O11  1  0.43370900  0.17179800  0.40209000  1
  O  O12  1  0.56011600  0.32576200  0.09489500  1
  O  O13  1  0.06428200  0.82916100  0.59737600  1
  O  O14  1  0.43983100  0.67436400  0.90519200  1
  O  O15  1  0.93575000  0.17093100  0.40273400  1
  O  O16  1  0.40044400  0.49805300  0.26289900  1
  O  O17  1  0.90488400  0.99953400  0.76342600  1
  O  O18  1  0.59943300  0.50190200  0.73709200  1
  O  O19  1  0.09507900  0.00063900  0.23628500  1
  O  O20  1  0.89338100  0.49521000  0.24739700  1
  O  O21  1  0.36718600  0.97650400  0.76158300  1
  O  O22  1  0.10658600  0.50477100  0.75268300  1
  O  O23  1  0.63295500  0.02363900  0.23841100  1
loop_
_geom_bond_atom_site_label_1
_geom_bond_atom_site_label_2
_geom_bond_distance
_geom_bond_site_symmetry_2
Li0 O23 2.057217 1_555
Li0 O21 2.057790 1_544
Li0 O6 2.067062 1_545
Li0 O4 2.067417 1_554
Li0 O2 2.207556 1_545
Li0 O0 2.207782 1_554
Li1 O5 2.080816 1_555
Li1 O7 2.081745 1_655
Li1 O22 2.086539 1_655
Li1 O20 2.086887 1_555
Li1 O1 2.222095 1_655
Li1 O3 2.223397 1_555
Li2 O4 2.052895 1_655
Li2 O3 2.110267 1_555
Li2 O22 2.117231 1_655
Li2 O18 2.155355 1_555
Li2 O8 2.161309 1_656
Li2 O0 2.258352 1_555
Li3 O5 1.999740 1_555
Li3 O1 2.062442 1_555
Li3 O2 2.153521 1_555
Li3 O9 2.160967 1_555
Li3 O19 2.180318 1_565
Li3 O23 2.567276 1_565
Li4 O6 2.052958 1_455
Li4 O1 2.110772 1_555
Li4 O20 2.117677 1_455
Li4 O16 2.155254 1_555
Li4 O10 2.160613 1_454
Li4 O2 2.259615 1_555
Li5 O7 1.999594 1_555
Li5 O3 2.063265 1_555
Li5 O0 2.154235 1_555
Li5 O11 2.158683 1_555
Li5 O17 2.179396 1_545
Li5 O21 2.563264 1_545
Li6 O7 2.054498 1_555
Li6 O22 2.072105 1_555
Li6 O18 2.124633 1_555
Li6 O12 2.190271 1_556
Li6 O0 2.248096 1_555
Li6 O4 2.465255 1_555
Li7 O6 2.077400 1_555
Li7 O19 2.089600 1_665
Li7 O23 2.119211 1_565
Li7 O1 2.181237 1_655
Li7 O13 2.232063 1_655
Li7 O5 2.468881 1_555
Li8 O5 2.054892 1_555
Li8 O20 2.071304 1_555
Li8 O16 2.123892 1_555
Li8 O14 2.189134 1_554
Li8 O2 2.249086 1_555
Li8 O6 2.468716 1_555
Li9 O4 2.077702 1_555
Li9 O17 2.089154 1_445
Li9 O21 2.117953 1_545
Li9 O3 2.181389 1_455
Li9 O15 2.229899 1_455
Li9 O7 2.465560 1_555
Li10 O22 1.995420 1_555
Li10 O14 2.079094 1_555
Li10 O10 2.105626 1_455
Li10 O16 2.164435 1_556
Li10 O12 2.174738 1_556
Li10 O8 2.600864 1_556
Li11 O23 2.032039 1_555
Li11 O11 2.138662 1_555
Li11 O15 2.151899 1_555
Li11 O13 2.155448 1_645
Li11 O17 2.178997 1_545
Li11 O9 2.188782 1_545
Li12 O20 1.996057 1_555
Li12 O12 2.078210 1_555
Li12 O8 2.104551 1_655
Li12 O18 2.164628 1_554
Li12 O14 2.176439 1_554
Li12 O10 2.602285 1_554
Li13 O21 2.032804 1_555
Li13 O9 2.137360 1_555
Li13 O13 2.151576 1_555
Li13 O15 2.157216 1_465
Li13 O19 2.180271 1_565
Li13 O11 2.188926 1_565
Mn0 O1 1.946590 1_555
Mn0 O3 1.946865 1_555
Mn0 O18 1.947828 1_555
Mn0 O16 1.948102 1_555
Mn0 O7 1.976696 1_555
Mn0 O5 1.976926 1_555
Mn1 O17 1.937117 1_545
Mn1 O19 1.939613 1_656
Mn1 O2 1.943547 1_646
Mn1 O0 1.944349 1_555
Mn1 O6 1.972856 1_546
Mn1 O4 1.972883 1_655
Mn2 O22 1.905162 1_655
Mn2 O5 1.961927 1_555
Mn2 O9 1.980511 1_555
Mn2 O10 2.018386 1_555
Mn2 O13 2.269138 1_655
Mn2 O18 2.270497 1_555
Mn3 O4 1.937679 1_554
Mn3 O11 1.955266 1_555
Mn3 O23 1.961665 1_555
Mn3 O8 1.998181 1_555
Mn3 O12 2.258257 1_555
Mn3 O19 2.271082 1_555
Mn4 O20 1.904816 1_455
Mn4 O7 1.962087 1_555
Mn4 O11 1.980811 1_555
Mn4 O8 2.017273 1_555
Mn4 O15 2.267338 1_455
Mn4 O16 2.270914 1_555
Mn5 O6 1.937290 1_556
Mn5 O9 1.954445 1_555
Mn5 O21 1.962232 1_555
Mn5 O10 1.997283 1_555
Mn5 O14 2.256735 1_555
Mn5 O17 2.273701 1_555
Mn6 O1 1.935617 1_555
Mn6 O18 1.958266 1_555
Mn6 O13 1.960675 1_555
Mn6 O14 2.009418 1_555
Mn6 O22 2.197129 1_555
Mn6 O9 2.328825 1_555
Mn7 O23 1.924563 1_555
Mn7 O0 1.924862 1_554
Mn7 O12 1.936864 1_555
Mn7 O19 1.962202 1_655
Mn7 O15 1.962202 1_555
Mn7 O8 2.016752 1_655
Mn8 O3 1.935760 1_555
Mn8 O16 1.958687 1_555
Mn8 O15 1.959716 1_555
Mn8 O12 2.008497 1_555
Mn8 O20 2.196850 1_555
Mn8 O11 2.328294 1_555
Mn9 O2 1.924413 1_556
Mn9 O21 1.924614 1_555
Mn9 O14 1.936584 1_555
Mn9 O13 1.961150 1_555
Mn9 O17 1.961884 1_455
Mn9 O10 2.017290 1_455
