# generated using pymatgen
data_SrZnP2WO8
_symmetry_space_group_name_H-M   'P 1'
_cell_length_a   5.48851600
_cell_length_b   7.62134074
_cell_length_c   9.53067431
_cell_angle_alpha   104.94134602
_cell_angle_beta   103.40453126
_cell_angle_gamma   105.94248486
_symmetry_Int_Tables_number   1
_chemical_formula_structural   SrZnP2WO8
_chemical_formula_sum   'Sr2 Zn2 P4 W2 O16'
_cell_volume   350.16938165
_cell_formula_units_Z   2
loop_
 _symmetry_equiv_pos_site_id
 _symmetry_equiv_pos_as_xyz
  1  'x, y, z'
loop_
 _atom_site_type_symbol
 _atom_site_label
 _atom_site_symmetry_multiplicity
 _atom_site_fract_x
 _atom_site_fract_y
 _atom_site_fract_z
 _atom_site_occupancy
  Sr  Sr0  1  0.20795100  0.78331900  0.04079000  1
  Sr  Sr1  1  0.79204900  0.21668100  0.95921000  1
  Zn  Zn0  1  0.93293100  0.36852400  0.61762300  1
  Zn  Zn1  1  0.06706900  0.63147600  0.38237700  1
  P  P0  1  0.48395300  0.42463000  0.22261100  1
  P  P1  1  0.51604700  0.57537000  0.77738900  1
  P  P2  1  0.84068800  0.02313700  0.29030600  1
  P  P3  1  0.15931200  0.97686300  0.70969400  1
  W  W0  1  0.58709600  0.82157400  0.54497000  1
  W  W1  1  0.41290400  0.17842600  0.45503000  1
  O  O0  1  0.73869500  0.55608700  0.89625200  1
  O  O1  1  0.74980400  0.44925100  0.18472600  1
  O  O2  1  0.61100000  0.77759700  0.75598500  1
  O  O3  1  0.96340600  0.09263000  0.69208400  1
  O  O4  1  0.25019600  0.55074900  0.81527400  1
  O  O5  1  0.97321500  0.76740100  0.60752200  1
  O  O6  1  0.02678500  0.23259900  0.39247800  1
  O  O7  1  0.29204300  0.01248700  0.87850700  1
  O  O8  1  0.38900000  0.22240300  0.24401500  1
  O  O9  1  0.70795700  0.98751300  0.12149300  1
  O  O10  1  0.26130500  0.44391300  0.10374800  1
  O  O11  1  0.56983300  0.58311400  0.38150300  1
  O  O12  1  0.43016700  0.41688600  0.61849700  1
  O  O13  1  0.60139600  0.96205000  0.36206200  1
  O  O14  1  0.03659400  0.90737000  0.30791600  1
  O  O15  1  0.39860400  0.03795000  0.63793800  1
loop_
_geom_bond_atom_site_label_1
_geom_bond_atom_site_label_2
_geom_bond_distance
_geom_bond_site_symmetry_2
W0 Zn1 2.677066 1_555
W1 Zn0 2.677066 1_555
O0 P1 1.529997 1_555
O0 Sr0 2.490921 1_656
O0 Sr1 2.876104 1_555
O1 P0 1.556739 1_555
O1 Zn1 2.076304 1_655
O1 Sr1 2.511456 1_554
O2 P1 1.568059 1_555
O2 W0 2.103220 1_555
O2 Sr1 3.142604 1_565
O3 P3 1.573718 1_645
O3 W0 2.306320 1_545
O3 Zn0 2.420848 1_555
O3 Sr1 2.935538 1_555
O4 P1 1.556739 1_555
O4 Zn0 2.076304 1_455
O4 Sr0 2.511456 1_556
O5 P3 1.543191 1_655
O5 W0 2.244721 1_555
O5 Zn1 2.366911 1_655
O6 P2 1.543191 1_455
O6 W1 2.244721 1_555
O6 Zn0 2.366911 1_455
O7 P3 1.521725 1_545
O7 Sr1 2.569547 1_555
O7 Sr0 2.633784 1_546
O8 P0 1.568059 1_555
O8 W1 2.103220 1_555
O8 Sr0 3.142604 1_545
O9 P2 1.521725 1_565
O9 Sr0 2.569547 1_555
O9 Sr1 2.633784 1_564
O10 P0 1.529997 1_555
O10 Sr1 2.490921 1_454
O10 Sr0 2.876104 1_555
O11 P0 1.545134 1_555
O11 W0 2.028793 1_555
O12 P1 1.545134 1_555
O12 W1 2.028793 1_555
O13 P2 1.629135 1_565
O13 W0 2.273966 1_555
O13 W1 2.276741 1_565
O13 Sr0 3.010279 1_555
O14 P2 1.573718 1_465
O14 W1 2.306320 1_565
O14 Zn1 2.420848 1_555
O14 Sr0 2.935538 1_555
O15 P3 1.629135 1_545
O15 W1 2.273966 1_555
O15 W0 2.276741 1_545
O15 Sr1 3.010279 1_555
