# generated using pymatgen
data_Sr6Mg(Te4O11)2
_symmetry_space_group_name_H-M   'P 1'
_cell_length_a   7.68061738
_cell_length_b   9.47876748
_cell_length_c   9.96885924
_cell_angle_alpha   98.09268534
_cell_angle_beta   110.04491170
_cell_angle_gamma   101.34394830
_symmetry_Int_Tables_number   1
_chemical_formula_structural   Sr6Mg(Te4O11)2
_chemical_formula_sum   'Sr6 Mg1 Te8 O22'
_cell_volume   651.17692197
_cell_formula_units_Z   1
loop_
 _symmetry_equiv_pos_site_id
 _symmetry_equiv_pos_as_xyz
  1  'x, y, z'
loop_
 _atom_site_type_symbol
 _atom_site_label
 _atom_site_symmetry_multiplicity
 _atom_site_fract_x
 _atom_site_fract_y
 _atom_site_fract_z
 _atom_site_occupancy
  Sr  Sr0  1  0.27569976  0.02569920  0.09401619  1
  Sr  Sr1  1  0.69832870  0.96628891  0.86697283  1
  Sr  Sr2  1  0.87589746  0.04585042  0.30060256  1
  Sr  Sr3  1  0.12932669  0.95321514  0.66615936  1
  Sr  Sr4  1  0.33015417  0.57812698  0.61214082  1
  Sr  Sr5  1  0.67284822  0.48637578  0.37277859  1
  Mg  Mg0  1  0.95850068  0.30616063  0.55811243  1
  Te  Te0  1  0.06880506  0.34990843  0.21511430  1
  Te  Te1  1  0.91706499  0.63505666  0.77914098  1
  Te  Te2  1  0.04227431  0.29100485  0.85583789  1
  Te  Te3  1  0.97394291  0.72792023  0.20944939  1
  Te  Te4  1  0.45371654  0.68500997  0.02905854  1
  Te  Te5  1  0.54857113  0.29083607  0.97552032  1
  Te  Te6  1  0.49157666  0.83321559  0.43993499  1
  Te  Te7  1  0.50770198  0.21907477  0.55904748  1
  O  O0  1  0.98770456  0.53337320  0.63217233  1
  O  O1  1  0.00456045  0.39973318  0.38607836  1
  O  O2  1  0.41974468  0.62492683  0.38291144  1
  O  O3  1  0.54700225  0.42661089  0.59062943  1
  O  O4  1  0.82826523  0.20446055  0.10258506  1
  O  O5  1  0.16078058  0.77396821  0.88322661  1
  O  O6  1  0.67917376  0.20468611  0.74562248  1
  O  O7  1  0.27323857  0.87034105  0.29853910  1
  O  O8  1  0.41242009  0.84966754  0.60133559  1
  O  O9  1  0.67385082  0.22020066  0.45142379  1
  O  O10  1  0.07315297  0.14498031  0.55010556  1
  O  O11  1  0.95034302  0.80492020  0.38491976  1
  O  O12  1  0.49178141  0.29322391  0.14532906  1
  O  O13  1  0.52181591  0.70795917  0.86839901  1
  O  O14  1  0.54334947  0.88176207  0.13947455  1
  O  O15  1  0.43509614  0.08482719  0.89738700  1
  O  O16  1  0.93417972  0.87617458  0.10235748  1
  O  O17  1  0.02691256  0.08703069  0.86610858  1
  O  O18  1  0.19783017  0.20689304  0.27383235  1
  O  O19  1  0.80126804  0.76335706  0.67243704  1
  O  O20  1  0.68171254  0.61536747  0.13735961  1
  O  O21  1  0.31974080  0.36036348  0.86776914  1
loop_
_geom_bond_atom_site_label_1
_geom_bond_atom_site_label_2
_geom_bond_distance
_geom_bond_site_symmetry_2
Mg0 O10 1.912874 1_655
Mg0 O9 2.009015 1_555
Mg0 O0 2.117202 1_555
Mg0 O1 2.138630 1_655
Mg0 Te2 2.844443 1_655
O0 Te1 1.929493 1_555
O0 Sr4 2.661367 1_655
O0 Sr5 2.774591 1_555
O1 Te0 1.952633 1_555
O1 Sr4 2.755357 1_555
O1 Sr5 2.793804 1_455
O2 Te6 1.888381 1_555
O2 Sr5 2.572093 1_555
O2 Sr4 2.671230 1_555
O3 Te7 1.893922 1_555
O3 Sr4 2.445758 1_555
O3 Sr5 2.746185 1_555
O4 Te0 1.927224 1_655
O4 Te5 2.451168 1_554
O4 Sr2 2.616819 1_555
O4 Sr1 2.761025 1_544
O5 Te1 1.904883 1_455
O5 Te4 2.595361 1_556
O5 Sr0 2.715966 1_566
O5 Sr3 2.909616 1_555
O6 Te7 1.917126 1_555
O6 Te2 2.530407 1_655
O6 Sr1 2.714739 1_545
O7 Te6 1.916852 1_555
O7 Te3 2.222079 1_455
O7 Sr0 2.680797 1_565
O8 Te6 1.902629 1_555
O8 Sr4 2.553542 1_555
O8 Sr1 2.700214 1_555
O8 Sr3 2.780801 1_555
O9 Te7 1.927724 1_555
O9 Sr5 2.746040 1_555
O9 Sr2 3.051021 1_555
O10 Sr3 2.321006 1_545
O10 Sr2 2.358698 1_455
O11 Te3 1.880250 1_555
O11 Sr2 2.640744 1_565
O11 Sr3 2.685930 1_655
O12 Te5 1.885627 1_554
O12 Sr5 2.468832 1_555
O12 Sr0 2.616023 1_555
O13 Te4 1.874455 1_556
O13 Sr4 2.455964 1_555
O13 Sr1 2.559518 1_555
O14 Te4 1.887092 1_555
O14 Sr2 2.538573 1_565
O14 Sr0 2.632792 1_565
O15 Te5 1.901647 1_555
O15 Sr1 2.580697 1_545
O15 Sr3 2.590737 1_545
O15 Sr0 2.709178 1_556
O16 Te3 1.890902 1_555
O16 Sr2 2.586024 1_565
O16 Sr0 2.759786 1_665
O16 Sr1 2.788611 1_554
O17 Te2 1.933082 1_555
O17 Sr1 2.561352 1_445
O17 Sr3 2.637461 1_545
O17 Sr0 2.642719 1_556
O18 Te0 1.875268 1_555
O18 Sr0 2.606340 1_555
O18 Sr2 2.756361 1_455
O19 Te1 1.882197 1_555
O19 Sr3 2.819105 1_655
O19 Sr1 2.947052 1_555
O20 Te4 2.006811 1_555
O20 Te3 2.104482 1_555
O20 Sr5 2.809273 1_555
O21 Te5 2.009466 1_555
O21 Te2 2.059384 1_555
