# generated using pymatgen
data_TiAs3
_symmetry_space_group_name_H-M   'P 1'
_cell_length_a   5.88035045
_cell_length_b   5.88035045
_cell_length_c   4.92532500
_cell_angle_alpha   90.00000000
_cell_angle_beta   90.00000000
_cell_angle_gamma   120.00000504
_symmetry_Int_Tables_number   1
_chemical_formula_structural   TiAs3
_chemical_formula_sum   'Ti2 As6'
_cell_volume   147.49317381
_cell_formula_units_Z   2
loop_
 _symmetry_equiv_pos_site_id
 _symmetry_equiv_pos_as_xyz
  1  'x, y, z'
loop_
 _atom_site_type_symbol
 _atom_site_label
 _atom_site_symmetry_multiplicity
 _atom_site_fract_x
 _atom_site_fract_y
 _atom_site_fract_z
 _atom_site_occupancy
  Ti  Ti0  1  0.33333300  0.66666700  0.75000000  1
  Ti  Ti1  1  0.66666700  0.33333300  0.25000000  1
  As  As0  1  0.18407500  0.36814900  0.25000000  1
  As  As1  1  0.63185100  0.81592500  0.25000000  1
  As  As2  1  0.18407500  0.81592500  0.25000000  1
  As  As3  1  0.81592500  0.63185100  0.75000000  1
  As  As4  1  0.36814900  0.18407500  0.75000000  1
  As  As5  1  0.81592500  0.18407500  0.75000000  1
loop_
_geom_bond_atom_site_label_1
_geom_bond_atom_site_label_2
_geom_bond_distance
_geom_bond_site_symmetry_2
As0 As1 2.633080 1_555
As0 As2 2.633080 1_555
As0 Ti0 2.894089 1_555
As0 Ti0 2.894089 1_554
As0 Ti1 2.945516 1_455
As0 Ti1 2.945516 1_555
As1 As2 2.633080 1_555
As1 Ti0 2.894089 1_555
As1 Ti0 2.894089 1_554
As1 Ti1 2.945516 1_565
As1 Ti1 2.945516 1_555
As2 Ti0 2.894084 1_555
As2 Ti0 2.894084 1_554
As2 Ti1 2.945516 1_455
As2 Ti1 2.945516 1_565
As3 As4 2.633080 1_555
As3 As5 2.633080 1_555
As3 Ti1 2.894089 1_555
As3 Ti1 2.894089 1_556
As3 Ti0 2.945516 1_655
As3 Ti0 2.945516 1_555
As4 As5 2.633080 1_555
As4 Ti1 2.894089 1_555
As4 Ti1 2.894089 1_556
As4 Ti0 2.945516 1_545
As4 Ti0 2.945516 1_555
As5 Ti1 2.894084 1_555
As5 Ti1 2.894084 1_556
As5 Ti0 2.945516 1_545
As5 Ti0 2.945516 1_655
