# generated using pymatgen
data_LuSiPt2
_symmetry_space_group_name_H-M   'P 1'
_cell_length_a   5.43044457
_cell_length_b   6.92354477
_cell_length_c   7.14785539
_cell_angle_alpha   90.00038769
_cell_angle_beta   89.99952318
_cell_angle_gamma   90.00015376
_symmetry_Int_Tables_number   1
_chemical_formula_structural   LuSiPt2
_chemical_formula_sum   'Lu4 Si4 Pt8'
_cell_volume   268.74453873
_cell_formula_units_Z   4
loop_
 _symmetry_equiv_pos_site_id
 _symmetry_equiv_pos_as_xyz
  1  'x, y, z'
loop_
 _atom_site_type_symbol
 _atom_site_label
 _atom_site_symmetry_multiplicity
 _atom_site_fract_x
 _atom_site_fract_y
 _atom_site_fract_z
 _atom_site_occupancy
  Lu  Lu0  1  0.36347965  0.74997740  0.02531375  1
  Lu  Lu1  1  0.13654711  0.74997490  0.52536405  1
  Lu  Lu2  1  0.63652433  0.25001942  0.97463352  1
  Lu  Lu3  1  0.86346671  0.25002326  0.47468894  1
  Si  Si0  1  0.63431322  0.75000393  0.38103191  1
  Si  Si1  1  0.86567023  0.75000103  0.88099388  1
  Si  Si2  1  0.36568900  0.24999858  0.61898369  1
  Si  Si3  1  0.13433037  0.25000075  0.11899237  1
  Pt  Pt0  1  0.90958141  0.54979995  0.18411348  1
  Pt  Pt1  1  0.59040090  0.95013426  0.68411796  1
  Pt  Pt2  1  0.09041575  0.04984990  0.81576687  1
  Pt  Pt3  1  0.40959698  0.45017872  0.31600106  1
  Pt  Pt4  1  0.09041874  0.45018071  0.81576823  1
  Pt  Pt5  1  0.40959340  0.04985185  0.31599947  1
  Pt  Pt6  1  0.90957690  0.95017181  0.18410962  1
  Pt  Pt7  1  0.59039430  0.54983454  0.68412120  1
loop_
_geom_bond_atom_site_label_1
_geom_bond_atom_site_label_2
_geom_bond_distance
_geom_bond_site_symmetry_2
Lu0 Si1 2.893471 1_454
Lu0 Si1 2.915695 1_554
Lu0 Si0 2.937360 1_555
Lu0 Pt3 2.947611 1_555
Lu0 Pt5 2.947950 1_565
Lu0 Pt4 2.958134 1_554
Lu0 Pt2 2.958535 1_564
Lu0 Pt0 3.047091 1_455
Lu0 Pt6 3.047152 1_455
Lu0 Pt7 3.063695 1_554
Lu0 Pt1 3.063784 1_554
Lu1 Si0 2.893266 1_555
Lu1 Si0 2.915962 1_455
Lu1 Si1 2.936910 1_455
Lu1 Pt4 2.946164 1_555
Lu1 Pt2 2.946534 1_565
Lu1 Pt3 2.957434 1_555
Lu1 Pt5 2.957831 1_565
Lu1 Pt7 3.046657 1_555
Lu1 Pt1 3.046725 1_555
Lu1 Pt0 3.064250 1_455
Lu1 Pt6 3.064369 1_455
Lu2 Si3 2.893553 1_656
Lu2 Si3 2.915811 1_556
Lu2 Si2 2.936942 1_555
Lu2 Pt7 2.946815 1_555
Lu2 Pt1 2.947149 1_545
Lu2 Pt0 2.957807 1_556
Lu2 Pt6 2.958127 1_546
Lu2 Pt4 3.047197 1_655
Lu2 Pt2 3.047213 1_655
Lu2 Pt3 3.064770 1_556
Lu2 Pt5 3.064807 1_556
Lu3 Si2 2.893230 1_555
Lu3 Si2 2.915809 1_655
Lu3 Si3 2.937287 1_655
Lu3 Pt0 2.946935 1_555
Lu3 Pt6 2.947298 1_545
Lu3 Pt7 2.957819 1_555
Lu3 Pt1 2.958176 1_545
Lu3 Pt3 3.046620 1_555
Lu3 Pt5 3.046677 1_555
Lu3 Pt4 3.063191 1_655
Lu3 Pt2 3.063245 1_655
Pt0 Si3 2.452482 1_655
Pt0 Si0 2.477292 1_555
Pt0 Si1 2.583134 1_554
Pt1 Si2 2.452790 1_565
Pt1 Si1 2.476874 1_555
Pt1 Si0 2.582652 1_555
Pt2 Si1 2.452907 1_445
Pt2 Si2 2.476551 1_555
Pt2 Si3 2.583568 1_556
Pt3 Si0 2.452422 1_555
Pt3 Si3 2.477562 1_555
Pt3 Si2 2.582230 1_555
Pt4 Si1 2.452746 1_455
Pt4 Si2 2.476671 1_555
Pt4 Si3 2.583683 1_556
Pt5 Si0 2.452577 1_545
Pt5 Si3 2.477447 1_555
Pt5 Si2 2.582098 1_555
Pt6 Si3 2.452663 1_665
Pt6 Si0 2.477159 1_555
Pt6 Si1 2.582980 1_554
Pt7 Si2 2.452600 1_555
Pt7 Si1 2.476996 1_555
Pt7 Si0 2.582835 1_555
