# generated using pymatgen
data_Li3Cr2(CoO4)2
_symmetry_space_group_name_H-M   'P 1'
_cell_length_a   5.84877586
_cell_length_b   5.90341598
_cell_length_c   5.98949540
_cell_angle_alpha   59.26889854
_cell_angle_beta   119.98498892
_cell_angle_gamma   118.66909179
_symmetry_Int_Tables_number   1
_chemical_formula_structural   Li3Cr2(CoO4)2
_chemical_formula_sum   'Li3 Cr2 Co2 O8'
_cell_volume   146.81346476
_cell_formula_units_Z   1
loop_
 _symmetry_equiv_pos_site_id
 _symmetry_equiv_pos_as_xyz
  1  'x, y, z'
loop_
 _atom_site_type_symbol
 _atom_site_label
 _atom_site_symmetry_multiplicity
 _atom_site_fract_x
 _atom_site_fract_y
 _atom_site_fract_z
 _atom_site_occupancy
  Li  Li0  1  0.50009900  0.00006200  0.50001200  1
  Li  Li1  1  0.50001400  0.49995700  0.00011800  1
  Li  Li2  1  0.00016100  0.50005000  0.50006400  1
  Cr  Cr0  1  0.99976400  0.00007000  0.99979500  1
  Cr  Cr1  1  0.99991500  0.50006800  0.99967000  1
  Co  Co0  1  0.00006900  0.00006500  0.50001900  1
  Co  Co1  1  0.49996000  0.99982700  0.00022500  1
  O  O0  1  0.76509700  0.24002100  0.24754300  1
  O  O1  1  0.23506300  0.75994500  0.75253200  1
  O  O2  1  0.23984400  0.21401800  0.77588600  1
  O  O3  1  0.76017200  0.78584800  0.22421500  1
  O  O4  1  0.21823800  0.22605400  0.22969400  1
  O  O5  1  0.22522200  0.75889900  0.21744200  1
  O  O6  1  0.77468800  0.24118800  0.78251500  1
  O  O7  1  0.78169600  0.77392800  0.77026900  1
loop_
_geom_bond_atom_site_label_1
_geom_bond_atom_site_label_2
_geom_bond_distance
_geom_bond_site_symmetry_2
Li0 O7 2.085973 1_545
Li0 O4 2.086566 1_555
Li0 O0 2.177682 1_555
Li0 O1 2.178025 1_545
Li0 O6 2.240634 1_555
Li0 O5 2.241130 1_545
Li1 O1 2.148281 1_554
Li1 O0 2.148653 1_555
Li1 O4 2.158059 1_555
Li1 O7 2.158725 1_554
Li1 O3 2.185185 1_555
Li1 O2 2.185934 1_554
Li2 O5 2.141682 1_555
Li2 O6 2.142541 1_455
Li2 O2 2.156633 1_555
Li2 O3 2.156819 1_455
Li2 O1 2.190929 1_555
Li2 O0 2.191706 1_455
Cr0 O6 1.909192 1_555
Cr0 O5 1.910903 1_646
Cr0 O7 1.946345 1_545
Cr0 O4 1.947229 1_656
Cr0 O3 1.953158 1_546
Cr0 O2 1.953191 1_655
Cr1 O7 2.021716 1_555
Cr1 O4 2.022649 1_656
Cr1 O1 2.031183 1_655
Cr1 O0 2.032932 1_556
Cr1 O6 2.037126 1_555
Cr1 O5 2.039473 1_656
Co0 O0 1.945112 1_455
Co0 O1 1.945858 1_545
Co0 O4 2.062435 1_555
Co0 O7 2.062884 1_445
Co0 O2 2.099841 1_555
Co0 O3 2.100609 1_445
Co1 O3 1.945136 1_555
Co1 O2 1.945488 1_564
Co1 O5 2.074416 1_555
Co1 O6 2.076316 1_564
Co1 O0 2.085777 1_565
Co1 O1 2.085968 1_554
