# generated using pymatgen
data_Ba2DyGaTe5
_symmetry_space_group_name_H-M   'P 1'
_cell_length_a   10.45277750
_cell_length_b   10.45277750
_cell_length_c   14.31816300
_cell_angle_alpha   90.00000000
_cell_angle_beta   90.00000000
_cell_angle_gamma   155.03411387
_symmetry_Int_Tables_number   1
_chemical_formula_structural   Ba2DyGaTe5
_chemical_formula_sum   'Ba4 Dy2 Ga2 Te10'
_cell_volume   660.30413755
_cell_formula_units_Z   2
loop_
 _symmetry_equiv_pos_site_id
 _symmetry_equiv_pos_as_xyz
  1  'x, y, z'
loop_
 _atom_site_type_symbol
 _atom_site_label
 _atom_site_symmetry_multiplicity
 _atom_site_fract_x
 _atom_site_fract_y
 _atom_site_fract_z
 _atom_site_occupancy
  Ba  Ba0  1  0.12709700  0.87290300  0.82072800  1
  Ba  Ba1  1  0.87290300  0.12709700  0.32072800  1
  Ba  Ba2  1  0.12111100  0.87888900  0.18231200  1
  Ba  Ba3  1  0.87888900  0.12111100  0.68231200  1
  Dy  Dy0  1  0.20480900  0.79519100  0.52022600  1
  Dy  Dy1  1  0.79519100  0.20480900  0.02022600  1
  Ga  Ga0  1  0.44056000  0.55944000  0.92349300  1
  Ga  Ga1  1  0.55944000  0.44056000  0.42349300  1
  Te  Te0  1  0.35191100  0.64808900  0.50287400  1
  Te  Te1  1  0.64808900  0.35191100  0.00287400  1
  Te  Te2  1  0.29637300  0.70362700  0.16431900  1
  Te  Te3  1  0.70362700  0.29637300  0.66431900  1
  Te  Te4  1  0.31288500  0.68711500  0.86650700  1
  Te  Te5  1  0.68711500  0.31288500  0.36650700  1
  Te  Te6  1  0.50155700  0.49844300  0.76305200  1
  Te  Te7  1  0.49844300  0.50155700  0.26305200  1
  Te  Te8  1  0.04502200  0.95497800  0.53163900  1
  Te  Te9  1  0.95497800  0.04502200  0.03163900  1
loop_
_geom_bond_atom_site_label_1
_geom_bond_atom_site_label_2
_geom_bond_distance
_geom_bond_site_symmetry_2
Ba0 Te1 3.477057 1_566
Ba0 Te1 3.477057 1_456
Ba0 Te6 3.514651 1_565
Ba0 Te6 3.514651 1_455
Ba0 Te3 3.544024 1_565
Ba0 Te3 3.544024 1_455
Ba0 Te4 3.848417 1_555
Ba1 Te0 3.477057 1_545
Ba1 Te0 3.477057 1_655
Ba1 Te7 3.514651 1_655
Ba1 Te7 3.514651 1_545
Ba1 Te2 3.544024 1_545
Ba1 Te2 3.544024 1_655
Ba1 Te5 3.848417 1_555
Ba2 Te1 3.465375 1_455
Ba2 Te1 3.465375 1_565
Ba2 Te7 3.565145 1_565
Ba2 Te7 3.565145 1_455
Ba2 Te2 3.586600 1_555
Ba2 Te5 3.724951 1_565
Ba2 Te5 3.724951 1_455
Ba2 Te9 4.019090 1_465
Ba3 Te0 3.465375 1_545
Ba3 Te0 3.465375 1_655
Ba3 Te6 3.565145 1_545
Ba3 Te6 3.565145 1_655
Ba3 Te3 3.586600 1_555
Ba3 Te4 3.724951 1_545
Ba3 Te4 3.724951 1_655
Ba3 Te8 4.019090 1_645
Dy0 Te0 3.012813 1_555
Dy0 Te3 3.059714 1_565
Dy0 Te3 3.059714 1_455
Dy0 Te5 3.174809 1_565
Dy0 Te5 3.174809 1_455
Dy0 Te8 3.265561 1_555
Dy1 Te1 3.012813 1_555
Dy1 Te2 3.059714 1_545
Dy1 Te2 3.059714 1_655
Dy1 Te4 3.174809 1_544
Dy1 Te4 3.174809 1_654
Dy1 Te9 3.265561 1_555
Ga0 Te6 2.612915 1_555
Ga0 Te4 2.730767 1_555
Ga0 Te9 2.754815 1_566
Ga0 Te9 2.754815 1_456
Ga1 Te7 2.612915 1_555
Ga1 Te5 2.730767 1_555
Ga1 Te8 2.754815 1_545
Ga1 Te8 2.754815 1_655
