# generated using pymatgen
data_ZnCu2SiSe4
_symmetry_space_group_name_H-M   'P 1'
_cell_length_a   6.51110500
_cell_length_b   6.84399200
_cell_length_c   7.83386800
_cell_angle_alpha   90.00000000
_cell_angle_beta   90.00000000
_cell_angle_gamma   90.00000000
_symmetry_Int_Tables_number   1
_chemical_formula_structural   ZnCu2SiSe4
_chemical_formula_sum   'Zn2 Cu4 Si2 Se8'
_cell_volume   349.09243828
_cell_formula_units_Z   2
loop_
 _symmetry_equiv_pos_site_id
 _symmetry_equiv_pos_as_xyz
  1  'x, y, z'
loop_
 _atom_site_type_symbol
 _atom_site_label
 _atom_site_symmetry_multiplicity
 _atom_site_fract_x
 _atom_site_fract_y
 _atom_site_fract_z
 _atom_site_occupancy
  Zn  Zn0  1  0.65660300  0.34937700  0.50000000  1
  Zn  Zn1  1  0.15660300  0.65062300  0.00000000  1
  Cu  Cu0  1  0.16316800  0.17412200  0.74716700  1
  Cu  Cu1  1  0.16316800  0.17412200  0.25283300  1
  Cu  Cu2  1  0.66316800  0.82587800  0.75283300  1
  Cu  Cu3  1  0.66316800  0.82587800  0.24716700  1
  Si  Si0  1  0.15525000  0.67028700  0.50000000  1
  Si  Si1  1  0.65525000  0.32971300  0.00000000  1
  Se  Se0  1  0.03950500  0.35006200  0.50000000  1
  Se  Se1  1  0.53950500  0.64993800  0.00000000  1
  Se  Se2  1  0.51322500  0.68270300  0.50000000  1
  Se  Se3  1  0.01322500  0.31729700  0.00000000  1
  Se  Se4  1  0.53509000  0.16243400  0.75984700  1
  Se  Se5  1  0.53509000  0.16243400  0.24015300  1
  Se  Se6  1  0.03509000  0.83756600  0.74015300  1
  Se  Se7  1  0.03509000  0.83756600  0.25984700  1
loop_
_geom_bond_atom_site_label_1
_geom_bond_atom_site_label_2
_geom_bond_distance
_geom_bond_site_symmetry_2
Cu0 Se3 2.415854 1_556
Cu0 Se0 2.418142 1_555
Cu0 Se4 2.424979 1_555
Cu0 Se6 2.450316 1_545
Cu1 Se3 2.415854 1_555
Cu1 Se0 2.418142 1_555
Cu1 Se5 2.424979 1_555
Cu1 Se7 2.450316 1_545
Cu2 Se2 2.415854 1_555
Cu2 Se1 2.418142 1_556
Cu2 Se6 2.424979 1_655
Cu2 Se4 2.450316 1_565
Cu3 Se2 2.415854 1_555
Cu3 Se1 2.418142 1_555
Cu3 Se7 2.424979 1_655
Cu3 Se5 2.450316 1_565
Se0 Si0 2.317572 1_555
Se0 Zn0 2.493120 1_455
Se1 Si1 2.317572 1_555
Se1 Zn1 2.493120 1_555
Se2 Si0 2.332361 1_555
Se2 Zn0 2.464905 1_555
Se3 Si1 2.332361 1_455
Se3 Zn1 2.464905 1_555
Se4 Si1 2.337134 1_556
Se4 Zn0 2.531131 1_555
Se5 Si1 2.337134 1_555
Se5 Zn0 2.531131 1_555
Se6 Si0 2.337134 1_555
Se6 Zn1 2.531131 1_556
Se7 Si0 2.337134 1_555
Se7 Zn1 2.531131 1_555
