# generated using pymatgen
data_DyP3(HO)6
_symmetry_space_group_name_H-M   'P 1'
_cell_length_a   5.81669400
_cell_length_b   8.14158620
_cell_length_c   11.03424362
_cell_angle_alpha   79.92890181
_cell_angle_beta   74.71772400
_cell_angle_gamma   69.07036329
_symmetry_Int_Tables_number   1
_chemical_formula_structural   DyP3(HO)6
_chemical_formula_sum   'Dy2 P6 H12 O12'
_cell_volume   468.92022963
_cell_formula_units_Z   2
loop_
 _symmetry_equiv_pos_site_id
 _symmetry_equiv_pos_as_xyz
  1  'x, y, z'
loop_
 _atom_site_type_symbol
 _atom_site_label
 _atom_site_symmetry_multiplicity
 _atom_site_fract_x
 _atom_site_fract_y
 _atom_site_fract_z
 _atom_site_occupancy
  Dy  Dy0  1  0.00000000  0.50000000  0.50000000  1
  Dy  Dy1  1  0.00000000  0.00000000  0.00000000  1
  P  P0  1  0.15569200  0.03997700  0.64864000  1
  P  P1  1  0.84430800  0.96002300  0.35136000  1
  P  P2  1  0.58688300  0.53452500  0.29170900  1
  P  P3  1  0.41311700  0.46547500  0.70829100  1
  P  P4  1  0.67126000  0.74082000  0.91666100  1
  P  P5  1  0.32874000  0.25918000  0.08333900  1
  H  H0  1  0.03117000  0.93467300  0.62048500  1
  H  H1  1  0.41367100  0.93467300  0.62048500  1
  H  H2  1  0.96883000  0.06532700  0.37951500  1
  H  H3  1  0.58632900  0.06532700  0.37951500  1
  H  H4  1  0.67606600  0.47930500  0.16856300  1
  H  H5  1  0.32393400  0.52069500  0.83143700  1
  H  H6  1  0.50241900  0.72124800  0.27391400  1
  H  H7  1  0.49758100  0.27875200  0.72608600  1
  H  H8  1  0.76558100  0.55546500  0.91337400  1
  H  H9  1  0.23441900  0.44453500  0.08662600  1
  H  H10  1  0.70372900  0.80485200  0.78769000  1
  H  H11  1  0.29627100  0.19514800  0.21231000  1
  O  O0  1  0.11885400  0.20555500  0.55673700  1
  O  O1  1  0.88114600  0.79444500  0.44326300  1
  O  O2  1  0.07392600  0.06357400  0.78857400  1
  O  O3  1  0.92607400  0.93642600  0.21142600  1
  O  O4  1  0.83735900  0.79488800  0.97698200  1
  O  O5  1  0.39077100  0.79488800  0.97698200  1
  O  O6  1  0.16264100  0.20511200  0.02301800  1
  O  O7  1  0.60922900  0.20511200  0.02301800  1
  O  O8  1  0.80902700  0.47235000  0.35561400  1
  O  O9  1  0.36300800  0.47235000  0.35561400  1
  O  O10  1  0.19097300  0.52765000  0.64438600  1
  O  O11  1  0.63699200  0.52765000  0.64438600  1
loop_
_geom_bond_atom_site_label_1
_geom_bond_atom_site_label_2
_geom_bond_distance
_geom_bond_site_symmetry_2
Dy0 O11 2.249418 1_455
Dy0 O9 2.249418 1_555
Dy0 O8 2.249422 1_455
Dy0 O10 2.249422 1_555
Dy0 O1 2.266254 1_455
Dy0 O0 2.266254 1_555
Dy1 O2 2.259033 1_554
Dy1 O3 2.259033 1_445
Dy1 O4 2.269772 1_444
Dy1 O5 2.269772 1_544
Dy1 O6 2.269772 1_555
Dy1 O7 2.269772 1_455
H0 P0 1.418307 1_565
H1 P0 1.418298 1_565
H2 P1 1.418307 1_545
H3 P1 1.418298 1_545
H4 P2 1.411763 1_555
H5 P3 1.411763 1_555
H6 P2 1.415575 1_555
H7 P3 1.415575 1_555
H8 P4 1.413078 1_555
H9 P5 1.413078 1_555
H10 P4 1.414865 1_555
H11 P5 1.414865 1_555
O0 P0 1.523686 1_555
O1 P1 1.523686 1_555
O2 P0 1.516112 1_555
O3 P1 1.516112 1_555
O4 P4 1.521692 1_555
O5 P4 1.521697 1_555
O6 P5 1.521692 1_555
O7 P5 1.521697 1_555
O8 P2 1.520286 1_555
O9 P2 1.520291 1_555
O10 P3 1.520286 1_555
O11 P3 1.520291 1_555
