# generated using pymatgen
data_InCuNi
_symmetry_space_group_name_H-M   'P 1'
_cell_length_a   4.34218823
_cell_length_b   4.34218823
_cell_length_c   5.34484500
_cell_angle_alpha   90.00000000
_cell_angle_beta   90.00000000
_cell_angle_gamma   119.99296409
_symmetry_Int_Tables_number   1
_chemical_formula_structural   InCuNi
_chemical_formula_sum   'In2 Cu2 Ni2'
_cell_volume   87.27981645
_cell_formula_units_Z   2
loop_
 _symmetry_equiv_pos_site_id
 _symmetry_equiv_pos_as_xyz
  1  'x, y, z'
loop_
 _atom_site_type_symbol
 _atom_site_label
 _atom_site_symmetry_multiplicity
 _atom_site_fract_x
 _atom_site_fract_y
 _atom_site_fract_z
 _atom_site_occupancy
  In  In0  1  0.66667200  0.33332800  0.75000000  1
  In  In1  1  0.33332800  0.66667200  0.25000000  1
  Cu  Cu0  1  0.66667100  0.33332900  0.25000000  1
  Cu  Cu1  1  0.33332900  0.66667100  0.75000000  1
  Ni  Ni0  1  0.00000000  0.00000000  0.50000000  1
  Ni  Ni1  1  0.00000000  0.00000000  0.00000000  1
loop_
_geom_bond_atom_site_label_1
_geom_bond_atom_site_label_2
_geom_bond_distance
_geom_bond_site_symmetry_2
In0 Ni1 2.840718 1_656
In0 Ni0 2.840718 1_655
In0 Ni0 2.841007 1_555
In0 Ni1 2.841007 1_556
In0 Ni0 2.841007 1_665
In0 Ni1 2.841007 1_666
In1 Ni1 2.840718 1_565
In1 Ni0 2.840718 1_565
In1 Ni0 2.841007 1_555
In1 Ni1 2.841007 1_555
In1 Ni0 2.841007 1_665
In1 Ni1 2.841007 1_665
Cu0 In1 2.506947 1_555
Cu0 In1 2.507105 1_545
Cu0 In1 2.507105 1_655
Cu0 In0 2.672423 1_555
Cu0 In0 2.672423 1_554
Cu0 Ni0 2.840725 1_655
Cu0 Ni1 2.840725 1_655
Cu0 Ni0 2.841003 1_555
Cu0 Ni1 2.841003 1_555
Cu0 Ni0 2.841003 1_665
Cu0 Ni1 2.841003 1_665
Cu1 In0 2.506947 1_555
Cu1 In0 2.507105 1_455
Cu1 In0 2.507105 1_565
Cu1 In1 2.672423 1_556
Cu1 In1 2.672423 1_555
Cu1 Ni1 2.840725 1_566
Cu1 Ni0 2.840725 1_565
Cu1 Ni1 2.841003 1_666
Cu1 Ni0 2.841003 1_555
Cu1 Ni1 2.841003 1_556
Cu1 Ni0 2.841003 1_665
Ni0 Ni1 2.672423 1_555
Ni0 Ni1 2.672423 1_556
