# generated using pymatgen
data_MgAl4(HO)12
_symmetry_space_group_name_H-M   'P 1'
_cell_length_a   7.42724629
_cell_length_b   8.69699802
_cell_length_c   7.25349019
_cell_angle_alpha   107.52503727
_cell_angle_beta   138.54716113
_cell_angle_gamma   90.28538473
_symmetry_Int_Tables_number   1
_chemical_formula_structural   MgAl4(HO)12
_chemical_formula_sum   'Mg1 Al4 H12 O12'
_cell_volume   275.32323509
_cell_formula_units_Z   1
loop_
 _symmetry_equiv_pos_site_id
 _symmetry_equiv_pos_as_xyz
  1  'x, y, z'
loop_
 _atom_site_type_symbol
 _atom_site_label
 _atom_site_symmetry_multiplicity
 _atom_site_fract_x
 _atom_site_fract_y
 _atom_site_fract_z
 _atom_site_occupancy
  Mg  Mg0  1  0.42957465  0.68915611  0.69610272  1
  Al  Al0  1  0.50772901  0.83189473  0.31778884  1
  Al  Al1  1  0.51086301  0.09278997  0.69814423  1
  Al  Al2  1  0.98456585  0.69252288  0.62322625  1
  Al  Al3  1  0.05167605  0.28460324  0.40212155  1
  H  H0  1  0.99365559  0.97808233  0.59904174  1
  H  H1  1  0.84064384  0.78074780  0.03635528  1
  H  H2  1  0.57248288  0.44670538  0.81325083  1
  H  H3  1  0.43929017  0.52619071  0.11461940  1
  H  H4  1  0.93071161  0.71276490  0.24658451  1
  H  H5  1  0.89143531  0.40423807  0.59109777  1
  H  H6  1  0.31066610  0.06540379  0.21151754  1
  H  H7  1  0.73949588  0.88012433  0.83555261  1
  H  H8  1  0.50895920  0.93306543  0.03823206  1
  H  H9  1  0.51165658  0.17576592  0.03214867  1
  H  H10  1  0.99106133  0.30932969  0.02162414  1
  H  H11  1  0.98005250  0.73347253  0.98713731  1
  O  O0  1  0.92557822  0.91508222  0.63983301  1
  O  O1  1  0.20934403  0.14011556  0.55098580  1
  O  O2  1  0.39190836  0.44831640  0.62130203  1
  O  O3  1  0.57748489  0.62000694  0.32578354  1
  O  O4  1  0.00548058  0.65172805  0.37650020  1
  O  O5  1  0.99727786  0.44839822  0.57451525  1
  O  O6  1  0.48019726  0.05844752  0.40316476  1
  O  O7  1  0.54657358  0.87437943  0.63419608  1
  O  O8  1  0.42987333  0.81452150  0.99190422  1
  O  O9  1  0.64381681  0.11892130  0.07290268  1
  O  O10  1  0.88066340  0.25810432  0.02781979  1
  O  O11  1  0.10096611  0.71690072  0.96801319  1
loop_
_geom_bond_atom_site_label_1
_geom_bond_atom_site_label_2
_geom_bond_distance
_geom_bond_site_symmetry_2
Mg0 O2 1.960135 1_555
Mg0 O4 1.997800 1_555
Mg0 O8 2.091965 1_555
Mg0 O7 2.135024 1_555
Al0 O11 1.875202 1_554
Al0 O8 1.918292 1_554
Al0 O3 1.922624 1_555
Al0 O0 1.924670 1_555
Al0 O6 1.940748 1_565
Al0 O7 1.995677 1_555
Al1 O1 1.736220 1_555
Al1 O10 1.836835 1_556
Al1 O7 1.884800 1_545
Al1 O6 1.898171 1_555
Al1 O9 2.004480 1_556
Al2 O4 1.840555 1_655
Al2 O11 1.866746 1_655
Al2 O3 1.891384 1_555
Al2 O0 1.974876 1_555
Al2 O8 2.052833 1_655
Al2 O5 2.059550 1_555
Al3 O1 1.747203 1_555
Al3 O5 1.856455 1_455
Al3 O10 1.867782 1_455
Al3 O2 1.875947 1_555
Al3 O9 1.998980 1_455
H0 O0 0.981092 1_555
H1 Mg0 1.882482 1_554
H2 O2 0.974816 1_555
H3 O3 0.973484 1_555
H4 O4 0.998971 1_655
H5 O5 0.972885 1_555
H6 O6 0.974241 1_555
H7 O7 1.003533 1_555
H8 O8 1.005137 1_554
H9 O9 0.976317 1_555
H10 O10 0.967716 1_555
H11 O11 1.011190 1_655
