# generated using pymatgen
data_NaCaSb
_symmetry_space_group_name_H-M   'P 1'
_cell_length_a   5.02521556
_cell_length_b   5.02521556
_cell_length_c   5.02521556
_cell_angle_alpha   60.00000000
_cell_angle_beta   60.00000000
_cell_angle_gamma   60.00000000
_symmetry_Int_Tables_number   1
_chemical_formula_structural   NaCaSb
_chemical_formula_sum   'Na1 Ca1 Sb1'
_cell_volume   89.73235998
_cell_formula_units_Z   1
loop_
 _symmetry_equiv_pos_site_id
 _symmetry_equiv_pos_as_xyz
  1  'x, y, z'
loop_
 _atom_site_type_symbol
 _atom_site_label
 _atom_site_symmetry_multiplicity
 _atom_site_fract_x
 _atom_site_fract_y
 _atom_site_fract_z
 _atom_site_occupancy
  Na  Na0  1  0.25000000  0.25000000  0.25000000  1
  Ca  Ca0  1  0.50000000  0.50000000  0.50000000  1
  Sb  Sb0  1  0.00000000  0.00000000  0.00000000  1
loop_
_geom_bond_atom_site_label_1
_geom_bond_atom_site_label_2
_geom_bond_distance
_geom_bond_site_symmetry_2
Na0 Sb0 3.077303 1_655
Na0 Sb0 3.077303 1_555
Na0 Sb0 3.077303 1_556
Na0 Sb0 3.077303 1_565
Ca0 Na0 3.077303 1_555
Ca0 Na0 3.077303 1_556
Ca0 Na0 3.077303 1_565
Ca0 Na0 3.077303 1_655
Ca0 Sb0 3.553364 1_556
Ca0 Sb0 3.553364 1_565
Ca0 Sb0 3.553364 1_655
Ca0 Sb0 3.553364 1_656
Ca0 Sb0 3.553364 1_665
Ca0 Sb0 3.553364 1_566
