# generated using pymatgen
data_SmS
_symmetry_space_group_name_H-M   'P 1'
_cell_length_a   11.00435172
_cell_length_b   11.00435172
_cell_length_c   11.00435172
_cell_angle_alpha   159.48660664
_cell_angle_beta   159.48660664
_cell_angle_gamma   29.16962391
_symmetry_Int_Tables_number   1
_chemical_formula_structural   SmS
_chemical_formula_sum   'Sm2 S2'
_cell_volume   163.55126663
_cell_formula_units_Z   2
loop_
 _symmetry_equiv_pos_site_id
 _symmetry_equiv_pos_as_xyz
  1  'x, y, z'
loop_
 _atom_site_type_symbol
 _atom_site_label
 _atom_site_symmetry_multiplicity
 _atom_site_fract_x
 _atom_site_fract_y
 _atom_site_fract_z
 _atom_site_occupancy
  Sm  Sm0  1  0.30736300  0.30736300  0.00000000  1
  Sm  Sm1  1  0.69263700  0.69263700  0.00000000  1
  S  S0  1  0.17419900  0.17419900  0.00000000  1
  S  S1  1  0.82580100  0.82580100  0.00000000  1
loop_
_geom_bond_atom_site_label_1
_geom_bond_atom_site_label_2
_geom_bond_distance
_geom_bond_site_symmetry_2
S0 Sm1 2.798727 1_455
S0 Sm1 2.798727 1_545
S0 Sm1 2.798727 1_556
S0 Sm1 2.798727 1_444
S0 Sm0 2.836326 1_555
S1 Sm0 2.798727 1_554
S1 Sm0 2.798727 1_565
S1 Sm0 2.798727 1_655
S1 Sm0 2.798727 1_666
S1 Sm1 2.836326 1_555
