# generated using pymatgen
data_SrCaNdSbO6
_symmetry_space_group_name_H-M   'P 1'
_cell_length_a   5.90087140
_cell_length_b   5.90087140
_cell_length_c   8.57154374
_cell_angle_alpha   90.00000000
_cell_angle_beta   90.00000000
_cell_angle_gamma   90.00000000
_symmetry_Int_Tables_number   1
_chemical_formula_structural   SrCaNdSbO6
_chemical_formula_sum   'Sr2 Ca2 Nd2 Sb2 O12'
_cell_volume   298.46358117
_cell_formula_units_Z   2
loop_
 _symmetry_equiv_pos_site_id
 _symmetry_equiv_pos_as_xyz
  1  'x, y, z'
loop_
 _atom_site_type_symbol
 _atom_site_label
 _atom_site_symmetry_multiplicity
 _atom_site_fract_x
 _atom_site_fract_y
 _atom_site_fract_z
 _atom_site_occupancy
  Sr  Sr0  1  0.50000000  -0.00000000  0.25000000  1
  Sr  Sr1  1  0.00000000  0.50000000  0.75000000  1
  Ca  Ca0  1  0.00000000  0.50000000  0.25000000  1
  Ca  Ca1  1  0.50000000  0.00000000  0.75000000  1
  Nd  Nd0  1  -0.00000000  -0.00000000  0.00000000  1
  Nd  Nd1  1  0.50000000  0.50000000  0.50000000  1
  Sb  Sb0  1  0.00000000  -0.00000000  0.50000000  1
  Sb  Sb1  1  0.50000000  0.50000000  -0.00000000  1
  O  O0  1  -0.00000000  0.00000000  0.26626122  1
  O  O1  1  0.50000000  0.50000000  0.23373878  1
  O  O2  1  -0.00000000  0.00000000  0.73373878  1
  O  O3  1  0.50000000  0.50000000  0.76626122  1
  O  O4  1  0.34510412  0.19586987  0.99001449  1
  O  O5  1  0.65489588  0.80413013  0.99001449  1
  O  O6  1  0.80413013  0.34510412  0.00998551  1
  O  O7  1  0.19586987  0.65489588  0.00998551  1
  O  O8  1  0.84510412  0.30413013  0.49001449  1
  O  O9  1  0.15489588  0.69586987  0.49001449  1
  O  O10  1  0.30413013  0.15489588  0.50998551  1
  O  O11  1  0.69586987  0.84510412  0.50998551  1
loop_
_geom_bond_atom_site_label_1
_geom_bond_atom_site_label_2
_geom_bond_distance
_geom_bond_site_symmetry_2
Ca0 O6 2.530568 1_455
Ca0 O7 2.530568 1_555
Ca0 O8 2.530568 1_455
Ca0 O9 2.530568 1_555
Ca0 O1 2.953726 1_555
Ca0 O0 2.953726 1_565
Ca0 O0 2.953726 1_555
Ca0 O1 2.953726 1_455
Ca1 O11 2.530568 1_545
Ca1 O5 2.530568 1_545
Ca1 O4 2.530568 1_555
Ca1 O10 2.530568 1_555
Ca1 O2 2.953726 1_555
Ca1 O3 2.953726 1_555
Ca1 O2 2.953726 1_655
Ca1 O3 2.953726 1_545
Nd0 O2 2.282270 1_554
Nd0 O0 2.282270 1_555
Nd0 O4 2.343116 1_554
Nd0 O5 2.343116 1_444
Nd0 O7 2.343116 1_545
Nd0 O6 2.343116 1_455
Nd1 O3 2.282270 1_555
Nd1 O1 2.282270 1_555
Nd1 O8 2.343116 1_555
Nd1 O9 2.343116 1_555
Nd1 O10 2.343116 1_555
Nd1 O11 2.343116 1_555
O0 Sb0 2.003502 1_555
O0 Sr0 2.953726 1_455
O0 Sr0 2.953726 1_555
O1 Sb1 2.003502 1_555
O1 Sr0 2.953726 1_565
O1 Sr0 2.953726 1_555
O2 Sb0 2.003502 1_555
O2 Sr1 2.953726 1_545
O2 Sr1 2.953726 1_555
O3 Sb1 2.003502 1_556
O3 Sr1 2.953726 1_555
O3 Sr1 2.953726 1_655
O4 Sb1 2.015804 1_556
O4 Sr0 2.671596 1_556
O5 Sb1 2.015804 1_556
O5 Sr0 2.671596 1_566
O6 Sb1 2.015804 1_555
O6 Sr1 2.671596 1_654
O7 Sb1 2.015804 1_555
O7 Sr1 2.671596 1_554
O8 Sb0 2.015804 1_655
O8 Sr1 2.671596 1_655
O9 Sb0 2.015804 1_565
O9 Sr1 2.671596 1_555
O10 Sb0 2.015804 1_555
O10 Sr0 2.671596 1_555
O11 Sb0 2.015804 1_665
O11 Sr0 2.671596 1_565
