# generated using pymatgen
data_YFeO3
_symmetry_space_group_name_H-M   'P 1'
_cell_length_a   6.10008320
_cell_length_b   6.10008023
_cell_length_c   11.68533091
_cell_angle_alpha   90.00000931
_cell_angle_beta   89.99998999
_cell_angle_gamma   119.99886441
_symmetry_Int_Tables_number   1
_chemical_formula_structural   YFeO3
_chemical_formula_sum   'Y6 Fe6 O18'
_cell_volume   376.57191093
_cell_formula_units_Z   6
loop_
 _symmetry_equiv_pos_site_id
 _symmetry_equiv_pos_as_xyz
  1  'x, y, z'
loop_
 _atom_site_type_symbol
 _atom_site_label
 _atom_site_symmetry_multiplicity
 _atom_site_fract_x
 _atom_site_fract_y
 _atom_site_fract_z
 _atom_site_occupancy
  Y  Y0  1  0.66666958  0.33333225  0.23297770  1
  Y  Y1  1  0.33333074  0.66666686  0.73297408  1
  Y  Y2  1  0.66666483  0.33332864  0.73297410  1
  Y  Y3  1  0.33333505  0.66667002  0.23297767  1
  Y  Y4  1  0.99999671  0.99999771  0.77640704  1
  Y  Y5  1  0.00000400  0.00000358  0.27641150  1
  Fe  Fe0  1  0.66595304  0.99999619  0.50085439  1
  Fe  Fe1  1  0.66595848  0.66595837  0.00085597  1
  Fe  Fe2  1  0.00000392  0.33404550  0.00085465  1
  Fe  Fe3  1  0.99999578  0.66595358  0.50085497  1
  Fe  Fe4  1  0.33404211  0.33404235  0.50085624  1
  Fe  Fe5  1  0.33404580  0.00000383  0.00085472  1
  O  O0  1  0.66666691  0.33333585  0.02116801  1
  O  O1  1  0.33333150  0.66666393  0.52116881  1
  O  O2  1  0.66666364  0.33333322  0.52116885  1
  O  O3  1  0.33333723  0.66666761  0.02116801  1
  O  O4  1  0.99999611  0.99999567  0.97749127  1
  O  O5  1  0.00000481  0.00000368  0.47749099  1
  O  O6  1  0.36055371  -0.00000108  0.83809966  1
  O  O7  1  0.36055103  0.36055054  0.33810294  1
  O  O8  1  0.00000157  0.63944652  0.33809979  1
  O  O9  1  -0.00000149  0.36055396  0.83809904  1
  O  O10  1  0.63944852  0.63944895  0.83810335  1
  O  O11  1  0.63944671  0.00000109  0.33809906  1
  O  O12  1  0.30576043  0.00000432  0.16531628  1
  O  O13  1  0.30575318  0.30575365  0.66531389  1
  O  O14  1  0.99999527  0.69423869  0.66531686  1
  O  O15  1  0.00000484  0.30575894  0.16531705  1
  O  O16  1  0.69424732  0.69424687  0.16531238  1
  O  O17  1  0.69423968  0.99999571  0.66531670  1
loop_
_geom_bond_atom_site_label_1
_geom_bond_atom_site_label_2
_geom_bond_distance
_geom_bond_site_symmetry_2
Fe0 O11 1.908712 1_565
Fe0 O17 1.929527 1_555
Fe0 O2 2.045043 1_565
Fe0 O1 2.045048 1_555
Fe0 O5 2.055928 1_665
Fe1 O10 1.908681 1_554
Fe1 O16 1.929460 1_555
Fe1 O3 2.045005 1_555
Fe1 O0 2.045009 1_555
Fe1 O4 2.055900 1_554
Fe2 O9 1.908717 1_554
Fe2 O15 1.929529 1_555
Fe2 O0 2.045045 1_455
Fe2 O3 2.045052 1_555
Fe2 O4 2.055914 1_444
Fe3 O8 1.908711 1_655
Fe3 O14 1.929522 1_555
Fe3 O1 2.045036 1_655
Fe3 O2 2.045044 1_555
Fe3 O5 2.055913 1_665
Fe4 O7 1.908689 1_555
Fe4 O13 1.929475 1_555
Fe4 O2 2.045007 1_555
Fe4 O1 2.045011 1_555
Fe4 O5 2.055904 1_555
Fe5 O6 1.908710 1_554
Fe5 O12 1.929518 1_555
Fe5 O3 2.045042 1_545
Fe5 O0 2.045045 1_555
Fe5 O4 2.055913 1_444
O0 Y0 2.475066 1_555
O1 Y1 2.475015 1_555
O2 Y2 2.475014 1_555
O3 Y3 2.475066 1_555
O4 Y4 2.349736 1_555
O5 Y5 2.349680 1_555
O6 Y1 2.309433 1_545
O6 Y2 2.309457 1_555
O6 Y4 2.314554 1_445
O7 Y3 2.309460 1_555
O7 Y0 2.309462 1_555
O7 Y5 2.314531 1_555
O8 Y3 2.309418 1_555
O8 Y0 2.309449 1_455
O8 Y5 2.314534 1_565
O9 Y2 2.309433 1_455
O9 Y1 2.309464 1_555
O9 Y4 2.314545 1_445
O10 Y1 2.309482 1_555
O10 Y2 2.309489 1_555
O10 Y4 2.314557 1_555
O11 Y0 2.309402 1_555
O11 Y3 2.309436 1_545
O11 Y5 2.314534 1_655
O12 Y3 2.264952 1_545
O12 Y0 2.264974 1_555
O12 Y5 2.272448 1_555
O13 Y2 2.264968 1_555
O13 Y1 2.264969 1_555
O13 Y4 2.272461 1_445
O14 Y1 2.264934 1_655
O14 Y2 2.264966 1_555
O14 Y4 2.272425 1_555
O15 Y0 2.264951 1_455
O15 Y3 2.264982 1_555
O15 Y5 2.272437 1_555
O16 Y3 2.264988 1_555
O16 Y0 2.264998 1_555
O16 Y5 2.272503 1_665
O17 Y2 2.264928 1_565
O17 Y1 2.264959 1_555
O17 Y4 2.272416 1_555
