# generated using pymatgen
data_PrEr3Mn8
_symmetry_space_group_name_H-M   'P 1'
_cell_length_a   5.30131016
_cell_length_b   5.30131016
_cell_length_c   8.57822215
_cell_angle_alpha   89.41299017
_cell_angle_beta   90.58700983
_cell_angle_gamma   119.06221285
_symmetry_Int_Tables_number   1
_chemical_formula_structural   PrEr3Mn8
_chemical_formula_sum   'Pr1 Er3 Mn8'
_cell_volume   210.71262850
_cell_formula_units_Z   1
loop_
 _symmetry_equiv_pos_site_id
 _symmetry_equiv_pos_as_xyz
  1  'x, y, z'
loop_
 _atom_site_type_symbol
 _atom_site_label
 _atom_site_symmetry_multiplicity
 _atom_site_fract_x
 _atom_site_fract_y
 _atom_site_fract_z
 _atom_site_occupancy
  Pr  Pr0  1  0.66568900  0.33431100  0.56239400  1
  Er  Er0  1  0.33300100  0.66699900  0.43504400  1
  Er  Er1  1  0.33365200  0.66634800  0.06193800  1
  Er  Er2  1  0.66689200  0.33310800  0.94093600  1
  Mn  Mn0  1  0.00089900  0.99910100  0.49731900  1
  Mn  Mn1  1  0.00020500  0.99979500  0.00155000  1
  Mn  Mn2  1  0.16505600  0.32425500  0.75757100  1
  Mn  Mn3  1  0.17743900  0.82256100  0.75407300  1
  Mn  Mn4  1  0.67574500  0.83494400  0.75757100  1
  Mn  Mn5  1  0.83458500  0.67639100  0.24315800  1
  Mn  Mn6  1  0.82322700  0.17677300  0.24528700  1
  Mn  Mn7  1  0.32360900  0.16541500  0.24315800  1
loop_
_geom_bond_atom_site_label_1
_geom_bond_atom_site_label_2
_geom_bond_distance
_geom_bond_site_symmetry_2
Er0 Mn0 3.087802 1_555
Er0 Mn3 3.098864 1_555
Er0 Mn5 3.119370 1_455
Er0 Mn7 3.119370 1_565
Er0 Mn7 3.121197 1_555
Er0 Mn5 3.121197 1_555
Er0 Mn0 3.137856 1_545
Er0 Mn0 3.137856 1_655
Er0 Mn6 3.143289 1_455
Er0 Mn6 3.143289 1_565
Er0 Mn4 3.181924 1_555
Er0 Mn2 3.181924 1_555
Er0 Er1 3.200662 1_555
Er0 Pr0 3.218321 1_555
Er0 Pr0 3.285874 1_565
Er0 Pr0 3.285874 1_455
Er1 Mn3 2.987104 1_554
Er1 Mn7 3.041613 1_555
Er1 Mn5 3.041613 1_555
Er1 Mn4 3.062545 1_554
Er1 Mn2 3.062545 1_554
Er1 Mn1 3.084830 1_555
Er1 Mn5 3.105163 1_455
Er1 Mn7 3.105163 1_565
Er1 Mn6 3.116480 1_455
Er1 Mn6 3.116480 1_565
Er1 Mn1 3.135246 1_655
Er1 Mn1 3.135246 1_545
Er1 Er2 3.228991 1_554
Er1 Er2 3.253958 1_564
Er1 Er2 3.253958 1_454
Er2 Mn6 2.961186 1_556
Er2 Mn5 3.049763 1_556
Er2 Mn7 3.049763 1_556
Er2 Mn4 3.057531 1_555
Er2 Mn2 3.057531 1_555
Er2 Mn1 3.083926 1_646
Er2 Mn2 3.107712 1_655
Er2 Mn4 3.107712 1_545
Er2 Mn3 3.131853 1_545
Er2 Mn3 3.131853 1_655
Er2 Mn1 3.136175 1_546
Er2 Mn1 3.136175 1_656
Er2 Pr0 3.247105 1_555
Mn0 Mn7 2.651277 1_565
Mn0 Mn5 2.651277 1_455
Mn0 Mn6 2.688301 1_465
Mn0 Mn2 2.700807 1_565
Mn0 Mn4 2.700807 1_455
Mn0 Mn3 2.714635 1_555
Mn0 Pr0 3.120268 1_465
Mn0 Pr0 3.128183 1_565
Mn0 Pr0 3.128183 1_455
Mn1 Mn7 2.551051 1_565
Mn1 Mn5 2.551051 1_455
Mn1 Mn2 2.570202 1_564
Mn1 Mn4 2.570202 1_454
Mn1 Mn6 2.658502 1_465
Mn1 Mn3 2.685469 1_554
Mn2 Mn3 2.610286 1_555
Mn2 Mn4 2.630671 1_445
Mn2 Mn3 2.692614 1_545
Mn2 Mn4 2.745605 1_555
Mn2 Pr0 3.130745 1_555
Mn2 Pr0 3.139854 1_455
Mn3 Mn4 2.610286 1_555
Mn3 Mn4 2.692614 1_455
Mn3 Pr0 3.152305 1_565
Mn3 Pr0 3.152305 1_455
Mn4 Pr0 3.130745 1_555
Mn4 Pr0 3.139854 1_565
Mn5 Mn6 2.619789 1_555
Mn5 Mn7 2.629128 1_665
Mn5 Mn6 2.682697 1_565
Mn5 Mn7 2.747148 1_555
Mn5 Pr0 3.156046 1_555
Mn6 Mn7 2.619789 1_555
Mn6 Mn7 2.682697 1_655
Mn6 Pr0 3.092776 1_555
Mn7 Pr0 3.156046 1_555
