# generated using pymatgen
data_Na3Ru
_symmetry_space_group_name_H-M   'P 1'
_cell_length_a   6.47719300
_cell_length_b   6.47719352
_cell_length_c   5.33463700
_cell_angle_alpha   90.00000000
_cell_angle_beta   90.00000000
_cell_angle_gamma   120.00000243
_symmetry_Int_Tables_number   1
_chemical_formula_structural   Na3Ru
_chemical_formula_sum   'Na6 Ru2'
_cell_volume   193.82473763
_cell_formula_units_Z   2
loop_
 _symmetry_equiv_pos_site_id
 _symmetry_equiv_pos_as_xyz
  1  'x, y, z'
loop_
 _atom_site_type_symbol
 _atom_site_label
 _atom_site_symmetry_multiplicity
 _atom_site_fract_x
 _atom_site_fract_y
 _atom_site_fract_z
 _atom_site_occupancy
  Na  Na0  1  0.17784900  0.35569900  0.25000000  1
  Na  Na1  1  0.64430000  0.82215200  0.25000000  1
  Na  Na2  1  0.17785000  0.82215200  0.25000000  1
  Na  Na3  1  0.82215100  0.64430100  0.75000000  1
  Na  Na4  1  0.35569900  0.17785000  0.75000000  1
  Na  Na5  1  0.82215100  0.17785000  0.75000000  1
  Ru  Ru0  1  0.33333400  0.66666800  0.75000000  1
  Ru  Ru1  1  0.66666600  0.33333400  0.25000000  1
loop_
_geom_bond_atom_site_label_1
_geom_bond_atom_site_label_2
_geom_bond_distance
_geom_bond_site_symmetry_2
Na0 Na1 3.021300 1_555
Na0 Na2 3.021303 1_555
Na0 Ru0 3.187061 1_554
Na0 Ru0 3.187061 1_555
Na0 Ru1 3.241022 1_555
Na0 Ru1 3.241029 1_455
Na0 Na5 3.331012 1_455
Na0 Na5 3.331012 1_454
Na0 Na4 3.331015 1_555
Na0 Na4 3.331015 1_554
Na0 Na2 3.455890 1_545
Na0 Na1 3.455893 1_445
Na1 Na2 3.021287 1_555
Na1 Ru0 3.187052 1_554
Na1 Ru0 3.187052 1_555
Na1 Ru1 3.241019 1_565
Na1 Ru1 3.241032 1_555
Na1 Na5 3.331012 1_565
Na1 Na5 3.331012 1_564
Na1 Na3 3.331025 1_554
Na1 Na3 3.331025 1_555
Na1 Na2 3.455906 1_655
Na2 Ru0 3.187058 1_554
Na2 Ru0 3.187058 1_555
Na2 Ru1 3.241019 1_565
Na2 Ru1 3.241032 1_455
Na2 Na4 3.331012 1_564
Na2 Na4 3.331012 1_565
Na2 Na3 3.331015 1_454
Na2 Na3 3.331015 1_455
Na3 Na5 3.021293 1_555
Na3 Na4 3.021296 1_555
Na3 Ru1 3.187055 1_555
Na3 Ru1 3.187055 1_556
Na3 Ru0 3.241023 1_655
Na3 Ru0 3.241029 1_555
Na3 Na4 3.455897 1_665
Na3 Na5 3.455900 1_565
Na4 Na5 3.021300 1_555
Na4 Ru1 3.187055 1_556
Na4 Ru1 3.187055 1_555
Na4 Ru0 3.241023 1_545
Na4 Ru0 3.241029 1_555
Na4 Na5 3.455893 1_455
Na5 Ru1 3.187061 1_556
Na5 Ru1 3.187061 1_555
Na5 Ru0 3.241022 1_545
Na5 Ru0 3.241029 1_655
