# generated using pymatgen
data_Co(PdSe)2
_symmetry_space_group_name_H-M   'P 1'
_cell_length_a   4.99505810
_cell_length_b   6.03094358
_cell_length_c   6.60835068
_cell_angle_alpha   117.13217102
_cell_angle_beta   112.20584680
_cell_angle_gamma   90.00000531
_symmetry_Int_Tables_number   1
_chemical_formula_structural   Co(PdSe)2
_chemical_formula_sum   'Co2 Pd4 Se4'
_cell_volume   160.39993324
_cell_formula_units_Z   2
loop_
 _symmetry_equiv_pos_site_id
 _symmetry_equiv_pos_as_xyz
  1  'x, y, z'
loop_
 _atom_site_type_symbol
 _atom_site_label
 _atom_site_symmetry_multiplicity
 _atom_site_fract_x
 _atom_site_fract_y
 _atom_site_fract_z
 _atom_site_occupancy
  Co  Co0  1  0.74994471  0.00000000  -0.00000000  1
  Co  Co1  1  0.25005529  -0.00000000  0.00000000  1
  Pd  Pd0  1  0.88700483  0.26629198  0.77400966  1
  Pd  Pd1  1  0.11299517  0.73370802  0.22599034  1
  Pd  Pd2  1  0.61297072  0.49205229  0.22593943  1
  Pd  Pd3  1  0.38702928  0.50794771  0.77406057  1
  Se  Se0  1  0.64231799  0.93009598  0.28463597  1
  Se  Se1  1  0.35768201  0.06990402  0.71536403  1
  Se  Se2  1  0.14234525  0.35389230  0.28468951  1
  Se  Se3  1  0.85765475  0.64610770  0.71531049  1
loop_
_geom_bond_atom_site_label_1
_geom_bond_atom_site_label_2
_geom_bond_distance
_geom_bond_site_symmetry_2
Co0 Se3 2.342405 1_544
Co0 Se2 2.342407 1_655
Co0 Se0 2.343597 1_545
Co0 Se1 2.343597 1_554
Co0 Pd2 2.869600 1_555
Co0 Pd3 2.869605 1_544
Co0 Pd0 2.870303 1_554
Co0 Pd1 2.870303 1_645
Co1 Se2 2.342405 1_555
Co1 Se3 2.342407 1_444
Co1 Se1 2.343597 1_554
Co1 Se0 2.343597 1_545
Co1 Pd3 2.869600 1_544
Co1 Pd2 2.869605 1_555
Co1 Pd1 2.870303 1_545
Co1 Pd0 2.870303 1_454
Pd0 Se3 2.487264 1_555
Pd0 Se0 2.663651 1_545
Pd0 Se1 2.711189 1_555
Pd0 Se1 2.711189 1_655
Pd0 Pd1 2.813167 1_656
Pd0 Pd3 2.891579 1_655
Pd0 Pd3 2.891588 1_555
Pd0 Se2 2.900885 1_656
Pd1 Se2 2.487264 1_555
Pd1 Se1 2.663651 1_565
Pd1 Se0 2.711189 1_555
Pd1 Se0 2.711189 1_455
Pd1 Pd2 2.891579 1_455
Pd1 Pd2 2.891588 1_555
Pd1 Se3 2.900885 1_454
Pd2 Se0 2.484657 1_555
Pd2 Se3 2.662187 1_555
Pd2 Se2 2.712228 1_655
Pd2 Se2 2.712232 1_555
Pd2 Pd3 2.813154 1_554
Pd2 Se1 2.899148 1_554
Pd3 Se1 2.484657 1_555
Pd3 Se2 2.662187 1_555
Pd3 Se3 2.712228 1_455
Pd3 Se3 2.712232 1_555
Pd3 Se0 2.899148 1_556
