# generated using pymatgen
data_Be3Al2Si6HO18
_symmetry_space_group_name_H-M   'P 1'
_cell_length_a   9.30050560
_cell_length_b   9.30050560
_cell_length_c   9.29435400
_cell_angle_alpha   90.00000000
_cell_angle_beta   90.00000000
_cell_angle_gamma   119.99999714
_symmetry_Int_Tables_number   1
_chemical_formula_structural   Be3Al2Si6HO18
_chemical_formula_sum   'Be6 Al4 Si12 H2 O36'
_cell_volume   696.24641328
_cell_formula_units_Z   2
loop_
 _symmetry_equiv_pos_site_id
 _symmetry_equiv_pos_as_xyz
  1  'x, y, z'
loop_
 _atom_site_type_symbol
 _atom_site_label
 _atom_site_symmetry_multiplicity
 _atom_site_fract_x
 _atom_site_fract_y
 _atom_site_fract_z
 _atom_site_occupancy
  Be  Be0  1  0.50000000  0.00000000  0.75000000  1
  Be  Be1  1  0.50000000  0.00000000  0.25000000  1
  Be  Be2  1  0.00000000  0.50000000  0.75000000  1
  Be  Be3  1  0.00000000  0.50000000  0.25000000  1
  Be  Be4  1  0.50000000  0.50000000  0.75000000  1
  Be  Be5  1  0.50000000  0.50000000  0.25000000  1
  Al  Al0  1  0.33333300  0.66666700  0.75000000  1
  Al  Al1  1  0.66666700  0.33333300  0.25000000  1
  Al  Al2  1  0.66666700  0.33333300  0.75000000  1
  Al  Al3  1  0.33333300  0.66666700  0.25000000  1
  Si  Si0  1  0.11546100  0.38784700  0.50000000  1
  Si  Si1  1  0.88453900  0.61215300  0.50000000  1
  Si  Si2  1  0.61215300  0.72761400  0.50000000  1
  Si  Si3  1  0.38784700  0.11546100  0.00000000  1
  Si  Si4  1  0.38784700  0.27238600  0.50000000  1
  Si  Si5  1  0.61215300  0.88453900  0.00000000  1
  Si  Si6  1  0.27238600  0.88453900  0.50000000  1
  Si  Si7  1  0.72761400  0.61215300  0.00000000  1
  Si  Si8  1  0.72761400  0.11546100  0.50000000  1
  Si  Si9  1  0.27238600  0.38784700  0.00000000  1
  Si  Si10  1  0.88453900  0.27238600  0.00000000  1
  Si  Si11  1  0.11546100  0.72761400  0.00000000  1
  H  H0  1  0.00000000  0.00000000  0.75000000  1
  H  H1  1  0.00000000  0.00000000  0.25000000  1
  O  O0  1  0.31034900  0.07387500  0.50000000  1
  O  O1  1  0.68965100  0.92612500  0.50000000  1
  O  O2  1  0.92612500  0.23647400  0.50000000  1
  O  O3  1  0.07387500  0.31034900  0.00000000  1
  O  O4  1  0.07387500  0.76352600  0.50000000  1
  O  O5  1  0.92612500  0.68965100  0.00000000  1
  O  O6  1  0.76352600  0.68965100  0.50000000  1
  O  O7  1  0.23647400  0.92612500  0.00000000  1
  O  O8  1  0.23647400  0.31034900  0.50000000  1
  O  O9  1  0.76352600  0.07387500  0.00000000  1
  O  O10  1  0.68965100  0.76352600  0.00000000  1
  O  O11  1  0.31034900  0.23647400  0.00000000  1
  O  O12  1  0.14495200  0.49885200  0.64543300  1
  O  O13  1  0.85504800  0.50114800  0.35456700  1
  O  O14  1  0.50114800  0.64610000  0.64543300  1
  O  O15  1  0.85504800  0.50114800  0.64543300  1
  O  O16  1  0.49885200  0.14495200  0.85456700  1
  O  O17  1  0.49885200  0.35390000  0.35456700  1
  O  O18  1  0.14495200  0.49885200  0.35456700  1
  O  O19  1  0.50114800  0.85504800  0.14543300  1
  O  O20  1  0.35390000  0.85504800  0.64543300  1
  O  O21  1  0.49885200  0.35390000  0.64543300  1
  O  O22  1  0.64610000  0.50114800  0.85456700  1
  O  O23  1  0.64610000  0.14495200  0.35456700  1
  O  O24  1  0.50114800  0.64610000  0.35456700  1
  O  O25  1  0.35390000  0.49885200  0.14543300  1
  O  O26  1  0.50114800  0.85504800  0.85456700  1
  O  O27  1  0.49885200  0.14495200  0.14543300  1
  O  O28  1  0.64610000  0.14495200  0.64543300  1
  O  O29  1  0.35390000  0.49885200  0.85456700  1
  O  O30  1  0.35390000  0.85504800  0.35456700  1
  O  O31  1  0.64610000  0.50114800  0.14543300  1
  O  O32  1  0.85504800  0.35390000  0.85456700  1
  O  O33  1  0.14495200  0.64610000  0.14543300  1
  O  O34  1  0.14495200  0.64610000  0.85456700  1
  O  O35  1  0.85504800  0.35390000  0.14543300  1
loop_
_geom_bond_atom_site_label_1
_geom_bond_atom_site_label_2
_geom_bond_distance
_geom_bond_site_symmetry_2
Be0 O16 1.666286 1_555
Be0 O26 1.666286 1_545
Be0 O20 1.666286 1_545
Be0 O28 1.666286 1_555
Be1 O19 1.666286 1_545
Be1 O27 1.666286 1_555
Be1 O30 1.666286 1_545
Be1 O23 1.666286 1_555
Be2 O12 1.666286 1_555
Be2 O15 1.666286 1_455
Be2 O34 1.666286 1_555
Be2 O32 1.666286 1_455
Be3 O13 1.666286 1_455
Be3 O18 1.666286 1_555
Be3 O33 1.666286 1_555
Be3 O35 1.666286 1_455
Be4 O22 1.666286 1_555
Be4 O29 1.666286 1_555
Be4 O21 1.666286 1_555
Be4 O14 1.666286 1_555
Be5 O25 1.666286 1_555
Be5 O31 1.666286 1_555
Be5 O24 1.666286 1_555
Be5 O17 1.666286 1_555
Al0 O34 1.927602 1_555
Al0 O20 1.927602 1_555
Al0 O12 1.927605 1_555
Al0 O26 1.927605 1_555
Al0 O29 1.927610 1_555
Al0 O14 1.927610 1_555
Al1 O23 1.927602 1_555
Al1 O35 1.927602 1_555
Al1 O27 1.927605 1_555
Al1 O13 1.927605 1_555
Al1 O17 1.927610 1_555
Al1 O31 1.927610 1_555
Al2 O28 1.927602 1_555
Al2 O32 1.927602 1_555
Al2 O16 1.927605 1_555
Al2 O15 1.927605 1_555
Al2 O21 1.927610 1_555
Al2 O22 1.927610 1_555
Al3 O33 1.927602 1_555
Al3 O30 1.927602 1_555
Al3 O18 1.927605 1_555
Al3 O19 1.927605 1_555
Al3 O25 1.927610 1_555
Al3 O24 1.927610 1_555
O0 Si4 1.611656 1_555
O0 Si6 1.613619 1_545
O1 Si2 1.611656 1_555
O1 Si8 1.613619 1_565
O2 Si8 1.611656 1_555
O2 Si0 1.613619 1_655
O3 Si9 1.611656 1_555
O3 Si10 1.613619 1_455
O4 Si6 1.611656 1_555
O4 Si1 1.613619 1_455
O5 Si7 1.611656 1_555
O5 Si11 1.613619 1_655
O6 Si1 1.611656 1_555
O6 Si2 1.613619 1_555
O7 Si11 1.611656 1_555
O7 Si3 1.613619 1_565
O8 Si0 1.611656 1_555
O8 Si4 1.613619 1_555
O9 Si10 1.611656 1_555
O9 Si5 1.613619 1_545
O10 Si5 1.611656 1_555
O10 Si7 1.613619 1_555
O11 Si3 1.611656 1_555
O11 Si9 1.613619 1_555
O12 Si0 1.638605 1_555
O13 Si1 1.638605 1_555
O14 Si2 1.638605 1_555
O15 Si1 1.638605 1_555
O16 Si3 1.638605 1_556
O17 Si4 1.638605 1_555
O18 Si0 1.638605 1_555
O19 Si5 1.638605 1_555
O20 Si6 1.638605 1_555
O21 Si4 1.638605 1_555
O22 Si7 1.638605 1_556
O23 Si8 1.638605 1_555
O24 Si2 1.638605 1_555
O25 Si9 1.638605 1_555
O26 Si5 1.638605 1_556
O27 Si3 1.638605 1_555
O28 Si8 1.638605 1_555
O29 Si9 1.638605 1_556
O30 Si6 1.638605 1_555
O31 Si7 1.638605 1_555
O32 Si10 1.638605 1_556
O33 Si11 1.638605 1_555
O34 Si11 1.638605 1_556
O35 Si10 1.638605 1_555
