# generated using pymatgen
data_Li6Ca12Re4N16O3
_symmetry_space_group_name_H-M   'P 1'
_cell_length_a   11.35528353
_cell_length_b   11.35528353
_cell_length_c   11.35528353
_cell_angle_alpha   109.47122063
_cell_angle_beta   109.47122063
_cell_angle_gamma   109.47122063
_symmetry_Int_Tables_number   1
_chemical_formula_structural   Li6Ca12Re4N16O3
_chemical_formula_sum   'Li12 Ca24 Re8 N32 O6'
_cell_volume   1127.12493194
_cell_formula_units_Z   2
loop_
 _symmetry_equiv_pos_site_id
 _symmetry_equiv_pos_as_xyz
  1  'x, y, z'
loop_
 _atom_site_type_symbol
 _atom_site_label
 _atom_site_symmetry_multiplicity
 _atom_site_fract_x
 _atom_site_fract_y
 _atom_site_fract_z
 _atom_site_occupancy
  Li  Li0  1  0.27627200  0.02627200  0.25000000  1
  Li  Li1  1  0.97372800  0.72372800  0.25000000  1
  Li  Li2  1  0.75000000  0.52627200  0.77627200  1
  Li  Li3  1  0.77627200  0.75000000  0.52627200  1
  Li  Li4  1  0.25000000  0.97372800  0.72372800  1
  Li  Li5  1  0.72372800  0.25000000  0.97372800  1
  Li  Li6  1  0.22372800  0.47372800  0.75000000  1
  Li  Li7  1  0.47372800  0.75000000  0.22372800  1
  Li  Li8  1  0.02627200  0.25000000  0.27627200  1
  Li  Li9  1  0.25000000  0.27627200  0.02627200  1
  Li  Li10  1  0.75000000  0.22372800  0.47372800  1
  Li  Li11  1  0.52627200  0.77627200  0.75000000  1
  Ca  Ca0  1  0.03797000  0.09522600  0.70824300  1
  Ca  Ca1  1  0.05725700  0.46203000  0.17027300  1
  Ca  Ca2  1  0.79175700  0.88698300  0.32972700  1
  Ca  Ca3  1  0.61301700  0.40477400  0.44274300  1
  Ca  Ca4  1  0.40477400  0.44274300  0.61301700  1
  Ca  Ca5  1  0.09522600  0.70824300  0.03797000  1
  Ca  Ca6  1  0.46203000  0.17027300  0.05725700  1
  Ca  Ca7  1  0.32972700  0.79175700  0.88698300  1
  Ca  Ca8  1  0.70824300  0.03797000  0.09522600  1
  Ca  Ca9  1  0.17027300  0.05725700  0.46203000  1
  Ca  Ca10  1  0.88698300  0.32972700  0.79175700  1
  Ca  Ca11  1  0.96203000  0.55725700  0.67027300  1
  Ca  Ca12  1  0.38698300  0.29175700  0.82972700  1
  Ca  Ca13  1  0.44274300  0.61301700  0.40477400  1
  Ca  Ca14  1  0.53797000  0.20824300  0.59522600  1
  Ca  Ca15  1  0.90477400  0.11301700  0.94274300  1
  Ca  Ca16  1  0.94274300  0.90477400  0.11301700  1
  Ca  Ca17  1  0.11301700  0.94274300  0.90477400  1
  Ca  Ca18  1  0.82972700  0.38698300  0.29175700  1
  Ca  Ca19  1  0.55725700  0.67027300  0.96203000  1
  Ca  Ca20  1  0.20824300  0.59522600  0.53797000  1
  Ca  Ca21  1  0.59522600  0.53797000  0.20824300  1
  Ca  Ca22  1  0.67027300  0.96203000  0.55725700  1
  Ca  Ca23  1  0.29175700  0.82972700  0.38698300  1
  Re  Re0  1  0.27879300  0.27879300  0.27879300  1
  Re  Re1  1  0.50000000  0.00000000  0.72120700  1
  Re  Re2  1  0.00000000  0.72120700  0.50000000  1
  Re  Re3  1  0.72120700  0.50000000  0.00000000  1
  Re  Re4  1  0.00000000  0.22120700  0.50000000  1
  Re  Re5  1  0.22120700  0.50000000  0.00000000  1
  Re  Re6  1  0.50000000  0.00000000  0.22120700  1
  Re  Re7  1  0.77879300  0.77879300  0.77879300  1
  N  N0  1  0.82058500  0.58255100  0.45652000  1
  N  N1  1  0.54348000  0.86406500  0.12603200  1
  N  N2  1  0.23803300  0.41744900  0.37396800  1
  N  N3  1  0.32058500  0.95652000  0.08255100  1
  N  N4  1  0.95652000  0.08255100  0.32058500  1
  N  N5  1  0.08255100  0.32058500  0.95652000  1
  N  N6  1  0.73803300  0.87396800  0.91744900  1
  N  N7  1  0.04348000  0.62603200  0.36406500  1
  N  N8  1  0.76196700  0.67941500  0.13593500  1
  N  N9  1  0.37396800  0.23803300  0.41744900  1
  N  N10  1  0.58255100  0.45652000  0.82058500  1
  N  N11  1  0.91744900  0.73803300  0.87396800  1
  N  N12  1  0.62603200  0.36406500  0.04348000  1
  N  N13  1  0.13593500  0.76196700  0.67941500  1
  N  N14  1  0.87396800  0.91744900  0.73803300  1
  N  N15  1  0.36406500  0.04348000  0.62603200  1
  N  N16  1  0.67941500  0.13593500  0.76196700  1
  N  N17  1  0.12603200  0.54348000  0.86406500  1
  N  N18  1  0.17941500  0.26196700  0.63593500  1
  N  N19  1  0.26196700  0.63593500  0.17941500  1
  N  N20  1  0.61540500  0.61540500  0.61540500  1
  N  N21  1  0.50000000  0.00000000  0.38459500  1
  N  N22  1  0.38459500  0.50000000  0.00000000  1
  N  N23  1  0.00000000  0.38459500  0.50000000  1
  N  N24  1  0.88459500  0.50000000  0.00000000  1
  N  N25  1  0.00000000  0.88459500  0.50000000  1
  N  N26  1  0.50000000  0.00000000  0.88459500  1
  N  N27  1  0.11540500  0.11540500  0.11540500  1
  N  N28  1  0.45652000  0.82058500  0.58255100  1
  N  N29  1  0.86406500  0.12603200  0.54348000  1
  N  N30  1  0.41744900  0.37396800  0.23803300  1
  N  N31  1  0.63593500  0.17941500  0.26196700  1
  O  O0  1  0.62500000  0.75000000  0.37500000  1
  O  O1  1  0.87500000  0.25000000  0.12500000  1
  O  O2  1  0.75000000  0.37500000  0.62500000  1
  O  O3  1  0.25000000  0.12500000  0.87500000  1
  O  O4  1  0.12500000  0.87500000  0.25000000  1
  O  O5  1  0.37500000  0.62500000  0.75000000  1
loop_
_geom_bond_atom_site_label_1
_geom_bond_atom_site_label_2
_geom_bond_distance
_geom_bond_site_symmetry_2
Li0 O4 1.983471 1_545
Li0 N9 2.096542 1_555
Li0 N3 2.096548 1_545
Li0 N27 2.664527 1_555
Li0 N21 2.664527 1_555
Li1 O4 1.983471 1_655
Li1 N8 2.096538 1_555
Li1 N7 2.096538 1_655
Li1 N25 2.664527 1_655
Li1 N24 2.664527 1_555
Li2 O2 1.983471 1_555
Li2 N11 2.096542 1_555
Li2 N10 2.096548 1_555
Li2 N24 2.664527 1_556
Li2 N20 2.664527 1_555
Li3 O0 1.983471 1_555
Li3 N14 2.096542 1_555
Li3 N0 2.096548 1_555
Li3 N25 2.664527 1_655
Li3 N20 2.664527 1_555
Li4 O3 1.983471 1_565
Li4 N13 2.096538 1_555
Li4 N15 2.096538 1_565
Li4 N25 2.664527 1_555
Li4 N26 2.664527 1_565
Li5 O1 1.983471 1_556
Li5 N16 2.096538 1_555
Li5 N12 2.096538 1_556
Li5 N26 2.664527 1_555
Li5 N24 2.664527 1_556
Li6 O5 1.983471 1_555
Li6 N17 2.096538 1_555
Li6 N18 2.096538 1_555
Li6 N23 2.664527 1_555
Li6 N22 2.664527 1_556
Li7 O0 1.983471 1_555
Li7 N1 2.096538 1_555
Li7 N19 2.096538 1_555
Li7 N22 2.664527 1_555
Li7 N21 2.664527 1_565
Li8 O1 1.983471 1_455
Li8 N2 2.096542 1_555
Li8 N4 2.096548 1_455
Li8 N27 2.664527 1_555
Li8 N23 2.664527 1_555
Li9 O3 1.983471 1_554
Li9 N30 2.096542 1_555
Li9 N5 2.096548 1_554
Li9 N27 2.664527 1_555
Li9 N22 2.664527 1_555
Li10 O2 1.983471 1_555
Li10 N29 2.096538 1_555
Li10 N31 2.096538 1_555
Li10 N21 2.664527 1_555
Li10 N23 2.664527 1_655
Li11 O5 1.983471 1_555
Li11 N6 2.096542 1_555
Li11 N28 2.096548 1_555
Li11 N26 2.664527 1_565
Li11 N20 2.664527 1_555
Ca0 O3 2.342625 1_555
Ca0 N29 2.440516 1_455
Ca0 N14 2.454930 1_445
Ca0 N25 2.521987 1_545
Ca0 N18 2.593652 1_555
Ca0 N5 2.851010 1_555
Ca1 O1 2.342630 1_455
Ca1 N19 2.440509 1_555
Ca1 N7 2.454944 1_555
Ca1 N24 2.521994 1_455
Ca1 N5 2.593637 1_554
Ca1 N2 2.850991 1_555
Ca2 O0 2.342625 1_555
Ca2 N4 2.440509 1_565
Ca2 N8 2.454937 1_555
Ca2 N25 2.521987 1_655
Ca2 N29 2.593652 1_565
Ca2 N1 2.851005 1_555
Ca3 O2 2.342633 1_555
Ca3 N30 2.440503 1_555
Ca3 N0 2.454925 1_555
Ca3 N20 2.521992 1_555
Ca3 N9 2.593663 1_555
Ca3 N31 2.851000 1_555
Ca4 O5 2.342633 1_555
Ca4 N9 2.440503 1_555
Ca4 N10 2.454925 1_555
Ca4 N20 2.521992 1_555
Ca4 N2 2.593663 1_555
Ca4 N18 2.851000 1_555
Ca5 O4 2.342625 1_555
Ca5 N17 2.440516 1_554
Ca5 N11 2.454930 1_454
Ca5 N24 2.521987 1_455
Ca5 N19 2.593652 1_555
Ca5 N3 2.851010 1_555
Ca6 O3 2.342630 1_554
Ca6 N31 2.440509 1_555
Ca6 N12 2.454944 1_555
Ca6 N26 2.521994 1_554
Ca6 N3 2.593637 1_545
Ca6 N30 2.850991 1_555
Ca7 O5 2.342625 1_555
Ca7 N3 2.440509 1_556
Ca7 N13 2.454937 1_555
Ca7 N26 2.521987 1_565
Ca7 N1 2.593652 1_556
Ca7 N17 2.851005 1_555
Ca8 O1 2.342625 1_555
Ca8 N1 2.440516 1_545
Ca8 N6 2.454930 1_544
Ca8 N26 2.521987 1_554
Ca8 N31 2.593652 1_555
Ca8 N4 2.851010 1_555
Ca9 O4 2.342630 1_545
Ca9 N18 2.440509 1_555
Ca9 N15 2.454944 1_555
Ca9 N25 2.521994 1_545
Ca9 N4 2.593637 1_455
Ca9 N9 2.850991 1_555
Ca10 O2 2.342625 1_555
Ca10 N5 2.440509 1_655
Ca10 N16 2.454937 1_555
Ca10 N24 2.521987 1_556
Ca10 N17 2.593652 1_655
Ca10 N29 2.851005 1_555
Ca11 O2 2.342630 1_555
Ca11 N13 2.440509 1_655
Ca11 N17 2.454944 1_655
Ca11 N23 2.521994 1_655
Ca11 N0 2.593637 1_555
Ca11 N11 2.850991 1_555
Ca12 O3 2.342625 1_555
Ca12 N10 2.440509 1_555
Ca12 N18 2.454937 1_555
Ca12 N22 2.521987 1_556
Ca12 N12 2.593652 1_556
Ca12 N15 2.851005 1_555
Ca13 O0 2.342633 1_555
Ca13 N2 2.440503 1_555
Ca13 N28 2.454925 1_555
Ca13 N20 2.521992 1_555
Ca13 N30 2.593663 1_555
Ca13 N19 2.851000 1_555
Ca14 O2 2.342625 1_555
Ca14 N15 2.440516 1_555
Ca14 N9 2.454930 1_555
Ca14 N21 2.521987 1_555
Ca14 N16 2.593652 1_555
Ca14 N10 2.851010 1_555
Ca15 O1 2.342633 1_556
Ca15 N14 2.440503 1_545
Ca15 N5 2.454925 1_655
Ca15 N27 2.521992 1_656
Ca15 N6 2.593663 1_545
Ca15 N16 2.851000 1_555
Ca16 O4 2.342633 1_655
Ca16 N6 2.440503 1_554
Ca16 N4 2.454925 1_565
Ca16 N27 2.521992 1_665
Ca16 N11 2.593663 1_554
Ca16 N8 2.851000 1_555
Ca17 O3 2.342633 1_565
Ca17 N11 2.440503 1_455
Ca17 N3 2.454925 1_556
Ca17 N27 2.521992 1_566
Ca17 N14 2.593663 1_455
Ca17 N13 2.851000 1_555
Ca18 O1 2.342625 1_555
Ca18 N0 2.440509 1_555
Ca18 N31 2.454937 1_555
Ca18 N23 2.521987 1_655
Ca18 N7 2.593652 1_655
Ca18 N12 2.851005 1_555
Ca19 O5 2.342630 1_555
Ca19 N8 2.440509 1_556
Ca19 N1 2.454944 1_556
Ca19 N22 2.521994 1_556
Ca19 N10 2.593637 1_555
Ca19 N6 2.850991 1_555
Ca20 O5 2.342625 1_555
Ca20 N7 2.440516 1_555
Ca20 N2 2.454930 1_555
Ca20 N23 2.521987 1_555
Ca20 N13 2.593652 1_555
Ca20 N28 2.851010 1_555
Ca21 O0 2.342625 1_555
Ca21 N12 2.440516 1_555
Ca21 N30 2.454930 1_555
Ca21 N22 2.521987 1_555
Ca21 N8 2.593652 1_555
Ca21 N0 2.851010 1_555
Ca22 O0 2.342630 1_555
Ca22 N16 2.440509 1_565
Ca22 N29 2.454944 1_565
Ca22 N21 2.521994 1_565
Ca22 N28 2.593637 1_555
Ca22 N14 2.850991 1_555
Ca23 O4 2.342625 1_555
Ca23 N28 2.440509 1_555
Ca23 N19 2.454937 1_555
Ca23 N21 2.521987 1_565
Ca23 N15 2.593652 1_565
Ca23 N7 2.851005 1_555
N0 Re2 1.883104 1_655
N1 Re6 1.883100 1_565
N2 Re0 1.883108 1_555
N3 Re6 1.883104 1_565
N4 Re4 1.883104 1_655
N5 Re5 1.883104 1_556
N6 Re7 1.883108 1_555
N7 Re2 1.883100 1_555
N8 Re3 1.883100 1_555
N9 Re0 1.883108 1_555
N10 Re3 1.883104 1_556
N11 Re7 1.883108 1_555
N12 Re3 1.883100 1_555
N13 Re2 1.883100 1_555
N14 Re7 1.883108 1_555
N15 Re1 1.883100 1_555
N16 Re1 1.883100 1_555
N17 Re5 1.883100 1_556
N18 Re4 1.883100 1_555
N19 Re5 1.883100 1_555
N20 Re7 1.855317 1_555
N21 Re6 1.855317 1_555
N22 Re5 1.855317 1_555
N23 Re4 1.855317 1_555
N24 Re3 1.855317 1_555
N25 Re2 1.855317 1_555
N26 Re1 1.855317 1_555
N27 Re0 1.855317 1_555
N28 Re1 1.883104 1_565
N29 Re4 1.883100 1_655
N30 Re0 1.883108 1_555
N31 Re6 1.883100 1_555
