# generated using pymatgen
data_NaLa2OsO6
_symmetry_space_group_name_H-M   'P 1'
_cell_length_a   6.02678600
_cell_length_b   5.65498100
_cell_length_c   9.84634468
_cell_angle_alpha   55.64403633
_cell_angle_beta   90.00000000
_cell_angle_gamma   90.00000000
_symmetry_Int_Tables_number   1
_chemical_formula_structural   NaLa2OsO6
_chemical_formula_sum   'Na2 La4 Os2 O12'
_cell_volume   277.03459754
_cell_formula_units_Z   2
loop_
 _symmetry_equiv_pos_site_id
 _symmetry_equiv_pos_as_xyz
  1  'x, y, z'
loop_
 _atom_site_type_symbol
 _atom_site_label
 _atom_site_symmetry_multiplicity
 _atom_site_fract_x
 _atom_site_fract_y
 _atom_site_fract_z
 _atom_site_occupancy
  Na  Na0  1  0.50000000  0.00000000  0.50000000  1
  Na  Na1  1  0.00000000  0.00000000  0.00000000  1
  La  La0  1  0.06651900  0.77195300  0.74660800  1
  La  La1  1  0.56651900  0.22804700  0.75339200  1
  La  La2  1  0.43348100  0.77195300  0.24660800  1
  La  La3  1  0.93348100  0.22804700  0.25339200  1
  Os  Os0  1  0.50000000  0.50000000  0.00000000  1
  Os  Os1  1  0.00000000  0.50000000  0.50000000  1
  O  O0  1  0.72171600  0.73359800  0.43196100  1
  O  O1  1  0.22171600  0.26640200  0.06803900  1
  O  O2  1  0.27828400  0.26640200  0.56803900  1
  O  O3  1  0.77828400  0.73359800  0.93196100  1
  O  O4  1  0.04975500  0.61342000  0.27057700  1
  O  O5  1  0.54975500  0.38658000  0.22942300  1
  O  O6  1  0.95024500  0.38658000  0.72942300  1
  O  O7  1  0.45024500  0.61342000  0.77057700  1
  O  O8  1  0.32615500  0.84023400  0.94903300  1
  O  O9  1  0.82615500  0.15976600  0.55096700  1
  O  O10  1  0.67384500  0.15976600  0.05096700  1
  O  O11  1  0.17384500  0.84023400  0.44903300  1
loop_
_geom_bond_atom_site_label_1
_geom_bond_atom_site_label_2
_geom_bond_distance
_geom_bond_site_symmetry_2
Na0 O7 2.322352 1_545
Na0 O5 2.322352 1_555
Na0 O9 2.333171 1_555
Na0 O11 2.333171 1_545
Na0 O2 2.375497 1_555
Na0 O0 2.375497 1_545
Na1 O4 2.322352 1_545
Na1 O6 2.322352 1_454
Na1 O10 2.333171 1_455
Na1 O8 2.333171 1_544
Na1 O1 2.375497 1_555
Na1 O3 2.375497 1_444
La0 O6 2.384354 1_455
La0 O9 2.418825 1_465
La0 O3 2.438994 1_455
La0 O7 2.443131 1_555
La0 O2 2.643799 1_565
La0 O8 2.727428 1_555
La0 O11 2.806351 1_555
La0 O1 2.975310 1_556
La1 O7 2.384354 1_555
La1 O8 2.418825 1_545
La1 O2 2.438994 1_555
La1 O6 2.443131 1_555
La1 O3 2.643799 1_545
La1 O9 2.727428 1_555
La1 O10 2.806351 1_556
La1 O0 2.975310 1_555
La2 O5 2.384354 1_555
La2 O10 2.418825 1_565
La2 O0 2.438994 1_555
La2 O4 2.443131 1_555
La2 O1 2.643799 1_565
La2 O11 2.727428 1_555
La2 O8 2.806351 1_554
La2 O2 2.975310 1_555
La3 O4 2.384354 1_655
La3 O11 2.418825 1_645
La3 O1 2.438994 1_655
La3 O5 2.443131 1_555
La3 O0 2.643799 1_545
La3 O10 2.727428 1_555
La3 O9 2.806351 1_555
La3 O3 2.975310 1_554
O0 Os1 2.001961 1_655
O1 Os0 2.001961 1_555
O2 Os1 2.001961 1_555
O3 Os0 2.001961 1_556
O4 Os1 1.992229 1_555
O5 Os0 1.992229 1_555
O6 Os1 1.992229 1_655
O7 Os0 1.992229 1_556
O8 Os0 1.990386 1_556
O9 Os1 1.990386 1_655
O10 Os0 1.990386 1_555
O11 Os1 1.990386 1_555
