# generated using pymatgen
data_UCrNi
_symmetry_space_group_name_H-M   'P 1'
_cell_length_a   5.09173696
_cell_length_b   5.09173696
_cell_length_c   5.09173696
_cell_angle_alpha   94.51879840
_cell_angle_beta   57.43193303
_cell_angle_gamma   122.71666115
_symmetry_Int_Tables_number   1
_chemical_formula_structural   UCrNi
_chemical_formula_sum   'U2 Cr2 Ni2'
_cell_volume   89.31199565
_cell_formula_units_Z   2
loop_
 _symmetry_equiv_pos_site_id
 _symmetry_equiv_pos_as_xyz
  1  'x, y, z'
loop_
 _atom_site_type_symbol
 _atom_site_label
 _atom_site_symmetry_multiplicity
 _atom_site_fract_x
 _atom_site_fract_y
 _atom_site_fract_z
 _atom_site_occupancy
  U  U0  1  0.50000000  0.74676200  0.75323800  1
  U  U1  1  0.00000000  0.00323800  0.99676200  1
  Cr  Cr0  1  0.75000000  0.37500000  0.87500000  1
  Cr  Cr1  1  0.25000000  0.37500000  0.37500000  1
  Ni  Ni0  1  0.25000000  0.87500000  0.37500000  1
  Ni  Ni1  1  0.75000000  0.37500000  0.37500000  1
loop_
_geom_bond_atom_site_label_1
_geom_bond_atom_site_label_2
_geom_bond_distance
_geom_bond_site_symmetry_2
U0 U1 3.045310 1_555
U0 U1 3.045310 1_665
U0 U1 3.108773 1_664
U0 U1 3.108773 1_565
Cr0 Cr1 2.446416 1_556
Cr0 Cr1 2.446416 1_655
Cr0 Ni1 2.545868 1_555
Cr0 Ni0 2.545868 1_546
Cr0 Ni0 2.545868 1_655
Cr0 Ni1 2.545868 1_556
Cr0 U0 2.893572 1_545
Cr0 U1 2.893572 1_555
Cr0 U0 2.893572 1_655
Cr0 U1 2.893572 1_665
Cr0 U0 3.037612 1_555
Cr0 U1 3.037612 1_655
Cr1 Ni0 2.545868 1_545
Cr1 Ni1 2.545868 1_555
Cr1 Ni1 2.545868 1_455
Cr1 Ni0 2.545868 1_555
Cr1 U1 2.893572 1_554
Cr1 U0 2.893572 1_445
Cr1 U1 2.893572 1_664
Cr1 U0 2.893572 1_555
Cr1 U1 3.037612 1_555
Cr1 U0 3.037612 1_554
Ni0 Ni1 2.440624 1_565
Ni0 Ni1 2.440624 1_455
Ni0 U1 2.881567 1_664
Ni0 U0 2.881567 1_554
Ni0 U0 2.881567 1_455
Ni0 U1 2.881567 1_565
Ni0 U1 3.080860 1_564
Ni0 U0 3.080860 1_555
Ni1 U1 2.881567 1_555
Ni1 U0 2.881567 1_654
Ni1 U0 2.881567 1_555
Ni1 U1 2.881567 1_654
Ni1 U0 3.080860 1_545
Ni1 U1 3.080860 1_664
