# generated using pymatgen
data_La8Ti2Ga2O19
_symmetry_space_group_name_H-M   'P 1'
_cell_length_a   3.95674100
_cell_length_b   11.18501750
_cell_length_c   11.40566051
_cell_angle_alpha   89.90973137
_cell_angle_beta   90.00000000
_cell_angle_gamma   90.00000000
_symmetry_Int_Tables_number   1
_chemical_formula_structural   La8Ti2Ga2O19
_chemical_formula_sum   'La8 Ti2 Ga2 O19'
_cell_volume   504.77076378
_cell_formula_units_Z   1
loop_
 _symmetry_equiv_pos_site_id
 _symmetry_equiv_pos_as_xyz
  1  'x, y, z'
loop_
 _atom_site_type_symbol
 _atom_site_label
 _atom_site_symmetry_multiplicity
 _atom_site_fract_x
 _atom_site_fract_y
 _atom_site_fract_z
 _atom_site_occupancy
  La  La0  1  0.25000000  0.62122800  0.41685000  1
  La  La1  1  0.25000000  0.13344300  0.06389100  1
  La  La2  1  0.75000000  0.36478000  0.56152800  1
  La  La3  1  0.75000000  0.86215200  0.94188200  1
  La  La4  1  0.75000000  0.90006700  0.27983500  1
  La  La5  1  0.75000000  0.40539300  0.21068500  1
  La  La6  1  0.25000000  0.09828500  0.71796700  1
  La  La7  1  0.25000000  0.58308200  0.79649900  1
  Ti  Ti0  1  0.25000000  0.19416800  0.37189000  1
  Ti  Ti1  1  0.75000000  0.30515100  0.87316800  1
  Ga  Ga0  1  0.25000000  0.69297600  0.12580200  1
  Ga  Ga1  1  0.75000000  0.81636800  0.62693300  1
  O  O0  1  0.75000000  0.76490600  0.47926300  1
  O  O1  1  0.75000000  0.26980700  0.03425600  1
  O  O2  1  0.25000000  0.23395100  0.53726100  1
  O  O3  1  0.25000000  0.72201100  0.95704100  1
  O  O4  1  0.75000000  0.50389000  0.39770200  1
  O  O5  1  0.75000000  0.00841900  0.10070900  1
  O  O6  1  0.25000000  0.50477800  0.60275400  1
  O  O7  1  0.25000000  0.99404400  0.90005300  1
  O  O8  1  0.25000000  0.78153300  0.27715900  1
  O  O9  1  0.25000000  0.28085300  0.22918700  1
  O  O10  1  0.75000000  0.21793300  0.73104200  1
  O  O11  1  0.75000000  0.71467900  0.75095700  1
  O  O12  1  0.25000000  0.53642700  0.18593500  1
  O  O13  1  0.25000000  0.04026800  0.32554300  1
  O  O14  1  0.75000000  0.46182200  0.82971600  1
  O  O15  1  0.75000000  0.96778100  0.67500100  1
  O  O16  1  0.75000000  0.74498000  0.12195400  1
  O  O17  1  0.75000000  0.23753500  0.37869500  1
  O  O18  1  0.25000000  0.26868900  0.87564100  1
loop_
_geom_bond_atom_site_label_1
_geom_bond_atom_site_label_2
_geom_bond_distance
_geom_bond_site_symmetry_2
La0 O4 2.384327 1_455
La0 O4 2.384327 1_555
La0 O8 2.396748 1_555
La0 O6 2.486707 1_555
La0 O0 2.647052 1_455
La0 O0 2.647052 1_555
La0 O12 2.800732 1_555
La1 O7 2.435609 1_544
La1 O5 2.458445 1_555
La1 O5 2.458445 1_455
La1 O9 2.506527 1_555
La1 O1 2.520498 1_455
La1 O1 2.520498 1_555
La1 O18 2.624542 1_554
La1 O13 3.159499 1_555
La2 O4 2.429664 1_555
La2 O2 2.476520 1_655
La2 O2 2.476520 1_555
La2 O17 2.526571 1_555
La2 O10 2.534929 1_555
La2 O6 2.566972 1_655
La2 O6 2.566972 1_555
La3 O16 2.434620 1_556
La3 O5 2.442839 1_566
La3 O7 2.513086 1_655
La3 O7 2.513086 1_555
La3 O3 2.529819 1_655
La3 O3 2.529819 1_555
La3 O11 2.733895 1_555
La4 O5 2.373816 1_565
La4 O8 2.381757 1_555
La4 O8 2.381757 1_655
La4 O16 2.502301 1_555
La4 O13 2.578257 1_565
La4 O13 2.578257 1_665
La4 O0 2.729190 1_555
La5 O4 2.402299 1_555
La5 O9 2.428571 1_655
La5 O9 2.428571 1_555
La5 O12 2.477977 1_555
La5 O12 2.477977 1_655
La5 O1 2.521665 1_555
La5 O17 2.680620 1_555
La6 O7 2.380110 1_545
La6 O10 2.393276 1_455
La6 O10 2.393276 1_555
La6 O15 2.507399 1_445
La6 O15 2.507399 1_545
La6 O2 2.557488 1_555
La6 O18 2.622534 1_555
La7 O6 2.378308 1_555
La7 O3 2.403440 1_555
La7 O14 2.428045 1_455
La7 O14 2.428045 1_555
La7 O11 2.519502 1_555
La7 O11 2.519502 1_455
Ga0 O12 1.879529 1_555
Ga0 O3 1.951530 1_554
Ga0 O8 1.991659 1_555
Ga0 O16 2.062554 1_455
Ga0 O16 2.062554 1_555
Ga1 O0 1.780773 1_555
Ga1 O15 1.780909 1_555
Ga1 O11 1.813730 1_555
O1 Ti1 1.878754 1_554
O2 Ti0 1.938625 1_555
O9 Ti0 1.893212 1_555
O10 Ti1 1.893258 1_555
O13 Ti0 1.801509 1_555
O14 Ti1 1.820350 1_555
O17 Ti0 2.038474 1_655
O17 Ti0 2.038474 1_555
O18 Ti1 2.020157 1_455
O18 Ti1 2.020157 1_555
