# generated using pymatgen
data_Mg4Si3
_symmetry_space_group_name_H-M   'P 1'
_cell_length_a   5.20342600
_cell_length_b   7.19833668
_cell_length_c   7.73998939
_cell_angle_alpha   94.26016002
_cell_angle_beta   101.73020605
_cell_angle_gamma   101.90478998
_symmetry_Int_Tables_number   1
_chemical_formula_structural   Mg4Si3
_chemical_formula_sum   'Mg8 Si6'
_cell_volume   275.69804274
_cell_formula_units_Z   2
loop_
 _symmetry_equiv_pos_site_id
 _symmetry_equiv_pos_as_xyz
  1  'x, y, z'
loop_
 _atom_site_type_symbol
 _atom_site_label
 _atom_site_symmetry_multiplicity
 _atom_site_fract_x
 _atom_site_fract_y
 _atom_site_fract_z
 _atom_site_occupancy
  Mg  Mg0  1  0.05493300  0.22333200  0.85605700  1
  Mg  Mg1  1  0.58004500  0.12205200  0.05535600  1
  Mg  Mg2  1  0.84246700  0.30751000  0.45121600  1
  Mg  Mg3  1  0.40984900  0.58781500  0.50235900  1
  Mg  Mg4  1  0.48929000  0.58221100  0.11719400  1
  Mg  Mg5  1  0.40327500  0.05813900  0.62103600  1
  Mg  Mg6  1  0.01717900  0.87791500  0.20637900  1
  Mg  Mg7  1  0.10227200  0.66022500  0.78486300  1
  Si  Si0  1  0.66664200  0.81918800  0.84051100  1
  Si  Si1  1  0.58995300  0.41654900  0.80773200  1
  Si  Si2  1  0.20567300  0.26707000  0.23425200  1
  Si  Si3  1  0.87848300  0.92250700  0.60155100  1
  Si  Si4  1  0.95245400  0.49495500  0.08771400  1
  Si  Si5  1  0.55763600  0.91062200  0.33390000  1
loop_
_geom_bond_atom_site_label_1
_geom_bond_atom_site_label_2
_geom_bond_distance
_geom_bond_site_symmetry_2
Mg0 Si3 2.687583 1_445
Mg0 Si4 2.760485 1_456
Mg0 Si2 2.847915 1_556
Mg0 Si1 2.954293 1_555
Mg0 Si1 3.004321 1_455
Mg0 Si0 3.159752 1_445
Mg1 Si5 2.737595 1_545
Mg1 Si0 2.809365 1_544
Mg1 Si2 2.919369 1_555
Mg1 Si4 2.929149 1_555
Mg1 Si1 2.961199 1_554
Mg2 Si2 2.814494 1_655
Mg2 Si5 2.916099 1_545
Mg2 Si3 3.110360 1_545
Mg3 Si5 2.794906 1_555
Mg3 Si1 2.827295 1_555
Mg3 Si2 2.854011 1_555
Mg3 Si0 2.902027 1_555
Mg3 Si3 2.979973 1_555
Mg4 Si4 2.661145 1_555
Mg4 Si4 2.691701 1_455
Mg4 Si5 2.711064 1_555
Mg4 Si2 2.759111 1_555
Mg4 Si1 2.788728 1_554
Mg4 Si0 3.007404 1_554
Mg5 Si3 2.672732 1_445
Mg5 Si5 2.727454 1_545
Mg5 Si1 2.743950 1_555
Mg5 Si0 2.860479 1_545
Mg5 Si3 2.866360 1_545
Mg6 Si5 2.738967 1_555
Mg6 Si2 2.747048 1_565
Mg6 Si4 2.769707 1_455
Mg6 Si5 2.811555 1_455
Mg6 Si0 2.988083 1_454
Mg7 Si3 2.750788 1_455
Mg7 Si0 2.833195 1_455
Mg7 Si0 2.853931 1_555
Mg7 Si4 2.879647 1_456
Mg7 Si1 2.919492 1_455
Si0 Si3 2.425722 1_555
Si0 Si1 2.827781 1_555
Si1 Si4 2.507913 1_556
Si2 Si4 2.504775 1_455
Si3 Si5 2.365294 1_555
