# generated using pymatgen
data_Ge7H18O23
_symmetry_space_group_name_H-M   'P 1'
_cell_length_a   7.71432000
_cell_length_b   7.83254799
_cell_length_c   7.83679368
_cell_angle_alpha   90.31505660
_cell_angle_beta   90.51883378
_cell_angle_gamma   92.89555676
_symmetry_Int_Tables_number   1
_chemical_formula_structural   Ge7H18O23
_chemical_formula_sum   'Ge7 H18 O23'
_cell_volume   472.88851828
_cell_formula_units_Z   1
loop_
 _symmetry_equiv_pos_site_id
 _symmetry_equiv_pos_as_xyz
  1  'x, y, z'
loop_
 _atom_site_type_symbol
 _atom_site_label
 _atom_site_symmetry_multiplicity
 _atom_site_fract_x
 _atom_site_fract_y
 _atom_site_fract_z
 _atom_site_occupancy
  Ge  Ge0  1  0.84098000  0.87409400  0.12981600  1
  Ge  Ge1  1  0.13139000  0.13639900  0.11656400  1
  Ge  Ge2  1  0.84453600  0.13386600  0.85433400  1
  Ge  Ge3  1  0.11017000  0.85933000  0.84880300  1
  Ge  Ge4  1  0.98883200  0.48809200  0.99703600  1
  Ge  Ge5  1  0.48031700  0.98975300  0.99487300  1
  Ge  Ge6  1  0.97617300  0.00038700  0.50012200  1
  H  H0  1  0.08368200  0.27388400  0.40778500  1
  H  H1  1  0.10612100  0.57304500  0.47981700  1
  H  H2  1  0.96145200  0.47310200  0.58860300  1
  H  H3  1  0.48349400  0.61649900  0.96512100  1
  H  H4  1  0.37230000  0.45277500  0.03058200  1
  H  H5  1  0.55248700  0.01299700  0.65201500  1
  H  H6  1  0.63321600  0.95600700  0.46089200  1
  H  H7  1  0.44092700  0.87071000  0.50772000  1
  H  H8  1  0.71042700  0.63639600  0.71299300  1
  H  H9  1  0.73663500  0.69913300  0.52679200  1
  H  H10  1  0.65310100  0.38035900  0.40987700  1
  H  H11  1  0.76163400  0.54235600  0.19687400  1
  H  H12  1  0.55781400  0.31230800  0.24172200  1
  H  H13  1  0.44479200  0.60875600  0.43979600  1
  H  H14  1  0.36119900  0.71207500  0.29429900  1
  H  H15  1  0.41053700  0.44459400  0.80905500  1
  H  H16  1  0.33501500  0.25712900  0.70441100  1
  H  H17  1  0.23662900  0.42120100  0.64278500  1
  O  O0  1  0.86382300  0.87306800  0.87887900  1
  O  O1  1  0.86187900  0.11920400  0.10218700  1
  O  O2  1  0.09027000  0.89318300  0.13149100  1
  O  O3  1  0.10749300  0.11257800  0.87323000  1
  O  O4  1  0.86005300  0.61474900  0.14358200  1
  O  O5  1  0.60183000  0.84254600  0.11245000  1
  O  O6  1  0.81922200  0.88453600  0.37152200  1
  O  O7  1  0.14265600  0.37529600  0.11600700  1
  O  O8  1  0.37298600  0.13221600  0.12985800  1
  O  O9  1  0.10824200  0.15364000  0.37075900  1
  O  O10  1  0.84646200  0.36756400  0.86534000  1
  O  O11  1  0.60292300  0.09908200  0.83373600  1
  O  O12  1  0.85459100  0.13818700  0.61937500  1
  O  O13  1  0.10327300  0.62681200  0.86385600  1
  O  O14  1  0.34558100  0.85681300  0.86550300  1
  O  O15  1  0.10671200  0.86476400  0.61132400  1
  O  O16  1  0.06646300  0.45934100  0.52030300  1
  O  O17  1  0.46702200  0.49109600  0.95206000  1
  O  O18  1  0.52289300  0.97721900  0.52606800  1
  O  O19  1  0.68483700  0.60460400  0.59457800  1
  O  O20  1  0.61635100  0.41335300  0.29557000  1
  O  O21  1  0.35809500  0.69405100  0.41738800  1
  O  O22  1  0.35348600  0.37953900  0.68159900  1
loop_
_geom_bond_atom_site_label_1
_geom_bond_atom_site_label_2
_geom_bond_distance
_geom_bond_site_symmetry_2
Ge0 O5 1.852616 1_555
Ge0 O6 1.904809 1_555
Ge0 O2 1.921282 1_655
Ge0 O1 1.931988 1_565
Ge0 O0 1.976018 1_554
Ge0 O4 2.047417 1_555
Ge1 O8 1.867666 1_555
Ge1 O7 1.868830 1_555
Ge1 O2 1.919742 1_545
Ge1 O3 1.921336 1_554
Ge1 O9 2.006091 1_555
Ge1 O1 2.078645 1_455
Ge2 O10 1.831312 1_555
Ge2 O12 1.844084 1_555
Ge2 O11 1.875392 1_555
Ge2 O1 1.950179 1_556
Ge2 O3 2.047849 1_655
Ge2 O0 2.065508 1_545
Ge3 O14 1.820671 1_555
Ge3 O13 1.823797 1_555
Ge3 O15 1.861775 1_555
Ge3 O0 1.925395 1_455
Ge3 O3 1.992908 1_565
Ge3 O2 2.237306 1_556
Ge4 O13 1.726706 1_655
Ge4 O10 1.739722 1_555
Ge4 O7 1.775638 1_656
Ge4 O4 1.843293 1_556
Ge5 O14 1.747115 1_555
Ge5 O8 1.773682 1_566
Ge5 O5 1.778310 1_556
Ge5 O11 1.781635 1_565
Ge6 O15 1.733301 1_645
Ge6 O12 1.739282 1_555
Ge6 O6 1.778169 1_545
Ge6 O9 1.848018 1_655
H0 O9 1.011499 1_555
H1 O16 0.982220 1_555
H2 O16 0.985087 1_655
H3 O17 0.988655 1_555
H4 O17 0.995350 1_554
H5 O18 1.044640 1_545
H5 O11 1.608417 1_555
H6 O18 1.016873 1_555
H6 O6 1.719857 1_555
H7 O18 1.029653 1_555
H7 O21 1.647956 1_555
H8 O19 0.975359 1_555
H9 O19 0.984045 1_555
H10 O20 0.977223 1_555
H11 O4 1.018443 1_555
H12 O20 0.982417 1_555
H13 O21 0.984264 1_555
H14 O21 0.976000 1_555
H15 O22 1.189459 1_555
H15 O17 1.244643 1_555
H16 O22 0.979832 1_555
H17 O22 1.018581 1_555
