# generated using pymatgen
data_TiAlFeO5
_symmetry_space_group_name_H-M   'P 1'
_cell_length_a   5.22937343
_cell_length_b   5.22937343
_cell_length_c   9.74532600
_cell_angle_alpha   90.00000000
_cell_angle_beta   90.00000000
_cell_angle_gamma   138.05324948
_symmetry_Int_Tables_number   1
_chemical_formula_structural   TiAlFeO5
_chemical_formula_sum   'Ti2 Al2 Fe2 O10'
_cell_volume   178.13854067
_cell_formula_units_Z   2
loop_
 _symmetry_equiv_pos_site_id
 _symmetry_equiv_pos_as_xyz
  1  'x, y, z'
loop_
 _atom_site_type_symbol
 _atom_site_label
 _atom_site_symmetry_multiplicity
 _atom_site_fract_x
 _atom_site_fract_y
 _atom_site_fract_z
 _atom_site_occupancy
  Ti  Ti0  1  0.13199700  0.86800300  0.06450100  1
  Ti  Ti1  1  0.86800300  0.13199700  0.56450100  1
  Al  Al0  1  0.80976800  0.19023200  0.25095300  1
  Al  Al1  1  0.19023200  0.80976800  0.75095300  1
  Fe  Fe0  1  0.86248900  0.13751100  0.93036800  1
  Fe  Fe1  1  0.13751100  0.86248900  0.43036800  1
  O  O0  1  0.69575200  0.30424800  0.41927400  1
  O  O1  1  0.31231100  0.68768900  0.58493500  1
  O  O2  1  0.68768900  0.31231100  0.08493500  1
  O  O3  1  0.30424800  0.69575200  0.91927400  1
  O  O4  1  0.94566200  0.05433800  0.38432500  1
  O  O5  1  0.04663200  0.95336800  0.62100300  1
  O  O6  1  0.95336800  0.04663200  0.12100300  1
  O  O7  1  0.05433800  0.94566200  0.88432500  1
  O  O8  1  0.25381500  0.74618500  0.24464100  1
  O  O9  1  0.74618500  0.25381500  0.74464100  1
loop_
_geom_bond_atom_site_label_1
_geom_bond_atom_site_label_2
_geom_bond_distance
_geom_bond_site_symmetry_2
Al0 O4 1.857579 1_555
Al0 O6 1.889558 1_555
Al0 O8 1.950870 1_655
Al0 O8 1.950870 1_545
Al0 O0 1.982553 1_555
Al0 O2 2.009712 1_555
Al1 O7 1.857579 1_555
Al1 O5 1.889558 1_555
Al1 O9 1.950870 1_565
Al1 O9 1.950870 1_455
Al1 O3 1.982553 1_555
Al1 O1 2.009712 1_555
Fe0 O7 1.926545 1_645
Fe0 O3 1.959264 1_545
Fe0 O3 1.959264 1_655
Fe0 O6 2.058906 1_556
Fe0 O9 2.136830 1_555
Fe0 O2 2.276627 1_556
Fe1 O4 1.926545 1_465
Fe1 O0 1.959264 1_565
Fe1 O0 1.959264 1_455
Fe1 O5 2.058906 1_555
Fe1 O8 2.136830 1_555
Fe1 O1 2.276627 1_555
O0 Ti1 2.198348 1_555
O1 Ti1 1.959333 1_455
O1 Ti1 1.959333 1_565
O2 Ti0 1.959333 1_545
O2 Ti0 1.959333 1_655
O3 Ti0 2.198348 1_556
O4 Ti1 1.912660 1_555
O5 Ti1 1.829298 1_465
O6 Ti0 1.829298 1_645
O7 Ti0 1.912660 1_556
O8 Ti0 2.120645 1_555
O9 Ti1 2.120645 1_555
