# generated using pymatgen
data_PrSiAs3
_symmetry_space_group_name_H-M   'P 1'
_cell_length_a   6.02315600
_cell_length_b   26.68343500
_cell_length_c   5.95277600
_cell_angle_alpha   90.00000000
_cell_angle_beta   90.00000000
_cell_angle_gamma   90.00000000
_symmetry_Int_Tables_number   1
_chemical_formula_structural   PrSiAs3
_chemical_formula_sum   'Pr8 Si8 As24'
_cell_volume   956.72117968
_cell_formula_units_Z   8
loop_
 _symmetry_equiv_pos_site_id
 _symmetry_equiv_pos_as_xyz
  1  'x, y, z'
loop_
 _atom_site_type_symbol
 _atom_site_label
 _atom_site_symmetry_multiplicity
 _atom_site_fract_x
 _atom_site_fract_y
 _atom_site_fract_z
 _atom_site_occupancy
  Pr  Pr0  1  0.52063500  0.40961800  0.75523600  1
  Pr  Pr1  1  0.47936500  0.59038200  0.25523600  1
  Pr  Pr2  1  0.97936500  0.90961800  0.25523600  1
  Pr  Pr3  1  0.02063500  0.09038200  0.75523600  1
  Pr  Pr4  1  0.02199800  0.40511800  0.25463700  1
  Pr  Pr5  1  0.97800200  0.59488200  0.75463700  1
  Pr  Pr6  1  0.47800200  0.90511800  0.75463700  1
  Pr  Pr7  1  0.52199800  0.09488200  0.25463700  1
  Si  Si0  1  0.44395100  0.29448900  0.33313500  1
  Si  Si1  1  0.55604900  0.70551100  0.83313500  1
  Si  Si2  1  0.05604900  0.79448900  0.83313500  1
  Si  Si3  1  0.94395100  0.20551100  0.33313500  1
  Si  Si4  1  0.11493300  0.29193600  0.83243600  1
  Si  Si5  1  0.88506700  0.70806400  0.33243600  1
  Si  Si6  1  0.38506700  0.79193600  0.33243600  1
  Si  Si7  1  0.61493300  0.20806400  0.83243600  1
  As  As0  1  0.01557900  0.37486900  0.75163000  1
  As  As1  1  0.98442100  0.62513100  0.25163000  1
  As  As2  1  0.48442100  0.87486900  0.25163000  1
  As  As3  1  0.51557900  0.12513100  0.75163000  1
  As  As4  1  0.52671400  0.37806900  0.25169400  1
  As  As5  1  0.47328600  0.62193100  0.75169400  1
  As  As6  1  0.97328600  0.87806900  0.75169400  1
  As  As7  1  0.02671400  0.12193100  0.25169400  1
  As  As8  1  0.79083200  0.49817300  0.47873600  1
  As  As9  1  0.20916800  0.50182700  0.97873600  1
  As  As10  1  0.70916800  0.99817300  0.97873600  1
  As  As11  1  0.29083200  0.00182700  0.47873600  1
  As  As12  1  0.21289300  0.50150200  0.54333900  1
  As  As13  1  0.78710700  0.49849800  0.04333900  1
  As  As14  1  0.28710700  0.00150200  0.04333900  1
  As  As15  1  0.71289300  0.99849800  0.54333900  1
  As  As16  1  0.06771100  0.28740600  0.22933700  1
  As  As17  1  0.93228900  0.71259400  0.72933700  1
  As  As18  1  0.43228900  0.78740600  0.72933700  1
  As  As19  1  0.56771100  0.21259400  0.22933700  1
  As  As20  1  0.49254700  0.29069300  0.72982000  1
  As  As21  1  0.50745300  0.70930700  0.22982000  1
  As  As22  1  0.00745300  0.79069300  0.22982000  1
  As  As23  1  0.99254700  0.20930700  0.72982000  1
loop_
_geom_bond_atom_site_label_1
_geom_bond_atom_site_label_2
_geom_bond_distance
_geom_bond_site_symmetry_2
As0 Si4 2.342346 1_555
As0 Pr4 3.066860 1_555
As0 Pr4 3.101410 1_556
As0 Pr0 3.122068 1_455
As0 Pr0 3.180276 1_555
As1 Si5 2.342346 1_555
As1 Pr5 3.066860 1_554
As1 Pr5 3.101410 1_555
As1 Pr1 3.122068 1_655
As1 Pr1 3.180276 1_555
As2 Si6 2.342346 1_555
As2 Pr6 3.066860 1_554
As2 Pr6 3.101410 1_555
As2 Pr2 3.122068 1_555
As2 Pr2 3.180276 1_455
As3 Si7 2.342346 1_555
As3 Pr7 3.066860 1_555
As3 Pr7 3.101410 1_556
As3 Pr3 3.122068 1_555
As3 Pr3 3.180276 1_655
As4 Si0 2.336092 1_555
As4 Pr4 3.069294 1_655
As4 Pr0 3.073084 1_554
As4 Pr0 3.113659 1_555
As4 Pr4 3.124539 1_555
As5 Si1 2.336092 1_555
As5 Pr5 3.069294 1_455
As5 Pr1 3.073084 1_555
As5 Pr1 3.113659 1_556
As5 Pr5 3.124539 1_555
As6 Si2 2.336092 1_655
As6 Pr6 3.069294 1_555
As6 Pr2 3.073084 1_555
As6 Pr2 3.113659 1_556
As6 Pr6 3.124539 1_655
As7 Si3 2.336092 1_455
As7 Pr7 3.069294 1_555
As7 Pr3 3.073084 1_554
As7 Pr3 3.113659 1_555
As7 Pr7 3.124539 1_455
As8 Pr4 3.143826 1_655
As8 Pr5 3.259978 1_555
As8 Pr0 3.307752 1_555
As8 Pr1 3.367988 1_555
As9 Pr5 3.143826 1_455
As9 Pr4 3.259978 1_556
As9 Pr1 3.307752 1_556
As9 Pr0 3.367988 1_555
As10 As14 2.572597 1_566
As10 As15 2.591932 1_555
As10 Pr6 3.143826 1_555
As10 Pr7 3.259978 1_566
As10 Pr2 3.307752 1_556
As10 Pr3 3.367988 1_665
As11 As15 2.572597 1_545
As11 As14 2.591932 1_555
As11 Pr7 3.143826 1_555
As11 Pr6 3.259978 1_545
As11 Pr3 3.307752 1_555
As11 Pr2 3.367988 1_445
As12 As8 2.572597 1_455
As12 As9 2.591932 1_555
As12 Pr5 3.129260 1_455
As12 Pr4 3.299996 1_555
As12 Pr0 3.322356 1_555
As12 Pr1 3.337948 1_555
As13 As9 2.572597 1_654
As13 As8 2.591932 1_555
As13 Pr4 3.129260 1_655
As13 Pr5 3.299996 1_554
As13 Pr1 3.322356 1_555
As13 Pr0 3.337948 1_554
As14 Pr7 3.129260 1_555
As14 Pr6 3.299996 1_544
As14 Pr2 3.322356 1_445
As14 Pr3 3.337948 1_554
As15 Pr6 3.129260 1_555
As15 Pr7 3.299996 1_565
As15 Pr3 3.322356 1_665
As15 Pr2 3.337948 1_555
As16 Si0 2.356470 1_555
As16 Si4 2.382789 1_554
As16 Si3 2.390129 1_455
As16 Pr4 3.156600 1_555
As17 Si1 2.356470 1_555
As17 Si5 2.382789 1_555
As17 Si2 2.390129 1_655
As17 Pr5 3.156600 1_555
As18 Si2 2.356470 1_555
As18 Si6 2.382789 1_555
As18 Si1 2.390129 1_555
As18 Pr6 3.156600 1_555
As19 Si3 2.356470 1_555
As19 Si7 2.382789 1_554
As19 Si0 2.390129 1_555
As19 Pr7 3.156600 1_555
As20 Si4 2.355262 1_555
As20 Si0 2.381603 1_555
As20 Si7 2.403702 1_555
As20 Pr0 3.181434 1_555
As21 Si5 2.355262 1_555
As21 Si1 2.381603 1_554
As21 Si6 2.403702 1_555
As21 Pr1 3.181434 1_555
As22 Si6 2.355262 1_555
As22 Si2 2.381603 1_554
As22 Si5 2.403702 1_455
As22 Pr2 3.181434 1_455
As23 Si7 2.355262 1_555
As23 Si3 2.381603 1_555
As23 Si4 2.403702 1_655
As23 Pr3 3.181434 1_655
