# generated using pymatgen
data_Ti8Cu3Ni
_symmetry_space_group_name_H-M   'P 1'
_cell_length_a   2.94053347
_cell_length_b   2.94053347
_cell_length_c   20.84793083
_cell_angle_alpha   90.00000000
_cell_angle_beta   90.00000000
_cell_angle_gamma   90.00000000
_symmetry_Int_Tables_number   1
_chemical_formula_structural   Ti8Cu3Ni
_chemical_formula_sum   'Ti8 Cu3 Ni1'
_cell_volume   180.26657672
_cell_formula_units_Z   1
loop_
 _symmetry_equiv_pos_site_id
 _symmetry_equiv_pos_as_xyz
  1  'x, y, z'
loop_
 _atom_site_type_symbol
 _atom_site_label
 _atom_site_symmetry_multiplicity
 _atom_site_fract_x
 _atom_site_fract_y
 _atom_site_fract_z
 _atom_site_occupancy
  Ti  Ti0  1  0.50000000  0.50000000  0.07489446  1
  Ti  Ti1  1  -0.00000000  -0.00000000  0.32848624  1
  Ti  Ti2  1  0.50000000  0.50000000  0.58159574  1
  Ti  Ti3  1  0.00000000  -0.00000000  0.83548361  1
  Ti  Ti4  1  -0.00000000  0.00000000  0.16451639  1
  Ti  Ti5  1  0.50000000  0.50000000  0.41840426  1
  Ti  Ti6  1  0.00000000  0.00000000  0.67151376  1
  Ti  Ti7  1  0.50000000  0.50000000  0.92510554  1
  Cu  Cu0  1  0.50000000  0.50000000  0.24651084  1
  Cu  Cu1  1  -0.00000000  0.00000000  0.50000000  1
  Cu  Cu2  1  0.50000000  0.50000000  0.75348916  1
  Ni  Ni0  1  -0.00000000  0.00000000  0.00000000  1
loop_
_geom_bond_atom_site_label_1
_geom_bond_atom_site_label_2
_geom_bond_distance
_geom_bond_site_symmetry_2
Cu0 Ti1 2.691488 1_665
Cu0 Ti1 2.691488 1_555
Cu0 Ti1 2.691488 1_565
Cu0 Ti1 2.691488 1_655
Cu0 Ti4 2.691740 1_565
Cu0 Ti4 2.691740 1_655
Cu0 Ti4 2.691740 1_665
Cu0 Ti4 2.691740 1_555
Cu1 Ti5 2.686469 1_455
Cu1 Ti2 2.686469 1_455
Cu1 Ti2 2.686469 1_555
Cu1 Ti5 2.686469 1_555
Cu1 Ti2 2.686469 1_445
Cu1 Ti5 2.686469 1_545
Cu1 Ti2 2.686469 1_545
Cu1 Ti5 2.686469 1_445
Cu2 Ti6 2.691488 1_555
Cu2 Ti6 2.691488 1_655
Cu2 Ti6 2.691488 1_665
Cu2 Ti6 2.691488 1_565
Cu2 Ti3 2.691740 1_555
Cu2 Ti3 2.691740 1_655
Cu2 Ti3 2.691740 1_565
Cu2 Ti3 2.691740 1_665
Ni0 Ti0 2.600254 1_445
Ni0 Ti7 2.600254 1_554
Ni0 Ti0 2.600254 1_455
Ni0 Ti7 2.600254 1_444
Ni0 Ti0 2.600254 1_555
Ni0 Ti7 2.600254 1_544
Ni0 Ti0 2.600254 1_545
Ni0 Ti7 2.600254 1_454
