# generated using pymatgen
data_Eu
_symmetry_space_group_name_H-M   'P 1'
_cell_length_a   7.76386137
_cell_length_b   7.76386137
_cell_length_c   12.83894800
_cell_angle_alpha   90.00000000
_cell_angle_beta   90.00000000
_cell_angle_gamma   121.00332812
_symmetry_Int_Tables_number   1
_chemical_formula_structural   Eu
_chemical_formula_sum   Eu16
_cell_volume   663.33883043
_cell_formula_units_Z   16
loop_
 _symmetry_equiv_pos_site_id
 _symmetry_equiv_pos_as_xyz
  1  'x, y, z'
loop_
 _atom_site_type_symbol
 _atom_site_label
 _atom_site_symmetry_multiplicity
 _atom_site_fract_x
 _atom_site_fract_y
 _atom_site_fract_z
 _atom_site_occupancy
  Eu  Eu0_0  1  0.42478500  0.07521500  0.37500000  1
  Eu  Eu0_1  1  0.42478500  0.07521500  0.87500000  1
  Eu  Eu0_2  1  0.42478500  0.57521500  0.37500000  1
  Eu  Eu0_3  1  0.42478500  0.57521500  0.87500000  1
  Eu  Eu0_4  1  0.92478500  0.07521500  0.37500000  1
  Eu  Eu0_5  1  0.92478500  0.07521500  0.87500000  1
  Eu  Eu0_6  1  0.92478500  0.57521500  0.37500000  1
  Eu  Eu0_7  1  0.92478500  0.57521500  0.87500000  1
  Eu  Eu1_0  1  0.07521500  0.42478500  0.12500000  1
  Eu  Eu1_1  1  0.07521500  0.42478500  0.62500000  1
  Eu  Eu1_2  1  0.07521500  0.92478500  0.12500000  1
  Eu  Eu1_3  1  0.07521500  0.92478500  0.62500000  1
  Eu  Eu1_4  1  0.57521500  0.42478500  0.12500000  1
  Eu  Eu1_5  1  0.57521500  0.42478500  0.62500000  1
  Eu  Eu1_6  1  0.57521500  0.92478500  0.12500000  1
  Eu  Eu1_7  1  0.57521500  0.92478500  0.62500000  1
loop_
_geom_bond_atom_site_label_1
_geom_bond_atom_site_label_2
_geom_bond_distance
_geom_bond_site_symmetry_2
Eu0_0 Eu1_7 3.799430 1_545
Eu0_0 Eu1_6 3.799430 1_545
Eu0_0 Eu0_6 3.822912 1_555
Eu0_0 Eu0_6 3.822912 1_445
Eu0_0 Eu0_2 3.881931 1_555
Eu0_0 Eu0_4 3.881931 1_555
Eu0_0 Eu0_4 3.881931 1_455
Eu0_0 Eu0_2 3.881931 1_545
Eu0_0 Eu1_2 3.970758 1_545
Eu0_0 Eu1_3 3.970758 1_545
Eu0_0 Eu1_4 3.970758 1_555
Eu0_0 Eu1_5 3.970758 1_555
Eu0_1 Eu1_7 3.799430 1_545
Eu0_1 Eu1_6 3.799430 1_546
Eu0_1 Eu0_7 3.822912 1_445
Eu0_1 Eu0_7 3.822912 1_555
Eu0_1 Eu0_3 3.881931 1_555
Eu0_1 Eu0_5 3.881931 1_555
Eu0_1 Eu0_5 3.881931 1_455
Eu0_1 Eu0_3 3.881931 1_545
Eu0_1 Eu1_3 3.970758 1_545
Eu0_1 Eu1_2 3.970758 1_546
Eu0_1 Eu1_4 3.970758 1_556
Eu0_1 Eu1_5 3.970758 1_555
Eu0_2 Eu1_4 3.799430 1_555
Eu0_2 Eu1_5 3.799430 1_555
Eu0_2 Eu0_4 3.822912 1_565
Eu0_2 Eu0_4 3.822912 1_455
Eu0_2 Eu0_6 3.881931 1_555
Eu0_2 Eu0_6 3.881931 1_455
Eu0_2 Eu1_6 3.970758 1_555
Eu0_2 Eu1_7 3.970758 1_555
Eu0_2 Eu1_0 3.970758 1_555
Eu0_2 Eu1_1 3.970758 1_555
Eu0_3 Eu1_4 3.799430 1_556
Eu0_3 Eu1_5 3.799430 1_555
Eu0_3 Eu0_5 3.822912 1_565
Eu0_3 Eu0_5 3.822912 1_455
Eu0_3 Eu0_7 3.881931 1_555
Eu0_3 Eu0_7 3.881931 1_455
Eu0_3 Eu1_6 3.970758 1_556
Eu0_3 Eu1_7 3.970758 1_555
Eu0_3 Eu1_0 3.970758 1_556
Eu0_3 Eu1_1 3.970758 1_555
Eu0_4 Eu1_2 3.799430 1_645
Eu0_4 Eu1_3 3.799430 1_645
Eu0_4 Eu0_6 3.881931 1_555
Eu0_4 Eu0_6 3.881931 1_545
Eu0_4 Eu1_6 3.970758 1_545
Eu0_4 Eu1_7 3.970758 1_545
Eu0_4 Eu1_0 3.970758 1_655
Eu0_4 Eu1_1 3.970758 1_655
Eu0_5 Eu1_2 3.799430 1_646
Eu0_5 Eu1_3 3.799430 1_645
Eu0_5 Eu0_7 3.881931 1_555
Eu0_5 Eu0_7 3.881931 1_545
Eu0_5 Eu1_6 3.970758 1_546
Eu0_5 Eu1_7 3.970758 1_545
Eu0_5 Eu1_0 3.970758 1_656
Eu0_5 Eu1_1 3.970758 1_655
Eu0_6 Eu1_1 3.799430 1_655
Eu0_6 Eu1_0 3.799430 1_655
Eu0_6 Eu1_4 3.970758 1_555
Eu0_6 Eu1_5 3.970758 1_555
Eu0_6 Eu1_2 3.970758 1_655
Eu0_6 Eu1_3 3.970758 1_655
Eu0_7 Eu1_0 3.799430 1_656
Eu0_7 Eu1_1 3.799430 1_655
Eu0_7 Eu1_4 3.970758 1_556
Eu0_7 Eu1_5 3.970758 1_555
Eu0_7 Eu1_3 3.970758 1_655
Eu0_7 Eu1_2 3.970758 1_656
Eu1_0 Eu1_6 3.822912 1_555
Eu1_0 Eu1_6 3.822912 1_445
Eu1_0 Eu1_2 3.881931 1_555
Eu1_0 Eu1_4 3.881931 1_455
Eu1_0 Eu1_4 3.881931 1_555
Eu1_0 Eu1_2 3.881931 1_545
Eu1_1 Eu1_7 3.822912 1_555
Eu1_1 Eu1_7 3.822912 1_445
Eu1_1 Eu1_3 3.881931 1_555
Eu1_1 Eu1_5 3.881931 1_455
Eu1_1 Eu1_5 3.881931 1_555
Eu1_1 Eu1_3 3.881931 1_545
Eu1_2 Eu1_4 3.822912 1_565
Eu1_2 Eu1_4 3.822912 1_455
Eu1_2 Eu1_6 3.881931 1_555
Eu1_2 Eu1_6 3.881931 1_455
Eu1_3 Eu1_5 3.822912 1_565
Eu1_3 Eu1_5 3.822912 1_455
Eu1_3 Eu1_7 3.881931 1_555
Eu1_3 Eu1_7 3.881931 1_455
Eu1_4 Eu1_6 3.881931 1_555
Eu1_4 Eu1_6 3.881931 1_545
Eu1_5 Eu1_7 3.881931 1_555
Eu1_5 Eu1_7 3.881931 1_545
