# generated using pymatgen
data_CaCoP2O7
_symmetry_space_group_name_H-M   'P 1'
_cell_length_a   6.35010079
_cell_length_b   6.58636924
_cell_length_c   7.01151553
_cell_angle_alpha   83.79806491
_cell_angle_beta   90.18376196
_cell_angle_gamma   67.82028957
_symmetry_Int_Tables_number   1
_chemical_formula_structural   CaCoP2O7
_chemical_formula_sum   'Ca2 Co2 P4 O14'
_cell_volume   269.65341817
_cell_formula_units_Z   2
loop_
 _symmetry_equiv_pos_site_id
 _symmetry_equiv_pos_as_xyz
  1  'x, y, z'
loop_
 _atom_site_type_symbol
 _atom_site_label
 _atom_site_symmetry_multiplicity
 _atom_site_fract_x
 _atom_site_fract_y
 _atom_site_fract_z
 _atom_site_occupancy
  Ca  Ca0  1  0.29629700  0.73407600  0.61787400  1
  Ca  Ca1  1  0.70370700  0.26592200  0.38212800  1
  Co  Co0  1  0.24370900  0.13384100  0.19433100  1
  Co  Co1  1  0.75628800  0.86616000  0.80566700  1
  P  P0  1  0.16386200  0.65943200  0.12277700  1
  P  P1  1  0.83614100  0.34057000  0.87722000  1
  P  P2  1  0.24531600  0.22229400  0.63040500  1
  P  P3  1  0.75468300  0.77770600  0.36959700  1
  O  O0  1  0.08460300  0.75216000  0.91149200  1
  O  O1  1  0.91539200  0.24784600  0.08850800  1
  O  O2  1  0.23924600  0.81035700  0.23142600  1
  O  O3  1  0.76075600  0.18964100  0.76857700  1
  O  O4  1  0.32829500  0.41709000  0.14393600  1
  O  O5  1  0.67170400  0.58291100  0.85606000  1
  O  O6  1  0.64790400  0.61765100  0.44817200  1
  O  O7  1  0.35209500  0.38234900  0.55182900  1
  O  O8  1  0.11837700  0.15564700  0.47424600  1
  O  O9  1  0.88162400  0.84435000  0.52575300  1
  O  O10  1  0.06684800  0.35020900  0.77848000  1
  O  O11  1  0.58671200  0.99388800  0.25865900  1
  O  O12  1  0.41328900  0.00611000  0.74134200  1
  O  O13  1  0.93315400  0.64978900  0.22152100  1
loop_
_geom_bond_atom_site_label_1
_geom_bond_atom_site_label_2
_geom_bond_distance
_geom_bond_site_symmetry_2
Ca0 O7 2.306455 1_555
Ca0 O12 2.418184 1_565
Ca0 O6 2.431136 1_555
Ca0 O0 2.451405 1_555
Ca0 O9 2.514412 1_455
Ca0 O8 2.649572 1_565
Ca0 O5 2.699325 1_555
Ca0 O2 2.699567 1_555
Ca1 O6 2.306458 1_555
Ca1 O11 2.418198 1_545
Ca1 O7 2.431158 1_555
Ca1 O1 2.451390 1_555
Ca1 O8 2.514388 1_655
Ca1 O9 2.649572 1_545
Ca1 O4 2.699372 1_555
Ca1 O3 2.699573 1_555
Co0 O1 2.036828 1_455
Co0 O11 2.045782 1_545
Co0 O8 2.119096 1_555
Co0 O4 2.123471 1_555
Co0 O2 2.129260 1_545
Co1 O0 2.036823 1_655
Co1 O12 2.045756 1_565
Co1 O9 2.119099 1_555
Co1 O5 2.123462 1_555
Co1 O3 2.129252 1_565
O0 P0 1.545506 1_556
O1 P1 1.545512 1_554
O2 P0 1.522553 1_555
O3 P1 1.522554 1_555
O4 P0 1.532801 1_555
O5 P1 1.532803 1_555
O6 P3 1.513665 1_555
O7 P2 1.513667 1_555
O8 P2 1.551327 1_555
O9 P3 1.551309 1_555
O10 P2 1.596156 1_555
O10 P1 1.642202 1_455
O11 P3 1.542337 1_555
O12 P2 1.542347 1_555
O13 P3 1.596175 1_555
O13 P0 1.642228 1_655
