# generated using pymatgen
data_LiCr4GaS8
_symmetry_space_group_name_H-M   'P 1'
_cell_length_a   7.13412618
_cell_length_b   7.13412618
_cell_length_c   7.13412618
_cell_angle_alpha   60.00000000
_cell_angle_beta   60.00000000
_cell_angle_gamma   60.00000000
_symmetry_Int_Tables_number   1
_chemical_formula_structural   LiCr4GaS8
_chemical_formula_sum   'Li1 Cr4 Ga1 S8'
_cell_volume   256.74817267
_cell_formula_units_Z   1
loop_
 _symmetry_equiv_pos_site_id
 _symmetry_equiv_pos_as_xyz
  1  'x, y, z'
loop_
 _atom_site_type_symbol
 _atom_site_label
 _atom_site_symmetry_multiplicity
 _atom_site_fract_x
 _atom_site_fract_y
 _atom_site_fract_z
 _atom_site_occupancy
  Li  Li0  1  0.00000000  0.00000000  0.00000000  1
  Cr  Cr0  1  0.37088900  0.37088900  0.37088900  1
  Cr  Cr1  1  0.37088900  0.37088900  0.88733300  1
  Cr  Cr2  1  0.37088900  0.88733300  0.37088900  1
  Cr  Cr3  1  0.88733300  0.37088900  0.37088900  1
  Ga  Ga0  1  0.75000000  0.75000000  0.75000000  1
  S  S0  1  0.13704400  0.13704400  0.13704400  1
  S  S1  1  0.13704400  0.13704400  0.58886700  1
  S  S2  1  0.13704400  0.58886700  0.13704400  1
  S  S3  1  0.58886700  0.13704400  0.13704400  1
  S  S4  1  0.61519100  0.61519100  0.61519100  1
  S  S5  1  0.61519100  0.61519100  0.15442800  1
  S  S6  1  0.61519100  0.15442800  0.61519100  1
  S  S7  1  0.15442800  0.61519100  0.61519100  1
loop_
_geom_bond_atom_site_label_1
_geom_bond_atom_site_label_2
_geom_bond_distance
_geom_bond_site_symmetry_2
Li0 S0 2.394840 1_555
Li0 S1 2.394845 1_554
Li0 S2 2.394845 1_545
Li0 S3 2.394845 1_455
Cr0 S3 2.362018 1_555
Cr0 S1 2.362018 1_555
Cr0 S2 2.362018 1_555
Cr0 S7 2.472796 1_555
Cr0 S5 2.472796 1_555
Cr0 S6 2.472796 1_555
Cr1 S3 2.362013 1_556
Cr1 S2 2.362013 1_556
Cr1 S0 2.362017 1_556
Cr1 S7 2.472791 1_555
Cr1 S6 2.472791 1_555
Cr1 S4 2.472796 1_555
Cr2 S3 2.362013 1_565
Cr2 S1 2.362013 1_565
Cr2 S0 2.362017 1_565
Cr2 S5 2.472791 1_555
Cr2 S7 2.472791 1_555
Cr2 S4 2.472796 1_555
Cr3 S2 2.362013 1_655
Cr3 S1 2.362013 1_655
Cr3 S0 2.362017 1_655
Cr3 S5 2.472791 1_555
Cr3 S6 2.472791 1_555
Cr3 S4 2.472796 1_555
Ga0 S4 2.355783 1_555
Ga0 S5 2.355789 1_556
Ga0 S7 2.355789 1_655
Ga0 S6 2.355789 1_565
