# generated using pymatgen
data_V3O7
_symmetry_space_group_name_H-M   'P 1'
_cell_length_a   5.37770500
_cell_length_b   10.51107200
_cell_length_c   10.76016700
_cell_angle_alpha   90.00000000
_cell_angle_beta   90.00000000
_cell_angle_gamma   90.00000000
_symmetry_Int_Tables_number   1
_chemical_formula_structural   V3O7
_chemical_formula_sum   'V12 O28'
_cell_volume   608.22322203
_cell_formula_units_Z   4
loop_
 _symmetry_equiv_pos_site_id
 _symmetry_equiv_pos_as_xyz
  1  'x, y, z'
loop_
 _atom_site_type_symbol
 _atom_site_label
 _atom_site_symmetry_multiplicity
 _atom_site_fract_x
 _atom_site_fract_y
 _atom_site_fract_z
 _atom_site_occupancy
  V  V0  1  0.70437400  0.70010500  0.97147600  1
  V  V1  1  0.20437400  0.79989500  0.02852400  1
  V  V2  1  0.29562600  0.29989500  0.47147600  1
  V  V3  1  0.79562600  0.20010500  0.52852400  1
  V  V4  1  0.69952700  0.78203500  0.25000000  1
  V  V5  1  0.19952700  0.71796500  0.75000000  1
  V  V6  1  0.30047300  0.21796500  0.75000000  1
  V  V7  1  0.80047300  0.28203500  0.25000000  1
  V  V8  1  0.20437400  0.79989500  0.47147600  1
  V  V9  1  0.70437400  0.70010500  0.52852400  1
  V  V10  1  0.79562600  0.20010500  0.97147600  1
  V  V11  1  0.29562600  0.29989500  0.02852400  1
  O  O0  1  0.06665200  0.26998100  0.88732800  1
  O  O1  1  0.56665200  0.23001900  0.11267200  1
  O  O2  1  0.93334800  0.73001900  0.38732800  1
  O  O3  1  0.43334800  0.76998100  0.61267200  1
  O  O4  1  0.93334800  0.73001900  0.11267200  1
  O  O5  1  0.43334800  0.76998100  0.88732800  1
  O  O6  1  0.06665200  0.26998100  0.61267200  1
  O  O7  1  0.56665200  0.23001900  0.38732800  1
  O  O8  1  0.52956400  0.27473500  0.88748600  1
  O  O9  1  0.02956400  0.22526500  0.11251400  1
  O  O10  1  0.47043600  0.72526500  0.38748600  1
  O  O11  1  0.97043600  0.77473500  0.61251400  1
  O  O12  1  0.47043600  0.72526500  0.11251400  1
  O  O13  1  0.97043600  0.77473500  0.88748600  1
  O  O14  1  0.52956400  0.27473500  0.61251400  1
  O  O15  1  0.02956400  0.22526500  0.38748600  1
  O  O16  1  0.80686800  0.43505300  0.25000000  1
  O  O17  1  0.30686800  0.06494700  0.75000000  1
  O  O18  1  0.19313200  0.56494700  0.75000000  1
  O  O19  1  0.69313200  0.93505300  0.25000000  1
  O  O20  1  0.78535300  0.05221800  0.56468800  1
  O  O21  1  0.28535300  0.44778200  0.43531200  1
  O  O22  1  0.21464700  0.94778200  0.06468800  1
  O  O23  1  0.71464700  0.55221800  0.93531200  1
  O  O24  1  0.21464700  0.94778200  0.43531200  1
  O  O25  1  0.71464700  0.55221800  0.56468800  1
  O  O26  1  0.78535300  0.05221800  0.93531200  1
  O  O27  1  0.28535300  0.44778200  0.06468800  1
loop_
_geom_bond_atom_site_label_1
_geom_bond_atom_site_label_2
_geom_bond_distance
_geom_bond_site_symmetry_2
O0 V10 1.866436 1_455
O0 V11 1.980745 1_556
O0 V6 2.015825 1_555
O1 V11 1.866436 1_555
O1 V10 1.980745 1_554
O1 V7 2.015825 1_555
O2 V8 1.866436 1_655
O2 V9 1.980745 1_555
O2 V4 2.015825 1_555
O3 V9 1.866436 1_555
O3 V8 1.980745 1_555
O3 V5 2.015825 1_555
O4 V1 1.866436 1_655
O4 V0 1.980745 1_554
O4 V4 2.015825 1_555
O5 V0 1.866436 1_555
O5 V1 1.980745 1_556
O5 V5 2.015825 1_555
O6 V3 1.866436 1_455
O6 V2 1.980745 1_555
O6 V6 2.015825 1_555
O7 V2 1.866436 1_555
O7 V3 1.980745 1_555
O7 V7 2.015825 1_555
O8 V10 1.865289 1_555
O8 V11 1.988898 1_556
O8 V6 2.015538 1_555
O9 V11 1.865289 1_555
O9 V10 1.988898 1_454
O9 V7 2.015538 1_455
O10 V8 1.865289 1_555
O10 V9 1.988898 1_555
O10 V4 2.015538 1_555
O11 V9 1.865289 1_555
O11 V8 1.988898 1_655
O11 V5 2.015538 1_655
O12 V1 1.865289 1_555
O12 V0 1.988898 1_554
O12 V4 2.015538 1_555
O13 V0 1.865289 1_555
O13 V1 1.988898 1_656
O13 V5 2.015538 1_655
O14 V3 1.865289 1_555
O14 V2 1.988898 1_555
O14 V6 2.015538 1_555
O15 V2 1.865289 1_555
O15 V3 1.988898 1_455
O15 V7 2.015538 1_455
O16 V7 1.608751 1_555
O17 V6 1.608751 1_555
O18 V5 1.608751 1_555
O19 V4 1.608751 1_555
O20 V3 1.603369 1_555
O21 V2 1.603369 1_555
O22 V1 1.603369 1_555
O23 V0 1.603369 1_555
O24 V8 1.603369 1_555
O25 V9 1.603369 1_555
O26 V10 1.603369 1_555
O27 V11 1.603369 1_555
