# generated using pymatgen
data_Ba6Ca6Mg(CO3)13
_symmetry_space_group_name_H-M   'P 1'
_cell_length_a   11.09525991
_cell_length_b   11.09525991
_cell_length_c   11.09525972
_cell_angle_alpha   113.28085213
_cell_angle_beta   113.28085213
_cell_angle_gamma   113.28084957
_symmetry_Int_Tables_number   1
_chemical_formula_structural   Ba6Ca6Mg(CO3)13
_chemical_formula_sum   'Ba6 Ca6 Mg1 C13 O39'
_cell_volume   872.32172160
_cell_formula_units_Z   1
loop_
 _symmetry_equiv_pos_site_id
 _symmetry_equiv_pos_as_xyz
  1  'x, y, z'
loop_
 _atom_site_type_symbol
 _atom_site_label
 _atom_site_symmetry_multiplicity
 _atom_site_fract_x
 _atom_site_fract_y
 _atom_site_fract_z
 _atom_site_occupancy
  Ba  Ba0  1  0.87383100  0.57501900  0.64520900  1
  Ba  Ba1  1  0.64520900  0.87383100  0.57501900  1
  Ba  Ba2  1  0.57501900  0.64520900  0.87383100  1
  Ba  Ba3  1  0.11497700  0.42096800  0.34895500  1
  Ba  Ba4  1  0.34895500  0.11497700  0.42096800  1
  Ba  Ba5  1  0.42096800  0.34895500  0.11497700  1
  Ca  Ca0  1  0.06197300  0.22196000  0.64364400  1
  Ca  Ca1  1  0.64364400  0.06197300  0.22196000  1
  Ca  Ca2  1  0.22196000  0.64364400  0.06197300  1
  Ca  Ca3  1  0.93710300  0.77743900  0.35629400  1
  Ca  Ca4  1  0.35629400  0.93710300  0.77743900  1
  Ca  Ca5  1  0.77743900  0.35629400  0.93710300  1
  Mg  Mg0  1  0.00009000  0.00009000  0.00009000  1
  C  C0  1  0.29436900  0.83164200  0.45508200  1
  C  C1  1  0.45508200  0.29436900  0.83164200  1
  C  C2  1  0.83164200  0.45508200  0.29436900  1
  C  C3  1  0.70510900  0.16811200  0.54444400  1
  C  C4  1  0.54444400  0.70510900  0.16811200  1
  C  C5  1  0.16811200  0.54444400  0.70510900  1
  C  C6  1  0.98914100  0.91253200  0.67949900  1
  C  C7  1  0.67949900  0.98914100  0.91253200  1
  C  C8  1  0.91253200  0.67949900  0.98914100  1
  C  C9  1  0.01184300  0.08866300  0.32160100  1
  C  C10  1  0.32160100  0.01184300  0.08866300  1
  C  C11  1  0.08866300  0.32160100  0.01184300  1
  C  C12  1  0.52514900  0.52514900  0.52514900  1
  O  O0  1  0.34116700  0.77475800  0.52960400  1
  O  O1  1  0.52960400  0.34116700  0.77475800  1
  O  O2  1  0.77475800  0.52960400  0.34116700  1
  O  O3  1  0.65761500  0.22476400  0.46902300  1
  O  O4  1  0.46902300  0.65761500  0.22476400  1
  O  O5  1  0.22476400  0.46902300  0.65761500  1
  O  O6  1  0.31254800  0.82357300  0.34481500  1
  O  O7  1  0.34481500  0.31254800  0.82357300  1
  O  O8  1  0.82357300  0.34481500  0.31254800  1
  O  O9  1  0.68705300  0.17592700  0.65451200  1
  O  O10  1  0.65451200  0.68705300  0.17592700  1
  O  O11  1  0.17592700  0.65451200  0.68705300  1
  O  O12  1  0.23714900  0.90700600  0.50263800  1
  O  O13  1  0.50263800  0.23714900  0.90700600  1
  O  O14  1  0.90700600  0.50263800  0.23714900  1
  O  O15  1  0.76259700  0.09326600  0.49701000  1
  O  O16  1  0.49701000  0.76259700  0.09326600  1
  O  O17  1  0.09326600  0.49701000  0.76259700  1
  O  O18  1  0.09412800  0.88510100  0.69029700  1
  O  O19  1  0.69029700  0.09412800  0.88510100  1
  O  O20  1  0.88510100  0.69029700  0.09412800  1
  O  O21  1  0.90553300  0.11423400  0.30901500  1
  O  O22  1  0.30901500  0.90553300  0.11423400  1
  O  O23  1  0.11423400  0.30901500  0.90553300  1
  O  O24  1  0.93154200  0.94477600  0.57938700  1
  O  O25  1  0.57938700  0.93154200  0.94477600  1
  O  O26  1  0.94477600  0.57938700  0.93154200  1
  O  O27  1  0.06854200  0.05534700  0.42083100  1
  O  O28  1  0.42083100  0.06854200  0.05534700  1
  O  O29  1  0.05534700  0.42083100  0.06854200  1
  O  O30  1  0.93032200  0.89706900  0.75807900  1
  O  O31  1  0.75807900  0.93032200  0.89706900  1
  O  O32  1  0.89706900  0.75807900  0.93032200  1
  O  O33  1  0.07462800  0.10848300  0.24670300  1
  O  O34  1  0.24670300  0.07462800  0.10848300  1
  O  O35  1  0.10848300  0.24670300  0.07462800  1
  O  O36  1  0.58264200  0.55148000  0.44898500  1
  O  O37  1  0.44898500  0.58264200  0.55148000  1
  O  O38  1  0.55148000  0.44898500  0.58264200  1
loop_
_geom_bond_atom_site_label_1
_geom_bond_atom_site_label_2
_geom_bond_distance
_geom_bond_site_symmetry_2
Ba0 O3 2.756297 1_555
Ba0 O32 2.839244 1_555
Ba0 O2 2.851220 1_555
Ba0 O11 2.887485 1_655
Ba0 O17 2.902319 1_655
Ba0 O38 2.923309 1_555
Ba0 O36 2.927408 1_555
Ba0 O26 2.930232 1_555
Ba0 O30 2.966652 1_555
Ba0 O18 3.014435 1_655
Ba0 O8 3.202036 1_555
Ba1 O4 2.756297 1_555
Ba1 O30 2.839244 1_555
Ba1 O0 2.851220 1_555
Ba1 O9 2.887485 1_565
Ba1 O15 2.902319 1_565
Ba1 O36 2.923309 1_555
Ba1 O37 2.927408 1_555
Ba1 O24 2.930232 1_555
Ba1 O31 2.966652 1_555
Ba1 O19 3.014435 1_565
Ba1 O6 3.202036 1_555
Ba2 O5 2.756297 1_555
Ba2 O31 2.839244 1_555
Ba2 O1 2.851220 1_555
Ba2 O10 2.887485 1_556
Ba2 O16 2.902319 1_556
Ba2 O37 2.923309 1_555
Ba2 O38 2.927407 1_555
Ba2 O25 2.930232 1_555
Ba2 O32 2.966652 1_555
Ba2 O20 3.014435 1_556
Ba2 O7 3.202036 1_555
Ba3 O37 2.641411 1_555
Ba3 O0 2.782365 1_555
Ba3 O8 2.805180 1_455
Ba3 O14 2.821912 1_455
Ba3 O35 2.841205 1_555
Ba3 O5 2.870895 1_555
Ba3 O29 2.913067 1_555
Ba3 O33 2.961517 1_555
Ba3 O21 2.986832 1_455
Ba3 O11 3.188991 1_555
Ba4 O38 2.641411 1_555
Ba4 O1 2.782365 1_555
Ba4 O6 2.805180 1_545
Ba4 O12 2.821912 1_545
Ba4 O33 2.841205 1_555
Ba4 O3 2.870895 1_555
Ba4 O27 2.913067 1_555
Ba4 O34 2.961517 1_555
Ba4 O22 2.986832 1_545
Ba4 O9 3.188991 1_555
Ba5 O36 2.641411 1_555
Ba5 O2 2.782365 1_555
Ba5 O7 2.805180 1_554
Ba5 O13 2.821912 1_554
Ba5 O34 2.841205 1_555
Ba5 O4 2.870895 1_555
Ba5 O28 2.913067 1_555
Ba5 O35 2.961517 1_555
Ba5 O23 2.986832 1_554
Ba5 O10 3.188991 1_555
Ca0 O23 2.391498 1_555
Ca0 O7 2.410857 1_555
Ca0 O15 2.421115 1_455
Ca0 O24 2.448246 1_445
Ca0 O27 2.484088 1_555
Ca0 O5 2.515890 1_555
Ca0 O17 2.606147 1_555
Ca0 O21 2.825634 1_455
Ca1 O21 2.391498 1_555
Ca1 O8 2.410857 1_555
Ca1 O16 2.421115 1_545
Ca1 O25 2.448246 1_544
Ca1 O28 2.484088 1_555
Ca1 O3 2.515890 1_555
Ca1 O15 2.606147 1_555
Ca1 O22 2.825634 1_545
Ca2 O22 2.391498 1_555
Ca2 O6 2.410857 1_555
Ca2 O17 2.421114 1_554
Ca2 O26 2.448246 1_454
Ca2 O29 2.484088 1_555
Ca2 O4 2.515890 1_555
Ca2 O16 2.606147 1_555
Ca2 O23 2.825634 1_554
Ca3 O20 2.395425 1_555
Ca3 O10 2.410288 1_555
Ca3 O12 2.425852 1_655
Ca3 O27 2.453953 1_665
Ca3 O24 2.481211 1_555
Ca3 O2 2.512960 1_555
Ca3 O14 2.610652 1_555
Ca3 O18 2.819142 1_655
Ca4 O18 2.395425 1_555
Ca4 O11 2.410288 1_555
Ca4 O13 2.425852 1_565
Ca4 O28 2.453953 1_566
Ca4 O25 2.481211 1_555
Ca4 O0 2.512960 1_555
Ca4 O12 2.610652 1_555
Ca4 O19 2.819142 1_565
Ca5 O19 2.395425 1_555
Ca5 O9 2.410288 1_555
Ca5 O14 2.425852 1_556
Ca5 O29 2.453953 1_656
Ca5 O26 2.481211 1_555
Ca5 O1 2.512960 1_555
Ca5 O13 2.610652 1_555
Ca5 O20 2.819142 1_556
Mg0 O30 2.085005 1_444
Mg0 O31 2.085005 1_444
Mg0 O32 2.085005 1_444
Mg0 O33 2.107382 1_555
Mg0 O34 2.107382 1_555
Mg0 O35 2.107382 1_555
C0 O6 1.291613 1_555
C0 O0 1.297615 1_555
C0 O12 1.310094 1_555
C1 O7 1.291613 1_555
C1 O1 1.297615 1_555
C1 O13 1.310094 1_555
C2 O8 1.291613 1_555
C2 O2 1.297615 1_555
C2 O14 1.310094 1_555
C3 O9 1.289374 1_555
C3 O3 1.304640 1_555
C3 O15 1.308448 1_555
C4 O10 1.289374 1_555
C4 O4 1.304641 1_555
C4 O16 1.308448 1_555
C5 O11 1.289374 1_555
C5 O5 1.304640 1_555
C5 O17 1.308448 1_555
C6 O18 1.289431 1_655
C6 O30 1.301920 1_555
C6 O24 1.305348 1_555
C7 O19 1.289431 1_565
C7 O31 1.301920 1_555
C7 O25 1.305348 1_555
C8 O20 1.289431 1_556
C8 O32 1.301920 1_555
C8 O26 1.305348 1_555
C9 O21 1.287227 1_455
C9 O27 1.304832 1_555
C9 O33 1.305826 1_555
C10 O22 1.287227 1_545
C10 O28 1.304832 1_555
C10 O34 1.305826 1_555
C11 O23 1.287227 1_554
C11 O29 1.304832 1_555
C11 O35 1.305826 1_555
C12 O37 1.296283 1_555
C12 O38 1.296283 1_555
C12 O36 1.296283 1_555
