# generated using pymatgen
data_YAgO3
_symmetry_space_group_name_H-M   'P 1'
_cell_length_a   5.49373900
_cell_length_b   6.02797200
_cell_length_c   7.93753600
_cell_angle_alpha   90.00000000
_cell_angle_beta   90.00000000
_cell_angle_gamma   90.00000000
_symmetry_Int_Tables_number   1
_chemical_formula_structural   YAgO3
_chemical_formula_sum   'Y4 Ag4 O12'
_cell_volume   262.86027456
_cell_formula_units_Z   4
loop_
 _symmetry_equiv_pos_site_id
 _symmetry_equiv_pos_as_xyz
  1  'x, y, z'
loop_
 _atom_site_type_symbol
 _atom_site_label
 _atom_site_symmetry_multiplicity
 _atom_site_fract_x
 _atom_site_fract_y
 _atom_site_fract_z
 _atom_site_occupancy
  Y  Y0  1  0.03118700  0.91445900  0.75000000  1
  Y  Y1  1  0.53118700  0.58554100  0.25000000  1
  Y  Y2  1  0.46881300  0.41445900  0.75000000  1
  Y  Y3  1  0.96881300  0.08554100  0.25000000  1
  Ag  Ag0  1  0.00000000  0.50000000  0.50000000  1
  Ag  Ag1  1  0.50000000  0.00000000  0.50000000  1
  Ag  Ag2  1  0.50000000  0.00000000  0.00000000  1
  Ag  Ag3  1  0.00000000  0.50000000  0.00000000  1
  O  O0  1  0.69640100  0.31978200  0.42773800  1
  O  O1  1  0.19640100  0.18021800  0.57226200  1
  O  O2  1  0.80359900  0.81978200  0.07226200  1
  O  O3  1  0.30359900  0.68021800  0.92773800  1
  O  O4  1  0.30359900  0.68021800  0.57226200  1
  O  O5  1  0.80359900  0.81978200  0.42773800  1
  O  O6  1  0.19640100  0.18021800  0.92773800  1
  O  O7  1  0.69640100  0.31978200  0.07226200  1
  O  O8  1  0.14866200  0.43622400  0.25000000  1
  O  O9  1  0.64866200  0.06377600  0.75000000  1
  O  O10  1  0.35133800  0.93622400  0.25000000  1
  O  O11  1  0.85133800  0.56377600  0.75000000  1
loop_
_geom_bond_atom_site_label_1
_geom_bond_atom_site_label_2
_geom_bond_distance
_geom_bond_site_symmetry_2
Ag0 O0 2.071478 1_455
Ag0 O4 2.071478 1_555
Ag0 O11 2.180043 1_455
Ag0 O8 2.180043 1_555
Ag0 O1 2.282317 1_555
Ag0 O5 2.282317 1_455
Ag1 O5 2.071478 1_545
Ag1 O1 2.071478 1_555
Ag1 O10 2.180043 1_545
Ag1 O9 2.180043 1_555
Ag1 O4 2.282317 1_545
Ag1 O0 2.282317 1_555
Ag2 O2 2.071478 1_545
Ag2 O6 2.071478 1_554
Ag2 O9 2.180043 1_554
Ag2 O10 2.180043 1_545
Ag2 O3 2.282317 1_544
Ag2 O7 2.282317 1_555
Ag3 O7 2.071478 1_455
Ag3 O3 2.071478 1_554
Ag3 O11 2.180043 1_454
Ag3 O8 2.180043 1_555
Ag3 O6 2.282317 1_554
Ag3 O2 2.282317 1_455
O0 Y1 2.319599 1_555
O0 Y3 2.494753 1_555
O0 Y2 2.903821 1_555
O1 Y0 2.319599 1_545
O1 Y2 2.494753 1_555
O1 Y3 2.903821 1_455
O2 Y3 2.319599 1_565
O2 Y1 2.494753 1_555
O2 Y0 2.903821 1_654
O3 Y2 2.319599 1_555
O3 Y0 2.494753 1_555
O3 Y1 2.903821 1_556
O4 Y2 2.319599 1_555
O4 Y0 2.494753 1_555
O4 Y1 2.903821 1_555
O5 Y3 2.319599 1_565
O5 Y1 2.494753 1_555
O5 Y0 2.903821 1_655
O6 Y0 2.319599 1_545
O6 Y2 2.494753 1_555
O6 Y3 2.903821 1_456
O7 Y1 2.319599 1_555
O7 Y3 2.494753 1_555
O7 Y2 2.903821 1_554
O8 Y1 2.286135 1_555
O8 Y3 2.333417 1_455
O9 Y0 2.286135 1_645
O9 Y2 2.333417 1_555
O10 Y3 2.286135 1_465
O10 Y1 2.333417 1_555
O11 Y2 2.286135 1_555
O11 Y0 2.333417 1_655
