# generated using pymatgen
data_Rb4MgV4Cu2(PO6)4
_symmetry_space_group_name_H-M   'P 1'
_cell_length_a   5.34982100
_cell_length_b   9.79326864
_cell_length_c   11.39751392
_cell_angle_alpha   90.56250934
_cell_angle_beta   89.74795648
_cell_angle_gamma   92.51754254
_symmetry_Int_Tables_number   1
_chemical_formula_structural   Rb4MgV4Cu2(PO6)4
_chemical_formula_sum   'Rb4 Mg1 V4 Cu2 P4 O24'
_cell_volume   596.53141454
_cell_formula_units_Z   1
loop_
 _symmetry_equiv_pos_site_id
 _symmetry_equiv_pos_as_xyz
  1  'x, y, z'
loop_
 _atom_site_type_symbol
 _atom_site_label
 _atom_site_symmetry_multiplicity
 _atom_site_fract_x
 _atom_site_fract_y
 _atom_site_fract_z
 _atom_site_occupancy
  Rb  Rb0  1  0.46547300  0.09895800  0.34036600  1
  Rb  Rb1  1  0.54617100  0.82542500  0.64804400  1
  Rb  Rb2  1  0.57248200  0.39714200  0.87997100  1
  Rb  Rb3  1  0.44959100  0.62319000  0.15334500  1
  Mg  Mg0  1  0.05516900  0.99480700  0.61379400  1
  V  V0  1  0.08376000  0.75257000  0.89595400  1
  V  V1  1  0.94143900  0.24600900  0.10796400  1
  V  V2  1  0.94116000  0.74639400  0.39346200  1
  V  V3  1  0.03438700  0.26260800  0.60835900  1
  Cu  Cu0  1  0.51087300  0.00600800  0.00186800  1
  Cu  Cu1  1  0.50223200  0.50012100  0.49357900  1
  P  P0  1  0.05021100  0.09889900  0.85938900  1
  P  P1  1  0.98040400  0.91949200  0.13875000  1
  P  P2  1  0.96761100  0.41536700  0.35786800  1
  P  P3  1  0.02342800  0.58352600  0.64135200  1
  O  O0  1  0.05436000  0.07051400  0.17363100  1
  O  O1  1  0.05209800  0.31826100  0.25936100  1
  O  O2  1  0.10663500  0.86782700  0.49317700  1
  O  O3  1  0.63935100  0.27733800  0.11740300  1
  O  O4  1  0.82070400  0.14337200  0.55897800  1
  O  O5  1  0.91902300  0.64178700  0.97514800  1
  O  O6  1  0.86280100  0.10983100  0.96348500  1
  O  O7  1  0.93836000  0.43707100  0.68202500  1
  O  O8  1  0.97331400  0.69003800  0.74036600  1
  O  O9  1  0.84813600  0.62193700  0.53988900  1
  O  O10  1  0.68439700  0.39721800  0.38085800  1
  O  O11  1  0.11857600  0.36620500  0.46942500  1
  O  O12  1  0.06459800  0.82589200  0.23669200  1
  O  O13  1  0.14603000  0.88700900  0.02539800  1
  O  O14  1  0.63754600  0.76907600  0.37209100  1
  O  O15  1  0.32586700  0.11659000  0.89506600  1
  O  O16  1  0.08543600  0.35874500  0.02088400  1
  O  O17  1  0.69836700  0.89982100  0.11172900  1
  O  O18  1  0.29224200  0.16716600  0.60826900  1
  O  O19  1  0.37574200  0.70284100  0.88686000  1
  O  O20  1  0.00836200  0.95571600  0.79183900  1
  O  O21  1  0.30359400  0.58786700  0.61061200  1
  O  O22  1  0.05740200  0.56340200  0.32886500  1
  O  O23  1  0.97516800  0.21229400  0.77388500  1
loop_
_geom_bond_atom_site_label_1
_geom_bond_atom_site_label_2
_geom_bond_distance
_geom_bond_site_symmetry_2
Mg0 O2 1.872244 1_555
Mg0 O4 2.065339 1_465
Mg0 O18 2.067621 1_565
Mg0 O20 2.080760 1_555
Cu0 O15 1.940313 1_554
Cu0 O17 1.945166 1_545
Cu0 O6 2.145522 1_554
Cu0 O13 2.245318 1_545
Cu1 O10 1.914607 1_555
Cu1 O21 1.921513 1_555
Cu1 O9 2.220026 1_555
Cu1 O11 2.402058 1_555
O0 P1 1.562197 1_445
O0 V1 1.999845 1_455
O0 Rb0 2.915272 1_555
O1 P2 1.543222 1_455
O1 V1 1.943420 1_455
O1 Rb0 3.290865 1_555
O2 V2 1.838318 1_455
O2 Rb1 2.992317 1_555
O2 Rb0 3.392422 1_565
O3 V1 1.661001 1_555
O3 Rb2 2.989221 1_554
O3 Rb0 3.209123 1_555
O4 V3 1.691930 1_655
O4 Rb0 3.155439 1_555
O5 V0 1.642171 1_655
O5 Rb2 3.151266 1_555
O5 Rb3 3.222943 1_556
O6 P0 1.555888 1_655
O6 V1 2.140295 1_556
O7 P3 1.559810 1_655
O7 V3 1.983228 1_655
O7 Rb2 2.997571 1_555
O8 P3 1.559574 1_655
O8 V0 1.955737 1_655
O8 Rb1 2.898577 1_555
O9 P3 1.551557 1_655
O9 V2 2.120808 1_555
O9 Rb1 2.884028 1_555
O10 P2 1.539375 1_555
O10 Rb0 3.129593 1_555
O11 P2 1.598728 1_455
O11 V3 1.929969 1_555
O12 P1 1.532981 1_455
O12 V2 2.051000 1_455
O12 Rb3 3.064337 1_555
O13 P1 1.600632 1_455
O13 V0 1.987130 1_554
O14 V2 1.668292 1_555
O14 Rb3 3.015631 1_555
O14 Rb1 3.226721 1_555
O14 Rb0 3.420852 1_565
O15 P0 1.533487 1_555
O15 Rb2 3.001329 1_555
O16 V1 1.654541 1_455
O16 Rb2 3.065776 1_554
O16 Rb2 3.223788 1_454
O17 P1 1.544658 1_555
O17 Rb3 3.006419 1_555
O17 Rb0 3.497349 1_565
O18 V3 1.699955 1_555
O18 Rb0 3.258517 1_555
O19 V0 1.659018 1_555
O19 Rb1 3.102816 1_555
O19 Rb3 3.173908 1_556
O19 Rb2 3.216868 1_555
O20 P0 1.600581 1_565
O20 V0 2.376947 1_555
O20 Rb1 3.185198 1_455
O21 P3 1.536603 1_555
O21 Rb1 2.645517 1_555
O22 P2 1.545516 1_455
O22 V2 2.051424 1_455
O22 Rb3 2.936859 1_555
O23 P0 1.551765 1_655
O23 V3 1.975258 1_655
O23 Rb2 3.107529 1_555
