# generated using pymatgen
data_Li2CoO3
_symmetry_space_group_name_H-M   'P 1'
_cell_length_a   5.00414529
_cell_length_b   5.91294792
_cell_length_c   7.63050240
_cell_angle_alpha   99.71036291
_cell_angle_beta   74.75989872
_cell_angle_gamma   103.35704720
_symmetry_Int_Tables_number   1
_chemical_formula_structural   Li2CoO3
_chemical_formula_sum   'Li8 Co4 O12'
_cell_volume   210.54219539
_cell_formula_units_Z   4
loop_
 _symmetry_equiv_pos_site_id
 _symmetry_equiv_pos_as_xyz
  1  'x, y, z'
loop_
 _atom_site_type_symbol
 _atom_site_label
 _atom_site_symmetry_multiplicity
 _atom_site_fract_x
 _atom_site_fract_y
 _atom_site_fract_z
 _atom_site_occupancy
  Li  Li0  1  0.49997000  0.66662500  0.16664600  1
  Li  Li1  1  0.00004400  0.16669500  0.66668900  1
  Li  Li2  1  0.00004300  0.66672200  0.66669500  1
  Li  Li3  1  0.49993500  0.16664100  0.16664300  1
  Li  Li4  1  0.48695100  0.99545000  0.49463600  1
  Li  Li5  1  0.98703700  0.49547000  0.99460700  1
  Li  Li6  1  0.01304300  0.83787300  0.33869600  1
  Li  Li7  1  0.51292700  0.33787100  0.83875800  1
  Co  Co0  1  0.48712800  0.49367400  0.49977300  1
  Co  Co1  1  0.01290500  0.33967000  0.33353400  1
  Co  Co2  1  0.98710300  0.99366800  0.99979600  1
  Co  Co3  1  0.51291400  0.83967200  0.83353100  1
  O  O0  1  0.26390600  0.65265500  0.41899300  1
  O  O1  1  0.76388900  0.15265000  0.91899400  1
  O  O2  1  0.23610700  0.18069300  0.41434400  1
  O  O3  1  0.73610600  0.68068200  0.91433900  1
  O  O4  1  0.74801200  0.50196300  0.27909900  1
  O  O5  1  0.24800500  0.00195900  0.77909200  1
  O  O6  1  0.21753000  0.33424400  0.10657800  1
  O  O7  1  0.71754900  0.83424300  0.60657300  1
  O  O8  1  0.28246900  0.49909000  0.72675300  1
  O  O9  1  0.78246000  0.99908100  0.22675400  1
  O  O10  1  0.25198900  0.83136000  0.05423700  1
  O  O11  1  0.75197600  0.33135200  0.55423900  1
loop_
_geom_bond_atom_site_label_1
_geom_bond_atom_site_label_2
_geom_bond_distance
_geom_bond_site_symmetry_2
Li0 O3 1.980485 1_554
Li0 O0 1.980581 1_555
Li0 O10 2.150431 1_555
Li0 O4 2.150600 1_555
Li0 O6 2.196263 1_555
Li0 O9 2.196771 1_555
Li1 O1 1.980499 1_455
Li1 O2 1.980578 1_555
Li1 O5 2.150328 1_555
Li1 O11 2.150668 1_455
Li1 O8 2.196279 1_555
Li1 O7 2.196780 1_445
Li2 O3 2.001918 1_455
Li2 O0 2.002122 1_555
Li2 O8 2.081080 1_555
Li2 O7 2.081162 1_455
Li2 O5 2.248122 1_565
Li2 O11 2.249070 1_455
Li3 O1 2.001990 1_554
Li3 O2 2.002040 1_555
Li3 O6 2.080901 1_555
Li3 O9 2.081408 1_545
Li3 O10 2.248292 1_545
Li3 O4 2.248897 1_555
Li4 O7 2.066588 1_555
Li4 O2 2.101607 1_565
Li4 O0 2.141524 1_555
Li4 O11 2.169312 1_565
Li4 O5 2.184287 1_565
Li4 O9 2.185513 1_555
Li5 O6 2.066421 1_656
Li5 O3 2.101725 1_555
Li5 O1 2.141775 1_555
Li5 O10 2.169138 1_656
Li5 O4 2.184636 1_556
Li5 O8 2.185185 1_655
Li6 O9 2.066558 1_455
Li6 O0 2.101599 1_555
Li6 O2 2.141684 1_565
Li6 O4 2.169351 1_455
Li6 O10 2.184305 1_555
Li6 O7 2.185452 1_455
Li7 O8 2.066424 1_555
Li7 O1 2.101755 1_555
Li7 O3 2.141732 1_555
Li7 O5 2.169226 1_555
Li7 O11 2.184842 1_555
Li7 O6 2.184913 1_556
Co0 O8 1.764520 1_555
Co0 O4 1.839750 1_555
Co0 O0 1.885208 1_555
Co0 O11 1.965285 1_555
Co0 O2 2.092164 1_555
Co0 O7 2.217317 1_555
Co1 O6 1.764313 1_555
Co1 O11 1.840030 1_455
Co1 O2 1.885242 1_555
Co1 O4 1.965247 1_455
Co1 O0 2.092206 1_555
Co1 O9 2.217398 1_445
Co2 O9 1.764356 1_556
Co2 O5 1.839959 1_665
Co2 O1 1.885275 1_565
Co2 O10 1.965299 1_656
Co2 O3 2.092196 1_555
Co2 O6 2.217311 1_666
Co3 O7 1.764341 1_555
Co3 O10 1.840026 1_556
Co3 O3 1.885247 1_555
Co3 O5 1.965305 1_565
Co3 O1 2.092125 1_565
Co3 O8 2.217363 1_555
