# generated using pymatgen
data_Eu2Ag2O5
_symmetry_space_group_name_H-M   'P 1'
_cell_length_a   8.98357394
_cell_length_b   8.98357394
_cell_length_c   8.98357394
_cell_angle_alpha   143.31864655
_cell_angle_beta   140.87415103
_cell_angle_gamma   54.70882624
_symmetry_Int_Tables_number   1
_chemical_formula_structural   Eu2Ag2O5
_chemical_formula_sum   'Eu4 Ag4 O10'
_cell_volume   271.39336727
_cell_formula_units_Z   2
loop_
 _symmetry_equiv_pos_site_id
 _symmetry_equiv_pos_as_xyz
  1  'x, y, z'
loop_
 _atom_site_type_symbol
 _atom_site_label
 _atom_site_symmetry_multiplicity
 _atom_site_fract_x
 _atom_site_fract_y
 _atom_site_fract_z
 _atom_site_occupancy
  Eu  Eu0  1  0.89936100  0.37200900  0.50343700  1
  Eu  Eu1  1  0.10063900  0.60407600  0.47264800  1
  Eu  Eu2  1  0.36857100  0.87200900  0.47264800  1
  Eu  Eu3  1  0.63142900  0.10407600  0.50343700  1
  Ag  Ag0  1  0.00000000  0.01554700  0.01554700  1
  Ag  Ag1  1  0.50000000  0.51554700  0.01554700  1
  Ag  Ag2  1  0.70653000  0.72456300  0.93109200  1
  Ag  Ag3  1  0.29347000  0.22456300  0.01803300  1
  O  O0  1  0.29664300  0.29172000  0.51783800  1
  O  O1  1  0.70335700  0.22119500  0.99507700  1
  O  O2  1  0.27388200  0.79172000  0.99507700  1
  O  O3  1  0.72611800  0.72119500  0.51783800  1
  O  O4  1  0.97759800  0.93689600  0.17057200  1
  O  O5  1  0.02240200  0.19297400  0.95929800  1
  O  O6  1  0.26632300  0.43689600  0.95929800  1
  O  O7  1  0.73367700  0.69297400  0.17057200  1
  O  O8  1  0.67485900  0.30502100  0.47988000  1
  O  O9  1  0.32514100  0.80502100  0.63016200  1
loop_
_geom_bond_atom_site_label_1
_geom_bond_atom_site_label_2
_geom_bond_distance
_geom_bond_site_symmetry_2
Eu0 O8 2.238406 1_555
Eu0 O6 2.328900 1_655
Eu0 O4 2.460412 1_545
Eu0 O1 2.479575 1_554
Eu0 O3 2.509908 1_555
Eu1 O9 2.238406 1_555
Eu1 O7 2.328899 1_455
Eu1 O5 2.460412 1_554
Eu1 O0 2.479575 1_555
Eu1 O2 2.509908 1_555
Eu2 O9 2.238399 1_555
Eu2 O4 2.328898 1_455
Eu2 O6 2.460412 1_554
Eu2 O3 2.479583 1_555
Eu2 O1 2.509912 1_565
Eu3 O8 2.238400 1_555
Eu3 O5 2.328899 1_655
Eu3 O7 2.460412 1_545
Eu3 O2 2.479580 1_544
Eu3 O0 2.509915 1_555
Ag0 O3 2.126775 1_444
Ag0 O2 2.126775 1_544
Ag0 O1 2.155120 1_454
Ag0 O0 2.155120 1_555
Ag0 O5 2.157953 1_554
Ag0 O4 2.157953 1_445
Ag1 O1 2.126775 1_554
Ag1 O0 2.126775 1_554
Ag1 O2 2.155120 1_554
Ag1 O3 2.155120 1_555
Ag1 O7 2.157961 1_555
Ag1 O6 2.157962 1_554
Ag2 O4 2.203105 1_556
Ag2 O7 2.203113 1_556
Ag2 O9 2.339148 1_555
Ag2 O8 2.379585 1_555
Ag3 O6 2.203105 1_554
Ag3 O5 2.203110 1_554
Ag3 O8 2.339150 1_555
Ag3 O9 2.379588 1_544
