# generated using pymatgen
data_Tm(CrFe5)2
_symmetry_space_group_name_H-M   'P 1'
_cell_length_a   4.69011500
_cell_length_b   6.38667633
_cell_length_c   6.38667633
_cell_angle_alpha   97.38452373
_cell_angle_beta   111.54178786
_cell_angle_gamma   68.45821214
_symmetry_Int_Tables_number   1
_chemical_formula_structural   Tm(CrFe5)2
_chemical_formula_sum   'Tm1 Cr2 Fe10'
_cell_volume   165.51136251
_cell_formula_units_Z   1
loop_
 _symmetry_equiv_pos_site_id
 _symmetry_equiv_pos_as_xyz
  1  'x, y, z'
loop_
 _atom_site_type_symbol
 _atom_site_label
 _atom_site_symmetry_multiplicity
 _atom_site_fract_x
 _atom_site_fract_y
 _atom_site_fract_z
 _atom_site_occupancy
  Tm  Tm0  1  0.00000000  0.00000000  0.00000000  1
  Cr  Cr0  1  0.00000000  0.36726900  0.36726900  1
  Cr  Cr1  1  0.00000000  0.63273100  0.63273100  1
  Fe  Fe0  1  0.72431200  0.77568800  0.22431200  1
  Fe  Fe1  1  0.27568800  0.22431200  0.77568800  1
  Fe  Fe2  1  0.50000000  0.77355400  0.77355400  1
  Fe  Fe3  1  0.50000000  0.22644600  0.22644600  1
  Fe  Fe4  1  0.50000000  0.00000000  0.50000000  1
  Fe  Fe5  1  0.00000000  0.00000000  0.50000000  1
  Fe  Fe6  1  0.50000000  0.50000000  0.00000000  1
  Fe  Fe7  1  0.00000000  0.50000000  0.00000000  1
  Fe  Fe8  1  0.64109300  0.35890700  0.64109300  1
  Fe  Fe9  1  0.35890700  0.64109300  0.35890700  1
loop_
_geom_bond_atom_site_label_1
_geom_bond_atom_site_label_2
_geom_bond_distance
_geom_bond_site_symmetry_2
Cr0 Cr1 2.238304 1_555
Cr0 Fe1 2.564739 1_555
Cr0 Fe0 2.564739 1_455
Cr0 Fe4 2.594555 1_555
Cr0 Fe6 2.594555 1_455
Cr0 Fe7 2.594555 1_555
Cr0 Fe5 2.594555 1_555
Cr0 Fe3 2.628530 1_555
Cr0 Fe3 2.628530 1_455
Cr0 Fe9 2.854232 1_455
Cr0 Fe8 2.854232 1_555
Cr0 Fe8 2.854232 1_455
Cr0 Fe9 2.854232 1_555
Cr0 Tm0 3.096713 1_555
Cr1 Fe0 2.564739 1_455
Cr1 Fe1 2.564739 1_555
Cr1 Fe4 2.594555 1_465
Cr1 Fe6 2.594555 1_556
Cr1 Fe5 2.594555 1_565
Cr1 Fe7 2.594555 1_556
Cr1 Fe2 2.628530 1_455
Cr1 Fe2 2.628530 1_555
Cr1 Fe9 2.854232 1_455
Cr1 Fe8 2.854232 1_555
Cr1 Fe8 2.854232 1_455
Cr1 Fe9 2.854232 1_555
Cr1 Tm0 3.096713 1_566
Fe0 Fe7 2.421660 1_655
Fe0 Fe5 2.421660 1_665
Fe0 Fe4 2.421660 1_565
Fe0 Fe6 2.421660 1_555
Fe0 Fe9 2.601657 1_655
Fe0 Fe9 2.601657 1_555
Fe0 Fe3 2.677880 1_565
Fe0 Fe2 2.677880 1_554
Fe0 Tm0 3.004129 1_565
Fe0 Tm0 3.004129 1_665
Fe1 Fe7 2.421660 1_556
Fe1 Fe5 2.421660 1_555
Fe1 Fe6 2.421660 1_556
Fe1 Fe4 2.421660 1_555
Fe1 Fe8 2.601657 1_455
Fe1 Fe8 2.601657 1_555
Fe1 Fe3 2.677880 1_556
Fe1 Fe2 2.677880 1_545
Fe1 Tm0 3.004129 1_656
Fe1 Tm0 3.004129 1_556
Fe2 Fe7 2.406963 1_656
Fe2 Fe5 2.406963 1_565
Fe2 Fe6 2.406963 1_556
Fe2 Fe4 2.406963 1_565
Fe2 Fe8 2.591321 1_555
Fe2 Fe9 2.591321 1_555
Fe2 Tm0 3.024044 1_666
Fe2 Tm0 3.024044 1_566
Fe3 Fe5 2.406963 1_655
Fe3 Fe7 2.406963 1_555
Fe3 Fe6 2.406963 1_555
Fe3 Fe4 2.406963 1_555
Fe3 Fe8 2.591321 1_555
Fe3 Fe9 2.591321 1_555
Fe3 Tm0 3.024044 1_555
Fe3 Tm0 3.024044 1_655
Fe4 Fe5 2.345057 1_555
Fe4 Fe5 2.345057 1_655
Fe4 Fe9 2.578615 1_545
Fe4 Fe8 2.578615 1_555
Fe4 Tm0 3.193338 1_555
Fe4 Tm0 3.193338 1_656
Fe5 Fe8 2.578614 1_455
Fe5 Fe9 2.578614 1_545
Fe5 Tm0 3.193338 1_555
Fe5 Tm0 3.193338 1_556
Fe6 Fe7 2.345057 1_655
Fe6 Fe7 2.345057 1_555
Fe6 Fe8 2.578615 1_554
Fe6 Fe9 2.578615 1_555
Fe6 Tm0 3.193338 1_565
Fe6 Tm0 3.193338 1_655
Fe7 Fe8 2.578614 1_454
Fe7 Fe9 2.578614 1_555
Fe7 Tm0 3.193338 1_555
Fe7 Tm0 3.193338 1_565
Fe8 Fe9 2.362072 1_555
Fe8 Tm0 3.004274 1_656
Fe9 Tm0 3.004274 1_565
