# generated using pymatgen
data_Li7V3P8O29
_symmetry_space_group_name_H-M   'P 1'
_cell_length_a   9.82141600
_cell_length_b   9.85726218
_cell_length_c   13.93051829
_cell_angle_alpha   89.19917512
_cell_angle_beta   89.17183323
_cell_angle_gamma   60.26087987
_symmetry_Int_Tables_number   1
_chemical_formula_structural   Li7V3P8O29
_chemical_formula_sum   'Li14 V6 P16 O58'
_cell_volume   1170.86085031
_cell_formula_units_Z   2
loop_
 _symmetry_equiv_pos_site_id
 _symmetry_equiv_pos_as_xyz
  1  'x, y, z'
loop_
 _atom_site_type_symbol
 _atom_site_label
 _atom_site_symmetry_multiplicity
 _atom_site_fract_x
 _atom_site_fract_y
 _atom_site_fract_z
 _atom_site_occupancy
  Li  Li0  1  0.23040300  0.09007700  0.56181800  1
  Li  Li1  1  0.09319700  0.66614200  0.56629200  1
  Li  Li2  1  0.33518400  0.32824100  0.38555500  1
  Li  Li3  1  0.32215400  0.32986000  0.88648900  1
  Li  Li4  1  0.23946300  0.67033000  0.05962700  1
  Li  Li5  1  0.67693000  0.09530400  0.06697800  1
  Li  Li6  1  0.32815400  0.76481500  0.43984400  1
  Li  Li7  1  0.67349500  0.23493800  0.56414300  1
  Li  Li8  1  0.32456300  0.90739000  0.93532700  1
  Li  Li9  1  0.76336200  0.33364400  0.93857600  1
  Li  Li10  1  0.67328400  0.67775000  0.11277200  1
  Li  Li11  1  0.89736700  0.33483100  0.43775300  1
  Li  Li12  1  0.99878200  0.00177100  0.99865200  1
  Li  Li13  1  0.94990700  0.98265100  0.48603500  1
  V  V0  1  0.43692000  0.56477000  0.25047100  1
  V  V1  1  0.56720800  0.43413000  0.74575200  1
  V  V2  1  0.43843500  0.00048200  0.74784000  1
  V  V3  1  0.56630600  0.99731600  0.25045800  1
  V  V4  1  0.00304300  0.43572800  0.24670200  1
  V  V5  1  0.99418700  0.56643400  0.75523000  1
  P  P0  1  0.08438400  0.21895800  0.83989300  1
  P  P1  1  0.22417600  0.08938000  0.34010000  1
  P  P2  1  0.08756800  0.68466500  0.34853500  1
  P  P3  1  0.33609700  0.33714700  0.12651100  1
  P  P4  1  0.32849700  0.33873600  0.62694500  1
  P  P5  1  0.22601000  0.67930700  0.84239100  1
  P  P6  1  0.31447400  0.77121200  0.65722000  1
  P  P7  1  0.68304200  0.09405500  0.84812700  1
  P  P8  1  0.31585000  0.90876200  0.15296000  1
  P  P9  1  0.68241500  0.22513000  0.34266400  1
  P  P10  1  0.77582900  0.32124900  0.15805600  1
  P  P11  1  0.66946500  0.65978300  0.37090300  1
  P  P12  1  0.66498100  0.66213100  0.87325300  1
  P  P13  1  0.91647400  0.31719700  0.65321600  1
  P  P14  1  0.78154700  0.91729200  0.66321300  1
  P  P15  1  0.91824500  0.77860000  0.16039100  1
  O  O0  1  0.99909100  0.23397000  0.56176100  1
  O  O1  1  0.07473000  0.25164800  0.33991300  1
  O  O2  1  0.22732500  0.98724300  0.06318900  1
  O  O3  1  0.25214200  0.07982200  0.84123100  1
  O  O4  1  0.09759200  0.37021200  0.83263200  1
  O  O5  1  0.18886500  0.34101400  0.17595700  1
  O  O6  1  0.10029200  0.52260200  0.33576900  1
  O  O7  1  0.01973600  0.78224600  0.08025500  1
  O  O8  1  0.08436900  0.65522500  0.84339100  1
  O  O9  1  0.32192100  0.19153100  0.66115400  1
  O  O10  1  0.36754800  0.11301300  0.33105400  1
  O  O11  1  0.18591700  0.48722000  0.67303100  1
  O  O12  1  0.32151000  0.35835200  0.01971700  1
  O  O13  1  0.32089900  0.35535600  0.51886600  1
  O  O14  1  0.33901800  0.48337900  0.16982300  1
  O  O15  1  0.51962800  0.11149000  0.83770400  1
  O  O16  1  0.48484500  0.18688300  0.15822100  1
  O  O17  1  0.25451200  0.66369100  0.34167200  1
  O  O18  1  0.20821300  0.78820100  0.74997200  1
  O  O19  1  0.23402700  0.75963800  0.56852300  1
  O  O20  1  0.23144200  0.76697100  0.92952500  1
  O  O21  1  0.37515700  0.51796400  0.82848000  1
  O  O22  1  0.48586000  0.32813300  0.66248600  1
  O  O23  1  0.33354300  0.74357400  0.16048100  1
  O  O24  1  0.51844900  0.37410100  0.33173000  1
  O  O25  1  0.66544200  0.08121900  0.33996000  1
  O  O26  1  0.21317000  0.00173400  0.24628300  1
  O  O27  1  0.22748000  0.99515400  0.42803300  1
  O  O28  1  0.79913500  0.01269700  0.58348700  1
  O  O29  1  0.33680700  0.91329100  0.65460700  1
  O  O30  1  0.47288900  0.61835600  0.67462200  1
  O  O31  1  0.66238300  0.26188700  0.83346400  1
  O  O32  1  0.51846600  0.65919500  0.32679300  1
  O  O33  1  0.62561400  0.48376500  0.16861500  1
  O  O34  1  0.77074100  0.23435100  0.07081500  1
  O  O35  1  0.76879000  0.22875000  0.43169300  1
  O  O36  1  0.78877500  0.21811900  0.25156000  1
  O  O37  1  0.74881800  0.33844200  0.65656400  1
  O  O38  1  0.51773900  0.81229100  0.83943200  1
  O  O39  1  0.47966600  0.89225300  0.16292800  1
  O  O40  1  0.66932900  0.51317400  0.83275300  1
  O  O41  1  0.67785400  0.64794300  0.98071000  1
  O  O42  1  0.66329300  0.63977300  0.47674900  1
  O  O43  1  0.81892100  0.51175600  0.32654400  1
  O  O44  1  0.62462000  0.92073600  0.66569300  1
  O  O45  1  0.66784200  0.80445400  0.32942700  1
  O  O46  1  0.91873900  0.34340100  0.15827300  1
  O  O47  1  0.00937800  0.20237100  0.74082900  1
  O  O48  1  0.98565400  0.21179300  0.92084700  1
  O  O49  1  0.91310600  0.47219600  0.66777000  1
  O  O50  1  0.81319700  0.66218300  0.82618700  1
  O  O51  1  0.90411200  0.62762800  0.16826900  1
  O  O52  1  0.75192000  0.91878100  0.15645700  1
  O  O53  1  0.76708600  0.02838400  0.94099500  1
  O  O54  1  0.79702300  0.99124800  0.76347200  1
  O  O55  1  0.92167400  0.74930100  0.66363000  1
  O  O56  1  0.01055300  0.76771800  0.44025600  1
  O  O57  1  0.99010500  0.79441300  0.26079100  1
loop_
_geom_bond_atom_site_label_1
_geom_bond_atom_site_label_2
_geom_bond_distance
_geom_bond_site_symmetry_2
Li0 O29 1.992239 1_545
Li0 O0 1.994019 1_455
Li0 O27 2.103954 1_545
Li0 O9 2.165494 1_555
Li1 O56 1.982364 1_555
Li1 O55 1.985827 1_455
Li1 O19 2.007524 1_555
Li1 O11 2.126790 1_555
Li2 O13 1.873246 1_555
Li2 O10 2.132484 1_555
Li2 O24 2.182896 1_555
Li2 O6 2.257838 1_555
Li3 O12 1.880394 1_556
Li3 O15 2.172046 1_555
Li3 O4 2.180494 1_555
Li3 O21 2.294687 1_555
Li4 O7 1.893598 1_555
Li4 O23 2.019070 1_555
Li4 O20 2.019863 1_554
Li4 O14 2.210252 1_555
Li5 O53 1.925406 1_554
Li5 O52 1.954067 1_545
Li5 O34 1.996671 1_555
Li5 O16 2.064641 1_555
Li6 O27 1.981650 1_555
Li6 O19 2.016647 1_555
Li6 O17 2.041812 1_555
Li6 O32 2.255634 1_555
Li7 O28 1.924999 1_555
Li7 O37 2.014662 1_555
Li7 O35 2.044666 1_555
Li7 O22 2.097484 1_555
Li8 O3 1.969363 1_565
Li8 O2 1.987078 1_556
Li8 O20 2.005002 1_555
Li8 O38 2.111907 1_555
Li9 O48 1.913438 1_555
Li9 O34 2.059090 1_556
Li9 O31 2.096390 1_555
Li9 O40 2.121985 1_555
Li10 O41 1.863451 1_554
Li10 O39 2.142167 1_555
Li10 O51 2.215874 1_555
Li10 O33 2.305817 1_555
Li11 O0 1.996818 1_555
Li11 O35 2.002707 1_555
Li11 O1 2.027304 1_655
Li11 O43 2.158949 1_555
Li12 O48 2.270195 1_555
Li12 O53 2.312340 1_555
Li12 O7 2.348047 1_646
Li12 O2 2.367045 1_646
Li12 O34 2.487561 1_556
Li12 O20 2.501471 1_645
Li13 O28 1.908259 1_565
Li13 O56 2.006233 1_655
Li13 O35 2.308372 1_565
O0 P13 1.514419 1_555
O1 P1 1.543899 1_555
O1 V4 2.041412 1_555
O2 P8 1.501793 1_555
O3 P0 1.534379 1_555
O3 V2 2.047404 1_555
O4 P0 1.561178 1_555
O4 V5 1.989905 1_455
O5 P3 1.576122 1_555
O5 V4 1.859282 1_555
O6 P2 1.551928 1_555
O6 V4 2.015055 1_555
O7 P15 1.497776 1_455
O8 P5 1.522732 1_555
O8 V5 1.972158 1_455
O9 P4 1.552269 1_555
O9 V2 2.037801 1_555
O10 P1 1.540269 1_555
O10 V3 2.033612 1_545
O11 P4 1.575511 1_555
O11 V5 1.992669 1_455
O12 P3 1.498404 1_555
O13 P4 1.511110 1_555
O14 P3 1.583816 1_555
O14 V0 1.911065 1_555
O15 P7 1.535869 1_555
O15 V2 2.081637 1_555
O16 P3 1.541717 1_555
O16 V3 2.064510 1_545
O17 P2 1.549184 1_555
O17 V0 2.002537 1_555
O18 P6 1.606353 1_555
O18 P5 1.619254 1_555
O19 P6 1.511809 1_555
O20 P5 1.516527 1_555
O21 P5 1.549774 1_555
O21 V1 1.996546 1_555
O22 P4 1.582758 1_555
O22 V1 1.991062 1_555
O23 P8 1.551638 1_555
O23 V0 1.976996 1_555
O24 P9 1.558079 1_555
O24 V0 1.982078 1_555
O25 P9 1.509247 1_555
O25 V3 2.012307 1_545
O26 P1 1.610723 1_555
O26 P8 1.620331 1_545
O27 P1 1.517792 1_565
O28 P14 1.508033 1_545
O29 P6 1.521175 1_555
O29 V2 2.083638 1_565
O30 P6 1.557133 1_555
O30 V1 1.856068 1_555
O31 P7 1.574339 1_555
O31 V1 1.910473 1_555
O32 P11 1.616151 1_555
O32 V0 1.852032 1_555
O33 P10 1.555656 1_555
O33 V0 1.966882 1_555
O34 P10 1.512126 1_555
O35 P9 1.523403 1_555
O36 P10 1.608042 1_555
O36 P9 1.612192 1_555
O37 P13 1.553490 1_555
O37 V1 1.978477 1_555
O38 P12 1.542967 1_555
O38 V2 2.050599 1_565
O39 P8 1.542858 1_555
O39 V3 2.054990 1_555
O40 P12 1.560869 1_555
O40 V1 1.979583 1_555
O41 P12 1.502806 1_555
O42 P11 1.489244 1_555
O43 P11 1.593630 1_555
O43 V4 1.920794 1_655
O44 P14 1.524588 1_555
O44 V2 1.951876 1_565
O45 P11 1.523947 1_555
O45 V3 1.977672 1_555
O46 P10 1.523787 1_555
O46 V4 1.959521 1_655
O47 P13 1.603826 1_455
O47 P0 1.621430 1_555
O48 P0 1.500376 1_655
O49 P13 1.528037 1_555
O49 V5 1.942945 1_555
O50 P12 1.588099 1_555
O50 V5 1.827148 1_555
O51 P15 1.563935 1_555
O51 V4 1.966097 1_655
O52 P15 1.530331 1_555
O52 V3 2.048551 1_555
O53 P7 1.500462 1_555
O54 P7 1.593933 1_565
O54 P14 1.627801 1_555
O55 P14 1.541163 1_555
O55 V5 2.018186 1_555
O56 P2 1.503956 1_555
O57 P2 1.596923 1_655
O57 P15 1.619359 1_555
