# generated using pymatgen
data_LaFe8Si5
_symmetry_space_group_name_H-M   'P 1'
_cell_length_a   8.02477592
_cell_length_b   8.02477592
_cell_length_c   8.02477592
_cell_angle_alpha   121.01973191
_cell_angle_beta   121.01973191
_cell_angle_gamma   88.24266443
_symmetry_Int_Tables_number   1
_chemical_formula_structural   LaFe8Si5
_chemical_formula_sum   'La2 Fe16 Si10'
_cell_volume   359.59699286
_cell_formula_units_Z   2
loop_
 _symmetry_equiv_pos_site_id
 _symmetry_equiv_pos_as_xyz
  1  'x, y, z'
loop_
 _atom_site_type_symbol
 _atom_site_label
 _atom_site_symmetry_multiplicity
 _atom_site_fract_x
 _atom_site_fract_y
 _atom_site_fract_z
 _atom_site_occupancy
  La  La0  1  0.25000000  0.25000000  0.00000000  1
  La  La1  1  0.75000000  0.75000000  0.00000000  1
  Fe  Fe0  1  0.28787400  0.78787400  0.72659000  1
  Fe  Fe1  1  0.71212600  0.21212600  0.27341000  1
  Fe  Fe2  1  0.06128500  0.56128500  0.27341000  1
  Fe  Fe3  1  0.78787400  0.06128500  0.50000000  1
  Fe  Fe4  1  0.43871500  0.71212600  0.50000000  1
  Fe  Fe5  1  0.93871500  0.43871500  0.72659000  1
  Fe  Fe6  1  0.21212600  0.93871500  0.50000000  1
  Fe  Fe7  1  0.56128500  0.28787400  0.50000000  1
  Fe  Fe8  1  0.20246500  0.05999500  0.26246100  1
  Fe  Fe9  1  0.79753500  0.94000500  0.73753900  1
  Fe  Fe10  1  0.05999500  0.79753500  0.85753000  1
  Fe  Fe11  1  0.70246500  0.44000500  0.14247000  1
  Fe  Fe12  1  0.94000500  0.20246500  0.14247000  1
  Fe  Fe13  1  0.29753500  0.55999500  0.85753000  1
  Fe  Fe14  1  0.55999500  0.70246500  0.26246100  1
  Fe  Fe15  1  0.44000500  0.29753500  0.73753900  1
  Si  Si0  1  0.81038300  0.31038300  0.86452500  1
  Si  Si1  1  0.18961700  0.68961700  0.13547500  1
  Si  Si2  1  0.44585800  0.94585800  0.13547500  1
  Si  Si3  1  0.31038300  0.44585800  0.50000000  1
  Si  Si4  1  0.05414200  0.18961700  0.50000000  1
  Si  Si5  1  0.55414200  0.05414200  0.86452500  1
  Si  Si6  1  0.68961700  0.55414200  0.50000000  1
  Si  Si7  1  0.94585800  0.81038300  0.50000000  1
  Si  Si8  1  0.50000000  0.00000000  0.50000000  1
  Si  Si9  1  0.00000000  0.50000000  0.50000000  1
loop_
_geom_bond_atom_site_label_1
_geom_bond_atom_site_label_2
_geom_bond_distance
_geom_bond_site_symmetry_2
La0 Si4 3.216747 1_554
La0 Si7 3.216747 1_444
La0 Si6 3.216747 1_555
La0 Si3 3.216747 1_555
La0 Si1 3.216747 1_555
La0 Si0 3.216747 1_454
La0 Si5 3.216747 1_554
La0 Si2 3.216747 1_545
La1 Si5 3.216747 1_564
La1 Si7 3.216747 1_555
La1 Si6 3.216747 1_554
La1 Si4 3.216747 1_665
La1 Si1 3.216747 1_655
La1 Si0 3.216747 1_554
La1 Si2 3.216747 1_555
La1 Si3 3.216747 1_554
Fe0 Si2 2.346189 1_556
Fe0 Si9 2.376597 1_555
Fe0 Si5 2.400251 1_565
Fe0 Si3 2.456882 1_555
Fe0 Si7 2.456882 1_455
Fe0 Fe4 2.495049 1_555
Fe0 Fe6 2.495049 1_555
Fe0 Fe13 2.518324 1_555
Fe0 Fe10 2.518324 1_555
Fe0 Fe2 2.531776 1_555
Fe0 La1 3.300150 1_556
Fe0 La0 3.300150 1_566
Fe1 Si5 2.346189 1_554
Fe1 Si9 2.376597 1_655
Fe1 Si2 2.400251 1_545
Fe1 Si4 2.456882 1_655
Fe1 Si6 2.456882 1_555
Fe1 Fe7 2.495049 1_555
Fe1 Fe3 2.495049 1_555
Fe1 Fe11 2.518324 1_555
Fe1 Fe12 2.518324 1_555
Fe1 Fe5 2.531776 1_555
Fe1 La1 3.300150 1_545
Fe1 La0 3.300150 1_555
Fe2 Si0 2.346191 1_454
Fe2 Si9 2.376607 1_555
Fe2 Si1 2.400240 1_555
Fe2 Si7 2.456884 1_455
Fe2 Si3 2.456884 1_555
Fe2 Fe6 2.495041 1_555
Fe2 Fe4 2.495041 1_555
Fe2 La1 3.300147 1_455
Fe2 La0 3.300147 1_555
Fe3 Si7 2.346195 1_545
Fe3 Si8 2.376599 1_555
Fe3 Si4 2.400247 1_655
Fe3 Si0 2.456880 1_555
Fe3 Si2 2.456880 1_545
Fe3 Fe5 2.495041 1_555
Fe3 Fe9 2.518323 1_545
Fe3 Fe7 2.531765 1_555
Fe3 La1 3.300151 1_545
Fe3 La0 3.300151 1_656
Fe4 Si6 2.346195 1_555
Fe4 Si8 2.376599 1_565
Fe4 Si3 2.400247 1_555
Fe4 Si5 2.456880 1_565
Fe4 Si1 2.456880 1_555
Fe4 Fe9 2.518332 1_555
Fe4 Fe6 2.531765 1_555
Fe4 La0 3.300151 1_555
Fe4 La1 3.300151 1_556
Fe5 Si1 2.346191 1_656
Fe5 Si9 2.376607 1_655
Fe5 Si0 2.400240 1_555
Fe5 Si4 2.456884 1_655
Fe5 Si6 2.456884 1_555
Fe5 Fe7 2.495041 1_555
Fe5 La1 3.300147 1_556
Fe5 La0 3.300147 1_656
Fe6 Si4 2.346195 1_565
Fe6 Si8 2.376599 1_565
Fe6 Si7 2.400247 1_455
Fe6 Si1 2.456880 1_555
Fe6 Si5 2.456880 1_565
Fe6 Fe8 2.518323 1_565
Fe6 La0 3.300151 1_566
Fe6 La1 3.300151 1_455
Fe7 Si3 2.346195 1_555
Fe7 Si8 2.376599 1_555
Fe7 Si6 2.400247 1_555
Fe7 Si2 2.456880 1_545
Fe7 Si0 2.456880 1_555
Fe7 Fe8 2.518332 1_555
Fe7 La0 3.300151 1_555
Fe7 La1 3.300151 1_556
Fe8 Si8 2.398066 1_555
Fe8 Si4 2.520158 1_555
Fe8 Si3 2.520165 1_555
Fe8 Si1 2.583000 1_545
Fe8 Si2 2.583007 1_545
Fe8 La1 3.328658 1_445
Fe8 La0 3.328668 1_555
Fe9 Si8 2.398066 1_565
Fe9 Si7 2.520158 1_555
Fe9 Si6 2.520165 1_555
Fe9 Si0 2.583000 1_565
Fe9 Si5 2.583007 1_565
Fe9 La0 3.328658 1_666
Fe9 La1 3.328668 1_556
Fe10 Fe9 2.359450 1_455
Fe10 Fe8 2.359454 1_566
Fe10 Si9 2.398069 1_555
Fe10 Fe5 2.518334 1_455
Fe10 Si2 2.520164 1_556
Fe10 Si1 2.520164 1_556
Fe10 Si6 2.583002 1_455
Fe10 Si7 2.583002 1_455
Fe10 Fe13 2.654124 1_555
Fe10 La1 3.328660 1_456
Fe10 La0 3.328660 1_566
Fe11 Fe14 2.359450 1_555
Fe11 Fe15 2.359454 1_554
Fe11 Si9 2.398069 1_655
Fe11 Fe2 2.518334 1_655
Fe11 Si0 2.520164 1_554
Fe11 Si5 2.520164 1_554
Fe11 Si6 2.583002 1_555
Fe11 Si7 2.583002 1_555
Fe11 Fe12 2.654124 1_555
Fe11 La0 3.328660 1_555
Fe11 La1 3.328660 1_555
Fe12 Fe8 2.359450 1_655
Fe12 Fe9 2.359454 1_544
Fe12 Si9 2.398069 1_655
Fe12 Fe2 2.518334 1_655
Fe12 Si5 2.520164 1_554
Fe12 Si0 2.520164 1_554
Fe12 Si3 2.583002 1_655
Fe12 Si4 2.583002 1_655
Fe12 La1 3.328660 1_545
Fe12 La0 3.328660 1_655
Fe13 Fe15 2.359450 1_555
Fe13 Fe14 2.359454 1_556
Fe13 Si9 2.398069 1_555
Fe13 Fe5 2.518334 1_455
Fe13 Si2 2.520164 1_556
Fe13 Si1 2.520164 1_556
Fe13 Si3 2.583002 1_555
Fe13 Si4 2.583002 1_555
Fe13 La0 3.328660 1_556
Fe13 La1 3.328660 1_556
Fe14 Si8 2.398066 1_565
Fe14 Fe4 2.518323 1_555
Fe14 Fe3 2.518332 1_565
Fe14 Si6 2.520158 1_555
Fe14 Si7 2.520165 1_555
Fe14 Si1 2.583000 1_555
Fe14 Si2 2.583007 1_555
Fe14 Fe9 2.654113 1_555
Fe14 La0 3.328658 1_555
Fe14 La1 3.328668 1_555
Fe15 Si8 2.398066 1_555
Fe15 Fe7 2.518323 1_555
Fe15 Fe6 2.518332 1_545
Fe15 Si3 2.520158 1_555
Fe15 Si4 2.520165 1_555
Fe15 Si0 2.583000 1_555
Fe15 Si5 2.583007 1_555
Fe15 Fe8 2.654113 1_555
Fe15 La1 3.328658 1_556
Fe15 La0 3.328668 1_556
Si0 Si8 2.515204 1_555
Si1 Si8 2.515204 1_565
Si2 Si8 2.515204 1_565
Si3 Si9 2.515204 1_555
Si4 Si9 2.515204 1_555
Si5 Si8 2.515204 1_555
Si6 Si9 2.515204 1_655
Si7 Si9 2.515204 1_655
