# generated using pymatgen
data_Tb2MnS4
_symmetry_space_group_name_H-M   'P 1'
_cell_length_a   6.49444220
_cell_length_b   6.49444220
_cell_length_c   12.86895573
_cell_angle_alpha   90.00000000
_cell_angle_beta   90.00000000
_cell_angle_gamma   146.01090660
_symmetry_Int_Tables_number   1
_chemical_formula_structural   Tb2MnS4
_chemical_formula_sum   'Tb4 Mn2 S8'
_cell_volume   303.43528471
_cell_formula_units_Z   2
loop_
 _symmetry_equiv_pos_site_id
 _symmetry_equiv_pos_as_xyz
  1  'x, y, z'
loop_
 _atom_site_type_symbol
 _atom_site_label
 _atom_site_symmetry_multiplicity
 _atom_site_fract_x
 _atom_site_fract_y
 _atom_site_fract_z
 _atom_site_occupancy
  Tb  Tb0  1  0.38197188  0.61802812  0.78463821  1
  Tb  Tb1  1  0.61802812  0.38197188  0.28463821  1
  Tb  Tb2  1  0.13785180  0.86214820  0.58222929  1
  Tb  Tb3  1  0.86214820  0.13785180  0.08222929  1
  Mn  Mn0  1  0.12668575  0.87331425  0.94640549  1
  Mn  Mn1  1  0.87331425  0.12668575  0.44640549  1
  S  S0  1  0.79076474  0.20923526  0.63505201  1
  S  S1  1  0.20923526  0.79076474  0.13505201  1
  S  S2  1  0.48863628  0.51136372  0.99520951  1
  S  S3  1  0.51136372  0.48863628  0.49520951  1
  S  S4  1  0.76050974  0.23949026  0.89513725  1
  S  S5  1  0.23949026  0.76050974  0.39513725  1
  S  S6  1  0.03848963  0.96151037  0.76933024  1
  S  S7  1  0.96151037  0.03848963  0.26933024  1
loop_
_geom_bond_atom_site_label_1
_geom_bond_atom_site_label_2
_geom_bond_distance
_geom_bond_site_symmetry_2
Mn0 S6 2.528444 1_555
Mn0 S4 2.608020 1_565
Mn0 S4 2.608020 1_455
Mn0 S2 2.634044 1_565
Mn0 S2 2.634044 1_455
Mn0 S1 2.635356 1_556
Mn1 S7 2.528444 1_555
Mn1 S5 2.608020 1_545
Mn1 S5 2.608020 1_655
Mn1 S3 2.634044 1_655
Mn1 S3 2.634044 1_545
Mn1 S0 2.635356 1_555
S0 Tb2 2.770039 1_545
S0 Tb2 2.770039 1_655
S0 Tb0 2.931284 1_655
S0 Tb0 2.931284 1_545
S1 Tb3 2.770039 1_455
S1 Tb3 2.770039 1_565
S1 Tb1 2.931284 1_565
S1 Tb1 2.931284 1_455
S2 Tb3 2.706639 1_456
S2 Tb3 2.706639 1_566
S2 Tb0 3.016404 1_555
S3 Tb2 2.706639 1_545
S3 Tb2 2.706639 1_655
S3 Tb1 3.016404 1_555
S4 Tb3 2.718617 1_556
S4 Tb0 2.810986 1_655
S4 Tb0 2.810986 1_545
S5 Tb2 2.718617 1_555
S5 Tb1 2.810986 1_455
S5 Tb1 2.810986 1_565
S6 Tb2 2.705704 1_555
S6 Tb0 2.724325 1_455
S6 Tb0 2.724325 1_565
S7 Tb3 2.705704 1_555
S7 Tb1 2.724325 1_545
S7 Tb1 2.724325 1_655
