# generated using pymatgen
data_Mg14SiCO16
_symmetry_space_group_name_H-M   'P 1'
_cell_length_a   8.40599050
_cell_length_b   8.76745714
_cell_length_c   4.19606417
_cell_angle_alpha   90.00000000
_cell_angle_beta   90.00000000
_cell_angle_gamma   90.00000000
_symmetry_Int_Tables_number   1
_chemical_formula_structural   Mg14SiCO16
_chemical_formula_sum   'Mg14 Si1 C1 O16'
_cell_volume   309.24641063
_cell_formula_units_Z   1
loop_
 _symmetry_equiv_pos_site_id
 _symmetry_equiv_pos_as_xyz
  1  'x, y, z'
loop_
 _atom_site_type_symbol
 _atom_site_label
 _atom_site_symmetry_multiplicity
 _atom_site_fract_x
 _atom_site_fract_y
 _atom_site_fract_z
 _atom_site_occupancy
  Mg  Mg0  1  0.50000000  -0.00000000  0.00000000  1
  Mg  Mg1  1  0.50000000  0.50000000  0.00000000  1
  Mg  Mg2  1  -0.00000000  0.26552412  0.50000000  1
  Mg  Mg3  1  -0.00000000  0.73447588  0.50000000  1
  Mg  Mg4  1  0.50000000  0.25343878  0.50000000  1
  Mg  Mg5  1  0.50000000  0.74656122  0.50000000  1
  Mg  Mg6  1  0.24834648  -0.00000000  0.50000000  1
  Mg  Mg7  1  0.24476956  0.50000000  0.50000000  1
  Mg  Mg8  1  0.75165352  -0.00000000  0.50000000  1
  Mg  Mg9  1  0.75523044  0.50000000  0.50000000  1
  Mg  Mg10  1  0.24157373  0.26261161  -0.00000000  1
  Mg  Mg11  1  0.24157373  0.73738839  0.00000000  1
  Mg  Mg12  1  0.75842627  0.26261161  -0.00000000  1
  Mg  Mg13  1  0.75842627  0.73738839  0.00000000  1
  Si  Si0  1  -0.00000000  -0.00000000  0.00000000  1
  C  C0  1  -0.00000000  0.50000000  0.00000000  1
  O  O0  1  0.22812053  -0.00000000  0.00000000  1
  O  O1  1  0.26408197  0.50000000  -0.00000000  1
  O  O2  1  0.77187947  -0.00000000  -0.00000000  1
  O  O3  1  0.73591803  0.50000000  0.00000000  1
  O  O4  1  0.24673209  0.25046200  0.50000000  1
  O  O5  1  0.24673209  0.74953800  0.50000000  1
  O  O6  1  0.75326791  0.25046200  0.50000000  1
  O  O7  1  0.75326791  0.74953800  0.50000000  1
  O  O8  1  -0.00000000  -0.00000000  0.50000000  1
  O  O9  1  -0.00000000  0.50000000  0.50000000  1
  O  O10  1  0.50000000  -0.00000000  0.50000000  1
  O  O11  1  0.50000000  0.50000000  0.50000000  1
  O  O12  1  -0.00000000  0.19053109  -0.00000000  1
  O  O13  1  -0.00000000  0.80946891  0.00000000  1
  O  O14  1  0.50000000  0.24168040  0.00000000  1
  O  O15  1  0.50000000  0.75831960  -0.00000000  1
loop_
_geom_bond_atom_site_label_1
_geom_bond_atom_site_label_2
_geom_bond_distance
_geom_bond_site_symmetry_2
Mg0 O10 2.098032 1_555
Mg0 O10 2.098032 1_554
Mg0 O15 2.118923 1_545
Mg0 O14 2.118923 1_555
Mg0 O0 2.285416 1_555
Mg0 O2 2.285416 1_555
Mg1 O3 1.983125 1_555
Mg1 O1 1.983125 1_555
Mg1 O11 2.098032 1_555
Mg1 O11 2.098032 1_554
Mg1 O15 2.264806 1_555
Mg1 O14 2.264806 1_555
Mg2 O9 2.055757 1_555
Mg2 O4 2.078227 1_555
Mg2 O6 2.078227 1_455
Mg2 O12 2.198646 1_556
Mg2 O12 2.198646 1_555
Mg2 O8 2.327971 1_555
Mg3 O9 2.055757 1_555
Mg3 O5 2.078227 1_555
Mg3 O7 2.078227 1_455
Mg3 O13 2.198646 1_555
Mg3 O13 2.198646 1_556
Mg3 O8 2.327971 1_565
Mg4 O14 2.100563 1_556
Mg4 O14 2.100563 1_555
Mg4 O4 2.129128 1_555
Mg4 O6 2.129128 1_555
Mg4 O11 2.161715 1_555
Mg4 O10 2.222014 1_555
Mg5 O15 2.100563 1_556
Mg5 O15 2.100563 1_555
Mg5 O5 2.129128 1_555
Mg5 O7 2.129128 1_555
Mg5 O11 2.161715 1_555
Mg5 O10 2.222014 1_565
Mg6 O8 2.087598 1_555
Mg6 O0 2.104910 1_555
Mg6 O0 2.104910 1_556
Mg6 O10 2.115397 1_555
Mg6 O5 2.195957 1_545
Mg6 O4 2.195957 1_555
Mg7 O9 2.057531 1_555
Mg7 O1 2.104303 1_556
Mg7 O1 2.104303 1_555
Mg7 O11 2.145465 1_555
Mg7 O4 2.187876 1_555
Mg7 O5 2.187876 1_555
Mg8 O8 2.087598 1_655
Mg8 O2 2.104910 1_556
Mg8 O2 2.104910 1_555
Mg8 O10 2.115397 1_555
Mg8 O7 2.195957 1_545
Mg8 O6 2.195957 1_555
Mg9 O9 2.057531 1_655
Mg9 O3 2.104303 1_555
Mg9 O3 2.104303 1_556
Mg9 O11 2.145465 1_555
Mg9 O6 2.187876 1_555
Mg9 O7 2.187876 1_555
Mg10 O1 2.089875 1_555
Mg10 O4 2.101182 1_554
Mg10 O4 2.101182 1_555
Mg10 O12 2.126731 1_555
Mg10 O14 2.180066 1_555
Mg10 O0 2.305212 1_555
Mg11 O1 2.089875 1_555
Mg11 O5 2.101182 1_554
Mg11 O5 2.101182 1_555
Mg11 O13 2.126731 1_555
Mg11 O15 2.180066 1_555
Mg11 O0 2.305212 1_565
Mg12 O3 2.089875 1_555
Mg12 O6 2.101182 1_555
Mg12 O6 2.101182 1_554
Mg12 O12 2.126731 1_655
Mg12 O14 2.180066 1_555
Mg12 O2 2.305212 1_555
Mg13 O3 2.089875 1_555
Mg13 O7 2.101182 1_555
Mg13 O7 2.101182 1_554
Mg13 O13 2.126731 1_655
Mg13 O15 2.180066 1_555
Mg13 O2 2.305212 1_565
C0 O9 2.098032 1_555
C0 O9 2.098032 1_554
O0 Si0 1.917579 1_555
O2 Si0 1.917579 1_655
O8 Si0 2.098032 1_555
O8 Si0 2.098032 1_556
O12 Si0 1.670473 1_555
O13 Si0 1.670473 1_565
