# generated using pymatgen
data_Li7Mn2(CoO4)3
_symmetry_space_group_name_H-M   'P 1'
_cell_length_a   4.98738400
_cell_length_b   6.49777968
_cell_length_c   6.81669041
_cell_angle_alpha   84.59416068
_cell_angle_beta   80.38843973
_cell_angle_gamma   82.85708951
_symmetry_Int_Tables_number   1
_chemical_formula_structural   Li7Mn2(CoO4)3
_chemical_formula_sum   'Li7 Mn2 Co3 O12'
_cell_volume   215.50662178
_cell_formula_units_Z   1
loop_
 _symmetry_equiv_pos_site_id
 _symmetry_equiv_pos_as_xyz
  1  'x, y, z'
loop_
 _atom_site_type_symbol
 _atom_site_label
 _atom_site_symmetry_multiplicity
 _atom_site_fract_x
 _atom_site_fract_y
 _atom_site_fract_z
 _atom_site_occupancy
  Li  Li0  1  0.74323600  0.74110900  0.74517100  1
  Li  Li1  1  0.75269000  0.42136500  0.08578700  1
  Li  Li2  1  0.25183400  0.90805700  0.58169100  1
  Li  Li3  1  0.24751500  0.58169400  0.91187600  1
  Li  Li4  1  0.75538600  0.08978000  0.42566500  1
  Li  Li5  1  0.25223700  0.25936300  0.24870900  1
  Li  Li6  1  0.50253200  0.50033700  0.50210200  1
  Mn  Mn0  1  0.00059500  0.00042500  0.99928600  1
  Mn  Mn1  1  0.49854500  0.17282600  0.82750700  1
  Co  Co0  1  0.99953600  0.65704200  0.34484100  1
  Co  Co1  1  0.00020300  0.33850000  0.66094600  1
  Co  Co2  1  0.50186100  0.82777200  0.17281700  1
  O  O0  1  0.85895400  0.72756100  0.03990900  1
  O  O1  1  0.88702900  0.39351600  0.36951600  1
  O  O2  1  0.36906000  0.89131000  0.87919700  1
  O  O3  1  0.34044800  0.55839800  0.21670100  1
  O  O4  1  0.85889500  0.06839400  0.70482700  1
  O  O5  1  0.36376100  0.20836300  0.57681200  1
  O  O6  1  0.65896700  0.78738500  0.43635100  1
  O  O7  1  0.63365200  0.43603500  0.79187900  1
  O  O8  1  0.14265000  0.93445300  0.29634000  1
  O  O9  1  0.10793600  0.60427400  0.62418000  1
  O  O10  1  0.62915300  0.12143900  0.09629100  1
  O  O11  1  0.14332500  0.27060200  0.96159800  1
loop_
_geom_bond_atom_site_label_1
_geom_bond_atom_site_label_2
_geom_bond_distance
_geom_bond_site_symmetry_2
Li0 O9 2.003544 1_655
Li0 O2 2.101306 1_555
Li0 O7 2.102856 1_555
Li0 O0 2.172260 1_556
Li0 O6 2.200768 1_555
Li0 O4 2.252290 1_565
Li1 O0 2.103999 1_555
Li1 O10 2.107215 1_555
Li1 O1 2.135180 1_555
Li1 O11 2.145426 1_654
Li1 O7 2.173160 1_554
Li1 O3 2.213172 1_555
Li2 O5 2.091134 1_565
Li2 O8 2.092169 1_555
Li2 O9 2.161123 1_555
Li2 O4 2.176753 1_465
Li2 O6 2.190447 1_555
Li2 O2 2.192032 1_555
Li3 O7 2.107174 1_555
Li3 O11 2.131737 1_555
Li3 O0 2.133029 1_456
Li3 O2 2.153660 1_555
Li3 O9 2.174501 1_555
Li3 O3 2.190957 1_556
Li4 O4 2.041436 1_555
Li4 O6 2.072120 1_545
Li4 O1 2.137450 1_555
Li4 O5 2.138575 1_555
Li4 O8 2.154187 1_645
Li4 O10 2.415074 1_555
Li5 O1 1.998786 1_455
Li5 O3 2.029114 1_555
Li5 O11 2.109269 1_554
Li5 O10 2.126187 1_555
Li5 O8 2.227065 1_545
Li5 O5 2.377266 1_555
Li6 O1 2.045574 1_555
Li6 O9 2.061581 1_555
Li6 O5 2.089129 1_555
Li6 O6 2.091909 1_555
Li6 O7 2.170717 1_555
Li6 O3 2.211735 1_555
Mn0 O10 1.952958 1_456
Mn0 O11 1.954334 1_555
Mn0 O2 1.957766 1_545
Mn0 O0 1.967974 1_446
Mn0 O4 2.225430 1_455
Mn0 O8 2.241878 1_546
Mn1 O7 1.895193 1_555
Mn1 O11 1.914815 1_555
Mn1 O4 1.921329 1_555
Mn1 O5 1.922559 1_555
Mn1 O2 1.995902 1_545
Mn1 O10 2.030273 1_556
Co0 O6 1.838332 1_555
Co0 O3 1.844783 1_655
Co0 O1 1.851591 1_555
Co0 O8 1.999211 1_655
Co0 O9 2.051915 1_655
Co0 O0 2.291193 1_555
Co1 O9 1.854204 1_555
Co1 O5 1.922104 1_555
Co1 O4 1.950587 1_455
Co1 O7 1.952922 1_455
Co1 O1 2.140882 1_455
Co1 O11 2.268093 1_555
Co2 O8 1.922618 1_555
Co2 O0 1.923688 1_555
Co2 O3 1.993130 1_555
Co2 O6 2.059139 1_555
Co2 O10 2.078328 1_565
Co2 O2 2.198678 1_554
