# generated using pymatgen
data_Li4Mn3CoO8
_symmetry_space_group_name_H-M   'P 1'
_cell_length_a   5.06472292
_cell_length_b   5.15331928
_cell_length_c   6.16385833
_cell_angle_alpha   102.75164953
_cell_angle_beta   93.82566629
_cell_angle_gamma   101.58967046
_symmetry_Int_Tables_number   1
_chemical_formula_structural   Li4Mn3CoO8
_chemical_formula_sum   'Li4 Mn3 Co1 O8'
_cell_volume   152.66844356
_cell_formula_units_Z   1
loop_
 _symmetry_equiv_pos_site_id
 _symmetry_equiv_pos_as_xyz
  1  'x, y, z'
loop_
 _atom_site_type_symbol
 _atom_site_label
 _atom_site_symmetry_multiplicity
 _atom_site_fract_x
 _atom_site_fract_y
 _atom_site_fract_z
 _atom_site_occupancy
  Li  Li0  1  0.76247400  0.49576000  0.12133600  1
  Li  Li1  1  0.23755300  0.50432500  0.87861800  1
  Li  Li2  1  0.74209200  0.51200300  0.64067000  1
  Li  Li3  1  0.25790900  0.48800900  0.35931700  1
  Mn  Mn0  1  0.99995800  0.99986400  0.50004900  1
  Mn  Mn1  1  0.49956100  0.99157300  0.24799100  1
  Mn  Mn2  1  0.50048500  0.00839000  0.75201300  1
  Co  Co0  1  0.99997800  0.00005600  0.00004300  1
  O  O0  1  0.85764100  0.24229100  0.81404400  1
  O  O1  1  0.14237500  0.75778600  0.18593400  1
  O  O2  1  0.87068300  0.21561400  0.30215100  1
  O  O3  1  0.12937200  0.78427300  0.69792800  1
  O  O4  1  0.36145600  0.22516300  0.07030300  1
  O  O5  1  0.63858100  0.77497800  0.92964100  1
  O  O6  1  0.36437300  0.23279100  0.56806700  1
  O  O7  1  0.63551000  0.76712400  0.43189500  1
loop_
_geom_bond_atom_site_label_1
_geom_bond_atom_site_label_2
_geom_bond_distance
_geom_bond_site_symmetry_2
Li0 O1 2.073762 1_655
Li0 O2 2.138557 1_555
Li0 O4 2.179851 1_555
Li0 O0 2.192882 1_554
Li0 O5 2.207870 1_554
Li0 O7 2.318891 1_555
Li1 O0 2.073825 1_455
Li1 O3 2.137144 1_555
Li1 O5 2.180017 1_555
Li1 O1 2.192996 1_556
Li1 O4 2.207610 1_556
Li1 O6 2.318943 1_555
Li2 O0 2.077363 1_555
Li2 O6 2.103767 1_555
Li2 O3 2.126921 1_655
Li2 O7 2.148307 1_555
Li2 O5 2.151387 1_555
Li2 O2 2.506995 1_555
Li3 O1 2.077651 1_555
Li3 O7 2.103087 1_555
Li3 O2 2.127013 1_455
Li3 O6 2.148394 1_555
Li3 O4 2.151322 1_555
Li3 O3 2.506973 1_555
Mn0 O7 1.951063 1_555
Mn0 O6 1.951278 1_665
Mn0 O3 1.983870 1_655
Mn0 O2 1.984295 1_565
Mn0 O0 2.303636 1_565
Mn0 O1 2.303673 1_655
Mn1 O1 1.923267 1_555
Mn1 O2 1.962550 1_565
Mn1 O7 1.972702 1_555
Mn1 O4 1.988959 1_565
Mn1 O5 2.263925 1_554
Mn1 O6 2.312136 1_565
Mn2 O0 1.923376 1_555
Mn2 O3 1.962664 1_545
Mn2 O6 1.973039 1_555
Mn2 O5 1.987963 1_545
Mn2 O4 2.263993 1_556
Mn2 O7 2.312052 1_545
Co0 O5 1.924244 1_544
Co0 O4 1.924607 1_655
Co0 O1 2.067552 1_645
Co0 O0 2.067719 1_554
Co0 O2 2.161534 1_555
Co0 O3 2.162246 1_644
