# generated using pymatgen
data_CaP
_symmetry_space_group_name_H-M   'P 1'
_cell_length_a   7.65361331
_cell_length_b   7.65361271
_cell_length_c   5.72148439
_cell_angle_alpha   90.00000000
_cell_angle_beta   90.00000000
_cell_angle_gamma   120.00000711
_symmetry_Int_Tables_number   1
_chemical_formula_structural   CaP
_chemical_formula_sum   'Ca6 P6'
_cell_volume   290.25005887
_cell_formula_units_Z   6
loop_
 _symmetry_equiv_pos_site_id
 _symmetry_equiv_pos_as_xyz
  1  'x, y, z'
loop_
 _atom_site_type_symbol
 _atom_site_label
 _atom_site_symmetry_multiplicity
 _atom_site_fract_x
 _atom_site_fract_y
 _atom_site_fract_z
 _atom_site_occupancy
  Ca  Ca0  1  -0.00000000  0.64259831  0.50000000  1
  Ca  Ca1  1  0.35740169  0.35740169  0.50000000  1
  Ca  Ca2  1  0.64259831  -0.00000000  0.50000000  1
  Ca  Ca3  1  -0.00000000  0.30822097  0.00000000  1
  Ca  Ca4  1  0.69177903  0.69177903  0.00000000  1
  Ca  Ca5  1  0.30822097  -0.00000000  0.00000000  1
  P  P0  1  0.66666700  0.33333300  0.20044715  1
  P  P1  1  0.66666700  0.33333300  0.79955285  1
  P  P2  1  0.33333300  0.66666700  0.79955285  1
  P  P3  1  0.33333300  0.66666700  0.20044715  1
  P  P4  1  0.00000000  0.00000000  0.69531207  1
  P  P5  1  0.00000000  0.00000000  0.30468793  1
loop_
_geom_bond_atom_site_label_1
_geom_bond_atom_site_label_2
_geom_bond_distance
_geom_bond_site_symmetry_2
Ca0 P4 2.954867 1_565
Ca0 P5 2.954867 1_565
Ca0 P3 3.001668 1_555
Ca0 P2 3.001668 1_555
Ca0 P0 3.001670 1_455
Ca0 P1 3.001670 1_455
Ca1 P5 2.954867 1_555
Ca1 P4 2.954867 1_555
Ca1 P3 3.001674 1_555
Ca1 P2 3.001674 1_555
Ca1 P0 3.001674 1_555
Ca1 P1 3.001674 1_555
Ca2 P4 2.954867 1_655
Ca2 P5 2.954867 1_655
Ca2 P1 3.001668 1_555
Ca2 P0 3.001668 1_555
Ca2 P3 3.001670 1_545
Ca2 P2 3.001670 1_545
Ca3 P1 2.889841 1_454
Ca3 P0 2.889841 1_455
Ca3 P2 2.889845 1_554
Ca3 P3 2.889845 1_555
Ca3 P5 2.933237 1_555
Ca3 P4 2.933237 1_554
Ca4 P0 2.889848 1_555
Ca4 P1 2.889848 1_554
Ca4 P2 2.889848 1_554
Ca4 P3 2.889848 1_555
Ca4 P4 2.933237 1_664
Ca4 P5 2.933237 1_665
Ca5 P3 2.889841 1_545
Ca5 P2 2.889841 1_544
Ca5 P1 2.889845 1_554
Ca5 P0 2.889845 1_555
Ca5 P5 2.933237 1_555
Ca5 P4 2.933237 1_554
P0 P1 2.293710 1_554
P2 P3 2.293710 1_556
P4 P5 2.234950 1_555
