# generated using pymatgen
data_Ti(TlS2)2
_symmetry_space_group_name_H-M   'P 1'
_cell_length_a   6.49283900
_cell_length_b   9.58756100
_cell_length_c   23.11507300
_cell_angle_alpha   90.00000000
_cell_angle_beta   90.00000000
_cell_angle_gamma   90.00000000
_symmetry_Int_Tables_number   1
_chemical_formula_structural   Ti(TlS2)2
_chemical_formula_sum   'Ti8 Tl16 S32'
_cell_volume   1438.92462007
_cell_formula_units_Z   8
loop_
 _symmetry_equiv_pos_site_id
 _symmetry_equiv_pos_as_xyz
  1  'x, y, z'
loop_
 _atom_site_type_symbol
 _atom_site_label
 _atom_site_symmetry_multiplicity
 _atom_site_fract_x
 _atom_site_fract_y
 _atom_site_fract_z
 _atom_site_occupancy
  Ti  Ti0  1  0.46312700  0.82229100  0.12700400  1
  Ti  Ti1  1  0.96312700  0.17770900  0.37299600  1
  Ti  Ti2  1  0.03687300  0.32229100  0.87299600  1
  Ti  Ti3  1  0.53687300  0.67770900  0.62700400  1
  Ti  Ti4  1  0.53687300  0.17770900  0.87299600  1
  Ti  Ti5  1  0.03687300  0.82229100  0.62700400  1
  Ti  Ti6  1  0.96312700  0.67770900  0.12700400  1
  Ti  Ti7  1  0.46312700  0.32229100  0.37299600  1
  Tl  Tl0  1  0.17394800  0.13787400  0.03966900  1
  Tl  Tl1  1  0.67394800  0.86212600  0.46033100  1
  Tl  Tl2  1  0.32605200  0.63787400  0.96033100  1
  Tl  Tl3  1  0.82605200  0.36212600  0.53966900  1
  Tl  Tl4  1  0.82605200  0.86212600  0.96033100  1
  Tl  Tl5  1  0.32605200  0.13787400  0.53966900  1
  Tl  Tl6  1  0.67394800  0.36212600  0.03966900  1
  Tl  Tl7  1  0.17394800  0.63787400  0.46033100  1
  Tl  Tl8  1  0.89675300  0.06896500  0.20067200  1
  Tl  Tl9  1  0.39675300  0.93103500  0.29932800  1
  Tl  Tl10  1  0.60324700  0.56896500  0.79932800  1
  Tl  Tl11  1  0.10324700  0.43103500  0.70067200  1
  Tl  Tl12  1  0.10324700  0.93103500  0.79932800  1
  Tl  Tl13  1  0.60324700  0.06896500  0.70067200  1
  Tl  Tl14  1  0.39675300  0.43103500  0.20067200  1
  Tl  Tl15  1  0.89675300  0.56896500  0.29932800  1
  S  S0  1  0.60440500  0.03823100  0.08785100  1
  S  S1  1  0.10440500  0.96176900  0.41214900  1
  S  S2  1  0.89559500  0.53823100  0.91214900  1
  S  S3  1  0.39559500  0.46176900  0.58785100  1
  S  S4  1  0.39559500  0.96176900  0.91214900  1
  S  S5  1  0.89559500  0.03823100  0.58785100  1
  S  S6  1  0.10440500  0.46176900  0.08785100  1
  S  S7  1  0.60440500  0.53823100  0.41214900  1
  S  S8  1  0.16172900  0.81604100  0.06194800  1
  S  S9  1  0.66172900  0.18395900  0.43805200  1
  S  S10  1  0.33827100  0.31604100  0.93805200  1
  S  S11  1  0.83827100  0.68395900  0.56194800  1
  S  S12  1  0.83827100  0.18395900  0.93805200  1
  S  S13  1  0.33827100  0.81604100  0.56194800  1
  S  S14  1  0.66172900  0.68395900  0.06194800  1
  S  S15  1  0.16172900  0.31604100  0.43805200  1
  S  S16  1  0.22069400  0.72973600  0.19735600  1
  S  S17  1  0.72069400  0.27026400  0.30264400  1
  S  S18  1  0.27930600  0.22973600  0.80264400  1
  S  S19  1  0.77930600  0.77026400  0.69735600  1
  S  S20  1  0.77930600  0.27026400  0.80264400  1
  S  S21  1  0.27930600  0.72973600  0.69735600  1
  S  S22  1  0.72069400  0.77026400  0.19735600  1
  S  S23  1  0.22069400  0.22973600  0.30264400  1
  S  S24  1  0.42011900  0.56640400  0.33923100  1
  S  S25  1  0.92011900  0.43359600  0.16076900  1
  S  S26  1  0.07988100  0.06640400  0.66076900  1
  S  S27  1  0.57988100  0.93359600  0.83923100  1
  S  S28  1  0.57988100  0.43359600  0.66076900  1
  S  S29  1  0.07988100  0.56640400  0.83923100  1
  S  S30  1  0.92011900  0.93359600  0.33923100  1
  S  S31  1  0.42011900  0.06640400  0.16076900  1
loop_
_geom_bond_atom_site_label_1
_geom_bond_atom_site_label_2
_geom_bond_distance
_geom_bond_site_symmetry_2
S0 S31 2.084609 1_555
S0 Ti0 2.438606 1_545
S0 Tl0 3.156653 1_555
S0 Tl8 3.238956 1_555
S1 S30 2.084609 1_455
S1 Ti1 2.438606 1_465
S1 Tl1 3.156653 1_455
S1 Tl9 3.238956 1_555
S2 S29 2.084609 1_655
S2 Ti2 2.438606 1_655
S2 Tl2 3.156653 1_655
S2 Tl10 3.238956 1_555
S3 Ti3 2.438606 1_555
S3 Tl3 3.156653 1_555
S3 Tl11 3.238956 1_555
S4 Ti4 2.438606 1_565
S4 Tl4 3.156653 1_555
S4 Tl12 3.238956 1_555
S5 Ti5 2.438606 1_645
S5 Tl5 3.156653 1_655
S5 Tl13 3.238956 1_555
S6 Ti6 2.438606 1_455
S6 Tl6 3.156653 1_455
S6 Tl14 3.238956 1_555
S7 Ti7 2.438606 1_555
S7 Tl7 3.156653 1_555
S7 Tl15 3.238956 1_555
S8 Ti6 2.383927 1_455
S8 Ti0 2.468704 1_555
S8 Tl2 3.094105 1_554
S8 Tl0 3.129279 1_565
S8 Tl4 3.234608 1_454
S9 Ti7 2.383927 1_555
S9 Ti1 2.468704 1_555
S9 Tl3 3.094105 1_555
S9 Tl1 3.129279 1_545
S9 Tl5 3.234608 1_555
S10 Ti4 2.383927 1_555
S10 Ti2 2.468704 1_555
S10 Tl0 3.094105 1_556
S10 Tl2 3.129279 1_555
S10 Tl6 3.234608 1_556
S11 Ti5 2.383927 1_655
S11 Ti3 2.468704 1_555
S11 Tl1 3.094105 1_555
S11 Tl3 3.129279 1_555
S11 Tl7 3.234608 1_655
S12 Ti2 2.383927 1_655
S12 Ti4 2.468704 1_555
S12 Tl6 3.094105 1_556
S12 Tl4 3.129279 1_545
S12 Tl0 3.234608 1_656
S13 Ti3 2.383927 1_555
S13 Ti5 2.468704 1_555
S13 Tl7 3.094105 1_555
S13 Tl5 3.129279 1_565
S13 Tl1 3.234608 1_555
S14 Ti0 2.383927 1_555
S14 Ti6 2.468704 1_555
S14 Tl4 3.094105 1_554
S14 Tl6 3.129279 1_555
S14 Tl2 3.234608 1_554
S15 Ti1 2.383927 1_455
S15 Ti7 2.468704 1_555
S15 Tl5 3.094105 1_555
S15 Tl7 3.129279 1_555
S15 Tl3 3.234608 1_455
S16 Ti6 2.385380 1_455
S16 Ti0 2.430979 1_555
S16 Tl14 3.084483 1_555
S16 Tl9 3.253825 1_555
S17 Ti7 2.385380 1_555
S17 Ti1 2.430979 1_555
S17 Tl15 3.084483 1_555
S17 Tl8 3.253825 1_555
S18 Ti4 2.385380 1_555
S18 Ti2 2.430979 1_555
S18 Tl12 3.084483 1_545
S18 Tl11 3.253825 1_555
S19 Ti5 2.385380 1_655
S19 Ti3 2.430979 1_555
S19 Tl13 3.084483 1_565
S19 Tl10 3.253825 1_555
S20 Ti2 2.385380 1_655
S20 Ti4 2.430979 1_555
S20 Tl10 3.084483 1_555
S20 Tl13 3.253825 1_555
S21 Ti3 2.385380 1_555
S21 Ti5 2.430979 1_555
S21 Tl11 3.084483 1_555
S21 Tl12 3.253825 1_555
S22 Ti0 2.385380 1_555
S22 Ti6 2.430979 1_555
S22 Tl8 3.084483 1_565
S22 Tl15 3.253825 1_555
S23 Ti1 2.385380 1_455
S23 Ti7 2.430979 1_555
S23 Tl9 3.084483 1_545
S23 Tl14 3.253825 1_555
S24 S7 2.084609 1_555
S24 Ti7 2.482907 1_555
S24 Tl15 3.229329 1_555
S25 S6 2.084609 1_655
S25 Ti6 2.482907 1_555
S25 Tl14 3.229329 1_655
S26 S5 2.084609 1_455
S26 Ti5 2.482907 1_545
S26 Tl13 3.229329 1_455
S27 S4 2.084609 1_555
S27 Ti4 2.482907 1_565
S27 Tl12 3.229329 1_555
S28 S3 2.084609 1_555
S28 Ti3 2.482907 1_555
S28 Tl11 3.229329 1_555
S29 Ti2 2.482907 1_555
S29 Tl10 3.229329 1_455
S30 Ti1 2.482907 1_565
S30 Tl9 3.229329 1_655
S31 Ti0 2.482907 1_545
S31 Tl8 3.229329 1_555
