# generated using pymatgen
data_SrPrScO4
_symmetry_space_group_name_H-M   'P 1'
_cell_length_a   6.92509332
_cell_length_b   6.92509332
_cell_length_c   6.92509332
_cell_angle_alpha   146.04909229
_cell_angle_beta   146.04909229
_cell_angle_gamma   48.77385017
_symmetry_Int_Tables_number   1
_chemical_formula_structural   SrPrScO4
_chemical_formula_sum   'Sr1 Pr1 Sc1 O4'
_cell_volume   103.13402991
_cell_formula_units_Z   1
loop_
 _symmetry_equiv_pos_site_id
 _symmetry_equiv_pos_as_xyz
  1  'x, y, z'
loop_
 _atom_site_type_symbol
 _atom_site_label
 _atom_site_symmetry_multiplicity
 _atom_site_fract_x
 _atom_site_fract_y
 _atom_site_fract_z
 _atom_site_occupancy
  Sr  Sr0  1  0.64679300  0.64679300  0.00000000  1
  Pr  Pr0  1  0.36108600  0.36108600  0.00000000  1
  Sc  Sc0  1  0.00491300  0.00491300  0.00000000  1
  O  O0  1  0.48999300  0.98999300  0.50000000  1
  O  O1  1  0.98999300  0.48999300  0.50000000  1
  O  O2  1  0.83122100  0.83122100  0.00000000  1
  O  O3  1  0.17600000  0.17600000  0.00000000  1
loop_
_geom_bond_atom_site_label_1
_geom_bond_atom_site_label_2
_geom_bond_distance
_geom_bond_site_symmetry_2
O0 Sc0 2.030605 1_666
O0 Sc0 2.030605 1_565
O0 Pr0 2.594630 1_566
O0 Pr0 2.594630 1_555
O0 Sr0 2.828462 1_555
O0 Sr0 2.828462 1_566
O1 Sc0 2.030605 1_655
O1 Sc0 2.030605 1_666
O1 Pr0 2.594630 1_656
O1 Pr0 2.594630 1_555
O1 Sr0 2.828462 1_555
O1 Sr0 2.828462 1_656
O2 Sc0 2.191028 1_665
O2 Sr0 2.326457 1_555
O2 Pr0 2.884059 1_565
O2 Pr0 2.884059 1_666
O2 Pr0 2.884059 1_554
O2 Pr0 2.884059 1_655
O3 Sc0 2.158167 1_555
O3 Pr0 2.334757 1_555
O3 Sr0 2.882986 1_455
O3 Sr0 2.882986 1_444
O3 Sr0 2.882986 1_545
O3 Sr0 2.882986 1_556
