# generated using pymatgen
data_Ce(SiIr)2
_symmetry_space_group_name_H-M   'P 1'
_cell_length_a   5.87228455
_cell_length_b   5.87228455
_cell_length_c   5.87228455
_cell_angle_alpha   138.18065769
_cell_angle_beta   138.18065769
_cell_angle_gamma   60.62642539
_symmetry_Int_Tables_number   1
_chemical_formula_structural   Ce(SiIr)2
_chemical_formula_sum   'Ce1 Si2 Ir2'
_cell_volume   89.06665082
_cell_formula_units_Z   1
loop_
 _symmetry_equiv_pos_site_id
 _symmetry_equiv_pos_as_xyz
  1  'x, y, z'
loop_
 _atom_site_type_symbol
 _atom_site_label
 _atom_site_symmetry_multiplicity
 _atom_site_fract_x
 _atom_site_fract_y
 _atom_site_fract_z
 _atom_site_occupancy
  Ce  Ce0  1  0.00000000  0.00000000  0.00000000  1
  Si  Si0  1  0.75000000  0.25000000  0.50000000  1
  Si  Si1  1  0.25000000  0.75000000  0.50000000  1
  Ir  Ir0  1  0.63327500  0.63327500  0.00000000  1
  Ir  Ir1  1  0.36672500  0.36672500  0.00000000  1
loop_
_geom_bond_atom_site_label_1
_geom_bond_atom_site_label_2
_geom_bond_distance
_geom_bond_site_symmetry_2
Ce0 Ir1 3.257389 1_556
Ce0 Ir0 3.257389 1_444
Ce0 Ir1 3.257389 1_444
Ce0 Ir0 3.257389 1_545
Ce0 Ir0 3.257389 1_556
Ce0 Ir1 3.257389 1_545
Ce0 Ir0 3.257389 1_455
Ce0 Ir1 3.257389 1_455
Ce0 Si0 3.288937 1_555
Ce0 Si1 3.288937 1_444
Ce0 Si0 3.288937 1_455
Ce0 Si0 3.288937 1_454
Ce0 Si0 3.288937 1_444
Ce0 Si1 3.288937 1_555
Ce0 Si1 3.288937 1_544
Ce0 Si1 3.288937 1_545
Ir0 Si1 2.406848 1_554
Ir0 Si1 2.406848 1_655
Ir0 Si0 2.406848 1_565
Ir0 Si0 2.406848 1_554
Ir1 Si0 2.406848 1_454
Ir1 Si1 2.406848 1_544
Ir1 Si0 2.406848 1_555
Ir1 Si1 2.406848 1_555
