# generated using pymatgen
data_Mg14BiCO16
_symmetry_space_group_name_H-M   'P 1'
_cell_length_a   8.73564091
_cell_length_b   8.73564091
_cell_length_c   4.36217417
_cell_angle_alpha   90.00000000
_cell_angle_beta   90.00000000
_cell_angle_gamma   90.00000000
_symmetry_Int_Tables_number   1
_chemical_formula_structural   Mg14BiCO16
_chemical_formula_sum   'Mg14 Bi1 C1 O16'
_cell_volume   332.88371440
_cell_formula_units_Z   1
loop_
 _symmetry_equiv_pos_site_id
 _symmetry_equiv_pos_as_xyz
  1  'x, y, z'
loop_
 _atom_site_type_symbol
 _atom_site_label
 _atom_site_symmetry_multiplicity
 _atom_site_fract_x
 _atom_site_fract_y
 _atom_site_fract_z
 _atom_site_occupancy
  Mg  Mg0  1  0.00000000  0.50000000  0.00000000  1
  Mg  Mg1  1  0.50000000  0.00000000  0.00000000  1
  Mg  Mg2  1  0.00000000  0.24289446  0.50000000  1
  Mg  Mg3  1  0.00000000  0.75710554  0.50000000  1
  Mg  Mg4  1  0.50000000  0.23257382  0.50000000  1
  Mg  Mg5  1  0.50000000  0.76742618  0.50000000  1
  Mg  Mg6  1  0.24289446  0.00000000  0.50000000  1
  Mg  Mg7  1  0.23257382  0.50000000  0.50000000  1
  Mg  Mg8  1  0.75710554  -0.00000000  0.50000000  1
  Mg  Mg9  1  0.76742618  0.50000000  0.50000000  1
  Mg  Mg10  1  0.23579956  0.23579956  0.00000000  1
  Mg  Mg11  1  0.23579956  0.76420044  0.00000000  1
  Mg  Mg12  1  0.76420044  0.23579956  -0.00000000  1
  Mg  Mg13  1  0.76420044  0.76420044  0.00000000  1
  Bi  Bi0  1  0.50000000  0.50000000  0.00000000  1
  C  C0  1  0.00000000  0.00000000  0.00000000  1
  O  O0  1  0.26583621  -0.00000000  0.00000000  1
  O  O1  1  0.23457321  0.50000000  0.00000000  1
  O  O2  1  0.73416379  0.00000000  -0.00000000  1
  O  O3  1  0.76542679  0.50000000  0.00000000  1
  O  O4  1  0.25045519  0.25045519  0.50000000  1
  O  O5  1  0.25045519  0.74954481  0.50000000  1
  O  O6  1  0.74954481  0.25045519  0.50000000  1
  O  O7  1  0.74954481  0.74954481  0.50000000  1
  O  O8  1  0.00000000  0.00000000  0.50000000  1
  O  O9  1  0.00000000  0.50000000  0.50000000  1
  O  O10  1  0.50000000  0.00000000  0.50000000  1
  O  O11  1  0.50000000  0.50000000  0.50000000  1
  O  O12  1  0.00000000  0.26583621  0.00000000  1
  O  O13  1  0.00000000  0.73416379  0.00000000  1
  O  O14  1  0.50000000  0.23457321  0.00000000  1
  O  O15  1  0.50000000  0.76542679  0.00000000  1
loop_
_geom_bond_atom_site_label_1
_geom_bond_atom_site_label_2
_geom_bond_distance
_geom_bond_site_symmetry_2
Mg0 O12 2.045571 1_555
Mg0 O13 2.045571 1_555
Mg0 O1 2.049147 1_555
Mg0 O3 2.049147 1_455
Mg0 O9 2.181087 1_554
Mg0 O9 2.181087 1_555
Mg1 O0 2.045571 1_555
Mg1 O2 2.045571 1_555
Mg1 O15 2.049147 1_545
Mg1 O14 2.049147 1_555
Mg1 O10 2.181087 1_555
Mg1 O10 2.181087 1_554
Mg2 O8 2.121839 1_555
Mg2 O6 2.188883 1_455
Mg2 O4 2.188883 1_555
Mg2 O12 2.190275 1_556
Mg2 O12 2.190275 1_555
Mg2 O9 2.245982 1_555
Mg3 O8 2.121839 1_565
Mg3 O7 2.188883 1_455
Mg3 O5 2.188883 1_555
Mg3 O13 2.190275 1_555
Mg3 O13 2.190275 1_556
Mg3 O9 2.245982 1_555
Mg4 O10 2.031681 1_555
Mg4 O14 2.181157 1_556
Mg4 O14 2.181157 1_555
Mg4 O4 2.185523 1_555
Mg4 O6 2.185523 1_555
Mg4 O11 2.336139 1_555
Mg5 O10 2.031681 1_565
Mg5 O15 2.181157 1_556
Mg5 O15 2.181157 1_555
Mg5 O5 2.185523 1_555
Mg5 O7 2.185523 1_555
Mg5 O11 2.336139 1_555
Mg6 O8 2.121839 1_555
Mg6 O5 2.188883 1_545
Mg6 O4 2.188883 1_555
Mg6 O0 2.190275 1_556
Mg6 O0 2.190275 1_555
Mg6 O10 2.245982 1_555
Mg7 O9 2.031681 1_555
Mg7 O1 2.181157 1_556
Mg7 O1 2.181157 1_555
Mg7 O4 2.185523 1_555
Mg7 O5 2.185523 1_555
Mg7 O11 2.336139 1_555
Mg8 O8 2.121839 1_655
Mg8 O7 2.188883 1_545
Mg8 O6 2.188883 1_555
Mg8 O2 2.190275 1_555
Mg8 O2 2.190275 1_556
Mg8 O10 2.245982 1_555
Mg9 O9 2.031681 1_655
Mg9 O3 2.181157 1_556
Mg9 O3 2.181157 1_555
Mg9 O6 2.185523 1_555
Mg9 O7 2.185523 1_555
Mg9 O11 2.336139 1_555
Mg10 O0 2.076505 1_555
Mg10 O12 2.076505 1_555
Mg10 O4 2.188589 1_554
Mg10 O4 2.188589 1_555
Mg10 O1 2.307985 1_555
Mg10 O14 2.307985 1_555
Mg11 O13 2.076505 1_555
Mg11 O0 2.076505 1_565
Mg11 O5 2.188589 1_554
Mg11 O5 2.188589 1_555
Mg11 O1 2.307985 1_555
Mg11 O15 2.307985 1_555
Mg12 O2 2.076505 1_555
Mg12 O12 2.076505 1_655
Mg12 O6 2.188589 1_554
Mg12 O6 2.188589 1_555
Mg12 O3 2.307985 1_555
Mg12 O14 2.307985 1_555
Mg13 O13 2.076505 1_655
Mg13 O2 2.076505 1_565
Mg13 O7 2.188589 1_554
Mg13 O7 2.188589 1_555
Mg13 O3 2.307985 1_555
Mg13 O15 2.307985 1_555
Bi0 O11 2.181087 1_554
Bi0 O11 2.181087 1_555
Bi0 O3 2.318673 1_555
Bi0 O1 2.318673 1_555
Bi0 O14 2.318673 1_555
Bi0 O15 2.318673 1_555
