# generated using pymatgen
data_SrHfMg14O16
_symmetry_space_group_name_H-M   'P 1'
_cell_length_a   8.77231344
_cell_length_b   8.77231344
_cell_length_c   4.45188128
_cell_angle_alpha   90.00000000
_cell_angle_beta   90.00000000
_cell_angle_gamma   90.00000000
_symmetry_Int_Tables_number   1
_chemical_formula_structural   SrHfMg14O16
_chemical_formula_sum   'Sr1 Hf1 Mg14 O16'
_cell_volume   342.58777080
_cell_formula_units_Z   1
loop_
 _symmetry_equiv_pos_site_id
 _symmetry_equiv_pos_as_xyz
  1  'x, y, z'
loop_
 _atom_site_type_symbol
 _atom_site_label
 _atom_site_symmetry_multiplicity
 _atom_site_fract_x
 _atom_site_fract_y
 _atom_site_fract_z
 _atom_site_occupancy
  Sr  Sr0  1  -0.00000000  0.00000000  0.00000000  1
  Hf  Hf0  1  0.50000000  0.50000000  0.00000000  1
  Mg  Mg0  1  -0.00000000  0.50000000  0.00000000  1
  Mg  Mg1  1  0.50000000  0.00000000  0.00000000  1
  Mg  Mg2  1  -0.00000000  0.25845666  0.50000000  1
  Mg  Mg3  1  -0.00000000  0.74154334  0.50000000  1
  Mg  Mg4  1  0.50000000  0.24451071  0.50000000  1
  Mg  Mg5  1  0.50000000  0.75548929  0.50000000  1
  Mg  Mg6  1  0.25845666  0.00000000  0.50000000  1
  Mg  Mg7  1  0.24451071  0.50000000  0.50000000  1
  Mg  Mg8  1  0.74154334  0.00000000  0.50000000  1
  Mg  Mg9  1  0.75548929  0.50000000  0.50000000  1
  Mg  Mg10  1  0.24962446  0.24962446  0.00000000  1
  Mg  Mg11  1  0.24962446  0.75037554  -0.00000000  1
  Mg  Mg12  1  0.75037554  0.24962446  0.00000000  1
  Mg  Mg13  1  0.75037554  0.75037554  -0.00000000  1
  O  O0  1  0.27148652  0.00000000  0.00000000  1
  O  O1  1  0.25042185  0.50000000  0.00000000  1
  O  O2  1  0.72851348  0.00000000  0.00000000  1
  O  O3  1  0.74957815  0.50000000  0.00000000  1
  O  O4  1  0.24972732  0.24972732  0.50000000  1
  O  O5  1  0.24972732  0.75027268  0.50000000  1
  O  O6  1  0.75027268  0.24972732  0.50000000  1
  O  O7  1  0.75027268  0.75027268  0.50000000  1
  O  O8  1  -0.00000000  0.00000000  0.50000000  1
  O  O9  1  -0.00000000  0.50000000  0.50000000  1
  O  O10  1  0.50000000  0.00000000  0.50000000  1
  O  O11  1  0.50000000  0.50000000  0.50000000  1
  O  O12  1  -0.00000000  0.27148652  -0.00000000  1
  O  O13  1  -0.00000000  0.72851348  0.00000000  1
  O  O14  1  0.50000000  0.25042185  0.00000000  1
  O  O15  1  0.50000000  0.74957815  -0.00000000  1
loop_
_geom_bond_atom_site_label_1
_geom_bond_atom_site_label_2
_geom_bond_distance
_geom_bond_site_symmetry_2
Hf0 O1 2.189378 1_555
Hf0 O14 2.189378 1_555
Hf0 O15 2.189378 1_555
Hf0 O3 2.189378 1_555
Hf0 O11 2.225941 1_554
Hf0 O11 2.225941 1_555
Mg0 O12 2.004592 1_555
Mg0 O13 2.004592 1_555
Mg0 O3 2.196779 1_455
Mg0 O1 2.196779 1_555
Mg0 O9 2.225941 1_554
Mg0 O9 2.225941 1_555
Mg1 O0 2.004592 1_555
Mg1 O2 2.004592 1_555
Mg1 O15 2.196779 1_545
Mg1 O14 2.196779 1_555
Mg1 O10 2.225941 1_555
Mg1 O10 2.225941 1_554
Mg2 O9 2.118894 1_555
Mg2 O4 2.192024 1_555
Mg2 O6 2.192024 1_455
Mg2 O12 2.228873 1_556
Mg2 O12 2.228873 1_555
Mg2 O8 2.267263 1_555
Mg3 O9 2.118894 1_555
Mg3 O7 2.192024 1_455
Mg3 O5 2.192024 1_555
Mg3 O13 2.228873 1_555
Mg3 O13 2.228873 1_556
Mg3 O8 2.267263 1_565
Mg4 O10 2.144925 1_555
Mg4 O6 2.195947 1_555
Mg4 O4 2.195947 1_555
Mg4 O14 2.226545 1_556
Mg4 O14 2.226545 1_555
Mg4 O11 2.241232 1_555
Mg5 O10 2.144925 1_565
Mg5 O5 2.195947 1_555
Mg5 O7 2.195947 1_555
Mg5 O15 2.226545 1_556
Mg5 O15 2.226545 1_555
Mg5 O11 2.241232 1_555
Mg6 O10 2.118894 1_555
Mg6 O5 2.192024 1_545
Mg6 O4 2.192024 1_555
Mg6 O0 2.228873 1_555
Mg6 O0 2.228873 1_556
Mg6 O8 2.267263 1_555
Mg7 O9 2.144925 1_555
Mg7 O5 2.195947 1_555
Mg7 O4 2.195947 1_555
Mg7 O1 2.226545 1_556
Mg7 O1 2.226545 1_555
Mg7 O11 2.241232 1_555
Mg8 O10 2.118894 1_555
Mg8 O7 2.192024 1_545
Mg8 O6 2.192024 1_555
Mg8 O2 2.228873 1_556
Mg8 O2 2.228873 1_555
Mg8 O8 2.267263 1_655
Mg9 O9 2.144925 1_655
Mg9 O6 2.195947 1_555
Mg9 O7 2.195947 1_555
Mg9 O3 2.226545 1_556
Mg9 O3 2.226545 1_555
Mg9 O11 2.241232 1_555
Mg10 O1 2.196384 1_555
Mg10 O14 2.196384 1_555
Mg10 O0 2.198166 1_555
Mg10 O12 2.198166 1_555
Mg10 O4 2.225941 1_554
Mg10 O4 2.225941 1_555
Mg11 O1 2.196384 1_555
Mg11 O15 2.196384 1_555
Mg11 O0 2.198166 1_565
Mg11 O13 2.198166 1_555
Mg11 O5 2.225941 1_555
Mg11 O5 2.225941 1_554
Mg12 O3 2.196384 1_555
Mg12 O14 2.196384 1_555
Mg12 O12 2.198166 1_655
Mg12 O2 2.198166 1_555
Mg12 O6 2.225941 1_555
Mg12 O6 2.225941 1_554
Mg13 O3 2.196384 1_555
Mg13 O15 2.196384 1_555
Mg13 O13 2.198166 1_655
Mg13 O2 2.198166 1_565
Mg13 O7 2.225941 1_555
Mg13 O7 2.225941 1_554
O0 Sr0 2.381565 1_555
O2 Sr0 2.381565 1_655
O8 Sr0 2.225941 1_556
O8 Sr0 2.225941 1_555
O12 Sr0 2.381565 1_555
O13 Sr0 2.381565 1_565
