# generated using pymatgen
data_RbMg6BO8
_symmetry_space_group_name_H-M   'P 1'
_cell_length_a   4.62155600
_cell_length_b   4.62155600
_cell_length_c   8.61817300
_cell_angle_alpha   90.00000000
_cell_angle_beta   90.00000000
_cell_angle_gamma   90.00000000
_symmetry_Int_Tables_number   1
_chemical_formula_structural   RbMg6BO8
_chemical_formula_sum   'Rb1 Mg6 B1 O8'
_cell_volume   184.07365991
_cell_formula_units_Z   1
loop_
 _symmetry_equiv_pos_site_id
 _symmetry_equiv_pos_as_xyz
  1  'x, y, z'
loop_
 _atom_site_type_symbol
 _atom_site_label
 _atom_site_symmetry_multiplicity
 _atom_site_fract_x
 _atom_site_fract_y
 _atom_site_fract_z
 _atom_site_occupancy
  Rb  Rb0  1  0.00000000  0.00000000  0.00000000  1
  Mg  Mg0  1  0.00000000  0.00000000  0.50000000  1
  Mg  Mg1  1  0.50000000  0.50000000  0.50000000  1
  Mg  Mg2  1  0.00000000  0.50000000  0.23306900  1
  Mg  Mg3  1  0.00000000  0.50000000  0.76693100  1
  Mg  Mg4  1  0.50000000  0.00000000  0.23306900  1
  Mg  Mg5  1  0.50000000  0.00000000  0.76693100  1
  B  B0  1  0.50000000  0.50000000  0.00000000  1
  O  O0  1  0.00000000  0.00000000  0.28058100  1
  O  O1  1  0.00000000  0.00000000  0.71941900  1
  O  O2  1  0.50000000  0.50000000  0.16502000  1
  O  O3  1  0.50000000  0.50000000  0.83498000  1
  O  O4  1  0.00000000  0.50000000  0.00000000  1
  O  O5  1  0.00000000  0.50000000  0.50000000  1
  O  O6  1  0.50000000  0.00000000  0.00000000  1
  O  O7  1  0.50000000  0.00000000  0.50000000  1
loop_
_geom_bond_atom_site_label_1
_geom_bond_atom_site_label_2
_geom_bond_distance
_geom_bond_site_symmetry_2
Mg0 O0 1.890991 1_555
Mg0 O1 1.890991 1_555
Mg0 O7 2.310778 1_555
Mg0 O5 2.310778 1_545
Mg0 O5 2.310778 1_555
Mg0 O7 2.310778 1_455
Mg1 O7 2.310778 1_555
Mg1 O7 2.310778 1_565
Mg1 O5 2.310778 1_655
Mg1 O5 2.310778 1_555
Mg2 O4 2.008629 1_555
Mg2 O5 2.300458 1_555
Mg2 O0 2.346776 1_565
Mg2 O0 2.346776 1_555
Mg2 O2 2.384036 1_455
Mg2 O2 2.384036 1_555
Mg3 O4 2.008629 1_556
Mg3 O5 2.300458 1_555
Mg3 O1 2.346776 1_555
Mg3 O1 2.346776 1_565
Mg3 O3 2.384036 1_455
Mg3 O3 2.384036 1_555
Mg4 O6 2.008629 1_555
Mg4 O7 2.300458 1_555
Mg4 O0 2.346776 1_555
Mg4 O0 2.346776 1_655
Mg4 O2 2.384036 1_555
Mg4 O2 2.384036 1_545
Mg5 O6 2.008629 1_556
Mg5 O7 2.300458 1_555
Mg5 O1 2.346776 1_555
Mg5 O1 2.346776 1_655
Mg5 O3 2.384036 1_545
Mg5 O3 2.384036 1_555
B0 O3 1.422171 1_554
B0 O2 1.422171 1_555
O0 Rb0 2.418096 1_555
O1 Rb0 2.418096 1_556
O4 Rb0 2.310778 1_565
O4 Rb0 2.310778 1_555
O6 Rb0 2.310778 1_655
O6 Rb0 2.310778 1_555
