# generated using pymatgen
data_SrCu2SnS4
_symmetry_space_group_name_H-M   'P 1'
_cell_length_a   6.34658266
_cell_length_b   6.34658266
_cell_length_c   15.59178800
_cell_angle_alpha   90.00000000
_cell_angle_beta   90.00000000
_cell_angle_gamma   120.00000687
_symmetry_Int_Tables_number   1
_chemical_formula_structural   SrCu2SnS4
_chemical_formula_sum   'Sr3 Cu6 Sn3 S12'
_cell_volume   543.88415191
_cell_formula_units_Z   3
loop_
 _symmetry_equiv_pos_site_id
 _symmetry_equiv_pos_as_xyz
  1  'x, y, z'
loop_
 _atom_site_type_symbol
 _atom_site_label
 _atom_site_symmetry_multiplicity
 _atom_site_fract_x
 _atom_site_fract_y
 _atom_site_fract_z
 _atom_site_occupancy
  Sr  Sr0  1  0.56214400  0.00000000  0.83333300  1
  Sr  Sr1  1  0.00000000  0.56214400  0.16666700  1
  Sr  Sr2  1  0.43785600  0.43785600  0.50000000  1
  Cu  Cu0  1  0.43650500  0.36384000  0.25454500  1
  Cu  Cu1  1  0.56349500  0.92733500  0.07878800  1
  Cu  Cu2  1  0.36384000  0.43650500  0.74545500  1
  Cu  Cu3  1  0.63616000  0.07266500  0.58787800  1
  Cu  Cu4  1  0.92733500  0.56349500  0.92121200  1
  Cu  Cu5  1  0.07266500  0.63616000  0.41212200  1
  Sn  Sn0  1  0.70489300  0.00000000  0.33333300  1
  Sn  Sn1  1  0.29510700  0.29510700  0.00000000  1
  Sn  Sn2  1  0.00000000  0.70489300  0.66666700  1
  S  S0  1  0.76381700  0.64668000  0.33799300  1
  S  S1  1  0.88286300  0.23618300  0.00465900  1
  S  S2  1  0.35332000  0.11713700  0.67132600  1
  S  S3  1  0.11713700  0.35332000  0.32867400  1
  S  S4  1  0.23618300  0.88286300  0.99534100  1
  S  S5  1  0.64668000  0.76381700  0.66200700  1
  S  S6  1  0.95478600  0.44097300  0.54611900  1
  S  S7  1  0.48618700  0.04521400  0.21278500  1
  S  S8  1  0.04521400  0.48618700  0.78721500  1
  S  S9  1  0.44097300  0.95478600  0.45388100  1
  S  S10  1  0.51381300  0.55902700  0.12054800  1
  S  S11  1  0.55902700  0.51381300  0.87945200  1
loop_
_geom_bond_atom_site_label_1
_geom_bond_atom_site_label_2
_geom_bond_distance
_geom_bond_site_symmetry_2
Cu0 S7 2.291337 1_555
Cu0 S3 2.305063 1_555
Cu0 S0 2.345517 1_555
Cu0 S10 2.352120 1_555
Cu1 S10 2.291337 1_555
Cu1 S1 2.305063 1_565
Cu1 S4 2.345508 1_554
Cu1 S7 2.352120 1_565
Cu2 S8 2.291337 1_555
Cu2 S2 2.305063 1_555
Cu2 S5 2.345517 1_555
Cu2 S11 2.352120 1_555
Cu3 S6 2.291332 1_555
Cu3 S5 2.305063 1_545
Cu3 S2 2.345517 1_555
Cu3 S9 2.352120 1_545
Cu4 S11 2.291337 1_555
Cu4 S4 2.305063 1_655
Cu4 S1 2.345508 1_556
Cu4 S8 2.352120 1_655
Cu5 S9 2.291332 1_555
Cu5 S0 2.305063 1_455
Cu5 S3 2.345517 1_555
Cu5 S6 2.352120 1_455
S0 Sn0 2.451927 1_565
S0 Sr2 3.110463 1_555
S0 Sr1 3.236457 1_655
S1 Sn1 2.451926 1_655
S1 Sr1 3.110476 1_655
S1 Sr0 3.236457 1_554
S2 Sn2 2.451926 1_545
S2 Sr0 3.110463 1_555
S2 Sr2 3.236457 1_555
S3 Sn0 2.451926 1_455
S3 Sr1 3.110463 1_555
S3 Sr2 3.236457 1_555
S4 Sn1 2.451926 1_566
S4 Sr0 3.110476 1_565
S4 Sr1 3.236457 1_556
S5 Sn2 2.451927 1_655
S5 Sr2 3.110463 1_555
S5 Sr0 3.236457 1_565
S6 Sn2 2.437218 1_655
S6 Sr2 3.158720 1_655
S6 Sr2 3.349002 1_555
S7 Sn0 2.437218 1_555
S7 Sr1 3.158716 1_545
S7 Sr1 3.348998 1_655
S8 Sn2 2.437218 1_555
S8 Sr0 3.158716 1_455
S8 Sr0 3.348998 1_565
S9 Sn0 2.437218 1_565
S9 Sr2 3.158720 1_565
S9 Sr2 3.349002 1_555
S10 Sn1 2.437218 1_555
S10 Sr1 3.158720 1_655
S10 Sr1 3.349002 1_555
S11 Sn1 2.437218 1_556
S11 Sr0 3.158720 1_565
S11 Sr0 3.349002 1_555
