# generated using pymatgen
data_CsU2H(C2O7)2
_symmetry_space_group_name_H-M   'P 1'
_cell_length_a   5.91325757
_cell_length_b   9.72540536
_cell_length_c   13.68902300
_cell_angle_alpha   90.00000000
_cell_angle_beta   90.00000000
_cell_angle_gamma   94.30659534
_symmetry_Int_Tables_number   1
_chemical_formula_structural   CsU2H(C2O7)2
_chemical_formula_sum   'Cs2 U4 H2 C8 O28'
_cell_volume   785.01687998
_cell_formula_units_Z   2
loop_
 _symmetry_equiv_pos_site_id
 _symmetry_equiv_pos_as_xyz
  1  'x, y, z'
loop_
 _atom_site_type_symbol
 _atom_site_label
 _atom_site_symmetry_multiplicity
 _atom_site_fract_x
 _atom_site_fract_y
 _atom_site_fract_z
 _atom_site_occupancy
  Cs  Cs0  1  0.03954000  0.13800000  0.75000000  1
  Cs  Cs1  1  0.96046000  0.86200000  0.25000000  1
  U  U0  1  0.72019000  0.73787200  0.91169000  1
  U  U1  1  0.27981000  0.26212800  0.08831000  1
  U  U2  1  0.27981000  0.26212800  0.41169000  1
  U  U3  1  0.72019000  0.73787200  0.58831000  1
  H  H0  1  0.47893400  0.63974600  0.75000000  1
  H  H1  1  0.52106600  0.36025400  0.25000000  1
  C  C0  1  0.53805300  0.98043800  0.44829400  1
  C  C1  1  0.46194700  0.01956200  0.55170600  1
  C  C2  1  0.46194700  0.01956200  0.94829400  1
  C  C3  1  0.53805300  0.98043800  0.05170600  1
  C  C4  1  0.98707900  0.46060500  0.95109600  1
  C  C5  1  0.01292000  0.53939500  0.04890400  1
  C  C6  1  0.01292000  0.53939500  0.45109600  1
  C  C7  1  0.98707900  0.46060500  0.54890400  1
  O  O0  1  0.97915300  0.83408700  0.87462500  1
  O  O1  1  0.02084700  0.16591300  0.12537500  1
  O  O2  1  0.02084700  0.16591300  0.37462500  1
  O  O3  1  0.97915300  0.83408700  0.62537500  1
  O  O4  1  0.62075300  0.69774400  0.75000000  1
  O  O5  1  0.37924700  0.30225600  0.25000000  1
  O  O6  1  0.52912400  0.94824500  0.87827700  1
  O  O7  1  0.47087600  0.05175500  0.12172300  1
  O  O8  1  0.47087600  0.05175500  0.37827700  1
  O  O9  1  0.52912400  0.94824500  0.62172300  1
  O  O10  1  0.57341100  0.31916800  0.75000000  1
  O  O11  1  0.42658900  0.68083200  0.25000000  1
  O  O12  1  0.66066800  0.87943600  0.44244000  1
  O  O13  1  0.33933200  0.12056400  0.55756000  1
  O  O14  1  0.33933200  0.12056400  0.94244000  1
  O  O15  1  0.66066800  0.87943600  0.05756000  1
  O  O16  1  0.45218800  0.64791400  0.94330400  1
  O  O17  1  0.54781200  0.35208600  0.05669600  1
  O  O18  1  0.54781200  0.35208600  0.44330400  1
  O  O19  1  0.45218800  0.64791400  0.55669600  1
  O  O20  1  0.92322900  0.65332200  0.44639400  1
  O  O21  1  0.07677100  0.34667800  0.55360600  1
  O  O22  1  0.07677100  0.34667800  0.94639400  1
  O  O23  1  0.92322900  0.65332200  0.05360600  1
  O  O24  1  0.87906200  0.51713300  0.88425300  1
  O  O25  1  0.12093800  0.48286700  0.11574700  1
  O  O26  1  0.12093800  0.48286700  0.38425300  1
  O  O27  1  0.87906200  0.51713300  0.61574700  1
loop_
_geom_bond_atom_site_label_1
_geom_bond_atom_site_label_2
_geom_bond_distance
_geom_bond_site_symmetry_2
Cs0 O13 3.186872 1_555
Cs0 O14 3.186872 1_555
Cs0 O22 3.365690 1_555
Cs0 O21 3.365690 1_555
Cs0 O10 3.381006 1_455
Cs0 O3 3.408144 1_445
Cs0 O0 3.408144 1_445
Cs0 O10 3.497878 1_555
Cs1 O15 3.186872 1_555
Cs1 O12 3.186872 1_555
Cs1 O20 3.365690 1_555
Cs1 O23 3.365690 1_555
Cs1 O11 3.381006 1_655
Cs1 O1 3.408144 1_665
Cs1 O2 3.408144 1_665
Cs1 O11 3.497878 1_555
H0 O4 0.974877 1_555
H1 O5 0.974877 1_555
C0 O8 1.264473 1_565
C0 O12 1.266481 1_555
C1 O9 1.264473 1_545
C1 O13 1.266481 1_555
C2 O6 1.264473 1_545
C2 O14 1.266481 1_555
C3 O7 1.264473 1_565
C3 O15 1.266481 1_555
C4 O24 1.264992 1_555
C4 O22 1.265436 1_655
C5 O25 1.264995 1_555
C5 O23 1.265433 1_455
C6 O26 1.264995 1_555
C6 O20 1.265433 1_455
C7 O27 1.264992 1_555
C7 O21 1.265436 1_655
O0 U0 1.806309 1_555
O1 U1 1.806309 1_555
O2 U2 1.806309 1_555
O3 U3 1.806309 1_555
O4 U3 2.315734 1_555
O4 U0 2.315734 1_555
O5 U1 2.315734 1_555
O5 U2 2.315734 1_555
O6 U0 2.453332 1_555
O7 U1 2.453332 1_555
O8 U2 2.453332 1_555
O9 U3 2.453332 1_555
O12 U3 2.465650 1_555
O13 U2 2.465650 1_555
O14 U1 2.465650 1_556
O15 U0 2.465650 1_554
O16 U0 1.804424 1_555
O17 U1 1.804424 1_555
O18 U2 1.804424 1_555
O19 U3 1.804424 1_555
O20 U3 2.457634 1_555
O21 U2 2.457634 1_555
O22 U1 2.457634 1_556
O23 U0 2.457634 1_554
O24 U0 2.436222 1_555
O25 U1 2.436222 1_555
O26 U2 2.436222 1_555
O27 U3 2.436222 1_555
