# generated using pymatgen
data_Zn3H6C6(IO6)2
_symmetry_space_group_name_H-M   'P 1'
_cell_length_a   11.69823400
_cell_length_b   10.20372800
_cell_length_c   18.80079111
_cell_angle_alpha   90.00000000
_cell_angle_beta   126.86368985
_cell_angle_gamma   90.00000000
_symmetry_Int_Tables_number   1
_chemical_formula_structural   Zn3H6C6(IO6)2
_chemical_formula_sum   'Zn12 H24 C24 I8 O48'
_cell_volume   1795.48001434
_cell_formula_units_Z   4
loop_
 _symmetry_equiv_pos_site_id
 _symmetry_equiv_pos_as_xyz
  1  'x, y, z'
loop_
 _atom_site_type_symbol
 _atom_site_label
 _atom_site_symmetry_multiplicity
 _atom_site_fract_x
 _atom_site_fract_y
 _atom_site_fract_z
 _atom_site_occupancy
  Zn  Zn0  1  0.37484100  0.92022100  0.13238500  1
  Zn  Zn1  1  0.62515900  0.42022100  0.36761500  1
  Zn  Zn2  1  0.62515900  0.07977900  0.86761500  1
  Zn  Zn3  1  0.37484100  0.57977900  0.63238500  1
  Zn  Zn4  1  0.57166000  0.10627100  0.31242700  1
  Zn  Zn5  1  0.42834000  0.60627100  0.18757300  1
  Zn  Zn6  1  0.42834000  0.89372900  0.68757300  1
  Zn  Zn7  1  0.57166000  0.39372900  0.81242700  1
  Zn  Zn8  1  0.50000000  0.00000000  0.00000000  1
  Zn  Zn9  1  0.50000000  0.50000000  0.50000000  1
  Zn  Zn10  1  0.00000000  0.00000000  0.00000000  1
  Zn  Zn11  1  0.00000000  0.50000000  0.50000000  1
  H  H0  1  0.50432800  0.75037200  0.36787200  1
  H  H1  1  0.49567200  0.25037200  0.13212800  1
  H  H2  1  0.49567200  0.24962800  0.63212800  1
  H  H3  1  0.50432800  0.74962800  0.86787200  1
  H  H4  1  0.79047100  0.03645200  0.26828700  1
  H  H5  1  0.20952900  0.53645200  0.23171300  1
  H  H6  1  0.20952900  0.96354800  0.73171300  1
  H  H7  1  0.79047100  0.46354800  0.76828700  1
  H  H8  1  0.48733500  0.61185300  0.04416900  1
  H  H9  1  0.51266500  0.11185300  0.45583100  1
  H  H10  1  0.51266500  0.38814700  0.95583100  1
  H  H11  1  0.48733500  0.88814700  0.54416900  1
  H  H12  1  0.24922900  0.18670000  0.23558500  1
  H  H13  1  0.75077100  0.68670000  0.26441500  1
  H  H14  1  0.75077100  0.81330000  0.76441500  1
  H  H15  1  0.24922900  0.31330000  0.73558500  1
  H  H16  1  0.23444400  0.15592100  0.92661600  1
  H  H17  1  0.76555600  0.65592100  0.57338400  1
  H  H18  1  0.76555600  0.84407900  0.07338400  1
  H  H19  1  0.23444400  0.34407900  0.42661600  1
  H  H20  1  0.01526400  0.70172500  0.00796900  1
  H  H21  1  0.98473600  0.20172500  0.49203100  1
  H  H22  1  0.98473600  0.29827500  0.99203100  1
  H  H23  1  0.01526400  0.79827500  0.50796900  1
  C  C0  1  0.49762400  0.82919900  0.32528500  1
  C  C1  1  0.50237600  0.32919900  0.17471500  1
  C  C2  1  0.50237600  0.17080100  0.67471500  1
  C  C3  1  0.49762400  0.67080100  0.82528500  1
  C  C4  1  0.68237500  0.01499200  0.20711300  1
  C  C5  1  0.31762500  0.51499200  0.29288700  1
  C  C6  1  0.31762500  0.98500800  0.79288700  1
  C  C7  1  0.68237500  0.48500800  0.70711300  1
  C  C8  1  0.47639000  0.71731500  0.05251400  1
  C  C9  1  0.52361000  0.21731500  0.44748600  1
  C  C10  1  0.52361000  0.28268500  0.94748600  1
  C  C11  1  0.47639000  0.78268500  0.55251400  1
  C  C12  1  0.23080700  0.11914500  0.18353200  1
  C  C13  1  0.76919300  0.61914500  0.31646800  1
  C  C14  1  0.76919300  0.88085500  0.81646800  1
  C  C15  1  0.23080700  0.38085500  0.68353200  1
  C  C16  1  0.22866400  0.09627700  0.97335400  1
  C  C17  1  0.77133600  0.59627700  0.52664600  1
  C  C18  1  0.77133600  0.90372300  0.02664600  1
  C  C19  1  0.22866400  0.40372300  0.47335400  1
  C  C20  1  0.13049100  0.72265800  0.05473300  1
  C  C21  1  0.86950900  0.22265800  0.44526700  1
  C  C22  1  0.86950900  0.27734200  0.94526700  1
  C  C23  1  0.13049100  0.77734200  0.55473300  1
  I  I0  1  0.94126200  0.30624900  0.21453500  1
  I  I1  1  0.05873800  0.80624900  0.28546500  1
  I  I2  1  0.05873800  0.69375100  0.78546500  1
  I  I3  1  0.94126200  0.19375100  0.71453500  1
  I  I4  1  0.85667600  0.53880400  0.12446700  1
  I  I5  1  0.14332400  0.03880400  0.37553300  1
  I  I6  1  0.14332400  0.46119600  0.87553300  1
  I  I7  1  0.85667600  0.96119600  0.62446700  1
  O  O0  1  0.43927000  0.79930000  0.24404600  1
  O  O1  1  0.56073000  0.29930000  0.25595400  1
  O  O2  1  0.56073000  0.20070000  0.75595400  1
  O  O3  1  0.43927000  0.70070000  0.74404600  1
  O  O4  1  0.54758500  0.93903700  0.36204200  1
  O  O5  1  0.45241500  0.43903700  0.13795800  1
  O  O6  1  0.45241500  0.06096300  0.63795800  1
  O  O7  1  0.54758500  0.56096300  0.86204200  1
  O  O8  1  0.58297300  0.00640400  0.21696700  1
  O  O9  1  0.41702700  0.50640400  0.28303300  1
  O  O10  1  0.41702700  0.99359600  0.78303300  1
  O  O11  1  0.58297300  0.49359600  0.71696700  1
  O  O12  1  0.66871700  0.00128500  0.13616700  1
  O  O13  1  0.33128300  0.50128500  0.36383300  1
  O  O14  1  0.33128300  0.99871500  0.86383300  1
  O  O15  1  0.66871700  0.49871500  0.63616700  1
  O  O16  1  0.45455700  0.74488500  0.11029000  1
  O  O17  1  0.54544300  0.24488500  0.38971000  1
  O  O18  1  0.54544300  0.25511500  0.88971000  1
  O  O19  1  0.45455700  0.75511500  0.61029000  1
  O  O20  1  0.48675900  0.79647500  0.00556600  1
  O  O21  1  0.51324100  0.29647500  0.49443400  1
  O  O22  1  0.51324100  0.20352500  0.99443400  1
  O  O23  1  0.48675900  0.70352500  0.50556600  1
  O  O24  1  0.34405400  0.07602400  0.19497800  1
  O  O25  1  0.65594600  0.57602400  0.30502200  1
  O  O26  1  0.65594600  0.92397600  0.80502200  1
  O  O27  1  0.34405400  0.42397600  0.69497800  1
  O  O28  1  0.10359100  0.09368200  0.12101200  1
  O  O29  1  0.89640900  0.59368200  0.37898800  1
  O  O30  1  0.89640900  0.90631800  0.87898800  1
  O  O31  1  0.10359100  0.40631800  0.62101200  1
  O  O32  1  0.33804000  0.02148000  0.02480600  1
  O  O33  1  0.66196000  0.52148000  0.47519400  1
  O  O34  1  0.66196000  0.97852000  0.97519400  1
  O  O35  1  0.33804000  0.47852000  0.52480600  1
  O  O36  1  0.12100600  0.10801700  0.97186300  1
  O  O37  1  0.87899400  0.60801700  0.52813700  1
  O  O38  1  0.87899400  0.89198300  0.02813700  1
  O  O39  1  0.12100600  0.39198300  0.47186300  1
  O  O40  1  0.16632500  0.84377000  0.06171700  1
  O  O41  1  0.83367500  0.34377000  0.43828300  1
  O  O42  1  0.83367500  0.15623000  0.93828300  1
  O  O43  1  0.16632500  0.65623000  0.56171700  1
  O  O44  1  0.21194200  0.62612300  0.09520000  1
  O  O45  1  0.78805800  0.12612300  0.40480000  1
  O  O46  1  0.78805800  0.37387700  0.90480000  1
  O  O47  1  0.21194200  0.87387700  0.59520000  1
loop_
_geom_bond_atom_site_label_1
_geom_bond_atom_site_label_2
_geom_bond_distance
_geom_bond_site_symmetry_2
C0 H0 1.104005 1_555
C0 O4 1.261208 1_555
C0 O0 1.280981 1_555
C1 H1 1.104005 1_555
C1 O5 1.261208 1_555
C1 O1 1.280981 1_555
C2 H2 1.104005 1_555
C2 O6 1.261208 1_555
C2 O2 1.280981 1_555
C3 H3 1.104005 1_555
C3 O7 1.261208 1_555
C3 O3 1.280981 1_555
C4 H4 1.106699 1_555
C4 O12 1.252406 1_555
C4 O8 1.285553 1_555
C5 H5 1.106699 1_555
C5 O13 1.252406 1_555
C5 O9 1.285553 1_555
C6 H6 1.106699 1_555
C6 O14 1.252406 1_555
C6 O10 1.285553 1_555
C7 H7 1.106699 1_555
C7 O15 1.252406 1_555
C7 O11 1.285553 1_555
C8 H8 1.105945 1_555
C8 O20 1.254864 1_555
C8 O16 1.287303 1_555
C9 H9 1.105945 1_555
C9 O21 1.254864 1_555
C9 O17 1.287303 1_555
C10 H10 1.105945 1_555
C10 O22 1.254864 1_555
C10 O18 1.287303 1_555
C11 H11 1.105945 1_555
C11 O23 1.254864 1_555
C11 O19 1.287303 1_555
C12 H12 1.107376 1_555
C12 O28 1.251022 1_555
C12 O24 1.285658 1_555
C13 H13 1.107376 1_555
C13 O29 1.251022 1_555
C13 O25 1.285658 1_555
C14 H14 1.107376 1_555
C14 O30 1.251022 1_555
C14 O26 1.285658 1_555
C15 H15 1.107376 1_555
C15 O31 1.251022 1_555
C15 O27 1.285658 1_555
C16 H16 1.103801 1_555
C16 O36 1.248554 1_555
C16 O32 1.292409 1_556
C17 H17 1.103801 1_555
C17 O37 1.248554 1_555
C17 O33 1.292409 1_555
C18 H18 1.103801 1_555
C18 O38 1.248554 1_555
C18 O34 1.292409 1_554
C19 H19 1.103801 1_555
C19 O39 1.248554 1_555
C19 O35 1.292409 1_555
C20 H20 1.101659 1_555
C20 O44 1.259840 1_555
C20 O40 1.286122 1_555
C21 H21 1.101659 1_555
C21 O45 1.259840 1_555
C21 O41 1.286122 1_555
C22 H22 1.101659 1_555
C22 O46 1.259840 1_555
C22 O42 1.286122 1_555
C23 H23 1.101659 1_555
C23 O47 1.259840 1_555
C23 O43 1.286122 1_555
I0 I4 2.732570 1_555
I1 I5 2.732570 1_565
I2 I6 2.732570 1_555
I3 I7 2.732570 1_545
O0 Zn0 2.144557 1_555
O0 Zn5 2.204572 1_555
O1 Zn1 2.144557 1_555
O1 Zn4 2.204572 1_555
O2 Zn2 2.144557 1_555
O2 Zn7 2.204572 1_555
O3 Zn3 2.144557 1_555
O3 Zn6 2.204572 1_555
O4 Zn4 2.043643 1_565
O5 Zn5 2.043643 1_555
O6 Zn6 2.043643 1_545
O7 Zn7 2.043643 1_555
O8 Zn4 2.135865 1_555
O8 Zn0 2.141199 1_545
O9 Zn5 2.135865 1_555
O9 Zn1 2.141199 1_555
O10 Zn6 2.135865 1_555
O10 Zn2 2.141199 1_565
O11 Zn7 2.135865 1_555
O11 Zn3 2.141199 1_555
O12 Zn8 2.094530 1_555
O13 Zn9 2.094530 1_555
O14 Zn8 2.094530 1_566
O15 Zn9 2.094530 1_555
O16 Zn0 2.169742 1_555
O16 Zn5 2.177235 1_555
O17 Zn1 2.169742 1_555
O17 Zn4 2.177235 1_555
O18 Zn2 2.169742 1_555
O18 Zn7 2.177235 1_555
O19 Zn3 2.169742 1_555
O19 Zn6 2.177235 1_555
O20 Zn8 2.089768 1_565
O21 Zn9 2.089768 1_555
O22 Zn8 2.089768 1_556
O23 Zn9 2.089768 1_555
O24 Zn0 2.133180 1_545
O24 Zn4 2.237472 1_555
O25 Zn1 2.133180 1_555
O25 Zn5 2.237472 1_555
O26 Zn2 2.133180 1_565
O26 Zn6 2.237472 1_555
O27 Zn3 2.133180 1_555
O27 Zn7 2.237472 1_555
O28 Zn10 2.061667 1_555
O29 Zn11 2.061667 1_655
O30 Zn10 2.061667 1_666
O31 Zn11 2.061667 1_555
O32 Zn0 2.073389 1_545
O32 Zn8 2.217071 1_555
O33 Zn1 2.073389 1_555
O33 Zn9 2.217071 1_555
O34 Zn2 2.073389 1_565
O34 Zn8 2.217071 1_566
O35 Zn3 2.073389 1_555
O35 Zn9 2.217071 1_555
O36 Zn10 2.096877 1_556
O37 Zn11 2.096877 1_655
O38 Zn10 2.096877 1_665
O39 Zn11 2.096877 1_555
O40 Zn0 2.106022 1_555
O40 Zn10 2.228136 1_565
O41 Zn1 2.106022 1_555
O41 Zn11 2.228136 1_655
O42 Zn2 2.106022 1_555
O42 Zn10 2.228136 1_656
O43 Zn3 2.106022 1_555
O43 Zn11 2.228136 1_555
O44 Zn5 2.047092 1_555
O45 Zn4 2.047092 1_555
O46 Zn7 2.047092 1_555
O47 Zn6 2.047092 1_555
