# generated using pymatgen
data_H3F2
_symmetry_space_group_name_H-M   'P 1'
_cell_length_a   5.40152621
_cell_length_b   4.36049126
_cell_length_c   6.80021950
_cell_angle_alpha   118.66849261
_cell_angle_beta   66.18392803
_cell_angle_gamma   129.06452429
_symmetry_Int_Tables_number   1
_chemical_formula_structural   H3F2
_chemical_formula_sum   'H6 F4'
_cell_volume   107.89760005
_cell_formula_units_Z   2
loop_
 _symmetry_equiv_pos_site_id
 _symmetry_equiv_pos_as_xyz
  1  'x, y, z'
loop_
 _atom_site_type_symbol
 _atom_site_label
 _atom_site_symmetry_multiplicity
 _atom_site_fract_x
 _atom_site_fract_y
 _atom_site_fract_z
 _atom_site_occupancy
  H  H0  1  0.77545600  0.30685800  0.20834700  1
  H  H1  1  0.76921300  0.82605600  0.24184500  1
  H  H2  1  0.27027000  0.42892800  0.45847500  1
  H  H3  1  0.32047100  0.60813700  0.56472300  1
  H  H4  1  0.18247900  0.16698700  0.75184400  1
  H  H5  1  0.67585600  0.68304100  0.78698200  1
  F  F0  1  0.78027900  0.45468700  0.13065700  1
  F  F1  1  0.77744100  0.09146600  0.31487900  1
  F  F2  1  0.99332900  0.91054800  0.67513300  1
  F  F3  1  0.45522000  0.52329000  0.86710600  1
loop_
_geom_bond_atom_site_label_1
_geom_bond_atom_site_label_2
_geom_bond_distance
_geom_bond_site_symmetry_2
H2 H3 0.745403 1_555
F0 H0 0.994877 1_555
F0 H1 1.451990 1_555
F1 H1 0.994749 1_545
F1 H0 1.441824 1_555
F2 H4 0.998580 1_665
F2 H5 1.424702 1_555
F3 H5 0.997915 1_555
F3 H4 1.441467 1_555
