# generated using pymatgen
data_Sn7(SI3)2
_symmetry_space_group_name_H-M   'P 1'
_cell_length_a   7.66401694
_cell_length_b   7.66401694
_cell_length_c   17.98022560
_cell_angle_alpha   69.60902004
_cell_angle_beta   69.60902004
_cell_angle_gamma   33.87883683
_symmetry_Int_Tables_number   1
_chemical_formula_structural   Sn7(SI3)2
_chemical_formula_sum   'Sn7 S2 I6'
_cell_volume   548.27614382
_cell_formula_units_Z   1
loop_
 _symmetry_equiv_pos_site_id
 _symmetry_equiv_pos_as_xyz
  1  'x, y, z'
loop_
 _atom_site_type_symbol
 _atom_site_label
 _atom_site_symmetry_multiplicity
 _atom_site_fract_x
 _atom_site_fract_y
 _atom_site_fract_z
 _atom_site_occupancy
  Sn  Sn0  1  0.60074900  0.60074900  0.05237400  1
  Sn  Sn1  1  0.39925100  0.39925100  0.94762600  1
  Sn  Sn2  1  0.62506800  0.62506800  0.52678400  1
  Sn  Sn3  1  0.37493200  0.37493200  0.47321600  1
  Sn  Sn4  1  0.00000000  0.00000000  0.00000000  1
  Sn  Sn5  1  0.78056800  0.78056800  0.27864300  1
  Sn  Sn6  1  0.21943200  0.21943200  0.72135700  1
  S  S0  1  0.80488000  0.80488000  0.41948600  1
  S  S1  1  0.19512000  0.19512000  0.58051400  1
  I  I0  1  0.24900000  0.24900000  0.11921700  1
  I  I1  1  0.75100000  0.75100000  0.88078300  1
  I  I2  1  0.44682600  0.44682600  0.24060200  1
  I  I3  1  0.55317400  0.55317400  0.75939800  1
  I  I4  1  0.88604200  0.88604200  0.62531700  1
  I  I5  1  0.11395800  0.11395800  0.37468300  1
loop_
_geom_bond_atom_site_label_1
_geom_bond_atom_site_label_2
_geom_bond_distance
_geom_bond_site_symmetry_2
Sn0 Sn4 3.011444 1_655
Sn0 Sn4 3.011444 1_565
Sn1 Sn4 3.011444 1_656
Sn1 Sn4 3.011444 1_566
S0 Sn2 2.639733 1_555
S0 Sn5 2.682853 1_555
S0 Sn3 2.774438 1_565
S0 Sn3 2.774438 1_655
S1 Sn3 2.639733 1_555
S1 Sn6 2.682853 1_555
S1 Sn2 2.774438 1_545
S1 Sn2 2.774438 1_455
I0 Sn1 3.069377 1_554
I1 Sn0 3.069377 1_556
I2 Sn5 3.191002 1_455
I2 Sn5 3.191002 1_545
I2 Sn0 3.314167 1_555
I3 Sn6 3.191002 1_655
I3 Sn6 3.191002 1_565
I3 Sn1 3.314167 1_555
I4 Sn6 3.295959 1_565
I4 Sn6 3.295959 1_655
I5 Sn5 3.295959 1_545
I5 Sn5 3.295959 1_455
