# generated using pymatgen
data_YSnAu
_symmetry_space_group_name_H-M   'P 1'
_cell_length_a   4.72704470
_cell_length_b   4.72704470
_cell_length_c   7.44273200
_cell_angle_alpha   90.00000000
_cell_angle_beta   90.00000000
_cell_angle_gamma   120.00000983
_symmetry_Int_Tables_number   1
_chemical_formula_structural   YSnAu
_chemical_formula_sum   'Y2 Sn2 Au2'
_cell_volume   144.02649384
_cell_formula_units_Z   2
loop_
 _symmetry_equiv_pos_site_id
 _symmetry_equiv_pos_as_xyz
  1  'x, y, z'
loop_
 _atom_site_type_symbol
 _atom_site_label
 _atom_site_symmetry_multiplicity
 _atom_site_fract_x
 _atom_site_fract_y
 _atom_site_fract_z
 _atom_site_occupancy
  Y  Y0  1  0.00000000  0.00000000  0.50000000  1
  Y  Y1  1  0.00000000  0.00000000  0.00000000  1
  Sn  Sn0  1  0.33333300  0.66666700  0.25000000  1
  Sn  Sn1  1  0.66666700  0.33333300  0.75000000  1
  Au  Au0  1  0.33333300  0.66666700  0.75000000  1
  Au  Au1  1  0.66666700  0.33333300  0.25000000  1
loop_
_geom_bond_atom_site_label_1
_geom_bond_atom_site_label_2
_geom_bond_distance
_geom_bond_site_symmetry_2
Sn0 Y1 3.303096 1_565
Sn0 Y0 3.303096 1_565
Sn0 Y1 3.303099 1_665
Sn0 Y0 3.303099 1_555
Sn0 Y0 3.303099 1_665
Sn0 Y1 3.303099 1_555
Sn1 Y1 3.303096 1_656
Sn1 Y0 3.303096 1_655
Sn1 Y0 3.303099 1_555
Sn1 Y1 3.303099 1_666
Sn1 Y0 3.303099 1_665
Sn1 Y1 3.303099 1_556
Au0 Sn1 2.729158 1_565
Au0 Sn1 2.729158 1_455
Au0 Sn1 2.729166 1_555
Au0 Y1 3.303096 1_566
Au0 Y0 3.303096 1_565
Au0 Y0 3.303099 1_555
Au0 Y1 3.303099 1_666
Au0 Y0 3.303099 1_665
Au0 Y1 3.303099 1_556
Au1 Sn0 2.729158 1_545
Au1 Sn0 2.729158 1_655
Au1 Sn0 2.729166 1_555
Au1 Y0 3.303096 1_655
Au1 Y1 3.303096 1_655
Au1 Y1 3.303099 1_665
Au1 Y0 3.303099 1_555
Au1 Y0 3.303099 1_665
Au1 Y1 3.303099 1_555
