# generated using pymatgen
data_Ca8Si5O18
_symmetry_space_group_name_H-M   'P 1'
_cell_length_a   5.13865000
_cell_length_b   11.52175500
_cell_length_c   28.94054900
_cell_angle_alpha   90.00000000
_cell_angle_beta   90.00000000
_cell_angle_gamma   90.00000000
_symmetry_Int_Tables_number   1
_chemical_formula_structural   Ca8Si5O18
_chemical_formula_sum   'Ca32 Si20 O72'
_cell_volume   1713.46185185
_cell_formula_units_Z   4
loop_
 _symmetry_equiv_pos_site_id
 _symmetry_equiv_pos_as_xyz
  1  'x, y, z'
loop_
 _atom_site_type_symbol
 _atom_site_label
 _atom_site_symmetry_multiplicity
 _atom_site_fract_x
 _atom_site_fract_y
 _atom_site_fract_z
 _atom_site_occupancy
  Ca  Ca0  1  0.49761300  0.28295800  0.94218800  1
  Ca  Ca1  1  0.00238700  0.21704200  0.44218800  1
  Ca  Ca2  1  0.99761300  0.21704200  0.05781200  1
  Ca  Ca3  1  0.50238700  0.28295800  0.55781200  1
  Ca  Ca4  1  0.50238700  0.71704200  0.05781200  1
  Ca  Ca5  1  0.99761300  0.78295800  0.55781200  1
  Ca  Ca6  1  0.00238700  0.78295800  0.94218800  1
  Ca  Ca7  1  0.49761300  0.71704200  0.44218800  1
  Ca  Ca8  1  0.00000000  0.50000000  0.00000000  1
  Ca  Ca9  1  0.50000000  0.00000000  0.50000000  1
  Ca  Ca10  1  0.50000000  0.00000000  0.00000000  1
  Ca  Ca11  1  0.00000000  0.50000000  0.50000000  1
  Ca  Ca12  1  0.99422300  0.51042200  0.87783400  1
  Ca  Ca13  1  0.50577700  0.98957800  0.37783400  1
  Ca  Ca14  1  0.49422300  0.98957800  0.12216600  1
  Ca  Ca15  1  0.00577700  0.51042200  0.62216600  1
  Ca  Ca16  1  0.00577700  0.48957800  0.12216600  1
  Ca  Ca17  1  0.49422300  0.01042200  0.62216600  1
  Ca  Ca18  1  0.50577700  0.01042200  0.87783400  1
  Ca  Ca19  1  0.99422300  0.48957800  0.37783400  1
  Ca  Ca20  1  0.50687200  0.71530400  0.83057800  1
  Ca  Ca21  1  0.99312800  0.78469600  0.33057800  1
  Ca  Ca22  1  0.00687200  0.78469600  0.16942200  1
  Ca  Ca23  1  0.49312800  0.71530400  0.66942200  1
  Ca  Ca24  1  0.49312800  0.28469600  0.16942200  1
  Ca  Ca25  1  0.00687200  0.21530400  0.66942200  1
  Ca  Ca26  1  0.99312800  0.21530400  0.83057800  1
  Ca  Ca27  1  0.50687200  0.28469600  0.33057800  1
  Ca  Ca28  1  0.00000000  0.48569000  0.75000000  1
  Ca  Ca29  1  0.50000000  0.01431000  0.25000000  1
  Ca  Ca30  1  0.00000000  0.51431000  0.25000000  1
  Ca  Ca31  1  0.50000000  0.98569000  0.75000000  1
  Si  Si0  1  0.57223500  0.59515000  0.94231300  1
  Si  Si1  1  0.92776500  0.90485000  0.44231300  1
  Si  Si2  1  0.07223500  0.90485000  0.05768700  1
  Si  Si3  1  0.42776500  0.59515000  0.55768700  1
  Si  Si4  1  0.42776500  0.40485000  0.05768700  1
  Si  Si5  1  0.07223500  0.09515000  0.55768700  1
  Si  Si6  1  0.92776500  0.09515000  0.94231300  1
  Si  Si7  1  0.57223500  0.40485000  0.44231300  1
  Si  Si8  1  0.44036700  0.40534800  0.82710100  1
  Si  Si9  1  0.05963300  0.09465200  0.32710100  1
  Si  Si10  1  0.94036700  0.09465200  0.17289900  1
  Si  Si11  1  0.55963300  0.40534800  0.67289900  1
  Si  Si12  1  0.55963300  0.59465200  0.17289900  1
  Si  Si13  1  0.94036700  0.90534800  0.67289900  1
  Si  Si14  1  0.05963300  0.90534800  0.82710100  1
  Si  Si15  1  0.44036700  0.59465200  0.32710100  1
  Si  Si16  1  0.50000000  0.23785900  0.75000000  1
  Si  Si17  1  0.00000000  0.26214100  0.25000000  1
  Si  Si18  1  0.50000000  0.76214100  0.25000000  1
  Si  Si19  1  0.00000000  0.73785900  0.75000000  1
  O  O0  1  0.70552500  0.46291000  0.94021400  1
  O  O1  1  0.79447500  0.03709000  0.44021400  1
  O  O2  1  0.20552500  0.03709000  0.05978600  1
  O  O3  1  0.29447500  0.46291000  0.55978600  1
  O  O4  1  0.29447500  0.53709000  0.05978600  1
  O  O5  1  0.20552500  0.96291000  0.55978600  1
  O  O6  1  0.79447500  0.96291000  0.94021400  1
  O  O7  1  0.70552500  0.53709000  0.44021400  1
  O  O8  1  0.70443500  0.66395600  0.89768700  1
  O  O9  1  0.79556500  0.83604400  0.39768700  1
  O  O10  1  0.20443500  0.83604400  0.10231300  1
  O  O11  1  0.29556500  0.66395600  0.60231300  1
  O  O12  1  0.29556500  0.33604400  0.10231300  1
  O  O13  1  0.20443500  0.16395600  0.60231300  1
  O  O14  1  0.79556500  0.16395600  0.89768700  1
  O  O15  1  0.70443500  0.33604400  0.39768700  1
  O  O16  1  0.70163000  0.65838400  0.98850500  1
  O  O17  1  0.79837000  0.84161600  0.48850500  1
  O  O18  1  0.20163000  0.84161600  0.01149500  1
  O  O19  1  0.29837000  0.65838400  0.51149500  1
  O  O20  1  0.29837000  0.34161600  0.01149500  1
  O  O21  1  0.20163000  0.15838400  0.51149500  1
  O  O22  1  0.79837000  0.15838400  0.98850500  1
  O  O23  1  0.70163000  0.34161600  0.48850500  1
  O  O24  1  0.25248800  0.59474200  0.94074200  1
  O  O25  1  0.24751200  0.90525800  0.44074200  1
  O  O26  1  0.75248800  0.90525800  0.05925800  1
  O  O27  1  0.74751200  0.59474200  0.55925800  1
  O  O28  1  0.74751200  0.40525800  0.05925800  1
  O  O29  1  0.75248800  0.09474200  0.55925800  1
  O  O30  1  0.24751200  0.09474200  0.94074200  1
  O  O31  1  0.25248800  0.40525800  0.44074200  1
  O  O32  1  0.29986700  0.34329900  0.87181700  1
  O  O33  1  0.20013300  0.15670100  0.37181700  1
  O  O34  1  0.79986700  0.15670100  0.12818300  1
  O  O35  1  0.70013300  0.34329900  0.62818300  1
  O  O36  1  0.70013300  0.65670100  0.12818300  1
  O  O37  1  0.79986700  0.84329900  0.62818300  1
  O  O38  1  0.20013300  0.84329900  0.87181700  1
  O  O39  1  0.29986700  0.65670100  0.37181700  1
  O  O40  1  0.30794700  0.53321600  0.82034100  1
  O  O41  1  0.19205300  0.96678400  0.32034100  1
  O  O42  1  0.80794700  0.96678400  0.17965900  1
  O  O43  1  0.69205300  0.53321600  0.67965900  1
  O  O44  1  0.69205300  0.46678400  0.17965900  1
  O  O45  1  0.80794700  0.03321600  0.67965900  1
  O  O46  1  0.19205300  0.03321600  0.82034100  1
  O  O47  1  0.30794700  0.46678400  0.32034100  1
  O  O48  1  0.31087700  0.32777800  0.78138700  1
  O  O49  1  0.18912300  0.17222200  0.28138700  1
  O  O50  1  0.81087700  0.17222200  0.21861300  1
  O  O51  1  0.68912300  0.32777800  0.71861300  1
  O  O52  1  0.68912300  0.67222200  0.21861300  1
  O  O53  1  0.81087700  0.82777800  0.71861300  1
  O  O54  1  0.18912300  0.82777800  0.78138700  1
  O  O55  1  0.31087700  0.67222200  0.28138700  1
  O  O56  1  0.75633700  0.40080600  0.82370500  1
  O  O57  1  0.74366300  0.09919400  0.32370500  1
  O  O58  1  0.25633700  0.09919400  0.17629500  1
  O  O59  1  0.24366300  0.40080600  0.67629500  1
  O  O60  1  0.24366300  0.59919400  0.17629500  1
  O  O61  1  0.25633700  0.90080600  0.67629500  1
  O  O62  1  0.74366300  0.90080600  0.82370500  1
  O  O63  1  0.75633700  0.59919400  0.32370500  1
  O  O64  1  0.67670000  0.15651200  0.78255200  1
  O  O65  1  0.82330000  0.34348800  0.28255200  1
  O  O66  1  0.17670000  0.34348800  0.21744800  1
  O  O67  1  0.32330000  0.15651200  0.71744800  1
  O  O68  1  0.32330000  0.84348800  0.21744800  1
  O  O69  1  0.17670000  0.65651200  0.71744800  1
  O  O70  1  0.82330000  0.65651200  0.78255200  1
  O  O71  1  0.67670000  0.84348800  0.28255200  1
loop_
_geom_bond_atom_site_label_1
_geom_bond_atom_site_label_2
_geom_bond_distance
_geom_bond_site_symmetry_2
Ca0 O0 2.333141 1_555
Ca0 O20 2.351207 1_556
Ca0 O32 2.379820 1_555
Ca0 O14 2.425442 1_555
Ca0 O22 2.499084 1_555
Ca0 O30 2.521146 1_555
Ca1 O1 2.333141 1_455
Ca1 O21 2.351207 1_555
Ca1 O33 2.379820 1_555
Ca1 O15 2.425442 1_455
Ca1 O23 2.499084 1_455
Ca1 O31 2.521146 1_555
Ca2 O2 2.333141 1_655
Ca2 O22 2.351207 1_554
Ca2 O34 2.379820 1_555
Ca2 O12 2.425442 1_655
Ca2 O20 2.499084 1_655
Ca2 O28 2.521146 1_555
Ca3 O3 2.333141 1_555
Ca3 O23 2.351207 1_555
Ca3 O35 2.379820 1_555
Ca3 O13 2.425442 1_555
Ca3 O21 2.499084 1_555
Ca3 O29 2.521146 1_555
Ca4 O4 2.333141 1_555
Ca4 O16 2.351207 1_554
Ca4 O36 2.379820 1_555
Ca4 O10 2.425442 1_555
Ca4 O18 2.499084 1_555
Ca4 O26 2.521146 1_555
Ca5 O5 2.333141 1_655
Ca5 O17 2.351207 1_555
Ca5 O37 2.379820 1_555
Ca5 O11 2.425442 1_655
Ca5 O19 2.499084 1_655
Ca5 O27 2.521146 1_555
Ca6 O6 2.333141 1_455
Ca6 O18 2.351207 1_556
Ca6 O38 2.379820 1_555
Ca6 O8 2.425442 1_455
Ca6 O16 2.499084 1_455
Ca6 O24 2.521146 1_555
Ca7 O7 2.333141 1_555
Ca7 O19 2.351207 1_555
Ca7 O39 2.379820 1_555
Ca7 O9 2.425442 1_555
Ca7 O17 2.499084 1_555
Ca7 O25 2.521146 1_555
Ca8 O4 2.337977 1_555
Ca8 O0 2.337977 1_454
Ca8 O16 2.406564 1_454
Ca8 O20 2.406564 1_555
Ca8 O28 2.411645 1_455
Ca8 O24 2.411645 1_554
Ca9 O5 2.337977 1_545
Ca9 O1 2.337977 1_555
Ca9 O17 2.406564 1_545
Ca9 O21 2.406564 1_555
Ca9 O25 2.411645 1_545
Ca9 O29 2.411645 1_555
Ca10 O2 2.337977 1_555
Ca10 O6 2.337977 1_544
Ca10 O18 2.406564 1_545
Ca10 O22 2.406564 1_554
Ca10 O26 2.411645 1_545
Ca10 O30 2.411645 1_554
Ca11 O3 2.337977 1_555
Ca11 O7 2.337977 1_455
Ca11 O19 2.406564 1_555
Ca11 O23 2.406564 1_455
Ca11 O31 2.411645 1_555
Ca11 O27 2.411645 1_455
Ca12 O40 2.331607 1_655
Ca12 O56 2.354438 1_555
Ca12 O8 2.382622 1_555
Ca12 O0 2.399926 1_555
Ca12 O24 2.453503 1_655
Ca12 O32 2.490952 1_655
Ca13 O41 2.331607 1_555
Ca13 O57 2.354438 1_565
Ca13 O9 2.382622 1_555
Ca13 O1 2.399926 1_565
Ca13 O25 2.453503 1_555
Ca13 O33 2.490952 1_565
Ca14 O42 2.331607 1_555
Ca14 O58 2.354438 1_565
Ca14 O10 2.382622 1_555
Ca14 O2 2.399926 1_565
Ca14 O26 2.453503 1_555
Ca14 O34 2.490952 1_565
Ca15 O43 2.331607 1_455
Ca15 O59 2.354438 1_555
Ca15 O11 2.382622 1_555
Ca15 O3 2.399926 1_555
Ca15 O27 2.453503 1_455
Ca15 O35 2.490952 1_455
Ca16 O44 2.331607 1_455
Ca16 O60 2.354438 1_555
Ca16 O12 2.382622 1_555
Ca16 O4 2.399926 1_555
Ca16 O28 2.453503 1_455
Ca16 O36 2.490952 1_455
Ca17 O45 2.331607 1_555
Ca17 O61 2.354438 1_545
Ca17 O13 2.382622 1_555
Ca17 O5 2.399926 1_545
Ca17 O29 2.453503 1_555
Ca17 O37 2.490952 1_545
Ca18 O46 2.331607 1_555
Ca18 O62 2.354438 1_545
Ca18 O14 2.382622 1_555
Ca18 O6 2.399926 1_545
Ca18 O30 2.453503 1_555
Ca18 O38 2.490952 1_545
Ca19 O47 2.331607 1_655
Ca19 O63 2.354438 1_555
Ca19 O15 2.382622 1_555
Ca19 O7 2.399926 1_555
Ca19 O31 2.453503 1_655
Ca19 O39 2.490952 1_655
Ca20 O70 2.243789 1_555
Ca20 O8 2.269953 1_555
Ca20 O40 2.352482 1_555
Ca20 O38 2.466515 1_555
Ca20 O62 2.467432 1_555
Ca20 O54 2.524296 1_555
Ca21 O71 2.243789 1_555
Ca21 O9 2.269953 1_555
Ca21 O41 2.352482 1_655
Ca21 O39 2.466515 1_655
Ca21 O63 2.467432 1_555
Ca21 O55 2.524296 1_655
Ca22 O68 2.243789 1_555
Ca22 O10 2.269953 1_555
Ca22 O42 2.352482 1_455
Ca22 O36 2.466515 1_455
Ca22 O60 2.467432 1_555
Ca22 O52 2.524296 1_455
Ca23 O69 2.243789 1_555
Ca23 O11 2.269953 1_555
Ca23 O43 2.352482 1_555
Ca23 O37 2.466515 1_555
Ca23 O61 2.467432 1_555
Ca23 O53 2.524296 1_555
Ca24 O66 2.243789 1_555
Ca24 O12 2.269953 1_555
Ca24 O44 2.352482 1_555
Ca24 O34 2.466515 1_555
Ca24 O58 2.467432 1_555
Ca24 O50 2.524296 1_555
Ca25 O67 2.243789 1_555
Ca25 O13 2.269953 1_555
Ca25 O45 2.352482 1_455
Ca25 O35 2.466515 1_455
Ca25 O59 2.467432 1_555
Ca25 O51 2.524296 1_455
Ca26 O64 2.243789 1_555
Ca26 O14 2.269953 1_555
Ca26 O46 2.352482 1_655
Ca26 O32 2.466515 1_655
Ca26 O56 2.467432 1_555
Ca26 O48 2.524296 1_655
Ca27 O65 2.243789 1_555
Ca27 O15 2.269953 1_555
Ca27 O47 2.352482 1_555
Ca27 O33 2.466515 1_555
Ca27 O57 2.467432 1_555
Ca27 O49 2.524296 1_555
Ca28 O69 2.363399 1_555
Ca28 O70 2.363399 1_455
Ca28 O51 2.585997 1_455
Ca28 O48 2.585997 1_555
Ca28 O43 2.635914 1_455
Ca28 O40 2.635914 1_555
Ca28 O59 2.659740 1_555
Ca28 O56 2.659740 1_455
Ca29 O68 2.363399 1_545
Ca29 O71 2.363399 1_545
Ca29 O50 2.585997 1_555
Ca29 O49 2.585997 1_555
Ca29 O41 2.635914 1_545
Ca29 O42 2.635914 1_545
Ca29 O58 2.659740 1_555
Ca29 O57 2.659740 1_555
Ca30 O66 2.363399 1_555
Ca30 O65 2.363399 1_455
Ca30 O52 2.585997 1_455
Ca30 O55 2.585997 1_555
Ca30 O47 2.635914 1_555
Ca30 O44 2.635914 1_455
Ca30 O60 2.659740 1_555
Ca30 O63 2.659740 1_455
Ca31 O67 2.363399 1_565
Ca31 O64 2.363399 1_565
Ca31 O53 2.585997 1_555
Ca31 O54 2.585997 1_555
Ca31 O46 2.635914 1_565
Ca31 O45 2.635914 1_565
Ca31 O61 2.659740 1_555
Ca31 O62 2.659740 1_555
O0 Si0 1.671613 1_555
O1 Si1 1.671613 1_545
O2 Si2 1.671613 1_545
O3 Si3 1.671613 1_555
O4 Si4 1.671613 1_555
O5 Si5 1.671613 1_565
O6 Si6 1.671613 1_565
O7 Si7 1.671613 1_555
O8 Si0 1.660705 1_555
O9 Si1 1.660705 1_555
O10 Si2 1.660705 1_555
O11 Si3 1.660705 1_555
O12 Si4 1.660705 1_555
O13 Si5 1.660705 1_555
O14 Si6 1.660705 1_555
O15 Si7 1.660705 1_555
O16 Si0 1.661329 1_555
O17 Si1 1.661329 1_555
O18 Si2 1.661329 1_555
O19 Si3 1.661329 1_555
O20 Si4 1.661329 1_555
O21 Si5 1.661329 1_555
O22 Si6 1.661329 1_555
O23 Si7 1.661329 1_555
O24 Si0 1.643704 1_555
O25 Si1 1.643704 1_455
O26 Si2 1.643704 1_655
O27 Si3 1.643704 1_555
O28 Si4 1.643704 1_555
O29 Si5 1.643704 1_655
O30 Si6 1.643704 1_455
O31 Si7 1.643704 1_555
O32 Si8 1.645316 1_555
O33 Si9 1.645316 1_555
O34 Si10 1.645316 1_555
O35 Si11 1.645316 1_555
O36 Si12 1.645316 1_555
O37 Si13 1.645316 1_555
O38 Si14 1.645316 1_555
O39 Si15 1.645316 1_555
O40 Si8 1.634566 1_555
O41 Si9 1.634566 1_565
O42 Si10 1.634566 1_565
O43 Si11 1.634566 1_555
O44 Si12 1.634566 1_555
O45 Si13 1.634566 1_545
O46 Si14 1.634566 1_545
O47 Si15 1.634566 1_555
O48 Si16 1.686098 1_555
O48 Si8 1.729692 1_555
O49 Si17 1.686098 1_555
O49 Si9 1.729692 1_555
O50 Si17 1.686098 1_655
O50 Si10 1.729692 1_555
O51 Si16 1.686098 1_555
O51 Si11 1.729692 1_555
O52 Si18 1.686098 1_555
O52 Si12 1.729692 1_555
O53 Si19 1.686098 1_655
O53 Si13 1.729692 1_555
O54 Si19 1.686098 1_555
O54 Si14 1.729692 1_555
O55 Si18 1.686098 1_555
O55 Si15 1.729692 1_555
O56 Si8 1.627473 1_555
O57 Si9 1.627473 1_655
O58 Si10 1.627473 1_455
O59 Si11 1.627473 1_555
O60 Si12 1.627473 1_555
O61 Si13 1.627473 1_455
O62 Si14 1.627473 1_655
O63 Si15 1.627473 1_555
O64 Si16 1.609478 1_555
O65 Si17 1.609478 1_655
O66 Si17 1.609478 1_555
O67 Si16 1.609478 1_555
O68 Si18 1.609478 1_555
O69 Si19 1.609478 1_555
O70 Si19 1.609478 1_655
O71 Si18 1.609478 1_555
