# generated using pymatgen
data_TlH6C3S3(O4F3)3
_symmetry_space_group_name_H-M   'P 1'
_cell_length_a   12.46988783
_cell_length_b   12.46988783
_cell_length_c   14.47433455
_cell_angle_alpha   69.25408910
_cell_angle_beta   69.25408910
_cell_angle_gamma   67.03411817
_symmetry_Int_Tables_number   1
_chemical_formula_structural   TlH6C3S3(O4F3)3
_chemical_formula_sum   'Tl4 H24 C12 S12 O48 F36'
_cell_volume   1875.98694081
_cell_formula_units_Z   4
loop_
 _symmetry_equiv_pos_site_id
 _symmetry_equiv_pos_as_xyz
  1  'x, y, z'
loop_
 _atom_site_type_symbol
 _atom_site_label
 _atom_site_symmetry_multiplicity
 _atom_site_fract_x
 _atom_site_fract_y
 _atom_site_fract_z
 _atom_site_occupancy
  Tl  Tl0  1  0.78683300  0.84304800  0.32926100  1
  Tl  Tl1  1  0.15695200  0.21316700  0.17073900  1
  Tl  Tl2  1  0.21316700  0.15695200  0.67073900  1
  Tl  Tl3  1  0.84304800  0.78683300  0.82926100  1
  H  H0  1  0.95298100  0.84777300  0.12915900  1
  H  H1  1  0.15222700  0.04701900  0.37084100  1
  H  H2  1  0.04701900  0.15222700  0.87084100  1
  H  H3  1  0.84777300  0.95298100  0.62915900  1
  H  H4  1  0.00249600  0.90266200  0.18475000  1
  H  H5  1  0.09733800  0.99750400  0.31525000  1
  H  H6  1  0.99750400  0.09733800  0.81525000  1
  H  H7  1  0.90266200  0.00249600  0.68475000  1
  H  H8  1  0.66887200  0.77044800  0.53773800  1
  H  H9  1  0.22955200  0.33112800  0.96226200  1
  H  H10  1  0.33112800  0.22955200  0.46226200  1
  H  H11  1  0.77044800  0.66887200  0.03773800  1
  H  H12  1  0.56198600  0.84733500  0.47964400  1
  H  H13  1  0.15266500  0.43801400  0.02035600  1
  H  H14  1  0.43801400  0.15266500  0.52035600  1
  H  H15  1  0.84733500  0.56198600  0.97964400  1
  H  H16  1  0.59163600  0.02805700  0.26083600  1
  H  H17  1  0.97194300  0.40836400  0.23916400  1
  H  H18  1  0.40836400  0.97194300  0.73916400  1
  H  H19  1  0.02805700  0.59163600  0.76083600  1
  H  H20  1  0.67648300  0.97211100  0.16688900  1
  H  H21  1  0.02788900  0.32351700  0.33311100  1
  H  H22  1  0.32351700  0.02788900  0.83311100  1
  H  H23  1  0.97211100  0.67648300  0.66688900  1
  C  C0  1  0.61704900  0.60743600  0.32878500  1
  C  C1  1  0.39256400  0.38295100  0.17121500  1
  C  C2  1  0.38295100  0.39256400  0.67121500  1
  C  C3  1  0.60743600  0.61704900  0.82878500  1
  C  C4  1  0.71291600  0.21368200  0.41929000  1
  C  C5  1  0.78631800  0.28708400  0.08071000  1
  C  C6  1  0.28708400  0.78631800  0.58071000  1
  C  C7  1  0.21368200  0.71291600  0.91929000  1
  C  C8  1  0.14586900  0.62046600  0.38254400  1
  C  C9  1  0.37953400  0.85413100  0.11745600  1
  C  C10  1  0.85413100  0.37953400  0.61745600  1
  C  C11  1  0.62046600  0.14586900  0.88254400  1
  S  S0  1  0.76420700  0.62400300  0.23818100  1
  S  S1  1  0.37599700  0.23579300  0.26181900  1
  S  S2  1  0.23579300  0.37599700  0.76181900  1
  S  S3  1  0.62400300  0.76420700  0.73818100  1
  S  S4  1  0.71068500  0.05364400  0.46630600  1
  S  S5  1  0.94635600  0.28931500  0.03369400  1
  S  S6  1  0.28931500  0.94635600  0.53369400  1
  S  S7  1  0.05364400  0.71068500  0.96630600  1
  S  S8  1  0.02416500  0.74800400  0.43325000  1
  S  S9  1  0.25199600  0.97583500  0.06675000  1
  S  S10  1  0.97583500  0.25199600  0.56675000  1
  S  S11  1  0.74800400  0.02416500  0.93325000  1
  O  O0  1  0.92978500  0.88919500  0.18422900  1
  O  O1  1  0.11080500  0.07021500  0.31577100  1
  O  O2  1  0.07021500  0.11080500  0.81577100  1
  O  O3  1  0.88919500  0.92978500  0.68422900  1
  O  O4  1  0.64481800  0.79002300  0.47309900  1
  O  O5  1  0.20997700  0.35518200  0.02690100  1
  O  O6  1  0.35518200  0.20997700  0.52690100  1
  O  O7  1  0.79002300  0.64481800  0.97309900  1
  O  O8  1  0.64358400  0.95020300  0.24230200  1
  O  O9  1  0.04979700  0.35641600  0.25769800  1
  O  O10  1  0.35641600  0.04979700  0.75769800  1
  O  O11  1  0.95020300  0.64358400  0.74230200  1
  O  O12  1  0.83478500  0.50293400  0.22678100  1
  O  O13  1  0.49706600  0.16521500  0.27321900  1
  O  O14  1  0.16521500  0.49706600  0.77321900  1
  O  O15  1  0.50293400  0.83478500  0.72678100  1
  O  O16  1  0.73227500  0.71255300  0.14701600  1
  O  O17  1  0.28744700  0.26772500  0.35298400  1
  O  O18  1  0.26772500  0.28744700  0.85298400  1
  O  O19  1  0.71255300  0.73227500  0.64701600  1
  O  O20  1  0.81452900  0.66579600  0.29378700  1
  O  O21  1  0.33420400  0.18547100  0.20621300  1
  O  O22  1  0.18547100  0.33420400  0.70621300  1
  O  O23  1  0.66579600  0.81452900  0.79378700  1
  O  O24  1  0.74585800  0.02184800  0.36727100  1
  O  O25  1  0.97815200  0.25414300  0.13272900  1
  O  O26  1  0.25414300  0.97815200  0.63272900  1
  O  O27  1  0.02184800  0.74585700  0.86727100  1
  O  O28  1  0.80228200  0.98866200  0.52335200  1
  O  O29  1  0.01133800  0.19771800  0.97664800  1
  O  O30  1  0.19771800  0.01133800  0.47664800  1
  O  O31  1  0.98866200  0.80228200  0.02335200  1
  O  O32  1  0.58786500  0.05792200  0.52420600  1
  O  O33  1  0.94207800  0.41213500  0.97579400  1
  O  O34  1  0.41213500  0.94207800  0.47579400  1
  O  O35  1  0.05792200  0.58786500  0.02420600  1
  O  O36  1  0.91343100  0.72867600  0.43067300  1
  O  O37  1  0.27132400  0.08656900  0.06932700  1
  O  O38  1  0.08656900  0.27132400  0.56932700  1
  O  O39  1  0.72867600  0.91343100  0.93067300  1
  O  O40  1  0.04689000  0.85681900  0.36086300  1
  O  O41  1  0.14318100  0.95311000  0.13913700  1
  O  O42  1  0.95311000  0.14318100  0.63913700  1
  O  O43  1  0.85681900  0.04689000  0.86086300  1
  O  O44  1  0.03065300  0.72439300  0.53666500  1
  O  O45  1  0.27560700  0.96934700  0.96333500  1
  O  O46  1  0.96934700  0.27560700  0.46333500  1
  O  O47  1  0.72439300  0.03065300  0.03666500  1
  F  F0  1  0.54337000  0.71486700  0.34660600  1
  F  F1  1  0.28513300  0.45663000  0.15339400  1
  F  F2  1  0.45663000  0.28513300  0.65339400  1
  F  F3  1  0.71486700  0.54337000  0.84660600  1
  F  F4  1  0.56376000  0.56661900  0.28738200  1
  F  F5  1  0.43338100  0.43624000  0.21261800  1
  F  F6  1  0.43624000  0.43338100  0.71261800  1
  F  F7  1  0.56661900  0.56376000  0.78738200  1
  F  F8  1  0.63577100  0.52858700  0.41789500  1
  F  F9  1  0.47141300  0.36422900  0.08210500  1
  F  F10  1  0.36422900  0.47141300  0.58210500  1
  F  F11  1  0.52858700  0.63577100  0.91789500  1
  F  F12  1  0.81845700  0.22202400  0.35256200  1
  F  F13  1  0.77797600  0.18154300  0.14743800  1
  F  F14  1  0.18154300  0.77797600  0.64743800  1
  F  F15  1  0.22202400  0.81845700  0.85256200  1
  F  F16  1  0.69733300  0.25319600  0.50012900  1
  F  F17  1  0.74680400  0.30266700  0.99987100  1
  F  F18  1  0.30266700  0.74680400  0.49987100  1
  F  F19  1  0.25319600  0.69733300  0.00012900  1
  F  F20  1  0.62243000  0.28250300  0.37344300  1
  F  F21  1  0.71749700  0.37757000  0.12655700  1
  F  F22  1  0.37757000  0.71749700  0.62655700  1
  F  F23  1  0.28250300  0.62243000  0.87344300  1
  F  F24  1  0.13955500  0.62896800  0.28867800  1
  F  F25  1  0.37103200  0.86044500  0.21132200  1
  F  F26  1  0.86044500  0.37103200  0.71132200  1
  F  F27  1  0.62896800  0.13955500  0.78867800  1
  F  F28  1  0.25450500  0.62607200  0.37519200  1
  F  F29  1  0.37392800  0.74549500  0.12480800  1
  F  F30  1  0.74549500  0.37392800  0.62480800  1
  F  F31  1  0.62607200  0.25450500  0.87519200  1
  F  F32  1  0.13341300  0.51400900  0.44476300  1
  F  F33  1  0.48599100  0.86658700  0.05523700  1
  F  F34  1  0.86658700  0.48599100  0.55523700  1
  F  F35  1  0.51400900  0.13341300  0.94476300  1
loop_
_geom_bond_atom_site_label_1
_geom_bond_atom_site_label_2
_geom_bond_distance
_geom_bond_site_symmetry_2
H0 O0 0.998795 1_555
H0 O31 1.673611 1_555
H1 O1 0.998795 1_555
H1 O30 1.673611 1_555
H2 O2 0.998795 1_555
H2 O29 1.673611 1_555
H3 O3 0.998795 1_555
H3 O28 1.673611 1_555
H4 O0 0.987381 1_455
H5 O1 0.987381 1_565
H6 O2 0.987381 1_655
H7 O3 0.987381 1_545
H8 O4 1.002396 1_555
H8 O19 1.702872 1_555
H9 O5 1.002396 1_556
H9 O18 1.702872 1_555
H10 O6 1.002396 1_555
H10 O17 1.702872 1_555
H11 O7 1.002396 1_554
H11 O16 1.702872 1_555
H12 O4 0.994591 1_555
H13 O5 0.994591 1_555
H14 O6 0.994591 1_555
H15 O7 0.994591 1_555
H16 O8 1.002366 1_545
H16 O13 1.685693 1_555
H17 O9 1.002366 1_655
H17 O12 1.685693 1_555
H18 O10 1.002366 1_565
H18 O15 1.685693 1_555
H19 O11 1.002366 1_455
H19 O14 1.685693 1_555
H20 O8 0.996682 1_555
H21 O9 0.996682 1_555
H22 O10 0.996682 1_555
H23 O11 0.996682 1_555
C0 F8 1.349302 1_555
C0 F0 1.349725 1_555
C0 F4 1.349788 1_555
C1 F9 1.349302 1_555
C1 F1 1.349725 1_555
C1 F5 1.349788 1_555
C2 F10 1.349302 1_555
C2 F2 1.349725 1_555
C2 F6 1.349788 1_555
C3 F11 1.349302 1_555
C3 F3 1.349725 1_555
C3 F7 1.349788 1_555
C4 F12 1.345689 1_555
C4 F20 1.349588 1_555
C4 F16 1.349931 1_555
C5 F13 1.345689 1_555
C5 F21 1.349588 1_555
C5 F17 1.349931 1_554
C6 F14 1.345689 1_555
C6 F22 1.349588 1_555
C6 F18 1.349931 1_555
C7 F15 1.345689 1_555
C7 F23 1.349588 1_555
C7 F19 1.349931 1_556
C8 F32 1.346210 1_555
C8 F28 1.348283 1_555
C8 F24 1.352992 1_555
C9 F33 1.346210 1_555
C9 F29 1.348283 1_555
C9 F25 1.352992 1_555
C10 F34 1.346210 1_555
C10 F30 1.348283 1_555
C10 F26 1.352992 1_555
C11 F35 1.346210 1_555
C11 F31 1.348283 1_555
C11 F27 1.352992 1_555
O0 Tl0 2.282367 1_555
O1 Tl1 2.282367 1_555
O2 Tl2 2.282367 1_555
O3 Tl3 2.282367 1_555
O4 Tl0 2.287874 1_555
O5 Tl1 2.287874 1_555
O6 Tl2 2.287874 1_555
O7 Tl3 2.287874 1_555
O8 Tl0 2.258162 1_555
O9 Tl1 2.258162 1_555
O10 Tl2 2.258162 1_555
O11 Tl3 2.258162 1_555
O12 S0 1.455258 1_555
O13 S1 1.455258 1_555
O14 S2 1.455258 1_555
O15 S3 1.455258 1_555
O16 S0 1.454622 1_555
O17 S1 1.454622 1_555
O18 S2 1.454622 1_555
O19 S3 1.454622 1_555
O20 S0 1.491087 1_555
O20 Tl0 2.313243 1_555
O21 S1 1.491087 1_555
O21 Tl1 2.313243 1_555
O22 S2 1.491087 1_555
O22 Tl2 2.313243 1_555
O23 S3 1.491087 1_555
O23 Tl3 2.313243 1_555
O24 S4 1.491955 1_555
O24 Tl0 2.305604 1_545
O25 S5 1.491957 1_555
O25 Tl1 2.305601 1_655
O26 S6 1.491957 1_555
O26 Tl2 2.305601 1_565
O27 S7 1.491957 1_555
O27 Tl3 2.305601 1_455
O28 S4 1.454272 1_565
O29 S5 1.454272 1_456
O30 S6 1.454272 1_545
O31 S7 1.454272 1_654
O32 S4 1.452392 1_555
O33 S5 1.452392 1_556
O34 S6 1.452392 1_555
O35 S7 1.452392 1_554
O36 S8 1.506244 1_655
O36 Tl0 2.254426 1_555
O37 S9 1.506244 1_545
O37 Tl1 2.254426 1_555
O38 S10 1.506244 1_455
O38 Tl2 2.254426 1_555
O39 S11 1.506244 1_565
O39 Tl3 2.254426 1_555
O40 S8 1.449762 1_555
O41 S9 1.449762 1_555
O42 S10 1.449762 1_555
O43 S11 1.449762 1_555
O44 S8 1.445273 1_555
O45 S9 1.445273 1_556
O46 S10 1.445273 1_555
O47 S11 1.445273 1_554
