# generated using pymatgen
data_Sm6Al43Mo4
_symmetry_space_group_name_H-M   'P 1'
_cell_length_a   11.07519768
_cell_length_b   11.07515039
_cell_length_c   17.74584694
_cell_angle_alpha   90.00000000
_cell_angle_beta   90.00000000
_cell_angle_gamma   120.00014532
_symmetry_Int_Tables_number   1
_chemical_formula_structural   Sm6Al43Mo4
_chemical_formula_sum   'Sm12 Al86 Mo8'
_cell_volume   1885.07158100
_cell_formula_units_Z   2
loop_
 _symmetry_equiv_pos_site_id
 _symmetry_equiv_pos_as_xyz
  1  'x, y, z'
loop_
 _atom_site_type_symbol
 _atom_site_label
 _atom_site_symmetry_multiplicity
 _atom_site_fract_x
 _atom_site_fract_y
 _atom_site_fract_z
 _atom_site_occupancy
  Sm  Sm0  1  0.53003576  -0.00000000  0.59522253  1
  Sm  Sm1  1  0.46995364  0.46995706  0.59522405  1
  Sm  Sm2  1  0.99999658  0.53004294  0.59522405  1
  Sm  Sm3  1  0.46996424  0.00000000  0.40477747  1
  Sm  Sm4  1  0.53004636  0.53004294  0.40477595  1
  Sm  Sm5  1  0.00000342  0.46995706  0.40477595  1
  Sm  Sm6  1  0.46996424  0.00000000  0.09522253  1
  Sm  Sm7  1  0.53004636  0.53004294  0.09522405  1
  Sm  Sm8  1  0.00000342  0.46995706  0.09522405  1
  Sm  Sm9  1  0.53003576  -0.00000000  0.90477747  1
  Sm  Sm10  1  0.46995364  0.46995706  0.90477595  1
  Sm  Sm11  1  0.99999658  0.53004294  0.90477595  1
  Al  Al0  1  0.15823910  0.39331369  0.66458071  1
  Al  Al1  1  0.23506961  0.84176748  0.66458410  1
  Al  Al2  1  0.60668219  0.76492999  0.66458126  1
  Al  Al3  1  0.76492540  0.60668631  0.66458071  1
  Al  Al4  1  0.39330213  0.15823252  0.66458410  1
  Al  Al5  1  0.84175220  0.23507001  0.66458126  1
  Al  Al6  1  0.84176090  0.60668631  0.33541929  1
  Al  Al7  1  0.76493039  0.15823252  0.33541590  1
  Al  Al8  1  0.39331781  0.23507001  0.33541874  1
  Al  Al9  1  0.23507460  0.39331369  0.33541929  1
  Al  Al10  1  0.60669787  0.84176748  0.33541590  1
  Al  Al11  1  0.15824780  0.76492999  0.33541874  1
  Al  Al12  1  0.84176090  0.60668631  0.16458071  1
  Al  Al13  1  0.76493039  0.15823252  0.16458410  1
  Al  Al14  1  0.39331781  0.23507001  0.16458126  1
  Al  Al15  1  0.23507460  0.39331369  0.16458071  1
  Al  Al16  1  0.60669787  0.84176748  0.16458410  1
  Al  Al17  1  0.15824780  0.76492999  0.16458126  1
  Al  Al18  1  0.15823910  0.39331369  0.83541929  1
  Al  Al19  1  0.23506961  0.84176748  0.83541590  1
  Al  Al20  1  0.60668219  0.76492999  0.83541874  1
  Al  Al21  1  0.76492540  0.60668631  0.83541929  1
  Al  Al22  1  0.39330213  0.15823252  0.83541590  1
  Al  Al23  1  0.84175220  0.23507001  0.83541874  1
  Al  Al24  1  0.15737645  1.00000000  0.11564657  1
  Al  Al25  1  0.84262625  0.84262294  0.11564554  1
  Al  Al26  1  0.00000332  0.15737706  0.11564554  1
  Al  Al27  1  0.84262355  0.00000000  0.88435343  1
  Al  Al28  1  0.15737375  0.15737706  0.88435446  1
  Al  Al29  1  0.99999668  0.84262294  0.88435446  1
  Al  Al30  1  0.84262355  0.00000000  0.61564657  1
  Al  Al31  1  0.15737375  0.15737706  0.61564554  1
  Al  Al32  1  0.99999668  0.84262294  0.61564554  1
  Al  Al33  1  0.15737645  1.00000000  0.38435343  1
  Al  Al34  1  0.84262625  0.84262294  0.38435446  1
  Al  Al35  1  0.00000332  0.15737706  0.38435446  1
  Al  Al36  1  0.25162437  1.00000000  0.53119370  1
  Al  Al37  1  0.74837462  0.74837184  0.53119660  1
  Al  Al38  1  0.00000277  0.25162816  0.53119660  1
  Al  Al39  1  0.74837563  0.00000000  0.46880630  1
  Al  Al40  1  0.25162538  0.25162816  0.46880340  1
  Al  Al41  1  0.99999723  0.74837184  0.46880340  1
  Al  Al42  1  0.74837563  0.00000000  0.03119370  1
  Al  Al43  1  0.25162538  0.25162816  0.03119660  1
  Al  Al44  1  0.99999723  0.74837184  0.03119660  1
  Al  Al45  1  0.25162437  1.00000000  0.96880630  1
  Al  Al46  1  0.74837462  0.74837184  0.96880340  1
  Al  Al47  1  0.00000277  0.25162816  0.96880340  1
  Al  Al48  1  0.14772944  0.59623906  0.75000000  1
  Al  Al49  1  0.44849603  0.85226070  0.75000000  1
  Al  Al50  1  0.40375352  0.55150678  0.75000000  1
  Al  Al51  1  0.55149039  0.40376094  0.75000000  1
  Al  Al52  1  0.59623533  0.14773930  0.75000000  1
  Al  Al53  1  0.85224674  0.44849322  0.75000000  1
  Al  Al54  1  0.85227056  0.40376094  0.25000000  1
  Al  Al55  1  0.55150397  0.14773930  0.25000000  1
  Al  Al56  1  0.59624648  0.44849322  0.25000000  1
  Al  Al57  1  0.44850961  0.59623906  0.25000000  1
  Al  Al58  1  0.40376467  0.85226070  0.25000000  1
  Al  Al59  1  0.14775326  0.55150678  0.25000000  1
  Al  Al60  1  0.24703751  0.49407501  0.50000000  1
  Al  Al61  1  0.24703340  0.75296293  0.49999664  1
  Al  Al62  1  0.50592953  0.75296293  0.50000336  1
  Al  Al63  1  0.75296249  0.50592499  0.50000000  1
  Al  Al64  1  0.49407047  0.24703707  0.49999664  1
  Al  Al65  1  0.75296660  0.24703707  0.50000336  1
  Al  Al66  1  0.75296249  0.50592499  -0.00000000  1
  Al  Al67  1  0.75296660  0.24703707  0.99999664  1
  Al  Al68  1  0.49407047  0.24703707  0.00000336  1
  Al  Al69  1  0.24703751  0.49407501  -0.00000000  1
  Al  Al70  1  0.50592953  0.75296293  0.99999664  1
  Al  Al71  1  0.24703340  0.75296293  0.00000336  1
  Al  Al72  1  0.33333023  0.66666793  0.62694278  1
  Al  Al73  1  0.66666230  0.33333207  0.62694278  1
  Al  Al74  1  0.66666977  0.33333207  0.37305722  1
  Al  Al75  1  0.33333770  0.66666793  0.37305722  1
  Al  Al76  1  0.66666977  0.33333207  0.12694278  1
  Al  Al77  1  0.33333770  0.66666793  0.12694278  1
  Al  Al78  1  0.33333023  0.66666793  0.87305722  1
  Al  Al79  1  0.66666230  0.33333207  0.87305722  1
  Al  Al80  1  0.14606788  1.00000000  0.75000000  1
  Al  Al81  1  0.85391848  0.85392062  0.75000000  1
  Al  Al82  1  0.99999786  0.14607938  0.75000000  1
  Al  Al83  1  0.85393212  0.00000000  0.25000000  1
  Al  Al84  1  0.14608152  0.14607938  0.25000000  1
  Al  Al85  1  0.00000214  0.85392062  0.25000000  1
  Mo  Mo0  1  0.73067151  0.00000000  0.75000000  1
  Mo  Mo1  1  0.26932287  0.26932670  0.75000000  1
  Mo  Mo2  1  0.99999617  0.73067330  0.75000000  1
  Mo  Mo3  1  0.26932849  1.00000000  0.25000000  1
  Mo  Mo4  1  0.73067713  0.73067330  0.25000000  1
  Mo  Mo5  1  0.00000383  0.26932670  0.25000000  1
  Mo  Mo6  1  0.00000000  -0.00000000  0.50000000  1
  Mo  Mo7  1  0.00000000  -0.00000000  -0.00000000  1
loop_
_geom_bond_atom_site_label_1
_geom_bond_atom_site_label_2
_geom_bond_distance
_geom_bond_site_symmetry_2
Sm0 Sm3 3.444472 1_555
Sm1 Sm4 3.444562 1_555
Sm2 Sm5 3.444562 1_655
Sm6 Sm9 3.444472 1_554
Sm10 Sm7 3.444562 1_556
Sm11 Sm8 3.444562 1_656
Al0 Mo1 2.717782 1_555
Al0 Al72 2.738820 1_555
Al0 Al31 2.749019 1_555
Al0 Al48 2.761131 1_555
Al0 Al50 2.827892 1_555
Al0 Al82 2.840409 1_455
Al0 Al38 2.895919 1_555
Al0 Al18 3.031675 1_555
Al0 Al5 3.035549 1_455
Al0 Sm2 3.087613 1_455
Al0 Al60 3.105653 1_555
Al0 Sm1 3.350119 1_555
Al1 Mo2 2.717767 1_455
Al1 Al72 2.738907 1_555
Al1 Al32 2.749014 1_455
Al1 Al49 2.761096 1_555
Al1 Al48 2.827947 1_555
Al1 Al80 2.840370 1_555
Al1 Al36 2.895975 1_555
Al1 Al19 3.031555 1_555
Al1 Al4 3.035326 1_565
Al1 Sm0 3.087594 1_565
Al1 Al61 3.105791 1_555
Al1 Sm2 3.350203 1_455
Al2 Mo0 2.717763 1_565
Al2 Al72 2.738814 1_555
Al2 Al30 2.749035 1_565
Al2 Al50 2.761080 1_555
Al2 Al49 2.827897 1_555
Al2 Al81 2.840435 1_555
Al2 Al37 2.896002 1_555
Al2 Al20 3.031656 1_555
Al2 Al3 3.035549 1_555
Al2 Sm1 3.087616 1_555
Al2 Al62 3.105569 1_555
Al2 Sm0 3.350135 1_565
Al3 Mo2 2.717782 1_555
Al3 Al73 2.738820 1_555
Al3 Al32 2.749019 1_555
Al3 Al51 2.761131 1_555
Al3 Al53 2.827892 1_555
Al3 Al81 2.840409 1_555
Al3 Al37 2.895919 1_555
Al3 Sm1 3.087613 1_555
Al3 Al63 3.105653 1_555
Al3 Sm2 3.350119 1_555
Al4 Mo1 2.717767 1_555
Al4 Al73 2.738907 1_555
Al4 Al52 2.761096 1_555
Al4 Al51 2.827947 1_555
Al4 Al80 2.840370 1_545
Al4 Sm0 3.087595 1_555
Al4 Al64 3.105791 1_555
Al4 Sm1 3.350203 1_555
Al5 Mo0 2.717763 1_555
Al5 Al73 2.738814 1_555
Al5 Al53 2.761080 1_555
Al5 Al52 2.827897 1_555
Al5 Al82 2.840435 1_555
Al5 Sm2 3.087616 1_555
Al5 Al65 3.105569 1_555
Al5 Sm0 3.350135 1_555
Al6 Mo4 2.717782 1_555
Al6 Al74 2.738820 1_555
Al6 Al85 2.840409 1_655
Al6 Sm5 3.087613 1_655
Al6 Al63 3.105653 1_555
Al6 Sm4 3.350119 1_555
Al7 Mo5 2.717767 1_655
Al7 Al74 2.738907 1_555
Al7 Al83 2.840370 1_555
Al7 Sm3 3.087594 1_555
Al7 Sm5 3.350203 1_655
Al8 Mo3 2.717763 1_545
Al8 Al84 2.840435 1_555
Al8 Al9 3.035549 1_555
Al8 Sm4 3.087616 1_555
Al8 Sm3 3.350135 1_555
Al9 Mo5 2.717782 1_555
Al9 Sm4 3.087613 1_555
Al9 Sm5 3.350119 1_555
Al10 Mo4 2.717767 1_555
Al10 Al75 2.738907 1_555
Al10 Al34 2.749014 1_555
Al10 Al58 2.761096 1_555
Al10 Al57 2.827947 1_555
Al10 Al83 2.840370 1_565
Al10 Al39 2.895975 1_565
Al10 Al16 3.031555 1_555
Al10 Al7 3.035326 1_565
Al10 Sm3 3.087595 1_565
Al10 Al62 3.105791 1_555
Al10 Sm4 3.350203 1_555
Al11 Mo3 2.717763 1_555
Al11 Al75 2.738814 1_555
Al11 Al33 2.749035 1_555
Al11 Al59 2.761080 1_555
Al11 Al58 2.827897 1_555
Al11 Al85 2.840435 1_555
Al11 Al41 2.896002 1_455
Al11 Al17 3.031656 1_555
Al11 Al6 3.035549 1_455
Al11 Sm5 3.087616 1_555
Al11 Al61 3.105569 1_555
Al11 Sm3 3.350135 1_565
Al12 Mo4 2.717782 1_555
Al12 Al76 2.738820 1_555
Al12 Al25 2.749019 1_555
Al12 Al54 2.761131 1_555
Al12 Al56 2.827892 1_555
Al12 Al85 2.840409 1_655
Al12 Al44 2.895919 1_555
Al12 Al6 3.031675 1_555
Al12 Al17 3.035549 1_655
Al12 Sm8 3.087613 1_655
Al12 Al66 3.105653 1_555
Al12 Sm7 3.350119 1_555
Al13 Mo5 2.717767 1_655
Al13 Al76 2.738907 1_555
Al13 Al26 2.749014 1_655
Al13 Al55 2.761096 1_555
Al13 Al54 2.827947 1_555
Al13 Al83 2.840370 1_555
Al13 Al42 2.895975 1_555
Al13 Al7 3.031555 1_555
Al13 Al16 3.035326 1_545
Al13 Sm6 3.087594 1_555
Al13 Al67 3.105791 1_554
Al13 Sm8 3.350203 1_655
Al14 Mo3 2.717763 1_545
Al14 Al76 2.738814 1_555
Al14 Al24 2.749035 1_545
Al14 Al56 2.761080 1_555
Al14 Al55 2.827897 1_555
Al14 Al84 2.840435 1_555
Al14 Al43 2.896002 1_555
Al14 Al8 3.031656 1_555
Al14 Al15 3.035549 1_555
Al14 Sm7 3.087616 1_555
Al14 Al68 3.105569 1_555
Al14 Sm6 3.350135 1_555
Al15 Mo5 2.717782 1_555
Al15 Al77 2.738820 1_555
Al15 Al26 2.749019 1_555
Al15 Al57 2.761131 1_555
Al15 Al59 2.827892 1_555
Al15 Al84 2.840409 1_555
Al15 Al43 2.895919 1_555
Al15 Al9 3.031675 1_555
Al15 Sm7 3.087613 1_555
Al15 Al69 3.105653 1_555
Al15 Sm8 3.350119 1_555
Al16 Mo4 2.717767 1_555
Al16 Al77 2.738907 1_555
Al16 Al25 2.749014 1_555
Al16 Al58 2.761096 1_555
Al16 Al57 2.827947 1_555
Al16 Al83 2.840370 1_565
Al16 Al42 2.895975 1_565
Al16 Sm6 3.087595 1_565
Al16 Al70 3.105791 1_554
Al16 Sm7 3.350203 1_555
Al17 Mo3 2.717763 1_555
Al17 Al77 2.738814 1_555
Al17 Al24 2.749035 1_555
Al17 Al59 2.761080 1_555
Al17 Al58 2.827897 1_555
Al17 Al85 2.840435 1_555
Al17 Al44 2.896002 1_455
Al17 Sm8 3.087616 1_555
Al17 Al71 3.105569 1_555
Al17 Sm6 3.350135 1_565
Al18 Mo1 2.717782 1_555
Al18 Al78 2.738820 1_555
Al18 Al28 2.749019 1_555
Al18 Al48 2.761131 1_555
Al18 Al50 2.827892 1_555
Al18 Al82 2.840409 1_455
Al18 Al47 2.895919 1_555
Al18 Al23 3.035549 1_455
Al18 Sm11 3.087613 1_455
Al18 Al69 3.105653 1_556
Al18 Sm10 3.350119 1_555
Al19 Mo2 2.717767 1_455
Al19 Al78 2.738907 1_555
Al19 Al29 2.749014 1_455
Al19 Al49 2.761096 1_555
Al19 Al48 2.827947 1_555
Al19 Al80 2.840370 1_555
Al19 Al45 2.895975 1_555
Al19 Al22 3.035326 1_565
Al19 Sm9 3.087594 1_565
Al19 Al71 3.105791 1_556
Al19 Sm11 3.350203 1_455
Al20 Mo0 2.717763 1_565
Al20 Al78 2.738814 1_555
Al20 Al27 2.749035 1_565
Al20 Al50 2.761080 1_555
Al20 Al49 2.827897 1_555
Al20 Al81 2.840435 1_555
Al20 Al46 2.896002 1_555
Al20 Al21 3.035549 1_555
Al20 Sm10 3.087616 1_555
Al20 Al70 3.105569 1_555
Al20 Sm9 3.350135 1_565
Al21 Mo2 2.717782 1_555
Al21 Al79 2.738820 1_555
Al21 Al29 2.749019 1_555
Al21 Al51 2.761131 1_555
Al21 Al53 2.827892 1_555
Al21 Al81 2.840409 1_555
Al21 Al46 2.895919 1_555
Al21 Al3 3.031675 1_555
Al21 Sm10 3.087613 1_555
Al21 Al66 3.105653 1_556
Al21 Sm11 3.350119 1_555
Al22 Mo1 2.717767 1_555
Al22 Al79 2.738907 1_555
Al22 Al28 2.749014 1_555
Al22 Al52 2.761096 1_555
Al22 Al51 2.827947 1_555
Al22 Al80 2.840370 1_545
Al22 Al45 2.895975 1_545
Al22 Al4 3.031555 1_555
Al22 Sm9 3.087595 1_555
Al22 Al68 3.105791 1_556
Al22 Sm10 3.350203 1_555
Al23 Mo0 2.717763 1_555
Al23 Al79 2.738814 1_555
Al23 Al27 2.749035 1_555
Al23 Al53 2.761080 1_555
Al23 Al52 2.827897 1_555
Al23 Al82 2.840435 1_555
Al23 Al47 2.896002 1_655
Al23 Al5 3.031656 1_555
Al23 Sm11 3.087616 1_555
Al23 Al67 3.105569 1_555
Al23 Sm9 3.350135 1_555
Al24 Mo3 2.687343 1_555
Al24 Mo7 2.692523 1_565
Al24 Al45 2.807092 1_554
Al24 Al44 2.862321 1_455
Al24 Al43 2.862321 1_565
Al24 Al85 2.918897 1_555
Al24 Al84 2.918897 1_565
Al24 Al25 3.018891 1_455
Al24 Al26 3.018892 1_565
Al24 Sm6 3.480892 1_565
Al25 Mo4 2.687343 1_555
Al25 Mo7 2.692496 1_665
Al25 Al46 2.807136 1_554
Al25 Al44 2.862265 1_555
Al25 Al42 2.862339 1_565
Al25 Al83 2.918897 1_565
Al25 Al85 2.918918 1_655
Al25 Al26 3.018916 1_665
Al25 Sm7 3.480786 1_555
Al26 Mo5 2.687343 1_555
Al26 Mo7 2.692496 1_555
Al26 Al47 2.807136 1_554
Al26 Al43 2.862265 1_555
Al26 Al42 2.862339 1_455
Al26 Al83 2.918897 1_455
Al26 Al84 2.918918 1_555
Al26 Sm8 3.480787 1_555
Al27 Mo0 2.687343 1_555
Al27 Mo7 2.692523 1_656
Al27 Al42 2.807092 1_556
Al27 Al47 2.862321 1_655
Al27 Al46 2.862321 1_545
Al27 Al82 2.918897 1_555
Al27 Al81 2.918897 1_545
Al27 Al28 3.018891 1_655
Al27 Al29 3.018892 1_545
Al27 Sm9 3.480892 1_555
Al28 Mo1 2.687343 1_555
Al28 Mo7 2.692496 1_556
Al28 Al43 2.807136 1_556
Al28 Al47 2.862265 1_555
Al28 Al45 2.862339 1_545
Al28 Al80 2.918897 1_545
Al28 Al82 2.918918 1_455
Al28 Al29 3.018916 1_445
Al28 Sm10 3.480786 1_555
Al29 Mo2 2.687343 1_555
Al29 Mo7 2.692496 1_666
Al29 Al44 2.807136 1_556
Al29 Al46 2.862265 1_555
Al29 Al45 2.862339 1_655
Al29 Al80 2.918897 1_655
Al29 Al81 2.918918 1_555
Al29 Sm11 3.480787 1_555
Al30 Mo0 2.687343 1_555
Al30 Mo6 2.692523 1_655
Al30 Al5 2.749035 1_555
Al30 Al39 2.807092 1_555
Al30 Al38 2.862321 1_655
Al30 Al37 2.862321 1_545
Al30 Al82 2.918897 1_555
Al30 Al81 2.918897 1_545
Al30 Al31 3.018891 1_655
Al30 Al32 3.018892 1_545
Al30 Sm0 3.480892 1_555
Al31 Mo1 2.687343 1_555
Al31 Mo6 2.692496 1_555
Al31 Al4 2.749014 1_555
Al31 Al40 2.807136 1_555
Al31 Al38 2.862265 1_555
Al31 Al36 2.862339 1_545
Al31 Al80 2.918897 1_545
Al31 Al82 2.918918 1_455
Al31 Al32 3.018916 1_445
Al31 Sm1 3.480786 1_555
Al32 Mo2 2.687343 1_555
Al32 Mo6 2.692496 1_665
Al32 Al41 2.807136 1_555
Al32 Al37 2.862265 1_555
Al32 Al36 2.862339 1_655
Al32 Al80 2.918897 1_655
Al32 Al81 2.918918 1_555
Al32 Sm2 3.480787 1_555
Al33 Mo3 2.687343 1_555
Al33 Mo6 2.692523 1_565
Al33 Al8 2.749035 1_565
Al33 Al36 2.807092 1_555
Al33 Al41 2.862321 1_455
Al33 Al40 2.862321 1_565
Al33 Al85 2.918897 1_555
Al33 Al84 2.918897 1_565
Al33 Al34 3.018891 1_455
Al33 Al35 3.018892 1_565
Al33 Sm3 3.480892 1_565
Al34 Mo4 2.687343 1_555
Al34 Mo6 2.692496 1_665
Al34 Al6 2.749019 1_555
Al34 Al37 2.807136 1_555
Al34 Al41 2.862265 1_555
Al34 Al39 2.862339 1_565
Al34 Al83 2.918897 1_565
Al34 Al85 2.918918 1_655
Al34 Al35 3.018916 1_665
Al34 Sm4 3.480786 1_555
Al35 Mo5 2.687343 1_555
Al35 Mo6 2.692496 1_555
Al35 Al7 2.749014 1_455
Al35 Al9 2.749019 1_555
Al35 Al38 2.807136 1_555
Al35 Al40 2.862265 1_555
Al35 Al39 2.862339 1_455
Al35 Al83 2.918897 1_455
Al35 Al84 2.918918 1_555
Al35 Sm5 3.480787 1_555
Al36 Al64 2.766859 1_565
Al36 Al61 2.766860 1_555
Al36 Mo6 2.841236 1_565
Al36 Al4 2.895975 1_565
Al36 Al41 2.998692 1_455
Al36 Al40 2.998692 1_565
Al36 Sm0 3.286151 1_565
Al36 Sm3 3.298509 1_565
Al37 Al62 2.766847 1_555
Al37 Al63 2.766849 1_555
Al37 Mo6 2.841261 1_665
Al37 Al41 2.998670 1_555
Al37 Al39 2.998692 1_565
Al37 Sm1 3.286197 1_555
Al37 Sm4 3.298463 1_555
Al38 Al65 2.766847 1_455
Al38 Al60 2.766849 1_555
Al38 Mo6 2.841261 1_555
Al38 Al5 2.896002 1_455
Al38 Al40 2.998670 1_555
Al38 Al39 2.998692 1_455
Al38 Sm2 3.286197 1_455
Al38 Sm5 3.298463 1_555
Al39 Al62 2.766859 1_545
Al39 Al65 2.766860 1_555
Al39 Mo6 2.841236 1_655
Al39 Al7 2.895975 1_555
Al39 Sm3 3.286151 1_555
Al39 Sm0 3.298509 1_555
Al40 Al64 2.766847 1_555
Al40 Al60 2.766849 1_555
Al40 Mo6 2.841261 1_555
Al40 Al9 2.895919 1_555
Al40 Al8 2.896002 1_555
Al40 Sm4 3.286197 1_555
Al40 Sm1 3.298463 1_555
Al41 Al61 2.766847 1_655
Al41 Al63 2.766849 1_555
Al41 Mo6 2.841261 1_665
Al41 Al6 2.895919 1_555
Al41 Sm5 3.286197 1_655
Al41 Sm2 3.298463 1_555
Al42 Al70 2.766859 1_544
Al42 Al67 2.766860 1_554
Al42 Mo7 2.841236 1_655
Al42 Al47 2.998692 1_654
Al42 Al46 2.998692 1_544
Al42 Sm6 3.286151 1_555
Al42 Sm9 3.298509 1_554
Al43 Al68 2.766847 1_555
Al43 Al69 2.766849 1_555
Al43 Mo7 2.841261 1_555
Al43 Al47 2.998670 1_554
Al43 Al45 2.998692 1_544
Al43 Sm7 3.286197 1_555
Al43 Sm10 3.298463 1_554
Al44 Al71 2.766847 1_655
Al44 Al66 2.766849 1_555
Al44 Mo7 2.841261 1_665
Al44 Al46 2.998670 1_554
Al44 Al45 2.998692 1_654
Al44 Sm8 3.286197 1_655
Al44 Sm11 3.298463 1_554
Al45 Al68 2.766859 1_566
Al45 Al71 2.766860 1_556
Al45 Mo7 2.841236 1_566
Al45 Sm9 3.286151 1_565
Al45 Sm6 3.298509 1_566
Al46 Al70 2.766847 1_555
Al46 Al66 2.766849 1_556
Al46 Mo7 2.841261 1_666
Al46 Sm10 3.286197 1_555
Al46 Sm7 3.298463 1_556
Al47 Al67 2.766847 1_455
Al47 Al69 2.766849 1_556
Al47 Mo7 2.841261 1_556
Al47 Sm11 3.286197 1_455
Al47 Sm8 3.298463 1_556
Al48 Mo2 2.707381 1_455
Al48 Al72 2.828282 1_555
Al48 Al78 2.828282 1_555
Al48 Al53 2.834089 1_455
Al48 Sm2 3.091760 1_455
Al48 Sm11 3.091760 1_455
Al48 Al50 3.112935 1_555
Al48 Al49 3.112984 1_555
Al49 Mo0 2.707457 1_565
Al49 Al78 2.828226 1_555
Al49 Al72 2.828226 1_555
Al49 Al52 2.834038 1_565
Al49 Sm0 3.091809 1_565
Al49 Sm9 3.091809 1_565
Al49 Al50 3.112851 1_555
Al50 Mo1 2.707492 1_555
Al50 Al78 2.828179 1_555
Al50 Al72 2.828179 1_555
Al50 Al51 2.834090 1_555
Al50 Sm1 3.091836 1_555
Al50 Sm10 3.091836 1_555
Al51 Mo1 2.707380 1_555
Al51 Al79 2.828282 1_555
Al51 Al73 2.828282 1_555
Al51 Sm1 3.091760 1_555
Al51 Sm10 3.091760 1_555
Al51 Al53 3.112935 1_555
Al51 Al52 3.112984 1_555
Al52 Mo0 2.707457 1_555
Al52 Al73 2.828226 1_555
Al52 Al79 2.828226 1_555
Al52 Sm0 3.091809 1_555
Al52 Sm9 3.091809 1_555
Al52 Al53 3.112851 1_555
Al53 Mo2 2.707492 1_555
Al53 Al73 2.828179 1_555
Al53 Al79 2.828179 1_555
Al53 Sm11 3.091836 1_555
Al53 Sm2 3.091836 1_555
Al54 Mo5 2.707381 1_655
Al54 Al6 2.761131 1_555
Al54 Al7 2.827947 1_555
Al54 Al76 2.828282 1_555
Al54 Al74 2.828282 1_555
Al54 Al59 2.834089 1_655
Al54 Sm5 3.091760 1_655
Al54 Sm8 3.091760 1_655
Al54 Al56 3.112935 1_555
Al54 Al55 3.112984 1_555
Al55 Mo3 2.707457 1_545
Al55 Al7 2.761096 1_555
Al55 Al8 2.827897 1_555
Al55 Al76 2.828226 1_555
Al55 Al74 2.828226 1_555
Al55 Al58 2.834038 1_545
Al55 Sm6 3.091809 1_555
Al55 Sm3 3.091809 1_555
Al55 Al56 3.112851 1_555
Al56 Mo4 2.707492 1_555
Al56 Al8 2.761080 1_555
Al56 Al6 2.827892 1_555
Al56 Al76 2.828179 1_555
Al56 Al74 2.828179 1_555
Al56 Al57 2.834090 1_555
Al56 Sm7 3.091836 1_555
Al56 Sm4 3.091836 1_555
Al57 Mo4 2.707380 1_555
Al57 Al9 2.761131 1_555
Al57 Al77 2.828282 1_555
Al57 Al75 2.828282 1_555
Al57 Sm7 3.091760 1_555
Al57 Sm4 3.091760 1_555
Al57 Al59 3.112935 1_555
Al57 Al58 3.112984 1_555
Al58 Mo3 2.707457 1_555
Al58 Al77 2.828226 1_555
Al58 Al75 2.828226 1_555
Al58 Sm6 3.091809 1_565
Al58 Sm3 3.091809 1_565
Al58 Al59 3.112851 1_555
Al59 Mo5 2.707492 1_555
Al59 Al9 2.827892 1_555
Al59 Al77 2.828179 1_555
Al59 Al75 2.828179 1_555
Al59 Sm8 3.091836 1_555
Al59 Sm5 3.091836 1_555
Al60 Al75 2.795538 1_555
Al60 Al72 2.795538 1_555
Al60 Al62 2.867245 1_555
Al60 Al61 2.867245 1_555
Al60 Al9 3.105653 1_555
Al60 Sm1 3.111512 1_555
Al60 Sm5 3.111512 1_555
Al60 Sm4 3.404403 1_555
Al60 Sm2 3.404403 1_455
Al61 Al75 2.795531 1_555
Al61 Al72 2.795584 1_555
Al61 Al62 2.867326 1_555
Al61 Sm3 3.111528 1_565
Al61 Sm2 3.111565 1_455
Al61 Sm5 3.404302 1_555
Al61 Sm0 3.404358 1_565
Al62 Al72 2.795531 1_555
Al62 Al75 2.795584 1_555
Al62 Sm0 3.111528 1_565
Al62 Sm4 3.111565 1_555
Al62 Sm1 3.404302 1_555
Al62 Sm3 3.404358 1_565
Al63 Al73 2.795538 1_555
Al63 Al74 2.795538 1_555
Al63 Al64 2.867245 1_555
Al63 Al65 2.867245 1_555
Al63 Sm4 3.111512 1_555
Al63 Sm2 3.111512 1_555
Al63 Sm1 3.404403 1_555
Al63 Sm5 3.404403 1_655
Al64 Al74 2.795531 1_555
Al64 Al73 2.795584 1_555
Al64 Al65 2.867326 1_555
Al64 Al8 3.105569 1_555
Al64 Sm3 3.111528 1_555
Al64 Sm1 3.111565 1_555
Al64 Sm4 3.404302 1_555
Al64 Sm0 3.404358 1_555
Al65 Al73 2.795531 1_555
Al65 Al74 2.795584 1_555
Al65 Al7 3.105791 1_555
Al65 Sm0 3.111528 1_555
Al65 Sm5 3.111565 1_655
Al65 Sm2 3.404302 1_555
Al65 Sm3 3.404358 1_555
Al66 Al79 2.795538 1_554
Al66 Al76 2.795538 1_555
Al66 Al68 2.867245 1_555
Al66 Al67 2.867245 1_554
Al66 Sm7 3.111512 1_555
Al66 Sm11 3.111512 1_554
Al66 Sm10 3.404403 1_554
Al66 Sm8 3.404403 1_655
Al67 Al79 2.795531 1_555
Al67 Al76 2.795584 1_556
Al67 Al68 2.867326 1_556
Al67 Sm9 3.111528 1_555
Al67 Sm8 3.111565 1_656
Al67 Sm11 3.404302 1_555
Al67 Sm6 3.404358 1_556
Al68 Al76 2.795531 1_555
Al68 Al79 2.795584 1_554
Al68 Sm6 3.111528 1_555
Al68 Sm10 3.111565 1_554
Al68 Sm7 3.404302 1_555
Al68 Sm9 3.404358 1_554
Al69 Al77 2.795538 1_555
Al69 Al78 2.795538 1_554
Al69 Al70 2.867245 1_554
Al69 Al71 2.867245 1_555
Al69 Sm10 3.111512 1_554
Al69 Sm8 3.111512 1_555
Al69 Sm7 3.404403 1_555
Al69 Sm11 3.404403 1_454
Al70 Al78 2.795531 1_555
Al70 Al77 2.795584 1_556
Al70 Al71 2.867326 1_556
Al70 Sm9 3.111528 1_565
Al70 Sm7 3.111565 1_556
Al70 Sm10 3.404302 1_555
Al70 Sm6 3.404358 1_566
Al71 Al77 2.795531 1_555
Al71 Al78 2.795584 1_554
Al71 Sm6 3.111528 1_565
Al71 Sm11 3.111565 1_454
Al71 Sm8 3.404302 1_555
Al71 Sm9 3.404358 1_564
Al72 Sm0 3.263283 1_565
Al72 Sm2 3.263311 1_455
Al72 Sm1 3.263316 1_555
Al73 Sm0 3.263283 1_555
Al73 Sm1 3.263311 1_555
Al73 Sm2 3.263316 1_555
Al74 Al8 2.738814 1_555
Al74 Sm3 3.263283 1_555
Al74 Sm5 3.263311 1_655
Al74 Sm4 3.263316 1_555
Al75 Al9 2.738820 1_555
Al75 Sm3 3.263283 1_565
Al75 Sm4 3.263311 1_555
Al75 Sm5 3.263316 1_555
Al76 Sm6 3.263283 1_555
Al76 Sm8 3.263311 1_655
Al76 Sm7 3.263316 1_555
Al77 Sm6 3.263283 1_565
Al77 Sm7 3.263311 1_555
Al77 Sm8 3.263316 1_555
Al78 Sm9 3.263283 1_565
Al78 Sm11 3.263311 1_455
Al78 Sm10 3.263316 1_555
Al79 Sm9 3.263283 1_555
Al79 Sm10 3.263311 1_555
Al79 Sm11 3.263316 1_555
Al80 Mo2 2.586294 1_455
Al80 Mo1 2.586294 1_565
Al80 Al81 2.802118 1_455
Al80 Al82 2.802119 1_465
Al81 Mo2 2.586293 1_555
Al81 Mo0 2.586306 1_565
Al81 Al82 2.802196 1_565
Al82 Mo1 2.586293 1_655
Al82 Mo0 2.586305 1_555
Al83 Mo5 2.586294 1_655
Al83 Mo4 2.586294 1_545
Al83 Al84 2.802118 1_655
Al83 Al85 2.802119 1_645
Al84 Mo5 2.586293 1_555
Al84 Mo3 2.586306 1_545
Al84 Al85 2.802196 1_545
Al84 Al9 2.840409 1_555
Al85 Mo4 2.586293 1_455
Al85 Mo3 2.586305 1_555
Mo0 Sm0 3.532955 1_555
Mo0 Sm9 3.532955 1_555
Mo1 Sm10 3.532891 1_555
Mo1 Sm1 3.532891 1_555
Mo2 Sm11 3.532892 1_555
Mo2 Sm2 3.532892 1_555
Mo3 Sm6 3.532955 1_565
Mo3 Sm3 3.532955 1_565
Mo4 Sm7 3.532891 1_555
Mo4 Sm4 3.532891 1_555
Mo5 Sm5 3.532892 1_555
Mo5 Sm8 3.532892 1_555
