# generated using pymatgen
data_Na3V3Cr2O12
_symmetry_space_group_name_H-M   'P 1'
_cell_length_a   10.80670155
_cell_length_b   10.80670155
_cell_length_c   10.80670155
_cell_angle_alpha   109.47122063
_cell_angle_beta   109.47122063
_cell_angle_gamma   109.47122063
_symmetry_Int_Tables_number   1
_chemical_formula_structural   Na3V3Cr2O12
_chemical_formula_sum   'Na12 V12 Cr8 O48'
_cell_volume   971.53305735
_cell_formula_units_Z   4
loop_
 _symmetry_equiv_pos_site_id
 _symmetry_equiv_pos_as_xyz
  1  'x, y, z'
loop_
 _atom_site_type_symbol
 _atom_site_label
 _atom_site_symmetry_multiplicity
 _atom_site_fract_x
 _atom_site_fract_y
 _atom_site_fract_z
 _atom_site_occupancy
  Na  Na0  1  0.25000000  0.62500000  0.87500000  1
  Na  Na1  1  0.75000000  0.87500000  0.62500000  1
  Na  Na2  1  0.87500000  0.25000000  0.62500000  1
  Na  Na3  1  0.62500000  0.75000000  0.87500000  1
  Na  Na4  1  0.62500000  0.87500000  0.25000000  1
  Na  Na5  1  0.87500000  0.62500000  0.75000000  1
  Na  Na6  1  0.75000000  0.37500000  0.12500000  1
  Na  Na7  1  0.25000000  0.12500000  0.37500000  1
  Na  Na8  1  0.12500000  0.75000000  0.37500000  1
  Na  Na9  1  0.37500000  0.25000000  0.12500000  1
  Na  Na10  1  0.37500000  0.12500000  0.75000000  1
  Na  Na11  1  0.12500000  0.37500000  0.25000000  1
  V  V0  1  0.25000000  0.37500000  0.62500000  1
  V  V1  1  0.75000000  0.12500000  0.87500000  1
  V  V2  1  0.62500000  0.25000000  0.37500000  1
  V  V3  1  0.87500000  0.75000000  0.12500000  1
  V  V4  1  0.37500000  0.62500000  0.25000000  1
  V  V5  1  0.12500000  0.87500000  0.75000000  1
  V  V6  1  0.75000000  0.62500000  0.37500000  1
  V  V7  1  0.25000000  0.87500000  0.12500000  1
  V  V8  1  0.37500000  0.75000000  0.62500000  1
  V  V9  1  0.12500000  0.25000000  0.87500000  1
  V  V10  1  0.62500000  0.37500000  0.75000000  1
  V  V11  1  0.87500000  0.12500000  0.25000000  1
  Cr  Cr0  1  -0.00000000  0.50000000  -0.00000000  1
  Cr  Cr1  1  0.50000000  0.00000000  -0.00000000  1
  Cr  Cr2  1  -0.00000000  0.00000000  0.50000000  1
  Cr  Cr3  1  0.50000000  0.50000000  0.50000000  1
  Cr  Cr4  1  -0.00000000  0.50000000  0.50000000  1
  Cr  Cr5  1  0.50000000  0.00000000  0.50000000  1
  Cr  Cr6  1  0.50000000  0.50000000  -0.00000000  1
  Cr  Cr7  1  -0.00000000  0.00000000  -0.00000000  1
  O  O0  1  0.60333289  0.11124465  0.91457676  1
  O  O1  1  0.89666711  0.31124387  0.00791176  1
  O  O2  1  0.30333211  0.38875535  0.49208824  1
  O  O3  1  0.19666789  0.18875613  0.58542324  1
  O  O4  1  0.91457676  0.60333289  0.11124465  1
  O  O5  1  0.00791176  0.89666711  0.31124387  1
  O  O6  1  0.49208824  0.30333211  0.38875535  1
  O  O7  1  0.58542324  0.19666789  0.18875613  1
  O  O8  1  0.11124465  0.91457676  0.60333289  1
  O  O9  1  0.31124387  0.00791176  0.89666711  1
  O  O10  1  0.38875535  0.49208824  0.30333211  1
  O  O11  1  0.18875613  0.58542324  0.19666789  1
  O  O12  1  0.39666711  0.88875535  0.08542324  1
  O  O13  1  0.10333289  0.68875613  0.99208824  1
  O  O14  1  0.69666789  0.61124465  0.50791176  1
  O  O15  1  0.80333211  0.81124387  0.41457676  1
  O  O16  1  0.08542324  0.39666711  0.88875535  1
  O  O17  1  0.99208824  0.10333289  0.68875613  1
  O  O18  1  0.50791176  0.69666789  0.61124465  1
  O  O19  1  0.41457676  0.80333211  0.81124387  1
  O  O20  1  0.88875535  0.08542324  0.39666711  1
  O  O21  1  0.68875613  0.99208824  0.10333289  1
  O  O22  1  0.61124465  0.50791176  0.69666789  1
  O  O23  1  0.81124387  0.41457676  0.80333211  1
  O  O24  1  0.61124465  0.10333289  0.41457676  1
  O  O25  1  0.81124387  0.39666711  0.50791176  1
  O  O26  1  0.88875535  0.80333211  0.99208824  1
  O  O27  1  0.68875613  0.69666789  0.08542324  1
  O  O28  1  0.10333289  0.41457676  0.61124465  1
  O  O29  1  0.39666711  0.50791176  0.81124387  1
  O  O30  1  0.80333211  0.99208824  0.88875535  1
  O  O31  1  0.69666789  0.08542324  0.68875613  1
  O  O32  1  0.41457676  0.61124465  0.10333289  1
  O  O33  1  0.50791176  0.81124387  0.39666711  1
  O  O34  1  0.99208824  0.88875535  0.80333211  1
  O  O35  1  0.08542324  0.68875613  0.69666789  1
  O  O36  1  0.38875535  0.89666711  0.58542324  1
  O  O37  1  0.18875613  0.60333289  0.49208824  1
  O  O38  1  0.11124465  0.19666789  0.00791176  1
  O  O39  1  0.31124387  0.30333211  0.91457676  1
  O  O40  1  0.89666711  0.58542324  0.38875535  1
  O  O41  1  0.60333289  0.49208824  0.18875613  1
  O  O42  1  0.19666789  0.00791176  0.11124465  1
  O  O43  1  0.30333211  0.91457676  0.31124387  1
  O  O44  1  0.58542324  0.38875535  0.89666711  1
  O  O45  1  0.49208824  0.18875613  0.60333289  1
  O  O46  1  0.00791176  0.11124465  0.19666789  1
  O  O47  1  0.91457676  0.31124387  0.30333211  1
loop_
_geom_bond_atom_site_label_1
_geom_bond_atom_site_label_2
_geom_bond_distance
_geom_bond_site_symmetry_2
Na0 O29 2.464109 1_555
Na0 O12 2.464109 1_556
Na0 O28 2.464109 1_555
Na0 O13 2.464109 1_555
Na0 O32 2.601735 1_556
Na0 O35 2.601735 1_555
Na0 O16 2.601735 1_555
Na0 O19 2.601735 1_555
Na1 O31 2.464109 1_565
Na1 O14 2.464109 1_555
Na1 O15 2.464109 1_555
Na1 O30 2.464109 1_555
Na1 O18 2.601735 1_555
Na1 O33 2.601735 1_555
Na1 O17 2.601735 1_565
Na1 O34 2.601735 1_555
Na2 O16 2.464109 1_655
Na2 O25 2.464109 1_555
Na2 O24 2.464109 1_555
Na2 O17 2.464109 1_555
Na2 O28 2.601735 1_655
Na2 O31 2.601735 1_555
Na2 O23 2.601735 1_555
Na2 O20 2.601735 1_555
Na3 O27 2.464109 1_556
Na3 O18 2.464109 1_555
Na3 O26 2.464109 1_555
Na3 O19 2.464109 1_555
Na3 O22 2.601735 1_555
Na3 O29 2.601735 1_555
Na3 O21 2.601735 1_556
Na3 O30 2.601735 1_555
Na4 O33 2.464109 1_555
Na4 O32 2.464109 1_555
Na4 O21 2.464109 1_555
Na4 O20 2.464109 1_565
Na4 O24 2.601735 1_565
Na4 O27 2.601735 1_555
Na4 O15 2.601735 1_555
Na4 O12 2.601735 1_555
Na5 O35 2.464109 1_655
Na5 O22 2.464109 1_555
Na5 O23 2.464109 1_555
Na5 O34 2.464109 1_555
Na5 O14 2.601735 1_555
Na5 O25 2.601735 1_555
Na5 O13 2.601735 1_655
Na5 O26 2.601735 1_555
Na6 O40 2.464109 1_555
Na6 O41 2.464109 1_555
Na6 O0 2.464109 1_554
Na6 O1 2.464109 1_555
Na6 O47 2.601735 1_555
Na6 O44 2.601735 1_554
Na6 O4 2.601735 1_555
Na6 O7 2.601735 1_555
Na7 O3 2.464109 1_555
Na7 O43 2.464109 1_545
Na7 O42 2.464109 1_555
Na7 O2 2.464109 1_555
Na7 O46 2.601735 1_555
Na7 O6 2.601735 1_555
Na7 O45 2.601735 1_555
Na7 O5 2.601735 1_545
Na8 O5 2.464109 1_555
Na8 O37 2.464109 1_555
Na8 O4 2.464109 1_455
Na8 O36 2.464109 1_555
Na8 O11 2.601735 1_555
Na8 O43 2.601735 1_555
Na8 O8 2.601735 1_555
Na8 O40 2.601735 1_455
Na9 O6 2.464109 1_555
Na9 O38 2.464109 1_555
Na9 O39 2.464109 1_554
Na9 O7 2.464109 1_555
Na9 O10 2.601735 1_555
Na9 O41 2.601735 1_555
Na9 O42 2.601735 1_555
Na9 O9 2.601735 1_554
Na10 O9 2.464109 1_555
Na10 O44 2.464109 1_555
Na10 O45 2.464109 1_555
Na10 O8 2.464109 1_545
Na10 O39 2.601735 1_555
Na10 O36 2.601735 1_545
Na10 O0 2.601735 1_555
Na10 O3 2.601735 1_555
Na11 O10 2.464109 1_555
Na11 O47 2.464109 1_455
Na11 O11 2.464109 1_555
Na11 O46 2.464109 1_555
Na11 O2 2.601735 1_555
Na11 O37 2.601735 1_555
Na11 O38 2.601735 1_555
Na11 O1 2.601735 1_455
Cr0 O16 2.019050 1_554
Cr0 O1 2.019050 1_455
Cr0 O23 2.019050 1_454
Cr0 O13 2.019050 1_554
Cr0 O4 2.019050 1_455
Cr0 O11 2.019050 1_555
Cr1 O12 2.019050 1_545
Cr1 O9 2.019050 1_554
Cr1 O19 2.019050 1_544
Cr1 O21 2.019050 1_545
Cr1 O7 2.019050 1_555
Cr1 O0 2.019050 1_554
Cr2 O3 2.019050 1_555
Cr2 O5 2.019050 1_545
Cr2 O15 2.019050 1_445
Cr2 O20 2.019050 1_455
Cr2 O17 2.019050 1_455
Cr2 O8 2.019050 1_545
Cr3 O10 2.019050 1_555
Cr3 O22 2.019050 1_555
Cr3 O2 2.019050 1_555
Cr3 O14 2.019050 1_555
Cr3 O18 2.019050 1_555
Cr3 O6 2.019050 1_555
Cr4 O47 2.019050 1_455
Cr4 O37 2.019050 1_555
Cr4 O40 2.019050 1_455
Cr4 O28 2.019050 1_555
Cr4 O35 2.019050 1_555
Cr4 O25 2.019050 1_455
Cr5 O45 2.019050 1_555
Cr5 O43 2.019050 1_545
Cr5 O36 2.019050 1_545
Cr5 O31 2.019050 1_555
Cr5 O24 2.019050 1_555
Cr5 O33 2.019050 1_545
Cr6 O41 2.019050 1_555
Cr6 O39 2.019050 1_554
Cr6 O32 2.019050 1_555
Cr6 O27 2.019050 1_555
Cr6 O44 2.019050 1_554
Cr6 O29 2.019050 1_554
Cr7 O30 2.019050 1_444
Cr7 O26 2.019050 1_444
Cr7 O34 2.019050 1_444
Cr7 O42 2.019050 1_555
Cr7 O46 2.019050 1_555
Cr7 O38 2.019050 1_555
O0 V1 1.747697 1_555
O1 V1 1.747697 1_554
O2 V0 1.747697 1_555
O3 V0 1.747697 1_555
O4 V3 1.747697 1_555
O5 V3 1.747697 1_455
O6 V2 1.747697 1_555
O7 V2 1.747697 1_555
O8 V5 1.747697 1_555
O9 V5 1.747697 1_545
O10 V4 1.747697 1_555
O11 V4 1.747697 1_555
O12 V7 1.747697 1_555
O13 V7 1.747697 1_556
O14 V6 1.747697 1_555
O15 V6 1.747697 1_555
O16 V9 1.747697 1_555
O17 V9 1.747697 1_655
O18 V8 1.747697 1_555
O19 V8 1.747697 1_555
O20 V11 1.747697 1_555
O21 V11 1.747697 1_565
O22 V10 1.747697 1_555
O23 V10 1.747697 1_555
O24 V2 1.747697 1_555
O25 V2 1.747697 1_555
O26 V3 1.747697 1_556
O27 V3 1.747697 1_555
O28 V0 1.747697 1_555
O29 V0 1.747697 1_555
O30 V1 1.747697 1_565
O31 V1 1.747697 1_555
O32 V4 1.747697 1_555
O33 V4 1.747697 1_555
O34 V5 1.747697 1_655
O35 V5 1.747697 1_555
O36 V8 1.747697 1_555
O37 V8 1.747697 1_555
O38 V9 1.747697 1_554
O39 V9 1.747697 1_555
O40 V6 1.747697 1_555
O41 V6 1.747697 1_555
O42 V7 1.747697 1_545
O43 V7 1.747697 1_555
O44 V10 1.747697 1_555
O45 V10 1.747697 1_555
O46 V11 1.747697 1_455
O47 V11 1.747697 1_555
