# generated using pymatgen
data_LiMnPO4
_symmetry_space_group_name_H-M   'P 1'
_cell_length_a   8.57862352
_cell_length_b   7.64063618
_cell_length_c   14.85827128
_cell_angle_alpha   89.08846557
_cell_angle_beta   90.39065638
_cell_angle_gamma   89.77000765
_symmetry_Int_Tables_number   1
_chemical_formula_structural   LiMnPO4
_chemical_formula_sum   'Li12 Mn12 P12 O48'
_cell_volume   973.74818848
_cell_formula_units_Z   12
loop_
 _symmetry_equiv_pos_site_id
 _symmetry_equiv_pos_as_xyz
  1  'x, y, z'
loop_
 _atom_site_type_symbol
 _atom_site_label
 _atom_site_symmetry_multiplicity
 _atom_site_fract_x
 _atom_site_fract_y
 _atom_site_fract_z
 _atom_site_occupancy
  Li  Li0  1  0.07298900  0.66453300  0.40856200  1
  Li  Li1  1  0.07481000  0.82191700  0.75892700  1
  Li  Li2  1  0.08840800  0.66182100  0.08136500  1
  Li  Li3  1  0.40367900  0.17390500  0.41861100  1
  Li  Li4  1  0.41874800  0.31728600  0.74565900  1
  Li  Li5  1  0.43372300  0.16161800  0.09146500  1
  Li  Li6  1  0.56896300  0.83556200  0.90787300  1
  Li  Li7  1  0.57569000  0.68705900  0.25656500  1
  Li  Li8  1  0.59641500  0.82940600  0.58083000  1
  Li  Li9  1  0.90929800  0.33644800  0.92033000  1
  Li  Li10  1  0.92301800  0.17065400  0.24051600  1
  Li  Li11  1  0.92865100  0.33772600  0.59046300  1
  Mn  Mn0  1  0.23945800  0.96061100  0.92203500  1
  Mn  Mn1  1  0.24000900  0.03670300  0.58738700  1
  Mn  Mn2  1  0.23451700  0.94275600  0.23971000  1
  Mn  Mn3  1  0.25960100  0.53668600  0.91425200  1
  Mn  Mn4  1  0.25651200  0.43711600  0.24648800  1
  Mn  Mn5  1  0.26449500  0.46657100  0.57551200  1
  Mn  Mn6  1  0.73711500  0.54025100  0.42247400  1
  Mn  Mn7  1  0.74250700  0.55601900  0.74898700  1
  Mn  Mn8  1  0.73632500  0.46337400  0.08959500  1
  Mn  Mn9  1  0.75942100  0.06667600  0.75841700  1
  Mn  Mn10  1  0.76041600  0.96804200  0.41393500  1
  Mn  Mn11  1  0.76192200  0.03536600  0.07419900  1
  P  P0  1  0.94412100  0.73705800  0.58842800  1
  P  P1  1  0.91371000  0.76475900  0.23213600  1
  P  P2  1  0.89252300  0.73254600  0.92661300  1
  P  P3  1  0.60443100  0.23291900  0.57626600  1
  P  P4  1  0.58831000  0.27160800  0.26690700  1
  P  P5  1  0.55980300  0.24144900  0.91305900  1
  P  P6  1  0.43910300  0.75946900  0.08725100  1
  P  P7  1  0.41268100  0.72918200  0.73345900  1
  P  P8  1  0.39469600  0.77507700  0.42329500  1
  P  P9  1  0.11113600  0.25702900  0.07341100  1
  P  P10  1  0.08397400  0.23218600  0.76928400  1
  P  P11  1  0.05668500  0.26586500  0.41049500  1
  O  O0  1  0.10071600  0.37340600  0.84179400  1
  O  O1  1  0.96090400  0.11407200  0.37014800  1
  O  O2  1  0.94127100  0.22838000  0.03975400  1
  O  O3  1  0.91647700  0.94371600  0.18025200  1
  O  O4  1  0.92434000  0.26040000  0.71841200  1
  O  O5  1  0.90117300  0.61779600  0.16224900  1
  O  O6  1  0.90684600  0.76684100  0.48619800  1
  O  O7  1  0.89328100  0.72167500  0.82172500  1
  O  O8  1  0.71002400  0.38517300  0.54387700  1
  O  O9  1  0.78013500  0.76260400  0.30229900  1
  O  O10  1  0.78574300  0.72474200  0.63957400  1
  O  O11  1  0.78137700  0.88255700  0.95472000  1
  O  O12  1  0.03475000  0.56257400  0.60180200  1
  O  O13  1  0.04070100  0.88758500  0.62918000  1
  O  O14  1  0.06287500  0.76403600  0.95981600  1
  O  O15  1  0.07530100  0.05026500  0.81814700  1
  O  O16  1  0.07432200  0.74522000  0.28221800  1
  O  O17  1  0.96578600  0.43982100  0.39642500  1
  O  O18  1  0.09358900  0.23692800  0.51280900  1
  O  O19  1  0.11330000  0.25065800  0.17926400  1
  O  O20  1  0.17115100  0.43898200  0.04259700  1
  O  O21  1  0.21815900  0.23482300  0.69951500  1
  O  O22  1  0.21533900  0.27883200  0.35957000  1
  O  O23  1  0.22393300  0.11386400  0.04006200  1
  O  O24  1  0.29001600  0.62164000  0.45547500  1
  O  O25  1  0.27888400  0.74416800  0.80390800  1
  O  O26  1  0.27957500  0.76288300  0.13751100  1
  O  O27  1  0.33077900  0.94793600  0.46083700  1
  O  O28  1  0.39229600  0.78785100  0.31816000  1
  O  O29  1  0.40322900  0.73893900  0.98475400  1
  O  O30  1  0.40420300  0.87217900  0.65910800  1
  O  O31  1  0.43016500  0.25316800  0.21424200  1
  O  O32  1  0.40892300  0.54772000  0.68769000  1
  O  O33  1  0.43191500  0.26138000  0.54405800  1
  O  O34  1  0.45929900  0.39369000  0.87546100  1
  O  O35  1  0.47418600  0.06685300  0.89531200  1
  O  O36  1  0.52891900  0.93201000  0.10338500  1
  O  O37  1  0.53619800  0.60611600  0.12727000  1
  O  O38  1  0.56761200  0.74530800  0.45468500  1
  O  O39  1  0.58954700  0.45352800  0.31213700  1
  O  O40  1  0.57221000  0.74523600  0.78487100  1
  O  O41  1  0.59663300  0.12962600  0.34157600  1
  O  O42  1  0.59867600  0.25882600  0.01544500  1
  O  O43  1  0.60453600  0.22390300  0.68183200  1
  O  O44  1  0.66942100  0.05834300  0.54120700  1
  O  O45  1  0.71863400  0.24348300  0.86165300  1
  O  O46  1  0.72271900  0.25633400  0.19697500  1
  O  O47  1  0.83205600  0.55666900  0.96527800  1
loop_
_geom_bond_atom_site_label_1
_geom_bond_atom_site_label_2
_geom_bond_distance
_geom_bond_site_symmetry_2
Li0 O17 1.961235 1_455
Li0 O16 1.966675 1_555
Li0 O6 2.003817 1_455
Li0 O24 2.007409 1_555
Li1 O25 1.956399 1_555
Li1 O15 1.966512 1_565
Li1 O7 1.972050 1_455
Li1 O13 2.003546 1_555
Li2 O20 1.939506 1_555
Li2 O14 1.966708 1_554
Li2 O26 1.998410 1_555
Li2 O5 2.038431 1_455
Li3 O27 1.935267 1_545
Li3 O22 1.992656 1_555
Li3 O33 2.003593 1_555
Li3 O41 2.048950 1_555
Li4 O32 1.948968 1_555
Li4 O21 1.958188 1_555
Li4 O43 1.995420 1_555
Li4 O34 2.051765 1_555
Li5 O36 1.937182 1_545
Li5 O42 1.957918 1_555
Li5 O31 1.964516 1_555
Li5 O23 1.987664 1_555
Li6 O35 1.948032 1_565
Li6 O40 1.964144 1_555
Li6 O29 1.968525 1_555
Li6 O11 1.982381 1_555
Li7 O39 1.956992 1_555
Li7 O9 1.968578 1_555
Li7 O28 1.984481 1_555
Li7 O37 2.053899 1_555
Li8 O44 1.944141 1_565
Li8 O10 1.996830 1_555
Li8 O38 2.005045 1_555
Li8 O30 2.052411 1_555
Li9 O47 1.936279 1_555
Li9 O2 1.962287 1_556
Li9 O45 1.987343 1_555
Li9 O0 2.038943 1_655
Li10 O46 1.939577 1_555
Li10 O3 1.964944 1_545
Li10 O19 1.969036 1_655
Li10 O1 1.991548 1_555
Li11 O12 1.956515 1_655
Li11 O4 1.982427 1_555
Li11 O18 1.992048 1_655
Li11 O8 2.024098 1_555
Mn0 O23 2.128736 1_566
Mn0 O15 2.182669 1_565
Mn0 O14 2.206530 1_555
Mn0 O35 2.210234 1_565
Mn0 O29 2.371445 1_555
Mn0 O25 2.454766 1_555
Mn1 O13 2.148190 1_545
Mn1 O30 2.150014 1_545
Mn1 O27 2.158294 1_545
Mn1 O18 2.248936 1_555
Mn1 O21 2.276947 1_555
Mn1 O33 2.464486 1_555
Mn2 O26 2.101003 1_555
Mn2 O28 2.124454 1_555
Mn2 O16 2.136265 1_555
Mn2 O19 2.706092 1_565
Mn3 O34 2.116420 1_555
Mn3 O0 2.147014 1_555
Mn3 O20 2.179132 1_556
Mn3 O29 2.247833 1_555
Mn3 O25 2.269727 1_555
Mn3 O14 2.520601 1_555
Mn4 O22 2.087422 1_555
Mn4 O31 2.106774 1_555
Mn4 O19 2.139924 1_555
Mn5 O24 2.138443 1_555
Mn5 O12 2.140814 1_555
Mn5 O32 2.169921 1_555
Mn5 O33 2.180261 1_555
Mn5 O18 2.479974 1_555
Mn5 O21 2.569032 1_555
Mn6 O17 2.143489 1_555
Mn6 O8 2.156790 1_555
Mn6 O39 2.177689 1_555
Mn6 O38 2.193920 1_555
Mn6 O6 2.463241 1_555
Mn6 O9 2.475553 1_555
Mn7 O10 2.094689 1_555
Mn7 O7 2.116757 1_555
Mn7 O40 2.127650 1_555
Mn8 O37 2.113718 1_555
Mn8 O47 2.139619 1_554
Mn8 O5 2.142533 1_555
Mn8 O46 2.232793 1_555
Mn8 O42 2.258907 1_555
Mn8 O2 2.626419 1_555
Mn9 O45 2.090392 1_555
Mn9 O43 2.103934 1_555
Mn9 O4 2.132163 1_555
Mn10 O41 2.139512 1_565
Mn10 O1 2.152642 1_565
Mn10 O44 2.172269 1_565
Mn10 O6 2.237786 1_555
Mn10 O9 2.308329 1_555
Mn10 O38 2.449895 1_555
Mn11 O11 2.147321 1_544
Mn11 O3 2.158768 1_545
Mn11 O2 2.192931 1_555
Mn11 O36 2.195602 1_545
Mn11 O42 2.356934 1_555
Mn11 O46 2.528484 1_555
O0 P10 1.543291 1_555
O1 P11 1.550066 1_655
O2 P9 1.554851 1_655
O3 P1 1.559316 1_555
O4 P10 1.572103 1_655
O5 P1 1.545080 1_555
O6 P0 1.563033 1_555
O7 P2 1.562042 1_555
O8 P3 1.549854 1_555
O9 P1 1.554361 1_555
O10 P0 1.563703 1_555
O11 P2 1.552142 1_555
O12 P0 1.549978 1_455
O13 P0 1.548817 1_455
O14 P2 1.560029 1_455
O15 P10 1.560185 1_555
O16 P1 1.566929 1_455
O17 P11 1.548867 1_655
O18 P11 1.562795 1_555
O19 P9 1.572752 1_555
O20 P9 1.547951 1_555
O21 P10 1.554323 1_555
O22 P11 1.564448 1_555
O23 P9 1.547160 1_555
O24 P8 1.551106 1_555
O25 P7 1.563768 1_555
O26 P6 1.563810 1_555
O27 P8 1.542074 1_555
O28 P8 1.563610 1_555
O29 P6 1.562121 1_556
O30 P7 1.542506 1_555
O31 P4 1.569485 1_555
O32 P7 1.554318 1_555
O33 P3 1.565568 1_555
O34 P5 1.540528 1_555
O35 P5 1.550815 1_555
O36 P6 1.550742 1_555
O37 P6 1.543863 1_555
O38 P8 1.566578 1_555
O39 P4 1.553560 1_555
O40 P7 1.568933 1_555
O41 P4 1.540405 1_555
O42 P5 1.563006 1_554
O43 P3 1.568939 1_555
O44 P3 1.543211 1_555
O45 P5 1.566579 1_555
O46 P4 1.562661 1_555
O47 P2 1.545978 1_555
