# generated using pymatgen
data_ErCo3Si2
_symmetry_space_group_name_H-M   'P 1'
_cell_length_a   6.18364668
_cell_length_b   6.18364668
_cell_length_c   6.18364668
_cell_angle_alpha   130.39964820
_cell_angle_beta   113.54118120
_cell_angle_gamma   87.27608804
_symmetry_Int_Tables_number   1
_chemical_formula_structural   ErCo3Si2
_chemical_formula_sum   'Er2 Co6 Si4'
_cell_volume   157.33336205
_cell_formula_units_Z   2
loop_
 _symmetry_equiv_pos_site_id
 _symmetry_equiv_pos_as_xyz
  1  'x, y, z'
loop_
 _atom_site_type_symbol
 _atom_site_label
 _atom_site_symmetry_multiplicity
 _atom_site_fract_x
 _atom_site_fract_y
 _atom_site_fract_z
 _atom_site_occupancy
  Er  Er0  1  0.25000000  0.53482438  0.28482438  1
  Er  Er1  1  0.75000000  0.46517562  0.71517562  1
  Co  Co0  1  0.00000000  0.00000000  0.50000000  1
  Co  Co1  1  0.50000000  0.00000000  0.00000000  1
  Co  Co2  1  0.72124166  0.00000000  0.72124166  1
  Co  Co3  1  0.22124166  0.50000000  0.72124166  1
  Co  Co4  1  0.27875834  0.00000000  0.27875834  1
  Co  Co5  1  0.77875834  0.50000000  0.27875834  1
  Si  Si0  1  0.07985351  0.87705689  0.79720338  1
  Si  Si1  1  0.92014649  0.12294311  0.20279662  1
  Si  Si2  1  0.57985351  0.78265112  0.20279662  1
  Si  Si3  1  0.42014649  0.21734888  0.79720338  1
loop_
_geom_bond_atom_site_label_1
_geom_bond_atom_site_label_2
_geom_bond_distance
_geom_bond_site_symmetry_2
Er0 Si3 2.952583 1_554
Er0 Si0 2.952583 1_544
Er0 Si1 2.982822 1_455
Er0 Si2 2.982826 1_555
Er0 Si3 3.063326 1_565
Er0 Si0 3.063330 1_555
Er0 Er1 3.407800 1_454
Er0 Er1 3.407800 1_555
Er1 Si2 2.952583 1_556
Er1 Si1 2.952583 1_566
Er1 Si0 2.982822 1_655
Er1 Si3 2.982826 1_555
Er1 Si2 3.063326 1_545
Er1 Si1 3.063330 1_555
Co0 Si3 2.291233 1_555
Co0 Si2 2.291233 1_445
Co0 Si0 2.291234 1_545
Co0 Si1 2.291234 1_455
Co0 Co4 2.593592 1_555
Co0 Co3 2.593592 1_555
Co0 Co5 2.593592 1_445
Co0 Co2 2.593592 1_455
Co0 Er1 2.948514 1_455
Co0 Er0 2.948514 1_545
Co0 Er0 3.250847 1_556
Co0 Er1 3.250847 1_444
Co1 Si2 2.291228 1_545
Co1 Si3 2.291228 1_554
Co1 Si1 2.291234 1_555
Co1 Si0 2.291234 1_544
Co1 Co5 2.593592 1_555
Co1 Co4 2.593592 1_555
Co1 Co2 2.593592 1_554
Co1 Co3 2.593592 1_544
Co1 Er0 2.948514 1_544
Co1 Er1 2.948514 1_555
Co1 Er1 3.250847 1_544
Co1 Er0 3.250847 1_555
Co2 Si3 2.266272 1_555
Co2 Si2 2.266277 1_545
Co2 Si0 2.277415 1_645
Co2 Si1 2.277415 1_556
Co2 Er1 2.915645 1_555
Co2 Er0 2.915645 1_545
Co2 Er1 3.280092 1_545
Co2 Er0 3.280092 1_656
Co3 Si1 2.266275 1_455
Co3 Si0 2.266275 1_555
Co3 Si2 2.277415 1_556
Co3 Si3 2.277420 1_555
Co3 Er1 2.915645 1_455
Co3 Er0 2.915645 1_555
Co3 Er0 3.280092 1_556
Co3 Er1 3.280092 1_555
Co4 Si2 2.266272 1_545
Co4 Si3 2.266277 1_555
Co4 Si1 2.277415 1_455
Co4 Si0 2.277415 1_544
Co4 Er1 2.915645 1_555
Co4 Er0 2.915645 1_545
Co4 Er1 3.280092 1_444
Co4 Er0 3.280092 1_555
Co5 Si1 2.266275 1_555
Co5 Si0 2.266275 1_655
Co5 Si3 2.277415 1_554
Co5 Si2 2.277420 1_555
Co5 Er0 2.915645 1_655
Co5 Er1 2.915645 1_555
Co5 Er0 3.280092 1_555
Co5 Er1 3.280092 1_554
Si0 Si1 2.543661 1_466
Si2 Si3 2.543670 1_554
