# generated using pymatgen
data_Ni11As8
_symmetry_space_group_name_H-M   'P 1'
_cell_length_a   6.81492585
_cell_length_b   6.81492585
_cell_length_c   11.16847178
_cell_angle_alpha   81.27990704
_cell_angle_beta   81.27990704
_cell_angle_gamma   90.02371370
_symmetry_Int_Tables_number   1
_chemical_formula_structural   Ni11As8
_chemical_formula_sum   'Ni22 As16'
_cell_volume   506.63215146
_cell_formula_units_Z   2
loop_
 _symmetry_equiv_pos_site_id
 _symmetry_equiv_pos_as_xyz
  1  'x, y, z'
loop_
 _atom_site_type_symbol
 _atom_site_label
 _atom_site_symmetry_multiplicity
 _atom_site_fract_x
 _atom_site_fract_y
 _atom_site_fract_z
 _atom_site_occupancy
  Ni  Ni0  1  0.46764341  0.14614100  0.90632239  1
  Ni  Ni1  1  0.85385900  0.53235659  0.59367761  1
  Ni  Ni2  1  0.53235659  0.85385900  0.09367761  1
  Ni  Ni3  1  0.14614100  0.46764341  0.40632239  1
  Ni  Ni4  1  0.08628174  0.65124854  0.90600929  1
  Ni  Ni5  1  0.34875146  0.91371826  0.59399071  1
  Ni  Ni6  1  0.91371826  0.34875146  0.09399071  1
  Ni  Ni7  1  0.65124854  0.08628174  0.40600929  1
  Ni  Ni8  1  0.45990470  0.65210127  0.90594262  1
  Ni  Ni9  1  0.34789873  0.54009530  0.59405738  1
  Ni  Ni10  1  0.54009530  0.34789873  0.09405738  1
  Ni  Ni11  1  0.65210127  0.45990470  0.40594262  1
  Ni  Ni12  1  0.80305947  0.67705508  0.78658072  1
  Ni  Ni13  1  0.32294492  0.19694053  0.71341928  1
  Ni  Ni14  1  0.19694053  0.32294492  0.21341928  1
  Ni  Ni15  1  0.67705508  0.80305947  0.28658072  1
  Ni  Ni16  1  0.07919292  0.14663179  0.90560516  1
  Ni  Ni17  1  0.85336821  0.92080708  0.59439484  1
  Ni  Ni18  1  0.14663179  0.07919292  0.40560516  1
  Ni  Ni19  1  0.92080708  0.85336821  0.09439484  1
  Ni  Ni20  1  0.81143076  0.18856924  0.75000000  1
  Ni  Ni21  1  0.18856924  0.81143076  0.25000000  1
  As  As0  1  0.74952254  0.62375384  0.00030235  1
  As  As1  1  0.37624616  0.25047746  0.49969765  1
  As  As2  1  0.25047746  0.37624616  0.99969765  1
  As  As3  1  0.62375384  0.74952254  0.50030235  1
  As  As4  1  0.87281345  0.24798148  0.50710625  1
  As  As5  1  0.75201852  0.12718655  0.99289375  1
  As  As6  1  0.12718655  0.75201852  0.49289375  1
  As  As7  1  0.24798248  0.87281345  0.00710625  1
  As  As8  1  0.06651062  0.93348938  0.75000000  1
  As  As9  1  0.93348938  0.06651062  0.25000000  1
  As  As10  1  0.55778186  0.44221814  0.75000000  1
  As  As11  1  0.44221814  0.55778186  0.25000000  1
  As  As12  1  0.55791750  0.93401901  0.74970159  1
  As  As13  1  0.06598099  0.44208250  0.75029841  1
  As  As14  1  0.44208250  0.06598099  0.25029841  1
  As  As15  1  0.93401901  0.55791750  0.24970159  1
loop_
_geom_bond_atom_site_label_1
_geom_bond_atom_site_label_2
_geom_bond_distance
_geom_bond_site_symmetry_2
Ni0 Ni13 2.480354 1_555
Ni1 Ni12 2.480354 1_555
Ni10 Ni14 2.502125 1_555
Ni11 Ni15 2.502125 1_555
Ni12 Ni17 2.485834 1_555
Ni12 Ni4 2.499051 1_655
Ni12 Ni8 2.502125 1_555
Ni13 Ni16 2.485834 1_555
Ni13 Ni5 2.499051 1_545
Ni13 Ni9 2.502125 1_555
Ni14 Ni3 2.480354 1_555
Ni14 Ni18 2.485834 1_555
Ni14 Ni6 2.499051 1_455
Ni15 Ni2 2.480354 1_555
Ni15 Ni19 2.485834 1_555
Ni15 Ni7 2.499051 1_565
As0 Ni12 2.331414 1_554
As0 Ni8 2.369133 1_554
As0 Ni10 2.369666 1_555
As0 Ni4 2.370254 1_654
As0 Ni6 2.370962 1_555
As0 Ni2 2.401409 1_555
As0 Ni19 2.405109 1_555
As1 Ni13 2.331414 1_555
As1 Ni9 2.369133 1_555
As1 Ni11 2.369666 1_555
As1 Ni5 2.370254 1_545
As1 Ni7 2.370962 1_555
As1 Ni3 2.401409 1_555
As1 Ni18 2.405109 1_555
As2 Ni14 2.331414 1_556
As2 Ni10 2.369133 1_556
As2 Ni8 2.369666 1_555
As2 Ni6 2.370254 1_456
As2 Ni4 2.370962 1_555
As2 Ni0 2.401409 1_555
As2 Ni16 2.405109 1_555
As3 Ni15 2.331414 1_555
As3 Ni11 2.369133 1_555
As3 Ni9 2.369666 1_555
As3 Ni7 2.370254 1_565
As3 Ni5 2.370962 1_555
As3 Ni1 2.401409 1_555
As3 Ni17 2.405109 1_555
As4 Ni1 2.288634 1_555
As4 Ni17 2.289296 1_545
As4 Ni11 2.376368 1_555
As4 Ni7 2.379493 1_555
As4 Ni3 2.414257 1_655
As4 Ni18 2.417875 1_655
As4 Ni20 2.649657 1_555
As5 Ni0 2.288634 1_555
As5 Ni16 2.289296 1_655
As5 Ni10 2.376368 1_556
As5 Ni6 2.379493 1_556
As5 Ni2 2.414257 1_546
As5 Ni19 2.417875 1_546
As5 Ni20 2.649657 1_555
As6 Ni3 2.288634 1_555
As6 Ni18 2.289296 1_565
As6 Ni9 2.376368 1_555
As6 Ni5 2.379493 1_555
As6 Ni1 2.414257 1_455
As6 Ni17 2.417875 1_455
As6 Ni21 2.649657 1_555
As7 Ni2 2.288628 1_555
As7 Ni19 2.289302 1_455
As7 Ni8 2.376364 1_554
As7 Ni4 2.379497 1_554
As7 Ni0 2.414254 1_564
As7 Ni16 2.417879 1_564
As7 Ni21 2.649657 1_555
As8 Ni5 2.410172 1_555
As8 Ni4 2.410172 1_555
As8 Ni16 2.438940 1_565
As8 Ni17 2.438940 1_455
As8 Ni12 2.450085 1_455
As8 Ni13 2.450085 1_565
As8 Ni20 2.458907 1_465
As9 Ni6 2.410172 1_555
As9 Ni7 2.410172 1_555
As9 Ni19 2.438940 1_545
As9 Ni18 2.438940 1_655
As9 Ni14 2.450085 1_655
As9 Ni15 2.450085 1_545
As9 Ni21 2.458907 1_645
As10 Ni13 2.434208 1_555
As10 Ni12 2.434208 1_555
As10 Ni9 2.434747 1_555
As10 Ni8 2.434747 1_555
As10 Ni20 2.445113 1_555
As10 Ni1 2.470299 1_555
As10 Ni0 2.470299 1_555
As11 Ni14 2.434208 1_555
As11 Ni15 2.434208 1_555
As11 Ni10 2.434747 1_555
As11 Ni11 2.434747 1_555
As11 Ni21 2.445113 1_555
As11 Ni2 2.470299 1_555
As11 Ni3 2.470299 1_555
As12 Ni8 2.410658 1_555
As12 Ni5 2.428949 1_555
As12 Ni13 2.432677 1_565
As12 Ni0 2.443184 1_565
As12 Ni20 2.448512 1_565
As12 Ni12 2.453500 1_555
As12 Ni17 2.461576 1_555
As13 Ni9 2.410658 1_555
As13 Ni4 2.428949 1_555
As13 Ni12 2.432677 1_455
As13 Ni1 2.443184 1_455
As13 Ni20 2.448512 1_455
As13 Ni13 2.453500 1_555
As13 Ni16 2.461576 1_555
As14 Ni10 2.410658 1_555
As14 Ni7 2.428949 1_555
As14 Ni15 2.432677 1_545
As14 Ni2 2.443184 1_545
As14 Ni21 2.448512 1_545
As14 Ni14 2.453500 1_555
As14 Ni18 2.461576 1_555
As15 Ni11 2.410658 1_555
As15 Ni6 2.428949 1_555
As15 Ni14 2.432677 1_655
As15 Ni3 2.443184 1_655
As15 Ni21 2.448512 1_655
As15 Ni15 2.453500 1_555
As15 Ni19 2.461576 1_555
