# generated using pymatgen
data_EuHCl
_symmetry_space_group_name_H-M   'P 1'
_cell_length_a   4.01897659
_cell_length_b   4.01897659
_cell_length_c   6.92998795
_cell_angle_alpha   90.00000000
_cell_angle_beta   90.00000000
_cell_angle_gamma   90.00000000
_symmetry_Int_Tables_number   1
_chemical_formula_structural   EuHCl
_chemical_formula_sum   'Eu2 H2 Cl2'
_cell_volume   111.93436308
_cell_formula_units_Z   2
loop_
 _symmetry_equiv_pos_site_id
 _symmetry_equiv_pos_as_xyz
  1  'x, y, z'
loop_
 _atom_site_type_symbol
 _atom_site_label
 _atom_site_symmetry_multiplicity
 _atom_site_fract_x
 _atom_site_fract_y
 _atom_site_fract_z
 _atom_site_occupancy
  Eu  Eu0  1  -0.00000000  0.50000000  0.79854350  1
  Eu  Eu1  1  0.50000000  -0.00000000  0.20145650  1
  H  H0  1  -0.00000000  0.00000000  -0.00000000  1
  H  H1  1  0.50000000  0.50000000  -0.00000000  1
  Cl  Cl0  1  0.00000000  0.50000000  0.35055127  1
  Cl  Cl1  1  0.50000000  -0.00000000  0.64944873  1
loop_
_geom_bond_atom_site_label_1
_geom_bond_atom_site_label_2
_geom_bond_distance
_geom_bond_site_symmetry_2
Eu0 H0 2.446858 1_556
Eu0 H0 2.446858 1_566
Eu0 H1 2.446858 1_456
Eu0 H1 2.446858 1_556
Eu1 H0 2.446858 1_555
Eu1 H0 2.446858 1_655
Eu1 H1 2.446858 1_545
Eu1 H1 2.446858 1_555
Cl0 Eu1 3.023845 1_555
Cl0 Eu1 3.023845 1_465
Cl0 Eu1 3.023845 1_565
Cl0 Eu1 3.023845 1_455
Cl0 Eu0 3.104581 1_555
Cl1 Eu0 3.023845 1_555
Cl1 Eu0 3.023845 1_545
Cl1 Eu0 3.023845 1_655
Cl1 Eu0 3.023845 1_645
Cl1 Eu1 3.104581 1_555
