# generated using pymatgen
data_Al10Si2O19
_symmetry_space_group_name_H-M   'P 1'
_cell_length_a   2.93895900
_cell_length_b   7.55595629
_cell_length_c   15.97488520
_cell_angle_alpha   90.70033156
_cell_angle_beta   90.00000000
_cell_angle_gamma   90.00000000
_symmetry_Int_Tables_number   1
_chemical_formula_structural   Al10Si2O19
_chemical_formula_sum   'Al10 Si2 O19'
_cell_volume   354.72211623
_cell_formula_units_Z   1
loop_
 _symmetry_equiv_pos_site_id
 _symmetry_equiv_pos_as_xyz
  1  'x, y, z'
loop_
 _atom_site_type_symbol
 _atom_site_label
 _atom_site_symmetry_multiplicity
 _atom_site_fract_x
 _atom_site_fract_y
 _atom_site_fract_z
 _atom_site_occupancy
  Al  Al0  1  0.00000000  0.96365700  0.99535400  1
  Al  Al1  1  0.50000000  0.23961800  0.11403700  1
  Al  Al2  1  0.50000000  0.34151500  0.41508000  1
  Al  Al3  1  0.50000000  0.64402900  0.09536400  1
  Al  Al4  1  0.50000000  0.83172200  0.83060500  1
  Al  Al5  1  0.50000000  0.64440300  0.57769100  1
  Al  Al6  1  0.50000000  0.73534300  0.39652600  1
  Al  Al7  1  0.00000000  0.48842500  0.25598300  1
  Al  Al8  1  0.00000000  0.00913800  0.51012400  1
  Al  Al9  1  0.00000000  0.49420900  0.74177000  1
  Si  Si0  1  0.50000000  0.33370000  0.93693100  1
  Si  Si1  1  0.50000000  0.12959300  0.68146500  1
  O  O0  1  0.00000000  0.86075000  0.41363600  1
  O  O1  1  0.00000000  0.85102100  0.89024700  1
  O  O2  1  0.50000000  0.97890300  0.74874800  1
  O  O3  1  0.50000000  0.35878200  0.20586300  1
  O  O4  1  0.50000000  0.32834700  0.72536000  1
  O  O5  1  0.50000000  0.42868500  0.03147400  1
  O  O6  1  0.50000000  0.62024500  0.30153200  1
  O  O7  1  0.50000000  0.55306400  0.47366800  1
  O  O8  1  0.50000000  0.61768600  0.78429100  1
  O  O9  1  0.50000000  0.15582100  0.48162700  1
  O  O10  1  0.50000000  0.83283000  0.03237200  1
  O  O11  1  0.50000000  0.12201000  0.95184200  1
  O  O12  1  0.50000000  0.87342800  0.55723800  1
  O  O13  1  0.00000000  0.12158400  0.09137600  1
  O  O14  1  0.00000000  0.12953600  0.62794400  1
  O  O15  1  0.00000000  0.34199000  0.35478800  1
  O  O16  1  0.00000000  0.63158900  0.15254300  1
  O  O17  1  0.00000000  0.38463800  0.89030000  1
  O  O18  1  0.00000000  0.58014300  0.63307000  1
loop_
_geom_bond_atom_site_label_1
_geom_bond_atom_site_label_2
_geom_bond_distance
_geom_bond_site_symmetry_2
Al0 O10 1.870974 1_456
Al0 O10 1.870974 1_556
Al0 O1 1.873146 1_555
Al0 O13 1.931882 1_566
Al0 O11 2.023486 1_565
Al0 O11 2.023486 1_465
Al1 O3 1.711798 1_555
Al1 O13 1.754406 1_655
Al1 O13 1.754406 1_555
Al1 O5 1.956143 1_555
Al2 O15 1.757026 1_555
Al2 O15 1.757026 1_655
Al2 O9 1.770673 1_555
Al2 O7 1.842407 1_555
Al3 O16 1.733394 1_555
Al3 O16 1.733394 1_655
Al3 O10 1.755796 1_555
Al3 O5 1.910144 1_555
Al4 O2 1.726924 1_555
Al4 O1 1.756421 1_655
Al4 O1 1.756421 1_555
Al4 O8 1.770206 1_555
Al5 O12 1.764998 1_555
Al5 O18 1.785573 1_555
Al5 O18 1.785573 1_655
Al5 O7 1.791566 1_555
Al6 O6 1.739809 1_555
Al6 O0 1.767947 1_555
Al6 O0 1.767947 1_655
Al6 O7 1.859321 1_555
Al7 O6 1.913944 1_555
Al7 O6 1.913944 1_455
Al7 O3 1.934122 1_455
Al7 O3 1.934122 1_555
Al7 O15 1.938628 1_555
Al7 O16 1.986058 1_555
Al8 O0 1.894924 1_545
Al8 O9 1.899300 1_455
Al8 O9 1.899300 1_555
Al8 O12 1.948381 1_445
Al8 O12 1.948381 1_545
Al8 O14 2.080449 1_555
Al9 O18 1.861316 1_555
Al9 O8 1.864336 1_555
Al9 O8 1.864336 1_455
Al9 O4 1.946968 1_455
Al9 O4 1.946968 1_555
O2 Si1 1.575316 1_565
O4 Si1 1.649635 1_555
O5 Si0 1.664225 1_554
O11 Si0 1.620037 1_555
O14 Si1 1.700109 1_555
O14 Si1 1.700109 1_455
O17 Si0 1.693939 1_455
O17 Si0 1.693939 1_555
