# generated using pymatgen
data_Ho3AlNi8
_symmetry_space_group_name_H-M   'P 1'
_cell_length_a   5.03872848
_cell_length_b   5.03872848
_cell_length_c   15.91722500
_cell_angle_alpha   90.00000000
_cell_angle_beta   90.00000000
_cell_angle_gamma   120.00000625
_symmetry_Int_Tables_number   1
_chemical_formula_structural   Ho3AlNi8
_chemical_formula_sum   'Ho6 Al2 Ni16'
_cell_volume   349.97729620
_cell_formula_units_Z   2
loop_
 _symmetry_equiv_pos_site_id
 _symmetry_equiv_pos_as_xyz
  1  'x, y, z'
loop_
 _atom_site_type_symbol
 _atom_site_label
 _atom_site_symmetry_multiplicity
 _atom_site_fract_x
 _atom_site_fract_y
 _atom_site_fract_z
 _atom_site_occupancy
  Ho  Ho0  1  0.33333300  0.66666700  0.95492900  1
  Ho  Ho1  1  0.66666700  0.33333300  0.04507100  1
  Ho  Ho2  1  0.66666700  0.33333300  0.45492900  1
  Ho  Ho3  1  0.33333300  0.66666700  0.54507100  1
  Ho  Ho4  1  0.33333300  0.66666700  0.75000000  1
  Ho  Ho5  1  0.66666700  0.33333300  0.25000000  1
  Al  Al0  1  0.00000000  0.00000000  0.50000000  1
  Al  Al1  1  0.00000000  0.00000000  0.00000000  1
  Ni  Ni0  1  0.16955300  0.83044700  0.37507000  1
  Ni  Ni1  1  0.16955300  0.33910700  0.37507000  1
  Ni  Ni2  1  0.66089300  0.83044700  0.37507000  1
  Ni  Ni3  1  0.83044700  0.16955300  0.62493000  1
  Ni  Ni4  1  0.83044700  0.66089300  0.62493000  1
  Ni  Ni5  1  0.33910700  0.16955300  0.62493000  1
  Ni  Ni6  1  0.83044700  0.16955300  0.87507000  1
  Ni  Ni7  1  0.83044700  0.66089300  0.87507000  1
  Ni  Ni8  1  0.33910700  0.16955300  0.87507000  1
  Ni  Ni9  1  0.16955300  0.83044700  0.12493000  1
  Ni  Ni10  1  0.16955300  0.33910700  0.12493000  1
  Ni  Ni11  1  0.66089300  0.83044700  0.12493000  1
  Ni  Ni12  1  0.33333300  0.66666700  0.25000000  1
  Ni  Ni13  1  0.66666700  0.33333300  0.75000000  1
  Ni  Ni14  1  0.00000000  0.00000000  0.25000000  1
  Ni  Ni15  1  0.00000000  0.00000000  0.75000000  1
loop_
_geom_bond_atom_site_label_1
_geom_bond_atom_site_label_2
_geom_bond_distance
_geom_bond_site_symmetry_2
Ho0 Ni8 2.821983 1_565
Ho0 Ni7 2.821983 1_455
Ho0 Ni6 2.821987 1_565
Ho0 Ni6 2.821987 1_455
Ho0 Ni7 2.821992 1_555
Ho0 Ni8 2.821992 1_555
Ho0 Ni11 3.060263 1_556
Ho0 Ni10 3.060263 1_556
Ho0 Ni9 3.060263 1_556
Ho0 Ho1 3.243700 1_456
Ho0 Ho1 3.243700 1_566
Ho0 Ho1 3.243708 1_556
Ho0 Ho4 3.261901 1_555
Ho1 Ni10 2.821983 1_655
Ho1 Ni11 2.821983 1_545
Ho1 Ni9 2.821987 1_655
Ho1 Ni9 2.821987 1_545
Ho1 Ni11 2.821992 1_555
Ho1 Ni10 2.821992 1_555
Ho1 Ni7 3.060263 1_554
Ho1 Ni8 3.060263 1_554
Ho1 Ni6 3.060263 1_554
Ho1 Ho5 3.261901 1_555
Ho2 Ni1 2.821983 1_655
Ho2 Ni2 2.821983 1_545
Ho2 Ni0 2.821987 1_655
Ho2 Ni0 2.821987 1_545
Ho2 Ni2 2.821992 1_555
Ho2 Ni1 2.821992 1_555
Ho2 Ni4 3.060263 1_555
Ho2 Ni5 3.060263 1_555
Ho2 Ni3 3.060263 1_555
Ho2 Ho3 3.243700 1_655
Ho2 Ho3 3.243700 1_545
Ho2 Ho3 3.243708 1_555
Ho2 Ho5 3.261901 1_555
Ho3 Ni5 2.821983 1_565
Ho3 Ni4 2.821983 1_455
Ho3 Ni3 2.821987 1_565
Ho3 Ni3 2.821987 1_455
Ho3 Ni4 2.821992 1_555
Ho3 Ni5 2.821992 1_555
Ho3 Ni1 3.060263 1_555
Ho3 Ni2 3.060263 1_555
Ho3 Ni0 3.060263 1_555
Ho3 Ho4 3.261901 1_555
Ho4 Ni13 2.909108 1_455
Ho4 Ni13 2.909108 1_565
Ho4 Ni15 2.909108 1_565
Ho4 Ni15 2.909113 1_555
Ho4 Ni15 2.909113 1_665
Ho4 Ni13 2.909117 1_555
Ho4 Ni5 3.211068 1_565
Ho4 Ni8 3.211068 1_565
Ho4 Ni4 3.211068 1_455
Ho4 Ni7 3.211068 1_455
Ho4 Ni3 3.211072 1_565
Ho4 Ni6 3.211072 1_565
Ho4 Ni3 3.211072 1_455
Ho4 Ni6 3.211072 1_455
Ho4 Ni4 3.211076 1_555
Ho4 Ni7 3.211076 1_555
Ho4 Ni5 3.211076 1_555
Ho4 Ni8 3.211076 1_555
Ho5 Ni12 2.909108 1_545
Ho5 Ni12 2.909108 1_655
Ho5 Ni14 2.909108 1_655
Ho5 Ni14 2.909113 1_665
Ho5 Ni14 2.909113 1_555
Ho5 Ni12 2.909117 1_555
Ho5 Ni10 3.211068 1_655
Ho5 Ni1 3.211068 1_655
Ho5 Ni11 3.211068 1_545
Ho5 Ni2 3.211068 1_545
Ho5 Ni9 3.211072 1_655
Ho5 Ni0 3.211072 1_655
Ho5 Ni0 3.211072 1_545
Ho5 Ni9 3.211072 1_545
Ho5 Ni11 3.211076 1_555
Ho5 Ni2 3.211076 1_555
Ho5 Ni10 3.211076 1_555
Ho5 Ni1 3.211076 1_555
Al0 Ni0 2.478696 1_545
Al0 Ni3 2.478696 1_455
Al0 Ni1 2.478699 1_555
Al0 Ni2 2.478699 1_445
Al0 Ni5 2.478699 1_555
Al0 Ni4 2.478699 1_445
Al0 Ho2 2.996261 1_455
Al0 Ho3 2.996261 1_545
Al0 Ho3 2.996265 1_555
Al0 Ho2 2.996265 1_445
Al0 Ho3 2.996265 1_445
Al0 Ho2 2.996265 1_555
Al1 Ni6 2.478696 1_454
Al1 Ni9 2.478696 1_545
Al1 Ni8 2.478699 1_554
Al1 Ni10 2.478699 1_555
Al1 Ni7 2.478699 1_444
Al1 Ni11 2.478699 1_445
Al1 Ho1 2.996261 1_455
Al1 Ho0 2.996261 1_544
Al1 Ho1 2.996265 1_445
Al1 Ho1 2.996265 1_555
Al1 Ho0 2.996265 1_554
Al1 Ho0 2.996265 1_444
Ni0 Ni12 2.450762 1_555
Ni0 Ni1 2.475729 1_555
Ni0 Ni2 2.475729 1_555
Ni0 Ni14 2.480484 1_565
Ni0 Ni2 2.563000 1_455
Ni0 Ni1 2.563000 1_565
Ni1 Ni12 2.450762 1_555
Ni1 Ni2 2.475729 1_555
Ni1 Ni14 2.480487 1_555
Ni1 Ni2 2.562999 1_445
Ni3 Ni5 2.475729 1_555
Ni3 Ni4 2.475729 1_555
Ni3 Ni4 2.563000 1_545
Ni3 Ni5 2.563000 1_655
Ni4 Ni5 2.475729 1_555
Ni4 Ni5 2.562999 1_665
Ni6 Ni8 2.475729 1_555
Ni6 Ni7 2.475729 1_555
Ni6 Ni7 2.563000 1_545
Ni6 Ni8 2.563000 1_655
Ni7 Ni8 2.475729 1_555
Ni7 Ni8 2.562999 1_665
Ni10 Ni12 2.450762 1_555
Ni10 Ni11 2.475729 1_555
Ni10 Ni9 2.475729 1_555
Ni10 Ni14 2.480487 1_555
Ni10 Ni11 2.562999 1_445
Ni10 Ni9 2.563000 1_545
Ni11 Ni12 2.450762 1_555
Ni11 Ni9 2.475729 1_555
Ni11 Ni14 2.480487 1_665
Ni11 Ni9 2.563000 1_655
Ni12 Ni2 2.450762 1_555
Ni12 Ni9 2.450762 1_555
Ni12 Ni14 2.909108 1_565
Ni12 Ni14 2.909113 1_555
Ni12 Ni14 2.909113 1_665
Ni13 Ni4 2.450762 1_555
Ni13 Ni5 2.450762 1_555
Ni13 Ni7 2.450762 1_555
Ni13 Ni8 2.450762 1_555
Ni13 Ni3 2.450762 1_555
Ni13 Ni6 2.450762 1_555
Ni13 Ni15 2.909108 1_655
Ni13 Ni15 2.909113 1_665
Ni13 Ni15 2.909113 1_555
Ni14 Ni9 2.480484 1_545
Ni14 Ni2 2.480487 1_445
Ni15 Ni3 2.480484 1_455
Ni15 Ni6 2.480484 1_455
Ni15 Ni5 2.480487 1_555
Ni15 Ni4 2.480487 1_445
Ni15 Ni7 2.480487 1_445
Ni15 Ni8 2.480487 1_555
