# generated using pymatgen
data_CePb2
_symmetry_space_group_name_H-M   'P 1'
_cell_length_a   16.38979584
_cell_length_b   16.38979584
_cell_length_c   16.38979584
_cell_angle_alpha   156.09448733
_cell_angle_beta   156.09448733
_cell_angle_gamma   34.06220879
_symmetry_Int_Tables_number   1
_chemical_formula_structural   CePb2
_chemical_formula_sum   'Ce8 Pb16'
_cell_volume   722.24791372
_cell_formula_units_Z   8
loop_
 _symmetry_equiv_pos_site_id
 _symmetry_equiv_pos_as_xyz
  1  'x, y, z'
loop_
 _atom_site_type_symbol
 _atom_site_label
 _atom_site_symmetry_multiplicity
 _atom_site_fract_x
 _atom_site_fract_y
 _atom_site_fract_z
 _atom_site_occupancy
  Ce  Ce0_0  1  0.00000000  0.00000000  0.00000000  1
  Ce  Ce0_1  1  0.00000000  0.00000000  0.50000000  1
  Ce  Ce0_2  1  0.00000000  0.50000000  0.00000000  1
  Ce  Ce0_3  1  0.00000000  0.50000000  0.50000000  1
  Ce  Ce0_4  1  0.50000000  0.00000000  0.00000000  1
  Ce  Ce0_5  1  0.50000000  0.00000000  0.50000000  1
  Ce  Ce0_6  1  0.50000000  0.50000000  0.00000000  1
  Ce  Ce0_7  1  0.50000000  0.50000000  0.50000000  1
  Pb  Pb0_0  1  0.17074950  0.17074950  0.00000000  1
  Pb  Pb0_1  1  0.17074950  0.17074950  0.50000000  1
  Pb  Pb0_2  1  0.17074950  0.67074950  0.00000000  1
  Pb  Pb0_3  1  0.17074950  0.67074950  0.50000000  1
  Pb  Pb0_4  1  0.67074950  0.17074950  0.00000000  1
  Pb  Pb0_5  1  0.67074950  0.17074950  0.50000000  1
  Pb  Pb0_6  1  0.67074950  0.67074950  0.00000000  1
  Pb  Pb0_7  1  0.67074950  0.67074950  0.50000000  1
  Pb  Pb1_0  1  0.32925050  0.32925050  0.00000000  1
  Pb  Pb1_1  1  0.32925050  0.32925050  0.50000000  1
  Pb  Pb1_2  1  0.32925050  0.82925050  0.00000000  1
  Pb  Pb1_3  1  0.32925050  0.82925050  0.50000000  1
  Pb  Pb1_4  1  0.82925050  0.32925050  0.00000000  1
  Pb  Pb1_5  1  0.82925050  0.32925050  0.50000000  1
  Pb  Pb1_6  1  0.82925050  0.82925050  0.00000000  1
  Pb  Pb1_7  1  0.82925050  0.82925050  0.50000000  1
loop_
_geom_bond_atom_site_label_1
_geom_bond_atom_site_label_2
_geom_bond_distance
_geom_bond_site_symmetry_2
Ce0_0 Ce0_5 3.394410 1_555
Ce0_0 Ce0_5 3.394410 1_454
Ce0_0 Ce0_3 3.394410 1_555
Ce0_0 Ce0_3 3.394410 1_544
Ce0_0 Pb1_1 3.454076 1_555
Ce0_0 Pb0_7 3.454076 1_444
Ce0_0 Pb0_1 3.454076 1_555
Ce0_0 Pb1_7 3.454076 1_444
Ce0_0 Pb0_4 3.454076 1_455
Ce0_0 Pb0_2 3.454076 1_545
Ce0_0 Pb1_2 3.454076 1_545
Ce0_0 Pb1_4 3.454076 1_455
Ce0_1 Ce0_2 3.394410 1_545
Ce0_1 Ce0_2 3.394410 1_556
Ce0_1 Ce0_4 3.394410 1_556
Ce0_1 Ce0_4 3.394410 1_455
Ce0_1 Pb0_6 3.454076 1_445
Ce0_1 Pb1_0 3.454076 1_556
Ce0_1 Pb1_5 3.454076 1_455
Ce0_1 Pb0_0 3.454076 1_556
Ce0_1 Pb1_3 3.454076 1_545
Ce0_1 Pb0_3 3.454076 1_545
Ce0_1 Pb0_5 3.454076 1_455
Ce0_1 Pb1_6 3.454076 1_445
Ce0_2 Ce0_7 3.394410 1_555
Ce0_2 Ce0_7 3.394410 1_454
Ce0_2 Pb0_5 3.454076 1_454
Ce0_2 Pb0_3 3.454076 1_555
Ce0_2 Pb1_3 3.454076 1_555
Ce0_2 Pb0_6 3.454076 1_455
Ce0_2 Pb0_0 3.454076 1_555
Ce0_2 Pb1_0 3.454076 1_555
Ce0_2 Pb1_5 3.454076 1_454
Ce0_2 Pb1_6 3.454076 1_455
Ce0_3 Ce0_6 3.394410 1_455
Ce0_3 Ce0_6 3.394410 1_556
Ce0_3 Pb0_4 3.454076 1_455
Ce0_3 Pb1_7 3.454076 1_455
Ce0_3 Pb1_4 3.454076 1_455
Ce0_3 Pb0_7 3.454076 1_455
Ce0_3 Pb1_1 3.454076 1_555
Ce0_3 Pb0_1 3.454076 1_555
Ce0_3 Pb1_2 3.454076 1_556
Ce0_3 Pb0_2 3.454076 1_556
Ce0_4 Ce0_7 3.394410 1_555
Ce0_4 Ce0_7 3.394410 1_544
Ce0_4 Pb0_3 3.454076 1_544
Ce0_4 Pb1_5 3.454076 1_555
Ce0_4 Pb0_0 3.454076 1_555
Ce0_4 Pb0_6 3.454076 1_545
Ce0_4 Pb1_0 3.454076 1_555
Ce0_4 Pb1_3 3.454076 1_544
Ce0_4 Pb0_5 3.454076 1_555
Ce0_4 Pb1_6 3.454076 1_545
Ce0_5 Ce0_6 3.394410 1_545
Ce0_5 Ce0_6 3.394410 1_556
Ce0_5 Pb0_2 3.454076 1_545
Ce0_5 Pb0_1 3.454076 1_555
Ce0_5 Pb1_1 3.454076 1_555
Ce0_5 Pb1_7 3.454076 1_545
Ce0_5 Pb0_7 3.454076 1_545
Ce0_5 Pb0_4 3.454076 1_556
Ce0_5 Pb1_4 3.454076 1_556
Ce0_5 Pb1_2 3.454076 1_545
Ce0_6 Pb1_7 3.454076 1_555
Ce0_6 Pb0_1 3.454076 1_554
Ce0_6 Pb0_4 3.454076 1_555
Ce0_6 Pb1_1 3.454076 1_554
Ce0_6 Pb0_7 3.454076 1_555
Ce0_6 Pb0_2 3.454076 1_555
Ce0_6 Pb1_4 3.454076 1_555
Ce0_6 Pb1_2 3.454076 1_555
Ce0_7 Pb0_0 3.454076 1_555
Ce0_7 Pb1_3 3.454076 1_555
Ce0_7 Pb1_0 3.454076 1_555
Ce0_7 Pb0_6 3.454076 1_556
Ce0_7 Pb0_5 3.454076 1_555
Ce0_7 Pb1_5 3.454076 1_555
Ce0_7 Pb0_3 3.454076 1_555
Ce0_7 Pb1_6 3.454076 1_556
Pb0_0 Pb0_3 3.394410 1_544
Pb0_0 Pb0_3 3.394410 1_555
Pb0_0 Pb0_5 3.394410 1_454
Pb0_0 Pb0_5 3.394410 1_555
Pb0_1 Pb0_4 3.394410 1_455
Pb0_1 Pb0_2 3.394410 1_556
Pb0_1 Pb0_4 3.394410 1_556
Pb0_1 Pb0_2 3.394410 1_545
Pb0_2 Pb0_7 3.394410 1_555
Pb0_2 Pb0_7 3.394410 1_454
Pb0_3 Pb0_6 3.394410 1_455
Pb0_3 Pb0_6 3.394410 1_556
Pb0_4 Pb0_7 3.394410 1_555
Pb0_4 Pb0_7 3.394410 1_544
Pb0_5 Pb0_6 3.394410 1_545
Pb0_5 Pb0_6 3.394410 1_556
Pb1_0 Pb1_5 3.394410 1_454
Pb1_0 Pb1_5 3.394410 1_555
Pb1_0 Pb1_3 3.394410 1_544
Pb1_0 Pb1_3 3.394410 1_555
Pb1_1 Pb1_2 3.394410 1_545
Pb1_1 Pb1_4 3.394410 1_455
Pb1_1 Pb1_2 3.394410 1_556
Pb1_1 Pb1_4 3.394410 1_556
Pb1_2 Pb1_7 3.394410 1_454
Pb1_2 Pb1_7 3.394410 1_555
Pb1_3 Pb1_6 3.394410 1_455
Pb1_3 Pb1_6 3.394410 1_556
Pb1_4 Pb1_7 3.394410 1_544
Pb1_4 Pb1_7 3.394410 1_555
Pb1_5 Pb1_6 3.394410 1_556
Pb1_5 Pb1_6 3.394410 1_545
