# generated using pymatgen
data_Sm2Ga5Cu3
_symmetry_space_group_name_H-M   'P 1'
_cell_length_a   4.14668956
_cell_length_b   4.14668956
_cell_length_c   10.26677709
_cell_angle_alpha   90.00000000
_cell_angle_beta   90.00000000
_cell_angle_gamma   90.00000000
_symmetry_Int_Tables_number   1
_chemical_formula_structural   Sm2Ga5Cu3
_chemical_formula_sum   'Sm2 Ga5 Cu3'
_cell_volume   176.53758429
_cell_formula_units_Z   1
loop_
 _symmetry_equiv_pos_site_id
 _symmetry_equiv_pos_as_xyz
  1  'x, y, z'
loop_
 _atom_site_type_symbol
 _atom_site_label
 _atom_site_symmetry_multiplicity
 _atom_site_fract_x
 _atom_site_fract_y
 _atom_site_fract_z
 _atom_site_occupancy
  Sm  Sm0  1  0.50000000  -0.00000000  0.74277570  1
  Sm  Sm1  1  0.00000000  0.50000000  0.25722430  1
  Ga  Ga0  1  0.00000000  0.50000000  0.86190353  1
  Ga  Ga1  1  0.50000000  0.00000000  0.37880153  1
  Ga  Ga2  1  0.50000000  -0.00000000  0.13809647  1
  Ga  Ga3  1  -0.00000000  0.50000000  0.62119847  1
  Ga  Ga4  1  0.50000000  0.50000000  0.00000000  1
  Cu  Cu0  1  -0.00000000  0.00000000  0.50000000  1
  Cu  Cu1  1  0.00000000  -0.00000000  0.00000000  1
  Cu  Cu2  1  0.50000000  0.50000000  0.50000000  1
loop_
_geom_bond_atom_site_label_1
_geom_bond_atom_site_label_2
_geom_bond_distance
_geom_bond_site_symmetry_2
Ga0 Ga3 2.471265 1_555
Ga0 Ga4 2.511759 1_556
Ga0 Ga4 2.511759 1_456
Ga0 Sm0 3.177010 1_455
Ga0 Sm0 3.177010 1_555
Ga0 Sm0 3.177010 1_565
Ga0 Sm0 3.177010 1_465
Ga1 Ga2 2.471265 1_555
Ga1 Sm1 3.186775 1_655
Ga1 Sm1 3.186775 1_555
Ga1 Sm1 3.186775 1_545
Ga1 Sm1 3.186775 1_645
Ga2 Ga4 2.511759 1_555
Ga2 Ga4 2.511759 1_545
Ga2 Sm1 3.177010 1_655
Ga2 Sm1 3.177010 1_555
Ga2 Sm1 3.177010 1_545
Ga2 Sm1 3.177010 1_645
Ga3 Sm0 3.186775 1_455
Ga3 Sm0 3.186775 1_565
Ga3 Sm0 3.186775 1_465
Ga3 Sm0 3.186775 1_555
Ga4 Sm1 3.357518 1_555
Ga4 Sm1 3.357518 1_655
Ga4 Sm0 3.357518 1_554
Ga4 Sm0 3.357518 1_564
Cu0 Ga1 2.418075 1_455
Cu0 Ga1 2.418075 1_555
Cu0 Ga3 2.418075 1_555
Cu0 Ga3 2.418075 1_545
Cu0 Sm0 3.242134 1_455
Cu0 Sm0 3.242134 1_555
Cu0 Sm1 3.242134 1_555
Cu0 Sm1 3.242134 1_545
Cu1 Ga0 2.511759 1_544
Cu1 Ga2 2.511759 1_455
Cu1 Ga0 2.511759 1_554
Cu1 Ga2 2.511759 1_555
Cu1 Sm1 3.357518 1_555
Cu1 Sm1 3.357518 1_545
Cu1 Sm0 3.357518 1_454
Cu1 Sm0 3.357518 1_554
Cu2 Ga1 2.418075 1_565
Cu2 Ga1 2.418075 1_555
Cu2 Ga3 2.418075 1_655
Cu2 Ga3 2.418075 1_555
Cu2 Sm0 3.242134 1_555
Cu2 Sm0 3.242134 1_565
Cu2 Sm1 3.242134 1_655
Cu2 Sm1 3.242134 1_555
