# generated using pymatgen
data_Li5Cu2Ni3O10
_symmetry_space_group_name_H-M   'P 1'
_cell_length_a   5.03398600
_cell_length_b   5.13041955
_cell_length_c   7.66011773
_cell_angle_alpha   106.90279769
_cell_angle_beta   102.89785781
_cell_angle_gamma   101.21835594
_symmetry_Int_Tables_number   1
_chemical_formula_structural   Li5Cu2Ni3O10
_chemical_formula_sum   'Li5 Cu2 Ni3 O10'
_cell_volume   177.22848951
_cell_formula_units_Z   1
loop_
 _symmetry_equiv_pos_site_id
 _symmetry_equiv_pos_as_xyz
  1  'x, y, z'
loop_
 _atom_site_type_symbol
 _atom_site_label
 _atom_site_symmetry_multiplicity
 _atom_site_fract_x
 _atom_site_fract_y
 _atom_site_fract_z
 _atom_site_occupancy
  Li  Li0  1  0.80022700  0.49621700  0.40433700  1
  Li  Li1  1  0.60045700  0.50327200  0.78431300  1
  Li  Li2  1  0.00000000  0.00000000  0.50000000  1
  Li  Li3  1  0.39954300  0.49672800  0.21568700  1
  Li  Li4  1  0.19977300  0.50378300  0.59566300  1
  Cu  Cu0  1  0.40179800  0.00183500  0.69615400  1
  Cu  Cu1  1  0.59820200  0.99816500  0.30384600  1
  Ni  Ni0  1  0.00000000  0.50000000  0.00000000  1
  Ni  Ni1  1  0.80065200  0.99931500  0.89754700  1
  Ni  Ni2  1  0.19934800  0.00068500  0.10245300  1
  O  O0  1  0.18183200  0.25721000  0.86310400  1
  O  O1  1  0.39933900  0.76974800  0.93219100  1
  O  O2  1  0.60275600  0.76801600  0.52999900  1
  O  O3  1  0.98148600  0.24140100  0.23955500  1
  O  O4  1  0.76775500  0.23299600  0.66184100  1
  O  O5  1  0.23224500  0.76700400  0.33815900  1
  O  O6  1  0.01851400  0.75859900  0.76044500  1
  O  O7  1  0.39724400  0.23198400  0.47000100  1
  O  O8  1  0.60066100  0.23025200  0.06780900  1
  O  O9  1  0.81816800  0.74279000  0.13689600  1
loop_
_geom_bond_atom_site_label_1
_geom_bond_atom_site_label_2
_geom_bond_distance
_geom_bond_site_symmetry_2
Li0 O2 2.011271 1_555
Li0 O3 2.038054 1_555
Li0 O7 2.447036 1_555
Li1 O4 1.887531 1_555
Li1 O1 2.080197 1_555
Li1 O7 2.275597 1_555
Li2 O5 2.159104 1_545
Li2 O4 2.159104 1_455
Li2 O7 2.215024 1_555
Li2 O2 2.215024 1_445
Li3 O5 1.887531 1_555
Li3 O8 2.080197 1_555
Li3 O2 2.275597 1_555
Li4 O7 2.011271 1_555
Li4 O6 2.038054 1_555
Li4 O2 2.447036 1_555
Cu0 O2 2.059484 1_545
Cu0 O4 2.101592 1_555
Cu0 O0 2.191010 1_555
Cu0 Li2 2.230803 1_555
Cu0 Ni1 2.247297 1_545
Cu0 O6 2.316737 1_545
Cu0 O7 2.361789 1_555
Cu0 Li4 2.377304 1_545
Cu0 Li1 2.400326 1_555
Cu0 O1 2.437868 1_545
Cu0 O5 2.516727 1_545
Cu0 O8 2.609907 1_556
Cu1 O7 2.059484 1_565
Cu1 O5 2.101592 1_555
Cu1 O9 2.191010 1_555
Cu1 Li2 2.230803 1_665
Cu1 Ni2 2.247297 1_565
Cu1 O3 2.316737 1_565
Cu1 O2 2.361789 1_555
Cu1 Li0 2.377304 1_565
Cu1 Li3 2.400326 1_555
Cu1 O8 2.437868 1_565
Cu1 O4 2.516727 1_565
Cu1 O1 2.609907 1_554
Ni0 O9 1.897798 1_455
Ni0 O0 1.897798 1_554
Ni1 O6 2.029259 1_655
Ni1 O8 2.066409 1_566
Ni1 O0 2.223370 1_665
Ni1 O1 2.243678 1_555
Ni2 O3 2.029259 1_455
Ni2 O1 2.066409 1_544
Ni2 O9 2.223370 1_445
Ni2 O8 2.243678 1_555
