# generated using pymatgen
data_Cs2Pt3S4
_symmetry_space_group_name_H-M   'P 1'
_cell_length_a   6.37772788
_cell_length_b   6.37772917
_cell_length_c   7.65505727
_cell_angle_alpha   102.35176623
_cell_angle_beta   102.35176119
_cell_angle_gamma   119.11008534
_symmetry_Int_Tables_number   1
_chemical_formula_structural   Cs2Pt3S4
_chemical_formula_sum   'Cs2 Pt3 S4'
_cell_volume   246.61196465
_cell_formula_units_Z   1
loop_
 _symmetry_equiv_pos_site_id
 _symmetry_equiv_pos_as_xyz
  1  'x, y, z'
loop_
 _atom_site_type_symbol
 _atom_site_label
 _atom_site_symmetry_multiplicity
 _atom_site_fract_x
 _atom_site_fract_y
 _atom_site_fract_z
 _atom_site_occupancy
  Cs  Cs0  1  0.65408657  0.65408657  0.30817414  1
  Cs  Cs1  1  0.34591343  0.34591343  0.69182586  1
  Pt  Pt0  1  0.50000000  -0.00000000  -0.00000000  1
  Pt  Pt1  1  -0.00000000  -0.00000000  -0.00000000  1
  Pt  Pt2  1  -0.00000000  0.50000000  -0.00000000  1
  S  S0  1  0.72619788  0.06206771  0.78826659  1
  S  S1  1  0.06206771  0.72619788  0.78826659  1
  S  S2  1  0.27380212  0.93793229  0.21173341  1
  S  S3  1  0.93793229  0.27380212  0.21173341  1
loop_
_geom_bond_atom_site_label_1
_geom_bond_atom_site_label_2
_geom_bond_distance
_geom_bond_site_symmetry_2
Cs0 S2 3.712438 1_555
Cs0 S3 3.712438 1_555
Cs0 S3 3.781783 1_455
Cs0 S2 3.781784 1_545
Cs0 S2 3.781795 1_655
Cs0 S3 3.781795 1_565
Cs0 S1 3.809184 1_655
Cs0 S0 3.809184 1_565
Cs0 Pt2 3.839571 1_555
Cs0 Pt0 3.839572 1_555
Cs0 Pt2 3.839574 1_655
Cs0 Pt0 3.839574 1_565
Cs0 Pt1 3.875187 1_555
Cs0 Pt1 3.875193 1_665
Cs1 S0 3.712438 1_555
Cs1 S1 3.712438 1_555
Cs1 S1 3.781783 1_655
Cs1 S0 3.781784 1_565
Cs1 S0 3.781795 1_455
Cs1 S1 3.781795 1_545
Cs1 S3 3.809184 1_455
Cs1 S2 3.809184 1_545
Cs1 Pt2 3.839571 1_656
Cs1 Pt0 3.839572 1_566
Cs1 Pt2 3.839574 1_556
Cs1 Pt0 3.839574 1_556
Cs1 Pt1 3.875187 1_666
Cs1 Pt1 3.875193 1_556
Pt0 S0 2.363091 1_554
Pt0 S2 2.363091 1_545
Pt0 S1 2.363095 1_544
Pt0 S3 2.363095 1_555
Pt1 S0 2.359936 1_454
Pt1 S2 2.359936 1_545
Pt1 S3 2.359936 1_455
Pt1 S1 2.359936 1_544
Pt2 S3 2.363091 1_455
Pt2 S1 2.363091 1_554
Pt2 S0 2.363096 1_454
Pt2 S2 2.363096 1_555
