# generated using pymatgen
data_CaWO2
_symmetry_space_group_name_H-M   'P 1'
_cell_length_a   3.39579600
_cell_length_b   9.10859756
_cell_length_c   9.70542044
_cell_angle_alpha   103.63811988
_cell_angle_beta   90.20547705
_cell_angle_gamma   100.61484834
_symmetry_Int_Tables_number   1
_chemical_formula_structural   CaWO2
_chemical_formula_sum   'Ca4 W4 O8'
_cell_volume   286.39361386
_cell_formula_units_Z   4
loop_
 _symmetry_equiv_pos_site_id
 _symmetry_equiv_pos_as_xyz
  1  'x, y, z'
loop_
 _atom_site_type_symbol
 _atom_site_label
 _atom_site_symmetry_multiplicity
 _atom_site_fract_x
 _atom_site_fract_y
 _atom_site_fract_z
 _atom_site_occupancy
  Ca  Ca0  1  0.38554800  0.26556800  0.93058500  1
  Ca  Ca1  1  0.61445200  0.73443200  0.06941500  1
  Ca  Ca2  1  0.32267100  0.14874300  0.29174600  1
  Ca  Ca3  1  0.67732900  0.85125700  0.70825400  1
  W  W0  1  0.01258800  0.52525200  0.78312700  1
  W  W1  1  0.31785100  0.13626100  0.61958700  1
  W  W2  1  0.68214900  0.86373900  0.38041300  1
  W  W3  1  0.98741200  0.47474800  0.21687300  1
  O  O0  1  0.56266300  0.62686400  0.27273600  1
  O  O1  1  0.19110600  0.88007600  0.53552400  1
  O  O2  1  0.80889400  0.11992400  0.46447600  1
  O  O3  1  0.43733700  0.37313600  0.72726400  1
  O  O4  1  0.59049400  0.68178400  0.83387200  1
  O  O5  1  0.81127300  0.12022800  0.76274600  1
  O  O6  1  0.40950600  0.31821600  0.16612800  1
  O  O7  1  0.18872700  0.87977200  0.23725400  1
loop_
_geom_bond_atom_site_label_1
_geom_bond_atom_site_label_2
_geom_bond_distance
_geom_bond_site_symmetry_2
Ca0 O6 2.220338 1_556
Ca0 O3 2.394927 1_555
Ca0 O5 2.490189 1_555
Ca0 O5 2.493625 1_455
Ca1 O4 2.220338 1_554
Ca1 O0 2.394927 1_555
Ca1 O7 2.490189 1_555
Ca1 O7 2.493625 1_655
Ca2 O6 2.163011 1_555
Ca2 O7 2.337851 1_545
Ca2 O2 2.439837 1_555
Ca2 O2 2.446011 1_455
Ca3 O4 2.163011 1_555
Ca3 O5 2.337851 1_565
Ca3 O1 2.439837 1_555
Ca3 O1 2.446011 1_655
O0 W2 2.126762 1_555
O0 W3 2.161168 1_455
O0 W3 2.163738 1_555
O1 W1 2.241811 1_565
O1 W2 2.248653 1_455
O1 W2 2.252265 1_555
O2 W2 2.241811 1_545
O2 W1 2.248653 1_655
O2 W1 2.252265 1_555
O3 W1 2.126762 1_555
O3 W0 2.161168 1_655
O3 W0 2.163738 1_555
O4 W0 2.180993 1_655
O4 W0 2.181223 1_555
O5 W1 2.220011 1_555
O5 W1 2.220653 1_655
O6 W3 2.180993 1_455
O6 W3 2.181223 1_555
O7 W2 2.220011 1_555
O7 W2 2.220653 1_455
