# generated using pymatgen
data_Sr3Ca5TiMn7O20
_symmetry_space_group_name_H-M   'P 1'
_cell_length_a   10.99893376
_cell_length_b   11.19898197
_cell_length_c   17.46731506
_cell_angle_alpha   108.75052643
_cell_angle_beta   108.35005425
_cell_angle_gamma   90.04036561
_symmetry_Int_Tables_number   1
_chemical_formula_structural   Sr3Ca5TiMn7O20
_chemical_formula_sum   'Sr12 Ca20 Ti4 Mn28 O80'
_cell_volume   1921.31048715
_cell_formula_units_Z   4
loop_
 _symmetry_equiv_pos_site_id
 _symmetry_equiv_pos_as_xyz
  1  'x, y, z'
loop_
 _atom_site_type_symbol
 _atom_site_label
 _atom_site_symmetry_multiplicity
 _atom_site_fract_x
 _atom_site_fract_y
 _atom_site_fract_z
 _atom_site_occupancy
  Sr  Sr0  1  0.31133200  0.56101600  0.60987500  1
  Sr  Sr1  1  0.80594400  0.05760600  0.60686700  1
  Sr  Sr2  1  0.80630200  0.56027600  0.60956600  1
  Sr  Sr3  1  0.19795300  0.43812000  0.38830000  1
  Sr  Sr4  1  0.20016500  0.44039600  0.89130200  1
  Sr  Sr5  1  0.69744500  0.93749500  0.38669900  1
  Sr  Sr6  1  0.05835600  0.29667500  0.60765900  1
  Sr  Sr7  1  0.05972700  0.80118200  0.60993600  1
  Sr  Sr8  1  0.55935700  0.29989300  0.60999700  1
  Sr  Sr9  1  0.44692800  0.20326500  0.88856400  1
  Sr  Sr10  1  0.94719700  0.19719900  0.38661200  1
  Sr  Sr11  1  0.94720100  0.20200900  0.88902700  1
  Ca  Ca0  1  0.30625000  0.06701700  0.11113900  1
  Ca  Ca1  1  0.30515600  0.05985900  0.60278700  1
  Ca  Ca2  1  0.31218600  0.56791100  0.11109700  1
  Ca  Ca3  1  0.80517100  0.06856000  0.10972500  1
  Ca  Ca4  1  0.80313500  0.56206400  0.11177500  1
  Ca  Ca5  1  0.19828800  0.93441200  0.39275000  1
  Ca  Ca6  1  0.19467400  0.93661900  0.89202500  1
  Ca  Ca7  1  0.69975500  0.43637100  0.39269500  1
  Ca  Ca8  1  0.69579800  0.43343300  0.89333500  1
  Ca  Ca9  1  0.69798500  0.93745200  0.89048600  1
  Ca  Ca10  1  0.05542000  0.29274300  0.10955200  1
  Ca  Ca11  1  0.05888300  0.79625200  0.11019500  1
  Ca  Ca12  1  0.55498400  0.29607200  0.10998000  1
  Ca  Ca13  1  0.55064900  0.79287300  0.10976800  1
  Ca  Ca14  1  0.55634700  0.79402000  0.60589900  1
  Ca  Ca15  1  0.45020900  0.20674200  0.39280300  1
  Ca  Ca16  1  0.44827000  0.70639100  0.39361900  1
  Ca  Ca17  1  0.44198100  0.70122100  0.89187800  1
  Ca  Ca18  1  0.95151200  0.70638700  0.39293800  1
  Ca  Ca19  1  0.94953000  0.70745200  0.89429200  1
  Ti  Ti0  1  0.00762400  0.00062300  0.00295000  1
  Ti  Ti1  1  0.00737400  0.50571400  0.00619300  1
  Ti  Ti2  1  0.50397000  0.99865600  0.99868000  1
  Ti  Ti3  1  0.75491800  0.74949100  0.00196900  1
  Mn  Mn0  1  0.00558100  0.99592300  0.49703300  1
  Mn  Mn1  1  0.00246100  0.49956700  0.49713300  1
  Mn  Mn2  1  0.50286100  0.99800600  0.49813800  1
  Mn  Mn3  1  0.50685600  0.50092800  0.00309900  1
  Mn  Mn4  1  0.50456700  0.50092200  0.49761900  1
  Mn  Mn5  1  0.25605700  0.25160700  0.00332700  1
  Mn  Mn6  1  0.25446100  0.24761300  0.49624100  1
  Mn  Mn7  1  0.25629100  0.75331200  0.00308100  1
  Mn  Mn8  1  0.25696800  0.75061400  0.49931700  1
  Mn  Mn9  1  0.75636900  0.25082700  0.00268300  1
  Mn  Mn10  1  0.75239000  0.24899300  0.49710100  1
  Mn  Mn11  1  0.75324600  0.74626200  0.49708800  1
  Mn  Mn12  1  0.11101900  0.08984300  0.24744600  1
  Mn  Mn13  1  0.11181700  0.09247700  0.74980900  1
  Mn  Mn14  1  0.11012100  0.59865400  0.24958500  1
  Mn  Mn15  1  0.11125200  0.59921400  0.75026900  1
  Mn  Mn16  1  0.60474800  0.09686800  0.24560200  1
  Mn  Mn17  1  0.60332600  0.09198800  0.74582300  1
  Mn  Mn18  1  0.60967400  0.59317600  0.25151500  1
  Mn  Mn19  1  0.61648900  0.60385700  0.75488700  1
  Mn  Mn20  1  0.36030600  0.40389900  0.24959700  1
  Mn  Mn21  1  0.36536000  0.40347100  0.74995800  1
  Mn  Mn22  1  0.35590700  0.90601000  0.25277100  1
  Mn  Mn23  1  0.36671600  0.90494900  0.75009500  1
  Mn  Mn24  1  0.85632200  0.40688400  0.25112000  1
  Mn  Mn25  1  0.86013600  0.40988500  0.75631100  1
  Mn  Mn26  1  0.86025400  0.89981200  0.24475900  1
  Mn  Mn27  1  0.85929800  0.90050000  0.75040500  1
  O  O0  1  0.12794800  0.11692800  0.49138600  1
  O  O1  1  0.12680000  0.12005100  0.99043100  1
  O  O2  1  0.12121400  0.62406700  0.48897600  1
  O  O3  1  0.12232000  0.62612600  0.99088200  1
  O  O4  1  0.61920400  0.12130600  0.48869900  1
  O  O5  1  0.62740400  0.11707500  0.99196800  1
  O  O6  1  0.62088300  0.61702600  0.48380600  1
  O  O7  1  0.62721900  0.62349400  0.98640700  1
  O  O8  1  0.13492600  0.38478500  0.01619200  1
  O  O9  1  0.13126500  0.37723200  0.50512600  1
  O  O10  1  0.13894800  0.88268100  0.01475800  1
  O  O11  1  0.13734600  0.88022500  0.50765600  1
  O  O12  1  0.63976900  0.37663500  0.01404600  1
  O  O13  1  0.62849200  0.37716100  0.50154400  1
  O  O14  1  0.64113800  0.88129700  0.01831600  1
  O  O15  1  0.62687100  0.87191300  0.50491900  1
  O  O16  1  0.37266200  0.11507500  0.48820800  1
  O  O17  1  0.37479800  0.11300600  0.99003400  1
  O  O18  1  0.37824700  0.62232700  0.48796600  1
  O  O19  1  0.37566800  0.62889500  0.99531800  1
  O  O20  1  0.87626000  0.11816200  0.49270700  1
  O  O21  1  0.87492500  0.11689700  0.99189400  1
  O  O22  1  0.87114400  0.61590300  0.48557700  1
  O  O23  1  0.87374700  0.61587500  0.98438500  1
  O  O24  1  0.38350500  0.38013800  0.01553100  1
  O  O25  1  0.38412700  0.37852000  0.50513500  1
  O  O26  1  0.38880400  0.88381200  0.01409200  1
  O  O27  1  0.38572200  0.88287300  0.51152900  1
  O  O28  1  0.88501900  0.38647700  0.01352100  1
  O  O29  1  0.87871400  0.37934100  0.50302400  1
  O  O30  1  0.89267800  0.88604100  0.01760300  1
  O  O31  1  0.88335400  0.87468200  0.50334400  1
  O  O32  1  0.08566100  0.09442000  0.12846500  1
  O  O33  1  0.07973000  0.07814200  0.63297200  1
  O  O34  1  0.07419700  0.59786300  0.12784700  1
  O  O35  1  0.07026000  0.58338100  0.63286100  1
  O  O36  1  0.57536700  0.09399200  0.12947300  1
  O  O37  1  0.57467000  0.08218300  0.63037000  1
  O  O38  1  0.58332300  0.59550000  0.13806100  1
  O  O39  1  0.57499900  0.59132600  0.63085200  1
  O  O40  1  0.43993500  0.41015400  0.36444200  1
  O  O41  1  0.44432500  0.41318900  0.86519400  1
  O  O42  1  0.43888800  0.90931400  0.36742500  1
  O  O43  1  0.45902200  0.90642900  0.87479300  1
  O  O44  1  0.93900200  0.41575400  0.36539600  1
  O  O45  1  0.94778900  0.41461800  0.87149200  1
  O  O46  1  0.94811800  0.90675300  0.36685400  1
  O  O47  1  0.95180400  0.90844200  0.87458200  1
  O  O48  1  0.33864400  0.28885500  0.14026300  1
  O  O49  1  0.32623900  0.29587700  0.63263400  1
  O  O50  1  0.33248900  0.79354800  0.14196500  1
  O  O51  1  0.32668000  0.79175600  0.62780600  1
  O  O52  1  0.83701100  0.29317300  0.14117900  1
  O  O53  1  0.82256300  0.30960000  0.63964400  1
  O  O54  1  0.83486400  0.77528100  0.12542100  1
  O  O55  1  0.81895400  0.79426800  0.62655400  1
  O  O56  1  0.19495400  0.20074100  0.36777600  1
  O  O57  1  0.18920400  0.20462300  0.86203900  1
  O  O58  1  0.20046300  0.71095400  0.37083500  1
  O  O59  1  0.19886800  0.71157200  0.86194300  1
  O  O60  1  0.68614500  0.19943700  0.36046600  1
  O  O61  1  0.68596900  0.20506000  0.85898000  1
  O  O62  1  0.69394500  0.70092200  0.36670400  1
  O  O63  1  0.70969900  0.72457600  0.87549900  1
  O  O64  1  0.42240100  0.07222900  0.24975600  1
  O  O65  1  0.42301500  0.07690200  0.74230100  1
  O  O66  1  0.42769100  0.57272400  0.24958700  1
  O  O67  1  0.43480000  0.57168300  0.75837500  1
  O  O68  1  0.92385500  0.06810900  0.23987500  1
  O  O69  1  0.93379600  0.06898600  0.74918800  1
  O  O70  1  0.92255700  0.56895600  0.24950600  1
  O  O71  1  0.93843500  0.57655700  0.75956400  1
  O  O72  1  0.18019600  0.42373600  0.24107600  1
  O  O73  1  0.18593500  0.43765900  0.75045900  1
  O  O74  1  0.17629900  0.91582800  0.24941100  1
  O  O75  1  0.18628500  0.93545100  0.75982600  1
  O  O76  1  0.67238900  0.42097900  0.24907000  1
  O  O77  1  0.68621800  0.43239100  0.75993800  1
  O  O78  1  0.67198600  0.93118600  0.24036300  1
  O  O79  1  0.67240500  0.92936500  0.75119400  1
loop_
_geom_bond_atom_site_label_1
_geom_bond_atom_site_label_2
_geom_bond_distance
_geom_bond_site_symmetry_2
Ca0 O64 2.336542 1_555
Ca0 O48 2.372740 1_555
Ca0 O10 2.508335 1_545
Ca0 O32 2.544818 1_555
Ca0 O26 2.577466 1_545
Ca0 O1 2.623059 1_554
Ca0 O17 2.648137 1_554
Ca0 O36 2.880122 1_555
Ca1 O65 2.316696 1_555
Ca1 O27 2.472936 1_545
Ca1 O11 2.475775 1_545
Ca1 O49 2.519718 1_555
Ca1 O0 2.531229 1_555
Ca1 O16 2.582610 1_555
Ca1 O33 2.687379 1_555
Ca1 O37 2.846813 1_555
Ca2 O66 2.334466 1_555
Ca2 O50 2.402770 1_555
Ca2 O24 2.528625 1_555
Ca2 O8 2.555161 1_555
Ca2 O19 2.611559 1_554
Ca2 O3 2.704884 1_554
Ca2 O34 2.733210 1_555
Ca2 O38 2.869089 1_555
Ca3 O68 2.238556 1_555
Ca3 O52 2.396046 1_555
Ca3 O14 2.496127 1_545
Ca3 O5 2.556701 1_554
Ca3 O30 2.560682 1_545
Ca3 O21 2.613000 1_554
Ca3 O36 2.660017 1_555
Ca3 O32 3.001791 1_655
Ca4 O70 2.325916 1_555
Ca4 O54 2.336835 1_555
Ca4 O12 2.497894 1_555
Ca4 O28 2.535628 1_555
Ca4 O38 2.604992 1_555
Ca4 O7 2.704630 1_554
Ca4 O23 2.804865 1_554
Ca4 O34 2.920138 1_655
Ca5 O74 2.377858 1_555
Ca5 O58 2.408238 1_555
Ca5 O0 2.514429 1_565
Ca5 O16 2.522755 1_565
Ca5 O11 2.544712 1_555
Ca5 O27 2.639361 1_555
Ca5 O46 2.645168 1_455
Ca5 O42 2.817093 1_555
Ca6 O75 2.277572 1_555
Ca6 O59 2.407108 1_555
Ca6 O1 2.504376 1_565
Ca6 O17 2.538248 1_565
Ca6 O47 2.598623 1_455
Ca6 O10 2.644970 1_556
Ca6 O26 2.720474 1_556
Ca6 O43 3.024191 1_555
Ca7 O76 2.379192 1_555
Ca7 O6 2.486012 1_555
Ca7 O22 2.489991 1_555
Ca7 O60 2.523096 1_555
Ca7 O29 2.529996 1_555
Ca7 O13 2.533206 1_555
Ca7 O40 2.741189 1_555
Ca7 O44 2.815213 1_555
Ca8 O77 2.295316 1_555
Ca8 O61 2.425882 1_555
Ca8 O7 2.508413 1_555
Ca8 O23 2.545597 1_555
Ca8 O12 2.628681 1_556
Ca8 O28 2.641109 1_556
Ca8 O41 2.648552 1_555
Ca8 O45 2.913227 1_555
Ca9 O63 2.321423 1_555
Ca9 O79 2.331182 1_555
Ca9 O5 2.523407 1_565
Ca9 O21 2.549322 1_565
Ca9 O43 2.566682 1_555
Ca9 O14 2.748323 1_556
Ca9 O30 2.770755 1_556
Ca9 O47 2.899672 1_555
Ca10 O72 2.271279 1_555
Ca10 O32 2.357170 1_555
Ca10 O8 2.542413 1_555
Ca10 O28 2.565860 1_455
Ca10 O21 2.620429 1_454
Ca10 O52 2.628689 1_455
Ca10 O1 2.670153 1_554
Ca10 O48 2.992810 1_555
Ca11 O74 2.302409 1_555
Ca11 O34 2.338348 1_555
Ca11 O30 2.480984 1_455
Ca11 O10 2.540046 1_555
Ca11 O54 2.578564 1_455
Ca11 O3 2.612449 1_554
Ca11 O23 2.716440 1_454
Ca11 O50 2.885243 1_555
Ca12 O76 2.316041 1_555
Ca12 O36 2.394956 1_555
Ca12 O24 2.491432 1_555
Ca12 O12 2.538969 1_555
Ca12 O48 2.601562 1_555
Ca12 O17 2.671860 1_554
Ca12 O5 2.698437 1_554
Ca12 O52 2.977842 1_555
Ca13 O78 2.278731 1_555
Ca13 O38 2.418828 1_555
Ca13 O26 2.494503 1_555
Ca13 O19 2.507031 1_554
Ca13 O14 2.557264 1_555
Ca13 O50 2.630791 1_555
Ca13 O7 2.732700 1_554
Ca14 O79 2.419146 1_555
Ca14 O39 2.442384 1_555
Ca14 O15 2.514661 1_555
Ca14 O27 2.517667 1_555
Ca14 O18 2.585610 1_555
Ca14 O51 2.672637 1_555
Ca14 O6 2.686709 1_555
Ca14 O55 2.795748 1_555
Ca15 O64 2.388380 1_555
Ca15 O40 2.477524 1_555
Ca15 O4 2.499740 1_555
Ca15 O13 2.532676 1_555
Ca15 O16 2.559698 1_555
Ca15 O25 2.559740 1_555
Ca15 O56 2.699246 1_555
Ca15 O60 2.820196 1_555
Ca16 O66 2.416886 1_555
Ca16 O18 2.447635 1_555
Ca16 O42 2.454273 1_555
Ca16 O6 2.494164 1_555
Ca16 O15 2.519529 1_555
Ca16 O27 2.626492 1_555
Ca16 O58 2.630635 1_555
Ca16 O62 2.882372 1_555
Ca17 O67 2.292964 1_555
Ca17 O43 2.425093 1_555
Ca17 O19 2.494484 1_555
Ca17 O7 2.538398 1_555
Ca17 O59 2.568284 1_555
Ca17 O26 2.657457 1_556
Ca17 O14 2.797715 1_556
Ca18 O70 2.401046 1_555
Ca18 O46 2.427082 1_555
Ca18 O2 2.484576 1_655
Ca18 O22 2.525904 1_555
Ca18 O31 2.531573 1_555
Ca18 O11 2.625022 1_655
Ca18 O62 2.720982 1_555
Ca18 O58 2.885745 1_655
Ca19 O71 2.302829 1_555
Ca19 O47 2.385200 1_555
Ca19 O23 2.466848 1_555
Ca19 O3 2.501869 1_655
Ca19 O63 2.568839 1_555
Ca19 O30 2.666592 1_556
Ca19 O10 2.682995 1_656
Ca19 O59 2.972330 1_655
Mn0 O11 1.949758 1_555
Mn0 O0 1.955641 1_565
Mn0 O31 1.962140 1_455
Mn0 O20 1.975984 1_465
Mn0 O46 2.049776 1_455
Mn0 O33 2.127244 1_565
Mn1 O22 1.952547 1_455
Mn1 O29 1.962302 1_455
Mn1 O9 1.976029 1_555
Mn1 O2 1.978047 1_555
Mn1 O44 2.064568 1_455
Mn1 O35 2.124388 1_555
Mn2 O27 1.938680 1_555
Mn2 O16 1.947347 1_565
Mn2 O4 1.961659 1_565
Mn2 O15 1.969022 1_555
Mn2 O42 2.055283 1_555
Mn2 O37 2.073128 1_565
Mn3 O24 2.022252 1_555
Mn3 O12 2.027124 1_555
Mn3 O19 2.039349 1_554
Mn3 O7 2.054134 1_554
Mn3 O38 2.128780 1_555
Mn3 O41 2.162223 1_554
Mn4 O6 1.944042 1_555
Mn4 O13 1.946404 1_555
Mn4 O18 1.951898 1_555
Mn4 O25 1.968190 1_555
Mn4 O40 2.094656 1_555
Mn4 O39 2.095254 1_555
Mn5 O24 1.922010 1_555
Mn5 O1 1.955654 1_554
Mn5 O8 2.006450 1_555
Mn5 O17 2.032486 1_554
Mn5 O48 2.170325 1_555
Mn5 O57 2.220403 1_554
Mn6 O16 1.974009 1_555
Mn6 O25 1.979521 1_555
Mn6 O0 1.982037 1_555
Mn6 O9 1.989390 1_555
Mn6 O56 2.014124 1_555
Mn6 O49 2.139767 1_555
Mn7 O19 1.917558 1_554
Mn7 O10 1.945458 1_555
Mn7 O3 1.962071 1_554
Mn7 O26 1.984181 1_555
Mn7 O50 2.192514 1_555
Mn7 O59 2.230122 1_554
Mn8 O11 1.961285 1_555
Mn8 O27 1.961778 1_555
Mn8 O18 1.966943 1_555
Mn8 O2 1.983229 1_555
Mn8 O51 2.022004 1_555
Mn8 O58 2.025016 1_555
Mn9 O12 1.911082 1_555
Mn9 O5 1.985039 1_554
Mn9 O21 1.990304 1_554
Mn9 O28 1.997325 1_555
Mn9 O52 2.185116 1_555
Mn9 O61 2.260850 1_554
Mn10 O29 1.970195 1_555
Mn10 O13 1.980168 1_555
Mn10 O4 1.984702 1_555
Mn10 O20 2.001305 1_555
Mn10 O60 2.141947 1_555
Mn10 O53 2.226773 1_555
Mn11 O22 1.957394 1_555
Mn11 O6 1.958707 1_555
Mn11 O31 1.981360 1_555
Mn11 O15 1.982326 1_555
Mn11 O55 2.028337 1_555
Mn11 O62 2.047153 1_555
Mn12 O56 1.977593 1_555
Mn12 O32 2.025634 1_555
Mn12 O68 2.030214 1_455
Mn12 O74 2.084217 1_545
Mn13 O57 1.873461 1_555
Mn13 O33 1.910783 1_555
Mn13 O69 1.971628 1_455
Mn13 O75 1.975735 1_545
Mn14 O58 2.003832 1_555
Mn14 O34 2.033909 1_555
Mn14 O72 2.083393 1_555
Mn14 O70 2.088911 1_455
Mn15 O59 1.885129 1_555
Mn15 O35 1.903793 1_555
Mn15 O71 1.980887 1_455
Mn15 O73 1.988063 1_555
Mn16 O60 1.879459 1_555
Mn16 O36 1.940456 1_555
Mn16 O78 1.983294 1_545
Mn16 O64 2.051255 1_555
Mn17 O61 1.895923 1_555
Mn17 O37 1.906742 1_555
Mn17 O65 1.970165 1_555
Mn17 O79 1.992440 1_545
Mn18 O62 1.904409 1_555
Mn18 O38 1.919240 1_555
Mn18 O66 2.003004 1_555
Mn18 O76 2.040580 1_555
Mn19 O39 2.025792 1_555
Mn19 O63 2.030821 1_555
Mn19 O67 2.053495 1_555
Mn19 O77 2.086077 1_555
Mn20 O48 1.869525 1_555
Mn20 O40 1.897230 1_555
Mn20 O72 1.957591 1_555
Mn20 O66 2.030337 1_555
Mn21 O41 1.891052 1_555
Mn21 O49 1.921805 1_555
Mn21 O67 1.975571 1_555
Mn21 O73 2.012732 1_555
Mn22 O50 1.875410 1_555
Mn22 O42 1.909607 1_555
Mn22 O74 1.962033 1_555
Mn22 O64 2.021916 1_565
Mn23 O51 2.007420 1_555
Mn23 O75 2.063984 1_555
Mn23 O65 2.080923 1_565
Mn23 O43 2.087992 1_555
Mn24 O52 1.877555 1_555
Mn24 O44 1.884331 1_555
Mn24 O70 1.967198 1_555
Mn24 O76 2.019275 1_555
Mn25 O53 1.892794 1_555
Mn25 O45 1.920966 1_555
Mn25 O77 1.947690 1_555
Mn25 O71 2.031668 1_555
Mn26 O46 2.020861 1_555
Mn26 O54 2.032758 1_555
Mn26 O68 2.046468 1_565
Mn26 O78 2.082209 1_555
Mn27 O55 2.008114 1_555
Mn27 O47 2.057705 1_555
Mn27 O69 2.065606 1_565
Mn27 O79 2.084751 1_555
O0 Sr10 2.622820 1_455
O0 Sr6 2.667490 1_555
O1 Ti0 1.980128 1_556
O1 Sr11 2.593577 1_455
O2 Sr3 2.593086 1_555
O2 Sr7 2.657649 1_555
O2 Sr0 2.740648 1_555
O3 Ti1 1.982604 1_556
O3 Sr4 2.588286 1_555
O4 Sr5 2.600453 1_545
O4 Sr8 2.660472 1_555
O4 Sr1 2.695798 1_555
O5 Ti2 1.952771 1_545
O5 Sr9 2.645834 1_555
O6 Sr2 2.732609 1_555
O7 Ti3 1.883590 1_556
O8 Ti1 1.957875 1_555
O8 Sr4 2.742279 1_554
O8 Sr11 2.751408 1_454
O9 Sr6 2.570331 1_555
O9 Sr0 2.607295 1_555
O9 Sr3 2.646413 1_555
O9 Sr10 2.668576 1_455
O10 Ti0 1.965640 1_565
O11 Sr7 2.584612 1_555
O12 Sr9 2.720982 1_554
O13 Sr2 2.602632 1_555
O13 Sr8 2.622145 1_555
O14 Ti3 1.945035 1_555
O14 Ti2 2.021879 1_554
O15 Sr1 2.603867 1_565
O15 Sr5 2.718389 1_555
O16 Sr8 2.727435 1_555
O17 Ti2 1.916532 1_545
O17 Sr9 2.613160 1_555
O18 Sr3 2.594327 1_555
O18 Sr0 2.733798 1_555
O19 Sr4 2.608406 1_555
O20 Sr5 2.585215 1_545
O20 Sr10 2.605869 1_555
O20 Sr1 2.621844 1_555
O20 Sr6 2.630842 1_655
O21 Ti0 1.962152 1_656
O21 Sr11 2.601613 1_555
O22 Sr2 2.725167 1_555
O22 Sr7 2.754190 1_655
O23 Ti1 1.944078 1_656
O23 Ti3 2.000428 1_556
O24 Sr4 2.723722 1_554
O24 Sr9 2.735058 1_554
O25 Sr8 2.580983 1_555
O25 Sr0 2.585728 1_555
O25 Sr3 2.655158 1_555
O26 Ti2 1.940661 1_554
O28 Ti1 1.956125 1_655
O28 Sr11 2.741281 1_554
O29 Sr2 2.591280 1_555
O29 Sr6 2.630236 1_655
O29 Sr10 2.676358 1_555
O30 Ti0 1.929544 1_665
O30 Ti3 2.043694 1_555
O31 Sr7 2.573075 1_655
O31 Sr1 2.604174 1_565
O31 Sr5 2.669749 1_555
O32 Ti0 1.995014 1_555
O33 Sr6 2.621318 1_555
O33 Sr1 2.897601 1_455
O33 Sr7 2.995264 1_545
O34 Ti1 1.930386 1_555
O35 Sr7 2.592749 1_555
O35 Sr2 2.801580 1_455
O35 Sr0 2.803779 1_555
O35 Sr6 3.094299 1_555
O36 Ti2 2.068101 1_544
O37 Sr8 2.572960 1_555
O37 Sr1 2.702023 1_555
O39 Sr2 2.691700 1_555
O39 Sr0 2.812363 1_555
O39 Sr8 3.163823 1_555
O40 Sr3 2.823334 1_555
O41 Sr9 2.510789 1_555
O41 Sr4 2.862805 1_555
O42 Sr5 2.761888 1_555
O43 Ti2 1.970464 1_555
O44 Sr10 2.588163 1_555
O44 Sr3 2.748101 1_655
O45 Ti1 2.119252 1_656
O45 Sr11 2.496620 1_555
O45 Sr4 2.690422 1_655
O46 Sr5 2.892554 1_555
O46 Sr10 3.159085 1_565
O47 Ti0 2.028420 1_666
O49 Sr8 2.717048 1_555
O49 Sr6 2.839902 1_555
O49 Sr0 3.117709 1_555
O51 Sr0 2.499939 1_555
O51 Sr7 2.859088 1_555
O53 Sr1 2.686998 1_555
O53 Sr8 2.771344 1_555
O53 Sr6 2.814257 1_655
O53 Sr2 3.013104 1_555
O54 Ti3 1.977858 1_555
O55 Sr2 2.539266 1_555
O55 Sr7 2.757106 1_655
O55 Sr1 3.075325 1_565
O56 Sr3 2.564458 1_555
O56 Sr10 2.847553 1_455
O57 Sr4 2.518071 1_555
O57 Sr9 2.725435 1_555
O57 Sr11 2.847272 1_455
O58 Sr3 3.167668 1_555
O60 Sr10 2.763209 1_555
O60 Sr5 3.107984 1_545
O61 Sr11 2.755809 1_555
O61 Sr9 2.835873 1_555
O62 Sr5 2.557180 1_555
O63 Ti3 2.029049 1_556
O65 Sr9 2.418872 1_555
O67 Sr0 2.483824 1_555
O68 Sr10 2.434816 1_555
O69 Sr11 2.375061 1_555
O69 Sr1 2.401809 1_555
O71 Sr2 2.510989 1_555
O72 Sr3 2.468736 1_555
O73 Sr4 2.405585 1_555
O73 Sr6 2.438190 1_555
O75 Sr7 2.494966 1_555
O77 Sr8 2.491154 1_555
O78 Sr5 2.459721 1_555
