# generated using pymatgen
data_AlBN2
_symmetry_space_group_name_H-M   'P 1'
_cell_length_a   2.81439600
_cell_length_b   2.81439600
_cell_length_c   4.14320400
_cell_angle_alpha   90.00000000
_cell_angle_beta   90.00000000
_cell_angle_gamma   90.00000000
_symmetry_Int_Tables_number   1
_chemical_formula_structural   AlBN2
_chemical_formula_sum   'Al1 B1 N2'
_cell_volume   32.81759318
_cell_formula_units_Z   1
loop_
 _symmetry_equiv_pos_site_id
 _symmetry_equiv_pos_as_xyz
  1  'x, y, z'
loop_
 _atom_site_type_symbol
 _atom_site_label
 _atom_site_symmetry_multiplicity
 _atom_site_fract_x
 _atom_site_fract_y
 _atom_site_fract_z
 _atom_site_occupancy
  Al  Al0  1  0.50000000  0.50000000  0.50000000  1
  B  B0  1  0.00000000  0.00000000  0.00000000  1
  N  N0  1  0.50000000  0.00000000  0.78995100  1
  N  N1  1  0.00000000  0.50000000  0.21004900  1
loop_
_geom_bond_atom_site_label_1
_geom_bond_atom_site_label_2
_geom_bond_distance
_geom_bond_site_symmetry_2
Al0 N1 1.850241 1_655
Al0 N0 1.850241 1_555
Al0 N1 1.850241 1_555
Al0 N0 1.850241 1_565
B0 N0 1.654565 1_454
B0 N0 1.654565 1_554
B0 N1 1.654565 1_545
B0 N1 1.654565 1_555
