# generated using pymatgen
data_Li5Mn2CoO8
_symmetry_space_group_name_H-M   'P 1'
_cell_length_a   2.87050740
_cell_length_b   10.64154032
_cell_length_c   9.74600676
_cell_angle_alpha   72.93664664
_cell_angle_beta   89.99920179
_cell_angle_gamma   97.77630451
_symmetry_Int_Tables_number   1
_chemical_formula_structural   Li5Mn2CoO8
_chemical_formula_sum   'Li10 Mn4 Co2 O16'
_cell_volume   281.73750176
_cell_formula_units_Z   2
loop_
 _symmetry_equiv_pos_site_id
 _symmetry_equiv_pos_as_xyz
  1  'x, y, z'
loop_
 _atom_site_type_symbol
 _atom_site_label
 _atom_site_symmetry_multiplicity
 _atom_site_fract_x
 _atom_site_fract_y
 _atom_site_fract_z
 _atom_site_occupancy
  Li  Li0  1  0.62508600  0.25021500  0.87490700  1
  Li  Li1  1  0.12491500  0.24978500  0.37509400  1
  Li  Li2  1  0.56975100  0.13965300  0.18549100  1
  Li  Li3  1  0.06995200  0.13992400  0.68521600  1
  Li  Li4  1  0.18025000  0.36034700  0.06450900  1
  Li  Li5  1  0.68005000  0.36007600  0.56478400  1
  Li  Li6  1  0.80900700  0.61777700  0.93632900  1
  Li  Li7  1  0.30920500  0.61815500  0.43586200  1
  Li  Li8  1  0.44079400  0.88184200  0.81414400  1
  Li  Li9  1  0.94099400  0.88222500  0.31367100  1
  Mn  Mn0  1  0.00546200  0.01148300  0.00643000  1
  Mn  Mn1  1  0.50562600  0.01129400  0.50633200  1
  Mn  Mn2  1  0.74452900  0.48851600  0.24356900  1
  Mn  Mn3  1  0.24437300  0.48870500  0.74366700  1
  Co  Co0  1  0.37500000  0.75000000  0.12500100  1
  Co  Co1  1  0.87500100  0.75000100  0.62500000  1
  O  O0  1  0.08680000  0.17355200  0.03460100  1
  O  O1  1  0.58681200  0.17336100  0.53466300  1
  O  O2  1  0.66320000  0.32644700  0.21539800  1
  O  O3  1  0.16318900  0.32664000  0.71533700  1
  O  O4  1  0.72352000  0.44717600  0.88126700  1
  O  O5  1  0.22392100  0.44757200  0.38083000  1
  O  O6  1  0.02648200  0.05282500  0.36873300  1
  O  O7  1  0.52607700  0.05242700  0.86916700  1
  O  O8  1  0.34236500  0.68446400  0.76199900  1
  O  O9  1  0.84314600  0.68605000  0.26222500  1
  O  O10  1  0.90685400  0.81394900  0.98777600  1
  O  O11  1  0.40763700  0.81553700  0.48800200  1
  O  O12  1  0.97150700  0.94329400  0.64779400  1
  O  O13  1  0.47109000  0.94352500  0.14793800  1
  O  O14  1  0.27890800  0.55647400  0.10206000  1
  O  O15  1  0.77849500  0.55670700  0.60220500  1
loop_
_geom_bond_atom_site_label_1
_geom_bond_atom_site_label_2
_geom_bond_distance
_geom_bond_site_symmetry_2
Li0 O3 2.093703 1_655
Li0 O3 2.094646 1_555
Li0 O0 2.095003 1_556
Li0 O0 2.095695 1_656
Li0 O4 2.095887 1_555
Li0 O7 2.102660 1_555
Li1 O1 2.093696 1_455
Li1 O1 2.094637 1_555
Li1 O2 2.095012 1_555
Li1 O2 2.095707 1_455
Li1 O6 2.095880 1_555
Li1 O5 2.102637 1_555
Li2 O0 2.009641 1_555
Li2 O0 2.009796 1_655
Li2 O2 2.074582 1_555
Li2 O13 2.204198 1_545
Li2 O6 2.261995 1_555
Li2 O6 2.263062 1_655
Li3 O1 2.007517 1_455
Li3 O1 2.007848 1_555
Li3 O3 2.074648 1_555
Li3 O12 2.208858 1_445
Li3 O7 2.268326 1_455
Li3 O7 2.268409 1_555
Li4 O2 2.009633 1_555
Li4 O2 2.009790 1_455
Li4 O0 2.074597 1_555
Li4 O14 2.204179 1_555
Li4 O4 2.261998 1_554
Li4 O4 2.263063 1_454
Li5 O3 2.007514 1_655
Li5 O3 2.007852 1_555
Li5 O1 2.074637 1_555
Li5 O15 2.208864 1_555
Li5 O5 2.268338 1_655
Li5 O5 2.268433 1_555
Li6 O4 2.023676 1_555
Li6 O14 2.112547 1_556
Li6 O14 2.115115 1_656
Li6 O8 2.175453 1_655
Li6 O8 2.175835 1_555
Li6 O10 2.268007 1_555
Li7 O5 2.023338 1_555
Li7 O15 2.117739 1_455
Li7 O15 2.118207 1_555
Li7 O9 2.172009 1_555
Li7 O9 2.172478 1_455
Li7 O11 2.283797 1_555
Li8 O7 2.023312 1_565
Li8 O12 2.117790 1_555
Li8 O12 2.118255 1_455
Li8 O10 2.171973 1_455
Li8 O10 2.172443 1_555
Li8 O8 2.283780 1_555
Li9 O6 2.023666 1_665
Li9 O13 2.112555 1_655
Li9 O13 2.115128 1_555
Li9 O11 2.175458 1_555
Li9 O11 2.175845 1_655
Li9 O9 2.268034 1_555
Mn0 O0 1.809220 1_555
Mn0 O7 1.921793 1_454
Mn0 O7 1.922096 1_554
Mn0 O13 1.971748 1_545
Mn0 O13 1.972906 1_445
Mn0 O10 2.143622 1_444
Mn1 O1 1.809873 1_555
Mn1 O6 1.924092 1_555
Mn1 O6 1.924166 1_655
Mn1 O12 1.972124 1_545
Mn1 O12 1.972137 1_445
Mn1 O11 2.123771 1_545
Mn2 O2 1.809220 1_555
Mn2 O5 1.921795 1_655
Mn2 O5 1.922069 1_555
Mn2 O14 1.971739 1_555
Mn2 O14 1.972926 1_655
Mn2 O9 2.143629 1_555
Mn3 O3 1.809848 1_555
Mn3 O4 1.924101 1_555
Mn3 O4 1.924167 1_455
Mn3 O15 1.972123 1_455
Mn3 O15 1.972145 1_555
Mn3 O8 2.123799 1_555
Co0 O9 1.940922 1_455
Co0 O10 1.940927 1_554
Co0 O9 1.941899 1_555
Co0 O10 1.941902 1_454
Co0 O13 2.117464 1_555
Co0 O14 2.117489 1_555
Co1 O11 1.942077 1_655
Co1 O8 1.942084 1_555
Co1 O11 1.943111 1_555
Co1 O8 1.943120 1_655
Co1 O12 2.114484 1_555
Co1 O15 2.114498 1_555
