# generated using pymatgen
data_Sr2YCu3(PbO4)2
_symmetry_space_group_name_H-M   'P 1'
_cell_length_a   5.41574400
_cell_length_b   5.48836700
_cell_length_c   15.95109600
_cell_angle_alpha   90.00000000
_cell_angle_beta   90.00000000
_cell_angle_gamma   90.00000000
_symmetry_Int_Tables_number   1
_chemical_formula_structural   Sr2YCu3(PbO4)2
_chemical_formula_sum   'Sr4 Y2 Cu6 Pb4 O16'
_cell_volume   474.12384792
_cell_formula_units_Z   2
loop_
 _symmetry_equiv_pos_site_id
 _symmetry_equiv_pos_as_xyz
  1  'x, y, z'
loop_
 _atom_site_type_symbol
 _atom_site_label
 _atom_site_symmetry_multiplicity
 _atom_site_fract_x
 _atom_site_fract_y
 _atom_site_fract_z
 _atom_site_occupancy
  Sr  Sr0  1  0.00000000  0.99667400  0.22102800  1
  Sr  Sr1  1  0.50000000  0.50332600  0.22102800  1
  Sr  Sr2  1  0.50000000  0.49667400  0.77897200  1
  Sr  Sr3  1  0.00000000  0.00332600  0.77897200  1
  Y  Y0  1  0.00000000  0.00000000  0.00000000  1
  Y  Y1  1  0.50000000  0.50000000  0.00000000  1
  Cu  Cu0  1  0.00000000  0.00000000  0.50000000  1
  Cu  Cu1  1  0.50000000  0.50000000  0.50000000  1
  Cu  Cu2  1  0.00000000  0.49916300  0.10394000  1
  Cu  Cu3  1  0.50000000  0.00083700  0.10394000  1
  Cu  Cu4  1  0.50000000  0.99916300  0.89606000  1
  Cu  Cu5  1  0.00000000  0.50083700  0.89606000  1
  Pb  Pb0  1  0.00000000  0.50683800  0.38855700  1
  Pb  Pb1  1  0.50000000  0.99316200  0.38855700  1
  Pb  Pb2  1  0.50000000  0.00683800  0.61144300  1
  Pb  Pb3  1  0.00000000  0.49316200  0.61144300  1
  O  O0  1  0.00000000  0.48832700  0.25145000  1
  O  O1  1  0.50000000  0.01167300  0.25145000  1
  O  O2  1  0.50000000  0.98832700  0.74855000  1
  O  O3  1  0.00000000  0.51167300  0.74855000  1
  O  O4  1  0.00000000  0.93331900  0.38504200  1
  O  O5  1  0.50000000  0.56668100  0.38504200  1
  O  O6  1  0.50000000  0.43331900  0.61495800  1
  O  O7  1  0.00000000  0.06668100  0.61495800  1
  O  O8  1  0.75000000  0.25000000  0.09072900  1
  O  O9  1  0.75000000  0.75000000  0.90927100  1
  O  O10  1  0.75000000  0.75000000  0.09229400  1
  O  O11  1  0.75000000  0.25000000  0.90770600  1
  O  O12  1  0.25000000  0.75000000  0.09229400  1
  O  O13  1  0.25000000  0.25000000  0.90770600  1
  O  O14  1  0.25000000  0.25000000  0.09072900  1
  O  O15  1  0.25000000  0.75000000  0.90927100  1
loop_
_geom_bond_atom_site_label_1
_geom_bond_atom_site_label_2
_geom_bond_distance
_geom_bond_site_symmetry_2
Cu0 O7 1.869869 1_555
Cu0 O4 1.869869 1_545
Cu1 O6 1.869869 1_555
Cu1 O5 1.869869 1_555
Cu2 O8 1.935872 1_455
Cu2 O14 1.935872 1_555
Cu2 O10 1.939823 1_455
Cu2 O12 1.939823 1_555
Cu2 O0 2.353698 1_555
Cu3 O8 1.935872 1_555
Cu3 O14 1.935872 1_555
Cu3 O10 1.939823 1_545
Cu3 O12 1.939823 1_545
Cu3 O1 2.353698 1_555
Cu4 O15 1.935872 1_555
Cu4 O9 1.935872 1_555
Cu4 O13 1.939823 1_565
Cu4 O11 1.939823 1_565
Cu4 O2 2.353698 1_555
Cu5 O9 1.935872 1_455
Cu5 O15 1.935872 1_555
Cu5 O13 1.939823 1_555
Cu5 O11 1.939823 1_455
Cu5 O3 2.353698 1_555
O0 Pb0 2.189365 1_555
O0 Sr0 2.741659 1_545
O0 Sr1 2.752241 1_455
O0 Sr1 2.752241 1_555
O0 Sr0 2.831882 1_555
O1 Pb1 2.189365 1_545
O1 Sr1 2.741659 1_555
O1 Sr0 2.752241 1_545
O1 Sr0 2.752241 1_645
O1 Sr1 2.831882 1_545
O2 Pb2 2.189365 1_565
O2 Sr2 2.741659 1_555
O2 Sr3 2.752241 1_565
O2 Sr3 2.752241 1_665
O2 Sr2 2.831882 1_565
O3 Pb3 2.189365 1_555
O3 Sr3 2.741659 1_565
O3 Sr2 2.752241 1_455
O3 Sr2 2.752241 1_555
O3 Sr3 2.831882 1_555
O4 Pb0 2.341356 1_555
O4 Sr0 2.639209 1_555
O4 Pb1 2.728294 1_455
O4 Pb1 2.728294 1_555
O5 Pb1 2.341356 1_555
O5 Sr1 2.639209 1_555
O5 Pb0 2.728294 1_555
O5 Pb0 2.728294 1_655
O6 Pb2 2.341356 1_555
O6 Sr2 2.639209 1_555
O6 Pb3 2.728294 1_655
O6 Pb3 2.728294 1_555
O7 Pb3 2.341356 1_555
O7 Sr3 2.639209 1_555
O7 Pb2 2.728294 1_555
O7 Pb2 2.728294 1_455
O8 Y0 2.410445 1_655
O8 Y1 2.410445 1_555
O8 Sr1 2.843589 1_555
O8 Sr0 2.843589 1_645
O9 Y1 2.410445 1_556
O9 Y0 2.410445 1_666
O9 Sr3 2.843589 1_665
O9 Sr2 2.843589 1_555
O10 Y0 2.425515 1_665
O10 Y1 2.425515 1_555
O10 Sr1 2.807609 1_555
O10 Sr0 2.807609 1_655
O11 Y0 2.425515 1_656
O11 Y1 2.425515 1_556
O11 Sr3 2.807609 1_655
O11 Sr2 2.807609 1_555
O12 Y0 2.425515 1_565
O12 Y1 2.425515 1_555
O12 Sr0 2.807609 1_555
O12 Sr1 2.807609 1_555
O13 Y0 2.425515 1_556
O13 Y1 2.425515 1_556
O13 Sr3 2.807609 1_555
O13 Sr2 2.807609 1_555
O14 Y1 2.410445 1_555
O14 Y0 2.410445 1_555
O14 Sr1 2.843589 1_555
O14 Sr0 2.843589 1_545
O15 Y1 2.410445 1_556
O15 Y0 2.410445 1_566
O15 Sr3 2.843589 1_565
O15 Sr2 2.843589 1_555
