# generated using pymatgen
data_Nd(AsRh)2
_symmetry_space_group_name_H-M   'P 1'
_cell_length_a   4.28228485
_cell_length_b   4.28228485
_cell_length_c   9.91380188
_cell_angle_alpha   90.00000000
_cell_angle_beta   90.00000000
_cell_angle_gamma   90.00000000
_symmetry_Int_Tables_number   1
_chemical_formula_structural   Nd(AsRh)2
_chemical_formula_sum   'Nd2 As4 Rh4'
_cell_volume   181.79893738
_cell_formula_units_Z   2
loop_
 _symmetry_equiv_pos_site_id
 _symmetry_equiv_pos_as_xyz
  1  'x, y, z'
loop_
 _atom_site_type_symbol
 _atom_site_label
 _atom_site_symmetry_multiplicity
 _atom_site_fract_x
 _atom_site_fract_y
 _atom_site_fract_z
 _atom_site_occupancy
  Nd  Nd0  1  -0.00000000  0.50000000  0.25374781  1
  Nd  Nd1  1  0.50000000  0.00000000  0.74625219  1
  As  As0  1  -0.00000000  -0.00000000  0.50000000  1
  As  As1  1  0.50000000  0.50000000  0.50000000  1
  As  As2  1  -0.00000000  0.50000000  0.86305367  1
  As  As3  1  0.50000000  0.00000000  0.13694633  1
  Rh  Rh0  1  -0.00000000  -0.00000000  -0.00000000  1
  Rh  Rh1  1  0.50000000  0.50000000  -0.00000000  1
  Rh  Rh2  1  -0.00000000  0.50000000  0.61820159  1
  Rh  Rh3  1  0.50000000  0.00000000  0.38179841  1
loop_
_geom_bond_atom_site_label_1
_geom_bond_atom_site_label_2
_geom_bond_distance
_geom_bond_site_symmetry_2
Nd0 Rh3 3.283372 1_465
Nd0 Rh3 3.283372 1_555
Nd0 Rh3 3.283372 1_455
Nd0 Rh3 3.283372 1_565
Nd0 Rh1 3.303447 1_555
Nd0 Rh0 3.303447 1_565
Nd0 Rh1 3.303447 1_455
Nd0 Rh0 3.303447 1_555
Nd1 Rh2 3.283372 1_645
Nd1 Rh2 3.283372 1_555
Nd1 Rh2 3.283372 1_655
Nd1 Rh2 3.283372 1_545
Nd1 Rh0 3.303447 1_656
Nd1 Rh1 3.303447 1_556
Nd1 Rh1 3.303447 1_546
Nd1 Rh0 3.303447 1_556
As0 Rh3 2.440834 1_555
As0 Rh3 2.440834 1_455
As0 Rh2 2.440834 1_555
As0 Rh2 2.440834 1_545
As0 Nd0 3.247216 1_555
As0 Nd0 3.247216 1_545
As0 Nd1 3.247216 1_555
As0 Nd1 3.247216 1_455
As1 Rh3 2.440834 1_555
As1 Rh2 2.440834 1_655
As1 Rh2 2.440834 1_555
As1 Rh3 2.440834 1_565
As1 Nd0 3.247216 1_555
As1 Nd1 3.247216 1_555
As1 Nd0 3.247216 1_655
As1 Nd1 3.247216 1_565
As2 Rh2 2.427415 1_555
As2 Rh1 2.535296 1_556
As2 Rh1 2.535296 1_456
As2 Rh0 2.535296 1_566
As2 Rh0 2.535296 1_556
As2 Nd1 3.241886 1_555
As2 Nd1 3.241886 1_455
As2 Nd1 3.241886 1_465
As2 Nd1 3.241886 1_565
As3 Rh3 2.427415 1_555
As3 Rh1 2.535296 1_555
As3 Rh1 2.535296 1_545
As3 Rh0 2.535296 1_655
As3 Rh0 2.535296 1_555
As3 Nd0 3.241886 1_545
As3 Nd0 3.241886 1_555
As3 Nd0 3.241886 1_655
As3 Nd0 3.241886 1_645
