# generated using pymatgen
data_SrPrMgRuO6
_symmetry_space_group_name_H-M   'P 1'
_cell_length_a   5.67837400
_cell_length_b   5.60188300
_cell_length_c   9.69145064
_cell_angle_alpha   54.85727573
_cell_angle_beta   90.00000000
_cell_angle_gamma   90.00000000
_symmetry_Int_Tables_number   1
_chemical_formula_structural   SrPrMgRuO6
_chemical_formula_sum   'Sr2 Pr2 Mg2 Ru2 O12'
_cell_volume   252.08779426
_cell_formula_units_Z   2
loop_
 _symmetry_equiv_pos_site_id
 _symmetry_equiv_pos_as_xyz
  1  'x, y, z'
loop_
 _atom_site_type_symbol
 _atom_site_label
 _atom_site_symmetry_multiplicity
 _atom_site_fract_x
 _atom_site_fract_y
 _atom_site_fract_z
 _atom_site_occupancy
  Sr  Sr0  1  0.22021500  0.24479700  0.25075000  1
  Sr  Sr1  1  0.77978500  0.24479700  0.75075000  1
  Pr  Pr0  1  0.29906600  0.76146300  0.75107100  1
  Pr  Pr1  1  0.70093400  0.76146300  0.25107100  1
  Mg  Mg0  1  0.75639100  0.49971500  0.00104300  1
  Mg  Mg1  1  0.24360900  0.49971500  0.50104300  1
  Ru  Ru0  1  0.75239800  0.00005800  0.49974300  1
  Ru  Ru1  1  0.24760200  0.00005800  0.99974300  1
  O  O0  1  0.76324900  0.33116600  0.25631200  1
  O  O1  1  0.23675100  0.33116600  0.75631200  1
  O  O2  1  0.72732200  0.69327000  0.74373800  1
  O  O3  1  0.27267800  0.69327000  0.24373800  1
  O  O4  1  0.95107300  0.75814900  0.45644200  1
  O  O5  1  0.04892700  0.75814900  0.95644200  1
  O  O6  1  0.53296800  0.23468800  0.53637500  1
  O  O7  1  0.46703200  0.23468800  0.03637500  1
  O  O8  1  0.03652400  0.15369200  0.54347600  1
  O  O9  1  0.96347600  0.15369200  0.04347600  1
  O  O10  1  0.47827600  0.82300300  0.46104900  1
  O  O11  1  0.52172400  0.82300300  0.96104900  1
loop_
_geom_bond_atom_site_label_1
_geom_bond_atom_site_label_2
_geom_bond_distance
_geom_bond_site_symmetry_2
Mg0 O2 2.075698 1_554
Mg0 O5 2.078861 1_654
Mg0 O0 2.079475 1_555
Mg0 O9 2.095592 1_555
Mg0 O11 2.097034 1_554
Mg0 O7 2.106163 1_555
Mg1 O3 2.075698 1_555
Mg1 O4 2.078861 1_455
Mg1 O1 2.079475 1_555
Mg1 O8 2.095592 1_555
Mg1 O10 2.097034 1_555
Mg1 O6 2.106163 1_555
O0 Ru0 1.993070 1_555
O0 Pr1 2.407742 1_555
O0 Sr0 2.645776 1_655
O1 Ru1 1.993070 1_555
O1 Pr0 2.407742 1_555
O1 Sr1 2.645776 1_455
O2 Ru0 1.971547 1_565
O2 Pr0 2.468983 1_555
O2 Sr1 2.491674 1_555
O3 Ru1 1.971547 1_564
O3 Pr1 2.468983 1_555
O3 Sr0 2.491674 1_555
O4 Ru0 1.984928 1_565
O4 Pr1 2.436547 1_555
O4 Sr0 2.735890 1_665
O4 Sr1 2.812207 1_555
O5 Ru1 1.984928 1_565
O5 Pr0 2.436547 1_555
O5 Sr1 2.735890 1_465
O5 Sr0 2.812207 1_556
O6 Ru0 1.985781 1_555
O6 Sr1 2.533644 1_555
O6 Pr0 2.602104 1_545
O6 Pr1 2.805292 1_555
O7 Ru1 1.985781 1_554
O7 Sr0 2.533644 1_555
O7 Pr1 2.602104 1_545
O7 Pr0 2.805292 1_554
O8 Ru0 1.985761 1_455
O8 Pr0 2.451310 1_545
O8 Sr1 2.757043 1_455
O8 Sr0 2.780263 1_555
O9 Ru1 1.985761 1_654
O9 Pr1 2.451310 1_545
O9 Sr0 2.757043 1_655
O9 Sr1 2.780263 1_554
O10 Ru0 1.993857 1_565
O10 Sr0 2.517972 1_565
O10 Pr1 2.581902 1_555
O10 Pr0 2.817643 1_555
O11 Ru1 1.993857 1_565
O11 Sr1 2.517972 1_565
O11 Pr0 2.581902 1_555
O11 Pr1 2.817643 1_556
