# generated using pymatgen
data_K3I2Br
_symmetry_space_group_name_H-M   'P 1'
_cell_length_a   4.89886750
_cell_length_b   4.89886750
_cell_length_c   12.04285239
_cell_angle_alpha   90.00000000
_cell_angle_beta   90.00000000
_cell_angle_gamma   119.99999545
_symmetry_Int_Tables_number   1
_chemical_formula_structural   K3I2Br
_chemical_formula_sum   'K3 I2 Br1'
_cell_volume   250.29455493
_cell_formula_units_Z   1
loop_
 _symmetry_equiv_pos_site_id
 _symmetry_equiv_pos_as_xyz
  1  'x, y, z'
loop_
 _atom_site_type_symbol
 _atom_site_label
 _atom_site_symmetry_multiplicity
 _atom_site_fract_x
 _atom_site_fract_y
 _atom_site_fract_z
 _atom_site_occupancy
  K  K0  1  0.00000000  -0.00000000  0.50000000  1
  K  K1  1  0.33333300  0.66666700  0.15133436  1
  K  K2  1  0.66666700  0.33333300  0.84866564  1
  I  I0  1  0.33333300  0.66666700  0.67382773  1
  I  I1  1  0.66666700  0.33333300  0.32617227  1
  Br  Br0  1  0.00000000  -0.00000000  -0.00000000  1
loop_
_geom_bond_atom_site_label_1
_geom_bond_atom_site_label_2
_geom_bond_distance
_geom_bond_site_symmetry_2
I0 K0 3.518787 1_565
I0 K0 3.518791 1_665
I0 K0 3.518791 1_555
I0 K2 3.526039 1_455
I0 K2 3.526039 1_565
I0 K2 3.526045 1_555
I1 K0 3.518787 1_655
I1 K0 3.518791 1_555
I1 K0 3.518791 1_665
I1 K1 3.526039 1_545
I1 K1 3.526039 1_655
I1 K1 3.526045 1_555
Br0 K2 3.364686 1_454
Br0 K1 3.364686 1_545
Br0 K2 3.364690 1_444
Br0 K1 3.364690 1_555
Br0 K1 3.364690 1_445
Br0 K2 3.364690 1_554
