# generated using pymatgen
data_Zn3As2(H2O3)4
_symmetry_space_group_name_H-M   'P 1'
_cell_length_a   5.49713800
_cell_length_b   6.07600201
_cell_length_c   7.71482207
_cell_angle_alpha   91.89576111
_cell_angle_beta   95.75818785
_cell_angle_gamma   91.10845356
_symmetry_Int_Tables_number   1
_chemical_formula_structural   Zn3As2(H2O3)4
_chemical_formula_sum   'Zn3 As2 H8 O12'
_cell_volume   256.17276339
_cell_formula_units_Z   1
loop_
 _symmetry_equiv_pos_site_id
 _symmetry_equiv_pos_as_xyz
  1  'x, y, z'
loop_
 _atom_site_type_symbol
 _atom_site_label
 _atom_site_symmetry_multiplicity
 _atom_site_fract_x
 _atom_site_fract_y
 _atom_site_fract_z
 _atom_site_occupancy
  Zn  Zn0  1  0.50000000  0.00000000  0.50000000  1
  Zn  Zn1  1  0.80888100  0.24111700  0.89643600  1
  Zn  Zn2  1  0.19111900  0.75888300  0.10356400  1
  As  As0  1  0.33674200  0.26002700  0.12883300  1
  As  As1  1  0.66325800  0.73997300  0.87116700  1
  H  H0  1  0.24907000  0.21340000  0.72841900  1
  H  H1  1  0.75093000  0.78660000  0.27158100  1
  H  H2  1  0.09822300  0.22587200  0.54069600  1
  H  H3  1  0.90177700  0.77412800  0.45930400  1
  H  H4  1  0.75043400  0.40749700  0.52770600  1
  H  H5  1  0.24956600  0.59250300  0.47229400  1
  H  H6  1  0.77098100  0.31047100  0.33407300  1
  H  H7  1  0.22901900  0.68952900  0.66592700  1
  O  O0  1  0.22573600  0.48124200  0.23753400  1
  O  O1  1  0.77426400  0.51875800  0.76246600  1
  O  O2  1  0.64208800  0.30301400  0.10679900  1
  O  O3  1  0.35791200  0.69698600  0.89320100  1
  O  O4  1  0.31096500  0.02520000  0.25177600  1
  O  O5  1  0.68903500  0.97480000  0.74822400  1
  O  O6  1  0.16778300  0.19631900  0.93279000  1
  O  O7  1  0.83221700  0.80368100  0.06721000  1
  O  O8  1  0.26732900  0.22396100  0.60089000  1
  O  O9  1  0.73267100  0.77603900  0.39911000  1
  O  O10  1  0.78392600  0.27213300  0.45922600  1
  O  O11  1  0.21607400  0.72786700  0.54077400  1
loop_
_geom_bond_atom_site_label_1
_geom_bond_atom_site_label_2
_geom_bond_distance
_geom_bond_site_symmetry_2
As0 O0 1.715249 1_555
As0 O2 1.719827 1_555
As0 O6 1.722044 1_554
As0 O4 1.750477 1_555
As1 O1 1.715249 1_555
As1 O3 1.719827 1_555
As1 O7 1.722044 1_556
As1 O5 1.750477 1_555
H0 O8 1.002957 1_555
H0 O6 1.687242 1_555
H1 O9 1.002957 1_555
H1 O7 1.687242 1_555
H2 O8 0.997043 1_555
H3 O9 0.997043 1_555
H4 O10 0.993024 1_555
H5 O11 0.993024 1_555
H6 O10 0.996652 1_555
H7 O11 0.996652 1_555
O0 Zn2 2.009614 1_555
O1 Zn1 2.009614 1_555
O2 Zn1 1.971677 1_554
O3 Zn2 1.971677 1_556
O4 Zn2 2.011225 1_545
O4 Zn0 2.096847 1_555
O5 Zn1 2.011225 1_565
O5 Zn0 2.096847 1_565
O6 Zn1 1.989978 1_455
O7 Zn2 1.989978 1_655
O8 Zn0 2.071352 1_555
O9 Zn0 2.071352 1_565
O10 Zn0 2.302622 1_555
O11 Zn0 2.302622 1_565
