# generated using pymatgen
data_La5Bi3
_symmetry_space_group_name_H-M   'P 1'
_cell_length_a   6.75129204
_cell_length_b   9.74215524
_cell_length_c   9.74328662
_cell_angle_alpha   119.99549505
_cell_angle_beta   90.00000000
_cell_angle_gamma   90.00000000
_symmetry_Int_Tables_number   1
_chemical_formula_structural   La5Bi3
_chemical_formula_sum   'La10 Bi6'
_cell_volume   555.00610853
_cell_formula_units_Z   2
loop_
 _symmetry_equiv_pos_site_id
 _symmetry_equiv_pos_as_xyz
  1  'x, y, z'
loop_
 _atom_site_type_symbol
 _atom_site_label
 _atom_site_symmetry_multiplicity
 _atom_site_fract_x
 _atom_site_fract_y
 _atom_site_fract_z
 _atom_site_occupancy
  La  La0  1  0.50000180  0.33333266  0.66667737  1
  La  La1  1  0.50000201  0.66666507  0.33332185  1
  La  La2  1  0.00000280  0.66666734  0.33332263  1
  La  La3  1  0.00000201  0.33333493  0.66667815  1
  La  La4  1  0.75000233  0.25210052  0.99999619  1
  La  La5  1  0.74999816  0.74772542  0.74778711  1
  La  La6  1  0.74999596  0.99993433  0.25220274  1
  La  La7  1  0.25000233  0.74789948  0.00000381  1
  La  La8  1  0.24999916  0.25227458  0.25221289  1
  La  La9  1  0.24999696  0.00006567  0.74779726  1
  Bi  Bi0  1  0.74999929  0.61561694  -0.00000025  1
  Bi  Bi1  1  0.74999883  0.38424699  0.38427129  1
  Bi  Bi2  1  0.74999862  0.99997282  0.61572260  1
  Bi  Bi3  1  0.24999929  0.38438306  0.00000025  1
  Bi  Bi4  1  0.24999883  0.61575401  0.61572871  1
  Bi  Bi5  1  0.24999862  0.00002718  0.38427740  1
loop_
_geom_bond_atom_site_label_1
_geom_bond_atom_site_label_2
_geom_bond_distance
_geom_bond_site_symmetry_2
Bi0 La6 3.295052 1_555
Bi0 La5 3.295058 1_554
Bi0 La1 3.468193 1_555
Bi0 La2 3.468212 1_655
Bi0 La0 3.468249 1_554
Bi0 La3 3.468254 1_654
Bi0 La4 3.541416 1_554
Bi0 La7 3.613252 1_555
Bi0 La7 3.613290 1_655
Bi1 La4 3.294876 1_554
Bi1 La6 3.294920 1_545
Bi1 La0 3.468493 1_555
Bi1 La3 3.468508 1_655
Bi1 La1 3.468533 1_555
Bi1 La2 3.468571 1_655
Bi1 La5 3.541692 1_555
Bi1 La8 3.612406 1_555
Bi1 La8 3.612411 1_655
Bi2 La4 3.294877 1_565
Bi2 La5 3.294896 1_555
Bi2 La1 3.468438 1_555
Bi2 La2 3.468448 1_655
Bi2 La0 3.468460 1_565
Bi2 La3 3.468498 1_665
Bi2 La6 3.541691 1_555
Bi2 La9 3.612438 1_665
Bi2 La9 3.612459 1_565
Bi3 La9 3.295052 1_554
Bi3 La8 3.295058 1_555
Bi3 La3 3.468193 1_554
Bi3 La0 3.468209 1_554
Bi3 La2 3.468245 1_555
Bi3 La1 3.468254 1_555
Bi3 La7 3.541416 1_555
Bi3 La4 3.613252 1_454
Bi3 La4 3.613290 1_554
Bi4 La7 3.294878 1_556
Bi4 La9 3.294911 1_565
Bi4 La2 3.468484 1_555
Bi4 La1 3.468502 1_555
Bi4 La3 3.468541 1_555
Bi4 La0 3.468576 1_555
Bi4 La8 3.541697 1_555
Bi4 La5 3.612403 1_555
Bi4 La5 3.612411 1_455
Bi5 La7 3.294877 1_545
Bi5 La8 3.294896 1_555
Bi5 La3 3.468438 1_555
Bi5 La0 3.468445 1_555
Bi5 La2 3.468456 1_545
Bi5 La1 3.468498 1_545
Bi5 La9 3.541691 1_555
Bi5 La6 3.612432 1_545
Bi5 La6 3.612465 1_445
