# generated using pymatgen
data_NaCaAsO4
_symmetry_space_group_name_H-M   'P 1'
_cell_length_a   5.50799798
_cell_length_b   5.50799798
_cell_length_c   7.27832900
_cell_angle_alpha   90.00000000
_cell_angle_beta   90.00000000
_cell_angle_gamma   115.20495030
_symmetry_Int_Tables_number   1
_chemical_formula_structural   NaCaAsO4
_chemical_formula_sum   'Na2 Ca2 As2 O8'
_cell_volume   199.78696315
_cell_formula_units_Z   2
loop_
 _symmetry_equiv_pos_site_id
 _symmetry_equiv_pos_as_xyz
  1  'x, y, z'
loop_
 _atom_site_type_symbol
 _atom_site_label
 _atom_site_symmetry_multiplicity
 _atom_site_fract_x
 _atom_site_fract_y
 _atom_site_fract_z
 _atom_site_occupancy
  Na  Na0  1  0.31863700  0.68136300  0.75000000  1
  Na  Na1  1  0.68136300  0.31863700  0.25000000  1
  Ca  Ca0  1  0.00000000  0.00000000  0.50000000  1
  Ca  Ca1  1  0.00000000  0.00000000  0.00000000  1
  As  As0  1  0.64871700  0.35128300  0.75000000  1
  As  As1  1  0.35128300  0.64871700  0.25000000  1
  O  O0  1  0.75302600  0.24697400  0.55737500  1
  O  O1  1  0.24697400  0.75302600  0.44262500  1
  O  O2  1  0.24697400  0.75302600  0.05737500  1
  O  O3  1  0.75302600  0.24697400  0.94262500  1
  O  O4  1  0.77325200  0.70012000  0.75000000  1
  O  O5  1  0.22674800  0.29988000  0.25000000  1
  O  O6  1  0.29988000  0.22674800  0.75000000  1
  O  O7  1  0.70011900  0.77325200  0.25000000  1
loop_
_geom_bond_atom_site_label_1
_geom_bond_atom_site_label_2
_geom_bond_distance
_geom_bond_site_symmetry_2
Na0 O2 2.334366 1_556
Na0 O1 2.334366 1_555
Na0 O6 2.461797 1_555
Na0 O4 2.461797 1_555
Na1 O3 2.334366 1_554
Na1 O0 2.334366 1_555
Na1 O5 2.461797 1_555
Na1 O7 2.461799 1_555
Ca0 O1 2.334844 1_545
Ca0 O0 2.334844 1_455
Ca0 O5 2.417010 1_555
Ca0 O6 2.417010 1_555
Ca0 O4 2.417010 1_445
Ca0 O7 2.417012 1_445
Ca1 O2 2.334844 1_545
Ca1 O3 2.334844 1_454
Ca1 O5 2.417010 1_555
Ca1 O4 2.417010 1_444
Ca1 O6 2.417010 1_554
Ca1 O7 2.417012 1_445
As0 O3 1.704961 1_555
As0 O0 1.704961 1_555
As0 O4 1.743485 1_555
As0 O6 1.743485 1_555
As1 O1 1.704961 1_555
As1 O2 1.704961 1_555
As1 O7 1.743480 1_555
As1 O5 1.743485 1_555
