# generated using pymatgen
data_KCoAs3F18
_symmetry_space_group_name_H-M   'P 1'
_cell_length_a   9.68235600
_cell_length_b   10.63973600
_cell_length_c   14.23018300
_cell_angle_alpha   90.00000000
_cell_angle_beta   90.00000000
_cell_angle_gamma   90.00000000
_symmetry_Int_Tables_number   1
_chemical_formula_structural   KCoAs3F18
_chemical_formula_sum   'K4 Co4 As12 F72'
_cell_volume   1465.96088970
_cell_formula_units_Z   4
loop_
 _symmetry_equiv_pos_site_id
 _symmetry_equiv_pos_as_xyz
  1  'x, y, z'
loop_
 _atom_site_type_symbol
 _atom_site_label
 _atom_site_symmetry_multiplicity
 _atom_site_fract_x
 _atom_site_fract_y
 _atom_site_fract_z
 _atom_site_occupancy
  K  K0  1  0.52013300  0.92274900  0.75000000  1
  K  K1  1  0.97986700  0.42274900  0.75000000  1
  K  K2  1  0.47986700  0.07725100  0.25000000  1
  K  K3  1  0.02013300  0.57725100  0.25000000  1
  Co  Co0  1  0.00000000  0.00000000  0.50000000  1
  Co  Co1  1  0.50000000  0.50000000  0.00000000  1
  Co  Co2  1  0.00000000  0.00000000  0.00000000  1
  Co  Co3  1  0.50000000  0.50000000  0.50000000  1
  As  As0  1  0.11145000  0.02316100  0.75000000  1
  As  As1  1  0.38855000  0.52316100  0.75000000  1
  As  As2  1  0.88855000  0.97683900  0.25000000  1
  As  As3  1  0.61145000  0.47683900  0.25000000  1
  As  As4  1  0.69451800  0.20378000  0.55161600  1
  As  As5  1  0.80548200  0.70378000  0.94838400  1
  As  As6  1  0.30548200  0.79622000  0.05161600  1
  As  As7  1  0.19451800  0.29622000  0.44838400  1
  As  As8  1  0.30548200  0.79622000  0.44838400  1
  As  As9  1  0.19451800  0.29622000  0.05161600  1
  As  As10  1  0.69451800  0.20378000  0.94838400  1
  As  As11  1  0.80548200  0.70378000  0.55161600  1
  F  F0  1  0.11133300  0.02493000  0.62146400  1
  F  F1  1  0.38866700  0.52493000  0.87853600  1
  F  F2  1  0.88866700  0.97507000  0.12146400  1
  F  F3  1  0.61133300  0.47507000  0.37853600  1
  F  F4  1  0.88866700  0.97507000  0.37853600  1
  F  F5  1  0.61133300  0.47507000  0.12146400  1
  F  F6  1  0.11133300  0.02493000  0.87853600  1
  F  F7  1  0.38866700  0.52493000  0.62146400  1
  F  F8  1  0.17229900  0.86900000  0.75000000  1
  F  F9  1  0.32770100  0.36900000  0.75000000  1
  F  F10  1  0.82770100  0.13100000  0.25000000  1
  F  F11  1  0.67229900  0.63100000  0.25000000  1
  F  F12  1  0.28361500  0.07625400  0.75000000  1
  F  F13  1  0.21638500  0.57625400  0.75000000  1
  F  F14  1  0.71638500  0.92374600  0.25000000  1
  F  F15  1  0.78361500  0.42374600  0.25000000  1
  F  F16  1  0.05642100  0.18111500  0.75000000  1
  F  F17  1  0.44357900  0.68111500  0.75000000  1
  F  F18  1  0.94357900  0.81888500  0.25000000  1
  F  F19  1  0.55642100  0.31888500  0.25000000  1
  F  F20  1  0.94017900  0.97282300  0.75000000  1
  F  F21  1  0.55982100  0.47282200  0.75000000  1
  F  F22  1  0.05982100  0.02717700  0.25000000  1
  F  F23  1  0.44017900  0.52717700  0.25000000  1
  F  F24  1  0.82524600  0.07899100  0.55772600  1
  F  F25  1  0.67475400  0.57899100  0.94227400  1
  F  F26  1  0.17475400  0.92100900  0.05772600  1
  F  F27  1  0.32524600  0.42100900  0.44227400  1
  F  F28  1  0.17475400  0.92100900  0.44227400  1
  F  F29  1  0.32524600  0.42100900  0.05772600  1
  F  F30  1  0.82524600  0.07899100  0.94227400  1
  F  F31  1  0.67475400  0.57899100  0.55772600  1
  F  F32  1  0.79206200  0.28397800  0.46793900  1
  F  F33  1  0.70793800  0.78397800  0.03206100  1
  F  F34  1  0.20793800  0.71602200  0.96793900  1
  F  F35  1  0.29206200  0.21602200  0.53206100  1
  F  F36  1  0.20793800  0.71602200  0.53206100  1
  F  F37  1  0.29206200  0.21602200  0.96793900  1
  F  F38  1  0.79206200  0.28397800  0.03206100  1
  F  F39  1  0.70793800  0.78397800  0.46793900  1
  F  F40  1  0.60669800  0.12250000  0.46268000  1
  F  F41  1  0.89330200  0.62250000  0.03732000  1
  F  F42  1  0.39330200  0.87750000  0.96268000  1
  F  F43  1  0.10669800  0.37750000  0.53732000  1
  F  F44  1  0.39330200  0.87750000  0.53732000  1
  F  F45  1  0.10669800  0.37750000  0.96268000  1
  F  F46  1  0.60669800  0.12250000  0.03732000  1
  F  F47  1  0.89330200  0.62250000  0.46268000  1
  F  F48  1  0.56402200  0.32775800  0.54957000  1
  F  F49  1  0.93597800  0.82775800  0.95043000  1
  F  F50  1  0.43597800  0.67224200  0.04957000  1
  F  F51  1  0.06402200  0.17224200  0.45043000  1
  F  F52  1  0.43597800  0.67224200  0.45043000  1
  F  F53  1  0.06402200  0.17224200  0.04957000  1
  F  F54  1  0.56402200  0.32775800  0.95043000  1
  F  F55  1  0.93597800  0.82775800  0.54957000  1
  F  F56  1  0.59766600  0.12248400  0.63635300  1
  F  F57  1  0.90233400  0.62248400  0.86364700  1
  F  F58  1  0.40233400  0.87751600  0.13635300  1
  F  F59  1  0.09766600  0.37751600  0.36364700  1
  F  F60  1  0.40233400  0.87751600  0.36364700  1
  F  F61  1  0.09766600  0.37751600  0.13635300  1
  F  F62  1  0.59766600  0.12248400  0.86364700  1
  F  F63  1  0.90233400  0.62248400  0.63635300  1
  F  F64  1  0.78122100  0.28360200  0.64230400  1
  F  F65  1  0.71877900  0.78360200  0.85769600  1
  F  F66  1  0.21877900  0.71639800  0.14230400  1
  F  F67  1  0.28122100  0.21639800  0.35769600  1
  F  F68  1  0.21877900  0.71639800  0.35769600  1
  F  F69  1  0.28122100  0.21639800  0.14230400  1
  F  F70  1  0.78122100  0.28360200  0.85769600  1
  F  F71  1  0.71877900  0.78360200  0.64230400  1
loop_
_geom_bond_atom_site_label_1
_geom_bond_atom_site_label_2
_geom_bond_distance
_geom_bond_site_symmetry_2
Co0 F0 2.054245 1_555
Co0 F4 2.054245 1_445
Co0 F51 2.059196 1_555
Co0 F55 2.059196 1_445
Co0 F28 2.060120 1_545
Co0 F24 2.060120 1_455
Co1 F5 2.054245 1_555
Co1 F1 2.054245 1_554
Co1 F54 2.059196 1_554
Co1 F50 2.059196 1_555
Co1 F29 2.060120 1_555
Co1 F25 2.060120 1_554
Co2 F6 2.054245 1_554
Co2 F2 2.054245 1_445
Co2 F53 2.059196 1_555
Co2 F49 2.059196 1_444
Co2 F26 2.060120 1_545
Co2 F30 2.060120 1_454
Co3 F3 2.054245 1_555
Co3 F7 2.054245 1_555
Co3 F48 2.059196 1_555
Co3 F52 2.059196 1_555
Co3 F31 2.060120 1_555
Co3 F27 2.060120 1_555
As0 F20 1.742650 1_445
As0 F8 1.742835 1_545
As0 F12 1.760077 1_555
As0 F16 1.763027 1_555
As0 F0 1.829188 1_555
As0 F6 1.829188 1_555
As1 F21 1.742654 1_555
As1 F9 1.742835 1_555
As1 F13 1.760077 1_555
As1 F17 1.763027 1_555
As1 F7 1.829188 1_555
As1 F1 1.829188 1_555
As2 F22 1.742650 1_665
As2 F10 1.742835 1_565
As2 F14 1.760077 1_555
As2 F18 1.763027 1_555
As2 F4 1.829188 1_555
As2 F2 1.829188 1_555
As3 F23 1.742650 1_555
As3 F11 1.742835 1_555
As3 F15 1.760077 1_555
As3 F19 1.763027 1_555
As3 F5 1.829188 1_555
As3 F3 1.829188 1_555
As4 F32 1.742972 1_555
As4 F40 1.752876 1_555
As4 F56 1.755438 1_555
As4 F64 1.758248 1_555
As4 F48 1.826830 1_555
As4 F24 1.836448 1_555
As5 F33 1.742972 1_556
As5 F41 1.752876 1_556
As5 F57 1.755438 1_555
As5 F65 1.758248 1_555
As5 F49 1.826830 1_555
As5 F25 1.836448 1_555
As6 F34 1.742972 1_554
As6 F42 1.752876 1_554
As6 F58 1.755438 1_555
As6 F66 1.758248 1_555
As6 F50 1.826830 1_555
As6 F26 1.836448 1_555
As7 F35 1.742972 1_555
As7 F43 1.752876 1_555
As7 F59 1.755438 1_555
As7 F67 1.758248 1_555
As7 F51 1.826830 1_555
As7 F27 1.836448 1_555
As8 F36 1.742972 1_555
As8 F44 1.752876 1_555
As8 F60 1.755438 1_555
As8 F68 1.758248 1_555
As8 F52 1.826830 1_555
As8 F28 1.836448 1_555
As9 F37 1.742972 1_554
As9 F45 1.752876 1_554
As9 F61 1.755438 1_555
As9 F69 1.758248 1_555
As9 F53 1.826830 1_555
As9 F29 1.836448 1_555
As10 F38 1.742972 1_556
As10 F46 1.752876 1_556
As10 F62 1.755438 1_555
As10 F70 1.758248 1_555
As10 F54 1.826830 1_555
As10 F30 1.836448 1_555
As11 F39 1.742972 1_555
As11 F47 1.752876 1_555
As11 F63 1.755438 1_555
As11 F71 1.758248 1_555
As11 F55 1.826830 1_555
As11 F31 1.836448 1_555
F12 K0 2.812801 1_545
F13 K1 2.812801 1_455
F14 K2 2.812801 1_565
F15 K3 2.812801 1_655
F16 K1 2.675640 1_455
F17 K0 2.675640 1_555
F18 K3 2.675640 1_655
F19 K2 2.675640 1_555
F56 K0 2.774007 1_545
F57 K1 2.774007 1_555
F58 K2 2.774007 1_565
F59 K3 2.774007 1_555
F60 K2 2.774007 1_565
F61 K3 2.774007 1_555
F62 K0 2.774007 1_545
F63 K1 2.774007 1_555
F64 K1 2.870509 1_555
F65 K0 2.870509 1_555
F66 K3 2.870509 1_555
F67 K2 2.870509 1_555
F68 K3 2.870509 1_555
F69 K2 2.870509 1_555
F70 K1 2.870509 1_555
F71 K0 2.870509 1_555
