# generated using pymatgen
data_BaMg14CrO16
_symmetry_space_group_name_H-M   'P 1'
_cell_length_a   8.81317902
_cell_length_b   8.75773987
_cell_length_c   4.51416839
_cell_angle_alpha   90.00000000
_cell_angle_beta   90.00000000
_cell_angle_gamma   90.00000000
_symmetry_Int_Tables_number   1
_chemical_formula_structural   BaMg14CrO16
_chemical_formula_sum   'Ba1 Mg14 Cr1 O16'
_cell_volume   348.41944813
_cell_formula_units_Z   1
loop_
 _symmetry_equiv_pos_site_id
 _symmetry_equiv_pos_as_xyz
  1  'x, y, z'
loop_
 _atom_site_type_symbol
 _atom_site_label
 _atom_site_symmetry_multiplicity
 _atom_site_fract_x
 _atom_site_fract_y
 _atom_site_fract_z
 _atom_site_occupancy
  Ba  Ba0  1  -0.00000000  0.00000000  -0.00000000  1
  Mg  Mg0  1  0.50000000  0.00000000  -0.00000000  1
  Mg  Mg1  1  0.50000000  0.50000000  -0.00000000  1
  Mg  Mg2  1  -0.00000000  0.26312148  0.50000000  1
  Mg  Mg3  1  -0.00000000  0.73687852  0.50000000  1
  Mg  Mg4  1  0.50000000  0.25272307  0.50000000  1
  Mg  Mg5  1  0.50000000  0.74727693  0.50000000  1
  Mg  Mg6  1  0.26505536  -0.00000000  0.50000000  1
  Mg  Mg7  1  0.25395179  0.50000000  0.50000000  1
  Mg  Mg8  1  0.73494464  0.00000000  0.50000000  1
  Mg  Mg9  1  0.74604821  0.50000000  0.50000000  1
  Mg  Mg10  1  0.26106911  0.25836103  0.00000000  1
  Mg  Mg11  1  0.26106911  0.74163897  0.00000000  1
  Mg  Mg12  1  0.73893089  0.25836103  -0.00000000  1
  Mg  Mg13  1  0.73893089  0.74163897  0.00000000  1
  Cr  Cr0  1  -0.00000000  0.50000000  -0.00000000  1
  O  O0  1  0.28094937  -0.00000000  -0.00000000  1
  O  O1  1  0.26588263  0.50000000  -0.00000000  1
  O  O2  1  0.71905063  0.00000000  0.00000000  1
  O  O3  1  0.73411737  0.50000000  -0.00000000  1
  O  O4  1  0.25042998  0.25075051  0.50000000  1
  O  O5  1  0.25042998  0.74924949  0.50000000  1
  O  O6  1  0.74957002  0.25075051  0.50000000  1
  O  O7  1  0.74957002  0.74924949  0.50000000  1
  O  O8  1  -0.00000000  -0.00000000  0.50000000  1
  O  O9  1  -0.00000000  0.50000000  0.50000000  1
  O  O10  1  0.50000000  -0.00000000  0.50000000  1
  O  O11  1  0.50000000  0.50000000  0.50000000  1
  O  O12  1  -0.00000000  0.27717862  -0.00000000  1
  O  O13  1  -0.00000000  0.72282138  0.00000000  1
  O  O14  1  0.50000000  0.25532201  0.00000000  1
  O  O15  1  0.50000000  0.74467799  -0.00000000  1
loop_
_geom_bond_atom_site_label_1
_geom_bond_atom_site_label_2
_geom_bond_distance
_geom_bond_site_symmetry_2
Ba0 O8 2.257084 1_554
Ba0 O8 2.257084 1_555
Ba0 O12 2.427458 1_555
Ba0 O13 2.427458 1_545
Ba0 O0 2.476057 1_555
Ba0 O2 2.476057 1_455
Mg0 O0 1.930532 1_555
Mg0 O2 1.930532 1_555
Mg0 O15 2.236044 1_545
Mg0 O14 2.236044 1_555
Mg0 O10 2.257084 1_555
Mg0 O10 2.257084 1_554
Mg1 O3 2.063318 1_555
Mg1 O1 2.063318 1_555
Mg1 O15 2.142826 1_555
Mg1 O14 2.142826 1_555
Mg1 O11 2.257084 1_554
Mg1 O11 2.257084 1_555
Mg2 O9 2.074520 1_555
Mg2 O4 2.209742 1_555
Mg2 O6 2.209742 1_455
Mg2 O12 2.260439 1_556
Mg2 O12 2.260439 1_555
Mg2 O8 2.304349 1_555
Mg3 O9 2.074520 1_555
Mg3 O5 2.209742 1_555
Mg3 O7 2.209742 1_455
Mg3 O13 2.260439 1_555
Mg3 O13 2.260439 1_556
Mg3 O8 2.304349 1_565
Mg4 O11 2.165587 1_555
Mg4 O6 2.199573 1_555
Mg4 O4 2.199573 1_555
Mg4 O10 2.213283 1_555
Mg4 O14 2.257199 1_556
Mg4 O14 2.257199 1_555
Mg5 O11 2.165587 1_555
Mg5 O7 2.199573 1_555
Mg5 O5 2.199573 1_555
Mg5 O10 2.213283 1_565
Mg5 O15 2.257199 1_556
Mg5 O15 2.257199 1_555
Mg6 O10 2.070609 1_555
Mg6 O4 2.199787 1_555
Mg6 O5 2.199787 1_545
Mg6 O0 2.261427 1_555
Mg6 O0 2.261427 1_556
Mg6 O8 2.335980 1_555
Mg7 O11 2.168467 1_555
Mg7 O5 2.183083 1_555
Mg7 O4 2.183083 1_555
Mg7 O9 2.238123 1_555
Mg7 O1 2.259532 1_556
Mg7 O1 2.259532 1_555
Mg8 O10 2.070609 1_555
Mg8 O6 2.199787 1_555
Mg8 O7 2.199787 1_545
Mg8 O2 2.261427 1_556
Mg8 O2 2.261427 1_555
Mg8 O8 2.335980 1_655
Mg9 O11 2.168467 1_555
Mg9 O7 2.183083 1_555
Mg9 O6 2.183083 1_555
Mg9 O9 2.238123 1_655
Mg9 O3 2.259532 1_556
Mg9 O3 2.259532 1_555
Mg10 O14 2.105909 1_555
Mg10 O1 2.116636 1_555
Mg10 O4 2.260014 1_554
Mg10 O4 2.260014 1_555
Mg10 O0 2.269432 1_555
Mg10 O12 2.306743 1_555
Mg11 O15 2.105909 1_555
Mg11 O1 2.116636 1_555
Mg11 O5 2.260014 1_555
Mg11 O5 2.260014 1_554
Mg11 O0 2.269432 1_565
Mg11 O13 2.306743 1_555
Mg12 O14 2.105909 1_555
Mg12 O3 2.116636 1_555
Mg12 O6 2.260014 1_555
Mg12 O6 2.260014 1_554
Mg12 O2 2.269432 1_555
Mg12 O12 2.306743 1_655
Mg13 O15 2.105909 1_555
Mg13 O3 2.116636 1_555
Mg13 O7 2.260014 1_555
Mg13 O7 2.260014 1_554
Mg13 O2 2.269432 1_565
Mg13 O13 2.306743 1_655
Cr0 O13 1.951412 1_555
Cr0 O12 1.951412 1_555
Cr0 O9 2.257084 1_555
Cr0 O9 2.257084 1_554
Cr0 O1 2.343271 1_555
Cr0 O3 2.343271 1_455
