# generated using pymatgen
data_CeSi2Ag
_symmetry_space_group_name_H-M   'P 1'
_cell_length_a   9.02911550
_cell_length_b   9.02911550
_cell_length_c   4.21336433
_cell_angle_alpha   90.00000000
_cell_angle_beta   90.00000000
_cell_angle_gamma   152.87401051
_symmetry_Int_Tables_number   1
_chemical_formula_structural   CeSi2Ag
_chemical_formula_sum   'Ce2 Si4 Ag2'
_cell_volume   156.61572934
_cell_formula_units_Z   2
loop_
 _symmetry_equiv_pos_site_id
 _symmetry_equiv_pos_as_xyz
  1  'x, y, z'
loop_
 _atom_site_type_symbol
 _atom_site_label
 _atom_site_symmetry_multiplicity
 _atom_site_fract_x
 _atom_site_fract_y
 _atom_site_fract_z
 _atom_site_occupancy
  Ce  Ce0  1  0.59653289  0.40346711  0.25000000  1
  Ce  Ce1  1  0.40346711  0.59653289  0.75000000  1
  Si  Si0  1  0.96801819  0.03198181  0.25000000  1
  Si  Si1  1  0.03198181  0.96801819  0.75000000  1
  Si  Si2  1  0.83620570  0.16379430  0.25000000  1
  Si  Si3  1  0.16379430  0.83620570  0.75000000  1
  Ag  Ag0  1  0.25177111  0.74822889  0.25000000  1
  Ag  Ag1  1  0.74822889  0.25177111  0.75000000  1
loop_
_geom_bond_atom_site_label_1
_geom_bond_atom_site_label_2
_geom_bond_distance
_geom_bond_site_symmetry_2
Ce0 Si0 3.094073 1_455
Ce0 Si0 3.094073 1_565
Ce0 Si1 3.194653 1_544
Ce0 Si1 3.194653 1_545
Ce0 Si1 3.194653 1_655
Ce0 Si1 3.194653 1_654
Ce0 Si3 3.211838 1_654
Ce0 Si3 3.211838 1_655
Ce0 Si3 3.211838 1_545
Ce0 Si3 3.211838 1_544
Ce1 Si1 3.094073 1_655
Ce1 Si1 3.094073 1_545
Ce1 Si0 3.194653 1_455
Ce1 Si0 3.194653 1_456
Ce1 Si0 3.194653 1_565
Ce1 Si0 3.194653 1_566
Ce1 Si2 3.211838 1_565
Ce1 Si2 3.211838 1_566
Ce1 Si2 3.211838 1_456
Ce1 Si2 3.211838 1_455
Si0 Si2 2.313920 1_555
Si0 Si1 2.387241 1_644
Si0 Si1 2.387241 1_645
Si1 Si3 2.313920 1_555
Ag0 Si2 2.584685 1_455
Ag0 Si2 2.584685 1_565
Ag0 Si3 2.612142 1_554
Ag0 Si3 2.612142 1_555
Ag0 Ag1 2.987574 1_454
Ag0 Ag1 2.987574 1_565
Ag0 Ag1 2.987574 1_455
Ag0 Ag1 2.987574 1_564
Ag0 Ce1 3.395513 1_554
Ag0 Ce1 3.395513 1_555
Ag0 Ce0 3.451097 1_455
Ag0 Ce0 3.451097 1_565
Ag1 Si3 2.584685 1_545
Ag1 Si3 2.584685 1_655
Ag1 Si2 2.612142 1_556
Ag1 Si2 2.612142 1_555
Ag1 Ce0 3.395513 1_556
Ag1 Ce0 3.395513 1_555
Ag1 Ce1 3.451097 1_545
Ag1 Ce1 3.451097 1_655
