# generated using pymatgen
data_La4MgNi
_symmetry_space_group_name_H-M   'P 1'
_cell_length_a   10.09744880
_cell_length_b   10.09732862
_cell_length_c   10.09739987
_cell_angle_alpha   60.00259139
_cell_angle_beta   60.00174200
_cell_angle_gamma   60.00139501
_symmetry_Int_Tables_number   1
_chemical_formula_structural   La4MgNi
_chemical_formula_sum   'La16 Mg4 Ni4'
_cell_volume   728.00021703
_cell_formula_units_Z   4
loop_
 _symmetry_equiv_pos_site_id
 _symmetry_equiv_pos_as_xyz
  1  'x, y, z'
loop_
 _atom_site_type_symbol
 _atom_site_label
 _atom_site_symmetry_multiplicity
 _atom_site_fract_x
 _atom_site_fract_y
 _atom_site_fract_z
 _atom_site_occupancy
  La  La0  1  0.59445743  0.59445520  0.59445845  1
  La  La1  1  0.59445936  0.59446134  0.21662806  1
  La  La2  1  0.59446016  0.21662543  0.59446436  1
  La  La3  1  0.21662866  0.59445647  0.59446320  1
  La  La4  1  0.05998170  0.44000996  0.44001385  1
  La  La5  1  0.44001289  0.05999613  0.05998083  1
  La  La6  1  0.44000617  0.05998831  0.44001065  1
  La  La7  1  0.05999485  0.44001154  0.05998491  1
  La  La8  1  0.44001195  0.44000939  0.05997813  1
  La  La9  1  0.05999309  0.05999179  0.44000984  1
  La  La10  1  0.18800017  0.81199782  0.81199381  1
  La  La11  1  0.81200300  0.18799957  0.18800189  1
  La  La12  1  0.81199733  0.18799918  0.81199498  1
  La  La13  1  0.18799980  0.81200332  0.18800158  1
  La  La14  1  0.81199465  0.81199972  0.18799907  1
  La  La15  1  0.18800038  0.18799921  0.81200265  1
  Mg  Mg0  1  0.82787009  0.82786648  0.82781749  1
  Mg  Mg1  1  0.82784341  0.82788512  0.51644056  1
  Mg  Mg2  1  0.82784732  0.51644742  0.82785958  1
  Mg  Mg3  1  0.51644070  0.82786808  0.82782922  1
  Ni  Ni0  1  0.39220887  0.39216153  0.39219794  1
  Ni  Ni1  1  0.39218496  0.39219350  0.82344100  1
  Ni  Ni2  1  0.39216905  0.82342610  0.39222228  1
  Ni  Ni3  1  0.82343301  0.39214839  0.39220465  1
loop_
_geom_bond_atom_site_label_1
_geom_bond_atom_site_label_2
_geom_bond_distance
_geom_bond_site_symmetry_2
La0 Ni2 2.900910 1_555
La0 Ni1 2.900993 1_555
La0 Ni3 2.901101 1_555
La0 La10 3.645449 1_555
La0 La12 3.645469 1_555
La0 La14 3.645535 1_555
La0 Mg3 3.683562 1_555
La0 Mg2 3.683717 1_555
La0 Mg1 3.683882 1_555
La1 Ni2 2.901067 1_555
La1 Ni3 2.901072 1_555
La1 Ni0 2.901072 1_555
La1 La14 3.645277 1_555
La1 La11 3.645456 1_555
La1 La13 3.645486 1_555
La1 Mg2 3.683656 1_554
La1 Mg3 3.683984 1_554
La1 Mg0 3.684070 1_554
La2 Ni3 2.900718 1_555
La2 Ni0 2.900855 1_555
La2 Ni1 2.900989 1_555
La2 Mg1 3.683424 1_545
La2 Mg0 3.683594 1_545
La2 Mg3 3.683614 1_545
La3 Ni2 2.900807 1_555
La3 Ni1 2.900973 1_555
La3 Ni0 2.901081 1_555
La3 Mg0 3.683554 1_455
La3 Mg2 3.683786 1_455
La3 Mg1 3.683863 1_455
La4 Ni3 2.951655 1_455
La4 Ni0 2.951804 1_555
La4 Mg2 3.668932 1_455
La4 Mg1 3.669108 1_455
La5 Ni1 2.951586 1_554
La5 Ni2 2.951989 1_545
La5 Mg3 3.668851 1_544
La5 Mg0 3.669043 1_544
La6 Ni0 2.951419 1_555
La6 Ni2 2.951463 1_545
La6 Mg3 3.668732 1_545
La6 Mg1 3.668851 1_545
La7 Ni1 2.951538 1_554
La7 Ni3 2.951801 1_455
La7 Mg2 3.668810 1_454
La7 Mg0 3.669073 1_454
La8 Ni1 2.951343 1_554
La8 Ni0 2.951771 1_555
La8 Mg2 3.668885 1_554
La8 Mg3 3.669036 1_554
La9 Ni3 2.951349 1_455
La9 Ni2 2.951499 1_545
La9 Mg1 3.668684 1_445
La9 Mg0 3.668706 1_445
La10 Mg0 3.483755 1_455
La10 Mg3 3.483838 1_555
La10 Ni2 3.638712 1_555
La10 Ni1 3.638908 1_555
La10 La3 3.645227 1_555
La10 La7 3.776576 1_556
La10 La9 3.776576 1_565
La10 La8 3.776636 1_556
La10 La6 3.776643 1_565
La10 La15 3.796655 1_565
La10 La12 3.796719 1_465
La10 La13 3.796727 1_556
La10 La14 3.796786 1_456
La11 Mg1 3.483768 1_545
La11 Mg2 3.483969 1_554
La11 Ni3 3.638666 1_555
La11 Ni0 3.638897 1_555
La11 La2 3.645497 1_555
La11 La9 3.776569 1_655
La11 La7 3.776582 1_655
La11 La8 3.776704 1_555
La11 La6 3.776705 1_555
La11 La14 3.796650 1_545
La11 La13 3.796663 1_645
La11 La15 3.796714 1_654
La11 La12 3.796723 1_554
La12 Mg0 3.483726 1_545
La12 Mg2 3.483925 1_555
La12 Ni3 3.638885 1_555
La12 Ni1 3.639023 1_555
La12 La2 3.645246 1_555
La12 La9 3.776531 1_655
La12 La5 3.776557 1_556
La12 La8 3.776558 1_556
La12 La4 3.776629 1_655
La12 La15 3.796710 1_655
La12 La14 3.796776 1_546
La13 Mg1 3.483978 1_455
La13 Mg3 3.484078 1_554
La13 Ni2 3.638993 1_555
La13 Ni0 3.639335 1_555
La13 La3 3.645537 1_555
La13 La9 3.776499 1_565
La13 La5 3.776588 1_565
La13 La8 3.776662 1_555
La13 La4 3.776703 1_555
La13 La14 3.796724 1_455
La13 La15 3.796732 1_564
La14 Mg1 3.483987 1_555
La14 Mg0 3.484031 1_554
La14 Ni2 3.639204 1_555
La14 Ni3 3.639384 1_555
La14 La7 3.776565 1_655
La14 La5 3.776597 1_565
La14 La6 3.776603 1_565
La14 La4 3.776671 1_655
La15 Mg3 3.483815 1_545
La15 Mg2 3.483974 1_455
La15 Ni1 3.638984 1_555
La15 Ni0 3.639051 1_555
La15 La3 3.645475 1_555
La15 La2 3.645501 1_555
La15 La7 3.776485 1_556
La15 La5 3.776523 1_556
La15 La6 3.776608 1_555
La15 La4 3.776678 1_555
Mg0 Mg1 3.144138 1_555
Mg0 Mg2 3.144403 1_555
Mg0 Mg3 3.144575 1_555
Mg1 Mg3 3.144377 1_555
Mg1 Mg2 3.144729 1_555
Mg2 Mg3 3.144531 1_555
