# generated using pymatgen
data_MgGa
_symmetry_space_group_name_H-M   'P 1'
_cell_length_a   6.14382976
_cell_length_b   6.14382976
_cell_length_c   30.64072800
_cell_angle_alpha   90.00000000
_cell_angle_beta   90.00000000
_cell_angle_gamma   119.99997586
_symmetry_Int_Tables_number   1
_chemical_formula_structural   MgGa
_chemical_formula_sum   'Mg24 Ga24'
_cell_volume   1001.63193627
_cell_formula_units_Z   24
loop_
 _symmetry_equiv_pos_site_id
 _symmetry_equiv_pos_as_xyz
  1  'x, y, z'
loop_
 _atom_site_type_symbol
 _atom_site_label
 _atom_site_symmetry_multiplicity
 _atom_site_fract_x
 _atom_site_fract_y
 _atom_site_fract_z
 _atom_site_occupancy
  Mg  Mg0_0  1  0.33333350  0.16666650  0.33680200  1
  Mg  Mg0_1  1  0.33333350  0.16666650  0.83680200  1
  Mg  Mg0_2  1  0.33333350  0.66666650  0.33680200  1
  Mg  Mg0_3  1  0.33333350  0.66666650  0.83680200  1
  Mg  Mg0_4  1  0.83333350  0.16666650  0.33680200  1
  Mg  Mg0_5  1  0.83333350  0.16666650  0.83680200  1
  Mg  Mg0_6  1  0.83333350  0.66666650  0.33680200  1
  Mg  Mg0_7  1  0.83333350  0.66666650  0.83680200  1
  Mg  Mg1_0  1  0.00000000  0.00000000  0.25000000  1
  Mg  Mg1_1  1  0.00000000  0.00000000  0.75000000  1
  Mg  Mg1_2  1  0.00000000  0.50000000  0.25000000  1
  Mg  Mg1_3  1  0.00000000  0.50000000  0.75000000  1
  Mg  Mg1_4  1  0.50000000  0.00000000  0.25000000  1
  Mg  Mg1_5  1  0.50000000  0.00000000  0.75000000  1
  Mg  Mg1_6  1  0.50000000  0.50000000  0.25000000  1
  Mg  Mg1_7  1  0.50000000  0.50000000  0.75000000  1
  Mg  Mg2_0  1  0.33333350  0.16666650  0.16319800  1
  Mg  Mg2_1  1  0.33333350  0.16666650  0.66319800  1
  Mg  Mg2_2  1  0.33333350  0.66666650  0.16319800  1
  Mg  Mg2_3  1  0.33333350  0.66666650  0.66319800  1
  Mg  Mg2_4  1  0.83333350  0.16666650  0.16319800  1
  Mg  Mg2_5  1  0.83333350  0.16666650  0.66319800  1
  Mg  Mg2_6  1  0.83333350  0.66666650  0.16319800  1
  Mg  Mg2_7  1  0.83333350  0.66666650  0.66319800  1
  Ga  Ga0_0  1  0.33333350  0.16666650  0.00000000  1
  Ga  Ga0_1  1  0.33333350  0.16666650  0.50000000  1
  Ga  Ga0_2  1  0.33333350  0.66666650  0.00000000  1
  Ga  Ga0_3  1  0.33333350  0.66666650  0.50000000  1
  Ga  Ga0_4  1  0.83333350  0.16666650  0.00000000  1
  Ga  Ga0_5  1  0.83333350  0.16666650  0.50000000  1
  Ga  Ga0_6  1  0.83333350  0.66666650  0.00000000  1
  Ga  Ga0_7  1  0.83333350  0.66666650  0.50000000  1
  Ga  Ga1_0  1  0.00000000  0.00000000  0.41622500  1
  Ga  Ga1_1  1  0.00000000  0.00000000  0.91622500  1
  Ga  Ga1_2  1  0.00000000  0.50000000  0.41622500  1
  Ga  Ga1_3  1  0.00000000  0.50000000  0.91622500  1
  Ga  Ga1_4  1  0.50000000  0.00000000  0.41622500  1
  Ga  Ga1_5  1  0.50000000  0.00000000  0.91622500  1
  Ga  Ga1_6  1  0.50000000  0.50000000  0.41622500  1
  Ga  Ga1_7  1  0.50000000  0.50000000  0.91622500  1
  Ga  Ga2_0  1  0.00000000  0.00000000  0.08377500  1
  Ga  Ga2_1  1  0.00000000  0.00000000  0.58377500  1
  Ga  Ga2_2  1  0.00000000  0.50000000  0.08377500  1
  Ga  Ga2_3  1  0.00000000  0.50000000  0.58377500  1
  Ga  Ga2_4  1  0.50000000  0.00000000  0.08377500  1
  Ga  Ga2_5  1  0.50000000  0.00000000  0.58377500  1
  Ga  Ga2_6  1  0.50000000  0.50000000  0.08377500  1
  Ga  Ga2_7  1  0.50000000  0.50000000  0.58377500  1
loop_
_geom_bond_atom_site_label_1
_geom_bond_atom_site_label_2
_geom_bond_distance
_geom_bond_site_symmetry_2
Mg0_0 Mg0_4 3.071915 1_455
Mg0_0 Mg0_2 3.071915 1_555
Mg0_0 Mg0_2 3.071915 1_545
Mg0_0 Mg0_4 3.071915 1_555
Mg0_0 Mg0_6 3.071916 1_445
Mg0_0 Mg0_6 3.071916 1_555
Mg0_0 Mg1_4 3.196784 1_555
Mg0_0 Mg1_0 3.196785 1_555
Mg0_0 Mg1_6 3.196785 1_555
Mg0_1 Mg0_3 3.071915 1_555
Mg0_1 Mg0_5 3.071915 1_455
Mg0_1 Mg0_5 3.071915 1_555
Mg0_1 Mg0_3 3.071915 1_545
Mg0_1 Mg0_7 3.071916 1_555
Mg0_1 Mg0_7 3.071916 1_445
Mg0_1 Mg1_5 3.196784 1_555
Mg0_1 Mg1_7 3.196785 1_555
Mg0_1 Mg1_1 3.196785 1_555
Mg0_2 Mg0_6 3.071915 1_455
Mg0_2 Mg0_6 3.071915 1_555
Mg0_2 Mg0_4 3.071916 1_455
Mg0_2 Mg0_4 3.071916 1_565
Mg0_2 Mg1_6 3.196784 1_555
Mg0_2 Mg1_2 3.196785 1_555
Mg0_2 Mg1_4 3.196785 1_565
Mg0_3 Mg0_7 3.071915 1_455
Mg0_3 Mg0_7 3.071915 1_555
Mg0_3 Mg0_5 3.071916 1_455
Mg0_3 Mg0_5 3.071916 1_565
Mg0_3 Mg1_7 3.196784 1_555
Mg0_3 Mg1_5 3.196785 1_565
Mg0_3 Mg1_3 3.196785 1_555
Mg0_4 Mg0_6 3.071915 1_555
Mg0_4 Mg0_6 3.071915 1_545
Mg0_4 Mg1_0 3.196784 1_655
Mg0_4 Mg1_2 3.196785 1_655
Mg0_4 Mg1_4 3.196785 1_555
Mg0_5 Mg0_7 3.071915 1_545
Mg0_5 Mg0_7 3.071915 1_555
Mg0_5 Mg1_1 3.196784 1_655
Mg0_5 Mg1_3 3.196785 1_655
Mg0_5 Mg1_5 3.196785 1_555
Mg0_6 Mg1_2 3.196784 1_655
Mg0_6 Mg1_6 3.196785 1_555
Mg0_6 Mg1_0 3.196785 1_665
Mg0_7 Mg1_3 3.196784 1_655
Mg0_7 Mg1_1 3.196785 1_665
Mg0_7 Mg1_7 3.196785 1_555
Mg1_0 Mg1_4 3.071915 1_555
Mg1_0 Mg1_4 3.071915 1_455
Mg1_0 Mg1_2 3.071915 1_545
Mg1_0 Mg1_2 3.071915 1_555
Mg1_0 Mg1_6 3.071916 1_555
Mg1_0 Mg1_6 3.071916 1_445
Mg1_0 Mg2_4 3.196784 1_455
Mg1_0 Mg2_6 3.196785 1_445
Mg1_0 Mg2_0 3.196785 1_555
Mg1_1 Mg1_3 3.071915 1_555
Mg1_1 Mg1_3 3.071915 1_545
Mg1_1 Mg1_5 3.071915 1_455
Mg1_1 Mg1_5 3.071915 1_555
Mg1_1 Mg1_7 3.071916 1_445
Mg1_1 Mg1_7 3.071916 1_555
Mg1_1 Mg2_5 3.196784 1_455
Mg1_1 Mg2_7 3.196785 1_445
Mg1_1 Mg2_1 3.196785 1_555
Mg1_2 Mg1_6 3.071915 1_555
Mg1_2 Mg1_6 3.071915 1_455
Mg1_2 Mg1_4 3.071916 1_565
Mg1_2 Mg1_4 3.071916 1_455
Mg1_2 Mg2_6 3.196784 1_455
Mg1_2 Mg2_2 3.196785 1_555
Mg1_2 Mg2_4 3.196785 1_455
Mg1_3 Mg1_7 3.071915 1_455
Mg1_3 Mg1_7 3.071915 1_555
Mg1_3 Mg1_5 3.071916 1_565
Mg1_3 Mg1_5 3.071916 1_455
Mg1_3 Mg2_7 3.196784 1_455
Mg1_3 Mg2_5 3.196785 1_455
Mg1_3 Mg2_3 3.196785 1_555
Mg1_4 Mg1_6 3.071915 1_555
Mg1_4 Mg1_6 3.071915 1_545
Mg1_4 Mg2_0 3.196784 1_555
Mg1_4 Mg2_4 3.196785 1_555
Mg1_4 Mg2_2 3.196785 1_545
Mg1_5 Mg1_7 3.071915 1_545
Mg1_5 Mg1_7 3.071915 1_555
Mg1_5 Mg2_1 3.196784 1_555
Mg1_5 Mg2_3 3.196785 1_545
Mg1_5 Mg2_5 3.196785 1_555
Mg1_6 Mg2_2 3.196784 1_555
Mg1_6 Mg2_6 3.196785 1_555
Mg1_6 Mg2_0 3.196785 1_555
Mg1_7 Mg2_3 3.196784 1_555
Mg1_7 Mg2_7 3.196785 1_555
Mg1_7 Mg2_1 3.196785 1_555
Mg2_0 Mg2_4 3.071915 1_455
Mg2_0 Mg2_2 3.071915 1_555
Mg2_0 Mg2_4 3.071915 1_555
Mg2_0 Mg2_2 3.071915 1_545
Mg2_0 Mg2_6 3.071916 1_445
Mg2_0 Mg2_6 3.071916 1_555
Mg2_1 Mg2_5 3.071915 1_455
Mg2_1 Mg2_3 3.071915 1_555
Mg2_1 Mg2_5 3.071915 1_555
Mg2_1 Mg2_3 3.071915 1_545
Mg2_1 Mg2_7 3.071916 1_555
Mg2_1 Mg2_7 3.071916 1_445
Mg2_2 Mg2_6 3.071915 1_455
Mg2_2 Mg2_6 3.071915 1_555
Mg2_2 Mg2_4 3.071916 1_455
Mg2_2 Mg2_4 3.071916 1_565
Mg2_3 Mg2_7 3.071915 1_455
Mg2_3 Mg2_7 3.071915 1_555
Mg2_3 Mg2_5 3.071916 1_455
Mg2_3 Mg2_5 3.071916 1_565
Mg2_4 Mg2_6 3.071915 1_555
Mg2_4 Mg2_6 3.071915 1_545
Mg2_5 Mg2_7 3.071915 1_555
Mg2_5 Mg2_7 3.071915 1_545
Ga0_0 Ga0_4 3.071915 1_455
Ga0_0 Ga0_2 3.071915 1_555
Ga0_0 Ga0_4 3.071915 1_555
Ga0_0 Ga0_2 3.071915 1_545
Ga0_0 Ga0_6 3.071916 1_445
Ga0_0 Ga0_6 3.071916 1_555
Ga0_0 Ga2_4 3.120042 1_555
Ga0_0 Ga1_5 3.120042 1_554
Ga0_0 Ga2_6 3.120044 1_555
Ga0_0 Ga2_0 3.120044 1_555
Ga0_0 Ga1_7 3.120044 1_554
Ga0_0 Ga1_1 3.120044 1_554
Ga0_1 Ga0_3 3.071915 1_555
Ga0_1 Ga0_5 3.071915 1_455
Ga0_1 Ga0_5 3.071915 1_555
Ga0_1 Ga0_3 3.071915 1_545
Ga0_1 Ga0_7 3.071916 1_445
Ga0_1 Ga0_7 3.071916 1_555
Ga0_1 Ga1_4 3.120042 1_555
Ga0_1 Ga2_5 3.120042 1_555
Ga0_1 Ga1_6 3.120044 1_555
Ga0_1 Ga1_0 3.120044 1_555
Ga0_1 Ga2_7 3.120044 1_555
Ga0_1 Ga2_1 3.120044 1_555
Ga0_2 Ga0_6 3.071915 1_455
Ga0_2 Ga0_6 3.071915 1_555
Ga0_2 Ga0_4 3.071916 1_455
Ga0_2 Ga0_4 3.071916 1_565
Ga0_2 Ga2_6 3.120042 1_555
Ga0_2 Ga1_7 3.120042 1_554
Ga0_2 Ga2_2 3.120044 1_555
Ga0_2 Ga2_4 3.120044 1_565
Ga0_2 Ga1_3 3.120044 1_554
Ga0_2 Ga1_5 3.120044 1_564
Ga0_3 Ga0_7 3.071915 1_455
Ga0_3 Ga0_7 3.071915 1_555
Ga0_3 Ga0_5 3.071916 1_455
Ga0_3 Ga0_5 3.071916 1_565
Ga0_3 Ga1_6 3.120042 1_555
Ga0_3 Ga2_7 3.120042 1_555
Ga0_3 Ga1_2 3.120044 1_555
Ga0_3 Ga1_4 3.120044 1_565
Ga0_3 Ga2_3 3.120044 1_555
Ga0_3 Ga2_5 3.120044 1_565
Ga0_4 Ga0_6 3.071915 1_555
Ga0_4 Ga0_6 3.071915 1_545
Ga0_4 Ga2_0 3.120042 1_655
Ga0_4 Ga1_1 3.120042 1_654
Ga0_4 Ga2_4 3.120044 1_555
Ga0_4 Ga2_2 3.120044 1_655
Ga0_4 Ga1_5 3.120044 1_554
Ga0_4 Ga1_3 3.120044 1_654
Ga0_5 Ga0_7 3.071915 1_545
Ga0_5 Ga0_7 3.071915 1_555
Ga0_5 Ga1_0 3.120042 1_655
Ga0_5 Ga2_1 3.120042 1_655
Ga0_5 Ga1_4 3.120044 1_555
Ga0_5 Ga1_2 3.120044 1_655
Ga0_5 Ga2_5 3.120044 1_555
Ga0_5 Ga2_3 3.120044 1_655
Ga0_6 Ga2_2 3.120042 1_655
Ga0_6 Ga1_3 3.120042 1_654
Ga0_6 Ga2_6 3.120044 1_555
Ga0_6 Ga2_0 3.120044 1_665
Ga0_6 Ga1_7 3.120044 1_554
Ga0_6 Ga1_1 3.120044 1_664
Ga0_7 Ga1_2 3.120042 1_655
Ga0_7 Ga2_3 3.120042 1_655
Ga0_7 Ga1_6 3.120044 1_555
Ga0_7 Ga1_0 3.120044 1_665
Ga0_7 Ga2_7 3.120044 1_555
Ga0_7 Ga2_1 3.120044 1_665
Ga1_0 Mg0_4 3.011287 1_455
Ga1_0 Mg0_6 3.011289 1_445
Ga1_0 Mg0_0 3.011289 1_555
Ga1_0 Ga1_2 3.071915 1_555
Ga1_0 Ga1_4 3.071915 1_455
Ga1_0 Ga1_4 3.071915 1_555
Ga1_0 Ga1_2 3.071915 1_545
Ga1_0 Ga1_6 3.071916 1_445
Ga1_0 Ga1_6 3.071916 1_555
Ga1_1 Mg0_5 3.011287 1_455
Ga1_1 Mg0_7 3.011289 1_445
Ga1_1 Mg0_1 3.011289 1_555
Ga1_1 Ga1_5 3.071915 1_455
Ga1_1 Ga1_3 3.071915 1_545
Ga1_1 Ga1_5 3.071915 1_555
Ga1_1 Ga1_3 3.071915 1_555
Ga1_1 Ga1_7 3.071916 1_445
Ga1_1 Ga1_7 3.071916 1_555
Ga1_2 Mg0_6 3.011287 1_455
Ga1_2 Mg0_2 3.011289 1_555
Ga1_2 Mg0_4 3.011289 1_455
Ga1_2 Ga1_6 3.071915 1_455
Ga1_2 Ga1_6 3.071915 1_555
Ga1_2 Ga1_4 3.071916 1_565
Ga1_2 Ga1_4 3.071916 1_455
Ga1_3 Mg0_7 3.011287 1_455
Ga1_3 Mg0_5 3.011289 1_455
Ga1_3 Mg0_3 3.011289 1_555
Ga1_3 Ga1_7 3.071915 1_455
Ga1_3 Ga1_7 3.071915 1_555
Ga1_3 Ga1_5 3.071916 1_565
Ga1_3 Ga1_5 3.071916 1_455
Ga1_4 Mg0_0 3.011287 1_555
Ga1_4 Mg0_4 3.011289 1_555
Ga1_4 Mg0_2 3.011289 1_545
Ga1_4 Ga1_6 3.071915 1_555
Ga1_4 Ga1_6 3.071915 1_545
Ga1_5 Mg0_1 3.011287 1_555
Ga1_5 Mg0_5 3.011289 1_555
Ga1_5 Mg0_3 3.011289 1_545
Ga1_5 Ga1_7 3.071915 1_545
Ga1_5 Ga1_7 3.071915 1_555
Ga1_6 Mg0_2 3.011287 1_555
Ga1_6 Mg0_0 3.011289 1_555
Ga1_6 Mg0_6 3.011289 1_555
Ga1_7 Mg0_3 3.011287 1_555
Ga1_7 Mg0_7 3.011289 1_555
Ga1_7 Mg0_1 3.011289 1_555
Ga2_0 Mg2_4 3.011287 1_455
Ga2_0 Mg2_0 3.011289 1_555
Ga2_0 Mg2_6 3.011289 1_445
Ga2_0 Ga2_2 3.071915 1_545
Ga2_0 Ga2_2 3.071915 1_555
Ga2_0 Ga2_4 3.071915 1_455
Ga2_0 Ga2_4 3.071915 1_555
Ga2_0 Ga2_6 3.071916 1_445
Ga2_0 Ga2_6 3.071916 1_555
Ga2_1 Mg2_5 3.011287 1_455
Ga2_1 Mg2_1 3.011289 1_555
Ga2_1 Mg2_7 3.011289 1_445
Ga2_1 Ga2_5 3.071915 1_555
Ga2_1 Ga2_5 3.071915 1_455
Ga2_1 Ga2_3 3.071915 1_545
Ga2_1 Ga2_3 3.071915 1_555
Ga2_1 Ga2_7 3.071916 1_445
Ga2_1 Ga2_7 3.071916 1_555
Ga2_2 Mg2_6 3.011287 1_455
Ga2_2 Mg2_2 3.011289 1_555
Ga2_2 Mg2_4 3.011289 1_455
Ga2_2 Ga2_6 3.071915 1_555
Ga2_2 Ga2_6 3.071915 1_455
Ga2_2 Ga2_4 3.071916 1_455
Ga2_2 Ga2_4 3.071916 1_565
Ga2_3 Mg2_7 3.011287 1_455
Ga2_3 Mg2_5 3.011289 1_455
Ga2_3 Mg2_3 3.011289 1_555
Ga2_3 Ga2_7 3.071915 1_455
Ga2_3 Ga2_7 3.071915 1_555
Ga2_3 Ga2_5 3.071916 1_455
Ga2_3 Ga2_5 3.071916 1_565
Ga2_4 Mg2_0 3.011287 1_555
Ga2_4 Mg2_4 3.011289 1_555
Ga2_4 Mg2_2 3.011289 1_545
Ga2_4 Ga2_6 3.071915 1_545
Ga2_4 Ga2_6 3.071915 1_555
Ga2_5 Mg2_1 3.011287 1_555
Ga2_5 Mg2_5 3.011289 1_555
Ga2_5 Mg2_3 3.011289 1_545
Ga2_5 Ga2_7 3.071915 1_555
Ga2_5 Ga2_7 3.071915 1_545
Ga2_6 Mg2_2 3.011287 1_555
Ga2_6 Mg2_0 3.011289 1_555
Ga2_6 Mg2_6 3.011289 1_555
Ga2_7 Mg2_3 3.011287 1_555
Ga2_7 Mg2_1 3.011289 1_555
Ga2_7 Mg2_7 3.011289 1_555
