# generated using pymatgen
data_Mg6TiB
_symmetry_space_group_name_H-M   'P 1'
_cell_length_a   4.56738200
_cell_length_b   6.29869700
_cell_length_c   10.85142500
_cell_angle_alpha   90.00000000
_cell_angle_beta   90.00000000
_cell_angle_gamma   90.00000000
_symmetry_Int_Tables_number   1
_chemical_formula_structural   Mg6TiB
_chemical_formula_sum   'Mg12 Ti2 B2'
_cell_volume   312.17982021
_cell_formula_units_Z   2
loop_
 _symmetry_equiv_pos_site_id
 _symmetry_equiv_pos_as_xyz
  1  'x, y, z'
loop_
 _atom_site_type_symbol
 _atom_site_label
 _atom_site_symmetry_multiplicity
 _atom_site_fract_x
 _atom_site_fract_y
 _atom_site_fract_z
 _atom_site_occupancy
  Mg  Mg0  1  0.00000000  0.26247900  0.08270100  1
  Mg  Mg1  1  0.00000000  0.73752100  0.08270100  1
  Mg  Mg2  1  0.00000000  0.50000000  0.83223300  1
  Mg  Mg3  1  0.50000000  0.23813900  0.90379800  1
  Mg  Mg4  1  0.50000000  0.76186100  0.90379800  1
  Mg  Mg5  1  0.50000000  0.50000000  0.66560700  1
  Mg  Mg6  1  0.00000000  0.76247900  0.58270100  1
  Mg  Mg7  1  0.00000000  0.23752100  0.58270100  1
  Mg  Mg8  1  0.00000000  0.00000000  0.33223300  1
  Mg  Mg9  1  0.50000000  0.73813900  0.40379800  1
  Mg  Mg10  1  0.50000000  0.26186100  0.40379800  1
  Mg  Mg11  1  0.50000000  0.00000000  0.16560700  1
  Ti  Ti0  1  0.00000000  0.50000000  0.31003600  1
  Ti  Ti1  1  0.00000000  0.00000000  0.81003600  1
  B  B0  1  0.50000000  0.50000000  0.21912600  1
  B  B1  1  0.50000000  0.00000000  0.71912600  1
loop_
_geom_bond_atom_site_label_1
_geom_bond_atom_site_label_2
_geom_bond_distance
_geom_bond_site_symmetry_2
Mg0 Ti0 2.885112 1_555
Mg0 Mg11 2.959380 1_455
Mg0 Mg11 2.959380 1_555
Mg0 Mg2 3.102483 1_554
Mg0 Mg8 3.172598 1_555
Mg1 Ti0 2.885112 1_555
Mg1 Mg11 2.959380 1_565
Mg1 Mg11 2.959380 1_465
Mg1 Mg2 3.102483 1_554
Mg1 Mg8 3.172598 1_565
Mg2 Mg5 2.912830 1_455
Mg2 Mg5 2.912830 1_555
Mg2 Mg3 2.922121 1_455
Mg2 Mg4 2.922121 1_455
Mg2 Mg3 2.922121 1_555
Mg2 Mg4 2.922121 1_555
Mg2 Ti1 3.158546 1_555
Mg2 Ti1 3.158546 1_565
Mg2 Mg6 3.172598 1_555
Mg2 Mg7 3.172598 1_555
Mg3 Mg5 3.066138 1_555
Mg4 Mg5 3.066138 1_555
Mg5 Mg6 2.959380 1_555
Mg5 Mg6 2.959380 1_655
Mg5 Mg7 2.959380 1_655
Mg5 Mg7 2.959380 1_555
Mg5 Mg9 3.212660 1_555
Mg6 Ti1 2.885112 1_565
Mg6 Mg8 3.102483 1_565
Mg7 Ti1 2.885112 1_555
Mg7 Mg8 3.102483 1_555
Mg8 Mg9 2.922121 1_545
Mg8 Mg9 2.922121 1_445
Mg8 Ti0 3.158546 1_545
Mg8 Ti0 3.158546 1_555
Mg10 Mg8 2.922121 1_555
Mg10 Mg8 2.922121 1_655
Mg10 Mg11 3.066138 1_555
Mg10 Mg5 3.212660 1_555
Mg11 Mg8 2.912830 1_655
Mg11 Mg8 2.912830 1_555
Mg11 Mg9 3.066138 1_545
Mg11 Mg3 3.212660 1_554
Mg11 Mg4 3.212660 1_544
B0 Ti0 2.487656 1_655
B0 Ti0 2.487656 1_555
B0 Mg10 2.503144 1_555
B0 Mg9 2.503144 1_555
B1 Ti1 2.487656 1_555
B1 Ti1 2.487656 1_655
B1 Mg4 2.503144 1_545
B1 Mg3 2.503144 1_555
