# generated using pymatgen
data_Na2MoAs2O9
_symmetry_space_group_name_H-M   'P 1'
_cell_length_a   7.22972075
_cell_length_b   9.97370561
_cell_length_c   12.32348600
_cell_angle_alpha   90.00000000
_cell_angle_beta   90.00000000
_cell_angle_gamma   100.74644902
_symmetry_Int_Tables_number   1
_chemical_formula_structural   Na2MoAs2O9
_chemical_formula_sum   'Na8 Mo4 As8 O36'
_cell_volume   873.02641882
_cell_formula_units_Z   4
loop_
 _symmetry_equiv_pos_site_id
 _symmetry_equiv_pos_as_xyz
  1  'x, y, z'
loop_
 _atom_site_type_symbol
 _atom_site_label
 _atom_site_symmetry_multiplicity
 _atom_site_fract_x
 _atom_site_fract_y
 _atom_site_fract_z
 _atom_site_occupancy
  Na  Na0  1  0.63175400  0.63197800  0.59274800  1
  Na  Na1  1  0.36824600  0.86802200  0.09274800  1
  Na  Na2  1  0.36570600  0.36642500  0.40738300  1
  Na  Na3  1  0.63429400  0.13357500  0.90738300  1
  Na  Na4  1  0.49587500  0.00730300  0.48812800  1
  Na  Na5  1  0.50412500  0.49269700  0.98812800  1
  Na  Na6  1  0.96869700  0.97548100  0.50214100  1
  Na  Na7  1  0.03130300  0.52451900  0.00214100  1
  Mo  Mo0  1  0.85853500  0.45637900  0.31983800  1
  Mo  Mo1  1  0.14146500  0.04362100  0.81983800  1
  Mo  Mo2  1  0.14092800  0.54277000  0.67944500  1
  Mo  Mo3  1  0.85907200  0.95723000  0.17944500  1
  As  As0  1  0.57962800  0.71321000  0.33178400  1
  As  As1  1  0.42037200  0.78679000  0.83178400  1
  As  As2  1  0.42178100  0.28673700  0.66761300  1
  As  As3  1  0.57821900  0.21326300  0.16761300  1
  As  As4  1  0.18986700  0.70451600  0.42827400  1
  As  As5  1  0.81013300  0.79548400  0.92827400  1
  As  As6  1  0.80998500  0.29434600  0.57155100  1
  As  As7  1  0.19001500  0.20565400  0.07155100  1
  O  O0  1  0.65842800  0.78897200  0.20926300  1
  O  O1  1  0.34157200  0.71102800  0.70926300  1
  O  O2  1  0.34182200  0.21157600  0.79048300  1
  O  O3  1  0.65817800  0.28842400  0.29048300  1
  O  O4  1  0.26617500  0.58917100  0.51249900  1
  O  O5  1  0.73382500  0.91082900  0.01249900  1
  O  O6  1  0.73483800  0.41049300  0.48760600  1
  O  O7  1  0.26516200  0.08950700  0.98760600  1
  O  O8  1  0.60028400  0.54540800  0.32897900  1
  O  O9  1  0.39971600  0.95459200  0.82897900  1
  O  O10  1  0.39999000  0.45448800  0.67209500  1
  O  O11  1  0.60001000  0.04551200  0.17209500  1
  O  O12  1  0.90313900  0.49802900  0.18495700  1
  O  O13  1  0.09686100  0.00197100  0.68495700  1
  O  O14  1  0.09878900  0.50320700  0.81486700  1
  O  O15  1  0.90121100  0.99679300  0.31486700  1
  O  O16  1  0.63777300  0.79955100  0.44800400  1
  O  O17  1  0.36222700  0.70044900  0.94800400  1
  O  O18  1  0.36474800  0.20240100  0.55108400  1
  O  O19  1  0.63525200  0.29759900  0.05108400  1
  O  O20  1  0.04674400  0.37964000  0.35685300  1
  O  O21  1  0.95325600  0.12036000  0.85685300  1
  O  O22  1  0.95357700  0.62104700  0.64286300  1
  O  O23  1  0.04642300  0.87895300  0.14286300  1
  O  O24  1  0.20856700  0.86572300  0.46856500  1
  O  O25  1  0.79143300  0.63427700  0.96856500  1
  O  O26  1  0.78792900  0.13321900  0.53076400  1
  O  O27  1  0.21207100  0.36678100  0.03076400  1
  O  O28  1  0.33150100  0.70328300  0.30711600  1
  O  O29  1  0.66849900  0.79671700  0.80711600  1
  O  O30  1  0.66983900  0.29731200  0.69321200  1
  O  O31  1  0.33016100  0.20268800  0.19321200  1
  O  O32  1  0.96447400  0.64314300  0.37955600  1
  O  O33  1  0.03552600  0.85685700  0.87955600  1
  O  O34  1  0.03513500  0.35658000  0.62052400  1
  O  O35  1  0.96486500  0.14342000  0.12052400  1
loop_
_geom_bond_atom_site_label_1
_geom_bond_atom_site_label_2
_geom_bond_distance
_geom_bond_site_symmetry_2
Na0 O10 2.406514 1_555
Na0 O22 2.429278 1_555
Na0 O16 2.439234 1_555
Na0 O1 2.775159 1_555
Na0 O4 2.779408 1_555
Na0 O6 2.779938 1_555
Na1 O11 2.406514 1_565
Na1 O23 2.429278 1_555
Na1 O17 2.439234 1_554
Na1 O0 2.775159 1_555
Na1 O5 2.779408 1_555
Na1 O7 2.779938 1_564
Na2 O18 2.410012 1_555
Na2 O20 2.415811 1_555
Na2 O8 2.422272 1_555
Na2 O4 2.779845 1_555
Na2 O3 2.786597 1_555
Na2 O6 2.802714 1_555
Na3 O19 2.410012 1_556
Na3 O21 2.415811 1_555
Na3 O9 2.422272 1_545
Na3 O5 2.779845 1_546
Na3 O2 2.786597 1_555
Na3 O7 2.802714 1_555
Na4 O24 2.296265 1_545
Na4 O26 2.307086 1_555
Na4 O18 2.444364 1_555
Na4 O16 2.526476 1_545
Na5 O25 2.296265 1_555
Na5 O27 2.307086 1_556
Na5 O19 2.444364 1_556
Na5 O17 2.526476 1_555
Na6 O26 2.252606 1_565
Na6 O24 2.254985 1_655
Na6 O15 2.376587 1_555
Na6 O13 2.431619 1_665
Na6 O16 2.771718 1_555
Na7 O27 2.252606 1_555
Na7 O25 2.254985 1_454
Na7 O14 2.376587 1_554
Na7 O12 2.431619 1_455
Na7 O17 2.771718 1_554
Mo0 O12 1.729022 1_555
Mo0 O20 1.741767 1_655
Mo0 O32 2.016415 1_555
Mo0 O3 2.032307 1_555
Mo0 O8 2.214815 1_555
Mo0 O6 2.265189 1_555
Mo1 O13 1.729022 1_555
Mo1 O21 1.741767 1_455
Mo1 O33 2.016415 1_545
Mo1 O2 2.032307 1_555
Mo1 O9 2.214815 1_545
Mo1 O7 2.265189 1_555
Mo2 O14 1.728819 1_555
Mo2 O22 1.744065 1_455
Mo2 O34 2.007741 1_555
Mo2 O1 2.036578 1_555
Mo2 O10 2.215042 1_555
Mo2 O4 2.260652 1_555
Mo3 O15 1.728819 1_555
Mo3 O23 1.744065 1_655
Mo3 O35 2.007741 1_565
Mo3 O0 2.036578 1_555
Mo3 O11 2.215042 1_565
Mo3 O5 2.260652 1_555
As0 O16 1.683619 1_555
As0 O8 1.708118 1_555
As0 O0 1.736304 1_555
As0 O28 1.803890 1_555
As1 O17 1.683619 1_555
As1 O9 1.708118 1_555
As1 O1 1.736304 1_555
As1 O29 1.803890 1_555
As2 O18 1.676430 1_555
As2 O10 1.710388 1_555
As2 O2 1.739909 1_555
As2 O30 1.804537 1_555
As3 O19 1.676430 1_555
As3 O11 1.710388 1_555
As3 O3 1.739909 1_555
As3 O31 1.804537 1_555
As4 O24 1.663993 1_555
As4 O4 1.715177 1_555
As4 O32 1.737389 1_455
As4 O28 1.811818 1_555
As5 O25 1.663993 1_555
As5 O5 1.715177 1_556
As5 O33 1.737389 1_655
As5 O29 1.811818 1_555
As6 O26 1.662848 1_555
As6 O6 1.715219 1_555
As6 O34 1.738493 1_655
As6 O30 1.812877 1_555
As7 O27 1.662848 1_555
As7 O7 1.715219 1_554
As7 O35 1.738493 1_455
As7 O31 1.812877 1_555
