# generated using pymatgen
data_RbMg14CO16
_symmetry_space_group_name_H-M   'P 1'
_cell_length_a   4.58033500
_cell_length_b   8.14622800
_cell_length_c   9.15501300
_cell_angle_alpha   90.00000000
_cell_angle_beta   90.00000000
_cell_angle_gamma   90.00000000
_symmetry_Int_Tables_number   1
_chemical_formula_structural   RbMg14CO16
_chemical_formula_sum   'Rb1 Mg14 C1 O16'
_cell_volume   341.59599435
_cell_formula_units_Z   1
loop_
 _symmetry_equiv_pos_site_id
 _symmetry_equiv_pos_as_xyz
  1  'x, y, z'
loop_
 _atom_site_type_symbol
 _atom_site_label
 _atom_site_symmetry_multiplicity
 _atom_site_fract_x
 _atom_site_fract_y
 _atom_site_fract_z
 _atom_site_occupancy
  Rb  Rb0  1  0.00000000  0.00000000  0.00000000  1
  Mg  Mg0  1  0.00000000  0.00000000  0.50000000  1
  Mg  Mg1  1  0.00000000  0.50000000  0.50000000  1
  Mg  Mg2  1  0.50000000  0.74182800  0.00000000  1
  Mg  Mg3  1  0.50000000  0.25817200  0.00000000  1
  Mg  Mg4  1  0.50000000  0.74834400  0.50000000  1
  Mg  Mg5  1  0.50000000  0.25165600  0.50000000  1
  Mg  Mg6  1  0.50000000  0.00000000  0.74304300  1
  Mg  Mg7  1  0.50000000  0.50000000  0.75194000  1
  Mg  Mg8  1  0.50000000  0.00000000  0.25695700  1
  Mg  Mg9  1  0.50000000  0.50000000  0.24806000  1
  Mg  Mg10  1  0.00000000  0.74551200  0.72533600  1
  Mg  Mg11  1  0.00000000  0.25448800  0.72533600  1
  Mg  Mg12  1  0.00000000  0.74551200  0.27466400  1
  Mg  Mg13  1  0.00000000  0.25448800  0.27466400  1
  C  C0  1  0.00000000  0.50000000  0.00000000  1
  O  O0  1  0.00000000  0.00000000  0.72057400  1
  O  O1  1  0.00000000  0.50000000  0.72083200  1
  O  O2  1  0.00000000  0.00000000  0.27942600  1
  O  O3  1  0.00000000  0.50000000  0.27916800  1
  O  O4  1  0.50000000  0.75059200  0.75490900  1
  O  O5  1  0.50000000  0.24940800  0.75490900  1
  O  O6  1  0.50000000  0.75059200  0.24509100  1
  O  O7  1  0.50000000  0.24940800  0.24509100  1
  O  O8  1  0.50000000  0.00000000  0.00000000  1
  O  O9  1  0.50000000  0.50000000  0.00000000  1
  O  O10  1  0.50000000  0.00000000  0.50000000  1
  O  O11  1  0.50000000  0.50000000  0.50000000  1
  O  O12  1  0.00000000  0.65913000  0.00000000  1
  O  O13  1  0.00000000  0.34087000  0.00000000  1
  O  O14  1  0.00000000  0.75023300  0.50000000  1
  O  O15  1  0.00000000  0.24976700  0.50000000  1
loop_
_geom_bond_atom_site_label_1
_geom_bond_atom_site_label_2
_geom_bond_distance
_geom_bond_site_symmetry_2
Mg0 O0 2.019358 1_555
Mg0 O2 2.019358 1_555
Mg0 O15 2.034659 1_555
Mg0 O14 2.034659 1_545
Mg0 O10 2.290167 1_555
Mg0 O10 2.290167 1_455
Mg1 O1 2.021720 1_555
Mg1 O3 2.021720 1_555
Mg1 O14 2.038455 1_555
Mg1 O15 2.038455 1_555
Mg1 O11 2.290167 1_455
Mg1 O11 2.290167 1_555
Mg2 O9 1.969986 1_555
Mg2 O8 2.103128 1_565
Mg2 O6 2.244947 1_555
Mg2 O4 2.244947 1_554
Mg2 O12 2.387197 1_655
Mg2 O12 2.387197 1_555
Mg3 O9 1.969986 1_555
Mg3 O8 2.103128 1_555
Mg3 O7 2.244947 1_555
Mg3 O5 2.244947 1_554
Mg3 O13 2.387197 1_555
Mg3 O13 2.387197 1_655
Mg4 O11 2.023067 1_555
Mg4 O10 2.050047 1_565
Mg4 O14 2.290219 1_555
Mg4 O14 2.290219 1_655
Mg4 O4 2.333767 1_555
Mg4 O6 2.333767 1_555
Mg5 O11 2.023067 1_555
Mg5 O10 2.050047 1_555
Mg5 O15 2.290219 1_555
Mg5 O15 2.290219 1_655
Mg5 O5 2.333767 1_555
Mg5 O7 2.333767 1_555
Mg6 O5 2.034637 1_555
Mg6 O4 2.034637 1_545
Mg6 O10 2.225062 1_555
Mg6 O0 2.299387 1_655
Mg6 O0 2.299387 1_555
Mg6 O8 2.352445 1_556
Mg7 O4 2.041561 1_555
Mg7 O5 2.041561 1_555
Mg7 O9 2.270993 1_556
Mg7 O11 2.306514 1_555
Mg7 O1 2.307807 1_555
Mg7 O1 2.307807 1_655
Mg8 O7 2.034637 1_555
Mg8 O6 2.034637 1_545
Mg8 O10 2.225062 1_555
Mg8 O2 2.299387 1_655
Mg8 O2 2.299387 1_555
Mg8 O8 2.352445 1_555
Mg9 O6 2.041561 1_555
Mg9 O7 2.041561 1_555
Mg9 O9 2.270993 1_555
Mg9 O11 2.306514 1_555
Mg9 O3 2.307807 1_655
Mg9 O3 2.307807 1_555
Mg10 O1 2.000422 1_555
Mg10 O14 2.063312 1_555
Mg10 O0 2.073576 1_565
Mg10 O4 2.306487 1_455
Mg10 O4 2.306487 1_555
Mg10 O12 2.611159 1_556
Mg11 O1 2.000422 1_555
Mg11 O15 2.063312 1_555
Mg11 O0 2.073576 1_555
Mg11 O5 2.306487 1_455
Mg11 O5 2.306487 1_555
Mg11 O13 2.611159 1_556
Mg12 O3 2.000422 1_555
Mg12 O14 2.063312 1_555
Mg12 O2 2.073576 1_565
Mg12 O6 2.306487 1_455
Mg12 O6 2.306487 1_555
Mg12 O12 2.611159 1_555
Mg13 O3 2.000422 1_555
Mg13 O15 2.063312 1_555
Mg13 O2 2.073576 1_555
Mg13 O7 2.306487 1_555
Mg13 O7 2.306487 1_455
Mg13 O13 2.611159 1_555
C0 O13 1.296309 1_555
C0 O12 1.296309 1_555
O0 Rb0 2.558149 1_556
O2 Rb0 2.558149 1_555
O8 Rb0 2.290167 1_555
O8 Rb0 2.290167 1_655
O12 Rb0 2.776805 1_565
O13 Rb0 2.776805 1_555
