# generated using pymatgen
data_Sr2Nd2MnCuO8
_symmetry_space_group_name_H-M   'P 1'
_cell_length_a   3.85339200
_cell_length_b   3.85339200
_cell_length_c   12.67075200
_cell_angle_alpha   90.00000000
_cell_angle_beta   90.00000000
_cell_angle_gamma   90.00000000
_symmetry_Int_Tables_number   1
_chemical_formula_structural   Sr2Nd2MnCuO8
_chemical_formula_sum   'Sr2 Nd2 Mn1 Cu1 O8'
_cell_volume   188.14330707
_cell_formula_units_Z   1
loop_
 _symmetry_equiv_pos_site_id
 _symmetry_equiv_pos_as_xyz
  1  'x, y, z'
loop_
 _atom_site_type_symbol
 _atom_site_label
 _atom_site_symmetry_multiplicity
 _atom_site_fract_x
 _atom_site_fract_y
 _atom_site_fract_z
 _atom_site_occupancy
  Sr  Sr0  1  0.00000000  0.00000000  0.64390500  1
  Sr  Sr1  1  0.00000000  0.00000000  0.35609500  1
  Nd  Nd0  1  0.50000000  0.50000000  0.13810300  1
  Nd  Nd1  1  0.50000000  0.50000000  0.86189700  1
  Mn  Mn0  1  0.50000000  0.50000000  0.50000000  1
  Cu  Cu0  1  0.00000000  0.00000000  0.00000000  1
  O  O0  1  0.50000000  0.50000000  0.31479300  1
  O  O1  1  0.00000000  0.00000000  0.84114500  1
  O  O2  1  0.00000000  0.00000000  0.15885500  1
  O  O3  1  0.50000000  0.50000000  0.68520700  1
  O  O4  1  0.00000000  0.50000000  0.50000000  1
  O  O5  1  0.50000000  0.00000000  0.00000000  1
  O  O6  1  0.50000000  0.00000000  0.50000000  1
  O  O7  1  0.00000000  0.50000000  0.00000000  1
loop_
_geom_bond_atom_site_label_1
_geom_bond_atom_site_label_2
_geom_bond_distance
_geom_bond_site_symmetry_2
Nd0 O0 2.238795 1_555
Nd0 O5 2.602729 1_565
Nd0 O7 2.602729 1_555
Nd0 O7 2.602729 1_655
Nd0 O5 2.602729 1_555
Nd0 O2 2.737417 1_555
Nd0 O2 2.737417 1_655
Nd0 O2 2.737417 1_565
Nd0 O2 2.737417 1_665
Nd1 O3 2.238795 1_555
Nd1 O5 2.602729 1_566
Nd1 O7 2.602729 1_556
Nd1 O7 2.602729 1_656
Nd1 O5 2.602729 1_556
Nd1 O1 2.737417 1_665
Nd1 O1 2.737417 1_655
Nd1 O1 2.737417 1_555
Nd1 O1 2.737417 1_565
Mn0 O4 1.926696 1_655
Mn0 O6 1.926696 1_555
Mn0 O6 1.926696 1_565
Mn0 O4 1.926696 1_555
Mn0 O3 2.346712 1_555
Mn0 O0 2.346712 1_555
Cu0 O7 1.926696 1_545
Cu0 O5 1.926696 1_555
Cu0 O7 1.926696 1_555
Cu0 O5 1.926696 1_455
Cu0 O1 2.012812 1_554
Cu0 O2 2.012812 1_555
O0 Sr1 2.774561 1_655
O0 Sr1 2.774561 1_565
O0 Sr1 2.774561 1_555
O0 Sr1 2.774561 1_665
O1 Sr0 2.499179 1_555
O2 Sr1 2.499179 1_555
O3 Sr0 2.774561 1_555
O3 Sr0 2.774561 1_565
O3 Sr0 2.774561 1_665
O3 Sr0 2.774561 1_655
O4 Sr0 2.652713 1_565
O4 Sr0 2.652713 1_555
O4 Sr1 2.652713 1_555
O4 Sr1 2.652713 1_565
O6 Sr0 2.652713 1_655
O6 Sr0 2.652713 1_555
O6 Sr1 2.652713 1_555
O6 Sr1 2.652713 1_655
