# generated using pymatgen
data_HfCrO4
_symmetry_space_group_name_H-M   'P 1'
_cell_length_a   4.70932300
_cell_length_b   11.72224029
_cell_length_c   4.90640809
_cell_angle_alpha   88.95255826
_cell_angle_beta   89.99751624
_cell_angle_gamma   89.99601504
_symmetry_Int_Tables_number   1
_chemical_formula_structural   HfCrO4
_chemical_formula_sum   'Hf4 Cr4 O16'
_cell_volume   270.80718905
_cell_formula_units_Z   4
loop_
 _symmetry_equiv_pos_site_id
 _symmetry_equiv_pos_as_xyz
  1  'x, y, z'
loop_
 _atom_site_type_symbol
 _atom_site_label
 _atom_site_symmetry_multiplicity
 _atom_site_fract_x
 _atom_site_fract_y
 _atom_site_fract_z
 _atom_site_occupancy
  Hf  Hf0  1  0.99526300  0.16928600  0.23654700  1
  Hf  Hf1  1  0.00463000  0.83066300  0.76344300  1
  Hf  Hf2  1  0.50471600  0.66931100  0.23664500  1
  Hf  Hf3  1  0.49533800  0.33073300  0.76334500  1
  Cr  Cr0  1  0.99800900  0.56865000  0.74075800  1
  Cr  Cr1  1  0.49791900  0.93137800  0.25933100  1
  Cr  Cr2  1  0.00215300  0.43133800  0.25916400  1
  Cr  Cr3  1  0.50215800  0.06862000  0.74068300  1
  O  O0  1  0.21642200  0.31395300  0.41166400  1
  O  O1  1  0.22813800  0.68855300  0.91239800  1
  O  O2  1  0.27173900  0.18852900  0.91231600  1
  O  O3  1  0.28353000  0.81402100  0.41164800  1
  O  O4  1  0.71638400  0.18602900  0.58828100  1
  O  O5  1  0.72810800  0.81149000  0.08770000  1
  O  O6  1  0.78358400  0.68599500  0.58843000  1
  O  O7  1  0.77175800  0.31145200  0.08763100  1
  O  O8  1  0.26524900  0.05386500  0.43549500  1
  O  O9  1  0.27778400  0.94570100  0.92756300  1
  O  O10  1  0.22232200  0.44567400  0.92757300  1
  O  O11  1  0.23472800  0.55383500  0.43547900  1
  O  O12  1  0.76536100  0.44611600  0.56446300  1
  O  O13  1  0.77782800  0.55432100  0.07249600  1
  O  O14  1  0.72220000  0.05432400  0.07240600  1
  O  O15  1  0.73467800  0.94616600  0.56454100  1
loop_
_geom_bond_atom_site_label_1
_geom_bond_atom_site_label_2
_geom_bond_distance
_geom_bond_site_symmetry_2
Hf0 O14 2.039189 1_555
Hf0 O2 2.064835 1_654
Hf0 O8 2.086042 1_655
Hf0 O7 2.091472 1_555
Hf0 O0 2.179991 1_655
Hf0 O4 2.180304 1_555
Hf1 O9 2.040013 1_555
Hf1 O5 2.064991 1_456
Hf1 O15 2.086457 1_455
Hf1 O1 2.091025 1_555
Hf1 O6 2.179538 1_455
Hf1 O3 2.180478 1_555
Hf2 O13 2.039408 1_555
Hf2 O1 2.065264 1_554
Hf2 O11 2.086269 1_555
Hf2 O5 2.091458 1_555
Hf2 O3 2.180071 1_555
Hf2 O6 2.180506 1_555
Hf3 O10 2.038896 1_555
Hf3 O7 2.064985 1_556
Hf3 O12 2.085779 1_555
Hf3 O2 2.092222 1_555
Hf3 O4 2.179823 1_555
Hf3 O0 2.180355 1_555
Cr0 O6 1.852750 1_555
Cr0 O11 1.877690 1_655
Cr0 O13 1.934550 1_556
Cr0 O1 1.975550 1_655
Cr0 O10 1.996417 1_655
Cr0 O12 2.014310 1_555
Cr1 O3 1.852809 1_555
Cr1 O15 1.877589 1_555
Cr1 O9 1.934615 1_554
Cr1 O5 1.975411 1_555
Cr1 O14 1.996391 1_565
Cr1 O8 2.013536 1_565
Cr2 O0 1.853024 1_555
Cr2 O12 1.877927 1_455
Cr2 O10 1.933920 1_554
Cr2 O7 1.975863 1_455
Cr2 O13 1.996184 1_455
Cr2 O11 2.013854 1_555
Cr3 O4 1.853002 1_555
Cr3 O8 1.877881 1_555
Cr3 O14 1.934173 1_556
Cr3 O2 1.976187 1_555
Cr3 O9 1.996299 1_545
Cr3 O15 2.012825 1_545
