# generated using pymatgen
data_Rb3Cu3Bi8Se15
_symmetry_space_group_name_H-M   'P 1'
_cell_length_a   9.64902561
_cell_length_b   9.64902561
_cell_length_c   19.12641800
_cell_angle_alpha   81.35598041
_cell_angle_beta   81.35598041
_cell_angle_gamma   96.97971474
_symmetry_Int_Tables_number   1
_chemical_formula_structural   Rb3Cu3Bi8Se15
_chemical_formula_sum   'Rb6 Cu6 Bi16 Se30'
_cell_volume   1721.49452734
_cell_formula_units_Z   2
loop_
 _symmetry_equiv_pos_site_id
 _symmetry_equiv_pos_as_xyz
  1  'x, y, z'
loop_
 _atom_site_type_symbol
 _atom_site_label
 _atom_site_symmetry_multiplicity
 _atom_site_fract_x
 _atom_site_fract_y
 _atom_site_fract_z
 _atom_site_occupancy
  Rb  Rb0  1  0.55323600  0.11277000  0.24744800  1
  Rb  Rb1  1  0.88723000  0.44676400  0.25255200  1
  Rb  Rb2  1  0.22322600  0.77677400  0.25000000  1
  Rb  Rb3  1  0.11277000  0.55323600  0.74744800  1
  Rb  Rb4  1  0.44676400  0.88723000  0.75255200  1
  Rb  Rb5  1  0.77677400  0.22322600  0.75000000  1
  Cu  Cu0  1  0.28470800  0.37731800  0.26012100  1
  Cu  Cu1  1  0.62268200  0.71529200  0.23987900  1
  Cu  Cu2  1  0.96043900  0.03956100  0.25000000  1
  Cu  Cu3  1  0.37731800  0.28470800  0.76012100  1
  Cu  Cu4  1  0.71529200  0.62268200  0.73987900  1
  Cu  Cu5  1  0.03956100  0.96043900  0.75000000  1
  Bi  Bi0  1  0.67288100  0.17851100  0.50023300  1
  Bi  Bi1  1  0.32711900  0.82148900  0.49976700  1
  Bi  Bi2  1  0.82148900  0.32711900  0.99976700  1
  Bi  Bi3  1  0.17851100  0.67288100  0.00023300  1
  Bi  Bi4  1  0.80548800  0.75958500  0.90074300  1
  Bi  Bi5  1  0.47230200  0.41891500  0.90263900  1
  Bi  Bi6  1  0.14977900  0.08745200  0.90541400  1
  Bi  Bi7  1  0.19451200  0.24041500  0.09925700  1
  Bi  Bi8  1  0.85022100  0.91254800  0.09458600  1
  Bi  Bi9  1  0.52769800  0.58108500  0.09736100  1
  Bi  Bi10  1  0.91254800  0.85022100  0.59458600  1
  Bi  Bi11  1  0.58108500  0.52769800  0.59736100  1
  Bi  Bi12  1  0.24041500  0.19451200  0.59925700  1
  Bi  Bi13  1  0.08745200  0.14977900  0.40541400  1
  Bi  Bi14  1  0.75958500  0.80548800  0.40074300  1
  Bi  Bi15  1  0.41891500  0.47230200  0.40263900  1
  Se  Se0  1  0.14271900  0.44876400  0.36280700  1
  Se  Se1  1  0.48339600  0.78123600  0.36123300  1
  Se  Se2  1  0.81233400  0.10860800  0.36011500  1
  Se  Se3  1  0.51660400  0.21876400  0.63876700  1
  Se  Se4  1  0.85728100  0.55123600  0.63719300  1
  Se  Se5  1  0.18766600  0.89139200  0.63988500  1
  Se  Se6  1  0.21876400  0.51660400  0.13876700  1
  Se  Se7  1  0.55123600  0.85728100  0.13719300  1
  Se  Se8  1  0.89139200  0.18766600  0.13988500  1
  Se  Se9  1  0.44876400  0.14271900  0.86280700  1
  Se  Se10  1  0.78123600  0.48339600  0.86123300  1
  Se  Se11  1  0.10860800  0.81233400  0.86011500  1
  Se  Se12  1  0.53889200  0.46110800  0.25000000  1
  Se  Se13  1  0.86946600  0.79347900  0.25374900  1
  Se  Se14  1  0.20652100  0.13053400  0.24625100  1
  Se  Se15  1  0.13053400  0.20652100  0.74625100  1
  Se  Se16  1  0.46110800  0.53889200  0.75000000  1
  Se  Se17  1  0.79347900  0.86946600  0.75374900  1
  Se  Se18  1  0.38513600  0.14854500  0.45206000  1
  Se  Se19  1  0.70491700  0.47854800  0.45281300  1
  Se  Se20  1  0.05227900  0.82594400  0.45390900  1
  Se  Se21  1  0.29508300  0.52145200  0.54718700  1
  Se  Se22  1  0.61486400  0.85145500  0.54794000  1
  Se  Se23  1  0.94772100  0.17405600  0.54609100  1
  Se  Se24  1  0.52145200  0.29508300  0.04718700  1
  Se  Se25  1  0.85145500  0.61486400  0.04794000  1
  Se  Se26  1  0.17405600  0.94772100  0.04609100  1
  Se  Se27  1  0.14854500  0.38513600  0.95206000  1
  Se  Se28  1  0.47854800  0.70491700  0.95281300  1
  Se  Se29  1  0.82594400  0.05227900  0.95390900  1
loop_
_geom_bond_atom_site_label_1
_geom_bond_atom_site_label_2
_geom_bond_distance
_geom_bond_site_symmetry_2
Rb0 Se14 3.373904 1_555
Rb0 Se12 3.388071 1_555
Rb0 Se7 3.476776 1_545
Rb0 Se8 3.516153 1_555
Rb0 Se1 3.516593 1_545
Rb0 Se2 3.537411 1_555
Rb0 Se24 4.039615 1_555
Rb1 Se13 3.373904 1_555
Rb1 Se12 3.388071 1_555
Rb1 Se0 3.476776 1_655
Rb1 Se2 3.516153 1_555
Rb1 Se6 3.516593 1_655
Rb1 Se8 3.537411 1_555
Rb1 Se19 4.039615 1_555
Rb2 Se13 3.427289 1_455
Rb2 Se14 3.427289 1_565
Rb2 Se0 3.481630 1_555
Rb2 Se7 3.481630 1_555
Rb2 Se1 3.526580 1_555
Rb2 Se6 3.526580 1_555
Rb3 Se15 3.373904 1_555
Rb3 Se16 3.388071 1_555
Rb3 Se4 3.476776 1_455
Rb3 Se5 3.516153 1_555
Rb3 Se10 3.516593 1_455
Rb3 Se11 3.537411 1_555
Rb3 Se21 4.039615 1_555
Rb4 Se17 3.373904 1_555
Rb4 Se16 3.388071 1_555
Rb4 Se9 3.476776 1_565
Rb4 Se11 3.516153 1_555
Rb4 Se3 3.516593 1_565
Rb4 Se5 3.537411 1_555
Rb4 Se28 4.039615 1_555
Rb5 Se17 3.427289 1_545
Rb5 Se15 3.427289 1_655
Rb5 Se9 3.481630 1_555
Rb5 Se4 3.481630 1_555
Rb5 Se10 3.526580 1_555
Rb5 Se3 3.526580 1_555
Cu0 Se12 2.456590 1_555
Cu0 Se0 2.457104 1_555
Cu0 Se14 2.474512 1_555
Cu0 Se6 2.704180 1_555
Cu1 Se12 2.456590 1_555
Cu1 Se7 2.457104 1_555
Cu1 Se13 2.474512 1_555
Cu1 Se1 2.704180 1_555
Cu2 Se14 2.415996 1_655
Cu2 Se13 2.415996 1_545
Cu2 Se2 2.582683 1_555
Cu2 Se8 2.582683 1_555
Cu3 Se16 2.456590 1_555
Cu3 Se9 2.457104 1_555
Cu3 Se15 2.474512 1_555
Cu3 Se3 2.704180 1_555
Cu4 Se16 2.456590 1_555
Cu4 Se4 2.457104 1_555
Cu4 Se17 2.474512 1_555
Cu4 Se10 2.704180 1_555
Cu5 Se15 2.415996 1_565
Cu5 Se17 2.415996 1_455
Cu5 Se11 2.582683 1_555
Cu5 Se5 2.582683 1_555
Bi0 Se19 2.865050 1_555
Bi0 Se23 2.918814 1_555
Bi0 Se3 2.948909 1_555
Bi0 Se2 3.021204 1_555
Bi0 Se18 3.048802 1_555
Bi0 Se22 3.107478 1_545
Bi1 Se21 2.865050 1_555
Bi1 Se20 2.918814 1_555
Bi1 Se1 2.948909 1_555
Bi1 Se5 3.021204 1_555
Bi1 Se22 3.048802 1_555
Bi1 Se18 3.107478 1_565
Bi2 Se24 2.865050 1_556
Bi2 Se29 2.918814 1_555
Bi2 Se10 2.948909 1_555
Bi2 Se8 3.021204 1_556
Bi2 Se25 3.048802 1_556
Bi2 Se27 3.107478 1_655
Bi3 Se28 2.865050 1_554
Bi3 Se26 2.918814 1_555
Bi3 Se6 2.948909 1_555
Bi3 Se11 3.021204 1_554
Bi3 Se27 3.048802 1_554
Bi3 Se25 3.107478 1_455
Bi4 Se10 2.869624 1_555
Bi4 Se11 2.872901 1_655
Bi4 Se17 2.876400 1_555
Bi4 Se25 3.068720 1_556
Bi4 Se28 3.116922 1_555
Bi4 Se29 3.136443 1_565
Bi5 Se9 2.872200 1_555
Bi5 Se10 2.931152 1_555
Bi5 Se24 2.972365 1_556
Bi5 Se16 2.997370 1_555
Bi5 Se28 3.051751 1_555
Bi5 Se27 3.087239 1_555
Bi6 Se9 2.839013 1_555
Bi6 Se26 2.878896 1_546
Bi6 Se11 2.914447 1_545
Bi6 Se29 3.084746 1_455
Bi6 Se15 3.129245 1_555
Bi6 Se27 3.134005 1_555
Bi7 Se6 2.869624 1_555
Bi7 Se8 2.872901 1_455
Bi7 Se14 2.876400 1_555
Bi7 Se27 3.068720 1_554
Bi7 Se24 3.116922 1_555
Bi7 Se26 3.136443 1_545
Bi8 Se7 2.839013 1_555
Bi8 Se29 2.878896 1_564
Bi8 Se8 2.914447 1_565
Bi8 Se26 3.084746 1_655
Bi8 Se13 3.129245 1_555
Bi8 Se25 3.134005 1_555
Bi9 Se7 2.872200 1_555
Bi9 Se6 2.931152 1_555
Bi9 Se28 2.972365 1_554
Bi9 Se12 2.997370 1_555
Bi9 Se24 3.051751 1_555
Bi9 Se25 3.087239 1_555
Bi10 Se4 2.839013 1_555
Bi10 Se20 2.878896 1_655
Bi10 Se5 2.914447 1_655
Bi10 Se23 3.084746 1_565
Bi10 Se17 3.129245 1_555
Bi10 Se22 3.134005 1_555
Bi11 Se4 2.872200 1_555
Bi11 Se3 2.931152 1_555
Bi11 Se19 2.972365 1_555
Bi11 Se16 2.997370 1_555
Bi11 Se21 3.051751 1_555
Bi11 Se22 3.087239 1_555
Bi12 Se3 2.869624 1_555
Bi12 Se5 2.872901 1_545
Bi12 Se15 2.876400 1_555
Bi12 Se18 3.068720 1_555
Bi12 Se21 3.116922 1_555
Bi12 Se23 3.136443 1_455
Bi13 Se0 2.839013 1_555
Bi13 Se23 2.878896 1_455
Bi13 Se2 2.914447 1_455
Bi13 Se20 3.084746 1_545
Bi13 Se14 3.129245 1_555
Bi13 Se18 3.134005 1_555
Bi14 Se1 2.869624 1_555
Bi14 Se2 2.872901 1_565
Bi14 Se13 2.876400 1_555
Bi14 Se22 3.068720 1_555
Bi14 Se19 3.116922 1_555
Bi14 Se20 3.136443 1_655
Bi15 Se0 2.872200 1_555
Bi15 Se1 2.931152 1_555
Bi15 Se21 2.972365 1_555
Bi15 Se12 2.997370 1_555
Bi15 Se19 3.051751 1_555
Bi15 Se18 3.087239 1_555
