# generated using pymatgen
data_MnAs2H16(S2N)4
_symmetry_space_group_name_H-M   'P 1'
_cell_length_a   9.01174300
_cell_length_b   9.40750400
_cell_length_c   22.22661563
_cell_angle_alpha   72.71349929
_cell_angle_beta   90.00000000
_cell_angle_gamma   90.00000000
_symmetry_Int_Tables_number   1
_chemical_formula_structural   MnAs2H16(S2N)4
_chemical_formula_sum   'Mn4 As8 H64 S32 N16'
_cell_volume   1799.21467649
_cell_formula_units_Z   4
loop_
 _symmetry_equiv_pos_site_id
 _symmetry_equiv_pos_as_xyz
  1  'x, y, z'
loop_
 _atom_site_type_symbol
 _atom_site_label
 _atom_site_symmetry_multiplicity
 _atom_site_fract_x
 _atom_site_fract_y
 _atom_site_fract_z
 _atom_site_occupancy
  Mn  Mn0  1  0.12370300  0.62788900  0.04136100  1
  Mn  Mn1  1  0.87629700  0.37211100  0.95863900  1
  Mn  Mn2  1  0.12370300  0.37211100  0.45863900  1
  Mn  Mn3  1  0.87629700  0.62788900  0.54136100  1
  As  As0  1  0.84056700  0.39726600  0.10524800  1
  As  As1  1  0.15943300  0.60273400  0.89475200  1
  As  As2  1  0.84056700  0.60273400  0.39475200  1
  As  As3  1  0.15943300  0.39726600  0.60524800  1
  As  As4  1  0.29813900  0.81589100  0.12521900  1
  As  As5  1  0.70186100  0.18410900  0.87478100  1
  As  As6  1  0.29813900  0.18410900  0.37478100  1
  As  As7  1  0.70186100  0.81589100  0.62521900  1
  H  H0  1  0.65713900  0.41859400  0.23977200  1
  H  H1  1  0.34286100  0.58140600  0.76022800  1
  H  H2  1  0.65713900  0.58140600  0.26022800  1
  H  H3  1  0.34286100  0.41859400  0.73977200  1
  H  H4  1  0.52312600  0.54603300  0.21104900  1
  H  H5  1  0.47687400  0.45396700  0.78895100  1
  H  H6  1  0.52312600  0.45396700  0.28895100  1
  H  H7  1  0.47687400  0.54603300  0.71104900  1
  H  H8  1  0.34786900  0.81963100  0.29026800  1
  H  H9  1  0.65213100  0.18036900  0.70973200  1
  H  H10  1  0.34786900  0.18036900  0.20973200  1
  H  H11  1  0.65213100  0.81963100  0.79026800  1
  H  H12  1  0.41766900  0.89183400  0.34766200  1
  H  H13  1  0.58233100  0.10816600  0.65233800  1
  H  H14  1  0.41766900  0.10816600  0.15233800  1
  H  H15  1  0.58233100  0.89183400  0.84766200  1
  H  H16  1  0.34232300  0.71746400  0.36640400  1
  H  H17  1  0.65767700  0.28253600  0.63359600  1
  H  H18  1  0.34232300  0.28253600  0.13359600  1
  H  H19  1  0.65767700  0.71746400  0.86640400  1
  H  H20  1  0.51029100  0.75475500  0.32983600  1
  H  H21  1  0.48970900  0.24524500  0.67016400  1
  H  H22  1  0.51029100  0.24524500  0.17016400  1
  H  H23  1  0.48970900  0.75475500  0.82983600  1
  H  H24  1  0.99543300  0.52231200  0.20928100  1
  H  H25  1  0.00456700  0.47768800  0.79071900  1
  H  H26  1  0.99543300  0.47768800  0.29071900  1
  H  H27  1  0.00456700  0.52231200  0.70928100  1
  H  H28  1  0.12465900  0.40582800  0.25441800  1
  H  H29  1  0.87534100  0.59417200  0.74558200  1
  H  H30  1  0.12465900  0.59417200  0.24558200  1
  H  H31  1  0.87534100  0.40582800  0.75441800  1
  H  H32  1  0.83549300  0.04935700  0.15935200  1
  H  H33  1  0.16450700  0.95064300  0.84064800  1
  H  H34  1  0.83549300  0.95064300  0.34064800  1
  H  H35  1  0.16450700  0.04935700  0.65935200  1
  H  H36  1  0.97384800  0.91971900  0.16619400  1
  H  H37  1  0.02615200  0.08028100  0.83380600  1
  H  H38  1  0.97384800  0.08028100  0.33380600  1
  H  H39  1  0.02615200  0.91971900  0.66619400  1
  H  H40  1  0.80127300  0.89203600  0.13895000  1
  H  H41  1  0.19872700  0.10796400  0.86105000  1
  H  H42  1  0.80127300  0.10796400  0.36105000  1
  H  H43  1  0.19872700  0.89203600  0.63895000  1
  H  H44  1  0.91650700  0.02239700  0.09462600  1
  H  H45  1  0.08349300  0.97760300  0.90537400  1
  H  H46  1  0.91650700  0.97760300  0.40537400  1
  H  H47  1  0.08349300  0.02239700  0.59462600  1
  H  H48  1  0.58467200  0.80214600  0.04904700  1
  H  H49  1  0.41532800  0.19785400  0.95095300  1
  H  H50  1  0.58467200  0.19785400  0.45095300  1
  H  H51  1  0.41532800  0.80214600  0.54904700  1
  H  H52  1  0.62718900  0.66521600  0.01447800  1
  H  H53  1  0.37281100  0.33478400  0.98552200  1
  H  H54  1  0.62718900  0.33478400  0.48552200  1
  H  H55  1  0.37281100  0.66521600  0.51447800  1
  H  H56  1  0.53819900  0.82727500  0.97349600  1
  H  H57  1  0.46180100  0.17272500  0.02650400  1
  H  H58  1  0.53819900  0.17272500  0.52650400  1
  H  H59  1  0.46180100  0.82727500  0.47349600  1
  H  H60  1  0.71623400  0.83392600  0.99350200  1
  H  H61  1  0.28376600  0.16607400  0.00649800  1
  H  H62  1  0.71623400  0.16607400  0.50649800  1
  H  H63  1  0.28376600  0.83392600  0.49350200  1
  S  S0  1  0.76830900  0.24943300  0.19628100  1
  S  S1  1  0.23169100  0.75056700  0.80371900  1
  S  S2  1  0.76830900  0.75056700  0.30371900  1
  S  S3  1  0.23169100  0.24943300  0.69628100  1
  S  S4  1  0.67436600  0.40903800  0.03201500  1
  S  S5  1  0.32563400  0.59096200  0.96798500  1
  S  S6  1  0.67436600  0.59096200  0.46798500  1
  S  S7  1  0.32563400  0.40903800  0.53201500  1
  S  S8  1  0.04216800  0.32711100  0.06536700  1
  S  S9  1  0.95783200  0.67288900  0.93463300  1
  S  S10  1  0.04216800  0.67288900  0.43463300  1
  S  S11  1  0.95783200  0.32711100  0.56536700  1
  S  S12  1  0.89751000  0.61987900  0.11048500  1
  S  S13  1  0.10249000  0.38012100  0.88951500  1
  S  S14  1  0.89751000  0.38012100  0.38951500  1
  S  S15  1  0.10249000  0.61987900  0.61048500  1
  S  S16  1  0.33048900  0.58112300  0.13102600  1
  S  S17  1  0.66951100  0.41887700  0.86897400  1
  S  S18  1  0.33048900  0.41887700  0.36897400  1
  S  S19  1  0.66951100  0.58112300  0.63102600  1
  S  S20  1  0.15736600  0.90168000  0.04120900  1
  S  S21  1  0.84263400  0.09832000  0.95879100  1
  S  S22  1  0.15736600  0.09832000  0.45879100  1
  S  S23  1  0.84263400  0.90168000  0.54120900  1
  S  S24  1  0.51180400  0.93158700  0.11482100  1
  S  S25  1  0.48819600  0.06841300  0.88517900  1
  S  S26  1  0.51180400  0.06841300  0.38517900  1
  S  S27  1  0.48819600  0.93158700  0.61482100  1
  S  S28  1  0.19018500  0.84430900  0.20902900  1
  S  S29  1  0.80981500  0.15569100  0.79097100  1
  S  S30  1  0.19018500  0.15569100  0.29097100  1
  S  S31  1  0.80981500  0.84430900  0.70902900  1
  N  N0  1  0.59109500  0.50000000  0.25000000  1
  N  N1  1  0.40890500  0.50000000  0.75000000  1
  N  N2  1  0.40392500  0.79513700  0.33359800  1
  N  N3  1  0.59607500  0.20486300  0.66640200  1
  N  N4  1  0.40392500  0.20486300  0.16640200  1
  N  N5  1  0.59607500  0.79513700  0.83359800  1
  N  N6  1  0.05983800  0.50000000  0.25000000  1
  N  N7  1  0.94016200  0.50000000  0.75000000  1
  N  N8  1  0.88034900  0.97047900  0.13998800  1
  N  N9  1  0.11965100  0.02952100  0.86001200  1
  N  N10  1  0.88034900  0.02952100  0.36001200  1
  N  N11  1  0.11965100  0.97047900  0.63998800  1
  N  N12  1  0.61664300  0.77977700  0.00742600  1
  N  N13  1  0.38335700  0.22022300  0.99257400  1
  N  N14  1  0.61664300  0.22022300  0.49257400  1
  N  N15  1  0.38335700  0.77977700  0.50742600  1
loop_
_geom_bond_atom_site_label_1
_geom_bond_atom_site_label_2
_geom_bond_distance
_geom_bond_site_symmetry_2
Mn0 S5 2.535491 1_554
Mn0 S12 2.540162 1_455
Mn0 S20 2.592498 1_555
Mn0 S16 2.667764 1_555
Mn0 S9 2.728392 1_454
Mn0 S8 2.816699 1_555
Mn1 S4 2.535491 1_556
Mn1 S13 2.540162 1_655
Mn1 S21 2.592498 1_555
Mn1 S17 2.667764 1_555
Mn1 S8 2.728392 1_656
Mn1 S9 2.816699 1_555
Mn2 S7 2.535491 1_555
Mn2 S14 2.540162 1_455
Mn2 S22 2.592498 1_555
Mn2 S18 2.667764 1_555
Mn2 S11 2.728392 1_455
Mn2 S10 2.816699 1_555
Mn3 S6 2.535491 1_555
Mn3 S15 2.540162 1_655
Mn3 S23 2.592498 1_555
Mn3 S19 2.667764 1_555
Mn3 S10 2.728392 1_655
Mn3 S11 2.816699 1_555
As0 S0 2.186278 1_555
As0 S4 2.190411 1_555
As0 S12 2.192615 1_555
As0 S8 2.206734 1_655
As1 S1 2.186278 1_555
As1 S5 2.190411 1_555
As1 S13 2.192615 1_555
As1 S9 2.206734 1_455
As2 S2 2.186278 1_555
As2 S6 2.190411 1_555
As2 S14 2.192615 1_555
As2 S10 2.206734 1_655
As3 S3 2.186278 1_555
As3 S7 2.190411 1_555
As3 S15 2.192615 1_555
As3 S11 2.206734 1_455
As4 S28 2.187225 1_555
As4 S24 2.189997 1_555
As4 S16 2.193186 1_555
As4 S20 2.202673 1_555
As5 S29 2.187225 1_555
As5 S25 2.189997 1_555
As5 S17 2.193186 1_555
As5 S21 2.202673 1_555
As6 S30 2.187225 1_555
As6 S26 2.189997 1_555
As6 S18 2.193186 1_555
As6 S22 2.202673 1_555
As7 S31 2.187225 1_555
As7 S27 2.189997 1_555
As7 S19 2.193186 1_555
As7 S23 2.202673 1_555
H0 N0 1.046837 1_555
H1 N1 1.046837 1_555
H2 N0 1.046837 1_555
H3 N1 1.046837 1_555
H4 N0 1.043755 1_555
H5 N1 1.043755 1_555
H6 N0 1.043755 1_555
H7 N1 1.043755 1_555
H8 N2 1.050676 1_555
H9 N3 1.050676 1_555
H10 N4 1.050676 1_555
H11 N5 1.050676 1_555
H12 N2 1.053359 1_555
H13 N3 1.053359 1_555
H14 N4 1.053359 1_555
H15 N5 1.053359 1_555
H16 N2 1.028180 1_555
H17 N3 1.028180 1_555
H18 N4 1.028180 1_555
H19 N5 1.028180 1_555
H20 N2 1.043549 1_555
H21 N3 1.043549 1_555
H22 N4 1.043549 1_555
H23 N5 1.043549 1_555
H24 N6 1.042656 1_655
H25 N7 1.042656 1_455
H26 N6 1.042656 1_655
H27 N7 1.042656 1_455
H28 N6 1.041169 1_555
H29 N7 1.041169 1_555
H30 N6 1.041169 1_555
H31 N7 1.041169 1_555
H32 N8 1.043589 1_545
H33 N9 1.043589 1_565
H34 N10 1.043589 1_565
H35 N11 1.043589 1_545
H36 N8 1.054494 1_555
H37 N9 1.054494 1_555
H38 N10 1.054494 1_555
H39 N11 1.054494 1_555
H40 N8 1.031039 1_555
H41 N9 1.031039 1_555
H42 N10 1.031039 1_555
H43 N11 1.031039 1_555
H44 N8 1.033743 1_545
H45 N9 1.033743 1_565
H46 N10 1.033743 1_565
H47 N11 1.033743 1_545
H48 N12 1.048230 1_555
H49 N13 1.048230 1_555
H50 N14 1.048230 1_555
H51 N15 1.048230 1_555
H52 N12 1.046287 1_555
H53 N13 1.046287 1_555
H54 N14 1.046287 1_555
H55 N15 1.046287 1_555
H56 N12 1.033377 1_556
H57 N13 1.033377 1_554
H58 N14 1.033377 1_555
H59 N15 1.033377 1_555
H60 N12 1.032990 1_556
H61 N13 1.032990 1_554
H62 N14 1.032990 1_555
H63 N15 1.032990 1_555
