# generated using pymatgen
data_Ho2Ge6Pd
_symmetry_space_group_name_H-M   'P 1'
_cell_length_a   11.19111390
_cell_length_b   11.19111390
_cell_length_c   4.09596600
_cell_angle_alpha   90.00000000
_cell_angle_beta   90.00000000
_cell_angle_gamma   159.26058972
_symmetry_Int_Tables_number   1
_chemical_formula_structural   Ho2Ge6Pd
_chemical_formula_sum   'Ho2 Ge6 Pd1'
_cell_volume   181.65661495
_cell_formula_units_Z   1
loop_
 _symmetry_equiv_pos_site_id
 _symmetry_equiv_pos_as_xyz
  1  'x, y, z'
loop_
 _atom_site_type_symbol
 _atom_site_label
 _atom_site_symmetry_multiplicity
 _atom_site_fract_x
 _atom_site_fract_y
 _atom_site_fract_z
 _atom_site_occupancy
  Ho  Ho0  1  0.33820100  0.66179900  0.00000000  1
  Ho  Ho1  1  0.99812600  0.00187400  0.00000000  1
  Ge  Ge0  1  0.21219400  0.78780600  0.50000000  1
  Ge  Ge1  1  0.09818100  0.90181900  0.50000000  1
  Ge  Ge2  1  0.88993800  0.11006200  0.50000000  1
  Ge  Ge3  1  0.71366500  0.28633500  0.00000000  1
  Ge  Ge4  1  0.59985200  0.40014800  0.00000000  1
  Ge  Ge5  1  0.46232500  0.53767500  0.50000000  1
  Pd  Pd0  1  0.77951800  0.22048200  0.50000000  1
loop_
_geom_bond_atom_site_label_1
_geom_bond_atom_site_label_2
_geom_bond_distance
_geom_bond_site_symmetry_2
Ho0 Pd0 3.149805 1_564
Ho0 Pd0 3.149805 1_565
Ho0 Pd0 3.149805 1_454
Ho0 Pd0 3.149805 1_455
Ge0 Pd0 2.500966 1_565
Ge0 Pd0 2.500966 1_455
Ge0 Ge1 2.510185 1_555
Ge0 Ge3 2.872812 1_566
Ge0 Ge3 2.872812 1_455
Ge0 Ge3 2.872812 1_456
Ge0 Ge3 2.872812 1_565
Ge0 Ho0 3.448291 1_556
Ge0 Ho0 3.448291 1_555
Ge1 Ge4 2.872865 1_455
Ge1 Ge4 2.872865 1_456
Ge1 Ge4 2.872865 1_565
Ge1 Ge4 2.872865 1_566
Ge1 Ho1 3.007806 1_466
Ge1 Ho1 3.007806 1_465
Ge2 Pd0 2.431079 1_555
Ge2 Ge5 2.568601 1_655
Ge2 Ge5 2.568601 1_545
Ge2 Ho0 3.090226 1_655
Ge2 Ho0 3.090226 1_656
Ge2 Ho0 3.090226 1_545
Ge2 Ho0 3.090226 1_546
Ge2 Ho1 3.141315 1_556
Ge2 Ho1 3.141315 1_555
Ge3 Ge4 2.505781 1_555
Ge3 Pd0 2.509250 1_554
Ge3 Pd0 2.509250 1_555
Ge3 Ho0 3.402293 1_655
Ge3 Ho0 3.402293 1_545
Ge4 Ho1 3.012287 1_455
Ge4 Ho1 3.012287 1_565
Ge5 Ho1 2.978807 1_455
Ge5 Ho1 2.978807 1_566
Ge5 Ho1 2.978807 1_456
Ge5 Ho1 2.978807 1_565
Ge5 Ho0 3.415026 1_556
Ge5 Ho0 3.415026 1_555
