# generated using pymatgen
data_Sr7TiN6
_symmetry_space_group_name_H-M   'P 1'
_cell_length_a   11.77513300
_cell_length_b   6.68815800
_cell_length_c   13.92229100
_cell_angle_alpha   90.00000000
_cell_angle_beta   90.00000000
_cell_angle_gamma   90.00000000
_symmetry_Int_Tables_number   1
_chemical_formula_structural   Sr7TiN6
_chemical_formula_sum   'Sr28 Ti4 N24'
_cell_volume   1096.43540895
_cell_formula_units_Z   4
loop_
 _symmetry_equiv_pos_site_id
 _symmetry_equiv_pos_as_xyz
  1  'x, y, z'
loop_
 _atom_site_type_symbol
 _atom_site_label
 _atom_site_symmetry_multiplicity
 _atom_site_fract_x
 _atom_site_fract_y
 _atom_site_fract_z
 _atom_site_occupancy
  Sr  Sr0  1  0.03705100  0.73387800  0.97982100  1
  Sr  Sr1  1  0.46294900  0.76612200  0.47982100  1
  Sr  Sr2  1  0.53705100  0.76612200  0.02017900  1
  Sr  Sr3  1  0.96294900  0.73387800  0.52017900  1
  Sr  Sr4  1  0.96294900  0.26612200  0.02017900  1
  Sr  Sr5  1  0.53705100  0.23387800  0.52017900  1
  Sr  Sr6  1  0.46294900  0.23387800  0.97982100  1
  Sr  Sr7  1  0.03705100  0.26612200  0.47982100  1
  Sr  Sr8  1  0.23096600  0.84003100  0.62717000  1
  Sr  Sr9  1  0.26903400  0.65996900  0.12717000  1
  Sr  Sr10  1  0.73096600  0.65996900  0.37283000  1
  Sr  Sr11  1  0.76903400  0.84003100  0.87283000  1
  Sr  Sr12  1  0.76903400  0.15996900  0.37283000  1
  Sr  Sr13  1  0.73096600  0.34003100  0.87283000  1
  Sr  Sr14  1  0.26903400  0.34003100  0.62717000  1
  Sr  Sr15  1  0.23096600  0.15996900  0.12717000  1
  Sr  Sr16  1  0.29180000  0.61024900  0.87930900  1
  Sr  Sr17  1  0.20820000  0.88975100  0.37930900  1
  Sr  Sr18  1  0.79180000  0.88975100  0.12069100  1
  Sr  Sr19  1  0.70820000  0.61024900  0.62069100  1
  Sr  Sr20  1  0.70820000  0.38975100  0.12069100  1
  Sr  Sr21  1  0.79180000  0.11024900  0.62069100  1
  Sr  Sr22  1  0.20820000  0.11024900  0.87930900  1
  Sr  Sr23  1  0.29180000  0.38975100  0.37930900  1
  Sr  Sr24  1  0.00000000  0.44704200  0.75000000  1
  Sr  Sr25  1  0.50000000  0.05295800  0.25000000  1
  Sr  Sr26  1  0.00000000  0.55295800  0.25000000  1
  Sr  Sr27  1  0.50000000  0.94704200  0.75000000  1
  Ti  Ti0  1  0.00000000  0.94178000  0.75000000  1
  Ti  Ti1  1  0.50000000  0.55822000  0.25000000  1
  Ti  Ti2  1  0.00000000  0.05822000  0.25000000  1
  Ti  Ti3  1  0.50000000  0.44178000  0.75000000  1
  N  N0  1  0.12433500  0.76647600  0.79466300  1
  N  N1  1  0.37566500  0.73352400  0.29466300  1
  N  N2  1  0.62433500  0.73352400  0.20533700  1
  N  N3  1  0.87566500  0.76647600  0.70533700  1
  N  N4  1  0.87566500  0.23352400  0.20533700  1
  N  N5  1  0.62433500  0.26647600  0.70533700  1
  N  N6  1  0.37566500  0.26647600  0.79466300  1
  N  N7  1  0.12433500  0.23352400  0.29466300  1
  N  N8  1  0.16417300  0.59119600  0.50269100  1
  N  N9  1  0.33582700  0.90880400  0.00269100  1
  N  N10  1  0.66417300  0.90880400  0.49730900  1
  N  N11  1  0.83582700  0.59119600  0.99730900  1
  N  N12  1  0.83582700  0.40880400  0.49730900  1
  N  N13  1  0.66417300  0.09119600  0.99730900  1
  N  N14  1  0.33582700  0.09119600  0.50269100  1
  N  N15  1  0.16417300  0.40880400  0.00269100  1
  N  N16  1  0.44159800  0.61382100  0.64848200  1
  N  N17  1  0.05840200  0.88617900  0.14848200  1
  N  N18  1  0.94159800  0.88617900  0.35151800  1
  N  N19  1  0.55840200  0.61382100  0.85151800  1
  N  N20  1  0.55840200  0.38617900  0.35151800  1
  N  N21  1  0.94159800  0.11382100  0.85151800  1
  N  N22  1  0.05840200  0.11382100  0.64848200  1
  N  N23  1  0.44159800  0.38617900  0.14848200  1
loop_
_geom_bond_atom_site_label_1
_geom_bond_atom_site_label_2
_geom_bond_distance
_geom_bond_site_symmetry_2
N0 Ti0 1.976054 1_555
N0 Sr16 2.523691 1_555
N0 Sr24 2.663538 1_555
N0 Sr8 2.693738 1_555
N0 Sr22 2.765925 1_565
N0 Sr0 2.783710 1_555
N1 Ti1 1.976054 1_555
N1 Sr17 2.523691 1_555
N1 Sr25 2.663538 1_565
N1 Sr9 2.693738 1_555
N1 Sr23 2.765925 1_555
N1 Sr1 2.783710 1_555
N2 Ti1 1.976054 1_555
N2 Sr18 2.523691 1_555
N2 Sr25 2.663538 1_565
N2 Sr10 2.693738 1_555
N2 Sr20 2.765925 1_555
N2 Sr2 2.783710 1_555
N3 Ti0 1.976054 1_655
N3 Sr19 2.523691 1_555
N3 Sr24 2.663538 1_655
N3 Sr11 2.693738 1_555
N3 Sr21 2.765925 1_565
N3 Sr3 2.783710 1_555
N4 Ti2 1.976054 1_655
N4 Sr20 2.523691 1_555
N4 Sr26 2.663538 1_655
N4 Sr12 2.693738 1_555
N4 Sr18 2.765925 1_545
N4 Sr4 2.783710 1_555
N5 Ti3 1.976054 1_555
N5 Sr21 2.523691 1_555
N5 Sr27 2.663538 1_545
N5 Sr13 2.693738 1_555
N5 Sr19 2.765925 1_555
N5 Sr5 2.783710 1_555
N6 Ti3 1.976054 1_555
N6 Sr22 2.523691 1_555
N6 Sr27 2.663538 1_545
N6 Sr14 2.693738 1_555
N6 Sr16 2.765925 1_555
N6 Sr6 2.783710 1_555
N7 Ti2 1.976054 1_555
N7 Sr23 2.523691 1_555
N7 Sr26 2.663538 1_555
N7 Sr15 2.693738 1_555
N7 Sr17 2.765925 1_545
N7 Sr7 2.783710 1_555
N8 Sr8 2.528181 1_555
N8 Sr3 2.565964 1_455
N8 Sr23 2.650356 1_555
N8 Sr7 2.658747 1_555
N8 Sr17 2.684512 1_555
N8 Sr14 2.711060 1_555
N9 Sr9 2.528181 1_555
N9 Sr2 2.565964 1_555
N9 Sr22 2.650356 1_564
N9 Sr6 2.658747 1_564
N9 Sr16 2.684512 1_554
N9 Sr15 2.711060 1_565
N10 Sr10 2.528181 1_555
N10 Sr1 2.565964 1_555
N10 Sr21 2.650356 1_565
N10 Sr5 2.658747 1_565
N10 Sr19 2.684512 1_555
N10 Sr12 2.711060 1_565
N11 Sr11 2.528181 1_555
N11 Sr0 2.565964 1_655
N11 Sr20 2.650356 1_556
N11 Sr4 2.658747 1_556
N11 Sr18 2.684512 1_556
N11 Sr13 2.711060 1_555
N12 Sr12 2.528181 1_555
N12 Sr7 2.565964 1_655
N12 Sr19 2.650356 1_555
N12 Sr3 2.658747 1_555
N12 Sr21 2.684512 1_555
N12 Sr10 2.711060 1_555
N13 Sr13 2.528181 1_555
N13 Sr6 2.565964 1_555
N13 Sr18 2.650356 1_546
N13 Sr2 2.658747 1_546
N13 Sr20 2.684512 1_556
N13 Sr11 2.711060 1_545
N14 Sr14 2.528181 1_555
N14 Sr5 2.565964 1_555
N14 Sr17 2.650356 1_545
N14 Sr1 2.658747 1_545
N14 Sr23 2.684512 1_555
N14 Sr8 2.711060 1_545
N15 Sr15 2.528181 1_555
N15 Sr4 2.565964 1_455
N15 Sr16 2.650356 1_554
N15 Sr0 2.658747 1_554
N15 Sr22 2.684512 1_554
N15 Sr9 2.711060 1_555
N16 Ti3 1.947943 1_555
N16 Sr1 2.571882 1_555
N16 Sr27 2.727146 1_555
N16 Sr14 2.751369 1_555
N16 Sr8 2.920356 1_555
N16 Sr19 3.163118 1_555
N16 Sr5 3.303235 1_555
N17 Ti2 1.947943 1_565
N17 Sr0 2.571882 1_554
N17 Sr26 2.727146 1_555
N17 Sr15 2.751369 1_565
N17 Sr9 2.920356 1_555
N17 Sr18 3.163118 1_455
N17 Sr4 3.303235 1_465
N18 Ti2 1.947943 1_665
N18 Sr3 2.571882 1_555
N18 Sr26 2.727146 1_655
N18 Sr12 2.751369 1_565
N18 Sr10 2.920356 1_555
N18 Sr17 3.163118 1_655
N18 Sr7 3.303235 1_665
N19 Ti3 1.947943 1_555
N19 Sr2 2.571882 1_556
N19 Sr27 2.727146 1_555
N19 Sr13 2.751369 1_555
N19 Sr11 2.920356 1_555
N19 Sr16 3.163118 1_555
N19 Sr6 3.303235 1_555
N20 Ti1 1.947943 1_555
N20 Sr5 2.571882 1_555
N20 Sr25 2.727146 1_555
N20 Sr10 2.751369 1_555
N20 Sr12 2.920356 1_555
N20 Sr23 3.163118 1_555
N20 Sr1 3.303235 1_555
N21 Ti0 1.947943 1_645
N21 Sr4 2.571882 1_556
N21 Sr24 2.727146 1_655
N21 Sr11 2.751369 1_545
N21 Sr13 2.920356 1_555
N21 Sr22 3.163118 1_655
N21 Sr0 3.303235 1_645
N22 Ti0 1.947943 1_545
N22 Sr7 2.571882 1_555
N22 Sr24 2.727146 1_555
N22 Sr8 2.751369 1_545
N22 Sr14 2.920356 1_555
N22 Sr21 3.163118 1_455
N22 Sr3 3.303235 1_445
N23 Ti1 1.947943 1_555
N23 Sr6 2.571882 1_554
N23 Sr25 2.727146 1_555
N23 Sr9 2.751369 1_555
N23 Sr15 2.920356 1_555
N23 Sr20 3.163118 1_555
N23 Sr2 3.303235 1_555
