# generated using pymatgen
data_Ba2FeBiS5
_symmetry_space_group_name_H-M   'P 1'
_cell_length_a   8.95240800
_cell_length_b   8.98038000
_cell_length_c   12.26451100
_cell_angle_alpha   90.00000000
_cell_angle_beta   90.00000000
_cell_angle_gamma   90.00000000
_symmetry_Int_Tables_number   1
_chemical_formula_structural   Ba2FeBiS5
_chemical_formula_sum   'Ba8 Fe4 Bi4 S20'
_cell_volume   986.01794223
_cell_formula_units_Z   4
loop_
 _symmetry_equiv_pos_site_id
 _symmetry_equiv_pos_as_xyz
  1  'x, y, z'
loop_
 _atom_site_type_symbol
 _atom_site_label
 _atom_site_symmetry_multiplicity
 _atom_site_fract_x
 _atom_site_fract_y
 _atom_site_fract_z
 _atom_site_occupancy
  Ba  Ba0  1  0.61678700  0.50895500  0.32272000  1
  Ba  Ba1  1  0.88321300  0.99104500  0.82272000  1
  Ba  Ba2  1  0.38321300  0.00895500  0.67728000  1
  Ba  Ba3  1  0.11678700  0.49104500  0.17728000  1
  Ba  Ba4  1  0.38321300  0.49104500  0.67728000  1
  Ba  Ba5  1  0.11678700  0.00895500  0.17728000  1
  Ba  Ba6  1  0.61678700  0.99104500  0.32272000  1
  Ba  Ba7  1  0.88321300  0.50895500  0.82272000  1
  Fe  Fe0  1  0.82801000  0.75000000  0.09478800  1
  Fe  Fe1  1  0.67199000  0.75000000  0.59478800  1
  Fe  Fe2  1  0.17199000  0.25000000  0.90521200  1
  Fe  Fe3  1  0.32801000  0.25000000  0.40521200  1
  Bi  Bi0  1  0.46827400  0.75000000  0.01696100  1
  Bi  Bi1  1  0.03172600  0.75000000  0.51696100  1
  Bi  Bi2  1  0.53172600  0.25000000  0.98303900  1
  Bi  Bi3  1  0.96827400  0.25000000  0.48303900  1
  S  S0  1  0.68232400  0.54735500  0.05532400  1
  S  S1  1  0.81767600  0.95264500  0.55532400  1
  S  S2  1  0.31767600  0.04735500  0.94467600  1
  S  S3  1  0.18232400  0.45264500  0.44467600  1
  S  S4  1  0.31767600  0.45264500  0.94467600  1
  S  S5  1  0.18232400  0.04735500  0.44467600  1
  S  S6  1  0.68232400  0.95264500  0.05532400  1
  S  S7  1  0.81767600  0.54735500  0.55532400  1
  S  S8  1  0.37344800  0.75000000  0.21451400  1
  S  S9  1  0.12655200  0.75000000  0.71451400  1
  S  S10  1  0.62655200  0.25000000  0.78548600  1
  S  S11  1  0.87344800  0.25000000  0.28548600  1
  S  S12  1  0.88301500  0.75000000  0.27348000  1
  S  S13  1  0.61698500  0.75000000  0.77348000  1
  S  S14  1  0.11698500  0.25000000  0.72652000  1
  S  S15  1  0.38301500  0.25000000  0.22652000  1
  S  S16  1  0.46604000  0.75000000  0.49580200  1
  S  S17  1  0.03396000  0.75000000  0.99580200  1
  S  S18  1  0.53396000  0.25000000  0.50419800  1
  S  S19  1  0.96604000  0.25000000  0.00419800  1
loop_
_geom_bond_atom_site_label_1
_geom_bond_atom_site_label_2
_geom_bond_distance
_geom_bond_site_symmetry_2
Ba0 S12 3.275825 1_555
Ba0 S11 3.300929 1_555
Ba0 S18 3.303294 1_555
Ba0 S16 3.318620 1_555
Ba0 S15 3.343644 1_555
Ba0 S8 3.345554 1_555
Ba0 S0 3.349351 1_555
Ba0 S7 3.389930 1_555
Ba1 S13 3.275825 1_555
Ba1 S10 3.300929 1_565
Ba1 S19 3.303294 1_566
Ba1 S17 3.318620 1_655
Ba1 S14 3.343644 1_665
Ba1 S9 3.345554 1_655
Ba1 S1 3.349351 1_555
Ba1 S6 3.389930 1_556
Ba2 S14 3.275825 1_555
Ba2 S9 3.300929 1_545
Ba2 S16 3.303294 1_545
Ba2 S18 3.318620 1_555
Ba2 S13 3.343644 1_545
Ba2 S10 3.345554 1_555
Ba2 S2 3.349351 1_555
Ba2 S5 3.389930 1_555
Ba3 S15 3.275825 1_555
Ba3 S8 3.300929 1_555
Ba3 S17 3.303294 1_554
Ba3 S19 3.318620 1_455
Ba3 S12 3.343644 1_455
Ba3 S11 3.345554 1_455
Ba3 S3 3.349351 1_555
Ba3 S4 3.389930 1_554
Ba4 S14 3.275825 1_555
Ba4 S9 3.300929 1_555
Ba4 S16 3.303294 1_555
Ba4 S18 3.318620 1_555
Ba4 S13 3.343644 1_555
Ba4 S10 3.345554 1_555
Ba4 S4 3.349351 1_555
Ba4 S3 3.389930 1_555
Ba5 S15 3.275825 1_555
Ba5 S8 3.300929 1_545
Ba5 S17 3.303294 1_544
Ba5 S19 3.318620 1_455
Ba5 S12 3.343644 1_445
Ba5 S11 3.345554 1_455
Ba5 S5 3.349351 1_555
Ba5 S2 3.389930 1_554
Ba6 S12 3.275825 1_555
Ba6 S11 3.300929 1_565
Ba6 S18 3.303294 1_565
Ba6 S16 3.318620 1_555
Ba6 S15 3.343644 1_565
Ba6 S8 3.345554 1_555
Ba6 S6 3.349351 1_555
Ba6 S1 3.389930 1_555
Ba7 S13 3.275825 1_555
Ba7 S10 3.300929 1_555
Ba7 S19 3.303294 1_556
Ba7 S17 3.318620 1_655
Ba7 S14 3.343644 1_655
Ba7 S9 3.345554 1_655
Ba7 S7 3.349351 1_555
Ba7 S0 3.389930 1_556
Fe0 S17 2.207542 1_654
Fe0 S12 2.246211 1_555
Fe0 S0 2.290651 1_555
Fe0 S6 2.290651 1_555
Fe1 S16 2.207542 1_555
Fe1 S13 2.246211 1_555
Fe1 S7 2.290651 1_555
Fe1 S1 2.290651 1_555
Fe2 S19 2.207542 1_456
Fe2 S14 2.246211 1_555
Fe2 S2 2.290651 1_555
Fe2 S4 2.290651 1_555
Fe3 S18 2.207542 1_555
Fe3 S15 2.246211 1_555
Fe3 S5 2.290651 1_555
Fe3 S3 2.290651 1_555
Bi0 S8 2.567307 1_555
Bi0 S6 2.684253 1_555
Bi0 S0 2.684253 1_555
Bi0 S2 3.120010 1_564
Bi0 S4 3.120010 1_554
Bi1 S9 2.567307 1_555
Bi1 S7 2.684253 1_455
Bi1 S1 2.684253 1_455
Bi1 S3 3.120010 1_555
Bi1 S5 3.120010 1_565
Bi2 S10 2.567307 1_555
Bi2 S4 2.684253 1_555
Bi2 S2 2.684253 1_555
Bi2 S0 3.120010 1_556
Bi2 S6 3.120010 1_546
Bi3 S11 2.567307 1_555
Bi3 S5 2.684253 1_655
Bi3 S3 2.684253 1_655
Bi3 S1 3.120010 1_545
Bi3 S7 3.120010 1_555
