# generated using pymatgen
data_HfMg14Zn
_symmetry_space_group_name_H-M   'P 1'
_cell_length_a   6.36272772
_cell_length_b   6.36272721
_cell_length_c   10.08092784
_cell_angle_alpha   90.00000000
_cell_angle_beta   90.00000000
_cell_angle_gamma   120.00000267
_symmetry_Int_Tables_number   1
_chemical_formula_structural   HfMg14Zn
_chemical_formula_sum   'Hf1 Mg14 Zn1'
_cell_volume   353.44168483
_cell_formula_units_Z   1
loop_
 _symmetry_equiv_pos_site_id
 _symmetry_equiv_pos_as_xyz
  1  'x, y, z'
loop_
 _atom_site_type_symbol
 _atom_site_label
 _atom_site_symmetry_multiplicity
 _atom_site_fract_x
 _atom_site_fract_y
 _atom_site_fract_z
 _atom_site_occupancy
  Hf  Hf0  1  0.16666700  0.33333300  0.62500000  1
  Mg  Mg0  1  0.16455927  0.83227914  0.12500000  1
  Mg  Mg1  1  0.17320133  0.83660016  0.62500000  1
  Mg  Mg2  1  0.66772086  0.33544073  0.12500000  1
  Mg  Mg3  1  0.66339984  0.32679867  0.62500000  1
  Mg  Mg4  1  0.66772086  0.83227914  0.12500000  1
  Mg  Mg5  1  0.66339984  0.83660016  0.62500000  1
  Mg  Mg6  1  0.32833460  0.17166540  0.37247801  1
  Mg  Mg7  1  0.32833460  0.17166540  0.87752199  1
  Mg  Mg8  1  0.32833460  0.65667019  0.37247801  1
  Mg  Mg9  1  0.32833460  0.65667019  0.87752199  1
  Mg  Mg10  1  0.84332981  0.17166540  0.37247801  1
  Mg  Mg11  1  0.84332981  0.17166540  0.87752199  1
  Mg  Mg12  1  0.83333300  0.66666700  0.37863635  1
  Mg  Mg13  1  0.83333300  0.66666700  0.87136365  1
  Zn  Zn0  1  0.16666700  0.33333300  0.12500000  1
loop_
_geom_bond_atom_site_label_1
_geom_bond_atom_site_label_2
_geom_bond_distance
_geom_bond_site_symmetry_2
Hf0 Mg6 3.107203 1_555
Hf0 Mg7 3.107203 1_555
Hf0 Mg8 3.107209 1_555
Hf0 Mg9 3.107209 1_555
Hf0 Mg11 3.107209 1_455
Hf0 Mg10 3.107209 1_455
Hf0 Mg1 3.181567 1_555
Hf0 Mg5 3.181567 1_555
Hf0 Mg5 3.181567 1_445
Hf0 Mg1 3.181567 1_545
Hf0 Mg3 3.181568 1_455
Hf0 Mg3 3.181568 1_555
Mg0 Mg8 3.118136 1_555
Mg0 Mg9 3.118136 1_554
Mg0 Mg7 3.118142 1_564
Mg0 Mg6 3.118142 1_565
Mg0 Mg13 3.141474 1_454
Mg0 Mg12 3.141474 1_455
Mg0 Mg2 3.161247 1_455
Mg0 Mg4 3.161248 1_455
Mg0 Zn0 3.181385 1_565
Mg0 Zn0 3.181385 1_555
Mg0 Mg2 3.201480 1_565
Mg0 Mg4 3.201480 1_555
Mg1 Mg12 3.110532 1_455
Mg1 Mg13 3.110532 1_455
Mg1 Mg3 3.118999 1_565
Mg1 Mg5 3.119000 1_555
Mg1 Mg8 3.145693 1_555
Mg1 Mg9 3.145693 1_555
Mg1 Mg7 3.145700 1_565
Mg1 Mg6 3.145700 1_565
Mg1 Mg3 3.243728 1_455
Mg1 Mg5 3.243728 1_455
Mg2 Mg7 3.118143 1_554
Mg2 Mg6 3.118143 1_555
Mg2 Mg4 3.161247 1_555
Mg2 Zn0 3.181385 1_555
Mg2 Zn0 3.181385 1_655
Mg2 Mg4 3.201480 1_545
Mg3 Mg5 3.118999 1_545
Mg3 Mg6 3.145700 1_555
Mg3 Mg7 3.145700 1_555
Mg3 Mg5 3.243728 1_555
Mg4 Mg9 3.118142 1_554
Mg4 Mg8 3.118142 1_555
Mg4 Zn0 3.181385 1_665
Mg4 Zn0 3.181385 1_555
Mg5 Mg8 3.145700 1_555
Mg5 Mg9 3.145700 1_555
Mg6 Zn0 3.065683 1_555
Mg6 Mg8 3.085953 1_555
Mg6 Mg8 3.276774 1_545
Mg7 Zn0 3.065683 1_556
Mg7 Mg9 3.085953 1_555
Mg7 Mg9 3.276774 1_545
Mg8 Zn0 3.065689 1_555
Mg9 Zn0 3.065689 1_556
Mg10 Zn0 3.065689 1_655
Mg10 Mg8 3.085953 1_655
Mg10 Mg6 3.085953 1_655
Mg10 Mg2 3.118136 1_555
Mg10 Mg4 3.118142 1_545
Mg10 Mg3 3.145693 1_555
Mg10 Mg5 3.145700 1_545
Mg10 Mg12 3.182446 1_545
Mg10 Mg12 3.182446 1_555
Mg10 Mg8 3.276774 1_545
Mg10 Mg6 3.276774 1_555
Mg11 Zn0 3.065689 1_656
Mg11 Mg9 3.085953 1_655
Mg11 Mg7 3.085953 1_655
Mg11 Mg2 3.118136 1_556
Mg11 Mg4 3.118142 1_546
Mg11 Mg3 3.145693 1_555
Mg11 Mg5 3.145700 1_545
Mg11 Mg13 3.182446 1_545
Mg11 Mg13 3.182446 1_555
Mg11 Mg9 3.276774 1_545
Mg11 Mg7 3.276774 1_555
Mg12 Mg5 3.110526 1_555
Mg12 Mg3 3.110532 1_555
Mg12 Mg4 3.141468 1_555
Mg12 Mg2 3.141474 1_555
Mg12 Mg6 3.182446 1_665
Mg12 Mg6 3.182446 1_555
Mg12 Mg8 3.182446 1_555
Mg12 Mg8 3.182446 1_655
Mg13 Mg5 3.110526 1_555
Mg13 Mg3 3.110532 1_555
Mg13 Mg4 3.141468 1_556
Mg13 Mg2 3.141474 1_556
Mg13 Mg7 3.182446 1_665
Mg13 Mg7 3.182446 1_555
Mg13 Mg9 3.182446 1_555
Mg13 Mg9 3.182446 1_655
