# generated using pymatgen
data_Nb6RuRh
_symmetry_space_group_name_H-M   'P 1'
_cell_length_a   5.16754053
_cell_length_b   5.16754053
_cell_length_c   5.16754053
_cell_angle_alpha   90.00000000
_cell_angle_beta   90.00000000
_cell_angle_gamma   90.00000000
_symmetry_Int_Tables_number   1
_chemical_formula_structural   Nb6RuRh
_chemical_formula_sum   'Nb6 Ru1 Rh1'
_cell_volume   137.99129002
_cell_formula_units_Z   1
loop_
 _symmetry_equiv_pos_site_id
 _symmetry_equiv_pos_as_xyz
  1  'x, y, z'
loop_
 _atom_site_type_symbol
 _atom_site_label
 _atom_site_symmetry_multiplicity
 _atom_site_fract_x
 _atom_site_fract_y
 _atom_site_fract_z
 _atom_site_occupancy
  Nb  Nb0  1  -0.00000000  0.50000000  0.75104260  1
  Nb  Nb1  1  0.50000000  0.24895740  -0.00000000  1
  Nb  Nb2  1  0.75104260  0.00000000  0.50000000  1
  Nb  Nb3  1  0.00000000  0.50000000  0.24895740  1
  Nb  Nb4  1  0.50000000  0.75104260  0.00000000  1
  Nb  Nb5  1  0.24895740  0.00000000  0.50000000  1
  Ru  Ru0  1  -0.00000000  0.00000000  0.00000000  1
  Rh  Rh0  1  0.50000000  0.50000000  0.50000000  1
loop_
_geom_bond_atom_site_label_1
_geom_bond_atom_site_label_2
_geom_bond_distance
_geom_bond_site_symmetry_2
Nb0 Nb3 2.572995 1_556
Nb0 Nb3 2.594546 1_555
Nb0 Ru0 2.886338 1_556
Nb0 Ru0 2.886338 1_566
Nb0 Rh0 2.891156 1_455
Nb0 Rh0 2.891156 1_555
Nb0 Nb2 3.164469 1_465
Nb0 Nb2 3.164469 1_455
Nb0 Nb5 3.164469 1_555
Nb0 Nb4 3.164469 1_456
Nb0 Nb5 3.164469 1_565
Nb0 Nb1 3.164469 1_556
Nb0 Nb4 3.164469 1_556
Nb0 Nb1 3.164469 1_456
Nb1 Nb4 2.572995 1_545
Nb1 Nb4 2.594546 1_555
Nb1 Ru0 2.886338 1_555
Nb1 Ru0 2.886338 1_655
Nb1 Rh0 2.891156 1_555
Nb1 Rh0 2.891156 1_554
Nb1 Nb3 3.164469 1_655
Nb1 Nb2 3.164469 1_554
Nb1 Nb2 3.164469 1_555
Nb1 Nb5 3.164469 1_555
Nb1 Nb5 3.164469 1_554
Nb1 Nb3 3.164469 1_555
Nb2 Nb5 2.572995 1_655
Nb2 Nb5 2.594546 1_555
Nb2 Ru0 2.886338 1_656
Nb2 Ru0 2.886338 1_655
Nb2 Rh0 2.891156 1_545
Nb2 Rh0 2.891156 1_555
Nb2 Nb3 3.164469 1_655
Nb2 Nb4 3.164469 1_546
Nb2 Nb4 3.164469 1_545
Nb2 Nb3 3.164469 1_645
Nb3 Ru0 2.886338 1_565
Nb3 Ru0 2.886338 1_555
Nb3 Rh0 2.891156 1_455
Nb3 Rh0 2.891156 1_555
Nb3 Nb5 3.164469 1_555
Nb3 Nb5 3.164469 1_565
Nb3 Nb4 3.164469 1_455
Nb3 Nb4 3.164469 1_555
Nb4 Ru0 2.886338 1_565
Nb4 Ru0 2.886338 1_665
Nb4 Rh0 2.891156 1_555
Nb4 Rh0 2.891156 1_554
Nb4 Nb5 3.164469 1_565
Nb4 Nb5 3.164469 1_564
Nb5 Ru0 2.886338 1_556
Nb5 Ru0 2.886338 1_555
Nb5 Rh0 2.891156 1_545
Nb5 Rh0 2.891156 1_555
