# generated using pymatgen
data_K3ReMoO8
_symmetry_space_group_name_H-M   'P 1'
_cell_length_a   7.88549273
_cell_length_b   7.88549273
_cell_length_c   7.88549304
_cell_angle_alpha   44.91187101
_cell_angle_beta   44.91187101
_cell_angle_gamma   44.91187423
_symmetry_Int_Tables_number   1
_chemical_formula_structural   K3ReMoO8
_chemical_formula_sum   'K3 Re1 Mo1 O8'
_cell_volume   222.41529602
_cell_formula_units_Z   1
loop_
 _symmetry_equiv_pos_site_id
 _symmetry_equiv_pos_as_xyz
  1  'x, y, z'
loop_
 _atom_site_type_symbol
 _atom_site_label
 _atom_site_symmetry_multiplicity
 _atom_site_fract_x
 _atom_site_fract_y
 _atom_site_fract_z
 _atom_site_occupancy
  K  K0  1  0.30233930  0.30233930  0.30233930  1
  K  K1  1  0.69451203  0.69451203  0.69451203  1
  K  K2  1  0.50767893  0.50767893  0.50767893  1
  Re  Re0  1  0.09698253  0.09698253  0.09698253  1
  Mo  Mo0  1  0.90517321  0.90517321  0.90517321  1
  O  O0  1  0.82162674  0.82162674  0.82162674  1
  O  O1  1  0.17877840  0.17877840  0.17877840  1
  O  O2  1  0.77575545  0.77575545  0.25146600  1
  O  O3  1  0.77575545  0.25146600  0.77575545  1
  O  O4  1  0.22766504  0.22766504  0.75431386  1
  O  O5  1  0.22766504  0.75431386  0.22766504  1
  O  O6  1  0.25146600  0.77575545  0.77575545  1
  O  O7  1  0.75431386  0.22766504  0.22766504  1
loop_
_geom_bond_atom_site_label_1
_geom_bond_atom_site_label_2
_geom_bond_distance
_geom_bond_site_symmetry_2
K0 O1 2.623335 1_555
K0 O7 2.818146 1_555
K0 O5 2.818146 1_555
K0 O4 2.818146 1_555
K0 O3 3.101884 1_455
K0 O6 3.101884 1_545
K0 O3 3.101884 1_554
K0 O6 3.101884 1_554
K0 O2 3.101884 1_455
K0 O2 3.101884 1_545
K1 O6 2.695814 1_555
K1 O3 2.695814 1_555
K1 O2 2.695814 1_555
K1 O0 2.698787 1_555
K1 O7 3.142849 1_565
K1 O5 3.142849 1_655
K1 O7 3.142849 1_556
K1 O5 3.142849 1_556
K1 O4 3.142849 1_565
K1 O4 3.142849 1_655
K2 O2 2.692588 1_555
K2 O6 2.692589 1_555
K2 O3 2.692589 1_555
K2 O4 2.876479 1_555
K2 O5 2.876479 1_555
K2 O7 2.876479 1_555
Mo0 O2 1.766505 1_556
Mo0 O6 1.766505 1_655
Mo0 O3 1.766505 1_565
Mo0 O0 1.773784 1_555
O1 Re0 1.736617 1_555
O4 Re0 1.743973 1_556
O5 Re0 1.743973 1_565
O7 Re0 1.743973 1_655
