# generated using pymatgen
data_CsLi2Gd4(BO3)5
_symmetry_space_group_name_H-M   'P 1'
_cell_length_a   6.51419796
_cell_length_b   10.72872877
_cell_length_c   20.25730933
_cell_angle_alpha   105.22605408
_cell_angle_beta   90.00000000
_cell_angle_gamma   90.00000000
_symmetry_Int_Tables_number   1
_chemical_formula_structural   CsLi2Gd4(BO3)5
_chemical_formula_sum   'Cs4 Li8 Gd16 B20 O60'
_cell_volume   1366.06703297
_cell_formula_units_Z   4
loop_
 _symmetry_equiv_pos_site_id
 _symmetry_equiv_pos_as_xyz
  1  'x, y, z'
loop_
 _atom_site_type_symbol
 _atom_site_label
 _atom_site_symmetry_multiplicity
 _atom_site_fract_x
 _atom_site_fract_y
 _atom_site_fract_z
 _atom_site_occupancy
  Cs  Cs0  1  0.09516101  0.94482500  0.64148256  1
  Cs  Cs1  1  0.90483899  0.05517500  0.35851744  1
  Cs  Cs2  1  0.09516101  0.55517500  0.85851744  1
  Cs  Cs3  1  0.90483899  0.44482500  0.14148256  1
  Li  Li0  1  0.97840203  0.86236521  0.84672515  1
  Li  Li1  1  0.02159797  0.13763479  0.15327485  1
  Li  Li2  1  0.97840203  0.63763479  0.65327485  1
  Li  Li3  1  0.02159797  0.36236521  0.34672515  1
  Li  Li4  1  0.98598471  0.22198727  0.84210660  1
  Li  Li5  1  0.01401529  0.77801273  0.15789340  1
  Li  Li6  1  0.98598471  0.27801273  0.65789340  1
  Li  Li7  1  0.01401529  0.72198727  0.34210660  1
  Gd  Gd0  1  0.34182690  0.04441196  0.84994478  1
  Gd  Gd1  1  0.65817310  0.95558804  0.15005522  1
  Gd  Gd2  1  0.34182690  0.45558804  0.65005522  1
  Gd  Gd3  1  0.65817310  0.54441196  0.34994478  1
  Gd  Gd4  1  0.59713670  0.25000000  0.75000000  1
  Gd  Gd5  1  0.40286330  0.75000000  0.25000000  1
  Gd  Gd6  1  0.59016988  0.75000000  0.75000000  1
  Gd  Gd7  1  0.40983012  0.25000000  0.25000000  1
  Gd  Gd8  1  0.64556922  0.14314550  0.55333724  1
  Gd  Gd9  1  0.35443078  0.85685450  0.44666276  1
  Gd  Gd10  1  0.64556922  0.35685450  0.94666276  1
  Gd  Gd11  1  0.35443078  0.64314550  0.05333724  1
  Gd  Gd12  1  0.64898387  0.65679145  0.54643323  1
  Gd  Gd13  1  0.35101613  0.34320855  0.45356677  1
  Gd  Gd14  1  0.64898387  0.84320855  0.95356677  1
  Gd  Gd15  1  0.35101613  0.15679145  0.04643323  1
  B  B0  1  0.78375674  0.04828842  0.85017297  1
  B  B1  1  0.21624326  0.95171158  0.14982703  1
  B  B2  1  0.78375674  0.45171158  0.64982703  1
  B  B3  1  0.21624326  0.54828842  0.35017297  1
  B  B4  1  0.16578200  0.25000000  0.75000000  1
  B  B5  1  0.83421800  0.75000000  0.25000000  1
  B  B6  1  0.15869716  0.75000000  0.75000000  1
  B  B7  1  0.84130284  0.25000000  0.25000000  1
  B  B8  1  0.19404135  0.15698003  0.54961776  1
  B  B9  1  0.80595865  0.84301997  0.45038224  1
  B  B10  1  0.19404135  0.34301997  0.95038224  1
  B  B11  1  0.80595865  0.65698003  0.04961776  1
  B  B12  1  0.20234721  0.64337628  0.54359065  1
  B  B13  1  0.79765279  0.35662372  0.45640935  1
  B  B14  1  0.20234721  0.85662372  0.95640935  1
  B  B15  1  0.79765279  0.14337628  0.04359065  1
  B  B16  1  0.59337683  0.95699927  0.67663675  1
  B  B17  1  0.40662317  0.04300073  0.32336325  1
  B  B18  1  0.59337683  0.54300073  0.82336325  1
  B  B19  1  0.40662317  0.45699927  0.17663675  1
  O  O0  1  0.98998022  0.04103569  0.83984490  1
  O  O1  1  0.01001978  0.95896431  0.16015510  1
  O  O2  1  0.98998022  0.45896431  0.66015510  1
  O  O3  1  0.01001978  0.54103569  0.33984490  1
  O  O4  1  0.67446537  0.16173585  0.85149959  1
  O  O5  1  0.32553463  0.83826415  0.14850041  1
  O  O6  1  0.67446537  0.33826415  0.64850041  1
  O  O7  1  0.32553463  0.66173585  0.35149959  1
  O  O8  1  0.67450053  0.94165477  0.85960240  1
  O  O9  1  0.32549947  0.05834523  0.14039760  1
  O  O10  1  0.67450053  0.55834523  0.64039760  1
  O  O11  1  0.32549947  0.44165477  0.35960240  1
  O  O12  1  0.95480410  0.25000000  0.75000000  1
  O  O13  1  0.04519590  0.75000000  0.25000000  1
  O  O14  1  0.27702007  0.22195418  0.80260750  1
  O  O15  1  0.72297993  0.77804582  0.19739250  1
  O  O16  1  0.27702007  0.27804582  0.69739250  1
  O  O17  1  0.72297993  0.72195418  0.30260750  1
  O  O18  1  0.94730183  0.75000000  0.75000000  1
  O  O19  1  0.05269817  0.25000000  0.25000000  1
  O  O20  1  0.26867436  0.68221438  0.69304430  1
  O  O21  1  0.73132564  0.31778562  0.30695570  1
  O  O22  1  0.26867436  0.81778562  0.80695570  1
  O  O23  1  0.73132564  0.18221438  0.19304430  1
  O  O24  1  0.99544491  0.15887234  0.56994458  1
  O  O25  1  0.00455509  0.84112766  0.43005542  1
  O  O26  1  0.99544491  0.34112766  0.93005542  1
  O  O27  1  0.00455509  0.65887234  0.06994458  1
  O  O28  1  0.30876902  0.04472836  0.52724852  1
  O  O29  1  0.69123098  0.95527164  0.47275148  1
  O  O30  1  0.30876902  0.45527164  0.97275148  1
  O  O31  1  0.69123098  0.54472836  0.02724852  1
  O  O32  1  0.31063574  0.27017879  0.55307501  1
  O  O33  1  0.68936426  0.72982121  0.44692499  1
  O  O34  1  0.31063574  0.22982121  0.94692499  1
  O  O35  1  0.68936426  0.77017879  0.05307501  1
  O  O36  1  0.00055806  0.65770458  0.56133961  1
  O  O37  1  0.99944194  0.34229542  0.43866039  1
  O  O38  1  0.00055806  0.84229542  0.93866039  1
  O  O39  1  0.99944194  0.15770458  0.06133961  1
  O  O40  1  0.32101150  0.53367966  0.54703139  1
  O  O41  1  0.67898850  0.46632034  0.45296861  1
  O  O42  1  0.32101150  0.96632034  0.95296861  1
  O  O43  1  0.67898850  0.03367966  0.04703139  1
  O  O44  1  0.31847039  0.73744652  0.52467663  1
  O  O45  1  0.68152961  0.26255348  0.47532337  1
  O  O46  1  0.31847039  0.76255348  0.97532337  1
  O  O47  1  0.68152961  0.23744652  0.02467663  1
  O  O48  1  0.49628710  0.97449720  0.73952010  1
  O  O49  1  0.50371290  0.02550280  0.26047990  1
  O  O50  1  0.49628710  0.52550280  0.76047990  1
  O  O51  1  0.50371290  0.47449720  0.23952010  1
  O  O52  1  0.64973721  0.83161255  0.64332053  1
  O  O53  1  0.35026279  0.16838745  0.35667947  1
  O  O54  1  0.64973721  0.66838745  0.85667947  1
  O  O55  1  0.35026279  0.33161255  0.14332053  1
  O  O56  1  0.63585235  0.06467486  0.65282633  1
  O  O57  1  0.36414765  0.93532514  0.34717367  1
  O  O58  1  0.63585235  0.43532514  0.84717367  1
  O  O59  1  0.36414765  0.56467486  0.15282633  1
loop_
_geom_bond_atom_site_label_1
_geom_bond_atom_site_label_2
_geom_bond_distance
_geom_bond_site_symmetry_2
Cs0 O24 3.089298 1_465
Cs0 O28 3.121346 1_565
Cs0 O36 3.142887 1_555
Cs0 O44 3.146406 1_555
Cs0 O52 3.149542 1_455
Cs0 O56 3.240865 1_465
Cs0 O48 3.246723 1_555
Cs1 O25 3.089298 1_645
Cs1 O29 3.121346 1_545
Cs1 O37 3.142887 1_555
Cs1 O45 3.146406 1_555
Cs1 O53 3.149542 1_655
Cs1 O57 3.240865 1_645
Cs1 O49 3.246723 1_555
Cs2 O26 3.089298 1_455
Cs2 O30 3.121346 1_555
Cs2 O38 3.142887 1_555
Cs2 O46 3.146406 1_555
Cs2 O54 3.149542 1_455
Cs2 O58 3.240865 1_455
Cs2 O50 3.246723 1_555
Cs3 O27 3.089298 1_655
Cs3 O31 3.121346 1_555
Cs3 O39 3.142887 1_555
Cs3 O47 3.146406 1_555
Cs3 O55 3.149542 1_655
Cs3 O59 3.240865 1_655
Cs3 O51 3.246723 1_555
Li0 O38 1.935514 1_655
Li0 O0 1.959587 1_565
Li0 O18 2.023082 1_555
Li0 O22 2.061762 1_655
Li0 O8 2.143420 1_555
Li1 O39 1.935514 1_455
Li1 O1 1.959587 1_545
Li1 O19 2.023082 1_555
Li1 O23 2.061762 1_455
Li1 O9 2.143420 1_555
Li2 O36 1.935514 1_655
Li2 O2 1.959587 1_555
Li2 O18 2.023082 1_555
Li2 O20 2.061762 1_655
Li2 O10 2.143420 1_555
Li3 O37 1.935514 1_455
Li3 O3 1.959587 1_555
Li3 O19 2.023082 1_555
Li3 O21 2.061762 1_455
Li3 O11 2.143420 1_555
Li4 O26 1.901477 1_555
Li4 O0 1.930030 1_555
Li4 O12 1.976728 1_555
Li4 O14 2.057760 1_655
Li4 O4 2.153305 1_555
Li5 O27 1.901477 1_555
Li5 O1 1.930030 1_555
Li5 O13 1.976728 1_555
Li5 O15 2.057760 1_455
Li5 O5 2.153305 1_555
Li6 O24 1.901477 1_555
Li6 O2 1.930030 1_555
Li6 O12 1.976728 1_555
Li6 O16 2.057760 1_655
Li6 O6 2.153305 1_555
Li7 O25 1.901477 1_555
Li7 O3 1.930030 1_555
Li7 O13 1.976728 1_555
Li7 O17 2.057760 1_455
Li7 O7 2.153305 1_555
Gd0 O0 2.300552 1_455
Gd0 O14 2.384418 1_555
Gd0 O48 2.386939 1_545
Gd0 O22 2.405213 1_545
Gd0 O34 2.409369 1_555
Gd0 O42 2.448319 1_545
Gd0 O8 2.462376 1_545
Gd0 O4 2.501984 1_555
Gd1 O1 2.300552 1_655
Gd1 O15 2.384418 1_555
Gd1 O49 2.386939 1_565
Gd1 O23 2.405213 1_565
Gd1 O35 2.409369 1_555
Gd1 O43 2.448319 1_565
Gd1 O9 2.462376 1_565
Gd1 O5 2.501984 1_555
Gd2 O2 2.300552 1_455
Gd2 O16 2.384418 1_555
Gd2 O50 2.386939 1_555
Gd2 O20 2.405213 1_555
Gd2 O32 2.409369 1_555
Gd2 O40 2.448319 1_555
Gd2 O10 2.462376 1_555
Gd2 O6 2.501984 1_555
Gd3 O3 2.300552 1_655
Gd3 O17 2.384418 1_555
Gd3 O51 2.386939 1_555
Gd3 O21 2.405213 1_555
Gd3 O33 2.409369 1_555
Gd3 O41 2.448319 1_555
Gd3 O11 2.462376 1_555
Gd3 O7 2.501984 1_555
Gd4 O12 2.329916 1_555
Gd4 O14 2.396486 1_555
Gd4 O16 2.396486 1_555
Gd4 O58 2.415790 1_555
Gd4 O56 2.415790 1_555
Gd4 O6 2.529975 1_555
Gd4 O4 2.529975 1_555
Gd5 O13 2.329916 1_555
Gd5 O17 2.396486 1_555
Gd5 O15 2.396486 1_555
Gd5 O57 2.415790 1_555
Gd5 O59 2.415790 1_555
Gd5 O5 2.529975 1_555
Gd5 O7 2.529975 1_555
Gd6 O18 2.326428 1_555
Gd6 O22 2.409436 1_555
Gd6 O20 2.409436 1_555
Gd6 O48 2.547327 1_555
Gd6 O50 2.547327 1_555
Gd6 O52 2.565390 1_555
Gd6 O54 2.565390 1_555
Gd6 O10 2.657319 1_555
Gd6 O8 2.657319 1_555
Gd7 O19 2.326428 1_555
Gd7 O21 2.409436 1_555
Gd7 O23 2.409436 1_555
Gd7 O51 2.547327 1_555
Gd7 O49 2.547327 1_555
Gd7 O55 2.565390 1_555
Gd7 O53 2.565390 1_555
Gd7 O11 2.657319 1_555
Gd7 O9 2.657319 1_555
Gd8 O29 2.255633 1_545
Gd8 O45 2.292818 1_555
Gd8 O24 2.303563 1_555
Gd8 O56 2.380287 1_555
Gd8 O28 2.432008 1_555
Gd8 O6 2.452386 1_555
Gd8 O32 2.573265 1_555
Gd9 O28 2.255633 1_565
Gd9 O44 2.292818 1_555
Gd9 O25 2.303563 1_555
Gd9 O57 2.380287 1_555
Gd9 O29 2.432008 1_555
Gd9 O7 2.452386 1_555
Gd9 O33 2.573265 1_555
Gd10 O31 2.255633 1_556
Gd10 O47 2.292818 1_556
Gd10 O26 2.303563 1_555
Gd10 O58 2.380287 1_555
Gd10 O30 2.432008 1_555
Gd10 O4 2.452386 1_555
Gd10 O34 2.573265 1_555
Gd11 O30 2.255633 1_554
Gd11 O46 2.292818 1_554
Gd11 O27 2.303563 1_555
Gd11 O59 2.380287 1_555
Gd11 O31 2.432008 1_555
Gd11 O5 2.452386 1_555
Gd11 O35 2.573265 1_555
Gd12 O36 2.309729 1_655
Gd12 O52 2.331619 1_555
Gd12 O33 2.361356 1_555
Gd12 O41 2.401383 1_555
Gd12 O44 2.403933 1_555
Gd12 O10 2.412959 1_555
Gd12 O40 2.513501 1_555
Gd13 O37 2.309729 1_455
Gd13 O53 2.331619 1_555
Gd13 O32 2.361356 1_555
Gd13 O40 2.401383 1_555
Gd13 O45 2.403933 1_555
Gd13 O11 2.412959 1_555
Gd13 O41 2.513501 1_555
Gd14 O38 2.309729 1_655
Gd14 O54 2.331619 1_555
Gd14 O35 2.361356 1_556
Gd14 O43 2.401383 1_566
Gd14 O46 2.403933 1_555
Gd14 O8 2.412959 1_555
Gd14 O42 2.513501 1_555
Gd15 O39 2.309729 1_455
Gd15 O55 2.331619 1_555
Gd15 O34 2.361356 1_554
Gd15 O42 2.401383 1_544
Gd15 O47 2.403933 1_555
Gd15 O9 2.412959 1_555
Gd15 O43 2.513501 1_555
B0 O0 1.358657 1_555
B0 O8 1.402372 1_545
B0 O4 1.404227 1_555
B1 O1 1.358657 1_555
B1 O9 1.402372 1_565
B1 O5 1.404227 1_555
B2 O2 1.358657 1_555
B2 O10 1.402372 1_555
B2 O6 1.404227 1_555
B3 O3 1.358657 1_555
B3 O11 1.402372 1_555
B3 O7 1.404227 1_555
B4 O12 1.374352 1_455
B4 O14 1.385546 1_555
B4 O16 1.385546 1_555
B5 O13 1.374352 1_655
B5 O17 1.385546 1_555
B5 O15 1.385546 1_555
B6 O18 1.377071 1_455
B6 O22 1.390178 1_555
B6 O20 1.390178 1_555
B7 O19 1.377071 1_655
B7 O21 1.390178 1_555
B7 O23 1.390178 1_555
B8 O24 1.356180 1_455
B8 O28 1.388387 1_555
B8 O32 1.418470 1_555
B9 O25 1.356180 1_655
B9 O29 1.388387 1_555
B9 O33 1.418470 1_555
B10 O26 1.356180 1_455
B10 O30 1.388387 1_555
B10 O34 1.418470 1_555
B11 O27 1.356180 1_655
B11 O31 1.388387 1_555
B11 O35 1.418470 1_555
B12 O36 1.360797 1_555
B12 O44 1.393099 1_555
B12 O40 1.424986 1_555
B13 O37 1.360797 1_555
B13 O45 1.393099 1_555
B13 O41 1.424986 1_555
B14 O38 1.360797 1_555
B14 O46 1.393099 1_555
B14 O42 1.424986 1_555
B15 O39 1.360797 1_555
B15 O47 1.393099 1_555
B15 O43 1.424986 1_555
B16 O52 1.386749 1_555
B16 O48 1.390082 1_555
B16 O56 1.391553 1_565
B17 O53 1.386749 1_555
B17 O49 1.390082 1_555
B17 O57 1.391553 1_545
B18 O54 1.386749 1_555
B18 O50 1.390082 1_555
B18 O58 1.391553 1_555
B19 O55 1.386749 1_555
B19 O51 1.390082 1_555
B19 O59 1.391553 1_555
