# generated using pymatgen
data_NaMg2Cd
_symmetry_space_group_name_H-M   'P 1'
_cell_length_a   12.48789659
_cell_length_b   12.59091933
_cell_length_c   12.59091931
_cell_angle_alpha   60.19344641
_cell_angle_beta   60.27030040
_cell_angle_gamma   60.27029859
_symmetry_Int_Tables_number   1
_chemical_formula_structural   NaMg2Cd
_chemical_formula_sum   'Na1 Mg2 Cd1'
_cell_volume   1407.62687241
_cell_formula_units_Z   1
loop_
 _symmetry_equiv_pos_site_id
 _symmetry_equiv_pos_as_xyz
  1  'x, y, z'
loop_
 _atom_site_type_symbol
 _atom_site_label
 _atom_site_symmetry_multiplicity
 _atom_site_fract_x
 _atom_site_fract_y
 _atom_site_fract_z
 _atom_site_occupancy
  Na  Na0  1  0.00000000  -0.00000000  -0.00000000  1
  Mg  Mg0  1  0.74552140  1.00000000  -0.00000000  1
  Mg  Mg1  1  0.25447860  0.00000000  0.00000000  1
  Cd  Cd0  1  0.50000000  -0.00000000  -0.00000000  1
loop_
_geom_bond_atom_site_label_1
_geom_bond_atom_site_label_2
_geom_bond_distance
_geom_bond_site_symmetry_2
Mg0 Na0 3.177902 1_665
Mg1 Na0 3.177902 1_555
Cd0 Mg0 3.066046 1_545
Cd0 Mg1 3.066046 1_555
