# generated using pymatgen
data_LiNdGe2
_symmetry_space_group_name_H-M   'P 1'
_cell_length_a   3.94537513
_cell_length_b   7.82230377
_cell_length_c   10.67519610
_cell_angle_alpha   90.00000000
_cell_angle_beta   90.00000000
_cell_angle_gamma   90.00000000
_symmetry_Int_Tables_number   1
_chemical_formula_structural   LiNdGe2
_chemical_formula_sum   'Li4 Nd4 Ge8'
_cell_volume   329.45707742
_cell_formula_units_Z   4
loop_
 _symmetry_equiv_pos_site_id
 _symmetry_equiv_pos_as_xyz
  1  'x, y, z'
loop_
 _atom_site_type_symbol
 _atom_site_label
 _atom_site_symmetry_multiplicity
 _atom_site_fract_x
 _atom_site_fract_y
 _atom_site_fract_z
 _atom_site_occupancy
  Li  Li0  1  0.25000000  0.49095345  0.38997620  1
  Li  Li1  1  0.25000000  0.99095345  0.11002380  1
  Li  Li2  1  0.75000000  0.50904655  0.61002380  1
  Li  Li3  1  0.75000000  0.00904655  0.88997620  1
  Nd  Nd0  1  0.25000000  0.13977548  0.63513975  1
  Nd  Nd1  1  0.25000000  0.63977548  0.86486025  1
  Nd  Nd2  1  0.75000000  0.86022452  0.36486025  1
  Nd  Nd3  1  0.75000000  0.36022452  0.13513975  1
  Ge  Ge0  1  0.25000000  0.22236805  0.93194041  1
  Ge  Ge1  1  0.25000000  0.72236805  0.56805959  1
  Ge  Ge2  1  0.75000000  0.77763195  0.06805959  1
  Ge  Ge3  1  0.75000000  0.27763195  0.43194041  1
  Ge  Ge4  1  0.25000000  0.15622048  0.31691967  1
  Ge  Ge5  1  0.25000000  0.65622048  0.18308033  1
  Ge  Ge6  1  0.75000000  0.84377952  0.68308033  1
  Ge  Ge7  1  0.75000000  0.34377952  0.81691967  1
loop_
_geom_bond_atom_site_label_1
_geom_bond_atom_site_label_2
_geom_bond_distance
_geom_bond_site_symmetry_2
Ge0 Ge7 2.510203 1_555
Ge0 Ge7 2.510203 1_455
Ge0 Li3 2.622332 1_555
Ge0 Li3 2.622332 1_455
Ge0 Li1 2.625051 1_546
Ge0 Nd3 3.124059 1_556
Ge0 Nd3 3.124059 1_456
Ge0 Nd0 3.233603 1_555
Ge0 Nd1 3.342692 1_555
Ge1 Ge6 2.510203 1_555
Ge1 Ge6 2.510203 1_455
Ge1 Li2 2.622332 1_555
Ge1 Li2 2.622332 1_455
Ge1 Li0 2.625051 1_555
Ge1 Nd2 3.124059 1_455
Ge1 Nd2 3.124059 1_555
Ge1 Nd1 3.233603 1_555
Ge1 Nd0 3.342692 1_565
Ge2 Ge5 2.510203 1_655
Ge2 Ge5 2.510203 1_555
Ge2 Li1 2.622332 1_555
Ge2 Li1 2.622332 1_655
Ge2 Li3 2.625051 1_564
Ge2 Nd1 3.124059 1_554
Ge2 Nd1 3.124059 1_654
Ge2 Nd2 3.233603 1_555
Ge2 Nd3 3.342692 1_555
Ge3 Ge4 2.510203 1_655
Ge3 Ge4 2.510203 1_555
Ge3 Li0 2.622332 1_555
Ge3 Li0 2.622332 1_655
Ge3 Li2 2.625051 1_555
Ge3 Nd0 3.124059 1_555
Ge3 Nd0 3.124059 1_655
Ge3 Nd3 3.233603 1_555
Ge3 Nd2 3.342692 1_545
Ge4 Li1 2.559180 1_545
Ge4 Li0 2.732062 1_555
Ge4 Nd2 3.084534 1_545
Ge4 Nd2 3.084534 1_445
Ge4 Nd3 3.194322 1_555
Ge4 Nd3 3.194322 1_455
Ge4 Nd0 3.399496 1_555
Ge5 Li0 2.559180 1_555
Ge5 Li1 2.732062 1_555
Ge5 Nd3 3.084534 1_455
Ge5 Nd3 3.084534 1_555
Ge5 Nd2 3.194322 1_455
Ge5 Nd2 3.194322 1_555
Ge5 Nd1 3.399496 1_554
Ge6 Li3 2.559180 1_565
Ge6 Li2 2.732062 1_555
Ge6 Nd0 3.084534 1_565
Ge6 Nd0 3.084534 1_665
Ge6 Nd1 3.194322 1_655
Ge6 Nd1 3.194322 1_555
Ge6 Nd2 3.399496 1_555
Ge7 Li2 2.559180 1_555
Ge7 Li3 2.732062 1_555
Ge7 Nd1 3.084534 1_655
Ge7 Nd1 3.084534 1_555
Ge7 Nd0 3.194322 1_655
Ge7 Nd0 3.194322 1_555
Ge7 Nd3 3.399496 1_556
