# generated using pymatgen
data_Na12Mg5Al2Si29O72
_symmetry_space_group_name_H-M   'P 1'
_cell_length_a   5.34409678
_cell_length_b   8.71760600
_cell_length_c   27.93063075
_cell_angle_alpha   90.00000000
_cell_angle_beta   104.12927271
_cell_angle_gamma   90.00000000
_symmetry_Int_Tables_number   1
_chemical_formula_structural   Na12Mg5Al2Si29O72
_chemical_formula_sum   'Na12 Mg5 Al2 Si29 O72'
_cell_volume   1261.85929112
_cell_formula_units_Z   1
loop_
 _symmetry_equiv_pos_site_id
 _symmetry_equiv_pos_as_xyz
  1  'x, y, z'
loop_
 _atom_site_type_symbol
 _atom_site_label
 _atom_site_symmetry_multiplicity
 _atom_site_fract_x
 _atom_site_fract_y
 _atom_site_fract_z
 _atom_site_occupancy
  Na  Na0  1  0.00000000  0.54011100  0.75000000  1
  Na  Na1  1  0.00015300  0.53804200  0.41668800  1
  Na  Na2  1  0.49735000  0.04463500  0.91617200  1
  Na  Na3  1  0.50000000  0.95701400  0.75000000  1
  Na  Na4  1  0.99984700  0.53804200  0.08331200  1
  Na  Na5  1  0.50265000  0.04463500  0.58382800  1
  Na  Na6  1  0.49981200  0.95411100  0.41670900  1
  Na  Na7  1  0.00303000  0.46055800  0.91755300  1
  Na  Na8  1  0.50000000  0.04579100  0.25000000  1
  Na  Na9  1  0.50018800  0.95411100  0.08329100  1
  Na  Na10  1  0.99697000  0.46055800  0.58244700  1
  Na  Na11  1  0.00000000  0.46184100  0.25000000  1
  Mg  Mg0  1  0.50086200  0.65400600  0.91723100  1
  Mg  Mg1  1  0.49913800  0.65400600  0.58276900  1
  Mg  Mg2  1  0.49983400  0.34617900  0.41664400  1
  Mg  Mg3  1  0.50000000  0.65368800  0.25000000  1
  Mg  Mg4  1  0.50016600  0.34617900  0.08335600  1
  Al  Al0  1  0.00000000  0.15483200  0.75000000  1
  Al  Al1  1  0.50000000  0.34692900  0.75000000  1
  Si  Si0  1  0.18507100  0.15074600  0.98500800  1
  Si  Si1  1  0.18463200  0.84561500  0.81895800  1
  Si  Si2  1  0.30593000  0.33674700  0.84649700  1
  Si  Si3  1  0.00005400  0.15288700  0.41673900  1
  Si  Si4  1  0.19046100  0.15410300  0.65161100  1
  Si  Si5  1  0.30211600  0.66249500  0.68005400  1
  Si  Si6  1  0.18482900  0.84855400  0.48523600  1
  Si  Si7  1  0.29798800  0.33290400  0.51262700  1
  Si  Si8  1  0.99994600  0.15288700  0.08326100  1
  Si  Si9  1  0.18473100  0.15126900  0.31831400  1
  Si  Si10  1  0.70201200  0.33290400  0.98737300  1
  Si  Si11  1  0.29808300  0.66658400  0.34590000  1
  Si  Si12  1  0.18459500  0.84865700  0.15159500  1
  Si  Si13  1  0.69788400  0.66249500  0.81994600  1
  Si  Si14  1  0.29801300  0.33338900  0.17921700  1
  Si  Si15  1  0.80953900  0.15410300  0.84838900  1
  Si  Si16  1  0.69407000  0.33674700  0.65350300  1
  Si  Si17  1  0.29754700  0.66636400  0.01266200  1
  Si  Si18  1  0.81536800  0.84561500  0.68104200  1
  Si  Si19  1  0.00043300  0.84591600  0.91633600  1
  Si  Si20  1  0.70245300  0.66636400  0.48733800  1
  Si  Si21  1  0.81492900  0.15074600  0.51499200  1
  Si  Si22  1  0.70198700  0.33338900  0.32078300  1
  Si  Si23  1  0.81540500  0.84865700  0.34840500  1
  Si  Si24  1  0.99956700  0.84591600  0.58366400  1
  Si  Si25  1  0.70191700  0.66658400  0.15410000  1
  Si  Si26  1  0.81526900  0.15126900  0.18168600  1
  Si  Si27  1  0.81517100  0.84855400  0.01476400  1
  Si  Si28  1  0.00000000  0.84703300  0.25000000  1
  O  O0  1  0.08786100  0.24069400  0.86840600  1
  O  O1  1  0.17889200  0.98427300  0.95821700  1
  O  O2  1  0.19687100  0.69226200  0.95228400  1
  O  O3  1  0.08865700  0.75427500  0.70394200  1
  O  O4  1  0.24017100  0.83858700  0.87993600  1
  O  O5  1  0.17907500  0.01339300  0.79525000  1
  O  O6  1  0.23356500  0.32010100  0.78541700  1
  O  O7  1  0.31011400  0.50607900  0.86763900  1
  O  O8  1  0.42374900  0.23991600  0.96932200  1
  O  O9  1  0.08970000  0.23773900  0.53750600  1
  O  O10  1  0.26683800  0.17142300  0.71225600  1
  O  O11  1  0.17929300  0.98432800  0.62606800  1
  O  O12  1  0.20184100  0.68815500  0.61955600  1
  O  O13  1  0.32227000  0.49196900  0.70352800  1
  O  O14  1  0.42065600  0.75400500  0.80215800  1
  O  O15  1  0.09107400  0.76220000  0.37101800  1
  O  O16  1  0.24044100  0.84238600  0.54634400  1
  O  O17  1  0.17990300  0.01532900  0.45875500  1
  O  O18  1  0.19921500  0.30631400  0.45210600  1
  O  O19  1  0.30977400  0.50360800  0.53274300  1
  O  O20  1  0.41955700  0.24327700  0.63228300  1
  O  O21  1  0.58044300  0.24327700  0.86771700  1
  O  O22  1  0.09084400  0.23781100  0.20431100  1
  O  O23  1  0.24041000  0.15655700  0.37923800  1
  O  O24  1  0.69022600  0.50360800  0.96725700  1
  O  O25  1  0.17972000  0.98452000  0.29180800  1
  O  O26  1  0.19911000  0.69318600  0.28541200  1
  O  O27  1  0.31056100  0.49623000  0.36643200  1
  O  O28  1  0.75955900  0.84238600  0.95365600  1
  O  O29  1  0.42469400  0.76004200  0.46977900  1
  O  O30  1  0.57934400  0.75400500  0.69784200  1
  O  O31  1  0.09057800  0.76234300  0.03768600  1
  O  O32  1  0.24034000  0.84327200  0.21251200  1
  O  O33  1  0.67773000  0.49196900  0.79647200  1
  O  O34  1  0.17947300  0.01539900  0.12506500  1
  O  O35  1  0.19904100  0.30676500  0.11872100  1
  O  O36  1  0.79815900  0.68815500  0.88044400  1
  O  O37  1  0.82070700  0.98432800  0.87393200  1
  O  O38  1  0.31066900  0.50370000  0.19976000  1
  O  O39  1  0.73316200  0.17142300  0.78774400  1
  O  O40  1  0.91030000  0.23773900  0.96249400  1
  O  O41  1  0.42422200  0.24008400  0.30280300  1
  O  O42  1  0.57625100  0.23991600  0.53067800  1
  O  O43  1  0.24075300  0.15635200  0.04590000  1
  O  O44  1  0.68988600  0.50607900  0.63236100  1
  O  O45  1  0.76643500  0.32010100  0.71458300  1
  O  O46  1  0.82092500  0.01339300  0.70475000  1
  O  O47  1  0.31084900  0.49620800  0.03328600  1
  O  O48  1  0.75982900  0.83858700  0.62006400  1
  O  O49  1  0.91134300  0.75427500  0.79605800  1
  O  O50  1  0.42413800  0.75983700  0.13609500  1
  O  O51  1  0.57586200  0.75983700  0.36390500  1
  O  O52  1  0.68915100  0.49620800  0.46671400  1
  O  O53  1  0.80312900  0.69226200  0.54771600  1
  O  O54  1  0.82110800  0.98427300  0.54178300  1
  O  O55  1  0.75924700  0.15635200  0.45410000  1
  O  O56  1  0.91213900  0.24069400  0.63159400  1
  O  O57  1  0.57577800  0.24008400  0.19719700  1
  O  O58  1  0.68933100  0.50370000  0.30024000  1
  O  O59  1  0.80095900  0.30676500  0.38127900  1
  O  O60  1  0.82052700  0.01539900  0.37493500  1
  O  O61  1  0.75966000  0.84327200  0.28748800  1
  O  O62  1  0.90942200  0.76234300  0.46231400  1
  O  O63  1  0.57530600  0.76004200  0.03022100  1
  O  O64  1  0.68943900  0.49623000  0.13356800  1
  O  O65  1  0.80089000  0.69318600  0.21458800  1
  O  O66  1  0.82028000  0.98452000  0.20819200  1
  O  O67  1  0.75959000  0.15655700  0.12076200  1
  O  O68  1  0.90915600  0.23781100  0.29568900  1
  O  O69  1  0.80078500  0.30631400  0.04789400  1
  O  O70  1  0.82009700  0.01532900  0.04124500  1
  O  O71  1  0.90892600  0.76220000  0.12898200  1
loop_
_geom_bond_atom_site_label_1
_geom_bond_atom_site_label_2
_geom_bond_distance
_geom_bond_site_symmetry_2
Na0 O6 2.369027 1_555
Na0 O45 2.369027 1_455
Na0 O49 2.379628 1_455
Na0 O3 2.379628 1_555
Na0 O33 2.432783 1_455
Na0 O13 2.432783 1_555
Na1 O59 2.379557 1_455
Na1 O18 2.382722 1_555
Na1 O52 2.445698 1_455
Na1 O62 2.446271 1_455
Na1 O15 2.446306 1_555
Na1 O27 2.447813 1_555
Na2 O21 2.306720 1_555
Na2 O28 2.334959 1_545
Na2 O4 2.336805 1_545
Na2 O1 2.351190 1_545
Na2 O8 2.354075 1_555
Na2 O37 2.376934 1_545
Na2 O40 2.825590 1_555
Na2 O0 2.839832 1_555
Na3 O39 2.348684 1_565
Na3 O10 2.348684 1_565
Na3 O14 2.394929 1_555
Na3 O30 2.394929 1_555
Na3 O46 2.416316 1_565
Na3 O5 2.416316 1_565
Na3 O49 2.868848 1_555
Na3 O3 2.868848 1_555
Na4 O35 2.379557 1_655
Na4 O69 2.382722 1_555
Na4 O47 2.445698 1_655
Na4 O31 2.446271 1_655
Na4 O71 2.446306 1_555
Na4 O64 2.447813 1_555
Na5 O20 2.306720 1_555
Na5 O16 2.334959 1_545
Na5 O48 2.336805 1_545
Na5 O54 2.351190 1_545
Na5 O42 2.354075 1_555
Na5 O11 2.376934 1_545
Na5 O9 2.825590 1_555
Na5 O56 2.839832 1_555
Na6 O55 2.326879 1_565
Na6 O23 2.328826 1_565
Na6 O51 2.345484 1_555
Na6 O29 2.347565 1_555
Na6 O60 2.358117 1_565
Na6 O17 2.359447 1_565
Na6 O15 2.799631 1_555
Na6 O62 2.801371 1_555
Na7 O2 2.367175 1_555
Na7 O36 2.378153 1_455
Na7 O40 2.428576 1_455
Na7 O7 2.431303 1_555
Na7 O24 2.448584 1_455
Na7 O0 2.463202 1_555
Na8 O61 2.330122 1_545
Na8 O32 2.330122 1_545
Na8 O41 2.345110 1_555
Na8 O57 2.345110 1_555
Na8 O25 2.356752 1_545
Na8 O66 2.356752 1_545
Na8 O22 2.801678 1_555
Na8 O68 2.801678 1_555
Na9 O43 2.326879 1_565
Na9 O67 2.328826 1_565
Na9 O50 2.345484 1_555
Na9 O63 2.347565 1_555
Na9 O34 2.358117 1_565
Na9 O70 2.359447 1_565
Na9 O71 2.799631 1_555
Na9 O31 2.801371 1_555
Na10 O53 2.367175 1_555
Na10 O12 2.378153 1_655
Na10 O9 2.428576 1_655
Na10 O44 2.431303 1_555
Na10 O19 2.448584 1_655
Na10 O56 2.463202 1_555
Na11 O65 2.379929 1_455
Na11 O26 2.379929 1_555
Na11 O68 2.445583 1_455
Na11 O22 2.445583 1_555
Na11 O38 2.448685 1_555
Na11 O58 2.448685 1_455
Mg0 O7 1.982766 1_555
Mg0 O24 2.001275 1_555
Mg0 O36 2.113191 1_555
Mg0 O2 2.117896 1_555
Mg0 O4 2.215102 1_555
Mg0 O28 2.226334 1_555
Mg1 O44 1.982766 1_555
Mg1 O19 2.001275 1_555
Mg1 O12 2.113191 1_555
Mg1 O53 2.117896 1_555
Mg1 O48 2.215102 1_555
Mg1 O16 2.226334 1_555
Mg2 O52 1.999792 1_555
Mg2 O27 2.002125 1_555
Mg2 O59 2.111742 1_555
Mg2 O18 2.111789 1_555
Mg2 O23 2.244777 1_555
Mg2 O55 2.246504 1_555
Mg3 O58 2.002321 1_555
Mg3 O38 2.002321 1_555
Mg3 O26 2.111619 1_555
Mg3 O65 2.111619 1_555
Mg3 O61 2.245891 1_555
Mg3 O32 2.245891 1_555
Mg4 O47 1.999792 1_555
Mg4 O64 2.002125 1_555
Mg4 O35 2.111742 1_555
Mg4 O69 2.111789 1_555
Mg4 O67 2.244777 1_555
Mg4 O43 2.246504 1_555
Al0 O46 1.855529 1_455
Al0 O5 1.855529 1_555
Al0 O10 1.974775 1_555
Al0 O39 1.974775 1_455
Al0 O6 2.002368 1_555
Al0 O45 2.002368 1_455
Al1 O33 1.893074 1_555
Al1 O13 1.893074 1_555
Al1 O6 1.936046 1_555
Al1 O45 1.936046 1_555
Al1 O39 2.088908 1_555
Al1 O10 2.088908 1_555
O0 Si15 1.639728 1_455
O0 Si2 1.667903 1_555
O1 Si0 1.629441 1_565
O1 Si19 1.785500 1_555
O2 Si17 1.655717 1_556
O2 Si19 1.841143 1_555
O3 Si18 1.649268 1_455
O3 Si5 1.660789 1_555
O4 Si1 1.657040 1_555
O4 Si19 1.820734 1_555
O5 Si1 1.602819 1_545
O6 Si2 1.661010 1_555
O7 Si2 1.588028 1_555
O8 Si0 1.641950 1_555
O8 Si10 1.660313 1_555
O9 Si21 1.635833 1_455
O9 Si7 1.669662 1_555
O10 Si4 1.649543 1_555
O11 Si4 1.637758 1_565
O11 Si24 1.796051 1_455
O12 Si5 1.658423 1_555
O12 Si24 1.880388 1_455
O13 Si5 1.617686 1_555
O14 Si13 1.648884 1_555
O14 Si1 1.654660 1_555
O15 Si23 1.637994 1_455
O15 Si11 1.670254 1_555
O16 Si6 1.660326 1_555
O16 Si24 1.843801 1_455
O17 Si6 1.628498 1_545
O17 Si3 1.785582 1_555
O18 Si7 1.659563 1_555
O18 Si3 1.839633 1_555
O19 Si7 1.586474 1_555
O20 Si4 1.648447 1_555
O20 Si16 1.656168 1_555
O21 Si15 1.648447 1_555
O21 Si2 1.656168 1_555
O22 Si26 1.637986 1_455
O22 Si14 1.670353 1_555
O23 Si9 1.655011 1_555
O23 Si3 1.845233 1_555
O24 Si10 1.586474 1_555
O25 Si9 1.628567 1_565
O25 Si28 1.781856 1_555
O26 Si11 1.658785 1_555
O26 Si28 1.842672 1_555
O27 Si11 1.587484 1_555
O28 Si27 1.660326 1_556
O28 Si19 1.843801 1_655
O29 Si6 1.641684 1_555
O29 Si20 1.659933 1_555
O30 Si5 1.648884 1_555
O30 Si18 1.654660 1_555
O31 Si27 1.637339 1_455
O31 Si17 1.670147 1_555
O32 Si12 1.654817 1_555
O32 Si28 1.844908 1_555
O33 Si13 1.617686 1_555
O34 Si12 1.628758 1_545
O34 Si8 1.781413 1_455
O35 Si14 1.659022 1_555
O35 Si8 1.843364 1_455
O36 Si13 1.658423 1_555
O36 Si19 1.880388 1_655
O37 Si15 1.637758 1_565
O37 Si19 1.796051 1_655
O38 Si14 1.587198 1_555
O39 Si15 1.649543 1_555
O40 Si0 1.635833 1_655
O40 Si10 1.669662 1_555
O41 Si9 1.641925 1_555
O41 Si22 1.659312 1_555
O42 Si21 1.641950 1_555
O42 Si7 1.660313 1_555
O43 Si0 1.654209 1_554
O43 Si8 1.844335 1_455
O44 Si16 1.588028 1_555
O45 Si16 1.661010 1_555
O46 Si18 1.602819 1_545
O47 Si17 1.586575 1_555
O48 Si18 1.657040 1_555
O48 Si24 1.820734 1_555
O49 Si1 1.649268 1_655
O49 Si13 1.660789 1_555
O50 Si12 1.642040 1_555
O50 Si25 1.659210 1_555
O51 Si23 1.642040 1_555
O51 Si11 1.659210 1_555
O52 Si20 1.586575 1_555
O53 Si20 1.655717 1_555
O53 Si24 1.841143 1_555
O54 Si21 1.629441 1_565
O54 Si24 1.785500 1_555
O55 Si21 1.654209 1_555
O55 Si3 1.844335 1_655
O56 Si4 1.639728 1_655
O56 Si16 1.667903 1_555
O57 Si26 1.641925 1_555
O57 Si14 1.659312 1_555
O58 Si22 1.587198 1_555
O59 Si22 1.659022 1_555
O59 Si3 1.843364 1_655
O60 Si23 1.628758 1_545
O60 Si3 1.781413 1_655
O61 Si23 1.654817 1_555
O61 Si28 1.844908 1_655
O62 Si6 1.637339 1_655
O62 Si20 1.670147 1_555
O63 Si27 1.641684 1_555
O63 Si17 1.659933 1_555
O64 Si25 1.587484 1_555
O65 Si25 1.658785 1_555
O65 Si28 1.842672 1_655
O66 Si26 1.628567 1_565
O66 Si28 1.781856 1_655
O67 Si26 1.655011 1_555
O67 Si8 1.845233 1_555
O68 Si9 1.637986 1_655
O68 Si22 1.670353 1_555
O69 Si10 1.659563 1_554
O69 Si8 1.839633 1_555
O70 Si27 1.628498 1_545
O70 Si8 1.785582 1_555
O71 Si12 1.637994 1_655
O71 Si25 1.670254 1_555
