# generated using pymatgen
data_PuMoC2
_symmetry_space_group_name_H-M   'P 1'
_cell_length_a   3.31848419
_cell_length_b   5.70684319
_cell_length_c   10.90615025
_cell_angle_alpha   89.99700590
_cell_angle_beta   90.00000000
_cell_angle_gamma   90.00000000
_symmetry_Int_Tables_number   1
_chemical_formula_structural   PuMoC2
_chemical_formula_sum   'Pu4 Mo4 C8'
_cell_volume   206.54142457
_cell_formula_units_Z   4
loop_
 _symmetry_equiv_pos_site_id
 _symmetry_equiv_pos_as_xyz
  1  'x, y, z'
loop_
 _atom_site_type_symbol
 _atom_site_label
 _atom_site_symmetry_multiplicity
 _atom_site_fract_x
 _atom_site_fract_y
 _atom_site_fract_z
 _atom_site_occupancy
  Pu  Pu0  1  0.25000000  0.58346550  0.86020963  1
  Pu  Pu1  1  0.75000000  0.41678791  0.14009550  1
  Pu  Pu2  1  0.75000000  0.91797079  0.35980061  1
  Pu  Pu3  1  0.25000000  0.08133916  0.63927902  1
  Mo  Mo0  1  0.25000000  0.91448492  0.10533600  1
  Mo  Mo1  1  0.75000000  0.09088544  0.89308957  1
  Mo  Mo2  1  0.75000000  0.58323301  0.60522510  1
  Mo  Mo3  1  0.25000000  0.41575578  0.39413728  1
  C  C0  1  0.25000000  0.66287383  0.24670247  1
  C  C1  1  0.75000000  0.33265670  0.75539636  1
  C  C2  1  0.75000000  0.83676967  0.74590811  1
  C  C3  1  0.25000000  0.16238537  0.25430838  1
  C  C4  1  0.25000000  0.73470023  0.51273342  1
  C  C5  1  0.75000000  0.26895900  0.48691146  1
  C  C6  1  0.75000000  0.76821731  0.01317781  1
  C  C7  1  0.25000000  0.22951440  0.98768828  1
loop_
_geom_bond_atom_site_label_1
_geom_bond_atom_site_label_2
_geom_bond_distance
_geom_bond_site_symmetry_2
C0 Mo0 2.106805 1_555
C0 Mo3 2.138714 1_555
C0 Pu1 2.465223 1_455
C0 Pu1 2.465223 1_555
C0 Pu2 2.528647 1_455
C0 Pu2 2.528647 1_555
C1 Mo1 2.039266 1_555
C1 Mo2 2.174169 1_555
C1 Pu0 2.471568 1_655
C1 Pu0 2.471568 1_555
C1 Pu3 2.532596 1_555
C1 Pu3 2.532596 1_655
C2 Mo2 2.108991 1_555
C2 Mo1 2.163315 1_565
C2 Pu3 2.460348 1_665
C2 Pu3 2.460348 1_565
C2 Pu0 2.529139 1_555
C2 Pu0 2.529139 1_655
C3 Mo3 2.101570 1_555
C3 Mo0 2.154390 1_545
C3 Pu2 2.454010 1_445
C3 Pu2 2.454010 1_545
C3 Pu1 2.532251 1_455
C3 Pu1 2.532251 1_555
C4 Mo2 2.125491 1_455
C4 Mo2 2.125491 1_555
C4 Mo3 2.232981 1_555
C4 Pu3 2.412128 1_565
C4 Pu2 2.574630 1_455
C4 Pu2 2.574630 1_555
C5 Mo3 2.116264 1_655
C5 Mo3 2.116264 1_555
C5 Mo2 2.209507 1_555
C5 Pu2 2.436029 1_545
C5 Pu3 2.580838 1_655
C5 Pu3 2.580838 1_555
C6 Mo0 2.111906 1_555
C6 Mo0 2.111906 1_655
C6 Mo1 2.259619 1_564
C6 Pu1 2.436784 1_555
C6 Pu0 2.578396 1_554
C6 Pu0 2.578396 1_654
C7 Mo1 2.107957 1_555
C7 Mo1 2.107957 1_455
C7 Mo0 2.208672 1_546
C7 Pu0 2.452104 1_555
C7 Pu1 2.580369 1_456
C7 Pu1 2.580369 1_556
