# generated using pymatgen
data_Sc2Si4W3
_symmetry_space_group_name_H-M   'P 1'
_cell_length_a   6.58031600
_cell_length_b   6.78902600
_cell_length_c   12.66228200
_cell_angle_alpha   90.00000000
_cell_angle_beta   90.00000000
_cell_angle_gamma   90.00000000
_symmetry_Int_Tables_number   1
_chemical_formula_structural   Sc2Si4W3
_chemical_formula_sum   'Sc8 Si16 W12'
_cell_volume   565.67398090
_cell_formula_units_Z   4
loop_
 _symmetry_equiv_pos_site_id
 _symmetry_equiv_pos_as_xyz
  1  'x, y, z'
loop_
 _atom_site_type_symbol
 _atom_site_label
 _atom_site_symmetry_multiplicity
 _atom_site_fract_x
 _atom_site_fract_y
 _atom_site_fract_z
 _atom_site_occupancy
  Sc  Sc0  1  0.49310900  0.66953000  0.59241900  1
  Sc  Sc1  1  0.99310900  0.83047000  0.90758100  1
  Sc  Sc2  1  0.50689100  0.33047000  0.09241900  1
  Sc  Sc3  1  0.00689100  0.16953000  0.40758100  1
  Sc  Sc4  1  0.50689100  0.33047000  0.40758100  1
  Sc  Sc5  1  0.00689100  0.16953000  0.09241900  1
  Sc  Sc6  1  0.49310900  0.66953000  0.90758100  1
  Sc  Sc7  1  0.99310900  0.83047000  0.59241900  1
  Si  Si0  1  0.66817000  0.96271400  0.45562500  1
  Si  Si1  1  0.16817000  0.53728600  0.04437500  1
  Si  Si2  1  0.33183000  0.03728600  0.95562500  1
  Si  Si3  1  0.83183000  0.46271400  0.54437500  1
  Si  Si4  1  0.33183000  0.03728600  0.54437500  1
  Si  Si5  1  0.83183000  0.46271400  0.95562500  1
  Si  Si6  1  0.66817000  0.96271400  0.04437500  1
  Si  Si7  1  0.16817000  0.53728600  0.45562500  1
  Si  Si8  1  0.46372800  0.38153500  0.75000000  1
  Si  Si9  1  0.96372800  0.11846500  0.75000000  1
  Si  Si10  1  0.53627200  0.61846500  0.25000000  1
  Si  Si11  1  0.03627200  0.88153500  0.25000000  1
  Si  Si12  1  0.69733700  0.85705400  0.75000000  1
  Si  Si13  1  0.19733700  0.64294600  0.75000000  1
  Si  Si14  1  0.30266300  0.14294600  0.25000000  1
  Si  Si15  1  0.80266300  0.35705400  0.25000000  1
  W  W0  1  0.66723900  0.16442900  0.62457400  1
  W  W1  1  0.16723900  0.33557100  0.87542600  1
  W  W2  1  0.33276100  0.83557100  0.12457400  1
  W  W3  1  0.83276100  0.66442900  0.37542600  1
  W  W4  1  0.33276100  0.83557100  0.37542600  1
  W  W5  1  0.83276100  0.66442900  0.12457400  1
  W  W6  1  0.66723900  0.16442900  0.87542600  1
  W  W7  1  0.16723900  0.33557100  0.62457400  1
  W  W8  1  0.83288300  0.50354100  0.75000000  1
  W  W9  1  0.33288300  0.99645900  0.75000000  1
  W  W10  1  0.16711700  0.49645900  0.25000000  1
  W  W11  1  0.66711700  0.00354100  0.25000000  1
loop_
_geom_bond_atom_site_label_1
_geom_bond_atom_site_label_2
_geom_bond_distance
_geom_bond_site_symmetry_2
Sc0 Si3 2.703605 1_555
Sc0 Si12 2.721798 1_555
Sc0 Si4 2.780271 1_565
Sc0 Si13 2.793191 1_555
Sc0 Si8 2.800280 1_555
Sc0 Si0 2.879077 1_555
Sc0 Si7 2.894515 1_555
Sc1 Si2 2.703605 1_665
Sc1 Si13 2.721798 1_655
Sc1 Si5 2.780271 1_555
Sc1 Si12 2.793191 1_555
Sc1 Si9 2.800280 1_565
Sc1 Si1 2.879077 1_656
Sc1 Si6 2.894515 1_556
Sc2 Si1 2.703605 1_555
Sc2 Si14 2.721798 1_555
Sc2 Si6 2.780271 1_545
Sc2 Si15 2.793191 1_555
Sc2 Si10 2.800280 1_555
Sc2 Si2 2.879077 1_554
Sc2 Si5 2.894515 1_554
Sc3 Si0 2.703605 1_445
Sc3 Si15 2.721798 1_455
Sc3 Si7 2.780271 1_555
Sc3 Si14 2.793191 1_555
Sc3 Si11 2.800280 1_545
Sc3 Si3 2.879077 1_455
Sc3 Si4 2.894515 1_555
Sc4 Si7 2.703605 1_555
Sc4 Si14 2.721798 1_555
Sc4 Si0 2.780271 1_545
Sc4 Si15 2.793191 1_555
Sc4 Si10 2.800280 1_555
Sc4 Si4 2.879077 1_555
Sc4 Si3 2.894515 1_555
Sc5 Si6 2.703605 1_445
Sc5 Si15 2.721798 1_455
Sc5 Si1 2.780271 1_555
Sc5 Si14 2.793191 1_555
Sc5 Si11 2.800280 1_545
Sc5 Si5 2.879077 1_454
Sc5 Si2 2.894515 1_554
Sc6 Si5 2.703605 1_555
Sc6 Si12 2.721798 1_555
Sc6 Si2 2.780271 1_565
Sc6 Si13 2.793191 1_555
Sc6 Si8 2.800280 1_555
Sc6 Si6 2.879077 1_556
Sc6 Si1 2.894515 1_556
Sc7 Si4 2.703605 1_665
Sc7 Si13 2.721798 1_655
Sc7 Si3 2.780271 1_555
Sc7 Si12 2.793191 1_555
Sc7 Si9 2.800280 1_565
Sc7 Si7 2.879077 1_655
Sc7 Si0 2.894515 1_555
Si0 W3 2.511006 1_555
Si0 Si4 2.533287 1_565
Si0 W0 2.540068 1_565
Si0 W4 2.578294 1_555
Si0 W11 2.618403 1_565
Si1 W2 2.511006 1_555
Si1 Si5 2.533287 1_454
Si1 W1 2.540068 1_554
Si1 W5 2.578294 1_455
Si1 W10 2.618403 1_555
Si2 W1 2.511006 1_555
Si2 Si6 2.533287 1_546
Si2 W2 2.540068 1_546
Si2 W6 2.578294 1_555
Si2 W9 2.618403 1_545
Si3 W0 2.511006 1_555
Si3 Si7 2.533287 1_655
Si3 W3 2.540068 1_555
Si3 W7 2.578294 1_655
Si3 W8 2.618403 1_555
Si4 W7 2.511006 1_555
Si4 W4 2.540068 1_545
Si4 W0 2.578294 1_555
Si4 W9 2.618403 1_545
Si5 W6 2.511006 1_555
Si5 W5 2.540068 1_556
Si5 W1 2.578294 1_655
Si5 W8 2.618403 1_555
Si6 W5 2.511006 1_555
Si6 W6 2.540068 1_564
Si6 W2 2.578294 1_555
Si6 W11 2.618403 1_565
Si7 W4 2.511006 1_555
Si7 W7 2.540068 1_555
Si7 W3 2.578294 1_455
Si7 W10 2.618403 1_555
Si8 W1 2.534967 1_555
Si8 W7 2.534967 1_555
Si8 W6 2.547190 1_555
Si8 W0 2.547190 1_555
Si8 W8 2.566493 1_555
Si8 W9 2.752425 1_545
Si9 W0 2.534967 1_555
Si9 W6 2.534967 1_555
Si9 W7 2.547190 1_655
Si9 W1 2.547190 1_655
Si9 W9 2.566493 1_645
Si9 W8 2.752425 1_555
Si10 Si15 2.494482 1_555
Si10 W3 2.534967 1_555
Si10 W5 2.534967 1_555
Si10 W2 2.547190 1_555
Si10 W4 2.547190 1_555
Si10 W10 2.566493 1_555
Si10 W11 2.752425 1_565
Si11 Si14 2.494482 1_565
Si11 W2 2.534967 1_555
Si11 W4 2.534967 1_555
Si11 W5 2.547190 1_455
Si11 W3 2.547190 1_455
Si11 W11 2.566493 1_465
Si11 W10 2.752425 1_555
Si12 Si9 2.494482 1_565
Si12 W8 2.560389 1_555
Si12 W9 2.578214 1_555
Si12 W0 2.629863 1_565
Si12 W6 2.629863 1_565
Si13 Si8 2.494482 1_555
Si13 W9 2.560389 1_555
Si13 W8 2.578214 1_455
Si13 W1 2.629863 1_555
Si13 W7 2.629863 1_555
Si14 W10 2.560389 1_555
Si14 W11 2.578214 1_555
Si14 W2 2.629863 1_545
Si14 W4 2.629863 1_545
Si15 W11 2.560389 1_555
Si15 W10 2.578214 1_655
Si15 W5 2.629863 1_555
Si15 W3 2.629863 1_555
