# generated using pymatgen
data_K2Ga2Sb3
_symmetry_space_group_name_H-M   'P 1'
_cell_length_a   7.24829128
_cell_length_b   14.86368011
_cell_length_c   16.70091518
_cell_angle_alpha   89.48160111
_cell_angle_beta   90.00000000
_cell_angle_gamma   90.00000000
_symmetry_Int_Tables_number   1
_chemical_formula_structural   K2Ga2Sb3
_chemical_formula_sum   'K16 Ga16 Sb24'
_cell_volume   1799.22087600
_cell_formula_units_Z   8
loop_
 _symmetry_equiv_pos_site_id
 _symmetry_equiv_pos_as_xyz
  1  'x, y, z'
loop_
 _atom_site_type_symbol
 _atom_site_label
 _atom_site_symmetry_multiplicity
 _atom_site_fract_x
 _atom_site_fract_y
 _atom_site_fract_z
 _atom_site_occupancy
  K  K0  1  0.97618195  0.85655453  0.99197509  1
  K  K1  1  0.47618195  0.14344547  0.50802491  1
  K  K2  1  0.02381805  0.14344547  0.00802491  1
  K  K3  1  0.52381805  0.85655453  0.49197509  1
  K  K4  1  0.53888919  0.34774058  0.01979055  1
  K  K5  1  0.03888919  0.65225942  0.48020945  1
  K  K6  1  0.46111081  0.65225942  0.98020945  1
  K  K7  1  0.96111081  0.34774058  0.51979055  1
  K  K8  1  0.52527069  0.07429609  0.11233218  1
  K  K9  1  0.02527069  0.92570391  0.38766782  1
  K  K10  1  0.47472931  0.92570391  0.88766782  1
  K  K11  1  0.97472931  0.07429609  0.61233218  1
  K  K12  1  0.95416699  0.55645933  0.89233547  1
  K  K13  1  0.45416699  0.44354067  0.60766453  1
  K  K14  1  0.04583301  0.44354067  0.10766453  1
  K  K15  1  0.54583301  0.55645933  0.39233547  1
  Ga  Ga0  1  0.28424992  0.31461027  0.83020415  1
  Ga  Ga1  1  0.78424992  0.68538973  0.66979585  1
  Ga  Ga2  1  0.71575008  0.68538973  0.16979585  1
  Ga  Ga3  1  0.21575008  0.31461027  0.33020415  1
  Ga  Ga4  1  0.79104054  0.90950697  0.73038066  1
  Ga  Ga5  1  0.29104054  0.09049303  0.76961934  1
  Ga  Ga6  1  0.20895946  0.09049303  0.26961934  1
  Ga  Ga7  1  0.70895946  0.90950697  0.23038066  1
  Ga  Ga8  1  0.77090936  0.18216781  0.82389287  1
  Ga  Ga9  1  0.27090936  0.81783219  0.67610713  1
  Ga  Ga10  1  0.22909064  0.81783219  0.17610713  1
  Ga  Ga11  1  0.72909064  0.18216781  0.32389287  1
  Ga  Ga12  1  0.76628780  0.40793505  0.76017696  1
  Ga  Ga13  1  0.26628780  0.59206495  0.73982304  1
  Ga  Ga14  1  0.23371220  0.59206495  0.23982304  1
  Ga  Ga15  1  0.73371220  0.40793505  0.26017696  1
  Sb  Sb0  1  0.96685626  0.02746919  0.82640910  1
  Sb  Sb1  1  0.46685626  0.97253081  0.67359090  1
  Sb  Sb2  1  0.03314374  0.97253081  0.17359090  1
  Sb  Sb3  1  0.53314374  0.02746919  0.32640910  1
  Sb  Sb4  1  0.45124872  0.16395741  0.90038725  1
  Sb  Sb5  1  0.95124872  0.83604259  0.59961275  1
  Sb  Sb6  1  0.54875128  0.83604259  0.09961275  1
  Sb  Sb7  1  0.04875128  0.16395741  0.40038725  1
  Sb  Sb8  1  0.94292566  0.32912359  0.88632766  1
  Sb  Sb9  1  0.44292566  0.67087641  0.61367234  1
  Sb  Sb10  1  0.05707434  0.67087641  0.11367234  1
  Sb  Sb11  1  0.55707434  0.32912359  0.38632766  1
  Sb  Sb12  1  0.81709317  0.25231675  0.17854594  1
  Sb  Sb13  1  0.31709317  0.74768325  0.32145406  1
  Sb  Sb14  1  0.18290683  0.74768325  0.82145406  1
  Sb  Sb15  1  0.68290683  0.25231675  0.67854594  1
  Sb  Sb16  1  0.46334127  0.47465102  0.83430470  1
  Sb  Sb17  1  0.96334127  0.52534898  0.66569530  1
  Sb  Sb18  1  0.53665873  0.52534898  0.16569530  1
  Sb  Sb19  1  0.03665873  0.47465102  0.33430470  1
  Sb  Sb20  1  0.21364343  0.24591903  0.18233637  1
  Sb  Sb21  1  0.71364343  0.75408097  0.31766363  1
  Sb  Sb22  1  0.78635657  0.75408097  0.81766363  1
  Sb  Sb23  1  0.28635657  0.24591903  0.68233637  1
loop_
_geom_bond_atom_site_label_1
_geom_bond_atom_site_label_2
_geom_bond_distance
_geom_bond_site_symmetry_2
K0 Sb10 3.462656 1_656
K0 Sb2 3.526568 1_656
K0 Sb22 3.573256 1_555
K0 Sb6 3.593474 1_556
K0 Sb14 3.613524 1_655
K0 Sb0 3.738582 1_565
K1 Sb11 3.462656 1_555
K1 Sb3 3.526568 1_555
K1 Sb23 3.573256 1_555
K1 Sb7 3.593474 1_555
K1 Sb15 3.613524 1_555
K1 Sb1 3.738582 1_545
K2 Sb8 3.462656 1_454
K2 Sb0 3.526568 1_454
K2 Sb20 3.573256 1_555
K2 Sb4 3.593474 1_554
K2 Sb12 3.613524 1_455
K2 Sb2 3.738582 1_545
K3 Sb9 3.462656 1_555
K3 Sb1 3.526568 1_555
K3 Sb21 3.573256 1_555
K3 Sb5 3.593474 1_555
K3 Sb13 3.613524 1_555
K3 Sb3 3.738582 1_565
K4 Sb4 3.455557 1_554
K4 Sb18 3.608813 1_555
K4 Sb12 3.611048 1_555
K4 Sb16 3.653590 1_554
K4 Sb8 3.692223 1_554
K4 Sb20 3.891434 1_555
K5 Sb5 3.455557 1_455
K5 Sb19 3.608813 1_555
K5 Sb13 3.611048 1_555
K5 Sb17 3.653590 1_455
K5 Sb9 3.692223 1_555
K5 Sb21 3.891434 1_455
K6 Sb6 3.455557 1_556
K6 Sb16 3.608813 1_555
K6 Sb14 3.611048 1_555
K6 Sb18 3.653590 1_556
K6 Sb10 3.692223 1_556
K6 Sb22 3.891434 1_555
K7 Sb7 3.455557 1_655
K7 Sb17 3.608813 1_555
K7 Sb15 3.611048 1_555
K7 Sb19 3.653590 1_655
K7 Sb11 3.692223 1_555
K7 Sb23 3.891434 1_655
K8 Sb6 3.553685 1_545
K8 Sb12 3.570921 1_555
K8 Sb20 3.609737 1_555
K8 Sb3 3.636661 1_555
K8 Sb4 3.808921 1_554
K8 Sb2 4.003838 1_545
K8 Sb2 4.105847 1_645
K9 Sb7 3.553685 1_565
K9 Sb13 3.570921 1_555
K9 Sb21 3.609737 1_455
K9 Sb2 3.636661 1_555
K9 Sb5 3.808921 1_455
K9 Sb3 4.003838 1_465
K9 Sb3 4.105847 1_565
K10 Sb4 3.553685 1_565
K10 Sb14 3.570921 1_555
K10 Sb22 3.609737 1_555
K10 Sb1 3.636661 1_555
K10 Sb6 3.808921 1_556
K10 Sb0 4.003838 1_565
K10 Sb0 4.105847 1_465
K11 Sb5 3.553685 1_545
K11 Sb15 3.570921 1_555
K11 Sb23 3.609737 1_655
K11 Sb0 3.636661 1_555
K11 Sb7 3.808921 1_655
K11 Sb1 4.003838 1_645
K11 Sb1 4.105847 1_545
K12 Sb8 3.382424 1_555
K12 Sb22 3.405386 1_555
K12 Sb14 3.488260 1_655
K12 Sb17 3.817969 1_555
K12 Sb16 3.885364 1_555
K12 Sb16 4.007499 1_655
K13 Sb9 3.382424 1_555
K13 Sb23 3.405386 1_555
K13 Sb15 3.488260 1_555
K13 Sb16 3.817969 1_555
K13 Sb17 3.885364 1_455
K13 Sb17 4.007499 1_555
K14 Sb10 3.382424 1_555
K14 Sb20 3.405386 1_555
K14 Sb12 3.488260 1_455
K14 Sb19 3.817969 1_555
K14 Sb18 3.885364 1_555
K14 Sb18 4.007499 1_455
K15 Sb11 3.382424 1_555
K15 Sb21 3.405386 1_555
K15 Sb13 3.488260 1_555
K15 Sb18 3.817969 1_555
K15 Sb19 3.885364 1_655
K15 Sb19 4.007499 1_555
Ga0 Sb8 2.655092 1_455
Ga0 Sb23 2.680835 1_555
Ga0 Sb16 2.711343 1_555
Ga0 Sb4 2.793894 1_555
Ga0 K4 3.701697 1_556
Ga1 Sb9 2.655092 1_555
Ga1 Sb22 2.680835 1_555
Ga1 Sb17 2.711343 1_555
Ga1 Sb5 2.793894 1_555
Ga1 K5 3.701697 1_655
Ga2 Sb10 2.655092 1_655
Ga2 Sb21 2.680835 1_555
Ga2 Sb18 2.711343 1_555
Ga2 Sb6 2.793894 1_555
Ga2 K6 3.701697 1_554
Ga3 Sb11 2.655092 1_555
Ga3 Sb20 2.680835 1_555
Ga3 Sb19 2.711343 1_555
Ga3 Sb7 2.793894 1_555
Ga3 K7 3.701697 1_455
Ga4 Sb1 2.698605 1_555
Ga4 Sb0 2.705769 1_565
Ga4 Sb5 2.711750 1_555
Ga4 Sb22 2.720690 1_555
Ga4 K11 3.401710 1_565
Ga4 K10 3.496603 1_555
Ga5 Sb0 2.698605 1_455
Ga5 Sb1 2.705769 1_545
Ga5 Sb4 2.711750 1_555
Ga5 Sb23 2.720690 1_555
Ga5 K10 3.401710 1_545
Ga5 K11 3.496603 1_455
Ga6 Sb3 2.698605 1_555
Ga6 Sb2 2.705769 1_545
Ga6 Sb7 2.711750 1_555
Ga6 Sb20 2.720690 1_555
Ga6 K9 3.401710 1_545
Ga6 K8 3.496603 1_555
Ga7 Sb2 2.698605 1_655
Ga7 Sb3 2.705769 1_565
Ga7 Sb6 2.711750 1_555
Ga7 Sb21 2.720690 1_555
Ga7 K8 3.401710 1_565
Ga7 K9 3.496603 1_655
Ga8 Sb4 2.658484 1_555
Ga8 Sb0 2.702667 1_555
Ga8 Sb15 2.709362 1_555
Ga8 Sb8 2.730243 1_555
Ga8 K2 3.621656 1_656
Ga9 Sb5 2.658484 1_455
Ga9 Sb1 2.702667 1_555
Ga9 Sb14 2.709362 1_555
Ga9 Sb9 2.730243 1_555
Ga9 K3 3.621656 1_555
Ga10 Sb6 2.658484 1_555
Ga10 Sb2 2.702667 1_555
Ga10 Sb13 2.709362 1_555
Ga10 Sb10 2.730243 1_555
Ga10 K0 3.621656 1_454
Ga11 Sb7 2.658484 1_655
Ga11 Sb3 2.702667 1_555
Ga11 Sb12 2.709362 1_555
Ga11 Sb11 2.730243 1_555
Ga11 K1 3.621656 1_555
Ga12 Sb16 2.712924 1_555
Ga12 Sb8 2.721315 1_555
Ga12 Sb17 2.743321 1_555
Ga12 Sb15 2.762462 1_555
Ga12 K12 3.418749 1_555
Ga12 K13 3.444066 1_555
Ga13 Sb17 2.712924 1_455
Ga13 Sb9 2.721315 1_555
Ga13 Sb16 2.743321 1_555
Ga13 Sb14 2.762462 1_555
Ga13 K13 3.418749 1_555
Ga13 K12 3.444066 1_455
Ga14 Sb18 2.712924 1_555
Ga14 Sb10 2.721315 1_555
Ga14 Sb19 2.743321 1_555
Ga14 Sb13 2.762462 1_555
Ga14 K14 3.418749 1_555
Ga14 K15 3.444066 1_555
Ga15 Sb19 2.712924 1_655
Ga15 Sb11 2.721315 1_555
Ga15 Sb18 2.743321 1_555
Ga15 Sb12 2.762462 1_555
Ga15 K15 3.418749 1_555
Ga15 K14 3.444066 1_655
Sb12 Sb20 2.876562 1_655
Sb13 Sb21 2.876562 1_555
Sb14 Sb22 2.876562 1_455
Sb15 Sb23 2.876562 1_555
