# generated using pymatgen
data_Zn5Cr20(GaSe10)4
_symmetry_space_group_name_H-M   'P 1'
_cell_length_a   13.02293242
_cell_length_b   13.02293242
_cell_length_c   13.02293242
_cell_angle_alpha   99.59818954
_cell_angle_beta   99.59818954
_cell_angle_gamma   131.79941191
_symmetry_Int_Tables_number   1
_chemical_formula_structural   Zn5Cr20(GaSe10)4
_chemical_formula_sum   'Zn5 Cr20 Ga4 Se40'
_cell_volume   1502.98590392
_cell_formula_units_Z   1
loop_
 _symmetry_equiv_pos_site_id
 _symmetry_equiv_pos_as_xyz
  1  'x, y, z'
loop_
 _atom_site_type_symbol
 _atom_site_label
 _atom_site_symmetry_multiplicity
 _atom_site_fract_x
 _atom_site_fract_y
 _atom_site_fract_z
 _atom_site_occupancy
  Zn  Zn0  1  0.90028700  0.70016000  0.60002800  1
  Zn  Zn1  1  0.29984000  0.89986800  0.20012700  1
  Zn  Zn2  1  0.69974100  0.09971300  0.79987300  1
  Zn  Zn3  1  0.10013200  0.30025900  0.39997200  1
  Zn  Zn4  1  0.25000000  0.75000000  0.50000000  1
  Cr  Cr0  1  0.17564400  0.52300000  0.95408100  1
  Cr  Cr1  1  0.57440000  0.72458700  0.55110000  1
  Cr  Cr2  1  0.97221900  0.92113000  0.15302300  1
  Cr  Cr3  1  0.37480800  0.12447300  0.75386700  1
  Cr  Cr4  1  0.77559800  0.32499900  0.35151900  1
  Cr  Cr5  1  0.97670000  0.42560000  0.15018700  1
  Cr  Cr6  1  0.37905900  0.62519200  0.74966500  1
  Cr  Cr7  1  0.77843700  0.82435600  0.34735600  1
  Cr  Cr8  1  0.18080500  0.02778100  0.94891100  1
  Cr  Cr9  1  0.57592100  0.22440200  0.54940000  1
  Cr  Cr10  1  0.07887000  0.23189300  0.05108900  1
  Cr  Cr11  1  0.47700000  0.43108100  0.65264400  1
  Cr  Cr12  1  0.87552700  0.62939400  0.25033500  1
  Cr  Cr13  1  0.27541300  0.82651300  0.84981300  1
  Cr  Cr14  1  0.67500100  0.02652100  0.45059900  1
  Cr  Cr15  1  0.37060600  0.62094100  0.24613300  1
  Cr  Cr16  1  0.76810700  0.81919500  0.84697700  1
  Cr  Cr17  1  0.17348700  0.02330000  0.44890000  1
  Cr  Cr18  1  0.56891900  0.22156300  0.04591900  1
  Cr  Cr19  1  0.97347900  0.42407900  0.64848100  1
  Ga  Ga0  1  0.84947700  0.55041600  0.90013700  1
  Ga  Ga1  1  0.65027900  0.94934000  0.09986300  1
  Ga  Ga2  1  0.05066000  0.15052300  0.70093900  1
  Ga  Ga3  1  0.44958400  0.34972100  0.29906100  1
  Se  Se0  1  0.62289400  0.86830500  0.26272700  1
  Se  Se1  1  0.02344200  0.06901500  0.86316000  1
  Se  Se2  1  0.42294400  0.26870100  0.46252100  1
  Se  Se3  1  0.82238900  0.46832700  0.06261400  1
  Se  Se4  1  0.22260500  0.66854800  0.66293400  1
  Se  Se5  1  0.44032800  0.77739500  0.44594200  1
  Se  Se6  1  0.83971800  0.97655800  0.04557300  1
  Se  Se7  1  0.24022500  0.17761100  0.64593700  1
  Se  Se8  1  0.63983300  0.37710600  0.24541200  1
  Se  Se9  1  0.03957700  0.57705600  0.84575600  1
  Se  Se10  1  0.53167300  0.59428800  0.35406300  1
  Se  Se11  1  0.93098500  0.79414500  0.95442700  1
  Se  Se12  1  0.33145200  0.99438600  0.55405800  1
  Se  Se13  1  0.73129900  0.19382100  0.15424400  1
  Se  Se14  1  0.13169500  0.39442100  0.75458800  1
  Se  Se15  1  0.80617900  0.96042300  0.53747900  1
  Se  Se16  1  0.20585500  0.16028200  0.13684000  1
  Se  Se17  1  0.60557900  0.36016700  0.73727300  1
  Se  Se18  1  0.00561400  0.55967200  0.33706600  1
  Se  Se19  1  0.40571200  0.75977500  0.93738600  1
  Se  Se20  1  0.12697800  0.38128400  0.23782300  1
  Se  Se21  1  0.52706800  0.58121900  0.83735700  1
  Se  Se22  1  0.92751600  0.78137200  0.43796100  1
  Se  Se23  1  0.32697900  0.98085500  0.03777700  1
  Se  Se24  1  0.72696200  0.18120100  0.63760400  1
  Se  Se25  1  0.31028900  0.47293200  0.05415100  1
  Se  Se26  1  0.71079700  0.67302100  0.65387500  1
  Se  Se27  1  0.11084500  0.87302200  0.25430600  1
  Se  Se28  1  0.51044500  0.07248400  0.85385700  1
  Se  Se29  1  0.91064200  0.27303800  0.45423900  1
  Se  Se30  1  0.21862800  0.65658900  0.14614300  1
  Se  Se31  1  0.61871600  0.85654000  0.74569400  1
  Se  Se32  1  0.01914500  0.05692200  0.34612500  1
  Se  Se33  1  0.41878100  0.25613800  0.94584900  1
  Se  Se34  1  0.81879900  0.45640300  0.54576100  1
  Se  Se35  1  0.94307800  0.28920300  0.96222300  1
  Se  Se36  1  0.34341100  0.48955500  0.56203900  1
  Se  Se37  1  0.74386200  0.68971100  0.16264300  1
  Se  Se38  1  0.14346000  0.88915500  0.76217700  1
  Se  Se39  1  0.54359700  0.08935800  0.36239600  1
loop_
_geom_bond_atom_site_label_1
_geom_bond_atom_site_label_2
_geom_bond_distance
_geom_bond_site_symmetry_2
Cr0 Se25 2.498717 1_556
Cr0 Se35 2.525183 1_455
Cr0 Se30 2.525835 1_556
Cr0 Se14 2.580085 1_555
Cr0 Se19 2.580200 1_555
Cr0 Se9 2.605008 1_555
Cr1 Se31 2.538926 1_555
Cr1 Se36 2.540126 1_555
Cr1 Se26 2.548453 1_555
Cr1 Se5 2.552314 1_555
Cr1 Se15 2.564650 1_555
Cr1 Se10 2.566427 1_555
Cr2 Se37 2.499000 1_555
Cr2 Se27 2.526001 1_655
Cr2 Se32 2.527570 1_665
Cr2 Se11 2.576607 1_554
Cr2 Se6 2.578504 1_555
Cr2 Se16 2.608143 1_665
Cr3 Se33 2.510552 1_555
Cr3 Se38 2.528162 1_545
Cr3 Se28 2.528906 1_555
Cr3 Se17 2.577001 1_555
Cr3 Se7 2.577982 1_555
Cr3 Se12 2.593192 1_545
Cr4 Se34 2.538164 1_555
Cr4 Se29 2.538513 1_555
Cr4 Se39 2.548281 1_555
Cr4 Se18 2.554330 1_655
Cr4 Se13 2.565124 1_555
Cr4 Se8 2.567738 1_555
Cr5 Se20 2.538921 1_655
Cr5 Se30 2.540132 1_655
Cr5 Se35 2.548463 1_554
Cr5 Se18 2.552303 1_655
Cr5 Se13 2.564656 1_555
Cr5 Se3 2.566443 1_555
Cr6 Se21 2.510552 1_555
Cr6 Se31 2.528161 1_555
Cr6 Se36 2.528901 1_555
Cr6 Se14 2.576995 1_555
Cr6 Se19 2.577982 1_555
Cr6 Se4 2.593204 1_555
Cr7 Se37 2.498717 1_555
Cr7 Se32 2.525183 1_665
Cr7 Se22 2.525846 1_555
Cr7 Se0 2.580070 1_555
Cr7 Se10 2.580206 1_555
Cr7 Se15 2.605008 1_555
Cr8 Se33 2.498995 1_555
Cr8 Se38 2.525989 1_545
Cr8 Se23 2.527548 1_546
Cr8 Se1 2.576618 1_555
Cr8 Se16 2.578510 1_556
Cr8 Se11 2.608149 1_445
Cr9 Se24 2.538168 1_555
Cr9 Se39 2.538502 1_555
Cr9 Se34 2.548276 1_555
Cr9 Se12 2.554335 1_545
Cr9 Se2 2.565135 1_555
Cr9 Se17 2.567749 1_555
Cr10 Se25 2.499000 1_555
Cr10 Se20 2.526001 1_555
Cr10 Se35 2.527570 1_454
Cr10 Se16 2.576607 1_555
Cr10 Se1 2.578504 1_554
Cr10 Se6 2.608143 1_445
Cr11 Se21 2.498717 1_555
Cr11 Se26 2.525189 1_555
Cr11 Se36 2.525846 1_555
Cr11 Se17 2.580080 1_555
Cr11 Se7 2.580200 1_555
Cr11 Se2 2.605002 1_555
Cr12 Se37 2.510552 1_555
Cr12 Se27 2.528156 1_655
Cr12 Se22 2.528901 1_555
Cr12 Se8 2.577001 1_555
Cr12 Se3 2.577976 1_555
Cr12 Se18 2.593192 1_655
Cr13 Se38 2.538932 1_555
Cr13 Se28 2.540121 1_565
Cr13 Se23 2.548469 1_556
Cr13 Se4 2.552297 1_555
Cr13 Se9 2.564650 1_555
Cr13 Se19 2.566432 1_555
Cr14 Se39 2.538153 1_555
Cr14 Se24 2.538507 1_555
Cr14 Se29 2.548275 1_555
Cr14 Se5 2.554330 1_545
Cr14 Se15 2.565140 1_545
Cr14 Se0 2.567751 1_545
Cr15 Se25 2.510552 1_555
Cr15 Se20 2.528156 1_555
Cr15 Se30 2.528906 1_555
Cr15 Se0 2.576996 1_555
Cr15 Se10 2.577971 1_555
Cr15 Se5 2.593197 1_555
Cr16 Se21 2.498995 1_555
Cr16 Se31 2.526021 1_555
Cr16 Se26 2.527559 1_555
Cr16 Se6 2.576612 1_556
Cr16 Se11 2.578494 1_555
Cr16 Se1 2.608148 1_665
Cr17 Se27 2.538921 1_545
Cr17 Se22 2.540126 1_445
Cr17 Se32 2.548463 1_555
Cr17 Se12 2.552303 1_545
Cr17 Se2 2.564655 1_555
Cr17 Se7 2.566432 1_555
Cr18 Se33 2.498717 1_554
Cr18 Se23 2.525189 1_545
Cr18 Se28 2.525835 1_554
Cr18 Se8 2.580080 1_555
Cr18 Se3 2.580205 1_555
Cr18 Se13 2.604997 1_555
Cr19 Se29 2.538168 1_555
Cr19 Se34 2.538502 1_555
Cr19 Se24 2.548276 1_555
Cr19 Se4 2.554330 1_655
Cr19 Se9 2.565124 1_655
Cr19 Se14 2.567760 1_655
Ga0 Se11 2.492264 1_555
Ga0 Se17 2.497257 1_555
Ga0 Se3 2.498991 1_556
Ga0 Se9 2.504490 1_655
Ga1 Se6 2.492264 1_555
Ga1 Se0 2.497263 1_555
Ga1 Se19 2.498997 1_554
Ga1 Se13 2.504496 1_565
Ga2 Se1 2.492264 1_555
Ga2 Se14 2.497251 1_555
Ga2 Se7 2.498997 1_555
Ga2 Se15 2.504490 1_445
Ga3 Se16 2.492264 1_555
Ga3 Se8 2.497257 1_555
Ga3 Se10 2.499003 1_555
Ga3 Se2 2.504483 1_555
Se4 Zn4 2.500675 1_555
Se5 Zn4 2.500668 1_555
Se12 Zn4 2.500675 1_555
Se18 Zn4 2.500675 1_555
Se20 Zn3 2.488412 1_555
Se22 Zn0 2.488554 1_555
Se23 Zn1 2.490648 1_555
Se24 Zn2 2.492730 1_555
Se26 Zn0 2.490655 1_555
Se27 Zn1 2.488412 1_555
Se28 Zn2 2.488560 1_555
Se29 Zn3 2.492730 1_655
Se30 Zn1 2.488554 1_555
Se31 Zn2 2.488400 1_565
Se32 Zn3 2.490648 1_555
Se34 Zn0 2.492730 1_555
Se35 Zn2 2.490648 1_555
Se36 Zn3 2.488554 1_555
Se38 Zn0 2.488406 1_455
Se39 Zn1 2.492730 1_545
