# generated using pymatgen
data_Li9Mn2Co5O16
_symmetry_space_group_name_H-M   'P 1'
_cell_length_a   2.91493100
_cell_length_b   9.81678400
_cell_length_c   10.09103760
_cell_angle_alpha   80.07522095
_cell_angle_beta   90.00000000
_cell_angle_gamma   90.00000000
_symmetry_Int_Tables_number   1
_chemical_formula_structural   Li9Mn2Co5O16
_chemical_formula_sum   'Li9 Mn2 Co5 O16'
_cell_volume   284.43625190
_cell_formula_units_Z   1
loop_
 _symmetry_equiv_pos_site_id
 _symmetry_equiv_pos_as_xyz
  1  'x, y, z'
loop_
 _atom_site_type_symbol
 _atom_site_label
 _atom_site_symmetry_multiplicity
 _atom_site_fract_x
 _atom_site_fract_y
 _atom_site_fract_z
 _atom_site_occupancy
  Li  Li0  1  0.50000000  0.24942500  0.62633400  1
  Li  Li1  1  0.50000000  0.75057500  0.37366600  1
  Li  Li2  1  0.50000000  0.24439900  0.12112300  1
  Li  Li3  1  0.00000000  0.25167300  0.37597900  1
  Li  Li4  1  0.00000000  0.75764700  0.11529800  1
  Li  Li5  1  0.00000000  0.24235300  0.88470200  1
  Li  Li6  1  0.50000000  0.75560100  0.87887700  1
  Li  Li7  1  0.00000000  0.74832700  0.62402100  1
  Li  Li8  1  0.50000000  0.00000000  0.00000000  1
  Mn  Mn0  1  0.00000000  0.99701300  0.75486400  1
  Mn  Mn1  1  0.00000000  0.00298700  0.24513600  1
  Co  Co0  1  0.00000000  0.50000000  0.50000000  1
  Co  Co1  1  0.00000000  0.50000000  0.00000000  1
  Co  Co2  1  0.50000000  0.50168800  0.24955100  1
  Co  Co3  1  0.50000000  0.49831200  0.75044900  1
  Co  Co4  1  0.50000000  0.00000000  0.50000000  1
  O  O0  1  0.50000000  0.11003100  0.80146200  1
  O  O1  1  0.50000000  0.61611500  0.56035500  1
  O  O2  1  0.50000000  0.10619000  0.31928700  1
  O  O3  1  0.00000000  0.10567800  0.56172400  1
  O  O4  1  0.00000000  0.61733500  0.31100000  1
  O  O5  1  0.00000000  0.11793200  0.08173200  1
  O  O6  1  0.50000000  0.61625600  0.06043000  1
  O  O7  1  0.00000000  0.61309600  0.80933400  1
  O  O8  1  0.50000000  0.38388500  0.43964500  1
  O  O9  1  0.50000000  0.88996900  0.19853800  1
  O  O10  1  0.50000000  0.38374400  0.93957000  1
  O  O11  1  0.00000000  0.38690400  0.19066600  1
  O  O12  1  0.00000000  0.88206800  0.91826800  1
  O  O13  1  0.00000000  0.38266500  0.68900000  1
  O  O14  1  0.50000000  0.89381000  0.68071300  1
  O  O15  1  0.00000000  0.89432200  0.43827600  1
loop_
_geom_bond_atom_site_label_1
_geom_bond_atom_site_label_2
_geom_bond_distance
_geom_bond_site_symmetry_2
Li0 O0 2.040097 1_555
Li0 O8 2.105743 1_555
Li0 O13 2.126039 1_655
Li0 O13 2.126039 1_555
Li0 O3 2.204025 1_655
Li0 O3 2.204025 1_555
Li1 O9 2.040097 1_555
Li1 O1 2.105743 1_555
Li1 O4 2.126039 1_555
Li1 O4 2.126039 1_655
Li1 O15 2.204025 1_655
Li1 O15 2.204025 1_555
Li2 O5 1.998410 1_555
Li2 O5 1.998410 1_655
Li2 O10 2.088962 1_554
Li2 O2 2.214567 1_555
Li2 O11 2.216330 1_655
Li2 O11 2.216330 1_555
Li3 O11 2.098454 1_555
Li3 O8 2.123423 1_555
Li3 O8 2.123423 1_455
Li3 O3 2.154364 1_555
Li3 O2 2.184675 1_555
Li3 O2 2.184675 1_455
Li4 O12 2.146584 1_554
Li4 O6 2.149937 1_555
Li4 O6 2.149937 1_455
Li4 O4 2.204444 1_555
Li4 O9 2.212064 1_455
Li4 O9 2.212064 1_555
Li5 O5 2.146584 1_556
Li5 O10 2.149937 1_455
Li5 O10 2.149937 1_555
Li5 O13 2.204444 1_555
Li5 O0 2.212064 1_555
Li5 O0 2.212064 1_455
Li6 O12 1.998410 1_655
Li6 O12 1.998410 1_555
Li6 O6 2.088962 1_556
Li6 O14 2.214567 1_555
Li6 O7 2.216330 1_655
Li6 O7 2.216330 1_555
Li7 O7 2.098454 1_555
Li7 O1 2.123423 1_455
Li7 O1 2.123423 1_555
Li7 O15 2.154364 1_555
Li7 O14 2.184675 1_555
Li7 O14 2.184675 1_455
Li8 O0 2.105847 1_554
Li8 O9 2.105847 1_545
Li8 O5 2.115154 1_555
Li8 O5 2.115154 1_655
Li8 O12 2.115154 1_544
Li8 O12 2.115154 1_644
Mn0 O12 1.830523 1_555
Mn0 O0 1.938061 1_565
Mn0 O0 1.938061 1_465
Mn0 O14 1.992946 1_455
Mn0 O14 1.992946 1_555
Mn0 O3 2.054215 1_565
Mn1 O5 1.830523 1_555
Mn1 O9 1.938061 1_545
Mn1 O9 1.938061 1_445
Mn1 O2 1.992946 1_555
Mn1 O2 1.992946 1_455
Mn1 O15 2.054215 1_545
Co0 O1 2.008424 1_555
Co0 O1 2.008424 1_455
Co0 O8 2.008424 1_555
Co0 O8 2.008424 1_455
Co0 O4 2.051081 1_555
Co0 O13 2.051081 1_555
Co1 O10 2.009586 1_554
Co1 O10 2.009586 1_454
Co1 O6 2.009586 1_455
Co1 O6 2.009586 1_555
Co1 O7 2.048935 1_554
Co1 O11 2.048935 1_555
Co2 O11 1.994442 1_555
Co2 O11 1.994442 1_655
Co2 O4 2.010035 1_555
Co2 O4 2.010035 1_655
Co2 O6 2.041357 1_555
Co2 O8 2.062122 1_555
Co3 O7 1.994442 1_655
Co3 O7 1.994442 1_555
Co3 O13 2.010035 1_555
Co3 O13 2.010035 1_655
Co3 O10 2.041357 1_555
Co3 O1 2.062122 1_555
Co4 O14 1.938260 1_545
Co4 O2 1.938260 1_555
Co4 O3 1.952213 1_555
Co4 O3 1.952213 1_655
Co4 O15 1.952213 1_545
Co4 O15 1.952213 1_645
