# generated using pymatgen
data_TaRu
_symmetry_space_group_name_H-M   'P 1'
_cell_length_a   5.73385421
_cell_length_b   5.73385421
_cell_length_c   8.32484600
_cell_angle_alpha   90.00000000
_cell_angle_beta   90.00000000
_cell_angle_gamma   109.52501802
_symmetry_Int_Tables_number   1
_chemical_formula_structural   TaRu
_chemical_formula_sum   'Ta8 Ru8'
_cell_volume   257.95791242
_cell_formula_units_Z   8
loop_
 _symmetry_equiv_pos_site_id
 _symmetry_equiv_pos_as_xyz
  1  'x, y, z'
loop_
 _atom_site_type_symbol
 _atom_site_label
 _atom_site_symmetry_multiplicity
 _atom_site_fract_x
 _atom_site_fract_y
 _atom_site_fract_z
 _atom_site_occupancy
  Ta  Ta0_0  1  0.25000000  0.25000000  0.25000000  1
  Ta  Ta0_1  1  0.25000000  0.25000000  0.75000000  1
  Ta  Ta0_2  1  0.25000000  0.75000000  0.25000000  1
  Ta  Ta0_3  1  0.25000000  0.75000000  0.75000000  1
  Ta  Ta0_4  1  0.75000000  0.25000000  0.25000000  1
  Ta  Ta0_5  1  0.75000000  0.25000000  0.75000000  1
  Ta  Ta0_6  1  0.75000000  0.75000000  0.25000000  1
  Ta  Ta0_7  1  0.75000000  0.75000000  0.75000000  1
  Ru  Ru0_0  1  0.00000000  0.00000000  0.00000000  1
  Ru  Ru0_1  1  0.00000000  0.00000000  0.50000000  1
  Ru  Ru0_2  1  0.00000000  0.50000000  0.00000000  1
  Ru  Ru0_3  1  0.00000000  0.50000000  0.50000000  1
  Ru  Ru0_4  1  0.50000000  0.00000000  0.00000000  1
  Ru  Ru0_5  1  0.50000000  0.00000000  0.50000000  1
  Ru  Ru0_6  1  0.50000000  0.50000000  0.00000000  1
  Ru  Ru0_7  1  0.50000000  0.50000000  0.50000000  1
loop_
_geom_bond_atom_site_label_1
_geom_bond_atom_site_label_2
_geom_bond_distance
_geom_bond_site_symmetry_2
Ta0_0 Ta0_2 2.866927 1_555
Ta0_0 Ta0_2 2.866927 1_545
Ta0_0 Ta0_4 2.866927 1_455
Ta0_0 Ta0_4 2.866927 1_555
Ta0_1 Ta0_5 2.866927 1_555
Ta0_1 Ta0_3 2.866927 1_545
Ta0_1 Ta0_3 2.866927 1_555
Ta0_1 Ta0_5 2.866927 1_455
Ta0_2 Ta0_6 2.866927 1_455
Ta0_2 Ta0_6 2.866927 1_555
Ta0_3 Ta0_7 2.866927 1_455
Ta0_3 Ta0_7 2.866927 1_555
Ta0_4 Ta0_6 2.866927 1_555
Ta0_4 Ta0_6 2.866927 1_545
Ta0_5 Ta0_7 2.866927 1_545
Ta0_5 Ta0_7 2.866927 1_555
Ru0_0 Ta0_7 2.658488 1_444
Ru0_0 Ta0_0 2.658488 1_555
Ru0_0 Ta0_1 2.658488 1_554
Ru0_0 Ta0_6 2.658488 1_445
Ru0_0 Ru0_4 2.866927 1_455
Ru0_0 Ru0_4 2.866927 1_555
Ru0_0 Ru0_2 2.866927 1_545
Ru0_0 Ru0_2 2.866927 1_555
Ru0_1 Ta0_7 2.658488 1_445
Ru0_1 Ta0_0 2.658488 1_555
Ru0_1 Ta0_6 2.658488 1_445
Ru0_1 Ta0_1 2.658488 1_555
Ru0_1 Ru0_3 2.866927 1_545
Ru0_1 Ru0_5 2.866927 1_555
Ru0_1 Ru0_5 2.866927 1_455
Ru0_1 Ru0_3 2.866927 1_555
Ru0_2 Ta0_3 2.658488 1_554
Ru0_2 Ta0_5 2.658488 1_454
Ru0_2 Ta0_2 2.658488 1_555
Ru0_2 Ta0_4 2.658488 1_455
Ru0_2 Ru0_6 2.866927 1_555
Ru0_2 Ru0_6 2.866927 1_455
Ru0_3 Ta0_2 2.658488 1_555
Ru0_3 Ta0_3 2.658488 1_555
Ru0_3 Ta0_4 2.658488 1_455
Ru0_3 Ta0_5 2.658488 1_455
Ru0_3 Ru0_7 2.866927 1_455
Ru0_3 Ru0_7 2.866927 1_555
Ru0_4 Ta0_5 2.658488 1_554
Ru0_4 Ta0_2 2.658488 1_545
Ru0_4 Ta0_3 2.658488 1_544
Ru0_4 Ta0_4 2.658488 1_555
Ru0_4 Ru0_6 2.866927 1_555
Ru0_4 Ru0_6 2.866927 1_545
Ru0_5 Ta0_5 2.658488 1_555
Ru0_5 Ta0_2 2.658488 1_545
Ru0_5 Ta0_3 2.658488 1_545
Ru0_5 Ta0_4 2.658488 1_555
Ru0_5 Ru0_7 2.866927 1_555
Ru0_5 Ru0_7 2.866927 1_545
Ru0_6 Ta0_6 2.658488 1_555
Ru0_6 Ta0_7 2.658488 1_554
Ru0_6 Ta0_0 2.658488 1_555
Ru0_6 Ta0_1 2.658488 1_554
Ru0_7 Ta0_6 2.658488 1_555
Ru0_7 Ta0_0 2.658488 1_555
Ru0_7 Ta0_1 2.658488 1_555
Ru0_7 Ta0_7 2.658488 1_555
