# generated using pymatgen
data_Ba4Zn4B14Pb2O31
_symmetry_space_group_name_H-M   'P 1'
_cell_length_a   7.13712101
_cell_length_b   7.13712101
_cell_length_c   32.13602535
_cell_angle_alpha   88.69735620
_cell_angle_beta   88.69735620
_cell_angle_gamma   120.11972013
_symmetry_Int_Tables_number   1
_chemical_formula_structural   Ba4Zn4B14Pb2O31
_chemical_formula_sum   'Ba8 Zn8 B28 Pb4 O62'
_cell_volume   1414.46671060
_cell_formula_units_Z   2
loop_
 _symmetry_equiv_pos_site_id
 _symmetry_equiv_pos_as_xyz
  1  'x, y, z'
loop_
 _atom_site_type_symbol
 _atom_site_label
 _atom_site_symmetry_multiplicity
 _atom_site_fract_x
 _atom_site_fract_y
 _atom_site_fract_z
 _atom_site_occupancy
  Ba  Ba0  1  0.52292700  0.66312500  0.37535400  1
  Ba  Ba1  1  0.66312500  0.52292700  0.87535400  1
  Ba  Ba2  1  0.38951600  0.21334500  0.74998300  1
  Ba  Ba3  1  0.21334500  0.38951600  0.24998300  1
  Ba  Ba4  1  0.78976100  0.87719800  0.67238000  1
  Ba  Ba5  1  0.87719800  0.78976100  0.17238000  1
  Ba  Ba6  1  0.87058900  0.26560200  0.45261000  1
  Ba  Ba7  1  0.26560200  0.87058900  0.95261000  1
  Zn  Zn0  1  0.50807300  0.57790000  0.48511400  1
  Zn  Zn1  1  0.57790000  0.50807300  0.98511400  1
  Zn  Zn2  1  0.84493600  0.34301100  0.33751400  1
  Zn  Zn3  1  0.34301100  0.84493600  0.83751400  1
  Zn  Zn4  1  0.70916400  0.89029200  0.78829400  1
  Zn  Zn5  1  0.89029200  0.70916400  0.28829400  1
  Zn  Zn6  1  0.46943900  0.23034200  0.64028600  1
  Zn  Zn7  1  0.23034200  0.46943900  0.14028600  1
  B  B0  1  0.36339800  0.87418000  0.46288200  1
  B  B1  1  0.87418000  0.36339800  0.96288200  1
  B  B2  1  0.88222100  0.59424100  0.76813100  1
  B  B3  1  0.59424100  0.88222100  0.26813100  1
  B  B4  1  0.00111600  0.77804400  0.38169400  1
  B  B5  1  0.77804400  0.00111600  0.88169400  1
  B  B6  1  0.40290700  0.04656000  0.36762300  1
  B  B7  1  0.04656000  0.40290700  0.86762300  1
  B  B8  1  0.24541200  0.14250700  0.45857900  1
  B  B9  1  0.14250700  0.24541200  0.95857900  1
  B  B10  1  0.91185100  0.49548700  0.66677400  1
  B  B11  1  0.49548700  0.91185100  0.16677400  1
  B  B12  1  0.30961500  0.77524700  0.66232600  1
  B  B13  1  0.77524700  0.30961500  0.16232600  1
  B  B14  1  0.36070300  0.36952400  0.56472900  1
  B  B15  1  0.36952400  0.36070300  0.06472900  1
  B  B16  1  0.18221400  0.37925200  0.66379600  1
  B  B17  1  0.37925200  0.18221400  0.16379600  1
  B  B18  1  0.00592200  0.33256600  0.75821500  1
  B  B19  1  0.33256600  0.00592200  0.25821500  1
  B  B20  1  0.14180500  0.17122700  0.35835500  1
  B  B21  1  0.17122700  0.14180500  0.85835500  1
  B  B22  1  0.94563900  0.11521900  0.56546900  1
  B  B23  1  0.11521900  0.94563900  0.06546900  1
  B  B24  1  0.96513700  0.74536300  0.46304900  1
  B  B25  1  0.74536300  0.96513700  0.96304900  1
  B  B26  1  0.27457600  0.73496900  0.74422100  1
  B  B27  1  0.73496900  0.27457600  0.24422100  1
  Pb  Pb0  1  0.49226500  0.91788400  0.56284000  1
  Pb  Pb1  1  0.91788400  0.49226500  0.06284000  1
  Pb  Pb2  1  0.89429300  0.59319700  0.55933100  1
  Pb  Pb3  1  0.59319700  0.89429300  0.05933100  1
  O  O0  1  0.38403300  0.84626700  0.70448100  1
  O  O1  1  0.84626700  0.38403300  0.20448100  1
  O  O2  1  0.38001700  0.54158300  0.54188400  1
  O  O3  1  0.54158300  0.38001700  0.04188400  1
  O  O4  1  0.53521700  0.84225100  0.45861000  1
  O  O5  1  0.84225100  0.53521700  0.95861000  1
  O  O6  1  0.07442800  0.70666000  0.65798700  1
  O  O7  1  0.70666000  0.07442800  0.15798700  1
  O  O8  1  0.61136000  0.08876400  0.36736500  1
  O  O9  1  0.08876400  0.61136000  0.86736500  1
  O  O10  1  0.53657000  0.36270200  0.58132500  1
  O  O11  1  0.36270200  0.53657000  0.08132500  1
  O  O12  1  0.41973600  0.85443400  0.77719700  1
  O  O13  1  0.85443400  0.41973600  0.27719700  1
  O  O14  1  0.79098100  0.60188800  0.49357000  1
  O  O15  1  0.60188800  0.79098100  0.99357000  1
  O  O16  1  0.88909000  0.66778000  0.42157800  1
  O  O17  1  0.66778000  0.88909000  0.92157800  1
  O  O18  1  0.88301800  0.63343700  0.34875100  1
  O  O19  1  0.63343700  0.88301800  0.84875100  1
  O  O20  1  0.41332900  0.09305400  0.45950300  1
  O  O21  1  0.09305400  0.41332900  0.95950300  1
  O  O22  1  0.03428500  0.97992000  0.46684400  1
  O  O23  1  0.97992000  0.03428500  0.96684400  1
  O  O24  1  0.15448400  0.71329400  0.47234300  1
  O  O25  1  0.71329400  0.15448400  0.97234300  1
  O  O26  1  0.07456100  0.75700900  0.75108500  1
  O  O27  1  0.75700900  0.07456100  0.25108500  1
  O  O28  1  0.70395100  0.44903500  0.67438800  1
  O  O29  1  0.44903500  0.70395100  0.17438800  1
  O  O30  1  0.23664500  0.84381400  0.38086800  1
  O  O31  1  0.84381400  0.23664500  0.88086800  1
  O  O32  1  0.29404500  0.35004400  0.44962200  1
  O  O33  1  0.35004400  0.29404500  0.94962200  1
  O  O34  1  0.11965700  0.34297300  0.34636700  1
  O  O35  1  0.34297300  0.11965700  0.84636700  1
  O  O36  1  0.96342700  0.12401000  0.75858300  1
  O  O37  1  0.12401000  0.96342700  0.25858300  1
  O  O38  1  0.84452300  0.37933300  0.77104600  1
  O  O39  1  0.37933300  0.84452300  0.27104600  1
  O  O40  1  0.21708300  0.21020700  0.67025300  1
  O  O41  1  0.21020700  0.21708300  0.17025300  1
  O  O42  1  0.79700400  0.91134200  0.58262700  1
  O  O43  1  0.91134200  0.79700400  0.08262700  1
  O  O44  1  0.97897700  0.97798000  0.37503400  1
  O  O45  1  0.97798000  0.97897700  0.87503400  1
  O  O46  1  0.87192500  0.23332700  0.54369900  1
  O  O47  1  0.23332700  0.87192500  0.04369900  1
  O  O48  1  0.71209200  0.61586800  0.78158300  1
  O  O49  1  0.61586800  0.71209200  0.28158300  1
  O  O50  1  0.45400900  0.95280700  0.63311500  1
  O  O51  1  0.95280700  0.45400900  0.13311500  1
  O  O52  1  0.35612300  0.20751300  0.35447900  1
  O  O53  1  0.20751300  0.35612300  0.85447900  1
  O  O54  1  0.96231200  0.32850400  0.66692900  1
  O  O55  1  0.32850400  0.96231200  0.16692900  1
  O  O56  1  0.20928400  0.49936000  0.74539100  1
  O  O57  1  0.49936000  0.20928400  0.24539100  1
  O  O58  1  0.16223400  0.18018000  0.57301400  1
  O  O59  1  0.18018000  0.16223400  0.07301400  1
  O  O60  1  0.34122300  0.58647300  0.65284900  1
  O  O61  1  0.58647300  0.34122300  0.15284900  1
loop_
_geom_bond_atom_site_label_1
_geom_bond_atom_site_label_2
_geom_bond_distance
_geom_bond_site_symmetry_2
Ba0 O8 2.779498 1_565
Ba0 O18 2.799215 1_555
Ba0 O34 2.826853 1_555
Ba0 O44 2.881116 1_555
Ba0 O30 2.916789 1_555
Ba0 O52 2.948138 1_555
Ba0 O4 2.975592 1_555
Ba0 O16 3.021405 1_555
Ba0 O49 3.044908 1_555
Ba0 O32 3.045422 1_555
Ba1 O9 2.779498 1_655
Ba1 O19 2.799215 1_555
Ba1 O35 2.826853 1_555
Ba1 O45 2.881116 1_555
Ba1 O31 2.916789 1_555
Ba1 O53 2.948138 1_555
Ba1 O5 2.975592 1_555
Ba1 O17 3.021405 1_555
Ba1 O48 3.044908 1_555
Ba1 O33 3.045422 1_555
Ba2 O36 2.781850 1_455
Ba2 O12 2.798985 1_545
Ba2 O48 2.861102 1_555
Ba2 O40 2.863263 1_555
Ba2 O26 2.881883 1_545
Ba2 O56 2.910963 1_555
Ba2 O38 2.946661 1_555
Ba2 O0 3.012868 1_545
Ba2 O28 3.089522 1_555
Ba2 O35 3.128492 1_555
Ba3 O37 2.781850 1_545
Ba3 O13 2.798985 1_455
Ba3 O49 2.861102 1_555
Ba3 O41 2.863263 1_555
Ba3 O27 2.881883 1_455
Ba3 O57 2.910963 1_555
Ba3 O39 2.946661 1_555
Ba3 O1 3.012868 1_455
Ba3 O29 3.089522 1_555
Ba3 O34 3.128492 1_555
Ba4 O40 2.768273 1_665
Ba4 O28 2.797932 1_555
Ba4 O54 2.811720 1_565
Ba4 O6 2.878873 1_655
Ba4 O42 2.886155 1_555
Ba4 O60 2.903713 1_555
Ba4 O0 2.951345 1_555
Ba4 O50 3.004992 1_555
Ba4 O36 3.240390 1_565
Ba5 O41 2.768273 1_665
Ba5 O29 2.797932 1_555
Ba5 O55 2.811720 1_655
Ba5 O7 2.878873 1_565
Ba5 O43 2.886155 1_555
Ba5 O61 2.903713 1_555
Ba5 O1 2.951345 1_555
Ba5 O51 3.004992 1_555
Ba5 O37 3.240390 1_655
Ba6 O4 2.755009 1_545
Ba6 O32 2.768145 1_655
Ba6 O22 2.846780 1_645
Ba6 O20 2.852612 1_555
Ba6 O24 2.893108 1_655
Ba6 O46 2.931671 1_555
Ba6 O16 2.955430 1_555
Ba6 O14 3.048645 1_555
Ba6 O8 3.250321 1_555
Ba7 O5 2.755009 1_455
Ba7 O33 2.768145 1_565
Ba7 O23 2.846780 1_465
Ba7 O21 2.852612 1_555
Ba7 O25 2.893108 1_565
Ba7 O47 2.931671 1_556
Ba7 O17 2.955430 1_555
Ba7 O15 3.048645 1_555
Ba7 O9 3.250321 1_555
B0 O4 1.359706 1_555
B0 O24 1.370902 1_555
B0 O20 1.418050 1_565
B1 O5 1.359706 1_555
B1 O25 1.370902 1_555
B1 O21 1.418050 1_655
B2 O48 1.361003 1_555
B2 O26 1.367644 1_655
B2 O38 1.418425 1_555
B3 O49 1.361003 1_555
B3 O27 1.367644 1_565
B3 O39 1.418425 1_555
B4 O18 1.453812 1_455
B4 O16 1.475612 1_455
B4 O30 1.500760 1_555
B4 O44 1.523467 1_455
B5 O19 1.453812 1_545
B5 O17 1.475612 1_545
B5 O31 1.500760 1_555
B5 O45 1.523467 1_545
B6 O8 1.361537 1_555
B6 O30 1.381622 1_545
B6 O52 1.406706 1_555
B7 O9 1.361537 1_555
B7 O31 1.381622 1_455
B7 O53 1.406706 1_555
B8 O32 1.362871 1_555
B8 O22 1.378611 1_545
B8 O20 1.409748 1_555
B9 O33 1.362871 1_555
B9 O23 1.378611 1_455
B9 O21 1.409748 1_555
B10 O28 1.362924 1_555
B10 O6 1.381403 1_655
B10 O54 1.407353 1_555
B11 O29 1.362924 1_555
B11 O7 1.381403 1_565
B11 O55 1.407353 1_555
B12 O50 1.463021 1_555
B12 O0 1.472401 1_555
B12 O6 1.505231 1_555
B12 O60 1.509781 1_555
B13 O51 1.463021 1_555
B13 O1 1.472401 1_555
B13 O7 1.505231 1_555
B13 O61 1.509781 1_555
B14 O2 1.360328 1_555
B14 O58 1.396035 1_555
B14 O10 1.397458 1_555
B15 O3 1.360328 1_555
B15 O59 1.396035 1_555
B15 O11 1.397458 1_555
B16 O40 1.361222 1_555
B16 O60 1.368468 1_555
B16 O54 1.423094 1_455
B17 O41 1.361222 1_555
B17 O61 1.368468 1_555
B17 O55 1.423094 1_545
B18 O36 1.361500 1_455
B18 O56 1.382032 1_555
B18 O38 1.406736 1_455
B19 O37 1.361500 1_545
B19 O57 1.382032 1_555
B19 O39 1.406736 1_545
B20 O34 1.360764 1_555
B20 O44 1.367307 1_445
B20 O52 1.419367 1_555
B21 O35 1.360764 1_555
B21 O45 1.367307 1_445
B21 O53 1.419367 1_555
B22 O46 1.382680 1_555
B22 O42 1.390836 1_545
B22 O58 1.402244 1_655
B23 O47 1.382680 1_555
B23 O43 1.390836 1_455
B23 O59 1.402244 1_565
B24 O16 1.463603 1_555
B24 O14 1.475489 1_555
B24 O22 1.497921 1_655
B24 O24 1.514438 1_655
B25 O17 1.463603 1_555
B25 O15 1.475489 1_555
B25 O23 1.497921 1_565
B25 O25 1.514438 1_565
B26 O12 1.458694 1_555
B26 O0 1.468993 1_555
B26 O56 1.502043 1_555
B26 O26 1.524425 1_555
B27 O13 1.458694 1_555
B27 O1 1.468993 1_555
B27 O57 1.502043 1_555
B27 O27 1.524425 1_555
O2 Zn0 1.973759 1_555
O2 Pb0 2.501147 1_555
O3 Zn1 1.973759 1_554
O3 Pb1 2.501147 1_555
O4 Zn0 1.968562 1_555
O5 Zn1 1.968562 1_555
O8 Zn2 1.950447 1_555
O9 Zn3 1.950447 1_555
O10 Zn6 2.033522 1_555
O10 Pb2 2.318200 1_555
O11 Zn7 2.033522 1_555
O11 Pb3 2.318200 1_555
O12 Zn4 1.991680 1_555
O12 Zn3 1.992527 1_555
O13 Zn5 1.991680 1_555
O13 Zn2 1.992527 1_555
O14 Zn0 1.964749 1_555
O14 Pb2 2.263702 1_555
O15 Zn1 1.964749 1_555
O15 Pb3 2.263702 1_556
O18 Zn2 1.993458 1_555
O18 Zn5 1.997242 1_555
O19 Zn3 1.993458 1_555
O19 Zn4 1.997242 1_555
O28 Zn6 1.994470 1_555
O29 Zn7 1.994470 1_555
O32 Zn0 1.987298 1_555
O33 Zn1 1.987298 1_555
O34 Zn2 1.987774 1_455
O35 Zn3 1.987774 1_545
O36 Zn4 1.948859 1_545
O37 Zn5 1.948859 1_455
O40 Zn6 1.961399 1_555
O41 Zn7 1.961399 1_555
O42 Pb0 2.302263 1_555
O42 Pb2 2.799002 1_555
O43 Pb1 2.302263 1_555
O43 Pb3 2.799002 1_555
O46 Pb2 2.554505 1_555
O46 Pb0 2.555008 1_545
O47 Pb3 2.554505 1_555
O47 Pb1 2.555008 1_455
O48 Zn4 1.985731 1_555
O49 Zn5 1.985731 1_555
O50 Zn6 1.947251 1_565
O50 Pb0 2.302763 1_555
O51 Zn7 1.947251 1_655
O51 Pb1 2.302763 1_555
