# generated using pymatgen
data_La3IrO7
_symmetry_space_group_name_H-M   'P 1'
_cell_length_a   6.74219880
_cell_length_b   6.74222260
_cell_length_c   7.62070540
_cell_angle_alpha   90.00125010
_cell_angle_beta   90.00158722
_cell_angle_gamma   112.95076467
_symmetry_Int_Tables_number   1
_chemical_formula_structural   La3IrO7
_chemical_formula_sum   'La6 Ir2 O14'
_cell_volume   318.99517961
_cell_formula_units_Z   2
loop_
 _symmetry_equiv_pos_site_id
 _symmetry_equiv_pos_as_xyz
  1  'x, y, z'
loop_
 _atom_site_type_symbol
 _atom_site_label
 _atom_site_symmetry_multiplicity
 _atom_site_fract_x
 _atom_site_fract_y
 _atom_site_fract_z
 _atom_site_occupancy
  La  La0  1  0.00000507  0.00000591  0.49999880  1
  La  La1  1  0.00000281  0.00000677  0.00000169  1
  La  La2  1  0.53519410  0.09359639  0.24999276  1
  La  La3  1  0.90638650  0.46477866  0.74998672  1
  La  La4  1  0.46479133  0.90638610  0.75000726  1
  La  La5  1  0.09359760  0.53519364  0.25000964  1
  Ir  Ir0  1  0.50000127  0.50000876  0.49999473  1
  Ir  Ir1  1  0.50000088  0.50000521  0.00000515  1
  O  O0  1  0.44470416  0.19339153  0.54260161  1
  O  O1  1  0.80663918  0.55530649  0.45739228  1
  O  O2  1  0.44467540  0.19334777  0.95740485  1
  O  O3  1  0.80662631  0.55531856  0.04260112  1
  O  O4  1  0.55529544  0.80660826  0.45739837  1
  O  O5  1  0.19337378  0.44469933  0.54259904  1
  O  O6  1  0.55532023  0.80665157  0.04259589  1
  O  O7  1  0.19338077  0.44468606  0.95740757  1
  O  O8  1  0.15992823  0.90016635  0.24999642  1
  O  O9  1  0.09983606  0.84007602  0.75000756  1
  O  O10  1  0.84006648  0.09982746  0.75000688  1
  O  O11  1  0.90017233  0.15993030  0.24999144  1
  O  O12  1  0.40772167  0.40772210  0.25000447  1
  O  O13  1  0.59228039  0.59228678  0.74999576  1
loop_
_geom_bond_atom_site_label_1
_geom_bond_atom_site_label_2
_geom_bond_distance
_geom_bond_site_symmetry_2
La0 O8 2.410720 1_545
La0 O11 2.410726 1_455
La0 O9 2.410750 1_545
La0 O10 2.410757 1_455
La0 O5 2.783150 1_555
La0 O0 2.783182 1_555
La0 O1 2.783191 1_445
La0 O4 2.783247 1_445
La1 O11 2.410602 1_455
La1 O10 2.410642 1_454
La1 O8 2.410661 1_545
La1 O9 2.410664 1_544
La1 O2 2.783028 1_554
La1 O7 2.783086 1_554
La1 O6 2.783090 1_445
La1 O3 2.783144 1_445
La2 O11 2.323155 1_555
La2 O8 2.351375 1_545
La2 O2 2.473166 1_554
La2 O0 2.473354 1_555
La2 O6 2.542419 1_545
La2 O4 2.542678 1_545
La2 O12 2.577542 1_555
La3 O10 2.323005 1_555
La3 O9 2.351583 1_655
La3 O1 2.473220 1_555
La3 O3 2.473427 1_556
La3 O5 2.542539 1_655
La3 O7 2.542701 1_655
La3 O13 2.577569 1_555
La4 O9 2.323038 1_555
La4 O10 2.351439 1_565
La4 O6 2.473153 1_556
La4 O4 2.473345 1_555
La4 O2 2.542487 1_565
La4 O0 2.542736 1_565
La4 O13 2.577446 1_555
La5 O8 2.323132 1_555
La5 O11 2.351363 1_455
La5 O5 2.473177 1_555
La5 O7 2.473323 1_554
La5 O1 2.542442 1_455
La5 O3 2.542598 1_455
La5 O12 2.577522 1_555
Ir0 O4 1.979025 1_555
Ir0 O0 1.979150 1_555
Ir0 O5 1.979190 1_555
Ir0 O1 1.979273 1_555
Ir0 O12 2.025249 1_555
Ir0 O13 2.025315 1_555
Ir1 O7 1.979098 1_554
Ir1 O3 1.979139 1_555
Ir1 O6 1.979270 1_555
Ir1 O2 1.979345 1_554
Ir1 O12 2.025367 1_555
Ir1 O13 2.025438 1_554
