# generated using pymatgen
data_Sr4Al6WO16
_symmetry_space_group_name_H-M   'P 1'
_cell_length_a   8.23807306
_cell_length_b   8.23807246
_cell_length_c   8.23807282
_cell_angle_alpha   109.47122387
_cell_angle_beta   109.47122245
_cell_angle_gamma   109.47121695
_symmetry_Int_Tables_number   1
_chemical_formula_structural   Sr4Al6WO16
_chemical_formula_sum   'Sr4 Al6 W1 O16'
_cell_volume   430.38286810
_cell_formula_units_Z   1
loop_
 _symmetry_equiv_pos_site_id
 _symmetry_equiv_pos_as_xyz
  1  'x, y, z'
loop_
 _atom_site_type_symbol
 _atom_site_label
 _atom_site_symmetry_multiplicity
 _atom_site_fract_x
 _atom_site_fract_y
 _atom_site_fract_z
 _atom_site_occupancy
  Sr  Sr0  1  0.00000000  0.50736828  -0.00000000  1
  Sr  Sr1  1  0.50736828  0.00000000  0.00000000  1
  Sr  Sr2  1  0.49263172  0.49263172  0.49263172  1
  Sr  Sr3  1  -0.00000000  -0.00000000  0.50736828  1
  Al  Al0  1  0.75000000  0.25000000  0.50000000  1
  Al  Al1  1  0.50000000  0.75000000  0.25000000  1
  Al  Al2  1  0.75000000  0.50000000  0.25000000  1
  Al  Al3  1  0.25000000  0.75000000  0.50000000  1
  Al  Al4  1  0.50000000  0.25000000  0.75000000  1
  Al  Al5  1  0.25000000  0.50000000  0.75000000  1
  W  W0  1  0.00000000  0.00000000  0.00000000  1
  O  O0  1  0.34395789  -0.00000000  0.66013793  1
  O  O1  1  0.33986207  0.68381896  0.33986207  1
  O  O2  1  0.66013793  0.00000000  0.34395789  1
  O  O3  1  0.31618104  0.65604211  0.65604211  1
  O  O4  1  0.65604211  0.65604211  0.31618104  1
  O  O5  1  0.66013793  0.34395789  0.00000000  1
  O  O6  1  0.68381896  0.33986207  0.33986207  1
  O  O7  1  0.34395789  0.66013793  -0.00000000  1
  O  O8  1  0.00000000  0.66013793  0.34395789  1
  O  O9  1  0.33986207  0.33986207  0.68381896  1
  O  O10  1  -0.00000000  0.34395789  0.66013793  1
  O  O11  1  0.78450167  0.78450167  0.78450167  1
  O  O12  1  0.00000000  0.21549833  -0.00000000  1
  O  O13  1  -0.00000000  -0.00000000  0.21549833  1
  O  O14  1  0.21549833  0.00000000  0.00000000  1
  O  O15  1  0.65604211  0.31618104  0.65604211  1
loop_
_geom_bond_atom_site_label_1
_geom_bond_atom_site_label_2
_geom_bond_distance
_geom_bond_site_symmetry_2
Al0 O2 1.739621 1_555
Al0 O10 1.739621 1_655
Al0 O6 1.739623 1_555
Al0 O15 1.739623 1_555
Al1 O7 1.739621 1_555
Al1 O2 1.739621 1_565
Al1 O4 1.739623 1_555
Al1 O1 1.739623 1_555
Al2 O5 1.739621 1_555
Al2 O8 1.739621 1_655
Al2 O6 1.739623 1_555
Al2 O4 1.739623 1_555
Al3 O0 1.739621 1_565
Al3 O8 1.739621 1_555
Al3 O1 1.739623 1_555
Al3 O3 1.739623 1_555
Al4 O5 1.739621 1_556
Al4 O0 1.739621 1_555
Al4 O9 1.739623 1_555
Al4 O15 1.739623 1_555
Al5 O7 1.739621 1_556
Al5 O10 1.739621 1_555
Al5 O9 1.739623 1_555
Al5 O3 1.739623 1_555
O0 Sr1 2.671785 1_556
O0 Sr3 2.689888 1_555
O1 Sr0 2.671786 1_555
O1 Sr2 2.689881 1_555
O2 Sr3 2.671785 1_655
O2 Sr1 2.689888 1_555
O3 Sr2 2.671778 1_555
O3 Sr1 2.689889 1_566
O4 Sr2 2.671778 1_555
O4 Sr3 2.689889 1_665
O5 Sr0 2.671785 1_655
O5 Sr1 2.689888 1_555
O6 Sr1 2.671786 1_555
O6 Sr2 2.689881 1_555
O7 Sr1 2.671785 1_565
O7 Sr0 2.689888 1_555
O8 Sr3 2.671785 1_565
O8 Sr0 2.689888 1_555
O9 Sr3 2.671787 1_555
O9 Sr2 2.689881 1_555
O10 Sr0 2.671785 1_556
O10 Sr3 2.689888 1_555
O11 W0 1.775291 1_666
O11 Sr2 2.404446 1_555
O12 W0 1.775291 1_555
O12 Sr0 2.404446 1_555
O13 W0 1.775291 1_555
O13 Sr3 2.404446 1_555
O14 W0 1.775291 1_555
O14 Sr1 2.404446 1_555
O15 Sr2 2.671778 1_555
O15 Sr0 2.689889 1_656
