# generated using pymatgen
data_Na2Cu3(GeO3)4
_symmetry_space_group_name_H-M   'P 1'
_cell_length_a   5.55585775
_cell_length_b   6.52863621
_cell_length_c   7.77085869
_cell_angle_alpha   88.36591289
_cell_angle_beta   77.57055458
_cell_angle_gamma   89.19034151
_symmetry_Int_Tables_number   1
_chemical_formula_structural   Na2Cu3(GeO3)4
_chemical_formula_sum   'Na2 Cu3 Ge4 O12'
_cell_volume   275.13834240
_cell_formula_units_Z   1
loop_
 _symmetry_equiv_pos_site_id
 _symmetry_equiv_pos_as_xyz
  1  'x, y, z'
loop_
 _atom_site_type_symbol
 _atom_site_label
 _atom_site_symmetry_multiplicity
 _atom_site_fract_x
 _atom_site_fract_y
 _atom_site_fract_z
 _atom_site_occupancy
  Na  Na0  1  0.08288900  0.25477500  0.60662200  1
  Na  Na1  1  0.91711100  0.74522500  0.39337800  1
  Cu  Cu0  1  0.50171400  0.17375600  0.81517000  1
  Cu  Cu1  1  0.49828600  0.82624400  0.18483000  1
  Cu  Cu2  1  0.00000000  0.00000000  0.00000000  1
  Ge  Ge0  1  0.24642100  0.39106700  0.18293600  1
  Ge  Ge1  1  0.75357900  0.60893300  0.81706400  1
  Ge  Ge2  1  0.69172200  0.21457300  0.37071700  1
  Ge  Ge3  1  0.30827800  0.78542700  0.62928300  1
  O  O0  1  0.70016700  0.12453800  0.58347000  1
  O  O1  1  0.29983300  0.87546200  0.41653000  1
  O  O2  1  0.28471600  0.64245500  0.10055600  1
  O  O3  1  0.71528400  0.35754500  0.89944400  1
  O  O4  1  0.26238100  0.18128500  0.04124100  1
  O  O5  1  0.73761900  0.81871500  0.95875900  1
  O  O6  1  0.41359900  0.34649700  0.35721400  1
  O  O7  1  0.58640100  0.65350300  0.64278600  1
  O  O8  1  0.93602600  0.39846700  0.31736500  1
  O  O9  1  0.23409000  0.99492700  0.77433500  1
  O  O10  1  0.76591000  0.00507300  0.22566500  1
  O  O11  1  0.06397400  0.60153300  0.68263500  1
loop_
_geom_bond_atom_site_label_1
_geom_bond_atom_site_label_2
_geom_bond_distance
_geom_bond_site_symmetry_2
Na0 O0 2.345461 1_455
Na0 O11 2.351132 1_555
Na0 O9 2.363701 1_545
Na0 O6 2.433679 1_555
Na0 O8 2.691830 1_455
Na0 O3 2.801248 1_455
Na1 O1 2.345461 1_655
Na1 O8 2.351132 1_555
Na1 O10 2.363701 1_565
Na1 O7 2.433679 1_555
Na1 O11 2.691830 1_655
Na1 O2 2.801248 1_655
Cu0 O3 1.922525 1_555
Cu0 O0 1.931104 1_555
Cu0 O4 1.963223 1_556
Cu0 O9 1.986928 1_545
Cu1 O2 1.922525 1_555
Cu1 O1 1.931104 1_555
Cu1 O5 1.963223 1_554
Cu1 O10 1.986928 1_565
Cu2 O9 1.946290 1_544
Cu2 O10 1.946290 1_455
Cu2 O5 1.974847 1_444
Cu2 O4 1.974847 1_555
Ge0 O2 1.743559 1_555
Ge0 O4 1.771042 1_555
Ge0 O8 1.814540 1_455
Ge0 O6 1.814620 1_555
Ge1 O3 1.743559 1_555
Ge1 O5 1.771042 1_555
Ge1 O11 1.814540 1_655
Ge1 O7 1.814620 1_555
Ge2 O0 1.748776 1_555
Ge2 O6 1.779756 1_555
Ge2 O10 1.784140 1_555
Ge2 O8 1.797500 1_555
Ge3 O1 1.748776 1_555
Ge3 O7 1.779756 1_555
Ge3 O9 1.784140 1_555
Ge3 O11 1.797500 1_555
