# generated using pymatgen
data_NaMg14V
_symmetry_space_group_name_H-M   'P 1'
_cell_length_a   6.38404699
_cell_length_b   6.43536324
_cell_length_c   10.23394285
_cell_angle_alpha   90.00000000
_cell_angle_beta   90.00000000
_cell_angle_gamma   120.26626513
_symmetry_Int_Tables_number   1
_chemical_formula_structural   NaMg14V
_chemical_formula_sum   'Na1 Mg14 V1'
_cell_volume   363.13763037
_cell_formula_units_Z   1
loop_
 _symmetry_equiv_pos_site_id
 _symmetry_equiv_pos_as_xyz
  1  'x, y, z'
loop_
 _atom_site_type_symbol
 _atom_site_label
 _atom_site_symmetry_multiplicity
 _atom_site_fract_x
 _atom_site_fract_y
 _atom_site_fract_z
 _atom_site_occupancy
  Na  Na0  1  0.16735611  0.83367755  0.12500000  1
  Mg  Mg0  1  0.16695071  0.33347486  0.62500000  1
  Mg  Mg1  1  0.16803436  0.83401668  0.62500000  1
  Mg  Mg2  1  0.66607303  0.33294387  0.12500000  1
  Mg  Mg3  1  0.66637912  0.33253719  0.62500000  1
  Mg  Mg4  1  0.66607303  0.83312816  0.12500000  1
  Mg  Mg5  1  0.66637912  0.83384093  0.62500000  1
  Mg  Mg6  1  0.33126087  0.17258308  0.37379668  1
  Mg  Mg7  1  0.33126087  0.17258308  0.87620332  1
  Mg  Mg8  1  0.33126087  0.65867879  0.37379668  1
  Mg  Mg9  1  0.33126087  0.65867879  0.87620332  1
  Mg  Mg10  1  0.83941264  0.16970682  0.36968783  1
  Mg  Mg11  1  0.83941264  0.16970682  0.88031217  1
  Mg  Mg12  1  0.83000473  0.66500286  0.37846977  1
  Mg  Mg13  1  0.83000473  0.66500286  0.87153023  1
  V  V0  1  0.16887629  0.33443765  0.12500000  1
loop_
_geom_bond_atom_site_label_1
_geom_bond_atom_site_label_2
_geom_bond_distance
_geom_bond_site_symmetry_2
Na0 V0 3.217692 1_555
Na0 V0 3.217693 1_565
Mg0 Mg6 3.142644 1_555
Mg0 Mg7 3.142644 1_555
Mg0 Mg8 3.142650 1_555
Mg0 Mg9 3.142650 1_555
Mg0 Mg11 3.176257 1_455
Mg0 Mg10 3.176257 1_455
Mg0 Mg5 3.191420 1_555
Mg0 Mg3 3.191420 1_555
Mg0 Mg5 3.192635 1_445
Mg0 Mg3 3.192635 1_455
Mg0 Mg1 3.217687 1_555
Mg0 Mg1 3.217687 1_545
Mg1 Mg13 3.136771 1_455
Mg1 Mg12 3.136771 1_455
Mg1 Mg3 3.182026 1_565
Mg1 Mg5 3.182027 1_555
Mg1 Mg8 3.186430 1_555
Mg1 Mg9 3.186430 1_555
Mg1 Mg6 3.186436 1_565
Mg1 Mg7 3.186436 1_565
Mg1 Mg3 3.202020 1_455
Mg1 Mg5 3.202021 1_455
Mg2 Mg7 3.145337 1_554
Mg2 Mg6 3.145337 1_555
Mg2 V0 3.178983 1_555
Mg2 Na0 3.185615 1_545
Mg2 Na0 3.198434 1_655
Mg2 V0 3.205085 1_655
Mg2 Mg4 3.216496 1_545
Mg2 Mg4 3.218868 1_555
Mg3 Mg6 3.166346 1_555
Mg3 Mg7 3.166346 1_555
Mg3 Mg5 3.209292 1_545
Mg3 Mg5 3.226072 1_555
Mg4 Mg9 3.145337 1_554
Mg4 Mg8 3.145337 1_555
Mg4 V0 3.178983 1_555
Mg4 Na0 3.185616 1_555
Mg4 Na0 3.198434 1_655
Mg4 V0 3.205085 1_665
Mg5 Mg8 3.166346 1_555
Mg5 Mg9 3.166346 1_555
Mg6 V0 3.119464 1_555
Mg6 Mg8 3.128202 1_555
Mg6 Na0 3.167664 1_545
Mg6 Mg8 3.307161 1_545
Mg7 V0 3.119464 1_556
Mg7 Mg9 3.128202 1_555
Mg7 Na0 3.167664 1_546
Mg7 Mg9 3.307161 1_545
Mg8 V0 3.119471 1_555
Mg8 Na0 3.167657 1_555
Mg9 V0 3.119471 1_556
Mg9 Na0 3.167657 1_556
Mg10 V0 3.093656 1_655
Mg10 Mg2 3.125789 1_555
Mg10 Mg4 3.125796 1_545
Mg10 Mg8 3.130976 1_655
Mg10 Mg6 3.130976 1_655
Mg10 Mg3 3.211250 1_555
Mg10 Mg5 3.211256 1_545
Mg10 Mg12 3.219354 1_555
Mg10 Mg12 3.219354 1_545
Mg10 Mg8 3.253705 1_545
Mg10 Mg6 3.253705 1_555
Mg11 V0 3.093656 1_656
Mg11 Mg2 3.125789 1_556
Mg11 Mg4 3.125796 1_546
Mg11 Mg9 3.130976 1_655
Mg11 Mg7 3.130976 1_655
Mg11 Mg3 3.211250 1_555
Mg11 Mg5 3.211256 1_545
Mg11 Mg13 3.219354 1_555
Mg11 Mg13 3.219354 1_545
Mg11 Mg9 3.253705 1_545
Mg11 Mg7 3.253705 1_555
Mg12 Mg5 3.127499 1_555
Mg12 Mg3 3.127506 1_555
Mg12 Mg6 3.164048 1_555
Mg12 Mg8 3.164049 1_555
Mg12 Mg4 3.183723 1_555
Mg12 Mg2 3.183730 1_555
Mg12 Na0 3.191991 1_655
Mg12 Mg6 3.221102 1_665
Mg12 Mg8 3.221102 1_655
Mg13 Mg5 3.127499 1_555
Mg13 Mg3 3.127506 1_555
Mg13 Mg7 3.164048 1_555
Mg13 Mg9 3.164049 1_555
Mg13 Mg4 3.183723 1_556
Mg13 Mg2 3.183730 1_556
Mg13 Na0 3.191991 1_656
Mg13 Mg7 3.221102 1_665
Mg13 Mg9 3.221102 1_655
