# generated using pymatgen
data_NaLi5Fe2P2(CO7)2
_symmetry_space_group_name_H-M   'P 1'
_cell_length_a   6.60702300
_cell_length_b   8.59036273
_cell_length_c   9.98231544
_cell_angle_alpha   87.74375008
_cell_angle_beta   89.61805268
_cell_angle_gamma   89.59019224
_symmetry_Int_Tables_number   1
_chemical_formula_structural   NaLi5Fe2P2(CO7)2
_chemical_formula_sum   'Na2 Li10 Fe4 P4 C4 O28'
_cell_volume   566.09825638
_cell_formula_units_Z   2
loop_
 _symmetry_equiv_pos_site_id
 _symmetry_equiv_pos_as_xyz
  1  'x, y, z'
loop_
 _atom_site_type_symbol
 _atom_site_label
 _atom_site_symmetry_multiplicity
 _atom_site_fract_x
 _atom_site_fract_y
 _atom_site_fract_z
 _atom_site_occupancy
  Na  Na0  1  0.74671200  0.08468500  0.87673100  1
  Na  Na1  1  0.00263800  0.25129200  0.12413200  1
  Li  Li0  1  0.73871400  0.08772300  0.37654000  1
  Li  Li1  1  0.98119900  0.26986000  0.61088900  1
  Li  Li2  1  0.52293300  0.27137600  0.61493500  1
  Li  Li3  1  0.51730200  0.27256500  0.11584400  1
  Li  Li4  1  0.47840300  0.72901300  0.88807100  1
  Li  Li5  1  0.02283500  0.72769500  0.88795600  1
  Li  Li6  1  0.48612300  0.73416700  0.38585200  1
  Li  Li7  1  0.01289800  0.73487300  0.38446400  1
  Li  Li8  1  0.25060600  0.90647600  0.62516500  1
  Li  Li9  1  0.26095800  0.90600600  0.12744700  1
  Fe  Fe0  1  0.25454600  0.35360300  0.88441600  1
  Fe  Fe1  1  0.25024600  0.34778500  0.39280600  1
  Fe  Fe2  1  0.74850400  0.65610600  0.61321300  1
  Fe  Fe3  1  0.74999500  0.64777000  0.11199600  1
  P  P0  1  0.75053600  0.41795500  0.84958700  1
  P  P1  1  0.74438300  0.41080700  0.35603600  1
  P  P2  1  0.24952300  0.59325800  0.64483600  1
  P  P3  1  0.25399900  0.59091600  0.14545900  1
  C  C0  1  0.25156200  0.04176200  0.86400300  1
  C  C1  1  0.25316700  0.04084200  0.36499600  1
  C  C2  1  0.75007200  0.96116900  0.62754200  1
  C  C3  1  0.74114300  0.94488500  0.14599400  1
  O  O0  1  0.75369900  0.10998400  0.64408400  1
  O  O1  1  0.72266500  0.09295800  0.16470400  1
  O  O2  1  0.24876700  0.08152000  0.98808800  1
  O  O3  1  0.25010100  0.08338100  0.48821400  1
  O  O4  1  0.25768400  0.15024100  0.76883700  1
  O  O5  1  0.25970500  0.14758500  0.26846000  1
  O  O6  1  0.94024300  0.32458800  0.89530800  1
  O  O7  1  0.56842600  0.32273700  0.90665800  1
  O  O8  1  0.93473200  0.31203900  0.39649300  1
  O  O9  1  0.56457800  0.31175800  0.41236600  1
  O  O10  1  0.74266900  0.42630800  0.69236700  1
  O  O11  1  0.25015400  0.42361300  0.59547000  1
  O  O12  1  0.73010900  0.42566800  0.19952700  1
  O  O13  1  0.26982600  0.42560000  0.08914100  1
  O  O14  1  0.74925000  0.58754900  0.89888300  1
  O  O15  1  0.24972400  0.58232900  0.80202100  1
  O  O16  1  0.74866800  0.57687000  0.41024900  1
  O  O17  1  0.24685500  0.57471300  0.30215000  1
  O  O18  1  0.43271700  0.69077900  0.59279100  1
  O  O19  1  0.06430300  0.68979900  0.59365500  1
  O  O20  1  0.43325700  0.69628200  0.09803400  1
  O  O21  1  0.06577200  0.68238100  0.09231500  1
  O  O22  1  0.74855000  0.86334400  0.73078900  1
  O  O23  1  0.75268500  0.84658800  0.24783900  1
  O  O24  1  0.74772400  0.90676100  0.50841100  1
  O  O25  1  0.74895300  0.89032200  0.02662700  1
  O  O26  1  0.24897400  0.89659700  0.83247300  1
  O  O27  1  0.25021400  0.89512100  0.33513600  1
loop_
_geom_bond_atom_site_label_1
_geom_bond_atom_site_label_2
_geom_bond_distance
_geom_bond_site_symmetry_2
Na0 O25 2.197753 1_546
Na0 O0 2.324150 1_555
Na0 O7 2.380666 1_555
Na0 O22 2.440366 1_545
Na0 O6 2.446924 1_555
Na1 O1 2.327739 1_455
Na1 O13 2.338562 1_555
Na1 O5 2.379917 1_555
Na1 O6 2.383177 1_454
Na1 O12 2.466696 1_455
Na1 O2 2.590026 1_554
Na1 O8 2.820912 1_455
Li0 O24 1.997887 1_545
Li0 O1 2.116670 1_555
Li0 O9 2.274311 1_555
Li0 O8 2.345093 1_555
Li0 O23 2.480955 1_545
Li1 O0 2.059701 1_555
Li1 O8 2.179902 1_555
Li1 O11 2.222568 1_655
Li1 O10 2.233849 1_555
Li1 O4 2.600541 1_655
Li2 O9 2.055159 1_555
Li2 O0 2.067696 1_555
Li2 O10 2.144792 1_555
Li2 O11 2.224207 1_555
Li2 O4 2.525597 1_555
Li3 O1 2.092613 1_555
Li3 O13 2.102439 1_555
Li3 O12 2.129108 1_555
Li3 O7 2.140580 1_554
Li3 O5 2.496601 1_555
Li4 O20 2.123054 1_556
Li4 O26 2.143679 1_555
Li4 O14 2.156814 1_555
Li4 O15 2.176731 1_555
Li5 O21 2.082575 1_556
Li5 O15 2.140758 1_555
Li5 O26 2.144994 1_555
Li5 O14 2.178715 1_455
Li6 O18 2.112394 1_555
Li6 O27 2.126504 1_555
Li6 O16 2.200074 1_555
Li6 O17 2.283019 1_555
Li6 O23 2.412397 1_555
Li7 O27 2.136152 1_555
Li7 O19 2.137711 1_555
Li7 O16 2.226353 1_455
Li7 O17 2.235869 1_555
Li7 O23 2.375159 1_455
Li8 O3 2.003689 1_565
Li8 O26 2.067772 1_555
Li8 O18 2.235067 1_555
Li8 O19 2.272151 1_555
Li8 O4 2.585107 1_565
Li9 O2 2.012355 1_564
Li9 O27 2.072409 1_555
Li9 O20 2.153082 1_555
Li9 O21 2.360272 1_555
Li9 O5 2.552995 1_565
Fe0 O6 2.094876 1_455
Fe0 O15 2.100074 1_555
Fe0 O7 2.100937 1_555
Fe0 O4 2.131025 1_555
Fe0 O13 2.161549 1_556
Fe0 O2 2.519063 1_555
Fe1 O9 2.106763 1_555
Fe1 O8 2.109143 1_455
Fe1 O17 2.116679 1_555
Fe1 O11 2.149605 1_555
Fe1 O5 2.160515 1_555
Fe1 O3 2.428100 1_555
Fe2 O10 2.097747 1_555
Fe2 O19 2.115205 1_655
Fe2 O18 2.115512 1_555
Fe2 O16 2.162576 1_555
Fe2 O22 2.170563 1_555
Fe2 O24 2.356562 1_555
Fe3 O12 2.071651 1_555
Fe3 O21 2.116281 1_655
Fe3 O20 2.135253 1_555
Fe3 O14 2.209104 1_554
Fe3 O25 2.219854 1_555
Fe3 O23 2.222437 1_555
C0 O2 1.297756 1_555
C0 O26 1.298343 1_545
C0 O4 1.304916 1_555
C1 O3 1.296843 1_555
C1 O27 1.298471 1_545
C1 O5 1.304510 1_555
C2 O24 1.294993 1_555
C2 O0 1.295838 1_565
C2 O22 1.303959 1_555
C3 O1 1.297672 1_565
C3 O23 1.298049 1_555
C3 O25 1.298068 1_555
O6 P0 1.545001 1_555
O7 P0 1.552277 1_555
O8 P1 1.558576 1_555
O9 P1 1.555419 1_555
O10 P0 1.569425 1_555
O11 P2 1.556614 1_555
O12 P1 1.565928 1_555
O13 P3 1.550385 1_555
O14 P0 1.555931 1_555
O15 P2 1.568191 1_555
O16 P1 1.546045 1_555
O17 P3 1.565280 1_555
O18 P2 1.551954 1_555
O19 P2 1.551395 1_555
O20 P3 1.555704 1_555
O21 P3 1.551571 1_555
