# generated using pymatgen
data_Sr3Ca5Mn8O20
_symmetry_space_group_name_H-M   'P 1'
_cell_length_a   7.84251795
_cell_length_b   7.83893555
_cell_length_c   7.72811869
_cell_angle_alpha   88.41948975
_cell_angle_beta   88.15225617
_cell_angle_gamma   90.49589842
_symmetry_Int_Tables_number   1
_chemical_formula_structural   Sr3Ca5Mn8O20
_chemical_formula_sum   'Sr3 Ca5 Mn8 O20'
_cell_volume   474.65214691
_cell_formula_units_Z   1
loop_
 _symmetry_equiv_pos_site_id
 _symmetry_equiv_pos_as_xyz
  1  'x, y, z'
loop_
 _atom_site_type_symbol
 _atom_site_label
 _atom_site_symmetry_multiplicity
 _atom_site_fract_x
 _atom_site_fract_y
 _atom_site_fract_z
 _atom_site_occupancy
  Sr  Sr0  1  0.24974700  0.24607500  0.25076000  1
  Sr  Sr1  1  0.25876400  0.26463700  0.73780800  1
  Sr  Sr2  1  0.75029100  0.26292300  0.25816400  1
  Ca  Ca0  1  0.25983400  0.74091700  0.26443500  1
  Ca  Ca1  1  0.25401100  0.73637200  0.71620700  1
  Ca  Ca2  1  0.73546500  0.25177200  0.72133400  1
  Ca  Ca3  1  0.74068300  0.74319700  0.27746300  1
  Ca  Ca4  1  0.73527500  0.73813100  0.71890600  1
  Mn  Mn0  1  0.00131500  0.99302700  0.99552800  1
  Mn  Mn1  1  0.99887100  0.99730200  0.51882300  1
  Mn  Mn2  1  0.00105500  0.49255200  0.99900500  1
  Mn  Mn3  1  0.00207300  0.50794600  0.49189300  1
  Mn  Mn4  1  0.48720300  0.99490300  0.00496500  1
  Mn  Mn5  1  0.50534100  0.00007900  0.49380900  1
  Mn  Mn6  1  0.50644900  0.50990300  0.99246500  1
  Mn  Mn7  1  0.50064400  0.50257900  0.50302300  1
  O  O0  1  0.93955100  0.93621600  0.77396000  1
  O  O1  1  0.00352400  0.52493700  0.24118800  1
  O  O2  1  0.00907800  0.53045400  0.74857800  1
  O  O3  1  0.53085100  0.01847600  0.24349600  1
  O  O4  1  0.51837800  0.98585100  0.75363500  1
  O  O5  1  0.49909600  0.52527200  0.74702400  1
  O  O6  1  0.22803100  0.96244800  0.06076900  1
  O  O7  1  0.24954400  0.99695100  0.51041800  1
  O  O8  1  0.25670500  0.51446700  0.01193200  1
  O  O9  1  0.25988600  0.50183400  0.47909600  1
  O  O10  1  0.75794200  0.99390900  0.47338700  1
  O  O11  1  0.75156400  0.51934500  0.01957500  1
  O  O12  1  0.74436100  0.50789700  0.48815900  1
  O  O13  1  0.98138100  0.23205000  0.02269100  1
  O  O14  1  0.99427600  0.24910800  0.51213600  1
  O  O15  1  0.00573300  0.76105900  0.45885100  1
  O  O16  1  0.50536800  0.25503800  0.99513300  1
  O  O17  1  0.50523100  0.25838600  0.49937400  1
  O  O18  1  0.52405300  0.74906600  0.04651800  1
  O  O19  1  0.49842400  0.74492100  0.46949300  1
loop_
_geom_bond_atom_site_label_1
_geom_bond_atom_site_label_2
_geom_bond_distance
_geom_bond_site_symmetry_2
Ca0 O6 2.331790 1_555
Ca0 O15 2.465566 1_555
Ca0 O9 2.468410 1_555
Ca0 O19 2.491272 1_555
Ca0 O18 2.626927 1_555
Ca0 O1 2.630671 1_555
Ca0 O8 2.674500 1_555
Ca0 O7 2.802110 1_555
Ca1 O2 2.500208 1_555
Ca1 O7 2.555108 1_555
Ca1 O5 2.559750 1_555
Ca1 O9 2.630959 1_555
Ca1 O19 2.658754 1_555
Ca1 O15 2.831855 1_555
Ca1 O8 2.834396 1_556
Ca1 O4 2.864700 1_555
Ca1 O0 2.961372 1_455
Ca2 O17 2.530167 1_555
Ca2 O14 2.554401 1_555
Ca2 O12 2.659516 1_555
Ca2 O4 2.681157 1_545
Ca2 O16 2.737120 1_555
Ca2 O10 2.826084 1_545
Ca2 O5 2.853206 1_555
Ca2 O0 2.983452 1_545
Ca2 O2 3.065055 1_655
Ca2 O13 3.072821 1_556
Ca2 O11 3.163630 1_556
Ca3 O19 2.373174 1_555
Ca3 O12 2.427468 1_555
Ca3 O18 2.503243 1_555
Ca3 O10 2.519150 1_555
Ca3 O15 2.549340 1_655
Ca3 O11 2.691285 1_555
Ca3 O1 2.702814 1_655
Ca3 O3 2.737066 1_565
Ca4 O0 2.279473 1_555
Ca4 O5 2.482486 1_555
Ca4 O12 2.571742 1_555
Ca4 O4 2.606302 1_555
Ca4 O2 2.717618 1_655
Ca4 O19 2.719437 1_555
Ca4 O10 2.722881 1_555
Ca4 O11 2.856564 1_556
Ca4 O15 2.875564 1_655
Ca4 O18 2.984206 1_556
Mn0 O0 1.859236 1_455
Mn0 O6 1.879244 1_556
Mn0 O13 1.898382 1_466
Mn1 O15 1.922154 1_655
Mn1 O10 1.933030 1_555
Mn1 O7 1.964914 1_655
Mn1 O14 1.973813 1_565
Mn1 O0 2.053862 1_555
Mn2 O1 1.896376 1_556
Mn2 O2 1.948805 1_555
Mn2 O11 1.971474 1_456
Mn2 O8 2.016724 1_556
Mn2 O13 2.049249 1_456
Mn3 O1 1.938042 1_555
Mn3 O15 1.993344 1_555
Mn3 O2 1.998837 1_555
Mn3 O9 2.022180 1_555
Mn3 O12 2.022244 1_455
Mn3 O14 2.030970 1_455
Mn4 O3 1.899426 1_565
Mn4 O4 1.953113 1_554
Mn4 O18 1.970240 1_555
Mn4 O16 2.042071 1_564
Mn4 O6 2.076171 1_555
Mn5 O3 1.939605 1_555
Mn5 O10 1.983340 1_545
Mn5 O7 2.005955 1_545
Mn5 O4 2.013927 1_545
Mn5 O19 2.014556 1_545
Mn5 O17 2.026501 1_555
Mn6 O5 1.900065 1_555
Mn6 O18 1.936701 1_556
Mn6 O11 1.941403 1_556
Mn6 O8 1.960260 1_556
Mn6 O16 1.997350 1_555
Mn7 O5 1.898579 1_555
Mn7 O9 1.903081 1_555
Mn7 O19 1.910505 1_555
Mn7 O12 1.911128 1_555
Mn7 O17 1.915830 1_555
O1 Sr2 2.842116 1_455
O1 Sr0 2.930211 1_555
O2 Sr1 2.872791 1_555
O3 Sr2 2.571746 1_555
O3 Sr0 2.848159 1_555
O4 Sr1 3.002434 1_565
O5 Sr1 2.771617 1_555
O6 Sr0 2.705123 1_565
O7 Sr0 2.761155 1_565
O7 Sr1 2.775873 1_565
O8 Sr0 2.759219 1_555
O8 Sr1 2.924155 1_554
O9 Sr1 2.692263 1_555
O9 Sr0 2.709455 1_555
O10 Sr2 2.651825 1_565
O11 Sr2 2.689662 1_555
O12 Sr2 2.652094 1_555
O13 Sr2 2.544375 1_555
O13 Sr0 2.791804 1_655
O13 Sr1 3.048791 1_654
O14 Sr1 2.756732 1_655
O14 Sr2 2.785568 1_555
O14 Sr0 2.799534 1_655
O16 Sr0 2.767848 1_556
O16 Sr1 2.818327 1_555
O16 Sr2 2.842889 1_556
O17 Sr1 2.628853 1_555
O17 Sr2 2.633232 1_555
O17 Sr0 2.823203 1_555
