# generated using pymatgen
data_MgV4O8
_symmetry_space_group_name_H-M   'P 1'
_cell_length_a   6.07607977
_cell_length_b   6.07607977
_cell_length_c   6.07607996
_cell_angle_alpha   58.11208799
_cell_angle_beta   58.11208799
_cell_angle_gamma   58.11209510
_symmetry_Int_Tables_number   1
_chemical_formula_structural   MgV4O8
_chemical_formula_sum   'Mg1 V4 O8'
_cell_volume   151.75400798
_cell_formula_units_Z   1
loop_
 _symmetry_equiv_pos_site_id
 _symmetry_equiv_pos_as_xyz
  1  'x, y, z'
loop_
 _atom_site_type_symbol
 _atom_site_label
 _atom_site_symmetry_multiplicity
 _atom_site_fract_x
 _atom_site_fract_y
 _atom_site_fract_z
 _atom_site_occupancy
  Mg  Mg0  1  0.50000000  0.50000000  0.50000000  1
  V  V0  1  0.00000000  0.50000000  0.50000000  1
  V  V1  1  0.50000000  0.00000000  0.50000000  1
  V  V2  1  0.50000000  0.50000000  0.00000000  1
  V  V3  1  0.00000000  0.00000000  0.00000000  1
  O  O0  1  0.27305500  0.75555200  0.75555200  1
  O  O1  1  0.24444800  0.24444800  0.72694500  1
  O  O2  1  0.72694500  0.24444800  0.24444800  1
  O  O3  1  0.24444800  0.72694500  0.24444800  1
  O  O4  1  0.26753400  0.26753400  0.26753400  1
  O  O5  1  0.73246600  0.73246600  0.73246600  1
  O  O6  1  0.75555200  0.27305500  0.75555200  1
  O  O7  1  0.75555200  0.75555200  0.27305500  1
loop_
_geom_bond_atom_site_label_1
_geom_bond_atom_site_label_2
_geom_bond_distance
_geom_bond_site_symmetry_2
Mg0 O1 2.178657 1_555
Mg0 O7 2.178657 1_555
Mg0 O6 2.178657 1_555
Mg0 O3 2.178657 1_555
Mg0 O0 2.178657 1_555
Mg0 O2 2.178657 1_555
O0 V1 1.995910 1_565
O0 V2 1.995911 1_556
O0 V3 2.070868 1_566
O1 V0 1.995911 1_555
O1 V1 1.995911 1_555
O1 V3 2.070868 1_556
O2 V1 1.995910 1_555
O2 V2 1.995911 1_555
O2 V3 2.070868 1_655
O3 V0 1.995910 1_555
O3 V2 1.995911 1_555
O3 V3 2.070868 1_565
O4 V2 1.972012 1_555
O4 V1 1.972012 1_555
O4 V0 1.972012 1_555
O5 V2 1.972012 1_556
O5 V0 1.972012 1_655
O5 V1 1.972012 1_565
O6 V0 1.995910 1_655
O6 V2 1.995911 1_556
O6 V3 2.070868 1_656
O7 V1 1.995911 1_565
O7 V0 1.995911 1_655
O7 V3 2.070868 1_665
