# generated using pymatgen
data_MnTlF4
_symmetry_space_group_name_H-M   'P 1'
_cell_length_a   7.29396248
_cell_length_b   7.29396248
_cell_length_c   5.34607184
_cell_angle_alpha   68.04559804
_cell_angle_beta   68.04559804
_cell_angle_gamma   43.48629941
_symmetry_Int_Tables_number   1
_chemical_formula_structural   MnTlF4
_chemical_formula_sum   'Mn2 Tl2 F8'
_cell_volume   179.17766371
_cell_formula_units_Z   2
loop_
 _symmetry_equiv_pos_site_id
 _symmetry_equiv_pos_as_xyz
  1  'x, y, z'
loop_
 _atom_site_type_symbol
 _atom_site_label
 _atom_site_symmetry_multiplicity
 _atom_site_fract_x
 _atom_site_fract_y
 _atom_site_fract_z
 _atom_site_occupancy
  Mn  Mn0  1  0.00000000  0.50000000  0.50000000  1
  Mn  Mn1  1  0.50000000  0.00000000  -0.00000000  1
  Tl  Tl0  1  0.23219352  0.76780648  0.75000000  1
  Tl  Tl1  1  0.76780648  0.23219352  0.25000000  1
  F  F0  1  0.76128836  0.45564010  0.67912051  1
  F  F1  1  0.54435990  0.23871164  0.82087949  1
  F  F2  1  0.23871164  0.54435990  0.32087949  1
  F  F3  1  0.45564010  0.76128836  0.17912051  1
  F  F4  1  0.28181106  0.14119192  0.75341074  1
  F  F5  1  0.85880808  0.71818894  0.74658926  1
  F  F6  1  0.71818894  0.85880808  0.24658926  1
  F  F7  1  0.14119192  0.28181106  0.25341074  1
loop_
_geom_bond_atom_site_label_1
_geom_bond_atom_site_label_2
_geom_bond_distance
_geom_bond_site_symmetry_2
F0 Mn0 1.841844 1_655
F0 Tl0 2.649960 1_555
F1 Mn1 1.841844 1_556
F1 Tl0 2.649960 1_555
F2 Mn0 1.841844 1_555
F2 Tl1 2.649960 1_555
F3 Mn1 1.841844 1_565
F3 Tl1 2.649960 1_555
F4 Mn1 1.872577 1_556
F4 Mn0 2.129510 1_555
F5 Mn0 1.872577 1_655
F5 Mn1 2.129510 1_566
F6 Mn1 1.872577 1_565
F6 Mn0 2.129510 1_655
F7 Mn0 1.872577 1_555
F7 Mn1 2.129510 1_555
