# generated using pymatgen
data_LiCr2O4
_symmetry_space_group_name_H-M   'P 1'
_cell_length_a   2.95582685
_cell_length_b   5.07686747
_cell_length_c   10.05010612
_cell_angle_alpha   99.73277049
_cell_angle_beta   89.98292124
_cell_angle_gamma   90.00920376
_symmetry_Int_Tables_number   1
_chemical_formula_structural   LiCr2O4
_chemical_formula_sum   'Li2 Cr4 O8'
_cell_volume   148.64461959
_cell_formula_units_Z   2
loop_
 _symmetry_equiv_pos_site_id
 _symmetry_equiv_pos_as_xyz
  1  'x, y, z'
loop_
 _atom_site_type_symbol
 _atom_site_label
 _atom_site_symmetry_multiplicity
 _atom_site_fract_x
 _atom_site_fract_y
 _atom_site_fract_z
 _atom_site_occupancy
  Li  Li0  1  0.50268200  0.50008500  0.99996600  1
  Li  Li1  1  0.49748800  0.99963800  0.49997300  1
  Cr  Cr0  1  0.00047600  0.25016900  0.75015500  1
  Cr  Cr1  1  0.49946800  0.24961600  0.24984900  1
  Cr  Cr2  1  0.99938700  0.74977600  0.24987200  1
  Cr  Cr3  1  0.50069000  0.75051500  0.75022300  1
  O  O0  1  0.99988700  0.10414900  0.35564100  1
  O  O1  1  0.00016300  0.60490600  0.85599400  1
  O  O2  1  0.99904300  0.39508300  0.14406800  1
  O  O3  1  0.00098400  0.89582400  0.64440400  1
  O  O4  1  0.48482000  0.63135000  0.35201800  1
  O  O5  1  0.51500600  0.13204000  0.85239300  1
  O  O6  1  0.51384100  0.86807500  0.14751800  1
  O  O7  1  0.48606600  0.36877500  0.64792600  1
loop_
_geom_bond_atom_site_label_1
_geom_bond_atom_site_label_2
_geom_bond_distance
_geom_bond_site_symmetry_2
Li0 O6 2.180306 1_556
Li0 O5 2.180677 1_555
Li0 O2 2.190131 1_556
Li0 O1 2.190414 1_655
Li0 O1 2.201133 1_555
Li0 O2 2.203906 1_456
Li1 O4 2.183670 1_555
Li1 O7 2.186791 1_565
Li1 O3 2.189910 1_555
Li1 O0 2.193328 1_465
Li1 O0 2.202169 1_565
Li1 O3 2.204507 1_655
Cr0 O5 1.918789 1_455
Cr0 O7 1.919978 1_555
Cr0 O3 1.928571 1_545
Cr0 O1 1.930590 1_555
Cr0 O5 1.984446 1_555
Cr0 O7 1.985068 1_455
Cr1 O2 2.029851 1_555
Cr1 O0 2.029929 1_455
Cr1 O2 2.032313 1_455
Cr1 O0 2.032365 1_555
Cr1 O6 2.034217 1_545
Cr1 O4 2.034523 1_555
Cr2 O4 1.919373 1_655
Cr2 O6 1.920593 1_555
Cr2 O0 1.928762 1_565
Cr2 O2 1.930264 1_555
Cr2 O4 1.983975 1_555
Cr2 O6 1.984656 1_655
Cr3 O1 2.030533 1_655
Cr3 O3 2.030627 1_555
Cr3 O3 2.031258 1_655
Cr3 O1 2.032166 1_555
Cr3 O5 2.033586 1_565
Cr3 O7 2.034990 1_555
