# generated using pymatgen
data_Mg3H2(SO5)2
_symmetry_space_group_name_H-M   'P 1'
_cell_length_a   7.54317000
_cell_length_b   7.54317000
_cell_length_c   13.12916900
_cell_angle_alpha   90.00000000
_cell_angle_beta   90.00000000
_cell_angle_gamma   90.00000000
_symmetry_Int_Tables_number   1
_chemical_formula_structural   Mg3H2(SO5)2
_chemical_formula_sum   'Mg12 H8 S8 O40'
_cell_volume   747.04201780
_cell_formula_units_Z   4
loop_
 _symmetry_equiv_pos_site_id
 _symmetry_equiv_pos_as_xyz
  1  'x, y, z'
loop_
 _atom_site_type_symbol
 _atom_site_label
 _atom_site_symmetry_multiplicity
 _atom_site_fract_x
 _atom_site_fract_y
 _atom_site_fract_z
 _atom_site_occupancy
  Mg  Mg0  1  0.39784500  0.14237000  0.24318300  1
  Mg  Mg1  1  0.60215500  0.85763000  0.74318300  1
  Mg  Mg2  1  0.35763000  0.89784500  0.49318300  1
  Mg  Mg3  1  0.10215500  0.64237000  0.00681700  1
  Mg  Mg4  1  0.64237000  0.10215500  0.99318300  1
  Mg  Mg5  1  0.89784500  0.35763000  0.50681700  1
  Mg  Mg6  1  0.14237000  0.39784500  0.75681700  1
  Mg  Mg7  1  0.85763000  0.60215500  0.25681700  1
  Mg  Mg8  1  0.37253300  0.37253300  0.00000000  1
  Mg  Mg9  1  0.62746700  0.62746700  0.50000000  1
  Mg  Mg10  1  0.12746700  0.87253300  0.25000000  1
  Mg  Mg11  1  0.87253300  0.12746700  0.75000000  1
  H  H0  1  0.17738800  0.09787300  0.38783400  1
  H  H1  1  0.82261200  0.90212700  0.88783400  1
  H  H2  1  0.40212700  0.67738800  0.63783400  1
  H  H3  1  0.32261200  0.59787300  0.86216600  1
  H  H4  1  0.59787300  0.32261200  0.13783400  1
  H  H5  1  0.67738800  0.40212700  0.36216600  1
  H  H6  1  0.09787300  0.17738800  0.61216600  1
  H  H7  1  0.90212700  0.82261200  0.11216600  1
  S  S0  1  0.00172800  0.25018200  0.12400400  1
  S  S1  1  0.99827200  0.74981800  0.62400400  1
  S  S2  1  0.24981800  0.50172800  0.37400400  1
  S  S3  1  0.49827200  0.75018200  0.12599600  1
  S  S4  1  0.75018200  0.49827200  0.87400400  1
  S  S5  1  0.50172800  0.24981800  0.62599600  1
  S  S6  1  0.25018200  0.00172800  0.87599600  1
  S  S7  1  0.74981800  0.99827200  0.37599600  1
  O  O0  1  0.14200800  0.39120300  0.44241400  1
  O  O1  1  0.85799200  0.60879700  0.94241400  1
  O  O2  1  0.10879700  0.64200800  0.69241400  1
  O  O3  1  0.35799200  0.89120300  0.80758600  1
  O  O4  1  0.89120300  0.35799200  0.19241400  1
  O  O5  1  0.64200800  0.10879700  0.30758600  1
  O  O6  1  0.39120300  0.14200800  0.55758600  1
  O  O7  1  0.60879700  0.85799200  0.05758600  1
  O  O8  1  0.12282800  0.13149500  0.18372700  1
  O  O9  1  0.87717200  0.86850500  0.68372700  1
  O  O10  1  0.36850500  0.62282800  0.43372700  1
  O  O11  1  0.37717200  0.63149500  0.06627300  1
  O  O12  1  0.63149500  0.37717200  0.93372700  1
  O  O13  1  0.62282800  0.36850500  0.56627300  1
  O  O14  1  0.13149500  0.12282800  0.81627300  1
  O  O15  1  0.86850500  0.87717200  0.31627300  1
  O  O16  1  0.25918500  0.00867900  0.36119400  1
  O  O17  1  0.74081500  0.99132100  0.86119400  1
  O  O18  1  0.49132100  0.75918500  0.61119400  1
  O  O19  1  0.24081500  0.50867900  0.88880600  1
  O  O20  1  0.50867900  0.24081500  0.11119400  1
  O  O21  1  0.75918500  0.49132100  0.38880600  1
  O  O22  1  0.00867900  0.25918500  0.63880600  1
  O  O23  1  0.99132100  0.74081500  0.13880600  1
  O  O24  1  0.35942400  0.39020700  0.30720400  1
  O  O25  1  0.64057600  0.60979300  0.80720400  1
  O  O26  1  0.10979300  0.85942400  0.55720400  1
  O  O27  1  0.14057600  0.89020700  0.94279600  1
  O  O28  1  0.89020700  0.14057600  0.05720400  1
  O  O29  1  0.85942400  0.10979300  0.44279600  1
  O  O30  1  0.39020700  0.35942400  0.69279600  1
  O  O31  1  0.60979300  0.64057600  0.19279600  1
  O  O32  1  0.11794200  0.37077900  0.06211600  1
  O  O33  1  0.88205800  0.62922100  0.56211600  1
  O  O34  1  0.12922100  0.61794200  0.31211600  1
  O  O35  1  0.38205800  0.87077900  0.18788400  1
  O  O36  1  0.87077900  0.38205800  0.81211600  1
  O  O37  1  0.61794200  0.12922100  0.68788400  1
  O  O38  1  0.37077900  0.11794200  0.93788400  1
  O  O39  1  0.62922100  0.88205800  0.43788400  1
loop_
_geom_bond_atom_site_label_1
_geom_bond_atom_site_label_2
_geom_bond_distance
_geom_bond_site_symmetry_2
Mg0 O5 2.042350 1_555
Mg0 O20 2.062368 1_555
Mg0 O24 2.070132 1_555
Mg0 O16 2.124043 1_555
Mg0 O35 2.176763 1_545
Mg0 O8 2.218023 1_555
Mg1 O3 2.042350 1_555
Mg1 O18 2.062368 1_555
Mg1 O25 2.070132 1_555
Mg1 O17 2.124043 1_555
Mg1 O37 2.176763 1_565
Mg1 O9 2.218023 1_555
Mg2 O6 2.042350 1_565
Mg2 O16 2.062368 1_565
Mg2 O26 2.070132 1_555
Mg2 O18 2.124043 1_555
Mg2 O39 2.176763 1_555
Mg2 O10 2.218023 1_555
Mg3 O1 2.042350 1_454
Mg3 O23 2.062368 1_455
Mg3 O27 2.070132 1_554
Mg3 O19 2.124043 1_554
Mg3 O32 2.176763 1_555
Mg3 O11 2.218023 1_555
Mg4 O7 2.042350 1_546
Mg4 O17 2.062368 1_545
Mg4 O28 2.070132 1_556
Mg4 O20 2.124043 1_556
Mg4 O38 2.176763 1_555
Mg4 O12 2.218023 1_555
Mg5 O0 2.042350 1_655
Mg5 O22 2.062368 1_655
Mg5 O29 2.070132 1_555
Mg5 O21 2.124043 1_555
Mg5 O33 2.176763 1_555
Mg5 O13 2.218023 1_555
Mg6 O2 2.042350 1_555
Mg6 O19 2.062368 1_555
Mg6 O30 2.070132 1_555
Mg6 O22 2.124043 1_555
Mg6 O36 2.176763 1_455
Mg6 O14 2.218023 1_555
Mg7 O4 2.042350 1_555
Mg7 O21 2.062368 1_555
Mg7 O31 2.070132 1_555
Mg7 O23 2.124043 1_555
Mg7 O34 2.176763 1_655
Mg7 O15 2.218023 1_555
Mg8 O19 2.042822 1_554
Mg8 O20 2.042822 1_555
Mg8 O32 2.086454 1_555
Mg8 O38 2.086454 1_554
Mg8 O11 2.138706 1_555
Mg8 O12 2.138706 1_554
Mg9 O21 2.042822 1_555
Mg9 O18 2.042822 1_555
Mg9 O33 2.086454 1_555
Mg9 O39 2.086454 1_555
Mg9 O13 2.138706 1_555
Mg9 O10 2.138706 1_555
Mg10 O16 2.042822 1_565
Mg10 O23 2.042822 1_455
Mg10 O35 2.086454 1_555
Mg10 O34 2.086454 1_555
Mg10 O15 2.138706 1_455
Mg10 O8 2.138706 1_565
Mg11 O17 2.042822 1_545
Mg11 O22 2.042822 1_655
Mg11 O36 2.086454 1_555
Mg11 O37 2.086454 1_555
Mg11 O14 2.138706 1_655
Mg11 O9 2.138706 1_545
H0 O16 0.977599 1_555
H1 O17 0.977599 1_555
H2 O18 0.977599 1_555
H3 O19 0.977599 1_555
H4 O20 0.977599 1_555
H5 O21 0.977599 1_555
H6 O22 0.977599 1_555
H7 O23 0.977599 1_555
O0 S2 1.470753 1_555
O1 S4 1.470753 1_555
O2 S1 1.470753 1_455
O3 S6 1.470753 1_565
O4 S0 1.470753 1_655
O5 S7 1.470753 1_545
O6 S5 1.470753 1_555
O7 S3 1.470753 1_555
O8 S0 1.500265 1_555
O9 S1 1.500265 1_555
O10 S2 1.500265 1_555
O11 S3 1.500265 1_555
O12 S4 1.500265 1_555
O13 S5 1.500265 1_555
O14 S6 1.500265 1_555
O15 S7 1.500265 1_555
O24 S2 1.469828 1_555
O25 S4 1.469828 1_555
O26 S1 1.469828 1_455
O27 S6 1.469828 1_565
O28 S0 1.469828 1_655
O29 S7 1.469828 1_545
O30 S5 1.469828 1_555
O31 S3 1.469828 1_555
O32 S0 1.502068 1_555
O33 S1 1.502068 1_555
O34 S2 1.502068 1_555
O35 S3 1.502068 1_555
O36 S4 1.502068 1_555
O37 S5 1.502068 1_555
O38 S6 1.502068 1_555
O39 S7 1.502068 1_555
