# generated using pymatgen
data_Pr2ZnPtO6
_symmetry_space_group_name_H-M   'P 1'
_cell_length_a   5.85969700
_cell_length_b   5.55439000
_cell_length_c   9.66377868
_cell_angle_alpha   55.04809413
_cell_angle_beta   90.00000000
_cell_angle_gamma   90.00000000
_symmetry_Int_Tables_number   1
_chemical_formula_structural   Pr2ZnPtO6
_chemical_formula_sum   'Pr4 Zn2 Pt2 O12'
_cell_volume   257.79711644
_cell_formula_units_Z   2
loop_
 _symmetry_equiv_pos_site_id
 _symmetry_equiv_pos_as_xyz
  1  'x, y, z'
loop_
 _atom_site_type_symbol
 _atom_site_label
 _atom_site_symmetry_multiplicity
 _atom_site_fract_x
 _atom_site_fract_y
 _atom_site_fract_z
 _atom_site_occupancy
  Pr  Pr0  1  0.43418500  0.23230500  0.74938400  1
  Pr  Pr1  1  0.56581500  0.76769500  0.25061600  1
  Pr  Pr2  1  0.93418500  0.76769500  0.75061600  1
  Pr  Pr3  1  0.06581500  0.23230500  0.24938400  1
  Zn  Zn0  1  0.00000000  0.50000000  0.50000000  1
  Zn  Zn1  1  0.50000000  0.50000000  0.00000000  1
  Pt  Pt0  1  0.00000000  0.00000000  0.00000000  1
  Pt  Pt1  1  0.50000000  0.00000000  0.50000000  1
  O  O0  1  0.03354900  0.34996700  0.75221600  1
  O  O1  1  0.96645100  0.65003300  0.24778400  1
  O  O2  1  0.53354900  0.65003300  0.74778400  1
  O  O3  1  0.46645100  0.34996700  0.25221600  1
  O  O4  1  0.70651700  0.86374200  0.94512700  1
  O  O5  1  0.29348300  0.13625800  0.05487300  1
  O  O6  1  0.20651700  0.13625800  0.55487300  1
  O  O7  1  0.79348300  0.86374200  0.44512700  1
  O  O8  1  0.19670000  0.75123900  0.94907000  1
  O  O9  1  0.80330000  0.24876100  0.05093000  1
  O  O10  1  0.69670000  0.24876100  0.55093000  1
  O  O11  1  0.30330000  0.75123900  0.44907000  1
loop_
_geom_bond_atom_site_label_1
_geom_bond_atom_site_label_2
_geom_bond_distance
_geom_bond_site_symmetry_2
O0 Pt0 2.053736 1_556
O0 Zn0 2.084845 1_555
O0 Pr2 2.383607 1_455
O0 Pr0 2.441231 1_555
O1 Pt0 2.053736 1_665
O1 Zn0 2.084845 1_655
O1 Pr3 2.383607 1_655
O1 Pr1 2.441231 1_555
O2 Pt1 2.053736 1_565
O2 Zn1 2.084845 1_556
O2 Pr0 2.383607 1_555
O2 Pr2 2.441231 1_555
O3 Pt1 2.053736 1_555
O3 Zn1 2.084845 1_555
O3 Pr1 2.383607 1_555
O3 Pr3 2.441231 1_555
O4 Pt0 2.066705 1_666
O4 Zn1 2.144747 1_556
O4 Pr0 2.424585 1_565
O4 Pr2 2.597427 1_555
O4 Pr1 2.806276 1_556
O5 Pt0 2.066705 1_555
O5 Zn1 2.144747 1_555
O5 Pr1 2.424585 1_545
O5 Pr3 2.597427 1_555
O5 Pr0 2.806276 1_554
O6 Pt1 2.066705 1_555
O6 Zn0 2.144747 1_555
O6 Pr2 2.424585 1_445
O6 Pr0 2.597427 1_555
O6 Pr3 2.806276 1_555
O7 Pt1 2.066705 1_565
O7 Zn0 2.144747 1_655
O7 Pr3 2.424585 1_665
O7 Pr1 2.597427 1_555
O7 Pr2 2.806276 1_555
O8 Pt0 2.063747 1_566
O8 Zn1 2.135710 1_556
O8 Pr2 2.419041 1_455
O8 Pr0 2.625290 1_565
O8 Pr3 2.781053 1_556
O9 Pt0 2.063747 1_655
O9 Zn1 2.135710 1_555
O9 Pr3 2.419041 1_655
O9 Pr1 2.625290 1_545
O9 Pr2 2.781053 1_554
O10 Pt1 2.063747 1_555
O10 Zn0 2.135710 1_655
O10 Pr0 2.419041 1_555
O10 Pr2 2.625290 1_545
O10 Pr1 2.781053 1_555
O11 Pt1 2.063747 1_565
O11 Zn0 2.135710 1_555
O11 Pr1 2.419041 1_555
O11 Pr3 2.625290 1_565
O11 Pr0 2.781053 1_555
