# generated using pymatgen
data_Cs2U(N2O7)2
_symmetry_space_group_name_H-M   'P 1'
_cell_length_a   6.83434807
_cell_length_b   8.24372100
_cell_length_c   13.33053015
_cell_angle_alpha   90.00000000
_cell_angle_beta   103.77964590
_cell_angle_gamma   90.00000000
_symmetry_Int_Tables_number   1
_chemical_formula_structural   Cs2U(N2O7)2
_chemical_formula_sum   'Cs4 U2 N8 O28'
_cell_volume   729.43223326
_cell_formula_units_Z   2
loop_
 _symmetry_equiv_pos_site_id
 _symmetry_equiv_pos_as_xyz
  1  'x, y, z'
loop_
 _atom_site_type_symbol
 _atom_site_label
 _atom_site_symmetry_multiplicity
 _atom_site_fract_x
 _atom_site_fract_y
 _atom_site_fract_z
 _atom_site_occupancy
  Cs  Cs0  1  0.15866000  0.98230100  0.34146500  1
  Cs  Cs1  1  0.84134000  0.01769900  0.65853500  1
  Cs  Cs2  1  0.34134000  0.48230100  0.15853500  1
  Cs  Cs3  1  0.65866000  0.51769900  0.84146500  1
  U  U0  1  0.50000000  0.00000000  0.00000000  1
  U  U1  1  0.00000000  0.50000000  0.50000000  1
  N  N0  1  0.86844800  0.27103000  0.11000300  1
  N  N1  1  0.13155200  0.72897000  0.88999700  1
  N  N2  1  0.63155200  0.77103000  0.38999700  1
  N  N3  1  0.36844800  0.22897000  0.61000300  1
  N  N4  1  0.79904900  0.76414400  0.12518500  1
  N  N5  1  0.20095100  0.23585600  0.87481500  1
  N  N6  1  0.70095100  0.26414400  0.37481500  1
  N  N7  1  0.29904900  0.73585600  0.62518500  1
  O  O0  1  0.81973900  0.72449800  0.40267600  1
  O  O1  1  0.18026100  0.27550200  0.59732400  1
  O  O2  1  0.68026100  0.22449800  0.09732400  1
  O  O3  1  0.31973900  0.77550200  0.90267600  1
  O  O4  1  0.15706800  0.49632300  0.40907300  1
  O  O5  1  0.84293200  0.50367700  0.59092700  1
  O  O6  1  0.34293200  0.99632300  0.09092700  1
  O  O7  1  0.65706800  0.00367700  0.90907300  1
  O  O8  1  0.92407400  0.66932500  0.17414300  1
  O  O9  1  0.07592600  0.33067500  0.82585700  1
  O  O10  1  0.57592600  0.16932500  0.32585700  1
  O  O11  1  0.42407400  0.83067500  0.67414300  1
  O  O12  1  0.81457100  0.91884000  0.13660100  1
  O  O13  1  0.18542900  0.08116000  0.86339900  1
  O  O14  1  0.68542900  0.41884000  0.36339900  1
  O  O15  1  0.31457100  0.58116000  0.63660100  1
  O  O16  1  0.63971000  0.71701900  0.05807900  1
  O  O17  1  0.36029000  0.28298100  0.94192100  1
  O  O18  1  0.86029000  0.21701900  0.44192100  1
  O  O19  1  0.13971000  0.78298100  0.55807900  1
  O  O20  1  0.97730300  0.26997000  0.19964500  1
  O  O21  1  0.02269700  0.73003000  0.80035500  1
  O  O22  1  0.52269700  0.76997000  0.30035500  1
  O  O23  1  0.47730300  0.23003000  0.69964500  1
  O  O24  1  0.92884400  0.31731600  0.03354600  1
  O  O25  1  0.07115600  0.68268400  0.96645400  1
  O  O26  1  0.57115600  0.81731600  0.46645400  1
  O  O27  1  0.42884400  0.18268400  0.53354600  1
loop_
_geom_bond_atom_site_label_1
_geom_bond_atom_site_label_2
_geom_bond_distance
_geom_bond_site_symmetry_2
Cs0 O20 3.101282 1_465
Cs0 O12 3.194139 1_455
Cs0 O22 3.194316 1_555
Cs0 O26 3.214950 1_555
Cs0 O27 3.231480 1_565
Cs0 O10 3.291723 1_565
Cs0 O18 3.316073 1_465
Cs0 O19 3.351558 1_555
Cs0 O0 3.383514 1_455
Cs0 O8 3.535363 1_455
Cs1 O21 3.101282 1_645
Cs1 O13 3.194139 1_655
Cs1 O23 3.194316 1_555
Cs1 O27 3.214950 1_555
Cs1 O26 3.231480 1_545
Cs1 O11 3.291723 1_545
Cs1 O19 3.316073 1_645
Cs1 O18 3.351558 1_555
Cs1 O1 3.383514 1_655
Cs1 O9 3.535363 1_655
Cs2 O22 3.101282 1_555
Cs2 O14 3.194139 1_555
Cs2 O20 3.194316 1_455
Cs2 O24 3.214950 1_455
Cs2 O25 3.231480 1_554
Cs2 O8 3.291723 1_455
Cs2 O16 3.316073 1_555
Cs2 O17 3.351558 1_554
Cs2 O2 3.383514 1_555
Cs2 O10 3.535363 1_555
Cs3 O23 3.101282 1_555
Cs3 O15 3.194139 1_555
Cs3 O21 3.194316 1_655
Cs3 O25 3.214950 1_655
Cs3 O24 3.231480 1_556
Cs3 O9 3.291723 1_655
Cs3 O17 3.316073 1_555
Cs3 O16 3.351558 1_556
Cs3 O3 3.383514 1_555
Cs3 O11 3.535363 1_555
N0 O24 1.247067 1_555
N0 O20 1.248201 1_555
N0 O2 1.313889 1_555
N1 O25 1.247067 1_555
N1 O21 1.248201 1_555
N1 O3 1.313889 1_555
N2 O26 1.247067 1_555
N2 O22 1.248201 1_555
N2 O0 1.313889 1_555
N3 O27 1.247067 1_555
N3 O23 1.248201 1_555
N3 O1 1.313889 1_555
N4 O8 1.225310 1_555
N4 O12 1.285705 1_555
N4 O16 1.293431 1_555
N5 O9 1.225310 1_555
N5 O13 1.285705 1_555
N5 O17 1.293431 1_555
N6 O10 1.225310 1_555
N6 O14 1.285705 1_555
N6 O18 1.293431 1_555
N7 O11 1.225310 1_555
N7 O15 1.285705 1_555
N7 O19 1.293431 1_555
O0 U1 2.421697 1_655
O1 U1 2.421697 1_555
O2 U0 2.421697 1_555
O3 U0 2.421697 1_566
O4 U1 1.800628 1_555
O5 U1 1.800628 1_655
O6 U0 1.800628 1_565
O7 U0 1.800628 1_556
O12 U0 2.553550 1_565
O13 U0 2.553550 1_556
O14 U1 2.553550 1_655
O15 U1 2.553550 1_555
O16 U0 2.569239 1_565
O17 U0 2.569239 1_556
O18 U1 2.569239 1_655
O19 U1 2.569239 1_555
