# generated using pymatgen
data_ZnCo2
_symmetry_space_group_name_H-M   'P 1'
_cell_length_a   5.13908907
_cell_length_b   5.13908907
_cell_length_c   12.41413000
_cell_angle_alpha   90.00000000
_cell_angle_beta   90.00000000
_cell_angle_gamma   120.00001382
_symmetry_Int_Tables_number   1
_chemical_formula_structural   ZnCo2
_chemical_formula_sum   'Zn8 Co16'
_cell_volume   283.93514402
_cell_formula_units_Z   8
loop_
 _symmetry_equiv_pos_site_id
 _symmetry_equiv_pos_as_xyz
  1  'x, y, z'
loop_
 _atom_site_type_symbol
 _atom_site_label
 _atom_site_symmetry_multiplicity
 _atom_site_fract_x
 _atom_site_fract_y
 _atom_site_fract_z
 _atom_site_occupancy
  Zn  Zn0_0  1  0.00000000  0.00000000  0.00000000  1
  Zn  Zn0_1  1  0.00000000  0.00000000  0.50000000  1
  Zn  Zn0_2  1  0.00000000  0.50000000  0.00000000  1
  Zn  Zn0_3  1  0.00000000  0.50000000  0.50000000  1
  Zn  Zn0_4  1  0.50000000  0.00000000  0.00000000  1
  Zn  Zn0_5  1  0.50000000  0.00000000  0.50000000  1
  Zn  Zn0_6  1  0.50000000  0.50000000  0.00000000  1
  Zn  Zn0_7  1  0.50000000  0.50000000  0.50000000  1
  Co  Co0_0  1  0.16666650  0.33333350  0.32663550  1
  Co  Co0_1  1  0.16666650  0.33333350  0.82663550  1
  Co  Co0_2  1  0.16666650  0.83333350  0.32663550  1
  Co  Co0_3  1  0.16666650  0.83333350  0.82663550  1
  Co  Co0_4  1  0.66666650  0.33333350  0.32663550  1
  Co  Co0_5  1  0.66666650  0.33333350  0.82663550  1
  Co  Co0_6  1  0.66666650  0.83333350  0.32663550  1
  Co  Co0_7  1  0.66666650  0.83333350  0.82663550  1
  Co  Co1_0  1  0.33333350  0.16666650  0.17336450  1
  Co  Co1_1  1  0.33333350  0.16666650  0.67336450  1
  Co  Co1_2  1  0.33333350  0.66666650  0.17336450  1
  Co  Co1_3  1  0.33333350  0.66666650  0.67336450  1
  Co  Co1_4  1  0.83333350  0.16666650  0.17336450  1
  Co  Co1_5  1  0.83333350  0.16666650  0.67336450  1
  Co  Co1_6  1  0.83333350  0.66666650  0.17336450  1
  Co  Co1_7  1  0.83333350  0.66666650  0.67336450  1
loop_
_geom_bond_atom_site_label_1
_geom_bond_atom_site_label_2
_geom_bond_distance
_geom_bond_site_symmetry_2
Zn0_0 Zn0_6 2.569544 1_445
Zn0_0 Zn0_6 2.569544 1_555
Zn0_0 Zn0_2 2.569545 1_545
Zn0_0 Zn0_2 2.569545 1_555
Zn0_0 Zn0_4 2.569545 1_455
Zn0_0 Zn0_4 2.569545 1_555
Zn0_1 Zn0_7 2.569544 1_445
Zn0_1 Zn0_7 2.569544 1_555
Zn0_1 Zn0_5 2.569545 1_555
Zn0_1 Zn0_5 2.569545 1_455
Zn0_1 Zn0_3 2.569545 1_545
Zn0_1 Zn0_3 2.569545 1_555
Zn0_2 Zn0_4 2.569544 1_455
Zn0_2 Zn0_4 2.569544 1_565
Zn0_2 Zn0_6 2.569545 1_455
Zn0_2 Zn0_6 2.569545 1_555
Zn0_3 Zn0_5 2.569544 1_565
Zn0_3 Zn0_5 2.569544 1_455
Zn0_3 Zn0_7 2.569545 1_555
Zn0_3 Zn0_7 2.569545 1_455
Zn0_4 Zn0_6 2.569545 1_545
Zn0_4 Zn0_6 2.569545 1_555
Zn0_5 Zn0_7 2.569545 1_545
Zn0_5 Zn0_7 2.569545 1_555
Co0_0 Co1_2 2.412719 1_555
Co0_0 Co1_4 2.412719 1_455
Co0_0 Co1_0 2.412722 1_555
Co0_0 Co0_6 2.569544 1_445
Co0_0 Co0_6 2.569544 1_555
Co0_0 Co0_4 2.569545 1_455
Co0_0 Co0_2 2.569545 1_555
Co0_0 Co0_2 2.569545 1_545
Co0_0 Co0_4 2.569545 1_555
Co0_0 Zn0_3 2.613940 1_555
Co0_0 Zn0_1 2.613941 1_555
Co0_0 Zn0_7 2.613941 1_555
Co0_1 Co1_3 2.412719 1_555
Co0_1 Co1_5 2.412719 1_455
Co0_1 Co1_1 2.412722 1_555
Co0_1 Co0_7 2.569544 1_445
Co0_1 Co0_7 2.569544 1_555
Co0_1 Co0_5 2.569545 1_455
Co0_1 Co0_3 2.569545 1_555
Co0_1 Co0_5 2.569545 1_555
Co0_1 Co0_3 2.569545 1_545
Co0_1 Zn0_2 2.613940 1_556
Co0_1 Zn0_0 2.613941 1_556
Co0_1 Zn0_6 2.613941 1_556
Co0_2 Co1_0 2.412719 1_565
Co0_2 Co1_6 2.412719 1_455
Co0_2 Co1_2 2.412722 1_555
Co0_2 Co0_4 2.569544 1_455
Co0_2 Co0_4 2.569544 1_565
Co0_2 Co0_6 2.569545 1_455
Co0_2 Co0_6 2.569545 1_555
Co0_2 Zn0_1 2.613940 1_565
Co0_2 Zn0_3 2.613941 1_555
Co0_2 Zn0_5 2.613941 1_565
Co0_3 Co1_1 2.412719 1_565
Co0_3 Co1_7 2.412719 1_455
Co0_3 Co1_3 2.412722 1_555
Co0_3 Co0_5 2.569544 1_455
Co0_3 Co0_5 2.569544 1_565
Co0_3 Co0_7 2.569545 1_455
Co0_3 Co0_7 2.569545 1_555
Co0_3 Zn0_0 2.613940 1_566
Co0_3 Zn0_2 2.613941 1_556
Co0_3 Zn0_4 2.613941 1_566
Co0_4 Co1_0 2.412719 1_555
Co0_4 Co1_6 2.412719 1_555
Co0_4 Co1_4 2.412722 1_555
Co0_4 Co0_6 2.569545 1_555
Co0_4 Co0_6 2.569545 1_545
Co0_4 Zn0_7 2.613940 1_555
Co0_4 Zn0_3 2.613941 1_655
Co0_4 Zn0_5 2.613941 1_555
Co0_5 Co1_7 2.412719 1_555
Co0_5 Co1_1 2.412719 1_555
Co0_5 Co1_5 2.412722 1_555
Co0_5 Co0_7 2.569545 1_555
Co0_5 Co0_7 2.569545 1_545
Co0_5 Zn0_6 2.613940 1_556
Co0_5 Zn0_4 2.613941 1_556
Co0_5 Zn0_2 2.613941 1_656
Co0_6 Co1_2 2.412719 1_555
Co0_6 Co1_4 2.412719 1_565
Co0_6 Co1_6 2.412722 1_555
Co0_6 Zn0_5 2.613940 1_565
Co0_6 Zn0_1 2.613941 1_665
Co0_6 Zn0_7 2.613941 1_555
Co0_7 Co1_3 2.412719 1_555
Co0_7 Co1_5 2.412719 1_565
Co0_7 Co1_7 2.412722 1_555
Co0_7 Zn0_4 2.613940 1_566
Co0_7 Zn0_0 2.613941 1_666
Co0_7 Zn0_6 2.613941 1_556
Co1_0 Co1_6 2.569544 1_555
Co1_0 Co1_6 2.569544 1_445
Co1_0 Co1_2 2.569545 1_545
Co1_0 Co1_4 2.569545 1_555
Co1_0 Co1_2 2.569545 1_555
Co1_0 Co1_4 2.569545 1_455
Co1_0 Zn0_4 2.613940 1_555
Co1_0 Zn0_6 2.613941 1_555
Co1_0 Zn0_0 2.613941 1_555
Co1_1 Co1_7 2.569544 1_555
Co1_1 Co1_7 2.569544 1_445
Co1_1 Co1_3 2.569545 1_545
Co1_1 Co1_5 2.569545 1_555
Co1_1 Co1_3 2.569545 1_555
Co1_1 Co1_5 2.569545 1_455
Co1_1 Zn0_5 2.613940 1_555
Co1_1 Zn0_7 2.613941 1_555
Co1_1 Zn0_1 2.613941 1_555
Co1_2 Co1_4 2.569544 1_565
Co1_2 Co1_4 2.569544 1_455
Co1_2 Co1_6 2.569545 1_555
Co1_2 Co1_6 2.569545 1_455
Co1_2 Zn0_6 2.613940 1_555
Co1_2 Zn0_4 2.613941 1_565
Co1_2 Zn0_2 2.613941 1_555
Co1_3 Co1_5 2.569544 1_565
Co1_3 Co1_5 2.569544 1_455
Co1_3 Co1_7 2.569545 1_555
Co1_3 Co1_7 2.569545 1_455
Co1_3 Zn0_7 2.613940 1_555
Co1_3 Zn0_5 2.613941 1_565
Co1_3 Zn0_3 2.613941 1_555
Co1_4 Co1_6 2.569545 1_545
Co1_4 Co1_6 2.569545 1_555
Co1_4 Zn0_0 2.613940 1_655
Co1_4 Zn0_4 2.613941 1_555
Co1_4 Zn0_2 2.613941 1_655
Co1_5 Co1_7 2.569545 1_555
Co1_5 Co1_7 2.569545 1_545
Co1_5 Zn0_1 2.613940 1_655
Co1_5 Zn0_5 2.613941 1_555
Co1_5 Zn0_3 2.613941 1_655
Co1_6 Zn0_2 2.613940 1_655
Co1_6 Zn0_6 2.613941 1_555
Co1_6 Zn0_0 2.613941 1_665
Co1_7 Zn0_3 2.613940 1_655
Co1_7 Zn0_1 2.613941 1_665
Co1_7 Zn0_7 2.613941 1_555
