# generated using pymatgen
data_U5CrSb3
_symmetry_space_group_name_H-M   'P 1'
_cell_length_a   5.86736400
_cell_length_b   9.13138355
_cell_length_c   9.13138355
_cell_angle_alpha   119.99999676
_cell_angle_beta   90.00000000
_cell_angle_gamma   90.00000000
_symmetry_Int_Tables_number   1
_chemical_formula_structural   U5CrSb3
_chemical_formula_sum   'U10 Cr2 Sb6'
_cell_volume   423.68866764
_cell_formula_units_Z   2
loop_
 _symmetry_equiv_pos_site_id
 _symmetry_equiv_pos_as_xyz
  1  'x, y, z'
loop_
 _atom_site_type_symbol
 _atom_site_label
 _atom_site_symmetry_multiplicity
 _atom_site_fract_x
 _atom_site_fract_y
 _atom_site_fract_z
 _atom_site_occupancy
  U  U0  1  0.75000000  0.75507600  0.75507600  1
  U  U1  1  0.25000000  0.24492400  0.24492400  1
  U  U2  1  0.75000000  0.00000000  0.24492400  1
  U  U3  1  0.25000000  0.00000000  0.75507600  1
  U  U4  1  0.75000000  0.24492400  0.00000000  1
  U  U5  1  0.25000000  0.75507600  0.00000000  1
  U  U6  1  0.00000000  0.66666700  0.33333300  1
  U  U7  1  0.00000000  0.33333300  0.66666700  1
  U  U8  1  0.50000000  0.33333300  0.66666700  1
  U  U9  1  0.50000000  0.66666700  0.33333300  1
  Cr  Cr0  1  0.00000000  0.00000000  0.00000000  1
  Cr  Cr1  1  0.50000000  0.00000000  0.00000000  1
  Sb  Sb0  1  0.75000000  0.38949300  0.38949300  1
  Sb  Sb1  1  0.25000000  0.61050700  0.61050700  1
  Sb  Sb2  1  0.75000000  0.00000000  0.61050700  1
  Sb  Sb3  1  0.25000000  0.00000000  0.38949300  1
  Sb  Sb4  1  0.75000000  0.61050700  0.00000000  1
  Sb  Sb5  1  0.25000000  0.38949300  0.00000000  1
loop_
_geom_bond_atom_site_label_1
_geom_bond_atom_site_label_2
_geom_bond_distance
_geom_bond_site_symmetry_2
U6 U9 2.933682 1_455
U6 U9 2.933682 1_555
U7 U8 2.933682 1_555
U7 U8 2.933682 1_455
Cr0 U4 2.674609 1_455
Cr0 U2 2.674609 1_455
Cr0 U5 2.674609 1_545
Cr0 U3 2.674609 1_554
Cr0 U0 2.674609 1_444
Cr0 U1 2.674609 1_555
Cr1 U2 2.674609 1_555
Cr1 U4 2.674609 1_555
Cr1 U5 2.674609 1_545
Cr1 U3 2.674609 1_554
Cr1 U1 2.674609 1_555
Cr1 U0 2.674609 1_544
Sb0 U2 3.114008 1_555
Sb0 U4 3.114008 1_555
Sb0 U6 3.180945 1_655
Sb0 U8 3.180945 1_555
Sb0 U7 3.180945 1_655
Sb0 U9 3.180945 1_555
Sb0 U1 3.217016 1_655
Sb0 U1 3.217016 1_555
Sb0 U0 3.338279 1_555
Sb1 U5 3.114008 1_556
Sb1 U3 3.114008 1_565
Sb1 U6 3.180945 1_555
Sb1 U7 3.180945 1_555
Sb1 U8 3.180945 1_555
Sb1 U9 3.180945 1_555
Sb1 U0 3.217016 1_555
Sb1 U0 3.217016 1_455
Sb1 U1 3.338279 1_555
Sb2 U0 3.114008 1_545
Sb2 U4 3.114008 1_556
Sb2 U8 3.180937 1_555
Sb2 U7 3.180937 1_655
Sb2 U9 3.180940 1_545
Sb2 U6 3.180940 1_645
Sb2 U3 3.217016 1_655
Sb2 U3 3.217016 1_555
Sb2 U2 3.338279 1_555
Sb3 U1 3.114008 1_555
Sb3 U5 3.114008 1_545
Sb3 U9 3.180937 1_545
Sb3 U6 3.180937 1_545
Sb3 U8 3.180940 1_555
Sb3 U7 3.180940 1_555
Sb3 U2 3.217016 1_455
Sb3 U2 3.217016 1_555
Sb3 U3 3.338279 1_555
Sb4 U0 3.114008 1_554
Sb4 U2 3.114008 1_565
Sb4 U6 3.180937 1_655
Sb4 U9 3.180937 1_555
Sb4 U8 3.180940 1_554
Sb4 U7 3.180940 1_654
Sb4 U5 3.217016 1_555
Sb4 U5 3.217016 1_655
Sb4 U4 3.338279 1_555
Sb5 U1 3.114008 1_555
Sb5 U3 3.114008 1_554
Sb5 U7 3.180937 1_554
Sb5 U8 3.180937 1_554
Sb5 U9 3.180940 1_555
Sb5 U6 3.180940 1_555
Sb5 U4 3.217016 1_555
Sb5 U4 3.217016 1_455
Sb5 U5 3.338279 1_555
