# generated using pymatgen
data_TaGaTc2
_symmetry_space_group_name_H-M   'P 1'
_cell_length_a   10.52952332
_cell_length_b   10.52952332
_cell_length_c   10.52952332
_cell_angle_alpha   126.38091275
_cell_angle_beta   117.97345546
_cell_angle_gamma   86.43314466
_symmetry_Int_Tables_number   1
_chemical_formula_structural   TaGaTc2
_chemical_formula_sum   'Ta1 Ga1 Tc2'
_cell_volume   790.83424837
_cell_formula_units_Z   1
loop_
 _symmetry_equiv_pos_site_id
 _symmetry_equiv_pos_as_xyz
  1  'x, y, z'
loop_
 _atom_site_type_symbol
 _atom_site_label
 _atom_site_symmetry_multiplicity
 _atom_site_fract_x
 _atom_site_fract_y
 _atom_site_fract_z
 _atom_site_occupancy
  Ta  Ta0  1  0.00000000  0.50000000  0.50000000  1
  Ga  Ga0  1  0.00000000  0.00000000  0.00000000  1
  Tc  Tc0  1  0.00000000  0.26427500  0.26427500  1
  Tc  Tc1  1  0.00000000  0.73572500  0.73572500  1
loop_
_geom_bond_atom_site_label_1
_geom_bond_atom_site_label_2
_geom_bond_distance
_geom_bond_site_symmetry_2
Ta0 Tc1 2.238959 1_555
Ta0 Tc0 2.238959 1_555
Ga0 Tc0 2.510132 1_555
Ga0 Tc1 2.510132 1_544
