# generated using pymatgen
data_PrEuCuS3
_symmetry_space_group_name_H-M   'P 1'
_cell_length_a   4.04855900
_cell_length_b   8.09324700
_cell_length_c   15.78639900
_cell_angle_alpha   90.00000000
_cell_angle_beta   90.00000000
_cell_angle_gamma   90.00000000
_symmetry_Int_Tables_number   1
_chemical_formula_structural   PrEuCuS3
_chemical_formula_sum   'Pr4 Eu4 Cu4 S12'
_cell_volume   517.25695990
_cell_formula_units_Z   4
loop_
 _symmetry_equiv_pos_site_id
 _symmetry_equiv_pos_as_xyz
  1  'x, y, z'
loop_
 _atom_site_type_symbol
 _atom_site_label
 _atom_site_symmetry_multiplicity
 _atom_site_fract_x
 _atom_site_fract_y
 _atom_site_fract_z
 _atom_site_occupancy
  Pr  Pr0  1  0.25000000  0.25132800  0.95936000  1
  Pr  Pr1  1  0.25000000  0.75132800  0.54064000  1
  Pr  Pr2  1  0.75000000  0.74867200  0.04064000  1
  Pr  Pr3  1  0.75000000  0.24867200  0.45936000  1
  Eu  Eu0  1  0.25000000  0.08761400  0.21628200  1
  Eu  Eu1  1  0.25000000  0.58761400  0.28371800  1
  Eu  Eu2  1  0.75000000  0.91238600  0.78371800  1
  Eu  Eu3  1  0.75000000  0.41238600  0.71628200  1
  Cu  Cu0  1  0.25000000  0.11725000  0.63334100  1
  Cu  Cu1  1  0.25000000  0.61725000  0.86665900  1
  Cu  Cu2  1  0.75000000  0.88275000  0.36665900  1
  Cu  Cu3  1  0.75000000  0.38275000  0.13334100  1
  S  S0  1  0.25000000  0.17984700  0.77986300  1
  S  S1  1  0.25000000  0.67984700  0.72013700  1
  S  S2  1  0.75000000  0.82015300  0.22013700  1
  S  S3  1  0.75000000  0.32015300  0.27986300  1
  S  S4  1  0.25000000  0.37899900  0.56846400  1
  S  S5  1  0.25000000  0.87899900  0.93153600  1
  S  S6  1  0.75000000  0.62100100  0.43153600  1
  S  S7  1  0.75000000  0.12100100  0.06846400  1
  S  S8  1  0.25000000  0.01001200  0.40232100  1
  S  S9  1  0.25000000  0.51001200  0.09767900  1
  S  S10  1  0.75000000  0.98998800  0.59767900  1
  S  S11  1  0.75000000  0.48998800  0.90232100  1
loop_
_geom_bond_atom_site_label_1
_geom_bond_atom_site_label_2
_geom_bond_distance
_geom_bond_site_symmetry_2
Pr0 S7 2.859504 1_456
Pr0 S7 2.859504 1_556
Pr0 S0 2.892063 1_555
Pr0 S11 2.939273 1_555
Pr0 S11 2.939273 1_455
Pr0 S9 3.025072 1_556
Pr0 S5 3.045195 1_545
Pr1 S6 2.859504 1_455
Pr1 S6 2.859504 1_555
Pr1 S1 2.892063 1_555
Pr1 S10 2.939273 1_455
Pr1 S10 2.939273 1_555
Pr1 S8 3.025072 1_565
Pr1 S4 3.045195 1_555
Pr2 S5 2.859504 1_654
Pr2 S5 2.859504 1_554
Pr2 S2 2.892063 1_555
Pr2 S9 2.939273 1_555
Pr2 S9 2.939273 1_655
Pr2 S11 3.025072 1_554
Pr2 S7 3.045195 1_565
Pr3 S4 2.859504 1_655
Pr3 S4 2.859504 1_555
Pr3 S3 2.892063 1_555
Pr3 S8 2.939273 1_655
Pr3 S8 2.939273 1_555
Pr3 S10 3.025072 1_545
Pr3 S6 3.045195 1_555
Eu0 S3 2.940588 1_555
Eu0 S3 2.940588 1_455
Eu0 S2 2.964292 1_445
Eu0 S2 2.964292 1_545
Eu0 S8 3.003290 1_555
Eu0 S7 3.100969 1_455
Eu0 S7 3.100969 1_555
Eu1 S2 2.940588 1_455
Eu1 S2 2.940588 1_555
Eu1 S3 2.964292 1_455
Eu1 S3 2.964292 1_555
Eu1 S9 3.003290 1_555
Eu1 S6 3.100969 1_555
Eu1 S6 3.100969 1_455
Eu2 S1 2.940588 1_555
Eu2 S1 2.940588 1_655
Eu2 S0 2.964292 1_565
Eu2 S0 2.964292 1_665
Eu2 S10 3.003290 1_555
Eu2 S5 3.100969 1_555
Eu2 S5 3.100969 1_655
Eu3 S0 2.940588 1_655
Eu3 S0 2.940588 1_555
Eu3 S1 2.964292 1_555
Eu3 S1 2.964292 1_655
Eu3 S11 3.003290 1_555
Eu3 S4 3.100969 1_655
Eu3 S4 3.100969 1_555
Cu0 S10 2.339972 1_445
Cu0 S10 2.339972 1_545
Cu0 S4 2.352987 1_555
Cu0 S0 2.367885 1_555
Cu1 S11 2.339972 1_555
Cu1 S11 2.339972 1_455
Cu1 S5 2.352987 1_555
Cu1 S1 2.367885 1_555
Cu2 S8 2.339972 1_665
Cu2 S8 2.339972 1_565
Cu2 S6 2.352987 1_555
Cu2 S2 2.367885 1_555
Cu3 S9 2.339972 1_555
Cu3 S9 2.339972 1_655
Cu3 S7 2.352987 1_555
Cu3 S3 2.367885 1_555
