# generated using pymatgen
data_Zn2TeWO6
_symmetry_space_group_name_H-M   'P 1'
_cell_length_a   5.45187600
_cell_length_b   5.72796795
_cell_length_c   7.14975114
_cell_angle_alpha   109.57944309
_cell_angle_beta   91.72125162
_cell_angle_gamma   109.40744147
_symmetry_Int_Tables_number   1
_chemical_formula_structural   Zn2TeWO6
_chemical_formula_sum   'Zn2 Te1 W1 O6'
_cell_volume   195.88301088
_cell_formula_units_Z   1
loop_
 _symmetry_equiv_pos_site_id
 _symmetry_equiv_pos_as_xyz
  1  'x, y, z'
loop_
 _atom_site_type_symbol
 _atom_site_label
 _atom_site_symmetry_multiplicity
 _atom_site_fract_x
 _atom_site_fract_y
 _atom_site_fract_z
 _atom_site_occupancy
  Zn  Zn0  1  0.43520600  0.63983900  0.99766600  1
  Zn  Zn1  1  0.74808900  0.49275400  0.32085200  1
  Te  Te0  1  0.49979400  0.10108200  0.61186300  1
  W  W0  1  0.01019600  0.01065900  0.95023900  1
  O  O0  1  0.77073700  0.93994700  0.11837600  1
  O  O1  1  0.16099500  0.96451900  0.68347100  1
  O  O2  1  0.20068100  0.82821400  0.00333000  1
  O  O3  1  0.21072000  0.35554500  0.08822600  1
  O  O4  1  0.58103300  0.46131900  0.76483500  1
  O  O5  1  0.72388400  0.02974400  0.77785800  1
loop_
_geom_bond_atom_site_label_1
_geom_bond_atom_site_label_2
_geom_bond_distance
_geom_bond_site_symmetry_2
O0 W0 1.839221 1_664
O0 Zn0 1.966506 1_554
O1 Te0 1.910700 1_565
O1 W0 2.069878 1_565
O2 W0 1.810553 1_564
O2 Zn0 1.921299 1_554
O3 W0 1.806868 1_554
O3 Zn0 1.999667 1_554
O4 Te0 1.871118 1_555
O4 Zn0 1.981858 1_555
O5 Te0 1.907300 1_555
O5 W0 2.013856 1_655
