# generated using pymatgen
data_Li4V5Co3O16
_symmetry_space_group_name_H-M   'P 1'
_cell_length_a   5.90121400
_cell_length_b   5.91606343
_cell_length_c   9.55991869
_cell_angle_alpha   90.72435539
_cell_angle_beta   89.77856975
_cell_angle_gamma   119.73897596
_symmetry_Int_Tables_number   1
_chemical_formula_structural   Li4V5Co3O16
_chemical_formula_sum   'Li4 V5 Co3 O16'
_cell_volume   289.77368617
_cell_formula_units_Z   1
loop_
 _symmetry_equiv_pos_site_id
 _symmetry_equiv_pos_as_xyz
  1  'x, y, z'
loop_
 _atom_site_type_symbol
 _atom_site_label
 _atom_site_symmetry_multiplicity
 _atom_site_fract_x
 _atom_site_fract_y
 _atom_site_fract_z
 _atom_site_occupancy
  Li  Li0  1  0.32906300  0.66954500  0.89868600  1
  Li  Li1  1  0.00263700  0.99961200  0.99600500  1
  Li  Li2  1  0.00029100  0.00059300  0.48801600  1
  Li  Li3  1  0.66814700  0.33376500  0.39783200  1
  V  V0  1  0.83262100  0.18378400  0.71989100  1
  V  V1  1  0.35385100  0.70440500  0.48745300  1
  V  V2  1  0.18060000  0.35812500  0.22866200  1
  V  V3  1  0.66914500  0.32719100  0.00157200  1
  V  V4  1  0.34583200  0.19583900  0.71834100  1
  Co  Co0  1  0.65644900  0.82115400  0.20993800  1
  Co  Co1  1  0.16688700  0.82299300  0.20968500  1
  Co  Co2  1  0.83187000  0.65689600  0.70867200  1
  O  O0  1  0.65366500  0.82661000  0.58954400  1
  O  O1  1  0.47746000  0.95448300  0.35587400  1
  O  O2  1  0.31694500  0.63299800  0.10390400  1
  O  O3  1  0.00932500  0.01884300  0.29600000  1
  O  O4  1  0.99833300  0.01300200  0.80403300  1
  O  O5  1  0.18314300  0.83829100  0.59444000  1
  O  O6  1  0.46836700  0.50786200  0.35497200  1
  O  O7  1  0.04282600  0.51006500  0.35645200  1
  O  O8  1  0.82328200  0.64803600  0.08081600  1
  O  O9  1  0.17074700  0.33609600  0.60164500  1
  O  O10  1  0.95437000  0.46905900  0.84641300  1
  O  O11  1  0.50050200  0.46655400  0.83915000  1
  O  O12  1  0.65956100  0.30092400  0.60170700  1
  O  O13  1  0.82627300  0.18019500  0.08986700  1
  O  O14  1  0.52254800  0.04283400  0.84163400  1
  O  O15  1  0.35556200  0.18024500  0.08663600  1
loop_
_geom_bond_atom_site_label_1
_geom_bond_atom_site_label_2
_geom_bond_distance
_geom_bond_site_symmetry_2
Li0 O2 1.973598 1_556
Li0 O10 1.984276 1_455
Li0 O11 1.993309 1_555
Li0 O14 2.000557 1_565
Li1 O4 1.838762 1_465
Li1 O8 1.988906 1_456
Li1 O15 2.003184 1_566
Li1 O13 2.025180 1_466
Li2 O3 1.839207 1_555
Li2 O9 2.025992 1_555
Li2 O0 2.026512 1_445
Li2 O5 2.045119 1_545
Li3 O6 1.959009 1_555
Li3 O12 1.959100 1_555
Li3 O7 1.961858 1_655
Li3 O1 1.984378 1_545
Co0 O3 1.988422 1_665
Co0 O2 2.013754 1_555
Co0 O1 2.114618 1_555
Co0 O8 2.121542 1_555
Co0 O6 2.145177 1_555
Co0 O13 2.185096 1_565
Co1 O3 1.981577 1_565
Co1 O2 2.005504 1_555
Co1 O1 2.120179 1_555
Co1 O8 2.146043 1_455
Co1 O7 2.155233 1_555
Co1 O15 2.192842 1_565
Co2 O4 2.034610 1_565
Co2 O10 2.081526 1_555
Co2 O12 2.084168 1_555
Co2 O5 2.108655 1_655
Co2 O11 2.116572 1_555
Co2 O0 2.120542 1_555
O0 V1 1.825381 1_555
O0 V0 2.205173 1_565
O1 V1 1.809007 1_555
O2 V2 1.859521 1_555
O3 V2 1.865425 1_555
O4 V0 1.905521 1_555
O4 V4 1.963453 1_655
O5 V1 1.857816 1_555
O5 V4 2.174811 1_565
O6 V2 1.903412 1_555
O6 V1 2.036775 1_555
O7 V2 1.910782 1_555
O7 V1 2.036383 1_555
O8 V3 1.805623 1_555
O9 V4 1.970658 1_555
O9 V0 2.072628 1_455
O9 V1 2.195968 1_555
O10 V0 1.891997 1_555
O10 V3 2.085270 1_556
O11 V4 1.800855 1_555
O11 V3 2.222509 1_556
O12 V0 1.878995 1_555
O12 V4 1.979152 1_555
O13 V3 1.775712 1_555
O13 V2 2.245715 1_655
O14 V0 1.972917 1_555
O14 V4 2.066186 1_555
O14 V3 2.101813 1_556
O15 V3 1.803248 1_555
O15 V2 2.246768 1_555
