# generated using pymatgen
data_NpCoS2(NO2)6
_symmetry_space_group_name_H-M   'P 1'
_cell_length_a   6.43139800
_cell_length_b   12.94857900
_cell_length_c   17.52274200
_cell_angle_alpha   90.00000000
_cell_angle_beta   90.00000000
_cell_angle_gamma   90.00000000
_symmetry_Int_Tables_number   1
_chemical_formula_structural   NpCoS2(NO2)6
_chemical_formula_sum   'Np4 Co4 S8 N24 O48'
_cell_volume   1459.24953507
_cell_formula_units_Z   4
loop_
 _symmetry_equiv_pos_site_id
 _symmetry_equiv_pos_as_xyz
  1  'x, y, z'
loop_
 _atom_site_type_symbol
 _atom_site_label
 _atom_site_symmetry_multiplicity
 _atom_site_fract_x
 _atom_site_fract_y
 _atom_site_fract_z
 _atom_site_occupancy
  Np  Np0  1  0.25000000  0.18317000  0.95078500  1
  Np  Np1  1  0.25000000  0.31683000  0.45078500  1
  Np  Np2  1  0.75000000  0.81683000  0.04921500  1
  Np  Np3  1  0.75000000  0.68317000  0.54921500  1
  Co  Co0  1  0.25000000  0.73145900  0.83089000  1
  Co  Co1  1  0.25000000  0.76854100  0.33089000  1
  Co  Co2  1  0.75000000  0.26854100  0.16911000  1
  Co  Co3  1  0.75000000  0.23145900  0.66911000  1
  S  S0  1  0.25000000  0.92454600  0.06522600  1
  S  S1  1  0.25000000  0.57545400  0.56522600  1
  S  S2  1  0.75000000  0.07545400  0.93477400  1
  S  S3  1  0.75000000  0.42454600  0.43477400  1
  S  S4  1  0.25000000  0.36273000  0.83916100  1
  S  S5  1  0.25000000  0.13727000  0.33916100  1
  S  S6  1  0.75000000  0.63727000  0.16083900  1
  S  S7  1  0.75000000  0.86273000  0.66083900  1
  N  N0  1  0.25000000  0.68709300  0.91308100  1
  N  N1  1  0.25000000  0.81290700  0.41308100  1
  N  N2  1  0.75000000  0.31290700  0.08691900  1
  N  N3  1  0.75000000  0.18709300  0.58691900  1
  N  N4  1  0.25000000  0.88582600  0.76023900  1
  N  N5  1  0.25000000  0.61417400  0.26023900  1
  N  N6  1  0.75000000  0.11417400  0.23976100  1
  N  N7  1  0.75000000  0.38582600  0.73976100  1
  N  N8  1  0.03932500  0.67233400  0.78509000  1
  N  N9  1  0.46067500  0.82766600  0.28509000  1
  N  N10  1  0.53932500  0.32766600  0.21491000  1
  N  N11  1  0.96067500  0.17233400  0.71491000  1
  N  N12  1  0.96067500  0.32766600  0.21491000  1
  N  N13  1  0.53932500  0.17233400  0.71491000  1
  N  N14  1  0.46067500  0.67233400  0.78509000  1
  N  N15  1  0.03932500  0.82766600  0.28509000  1
  N  N16  1  0.13295700  0.87424300  0.82344600  1
  N  N17  1  0.36704300  0.62575700  0.32344600  1
  N  N18  1  0.63295700  0.12575700  0.17655400  1
  N  N19  1  0.86704300  0.37424300  0.67655400  1
  N  N20  1  0.86704300  0.12575700  0.17655400  1
  N  N21  1  0.63295700  0.37424300  0.67655400  1
  N  N22  1  0.36704300  0.87424300  0.82344600  1
  N  N23  1  0.13295700  0.62575700  0.32344600  1
  O  O0  1  0.25000000  0.10292700  0.86891200  1
  O  O1  1  0.25000000  0.39707300  0.36891200  1
  O  O2  1  0.75000000  0.89707300  0.13108800  1
  O  O3  1  0.75000000  0.60292700  0.63108800  1
  O  O4  1  0.25000000  0.25792000  0.03578600  1
  O  O5  1  0.25000000  0.24208000  0.53578600  1
  O  O6  1  0.75000000  0.74208000  0.96421400  1
  O  O7  1  0.75000000  0.75792000  0.46421400  1
  O  O8  1  0.25000000  0.99599600  0.50796800  1
  O  O9  1  0.25000000  0.50400400  0.00796800  1
  O  O10  1  0.75000000  0.00400400  0.49203200  1
  O  O11  1  0.75000000  0.49599600  0.99203200  1
  O  O12  1  0.50000000  0.00000000  0.50000000  1
  O  O13  1  0.00000000  0.50000000  0.00000000  1
  O  O14  1  0.00000000  0.00000000  0.50000000  1
  O  O15  1  0.50000000  0.50000000  0.00000000  1
  O  O16  1  0.07130300  0.86335800  0.03085200  1
  O  O17  1  0.42869700  0.63664200  0.53085200  1
  O  O18  1  0.57130300  0.13664200  0.96914800  1
  O  O19  1  0.92869700  0.36335800  0.46914800  1
  O  O20  1  0.92869700  0.13664200  0.96914800  1
  O  O21  1  0.57130300  0.36335800  0.46914800  1
  O  O22  1  0.42869700  0.86335800  0.03085200  1
  O  O23  1  0.07130300  0.63664200  0.53085200  1
  O  O24  1  0.25000000  0.02795300  0.03130500  1
  O  O25  1  0.25000000  0.47204700  0.53130500  1
  O  O26  1  0.75000000  0.97204700  0.96869500  1
  O  O27  1  0.75000000  0.52795300  0.46869500  1
  O  O28  1  0.25000000  0.92221600  0.14702200  1
  O  O29  1  0.25000000  0.57778400  0.64702200  1
  O  O30  1  0.75000000  0.07778400  0.85297800  1
  O  O31  1  0.75000000  0.42221600  0.35297800  1
  O  O32  1  0.43172500  0.31060100  0.87979100  1
  O  O33  1  0.06827500  0.18939900  0.37979100  1
  O  O34  1  0.93172500  0.68939900  0.12020900  1
  O  O35  1  0.56827500  0.81060100  0.62020900  1
  O  O36  1  0.56827500  0.68939900  0.12020900  1
  O  O37  1  0.93172500  0.81060100  0.62020900  1
  O  O38  1  0.06827500  0.31060100  0.87979100  1
  O  O39  1  0.43172500  0.18939900  0.37979100  1
  O  O40  1  0.25000000  0.33831900  0.75764500  1
  O  O41  1  0.25000000  0.16168100  0.25764500  1
  O  O42  1  0.75000000  0.66168100  0.24235500  1
  O  O43  1  0.75000000  0.83831900  0.74235500  1
  O  O44  1  0.25000000  0.47443700  0.85006200  1
  O  O45  1  0.25000000  0.02556300  0.35006200  1
  O  O46  1  0.75000000  0.52556300  0.14993800  1
  O  O47  1  0.75000000  0.97443700  0.64993800  1
loop_
_geom_bond_atom_site_label_1
_geom_bond_atom_site_label_2
_geom_bond_distance
_geom_bond_site_symmetry_2
Np0 O0 1.771378 1_555
Np0 O4 1.776318 1_556
Np0 O18 2.176380 1_555
Np0 O20 2.176380 1_455
Np0 O32 2.374067 1_555
Np0 O38 2.374067 1_555
Np0 O24 2.455643 1_556
Np1 O1 1.771378 1_555
Np1 O5 1.776318 1_555
Np1 O19 2.176380 1_455
Np1 O21 2.176380 1_555
Np1 O39 2.374067 1_555
Np1 O33 2.374067 1_555
Np1 O25 2.455643 1_555
Np2 O2 1.771378 1_555
Np2 O6 1.776318 1_554
Np2 O16 2.176380 1_655
Np2 O22 2.176380 1_555
Np2 O34 2.374067 1_555
Np2 O36 2.374067 1_555
Np2 O26 2.455643 1_554
Np3 O3 1.771378 1_555
Np3 O7 1.776318 1_555
Np3 O23 2.176380 1_655
Np3 O17 2.176380 1_555
Np3 O37 2.374067 1_555
Np3 O35 2.374067 1_555
Np3 O27 2.455643 1_555
Co0 N0 1.550559 1_555
Co0 N14 1.751011 1_555
Co0 N8 1.751011 1_555
Co0 N16 2.000473 1_555
Co0 N22 2.000473 1_555
Co0 N4 2.351165 1_555
Co1 N1 1.550559 1_555
Co1 N15 1.751011 1_555
Co1 N9 1.751011 1_555
Co1 N23 2.000473 1_555
Co1 N17 2.000473 1_555
Co1 N5 2.351165 1_555
Co2 N2 1.550559 1_555
Co2 N12 1.751011 1_555
Co2 N10 1.751011 1_555
Co2 N20 2.000473 1_555
Co2 N18 2.000473 1_555
Co2 N6 2.351165 1_555
Co3 N3 1.550559 1_555
Co3 N11 1.751011 1_555
Co3 N13 1.751011 1_555
Co3 N19 2.000473 1_555
Co3 N21 2.000473 1_555
Co3 N7 2.351165 1_555
N16 N4 1.347522 1_555
N16 N22 1.505500 1_555
N17 N5 1.347522 1_555
N17 N23 1.505500 1_555
N18 N6 1.347522 1_555
N18 N20 1.505500 1_555
N19 N7 1.347522 1_555
N19 N21 1.505500 1_555
N20 N6 1.347522 1_555
N21 N7 1.347522 1_555
N22 N4 1.347522 1_555
N23 N5 1.347522 1_555
O10 O14 1.614733 1_655
O10 O12 1.614733 1_555
O11 O13 1.614733 1_656
O11 O15 1.614733 1_556
O12 O8 1.614733 1_545
O13 O9 1.614733 1_555
O14 O8 1.614733 1_545
O15 O9 1.614733 1_555
O16 S0 1.520315 1_555
O17 S1 1.520315 1_555
O18 S2 1.520315 1_555
O19 S3 1.520315 1_555
O20 S2 1.520315 1_555
O21 S3 1.520315 1_555
O22 S0 1.520315 1_555
O23 S1 1.520315 1_555
O24 S0 1.464974 1_545
O25 S1 1.464974 1_555
O26 S2 1.464974 1_565
O27 S3 1.464974 1_555
O28 S0 1.433608 1_555
O29 S1 1.433608 1_555
O30 S2 1.433608 1_555
O31 S3 1.433608 1_555
O32 S4 1.525929 1_555
O33 S5 1.525929 1_555
O34 S6 1.525929 1_555
O35 S7 1.525929 1_555
O36 S6 1.525929 1_555
O37 S7 1.525929 1_555
O38 S4 1.525929 1_555
O39 S5 1.525929 1_555
O40 S4 1.462939 1_555
O41 S5 1.462939 1_555
O42 S6 1.462939 1_555
O43 S7 1.462939 1_555
O44 S4 1.459005 1_555
O45 S5 1.459005 1_555
O46 S6 1.459005 1_555
O47 S7 1.459005 1_555
