# generated using pymatgen
data_LaMg14Cd
_symmetry_space_group_name_H-M   'P 1'
_cell_length_a   6.57943122
_cell_length_b   6.57943065
_cell_length_c   10.33901424
_cell_angle_alpha   90.00000000
_cell_angle_beta   90.00000000
_cell_angle_gamma   120.00000287
_symmetry_Int_Tables_number   1
_chemical_formula_structural   LaMg14Cd
_chemical_formula_sum   'La1 Mg14 Cd1'
_cell_volume   387.60236428
_cell_formula_units_Z   1
loop_
 _symmetry_equiv_pos_site_id
 _symmetry_equiv_pos_as_xyz
  1  'x, y, z'
loop_
 _atom_site_type_symbol
 _atom_site_label
 _atom_site_symmetry_multiplicity
 _atom_site_fract_x
 _atom_site_fract_y
 _atom_site_fract_z
 _atom_site_occupancy
  La  La0  1  0.16666700  0.33333300  0.12500000  1
  Mg  Mg0  1  0.17689855  0.83844878  0.12500000  1
  Mg  Mg1  1  0.16503642  0.83251771  0.62500000  1
  Mg  Mg2  1  0.66155122  0.32310145  0.12500000  1
  Mg  Mg3  1  0.66748229  0.33496358  0.62500000  1
  Mg  Mg4  1  0.66155122  0.83844878  0.12500000  1
  Mg  Mg5  1  0.66748229  0.83251771  0.62500000  1
  Mg  Mg6  1  0.33530490  0.16469510  0.38213524  1
  Mg  Mg7  1  0.33530490  0.16469510  0.86786476  1
  Mg  Mg8  1  0.33530490  0.67061079  0.38213524  1
  Mg  Mg9  1  0.33530490  0.67061079  0.86786476  1
  Mg  Mg10  1  0.82938921  0.16469510  0.38213524  1
  Mg  Mg11  1  0.82938921  0.16469510  0.86786476  1
  Mg  Mg12  1  0.83333300  0.66666700  0.37101648  1
  Mg  Mg13  1  0.83333300  0.66666700  0.87898352  1
  Cd  Cd0  1  0.16666700  0.33333300  0.62500000  1
loop_
_geom_bond_atom_site_label_1
_geom_bond_atom_site_label_2
_geom_bond_distance
_geom_bond_site_symmetry_2
La0 Mg7 3.280397 1_554
La0 Mg6 3.280397 1_555
La0 Mg9 3.280403 1_554
La0 Mg8 3.280403 1_555
La0 Mg11 3.280403 1_454
La0 Mg10 3.280403 1_455
La0 Mg0 3.290232 1_545
La0 Mg4 3.290232 1_555
La0 Mg4 3.290232 1_445
La0 Mg0 3.290232 1_555
La0 Mg2 3.290232 1_555
La0 Mg2 3.290232 1_455
Mg0 Mg2 3.188739 1_565
Mg0 Mg4 3.188739 1_555
Mg0 Mg12 3.209676 1_455
Mg0 Mg13 3.209676 1_454
Mg0 Mg8 3.244121 1_555
Mg0 Mg9 3.244121 1_554
Mg0 Mg6 3.244127 1_565
Mg0 Mg7 3.244127 1_564
Mg0 Mg2 3.390692 1_455
Mg0 Mg4 3.390692 1_455
Mg1 Mg9 3.144547 1_555
Mg1 Mg8 3.144547 1_555
Mg1 Mg7 3.144554 1_565
Mg1 Mg6 3.144554 1_565
Mg1 Mg12 3.235394 1_455
Mg1 Mg13 3.235394 1_455
Mg1 Mg3 3.273623 1_455
Mg1 Mg5 3.273623 1_455
Mg1 Mg3 3.305808 1_565
Mg1 Mg5 3.305808 1_555
Mg2 Mg4 3.188739 1_545
Mg2 Mg7 3.244128 1_554
Mg2 Mg6 3.244128 1_555
Mg2 Mg4 3.390692 1_555
Mg3 Mg6 3.144554 1_555
Mg3 Mg7 3.144554 1_555
Mg3 Mg5 3.273623 1_555
Mg3 Mg5 3.305808 1_545
Mg4 Mg9 3.244127 1_554
Mg4 Mg8 3.244127 1_555
Mg5 Mg8 3.144554 1_555
Mg5 Mg9 3.144554 1_555
Mg6 Mg8 3.250793 1_545
Mg6 Mg8 3.328637 1_555
Mg7 Mg9 3.250793 1_545
Mg7 Mg9 3.328637 1_555
Mg10 Mg3 3.144547 1_555
Mg10 Mg5 3.144554 1_545
Mg10 Mg2 3.244121 1_555
Mg10 Mg4 3.244127 1_545
Mg10 Mg8 3.250793 1_545
Mg10 Mg6 3.250794 1_555
Mg10 Mg12 3.291800 1_545
Mg10 Mg12 3.291800 1_555
Mg10 Mg8 3.328637 1_655
Mg10 Mg6 3.328637 1_655
Mg11 Mg3 3.144547 1_555
Mg11 Mg5 3.144554 1_545
Mg11 Mg2 3.244121 1_556
Mg11 Mg4 3.244127 1_546
Mg11 Mg9 3.250793 1_545
Mg11 Mg7 3.250794 1_555
Mg11 Mg13 3.291800 1_545
Mg11 Mg13 3.291800 1_555
Mg11 Mg9 3.328637 1_655
Mg11 Mg7 3.328637 1_655
Mg12 Mg4 3.209669 1_555
Mg12 Mg2 3.209675 1_555
Mg12 Mg5 3.235387 1_555
Mg12 Mg3 3.235394 1_555
Mg12 Mg6 3.291800 1_555
Mg12 Mg6 3.291800 1_665
Mg12 Mg8 3.291800 1_555
Mg12 Mg8 3.291800 1_655
Mg13 Mg4 3.209669 1_556
Mg13 Mg2 3.209675 1_556
Mg13 Mg5 3.235387 1_555
Mg13 Mg3 3.235394 1_555
Mg13 Mg7 3.291800 1_555
Mg13 Mg7 3.291800 1_665
Mg13 Mg9 3.291800 1_555
Mg13 Mg9 3.291800 1_655
Cd0 Mg7 3.162005 1_555
Cd0 Mg6 3.162005 1_555
Cd0 Mg8 3.162012 1_555
Cd0 Mg9 3.162012 1_555
Cd0 Mg11 3.162012 1_455
Cd0 Mg10 3.162012 1_455
Cd0 Mg5 3.289728 1_445
Cd0 Mg1 3.289728 1_545
Cd0 Mg1 3.289728 1_555
Cd0 Mg5 3.289728 1_555
Cd0 Mg3 3.289729 1_455
Cd0 Mg3 3.289729 1_555
