# generated using pymatgen
data_Sm3TlC
_symmetry_space_group_name_H-M   'P 1'
_cell_length_a   5.04207852
_cell_length_b   5.04207852
_cell_length_c   5.04207852
_cell_angle_alpha   90.00000000
_cell_angle_beta   90.00000000
_cell_angle_gamma   90.00000000
_symmetry_Int_Tables_number   1
_chemical_formula_structural   Sm3TlC
_chemical_formula_sum   'Sm3 Tl1 C1'
_cell_volume   128.18252253
_cell_formula_units_Z   1
loop_
 _symmetry_equiv_pos_site_id
 _symmetry_equiv_pos_as_xyz
  1  'x, y, z'
loop_
 _atom_site_type_symbol
 _atom_site_label
 _atom_site_symmetry_multiplicity
 _atom_site_fract_x
 _atom_site_fract_y
 _atom_site_fract_z
 _atom_site_occupancy
  Sm  Sm0  1  0.50000000  0.00000000  0.50000000  1
  Sm  Sm1  1  0.00000000  0.50000000  0.50000000  1
  Sm  Sm2  1  0.50000000  0.50000000  0.00000000  1
  Tl  Tl0  1  -0.00000000  -0.00000000  -0.00000000  1
  C  C0  1  0.50000000  0.50000000  0.50000000  1
loop_
_geom_bond_atom_site_label_1
_geom_bond_atom_site_label_2
_geom_bond_distance
_geom_bond_site_symmetry_2
Sm0 Tl0 3.565288 1_655
Sm0 Tl0 3.565288 1_656
Sm0 Tl0 3.565288 1_555
Sm0 Tl0 3.565288 1_556
Sm1 Tl0 3.565288 1_565
Sm1 Tl0 3.565288 1_566
Sm1 Tl0 3.565288 1_555
Sm1 Tl0 3.565288 1_556
Sm2 Tl0 3.565288 1_565
Sm2 Tl0 3.565288 1_655
Sm2 Tl0 3.565288 1_665
Sm2 Tl0 3.565288 1_555
C0 Sm2 2.521039 1_555
C0 Sm2 2.521039 1_556
C0 Sm1 2.521039 1_555
C0 Sm0 2.521039 1_555
C0 Sm0 2.521039 1_565
C0 Sm1 2.521039 1_655
