# generated using pymatgen
data_Al2HPb(CO5)2
_symmetry_space_group_name_H-M   'P 1'
_cell_length_a   5.92245900
_cell_length_b   8.84673400
_cell_length_c   16.46394400
_cell_angle_alpha   90.00000000
_cell_angle_beta   90.00000000
_cell_angle_gamma   90.00000000
_symmetry_Int_Tables_number   1
_chemical_formula_structural   Al2HPb(CO5)2
_chemical_formula_sum   'Al8 H4 Pb4 C8 O40'
_cell_volume   862.61878690
_cell_formula_units_Z   4
loop_
 _symmetry_equiv_pos_site_id
 _symmetry_equiv_pos_as_xyz
  1  'x, y, z'
loop_
 _atom_site_type_symbol
 _atom_site_label
 _atom_site_symmetry_multiplicity
 _atom_site_fract_x
 _atom_site_fract_y
 _atom_site_fract_z
 _atom_site_occupancy
  Al  Al0  1  0.49593200  0.15956300  0.29904100  1
  Al  Al1  1  0.50406800  0.84043700  0.70095900  1
  Al  Al2  1  0.50406800  0.65956300  0.20095900  1
  Al  Al3  1  0.99593200  0.84043700  0.70095900  1
  Al  Al4  1  0.49593200  0.34043700  0.79904100  1
  Al  Al5  1  0.00406800  0.15956300  0.29904100  1
  Al  Al6  1  0.00406800  0.34043700  0.79904100  1
  Al  Al7  1  0.99593200  0.65956300  0.20095900  1
  H  H0  1  0.25000000  0.39064700  0.04123200  1
  H  H1  1  0.75000000  0.60935300  0.95876800  1
  H  H2  1  0.75000000  0.89064700  0.45876800  1
  H  H3  1  0.25000000  0.10935300  0.54123200  1
  Pb  Pb0  1  0.25000000  0.48210000  0.40399000  1
  Pb  Pb1  1  0.75000000  0.51790000  0.59601000  1
  Pb  Pb2  1  0.75000000  0.98210000  0.09601000  1
  Pb  Pb3  1  0.25000000  0.01790000  0.90399000  1
  C  C0  1  0.25000000  0.73858800  0.04967000  1
  C  C1  1  0.75000000  0.26141200  0.95033000  1
  C  C2  1  0.75000000  0.23858800  0.45033000  1
  C  C3  1  0.25000000  0.76141200  0.54967000  1
  C  C4  1  0.25000000  0.08111700  0.14797500  1
  C  C5  1  0.75000000  0.91888300  0.85202500  1
  C  C6  1  0.75000000  0.58111700  0.35202500  1
  C  C7  1  0.25000000  0.41888300  0.64797500  1
  O  O0  1  0.25000000  0.74103600  0.47301800  1
  O  O1  1  0.75000000  0.25896400  0.52698200  1
  O  O2  1  0.75000000  0.24103600  0.02698200  1
  O  O3  1  0.25000000  0.75896400  0.97301800  1
  O  O4  1  0.05713900  0.09948500  0.18643400  1
  O  O5  1  0.94286100  0.90051500  0.81356600  1
  O  O6  1  0.94286100  0.59948500  0.31356600  1
  O  O7  1  0.55713900  0.90051500  0.81356600  1
  O  O8  1  0.05713900  0.40051500  0.68643400  1
  O  O9  1  0.44286100  0.09948500  0.18643400  1
  O  O10  1  0.44286100  0.40051500  0.68643400  1
  O  O11  1  0.55713900  0.59948500  0.31356600  1
  O  O12  1  0.55845400  0.22903900  0.41203800  1
  O  O13  1  0.44154600  0.77096100  0.58796200  1
  O  O14  1  0.44154600  0.72903900  0.08796200  1
  O  O15  1  0.05845400  0.77096100  0.58796200  1
  O  O16  1  0.55845400  0.27096100  0.91203800  1
  O  O17  1  0.94154600  0.22903900  0.41203800  1
  O  O18  1  0.94154600  0.27096100  0.91203800  1
  O  O19  1  0.05845400  0.72903900  0.08796200  1
  O  O20  1  0.25000000  0.77114400  0.23258500  1
  O  O21  1  0.75000000  0.22885600  0.76741500  1
  O  O22  1  0.75000000  0.27114400  0.26741500  1
  O  O23  1  0.25000000  0.72885600  0.73258500  1
  O  O24  1  0.25000000  0.53737200  0.19728400  1
  O  O25  1  0.75000000  0.46262800  0.80271600  1
  O  O26  1  0.75000000  0.03737200  0.30271600  1
  O  O27  1  0.25000000  0.96262800  0.69728400  1
  O  O28  1  0.25000000  0.05077700  0.33471000  1
  O  O29  1  0.75000000  0.94922300  0.66529000  1
  O  O30  1  0.75000000  0.55077700  0.16529000  1
  O  O31  1  0.25000000  0.44922300  0.83471000  1
  O  O32  1  0.25000000  0.29324500  0.29856300  1
  O  O33  1  0.75000000  0.70675500  0.70143700  1
  O  O34  1  0.75000000  0.79324500  0.20143700  1
  O  O35  1  0.25000000  0.20675500  0.79856300  1
  O  O36  1  0.25000000  0.04252400  0.07370400  1
  O  O37  1  0.75000000  0.95747600  0.92629600  1
  O  O38  1  0.75000000  0.54252400  0.42629600  1
  O  O39  1  0.25000000  0.45747600  0.57370400  1
loop_
_geom_bond_atom_site_label_1
_geom_bond_atom_site_label_2
_geom_bond_distance
_geom_bond_site_symmetry_2
Al0 O28 1.841884 1_555
Al0 O26 1.853739 1_555
Al0 O22 1.873414 1_555
Al0 O32 1.876214 1_555
Al0 O9 1.954080 1_555
Al0 O12 1.993963 1_555
Al1 O29 1.841884 1_555
Al1 O27 1.853739 1_555
Al1 O23 1.873414 1_555
Al1 O33 1.876214 1_555
Al1 O7 1.954080 1_555
Al1 O13 1.993963 1_555
Al2 O30 1.841884 1_555
Al2 O24 1.853739 1_555
Al2 O20 1.873414 1_555
Al2 O34 1.876214 1_555
Al2 O11 1.954080 1_555
Al2 O14 1.993963 1_555
Al3 O29 1.841884 1_555
Al3 O27 1.853739 1_655
Al3 O23 1.873414 1_655
Al3 O33 1.876214 1_555
Al3 O5 1.954080 1_555
Al3 O15 1.993963 1_655
Al4 O31 1.841884 1_555
Al4 O25 1.853739 1_555
Al4 O21 1.873414 1_555
Al4 O35 1.876214 1_555
Al4 O10 1.954080 1_555
Al4 O16 1.993963 1_555
Al5 O28 1.841884 1_555
Al5 O26 1.853739 1_455
Al5 O22 1.873414 1_455
Al5 O32 1.876214 1_555
Al5 O4 1.954080 1_555
Al5 O17 1.993963 1_455
Al6 O31 1.841884 1_555
Al6 O25 1.853739 1_455
Al6 O21 1.873414 1_455
Al6 O35 1.876214 1_555
Al6 O8 1.954080 1_555
Al6 O18 1.993963 1_455
Al7 O30 1.841884 1_555
Al7 O24 1.853739 1_655
Al7 O20 1.873414 1_655
Al7 O34 1.876214 1_555
Al7 O6 1.954080 1_555
Al7 O19 1.993963 1_655
C0 O3 1.274803 1_554
C0 O19 1.300578 1_555
C0 O14 1.300578 1_555
C1 O2 1.274803 1_556
C1 O16 1.300578 1_555
C1 O18 1.300578 1_555
C2 O1 1.274803 1_555
C2 O12 1.300578 1_555
C2 O17 1.300578 1_555
C3 O0 1.274803 1_555
C3 O13 1.300578 1_555
C3 O15 1.300578 1_555
C4 O36 1.269564 1_555
C4 O9 1.316046 1_555
C4 O4 1.316046 1_555
C5 O37 1.269564 1_555
C5 O5 1.316046 1_555
C5 O7 1.316046 1_555
C6 O38 1.269564 1_555
C6 O6 1.316046 1_555
C6 O11 1.316046 1_555
C7 O39 1.269564 1_555
C7 O10 1.316046 1_555
C7 O8 1.316046 1_555
O0 Pb0 2.557157 1_555
O1 Pb1 2.557157 1_555
O2 Pb2 2.557157 1_545
O3 Pb3 2.557157 1_565
O4 Pb2 2.569745 1_445
O5 Pb3 2.569745 1_665
O6 Pb0 2.569745 1_655
O7 Pb3 2.569745 1_565
O8 Pb1 2.569745 1_455
O9 Pb2 2.569745 1_545
O10 Pb1 2.569745 1_555
O11 Pb0 2.569745 1_555
O32 Pb0 2.409194 1_555
O33 Pb1 2.409194 1_555
O34 Pb2 2.409194 1_555
O35 Pb3 2.409194 1_555
