# generated using pymatgen
data_Sr5V3H6(O3F8)2
_symmetry_space_group_name_H-M   'P 1'
_cell_length_a   8.30670600
_cell_length_b   11.40000000
_cell_length_c   20.26311244
_cell_angle_alpha   73.21272628
_cell_angle_beta   90.00000000
_cell_angle_gamma   90.00000000
_symmetry_Int_Tables_number   1
_chemical_formula_structural   Sr5V3H6(O3F8)2
_chemical_formula_sum   'Sr20 V12 H24 O24 F64'
_cell_volume   1837.07066358
_cell_formula_units_Z   4
loop_
 _symmetry_equiv_pos_site_id
 _symmetry_equiv_pos_as_xyz
  1  'x, y, z'
loop_
 _atom_site_type_symbol
 _atom_site_label
 _atom_site_symmetry_multiplicity
 _atom_site_fract_x
 _atom_site_fract_y
 _atom_site_fract_z
 _atom_site_occupancy
  Sr  Sr0  1  0.41364500  0.64974500  0.35404100  1
  Sr  Sr1  1  0.08635500  0.64974500  0.85404100  1
  Sr  Sr2  1  0.58635500  0.35025500  0.64595900  1
  Sr  Sr3  1  0.91364500  0.35025500  0.14595900  1
  Sr  Sr4  1  0.41549800  0.00518900  0.35460600  1
  Sr  Sr5  1  0.08450200  0.00518900  0.85460600  1
  Sr  Sr6  1  0.58450200  0.99481100  0.64539400  1
  Sr  Sr7  1  0.91549800  0.99481100  0.14539400  1
  Sr  Sr8  1  0.08653300  0.76108700  0.47955200  1
  Sr  Sr9  1  0.41346700  0.76108700  0.97955200  1
  Sr  Sr10  1  0.91346700  0.23891300  0.52044800  1
  Sr  Sr11  1  0.58653300  0.23891300  0.02044800  1
  Sr  Sr12  1  0.65431000  0.34380600  0.32470600  1
  Sr  Sr13  1  0.84569000  0.34380600  0.82470600  1
  Sr  Sr14  1  0.34569000  0.65619400  0.67529400  1
  Sr  Sr15  1  0.15431000  0.65619400  0.17529400  1
  Sr  Sr16  1  0.66571100  0.66434400  0.17158000  1
  Sr  Sr17  1  0.83428900  0.66434400  0.67158000  1
  Sr  Sr18  1  0.33428900  0.33565600  0.82842000  1
  Sr  Sr19  1  0.16571100  0.33565600  0.32842000  1
  V  V0  1  0.91708300  0.60070700  0.32682400  1
  V  V1  1  0.58291700  0.60070700  0.82682400  1
  V  V2  1  0.08291700  0.39929300  0.67317600  1
  V  V3  1  0.41708300  0.39929300  0.17317600  1
  V  V4  1  0.91626200  0.07280600  0.34259300  1
  V  V5  1  0.58373800  0.07280600  0.84259300  1
  V  V6  1  0.08373800  0.92719400  0.65740700  1
  V  V7  1  0.41626200  0.92719400  0.15740700  1
  V  V8  1  0.42112000  0.26098300  0.47727000  1
  V  V9  1  0.07888000  0.26098300  0.97727000  1
  V  V10  1  0.57888000  0.73901700  0.52273000  1
  V  V11  1  0.92112000  0.73901700  0.02273000  1
  H  H0  1  0.71441700  0.82876700  0.35795600  1
  H  H1  1  0.78558300  0.82876700  0.85795600  1
  H  H2  1  0.28558300  0.17123300  0.64204400  1
  H  H3  1  0.21441700  0.17123300  0.14204400  1
  H  H4  1  0.65204000  0.87489200  0.28202200  1
  H  H5  1  0.84796000  0.87489200  0.78202200  1
  H  H6  1  0.34796000  0.12510800  0.71797800  1
  H  H7  1  0.15204000  0.12510800  0.21797800  1
  H  H8  1  0.29427100  0.51015900  0.50399400  1
  H  H9  1  0.20572900  0.51015900  0.00399400  1
  H  H10  1  0.70572900  0.48984100  0.49600600  1
  H  H11  1  0.79427100  0.48984100  0.99600600  1
  H  H12  1  0.15063500  0.48769500  0.46216300  1
  H  H13  1  0.34936500  0.48769500  0.96216300  1
  H  H14  1  0.84936500  0.51230500  0.53783700  1
  H  H15  1  0.65063500  0.51230500  0.03783700  1
  H  H16  1  0.14808500  0.04727300  0.45651300  1
  H  H17  1  0.35191500  0.04727300  0.95651300  1
  H  H18  1  0.85191500  0.95272700  0.54348700  1
  H  H19  1  0.64808500  0.95272700  0.04348700  1
  H  H20  1  0.28531600  0.98785800  0.50699300  1
  H  H21  1  0.21468400  0.98785800  0.00699300  1
  H  H22  1  0.71468400  0.01214200  0.49300700  1
  H  H23  1  0.78531600  0.01214200  0.99300700  1
  O  O0  1  0.61676600  0.84071400  0.32996600  1
  O  O1  1  0.88323400  0.84071400  0.82996600  1
  O  O2  1  0.38323400  0.15928600  0.67003400  1
  O  O3  1  0.11676600  0.15928600  0.17003400  1
  O  O4  1  0.21197800  0.55404500  0.47127500  1
  O  O5  1  0.28802200  0.55404500  0.97127500  1
  O  O6  1  0.78802200  0.44595500  0.52872500  1
  O  O7  1  0.71197800  0.44595500  0.02872500  1
  O  O8  1  0.22191300  0.97748800  0.46834100  1
  O  O9  1  0.27808700  0.97748800  0.96834100  1
  O  O10  1  0.77808700  0.02251200  0.53165900  1
  O  O11  1  0.72191300  0.02251200  0.03165900  1
  O  O12  1  0.92236900  0.66682200  0.38954800  1
  O  O13  1  0.57763100  0.66682200  0.88954800  1
  O  O14  1  0.07763100  0.33317800  0.61045200  1
  O  O15  1  0.42236900  0.33317800  0.11045200  1
  O  O16  1  0.92398900  0.93603300  0.40054700  1
  O  O17  1  0.57601100  0.93603300  0.90054700  1
  O  O18  1  0.07601100  0.06396700  0.59945300  1
  O  O19  1  0.42398900  0.06396700  0.09945300  1
  O  O20  1  0.42524700  0.12245400  0.53416500  1
  O  O21  1  0.07475300  0.12245400  0.03416500  1
  O  O22  1  0.57475300  0.87754600  0.46583500  1
  O  O23  1  0.92524700  0.87754600  0.96583500  1
  F  F0  1  0.27414100  0.81053200  0.38378900  1
  F  F1  1  0.22585900  0.81053200  0.88378900  1
  F  F2  1  0.72585900  0.18946800  0.61621100  1
  F  F3  1  0.77414100  0.18946800  0.11621100  1
  F  F4  1  0.42422700  0.42123400  0.39283700  1
  F  F5  1  0.07577300  0.42123400  0.89283700  1
  F  F6  1  0.57577300  0.57876600  0.60716300  1
  F  F7  1  0.92422700  0.57876600  0.10716300  1
  F  F8  1  0.15151000  0.57830400  0.31275900  1
  F  F9  1  0.34849000  0.57830400  0.81275900  1
  F  F10  1  0.84849000  0.42169600  0.68724100  1
  F  F11  1  0.65151000  0.42169600  0.18724100  1
  F  F12  1  0.14507300  0.10491700  0.31457300  1
  F  F13  1  0.35492700  0.10491700  0.81457300  1
  F  F14  1  0.85492700  0.89508300  0.68542700  1
  F  F15  1  0.64507300  0.89508300  0.18542700  1
  F  F16  1  0.39534900  0.20145200  0.39379600  1
  F  F17  1  0.10465100  0.20145200  0.89379600  1
  F  F18  1  0.60465100  0.79854800  0.60620400  1
  F  F19  1  0.89534900  0.79854800  0.10620400  1
  F  F20  1  0.65270800  0.27574300  0.45448300  1
  F  F21  1  0.84729200  0.27574300  0.95448300  1
  F  F22  1  0.34729200  0.72425700  0.54551700  1
  F  F23  1  0.15270800  0.72425700  0.04551700  1
  F  F24  1  0.18855900  0.29821100  0.46651100  1
  F  F25  1  0.31144100  0.29821100  0.96651100  1
  F  F26  1  0.81144100  0.70178900  0.53348900  1
  F  F27  1  0.68855900  0.70178900  0.03348900  1
  F  F28  1  0.68303700  0.58385900  0.31050500  1
  F  F29  1  0.81696300  0.58385900  0.81050500  1
  F  F30  1  0.31696300  0.41614100  0.68949500  1
  F  F31  1  0.18303700  0.41614100  0.18949500  1
  F  F32  1  0.91723100  0.42518000  0.38118200  1
  F  F33  1  0.58276900  0.42518000  0.88118200  1
  F  F34  1  0.08276900  0.57482000  0.61881800  1
  F  F35  1  0.41723100  0.57482000  0.11881800  1
  F  F36  1  0.91774300  0.51411300  0.24727300  1
  F  F37  1  0.58225700  0.51411300  0.74727300  1
  F  F38  1  0.08225700  0.48588700  0.75272700  1
  F  F39  1  0.41774300  0.48588700  0.25272700  1
  F  F40  1  0.92257400  0.74066700  0.24367300  1
  F  F41  1  0.57742600  0.74066700  0.74367300  1
  F  F42  1  0.07742600  0.25933300  0.75632700  1
  F  F43  1  0.42257400  0.25933300  0.25632700  1
  F  F44  1  0.90653800  0.26000100  0.27705300  1
  F  F45  1  0.59346200  0.26000100  0.77705300  1
  F  F46  1  0.09346200  0.73999900  0.72294700  1
  F  F47  1  0.40653800  0.73999900  0.22294700  1
  F  F48  1  0.97542400  0.16906600  0.40814700  1
  F  F49  1  0.52457600  0.16906600  0.90814700  1
  F  F50  1  0.02457600  0.83093400  0.59185300  1
  F  F51  1  0.47542400  0.83093400  0.09185300  1
  F  F52  1  0.68761300  0.11236000  0.35005200  1
  F  F53  1  0.81238700  0.11236000  0.85005200  1
  F  F54  1  0.31238700  0.88764000  0.64994800  1
  F  F55  1  0.18761300  0.88764000  0.14994800  1
  F  F56  1  0.87475200  0.02493400  0.26080800  1
  F  F57  1  0.62524800  0.02493400  0.76080800  1
  F  F58  1  0.12524800  0.97506600  0.73919200  1
  F  F59  1  0.37475200  0.97506600  0.23919200  1
  F  F60  1  0.43869200  0.36817700  0.53601500  1
  F  F61  1  0.06130800  0.36817700  0.03601500  1
  F  F62  1  0.56130800  0.63182300  0.46398500  1
  F  F63  1  0.93869200  0.63182300  0.96398500  1
loop_
_geom_bond_atom_site_label_1
_geom_bond_atom_site_label_2
_geom_bond_distance
_geom_bond_site_symmetry_2
H0 O0 0.976515 1_555
H1 O1 0.976515 1_555
H2 O2 0.976515 1_555
H3 O3 0.976515 1_555
H4 O0 0.981233 1_555
H5 O1 0.981233 1_555
H6 O2 0.981233 1_555
H7 O3 0.981233 1_555
H8 O4 0.982620 1_555
H9 O5 0.982620 1_554
H10 O6 0.982620 1_555
H11 O7 0.982620 1_556
H12 O4 0.972902 1_555
H13 O5 0.972902 1_555
H14 O6 0.972902 1_555
H15 O7 0.972902 1_555
H16 O8 0.977905 1_545
H17 O9 0.977905 1_545
H18 O10 0.977905 1_565
H19 O11 0.977905 1_565
H20 O8 0.978906 1_555
H21 O9 0.978906 1_554
H22 O10 0.978906 1_555
H23 O11 0.978906 1_556
O0 Sr4 2.664750 1_565
O0 Sr0 2.685313 1_555
O1 Sr5 2.664750 1_665
O1 Sr1 2.685313 1_655
O2 Sr6 2.664750 1_545
O2 Sr2 2.685313 1_555
O3 Sr7 2.664750 1_445
O3 Sr3 2.685313 1_455
O4 Sr8 2.629362 1_555
O4 Sr0 2.853521 1_555
O5 Sr9 2.629362 1_555
O5 Sr1 2.853521 1_555
O6 Sr10 2.629362 1_555
O6 Sr2 2.853521 1_555
O7 Sr11 2.629362 1_555
O7 Sr3 2.853521 1_555
O8 Sr8 2.660540 1_555
O8 Sr4 2.752538 1_565
O9 Sr9 2.660540 1_555
O9 Sr5 2.752538 1_565
O10 Sr10 2.660540 1_555
O10 Sr6 2.752538 1_545
O11 Sr11 2.660540 1_555
O11 Sr7 2.752538 1_545
O12 V0 1.654919 1_555
O12 Sr8 2.733601 1_655
O13 V1 1.654919 1_555
O13 Sr9 2.733601 1_555
O14 V2 1.654919 1_555
O14 Sr10 2.733601 1_455
O15 V3 1.654919 1_555
O15 Sr11 2.733601 1_555
O16 V4 1.660313 1_565
O16 Sr8 2.553270 1_655
O17 V5 1.660313 1_565
O17 Sr9 2.553270 1_555
O18 V6 1.660313 1_545
O18 Sr10 2.553270 1_455
O19 V7 1.660313 1_545
O19 Sr11 2.553270 1_555
O20 V8 1.665106 1_555
O20 Sr6 2.655711 1_545
O21 V9 1.665106 1_554
O21 Sr7 2.655711 1_445
O22 V10 1.665106 1_555
O22 Sr4 2.655711 1_565
O23 V11 1.665106 1_556
O23 Sr5 2.655711 1_665
F0 Sr0 2.388352 1_555
F0 Sr8 2.424853 1_555
F0 Sr4 2.427924 1_565
F1 Sr1 2.388352 1_555
F1 Sr9 2.424853 1_555
F1 Sr5 2.427924 1_565
F2 Sr2 2.388352 1_555
F2 Sr10 2.424853 1_555
F2 Sr6 2.427924 1_545
F3 Sr3 2.388352 1_555
F3 Sr11 2.424853 1_555
F3 Sr7 2.427924 1_545
F4 V8 2.111813 1_555
F4 Sr0 2.495786 1_555
F4 Sr12 2.653627 1_555
F4 Sr19 2.828874 1_555
F5 V9 2.111813 1_555
F5 Sr1 2.495786 1_555
F5 Sr13 2.653627 1_455
F5 Sr18 2.828874 1_555
F6 V10 2.111813 1_555
F6 Sr2 2.495786 1_555
F6 Sr14 2.653627 1_555
F6 Sr17 2.828874 1_555
F7 V11 2.111813 1_555
F7 Sr3 2.495786 1_555
F7 Sr15 2.653627 1_655
F7 Sr16 2.828874 1_555
F8 V0 1.995128 1_455
F8 Sr0 2.549111 1_555
F8 Sr15 2.668169 1_555
F8 Sr19 2.694318 1_555
F9 V1 1.995128 1_555
F9 Sr1 2.549111 1_555
F9 Sr14 2.668169 1_555
F9 Sr18 2.694318 1_555
F10 V2 1.995128 1_655
F10 Sr2 2.549111 1_555
F10 Sr13 2.668169 1_555
F10 Sr17 2.694318 1_555
F11 V3 1.995128 1_555
F11 Sr3 2.549111 1_555
F11 Sr12 2.668169 1_555
F11 Sr16 2.694318 1_555
F12 V4 1.987169 1_455
F12 Sr4 2.542420 1_555
F12 Sr19 2.730124 1_555
F13 V5 1.987169 1_555
F13 Sr5 2.542420 1_555
F13 Sr18 2.730124 1_555
F14 V6 1.987169 1_655
F14 Sr6 2.542420 1_555
F14 Sr17 2.730124 1_555
F15 V7 1.987169 1_555
F15 Sr7 2.542420 1_555
F15 Sr16 2.730124 1_555
F16 V8 2.007598 1_555
F16 Sr19 2.561940 1_555
F16 Sr4 2.586676 1_555
F16 Sr12 2.812199 1_555
F17 V9 2.007598 1_555
F17 Sr18 2.561940 1_555
F17 Sr5 2.586676 1_555
F17 Sr13 2.812199 1_455
F18 V10 2.007598 1_555
F18 Sr17 2.561940 1_555
F18 Sr6 2.586676 1_555
F18 Sr14 2.812199 1_555
F19 V11 2.007598 1_555
F19 Sr16 2.561940 1_555
F19 Sr7 2.586676 1_555
F19 Sr15 2.812199 1_655
F20 V8 1.974179 1_555
F20 Sr10 2.516053 1_555
F20 Sr12 2.517707 1_555
F21 V9 1.974179 1_655
F21 Sr11 2.516053 1_556
F21 Sr13 2.517707 1_555
F22 V10 1.974179 1_555
F22 Sr8 2.516053 1_555
F22 Sr14 2.517707 1_555
F23 V11 1.974179 1_455
F23 Sr9 2.516053 1_554
F23 Sr15 2.517707 1_555
F24 V8 1.976388 1_555
F24 Sr10 2.538980 1_455
F24 Sr19 2.712552 1_555
F25 V9 1.976388 1_555
F25 Sr11 2.538980 1_556
F25 Sr18 2.712552 1_555
F26 V10 1.976388 1_555
F26 Sr8 2.538980 1_655
F26 Sr17 2.712552 1_555
F27 V11 1.976388 1_555
F27 Sr9 2.538980 1_554
F27 Sr16 2.712552 1_555
F28 V0 1.990640 1_555
F28 Sr0 2.594744 1_555
F28 Sr12 2.678409 1_555
F28 Sr16 2.700948 1_555
F29 V1 1.990640 1_555
F29 Sr1 2.594744 1_655
F29 Sr13 2.678409 1_555
F29 Sr17 2.700948 1_555
F30 V2 1.990640 1_555
F30 Sr2 2.594744 1_555
F30 Sr14 2.678409 1_555
F30 Sr18 2.700948 1_555
F31 V3 1.990640 1_555
F31 Sr3 2.594744 1_455
F31 Sr15 2.678409 1_555
F31 Sr19 2.700948 1_555
F32 V0 1.985980 1_555
F32 Sr19 2.659919 1_655
F32 Sr12 2.748322 1_555
F32 Sr10 3.002015 1_555
F33 V1 1.985980 1_555
F33 Sr18 2.659919 1_555
F33 Sr13 2.748322 1_555
F33 Sr11 3.002015 1_556
F34 V2 1.985980 1_555
F34 Sr17 2.659919 1_455
F34 Sr14 2.748322 1_555
F34 Sr8 3.002015 1_555
F35 V3 1.985980 1_555
F35 Sr16 2.659919 1_555
F35 Sr15 2.748322 1_555
F35 Sr9 3.002015 1_554
F36 V0 2.119458 1_555
F36 Sr15 2.692166 1_655
F36 Sr16 2.855034 1_555
F36 Sr19 3.025390 1_655
F36 Sr12 3.043045 1_555
F37 V1 2.119458 1_555
F37 Sr14 2.692166 1_555
F37 Sr17 2.855034 1_555
F37 Sr18 3.025390 1_555
F37 Sr13 3.043045 1_555
F38 V2 2.119458 1_555
F38 Sr13 2.692166 1_455
F38 Sr18 2.855034 1_555
F38 Sr17 3.025390 1_455
F38 Sr14 3.043045 1_555
F39 V3 2.119458 1_555
F39 Sr12 2.692166 1_555
F39 Sr19 2.855034 1_555
F39 Sr16 3.025390 1_555
F39 Sr15 3.043045 1_555
F40 V0 1.958020 1_555
F40 Sr15 2.706175 1_655
F40 Sr16 2.859699 1_555
F40 Sr7 3.005080 1_555
F41 V1 1.958020 1_555
F41 Sr14 2.706175 1_555
F41 Sr17 2.859699 1_555
F41 Sr6 3.005080 1_555
F42 V2 1.958020 1_555
F42 Sr13 2.706175 1_455
F42 Sr18 2.859699 1_555
F42 Sr5 3.005080 1_555
F43 V3 1.958020 1_555
F43 Sr12 2.706175 1_555
F43 Sr19 2.859699 1_555
F43 Sr4 3.005080 1_555
F44 V4 2.164996 1_555
F44 Sr3 2.557277 1_555
F44 Sr12 2.601499 1_555
F44 Sr19 2.642091 1_655
F45 V5 2.164996 1_555
F45 Sr2 2.557277 1_555
F45 Sr13 2.601499 1_555
F45 Sr18 2.642091 1_555
F46 V6 2.164996 1_555
F46 Sr1 2.557277 1_555
F46 Sr14 2.601499 1_555
F46 Sr17 2.642091 1_455
F47 V7 2.164996 1_555
F47 Sr0 2.557277 1_555
F47 Sr15 2.601499 1_555
F47 Sr16 2.642091 1_555
F48 V4 2.013002 1_555
F48 Sr19 2.634923 1_655
F48 Sr10 2.669035 1_555
F49 V5 2.013002 1_555
F49 Sr18 2.634923 1_555
F49 Sr11 2.669035 1_556
F50 V6 2.013002 1_555
F50 Sr17 2.634923 1_455
F50 Sr8 2.669035 1_555
F51 V7 2.013002 1_555
F51 Sr16 2.634923 1_555
F51 Sr9 2.669035 1_554
F52 V4 1.967982 1_555
F52 Sr12 2.553262 1_555
F52 Sr4 2.558394 1_555
F53 V5 1.967982 1_555
F53 Sr13 2.553262 1_555
F53 Sr5 2.558394 1_655
F54 V6 1.967982 1_555
F54 Sr14 2.553262 1_555
F54 Sr6 2.558394 1_555
F55 V7 1.967982 1_555
F55 Sr15 2.553262 1_555
F55 Sr7 2.558394 1_455
F56 V4 1.919772 1_555
F56 Sr7 2.483073 1_545
F57 V5 1.919772 1_555
F57 Sr6 2.483073 1_545
F58 V6 1.919772 1_555
F58 Sr5 2.483073 1_565
F59 V7 1.919772 1_555
F59 Sr4 2.483073 1_565
F60 V8 1.942117 1_555
F60 Sr2 2.499296 1_555
F61 V9 1.942117 1_554
F61 Sr3 2.499296 1_455
F62 V10 1.942117 1_555
F62 Sr0 2.499296 1_555
F63 V11 1.942117 1_556
F63 Sr1 2.499296 1_655
