# generated using pymatgen
data_Mg2Sn9O13
_symmetry_space_group_name_H-M   'P 1'
_cell_length_a   8.19071130
_cell_length_b   8.19071130
_cell_length_c   15.78239638
_cell_angle_alpha   72.92132464
_cell_angle_beta   72.92132464
_cell_angle_gamma   22.53382921
_symmetry_Int_Tables_number   1
_chemical_formula_structural   Mg2Sn9O13
_chemical_formula_sum   'Mg2 Sn9 O13'
_cell_volume   387.14433746
_cell_formula_units_Z   1
loop_
 _symmetry_equiv_pos_site_id
 _symmetry_equiv_pos_as_xyz
  1  'x, y, z'
loop_
 _atom_site_type_symbol
 _atom_site_label
 _atom_site_symmetry_multiplicity
 _atom_site_fract_x
 _atom_site_fract_y
 _atom_site_fract_z
 _atom_site_occupancy
  Mg  Mg0  1  0.37215400  0.37215400  0.76444300  1
  Mg  Mg1  1  0.62784600  0.62784600  0.23555700  1
  Sn  Sn0  1  0.50000000  0.50000000  0.50000000  1
  Sn  Sn1  1  0.67367200  0.67367200  0.88949500  1
  Sn  Sn2  1  0.32632800  0.32632800  0.11050500  1
  Sn  Sn3  1  0.79545900  0.79545900  0.62292100  1
  Sn  Sn4  1  0.20454100  0.20454100  0.37707900  1
  Sn  Sn5  1  0.96847300  0.96847300  0.88685200  1
  Sn  Sn6  1  0.03152700  0.03152700  0.11314800  1
  Sn  Sn7  1  0.08893200  0.08893200  0.67340600  1
  Sn  Sn8  1  0.91106800  0.91106800  0.32659400  1
  O  O0  1  0.00000000  0.00000000  0.00000000  1
  O  O1  1  0.95876400  0.95876400  0.75349100  1
  O  O2  1  0.04123600  0.04123600  0.24650900  1
  O  O3  1  0.38169700  0.38169700  0.90330000  1
  O  O4  1  0.61830300  0.61830300  0.09670000  1
  O  O5  1  0.56395000  0.56395000  0.83735500  1
  O  O6  1  0.43605000  0.43605000  0.16264500  1
  O  O7  1  0.78293400  0.78293400  0.76142600  1
  O  O8  1  0.21706600  0.21706600  0.23857400  1
  O  O9  1  0.39249900  0.39249900  0.61706700  1
  O  O10  1  0.60750100  0.60750100  0.38293300  1
  O  O11  1  0.05952800  0.05952800  0.54715900  1
  O  O12  1  0.94047200  0.94047200  0.45284100  1
loop_
_geom_bond_atom_site_label_1
_geom_bond_atom_site_label_2
_geom_bond_distance
_geom_bond_site_symmetry_2
Mg0 O1 2.093545 1_455
Mg0 O1 2.093545 1_545
Mg0 O7 2.158400 1_455
Mg0 O7 2.158400 1_545
Mg0 O3 2.242184 1_555
Mg0 O9 2.249786 1_555
Mg1 O2 2.093545 1_655
Mg1 O2 2.093545 1_565
Mg1 O8 2.158400 1_565
Mg1 O8 2.158400 1_655
Mg1 O4 2.242184 1_555
Mg1 O10 2.249786 1_555
O0 Sn6 1.996784 1_555
O0 Sn5 1.996784 1_444
O1 Sn7 2.094703 1_665
O1 Sn5 2.156607 1_555
O2 Sn8 2.094703 1_445
O2 Sn6 2.156607 1_555
O3 Sn5 2.086904 1_455
O3 Sn5 2.086904 1_545
O4 Sn6 2.086904 1_655
O4 Sn6 2.086904 1_565
O5 Sn1 2.157139 1_555
O5 Sn5 2.192355 1_455
O5 Sn5 2.192355 1_545
O6 Sn2 2.157139 1_555
O6 Sn6 2.192355 1_565
O6 Sn6 2.192355 1_655
O7 Sn3 2.134336 1_555
O7 Sn1 2.245390 1_555
O8 Sn4 2.134336 1_555
O8 Sn2 2.245390 1_555
O9 Sn0 2.117859 1_555
O9 Sn3 2.216701 1_455
O9 Sn3 2.216701 1_545
O10 Sn0 2.117859 1_555
O10 Sn4 2.216701 1_565
O10 Sn4 2.216701 1_655
O11 Sn0 2.110888 1_455
O11 Sn0 2.110888 1_545
O11 Sn7 2.181022 1_555
O12 Sn0 2.110888 1_565
O12 Sn0 2.110888 1_655
O12 Sn8 2.181022 1_555
