# generated using pymatgen
data_La2H5
_symmetry_space_group_name_H-M   'P 1'
_cell_length_a   5.58342796
_cell_length_b   5.58342602
_cell_length_c   6.90679000
_cell_angle_alpha   113.84100152
_cell_angle_beta   113.84101142
_cell_angle_gamma   90.00030888
_symmetry_Int_Tables_number   1
_chemical_formula_structural   La2H5
_chemical_formula_sum   'La4 H10'
_cell_volume   176.67041529
_cell_formula_units_Z   2
loop_
 _symmetry_equiv_pos_site_id
 _symmetry_equiv_pos_as_xyz
  1  'x, y, z'
loop_
 _atom_site_type_symbol
 _atom_site_label
 _atom_site_symmetry_multiplicity
 _atom_site_fract_x
 _atom_site_fract_y
 _atom_site_fract_z
 _atom_site_occupancy
  La  La0  1  0.00424485  0.50425009  0.00843166  1
  La  La1  1  0.24575379  0.24574959  0.49156418  1
  La  La2  1  0.49574967  0.99575486  0.99156792  1
  La  La3  1  0.75424851  0.75424486  0.50843583  1
  H  H0  1  0.62499793  0.60583963  0.74999707  1
  H  H1  1  0.12500154  0.14416047  0.75000216  1
  H  H2  1  0.12499833  0.60583944  0.74999714  1
  H  H3  1  0.62500244  0.14416029  0.75000219  1
  H  H4  1  0.39416058  0.37500185  0.25000290  1
  H  H5  1  0.85584007  0.87499944  0.24999793  1
  H  H6  1  0.39416066  0.87500250  0.25000290  1
  H  H7  1  0.85584012  0.37499721  0.24999783  1
  H  H8  1  0.24999902  0.75000192  0.50000024  1
  H  H9  1  0.00000249  -0.00000215  0.00000007  1
loop_
_geom_bond_atom_site_label_1
_geom_bond_atom_site_label_2
_geom_bond_distance
_geom_bond_site_symmetry_2
H0 La0 2.398878 1_656
H0 La1 2.399051 1_555
H0 La2 2.466000 1_555
H0 La3 2.466152 1_555
H1 La1 2.398704 1_555
H1 La0 2.398876 1_556
H1 La3 2.465777 1_445
H1 La2 2.465968 1_545
H2 La0 2.398686 1_556
H2 La1 2.398886 1_555
H2 La2 2.465771 1_555
H2 La3 2.465959 1_455
H3 La1 2.398895 1_555
H3 La0 2.399044 1_656
H3 La3 2.465981 1_545
H3 La2 2.466188 1_545
H4 La2 2.398879 1_544
H4 La3 2.399041 1_555
H4 La0 2.466003 1_555
H4 La1 2.466163 1_555
H5 La3 2.398718 1_555
H5 La2 2.398876 1_554
H5 La1 2.465762 1_665
H5 La0 2.465971 1_655
H6 La2 2.398684 1_554
H6 La3 2.398886 1_555
H6 La0 2.465775 1_555
H6 La1 2.465955 1_565
H7 La3 2.398898 1_555
H7 La2 2.399045 1_544
H7 La1 2.465980 1_655
H7 La0 2.466189 1_655
H8 La2 2.785771 1_555
H8 La0 2.785776 1_555
H8 La1 2.791931 1_565
H8 La3 2.791947 1_455
H8 La3 2.792300 1_555
H8 La1 2.792314 1_555
H9 La1 2.785751 1_555
H9 La3 2.785752 1_444
H9 La2 2.791918 1_544
H9 La0 2.791919 1_545
H9 La0 2.792325 1_555
H9 La2 2.792328 1_444
