# generated using pymatgen
data_Li9Mn2Co5O16
_symmetry_space_group_name_H-M   'P 1'
_cell_length_a   2.96406300
_cell_length_b   9.86912764
_cell_length_c   10.37452106
_cell_angle_alpha   73.08821497
_cell_angle_beta   82.69650591
_cell_angle_gamma   87.72267592
_symmetry_Int_Tables_number   1
_chemical_formula_structural   Li9Mn2Co5O16
_chemical_formula_sum   'Li9 Mn2 Co5 O16'
_cell_volume   288.00144506
_cell_formula_units_Z   1
loop_
 _symmetry_equiv_pos_site_id
 _symmetry_equiv_pos_as_xyz
  1  'x, y, z'
loop_
 _atom_site_type_symbol
 _atom_site_label
 _atom_site_symmetry_multiplicity
 _atom_site_fract_x
 _atom_site_fract_y
 _atom_site_fract_z
 _atom_site_occupancy
  Li  Li0  1  0.92783600  0.68741100  0.13164200  1
  Li  Li1  1  0.42063700  0.17712700  0.13194100  1
  Li  Li2  1  0.31802900  0.56433800  0.37930200  1
  Li  Li3  1  0.81414000  0.05551200  0.36778300  1
  Li  Li4  1  0.68994600  0.43833200  0.62290800  1
  Li  Li5  1  0.19029900  0.93657700  0.62319800  1
  Li  Li6  1  0.07199900  0.31900000  0.87175300  1
  Li  Li7  1  0.56876500  0.81391800  0.87208000  1
  Li  Li8  1  0.38730300  0.88378900  0.25052300  1
  Mn  Mn0  1  0.99168700  0.99687100  0.00607300  1
  Mn  Mn1  1  0.87306000  0.37682400  0.25220400  1
  Co  Co0  1  0.50176300  0.50398000  0.99892000  1
  Co  Co1  1  0.75646100  0.75528700  0.48946700  1
  Co  Co2  1  0.24783500  0.24658100  0.50368500  1
  Co  Co3  1  0.13054400  0.62285900  0.74454100  1
  Co  Co4  1  0.61733300  0.12219100  0.74921700  1
  O  O0  1  0.48591300  0.86272400  0.05404800  1
  O  O1  1  0.95916500  0.35802700  0.06428100  1
  O  O2  1  0.83193400  0.71920700  0.33418700  1
  O  O3  1  0.30126700  0.22238700  0.32015000  1
  O  O4  1  0.18371600  0.60345000  0.56488000  1
  O  O5  1  0.72631300  0.10088300  0.57068300  1
  O  O6  1  0.59629000  0.47632600  0.81244800  1
  O  O7  1  0.05453700  0.97843700  0.81617000  1
  O  O8  1  0.44622400  0.52961800  0.18628400  1
  O  O9  1  0.91793900  0.03249200  0.17064800  1
  O  O10  1  0.77151600  0.39564600  0.43711100  1
  O  O11  1  0.30987800  0.89398400  0.44451400  1
  O  O12  1  0.18558100  0.27122000  0.68607800  1
  O  O13  1  0.66213100  0.76992000  0.67665800  1
  O  O14  1  0.50784800  0.13614100  0.93485300  1
  O  O15  1  0.05210900  0.64893800  0.93176700  1
loop_
_geom_bond_atom_site_label_1
_geom_bond_atom_site_label_2
_geom_bond_distance
_geom_bond_site_symmetry_2
Li0 O8 2.059521 1_555
Li0 O8 2.150606 1_655
Li0 O0 2.152912 1_555
Li0 O2 2.195322 1_555
Li0 O15 2.198285 1_654
Li0 O0 2.335900 1_655
Li1 O9 2.005332 1_555
Li1 O9 2.025434 1_455
Li1 O3 2.111039 1_555
Li1 O14 2.179382 1_554
Li1 O1 2.207262 1_455
Li1 O1 2.332501 1_555
Li2 O2 2.052154 1_455
Li2 O4 2.059001 1_555
Li2 O10 2.093890 1_555
Li2 O2 2.112576 1_555
Li2 O8 2.113547 1_555
Li2 O10 2.267570 1_455
Li3 O9 2.105666 1_555
Li3 O11 2.134839 1_545
Li3 O3 2.139010 1_655
Li3 O11 2.169571 1_645
Li3 O3 2.187698 1_555
Li3 O5 2.258106 1_555
Li4 O10 2.072980 1_555
Li4 O6 2.089559 1_555
Li4 O4 2.134177 1_655
Li4 O12 2.168517 1_555
Li4 O12 2.175121 1_655
Li4 O4 2.175776 1_555
Li5 O11 2.003302 1_555
Li5 O5 2.077729 1_465
Li5 O13 2.110078 1_555
Li5 O7 2.145628 1_555
Li5 O13 2.217397 1_455
Li5 O5 2.218371 1_565
Li6 O6 2.065989 1_455
Li6 O12 2.096964 1_555
Li6 O1 2.125385 1_456
Li6 O6 2.144112 1_555
Li6 O14 2.167189 1_555
Li6 O14 2.399104 1_455
Li7 O0 2.063489 1_556
Li7 O7 2.114575 1_655
Li7 O15 2.130871 1_655
Li7 O13 2.176122 1_555
Li7 O15 2.179488 1_555
Li7 O7 2.185426 1_555
Li8 O11 2.027745 1_555
Li8 O9 2.049211 1_465
Li8 O0 2.091337 1_555
Li8 O2 2.104529 1_555
Li8 O9 2.111585 1_565
Li8 O2 2.265050 1_455
Mn0 O9 1.826130 1_565
Mn0 O0 1.947904 1_655
Mn0 O0 1.957694 1_555
Mn0 O14 2.003433 1_564
Mn0 O7 2.015397 1_654
Mn0 O14 2.016101 1_664
Mn1 O8 1.952083 1_555
Mn1 O10 1.964976 1_555
Mn1 O3 1.969660 1_655
Mn1 O1 1.995165 1_555
Mn1 O8 2.221721 1_655
Mn1 O3 2.229095 1_555
Co0 O15 1.952704 1_555
Co0 O1 1.970538 1_556
Co0 O6 2.014644 1_555
Co0 O8 2.017673 1_556
Co0 O1 2.111828 1_456
Co0 O15 2.123598 1_655
Co1 O2 1.734298 1_555
Co1 O11 1.866789 1_555
Co1 O4 1.969875 1_655
Co1 O13 1.972908 1_555
Co1 O11 2.096304 1_655
Co1 O4 2.218562 1_555
Co2 O12 1.961915 1_555
Co2 O3 1.972937 1_555
Co2 O5 2.017227 1_555
Co2 O10 2.031326 1_455
Co2 O5 2.064528 1_455
Co2 O10 2.090080 1_555
Co3 O4 1.914752 1_555
Co3 O6 1.997331 1_555
Co3 O13 2.005963 1_455
Co3 O15 2.016040 1_555
Co3 O13 2.095248 1_555
Co3 O6 2.097846 1_455
Co4 O5 1.910058 1_555
Co4 O7 1.919383 1_645
Co4 O12 1.932111 1_555
Co4 O14 1.955788 1_555
Co4 O7 2.144336 1_545
Co4 O12 2.187482 1_655
