# generated using pymatgen
data_CeMg14BO16
_symmetry_space_group_name_H-M   'P 1'
_cell_length_a   8.76429639
_cell_length_b   8.76429639
_cell_length_c   4.37473959
_cell_angle_alpha   90.00000000
_cell_angle_beta   90.00000000
_cell_angle_gamma   90.00000000
_symmetry_Int_Tables_number   1
_chemical_formula_structural   CeMg14BO16
_chemical_formula_sum   'Ce1 Mg14 B1 O16'
_cell_volume   336.03639621
_cell_formula_units_Z   1
loop_
 _symmetry_equiv_pos_site_id
 _symmetry_equiv_pos_as_xyz
  1  'x, y, z'
loop_
 _atom_site_type_symbol
 _atom_site_label
 _atom_site_symmetry_multiplicity
 _atom_site_fract_x
 _atom_site_fract_y
 _atom_site_fract_z
 _atom_site_occupancy
  Ce  Ce0  1  -0.00000000  0.00000000  0.00000000  1
  Mg  Mg0  1  -0.00000000  0.50000000  0.00000000  1
  Mg  Mg1  1  0.50000000  0.00000000  0.00000000  1
  Mg  Mg2  1  -0.00000000  0.26946386  0.50000000  1
  Mg  Mg3  1  -0.00000000  0.73053614  0.50000000  1
  Mg  Mg4  1  0.50000000  0.25729702  0.50000000  1
  Mg  Mg5  1  0.50000000  0.74270298  0.50000000  1
  Mg  Mg6  1  0.26946386  0.00000000  0.50000000  1
  Mg  Mg7  1  0.25729702  0.50000000  0.50000000  1
  Mg  Mg8  1  0.73053614  0.00000000  0.50000000  1
  Mg  Mg9  1  0.74270298  0.50000000  0.50000000  1
  Mg  Mg10  1  0.26470532  0.26470532  0.00000000  1
  Mg  Mg11  1  0.26470532  0.73529468  -0.00000000  1
  Mg  Mg12  1  0.73529468  0.26470532  0.00000000  1
  Mg  Mg13  1  0.73529468  0.73529468  -0.00000000  1
  B  B0  1  0.50000000  0.50000000  0.00000000  1
  O  O0  1  0.26406635  0.00000000  0.00000000  1
  O  O1  1  0.23440074  0.50000000  -0.00000000  1
  O  O2  1  0.73593365  0.00000000  0.00000000  1
  O  O3  1  0.76559926  0.50000000  0.00000000  1
  O  O4  1  0.24996516  0.24996516  0.50000000  1
  O  O5  1  0.24996516  0.75003484  0.50000000  1
  O  O6  1  0.75003484  0.24996516  0.50000000  1
  O  O7  1  0.75003484  0.75003484  0.50000000  1
  O  O8  1  -0.00000000  0.00000000  0.50000000  1
  O  O9  1  -0.00000000  0.50000000  0.50000000  1
  O  O10  1  0.50000000  0.00000000  0.50000000  1
  O  O11  1  0.50000000  0.50000000  0.50000000  1
  O  O12  1  -0.00000000  0.26406635  -0.00000000  1
  O  O13  1  -0.00000000  0.73593365  0.00000000  1
  O  O14  1  0.50000000  0.23440074  -0.00000000  1
  O  O15  1  0.50000000  0.76559926  0.00000000  1
loop_
_geom_bond_atom_site_label_1
_geom_bond_atom_site_label_2
_geom_bond_distance
_geom_bond_site_symmetry_2
Ce0 O8 2.187370 1_554
Ce0 O8 2.187370 1_555
Ce0 O13 2.314356 1_545
Ce0 O12 2.314356 1_555
Ce0 O2 2.314356 1_455
Ce0 O0 2.314356 1_555
Mg0 O3 2.054358 1_455
Mg0 O1 2.054358 1_555
Mg0 O13 2.067792 1_555
Mg0 O12 2.067792 1_555
Mg0 O9 2.187370 1_555
Mg0 O9 2.187370 1_554
Mg1 O15 2.054358 1_545
Mg1 O14 2.054358 1_555
Mg1 O2 2.067792 1_555
Mg1 O0 2.067792 1_555
Mg1 O10 2.187370 1_555
Mg1 O10 2.187370 1_554
Mg2 O9 2.020487 1_555
Mg2 O12 2.187881 1_555
Mg2 O12 2.187881 1_556
Mg2 O4 2.197424 1_555
Mg2 O6 2.197424 1_455
Mg2 O8 2.361661 1_555
Mg3 O9 2.020487 1_555
Mg3 O13 2.187881 1_555
Mg3 O13 2.187881 1_556
Mg3 O5 2.197424 1_555
Mg3 O7 2.197424 1_455
Mg3 O8 2.361661 1_565
Mg4 O11 2.127121 1_555
Mg4 O4 2.192321 1_555
Mg4 O6 2.192321 1_555
Mg4 O14 2.196555 1_555
Mg4 O14 2.196555 1_556
Mg4 O10 2.255027 1_555
Mg5 O11 2.127121 1_555
Mg5 O5 2.192321 1_555
Mg5 O7 2.192321 1_555
Mg5 O15 2.196555 1_555
Mg5 O15 2.196555 1_556
Mg5 O10 2.255027 1_565
Mg6 O10 2.020487 1_555
Mg6 O0 2.187881 1_555
Mg6 O0 2.187881 1_556
Mg6 O4 2.197424 1_555
Mg6 O5 2.197424 1_545
Mg6 O8 2.361661 1_555
Mg7 O11 2.127121 1_555
Mg7 O4 2.192321 1_555
Mg7 O5 2.192321 1_555
Mg7 O1 2.196555 1_556
Mg7 O1 2.196555 1_555
Mg7 O9 2.255027 1_555
Mg8 O10 2.020487 1_555
Mg8 O2 2.187881 1_556
Mg8 O2 2.187881 1_555
Mg8 O6 2.197424 1_555
Mg8 O7 2.197424 1_545
Mg8 O8 2.361661 1_655
Mg9 O11 2.127121 1_555
Mg9 O6 2.192321 1_555
Mg9 O7 2.192321 1_555
Mg9 O3 2.196555 1_556
Mg9 O3 2.196555 1_555
Mg9 O9 2.255027 1_655
Mg10 O1 2.079226 1_555
Mg10 O14 2.079226 1_555
Mg10 O4 2.194986 1_555
Mg10 O4 2.194986 1_554
Mg10 O0 2.319963 1_555
Mg10 O12 2.319963 1_555
Mg11 O1 2.079226 1_555
Mg11 O15 2.079226 1_555
Mg11 O5 2.194986 1_555
Mg11 O5 2.194986 1_554
Mg11 O13 2.319963 1_555
Mg11 O0 2.319963 1_565
Mg12 O14 2.079226 1_555
Mg12 O3 2.079226 1_555
Mg12 O6 2.194986 1_555
Mg12 O6 2.194986 1_554
Mg12 O12 2.319963 1_655
Mg12 O2 2.319963 1_555
Mg13 O15 2.079226 1_555
Mg13 O3 2.079226 1_555
Mg13 O7 2.194986 1_555
Mg13 O7 2.194986 1_554
Mg13 O2 2.319963 1_565
Mg13 O13 2.319963 1_655
B0 O11 2.187370 1_555
B0 O11 2.187370 1_554
