# generated using pymatgen
data_Li7Mn2(CoO4)3
_symmetry_space_group_name_H-M   'P 1'
_cell_length_a   3.00348200
_cell_length_b   5.00821312
_cell_length_c   14.43399192
_cell_angle_alpha   87.66751159
_cell_angle_beta   88.31569165
_cell_angle_gamma   87.88024629
_symmetry_Int_Tables_number   1
_chemical_formula_structural   Li7Mn2(CoO4)3
_chemical_formula_sum   'Li7 Mn2 Co3 O12'
_cell_volume   216.70432566
_cell_formula_units_Z   1
loop_
 _symmetry_equiv_pos_site_id
 _symmetry_equiv_pos_as_xyz
  1  'x, y, z'
loop_
 _atom_site_type_symbol
 _atom_site_label
 _atom_site_symmetry_multiplicity
 _atom_site_fract_x
 _atom_site_fract_y
 _atom_site_fract_z
 _atom_site_occupancy
  Li  Li0  1  0.99873700  0.66284000  0.83353100  1
  Li  Li1  1  0.50198700  0.50544100  0.49178700  1
  Li  Li2  1  0.00692400  0.33522800  0.17508700  1
  Li  Li3  1  0.50330000  0.17162400  0.83143500  1
  Li  Li4  1  0.99291600  0.00071800  0.49152700  1
  Li  Li5  1  0.49502900  0.82107200  0.17794000  1
  Li  Li6  1  0.99970300  0.66676400  0.33364500  1
  Mn  Mn0  1  0.00164300  0.99932500  0.00117000  1
  Mn  Mn1  1  0.49890600  0.83381000  0.66552200  1
  Co  Co0  1  0.50193800  0.49970300  0.00163400  1
  Co  Co1  1  0.99803700  0.33380000  0.66467200  1
  Co  Co2  1  0.49990800  0.16718700  0.33305800  1
  O  O0  1  0.47564000  0.82425700  0.92494600  1
  O  O1  1  0.96648000  0.65602300  0.58633300  1
  O  O2  1  0.49436200  0.46151200  0.25826100  1
  O  O3  1  0.96649600  0.33091900  0.92476000  1
  O  O4  1  0.51074700  0.16186300  0.58992900  1
  O  O5  1  0.01328800  0.01641800  0.26023100  1
  O  O6  1  0.49126200  0.50878600  0.74375300  1
  O  O7  1  0.98682800  0.31722300  0.40527100  1
  O  O8  1  0.52419700  0.17210500  0.07522200  1
  O  O9  1  0.03303400  0.01146300  0.74528700  1
  O  O10  1  0.50585200  0.87374100  0.40749400  1
  O  O11  1  0.03278600  0.66817800  0.07750300  1
loop_
_geom_bond_atom_site_label_1
_geom_bond_atom_site_label_2
_geom_bond_distance
_geom_bond_site_symmetry_2
Li0 O3 2.081566 1_555
Li0 O6 2.084962 1_655
Li0 O9 2.122728 1_665
Li0 O0 2.174818 1_655
Li0 O0 2.175767 1_555
Li0 O6 2.209559 1_555
Li1 O7 2.110903 1_555
Li1 O1 2.156593 1_555
Li1 O10 2.168135 1_555
Li1 O4 2.183730 1_555
Li1 O1 2.209750 1_455
Li1 O7 2.271417 1_455
Li2 O5 1.974710 1_555
Li2 O2 2.022964 1_455
Li2 O2 2.053833 1_555
Li2 O11 2.140668 1_555
Li2 O8 2.242597 1_555
Li2 O8 2.270160 1_455
Li3 O6 2.068472 1_555
Li3 O9 2.110167 1_555
Li3 O9 2.142777 1_655
Li3 O3 2.160137 1_555
Li3 O0 2.160596 1_545
Li3 O3 2.217004 1_455
Li4 O7 1.975242 1_555
Li4 O10 2.032117 1_645
Li4 O10 2.061931 1_545
Li4 O4 2.156814 1_555
Li4 O1 2.161134 1_545
Li4 O4 2.324573 1_655
Li5 O5 2.085747 1_565
Li5 O2 2.101669 1_555
Li5 O11 2.214223 1_555
Li5 O8 2.255703 1_565
Li5 O5 2.259835 1_665
Li5 O11 2.271100 1_655
Li6 O7 1.997548 1_555
Li6 O5 2.010656 1_665
Li6 O10 2.072216 1_555
Li6 O2 2.081094 1_655
Li6 O10 2.196255 1_655
Li6 O2 2.201777 1_555
Mn0 O11 1.954229 1_555
Mn0 O3 1.957097 1_464
Mn0 O8 1.959846 1_465
Mn0 O0 1.974861 1_554
Mn0 O8 2.151486 1_565
Mn0 O0 2.181348 1_454
Mn1 O4 1.935775 1_565
Mn1 O6 1.943428 1_555
Mn1 O1 1.991848 1_555
Mn1 O9 1.992891 1_565
Mn1 O1 2.225338 1_455
Mn1 O9 2.233452 1_665
Co0 O8 1.917998 1_555
Co0 O0 1.929438 1_554
Co0 O3 1.946965 1_554
Co0 O11 1.947623 1_555
Co0 O11 2.174997 1_655
Co0 O3 2.194046 1_454
Co1 O1 1.933455 1_555
Co1 O9 1.952643 1_655
Co1 O4 2.038770 1_655
Co1 O6 2.065988 1_555
Co1 O4 2.075832 1_555
Co1 O6 2.131273 1_655
Co2 O10 1.784706 1_545
Co2 O2 1.791190 1_555
Co2 O7 1.977242 1_455
Co2 O5 1.983904 1_655
Co2 O7 2.006112 1_555
Co2 O5 2.011925 1_555
