# generated using pymatgen
data_Fe15O16
_symmetry_space_group_name_H-M   'P 1'
_cell_length_a   10.89091294
_cell_length_b   10.89091294
_cell_length_c   10.89091353
_cell_angle_alpha   33.15853329
_cell_angle_beta   33.15853329
_cell_angle_gamma   33.15853171
_symmetry_Int_Tables_number   1
_chemical_formula_structural   Fe15O16
_chemical_formula_sum   'Fe15 O16'
_cell_volume   344.00098970
_cell_formula_units_Z   1
loop_
 _symmetry_equiv_pos_site_id
 _symmetry_equiv_pos_as_xyz
  1  'x, y, z'
loop_
 _atom_site_type_symbol
 _atom_site_label
 _atom_site_symmetry_multiplicity
 _atom_site_fract_x
 _atom_site_fract_y
 _atom_site_fract_z
 _atom_site_occupancy
  Fe  Fe0  1  0.50000000  0.50000000  0.50000000  1
  Fe  Fe1  1  0.00000000  0.00000000  0.00000000  1
  Fe  Fe2  1  0.74924800  0.74924800  0.24683200  1
  Fe  Fe3  1  0.25075200  0.25075200  0.75316800  1
  Fe  Fe4  1  0.74924800  0.24683200  0.74924800  1
  Fe  Fe5  1  0.25075200  0.75316800  0.25075200  1
  Fe  Fe6  1  0.24683200  0.74924800  0.74924800  1
  Fe  Fe7  1  0.75316800  0.25075200  0.25075200  1
  Fe  Fe8  1  0.82021700  0.82021700  0.82021700  1
  Fe  Fe9  1  0.17978300  0.17978300  0.17978300  1
  Fe  Fe10  1  0.25864600  0.25864600  0.25864600  1
  Fe  Fe11  1  0.74135400  0.74135400  0.74135400  1
  Fe  Fe12  1  0.50000000  0.50000000  0.00000000  1
  Fe  Fe13  1  0.50000000  0.00000000  0.50000000  1
  Fe  Fe14  1  0.00000000  0.50000000  0.50000000  1
  O  O0  1  0.88132900  0.88132900  0.88132900  1
  O  O1  1  0.37540200  0.37540200  0.37540200  1
  O  O2  1  0.12677600  0.12677600  0.62578200  1
  O  O3  1  0.62853900  0.62853900  0.11565900  1
  O  O4  1  0.12677600  0.62578200  0.12677600  1
  O  O5  1  0.62853900  0.11565900  0.62853900  1
  O  O6  1  0.62578200  0.12677600  0.12677600  1
  O  O7  1  0.11565900  0.62853900  0.62853900  1
  O  O8  1  0.62459800  0.62459800  0.62459800  1
  O  O9  1  0.11867100  0.11867100  0.11867100  1
  O  O10  1  0.37146100  0.37146100  0.88434100  1
  O  O11  1  0.87322400  0.87322400  0.37421800  1
  O  O12  1  0.37146100  0.88434100  0.37146100  1
  O  O13  1  0.87322400  0.37421800  0.87322400  1
  O  O14  1  0.88434100  0.37146100  0.37146100  1
  O  O15  1  0.37421800  0.87322400  0.87322400  1
loop_
_geom_bond_atom_site_label_1
_geom_bond_atom_site_label_2
_geom_bond_distance
_geom_bond_site_symmetry_2
Fe0 O14 2.258226 1_555
Fe0 O12 2.258226 1_555
Fe0 O7 2.258226 1_555
Fe0 O5 2.258226 1_555
Fe0 O10 2.258226 1_555
Fe0 O3 2.258226 1_555
Fe1 O13 2.184370 1_454
Fe1 O6 2.184370 1_455
Fe1 O15 2.184370 1_544
Fe1 O4 2.184370 1_545
Fe1 O11 2.184370 1_445
Fe1 O2 2.184370 1_554
Fe2 O0 2.067363 1_554
Fe2 O12 2.189359 1_555
Fe2 O14 2.189359 1_555
Fe2 O8 2.235020 1_555
Fe2 O6 2.260275 1_565
Fe2 O4 2.260275 1_655
Fe3 O9 2.067363 1_556
Fe3 O7 2.189359 1_555
Fe3 O5 2.189359 1_555
Fe3 O1 2.235020 1_555
Fe3 O13 2.260275 1_455
Fe3 O15 2.260275 1_545
Fe4 O0 2.067363 1_545
Fe4 O10 2.189359 1_555
Fe4 O14 2.189360 1_555
Fe4 O8 2.235020 1_555
Fe4 O2 2.260275 1_655
Fe4 O6 2.260275 1_556
Fe5 O9 2.067363 1_565
Fe5 O3 2.189359 1_555
Fe5 O7 2.189360 1_555
Fe5 O1 2.235020 1_555
Fe5 O11 2.260275 1_455
Fe5 O15 2.260275 1_554
Fe6 O0 2.067363 1_455
Fe6 O10 2.189359 1_555
Fe6 O12 2.189360 1_555
Fe6 O8 2.235020 1_555
Fe6 O2 2.260275 1_565
Fe6 O4 2.260275 1_556
Fe7 O9 2.067363 1_655
Fe7 O3 2.189359 1_555
Fe7 O5 2.189360 1_555
Fe7 O1 2.235020 1_555
Fe7 O11 2.260275 1_545
Fe7 O13 2.260275 1_554
Fe8 O0 1.885203 1_555
Fe8 O3 1.967899 1_556
Fe8 O5 1.967899 1_565
Fe8 O7 1.967899 1_655
Fe9 O9 1.885203 1_555
Fe9 O10 1.967899 1_554
Fe9 O14 1.967899 1_455
Fe9 O12 1.967899 1_545
Fe10 O6 2.082480 1_555
Fe10 O4 2.082480 1_555
Fe10 O2 2.082481 1_555
Fe10 O12 2.322200 1_545
Fe10 O14 2.322200 1_455
Fe10 O10 2.322200 1_554
Fe11 O13 2.082480 1_555
Fe11 O15 2.082480 1_555
Fe11 O11 2.082481 1_555
Fe11 O7 2.322200 1_655
Fe11 O5 2.322200 1_565
Fe11 O3 2.322200 1_556
Fe12 O15 2.179971 1_554
Fe12 O6 2.179971 1_555
Fe12 O13 2.179971 1_554
Fe12 O4 2.179971 1_555
Fe12 O1 2.214333 1_555
Fe12 O8 2.214333 1_554
Fe13 O11 2.179971 1_545
Fe13 O2 2.179971 1_555
Fe13 O15 2.179971 1_545
Fe13 O6 2.179971 1_555
Fe13 O1 2.214333 1_555
Fe13 O8 2.214333 1_545
Fe14 O11 2.179971 1_455
Fe14 O2 2.179971 1_555
Fe14 O13 2.179971 1_455
Fe14 O4 2.179971 1_555
Fe14 O1 2.214333 1_555
Fe14 O8 2.214333 1_455
