# generated using pymatgen
data_MgCoO2
_symmetry_space_group_name_H-M   'P 1'
_cell_length_a   3.01138200
_cell_length_b   7.39423500
_cell_length_c   7.40976244
_cell_angle_alpha   71.05451135
_cell_angle_beta   90.00000000
_cell_angle_gamma   90.00000000
_symmetry_Int_Tables_number   1
_chemical_formula_structural   MgCoO2
_chemical_formula_sum   'Mg4 Co4 O8'
_cell_volume   156.05421428
_cell_formula_units_Z   4
loop_
 _symmetry_equiv_pos_site_id
 _symmetry_equiv_pos_as_xyz
  1  'x, y, z'
loop_
 _atom_site_type_symbol
 _atom_site_label
 _atom_site_symmetry_multiplicity
 _atom_site_fract_x
 _atom_site_fract_y
 _atom_site_fract_z
 _atom_site_occupancy
  Mg  Mg0  1  0.75000000  0.68859000  0.93643300  1
  Mg  Mg1  1  0.25000000  0.31141000  0.06356700  1
  Mg  Mg2  1  0.25000000  0.56110000  0.31229400  1
  Mg  Mg3  1  0.75000000  0.43890000  0.68770600  1
  Co  Co0  1  0.25000000  0.06465600  0.81254900  1
  Co  Co1  1  0.25000000  0.81159000  0.56163400  1
  Co  Co2  1  0.75000000  0.18841000  0.43836600  1
  Co  Co3  1  0.75000000  0.93534400  0.18745100  1
  O  O0  1  0.25000000  0.06373400  0.30806900  1
  O  O1  1  0.25000000  0.31796200  0.56078400  1
  O  O2  1  0.75000000  0.68203800  0.43921600  1
  O  O3  1  0.75000000  0.93626600  0.69193100  1
  O  O4  1  0.75000000  0.19318700  0.93406100  1
  O  O5  1  0.25000000  0.56082500  0.81602400  1
  O  O6  1  0.25000000  0.80681300  0.06593900  1
  O  O7  1  0.75000000  0.43917500  0.18397600  1
loop_
_geom_bond_atom_site_label_1
_geom_bond_atom_site_label_2
_geom_bond_distance
_geom_bond_site_symmetry_2
Mg0 O3 2.117016 1_555
Mg0 O6 2.120572 1_556
Mg0 O6 2.120572 1_656
Mg0 O5 2.122016 1_655
Mg0 O5 2.122016 1_555
Mg0 O7 2.137537 1_556
Mg1 O0 2.117016 1_555
Mg1 O4 2.120572 1_554
Mg1 O4 2.120572 1_454
Mg1 O7 2.122016 1_455
Mg1 O7 2.122016 1_555
Mg1 O5 2.137537 1_554
Mg2 O1 2.114924 1_555
Mg2 O6 2.116511 1_555
Mg2 O2 2.120693 1_455
Mg2 O2 2.120693 1_555
Mg2 O7 2.130850 1_455
Mg2 O7 2.130850 1_555
Mg3 O2 2.114924 1_555
Mg3 O4 2.116511 1_555
Mg3 O1 2.120693 1_555
Mg3 O1 2.120693 1_655
Mg3 O5 2.130850 1_655
Mg3 O5 2.130850 1_555
Co0 O3 2.125583 1_545
Co0 O3 2.125583 1_445
Co0 O4 2.129944 1_455
Co0 O4 2.129944 1_555
Co0 O1 2.172427 1_555
Co0 O6 2.199037 1_546
Co1 O2 2.138175 1_455
Co1 O2 2.138175 1_555
Co1 O3 2.151058 1_455
Co1 O3 2.151058 1_555
Co1 O5 2.172948 1_555
Co1 O0 2.175208 1_565
Co2 O1 2.138175 1_555
Co2 O1 2.138175 1_655
Co2 O0 2.151058 1_555
Co2 O0 2.151058 1_655
Co2 O7 2.172948 1_555
Co2 O3 2.175208 1_545
Co3 O0 2.125583 1_565
Co3 O0 2.125583 1_665
Co3 O6 2.129944 1_555
Co3 O6 2.129944 1_655
Co3 O2 2.172427 1_555
Co3 O4 2.199037 1_564
