# generated using pymatgen
data_K5As4
_symmetry_space_group_name_H-M   'P 1'
_cell_length_a   5.18366838
_cell_length_b   6.38430203
_cell_length_c   10.11073236
_cell_angle_alpha   86.58943617
_cell_angle_beta   75.14671443
_cell_angle_gamma   113.95191272
_symmetry_Int_Tables_number   1
_chemical_formula_structural   K5As4
_chemical_formula_sum   'K5 As4'
_cell_volume   290.46287031
_cell_formula_units_Z   1
loop_
 _symmetry_equiv_pos_site_id
 _symmetry_equiv_pos_as_xyz
  1  'x, y, z'
loop_
 _atom_site_type_symbol
 _atom_site_label
 _atom_site_symmetry_multiplicity
 _atom_site_fract_x
 _atom_site_fract_y
 _atom_site_fract_z
 _atom_site_occupancy
  K  K0  1  0.70854612  0.31410613  0.89701189  1
  K  K1  1  0.29228292  0.68349574  0.09892890  1
  K  K2  1  0.58329072  0.83379010  0.66720865  1
  K  K3  1  0.41355236  0.15687727  0.32977155  1
  K  K4  1  0.99727937  0.48987572  0.49531499  1
  As  As0  1  0.01105899  0.91342208  0.89130111  1
  As  As1  1  0.98885568  0.08352310  0.10581174  1
  As  As2  1  0.26673845  0.22113231  0.68765440  1
  As  As3  1  0.73269138  0.77437854  0.30899478  1
loop_
_geom_bond_atom_site_label_1
_geom_bond_atom_site_label_2
_geom_bond_distance
_geom_bond_site_symmetry_2
As0 As2 2.420958 1_565
As0 As1 2.479977 1_466
As0 K1 3.409771 1_456
As0 K1 3.409779 1_556
As0 K2 3.479435 1_455
As0 K2 3.479446 1_555
As0 K0 3.486823 1_455
As0 K0 3.497762 1_465
As0 K0 3.497766 1_565
As1 As3 2.422809 1_545
As1 K0 3.416850 1_654
As1 K0 3.416858 1_554
As1 K3 3.469613 1_655
As1 K3 3.469617 1_555
As1 K1 3.488728 1_655
As1 K1 3.496809 1_645
As1 K1 3.496813 1_545
As2 K0 3.407211 1_555
As2 K0 3.407215 1_455
As2 K4 3.408526 1_555
As2 K4 3.408529 1_455
As2 K2 3.468740 1_445
As2 K2 3.468743 1_545
As2 K2 3.543017 1_555
As2 K3 3.585939 1_555
As3 K1 3.408299 1_555
As3 K1 3.408299 1_655
As3 K4 3.416038 1_555
As3 K4 3.416042 1_455
As3 K3 3.450670 1_565
As3 K3 3.450670 1_665
As3 K3 3.570812 1_555
As3 K2 3.581204 1_555
