# generated using pymatgen
data_MgO
_symmetry_space_group_name_H-M   'P 1'
_cell_length_a   5.64057800
_cell_length_b   5.64057800
_cell_length_c   5.64057800
_cell_angle_alpha   90.00000000
_cell_angle_beta   90.00000000
_cell_angle_gamma   90.00000000
_symmetry_Int_Tables_number   1
_chemical_formula_structural   MgO
_chemical_formula_sum   'Mg6 O6'
_cell_volume   179.46130750
_cell_formula_units_Z   6
loop_
 _symmetry_equiv_pos_site_id
 _symmetry_equiv_pos_as_xyz
  1  'x, y, z'
loop_
 _atom_site_type_symbol
 _atom_site_label
 _atom_site_symmetry_multiplicity
 _atom_site_fract_x
 _atom_site_fract_y
 _atom_site_fract_z
 _atom_site_occupancy
  Mg  Mg0  1  0.25000000  0.00000000  0.50000000  1
  Mg  Mg1  1  0.00000000  0.50000000  0.25000000  1
  Mg  Mg2  1  0.50000000  0.75000000  0.00000000  1
  Mg  Mg3  1  0.75000000  0.00000000  0.50000000  1
  Mg  Mg4  1  0.00000000  0.50000000  0.75000000  1
  Mg  Mg5  1  0.50000000  0.25000000  0.00000000  1
  O  O0  1  0.25000000  0.50000000  0.00000000  1
  O  O1  1  0.50000000  0.00000000  0.25000000  1
  O  O2  1  0.00000000  0.75000000  0.50000000  1
  O  O3  1  0.75000000  0.50000000  0.00000000  1
  O  O4  1  0.50000000  0.00000000  0.75000000  1
  O  O5  1  0.00000000  0.25000000  0.50000000  1
loop_
_geom_bond_atom_site_label_1
_geom_bond_atom_site_label_2
_geom_bond_distance
_geom_bond_site_symmetry_2
Mg0 O2 1.994245 1_545
Mg0 O1 1.994245 1_555
Mg0 O4 1.994245 1_555
Mg0 O5 1.994245 1_555
Mg1 O3 1.994245 1_455
Mg1 O0 1.994245 1_555
Mg1 O2 1.994245 1_555
Mg1 O5 1.994245 1_555
Mg2 O1 1.994245 1_565
Mg2 O4 1.994245 1_564
Mg2 O3 1.994245 1_555
Mg2 O0 1.994245 1_555
Mg3 O2 1.994245 1_645
Mg3 O1 1.994245 1_555
Mg3 O5 1.994245 1_655
Mg3 O4 1.994245 1_555
Mg4 O5 1.994245 1_555
Mg4 O2 1.994245 1_555
Mg4 O0 1.994245 1_556
Mg4 O3 1.994245 1_456
Mg5 O1 1.994245 1_555
Mg5 O0 1.994245 1_555
Mg5 O3 1.994245 1_555
Mg5 O4 1.994245 1_554
