# generated using pymatgen
data_Ba3NaEu3(Si3O10)2
_symmetry_space_group_name_H-M   'P 1'
_cell_length_a   5.65464993
_cell_length_b   12.50432933
_cell_length_c   15.00704030
_cell_angle_alpha   90.00000000
_cell_angle_beta   90.00000000
_cell_angle_gamma   103.06802027
_symmetry_Int_Tables_number   1
_chemical_formula_structural   Ba3NaEu3(Si3O10)2
_chemical_formula_sum   'Ba6 Na2 Eu6 Si12 O40'
_cell_volume   1033.63154313
_cell_formula_units_Z   2
loop_
 _symmetry_equiv_pos_site_id
 _symmetry_equiv_pos_as_xyz
  1  'x, y, z'
loop_
 _atom_site_type_symbol
 _atom_site_label
 _atom_site_symmetry_multiplicity
 _atom_site_fract_x
 _atom_site_fract_y
 _atom_site_fract_z
 _atom_site_occupancy
  Ba  Ba0  1  0.82362436  0.83782398  0.75000000  1
  Ba  Ba1  1  0.98580038  0.16217602  0.25000000  1
  Ba  Ba2  1  0.14977435  0.48615710  0.11327365  1
  Ba  Ba3  1  0.66361725  0.51384290  0.88672635  1
  Ba  Ba4  1  0.14977435  0.48615710  0.38672635  1
  Ba  Ba5  1  0.66361725  0.51384290  0.61327365  1
  Na  Na0  1  0.44532800  0.22289717  0.75000000  1
  Na  Na1  1  0.22243083  0.77710283  0.25000000  1
  Eu  Eu0  1  0.36366276  0.77953540  0.96901618  1
  Eu  Eu1  1  0.58412736  0.22046460  0.03098382  1
  Eu  Eu2  1  0.36366276  0.77953540  0.53098382  1
  Eu  Eu3  1  0.58412736  0.22046460  0.46901618  1
  Eu  Eu4  1  0.97304676  1.00000000  0.00000000  1
  Eu  Eu5  1  0.97304676  1.00000000  0.50000000  1
  Si  Si0  1  0.78771324  0.69709830  0.05789314  1
  Si  Si1  1  0.09061495  0.30290170  0.94210686  1
  Si  Si2  1  0.78771324  0.69709830  0.44210686  1
  Si  Si3  1  0.09061495  0.30290170  0.55789314  1
  Si  Si4  1  0.25641412  0.63982883  0.75000000  1
  Si  Si5  1  0.61658529  0.36017117  0.25000000  1
  Si  Si6  1  0.41771565  0.99975311  0.85953132  1
  Si  Si7  1  0.41796253  0.00024689  0.14046868  1
  Si  Si8  1  0.41771565  0.99975311  0.64046868  1
  Si  Si9  1  0.41796253  0.00024689  0.35953132  1
  Si  Si10  1  0.07059668  0.38038564  0.75000000  1
  Si  Si11  1  0.69021104  0.61961436  0.25000000  1
  O  O0  1  0.43462097  0.02636256  0.75000000  1
  O  O1  1  0.40825841  0.97363744  0.25000000  1
  O  O2  1  0.85100917  0.68380289  0.16552591  1
  O  O3  1  0.16720628  0.31619711  0.83447409  1
  O  O4  1  0.85100917  0.68380289  0.33447409  1
  O  O5  1  0.16720628  0.31619711  0.66552591  1
  O  O6  1  0.26267474  0.50376178  0.75000000  1
  O  O7  1  0.75891296  0.49623822  0.25000000  1
  O  O8  1  0.51823725  0.62236734  0.03193902  1
  O  O9  1  0.89586991  0.37763266  0.96806098  1
  O  O10  1  0.51823725  0.62236734  0.46806098  1
  O  O11  1  0.89586991  0.37763266  0.53193902  1
  O  O12  1  0.42237410  0.69012672  0.83701776  1
  O  O13  1  0.73224738  0.30987328  0.16298224  1
  O  O14  1  0.42237410  0.69012672  0.66298224  1
  O  O15  1  0.73224738  0.30987328  0.33701776  1
  O  O16  1  0.99690311  0.65291791  0.00288944  1
  O  O17  1  0.34398520  0.34708209  0.99711056  1
  O  O18  1  0.99690311  0.65291791  0.49711056  1
  O  O19  1  0.34398520  0.34708209  0.50288944  1
  O  O20  1  0.16900433  0.90516870  0.88277484  1
  O  O21  1  0.26383563  0.09483130  0.11722516  1
  O  O22  1  0.16900433  0.90516870  0.61722516  1
  O  O23  1  0.26383563  0.09483130  0.38277484  1
  O  O24  1  0.39406798  0.11148472  0.91128346  1
  O  O25  1  0.28258326  0.88851528  0.08871654  1
  O  O26  1  0.39406798  0.11148472  0.58871654  1
  O  O27  1  0.28258326  0.88851528  0.41128346  1
  O  O28  1  0.76631027  0.82176194  0.03399407  1
  O  O29  1  0.94454834  0.17823806  0.96600593  1
  O  O30  1  0.76631027  0.82176194  0.46600593  1
  O  O31  1  0.94454834  0.17823806  0.53399407  1
  O  O32  1  0.64301359  0.94587885  0.89040103  1
  O  O33  1  0.69713474  0.05412115  0.10959897  1
  O  O34  1  0.64301359  0.94587885  0.60959897  1
  O  O35  1  0.69713474  0.05412115  0.39040103  1
  O  O36  1  0.97418321  0.64795988  0.75000000  1
  O  O37  1  0.32622332  0.35204012  0.25000000  1
  O  O38  1  0.40639789  0.61757090  0.25000000  1
  O  O39  1  0.78882699  0.38242910  0.75000000  1
loop_
_geom_bond_atom_site_label_1
_geom_bond_atom_site_label_2
_geom_bond_distance
_geom_bond_site_symmetry_2
Ba0 O36 2.697277 1_555
Ba0 O22 2.783867 1_655
Ba0 O20 2.783867 1_655
Ba0 O32 2.816405 1_555
Ba0 O34 2.816405 1_555
Ba0 O14 2.892971 1_555
Ba0 O12 2.892971 1_555
Ba1 O37 2.697277 1_655
Ba1 O23 2.783867 1_655
Ba1 O21 2.783867 1_655
Ba1 O35 2.816405 1_555
Ba1 O33 2.816405 1_555
Ba1 O13 2.892971 1_555
Ba1 O15 2.892971 1_555
Ba2 O8 2.669665 1_555
Ba2 O9 2.787610 1_454
Ba2 O38 2.817406 1_555
Ba2 O17 2.851824 1_554
Ba2 O13 2.938737 1_455
Ba2 O16 2.941887 1_455
Ba2 O37 2.962228 1_555
Ba2 O7 3.039230 1_455
Ba3 O9 2.669665 1_555
Ba3 O8 2.787610 1_556
Ba3 O39 2.817406 1_555
Ba3 O16 2.851824 1_556
Ba3 O12 2.938737 1_555
Ba3 O17 2.941888 1_555
Ba3 O36 2.962228 1_555
Ba3 O6 3.039230 1_555
Ba4 O10 2.669665 1_555
Ba4 O11 2.787610 1_455
Ba4 O38 2.817406 1_555
Ba4 O19 2.851824 1_555
Ba4 O15 2.938737 1_455
Ba4 O18 2.941887 1_455
Ba4 O37 2.962228 1_555
Ba4 O7 3.039230 1_455
Ba5 O11 2.669665 1_555
Ba5 O10 2.787610 1_555
Ba5 O39 2.817406 1_555
Ba5 O18 2.851824 1_555
Ba5 O14 2.938737 1_555
Ba5 O19 2.941888 1_555
Ba5 O36 2.962228 1_555
Ba5 O6 3.039230 1_555
Na0 O0 2.444555 1_555
Na0 O39 2.449484 1_555
Na0 O5 2.504236 1_555
Na0 O3 2.504236 1_555
Na0 O26 2.774980 1_555
Na0 O24 2.774980 1_555
Na1 O1 2.444555 1_555
Na1 O38 2.449484 1_555
Na1 O4 2.504236 1_455
Na1 O2 2.504236 1_455
Na1 O27 2.774980 1_555
Na1 O25 2.774980 1_555
Eu0 O12 2.334945 1_555
Eu0 O25 2.361484 1_556
Eu0 O16 2.362483 1_456
Eu0 O28 2.422803 1_556
Eu0 O20 2.477197 1_555
Eu0 O8 2.508944 1_556
Eu0 O32 2.593791 1_555
Eu1 O13 2.334945 1_555
Eu1 O24 2.361484 1_554
Eu1 O17 2.362483 1_554
Eu1 O29 2.422803 1_554
Eu1 O21 2.477197 1_555
Eu1 O9 2.508944 1_554
Eu1 O33 2.593790 1_555
Eu2 O14 2.334945 1_555
Eu2 O27 2.361484 1_555
Eu2 O18 2.362483 1_455
Eu2 O30 2.422803 1_555
Eu2 O22 2.477197 1_555
Eu2 O10 2.508944 1_555
Eu2 O34 2.593791 1_555
Eu3 O15 2.334945 1_555
Eu3 O26 2.361484 1_555
Eu3 O19 2.362483 1_555
Eu3 O31 2.422803 1_555
Eu3 O23 2.477197 1_555
Eu3 O11 2.508944 1_555
Eu3 O35 2.593790 1_555
Eu4 O29 2.327220 1_564
Eu4 O28 2.327220 1_555
Eu4 O33 2.464724 1_565
Eu4 O32 2.464724 1_554
Eu4 O20 2.514544 1_654
Eu4 O21 2.514544 1_665
Eu4 O25 2.807658 1_655
Eu4 O24 2.807658 1_664
Eu5 O31 2.327220 1_565
Eu5 O30 2.327220 1_555
Eu5 O35 2.464724 1_565
Eu5 O34 2.464724 1_555
Eu5 O22 2.514544 1_655
Eu5 O23 2.514544 1_665
Eu5 O27 2.807658 1_655
Eu5 O26 2.807658 1_665
O0 Si8 1.675515 1_545
O0 Si6 1.675515 1_545
O1 Si7 1.675515 1_565
O1 Si9 1.675515 1_565
O2 Si11 1.657716 1_555
O2 Si0 1.670833 1_555
O3 Si10 1.657716 1_555
O3 Si1 1.670833 1_555
O4 Si11 1.657716 1_555
O4 Si2 1.670833 1_555
O5 Si10 1.657716 1_555
O5 Si3 1.670833 1_555
O6 Si10 1.673912 1_555
O6 Si4 1.709780 1_555
O7 Si11 1.673912 1_555
O7 Si5 1.709780 1_555
O8 Si0 1.644064 1_555
O9 Si1 1.644064 1_655
O10 Si2 1.644064 1_555
O11 Si3 1.644064 1_655
O12 Si4 1.647622 1_555
O13 Si5 1.647622 1_555
O14 Si4 1.647622 1_555
O15 Si5 1.647622 1_555
O16 Si0 1.637471 1_555
O17 Si1 1.637471 1_555
O18 Si2 1.637471 1_555
O19 Si3 1.637471 1_555
O20 Si6 1.657163 1_555
O21 Si7 1.657163 1_555
O22 Si8 1.657163 1_555
O23 Si9 1.657163 1_555
O24 Si6 1.630188 1_545
O25 Si7 1.630188 1_565
O26 Si8 1.630188 1_545
O27 Si9 1.630188 1_565
O28 Si0 1.630510 1_555
O29 Si1 1.630510 1_655
O30 Si2 1.630510 1_555
O31 Si3 1.630510 1_655
O32 Si6 1.636938 1_555
O33 Si7 1.636938 1_555
O34 Si8 1.636938 1_555
O35 Si9 1.636938 1_555
O36 Si4 1.621933 1_655
O37 Si5 1.621933 1_555
O38 Si11 1.599280 1_555
O39 Si10 1.599280 1_655
