# generated using pymatgen
data_Li7Mn5O12
_symmetry_space_group_name_H-M   'P 1'
_cell_length_a   6.01920659
_cell_length_b   7.77472001
_cell_length_c   10.17241003
_cell_angle_alpha   106.92976589
_cell_angle_beta   91.27502826
_cell_angle_gamma   103.48250736
_symmetry_Int_Tables_number   1
_chemical_formula_structural   Li7Mn5O12
_chemical_formula_sum   'Li14 Mn10 O24'
_cell_volume   440.77953584
_cell_formula_units_Z   2
loop_
 _symmetry_equiv_pos_site_id
 _symmetry_equiv_pos_as_xyz
  1  'x, y, z'
loop_
 _atom_site_type_symbol
 _atom_site_label
 _atom_site_symmetry_multiplicity
 _atom_site_fract_x
 _atom_site_fract_y
 _atom_site_fract_z
 _atom_site_occupancy
  Li  Li0  1  0.58329000  0.33349500  0.25021000  1
  Li  Li1  1  0.08341000  0.33311900  0.74974900  1
  Li  Li2  1  0.08341800  0.33344600  0.25016500  1
  Li  Li3  1  0.58322000  0.33319500  0.74981800  1
  Li  Li4  1  0.83333300  0.33333100  0.99999600  1
  Li  Li5  1  0.33332200  0.33331200  0.50001500  1
  Li  Li6  1  0.41695300  0.66341500  0.24807200  1
  Li  Li7  1  0.91697800  0.66335400  0.74779800  1
  Li  Li8  1  0.74968800  0.00329200  0.25220700  1
  Li  Li9  1  0.24971400  0.00330600  0.75193200  1
  Li  Li10  1  0.91711500  0.65978000  0.24451700  1
  Li  Li11  1  0.41708400  0.65963000  0.74411400  1
  Li  Li12  1  0.24958200  0.00701000  0.25589700  1
  Li  Li13  1  0.74957600  0.00694300  0.75550700  1
  Mn  Mn0  1  0.33333200  0.33333100  0.99999900  1
  Mn  Mn1  1  0.49414100  0.00652800  0.50421600  1
  Mn  Mn2  1  0.17253100  0.66017100  0.49578400  1
  Mn  Mn3  1  0.00070800  0.00504300  0.50159600  1
  Mn  Mn4  1  0.66599200  0.66164600  0.49838900  1
  Mn  Mn5  1  0.83334500  0.33331500  0.50001900  1
  Mn  Mn6  1  0.99405800  0.00655700  0.00416800  1
  Mn  Mn7  1  0.67263000  0.66011000  0.99583000  1
  Mn  Mn8  1  0.50071100  0.00512300  0.00161000  1
  Mn  Mn9  1  0.16595800  0.66154700  0.99839200  1
  O  O0  1  0.14797200  0.49127700  0.10726800  1
  O  O1  1  0.64792800  0.49127200  0.60737400  1
  O  O2  1  0.01873000  0.17541300  0.39260600  1
  O  O3  1  0.51870800  0.17538500  0.89272200  1
  O  O4  1  0.94717000  0.83903000  0.11869800  1
  O  O5  1  0.44752500  0.83926600  0.61888600  1
  O  O6  1  0.21893200  0.82725100  0.38105300  1
  O  O7  1  0.71947000  0.82761100  0.88128000  1
  O  O8  1  0.61191600  0.50185300  0.11216200  1
  O  O9  1  0.11192400  0.50192800  0.61222100  1
  O  O10  1  0.55477400  0.16479300  0.38777400  1
  O  O11  1  0.05474300  0.16481100  0.88784700  1
  O  O12  1  0.45624500  0.82317200  0.10665100  1
  O  O13  1  0.95601900  0.82332000  0.60682400  1
  O  O14  1  0.71079000  0.84318900  0.39310800  1
  O  O15  1  0.21044400  0.84348500  0.89334200  1
  O  O16  1  0.27812300  0.17745000  0.12126200  1
  O  O17  1  0.77870400  0.17777900  0.62141800  1
  O  O18  1  0.88815600  0.48899700  0.37864800  1
  O  O19  1  0.38858200  0.48924600  0.87874900  1
  O  O20  1  0.78235600  0.14894200  0.11224500  1
  O  O21  1  0.28197800  0.14925600  0.61244900  1
  O  O22  1  0.38443400  0.51753300  0.38764800  1
  O  O23  1  0.88429000  0.51774200  0.88776800  1
loop_
_geom_bond_atom_site_label_1
_geom_bond_atom_site_label_2
_geom_bond_distance
_geom_bond_site_symmetry_2
Li0 O18 2.115402 1_555
Li0 O16 2.119750 1_555
Li0 O10 2.163941 1_555
Li0 O8 2.165900 1_555
Li0 O22 2.267745 1_555
Li0 O20 2.273300 1_555
Li1 O17 2.113999 1_455
Li1 O19 2.120122 1_555
Li1 O9 2.164285 1_555
Li1 O11 2.166008 1_555
Li1 O21 2.265145 1_555
Li1 O23 2.274080 1_455
Li2 O18 2.088720 1_455
Li2 O16 2.090174 1_555
Li2 O2 2.144667 1_555
Li2 O0 2.147404 1_555
Li2 O22 2.190774 1_555
Li2 O20 2.193760 1_455
Li3 O17 2.088721 1_555
Li3 O19 2.090248 1_555
Li3 O1 2.144950 1_555
Li3 O3 2.147330 1_555
Li3 O21 2.190859 1_555
Li3 O23 2.194015 1_555
Li4 O23 2.053488 1_555
Li4 O20 2.053510 1_556
Li4 O3 2.080481 1_555
Li4 O0 2.080539 1_656
Li4 O11 2.192162 1_655
Li4 O8 2.192266 1_556
Li5 O21 2.052810 1_555
Li5 O22 2.053347 1_555
Li5 O2 2.080705 1_555
Li5 O1 2.080706 1_555
Li5 O10 2.192686 1_555
Li5 O9 2.192755 1_555
Li6 O22 2.046294 1_555
Li6 O0 2.057665 1_555
Li6 O12 2.141733 1_555
Li6 O8 2.148138 1_555
Li6 O6 2.156223 1_555
Li6 O14 2.188292 1_555
Li7 O23 2.048175 1_555
Li7 O1 2.055920 1_555
Li7 O13 2.139137 1_555
Li7 O9 2.145869 1_655
Li7 O7 2.158194 1_555
Li7 O15 2.189995 1_655
Li8 O20 2.048324 1_555
Li8 O2 2.055846 1_655
Li8 O14 2.139321 1_545
Li8 O10 2.145992 1_555
Li8 O4 2.158234 1_545
Li8 O12 2.189942 1_545
Li9 O21 2.045900 1_555
Li9 O3 2.057523 1_555
Li9 O15 2.142013 1_545
Li9 O11 2.147964 1_555
Li9 O5 2.156494 1_545
Li9 O13 2.188505 1_445
Li10 O4 2.131795 1_555
Li10 O8 2.137859 1_555
Li10 O18 2.147761 1_555
Li10 O6 2.157837 1_655
Li10 O0 2.338033 1_655
Li10 O14 2.348284 1_555
Li11 O5 2.129338 1_555
Li11 O9 2.135277 1_555
Li11 O19 2.149658 1_555
Li11 O7 2.163941 1_555
Li11 O1 2.335071 1_555
Li11 O15 2.354568 1_555
Li12 O6 2.129466 1_545
Li12 O10 2.135463 1_555
Li12 O16 2.149987 1_555
Li12 O4 2.164198 1_445
Li12 O2 2.335150 1_555
Li12 O12 2.354679 1_545
Li13 O7 2.131923 1_545
Li13 O11 2.137567 1_655
Li13 O17 2.147686 1_555
Li13 O5 2.159544 1_545
Li13 O3 2.337678 1_555
Li13 O13 2.350122 1_545
Mn0 O16 1.949854 1_556
Mn0 O19 1.949959 1_555
Mn0 O11 1.962131 1_555
Mn0 O8 1.962156 1_556
Mn0 O0 1.963701 1_556
Mn0 O3 1.963803 1_555
Mn1 O10 1.925863 1_555
Mn1 O5 1.964261 1_545
Mn1 O17 2.012257 1_555
Mn1 O6 2.017551 1_545
Mn1 O21 2.021445 1_555
Mn1 O14 2.143025 1_545
Mn2 O9 1.925681 1_555
Mn2 O6 1.963616 1_555
Mn2 O18 2.011053 1_455
Mn2 O5 2.016015 1_555
Mn2 O22 2.019467 1_555
Mn2 O13 2.141287 1_455
Mn3 O21 1.920566 1_555
Mn3 O2 1.946562 1_555
Mn3 O14 1.981975 1_445
Mn3 O13 1.982594 1_445
Mn3 O17 2.242960 1_455
Mn3 O6 2.251856 1_545
Mn4 O22 1.921223 1_555
Mn4 O1 1.946526 1_555
Mn4 O14 1.981814 1_555
Mn4 O13 1.981884 1_555
Mn4 O18 2.242973 1_555
Mn4 O5 2.251969 1_555
Mn5 O17 1.948799 1_555
Mn5 O18 1.949474 1_555
Mn5 O10 1.962409 1_555
Mn5 O9 1.962493 1_655
Mn5 O2 1.964173 1_655
Mn5 O1 1.964339 1_555
Mn6 O11 1.924822 1_654
Mn6 O4 1.964792 1_545
Mn6 O16 2.008980 1_655
Mn6 O7 2.013192 1_544
Mn6 O20 2.017237 1_555
Mn6 O15 2.139562 1_644
Mn7 O8 1.924940 1_556
Mn7 O7 1.964790 1_555
Mn7 O19 2.008794 1_555
Mn7 O4 2.012859 1_556
Mn7 O23 2.016910 1_555
Mn7 O12 2.139494 1_556
Mn8 O20 1.920708 1_555
Mn8 O3 1.945078 1_554
Mn8 O15 1.982253 1_544
Mn8 O12 1.982679 1_545
Mn8 O16 2.243088 1_555
Mn8 O7 2.252129 1_544
Mn9 O23 1.920743 1_455
Mn9 O0 1.945042 1_556
Mn9 O12 1.982281 1_556
Mn9 O15 1.982661 1_555
Mn9 O19 2.243098 1_555
Mn9 O4 2.252033 1_456
