# generated using pymatgen
data_Tb(CuS)2
_symmetry_space_group_name_H-M   'P 1'
_cell_length_a   3.95395347
_cell_length_b   3.95395347
_cell_length_c   6.37188700
_cell_angle_alpha   90.00000000
_cell_angle_beta   90.00000000
_cell_angle_gamma   119.99999117
_symmetry_Int_Tables_number   1
_chemical_formula_structural   Tb(CuS)2
_chemical_formula_sum   'Tb1 Cu2 S2'
_cell_volume   86.27040655
_cell_formula_units_Z   1
loop_
 _symmetry_equiv_pos_site_id
 _symmetry_equiv_pos_as_xyz
  1  'x, y, z'
loop_
 _atom_site_type_symbol
 _atom_site_label
 _atom_site_symmetry_multiplicity
 _atom_site_fract_x
 _atom_site_fract_y
 _atom_site_fract_z
 _atom_site_occupancy
  Tb  Tb0  1  0.00000000  0.00000000  0.00000000  1
  Cu  Cu0  1  0.66666700  0.33333300  0.67149100  1
  Cu  Cu1  1  0.33333300  0.66666700  0.32850900  1
  S  S0  1  0.66666700  0.33333300  0.27051400  1
  S  S1  1  0.33333300  0.66666700  0.72948600  1
loop_
_geom_bond_atom_site_label_1
_geom_bond_atom_site_label_2
_geom_bond_distance
_geom_bond_site_symmetry_2
Cu0 S1 2.312531 1_545
Cu0 S1 2.312531 1_655
Cu0 S1 2.312537 1_555
Cu0 S0 2.554980 1_555
Cu0 Tb0 3.097227 1_656
Cu0 Tb0 3.097230 1_556
Cu0 Tb0 3.097230 1_666
Cu1 S0 2.312531 1_455
Cu1 S0 2.312531 1_565
Cu1 S0 2.312537 1_555
Cu1 S1 2.554980 1_555
Cu1 Tb0 3.097227 1_565
Cu1 Tb0 3.097230 1_555
Cu1 Tb0 3.097230 1_665
S0 Tb0 2.860477 1_655
S0 Tb0 2.860480 1_555
S0 Tb0 2.860480 1_665
S1 Tb0 2.860477 1_566
S1 Tb0 2.860480 1_556
S1 Tb0 2.860480 1_666
