# generated using pymatgen
data_Li2Ni5O9
_symmetry_space_group_name_H-M   'P 1'
_cell_length_a   6.48162800
_cell_length_b   7.59951960
_cell_length_c   7.71692157
_cell_angle_alpha   114.97249351
_cell_angle_beta   87.33067379
_cell_angle_gamma   114.41155603
_symmetry_Int_Tables_number   1
_chemical_formula_structural   Li2Ni5O9
_chemical_formula_sum   'Li4 Ni10 O18'
_cell_volume   309.98263324
_cell_formula_units_Z   2
loop_
 _symmetry_equiv_pos_site_id
 _symmetry_equiv_pos_as_xyz
  1  'x, y, z'
loop_
 _atom_site_type_symbol
 _atom_site_label
 _atom_site_symmetry_multiplicity
 _atom_site_fract_x
 _atom_site_fract_y
 _atom_site_fract_z
 _atom_site_occupancy
  Li  Li0  1  0.54387800  0.70445500  0.04226400  1
  Li  Li1  1  0.32672300  0.83277100  0.83030900  1
  Li  Li2  1  0.98965200  0.51942200  0.48195400  1
  Li  Li3  1  0.45182000  0.27847200  0.94907800  1
  Ni  Ni0  1  0.22138200  0.89161900  0.22057900  1
  Ni  Ni1  1  0.45005600  0.77866500  0.44219900  1
  Ni  Ni2  1  0.11006800  0.44135800  0.10907600  1
  Ni  Ni3  1  0.66914700  0.66196000  0.66161100  1
  Ni  Ni4  1  0.33545400  0.33265400  0.33219400  1
  Ni  Ni5  1  0.98881300  0.00143700  0.00164000  1
  Ni  Ni6  1  0.89438700  0.55475200  0.88835300  1
  Ni  Ni7  1  0.54935400  0.22079000  0.56664200  1
  Ni  Ni8  1  0.89466200  0.05883800  0.39522800  1
  Ni  Ni9  1  0.78105100  0.11208100  0.77768200  1
  O  O0  1  0.55122900  0.97860500  0.33744800  1
  O  O1  1  0.14630000  0.69237100  0.33579200  1
  O  O2  1  0.88933000  0.82380300  0.12717800  1
  O  O3  1  0.76036500  0.87958600  0.54356400  1
  O  O4  1  0.41269300  0.50191300  0.19543700  1
  O  O5  1  0.68101500  0.90997900  0.88444900  1
  O  O6  1  0.36359900  0.58429100  0.55625200  1
  O  O7  1  0.21035200  0.66235900  0.99070700  1
  O  O8  1  0.80705900  0.36026000  0.00171800  1
  O  O9  1  0.97308600  0.72845300  0.75778500  1
  O  O10  1  0.63720100  0.40736600  0.44123800  1
  O  O11  1  0.30152200  0.08797200  0.10288000  1
  O  O12  1  0.58286200  0.46376700  0.79988600  1
  O  O13  1  0.23195900  0.13664500  0.44307600  1
  O  O14  1  0.08130700  0.18981800  0.88610400  1
  O  O15  1  0.02992700  0.26130100  0.26684600  1
  O  O16  1  0.87393400  0.28646800  0.65048600  1
  O  O17  1  0.47859300  0.04337800  0.69908800  1
loop_
_geom_bond_atom_site_label_1
_geom_bond_atom_site_label_2
_geom_bond_distance
_geom_bond_site_symmetry_2
Li0 O2 2.054687 1_555
Li0 O7 2.082061 1_554
Li0 O12 2.087392 1_554
Li0 O4 2.202315 1_555
Li0 O5 2.251765 1_554
Li0 O0 2.335078 1_555
Li1 O7 2.058472 1_555
Li1 O9 2.106770 1_455
Li1 O17 2.128236 1_565
Li1 O5 2.135621 1_555
Li1 O11 2.235548 1_566
Li1 O6 2.247122 1_555
Li2 O1 2.018065 1_655
Li2 O10 2.067745 1_555
Li2 O15 2.074847 1_655
Li2 O9 2.080964 1_555
Li2 O6 2.312926 1_655
Li2 O16 2.478660 1_555
Li3 O4 2.036476 1_556
Li3 O17 2.063628 1_555
Li3 O12 2.078223 1_555
Li3 O8 2.131656 1_556
Li3 O11 2.151966 1_556
Li3 O14 2.225371 1_555
Ni0 O7 1.867240 1_554
Ni0 O13 1.904196 1_565
Ni0 O11 1.944522 1_565
Ni0 O1 1.951260 1_555
Ni0 O0 2.080666 1_555
Ni0 O2 2.081164 1_455
Ni1 O0 1.885818 1_555
Ni1 O1 1.899815 1_555
Ni1 O3 1.900099 1_555
Ni1 O6 1.907418 1_555
Ni1 O4 2.085295 1_555
Ni1 O17 2.090522 1_565
Ni2 O1 1.898662 1_555
Ni2 O14 1.899372 1_554
Ni2 O4 1.902654 1_555
Ni2 O8 1.908766 1_455
Ni2 O15 2.093982 1_555
Ni2 O7 2.101266 1_554
Ni3 O10 1.897832 1_555
Ni3 O5 1.916067 1_555
Ni3 O9 1.919327 1_555
Ni3 O6 1.926176 1_555
Ni3 O12 2.079695 1_555
Ni3 O3 2.080468 1_555
Ni4 O15 1.855938 1_555
Ni4 O11 1.886076 1_555
Ni4 O4 1.893048 1_555
Ni4 O13 1.896787 1_555
Ni4 O6 1.904985 1_555
Ni4 O10 1.920328 1_555
Ni5 O2 1.871675 1_545
Ni5 O14 1.876796 1_654
Ni5 O11 1.939829 1_655
Ni5 O5 1.942229 1_544
Ni5 O15 2.088693 1_655
Ni5 O9 2.098116 1_544
Ni6 O9 1.880570 1_555
Ni6 O12 1.896597 1_555
Ni6 O8 1.903807 1_556
Ni6 O7 1.925553 1_655
Ni6 O16 2.045254 1_555
Ni6 O2 2.108620 1_556
Ni7 O12 1.896076 1_555
Ni7 O17 1.918727 1_555
Ni7 O10 1.926411 1_555
Ni7 O0 1.945157 1_545
Ni7 O16 2.019880 1_555
Ni7 O13 2.032453 1_555
Ni8 O13 2.021856 1_655
Ni8 O3 2.041426 1_545
Ni8 O16 2.044730 1_555
Ni8 O15 2.051513 1_655
Ni8 O0 2.065597 1_545
Ni8 O2 2.075157 1_545
Ni9 O16 1.861736 1_555
Ni9 O17 1.865748 1_555
Ni9 O3 1.880220 1_545
Ni9 O8 1.893584 1_556
Ni9 O14 1.902766 1_655
Ni9 O5 1.911477 1_545
