# generated using pymatgen
data_Tb5BiAu2
_symmetry_space_group_name_H-M   'P 1'
_cell_length_a   8.78217302
_cell_length_b   8.78217302
_cell_length_c   8.78217302
_cell_angle_alpha   124.32409683
_cell_angle_beta   124.32409683
_cell_angle_gamma   82.66058864
_symmetry_Int_Tables_number   1
_chemical_formula_structural   Tb5BiAu2
_chemical_formula_sum   'Tb10 Bi2 Au4'
_cell_volume   443.64881310
_cell_formula_units_Z   2
loop_
 _symmetry_equiv_pos_site_id
 _symmetry_equiv_pos_as_xyz
  1  'x, y, z'
loop_
 _atom_site_type_symbol
 _atom_site_label
 _atom_site_symmetry_multiplicity
 _atom_site_fract_x
 _atom_site_fract_y
 _atom_site_fract_z
 _atom_site_occupancy
  Tb  Tb0  1  0.50000000  0.50000000  0.00000000  1
  Tb  Tb1  1  0.00000000  0.00000000  0.00000000  1
  Tb  Tb2  1  0.51538600  0.01538600  0.81135000  1
  Tb  Tb3  1  0.20403600  0.70403600  0.18865000  1
  Tb  Tb4  1  0.01538600  0.20403600  0.50000000  1
  Tb  Tb5  1  0.70403600  0.51538600  0.50000000  1
  Tb  Tb6  1  0.48461400  0.98461400  0.18865000  1
  Tb  Tb7  1  0.79596400  0.29596400  0.81135000  1
  Tb  Tb8  1  0.98461400  0.79596400  0.50000000  1
  Tb  Tb9  1  0.29596400  0.48461400  0.50000000  1
  Bi  Bi0  1  0.25000000  0.25000000  0.00000000  1
  Bi  Bi1  1  0.75000000  0.75000000  0.00000000  1
  Au  Au0  1  0.13724600  0.63724600  0.77449200  1
  Au  Au1  1  0.86275400  0.36275400  0.22550800  1
  Au  Au2  1  0.63724600  0.86275400  0.50000000  1
  Au  Au3  1  0.36275400  0.13724600  0.50000000  1
loop_
_geom_bond_atom_site_label_1
_geom_bond_atom_site_label_2
_geom_bond_distance
_geom_bond_site_symmetry_2
Tb0 Tb7 3.609711 1_554
Tb0 Tb8 3.609711 1_555
Tb0 Tb5 3.609711 1_555
Tb0 Tb6 3.609711 1_555
Tb0 Tb9 3.609711 1_554
Tb0 Tb3 3.609711 1_555
Tb0 Tb4 3.609711 1_554
Tb0 Tb2 3.609711 1_554
Tb1 Tb2 3.609711 1_454
Tb1 Tb9 3.609711 1_555
Tb1 Tb5 3.609711 1_444
Tb1 Tb7 3.609711 1_454
Tb1 Tb6 3.609711 1_545
Tb1 Tb8 3.609711 1_444
Tb1 Tb3 3.609711 1_545
Tb1 Tb4 3.609711 1_555
Tb2 Tb3 3.611496 1_545
Tb2 Tb6 3.628196 1_546
Tb2 Tb7 3.700636 1_555
Tb2 Tb9 3.859645 1_545
Tb2 Tb8 3.859645 1_445
Tb3 Tb7 3.628196 1_454
Tb3 Tb6 3.700636 1_555
Tb3 Tb8 3.859645 1_455
Tb3 Tb9 3.859645 1_555
Tb4 Tb5 3.611496 1_455
Tb4 Tb8 3.628196 1_445
Tb4 Tb9 3.700636 1_555
Tb4 Tb7 3.859645 1_455
Tb4 Tb6 3.859645 1_445
Tb5 Tb9 3.628196 1_555
Tb5 Tb8 3.700636 1_555
Tb5 Tb6 3.859645 1_545
Tb5 Tb7 3.859645 1_555
Tb6 Tb7 3.611496 1_565
Tb8 Tb9 3.611496 1_655
Bi0 Tb0 3.297333 1_555
Bi0 Tb1 3.297333 1_555
Bi0 Tb4 3.420554 1_554
Bi0 Tb6 3.420554 1_545
Bi0 Tb5 3.420554 1_555
Bi0 Tb8 3.420554 1_444
Bi0 Tb9 3.420554 1_555
Bi0 Tb3 3.420554 1_555
Bi0 Tb7 3.420554 1_454
Bi0 Tb2 3.420554 1_554
Bi1 Tb0 3.297333 1_555
Bi1 Tb1 3.297333 1_665
Bi1 Tb2 3.420554 1_564
Bi1 Tb4 3.420554 1_665
Bi1 Tb3 3.420554 1_655
Bi1 Tb8 3.420554 1_555
Bi1 Tb9 3.420554 1_554
Bi1 Tb6 3.420554 1_555
Bi1 Tb7 3.420554 1_554
Bi1 Tb5 3.420554 1_554
Au0 Tb3 3.032048 1_556
Au0 Tb6 3.032048 1_556
Au0 Tb9 3.036249 1_555
Au0 Tb8 3.036249 1_455
Au0 Tb5 3.036249 1_455
Au0 Tb4 3.036249 1_555
Au0 Tb1 3.181164 1_566
Au0 Tb0 3.181164 1_556
Au0 Au1 3.183963 1_455
Au1 Tb2 3.032048 1_554
Au1 Tb7 3.032048 1_554
Au1 Tb4 3.036249 1_655
Au1 Tb5 3.036249 1_555
Au1 Tb8 3.036249 1_555
Au1 Tb9 3.036249 1_655
Au1 Tb1 3.181164 1_655
Au1 Tb0 3.181164 1_555
Au2 Tb5 3.032048 1_555
Au2 Tb8 3.032048 1_555
Au2 Tb3 3.036249 1_555
Au2 Tb2 3.036249 1_565
Au2 Tb6 3.036249 1_555
Au2 Tb7 3.036249 1_565
Au2 Tb1 3.181164 1_666
Au2 Tb0 3.181164 1_555
Au2 Au3 3.183963 1_565
Au3 Tb9 3.032048 1_555
Au3 Tb4 3.032048 1_555
Au3 Tb3 3.036249 1_545
Au3 Tb2 3.036249 1_555
Au3 Tb7 3.036249 1_555
Au3 Tb6 3.036249 1_545
Au3 Tb0 3.181164 1_556
Au3 Tb1 3.181164 1_555
