# generated using pymatgen
data_Li2TiCrO4
_symmetry_space_group_name_H-M   'P 1'
_cell_length_a   5.20887210
_cell_length_b   5.20854074
_cell_length_c   5.90785600
_cell_angle_alpha   90.00029210
_cell_angle_beta   90.00086669
_cell_angle_gamma   69.05402319
_symmetry_Int_Tables_number   1
_chemical_formula_structural   Li2TiCrO4
_chemical_formula_sum   'Li4 Ti2 Cr2 O8'
_cell_volume   149.69192220
_cell_formula_units_Z   2
loop_
 _symmetry_equiv_pos_site_id
 _symmetry_equiv_pos_as_xyz
  1  'x, y, z'
loop_
 _atom_site_type_symbol
 _atom_site_label
 _atom_site_symmetry_multiplicity
 _atom_site_fract_x
 _atom_site_fract_y
 _atom_site_fract_z
 _atom_site_occupancy
  Li  Li0  1  0.00000300  0.49998400  0.25037100  1
  Li  Li1  1  0.50002800  0.99998500  0.74956100  1
  Li  Li2  1  0.50000600  0.49996100  0.00010400  1
  Li  Li3  1  0.99999500  0.99998900  0.49985900  1
  Ti  Ti0  1  0.50005700  0.99998000  0.24842900  1
  Ti  Ti1  1  0.99997700  0.49999600  0.75142800  1
  Cr  Cr0  1  0.50005300  0.49998200  0.49992300  1
  Cr  Cr1  1  0.99981700  0.00013300  0.00034700  1
  O  O0  1  0.28080500  0.76190500  0.26097300  1
  O  O1  1  0.76174100  0.28057600  0.73905200  1
  O  O2  1  0.71918800  0.23809300  0.26098200  1
  O  O3  1  0.23825800  0.71940200  0.73902300  1
  O  O4  1  0.73871800  0.73868900  0.49996700  1
  O  O5  1  0.24056800  0.24052900  0.00000500  1
  O  O6  1  0.75951900  0.75950800  0.00001600  1
  O  O7  1  0.26126600  0.26128800  0.49996100  1
loop_
_geom_bond_atom_site_label_1
_geom_bond_atom_site_label_2
_geom_bond_distance
_geom_bond_site_symmetry_2
Li0 O7 2.088598 1_555
Li0 O4 2.088711 1_455
Li0 O6 2.091240 1_455
Li0 O5 2.091303 1_555
Li0 O2 2.330400 1_455
Li0 O0 2.330467 1_555
Li1 O4 2.088688 1_555
Li1 O7 2.088848 1_565
Li1 O6 2.091577 1_556
Li1 O5 2.091609 1_566
Li1 O1 2.328649 1_565
Li1 O3 2.328857 1_555
Li2 O2 2.103761 1_555
Li2 O0 2.103948 1_555
Li2 O1 2.104564 1_554
Li2 O3 2.104789 1_554
Li2 O5 2.226596 1_555
Li2 O6 2.227411 1_555
Li3 O2 2.090961 1_565
Li3 O0 2.090990 1_655
Li3 O3 2.091817 1_655
Li3 O1 2.091931 1_565
Li3 O7 2.242473 1_665
Li3 O4 2.242503 1_555
Cr0 O2 2.010738 1_555
Cr0 O0 2.011036 1_555
Cr0 O1 2.011480 1_555
Cr0 O3 2.011669 1_555
Cr0 O4 2.048518 1_555
Cr0 O7 2.048986 1_555
Cr1 O6 2.063757 1_545
Cr1 O5 2.064719 1_655
Cr1 O2 2.179124 1_555
Cr1 O0 2.180398 1_645
Cr1 O1 2.181591 1_554
Cr1 O3 2.183054 1_644
O0 Ti0 1.964682 1_555
O1 Ti1 1.966060 1_555
O2 Ti0 1.964340 1_545
O3 Ti1 1.966206 1_455
O4 Ti1 2.096402 1_555
O4 Ti0 2.096729 1_555
O5 Ti0 2.083240 1_545
O5 Ti1 2.083902 1_454
O6 Ti0 2.083005 1_555
O6 Ti1 2.083810 1_554
O7 Ti1 2.096544 1_455
O7 Ti0 2.097004 1_545
