# generated using pymatgen
data_TaFeGe
_symmetry_space_group_name_H-M   'P 1'
_cell_length_a   6.23524100
_cell_length_b   3.84076500
_cell_length_c   7.11895300
_cell_angle_alpha   90.00000000
_cell_angle_beta   90.00000000
_cell_angle_gamma   90.00000000
_symmetry_Int_Tables_number   1
_chemical_formula_structural   TaFeGe
_chemical_formula_sum   'Ta4 Fe4 Ge4'
_cell_volume   170.48536559
_cell_formula_units_Z   4
loop_
 _symmetry_equiv_pos_site_id
 _symmetry_equiv_pos_as_xyz
  1  'x, y, z'
loop_
 _atom_site_type_symbol
 _atom_site_label
 _atom_site_symmetry_multiplicity
 _atom_site_fract_x
 _atom_site_fract_y
 _atom_site_fract_z
 _atom_site_occupancy
  Ta  Ta0  1  0.01585200  0.25000000  0.18861000  1
  Ta  Ta1  1  0.51585200  0.25000000  0.31139000  1
  Ta  Ta2  1  0.98414800  0.75000000  0.81139000  1
  Ta  Ta3  1  0.48414800  0.75000000  0.68861000  1
  Fe  Fe0  1  0.14884600  0.25000000  0.56153500  1
  Fe  Fe1  1  0.64884600  0.25000000  0.93846500  1
  Fe  Fe2  1  0.85115400  0.75000000  0.43846500  1
  Fe  Fe3  1  0.35115400  0.75000000  0.06153500  1
  Ge  Ge0  1  0.77328300  0.25000000  0.61796800  1
  Ge  Ge1  1  0.27328300  0.25000000  0.88203200  1
  Ge  Ge2  1  0.22671700  0.75000000  0.38203200  1
  Ge  Ge3  1  0.72671700  0.75000000  0.11796800  1
loop_
_geom_bond_atom_site_label_1
_geom_bond_atom_site_label_2
_geom_bond_distance
_geom_bond_site_symmetry_2
Fe0 Ge2 2.357241 1_545
Fe0 Ge2 2.357241 1_555
Fe0 Ge0 2.375937 1_455
Fe0 Ge1 2.409922 1_555
Fe0 Ta0 2.781332 1_555
Fe0 Ta2 2.811806 1_455
Fe0 Ta2 2.811806 1_445
Fe0 Ta1 2.899618 1_555
Fe0 Ta3 2.979467 1_545
Fe0 Ta3 2.979467 1_555
Fe1 Ge3 2.357241 1_556
Fe1 Ge3 2.357241 1_546
Fe1 Ge1 2.375937 1_555
Fe1 Ge0 2.409922 1_555
Fe1 Ta1 2.781332 1_556
Fe1 Ta3 2.811806 1_545
Fe1 Ta3 2.811806 1_555
Fe1 Ta0 2.899618 1_656
Fe1 Ta2 2.979467 1_555
Fe1 Ta2 2.979467 1_545
Fe2 Ge0 2.357241 1_555
Fe2 Ge0 2.357241 1_565
Fe2 Ge2 2.375937 1_655
Fe2 Ge3 2.409922 1_555
Fe2 Ta2 2.781332 1_555
Fe2 Ta0 2.811806 1_665
Fe2 Ta0 2.811806 1_655
Fe2 Ta3 2.899618 1_555
Fe2 Ta1 2.979467 1_555
Fe2 Ta1 2.979467 1_565
Fe3 Ge1 2.357241 1_554
Fe3 Ge1 2.357241 1_564
Fe3 Ge3 2.375937 1_555
Fe3 Ge2 2.409922 1_555
Fe3 Ta3 2.781332 1_554
Fe3 Ta1 2.811806 1_565
Fe3 Ta1 2.811806 1_555
Fe3 Ta2 2.899618 1_454
Fe3 Ta0 2.979467 1_565
Fe3 Ta0 2.979467 1_555
Ge0 Ta3 2.681596 1_545
Ge0 Ta3 2.681596 1_555
Ge0 Ta2 2.704178 1_545
Ge0 Ta2 2.704178 1_555
Ge0 Ta1 2.709217 1_555
Ge1 Ta2 2.681596 1_455
Ge1 Ta2 2.681596 1_445
Ge1 Ta3 2.704178 1_545
Ge1 Ta3 2.704178 1_555
Ge1 Ta0 2.709217 1_556
Ge2 Ta1 2.681596 1_555
Ge2 Ta1 2.681596 1_565
Ge2 Ta0 2.704178 1_565
Ge2 Ta0 2.704178 1_555
Ge2 Ta3 2.709217 1_555
Ge3 Ta0 2.681596 1_665
Ge3 Ta0 2.681596 1_655
Ge3 Ta1 2.704178 1_555
Ge3 Ta1 2.704178 1_565
Ge3 Ta2 2.709217 1_554
