# generated using pymatgen
data_CrCoN2
_symmetry_space_group_name_H-M   'P 1'
_cell_length_a   2.75516500
_cell_length_b   2.75502766
_cell_length_c   9.87950600
_cell_angle_alpha   90.00000000
_cell_angle_beta   90.00000000
_cell_angle_gamma   120.00166112
_symmetry_Int_Tables_number   1
_chemical_formula_structural   CrCoN2
_chemical_formula_sum   'Cr2 Co2 N4'
_cell_volume   64.94297311
_cell_formula_units_Z   2
loop_
 _symmetry_equiv_pos_site_id
 _symmetry_equiv_pos_as_xyz
  1  'x, y, z'
loop_
 _atom_site_type_symbol
 _atom_site_label
 _atom_site_symmetry_multiplicity
 _atom_site_fract_x
 _atom_site_fract_y
 _atom_site_fract_z
 _atom_site_occupancy
  Cr  Cr0  1  0.33337600  0.66675200  0.25000000  1
  Cr  Cr1  1  0.66662400  0.33324800  0.75000000  1
  Co  Co0  1  0.00000000  0.00000000  0.00000000  1
  Co  Co1  1  0.00000000  0.00000000  0.50000000  1
  N  N0  1  0.66669300  0.33338600  0.12614300  1
  N  N1  1  0.33330700  0.66661400  0.87385700  1
  N  N2  1  0.33330700  0.66661400  0.62614300  1
  N  N3  1  0.66669300  0.33338600  0.37385700  1
loop_
_geom_bond_atom_site_label_1
_geom_bond_atom_site_label_2
_geom_bond_distance
_geom_bond_site_symmetry_2
Cr0 N3 2.006748 1_565
Cr0 N0 2.006748 1_565
Cr0 N3 2.006903 1_455
Cr0 N0 2.006903 1_455
Cr0 N3 2.006903 1_555
Cr0 N0 2.006903 1_555
Cr1 N1 2.006748 1_545
Cr1 N2 2.006748 1_545
Cr1 N2 2.006903 1_655
Cr1 N1 2.006903 1_655
Cr1 N1 2.006903 1_555
Cr1 N2 2.006903 1_555
Co0 N1 2.020561 1_554
Co0 N0 2.020561 1_445
Co0 N0 2.020771 1_555
Co0 N1 2.020771 1_444
Co0 N0 2.020772 1_455
Co0 N1 2.020772 1_544
Co1 N2 2.020561 1_555
Co1 N3 2.020561 1_445
Co1 N3 2.020771 1_555
Co1 N2 2.020771 1_445
Co1 N3 2.020772 1_455
Co1 N2 2.020772 1_545
