# generated using pymatgen
data_Mg14ZrB
_symmetry_space_group_name_H-M   'P 1'
_cell_length_a   6.34452981
_cell_length_b   6.34452981
_cell_length_c   10.08845900
_cell_angle_alpha   90.00000000
_cell_angle_beta   90.00000000
_cell_angle_gamma   123.43609568
_symmetry_Int_Tables_number   1
_chemical_formula_structural   Mg14ZrB
_chemical_formula_sum   'Mg14 Zr1 B1'
_cell_volume   338.88358113
_cell_formula_units_Z   1
loop_
 _symmetry_equiv_pos_site_id
 _symmetry_equiv_pos_as_xyz
  1  'x, y, z'
loop_
 _atom_site_type_symbol
 _atom_site_label
 _atom_site_symmetry_multiplicity
 _atom_site_fract_x
 _atom_site_fract_y
 _atom_site_fract_z
 _atom_site_occupancy
  Mg  Mg0  1  0.83285400  0.16714600  0.00000000  1
  Mg  Mg1  1  0.32862300  0.67137700  0.00000000  1
  Mg  Mg2  1  0.32309100  0.20086700  0.50000000  1
  Mg  Mg3  1  0.32547300  0.16398000  0.00000000  1
  Mg  Mg4  1  0.79913300  0.67690900  0.50000000  1
  Mg  Mg5  1  0.83602000  0.67452700  0.00000000  1
  Mg  Mg6  1  0.16833700  0.33154900  0.25715100  1
  Mg  Mg7  1  0.16833700  0.33154900  0.74284900  1
  Mg  Mg8  1  0.66845100  0.83166300  0.25715100  1
  Mg  Mg9  1  0.66845100  0.83166300  0.74284900  1
  Mg  Mg10  1  0.66870500  0.33129500  0.24667800  1
  Mg  Mg11  1  0.66870500  0.33129500  0.75332200  1
  Mg  Mg12  1  0.18536000  0.81464000  0.28414800  1
  Mg  Mg13  1  0.18536000  0.81464000  0.71585200  1
  Zr  Zr0  1  0.81647100  0.18352900  0.50000000  1
  B  B0  1  0.35663800  0.64336200  0.50000000  1
loop_
_geom_bond_atom_site_label_1
_geom_bond_atom_site_label_2
_geom_bond_distance
_geom_bond_site_symmetry_2
Mg0 Mg1 3.006479 1_545
Mg0 Mg1 3.006479 1_655
Mg0 Mg10 3.091540 1_555
Mg0 Mg11 3.091540 1_554
Mg0 Mg5 3.136549 1_545
Mg0 Mg3 3.136549 1_655
Mg0 Mg6 3.146739 1_655
Mg0 Mg8 3.146739 1_545
Mg0 Mg7 3.146739 1_654
Mg0 Mg9 3.146739 1_544
Mg0 Mg5 3.208070 1_555
Mg0 Mg3 3.208070 1_555
Mg1 Mg3 3.136391 1_565
Mg1 Mg5 3.136391 1_455
Mg1 Mg6 3.161747 1_555
Mg1 Mg8 3.161747 1_555
Mg1 Mg7 3.161747 1_554
Mg1 Mg9 3.161747 1_554
Mg1 Mg3 3.208227 1_555
Mg1 Mg5 3.208227 1_555
Mg1 Mg12 3.283331 1_555
Mg1 Mg13 3.283331 1_554
Mg2 Mg7 2.924195 1_555
Mg2 Mg6 2.924195 1_555
Mg2 Zr0 3.154990 1_455
Mg2 Zr0 3.192196 1_555
Mg3 Mg5 2.942696 1_445
Mg3 Mg5 3.069518 1_555
Mg3 Mg6 3.165818 1_555
Mg3 Mg7 3.165818 1_554
Mg4 Mg9 2.924195 1_555
Mg4 Mg8 2.924195 1_555
Mg4 Zr0 3.154990 1_565
Mg4 Zr0 3.192196 1_555
Mg5 Mg8 3.165818 1_555
Mg5 Mg9 3.165818 1_554
Mg6 Mg8 3.005422 1_445
Mg6 Mg8 3.006792 1_555
Mg6 Zr0 3.091544 1_455
Mg7 Mg9 3.005422 1_445
Mg7 Mg9 3.006792 1_555
Mg7 Zr0 3.091544 1_455
Mg8 Zr0 3.091544 1_565
Mg9 Zr0 3.091544 1_565
Mg10 Mg12 3.035492 1_545
Mg10 Mg12 3.035492 1_655
Mg10 Zr0 3.042639 1_555
Mg10 Mg5 3.084585 1_555
Mg10 Mg3 3.084585 1_555
Mg10 Mg4 3.166160 1_555
Mg10 Mg2 3.166160 1_555
Mg10 Mg6 3.170803 1_655
Mg10 Mg8 3.170803 1_545
Mg10 Mg8 3.177245 1_555
Mg10 Mg6 3.177245 1_555
Mg11 Mg13 3.035492 1_655
Mg11 Mg13 3.035492 1_545
Mg11 Zr0 3.042639 1_555
Mg11 Mg5 3.084585 1_556
Mg11 Mg3 3.084585 1_556
Mg11 Mg4 3.166160 1_555
Mg11 Mg2 3.166160 1_555
Mg11 Mg7 3.170803 1_655
Mg11 Mg9 3.170803 1_545
Mg11 Mg9 3.177245 1_555
Mg11 Mg7 3.177245 1_555
Mg12 Mg6 3.019136 1_555
Mg12 Mg8 3.019136 1_555
Mg12 Mg8 3.351356 1_455
Mg12 Mg6 3.351356 1_565
Mg12 Mg5 3.427663 1_455
Mg12 Mg3 3.427663 1_565
Mg13 Mg7 3.019136 1_555
Mg13 Mg9 3.019136 1_555
Mg13 Mg9 3.351356 1_455
Mg13 Mg7 3.351356 1_565
Mg13 Mg5 3.427663 1_456
Mg13 Mg3 3.427663 1_566
B0 Mg2 2.696004 1_555
B0 Mg4 2.696004 1_555
B0 Mg13 2.899151 1_555
B0 Mg12 2.899151 1_555
B0 Mg9 2.956142 1_555
B0 Mg7 2.956142 1_555
B0 Mg8 2.956142 1_555
B0 Mg6 2.956142 1_555
B0 Zr0 3.039430 1_455
B0 Zr0 3.039430 1_565
