# generated using pymatgen
data_LaMgCrBiO6
_symmetry_space_group_name_H-M   'P 1'
_cell_length_a   5.76034100
_cell_length_b   5.55880900
_cell_length_c   9.76632203
_cell_angle_alpha   56.26289565
_cell_angle_beta   90.00000000
_cell_angle_gamma   90.00000000
_symmetry_Int_Tables_number   1
_chemical_formula_structural   LaMgCrBiO6
_chemical_formula_sum   'La2 Mg2 Cr2 Bi2 O12'
_cell_volume   260.05946485
_cell_formula_units_Z   2
loop_
 _symmetry_equiv_pos_site_id
 _symmetry_equiv_pos_as_xyz
  1  'x, y, z'
loop_
 _atom_site_type_symbol
 _atom_site_label
 _atom_site_symmetry_multiplicity
 _atom_site_fract_x
 _atom_site_fract_y
 _atom_site_fract_z
 _atom_site_occupancy
  La  La0  1  0.30628800  0.76509300  0.24761500  1
  La  La1  1  0.69371200  0.76509300  0.74761500  1
  Mg  Mg0  1  0.79971800  0.23026400  0.25064200  1
  Mg  Mg1  1  0.20028200  0.23026400  0.75064200  1
  Cr  Cr0  1  0.24420000  0.00077600  0.49954900  1
  Cr  Cr1  1  0.75580000  0.00077600  0.99954900  1
  Bi  Bi0  1  0.24525700  0.50007600  0.99812300  1
  Bi  Bi1  1  0.75474300  0.50007600  0.49812300  1
  O  O0  1  0.83363600  0.34478100  0.76572000  1
  O  O1  1  0.03129700  0.11226300  0.07384300  1
  O  O2  1  0.05568300  0.78675500  0.43064300  1
  O  O3  1  0.58318600  0.22736300  0.07379000  1
  O  O4  1  0.55431500  0.91651800  0.42983000  1
  O  O5  1  0.29622800  0.61611000  0.73024500  1
  O  O6  1  0.16636400  0.34478100  0.26572000  1
  O  O7  1  0.96870300  0.11226300  0.57384300  1
  O  O8  1  0.94431700  0.78675500  0.93064300  1
  O  O9  1  0.41681400  0.22736300  0.57379000  1
  O  O10  1  0.44568500  0.91651800  0.92983000  1
  O  O11  1  0.70377200  0.61611000  0.23024500  1
loop_
_geom_bond_atom_site_label_1
_geom_bond_atom_site_label_2
_geom_bond_distance
_geom_bond_site_symmetry_2
La0 O1 2.340033 1_565
La0 O2 2.352163 1_555
La0 O6 2.383475 1_555
La0 O11 2.472481 1_555
La0 O3 2.680245 1_565
La0 O4 2.753271 1_555
La0 O10 2.843199 1_554
La0 O9 2.985162 1_555
La1 O7 2.340033 1_565
La1 O8 2.352163 1_555
La1 O0 2.383475 1_555
La1 O5 2.472481 1_555
La1 O9 2.680245 1_565
La1 O10 2.753271 1_555
La1 O4 2.843199 1_555
La1 O3 2.985162 1_556
Mg0 O11 2.114452 1_555
Mg0 O3 2.137791 1_555
Mg0 O4 2.170795 1_545
Mg0 O6 2.234191 1_655
Mg0 O1 2.539531 1_655
Mg0 O2 2.555074 1_645
Mg1 O5 2.114452 1_555
Mg1 O9 2.137791 1_555
Mg1 O10 2.170795 1_545
Mg1 O0 2.234191 1_455
Mg1 O7 2.539531 1_455
Mg1 O8 2.555074 1_445
Cr0 O7 1.982030 1_455
Cr0 O2 1.984135 1_545
Cr0 O9 2.028612 1_555
Cr0 O6 2.054794 1_555
Cr0 O4 2.056295 1_545
Cr0 O5 2.094522 1_545
Cr1 O1 1.982030 1_656
Cr1 O8 1.984135 1_545
Cr1 O3 2.028612 1_556
Cr1 O0 2.054794 1_555
Cr1 O10 2.056295 1_545
Cr1 O11 2.094522 1_546
Bi0 O8 2.193715 1_455
Bi0 O1 2.223166 1_556
Bi0 O6 2.296919 1_556
Bi0 O3 2.321437 1_556
Bi0 O10 2.328444 1_555
Bi0 O5 2.339290 1_555
Bi1 O2 2.193715 1_655
Bi1 O7 2.223166 1_555
Bi1 O0 2.296919 1_555
Bi1 O9 2.321437 1_555
Bi1 O4 2.328444 1_555
Bi1 O11 2.339290 1_555
