# generated using pymatgen
data_Tm2Pt2O7
_symmetry_space_group_name_H-M   'P 1'
_cell_length_a   7.13513555
_cell_length_b   7.13513555
_cell_length_c   7.13513555
_cell_angle_alpha   60.00000000
_cell_angle_beta   60.00000000
_cell_angle_gamma   60.00000000
_symmetry_Int_Tables_number   1
_chemical_formula_structural   Tm2Pt2O7
_chemical_formula_sum   'Tm4 Pt4 O14'
_cell_volume   256.85716557
_cell_formula_units_Z   2
loop_
 _symmetry_equiv_pos_site_id
 _symmetry_equiv_pos_as_xyz
  1  'x, y, z'
loop_
 _atom_site_type_symbol
 _atom_site_label
 _atom_site_symmetry_multiplicity
 _atom_site_fract_x
 _atom_site_fract_y
 _atom_site_fract_z
 _atom_site_occupancy
  Tm  Tm0  1  0.62500000  0.62500000  0.12500000  1
  Tm  Tm1  1  0.62500000  0.62500000  0.62500000  1
  Tm  Tm2  1  0.62500000  0.12500000  0.62500000  1
  Tm  Tm3  1  0.12500000  0.62500000  0.62500000  1
  Pt  Pt0  1  0.12500000  0.12500000  0.12500000  1
  Pt  Pt1  1  0.62500000  0.12500000  0.12500000  1
  Pt  Pt2  1  0.12500000  0.62500000  0.12500000  1
  Pt  Pt3  1  0.12500000  0.12500000  0.62500000  1
  O  O0  1  0.03177121  0.46822879  0.46822879  1
  O  O1  1  0.78177121  0.78177121  0.21822879  1
  O  O2  1  0.78177121  0.21822879  0.21822879  1
  O  O3  1  0.46822879  0.03177121  0.46822879  1
  O  O4  1  0.03177121  0.03177121  0.46822879  1
  O  O5  1  0.03177121  0.46822879  0.03177121  1
  O  O6  1  0.75000000  0.75000000  0.75000000  1
  O  O7  1  0.50000000  0.50000000  0.50000000  1
  O  O8  1  0.78177121  0.21822879  0.78177121  1
  O  O9  1  0.21822879  0.78177121  0.21822879  1
  O  O10  1  0.21822879  0.21822879  0.78177121  1
  O  O11  1  0.46822879  0.03177121  0.03177121  1
  O  O12  1  0.46822879  0.46822879  0.03177121  1
  O  O13  1  0.21822879  0.78177121  0.78177121  1
loop_
_geom_bond_atom_site_label_1
_geom_bond_atom_site_label_2
_geom_bond_distance
_geom_bond_site_symmetry_2
O0 Pt2 2.016648 1_555
O0 Pt3 2.016648 1_555
O0 Tm1 2.384186 1_455
O0 Tm3 2.384186 1_555
O1 Pt1 2.016648 1_565
O1 Pt2 2.016648 1_655
O1 Tm1 2.384186 1_555
O1 Tm0 2.384186 1_555
O2 Pt0 2.016648 1_655
O2 Pt1 2.016648 1_555
O2 Tm2 2.384186 1_555
O2 Tm0 2.384186 1_555
O3 Pt1 2.016648 1_555
O3 Pt3 2.016648 1_555
O3 Tm2 2.384186 1_555
O3 Tm1 2.384186 1_545
O4 Pt3 2.016648 1_555
O4 Pt0 2.016648 1_555
O4 Tm3 2.384186 1_545
O4 Tm2 2.384186 1_455
O5 Pt2 2.016648 1_555
O5 Pt0 2.016648 1_555
O5 Tm0 2.384186 1_455
O5 Tm3 2.384186 1_554
O6 Tm2 2.184680 1_565
O6 Tm3 2.184680 1_655
O6 Tm0 2.184680 1_556
O6 Tm1 2.184680 1_555
O7 Tm3 2.184680 1_555
O7 Tm2 2.184680 1_555
O7 Tm0 2.184680 1_555
O7 Tm1 2.184680 1_555
O8 Pt3 2.016648 1_655
O8 Pt1 2.016648 1_556
O8 Tm1 2.384186 1_555
O8 Tm2 2.384186 1_555
O9 Pt0 2.016648 1_565
O9 Pt2 2.016648 1_555
O9 Tm3 2.384186 1_555
O9 Tm0 2.384186 1_555
O10 Pt0 2.016648 1_556
O10 Pt3 2.016648 1_555
O10 Tm3 2.384186 1_555
O10 Tm2 2.384186 1_555
O11 Pt1 2.016648 1_555
O11 Pt0 2.016648 1_555
O11 Tm0 2.384186 1_545
O11 Tm2 2.384186 1_554
O12 Pt1 2.016648 1_555
O12 Pt2 2.016648 1_555
O12 Tm1 2.384186 1_554
O12 Tm0 2.384186 1_555
O13 Pt3 2.016648 1_565
O13 Pt2 2.016648 1_556
O13 Tm1 2.384186 1_555
O13 Tm3 2.384186 1_555
