# generated using pymatgen
data_LiInIr
_symmetry_space_group_name_H-M   'P 1'
_cell_length_a   8.72747780
_cell_length_b   8.72747780
_cell_length_c   5.80847600
_cell_angle_alpha   90.00000000
_cell_angle_beta   90.00000000
_cell_angle_gamma   120.00001361
_symmetry_Int_Tables_number   1
_chemical_formula_structural   LiInIr
_chemical_formula_sum   'Li8 In8 Ir8'
_cell_volume   383.15127622
_cell_formula_units_Z   8
loop_
 _symmetry_equiv_pos_site_id
 _symmetry_equiv_pos_as_xyz
  1  'x, y, z'
loop_
 _atom_site_type_symbol
 _atom_site_label
 _atom_site_symmetry_multiplicity
 _atom_site_fract_x
 _atom_site_fract_y
 _atom_site_fract_z
 _atom_site_occupancy
  Li  Li0_0  1  0.16666650  0.33333350  0.00000000  1
  Li  Li0_1  1  0.16666650  0.33333350  0.50000000  1
  Li  Li0_2  1  0.16666650  0.83333350  0.00000000  1
  Li  Li0_3  1  0.16666650  0.83333350  0.50000000  1
  Li  Li0_4  1  0.66666650  0.33333350  0.00000000  1
  Li  Li0_5  1  0.66666650  0.33333350  0.50000000  1
  Li  Li0_6  1  0.66666650  0.83333350  0.00000000  1
  Li  Li0_7  1  0.66666650  0.83333350  0.50000000  1
  In  In0_0  1  0.33333350  0.16666650  0.25000000  1
  In  In0_1  1  0.33333350  0.16666650  0.75000000  1
  In  In0_2  1  0.33333350  0.66666650  0.25000000  1
  In  In0_3  1  0.33333350  0.66666650  0.75000000  1
  In  In0_4  1  0.83333350  0.16666650  0.25000000  1
  In  In0_5  1  0.83333350  0.16666650  0.75000000  1
  In  In0_6  1  0.83333350  0.66666650  0.25000000  1
  In  In0_7  1  0.83333350  0.66666650  0.75000000  1
  Ir  Ir0_0  1  0.00000000  0.00000000  0.00000000  1
  Ir  Ir0_1  1  0.00000000  0.00000000  0.50000000  1
  Ir  Ir0_2  1  0.00000000  0.50000000  0.00000000  1
  Ir  Ir0_3  1  0.00000000  0.50000000  0.50000000  1
  Ir  Ir0_4  1  0.50000000  0.00000000  0.00000000  1
  Ir  Ir0_5  1  0.50000000  0.00000000  0.50000000  1
  Ir  Ir0_6  1  0.50000000  0.50000000  0.00000000  1
  Ir  Ir0_7  1  0.50000000  0.50000000  0.50000000  1
loop_
_geom_bond_atom_site_label_1
_geom_bond_atom_site_label_2
_geom_bond_distance
_geom_bond_site_symmetry_2
Li0_0 Li0_1 2.904238 1_554
Li0_0 Li0_1 2.904238 1_555
Li0_2 Li0_3 2.904238 1_555
Li0_2 Li0_3 2.904238 1_554
Li0_4 Li0_5 2.904238 1_554
Li0_4 Li0_5 2.904238 1_555
Li0_6 Li0_7 2.904238 1_555
Li0_6 Li0_7 2.904238 1_554
In0_0 In0_1 2.904238 1_554
In0_0 In0_1 2.904238 1_555
In0_0 Li0_4 2.907927 1_555
In0_0 Li0_5 2.907927 1_555
In0_0 Li0_2 2.907927 1_545
In0_0 Li0_3 2.907927 1_545
In0_0 Ir0_4 2.907928 1_555
In0_0 Ir0_5 2.907928 1_555
In0_0 Ir0_0 2.907931 1_555
In0_0 Ir0_7 2.907931 1_555
In0_0 Ir0_6 2.907931 1_555
In0_0 Ir0_1 2.907931 1_555
In0_0 Li0_1 2.907934 1_555
In0_0 Li0_0 2.907934 1_555
In0_1 Li0_4 2.907927 1_556
In0_1 Li0_5 2.907927 1_555
In0_1 Li0_2 2.907927 1_546
In0_1 Li0_3 2.907927 1_545
In0_1 Ir0_4 2.907928 1_556
In0_1 Ir0_5 2.907928 1_555
In0_1 Ir0_0 2.907931 1_556
In0_1 Ir0_6 2.907931 1_556
In0_1 Ir0_7 2.907931 1_555
In0_1 Ir0_1 2.907931 1_555
In0_1 Li0_0 2.907934 1_556
In0_1 Li0_1 2.907934 1_555
In0_2 In0_3 2.904238 1_554
In0_2 In0_3 2.904238 1_555
In0_2 Li0_0 2.907927 1_555
In0_2 Li0_1 2.907927 1_555
In0_2 Li0_6 2.907927 1_555
In0_2 Li0_7 2.907927 1_555
In0_2 Ir0_6 2.907928 1_555
In0_2 Ir0_7 2.907928 1_555
In0_2 Ir0_5 2.907931 1_565
In0_2 Ir0_3 2.907931 1_555
In0_2 Ir0_2 2.907931 1_555
In0_2 Ir0_4 2.907931 1_565
In0_2 Li0_2 2.907934 1_555
In0_2 Li0_3 2.907934 1_555
In0_3 Li0_6 2.907927 1_556
In0_3 Li0_0 2.907927 1_556
In0_3 Li0_7 2.907927 1_555
In0_3 Li0_1 2.907927 1_555
In0_3 Ir0_6 2.907928 1_556
In0_3 Ir0_7 2.907928 1_555
In0_3 Ir0_2 2.907931 1_556
In0_3 Ir0_4 2.907931 1_566
In0_3 Ir0_3 2.907931 1_555
In0_3 Ir0_5 2.907931 1_565
In0_3 Li0_2 2.907934 1_556
In0_3 Li0_3 2.907934 1_555
In0_4 In0_5 2.904238 1_554
In0_4 In0_5 2.904238 1_555
In0_4 Li0_7 2.907927 1_545
In0_4 Li0_6 2.907927 1_545
In0_4 Li0_0 2.907927 1_655
In0_4 Li0_1 2.907927 1_655
In0_4 Ir0_1 2.907928 1_655
In0_4 Ir0_0 2.907928 1_655
In0_4 Ir0_2 2.907931 1_655
In0_4 Ir0_4 2.907931 1_555
In0_4 Ir0_5 2.907931 1_555
In0_4 Ir0_3 2.907931 1_655
In0_4 Li0_5 2.907934 1_555
In0_4 Li0_4 2.907934 1_555
In0_5 Li0_6 2.907927 1_546
In0_5 Li0_0 2.907927 1_656
In0_5 Li0_7 2.907927 1_545
In0_5 Li0_1 2.907927 1_655
In0_5 Ir0_0 2.907928 1_656
In0_5 Ir0_1 2.907928 1_655
In0_5 Ir0_2 2.907931 1_656
In0_5 Ir0_4 2.907931 1_556
In0_5 Ir0_3 2.907931 1_655
In0_5 Ir0_5 2.907931 1_555
In0_5 Li0_4 2.907934 1_556
In0_5 Li0_5 2.907934 1_555
In0_6 In0_7 2.904238 1_554
In0_6 In0_7 2.904238 1_555
In0_6 Li0_2 2.907927 1_655
In0_6 Li0_3 2.907927 1_655
In0_6 Li0_5 2.907927 1_555
In0_6 Li0_4 2.907927 1_555
In0_6 Ir0_3 2.907928 1_655
In0_6 Ir0_2 2.907928 1_655
In0_6 Ir0_6 2.907931 1_555
In0_6 Ir0_7 2.907931 1_555
In0_6 Ir0_1 2.907931 1_665
In0_6 Ir0_0 2.907931 1_665
In0_6 Li0_6 2.907934 1_555
In0_6 Li0_7 2.907934 1_555
In0_7 Li0_4 2.907927 1_556
In0_7 Li0_2 2.907927 1_656
In0_7 Li0_3 2.907927 1_655
In0_7 Li0_5 2.907927 1_555
In0_7 Ir0_2 2.907928 1_656
In0_7 Ir0_3 2.907928 1_655
In0_7 Ir0_0 2.907931 1_666
In0_7 Ir0_6 2.907931 1_556
In0_7 Ir0_7 2.907931 1_555
In0_7 Ir0_1 2.907931 1_665
In0_7 Li0_6 2.907934 1_556
In0_7 Li0_7 2.907934 1_555
Ir0_0 Li0_2 2.519403 1_545
Ir0_0 Li0_0 2.519407 1_555
Ir0_0 Li0_6 2.519407 1_445
Ir0_0 Ir0_1 2.904238 1_555
Ir0_0 Ir0_1 2.904238 1_554
Ir0_1 Li0_3 2.519403 1_545
Ir0_1 Li0_1 2.519407 1_555
Ir0_1 Li0_7 2.519407 1_445
Ir0_2 Li0_0 2.519403 1_555
Ir0_2 Li0_2 2.519407 1_555
Ir0_2 Li0_4 2.519407 1_455
Ir0_2 Ir0_3 2.904238 1_554
Ir0_2 Ir0_3 2.904238 1_555
Ir0_3 Li0_1 2.519403 1_555
Ir0_3 Li0_3 2.519407 1_555
Ir0_3 Li0_5 2.519407 1_455
Ir0_4 Li0_6 2.519403 1_545
Ir0_4 Li0_4 2.519407 1_555
Ir0_4 Li0_2 2.519407 1_545
Ir0_4 Ir0_5 2.904238 1_555
Ir0_4 Ir0_5 2.904238 1_554
Ir0_5 Li0_7 2.519403 1_545
Ir0_5 Li0_5 2.519407 1_555
Ir0_5 Li0_3 2.519407 1_545
Ir0_6 Li0_4 2.519403 1_555
Ir0_6 Li0_0 2.519407 1_555
Ir0_6 Li0_6 2.519407 1_555
Ir0_6 Ir0_7 2.904238 1_555
Ir0_6 Ir0_7 2.904238 1_554
Ir0_7 Li0_5 2.519403 1_555
Ir0_7 Li0_1 2.519407 1_555
Ir0_7 Li0_7 2.519407 1_555
