# generated using pymatgen
data_KPt3
_symmetry_space_group_name_H-M   'P 1'
_cell_length_a   6.52670223
_cell_length_b   6.52670223
_cell_length_c   4.58279100
_cell_angle_alpha   90.00000000
_cell_angle_beta   90.00000000
_cell_angle_gamma   120.00000233
_symmetry_Int_Tables_number   1
_chemical_formula_structural   KPt3
_chemical_formula_sum   'K2 Pt6'
_cell_volume   169.06288327
_cell_formula_units_Z   2
loop_
 _symmetry_equiv_pos_site_id
 _symmetry_equiv_pos_as_xyz
  1  'x, y, z'
loop_
 _atom_site_type_symbol
 _atom_site_label
 _atom_site_symmetry_multiplicity
 _atom_site_fract_x
 _atom_site_fract_y
 _atom_site_fract_z
 _atom_site_occupancy
  K  K0  1  0.66666700  0.33333300  0.25000000  1
  K  K1  1  0.33333300  0.66666700  0.75000000  1
  Pt  Pt0  1  0.86125500  0.13874500  0.75000000  1
  Pt  Pt1  1  0.27749000  0.13874500  0.75000000  1
  Pt  Pt2  1  0.86125500  0.72251000  0.75000000  1
  Pt  Pt3  1  0.13874500  0.86125500  0.25000000  1
  Pt  Pt4  1  0.72251000  0.86125500  0.25000000  1
  Pt  Pt5  1  0.13874500  0.27749000  0.25000000  1
loop_
_geom_bond_atom_site_label_1
_geom_bond_atom_site_label_2
_geom_bond_distance
_geom_bond_site_symmetry_2
K0 Pt0 3.176371 1_555
K0 Pt0 3.176371 1_554
K0 Pt1 3.176374 1_554
K0 Pt1 3.176374 1_555
K0 Pt2 3.176374 1_555
K0 Pt2 3.176374 1_554
K0 Pt4 3.278577 1_545
K0 Pt5 3.278577 1_655
K0 Pt3 3.278581 1_545
K0 Pt3 3.278581 1_655
K0 Pt4 3.278584 1_555
K0 Pt5 3.278584 1_555
K1 Pt3 3.176371 1_555
K1 Pt3 3.176371 1_556
K1 Pt5 3.176374 1_555
K1 Pt5 3.176374 1_556
K1 Pt4 3.176374 1_556
K1 Pt4 3.176374 1_555
K1 Pt2 3.278577 1_455
K1 Pt1 3.278577 1_565
K1 Pt0 3.278581 1_455
K1 Pt0 3.278581 1_565
K1 Pt1 3.278584 1_555
K1 Pt2 3.278584 1_555
Pt0 Pt1 2.716642 1_655
Pt0 Pt2 2.716642 1_545
Pt0 Pt4 2.776786 1_545
Pt0 Pt4 2.776786 1_546
Pt0 Pt5 2.776786 1_655
Pt0 Pt5 2.776786 1_656
Pt1 Pt2 2.716642 1_445
Pt1 Pt3 2.776786 1_545
Pt1 Pt3 2.776786 1_546
Pt1 Pt5 2.776786 1_555
Pt1 Pt5 2.776786 1_556
Pt2 Pt3 2.776786 1_656
Pt2 Pt3 2.776786 1_655
Pt2 Pt4 2.776786 1_556
Pt2 Pt4 2.776786 1_555
Pt3 Pt4 2.716642 1_455
Pt3 Pt5 2.716642 1_565
Pt4 Pt5 2.716642 1_665
