# generated using pymatgen
data_TiCrAgS4
_symmetry_space_group_name_H-M   'P 1'
_cell_length_a   6.13775500
_cell_length_b   7.15011200
_cell_length_c   11.91313900
_cell_angle_alpha   90.00000000
_cell_angle_beta   90.00000000
_cell_angle_gamma   90.00000000
_symmetry_Int_Tables_number   1
_chemical_formula_structural   TiCrAgS4
_chemical_formula_sum   'Ti4 Cr4 Ag4 S16'
_cell_volume   522.81567794
_cell_formula_units_Z   4
loop_
 _symmetry_equiv_pos_site_id
 _symmetry_equiv_pos_as_xyz
  1  'x, y, z'
loop_
 _atom_site_type_symbol
 _atom_site_label
 _atom_site_symmetry_multiplicity
 _atom_site_fract_x
 _atom_site_fract_y
 _atom_site_fract_z
 _atom_site_occupancy
  Ti  Ti0  1  0.03790000  0.75000000  0.24718600  1
  Ti  Ti1  1  0.96210000  0.25000000  0.75281400  1
  Ti  Ti2  1  0.53790000  0.25000000  0.25281400  1
  Ti  Ti3  1  0.46210000  0.75000000  0.74718600  1
  Cr  Cr0  1  0.50000000  0.00000000  0.00000000  1
  Cr  Cr1  1  0.00000000  0.00000000  0.50000000  1
  Cr  Cr2  1  0.00000000  0.50000000  0.50000000  1
  Cr  Cr3  1  0.50000000  0.50000000  0.00000000  1
  Ag  Ag0  1  0.92539500  0.25000000  0.10096900  1
  Ag  Ag1  1  0.07460500  0.75000000  0.89903100  1
  Ag  Ag2  1  0.42539500  0.75000000  0.39903100  1
  Ag  Ag3  1  0.57460500  0.25000000  0.60096900  1
  S  S0  1  0.71443800  0.98079000  0.17376300  1
  S  S1  1  0.28556200  0.01921000  0.82623700  1
  S  S2  1  0.21443800  0.01921000  0.32623700  1
  S  S3  1  0.78556200  0.98079000  0.67376300  1
  S  S4  1  0.78556200  0.51921000  0.67376300  1
  S  S5  1  0.21443800  0.48079000  0.32623700  1
  S  S6  1  0.28556200  0.48079000  0.82623700  1
  S  S7  1  0.71443800  0.51921000  0.17376300  1
  S  S8  1  0.27540600  0.75000000  0.08847400  1
  S  S9  1  0.72459400  0.25000000  0.91152600  1
  S  S10  1  0.77540600  0.25000000  0.41152600  1
  S  S11  1  0.22459400  0.75000000  0.58847400  1
  S  S12  1  0.31434000  0.25000000  0.08355600  1
  S  S13  1  0.68566000  0.75000000  0.91644400  1
  S  S14  1  0.81434000  0.75000000  0.41644400  1
  S  S15  1  0.18566000  0.25000000  0.58355600  1
loop_
_geom_bond_atom_site_label_1
_geom_bond_atom_site_label_2
_geom_bond_distance
_geom_bond_site_symmetry_2
Cr0 S12 2.341932 1_555
Cr0 S13 2.341932 1_544
Cr0 S1 2.456893 1_554
Cr0 S0 2.456893 1_545
Cr0 S8 2.491275 1_545
Cr0 S9 2.491275 1_554
Cr1 S15 2.341932 1_555
Cr1 S14 2.341932 1_445
Cr1 S2 2.456893 1_555
Cr1 S3 2.456893 1_445
Cr1 S10 2.491275 1_455
Cr1 S11 2.491275 1_545
Cr2 S15 2.341932 1_555
Cr2 S14 2.341932 1_455
Cr2 S5 2.456893 1_555
Cr2 S4 2.456893 1_455
Cr2 S10 2.491275 1_455
Cr2 S11 2.491275 1_555
Cr3 S12 2.341932 1_555
Cr3 S13 2.341932 1_554
Cr3 S7 2.456893 1_555
Cr3 S6 2.456893 1_554
Cr3 S9 2.491275 1_554
Cr3 S8 2.491275 1_555
Ag0 S12 2.396245 1_655
Ag0 S7 2.476636 1_555
Ag0 S0 2.476636 1_545
Ag0 S9 2.571458 1_554
Ag1 S13 2.396245 1_455
Ag1 S6 2.476636 1_555
Ag1 S1 2.476636 1_565
Ag1 S8 2.571458 1_556
Ag2 S14 2.396245 1_555
Ag2 S2 2.476636 1_565
Ag2 S5 2.476636 1_555
Ag2 S11 2.571458 1_555
Ag3 S15 2.396245 1_555
Ag3 S3 2.476636 1_545
Ag3 S4 2.476636 1_555
Ag3 S10 2.571458 1_555
S0 Ti2 2.401276 1_565
S0 Ti0 2.725749 1_655
S1 Ti3 2.401276 1_545
S1 Ti1 2.725749 1_455
S2 Ti0 2.401276 1_545
S2 Ti2 2.725749 1_555
S3 Ti1 2.401276 1_565
S3 Ti3 2.725749 1_555
S4 Ti1 2.401276 1_555
S4 Ti3 2.725749 1_555
S5 Ti0 2.401276 1_555
S5 Ti2 2.725749 1_555
S6 Ti3 2.401276 1_555
S6 Ti1 2.725749 1_455
S7 Ti2 2.401276 1_555
S7 Ti0 2.725749 1_655
S8 Ti0 2.387470 1_555
S9 Ti1 2.387470 1_555
S10 Ti2 2.387470 1_555
S11 Ti3 2.387470 1_555
S12 Ti2 2.438987 1_555
S13 Ti3 2.438987 1_555
S14 Ti0 2.438987 1_655
S15 Ti1 2.438987 1_455
