# generated using pymatgen
data_CdAs3
_symmetry_space_group_name_H-M   'P 1'
_cell_length_a   6.15249528
_cell_length_b   6.15249528
_cell_length_c   4.99562400
_cell_angle_alpha   90.00000000
_cell_angle_beta   90.00000000
_cell_angle_gamma   119.99999225
_symmetry_Int_Tables_number   1
_chemical_formula_structural   CdAs3
_chemical_formula_sum   'Cd2 As6'
_cell_volume   163.76571559
_cell_formula_units_Z   2
loop_
 _symmetry_equiv_pos_site_id
 _symmetry_equiv_pos_as_xyz
  1  'x, y, z'
loop_
 _atom_site_type_symbol
 _atom_site_label
 _atom_site_symmetry_multiplicity
 _atom_site_fract_x
 _atom_site_fract_y
 _atom_site_fract_z
 _atom_site_occupancy
  Cd  Cd0  1  0.33333300  0.66666700  0.75000000  1
  Cd  Cd1  1  0.66666700  0.33333300  0.25000000  1
  As  As0  1  0.16592300  0.33184600  0.25000000  1
  As  As1  1  0.66815400  0.83407700  0.25000000  1
  As  As2  1  0.16592300  0.83407700  0.25000000  1
  As  As3  1  0.83407700  0.66815400  0.75000000  1
  As  As4  1  0.33184600  0.16592300  0.75000000  1
  As  As5  1  0.83407700  0.16592300  0.75000000  1
loop_
_geom_bond_atom_site_label_1
_geom_bond_atom_site_label_2
_geom_bond_distance
_geom_bond_site_symmetry_2
As0 Cd0 3.069482 1_554
As0 Cd0 3.069482 1_555
As0 Cd1 3.076255 1_455
As0 Cd1 3.076261 1_555
As1 Cd0 3.069482 1_554
As1 Cd0 3.069482 1_555
As1 Cd1 3.076255 1_565
As1 Cd1 3.076261 1_555
As2 Cd0 3.069478 1_554
As2 Cd0 3.069478 1_555
As2 Cd1 3.076258 1_455
As2 Cd1 3.076258 1_565
As3 Cd1 3.069482 1_555
As3 Cd1 3.069482 1_556
As3 Cd0 3.076255 1_655
As3 Cd0 3.076261 1_555
As4 Cd1 3.069482 1_555
As4 Cd1 3.069482 1_556
As4 Cd0 3.076255 1_545
As4 Cd0 3.076261 1_555
As5 Cd1 3.069478 1_556
As5 Cd1 3.069478 1_555
As5 Cd0 3.076258 1_545
As5 Cd0 3.076258 1_655
