# generated using pymatgen
data_Li4V3O8
_symmetry_space_group_name_H-M   'P 1'
_cell_length_a   6.14351455
_cell_length_b   6.14351455
_cell_length_c   6.14351460
_cell_angle_alpha   56.84115084
_cell_angle_beta   56.84115084
_cell_angle_gamma   56.84115648
_symmetry_Int_Tables_number   1
_chemical_formula_structural   Li4V3O8
_chemical_formula_sum   'Li4 V3 O8'
_cell_volume   152.00774253
_cell_formula_units_Z   1
loop_
 _symmetry_equiv_pos_site_id
 _symmetry_equiv_pos_as_xyz
  1  'x, y, z'
loop_
 _atom_site_type_symbol
 _atom_site_label
 _atom_site_symmetry_multiplicity
 _atom_site_fract_x
 _atom_site_fract_y
 _atom_site_fract_z
 _atom_site_occupancy
  Li  Li0  1  0.00000000  0.00000000  0.00000000  1
  Li  Li1  1  0.64137400  0.64137400  0.64137400  1
  Li  Li2  1  0.50000000  0.50000000  0.50000000  1
  Li  Li3  1  0.35862600  0.35862600  0.35862600  1
  V  V0  1  0.00000000  0.50000000  0.00000000  1
  V  V1  1  0.00000000  0.00000000  0.50000000  1
  V  V2  1  0.50000000  0.00000000  0.00000000  1
  O  O0  1  0.76419800  0.76419800  0.76419800  1
  O  O1  1  0.25797400  0.78033100  0.25797400  1
  O  O2  1  0.25797400  0.25797400  0.78033100  1
  O  O3  1  0.78033100  0.25797400  0.25797400  1
  O  O4  1  0.23580200  0.23580200  0.23580200  1
  O  O5  1  0.74202600  0.21966900  0.74202600  1
  O  O6  1  0.74202600  0.74202600  0.21966900  1
  O  O7  1  0.21966900  0.74202600  0.74202600  1
loop_
_geom_bond_atom_site_label_1
_geom_bond_atom_site_label_2
_geom_bond_distance
_geom_bond_site_symmetry_2
Li0 O2 2.216557 1_554
Li0 O6 2.216557 1_445
Li0 O1 2.216558 1_545
Li0 O3 2.216558 1_455
Li0 O7 2.216558 1_544
Li0 O5 2.216558 1_454
Li1 O0 1.891216 1_555
Li1 O6 2.095244 1_555
Li1 O5 2.095244 1_555
Li1 O7 2.095244 1_555
Li2 O6 2.050288 1_555
Li2 O2 2.050288 1_555
Li2 O7 2.050289 1_555
Li2 O5 2.050289 1_555
Li2 O3 2.050289 1_555
Li2 O1 2.050289 1_555
Li3 O4 1.891216 1_555
Li3 O2 2.095244 1_555
Li3 O3 2.095244 1_555
Li3 O1 2.095244 1_555
O0 V1 1.995756 1_665
O0 V0 1.995756 1_656
O0 V2 1.995756 1_566
O1 V2 1.954841 1_565
O1 V1 1.954841 1_565
O2 V2 1.954841 1_556
O2 V0 1.954841 1_556
O3 V0 1.954841 1_655
O3 V1 1.954841 1_655
O4 V1 1.995756 1_555
O4 V0 1.995756 1_555
O4 V2 1.995756 1_555
O5 V2 1.954841 1_556
O5 V1 1.954841 1_655
O6 V0 1.954841 1_655
O6 V2 1.954841 1_565
O7 V0 1.954841 1_556
O7 V1 1.954841 1_565
