# generated using pymatgen
data_MgMnMoS4
_symmetry_space_group_name_H-M   'P 1'
_cell_length_a   7.43751250
_cell_length_b   7.39486389
_cell_length_c   7.39576461
_cell_angle_alpha   59.22808697
_cell_angle_beta   59.78895211
_cell_angle_gamma   59.78663755
_symmetry_Int_Tables_number   1
_chemical_formula_structural   MgMnMoS4
_chemical_formula_sum   'Mg2 Mn2 Mo2 S8'
_cell_volume   284.99936378
_cell_formula_units_Z   2
loop_
 _symmetry_equiv_pos_site_id
 _symmetry_equiv_pos_as_xyz
  1  'x, y, z'
loop_
 _atom_site_type_symbol
 _atom_site_label
 _atom_site_symmetry_multiplicity
 _atom_site_fract_x
 _atom_site_fract_y
 _atom_site_fract_z
 _atom_site_occupancy
  Mg  Mg0  1  0.88009700  0.86982500  0.86988000  1
  Mg  Mg1  1  0.11992500  0.13016200  0.13011200  1
  Mn  Mn0  1  0.50002700  0.49998200  0.99999900  1
  Mn  Mn1  1  0.49992000  0.00003000  0.50002700  1
  Mo  Mo0  1  0.50001300  0.49999600  0.49999600  1
  Mo  Mo1  1  0.99999700  0.50000100  0.50000000  1
  S  S0  1  0.73970400  0.73677200  0.73680300  1
  S  S1  1  0.25709300  0.26452200  0.72124900  1
  S  S2  1  0.25712200  0.72122600  0.26449600  1
  S  S3  1  0.71326200  0.26325800  0.26320200  1
  S  S4  1  0.74288100  0.27876200  0.73549900  1
  S  S5  1  0.28674800  0.73674700  0.73677800  1
  S  S6  1  0.26030500  0.26322200  0.26320000  1
  S  S7  1  0.74291000  0.73548900  0.27875900  1
loop_
_geom_bond_atom_site_label_1
_geom_bond_atom_site_label_2
_geom_bond_distance
_geom_bond_site_symmetry_2
Mg0 S4 2.452228 1_565
Mg0 S7 2.452244 1_556
Mg0 S5 2.466651 1_655
Mg0 S0 2.467011 1_555
Mg1 S1 2.452145 1_554
Mg1 S2 2.452222 1_545
Mg1 S3 2.466724 1_455
Mg1 S6 2.467039 1_555
Mn0 S0 2.488894 1_555
Mn0 S3 2.488919 1_556
Mn0 S6 2.488976 1_556
Mn0 S5 2.489234 1_555
Mn0 S4 2.551483 1_555
Mn0 S2 2.551586 1_556
Mn1 S6 2.488796 1_555
Mn1 S5 2.488940 1_545
Mn1 S0 2.489427 1_545
Mn1 S3 2.489484 1_555
Mn1 S1 2.551400 1_555
Mn1 S7 2.551898 1_545
Mo0 S5 2.488889 1_555
Mo0 S3 2.488892 1_555
Mo0 S4 2.499847 1_555
Mo0 S7 2.499871 1_555
Mo0 S1 2.499888 1_555
Mo0 S2 2.499960 1_555
Mo1 S0 2.488933 1_555
Mo1 S6 2.488965 1_655
Mo1 S7 2.499538 1_555
Mo1 S2 2.499614 1_655
Mo1 S1 2.499630 1_655
Mo1 S4 2.499636 1_555
