# generated using pymatgen
data_Ho5Si3C
_symmetry_space_group_name_H-M   'P 1'
_cell_length_a   6.33307100
_cell_length_b   8.43545943
_cell_length_c   8.43746351
_cell_angle_alpha   119.99213870
_cell_angle_beta   90.00000000
_cell_angle_gamma   90.00000000
_symmetry_Int_Tables_number   1
_chemical_formula_structural   Ho5Si3C
_chemical_formula_sum   'Ho10 Si6 C2'
_cell_volume   390.39121380
_cell_formula_units_Z   2
loop_
 _symmetry_equiv_pos_site_id
 _symmetry_equiv_pos_as_xyz
  1  'x, y, z'
loop_
 _atom_site_type_symbol
 _atom_site_label
 _atom_site_symmetry_multiplicity
 _atom_site_fract_x
 _atom_site_fract_y
 _atom_site_fract_z
 _atom_site_occupancy
  Ho  Ho0  1  0.50000100  0.33329100  0.66659900  1
  Ho  Ho1  1  0.50000100  0.66669200  0.33340100  1
  Ho  Ho2  1  0.00000100  0.66670900  0.33340100  1
  Ho  Ho3  1  0.00000100  0.33330800  0.66659900  1
  Ho  Ho4  1  0.74999700  0.22400300  0.00000000  1
  Ho  Ho5  1  0.75000200  0.77589900  0.77581700  1
  Ho  Ho6  1  0.75000200  0.00008200  0.22418300  1
  Ho  Ho7  1  0.24999700  0.77599700  0.00000000  1
  Ho  Ho8  1  0.25000200  0.22410100  0.22418300  1
  Ho  Ho9  1  0.25000200  0.99991800  0.77581700  1
  Si  Si0  1  0.75000500  0.59296100  0.00000000  1
  Si  Si1  1  0.74999600  0.40705100  0.40704200  1
  Si  Si2  1  0.74999600  0.00000900  0.59295800  1
  Si  Si3  1  0.25000500  0.40703900  0.00000000  1
  Si  Si4  1  0.24999600  0.59294900  0.59295800  1
  Si  Si5  1  0.24999600  0.99999100  0.40704200  1
  C  C0  1  0.50000100  0.99999400  0.00000000  1
  C  C1  1  0.00000100  0.00000600  0.00000000  1
loop_
_geom_bond_atom_site_label_1
_geom_bond_atom_site_label_2
_geom_bond_distance
_geom_bond_site_symmetry_2
Ho0 Si2 3.008351 1_555
Ho0 Si4 3.008504 1_555
Ho0 Si5 3.008635 1_545
Ho0 Si1 3.008683 1_555
Ho0 Si3 3.009548 1_556
Ho0 Si0 3.009612 1_556
Ho1 Si1 3.008351 1_555
Ho1 Si5 3.008504 1_555
Ho1 Si4 3.008635 1_555
Ho1 Si2 3.008683 1_565
Ho1 Si3 3.009548 1_555
Ho1 Si0 3.009612 1_555
Ho2 Si5 3.008351 1_555
Ho2 Si1 3.008504 1_455
Ho2 Si2 3.008635 1_465
Ho2 Si4 3.008683 1_555
Ho2 Si0 3.009548 1_455
Ho2 Si3 3.009612 1_555
Ho3 Si4 3.008351 1_555
Ho3 Si2 3.008504 1_455
Ho3 Si1 3.008635 1_455
Ho3 Si5 3.008683 1_545
Ho3 Si0 3.009548 1_456
Ho3 Si3 3.009612 1_556
Ho4 Si1 2.979524 1_555
Ho4 Si2 2.979524 1_554
Ho4 Si0 3.112330 1_555
Ho4 Si3 3.522860 1_555
Ho4 Si3 3.522951 1_655
Ho5 Si2 2.978316 1_565
Ho5 Si0 2.979518 1_556
Ho5 Si1 3.111834 1_555
Ho5 Si4 3.522546 1_655
Ho5 Si4 3.522614 1_555
Ho6 Si1 2.978316 1_555
Ho6 Si0 2.979519 1_545
Ho6 Si2 3.111833 1_555
Ho6 Si5 3.522546 1_645
Ho6 Si5 3.522614 1_545
Ho7 Si4 2.979524 1_554
Ho7 Si5 2.979524 1_555
Ho7 Si3 3.112330 1_555
Ho7 Si0 3.522860 1_455
Ho7 Si0 3.522951 1_555
Ho8 Si5 2.978316 1_545
Ho8 Si3 2.979518 1_555
Ho8 Si4 3.111834 1_555
Ho8 Si1 3.522546 1_555
Ho8 Si1 3.522614 1_455
Ho9 Si4 2.978316 1_555
Ho9 Si3 2.979519 1_566
Ho9 Si5 3.111833 1_555
Ho9 Si2 3.522546 1_565
Ho9 Si2 3.522614 1_465
C0 Ho7 2.465176 1_555
C0 Ho4 2.465221 1_565
C0 Ho6 2.466427 1_565
C0 Ho5 2.466427 1_554
C0 Ho9 2.466458 1_554
C0 Ho8 2.466458 1_565
C1 Ho4 2.465176 1_455
C1 Ho7 2.465221 1_545
C1 Ho9 2.466427 1_544
C1 Ho8 2.466427 1_555
C1 Ho6 2.466458 1_455
C1 Ho5 2.466458 1_444
