# generated using pymatgen
data_Bi4Te3N2
_symmetry_space_group_name_H-M   'P 1'
_cell_length_a   7.58445800
_cell_length_b   11.31630300
_cell_length_c   11.71350900
_cell_angle_alpha   90.00000000
_cell_angle_beta   90.00000000
_cell_angle_gamma   90.00000000
_symmetry_Int_Tables_number   1
_chemical_formula_structural   Bi4Te3N2
_chemical_formula_sum   'Bi16 Te12 N8'
_cell_volume   1005.34734117
_cell_formula_units_Z   4
loop_
 _symmetry_equiv_pos_site_id
 _symmetry_equiv_pos_as_xyz
  1  'x, y, z'
loop_
 _atom_site_type_symbol
 _atom_site_label
 _atom_site_symmetry_multiplicity
 _atom_site_fract_x
 _atom_site_fract_y
 _atom_site_fract_z
 _atom_site_occupancy
  Bi  Bi0  1  0.58497600  0.25000000  0.82457700  1
  Bi  Bi1  1  0.08497600  0.25000000  0.67542300  1
  Bi  Bi2  1  0.41502400  0.75000000  0.17542300  1
  Bi  Bi3  1  0.91502400  0.75000000  0.32457700  1
  Bi  Bi4  1  0.74891000  0.25000000  0.47248900  1
  Bi  Bi5  1  0.24891000  0.25000000  0.02751100  1
  Bi  Bi6  1  0.25109000  0.75000000  0.52751100  1
  Bi  Bi7  1  0.75109000  0.75000000  0.97248900  1
  Bi  Bi8  1  0.66249700  0.44658100  0.09675500  1
  Bi  Bi9  1  0.16249700  0.05341900  0.40324500  1
  Bi  Bi10  1  0.33750300  0.94658100  0.90324500  1
  Bi  Bi11  1  0.83750300  0.55341900  0.59675500  1
  Bi  Bi12  1  0.33750300  0.55341900  0.90324500  1
  Bi  Bi13  1  0.83750300  0.94658100  0.59675500  1
  Bi  Bi14  1  0.66249700  0.05341900  0.09675500  1
  Bi  Bi15  1  0.16249700  0.44658100  0.40324500  1
  Te  Te0  1  0.94485600  0.25000000  0.26021400  1
  Te  Te1  1  0.44485600  0.25000000  0.23978600  1
  Te  Te2  1  0.05514400  0.75000000  0.73978600  1
  Te  Te3  1  0.55514400  0.75000000  0.76021400  1
  Te  Te4  1  0.60412600  0.55921800  0.35821400  1
  Te  Te5  1  0.10412600  0.94078200  0.14178600  1
  Te  Te6  1  0.39587400  0.05921800  0.64178600  1
  Te  Te7  1  0.89587400  0.44078200  0.85821400  1
  Te  Te8  1  0.39587400  0.44078200  0.64178600  1
  Te  Te9  1  0.89587400  0.05921800  0.85821400  1
  Te  Te10  1  0.60412600  0.94078200  0.35821400  1
  Te  Te11  1  0.10412600  0.55921800  0.14178600  1
  N  N0  1  0.54649100  0.62236500  0.04133000  1
  N  N1  1  0.04649100  0.87763500  0.45867000  1
  N  N2  1  0.45350900  0.12236500  0.95867000  1
  N  N3  1  0.95350900  0.37763500  0.54133000  1
  N  N4  1  0.45350900  0.37763500  0.95867000  1
  N  N5  1  0.95350900  0.12236500  0.54133000  1
  N  N6  1  0.54649100  0.87763500  0.04133000  1
  N  N7  1  0.04649100  0.62236500  0.45867000  1
loop_
_geom_bond_atom_site_label_1
_geom_bond_atom_site_label_2
_geom_bond_distance
_geom_bond_site_symmetry_2
Bi0 N4 2.355309 1_555
Bi0 N2 2.355309 1_555
Bi0 Te9 3.221246 1_555
Bi0 Te7 3.221246 1_555
Bi0 Te8 3.361919 1_555
Bi0 Te6 3.361919 1_555
Bi1 N3 2.355309 1_455
Bi1 N5 2.355309 1_455
Bi1 Te8 3.221246 1_555
Bi1 Te6 3.221246 1_555
Bi1 Te7 3.361919 1_455
Bi1 Te9 3.361919 1_455
Bi2 N6 2.355309 1_555
Bi2 N0 2.355309 1_555
Bi2 Te5 3.221246 1_555
Bi2 Te11 3.221246 1_555
Bi2 Te4 3.361919 1_555
Bi2 Te10 3.361919 1_555
Bi3 N1 2.355309 1_655
Bi3 N7 2.355309 1_655
Bi3 Te10 3.221246 1_555
Bi3 Te4 3.221246 1_555
Bi3 Te5 3.361919 1_655
Bi3 Te11 3.361919 1_655
Bi4 N3 2.268126 1_555
Bi4 N5 2.268126 1_555
Bi4 Te0 2.896762 1_555
Bi5 N4 2.268126 1_554
Bi5 N2 2.268126 1_554
Bi5 Te1 2.896762 1_555
Bi6 N1 2.268126 1_555
Bi6 N7 2.268126 1_555
Bi6 Te2 2.896762 1_555
Bi7 N6 2.268126 1_556
Bi7 N0 2.268126 1_556
Bi7 Te3 2.896762 1_555
Bi8 N0 2.269940 1_555
Bi8 N4 2.395272 1_554
Bi8 Te1 3.237350 1_555
Bi8 Te7 3.308267 1_554
Bi8 Te4 3.346673 1_555
Bi9 N1 2.269940 1_545
Bi9 N5 2.395272 1_455
Bi9 Te0 3.237350 1_455
Bi9 Te6 3.308267 1_555
Bi9 Te5 3.346673 1_545
Bi10 N2 2.269940 1_565
Bi10 N6 2.395272 1_556
Bi10 Te3 3.237350 1_555
Bi10 Te5 3.308267 1_556
Bi10 Te6 3.346673 1_565
Bi11 N3 2.269940 1_555
Bi11 N7 2.395272 1_655
Bi11 Te2 3.237350 1_655
Bi11 Te4 3.308267 1_555
Bi11 Te7 3.346673 1_555
Bi12 N4 2.269940 1_555
Bi12 N0 2.395272 1_556
Bi12 Te3 3.237350 1_555
Bi12 Te11 3.308267 1_556
Bi12 Te8 3.346673 1_555
Bi13 N5 2.269940 1_565
Bi13 N1 2.395272 1_655
Bi13 Te2 3.237350 1_655
Bi13 Te10 3.308267 1_555
Bi13 Te9 3.346673 1_565
Bi14 N6 2.269940 1_545
Bi14 N2 2.395272 1_554
Bi14 Te1 3.237350 1_555
Bi14 Te9 3.308267 1_554
Bi14 Te10 3.346673 1_545
Bi15 N7 2.269940 1_555
Bi15 N3 2.395272 1_455
Bi15 Te0 3.237350 1_455
Bi15 Te8 3.308267 1_555
Bi15 Te11 3.346673 1_555
