# generated using pymatgen
data_H12C2N14O
_symmetry_space_group_name_H-M   'P 1'
_cell_length_a   9.07812100
_cell_length_b   3.82205100
_cell_length_c   16.06799259
_cell_angle_alpha   90.00000000
_cell_angle_beta   96.58186454
_cell_angle_gamma   90.00000000
_symmetry_Int_Tables_number   1
_chemical_formula_structural   H12C2N14O
_chemical_formula_sum   'H24 C4 N28 O2'
_cell_volume   553.83729830
_cell_formula_units_Z   2
loop_
 _symmetry_equiv_pos_site_id
 _symmetry_equiv_pos_as_xyz
  1  'x, y, z'
loop_
 _atom_site_type_symbol
 _atom_site_label
 _atom_site_symmetry_multiplicity
 _atom_site_fract_x
 _atom_site_fract_y
 _atom_site_fract_z
 _atom_site_occupancy
  H  H0  1  0.45024100  0.31414700  0.37145000  1
  H  H1  1  0.54975900  0.31414700  0.12855000  1
  H  H2  1  0.54975900  0.68585300  0.62855000  1
  H  H3  1  0.45024100  0.68585300  0.87145000  1
  H  H4  1  0.14304600  0.45954800  0.32749300  1
  H  H5  1  0.85695400  0.45954800  0.17250700  1
  H  H6  1  0.85695400  0.54045200  0.67250700  1
  H  H7  1  0.14304600  0.54045200  0.82749300  1
  H  H8  1  0.23429100  0.45723800  0.42812800  1
  H  H9  1  0.76570900  0.45723800  0.07187200  1
  H  H10  1  0.76570900  0.54276200  0.57187200  1
  H  H11  1  0.23429100  0.54276200  0.92812800  1
  H  H12  1  0.27939200  0.76862200  0.35585000  1
  H  H13  1  0.72060800  0.76862200  0.14415000  1
  H  H14  1  0.72060800  0.23137800  0.64415000  1
  H  H15  1  0.27939200  0.23137800  0.85585000  1
  H  H16  1  0.06179700  0.90046000  0.71840800  1
  H  H17  1  0.93820300  0.90046000  0.78159200  1
  H  H18  1  0.93820300  0.09954000  0.28159200  1
  H  H19  1  0.06179700  0.09954000  0.21840800  1
  H  H20  1  0.35706900  0.29867700  0.27698800  1
  H  H21  1  0.64293100  0.29867700  0.22301200  1
  H  H22  1  0.64293100  0.70132300  0.72301200  1
  H  H23  1  0.35706900  0.70132300  0.77698800  1
  C  C0  1  0.14321000  0.15213200  0.57261500  1
  C  C1  1  0.85679000  0.15213200  0.92738500  1
  C  C2  1  0.85679000  0.84786800  0.42738500  1
  C  C3  1  0.14321000  0.84786800  0.07261500  1
  N  N0  1  0.35258300  0.40755500  0.59382400  1
  N  N1  1  0.64741700  0.40755500  0.90617600  1
  N  N2  1  0.64741700  0.59244500  0.40617600  1
  N  N3  1  0.35258300  0.59244500  0.09382400  1
  N  N4  1  0.00985400  0.00515700  0.54002900  1
  N  N5  1  0.99014600  0.00515700  0.95997100  1
  N  N6  1  0.99014600  0.99484300  0.45997100  1
  N  N7  1  0.00985400  0.99484300  0.04002900  1
  N  N8  1  0.18157900  0.14942400  0.65635300  1
  N  N9  1  0.81842100  0.14942400  0.84364700  1
  N  N10  1  0.81842100  0.85057600  0.34364700  1
  N  N11  1  0.18157900  0.85057600  0.15635300  1
  N  N12  1  0.24833000  0.31207700  0.53294600  1
  N  N13  1  0.75167000  0.31207700  0.96705400  1
  N  N14  1  0.75167000  0.68792300  0.46705400  1
  N  N15  1  0.24833000  0.68792300  0.03294600  1
  N  N16  1  0.31296400  0.30835000  0.66822200  1
  N  N17  1  0.68703600  0.30835000  0.83177800  1
  N  N18  1  0.68703600  0.69165000  0.33177800  1
  N  N19  1  0.31296400  0.69165000  0.16822200  1
  N  N20  1  0.24450800  0.50836100  0.36386800  1
  N  N21  1  0.75549200  0.50836100  0.13613200  1
  N  N22  1  0.75549200  0.49163900  0.63613200  1
  N  N23  1  0.24450800  0.49163900  0.86386800  1
  N  N24  1  0.34850600  0.24969900  0.33928600  1
  N  N25  1  0.65149400  0.24969900  0.16071400  1
  N  N26  1  0.65149400  0.75030100  0.66071400  1
  N  N27  1  0.34850600  0.75030100  0.83928600  1
  O  O0  1  0.00000000  0.74281700  0.75000000  1
  O  O1  1  0.00000000  0.25718300  0.25000000  1
loop_
_geom_bond_atom_site_label_1
_geom_bond_atom_site_label_2
_geom_bond_distance
_geom_bond_site_symmetry_2
H0 N24 1.035044 1_555
H1 N25 1.035044 1_555
H2 N26 1.035044 1_555
H3 N27 1.035044 1_555
H4 N20 1.049475 1_555
H5 N21 1.049475 1_555
H6 N22 1.049475 1_555
H7 N23 1.049475 1_555
H8 N20 1.065295 1_555
H8 N12 1.763925 1_555
H9 N21 1.065295 1_555
H9 N13 1.763925 1_554
H10 N22 1.065295 1_555
H10 N14 1.763925 1_555
H11 N23 1.065295 1_555
H11 N15 1.763925 1_556
H12 N20 1.056280 1_555
H13 N21 1.056280 1_555
H14 N22 1.056280 1_555
H15 N23 1.056280 1_555
H16 O0 1.000356 1_555
H17 O0 1.000356 1_655
H18 O1 1.000356 1_655
H19 O1 1.000356 1_555
H20 N24 1.030016 1_555
H21 N25 1.030016 1_555
H22 N26 1.030016 1_555
H23 N27 1.030016 1_555
C0 N8 1.350692 1_555
C0 N12 1.352814 1_555
C0 N4 1.382027 1_555
C1 N9 1.350692 1_555
C1 N13 1.352814 1_555
C1 N5 1.382027 1_555
C2 N10 1.350692 1_555
C2 N14 1.352814 1_555
C2 N6 1.382027 1_555
C3 N11 1.350692 1_555
C3 N15 1.352814 1_555
C3 N7 1.382027 1_555
N0 N12 1.331729 1_555
N0 N16 1.341915 1_555
N1 N13 1.331729 1_555
N1 N17 1.341915 1_555
N4 N6 1.278888 1_445
N5 N7 1.278888 1_646
N10 N18 1.332588 1_555
N11 N19 1.332588 1_555
N14 N2 1.331729 1_555
N15 N3 1.331729 1_555
N16 N8 1.332588 1_555
N17 N9 1.332588 1_555
N18 N2 1.341915 1_555
N19 N3 1.341915 1_555
