# generated using pymatgen
data_UO4
_symmetry_space_group_name_H-M   'P 1'
_cell_length_a   4.24464093
_cell_length_b   5.75126394
_cell_length_c   5.75796970
_cell_angle_alpha   43.28359033
_cell_angle_beta   68.27406861
_cell_angle_gamma   68.44234106
_symmetry_Int_Tables_number   1
_chemical_formula_structural   UO4
_chemical_formula_sum   'U1 O4'
_cell_volume   88.46077789
_cell_formula_units_Z   1
loop_
 _symmetry_equiv_pos_site_id
 _symmetry_equiv_pos_as_xyz
  1  'x, y, z'
loop_
 _atom_site_type_symbol
 _atom_site_label
 _atom_site_symmetry_multiplicity
 _atom_site_fract_x
 _atom_site_fract_y
 _atom_site_fract_z
 _atom_site_occupancy
  U  U0  1  0.00000000  0.00000000  0.00000000  1
  O  O0  1  0.18722300  0.81277700  0.81277700  1
  O  O1  1  0.81277700  0.18722300  0.18722300  1
  O  O2  1  0.50000000  0.00000000  0.00000000  1
  O  O3  1  0.00000000  0.50000000  0.50000000  1
loop_
_geom_bond_atom_site_label_1
_geom_bond_atom_site_label_2
_geom_bond_distance
_geom_bond_site_symmetry_2
O0 U0 1.838493 1_566
O1 U0 1.838493 1_655
O2 U0 2.122320 1_655
O2 U0 2.122320 1_555
O3 U0 2.122320 1_556
O3 U0 2.122320 1_565
