# generated using pymatgen
data_Y3(FeRu2)2
_symmetry_space_group_name_H-M   'P 1'
_cell_length_a   5.24156069
_cell_length_b   5.20078948
_cell_length_c   13.10311694
_cell_angle_alpha   90.74864584
_cell_angle_beta   88.81115841
_cell_angle_gamma   117.91770132
_symmetry_Int_Tables_number   1
_chemical_formula_structural   Y3(FeRu2)2
_chemical_formula_sum   'Y6 Fe4 Ru8'
_cell_volume   315.55417429
_cell_formula_units_Z   2
loop_
 _symmetry_equiv_pos_site_id
 _symmetry_equiv_pos_as_xyz
  1  'x, y, z'
loop_
 _atom_site_type_symbol
 _atom_site_label
 _atom_site_symmetry_multiplicity
 _atom_site_fract_x
 _atom_site_fract_y
 _atom_site_fract_z
 _atom_site_occupancy
  Y  Y0  1  0.33208200  0.66601500  0.91589500  1
  Y  Y1  1  0.99662200  0.99733100  0.25057400  1
  Y  Y2  1  0.66586300  0.33408600  0.58360800  1
  Y  Y3  1  0.33413700  0.66591400  0.66639200  1
  Y  Y4  1  0.00337800  0.00266900  0.99942600  1
  Y  Y5  1  0.66791800  0.33398500  0.33410500  1
  Fe  Fe0  1  0.50000000  0.50000000  0.12500000  1
  Fe  Fe1  1  0.16826200  0.83597300  0.45863300  1
  Fe  Fe2  1  0.83173800  0.16402700  0.79136700  1
  Fe  Fe3  1  0.50000000  0.00000000  0.12500000  1
  Ru  Ru0  1  0.16963800  0.33767900  0.45567800  1
  Ru  Ru1  1  0.83036200  0.66232100  0.79432200  1
  Ru  Ru2  1  0.33555200  0.67140300  0.28795900  1
  Ru  Ru3  1  0.00000000  0.00000000  0.62500000  1
  Ru  Ru4  1  0.66444800  0.32859700  0.96204100  1
  Ru  Ru5  1  0.00000000  0.50000000  0.12500000  1
  Ru  Ru6  1  0.66765500  0.83476100  0.45832500  1
  Ru  Ru7  1  0.33234500  0.16523900  0.79167500  1
loop_
_geom_bond_atom_site_label_1
_geom_bond_atom_site_label_2
_geom_bond_distance
_geom_bond_site_symmetry_2
Fe0 Ru4 2.586584 1_554
Fe0 Ru2 2.586584 1_555
Fe0 Fe3 2.600395 1_555
Fe0 Fe3 2.600395 1_565
Fe0 Ru5 2.620780 1_655
Fe0 Ru5 2.620780 1_555
Fe0 Y5 3.146560 1_555
Fe0 Y0 3.146560 1_554
Fe0 Y4 3.152020 1_554
Fe0 Y1 3.152020 1_555
Fe0 Y4 3.158577 1_664
Fe0 Y1 3.158577 1_445
Fe1 Ru0 2.594688 1_555
Fe1 Ru0 2.606690 1_565
Fe1 Ru3 2.614154 1_565
Fe1 Ru6 2.620475 1_555
Fe1 Ru6 2.621103 1_455
Fe1 Ru2 2.659724 1_555
Fe1 Y5 3.132265 1_565
Fe1 Y1 3.132801 1_455
Fe1 Y3 3.135321 1_555
Fe1 Y2 3.150497 1_455
Fe1 Y2 3.151944 1_565
Fe1 Y5 3.164039 1_455
Fe2 Ru1 2.594688 1_555
Fe2 Ru1 2.606690 1_545
Fe2 Ru3 2.614154 1_655
Fe2 Ru7 2.620475 1_555
Fe2 Ru7 2.621103 1_655
Fe2 Ru4 2.659724 1_555
Fe2 Y0 3.132265 1_545
Fe2 Y4 3.132801 1_655
Fe2 Y2 3.135321 1_555
Fe2 Y3 3.150497 1_655
Fe2 Y3 3.151944 1_545
Fe2 Y0 3.164039 1_655
Fe3 Ru4 2.619641 1_554
Fe3 Ru2 2.619641 1_545
Fe3 Ru5 2.692374 1_545
Fe3 Ru5 2.692374 1_655
Fe3 Y4 3.074953 1_654
Fe3 Y1 3.074953 1_445
Fe3 Y4 3.113796 1_554
Fe3 Y1 3.113796 1_545
Fe3 Y5 3.137372 1_555
Fe3 Y0 3.137372 1_544
Ru0 Ru6 2.679707 1_555
Ru0 Ru2 2.684268 1_555
Ru0 Ru6 2.705496 1_445
Ru0 Ru3 2.712001 1_555
Ru0 Y5 3.038557 1_555
Ru0 Y2 3.090923 1_455
Ru0 Y5 3.095080 1_455
Ru0 Y1 3.106756 1_445
Ru0 Y2 3.130924 1_555
Ru0 Y3 3.142940 1_555
Ru1 Ru7 2.679707 1_555
Ru1 Ru4 2.684268 1_555
Ru1 Ru7 2.705496 1_665
Ru1 Ru3 2.712001 1_665
Ru1 Y0 3.038557 1_555
Ru1 Y3 3.090923 1_655
Ru1 Y0 3.095080 1_655
Ru1 Y4 3.106756 1_665
Ru1 Y3 3.130924 1_555
Ru1 Y2 3.142940 1_555
Ru2 Ru5 2.661843 1_555
Ru2 Ru6 2.731679 1_555
Ru2 Y1 3.024394 1_455
Ru2 Y5 3.068257 1_555
Ru2 Y1 3.093707 1_555
Ru2 Y5 3.105308 1_565
Ru2 Y1 3.137723 1_445
Ru2 Y5 3.143354 1_455
Ru3 Ru6 2.692544 1_445
Ru3 Ru7 2.692544 1_555
Ru3 Y3 3.048622 1_545
Ru3 Y2 3.048622 1_455
Ru3 Y2 3.109074 1_445
Ru3 Y3 3.109074 1_555
Ru3 Y2 3.124398 1_555
Ru3 Y3 3.124398 1_445
Ru4 Ru5 2.661843 1_656
Ru4 Ru7 2.731679 1_555
Ru4 Y4 3.024394 1_655
Ru4 Y0 3.068257 1_555
Ru4 Y4 3.093707 1_555
Ru4 Y0 3.105308 1_545
Ru4 Y4 3.137723 1_665
Ru4 Y0 3.143354 1_655
Ru5 Y4 3.054211 1_554
Ru5 Y1 3.054211 1_455
Ru5 Y4 3.099997 1_564
Ru5 Y1 3.099997 1_445
Ru5 Y5 3.120750 1_455
Ru5 Y0 3.120750 1_554
Ru6 Y5 3.053663 1_555
Ru6 Y2 3.057702 1_565
Ru6 Y5 3.081782 1_565
Ru6 Y2 3.092477 1_555
Ru6 Y1 3.098155 1_555
Ru6 Y3 3.112447 1_555
Ru7 Y0 3.053663 1_555
Ru7 Y3 3.057702 1_545
Ru7 Y0 3.081782 1_545
Ru7 Y3 3.092477 1_555
Ru7 Y4 3.098155 1_555
Ru7 Y2 3.112447 1_555
