# generated using pymatgen
data_U(GaCu3)2
_symmetry_space_group_name_H-M   'P 1'
_cell_length_a   6.49437087
_cell_length_b   6.49437087
_cell_length_c   6.49437038
_cell_angle_alpha   84.37847542
_cell_angle_beta   84.37847542
_cell_angle_gamma   84.37847884
_symmetry_Int_Tables_number   1
_chemical_formula_structural   U(GaCu3)2
_chemical_formula_sum   'U2 Ga4 Cu12'
_cell_volume   270.20194469
_cell_formula_units_Z   2
loop_
 _symmetry_equiv_pos_site_id
 _symmetry_equiv_pos_as_xyz
  1  'x, y, z'
loop_
 _atom_site_type_symbol
 _atom_site_label
 _atom_site_symmetry_multiplicity
 _atom_site_fract_x
 _atom_site_fract_y
 _atom_site_fract_z
 _atom_site_occupancy
  U  U0  1  0.34593000  0.34593000  0.34593000  1
  U  U1  1  0.65115700  0.65115700  0.65115700  1
  Ga  Ga0  1  0.99312500  0.52364400  0.99312500  1
  Ga  Ga1  1  0.52364400  0.99312500  0.99312500  1
  Ga  Ga2  1  0.99312500  0.99312500  0.52364400  1
  Ga  Ga3  1  0.06793100  0.06793100  0.06793100  1
  Cu  Cu0  1  0.30711800  0.00191700  0.69858500  1
  Cu  Cu1  1  0.00191700  0.69858500  0.30711800  1
  Cu  Cu2  1  0.69858500  0.30711800  0.00191700  1
  Cu  Cu3  1  0.00191700  0.30711800  0.69858500  1
  Cu  Cu4  1  0.30711800  0.69858500  0.00191700  1
  Cu  Cu5  1  0.69858500  0.00191700  0.30711800  1
  Cu  Cu6  1  0.34906400  0.34906400  0.84725900  1
  Cu  Cu7  1  0.34906400  0.84725900  0.34906400  1
  Cu  Cu8  1  0.84725900  0.34906400  0.34906400  1
  Cu  Cu9  1  0.65030900  0.65030900  0.16694300  1
  Cu  Cu10  1  0.65030900  0.16694300  0.65030900  1
  Cu  Cu11  1  0.16694300  0.65030900  0.65030900  1
loop_
_geom_bond_atom_site_label_1
_geom_bond_atom_site_label_2
_geom_bond_distance
_geom_bond_site_symmetry_2
Ga0 Ga3 2.951941 1_656
Ga0 U1 3.285719 1_555
Ga0 U0 3.438606 1_656
Ga1 Ga3 2.951941 1_566
Ga1 U1 3.285719 1_555
Ga1 U0 3.438606 1_566
Ga2 Ga3 2.951940 1_665
Ga2 U1 3.285719 1_555
Ga2 U0 3.438606 1_665
Ga3 U0 3.419722 1_555
Cu0 Ga2 2.437570 1_445
Cu0 Ga1 2.475785 1_545
Cu0 Cu10 2.545538 1_555
Cu0 Cu7 2.550978 1_545
Cu0 Cu6 2.586036 1_555
Cu0 Cu11 2.597058 1_545
Cu0 Cu4 2.645964 1_546
Cu0 Cu3 2.662268 1_555
Cu0 Ga3 2.773336 1_556
Cu0 U1 3.046583 1_545
Cu0 U0 3.048782 1_555
Cu1 Ga0 2.437570 1_454
Cu1 Ga2 2.475785 1_455
Cu1 Cu11 2.545538 1_555
Cu1 Cu8 2.550979 1_455
Cu1 Cu7 2.586036 1_555
Cu1 Cu9 2.597058 1_455
Cu1 Cu5 2.645964 1_465
Cu1 Cu4 2.662268 1_555
Cu1 Ga3 2.773336 1_565
Cu1 U1 3.046582 1_455
Cu1 U0 3.048783 1_555
Cu2 Ga1 2.437570 1_544
Cu2 Ga0 2.475785 1_554
Cu2 Cu9 2.545538 1_555
Cu2 Cu6 2.550979 1_554
Cu2 Cu8 2.586036 1_555
Cu2 Cu3 2.645964 1_654
Cu2 Cu5 2.662268 1_555
Cu2 Ga3 2.773336 1_655
Cu2 U1 3.046582 1_554
Cu2 U0 3.048783 1_555
Cu3 Ga2 2.437570 1_445
Cu3 Ga0 2.475785 1_455
Cu3 Cu8 2.550978 1_455
Cu3 Cu6 2.586036 1_555
Cu3 Ga3 2.773336 1_556
Cu3 U1 3.046583 1_455
Cu3 U0 3.048782 1_555
Cu4 Ga0 2.437570 1_454
Cu4 Ga1 2.475785 1_554
Cu4 Cu9 2.545538 1_555
Cu4 Cu6 2.550979 1_554
Cu4 Cu7 2.586036 1_555
Cu4 Ga3 2.773336 1_565
Cu4 U1 3.046582 1_554
Cu4 U0 3.048783 1_555
Cu5 Ga1 2.437570 1_544
Cu5 Ga2 2.475785 1_545
Cu5 Cu7 2.550979 1_545
Cu5 Cu8 2.586036 1_555
Cu5 Cu9 2.597058 1_545
Cu5 Ga3 2.773336 1_655
Cu5 U1 3.046582 1_545
Cu5 U0 3.048783 1_555
Cu6 Ga1 2.606589 1_545
Cu6 Ga0 2.606589 1_455
Cu6 Ga3 2.889401 1_556
Cu6 U1 3.015817 1_555
Cu6 U0 3.234705 1_556
Cu6 U0 3.259941 1_555
Cu7 Cu9 2.493036 1_555
Cu7 Ga1 2.606589 1_554
Cu7 Ga2 2.606589 1_455
Cu7 Ga3 2.889401 1_565
Cu7 U1 3.015817 1_555
Cu7 U0 3.234705 1_565
Cu7 U0 3.259941 1_555
Cu8 Cu9 2.493036 1_555
Cu8 Ga0 2.606589 1_554
Cu8 Ga2 2.606589 1_545
Cu8 Ga3 2.889401 1_655
Cu8 U1 3.015817 1_555
Cu8 U0 3.234705 1_655
Cu8 U0 3.259941 1_555
Cu9 Ga1 2.497689 1_554
Cu9 Ga0 2.497689 1_554
Cu9 U0 3.005242 1_555
Cu9 U1 3.145754 1_555
Cu9 U1 3.348636 1_554
Cu10 Cu8 2.493035 1_555
Cu10 Cu6 2.493036 1_555
Cu10 Ga1 2.497689 1_545
Cu10 Ga2 2.497689 1_545
Cu10 Cu5 2.545538 1_555
Cu10 Cu2 2.597058 1_556
Cu10 Cu3 2.597058 1_655
Cu10 U0 3.005242 1_555
Cu10 U1 3.145755 1_555
Cu10 U1 3.348636 1_545
Cu11 Cu7 2.493035 1_555
Cu11 Cu6 2.493036 1_555
Cu11 Ga0 2.497689 1_455
Cu11 Ga2 2.497689 1_455
Cu11 Cu3 2.545538 1_555
Cu11 Cu4 2.597058 1_556
Cu11 U0 3.005242 1_555
Cu11 U1 3.145755 1_555
Cu11 U1 3.348636 1_455
