# generated using pymatgen
data_Be3Fe4Si3TeO12
_symmetry_space_group_name_H-M   'P 1'
_cell_length_a   8.43196111
_cell_length_b   8.45460311
_cell_length_c   8.44683689
_cell_angle_alpha   90.33520911
_cell_angle_beta   90.50504025
_cell_angle_gamma   89.74880128
_symmetry_Int_Tables_number   1
_chemical_formula_structural   Be3Fe4Si3TeO12
_chemical_formula_sum   'Be6 Fe8 Si6 Te2 O24'
_cell_volume   602.12622964
_cell_formula_units_Z   2
loop_
 _symmetry_equiv_pos_site_id
 _symmetry_equiv_pos_as_xyz
  1  'x, y, z'
loop_
 _atom_site_type_symbol
 _atom_site_label
 _atom_site_symmetry_multiplicity
 _atom_site_fract_x
 _atom_site_fract_y
 _atom_site_fract_z
 _atom_site_occupancy
  Be  Be0  1  0.99908900  0.75004700  0.50241600  1
  Be  Be1  1  0.25092500  0.50169600  0.00113600  1
  Be  Be2  1  0.49995600  0.00016100  0.74956300  1
  Be  Be3  1  0.49834600  0.00092900  0.24926200  1
  Be  Be4  1  0.99944600  0.25035200  0.50018600  1
  Be  Be5  1  0.75097900  0.49930200  0.99782800  1
  Fe  Fe0  1  0.81718400  0.80998900  0.18431300  1
  Fe  Fe1  1  0.68328500  0.31037800  0.31425900  1
  Fe  Fe2  1  0.18605300  0.80879900  0.81742400  1
  Fe  Fe3  1  0.81066500  0.18480800  0.81566600  1
  Fe  Fe4  1  0.30918000  0.68221800  0.31315200  1
  Fe  Fe5  1  0.68247500  0.69021200  0.68667100  1
  Fe  Fe6  1  0.18436700  0.18434800  0.19087800  1
  Fe  Fe7  1  0.31932500  0.31060700  0.68740300  1
  Si  Si0  1  0.00170500  0.49820400  0.24981500  1
  Si  Si1  1  0.50040000  0.25184300  0.00090300  1
  Si  Si2  1  0.50154200  0.75191700  0.99956400  1
  Si  Si3  1  0.99904300  0.49954800  0.74906400  1
  Si  Si4  1  0.75017600  0.00143700  0.50060500  1
  Si  Si5  1  0.24954500  0.99756000  0.49806000  1
  Te  Te0  1  0.49923600  0.49980400  0.49998500  1
  Te  Te1  1  0.99995700  0.99933100  0.00021900  1
  O  O0  1  0.42359800  0.85715200  0.85426800  1
  O  O1  1  0.35762600  0.35992600  0.92191000  1
  O  O2  1  0.14875600  0.42338200  0.14576700  1
  O  O3  1  0.64493700  0.64399600  0.92266900  1
  O  O4  1  0.14622900  0.85499800  0.57803700  1
  O  O5  1  0.85599100  0.14613400  0.57773300  1
  O  O6  1  0.92182500  0.64554500  0.64572300  1
  O  O7  1  0.85509900  0.42170500  0.85290700  1
  O  O8  1  0.35844000  0.07782400  0.63982300  1
  O  O9  1  0.85538100  0.85720900  0.42256400  1
  O  O10  1  0.14105500  0.57735700  0.85955000  1
  O  O11  1  0.64398700  0.92398200  0.64331200  1
  O  O12  1  0.07870900  0.35675600  0.64328200  1
  O  O13  1  0.42258400  0.14773700  0.14410100  1
  O  O14  1  0.57651500  0.14301800  0.85777400  1
  O  O15  1  0.35411600  0.92210400  0.35195500  1
  O  O16  1  0.07620700  0.64181300  0.35964100  1
  O  O17  1  0.14021100  0.14083100  0.42247600  1
  O  O18  1  0.64615600  0.35758000  0.07703400  1
  O  O19  1  0.86051500  0.57716900  0.13970500  1
  O  O20  1  0.92279700  0.35476400  0.35271400  1
  O  O21  1  0.35730300  0.64750500  0.07647400  1
  O  O22  1  0.63998500  0.07866500  0.35890300  1
  O  O23  1  0.57909900  0.85935600  0.14330800  1
loop_
_geom_bond_atom_site_label_1
_geom_bond_atom_site_label_2
_geom_bond_distance
_geom_bond_site_symmetry_2
Be0 O6 1.643715 1_555
Be0 O16 1.646305 1_655
Be0 O4 1.650358 1_655
Be0 O9 1.651434 1_555
Be1 O10 1.637674 1_554
Be1 O1 1.638821 1_554
Be1 O2 1.645011 1_555
Be1 O21 1.649143 1_555
Be2 O0 1.639516 1_545
Be2 O14 1.641491 1_555
Be2 O8 1.641645 1_555
Be2 O11 1.643415 1_545
Be3 O23 1.639619 1_545
Be3 O22 1.642025 1_555
Be3 O15 1.645612 1_545
Be3 O13 1.653379 1_555
Be4 O17 1.641353 1_655
Be4 O12 1.641722 1_655
Be4 O5 1.642757 1_555
Be4 O20 1.656002 1_555
Be5 O3 1.639682 1_555
Be5 O18 1.641223 1_556
Be5 O19 1.642932 1_556
Be5 O7 1.644431 1_555
Fe0 O19 2.034087 1_555
Fe0 O9 2.072062 1_555
Fe0 O23 2.075189 1_555
Fe0 Te1 2.729242 1_555
Fe1 O22 2.032410 1_555
Fe1 O18 2.066324 1_555
Fe1 O20 2.078123 1_555
Fe1 Te0 2.725087 1_555
Fe2 O10 2.028912 1_555
Fe2 O0 2.066535 1_555
Fe2 O4 2.085709 1_555
Fe2 Te1 2.726290 1_456
Fe3 O14 2.041896 1_555
Fe3 O7 2.061055 1_555
Fe3 O5 2.072910 1_555
Fe3 Te1 2.720206 1_546
Fe4 O16 2.037374 1_555
Fe4 O21 2.062498 1_555
Fe4 O15 2.088329 1_555
Fe4 Te0 2.720188 1_555
Fe5 O11 2.036294 1_555
Fe5 O3 2.061061 1_555
Fe5 O6 2.083130 1_555
Fe5 Te0 2.722966 1_555
Fe6 O17 2.030627 1_555
Fe6 O13 2.072114 1_555
Fe6 O2 2.078754 1_555
Fe6 Te1 2.721397 1_445
Fe7 O8 2.032502 1_555
Fe7 O1 2.045028 1_555
Fe7 O12 2.094958 1_555
Fe7 Te0 2.731188 1_555
O0 Si2 1.650217 1_555
O1 Si1 1.647075 1_556
O2 Si0 1.647982 1_555
O3 Si2 1.647290 1_555
O4 Si5 1.642302 1_555
O5 Si4 1.645328 1_555
O6 Si3 1.644702 1_555
O7 Si3 1.645657 1_555
O8 Si5 1.647435 1_545
O9 Si4 1.643105 1_565
O10 Si3 1.648518 1_455
O11 Si4 1.648329 1_565
O12 Si3 1.642535 1_455
O13 Si1 1.643107 1_555
O14 Si1 1.647900 1_556
O15 Si5 1.646981 1_555
O16 Si0 1.647009 1_555
O17 Si5 1.647313 1_545
O18 Si1 1.646859 1_555
O19 Si0 1.645859 1_655
O20 Si0 1.642699 1_655
O21 Si2 1.646374 1_554
O22 Si4 1.645134 1_555
O23 Si2 1.644783 1_554
