# generated using pymatgen
data_Ti(SiO3)2
_symmetry_space_group_name_H-M   'P 1'
_cell_length_a   5.09226100
_cell_length_b   10.89166300
_cell_length_c   18.67681000
_cell_angle_alpha   90.00000000
_cell_angle_beta   90.00000000
_cell_angle_gamma   90.00000000
_symmetry_Int_Tables_number   1
_chemical_formula_structural   Ti(SiO3)2
_chemical_formula_sum   'Ti8 Si16 O48'
_cell_volume   1035.87547507
_cell_formula_units_Z   8
loop_
 _symmetry_equiv_pos_site_id
 _symmetry_equiv_pos_as_xyz
  1  'x, y, z'
loop_
 _atom_site_type_symbol
 _atom_site_label
 _atom_site_symmetry_multiplicity
 _atom_site_fract_x
 _atom_site_fract_y
 _atom_site_fract_z
 _atom_site_occupancy
  Ti  Ti0  1  0.44049800  0.54311300  0.37362900  1
  Ti  Ti1  1  0.55950200  0.45688700  0.62637100  1
  Ti  Ti2  1  0.94049800  0.45688700  0.12637100  1
  Ti  Ti3  1  0.05950200  0.54311300  0.87362900  1
  Ti  Ti4  1  0.44049800  0.04311300  0.12637100  1
  Ti  Ti5  1  0.55950200  0.95688700  0.87362900  1
  Ti  Ti6  1  0.94049800  0.95688700  0.37362900  1
  Ti  Ti7  1  0.05950200  0.04311300  0.62637100  1
  Si  Si0  1  0.62446400  0.16993600  0.27656500  1
  Si  Si1  1  0.76380000  0.32806900  0.97377800  1
  Si  Si2  1  0.73620000  0.32806900  0.47377800  1
  Si  Si3  1  0.87553600  0.66993600  0.72343500  1
  Si  Si4  1  0.12446400  0.83006400  0.22343500  1
  Si  Si5  1  0.37553600  0.33006400  0.77656500  1
  Si  Si6  1  0.26380000  0.17193100  0.97377800  1
  Si  Si7  1  0.76380000  0.82806900  0.52622200  1
  Si  Si8  1  0.73620000  0.82806900  0.02622200  1
  Si  Si9  1  0.87553600  0.16993600  0.77656500  1
  Si  Si10  1  0.37553600  0.83006400  0.72343500  1
  Si  Si11  1  0.62446400  0.66993600  0.22343500  1
  Si  Si12  1  0.23620000  0.67193100  0.02622200  1
  Si  Si13  1  0.12446400  0.33006400  0.27656500  1
  Si  Si14  1  0.23620000  0.17193100  0.47377800  1
  Si  Si15  1  0.26380000  0.67193100  0.52622200  1
  O  O0  1  0.79731700  0.04896200  0.82390600  1
  O  O1  1  0.33678900  0.55235200  0.57509800  1
  O  O2  1  0.20268300  0.95103800  0.17609400  1
  O  O3  1  0.77956400  0.86138100  0.44088700  1
  O  O4  1  0.27956400  0.63861900  0.44088700  1
  O  O5  1  0.96574100  0.71580500  0.54498400  1
  O  O6  1  0.87285100  0.13431900  0.69117600  1
  O  O7  1  0.12714900  0.36568100  0.19117600  1
  O  O8  1  0.77956400  0.36138100  0.05911300  1
  O  O9  1  0.87285100  0.63431900  0.80882400  1
  O  O10  1  0.29731700  0.95103800  0.67609400  1
  O  O11  1  0.72043600  0.86138100  0.94088700  1
  O  O12  1  0.66321100  0.44764800  0.42490200  1
  O  O13  1  0.37285100  0.36568100  0.69117600  1
  O  O14  1  0.70268300  0.54896200  0.17609400  1
  O  O15  1  0.33678900  0.05235200  0.92490200  1
  O  O16  1  0.29731700  0.45103800  0.82390600  1
  O  O17  1  0.17032100  0.21893300  0.79535200  1
  O  O18  1  0.32967900  0.21893300  0.29535200  1
  O  O19  1  0.53425900  0.21580500  0.45501600  1
  O  O20  1  0.72043600  0.36138100  0.55911300  1
  O  O21  1  0.62714900  0.13431900  0.19117600  1
  O  O22  1  0.83678900  0.94764800  0.57509800  1
  O  O23  1  0.17032100  0.71893300  0.70464800  1
  O  O24  1  0.22043600  0.63861900  0.94088700  1
  O  O25  1  0.62714900  0.63431900  0.30882400  1
  O  O26  1  0.66321100  0.94764800  0.07509800  1
  O  O27  1  0.27956400  0.13861900  0.05911300  1
  O  O28  1  0.16321100  0.05235200  0.42490200  1
  O  O29  1  0.67032100  0.28106700  0.79535200  1
  O  O30  1  0.20268300  0.45103800  0.32390600  1
  O  O31  1  0.82967900  0.28106700  0.29535200  1
  O  O32  1  0.82967900  0.78106700  0.20464800  1
  O  O33  1  0.83678900  0.44764800  0.92490200  1
  O  O34  1  0.22043600  0.13861900  0.55911300  1
  O  O35  1  0.16321100  0.55235200  0.07509800  1
  O  O36  1  0.32967900  0.71893300  0.20464800  1
  O  O37  1  0.03425900  0.28419500  0.45501600  1
  O  O38  1  0.46574100  0.28419500  0.95501600  1
  O  O39  1  0.67032100  0.78106700  0.70464800  1
  O  O40  1  0.46574100  0.78419500  0.54498400  1
  O  O41  1  0.53425900  0.71580500  0.04498400  1
  O  O42  1  0.03425900  0.78419500  0.04498400  1
  O  O43  1  0.37285100  0.86568100  0.80882400  1
  O  O44  1  0.70268300  0.04896200  0.32390600  1
  O  O45  1  0.96574100  0.21580500  0.95501600  1
  O  O46  1  0.12714900  0.86568100  0.30882400  1
  O  O47  1  0.79731700  0.54896200  0.67609400  1
loop_
_geom_bond_atom_site_label_1
_geom_bond_atom_site_label_2
_geom_bond_distance
_geom_bond_site_symmetry_2
O0 Si9 1.636006 1_555
O0 Ti5 1.826113 1_545
O1 Si15 1.633315 1_555
O1 Ti1 1.812282 1_555
O2 Si4 1.636006 1_555
O2 Ti4 1.826113 1_565
O3 Si7 1.636532 1_555
O3 Ti6 1.825271 1_555
O4 Si15 1.636532 1_555
O4 Ti0 1.825271 1_555
O5 Si15 1.629368 1_655
O5 Si7 1.635654 1_555
O6 Si9 1.641354 1_555
O6 Ti7 1.831711 1_655
O7 Si13 1.641354 1_555
O7 Ti2 1.831711 1_455
O8 Si1 1.636532 1_554
O8 Ti2 1.825271 1_555
O9 Si3 1.641354 1_555
O9 Ti3 1.831711 1_655
O10 Si10 1.636006 1_555
O10 Ti7 1.826113 1_565
O11 Si8 1.636532 1_556
O11 Ti5 1.825271 1_555
O12 Si2 1.633315 1_555
O12 Ti0 1.812282 1_555
O13 Si5 1.641354 1_555
O13 Ti1 1.831711 1_555
O14 Si11 1.636006 1_555
O14 Ti2 1.826113 1_555
O15 Si6 1.633315 1_555
O15 Ti5 1.812282 1_545
O16 Si5 1.636006 1_555
O16 Ti3 1.826113 1_555
O17 Si9 1.631342 1_455
O17 Si5 1.637141 1_555
O18 Si0 1.631342 1_555
O18 Si13 1.637141 1_555
O19 Si14 1.629368 1_555
O19 Si2 1.635654 1_555
O20 Si2 1.636532 1_555
O20 Ti1 1.825271 1_555
O21 Si0 1.641354 1_555
O21 Ti4 1.831711 1_555
O22 Si7 1.633315 1_555
O22 Ti7 1.812282 1_665
O23 Si3 1.631342 1_455
O23 Si10 1.637141 1_555
O24 Si12 1.636532 1_556
O24 Ti3 1.825271 1_555
O25 Si11 1.641354 1_555
O25 Ti0 1.831711 1_555
O26 Si8 1.633315 1_555
O26 Ti4 1.812282 1_565
O27 Si6 1.636532 1_554
O27 Ti4 1.825271 1_555
O28 Si14 1.633315 1_555
O28 Ti6 1.812282 1_445
O29 Si5 1.631342 1_555
O29 Si9 1.637141 1_555
O30 Si13 1.636006 1_555
O30 Ti0 1.826113 1_555
O31 Si13 1.631342 1_655
O31 Si0 1.637141 1_555
O32 Si4 1.631342 1_655
O32 Si11 1.637141 1_555
O33 Si1 1.633315 1_555
O33 Ti3 1.812282 1_655
O34 Si14 1.636532 1_555
O34 Ti7 1.825271 1_555
O35 Si12 1.633315 1_555
O35 Ti2 1.812282 1_455
O36 Si11 1.631342 1_555
O36 Si4 1.637141 1_555
O37 Si2 1.629368 1_455
O37 Si14 1.635654 1_555
O38 Si1 1.629368 1_555
O38 Si6 1.635654 1_555
O39 Si10 1.631342 1_555
O39 Si3 1.637141 1_555
O40 Si7 1.629368 1_555
O40 Si15 1.635654 1_555
O41 Si12 1.629368 1_555
O41 Si8 1.635654 1_555
O42 Si8 1.629368 1_455
O42 Si12 1.635654 1_555
O43 Si10 1.641354 1_555
O43 Ti5 1.831711 1_555
O44 Si0 1.636006 1_555
O44 Ti6 1.826113 1_545
O45 Si6 1.629368 1_655
O45 Si1 1.635654 1_555
O46 Si4 1.641354 1_555
O46 Ti6 1.831711 1_455
O47 Si3 1.636006 1_555
O47 Ti1 1.826113 1_555
