# generated using pymatgen
data_Nd4Zn3Au5
_symmetry_space_group_name_H-M   'P 1'
_cell_length_a   4.61965137
_cell_length_b   7.16513771
_cell_length_c   7.97868924
_cell_angle_alpha   89.66121246
_cell_angle_beta   90.00000000
_cell_angle_gamma   90.00000000
_symmetry_Int_Tables_number   1
_chemical_formula_structural   Nd4Zn3Au5
_chemical_formula_sum   'Nd4 Zn3 Au5'
_cell_volume   264.09349380
_cell_formula_units_Z   1
loop_
 _symmetry_equiv_pos_site_id
 _symmetry_equiv_pos_as_xyz
  1  'x, y, z'
loop_
 _atom_site_type_symbol
 _atom_site_label
 _atom_site_symmetry_multiplicity
 _atom_site_fract_x
 _atom_site_fract_y
 _atom_site_fract_z
 _atom_site_occupancy
  Nd  Nd0  1  0.50000000  0.50436063  0.78803787  1
  Nd  Nd1  1  0.50000000  0.00166176  0.71754425  1
  Nd  Nd2  1  0.00000000  0.48989940  0.21283939  1
  Nd  Nd3  1  0.00000000  0.99412610  0.28144705  1
  Zn  Zn0  1  0.50000000  0.69503591  0.41958279  1
  Zn  Zn1  1  0.00000000  0.79868232  0.91913752  1
  Zn  Zn2  1  0.00000000  0.31091748  0.57594918  1
  Au  Au0  1  0.50000000  0.77269480  0.08783022  1
  Au  Au1  1  0.50000000  0.28827098  0.43034548  1
  Au  Au2  1  -0.00000000  0.21606701  0.89296486  1
  Au  Au3  1  -0.00000000  0.71861725  0.58679909  1
  Au  Au4  1  0.50000000  0.20966536  0.08752229  1
loop_
_geom_bond_atom_site_label_1
_geom_bond_atom_site_label_2
_geom_bond_distance
_geom_bond_site_symmetry_2
Nd0 Zn2 3.185540 1_555
Nd0 Zn2 3.185540 1_655
Nd0 Zn0 3.234409 1_555
Nd0 Zn1 3.301935 1_555
Nd0 Zn1 3.301935 1_655
Nd1 Zn1 3.163851 1_545
Nd1 Zn1 3.163851 1_645
Nd1 Zn0 3.246599 1_545
Nd1 Zn2 3.389992 1_655
Nd1 Zn2 3.389992 1_555
Nd2 Zn2 3.161346 1_555
Nd2 Zn0 3.200837 1_455
Nd2 Zn0 3.200837 1_555
Nd2 Zn1 3.213260 1_554
Nd3 Zn1 3.219535 1_554
Nd3 Zn2 3.276674 1_565
Nd3 Zn0 3.333860 1_455
Nd3 Zn0 3.333860 1_555
Au0 Zn1 2.679286 1_654
Au0 Zn1 2.679286 1_554
Au0 Zn0 2.701583 1_555
Au0 Nd0 3.077726 1_554
Au0 Au4 3.130941 1_565
Au0 Nd3 3.204367 1_655
Au0 Nd3 3.204367 1_555
Au0 Nd2 3.226760 1_655
Au0 Nd2 3.226760 1_555
Au0 Nd1 3.370852 1_564
Au1 Zn2 2.591035 1_555
Au1 Zn2 2.591035 1_655
Au1 Au4 2.795924 1_555
Au1 Zn0 2.915284 1_555
Au1 Nd1 3.067969 1_555
Au1 Nd2 3.225593 1_555
Au1 Nd2 3.225593 1_655
Au1 Nd0 3.254899 1_555
Au1 Nd3 3.349360 1_545
Au1 Nd3 3.349360 1_645
Au2 Zn2 2.615198 1_555
Au2 Au4 2.783206 1_456
Au2 Au4 2.783206 1_556
Au2 Zn1 2.996669 1_545
Au2 Nd1 3.111225 1_555
Au2 Nd1 3.111225 1_455
Au2 Nd0 3.206662 1_455
Au2 Nd0 3.206662 1_555
Au2 Nd2 3.228384 1_556
Au2 Nd3 3.475335 1_546
Au3 Zn0 2.673296 1_455
Au3 Zn0 2.673296 1_555
Au3 Zn1 2.716286 1_555
Au3 Zn2 2.923019 1_555
Au3 Nd3 3.126601 1_555
Au3 Nd0 3.200147 1_455
Au3 Nd0 3.200147 1_555
Au3 Nd1 3.249850 1_565
Au3 Nd1 3.249850 1_465
Au3 Nd2 3.412622 1_555
Au4 Nd3 3.175868 1_545
Au4 Nd3 3.175868 1_645
Au4 Nd0 3.179399 1_554
Au4 Nd2 3.223429 1_555
Au4 Nd2 3.223429 1_655
Au4 Nd1 3.314693 1_554
