# generated using pymatgen
data_Ca(MnS2)4
_symmetry_space_group_name_H-M   'P 1'
_cell_length_a   7.81519059
_cell_length_b   7.81519059
_cell_length_c   7.81519127
_cell_angle_alpha   52.81862158
_cell_angle_beta   52.81862158
_cell_angle_gamma   52.81862363
_symmetry_Int_Tables_number   1
_chemical_formula_structural   Ca(MnS2)4
_chemical_formula_sum   'Ca1 Mn4 S8'
_cell_volume   280.67719582
_cell_formula_units_Z   1
loop_
 _symmetry_equiv_pos_site_id
 _symmetry_equiv_pos_as_xyz
  1  'x, y, z'
loop_
 _atom_site_type_symbol
 _atom_site_label
 _atom_site_symmetry_multiplicity
 _atom_site_fract_x
 _atom_site_fract_y
 _atom_site_fract_z
 _atom_site_occupancy
  Ca  Ca0  1  0.50000000  0.50000000  0.50000000  1
  Mn  Mn0  1  0.00000000  0.50000000  0.50000000  1
  Mn  Mn1  1  0.50000000  -0.00000000  0.50000000  1
  Mn  Mn2  1  0.50000000  0.50000000  -0.00000000  1
  Mn  Mn3  1  0.00000000  -0.00000000  -0.00000000  1
  S  S0  1  0.27857469  0.76187910  0.76187910  1
  S  S1  1  0.23812090  0.23812090  0.72142531  1
  S  S2  1  0.72142531  0.23812090  0.23812090  1
  S  S3  1  0.23812090  0.72142531  0.23812090  1
  S  S4  1  0.26930985  0.26930985  0.26930985  1
  S  S5  1  0.73069015  0.73069015  0.73069015  1
  S  S6  1  0.76187910  0.27857469  0.76187910  1
  S  S7  1  0.76187910  0.76187910  0.27857469  1
loop_
_geom_bond_atom_site_label_1
_geom_bond_atom_site_label_2
_geom_bond_distance
_geom_bond_site_symmetry_2
Ca0 S7 2.805946 1_555
Ca0 S1 2.805946 1_555
Ca0 S2 2.805947 1_555
Ca0 S6 2.805947 1_555
Ca0 S3 2.805947 1_555
Ca0 S0 2.805947 1_555
Mn0 S6 2.377937 1_455
Mn0 S3 2.377937 1_555
Mn0 S7 2.377938 1_455
Mn0 S1 2.377938 1_555
Mn0 S4 2.384639 1_555
Mn0 S5 2.384639 1_455
Mn1 S0 2.377937 1_545
Mn1 S2 2.377937 1_555
Mn1 S1 2.377938 1_555
Mn1 S7 2.377938 1_545
Mn1 S4 2.384639 1_555
Mn1 S5 2.384639 1_545
Mn2 S6 2.377938 1_554
Mn2 S3 2.377938 1_555
Mn2 S0 2.377938 1_554
Mn2 S2 2.377938 1_555
Mn2 S4 2.384638 1_555
Mn2 S5 2.384638 1_554
Mn3 S1 2.461310 1_554
Mn3 S7 2.461310 1_445
Mn3 S6 2.461311 1_454
Mn3 S0 2.461311 1_544
Mn3 S3 2.461311 1_545
Mn3 S2 2.461311 1_455
