# generated using pymatgen
data_Hf3(CrGa3)2
_symmetry_space_group_name_H-M   'P 1'
_cell_length_a   5.31730800
_cell_length_b   7.72555200
_cell_length_c   8.73971400
_cell_angle_alpha   90.00000000
_cell_angle_beta   90.00000000
_cell_angle_gamma   90.00000000
_symmetry_Int_Tables_number   1
_chemical_formula_structural   Hf3(CrGa3)2
_chemical_formula_sum   'Hf6 Cr4 Ga12'
_cell_volume   359.01993019
_cell_formula_units_Z   2
loop_
 _symmetry_equiv_pos_site_id
 _symmetry_equiv_pos_as_xyz
  1  'x, y, z'
loop_
 _atom_site_type_symbol
 _atom_site_label
 _atom_site_symmetry_multiplicity
 _atom_site_fract_x
 _atom_site_fract_y
 _atom_site_fract_z
 _atom_site_occupancy
  Hf  Hf0  1  0.50000000  0.15550600  0.77987900  1
  Hf  Hf1  1  0.50000000  0.15550600  0.22012100  1
  Hf  Hf2  1  0.00000000  0.84449400  0.72012100  1
  Hf  Hf3  1  0.00000000  0.84449400  0.27987900  1
  Hf  Hf4  1  0.50000000  0.71440700  0.50000000  1
  Hf  Hf5  1  0.00000000  0.28559300  0.00000000  1
  Cr  Cr0  1  0.25000000  0.50000000  0.25000000  1
  Cr  Cr1  1  0.25000000  0.50000000  0.75000000  1
  Cr  Cr2  1  0.75000000  0.50000000  0.25000000  1
  Cr  Cr3  1  0.75000000  0.50000000  0.75000000  1
  Ga  Ga0  1  0.50000000  0.76682000  0.18753800  1
  Ga  Ga1  1  0.50000000  0.76682000  0.81246200  1
  Ga  Ga2  1  0.00000000  0.23318000  0.31246200  1
  Ga  Ga3  1  0.00000000  0.23318000  0.68753800  1
  Ga  Ga4  1  0.50000000  0.36580500  0.50000000  1
  Ga  Ga5  1  0.00000000  0.63419500  0.00000000  1
  Ga  Ga6  1  0.00000000  0.56255700  0.50000000  1
  Ga  Ga7  1  0.50000000  0.43744300  0.00000000  1
  Ga  Ga8  1  0.26043500  0.03904400  0.50000000  1
  Ga  Ga9  1  0.73956500  0.03904400  0.50000000  1
  Ga  Ga10  1  0.23956500  0.96095600  0.00000000  1
  Ga  Ga11  1  0.76043500  0.96095600  0.00000000  1
loop_
_geom_bond_atom_site_label_1
_geom_bond_atom_site_label_2
_geom_bond_distance
_geom_bond_site_symmetry_2
Cr0 Ga0 2.512808 1_555
Cr0 Ga2 2.512808 1_555
Cr0 Ga7 2.602804 1_555
Cr0 Ga6 2.602804 1_555
Cr0 Cr2 2.658654 1_455
Cr0 Cr2 2.658654 1_555
Cr0 Ga5 2.759680 1_555
Cr0 Ga4 2.759680 1_555
Cr0 Hf1 2.986366 1_555
Cr0 Hf3 2.986366 1_555
Cr0 Hf4 3.047085 1_555
Cr0 Hf5 3.047085 1_555
Cr1 Ga1 2.512808 1_555
Cr1 Ga3 2.512808 1_555
Cr1 Ga7 2.602804 1_556
Cr1 Ga6 2.602804 1_555
Cr1 Cr3 2.658654 1_455
Cr1 Cr3 2.658654 1_555
Cr1 Ga5 2.759680 1_556
Cr1 Ga4 2.759680 1_555
Cr1 Hf0 2.986366 1_555
Cr1 Hf2 2.986366 1_555
Cr1 Hf4 3.047085 1_555
Cr1 Hf5 3.047085 1_556
Cr2 Ga0 2.512808 1_555
Cr2 Ga2 2.512808 1_655
Cr2 Ga7 2.602804 1_555
Cr2 Ga6 2.602804 1_655
Cr2 Ga5 2.759680 1_655
Cr2 Ga4 2.759680 1_555
Cr2 Hf1 2.986366 1_555
Cr2 Hf3 2.986366 1_655
Cr2 Hf5 3.047085 1_655
Cr2 Hf4 3.047085 1_555
Cr3 Ga1 2.512808 1_555
Cr3 Ga3 2.512808 1_655
Cr3 Ga7 2.602804 1_556
Cr3 Ga6 2.602804 1_655
Cr3 Ga5 2.759680 1_656
Cr3 Ga4 2.759680 1_555
Cr3 Hf0 2.986366 1_555
Cr3 Hf2 2.986366 1_655
Cr3 Hf4 3.047085 1_555
Cr3 Hf5 3.047085 1_656
Ga0 Ga10 2.617928 1_555
Ga0 Ga11 2.617928 1_555
Ga0 Hf4 2.760685 1_555
Ga0 Hf3 2.842505 1_555
Ga0 Hf3 2.842505 1_655
Ga0 Hf1 3.016286 1_565
Ga1 Ga10 2.617928 1_556
Ga1 Ga11 2.617928 1_556
Ga1 Hf4 2.760685 1_555
Ga1 Hf2 2.842505 1_655
Ga1 Hf2 2.842505 1_555
Ga1 Hf0 3.016286 1_565
Ga2 Ga9 2.617928 1_455
Ga2 Ga8 2.617928 1_555
Ga2 Hf5 2.760685 1_555
Ga2 Hf1 2.842505 1_455
Ga2 Hf1 2.842505 1_555
Ga2 Hf3 3.016286 1_545
Ga3 Ga9 2.617928 1_455
Ga3 Ga8 2.617928 1_555
Ga3 Hf5 2.760685 1_556
Ga3 Hf0 2.842505 1_555
Ga3 Hf0 2.842505 1_455
Ga3 Hf2 3.016286 1_545
Ga4 Hf4 2.693143 1_555
Ga4 Ga8 2.827598 1_555
Ga4 Ga9 2.827598 1_555
Ga4 Hf1 2.936459 1_555
Ga4 Hf0 2.936459 1_555
Ga5 Hf5 2.693143 1_555
Ga5 Hf2 2.936459 1_554
Ga5 Hf3 2.936459 1_555
Ga6 Hf4 2.905970 1_555
Ga6 Hf4 2.905970 1_455
Ga6 Hf3 2.906061 1_555
Ga6 Hf2 2.906061 1_555
Ga7 Hf5 2.905970 1_555
Ga7 Hf5 2.905970 1_655
Ga7 Hf1 2.906061 1_555
Ga7 Hf0 2.906061 1_554
Ga8 Ga9 2.547682 1_555
Ga8 Ga9 2.769626 1_455
Ga8 Hf3 2.806728 1_545
Ga8 Hf2 2.806728 1_545
Ga8 Hf4 2.812958 1_545
Ga8 Hf1 2.900933 1_555
Ga8 Hf0 2.900933 1_555
Ga9 Hf3 2.806728 1_645
Ga9 Hf2 2.806728 1_645
Ga9 Hf4 2.812958 1_545
Ga9 Hf1 2.900933 1_555
Ga9 Hf0 2.900933 1_555
Ga10 Ga11 2.547682 1_455
Ga10 Ga11 2.769626 1_555
Ga10 Hf1 2.806728 1_565
Ga10 Hf0 2.806728 1_564
Ga10 Hf5 2.812958 1_565
Ga10 Ga5 2.827598 1_555
Ga10 Hf2 2.900933 1_554
Ga10 Hf3 2.900933 1_555
Ga11 Hf1 2.806728 1_565
Ga11 Hf0 2.806728 1_564
Ga11 Hf5 2.812958 1_665
Ga11 Ga5 2.827598 1_655
Ga11 Hf3 2.900933 1_655
Ga11 Hf2 2.900933 1_654
