# generated using pymatgen
data_Nb3FeSe6
_symmetry_space_group_name_H-M   'P 1'
_cell_length_a   6.07372935
_cell_length_b   6.07338044
_cell_length_c   12.86507864
_cell_angle_alpha   89.95781183
_cell_angle_beta   90.03895068
_cell_angle_gamma   119.97019798
_symmetry_Int_Tables_number   1
_chemical_formula_structural   Nb3FeSe6
_chemical_formula_sum   'Nb6 Fe2 Se12'
_cell_volume   411.11109308
_cell_formula_units_Z   2
loop_
 _symmetry_equiv_pos_site_id
 _symmetry_equiv_pos_as_xyz
  1  'x, y, z'
loop_
 _atom_site_type_symbol
 _atom_site_label
 _atom_site_symmetry_multiplicity
 _atom_site_fract_x
 _atom_site_fract_y
 _atom_site_fract_z
 _atom_site_occupancy
  Nb  Nb0  1  -0.00054940  -0.00054776  0.49977081  1
  Nb  Nb1  1  -0.00037879  -0.00026852  0.00024154  1
  Nb  Nb2  1  0.33337233  0.66621739  0.00028229  1
  Nb  Nb3  1  0.66633236  0.33346477  0.00020854  1
  Nb  Nb4  1  0.66757765  0.33330350  0.49985947  1
  Nb  Nb5  1  0.33332824  0.66754447  0.49964961  1
  Fe  Fe0  1  0.33396534  0.66675531  0.25001311  1
  Fe  Fe1  1  0.66673388  0.33403641  0.74996032  1
  Se  Se0  1  0.33322152  0.33089222  0.37088180  1
  Se  Se1  1  0.67072256  0.00415760  0.37046860  1
  Se  Se2  1  0.99559897  0.66672091  0.37040039  1
  Se  Se3  1  0.33114965  0.33340342  0.62872743  1
  Se  Se4  1  0.00409884  0.67061062  0.62909636  1
  Se  Se5  1  0.66683137  0.99568094  0.62915262  1
  Se  Se6  1  0.66685545  0.67108660  0.87087101  1
  Se  Se7  1  0.32914852  0.99587975  0.87096036  1
  Se  Se8  1  0.00193232  0.33326787  0.87101629  1
  Se  Se9  1  0.67099333  0.66667586  0.12958548  1
  Se  Se10  1  0.99580335  0.32916881  0.12951023  1
  Se  Se11  1  0.33326151  0.00195082  0.12934475  1
loop_
_geom_bond_atom_site_label_1
_geom_bond_atom_site_label_2
_geom_bond_distance
_geom_bond_site_symmetry_2
Nb0 Se1 2.608993 1_455
Nb0 Se4 2.609421 1_545
Nb0 Se5 2.609743 1_445
Nb0 Se2 2.609973 1_445
Nb0 Se0 2.614153 1_555
Nb0 Se3 2.615878 1_555
Nb1 Se6 2.609374 1_444
Nb1 Se9 2.609660 1_445
Nb1 Se10 2.611662 1_455
Nb1 Se7 2.612284 1_544
Nb1 Se11 2.614092 1_555
Nb1 Se8 2.614226 1_554
Nb2 Se6 2.611510 1_554
Nb2 Se7 2.612221 1_554
Nb2 Se8 2.615431 1_554
Nb2 Se11 2.630771 1_565
Nb2 Se9 2.638546 1_555
Nb2 Se10 2.639021 1_455
Nb3 Se9 2.610415 1_555
Nb3 Se10 2.611490 1_555
Nb3 Se11 2.614684 1_555
Nb3 Se8 2.631418 1_654
Nb3 Se6 2.638512 1_554
Nb3 Se7 2.639687 1_544
Nb4 Se1 2.609702 1_555
Nb4 Se2 2.610080 1_555
Nb4 Se0 2.615982 1_555
Nb4 Se3 2.632459 1_555
Nb4 Se4 2.637380 1_655
Nb4 Se5 2.637632 1_545
Nb5 Se4 2.610381 1_555
Nb5 Se5 2.611056 1_555
Nb5 Se3 2.616165 1_555
Nb5 Se0 2.632199 1_555
Nb5 Se1 2.637204 1_565
Nb5 Se2 2.637763 1_455
Fe0 Se11 2.560933 1_565
Fe0 Se0 2.562228 1_555
Fe0 Se9 2.568257 1_555
Fe0 Se1 2.568454 1_565
Fe0 Se10 2.572669 1_455
Fe0 Se2 2.574156 1_455
Fe1 Se3 2.564157 1_555
Fe1 Se8 2.564289 1_655
Fe1 Se4 2.570957 1_655
Fe1 Se6 2.571612 1_555
Fe1 Se7 2.576373 1_545
Fe1 Se5 2.577659 1_545
