# generated using pymatgen
data_K2HoSbO7
_symmetry_space_group_name_H-M   'P 1'
_cell_length_a   8.11108200
_cell_length_b   8.11108200
_cell_length_c   8.11108200
_cell_angle_alpha   119.86638124
_cell_angle_beta   118.33883277
_cell_angle_gamma   91.56644130
_symmetry_Int_Tables_number   1
_chemical_formula_structural   K2HoSbO7
_chemical_formula_sum   'K4 Ho2 Sb2 O14'
_cell_volume   382.21142664
_cell_formula_units_Z   2
loop_
 _symmetry_equiv_pos_site_id
 _symmetry_equiv_pos_as_xyz
  1  'x, y, z'
loop_
 _atom_site_type_symbol
 _atom_site_label
 _atom_site_symmetry_multiplicity
 _atom_site_fract_x
 _atom_site_fract_y
 _atom_site_fract_z
 _atom_site_occupancy
  K  K0  1  0.50000000  0.50000000  0.00000000  1
  K  K1  1  0.00000000  0.00000000  0.00000000  1
  K  K2  1  0.00000000  0.50000000  0.00000000  1
  K  K3  1  0.00000000  0.00000000  0.50000000  1
  Ho  Ho0  1  0.50000000  0.50000000  0.50000000  1
  Ho  Ho1  1  0.50000000  0.00000000  0.00000000  1
  Sb  Sb0  1  0.00000000  0.50000000  0.50000000  1
  Sb  Sb1  1  0.50000000  0.00000000  0.50000000  1
  O  O0  1  0.87792200  0.58398600  0.29393600  1
  O  O1  1  0.20995000  0.91601400  0.29393600  1
  O  O2  1  0.18023700  0.78808900  0.74602600  1
  O  O3  1  0.45793700  0.71191100  0.39214800  1
  O  O4  1  0.45793700  0.06578800  0.74602600  1
  O  O5  1  0.18023700  0.43421200  0.39214800  1
  O  O6  1  0.81976300  0.56578800  0.60785200  1
  O  O7  1  0.54206300  0.93421200  0.25397400  1
  O  O8  1  0.54206300  0.28808900  0.60785200  1
  O  O9  1  0.81976300  0.21191100  0.25397400  1
  O  O10  1  0.38868600  0.25000000  0.13868600  1
  O  O11  1  0.12207800  0.41601400  0.70606400  1
  O  O12  1  0.79005000  0.08398600  0.70606400  1
  O  O13  1  0.61131400  0.75000000  0.86131400  1
loop_
_geom_bond_atom_site_label_1
_geom_bond_atom_site_label_2
_geom_bond_distance
_geom_bond_site_symmetry_2
K0 O0 2.621955 1_555
K0 O11 2.621955 1_554
K0 O8 2.967350 1_554
K0 O3 2.967350 1_555
K0 O7 2.967357 1_555
K0 O4 2.967357 1_554
K0 O10 3.054235 1_555
K0 O13 3.054235 1_554
K1 O12 2.621955 1_454
K1 O1 2.621955 1_545
K1 O2 2.967350 1_544
K1 O9 2.967350 1_455
K1 O6 2.967355 1_444
K1 O5 2.967355 1_555
K1 O13 3.054235 1_444
K1 O10 3.054235 1_555
K2 O0 2.790910 1_455
K2 O1 2.790910 1_555
K2 O11 2.790910 1_554
K2 O12 2.790910 1_454
K2 O6 3.139681 1_454
K2 O5 3.139681 1_555
K2 O3 3.139687 1_555
K2 O8 3.139687 1_454
K3 O12 2.790910 1_455
K3 O0 2.790910 1_445
K3 O11 2.790910 1_555
K3 O1 2.790910 1_545
K3 O9 3.139687 1_455
K3 O2 3.139687 1_545
K3 O7 3.139688 1_445
K3 O4 3.139688 1_555
Ho0 O13 2.232696 1_555
Ho0 O10 2.232696 1_555
Ho0 O6 2.254395 1_555
Ho0 O5 2.254395 1_555
Ho0 O8 2.254395 1_555
Ho0 O3 2.254395 1_555
Ho1 O10 2.232696 1_555
Ho1 O13 2.232696 1_544
Ho1 O4 2.254389 1_554
Ho1 O7 2.254389 1_545
Ho1 O9 2.254395 1_555
Ho1 O2 2.254395 1_544
O0 Sb0 1.959022 1_655
O1 Sb1 1.959022 1_565
O2 Sb0 1.994763 1_555
O3 Sb1 1.994763 1_565
O4 Sb1 1.994765 1_555
O5 Sb0 1.994762 1_555
O6 Sb0 1.994762 1_655
O7 Sb1 1.994765 1_565
O8 Sb1 1.994763 1_555
O9 Sb0 1.994763 1_655
O11 Sb0 1.959022 1_555
O12 Sb1 1.959022 1_555
