# generated using pymatgen
data_PH7(NO2)2
_symmetry_space_group_name_H-M   'P 1'
_cell_length_a   5.72887900
_cell_length_b   7.92196900
_cell_length_c   10.71530600
_cell_angle_alpha   90.00000000
_cell_angle_beta   90.00000000
_cell_angle_gamma   90.00000000
_symmetry_Int_Tables_number   1
_chemical_formula_structural   PH7(NO2)2
_chemical_formula_sum   'P4 H28 N8 O16'
_cell_volume   486.30346725
_cell_formula_units_Z   4
loop_
 _symmetry_equiv_pos_site_id
 _symmetry_equiv_pos_as_xyz
  1  'x, y, z'
loop_
 _atom_site_type_symbol
 _atom_site_label
 _atom_site_symmetry_multiplicity
 _atom_site_fract_x
 _atom_site_fract_y
 _atom_site_fract_z
 _atom_site_occupancy
  P  P0  1  0.90496100  0.68636600  0.34673500  1
  P  P1  1  0.59503900  0.31363400  0.84673500  1
  P  P2  1  0.40496100  0.81363400  0.65326500  1
  P  P3  1  0.09503900  0.18636600  0.15326500  1
  H  H0  1  0.33814800  0.69079000  0.18351100  1
  H  H1  1  0.16185200  0.30921000  0.68351100  1
  H  H2  1  0.83814800  0.80921000  0.81648900  1
  H  H3  1  0.66185200  0.19079000  0.31648900  1
  H  H4  1  0.52515700  0.59933100  0.08764800  1
  H  H5  1  0.97484300  0.40066900  0.58764800  1
  H  H6  1  0.02515700  0.90066900  0.91235200  1
  H  H7  1  0.47484300  0.09933100  0.41235200  1
  H  H8  1  0.64006000  0.86958100  0.17790300  1
  H  H9  1  0.85994000  0.13041900  0.67790300  1
  H  H10  1  0.14006000  0.63041900  0.82209700  1
  H  H11  1  0.35994000  0.36958100  0.32209700  1
  H  H12  1  0.43575400  0.95453000  0.07536300  1
  H  H13  1  0.06424600  0.04547000  0.57536300  1
  H  H14  1  0.93575400  0.54547000  0.92463700  1
  H  H15  1  0.56424600  0.45453000  0.42463700  1
  H  H16  1  0.67305700  0.84073500  0.02141200  1
  H  H17  1  0.82694300  0.15926500  0.52141200  1
  H  H18  1  0.17305700  0.65926500  0.97858800  1
  H  H19  1  0.32694300  0.34073500  0.47858800  1
  H  H20  1  0.23184700  0.76987700  0.43508700  1
  H  H21  1  0.26815300  0.23012300  0.93508700  1
  H  H22  1  0.73184700  0.73012300  0.56491300  1
  H  H23  1  0.76815300  0.26987700  0.06491300  1
  H  H24  1  0.99841600  0.48454400  0.21082800  1
  H  H25  1  0.50158400  0.51545600  0.71082800  1
  H  H26  1  0.49841600  0.01545600  0.78917200  1
  H  H27  1  0.00158400  0.98454400  0.28917200  1
  N  N0  1  0.41003900  0.69821400  0.09543600  1
  N  N1  1  0.08996100  0.30178600  0.59543600  1
  N  N2  1  0.91003900  0.80178600  0.90456400  1
  N  N3  1  0.58996100  0.19821400  0.40456400  1
  N  N4  1  0.54793500  0.85211400  0.09374300  1
  N  N5  1  0.95206500  0.14788600  0.59374300  1
  N  N6  1  0.04793500  0.64788600  0.90625700  1
  N  N7  1  0.45206500  0.35211400  0.40625700  1
  O  O0  1  0.18156200  0.68855400  0.36411300  1
  O  O1  1  0.31843800  0.31144600  0.86411300  1
  O  O2  1  0.68156200  0.81144600  0.63588700  1
  O  O3  1  0.81843800  0.18855400  0.13588700  1
  O  O4  1  0.81566000  0.86469900  0.31768300  1
  O  O5  1  0.68434000  0.13530100  0.81768300  1
  O  O6  1  0.31566000  0.63530100  0.68231700  1
  O  O7  1  0.18434000  0.36469900  0.18231700  1
  O  O8  1  0.86867400  0.57573100  0.22606100  1
  O  O9  1  0.63132600  0.42426900  0.72606100  1
  O  O10  1  0.36867400  0.92426900  0.77393900  1
  O  O11  1  0.13132600  0.07573100  0.27393900  1
  O  O12  1  0.78623000  0.60444700  0.45955800  1
  O  O13  1  0.71377000  0.39555300  0.95955800  1
  O  O14  1  0.28623000  0.89555300  0.54044200  1
  O  O15  1  0.21377000  0.10444700  0.04044200  1
loop_
_geom_bond_atom_site_label_1
_geom_bond_atom_site_label_2
_geom_bond_distance
_geom_bond_site_symmetry_2
H0 N0 1.031382 1_555
H1 N1 1.031382 1_555
H2 N2 1.031382 1_555
H3 N3 1.031382 1_555
H4 N0 1.027392 1_555
H5 N1 1.027392 1_655
H6 N2 1.027392 1_455
H7 N3 1.027392 1_555
H8 N4 1.054009 1_555
H9 N5 1.054009 1_555
H10 N6 1.054009 1_555
H11 N7 1.054009 1_555
H12 N4 1.053604 1_555
H13 N5 1.053604 1_455
H14 N6 1.053604 1_655
H15 N7 1.053604 1_555
H16 N4 1.059548 1_555
H17 N5 1.059548 1_555
H18 N6 1.059548 1_555
H19 N7 1.059548 1_555
H20 O0 1.037499 1_555
H20 O14 1.537117 1_555
H21 O1 1.037499 1_555
H21 O15 1.537117 1_556
H22 O2 1.037499 1_555
H22 O12 1.537117 1_555
H23 O3 1.037499 1_555
H23 O13 1.537117 1_554
H24 O8 1.049255 1_555
H24 O7 1.459186 1_655
H25 O9 1.049255 1_555
H25 O6 1.459186 1_555
H26 O10 1.049255 1_545
H26 O5 1.459186 1_555
H27 O11 1.049255 1_565
H27 O4 1.459186 1_455
O0 P0 1.595611 1_455
O1 P1 1.595611 1_555
O2 P2 1.595611 1_555
O3 P3 1.595611 1_655
O4 P0 1.534437 1_555
O5 P1 1.534437 1_555
O6 P2 1.534437 1_555
O7 P3 1.534437 1_555
O8 P0 1.575873 1_555
O9 P1 1.575873 1_555
O10 P2 1.575873 1_555
O11 P3 1.575873 1_555
O12 P0 1.531448 1_555
O13 P1 1.531448 1_555
O14 P2 1.531448 1_555
O15 P3 1.531448 1_555
