# generated using pymatgen
data_Zn5(NO8)2
_symmetry_space_group_name_H-M   'P 1'
_cell_length_a   10.07156355
_cell_length_b   10.07156355
_cell_length_c   5.33777476
_cell_angle_alpha   86.02448177
_cell_angle_beta   86.02448177
_cell_angle_gamma   35.52532539
_symmetry_Int_Tables_number   1
_chemical_formula_structural   Zn5(NO8)2
_chemical_formula_sum   'Zn5 N2 O16'
_cell_volume   313.77847070
_cell_formula_units_Z   1
loop_
 _symmetry_equiv_pos_site_id
 _symmetry_equiv_pos_as_xyz
  1  'x, y, z'
loop_
 _atom_site_type_symbol
 _atom_site_label
 _atom_site_symmetry_multiplicity
 _atom_site_fract_x
 _atom_site_fract_y
 _atom_site_fract_z
 _atom_site_occupancy
  Zn  Zn0  1  0.50000000  0.50000000  0.00000000  1
  Zn  Zn1  1  0.75695000  0.24305000  0.50000000  1
  Zn  Zn2  1  0.24305000  0.75695000  0.50000000  1
  Zn  Zn3  1  0.09372300  0.09372300  0.98309500  1
  Zn  Zn4  1  0.90627700  0.90627700  0.01690500  1
  N  N0  1  0.72201800  0.72201800  0.49918400  1
  N  N1  1  0.27798200  0.27798200  0.50081600  1
  O  O0  1  0.80362700  0.30496700  0.82169100  1
  O  O1  1  0.30496700  0.80362700  0.82169100  1
  O  O2  1  0.19637300  0.69503300  0.17830900  1
  O  O3  1  0.69503300  0.19637300  0.17830900  1
  O  O4  1  0.94420900  0.94420900  0.66595200  1
  O  O5  1  0.05579100  0.05579100  0.33404800  1
  O  O6  1  0.45169000  0.45169000  0.67736400  1
  O  O7  1  0.54831000  0.54831000  0.32263600  1
  O  O8  1  0.78767200  0.78767200  0.50080300  1
  O  O9  1  0.21232800  0.21232800  0.49919700  1
  O  O10  1  0.68410300  0.68410300  0.70018800  1
  O  O11  1  0.31589700  0.31589700  0.29981200  1
  O  O12  1  0.30584300  0.30584300  0.70745300  1
  O  O13  1  0.69415700  0.69415700  0.29254700  1
  O  O14  1  0.80861700  0.80861700  0.99533200  1
  O  O15  1  0.19138300  0.19138300  0.00466800  1
loop_
_geom_bond_atom_site_label_1
_geom_bond_atom_site_label_2
_geom_bond_distance
_geom_bond_site_symmetry_2
N0 O10 1.251606 1_555
N0 O8 1.260091 1_555
N0 O13 1.260175 1_555
N1 O11 1.251606 1_555
N1 O9 1.260091 1_555
N1 O12 1.260175 1_555
O0 Zn3 1.944729 1_655
O0 Zn0 2.047916 1_556
O0 Zn1 2.072668 1_555
O1 Zn3 1.944729 1_565
O1 Zn0 2.047916 1_556
O1 Zn2 2.072668 1_555
O2 Zn4 1.944729 1_455
O2 Zn0 2.047916 1_555
O2 Zn2 2.072668 1_555
O3 Zn4 1.944729 1_545
O3 Zn0 2.047916 1_555
O3 Zn1 2.072668 1_555
O4 Zn4 1.959663 1_556
O4 Zn2 2.005695 1_655
O4 Zn1 2.005695 1_565
O5 Zn3 1.959663 1_554
O5 Zn1 2.005695 1_455
O5 Zn2 2.005695 1_545
O6 Zn0 2.014205 1_556
O6 Zn1 2.029928 1_555
O6 Zn2 2.029928 1_555
O7 Zn0 2.014205 1_555
O7 Zn1 2.029928 1_555
O7 Zn2 2.029928 1_555
O14 Zn4 1.885284 1_556
O15 Zn3 1.885284 1_554
