# generated using pymatgen
data_K2InGaI6
_symmetry_space_group_name_H-M   'P 1'
_cell_length_a   8.55653794
_cell_length_b   8.55653794
_cell_length_c   8.55653794
_cell_angle_alpha   60.00000000
_cell_angle_beta   60.00000000
_cell_angle_gamma   60.00000000
_symmetry_Int_Tables_number   1
_chemical_formula_structural   K2InGaI6
_chemical_formula_sum   'K2 In1 Ga1 I6'
_cell_volume   442.97502680
_cell_formula_units_Z   1
loop_
 _symmetry_equiv_pos_site_id
 _symmetry_equiv_pos_as_xyz
  1  'x, y, z'
loop_
 _atom_site_type_symbol
 _atom_site_label
 _atom_site_symmetry_multiplicity
 _atom_site_fract_x
 _atom_site_fract_y
 _atom_site_fract_z
 _atom_site_occupancy
  K  K0  1  0.75000000  0.75000000  0.75000000  1
  K  K1  1  0.25000000  0.25000000  0.25000000  1
  In  In0  1  0.50000000  0.50000000  0.50000000  1
  Ga  Ga0  1  0.00000000  0.00000000  0.00000000  1
  I  I0  1  0.74514600  0.25485400  0.25485400  1
  I  I1  1  0.25485400  0.25485400  0.74514600  1
  I  I2  1  0.25485400  0.74514600  0.74514600  1
  I  I3  1  0.25485400  0.74514600  0.25485400  1
  I  I4  1  0.74514600  0.25485400  0.74514600  1
  I  I5  1  0.74514600  0.74514600  0.25485400  1
loop_
_geom_bond_atom_site_label_1
_geom_bond_atom_site_label_2
_geom_bond_distance
_geom_bond_site_symmetry_2
Ga0 I2 3.083930 1_544
Ga0 I4 3.083930 1_454
Ga0 I1 3.083930 1_554
Ga0 I0 3.083930 1_455
Ga0 I3 3.083930 1_545
Ga0 I5 3.083930 1_445
I0 In0 2.966456 1_555
I1 In0 2.966456 1_555
I2 In0 2.966456 1_555
I3 In0 2.966456 1_555
I4 In0 2.966456 1_555
I5 In0 2.966456 1_555
