# generated using pymatgen
data_La24Ni16O55
_symmetry_space_group_name_H-M   'P 1'
_cell_length_a   12.33746425
_cell_length_b   11.84083823
_cell_length_c   11.84083823
_cell_angle_alpha   117.20827932
_cell_angle_beta   108.20831946
_cell_angle_gamma   108.20831946
_symmetry_Int_Tables_number   1
_chemical_formula_structural   La24Ni16O55
_chemical_formula_sum   'La24 Ni16 O55'
_cell_volume   1230.91651070
_cell_formula_units_Z   1
loop_
 _symmetry_equiv_pos_site_id
 _symmetry_equiv_pos_as_xyz
  1  'x, y, z'
loop_
 _atom_site_type_symbol
 _atom_site_label
 _atom_site_symmetry_multiplicity
 _atom_site_fract_x
 _atom_site_fract_y
 _atom_site_fract_z
 _atom_site_occupancy
  La  La0  1  0.13427128  0.86705778  0.86705778  1
  La  La1  1  -0.00000000  0.50000000  0.50000000  1
  La  La2  1  -0.00000000  0.67824967  0.32175033  1
  La  La3  1  -0.00000000  0.32175033  0.67824967  1
  La  La4  1  0.12494047  0.69438907  0.05301598  1
  La  La5  1  0.37013990  0.63030037  0.63030037  1
  La  La6  1  0.12494047  0.05301598  0.69438907  1
  La  La7  1  0.37442461  0.80290620  0.44538653  1
  La  La8  1  0.37442461  0.44538653  0.80290620  1
  La  La9  1  0.50000000  0.17863224  0.82136776  1
  La  La10  1  0.24977017  0.42845843  0.07093468  1
  La  La11  1  0.75022983  0.92906532  0.57154157  1
  La  La12  1  0.27069585  0.27047178  0.27047178  1
  La  La13  1  0.24977017  0.07093468  0.42845843  1
  La  La14  1  0.50000000  0.82136776  0.17863224  1
  La  La15  1  0.72930415  0.72952822  0.72952822  1
  La  La16  1  0.75022983  0.57154157  0.92906532  1
  La  La17  1  0.87505953  0.94698402  0.30561093  1
  La  La18  1  0.62986010  0.36969963  0.36969963  1
  La  La19  1  0.62557539  0.19709380  0.55461347  1
  La  La20  1  0.87505953  0.30561093  0.94698402  1
  La  La21  1  0.62557539  0.55461347  0.19709380  1
  La  La22  1  0.50000000  -0.00000000  -0.00000000  1
  La  La23  1  0.86572872  0.13294222  0.13294222  1
  Ni  Ni0  1  0.25029772  0.64947616  0.85021177  1
  Ni  Ni1  1  0.25029772  0.85021177  0.64947616  1
  Ni  Ni2  1  -0.00000000  0.10260604  0.89739396  1
  Ni  Ni3  1  0.00000000  0.89739396  0.10260604  1
  Ni  Ni4  1  0.12413776  0.47075657  0.27459421  1
  Ni  Ni5  1  0.62729722  0.97398486  0.77766679  1
  Ni  Ni6  1  0.62729722  0.77766679  0.97398486  1
  Ni  Ni7  1  0.12413776  0.27459421  0.47075657  1
  Ni  Ni8  1  0.50000000  0.39992330  0.60007670  1
  Ni  Ni9  1  0.50000000  0.60007670  0.39992330  1
  Ni  Ni10  1  0.37270278  0.02601514  0.22233321  1
  Ni  Ni11  1  0.37270278  0.22233321  0.02601514  1
  Ni  Ni12  1  0.87586224  0.52924343  0.72540579  1
  Ni  Ni13  1  0.87586224  0.72540579  0.52924343  1
  Ni  Ni14  1  0.74970228  0.14978823  0.35052384  1
  Ni  Ni15  1  0.74970228  0.35052384  0.14978823  1
  O  O0  1  0.06295982  0.58989907  0.78610642  1
  O  O1  1  0.06295982  0.78610642  0.58989907  1
  O  O2  1  -0.00000000  0.79497548  0.20502452  1
  O  O3  1  -0.00000000  0.20502452  0.79497548  1
  O  O4  1  0.24947133  0.75020225  0.75020225  1
  O  O5  1  0.24931297  0.54526377  0.95789421  1
  O  O6  1  0.24931297  0.95789421  0.54526377  1
  O  O7  1  0.18297697  0.15055667  0.97103920  1
  O  O8  1  0.43739384  0.71197283  0.91206249  1
  O  O9  1  0.43739384  0.91206249  0.71197283  1
  O  O10  1  0.18752314  0.46227215  0.66279798  1
  O  O11  1  0.18297697  0.97103920  0.15055667  1
  O  O12  1  0.18752314  0.66279798  0.46227215  1
  O  O13  1  0.36671613  0.32731799  0.91735434  1
  O  O14  1  0.12218626  0.16251410  0.57202076  1
  O  O15  1  0.12802527  0.38713668  0.38713668  1
  O  O16  1  0.36671613  0.91735434  0.32731799  1
  O  O17  1  0.61353964  0.87257202  0.87257202  1
  O  O18  1  0.12218626  0.57202076  0.16251410  1
  O  O19  1  0.06054797  0.27288025  0.09293939  1
  O  O20  1  0.31183530  0.83916783  0.03505372  1
  O  O21  1  0.31183530  0.03505372  0.83916783  1
  O  O22  1  0.31230563  0.33868033  0.53498203  1
  O  O23  1  0.56328594  0.58973964  0.78568541  1
  O  O24  1  0.06054797  0.09293939  0.27288025  1
  O  O25  1  0.31230563  0.53498203  0.33868033  1
  O  O26  1  0.56328594  0.78568541  0.58973964  1
  O  O27  1  0.50000000  0.29412567  0.70587433  1
  O  O28  1  0.50000000  0.70587433  0.29412567  1
  O  O29  1  0.50000000  0.50000000  0.50000000  1
  O  O30  1  0.68816470  0.96494628  0.16083217  1
  O  O31  1  0.68769437  0.46501797  0.66131967  1
  O  O32  1  0.43671406  0.41026036  0.21431459  1
  O  O33  1  0.68816470  0.16083217  0.96494628  1
  O  O34  1  0.93945203  0.90706061  0.72711975  1
  O  O35  1  0.68769437  0.66131967  0.46501797  1
  O  O36  1  0.43671406  0.21431459  0.41026036  1
  O  O37  1  0.93945203  0.72711975  0.90706061  1
  O  O38  1  0.38646036  0.12742798  0.12742798  1
  O  O39  1  0.63328387  0.67268201  0.08264566  1
  O  O40  1  0.87197473  0.61286332  0.61286332  1
  O  O41  1  0.87781374  0.42797924  0.83748590  1
  O  O42  1  0.87781374  0.83748590  0.42797924  1
  O  O43  1  0.63328387  0.08264566  0.67268201  1
  O  O44  1  0.56260616  0.08793751  0.28802717  1
  O  O45  1  0.81702303  0.02896080  0.84944333  1
  O  O46  1  0.81247686  0.53772785  0.33720202  1
  O  O47  1  0.81247686  0.33720202  0.53772785  1
  O  O48  1  0.56260616  0.28802717  0.08793751  1
  O  O49  1  0.81702303  0.84944333  0.02896080  1
  O  O50  1  0.75068703  0.04210579  0.45473623  1
  O  O51  1  0.75052867  0.24979775  0.24979775  1
  O  O52  1  0.75068703  0.45473623  0.04210579  1
  O  O53  1  0.93704018  0.41010093  0.21389358  1
  O  O54  1  0.93704018  0.21389358  0.41010093  1
loop_
_geom_bond_atom_site_label_1
_geom_bond_atom_site_label_2
_geom_bond_distance
_geom_bond_site_symmetry_2
La0 O4 2.560537 1_555
La0 O21 2.682281 1_565
La0 O20 2.682281 1_556
La0 O1 2.693500 1_555
La0 O0 2.693500 1_555
La0 O11 2.764611 1_556
La0 O7 2.764611 1_565
La0 O37 2.772613 1_455
La0 O34 2.772613 1_455
La0 O38 2.830060 1_566
La0 O40 2.851729 1_455
La1 O40 2.659307 1_455
La1 O15 2.659307 1_555
La1 O4 2.757525 1_555
La1 O51 2.757525 1_455
La1 O54 2.784657 1_455
La1 O0 2.784657 1_555
La1 O1 2.784657 1_555
La1 O53 2.784657 1_455
La1 O12 2.813234 1_555
La1 O10 2.813234 1_555
La1 O47 2.813234 1_455
La1 O46 2.813234 1_455
La2 O2 2.359543 1_555
La2 O12 2.508338 1_555
La2 O46 2.508338 1_455
La2 O1 2.538963 1_555
La2 O53 2.538963 1_455
La2 O6 2.821965 1_555
La2 O52 2.821965 1_455
La2 O18 2.863953 1_555
La2 O42 2.863953 1_455
La3 O3 2.359543 1_555
La3 O10 2.508338 1_555
La3 O47 2.508338 1_455
La3 O0 2.538963 1_555
La3 O54 2.538963 1_455
La3 O50 2.821965 1_455
La3 O5 2.821965 1_555
La3 O41 2.863953 1_455
La3 O14 2.863953 1_555
La4 O18 2.344421 1_555
La4 O0 2.535062 1_554
La4 O20 2.543699 1_555
La4 O37 2.658786 1_454
La4 O11 2.671126 1_555
La4 O41 2.743120 1_454
La4 O16 2.756713 1_555
La4 O5 2.774115 1_554
La4 O2 2.820490 1_555
La5 O4 2.654479 1_555
La5 O15 2.678096 1_555
La5 O17 2.680270 1_555
La5 O9 2.751851 1_555
La5 O8 2.751851 1_555
La5 O10 2.761016 1_555
La5 O12 2.761016 1_555
La5 O26 2.842100 1_555
La5 O23 2.842100 1_555
La5 O22 2.845955 1_555
La5 O25 2.845955 1_555
La5 O29 2.870634 1_555
La6 O14 2.344421 1_555
La6 O1 2.535062 1_545
La6 O21 2.543699 1_555
La6 O34 2.658786 1_445
La6 O7 2.671126 1_555
La6 O42 2.743120 1_445
La6 O13 2.756713 1_555
La6 O6 2.774115 1_545
La6 O3 2.820490 1_555
La7 O16 2.351581 1_555
La7 O12 2.511995 1_555
La7 O9 2.519383 1_555
La7 O25 2.541284 1_555
La7 O26 2.553243 1_555
La7 O28 2.809447 1_555
La7 O6 2.841749 1_555
La7 O18 2.858796 1_555
La7 O43 2.877478 1_565
La8 O13 2.351581 1_555
La8 O10 2.511995 1_555
La8 O8 2.519383 1_555
La8 O22 2.541284 1_555
La8 O23 2.553243 1_555
La8 O27 2.809447 1_555
La8 O5 2.841749 1_555
La8 O14 2.858796 1_555
La8 O39 2.877478 1_556
La9 O27 2.334631 1_555
La9 O48 2.519858 1_556
La9 O9 2.519858 1_545
La9 O33 2.547733 1_555
La9 O21 2.547733 1_555
La9 O52 2.810775 1_556
La9 O6 2.810775 1_545
La9 O43 2.871025 1_555
La9 O13 2.871025 1_555
La10 O5 2.323255 1_554
La10 O25 2.538442 1_555
La10 O32 2.538961 1_555
La10 O19 2.653849 1_555
La10 O7 2.653885 1_554
La10 O13 2.747907 1_554
La10 O18 2.756168 1_555
La10 O3 2.807031 1_554
La10 O28 2.816104 1_555
La11 O50 2.323255 1_565
La11 O35 2.538442 1_555
La11 O26 2.538961 1_555
La11 O34 2.653849 1_555
La11 O45 2.653885 1_565
La11 O43 2.747907 1_565
La11 O42 2.756168 1_555
La11 O3 2.807031 1_665
La11 O28 2.816104 1_555
La12 O29 2.532127 1_555
La12 O32 2.667599 1_555
La12 O36 2.667599 1_555
La12 O22 2.673630 1_555
La12 O25 2.673630 1_555
La12 O7 2.792171 1_554
La12 O11 2.792171 1_545
La12 O24 2.799426 1_555
La12 O19 2.799426 1_555
La12 O38 2.859670 1_555
La12 O15 2.865134 1_555
La13 O6 2.323255 1_545
La13 O22 2.538442 1_555
La13 O36 2.538961 1_555
La13 O24 2.653849 1_555
La13 O11 2.653885 1_545
La13 O16 2.747907 1_545
La13 O14 2.756168 1_555
La13 O2 2.807031 1_545
La13 O27 2.816104 1_555
La14 O28 2.334631 1_555
La14 O44 2.519858 1_565
La14 O8 2.519858 1_554
La14 O20 2.547733 1_555
La14 O30 2.547733 1_555
La14 O50 2.810775 1_565
La14 O5 2.810775 1_554
La14 O39 2.871025 1_555
La14 O16 2.871025 1_555
La15 O29 2.532127 1_555
La15 O26 2.667599 1_555
La15 O23 2.667599 1_555
La15 O31 2.673630 1_555
La15 O35 2.673630 1_555
La15 O49 2.792171 1_556
La15 O45 2.792171 1_565
La15 O34 2.799426 1_555
La15 O37 2.799426 1_555
La15 O17 2.859670 1_555
La15 O40 2.865134 1_555
La16 O52 2.323255 1_556
La16 O31 2.538442 1_555
La16 O23 2.538961 1_555
La16 O37 2.653849 1_555
La16 O49 2.653885 1_556
La16 O39 2.747907 1_556
La16 O41 2.756168 1_555
La16 O2 2.807031 1_656
La16 O27 2.816104 1_555
La17 O42 2.344421 1_555
La17 O54 2.535062 1_565
La17 O30 2.543699 1_555
La17 O24 2.658786 1_665
La17 O49 2.671126 1_555
La17 O14 2.743120 1_665
La17 O39 2.756713 1_555
La17 O50 2.774115 1_565
La17 O2 2.820490 1_655
La18 O51 2.654479 1_555
La18 O40 2.678096 1_555
La18 O38 2.680270 1_555
La18 O48 2.751851 1_555
La18 O44 2.751851 1_555
La18 O47 2.761016 1_555
La18 O46 2.761016 1_555
La18 O36 2.842100 1_555
La18 O32 2.842100 1_555
La18 O35 2.845955 1_555
La18 O31 2.845955 1_555
La18 O29 2.870634 1_555
La19 O43 2.351581 1_555
La19 O47 2.511995 1_555
La19 O44 2.519383 1_555
La19 O31 2.541284 1_555
La19 O36 2.553243 1_555
La19 O27 2.809447 1_555
La19 O50 2.841749 1_555
La19 O41 2.858796 1_555
La19 O16 2.877478 1_545
La20 O41 2.344421 1_555
La20 O53 2.535062 1_556
La20 O33 2.543699 1_555
La20 O19 2.658786 1_656
La20 O45 2.671126 1_555
La20 O18 2.743120 1_656
La20 O43 2.756713 1_555
La20 O52 2.774115 1_556
La20 O3 2.820490 1_655
La21 O39 2.351581 1_555
La21 O46 2.511995 1_555
La21 O48 2.519383 1_555
La21 O35 2.541284 1_555
La21 O32 2.553243 1_555
La21 O28 2.809447 1_555
La21 O52 2.841749 1_555
La21 O42 2.858796 1_555
La21 O13 2.877478 1_554
La22 O38 2.659958 1_555
La22 O17 2.659958 1_544
La22 O51 2.761129 1_555
La22 O4 2.761129 1_544
La22 O30 2.783944 1_545
La22 O33 2.783944 1_554
La22 O21 2.783944 1_554
La22 O20 2.783944 1_545
La22 O9 2.813526 1_544
La22 O8 2.813526 1_544
La22 O44 2.813526 1_555
La22 O48 2.813526 1_555
La23 O51 2.560537 1_555
La23 O30 2.682281 1_545
La23 O33 2.682281 1_554
La23 O53 2.693500 1_555
La23 O54 2.693500 1_555
La23 O49 2.764611 1_545
La23 O45 2.764611 1_554
La23 O24 2.772613 1_655
La23 O19 2.772613 1_655
La23 O17 2.830060 1_544
La23 O15 2.851729 1_655
Ni0 O8 1.947461 1_555
Ni0 O10 1.947494 1_555
Ni0 O0 1.952124 1_555
Ni0 O20 1.952462 1_556
Ni0 O4 2.028919 1_555
Ni0 O5 2.141878 1_555
Ni1 O9 1.947461 1_555
Ni1 O12 1.947494 1_555
Ni1 O1 1.952124 1_555
Ni1 O21 1.952462 1_565
Ni1 O4 2.028919 1_555
Ni1 O6 2.141878 1_555
Ni2 O19 1.921740 1_556
Ni2 O34 1.921740 1_445
Ni2 O7 1.922225 1_555
Ni2 O45 1.922225 1_455
Ni2 O3 2.070329 1_555
Ni3 O24 1.921740 1_565
Ni3 O37 1.921740 1_454
Ni3 O11 1.922225 1_555
Ni3 O49 1.922225 1_455
Ni3 O2 2.070329 1_555
Ni4 O25 1.952338 1_555
Ni4 O53 1.953396 1_455
Ni4 O12 1.975454 1_555
Ni4 O19 1.979867 1_555
Ni4 O15 1.988662 1_555
Ni4 O18 2.157034 1_555
Ni5 O33 1.952133 1_565
Ni5 O26 1.952146 1_555
Ni5 O9 1.974311 1_555
Ni5 O45 1.980831 1_565
Ni5 O17 1.989825 1_555
Ni5 O43 2.160276 1_565
Ni6 O30 1.952133 1_556
Ni6 O23 1.952146 1_555
Ni6 O8 1.974311 1_555
Ni6 O49 1.980831 1_556
Ni6 O17 1.989825 1_555
Ni6 O39 2.160276 1_556
Ni7 O22 1.952338 1_555
Ni7 O54 1.953396 1_455
Ni7 O10 1.975454 1_555
Ni7 O24 1.979867 1_555
Ni7 O15 1.988662 1_555
Ni7 O14 2.157034 1_555
Ni8 O36 1.950701 1_555
Ni8 O23 1.950701 1_555
Ni8 O22 1.950972 1_555
Ni8 O31 1.950972 1_555
Ni8 O29 2.022991 1_555
Ni8 O27 2.138636 1_555
Ni9 O32 1.950701 1_555
Ni9 O26 1.950701 1_555
Ni9 O35 1.950972 1_555
Ni9 O25 1.950972 1_555
Ni9 O29 2.022991 1_555
Ni9 O28 2.138636 1_555
Ni10 O20 1.952133 1_545
Ni10 O36 1.952146 1_555
Ni10 O44 1.974311 1_555
Ni10 O11 1.980831 1_545
Ni10 O38 1.989825 1_555
Ni10 O16 2.160276 1_545
Ni11 O21 1.952133 1_554
Ni11 O32 1.952146 1_555
Ni11 O48 1.974311 1_555
Ni11 O7 1.980831 1_554
Ni11 O38 1.989825 1_555
Ni11 O13 2.160276 1_554
Ni12 O31 1.952338 1_555
Ni12 O0 1.953396 1_655
Ni12 O47 1.975454 1_555
Ni12 O37 1.979867 1_555
Ni12 O40 1.988662 1_555
Ni12 O41 2.157034 1_555
Ni13 O35 1.952338 1_555
Ni13 O1 1.953396 1_655
Ni13 O46 1.975454 1_555
Ni13 O34 1.979867 1_555
Ni13 O40 1.988662 1_555
Ni13 O42 2.157034 1_555
Ni14 O44 1.947461 1_555
Ni14 O47 1.947494 1_555
Ni14 O54 1.952124 1_555
Ni14 O30 1.952462 1_545
Ni14 O51 2.028919 1_555
Ni14 O50 2.141878 1_555
Ni15 O48 1.947461 1_555
Ni15 O46 1.947494 1_555
Ni15 O53 1.952124 1_555
Ni15 O33 1.952462 1_554
Ni15 O51 2.028919 1_555
Ni15 O52 2.141878 1_555
