# generated using pymatgen
data_Ca2CrSbO6
_symmetry_space_group_name_H-M   'P 1'
_cell_length_a   5.45293159
_cell_length_b   5.60156406
_cell_length_c   7.83951800
_cell_angle_alpha   89.99727962
_cell_angle_beta   90.00191986
_cell_angle_gamma   89.99137086
_symmetry_Int_Tables_number   1
_chemical_formula_structural   Ca2CrSbO6
_chemical_formula_sum   'Ca4 Cr2 Sb2 O12'
_cell_volume   239.45764803
_cell_formula_units_Z   2
loop_
 _symmetry_equiv_pos_site_id
 _symmetry_equiv_pos_as_xyz
  1  'x, y, z'
loop_
 _atom_site_type_symbol
 _atom_site_label
 _atom_site_symmetry_multiplicity
 _atom_site_fract_x
 _atom_site_fract_y
 _atom_site_fract_z
 _atom_site_occupancy
  Ca  Ca0  1  0.51570300  0.56521500  0.75002200  1
  Ca  Ca1  1  0.48429800  0.43478800  0.24997700  1
  Ca  Ca2  1  0.99591800  0.04065400  0.75001600  1
  Ca  Ca3  1  0.00406700  0.95934400  0.24998200  1
  Cr  Cr0  1  0.49999400  0.00001500  0.99999300  1
  Cr  Cr1  1  0.49997700  0.99999300  0.49999900  1
  Sb  Sb0  1  0.99999900  0.50000400  0.50000000  1
  Sb  Sb1  1  0.00000200  0.50001400  0.00000000  1
  O  O0  1  0.90262300  0.53002700  0.25001200  1
  O  O1  1  0.09737400  0.46997000  0.74998800  1
  O  O2  1  0.41425500  0.97166700  0.74997200  1
  O  O3  1  0.58573600  0.02834400  0.25002300  1
  O  O4  1  0.29476900  0.69744500  0.45178300  1
  O  O5  1  0.70526800  0.30258100  0.95179500  1
  O  O6  1  0.29472500  0.69742100  0.04820300  1
  O  O7  1  0.70522800  0.30255600  0.54821400  1
  O  O8  1  0.19567900  0.20771400  0.04874700  1
  O  O9  1  0.80437100  0.79227900  0.54877200  1
  O  O10  1  0.19570400  0.20767300  0.45124800  1
  O  O11  1  0.80431100  0.79229500  0.95125400  1
loop_
_geom_bond_atom_site_label_1
_geom_bond_atom_site_label_2
_geom_bond_distance
_geom_bond_site_symmetry_2
Ca0 O1 2.342758 1_555
Ca0 O2 2.342927 1_555
Ca0 O5 2.394605 1_555
Ca0 O7 2.394916 1_555
Ca0 O11 2.565938 1_555
Ca0 O9 2.566172 1_555
Ca0 O6 2.732186 1_556
Ca0 O4 2.732376 1_555
Ca1 O0 2.342730 1_555
Ca1 O3 2.342870 1_555
Ca1 O6 2.394625 1_555
Ca1 O4 2.394908 1_555
Ca1 O8 2.565949 1_555
Ca1 O10 2.566167 1_555
Ca1 O5 2.732175 1_554
Ca1 O7 2.732356 1_555
Ca2 O2 2.313606 1_645
Ca2 O9 2.348655 1_545
Ca2 O11 2.348675 1_545
Ca2 O1 2.467737 1_655
Ca2 O5 2.677033 1_555
Ca2 O7 2.677047 1_555
Ca2 O8 2.747203 1_656
Ca2 O10 2.747413 1_655
Ca3 O3 2.313586 1_465
Ca3 O8 2.348707 1_565
Ca3 O10 2.348837 1_565
Ca3 O0 2.467728 1_455
Ca3 O6 2.677047 1_555
Ca3 O4 2.677072 1_555
Ca3 O11 2.747152 1_454
Ca3 O9 2.747453 1_455
Cr0 O2 2.021277 1_545
Cr0 O3 2.021341 1_556
Cr0 O8 2.062235 1_556
Cr0 O11 2.062289 1_545
Cr0 O5 2.066092 1_555
Cr0 O6 2.066223 1_546
Cr1 O2 2.020897 1_555
Cr1 O3 2.020978 1_565
Cr1 O10 2.061946 1_565
Cr1 O9 2.062616 1_555
Cr1 O4 2.065855 1_555
Cr1 O7 2.066050 1_565
O0 Sb0 2.037366 1_555
O0 Sb1 2.037596 1_655
O1 Sb0 2.037369 1_455
O1 Sb1 2.037600 1_556
O4 Sb0 1.987515 1_455
O5 Sb1 1.987313 1_656
O6 Sb1 1.987180 1_555
O7 Sb0 1.987537 1_555
O8 Sb1 1.991185 1_555
O9 Sb0 1.991008 1_555
O10 Sb0 1.991461 1_455
O11 Sb1 1.991137 1_656
