# generated using pymatgen
data_BaYCr4O7
_symmetry_space_group_name_H-M   'P 1'
_cell_length_a   6.36294164
_cell_length_b   6.36294164
_cell_length_c   11.10094300
_cell_angle_alpha   90.00000000
_cell_angle_beta   90.00000000
_cell_angle_gamma   119.99999626
_symmetry_Int_Tables_number   1
_chemical_formula_structural   BaYCr4O7
_chemical_formula_sum   'Ba2 Y2 Cr8 O14'
_cell_volume   389.23008472
_cell_formula_units_Z   2
loop_
 _symmetry_equiv_pos_site_id
 _symmetry_equiv_pos_as_xyz
  1  'x, y, z'
loop_
 _atom_site_type_symbol
 _atom_site_label
 _atom_site_symmetry_multiplicity
 _atom_site_fract_x
 _atom_site_fract_y
 _atom_site_fract_z
 _atom_site_occupancy
  Ba  Ba0  1  0.66666700  0.33333300  0.47215300  1
  Ba  Ba1  1  0.33333300  0.66666700  0.97215300  1
  Y  Y0  1  0.66666700  0.33333300  0.87962500  1
  Y  Y1  1  0.33333300  0.66666700  0.37962500  1
  Cr  Cr0  1  0.82316900  0.17683100  0.18288400  1
  Cr  Cr1  1  0.64633700  0.82316900  0.68288400  1
  Cr  Cr2  1  0.17683100  0.35366300  0.68288400  1
  Cr  Cr3  1  0.82316900  0.64633700  0.18288400  1
  Cr  Cr4  1  0.35366300  0.17683100  0.18288400  1
  Cr  Cr5  1  0.17683100  0.82316900  0.68288400  1
  Cr  Cr6  1  0.00000000  0.00000000  0.43286200  1
  Cr  Cr7  1  0.00000000  0.00000000  0.93286200  1
  O  O0  1  0.83928600  0.16071400  0.00492100  1
  O  O1  1  0.67857200  0.83928600  0.50492100  1
  O  O2  1  0.16071400  0.32142800  0.50492100  1
  O  O3  1  0.83928600  0.67857200  0.00492100  1
  O  O4  1  0.32142800  0.16071400  0.00492100  1
  O  O5  1  0.16071400  0.83928600  0.50492100  1
  O  O6  1  0.00000000  0.00000000  0.73791400  1
  O  O7  1  0.00000000  0.00000000  0.23791400  1
  O  O8  1  0.51152100  0.48847900  0.28267700  1
  O  O9  1  0.02304100  0.51152100  0.78267700  1
  O  O10  1  0.48847900  0.97695900  0.78267700  1
  O  O11  1  0.51152100  0.02304100  0.28267700  1
  O  O12  1  0.48847900  0.51152100  0.78267700  1
  O  O13  1  0.97695900  0.48847900  0.28267700  1
loop_
_geom_bond_atom_site_label_1
_geom_bond_atom_site_label_2
_geom_bond_distance
_geom_bond_site_symmetry_2
Ba0 O8 2.710671 1_555
Ba0 O11 2.710671 1_555
Ba0 O13 2.710671 1_555
Ba0 O1 3.202867 1_545
Ba0 O2 3.202867 1_655
Ba0 O5 3.202871 1_545
Ba0 O5 3.202871 1_655
Ba0 O2 3.202874 1_555
Ba0 O1 3.202874 1_555
Ba1 O12 2.710671 1_555
Ba1 O9 2.710671 1_555
Ba1 O10 2.710671 1_555
Ba1 O4 3.202867 1_566
Ba1 O3 3.202867 1_456
Ba1 O0 3.202871 1_566
Ba1 O0 3.202871 1_456
Ba1 O3 3.202874 1_556
Ba1 O4 3.202874 1_556
Cr0 O0 1.983526 1_555
Cr0 O7 2.042345 1_655
Cr0 O11 2.043671 1_555
Cr0 O13 2.043671 1_555
Cr1 O1 1.983527 1_555
Cr1 O6 2.042350 1_665
Cr1 O10 2.043671 1_555
Cr1 O12 2.043671 1_555
Cr2 O2 1.983527 1_555
Cr2 O6 2.042350 1_555
Cr2 O9 2.043671 1_555
Cr2 O12 2.043671 1_555
Cr3 O3 1.983527 1_555
Cr3 O7 2.042350 1_665
Cr3 O13 2.043671 1_555
Cr3 O8 2.043671 1_555
Cr4 O4 1.983527 1_555
Cr4 O7 2.042350 1_555
Cr4 O11 2.043671 1_555
Cr4 O8 2.043671 1_555
Cr5 O5 1.983526 1_555
Cr5 O6 2.042345 1_565
Cr5 O10 2.043671 1_555
Cr5 O9 2.043671 1_555
Cr6 O5 1.943475 1_545
Cr6 O1 1.943475 1_445
Cr6 O2 1.943475 1_555
Cr6 O7 2.164107 1_555
Cr7 O0 1.943475 1_456
Cr7 O4 1.943475 1_556
Cr7 O3 1.943475 1_446
Cr7 O6 2.164107 1_555
O0 Y0 2.356656 1_554
O1 Y1 2.356661 1_555
O2 Y1 2.356661 1_555
O3 Y0 2.356661 1_554
O4 Y0 2.356661 1_554
O5 Y1 2.356656 1_555
O8 Y1 2.239362 1_555
O9 Y0 2.239353 1_455
O10 Y0 2.239353 1_565
O11 Y1 2.239353 1_545
O12 Y0 2.239362 1_555
O13 Y1 2.239353 1_655
