# generated using pymatgen
data_SrCa7TiMn7O21
_symmetry_space_group_name_H-M   'P 1'
_cell_length_a   11.09261001
_cell_length_b   15.52343122
_cell_length_c   11.06793372
_cell_angle_alpha   90.19885375
_cell_angle_beta   91.22457581
_cell_angle_gamma   90.41195662
_symmetry_Int_Tables_number   1
_chemical_formula_structural   SrCa7TiMn7O21
_chemical_formula_sum   'Sr4 Ca28 Ti4 Mn28 O84'
_cell_volume   1905.34987400
_cell_formula_units_Z   4
loop_
 _symmetry_equiv_pos_site_id
 _symmetry_equiv_pos_as_xyz
  1  'x, y, z'
loop_
 _atom_site_type_symbol
 _atom_site_label
 _atom_site_symmetry_multiplicity
 _atom_site_fract_x
 _atom_site_fract_y
 _atom_site_fract_z
 _atom_site_occupancy
  Sr  Sr0  1  0.99510954  0.11319361  0.51292033  1
  Sr  Sr1  1  0.50991350  0.38511541  0.98726566  1
  Sr  Sr2  1  0.24336207  0.38609113  0.24369715  1
  Sr  Sr3  1  0.23149946  0.12147777  0.24640953  1
  Ca  Ca0  1  0.98468772  0.11636057  0.01202656  1
  Ca  Ca1  1  0.00526099  0.62336354  0.51192444  1
  Ca  Ca2  1  0.01466507  0.62078234  0.99418788  1
  Ca  Ca3  1  0.54277962  0.12693691  0.47275196  1
  Ca  Ca4  1  0.55120781  0.12622992  0.98385802  1
  Ca  Ca5  1  0.53035131  0.63038070  0.51300367  1
  Ca  Ca6  1  0.53453311  0.62146006  0.97230287  1
  Ca  Ca7  1  0.49982663  0.38021444  0.51236734  1
  Ca  Ca8  1  0.52027016  0.85909938  0.97976214  1
  Ca  Ca9  1  0.48737260  0.86437659  0.50813897  1
  Ca  Ca10  1  0.96639198  0.38990347  0.00351482  1
  Ca  Ca11  1  0.95752690  0.39098566  0.50360835  1
  Ca  Ca12  1  0.95516512  0.87532767  0.99649910  1
  Ca  Ca13  1  0.96560952  0.86984121  0.51536629  1
  Ca  Ca14  1  0.23525537  0.40676147  0.76505852  1
  Ca  Ca15  1  0.23252540  0.88022721  0.27883727  1
  Ca  Ca16  1  0.21996910  0.87107723  0.73138899  1
  Ca  Ca17  1  0.75607580  0.38509141  0.24992857  1
  Ca  Ca18  1  0.73842798  0.38506728  0.75471328  1
  Ca  Ca19  1  0.75474307  0.86305552  0.25398245  1
  Ca  Ca20  1  0.73323122  0.86586690  0.74742171  1
  Ca  Ca21  1  0.22189183  0.10888458  0.73322780  1
  Ca  Ca22  1  0.23859852  0.62399704  0.26462649  1
  Ca  Ca23  1  0.26778716  0.62944417  0.73702139  1
  Ca  Ca24  1  0.77237379  0.11707009  0.24800042  1
  Ca  Ca25  1  0.78069359  0.12454655  0.75110551  1
  Ca  Ca26  1  0.78098940  0.62074773  0.25565586  1
  Ca  Ca27  1  0.77173402  0.62282376  0.75568173  1
  Ti  Ti0  1  0.98686295  0.99022232  0.26095392  1
  Ti  Ti1  1  0.23679004  0.98479963  0.01858054  1
  Ti  Ti2  1  0.26598968  0.23140415  0.94141390  1
  Ti  Ti3  1  0.98412183  0.25443925  0.27360242  1
  Mn  Mn0  1  0.99043981  0.99333905  0.75488069  1
  Mn  Mn1  1  0.00296909  0.50191246  0.25155077  1
  Mn  Mn2  1  0.99694593  0.50099262  0.75429905  1
  Mn  Mn3  1  0.50730928  0.98454493  0.22303692  1
  Mn  Mn4  1  0.50510980  0.99384011  0.72814859  1
  Mn  Mn5  1  0.51011938  0.49561450  0.24405562  1
  Mn  Mn6  1  0.49573804  0.50199502  0.74714155  1
  Mn  Mn7  1  0.24035881  0.99941595  0.51230466  1
  Mn  Mn8  1  0.25356895  0.52050505  0.00961154  1
  Mn  Mn9  1  0.23755330  0.49665055  0.51042946  1
  Mn  Mn10  1  0.74622191  0.99869919  0.99144795  1
  Mn  Mn11  1  0.73998897  0.99631030  0.49741011  1
  Mn  Mn12  1  0.75326246  0.50450031  0.00112404  1
  Mn  Mn13  1  0.74299461  0.50344328  0.50309255  1
  Mn  Mn14  1  0.26887058  0.24693892  0.46488364  1
  Mn  Mn15  1  0.26107717  0.75101194  0.97683759  1
  Mn  Mn16  1  0.24620292  0.74922416  0.50044470  1
  Mn  Mn17  1  0.75924911  0.25035148  0.00405296  1
  Mn  Mn18  1  0.74636912  0.25107992  0.50640162  1
  Mn  Mn19  1  0.75538992  0.74567911  0.00058969  1
  Mn  Mn20  1  0.75144138  0.74684890  0.50506324  1
  Mn  Mn21  1  0.99573606  0.25813595  0.76497338  1
  Mn  Mn22  1  0.99768962  0.74800230  0.26375311  1
  Mn  Mn23  1  0.99748378  0.74983909  0.75034148  1
  Mn  Mn24  1  0.52232468  0.25619899  0.25405537  1
  Mn  Mn25  1  0.51452872  0.24787885  0.75158981  1
  Mn  Mn26  1  0.51669433  0.75238660  0.26337069  1
  Mn  Mn27  1  0.50306659  0.74684059  0.74828755  1
  O  O0  1  0.09797236  0.77064357  0.60863776  1
  O  O1  1  0.59273736  0.25469276  0.09841889  1
  O  O2  1  0.57908226  0.25150786  0.58749472  1
  O  O3  1  0.59733495  0.76084662  0.11223973  1
  O  O4  1  0.60450686  0.76341129  0.59985025  1
  O  O5  1  0.40387924  0.20136208  0.35081621  1
  O  O6  1  0.39694445  0.18174133  0.86253095  1
  O  O7  1  0.40529251  0.70245993  0.36589151  1
  O  O8  1  0.41024970  0.73075342  0.89939271  1
  O  O9  1  0.90651884  0.24170046  0.41274366  1
  O  O10  1  0.91190333  0.24024092  0.92366547  1
  O  O11  1  0.89261139  0.73031291  0.40797998  1
  O  O12  1  0.89971190  0.73313909  0.90281384  1
  O  O13  1  0.14766544  0.25139992  0.31849761  1
  O  O14  1  0.17588777  0.25308896  0.80275185  1
  O  O15  1  0.15771758  0.74724149  0.33820509  1
  O  O16  1  0.14497619  0.73810371  0.84942925  1
  O  O17  1  0.65532268  0.21960066  0.34423421  1
  O  O18  1  0.66119392  0.22948273  0.85835160  1
  O  O19  1  0.65775465  0.72539319  0.35134503  1
  O  O20  1  0.65071227  0.72888560  0.85775458  1
  O  O21  1  0.35311470  0.76254210  0.64113260  1
  O  O22  1  0.85663863  0.26846467  0.15405498  1
  O  O23  1  0.86030981  0.27434836  0.65624317  1
  O  O24  1  0.86902955  0.77065056  0.14261072  1
  O  O25  1  0.85120251  0.77171423  0.64697490  1
  O  O26  1  0.36267477  0.51741377  0.16106676  1
  O  O27  1  0.34954475  0.49667484  0.64383603  1
  O  O28  1  0.36159193  0.01927813  0.13584298  1
  O  O29  1  0.34626217  0.99726072  0.65722052  1
  O  O30  1  0.86250116  0.48688004  0.14489078  1
  O  O31  1  0.85332403  0.48051269  0.64411758  1
  O  O32  1  0.86029117  0.97697749  0.14944883  1
  O  O33  1  0.84286513  0.98096852  0.64165336  1
  O  O34  1  0.14715302  0.00567488  0.36225181  1
  O  O35  1  0.17754293  0.00490257  0.86799322  1
  O  O36  1  0.14928677  0.50796995  0.35707607  1
  O  O37  1  0.14907143  0.52647906  0.86322323  1
  O  O38  1  0.62935766  0.02069552  0.33505384  1
  O  O39  1  0.62824276  0.03334096  0.83455312  1
  O  O40  1  0.62437926  0.52959872  0.36319280  1
  O  O41  1  0.64043692  0.51365162  0.85696877  1
  O  O42  1  0.38989800  0.51440791  0.90035245  1
  O  O43  1  0.88464075  0.00930226  0.38948683  1
  O  O44  1  0.89309067  0.01151115  0.89716973  1
  O  O45  1  0.89165493  0.51849850  0.38988097  1
  O  O46  1  0.89213151  0.51756966  0.89627951  1
  O  O47  1  0.11076966  0.48089666  0.10607721  1
  O  O48  1  0.09681770  0.47503374  0.61748421  1
  O  O49  1  0.10630413  0.97082668  0.11237057  1
  O  O50  1  0.09580372  0.98010590  0.62054231  1
  O  O51  1  0.61784352  0.49347489  0.11005868  1
  O  O52  1  0.60133840  0.48709947  0.60975908  1
  O  O53  1  0.59482650  0.99043597  0.07711300  1
  O  O54  1  0.58441951  0.99328072  0.57428795  1
  O  O55  1  0.99364103  0.37870739  0.28095385  1
  O  O56  1  0.01579461  0.37957539  0.79954660  1
  O  O57  1  0.00395166  0.87134964  0.29172082  1
  O  O58  1  0.00581600  0.87307992  0.79380613  1
  O  O59  1  0.48163344  0.37826877  0.28945052  1
  O  O60  1  0.48404399  0.37453184  0.76273515  1
  O  O61  1  0.45919616  0.87452928  0.28789908  1
  O  O62  1  0.51426372  0.87251201  0.77456035  1
  O  O63  1  0.49006347  0.62513787  0.72045119  1
  O  O64  1  0.99356494  0.12533969  0.22789651  1
  O  O65  1  0.00223642  0.12802210  0.73611005  1
  O  O66  1  0.00580424  0.62710158  0.21624148  1
  O  O67  1  0.98538744  0.62588992  0.71781664  1
  O  O68  1  0.19703460  0.14670265  0.02952679  1
  O  O69  1  0.23183037  0.12827087  0.52827466  1
  O  O70  1  0.22246068  0.65197313  0.06033268  1
  O  O71  1  0.22530953  0.62370341  0.52332084  1
  O  O72  1  0.75833411  0.12338765  0.03701912  1
  O  O73  1  0.75047973  0.12456882  0.53412817  1
  O  O74  1  0.74643908  0.62723358  0.03989754  1
  O  O75  1  0.74444080  0.62540415  0.54460346  1
  O  O76  1  0.28565759  0.37373264  0.48212258  1
  O  O77  1  0.29542723  0.33076386  0.02098546  1
  O  O78  1  0.27792451  0.87965802  0.47798906  1
  O  O79  1  0.29506033  0.87453473  0.00023660  1
  O  O80  1  0.74089560  0.37726974  0.46360918  1
  O  O81  1  0.75219569  0.37558323  0.97208075  1
  O  O82  1  0.74637308  0.87168197  0.46223148  1
  O  O83  1  0.74381104  0.87277788  0.96277259  1
loop_
_geom_bond_atom_site_label_1
_geom_bond_atom_site_label_2
_geom_bond_distance
_geom_bond_site_symmetry_2
Ca0 O44 2.281268 1_554
Ca0 O10 2.303915 1_554
Ca0 O64 2.392697 1_555
Ca0 O68 2.402410 1_655
Ca0 O72 2.534997 1_555
Ca1 O67 2.294351 1_455
Ca1 O11 2.371278 1_455
Ca1 O45 2.438253 1_455
Ca1 O71 2.441443 1_555
Ca1 O0 2.707896 1_555
Ca1 O48 2.774876 1_555
Ca1 O75 2.923741 1_455
Ca1 O36 2.972428 1_555
Ca2 O46 2.341479 1_455
Ca2 O12 2.383262 1_455
Ca2 O70 2.448011 1_556
Ca2 O66 2.463379 1_556
Ca2 O37 2.564365 1_555
Ca2 O47 2.716804 1_556
Ca2 O16 2.838078 1_555
Ca3 O2 2.337591 1_555
Ca3 O5 2.340441 1_555
Ca3 O73 2.388604 1_555
Ca3 O17 2.390656 1_555
Ca3 O54 2.406002 1_545
Ca3 O38 2.456187 1_555
Ca4 O6 2.324858 1_555
Ca4 O72 2.360261 1_556
Ca4 O39 2.366795 1_555
Ca4 O1 2.396031 1_556
Ca4 O53 2.398219 1_546
Ca4 O18 2.459051 1_555
Ca5 O63 2.350034 1_555
Ca5 O75 2.394857 1_555
Ca5 O7 2.401234 1_555
Ca5 O4 2.406900 1_555
Ca5 O40 2.522726 1_555
Ca5 O52 2.592229 1_555
Ca5 O19 2.733200 1_555
Ca6 O8 2.329350 1_555
Ca6 O42 2.422333 1_555
Ca6 O41 2.426488 1_555
Ca6 O74 2.452417 1_556
Ca6 O20 2.470367 1_555
Ca6 O51 2.667039 1_556
Ca6 O3 2.734029 1_556
Ca6 O63 2.821234 1_555
Ca7 O52 2.256485 1_555
Ca7 O2 2.337034 1_555
Ca7 O76 2.393415 1_555
Ca7 O59 2.471228 1_555
Ca7 O80 2.739946 1_555
Ca7 O60 2.781975 1_555
Ca7 O27 2.879819 1_555
Ca8 O3 2.277643 1_556
Ca8 O62 2.281002 1_555
Ca8 O53 2.433931 1_556
Ca8 O8 2.481236 1_555
Ca8 O83 2.498350 1_555
Ca8 O79 2.526266 1_556
Ca8 O20 2.847752 1_555
Ca9 O4 2.271355 1_555
Ca9 O78 2.353892 1_555
Ca9 O54 2.371536 1_555
Ca9 O61 2.456671 1_555
Ca9 O21 2.638105 1_555
Ca10 O56 2.339654 1_654
Ca10 O47 2.393183 1_655
Ca10 O81 2.402572 1_554
Ca10 O46 2.452108 1_554
Ca10 O30 2.475563 1_555
Ca10 O10 2.546901 1_554
Ca10 O22 2.808484 1_555
Ca11 O48 2.356799 1_655
Ca11 O31 2.402275 1_555
Ca11 O80 2.441779 1_555
Ca11 O45 2.456676 1_555
Ca11 O55 2.511920 1_555
Ca11 O9 2.577328 1_555
Ca11 O23 2.714069 1_555
Ca12 O58 2.324503 1_655
Ca12 O83 2.366135 1_555
Ca12 O44 2.481248 1_565
Ca12 O24 2.496101 1_556
Ca12 O12 2.502567 1_555
Ca12 O49 2.551926 1_656
Ca12 O32 2.558255 1_556
Ca13 O0 2.360394 1_655
Ca13 O25 2.473720 1_555
Ca13 O82 2.490143 1_555
Ca13 O50 2.499883 1_655
Ca13 O57 2.520670 1_655
Ca13 O11 2.583692 1_555
Ca13 O33 2.623314 1_555
Ca13 O43 2.725807 1_565
Ca14 O27 2.327178 1_555
Ca14 O37 2.367291 1_555
Ca14 O48 2.465241 1_555
Ca14 O56 2.505222 1_555
Ca14 O14 2.508886 1_555
Ca14 O42 2.794431 1_555
Ca14 O60 2.808879 1_555
Ca15 O78 2.250540 1_555
Ca15 O15 2.321671 1_555
Ca15 O34 2.364921 1_565
Ca15 O61 2.516430 1_555
Ca15 O57 2.545299 1_555
Ca15 O49 2.696105 1_555
Ca16 O0 2.446264 1_555
Ca16 O21 2.470845 1_555
Ca16 O58 2.488443 1_555
Ca16 O50 2.498482 1_555
Ca16 O29 2.548371 1_555
Ca16 O16 2.588488 1_555
Ca16 O35 2.616444 1_565
Ca16 O78 2.894014 1_555
Ca16 O79 3.072968 1_556
Ca17 O30 2.299243 1_555
Ca17 O80 2.378036 1_555
Ca17 O22 2.390471 1_555
Ca17 O51 2.744481 1_555
Ca18 O31 2.317338 1_555
Ca18 O81 2.412466 1_555
Ca18 O23 2.460309 1_555
Ca18 O41 2.552408 1_555
Ca18 O52 2.709814 1_555
Ca18 O18 2.813260 1_555
Ca18 O60 2.828650 1_555
Ca19 O24 2.294534 1_555
Ca19 O82 2.312193 1_555
Ca19 O32 2.424694 1_555
Ca19 O19 2.630190 1_555
Ca19 O57 2.788899 1_655
Ca19 O3 2.802336 1_555
Ca19 O38 2.969009 1_565
Ca20 O25 2.272229 1_555
Ca20 O83 2.385873 1_555
Ca20 O62 2.456642 1_555
Ca20 O33 2.466988 1_555
Ca20 O20 2.624607 1_555
Ca20 O4 2.661911 1_555
Ca21 O35 2.260302 1_555
Ca21 O69 2.294198 1_555
Ca21 O29 2.384821 1_545
Ca21 O14 2.425875 1_555
Ca21 O65 2.457585 1_555
Ca21 O6 2.633664 1_555
Ca21 O50 2.715876 1_545
Ca22 O15 2.274525 1_555
Ca22 O36 2.302833 1_555
Ca22 O70 2.307358 1_555
Ca22 O7 2.455272 1_555
Ca22 O26 2.456124 1_555
Ca22 O66 2.626827 1_555
Ca22 O71 2.870166 1_555
Ca23 O71 2.403027 1_555
Ca23 O63 2.477705 1_555
Ca23 O27 2.487201 1_555
Ca23 O37 2.510740 1_555
Ca23 O21 2.514193 1_555
Ca23 O16 2.517895 1_555
Ca23 O8 2.832570 1_555
Ca23 O42 2.871258 1_555
Ca24 O17 2.330373 1_555
Ca24 O72 2.339435 1_555
Ca24 O38 2.392590 1_555
Ca24 O64 2.470847 1_555
Ca24 O43 2.601262 1_555
Ca24 O32 2.632440 1_545
Ca24 O22 2.739530 1_555
Ca25 O39 2.399735 1_555
Ca25 O73 2.417662 1_555
Ca25 O18 2.429916 1_555
Ca25 O65 2.466839 1_655
Ca25 O33 2.636256 1_545
Ca25 O44 2.685499 1_555
Ca25 O23 2.704999 1_555
Ca25 O10 2.968387 1_555
Ca26 O19 2.389782 1_555
Ca26 O74 2.413020 1_555
Ca26 O45 2.489929 1_555
Ca26 O66 2.542095 1_655
Ca26 O40 2.549767 1_555
Ca26 O30 2.587590 1_555
Ca26 O11 2.669980 1_555
Ca26 O24 2.823809 1_555
Ca27 O75 2.349827 1_555
Ca27 O67 2.415708 1_555
Ca27 O20 2.423415 1_555
Ca27 O41 2.509479 1_555
Ca27 O46 2.614382 1_555
Ca27 O31 2.698473 1_555
Ca27 O12 2.728840 1_555
Ca27 O25 2.757184 1_555
Mn0 O50 1.922115 1_655
Mn0 O58 1.925303 1_655
Mn0 O44 1.949305 1_565
Mn0 O33 2.047736 1_555
Mn0 O65 2.105168 1_665
Mn0 O35 2.406054 1_665
Mn1 O55 1.943562 1_455
Mn1 O30 1.946827 1_455
Mn1 O36 1.980716 1_555
Mn1 O66 1.983759 1_555
Mn1 O45 2.004401 1_455
Mn1 O47 2.052558 1_555
Mn2 O48 1.938183 1_655
Mn2 O56 1.963357 1_655
Mn2 O67 1.986292 1_555
Mn2 O46 1.991731 1_555
Mn2 O31 2.008306 1_555
Mn2 O37 2.087487 1_655
Mn3 O38 1.896679 1_565
Mn3 O53 1.904217 1_555
Mn3 O61 1.930967 1_555
Mn3 O28 1.945307 1_565
Mn4 O39 1.882208 1_565
Mn4 O29 1.914776 1_555
Mn4 O54 1.933395 1_555
Mn4 O62 1.956711 1_555
Mn5 O40 1.880838 1_555
Mn5 O26 1.891851 1_555
Mn5 O59 1.917133 1_555
Mn5 O51 1.924697 1_555
Mn6 O63 1.936568 1_555
Mn6 O52 1.953262 1_555
Mn6 O27 1.965223 1_555
Mn6 O60 1.990319 1_555
Mn6 O41 1.999385 1_555
Mn6 O42 2.092147 1_555
Mn7 O34 1.940548 1_565
Mn7 O78 1.946015 1_555
Mn7 O29 1.968274 1_555
Mn7 O69 2.010536 1_565
Mn7 O50 2.043002 1_555
Mn8 O42 1.958982 1_554
Mn8 O37 1.974752 1_554
Mn8 O47 2.022357 1_555
Mn8 O26 2.047364 1_555
Mn8 O70 2.147018 1_555
Mn9 O27 1.909188 1_555
Mn9 O36 1.950355 1_555
Mn9 O71 1.982797 1_555
Mn9 O48 2.006972 1_555
Mn9 O76 2.010323 1_555
Mn10 O53 1.949744 1_556
Mn10 O44 1.962644 1_565
Mn10 O83 1.979140 1_555
Mn10 O72 2.001388 1_566
Mn10 O32 2.165295 1_556
Mn10 O39 2.221886 1_565
Mn11 O54 1.940623 1_555
Mn11 O33 1.958669 1_555
Mn11 O82 1.974193 1_555
Mn11 O43 2.030036 1_565
Mn11 O73 2.032697 1_565
Mn11 O38 2.189854 1_565
Mn12 O51 1.953090 1_555
Mn12 O74 1.953874 1_555
Mn12 O46 1.958100 1_554
Mn12 O30 2.000108 1_555
Mn12 O41 2.012688 1_554
Mn12 O81 2.025696 1_554
Mn13 O75 1.946523 1_555
Mn13 O31 1.997308 1_555
Mn13 O52 2.000718 1_555
Mn13 O80 2.005187 1_555
Mn13 O40 2.053917 1_555
Mn13 O45 2.104468 1_555
Mn14 O76 1.983881 1_555
Mn14 O69 2.016170 1_555
Mn14 O13 2.084815 1_555
Mn14 O5 2.104068 1_555
Mn15 O70 1.848909 1_556
Mn15 O16 1.898410 1_555
Mn15 O8 1.907334 1_555
Mn15 O79 1.966711 1_556
Mn16 O21 1.946566 1_555
Mn16 O71 1.978373 1_555
Mn16 O15 2.027952 1_555
Mn16 O78 2.069375 1_555
Mn16 O0 2.082633 1_555
Mn16 O7 2.445867 1_555
Mn17 O10 1.936716 1_554
Mn17 O18 1.950607 1_554
Mn17 O81 1.978980 1_554
Mn17 O22 1.979433 1_555
Mn17 O72 2.005641 1_555
Mn17 O1 2.142601 1_555
Mn18 O73 1.989466 1_555
Mn18 O80 2.017972 1_555
Mn18 O2 2.078548 1_555
Mn18 O9 2.081585 1_555
Mn18 O23 2.092369 1_555
Mn18 O17 2.095144 1_555
Mn19 O74 1.893318 1_555
Mn19 O20 1.956978 1_554
Mn19 O12 1.961880 1_554
Mn19 O83 2.022753 1_554
Mn19 O24 2.028333 1_555
Mn19 O3 2.180105 1_555
Mn20 O11 1.936087 1_555
Mn20 O25 1.938025 1_555
Mn20 O75 1.938234 1_555
Mn20 O4 1.974963 1_555
Mn20 O82 1.997476 1_555
Mn20 O19 2.000254 1_555
Mn21 O23 1.923154 1_555
Mn21 O56 1.932633 1_655
Mn21 O10 2.023939 1_555
Mn21 O14 2.034981 1_655
Mn21 O65 2.045849 1_655
Mn22 O57 1.939087 1_655
Mn22 O15 1.941157 1_655
Mn22 O66 1.950534 1_655
Mn22 O24 1.971515 1_555
Mn22 O11 2.014976 1_555
Mn23 O67 1.959396 1_555
Mn23 O16 1.960014 1_655
Mn23 O0 1.969684 1_655
Mn23 O58 1.972096 1_655
Mn23 O25 1.997101 1_555
Mn23 O12 2.041692 1_555
Mn24 O17 1.857017 1_555
Mn24 O1 1.906661 1_555
Mn24 O5 1.910025 1_555
Mn24 O59 1.990657 1_555
Mn25 O2 1.967283 1_555
Mn25 O60 2.001182 1_555
Mn25 O18 2.012825 1_555
Mn25 O6 2.078696 1_555
Mn26 O7 1.862127 1_555
Mn26 O19 1.875947 1_555
Mn26 O3 1.918109 1_555
Mn26 O61 2.024057 1_555
Mn27 O63 1.917057 1_555
Mn27 O62 1.974041 1_555
Mn27 O8 1.998048 1_555
Mn27 O4 2.027120 1_555
Mn27 O20 2.037646 1_555
Mn27 O21 2.038687 1_555
O1 Sr1 2.540140 1_554
O5 Sr3 2.528028 1_555
O6 Ti2 1.879461 1_555
O9 Ti3 1.791106 1_555
O9 Sr0 2.484249 1_555
O13 Ti3 1.871643 1_455
O13 Sr3 2.369920 1_555
O13 Sr2 2.490307 1_555
O14 Ti2 1.846732 1_555
O22 Ti3 1.929845 1_555
O26 Sr2 2.601865 1_555
O28 Ti1 1.948107 1_545
O28 Sr3 2.488344 1_555
O32 Ti0 1.859201 1_555
O33 Sr0 3.027953 1_565
O34 Ti0 2.093500 1_445
O34 Sr3 2.407056 1_555
O34 Sr0 2.924460 1_455
O35 Ti1 1.807457 1_546
O36 Sr2 2.512198 1_555
O41 Sr1 2.867917 1_555
O42 Sr1 2.592886 1_555
O43 Ti0 1.862285 1_545
O43 Sr0 2.419431 1_555
O47 Sr2 2.569073 1_555
O49 Ti1 1.811337 1_555
O49 Ti0 2.155434 1_455
O50 Sr0 2.632130 1_465
O51 Sr1 2.448577 1_554
O55 Ti3 1.932534 1_555
O55 Sr2 2.810868 1_655
O57 Ti0 1.887776 1_455
O59 Sr2 2.684164 1_555
O60 Sr1 2.500202 1_555
O64 Ti3 2.069157 1_555
O64 Ti0 2.131451 1_545
O64 Sr3 2.644013 1_655
O64 Sr0 3.160596 1_555
O65 Sr0 2.479680 1_455
O68 Ti2 1.814195 1_554
O68 Sr3 2.455824 1_555
O68 Ti1 2.557711 1_545
O69 Sr0 2.636393 1_455
O73 Sr0 2.735624 1_555
O76 Sr2 2.678149 1_555
O77 Ti2 1.797858 1_554
O77 Sr1 2.554032 1_554
O77 Sr2 2.683377 1_555
O79 Ti1 1.846078 1_555
O81 Sr1 2.701458 1_555
