# generated using pymatgen
data_KNb5Pb2O15
_symmetry_space_group_name_H-M   'P 1'
_cell_length_a   3.98247000
_cell_length_b   12.88888800
_cell_length_c   12.93892600
_cell_angle_alpha   90.00000000
_cell_angle_beta   90.00000000
_cell_angle_gamma   90.00000000
_symmetry_Int_Tables_number   1
_chemical_formula_structural   KNb5Pb2O15
_chemical_formula_sum   'K2 Nb10 Pb4 O30'
_cell_volume   664.15002273
_cell_formula_units_Z   2
loop_
 _symmetry_equiv_pos_site_id
 _symmetry_equiv_pos_as_xyz
  1  'x, y, z'
loop_
 _atom_site_type_symbol
 _atom_site_label
 _atom_site_symmetry_multiplicity
 _atom_site_fract_x
 _atom_site_fract_y
 _atom_site_fract_z
 _atom_site_occupancy
  K  K0  1  0.50000000  0.67399800  0.92364200  1
  K  K1  1  0.50000000  0.17399800  0.07635800  1
  Nb  Nb0  1  0.00000000  0.56850300  0.46491500  1
  Nb  Nb1  1  0.00000000  0.41496500  0.03941700  1
  Nb  Nb2  1  0.00000000  0.06850300  0.53508500  1
  Nb  Nb3  1  0.00000000  0.91496500  0.96058300  1
  Nb  Nb4  1  0.00000000  0.28284000  0.33534600  1
  Nb  Nb5  1  0.00000000  0.70225400  0.17503500  1
  Nb  Nb6  1  0.00000000  0.20225400  0.82496500  1
  Nb  Nb7  1  0.00000000  0.78284000  0.66465400  1
  Nb  Nb8  1  0.00000000  0.50239000  0.75886100  1
  Nb  Nb9  1  0.00000000  0.00239000  0.24113900  1
  Pb  Pb0  1  0.50000000  0.49019800  0.25365100  1
  Pb  Pb1  1  0.50000000  0.99019800  0.74634900  1
  Pb  Pb2  1  0.50000000  0.82079000  0.36929700  1
  Pb  Pb3  1  0.50000000  0.32079000  0.63070300  1
  O  O0  1  0.50000000  0.58241300  0.44944100  1
  O  O1  1  0.50000000  0.42972400  0.04593500  1
  O  O2  1  0.50000000  0.08241300  0.55055900  1
  O  O3  1  0.50000000  0.92972400  0.95406500  1
  O  O4  1  0.50000000  0.30243000  0.32419900  1
  O  O5  1  0.50000000  0.71695300  0.18174400  1
  O  O6  1  0.50000000  0.21695300  0.81825600  1
  O  O7  1  0.50000000  0.80243000  0.67580100  1
  O  O8  1  0.00000000  0.71822800  0.53357100  1
  O  O9  1  0.00000000  0.28852400  0.96272800  1
  O  O10  1  0.00000000  0.21822800  0.46642900  1
  O  O11  1  0.00000000  0.78852400  0.03727200  1
  O  O12  1  0.00000000  0.49787800  0.59057300  1
  O  O13  1  0.00000000  0.50463500  0.90357600  1
  O  O14  1  0.00000000  0.99787800  0.40942700  1
  O  O15  1  0.00000000  0.00463500  0.09642400  1
  O  O16  1  0.00000000  0.15611800  0.25340800  1
  O  O17  1  0.00000000  0.84563900  0.26396400  1
  O  O18  1  0.00000000  0.34563900  0.73603600  1
  O  O19  1  0.00000000  0.65611800  0.74659200  1
  O  O20  1  0.00000000  0.64314300  0.31416400  1
  O  O21  1  0.00000000  0.36283900  0.18000000  1
  O  O22  1  0.00000000  0.14314300  0.68583600  1
  O  O23  1  0.00000000  0.86283900  0.82000000  1
  O  O24  1  0.00000000  0.43831900  0.38142000  1
  O  O25  1  0.00000000  0.57254300  0.10767700  1
  O  O26  1  0.00000000  0.07254300  0.89232300  1
  O  O27  1  0.00000000  0.93831900  0.61858000  1
  O  O28  1  0.50000000  0.48917900  0.74160900  1
  O  O29  1  0.50000000  0.98917900  0.25839100  1
loop_
_geom_bond_atom_site_label_1
_geom_bond_atom_site_label_2
_geom_bond_distance
_geom_bond_site_symmetry_2
K0 O11 2.881937 1_556
K0 O11 2.881937 1_656
K0 O13 2.966055 1_555
K0 O13 2.966055 1_655
K0 O19 3.044020 1_555
K0 O19 3.044020 1_655
K1 O9 2.881937 1_554
K1 O9 2.881937 1_654
K1 O15 2.966055 1_555
K1 O15 2.966055 1_655
K1 O16 3.044020 1_555
K1 O16 3.044020 1_655
Nb0 O12 1.863354 1_555
Nb0 O24 1.995636 1_555
Nb0 O0 2.009290 1_455
Nb0 O0 2.009290 1_555
Nb0 O8 2.124435 1_555
Nb0 O20 2.174894 1_555
Nb1 O9 1.908003 1_554
Nb1 O21 1.939101 1_555
Nb1 O1 2.002078 1_555
Nb1 O1 2.002078 1_455
Nb1 O13 2.103577 1_554
Nb1 O25 2.214733 1_555
Nb2 O14 1.863354 1_545
Nb2 O27 1.995636 1_545
Nb2 O2 2.009290 1_555
Nb2 O2 2.009290 1_455
Nb2 O10 2.124435 1_555
Nb2 O22 2.174894 1_555
Nb3 O11 1.908003 1_556
Nb3 O23 1.939101 1_555
Nb3 O3 2.002078 1_455
Nb3 O3 2.002078 1_555
Nb3 O15 2.103577 1_566
Nb3 O26 2.214733 1_565
Nb4 O10 1.889492 1_555
Nb4 O16 1.947226 1_555
Nb4 O4 2.012355 1_555
Nb4 O4 2.012355 1_455
Nb4 O24 2.090745 1_555
Nb4 O21 2.259050 1_555
Nb5 O25 1.885365 1_555
Nb5 O20 1.954764 1_555
Nb5 O5 2.002110 1_455
Nb5 O5 2.002110 1_555
Nb5 O11 2.100881 1_555
Nb5 O17 2.177007 1_555
Nb6 O26 1.885365 1_555
Nb6 O22 1.954764 1_555
Nb6 O6 2.002110 1_455
Nb6 O6 2.002110 1_555
Nb6 O9 2.100881 1_555
Nb6 O18 2.177007 1_555
Nb7 O8 1.889492 1_555
Nb7 O19 1.947226 1_555
Nb7 O7 2.012355 1_555
Nb7 O7 2.012355 1_455
Nb7 O27 2.090745 1_555
Nb7 O23 2.259050 1_555
Nb8 O13 1.872680 1_555
Nb8 O19 1.987732 1_555
Nb8 O28 2.010930 1_555
Nb8 O28 2.010930 1_455
Nb8 O18 2.041817 1_555
Nb8 O12 2.178242 1_555
Nb9 O15 1.872680 1_555
Nb9 O16 1.987732 1_555
Nb9 O29 2.010930 1_445
Nb9 O29 2.010930 1_545
Nb9 O17 2.041817 1_545
Nb9 O14 2.178242 1_545
O0 Pb0 2.798271 1_555
O1 Pb0 2.798364 1_555
O2 Pb1 2.798271 1_545
O3 Pb1 2.798364 1_555
O4 Pb0 2.586545 1_555
O5 Pb2 2.771318 1_555
O6 Pb3 2.771318 1_555
O7 Pb1 2.586545 1_555
O17 Pb2 2.434148 1_555
O17 Pb2 2.434148 1_455
O18 Pb3 2.434148 1_555
O18 Pb3 2.434148 1_455
O21 Pb0 2.750951 1_455
O21 Pb0 2.750951 1_555
O23 Pb1 2.750951 1_555
O23 Pb1 2.750951 1_455
O24 Pb0 2.673046 1_555
O24 Pb0 2.673046 1_455
O27 Pb1 2.673046 1_455
O27 Pb1 2.673046 1_555
O28 Pb3 2.601854 1_555
O29 Pb2 2.601854 1_555
