# generated using pymatgen
data_CeZrO4
_symmetry_space_group_name_H-M   'P 1'
_cell_length_a   5.38765100
_cell_length_b   5.38765100
_cell_length_c   5.30327500
_cell_angle_alpha   90.00000000
_cell_angle_beta   90.00000000
_cell_angle_gamma   90.00000000
_symmetry_Int_Tables_number   1
_chemical_formula_structural   CeZrO4
_chemical_formula_sum   'Ce2 Zr2 O8'
_cell_volume   153.93701419
_cell_formula_units_Z   2
loop_
 _symmetry_equiv_pos_site_id
 _symmetry_equiv_pos_as_xyz
  1  'x, y, z'
loop_
 _atom_site_type_symbol
 _atom_site_label
 _atom_site_symmetry_multiplicity
 _atom_site_fract_x
 _atom_site_fract_y
 _atom_site_fract_z
 _atom_site_occupancy
  Ce  Ce0  1  0.00000000  0.00000000  0.00000000  1
  Ce  Ce1  1  0.50000000  0.50000000  0.00000000  1
  Zr  Zr0  1  0.50000000  0.00000000  0.50000000  1
  Zr  Zr1  1  0.00000000  0.50000000  0.50000000  1
  O  O0  1  0.71370200  0.78629800  0.74483300  1
  O  O1  1  0.78629800  0.28629800  0.74483300  1
  O  O2  1  0.28629800  0.21370200  0.74483300  1
  O  O3  1  0.21370200  0.71370200  0.74483300  1
  O  O4  1  0.71370200  0.21370200  0.25516700  1
  O  O5  1  0.78629800  0.71370200  0.25516700  1
  O  O6  1  0.28629800  0.78629800  0.25516700  1
  O  O7  1  0.21370200  0.28629800  0.25516700  1
loop_
_geom_bond_atom_site_label_1
_geom_bond_atom_site_label_2
_geom_bond_distance
_geom_bond_site_symmetry_2
Ce0 O1 2.352880 1_454
Ce0 O5 2.352880 1_445
Ce0 O7 2.352880 1_555
Ce0 O6 2.352880 1_545
Ce0 O4 2.352880 1_455
Ce0 O0 2.352880 1_444
Ce0 O3 2.352880 1_544
Ce0 O2 2.352880 1_554
Ce1 O5 2.352880 1_555
Ce1 O3 2.352880 1_554
Ce1 O7 2.352880 1_555
Ce1 O4 2.352880 1_555
Ce1 O1 2.352880 1_554
Ce1 O2 2.352880 1_554
Ce1 O6 2.352880 1_555
Ce1 O0 2.352880 1_554
O0 Zr0 2.082572 1_565
O0 Zr1 2.538570 1_655
O1 Zr1 2.082572 1_655
O1 Zr0 2.538570 1_555
O2 Zr0 2.082572 1_555
O2 Zr1 2.538570 1_555
O3 Zr1 2.082572 1_555
O3 Zr0 2.538570 1_565
O4 Zr0 2.082572 1_555
O4 Zr1 2.538570 1_655
O5 Zr1 2.082572 1_655
O5 Zr0 2.538570 1_565
O6 Zr0 2.082572 1_565
O6 Zr1 2.538570 1_555
O7 Zr1 2.082572 1_555
O7 Zr0 2.538570 1_555
