# generated using pymatgen
data_UB2Os3
_symmetry_space_group_name_H-M   'P 1'
_cell_length_a   11.06643321
_cell_length_b   11.06652687
_cell_length_c   5.98107414
_cell_angle_alpha   90.00000000
_cell_angle_beta   90.00000000
_cell_angle_gamma   119.99955508
_symmetry_Int_Tables_number   1
_chemical_formula_structural   UB2Os3
_chemical_formula_sum   'U8 B16 Os24'
_cell_volume   634.35267352
_cell_formula_units_Z   8
loop_
 _symmetry_equiv_pos_site_id
 _symmetry_equiv_pos_as_xyz
  1  'x, y, z'
loop_
 _atom_site_type_symbol
 _atom_site_label
 _atom_site_symmetry_multiplicity
 _atom_site_fract_x
 _atom_site_fract_y
 _atom_site_fract_z
 _atom_site_occupancy
  U  U0_0  1  0.00000000  0.00000000  0.00000000  1
  U  U0_1  1  0.00000000  0.00000000  0.50000000  1
  U  U0_2  1  0.00000000  0.50000000  0.00000000  1
  U  U0_3  1  0.00000000  0.50000000  0.50000000  1
  U  U0_4  1  0.50000000  0.00000000  0.00000000  1
  U  U0_5  1  0.50000000  0.00000000  0.50000000  1
  U  U0_6  1  0.50000000  0.50000000  0.00000000  1
  U  U0_7  1  0.50000000  0.50000000  0.50000000  1
  B  B0_0  1  0.16666550  0.33333250  0.00000000  1
  B  B0_1  1  0.16666550  0.33333250  0.50000000  1
  B  B0_2  1  0.16666550  0.83333250  0.00000000  1
  B  B0_3  1  0.16666550  0.83333250  0.50000000  1
  B  B0_4  1  0.66666550  0.33333250  0.00000000  1
  B  B0_5  1  0.66666550  0.33333250  0.50000000  1
  B  B0_6  1  0.66666550  0.83333250  0.00000000  1
  B  B0_7  1  0.66666550  0.83333250  0.50000000  1
  B  B1_0  1  0.33333450  0.16666750  0.00000000  1
  B  B1_1  1  0.33333450  0.16666750  0.50000000  1
  B  B1_2  1  0.33333450  0.66666750  0.00000000  1
  B  B1_3  1  0.33333450  0.66666750  0.50000000  1
  B  B1_4  1  0.83333450  0.16666750  0.00000000  1
  B  B1_5  1  0.83333450  0.16666750  0.50000000  1
  B  B1_6  1  0.83333450  0.66666750  0.00000000  1
  B  B1_7  1  0.83333450  0.66666750  0.50000000  1
  Os  Os0_0  1  0.25000000  0.25000000  0.25000000  1
  Os  Os0_1  1  0.25000000  0.25000000  0.75000000  1
  Os  Os0_2  1  0.25000000  0.75000000  0.25000000  1
  Os  Os0_3  1  0.25000000  0.75000000  0.75000000  1
  Os  Os0_4  1  0.75000000  0.25000000  0.25000000  1
  Os  Os0_5  1  0.75000000  0.25000000  0.75000000  1
  Os  Os0_6  1  0.75000000  0.75000000  0.25000000  1
  Os  Os0_7  1  0.75000000  0.75000000  0.75000000  1
  Os  Os1_0  1  0.00000000  0.25000000  0.25000000  1
  Os  Os1_1  1  0.00000000  0.25000000  0.75000000  1
  Os  Os1_2  1  0.00000000  0.75000000  0.25000000  1
  Os  Os1_3  1  0.00000000  0.75000000  0.75000000  1
  Os  Os1_4  1  0.50000000  0.25000000  0.25000000  1
  Os  Os1_5  1  0.50000000  0.25000000  0.75000000  1
  Os  Os1_6  1  0.50000000  0.75000000  0.25000000  1
  Os  Os1_7  1  0.50000000  0.75000000  0.75000000  1
  Os  Os2_0  1  0.25000000  0.00000000  0.25000000  1
  Os  Os2_1  1  0.25000000  0.00000000  0.75000000  1
  Os  Os2_2  1  0.25000000  0.50000000  0.25000000  1
  Os  Os2_3  1  0.25000000  0.50000000  0.75000000  1
  Os  Os2_4  1  0.75000000  0.00000000  0.25000000  1
  Os  Os2_5  1  0.75000000  0.00000000  0.75000000  1
  Os  Os2_6  1  0.75000000  0.50000000  0.25000000  1
  Os  Os2_7  1  0.75000000  0.50000000  0.75000000  1
loop_
_geom_bond_atom_site_label_1
_geom_bond_atom_site_label_2
_geom_bond_distance
_geom_bond_site_symmetry_2
U0_0 U0_1 2.990537 1_555
U0_0 U0_1 2.990537 1_554
U0_2 U0_3 2.990537 1_555
U0_2 U0_3 2.990537 1_554
U0_4 U0_5 2.990537 1_554
U0_4 U0_5 2.990537 1_555
U0_6 U0_7 2.990537 1_555
U0_6 U0_7 2.990537 1_554
B0_0 Os1_0 2.187965 1_555
B0_0 Os1_1 2.187965 1_554
B0_0 Os0_0 2.187972 1_555
B0_0 Os0_1 2.187972 1_554
B0_0 Os2_2 2.187988 1_555
B0_0 Os2_3 2.187988 1_554
B0_0 U0_2 3.194607 1_555
B0_0 U0_6 3.194630 1_555
B0_0 U0_0 3.194637 1_555
B0_1 Os1_0 2.187965 1_555
B0_1 Os1_1 2.187965 1_555
B0_1 Os0_0 2.187972 1_555
B0_1 Os0_1 2.187972 1_555
B0_1 Os2_3 2.187988 1_555
B0_1 Os2_2 2.187988 1_555
B0_1 U0_3 3.194607 1_555
B0_1 U0_7 3.194630 1_555
B0_1 U0_1 3.194637 1_555
B0_2 Os1_2 2.187965 1_555
B0_2 Os1_3 2.187965 1_554
B0_2 Os0_3 2.187972 1_554
B0_2 Os0_2 2.187972 1_555
B0_2 Os2_1 2.187988 1_564
B0_2 Os2_0 2.187988 1_565
B0_2 U0_0 3.194607 1_565
B0_2 U0_4 3.194630 1_565
B0_2 U0_2 3.194637 1_555
B0_3 Os1_2 2.187965 1_555
B0_3 Os1_3 2.187965 1_555
B0_3 Os0_2 2.187972 1_555
B0_3 Os0_3 2.187972 1_555
B0_3 Os2_1 2.187988 1_565
B0_3 Os2_0 2.187988 1_565
B0_3 U0_1 3.194607 1_565
B0_3 U0_5 3.194630 1_565
B0_3 U0_3 3.194637 1_555
B0_4 Os1_5 2.187965 1_554
B0_4 Os1_4 2.187965 1_555
B0_4 Os0_5 2.187972 1_554
B0_4 Os0_4 2.187972 1_555
B0_4 Os2_6 2.187988 1_555
B0_4 Os2_7 2.187988 1_554
B0_4 U0_6 3.194607 1_555
B0_4 U0_2 3.194630 1_655
B0_4 U0_4 3.194637 1_555
B0_5 Os1_5 2.187965 1_555
B0_5 Os1_4 2.187965 1_555
B0_5 Os0_5 2.187972 1_555
B0_5 Os0_4 2.187972 1_555
B0_5 Os2_6 2.187988 1_555
B0_5 Os2_7 2.187988 1_555
B0_5 U0_7 3.194607 1_555
B0_5 U0_3 3.194630 1_655
B0_5 U0_5 3.194637 1_555
B0_6 Os1_6 2.187965 1_555
B0_6 Os1_7 2.187965 1_554
B0_6 Os0_7 2.187972 1_554
B0_6 Os0_6 2.187972 1_555
B0_6 Os2_5 2.187988 1_564
B0_6 Os2_4 2.187988 1_565
B0_6 U0_4 3.194607 1_565
B0_6 U0_0 3.194630 1_665
B0_6 U0_6 3.194637 1_555
B0_7 Os1_6 2.187965 1_555
B0_7 Os1_7 2.187965 1_555
B0_7 Os0_7 2.187972 1_555
B0_7 Os0_6 2.187972 1_555
B0_7 Os2_4 2.187988 1_565
B0_7 Os2_5 2.187988 1_565
B0_7 U0_5 3.194607 1_565
B0_7 U0_1 3.194630 1_665
B0_7 U0_7 3.194637 1_555
B1_0 Os1_4 2.187965 1_555
B1_0 Os1_5 2.187965 1_554
B1_0 Os0_0 2.187972 1_555
B1_0 Os0_1 2.187972 1_554
B1_0 Os2_1 2.187988 1_554
B1_0 Os2_0 2.187988 1_555
B1_0 U0_4 3.194607 1_555
B1_0 U0_0 3.194630 1_555
B1_0 U0_6 3.194637 1_555
B1_1 Os1_5 2.187965 1_555
B1_1 Os1_4 2.187965 1_555
B1_1 Os0_0 2.187972 1_555
B1_1 Os0_1 2.187972 1_555
B1_1 Os2_1 2.187988 1_555
B1_1 Os2_0 2.187988 1_555
B1_1 U0_5 3.194607 1_555
B1_1 U0_1 3.194630 1_555
B1_1 U0_7 3.194637 1_555
B1_2 Os1_6 2.187965 1_555
B1_2 Os1_7 2.187965 1_554
B1_2 Os0_3 2.187972 1_554
B1_2 Os0_2 2.187972 1_555
B1_2 Os2_2 2.187988 1_555
B1_2 Os2_3 2.187988 1_554
B1_2 U0_6 3.194607 1_555
B1_2 U0_2 3.194630 1_555
B1_2 U0_4 3.194637 1_565
B1_3 Os1_6 2.187965 1_555
B1_3 Os1_7 2.187965 1_555
B1_3 Os0_2 2.187972 1_555
B1_3 Os0_3 2.187972 1_555
B1_3 Os2_3 2.187988 1_555
B1_3 Os2_2 2.187988 1_555
B1_3 U0_7 3.194607 1_555
B1_3 U0_3 3.194630 1_555
B1_3 U0_5 3.194637 1_565
B1_4 Os1_0 2.187965 1_655
B1_4 Os1_1 2.187965 1_654
B1_4 Os0_4 2.187972 1_555
B1_4 Os0_5 2.187972 1_554
B1_4 Os2_5 2.187988 1_554
B1_4 Os2_4 2.187988 1_555
B1_4 U0_0 3.194607 1_655
B1_4 U0_4 3.194630 1_555
B1_4 U0_2 3.194637 1_655
B1_5 Os1_0 2.187965 1_655
B1_5 Os1_1 2.187965 1_655
B1_5 Os0_5 2.187972 1_555
B1_5 Os0_4 2.187972 1_555
B1_5 Os2_4 2.187988 1_555
B1_5 Os2_5 2.187988 1_555
B1_5 U0_1 3.194607 1_655
B1_5 U0_5 3.194630 1_555
B1_5 U0_3 3.194637 1_655
B1_6 Os1_2 2.187965 1_655
B1_6 Os1_3 2.187965 1_654
B1_6 Os0_7 2.187972 1_554
B1_6 Os0_6 2.187972 1_555
B1_6 Os2_7 2.187988 1_554
B1_6 Os2_6 2.187988 1_555
B1_6 U0_2 3.194607 1_655
B1_6 U0_6 3.194630 1_555
B1_6 U0_0 3.194637 1_665
B1_7 Os1_2 2.187965 1_655
B1_7 Os1_3 2.187965 1_655
B1_7 Os0_6 2.187972 1_555
B1_7 Os0_7 2.187972 1_555
B1_7 Os2_7 2.187988 1_555
B1_7 Os2_6 2.187988 1_555
B1_7 U0_3 3.194607 1_655
B1_7 U0_7 3.194630 1_555
B1_7 U0_1 3.194637 1_665
Os0_0 U0_6 3.144856 1_555
Os0_0 U0_7 3.144856 1_555
Os0_0 U0_1 3.144856 1_555
Os0_0 U0_0 3.144856 1_555
Os0_1 U0_6 3.144856 1_556
Os0_1 U0_0 3.144856 1_556
Os0_1 U0_7 3.144856 1_555
Os0_1 U0_1 3.144856 1_555
Os0_2 U0_4 3.144856 1_565
Os0_2 U0_5 3.144856 1_565
Os0_2 U0_2 3.144856 1_555
Os0_2 U0_3 3.144856 1_555
Os0_3 U0_4 3.144856 1_566
Os0_3 U0_5 3.144856 1_565
Os0_3 U0_3 3.144856 1_555
Os0_3 U0_2 3.144856 1_556
Os0_4 U0_4 3.144856 1_555
Os0_4 U0_5 3.144856 1_555
Os0_4 U0_3 3.144856 1_655
Os0_4 U0_2 3.144856 1_655
Os0_5 U0_4 3.144856 1_556
Os0_5 U0_5 3.144856 1_555
Os0_5 U0_3 3.144856 1_655
Os0_5 U0_2 3.144856 1_656
Os0_6 U0_1 3.144856 1_665
Os0_6 U0_0 3.144856 1_665
Os0_6 U0_6 3.144856 1_555
Os0_6 U0_7 3.144856 1_555
Os0_7 U0_0 3.144856 1_666
Os0_7 U0_1 3.144856 1_665
Os0_7 U0_6 3.144856 1_556
Os0_7 U0_7 3.144856 1_555
Os1_0 U0_0 3.144850 1_555
Os1_0 U0_1 3.144850 1_555
Os1_0 U0_2 3.144850 1_555
Os1_0 U0_3 3.144850 1_555
Os1_1 U0_1 3.144850 1_555
Os1_1 U0_0 3.144850 1_556
Os1_1 U0_2 3.144850 1_556
Os1_1 U0_3 3.144850 1_555
Os1_2 U0_0 3.144850 1_565
Os1_2 U0_1 3.144850 1_565
Os1_2 U0_2 3.144850 1_555
Os1_2 U0_3 3.144850 1_555
Os1_3 U0_2 3.144850 1_556
Os1_3 U0_0 3.144850 1_566
Os1_3 U0_1 3.144850 1_565
Os1_3 U0_3 3.144850 1_555
Os1_4 U0_7 3.144850 1_555
Os1_4 U0_6 3.144850 1_555
Os1_4 U0_5 3.144850 1_555
Os1_4 U0_4 3.144850 1_555
Os1_5 U0_6 3.144850 1_556
Os1_5 U0_7 3.144850 1_555
Os1_5 U0_4 3.144850 1_556
Os1_5 U0_5 3.144850 1_555
Os1_6 U0_7 3.144850 1_555
Os1_6 U0_6 3.144850 1_555
Os1_6 U0_4 3.144850 1_565
Os1_6 U0_5 3.144850 1_565
Os1_7 U0_6 3.144850 1_556
Os1_7 U0_7 3.144850 1_555
Os1_7 U0_4 3.144850 1_566
Os1_7 U0_5 3.144850 1_565
Os2_0 U0_0 3.144829 1_555
Os2_0 U0_1 3.144829 1_555
Os2_0 U0_5 3.144829 1_555
Os2_0 U0_4 3.144829 1_555
Os2_1 U0_0 3.144829 1_556
Os2_1 U0_4 3.144829 1_556
Os2_1 U0_1 3.144829 1_555
Os2_1 U0_5 3.144829 1_555
Os2_2 U0_6 3.144829 1_555
Os2_2 U0_7 3.144829 1_555
Os2_2 U0_3 3.144829 1_555
Os2_2 U0_2 3.144829 1_555
Os2_3 U0_2 3.144829 1_556
Os2_3 U0_6 3.144829 1_556
Os2_3 U0_7 3.144829 1_555
Os2_3 U0_3 3.144829 1_555
Os2_4 U0_0 3.144829 1_655
Os2_4 U0_5 3.144829 1_555
Os2_4 U0_4 3.144829 1_555
Os2_4 U0_1 3.144829 1_655
Os2_5 U0_4 3.144829 1_556
Os2_5 U0_0 3.144829 1_656
Os2_5 U0_5 3.144829 1_555
Os2_5 U0_1 3.144829 1_655
Os2_6 U0_3 3.144829 1_655
Os2_6 U0_2 3.144829 1_655
Os2_6 U0_6 3.144829 1_555
Os2_6 U0_7 3.144829 1_555
Os2_7 U0_3 3.144829 1_655
Os2_7 U0_2 3.144829 1_656
Os2_7 U0_6 3.144829 1_556
Os2_7 U0_7 3.144829 1_555
