# generated using pymatgen
data_NdB7ClO18
_symmetry_space_group_name_H-M   'P 1'
_cell_length_a   8.33249900
_cell_length_b   16.74041100
_cell_length_c   12.98790289
_cell_angle_alpha   90.00000000
_cell_angle_beta   129.91240163
_cell_angle_gamma   90.00000000
_symmetry_Int_Tables_number   1
_chemical_formula_structural   NdB7ClO18
_chemical_formula_sum   'Nd4 B28 Cl4 O72'
_cell_volume   1389.60276761
_cell_formula_units_Z   4
loop_
 _symmetry_equiv_pos_site_id
 _symmetry_equiv_pos_as_xyz
  1  'x, y, z'
loop_
 _atom_site_type_symbol
 _atom_site_label
 _atom_site_symmetry_multiplicity
 _atom_site_fract_x
 _atom_site_fract_y
 _atom_site_fract_z
 _atom_site_occupancy
  Nd  Nd0  1  0.01702300  0.70408800  0.28091000  1
  Nd  Nd1  1  0.01702300  0.79591200  0.78091000  1
  Nd  Nd2  1  0.98297700  0.29591200  0.71909000  1
  Nd  Nd3  1  0.98297700  0.20408800  0.21909000  1
  B  B0  1  0.49784300  0.69964400  0.66148800  1
  B  B1  1  0.49784300  0.80035600  0.16148800  1
  B  B2  1  0.50215700  0.30035600  0.33851200  1
  B  B3  1  0.50215700  0.19964400  0.83851200  1
  B  B4  1  0.39654400  0.70890200  0.28101900  1
  B  B5  1  0.39654400  0.79109800  0.78101900  1
  B  B6  1  0.60345600  0.29109800  0.71898100  1
  B  B7  1  0.60345600  0.20890200  0.21898100  1
  B  B8  1  0.76048200  0.71507000  0.92065600  1
  B  B9  1  0.76048200  0.78493000  0.42065600  1
  B  B10  1  0.23951800  0.28493000  0.07934400  1
  B  B11  1  0.23951800  0.21507000  0.57934400  1
  B  B12  1  0.59319200  0.75810200  0.02056400  1
  B  B13  1  0.59319200  0.74189800  0.52056400  1
  B  B14  1  0.40680800  0.24189800  0.97943600  1
  B  B15  1  0.40680800  0.25810200  0.47943600  1
  B  B16  1  0.12514900  0.73655600  0.55326200  1
  B  B17  1  0.12514900  0.76344400  0.05326200  1
  B  B18  1  0.87485100  0.26344400  0.44673800  1
  B  B19  1  0.87485100  0.23655600  0.94673800  1
  B  B20  1  0.29293800  0.56391000  0.23453400  1
  B  B21  1  0.29293800  0.93609000  0.73453400  1
  B  B22  1  0.70706200  0.43609000  0.76546600  1
  B  B23  1  0.70706200  0.06391000  0.26546600  1
  B  B24  1  0.69131500  0.58525900  0.81078100  1
  B  B25  1  0.69131500  0.91474100  0.31078100  1
  B  B26  1  0.30868500  0.41474100  0.18921900  1
  B  B27  1  0.30868500  0.08525900  0.68921900  1
  Cl  Cl0  1  0.17052500  0.92020600  0.31242100  1
  Cl  Cl1  1  0.17052500  0.57979400  0.81242100  1
  Cl  Cl2  1  0.82947500  0.07979400  0.68757900  1
  Cl  Cl3  1  0.82947500  0.42020600  0.18757900  1
  O  O0  1  0.76224000  0.73335900  0.03267400  1
  O  O1  1  0.76224000  0.76664100  0.53267400  1
  O  O2  1  0.23776000  0.26664100  0.96732600  1
  O  O3  1  0.23776000  0.23335900  0.46732600  1
  O  O4  1  0.27329100  0.71086900  0.54505600  1
  O  O5  1  0.27329100  0.78913100  0.04505600  1
  O  O6  1  0.72670900  0.28913100  0.45494400  1
  O  O7  1  0.72670900  0.21086900  0.95494400  1
  O  O8  1  0.41263900  0.71699000  0.40031700  1
  O  O9  1  0.41263900  0.78301000  0.90031700  1
  O  O10  1  0.58736100  0.28301000  0.59968300  1
  O  O11  1  0.58736100  0.21699000  0.09968300  1
  O  O12  1  0.18017700  0.73500300  0.17101200  1
  O  O13  1  0.18017700  0.76499700  0.67101200  1
  O  O14  1  0.81982300  0.26499700  0.82898800  1
  O  O15  1  0.81982300  0.23500300  0.32898800  1
  O  O16  1  0.54808500  0.61666100  0.68461900  1
  O  O17  1  0.54808500  0.88333900  0.18461900  1
  O  O18  1  0.45191500  0.38333900  0.31538100  1
  O  O19  1  0.45191500  0.11666100  0.81538100  1
  O  O20  1  0.92309900  0.73511500  0.43436500  1
  O  O21  1  0.92309900  0.76488500  0.93436500  1
  O  O22  1  0.07690100  0.26488500  0.56563500  1
  O  O23  1  0.07690100  0.23511500  0.06563500  1
  O  O24  1  0.54818900  0.73855400  0.78792100  1
  O  O25  1  0.54818900  0.76144600  0.28792100  1
  O  O26  1  0.45181100  0.26144600  0.21207900  1
  O  O27  1  0.45181100  0.23855400  0.71207900  1
  O  O28  1  0.62805300  0.75698200  0.13880200  1
  O  O29  1  0.62805300  0.74301800  0.63880200  1
  O  O30  1  0.37194700  0.24301800  0.86119800  1
  O  O31  1  0.37194700  0.25698200  0.36119800  1
  O  O32  1  0.16991200  0.58424400  0.26754100  1
  O  O33  1  0.16991200  0.91575600  0.76754100  1
  O  O34  1  0.83008800  0.41575600  0.73245900  1
  O  O35  1  0.83008800  0.08424400  0.23245900  1
  O  O36  1  0.42692100  0.62526400  0.26408300  1
  O  O37  1  0.42692100  0.87473600  0.76408300  1
  O  O38  1  0.57307900  0.37473600  0.73591700  1
  O  O39  1  0.57307900  0.12526400  0.23591700  1
  O  O40  1  0.07852400  0.55400000  0.40318100  1
  O  O41  1  0.07852400  0.94600000  0.90318100  1
  O  O42  1  0.92147600  0.44600000  0.59681900  1
  O  O43  1  0.92147600  0.05400000  0.09681900  1
  O  O44  1  0.05533000  0.85184200  0.31260000  1
  O  O45  1  0.05533000  0.64815800  0.81260000  1
  O  O46  1  0.94467000  0.14815800  0.68740000  1
  O  O47  1  0.94467000  0.35184200  0.18740000  1
  O  O48  1  0.78754700  0.59275000  0.22118800  1
  O  O49  1  0.78754700  0.90725000  0.72118800  1
  O  O50  1  0.21245300  0.40725000  0.77881200  1
  O  O51  1  0.21245300  0.09275000  0.27881200  1
  O  O52  1  0.14300700  0.98823400  0.36999700  1
  O  O53  1  0.14300700  0.51176600  0.86999700  1
  O  O54  1  0.85699300  0.01176600  0.63000300  1
  O  O55  1  0.85699300  0.48823400  0.13000300  1
  O  O56  1  0.38696400  0.90003100  0.38855200  1
  O  O57  1  0.38696400  0.59996900  0.88855200  1
  O  O58  1  0.61303600  0.09996900  0.61144800  1
  O  O59  1  0.61303600  0.40003100  0.11144800  1
  O  O60  1  0.07218400  0.93595800  0.17071500  1
  O  O61  1  0.07218400  0.56404200  0.67071500  1
  O  O62  1  0.92781600  0.06404200  0.82928500  1
  O  O63  1  0.92781600  0.43595800  0.32928500  1
  O  O64  1  0.80092900  0.63198700  0.92309900  1
  O  O65  1  0.80092900  0.86801300  0.42309900  1
  O  O66  1  0.19907100  0.36801300  0.07690100  1
  O  O67  1  0.19907100  0.13198700  0.57690100  1
  O  O68  1  0.27696900  0.49592500  0.17333100  1
  O  O69  1  0.27696900  0.00407500  0.67333100  1
  O  O70  1  0.72303100  0.50407500  0.82666900  1
  O  O71  1  0.72303100  0.99592500  0.32666900  1
loop_
_geom_bond_atom_site_label_1
_geom_bond_atom_site_label_2
_geom_bond_distance
_geom_bond_site_symmetry_2
Nd0 O48 2.414228 1_455
Nd0 O32 2.441707 1_555
Nd0 O44 2.494137 1_555
Nd0 O0 2.521609 1_455
Nd0 O12 2.577475 1_555
Nd0 O8 2.599654 1_555
Nd0 O20 2.618427 1_455
Nd0 O4 2.634709 1_555
Nd0 O28 2.649330 1_455
Nd0 O40 2.837786 1_555
Nd1 O49 2.414228 1_455
Nd1 O33 2.441707 1_555
Nd1 O45 2.494137 1_555
Nd1 O1 2.521609 1_455
Nd1 O13 2.577475 1_555
Nd1 O9 2.599654 1_555
Nd1 O21 2.618427 1_455
Nd1 O5 2.634709 1_556
Nd1 O29 2.649330 1_455
Nd1 O41 2.837786 1_555
Nd2 O50 2.414228 1_655
Nd2 O34 2.441707 1_555
Nd2 O46 2.494137 1_555
Nd2 O2 2.521609 1_655
Nd2 O14 2.577475 1_555
Nd2 O10 2.599654 1_555
Nd2 O22 2.618427 1_655
Nd2 O6 2.634709 1_555
Nd2 O30 2.649330 1_655
Nd2 O42 2.837786 1_555
Nd3 O51 2.414228 1_655
Nd3 O35 2.441707 1_555
Nd3 O47 2.494137 1_555
Nd3 O3 2.521609 1_655
Nd3 O15 2.577475 1_555
Nd3 O11 2.599654 1_555
Nd3 O23 2.618427 1_655
Nd3 O7 2.634709 1_554
Nd3 O31 2.649330 1_655
Nd3 O43 2.837786 1_555
B0 O16 1.426154 1_555
B0 O4 1.480597 1_555
B0 O29 1.483721 1_555
B0 O24 1.553311 1_555
B1 O17 1.426154 1_555
B1 O5 1.480597 1_555
B1 O28 1.483721 1_555
B1 O25 1.553311 1_555
B2 O18 1.426154 1_555
B2 O6 1.480597 1_555
B2 O31 1.483721 1_555
B2 O26 1.553311 1_555
B3 O19 1.426154 1_555
B3 O7 1.480597 1_555
B3 O30 1.483721 1_555
B3 O27 1.553311 1_555
B4 O36 1.464334 1_555
B4 O8 1.473229 1_555
B4 O12 1.475531 1_555
B4 O25 1.494334 1_555
B5 O37 1.464334 1_555
B5 O9 1.473229 1_555
B5 O13 1.475531 1_555
B5 O24 1.494334 1_555
B6 O38 1.464334 1_555
B6 O10 1.473229 1_555
B6 O14 1.475531 1_555
B6 O27 1.494334 1_555
B7 O39 1.464334 1_555
B7 O11 1.473229 1_555
B7 O15 1.475531 1_555
B7 O26 1.494334 1_555
B8 O64 1.426645 1_555
B8 O0 1.477591 1_556
B8 O21 1.501193 1_555
B8 O24 1.530489 1_555
B9 O65 1.426645 1_555
B9 O1 1.477591 1_555
B9 O20 1.501193 1_555
B9 O25 1.530489 1_555
B10 O66 1.426645 1_555
B10 O2 1.477591 1_554
B10 O23 1.501193 1_555
B10 O26 1.530489 1_555
B11 O67 1.426645 1_555
B11 O3 1.477591 1_555
B11 O22 1.501193 1_555
B11 O27 1.530489 1_555
B12 O9 1.364282 1_554
B12 O28 1.367688 1_555
B12 O0 1.377004 1_555
B13 O8 1.364282 1_555
B13 O29 1.367688 1_555
B13 O1 1.377004 1_555
B14 O11 1.364282 1_556
B14 O30 1.367688 1_555
B14 O2 1.377004 1_555
B15 O10 1.364282 1_555
B15 O31 1.367688 1_555
B15 O3 1.377004 1_555
B16 O13 1.369644 1_555
B16 O20 1.372398 1_455
B16 O4 1.374342 1_555
B17 O12 1.369644 1_555
B17 O21 1.372398 1_454
B17 O5 1.374342 1_555
B18 O15 1.369644 1_555
B18 O22 1.372398 1_655
B18 O6 1.374342 1_555
B19 O14 1.369644 1_555
B19 O23 1.372398 1_656
B19 O7 1.374342 1_555
B20 O68 1.345030 1_555
B20 O36 1.377960 1_555
B20 O32 1.383630 1_555
B21 O69 1.345030 1_565
B21 O37 1.377960 1_555
B21 O33 1.383630 1_555
B22 O70 1.345030 1_555
B22 O38 1.377960 1_555
B22 O34 1.383630 1_555
B23 O71 1.345030 1_545
B23 O39 1.377960 1_555
B23 O35 1.383630 1_555
B24 O64 1.365430 1_555
B24 O16 1.369735 1_555
B24 O70 1.374580 1_555
B25 O65 1.365430 1_555
B25 O17 1.369735 1_555
B25 O71 1.374580 1_555
B26 O66 1.365430 1_555
B26 O18 1.369735 1_555
B26 O68 1.374580 1_555
B27 O67 1.365430 1_555
B27 O19 1.369735 1_555
B27 O69 1.374580 1_555
Cl0 O56 1.433866 1_555
Cl0 O52 1.459006 1_555
Cl0 O60 1.480888 1_555
Cl0 O44 1.494641 1_555
Cl1 O57 1.433866 1_555
Cl1 O53 1.459006 1_555
Cl1 O61 1.480888 1_555
Cl1 O45 1.494641 1_555
Cl2 O58 1.433866 1_555
Cl2 O54 1.459006 1_555
Cl2 O62 1.480888 1_555
Cl2 O46 1.494641 1_555
Cl3 O59 1.433866 1_555
Cl3 O55 1.459006 1_555
Cl3 O63 1.480888 1_555
Cl3 O47 1.494641 1_555
