# generated using pymatgen
data_MgMn6(OF2)4
_symmetry_space_group_name_H-M   'P 1'
_cell_length_a   5.23258810
_cell_length_b   7.91978821
_cell_length_c   5.96883925
_cell_angle_alpha   95.05397995
_cell_angle_beta   95.46133060
_cell_angle_gamma   85.91123196
_symmetry_Int_Tables_number   1
_chemical_formula_structural   MgMn6(OF2)4
_chemical_formula_sum   'Mg1 Mn6 O4 F8'
_cell_volume   244.78022180
_cell_formula_units_Z   1
loop_
 _symmetry_equiv_pos_site_id
 _symmetry_equiv_pos_as_xyz
  1  'x, y, z'
loop_
 _atom_site_type_symbol
 _atom_site_label
 _atom_site_symmetry_multiplicity
 _atom_site_fract_x
 _atom_site_fract_y
 _atom_site_fract_z
 _atom_site_occupancy
  Mg  Mg0  1  0.47944400  0.49092300  0.48120900  1
  Mn  Mn0  1  0.48764300  0.00424200  0.49961400  1
  Mn  Mn1  1  0.63492100  0.68433000  0.13919500  1
  Mn  Mn2  1  0.45874100  0.31633700  0.88536500  1
  Mn  Mn3  1  0.97306600  0.68101800  0.64890700  1
  Mn  Mn4  1  0.98419100  0.30632800  0.35513800  1
  Mn  Mn5  1  0.01306000  0.98311100  0.99257400  1
  O  O0  1  0.85763800  0.75461600  0.93070200  1
  O  O1  1  0.64742100  0.73478500  0.47285000  1
  O  O2  1  0.63786400  0.43947600  0.17406400  1
  O  O3  1  0.34107600  0.26297000  0.53964600  1
  F  F0  1  0.81192200  0.42709000  0.65314600  1
  F  F1  1  0.82962100  0.06624900  0.30375600  1
  F  F2  1  0.68041100  0.08966900  0.82265300  1
  F  F3  1  0.32778700  0.57733400  0.79317700  1
  F  F4  1  0.36542500  0.89579400  0.15705200  1
  F  F5  1  0.12761200  0.57920200  0.36783700  1
  F  F6  1  0.15650300  0.22729900  0.04154800  1
  F  F7  1  0.17176100  0.91255600  0.66865200  1
loop_
_geom_bond_atom_site_label_1
_geom_bond_atom_site_label_2
_geom_bond_distance
_geom_bond_site_symmetry_2
Mg0 O3 2.061683 1_555
Mg0 O2 2.079339 1_555
Mg0 O1 2.184607 1_555
Mn0 O3 2.137400 1_555
Mn0 O1 2.233734 1_545
Mn1 O0 1.925431 1_554
Mn1 O2 1.967298 1_555
Mn1 O1 1.992204 1_555
Mn2 O2 2.079858 1_556
Mn2 O3 2.111284 1_555
Mn3 O0 1.871917 1_555
Mn3 O1 1.955416 1_555
Mn4 O3 2.098045 1_655
Mn4 O2 2.262655 1_555
Mn5 O0 2.026696 1_455
F0 Mg0 1.990367 1_555
F0 Mn4 2.184899 1_555
F0 Mn3 2.238485 1_555
F0 Mn2 2.653079 1_555
F1 Mn4 2.105419 1_555
F1 Mn5 2.199670 1_644
F1 Mn0 2.331211 1_555
F2 Mn2 2.091752 1_555
F2 Mn5 2.091864 1_645
F2 Mn0 2.165702 1_555
F3 Mn3 2.112810 1_455
F3 Mg0 2.131842 1_555
F3 Mn2 2.229713 1_555
F3 Mn1 2.611603 1_556
F4 Mn5 2.105897 1_554
F4 Mn1 2.113074 1_555
F4 Mn0 2.201696 1_565
F5 Mg0 1.999664 1_555
F5 Mn3 2.011374 1_455
F5 Mn4 2.330430 1_455
F6 Mn2 2.103068 1_554
F6 Mn5 2.110565 1_544
F6 Mn4 2.177743 1_455
F7 Mn3 2.160530 1_455
F7 Mn5 2.188403 1_555
F7 Mn0 2.212457 1_565
