# generated using pymatgen
data_Zn(NiO2)4
_symmetry_space_group_name_H-M   'P 1'
_cell_length_a   6.93418692
_cell_length_b   6.93418692
_cell_length_c   9.24264222
_cell_angle_alpha   49.85287170
_cell_angle_beta   49.85287170
_cell_angle_gamma   24.25769838
_symmetry_Int_Tables_number   1
_chemical_formula_structural   Zn(NiO2)4
_chemical_formula_sum   'Zn1 Ni4 O8'
_cell_volume   137.25302557
_cell_formula_units_Z   1
loop_
 _symmetry_equiv_pos_site_id
 _symmetry_equiv_pos_as_xyz
  1  'x, y, z'
loop_
 _atom_site_type_symbol
 _atom_site_label
 _atom_site_symmetry_multiplicity
 _atom_site_fract_x
 _atom_site_fract_y
 _atom_site_fract_z
 _atom_site_occupancy
  Zn  Zn0  1  0.65103100  0.65103100  0.81917500  1
  Ni  Ni0  1  0.36416900  0.36416900  0.44252400  1
  Ni  Ni1  1  0.85470400  0.85470400  0.79413300  1
  Ni  Ni2  1  0.16053400  0.16053400  0.16083700  1
  Ni  Ni3  1  0.65003200  0.65003200  0.50500000  1
  O  O0  1  0.14292300  0.14292300  0.37951200  1
  O  O1  1  0.54596100  0.54596100  0.23366400  1
  O  O2  1  0.46996200  0.46996200  0.71768600  1
  O  O3  1  0.86761100  0.86761100  0.57084500  1
  O  O4  1  0.84036100  0.84036100  0.33186000  1
  O  O5  1  0.20422600  0.20422600  0.91328100  1
  O  O6  1  0.17069500  0.17069500  0.64226800  1
  O  O7  1  0.78288300  0.78288300  0.05857000  1
loop_
_geom_bond_atom_site_label_1
_geom_bond_atom_site_label_2
_geom_bond_distance
_geom_bond_site_symmetry_2
Ni0 O1 1.877837 1_555
Ni0 O3 1.898562 1_545
Ni0 O3 1.898562 1_455
Ni0 O4 1.925763 1_545
Ni0 O4 1.925763 1_455
Ni0 O6 1.975408 1_555
Ni1 O2 1.899414 1_655
Ni1 O2 1.899414 1_565
Ni1 O7 1.944919 1_556
Ni1 O3 1.952797 1_555
Ni1 O5 2.129498 1_655
Ni1 O5 2.129498 1_565
Ni2 O0 1.872287 1_555
Ni2 O1 1.899968 1_455
Ni2 O1 1.899968 1_545
Ni2 O7 1.923527 1_545
Ni2 O7 1.923527 1_455
Ni2 O5 1.948953 1_554
Ni3 O2 1.869509 1_555
Ni3 O0 1.903857 1_565
Ni3 O0 1.903857 1_655
Ni3 O4 1.942591 1_555
Ni3 O6 2.068734 1_655
Ni3 O6 2.068734 1_565
O3 Zn0 2.236440 1_555
O5 Zn0 2.055937 1_545
O5 Zn0 2.055937 1_455
O6 Zn0 2.071788 1_545
O6 Zn0 2.071788 1_455
