# generated using pymatgen
data_SrNi2(PO4)2
_symmetry_space_group_name_H-M   'P 1'
_cell_length_a   5.51209300
_cell_length_b   6.88776029
_cell_length_c   9.26204258
_cell_angle_alpha   111.28778284
_cell_angle_beta   100.98888346
_cell_angle_gamma   98.11348670
_symmetry_Int_Tables_number   1
_chemical_formula_structural   SrNi2(PO4)2
_chemical_formula_sum   'Sr2 Ni4 P4 O16'
_cell_volume   313.02190929
_cell_formula_units_Z   2
loop_
 _symmetry_equiv_pos_site_id
 _symmetry_equiv_pos_as_xyz
  1  'x, y, z'
loop_
 _atom_site_type_symbol
 _atom_site_label
 _atom_site_symmetry_multiplicity
 _atom_site_fract_x
 _atom_site_fract_y
 _atom_site_fract_z
 _atom_site_occupancy
  Sr  Sr0  1  0.24108300  0.75265100  0.44685800  1
  Sr  Sr1  1  0.75891700  0.24734900  0.55314200  1
  Ni  Ni0  1  0.51176200  0.76420300  0.83953800  1
  Ni  Ni1  1  0.14184700  0.79505200  0.06119300  1
  Ni  Ni2  1  0.85815300  0.20494800  0.93880700  1
  Ni  Ni3  1  0.48823800  0.23579700  0.16046200  1
  P  P0  1  0.89167000  0.68658400  0.74214700  1
  P  P1  1  0.10833000  0.31341600  0.25785300  1
  P  P2  1  0.34658100  0.22074100  0.80572600  1
  P  P3  1  0.65341900  0.77925900  0.19427400  1
  O  O0  1  0.66316000  0.82811000  0.62553100  1
  O  O1  1  0.33684000  0.17189000  0.37446900  1
  O  O2  1  0.24677200  0.37419300  0.63558400  1
  O  O3  1  0.75322800  0.62580700  0.36441600  1
  O  O4  1  0.14649800  0.78087700  0.70181300  1
  O  O5  1  0.85350200  0.21912300  0.29818700  1
  O  O6  1  0.84291700  0.46361500  0.73711400  1
  O  O7  1  0.15708300  0.53638500  0.26288600  1
  O  O8  1  0.54504100  0.07721000  0.80313500  1
  O  O9  1  0.45495900  0.92279000  0.19686500  1
  O  O10  1  0.11869900  0.31283500  0.09137200  1
  O  O11  1  0.88130100  0.68716500  0.90862800  1
  O  O12  1  0.49198600  0.67443400  0.07040700  1
  O  O13  1  0.12168500  0.08459900  0.86903700  1
  O  O14  1  0.87831500  0.91540100  0.13096300  1
  O  O15  1  0.50801400  0.32556600  0.92959300  1
loop_
_geom_bond_atom_site_label_1
_geom_bond_atom_site_label_2
_geom_bond_distance
_geom_bond_site_symmetry_2
Ni0 O4 2.210556 1_555
Ni0 O11 2.212431 1_555
Ni0 O8 2.288027 1_565
Ni0 O0 2.445305 1_555
Ni0 O12 2.448763 1_556
Ni1 O11 1.665571 1_454
Ni1 O9 1.809327 1_555
Ni1 O14 1.877128 1_455
Ni1 O12 2.205373 1_555
Ni2 O10 1.665571 1_656
Ni2 O8 1.809327 1_555
Ni2 O13 1.877128 1_655
Ni2 O15 2.205373 1_555
Ni3 O5 2.210556 1_555
Ni3 O10 2.212431 1_555
Ni3 O9 2.288027 1_545
Ni3 O1 2.445305 1_555
Ni3 O15 2.448763 1_554
O0 P0 2.072627 1_555
O0 Sr0 2.447003 1_555
O0 Sr1 3.190132 1_565
O1 P1 2.072627 1_555
O1 Sr1 2.447003 1_555
O1 Sr0 3.190132 1_545
O2 P2 2.223993 1_555
O2 Sr1 2.578228 1_455
O3 P3 2.223993 1_555
O3 Sr0 2.578228 1_655
O4 P0 1.628829 1_455
O4 Sr0 2.459769 1_555
O5 P1 1.628829 1_655
O5 Sr1 2.459769 1_555
O6 P0 1.503226 1_555
O6 Sr1 1.731551 1_555
O7 P1 1.503226 1_555
O7 Sr0 1.731551 1_555
O8 P2 1.572466 1_555
O9 P3 1.572466 1_555
O10 P1 1.552446 1_555
O11 P0 1.552446 1_555
O12 P3 1.207191 1_555
O13 P2 1.762996 1_555
O14 P3 1.762996 1_555
O15 P2 1.207191 1_555
