# generated using pymatgen
data_Mn2Al2O7
_symmetry_space_group_name_H-M   'P 1'
_cell_length_a   6.64634130
_cell_length_b   6.64634130
_cell_length_c   6.64634130
_cell_angle_alpha   60.00000000
_cell_angle_beta   60.00000000
_cell_angle_gamma   60.00000000
_symmetry_Int_Tables_number   1
_chemical_formula_structural   Mn2Al2O7
_chemical_formula_sum   'Mn4 Al4 O14'
_cell_volume   207.60266244
_cell_formula_units_Z   2
loop_
 _symmetry_equiv_pos_site_id
 _symmetry_equiv_pos_as_xyz
  1  'x, y, z'
loop_
 _atom_site_type_symbol
 _atom_site_label
 _atom_site_symmetry_multiplicity
 _atom_site_fract_x
 _atom_site_fract_y
 _atom_site_fract_z
 _atom_site_occupancy
  Mn  Mn0  1  0.62500000  0.62500000  0.62500000  1
  Mn  Mn1  1  0.12500000  0.62500000  0.62500000  1
  Mn  Mn2  1  0.62500000  0.62500000  0.12500000  1
  Mn  Mn3  1  0.62500000  0.12500000  0.62500000  1
  Al  Al0  1  0.12500000  0.12500000  0.12500000  1
  Al  Al1  1  0.62500000  0.12500000  0.12500000  1
  Al  Al2  1  0.12500000  0.12500000  0.62500000  1
  Al  Al3  1  0.12500000  0.62500000  0.12500000  1
  O  O0  1  0.00000000  0.00000000  0.00000000  1
  O  O1  1  0.25000000  0.25000000  0.25000000  1
  O  O2  1  0.27905100  0.27905100  0.72094900  1
  O  O3  1  0.52905100  0.52905100  0.97094900  1
  O  O4  1  0.72094900  0.27905100  0.72094900  1
  O  O5  1  0.72094900  0.27905100  0.27905100  1
  O  O6  1  0.27905100  0.72094900  0.72094900  1
  O  O7  1  0.27905100  0.72094900  0.27905100  1
  O  O8  1  0.72094900  0.72094900  0.27905100  1
  O  O9  1  0.97094900  0.52905100  0.52905100  1
  O  O10  1  0.52905100  0.97094900  0.97094900  1
  O  O11  1  0.97094900  0.97094900  0.52905100  1
  O  O12  1  0.97094900  0.52905100  0.97094900  1
  O  O13  1  0.52905100  0.97094900  0.52905100  1
loop_
_geom_bond_atom_site_label_1
_geom_bond_atom_site_label_2
_geom_bond_distance
_geom_bond_site_symmetry_2
Mn0 O9 1.890559 1_555
Mn0 O3 1.890559 1_555
Mn0 O13 1.890559 1_555
Mn0 O6 1.890559 1_555
Mn0 O4 1.890559 1_555
Mn0 O8 1.890559 1_555
Mn1 O6 1.890559 1_555
Mn1 O11 1.890559 1_455
Mn1 O12 1.890559 1_455
Mn1 O2 1.890559 1_555
Mn1 O7 1.890559 1_555
Mn1 O9 1.890559 1_455
Mn2 O8 1.890559 1_555
Mn2 O12 1.890559 1_554
Mn2 O10 1.890559 1_554
Mn2 O5 1.890559 1_555
Mn2 O7 1.890559 1_555
Mn2 O3 1.890559 1_554
Mn3 O4 1.890559 1_555
Mn3 O10 1.890559 1_545
Mn3 O5 1.890559 1_555
Mn3 O11 1.890559 1_545
Mn3 O2 1.890559 1_555
Mn3 O13 1.890559 1_545
Al0 O1 2.035018 1_555
Al0 O0 2.035018 1_555
Al0 O12 2.203975 1_454
Al0 O10 2.203975 1_544
Al0 O11 2.203975 1_445
Al0 O7 2.203975 1_545
Al0 O2 2.203975 1_554
Al0 O5 2.203975 1_455
Al1 O1 2.035018 1_555
Al1 O0 2.035018 1_655
Al1 O3 2.203975 1_554
Al1 O13 2.203975 1_545
Al1 O5 2.203975 1_555
Al1 O8 2.203975 1_545
Al1 O4 2.203975 1_554
Al1 O10 2.203975 1_544
Al2 O1 2.035018 1_555
Al2 O0 2.035018 1_556
Al2 O13 2.203975 1_545
Al2 O9 2.203975 1_455
Al2 O2 2.203975 1_555
Al2 O4 2.203975 1_455
Al2 O6 2.203975 1_545
Al2 O11 2.203975 1_445
Al3 O1 2.035018 1_555
Al3 O0 2.035018 1_565
Al3 O3 2.203975 1_554
Al3 O9 2.203975 1_455
Al3 O7 2.203975 1_555
Al3 O8 2.203975 1_455
Al3 O6 2.203975 1_554
Al3 O12 2.203975 1_454
