# generated using pymatgen
data_Sr2AlCu3O7
_symmetry_space_group_name_H-M   'P 1'
_cell_length_a   5.35995263
_cell_length_b   5.29921982
_cell_length_c   12.11720816
_cell_angle_alpha   102.61498327
_cell_angle_beta   102.70095406
_cell_angle_gamma   90.04891303
_symmetry_Int_Tables_number   1
_chemical_formula_structural   Sr2AlCu3O7
_chemical_formula_sum   'Sr4 Al2 Cu6 O14'
_cell_volume   327.21320475
_cell_formula_units_Z   2
loop_
 _symmetry_equiv_pos_site_id
 _symmetry_equiv_pos_as_xyz
  1  'x, y, z'
loop_
 _atom_site_type_symbol
 _atom_site_label
 _atom_site_symmetry_multiplicity
 _atom_site_fract_x
 _atom_site_fract_y
 _atom_site_fract_z
 _atom_site_occupancy
  Sr  Sr0  1  0.33280000  0.34708400  0.69798600  1
  Sr  Sr1  1  0.63749500  0.65945500  0.30285200  1
  Sr  Sr2  1  0.83202800  0.85590700  0.69759900  1
  Sr  Sr3  1  0.13878700  0.15301000  0.30223300  1
  Al  Al0  1  0.98762300  0.00203300  0.00009400  1
  Al  Al1  1  0.48403800  0.49272100  0.00069800  1
  Cu  Cu0  1  0.25939800  0.69553100  0.50029100  1
  Cu  Cu1  1  0.76041300  0.30728800  0.50023100  1
  Cu  Cu2  1  0.92183300  0.44131200  0.88052900  1
  Cu  Cu3  1  0.04660700  0.56291900  0.11996700  1
  Cu  Cu4  1  0.42252100  0.93712700  0.88087500  1
  Cu  Cu5  1  0.54917600  0.06062900  0.12038500  1
  O  O0  1  0.10493100  0.35547000  0.50008600  1
  O  O1  1  0.60306200  0.63982400  0.50020900  1
  O  O2  1  0.24960700  0.26528300  0.88996900  1
  O  O3  1  0.36335500  0.73352800  0.10766600  1
  O  O4  1  0.74909500  0.12443800  0.89315700  1
  O  O5  1  0.86808100  0.88223300  0.11056700  1
  O  O6  1  0.60425600  0.62179800  0.89275800  1
  O  O7  1  0.71997700  0.38109200  0.11152700  1
  O  O8  1  0.10237700  0.76923800  0.88933400  1
  O  O9  1  0.22137200  0.23556400  0.10773700  1
  O  O10  1  0.31131500  0.83294500  0.66098400  1
  O  O11  1  0.65165700  0.16947500  0.33888000  1
  O  O12  1  0.81052100  0.32906800  0.66117400  1
  O  O13  1  0.15231800  0.67328900  0.33950000  1
loop_
_geom_bond_atom_site_label_1
_geom_bond_atom_site_label_2
_geom_bond_distance
_geom_bond_site_symmetry_2
Al0 O8 1.828251 1_644
Al0 O5 1.831162 1_545
Al0 O4 1.836961 1_554
Al0 O9 1.837442 1_655
Al1 O7 1.831437 1_555
Al1 O6 1.831493 1_554
Al1 O3 1.836970 1_555
Al1 O2 1.838873 1_554
Cu0 O1 1.865958 1_555
Cu0 O10 1.881795 1_555
Cu0 O13 1.883398 1_555
Cu0 O0 1.981790 1_555
Cu1 O0 1.864389 1_655
Cu1 O12 1.886789 1_555
Cu1 O11 1.889471 1_555
Cu1 O1 1.954288 1_555
Cu2 O8 1.959175 1_655
Cu2 O4 1.967786 1_555
Cu2 O6 1.971292 1_555
Cu2 O2 1.982625 1_655
Cu2 O12 2.527067 1_555
Cu3 O5 1.957266 1_455
Cu3 O9 1.964747 1_555
Cu3 O7 1.969579 1_455
Cu3 O3 1.972179 1_555
Cu3 O13 2.529125 1_555
Cu4 O6 1.951415 1_555
Cu4 O2 1.964459 1_565
Cu4 O8 1.964971 1_555
Cu4 O4 1.972141 1_565
Cu4 O10 2.533378 1_555
Cu5 O3 1.957862 1_545
Cu5 O7 1.963085 1_555
Cu5 O5 1.967910 1_545
Cu5 O9 1.978985 1_555
Cu5 O11 2.517316 1_555
O0 Sr3 2.449445 1_555
O0 Sr0 2.450072 1_555
O1 Sr2 2.459403 1_555
O1 Sr1 2.463019 1_555
O2 Sr0 2.587408 1_555
O3 Sr1 2.604849 1_555
O4 Sr2 2.613238 1_545
O5 Sr3 2.572373 1_665
O6 Sr0 2.606143 1_555
O7 Sr1 2.589223 1_555
O8 Sr2 2.587516 1_455
O9 Sr3 2.617313 1_555
O10 Sr0 2.660933 1_565
O10 Sr2 2.699875 1_455
O10 Sr0 2.706533 1_555
O10 Sr2 2.726288 1_555
O11 Sr1 2.640205 1_545
O11 Sr3 2.684673 1_555
O11 Sr1 2.723804 1_555
O11 Sr3 2.741421 1_655
O12 Sr2 2.637534 1_545
O12 Sr0 2.692325 1_555
O12 Sr2 2.727872 1_555
O12 Sr0 2.734325 1_655
O13 Sr3 2.675636 1_565
O13 Sr3 2.692966 1_555
O13 Sr1 2.695109 1_455
O13 Sr1 2.731157 1_555
