# generated using pymatgen
data_Ca13(Ge11Au25)2
_symmetry_space_group_name_H-M   'P 1'
_cell_length_a   12.94534761
_cell_length_b   12.94534761
_cell_length_c   12.94534761
_cell_angle_alpha   109.47122063
_cell_angle_beta   109.47122063
_cell_angle_gamma   109.47122063
_symmetry_Int_Tables_number   1
_chemical_formula_structural   Ca13(Ge11Au25)2
_chemical_formula_sum   'Ca13 Ge22 Au50'
_cell_volume   1670.01072277
_cell_formula_units_Z   1
loop_
 _symmetry_equiv_pos_site_id
 _symmetry_equiv_pos_as_xyz
  1  'x, y, z'
loop_
 _atom_site_type_symbol
 _atom_site_label
 _atom_site_symmetry_multiplicity
 _atom_site_fract_x
 _atom_site_fract_y
 _atom_site_fract_z
 _atom_site_occupancy
  Ca  Ca0  1  -0.00000000  -0.00000000  -0.00000000  1
  Ca  Ca1  1  0.30624492  0.11746583  0.81122091  1
  Ca  Ca2  1  0.69375508  0.88253417  0.18877909  1
  Ca  Ca3  1  0.69375508  0.50497599  0.81122091  1
  Ca  Ca4  1  0.30624492  0.49502401  0.18877909  1
  Ca  Ca5  1  0.11746583  0.81122091  0.30624492  1
  Ca  Ca6  1  0.88253417  0.18877909  0.69375508  1
  Ca  Ca7  1  0.50497599  0.81122091  0.69375508  1
  Ca  Ca8  1  0.49502401  0.18877909  0.30624492  1
  Ca  Ca9  1  0.81122091  0.30624492  0.11746583  1
  Ca  Ca10  1  0.18877909  0.69375508  0.88253417  1
  Ca  Ca11  1  0.81122091  0.69375508  0.50497599  1
  Ca  Ca12  1  0.18877909  0.30624492  0.49502401  1
  Ge  Ge0  1  0.08668158  0.85620853  0.76952695  1
  Ge  Ge1  1  0.91331842  0.14379147  0.23047305  1
  Ge  Ge2  1  0.91331842  0.68284537  0.76952695  1
  Ge  Ge3  1  0.08668158  0.31715463  0.23047305  1
  Ge  Ge4  1  0.85620853  0.76952695  0.08668158  1
  Ge  Ge5  1  0.14379147  0.23047305  0.91331842  1
  Ge  Ge6  1  0.68284537  0.76952695  0.91331842  1
  Ge  Ge7  1  0.31715463  0.23047305  0.08668158  1
  Ge  Ge8  1  0.76952695  0.08668158  0.85620853  1
  Ge  Ge9  1  0.23047305  0.91331842  0.14379147  1
  Ge  Ge10  1  0.76952695  0.91331842  0.68284537  1
  Ge  Ge11  1  0.23047305  0.08668158  0.31715463  1
  Ge  Ge12  1  0.30096148  0.50000000  0.80096148  1
  Ge  Ge13  1  0.69903852  0.50000000  0.19903852  1
  Ge  Ge14  1  0.50000000  0.80096148  0.30096148  1
  Ge  Ge15  1  0.50000000  0.19903852  0.69903852  1
  Ge  Ge16  1  0.80096148  0.30096148  0.50000000  1
  Ge  Ge17  1  0.19903852  0.69903852  0.50000000  1
  Ge  Ge18  1  -0.00000000  -0.00000000  0.50000000  1
  Ge  Ge19  1  0.50000000  -0.00000000  -0.00000000  1
  Ge  Ge20  1  -0.00000000  0.50000000  -0.00000000  1
  Ge  Ge21  1  0.50000000  0.50000000  0.50000000  1
  Au  Au0  1  0.09302165  0.85989974  0.55988110  1
  Au  Au1  1  0.69998136  0.14010026  0.23312191  1
  Au  Au2  1  0.90697835  0.46685945  0.76687809  1
  Au  Au3  1  0.30001864  0.53314055  0.44011890  1
  Au  Au4  1  0.85989974  0.55988110  0.09302165  1
  Au  Au5  1  0.14010026  0.23312191  0.69998136  1
  Au  Au6  1  0.46685945  0.76687809  0.90697835  1
  Au  Au7  1  0.53314055  0.44011890  0.30001864  1
  Au  Au8  1  0.55988110  0.09302165  0.85989974  1
  Au  Au9  1  0.23312191  0.69998136  0.14010026  1
  Au  Au10  1  0.76687809  0.90697835  0.46685945  1
  Au  Au11  1  0.44011890  0.30001864  0.53314055  1
  Au  Au12  1  0.90697835  0.14010026  0.44011890  1
  Au  Au13  1  0.30001864  0.85989974  0.76687809  1
  Au  Au14  1  0.09302165  0.53314055  0.23312191  1
  Au  Au15  1  0.69998136  0.46685945  0.55988110  1
  Au  Au16  1  0.14010026  0.44011890  0.90697835  1
  Au  Au17  1  0.85989974  0.76687809  0.30001864  1
  Au  Au18  1  0.53314055  0.23312191  0.09302165  1
  Au  Au19  1  0.46685945  0.55988110  0.69998136  1
  Au  Au20  1  0.44011890  0.90697835  0.14010026  1
  Au  Au21  1  0.76687809  0.30001864  0.85989974  1
  Au  Au22  1  0.23312191  0.09302165  0.53314055  1
  Au  Au23  1  0.55988110  0.69998136  0.46685945  1
  Au  Au24  1  0.35470737  0.95203138  0.59732401  1
  Au  Au25  1  0.64529263  0.04796862  0.40267599  1
  Au  Au26  1  0.64529263  0.24261664  0.59732401  1
  Au  Au27  1  0.35470737  0.75738336  0.40267599  1
  Au  Au28  1  0.95203138  0.59732401  0.35470737  1
  Au  Au29  1  0.04796862  0.40267599  0.64529263  1
  Au  Au30  1  0.24261664  0.59732401  0.64529263  1
  Au  Au31  1  0.75738336  0.40267599  0.35470737  1
  Au  Au32  1  0.59732401  0.35470737  0.95203138  1
  Au  Au33  1  0.40267599  0.64529263  0.04796862  1
  Au  Au34  1  0.59732401  0.64529263  0.24261664  1
  Au  Au35  1  0.40267599  0.35470737  0.75738336  1
  Au  Au36  1  -0.00000000  -0.00000000  0.71662940  1
  Au  Au37  1  0.71662940  0.00000000  0.00000000  1
  Au  Au38  1  -0.00000000  0.71662940  -0.00000000  1
  Au  Au39  1  0.28337060  0.28337060  0.28337060  1
  Au  Au40  1  -0.00000000  0.00000000  0.28337060  1
  Au  Au41  1  0.28337060  -0.00000000  -0.00000000  1
  Au  Au42  1  0.00000000  0.28337060  0.00000000  1
  Au  Au43  1  0.71662940  0.71662940  0.71662940  1
  Au  Au44  1  0.60037518  0.00000000  0.60037518  1
  Au  Au45  1  0.39962482  -0.00000000  0.39962482  1
  Au  Au46  1  0.00000000  0.60037518  0.60037518  1
  Au  Au47  1  -0.00000000  0.39962482  0.39962482  1
  Au  Au48  1  0.60037518  0.60037518  -0.00000000  1
  Au  Au49  1  0.39962482  0.39962482  -0.00000000  1
loop_
_geom_bond_atom_site_label_1
_geom_bond_atom_site_label_2
_geom_bond_distance
_geom_bond_site_symmetry_2
Ca0 Ge4 3.680716 1_445
Ca0 Ge2 3.680716 1_444
Ca0 Ge10 3.680716 1_444
Ca0 Ge8 3.680716 1_454
Ca0 Ge6 3.680716 1_444
Ca0 Ge3 3.680716 1_555
Ca0 Ge11 3.680716 1_555
Ca0 Ge0 3.680716 1_544
Ca0 Ge9 3.680716 1_545
Ca0 Ge7 3.680716 1_555
Ca0 Ge1 3.680716 1_455
Ca0 Ge5 3.680716 1_554
Ca1 Ge5 3.305253 1_555
Ca1 Ge7 3.305253 1_556
Ca1 Ge0 3.340684 1_545
Ca1 Ge15 3.346681 1_555
Ca2 Ge4 3.305253 1_555
Ca2 Ge6 3.305253 1_554
Ca2 Ge1 3.340684 1_565
Ca2 Ge14 3.346681 1_555
Ca3 Ge6 3.305253 1_555
Ca3 Ge4 3.305253 1_556
Ca3 Ge2 3.340684 1_555
Ca3 Ge15 3.346681 1_555
Ca4 Ge7 3.305253 1_555
Ca4 Ge5 3.305253 1_554
Ca4 Ge3 3.340684 1_555
Ca4 Ge14 3.346681 1_555
Ca5 Ge9 3.305253 1_555
Ca5 Ge11 3.305253 1_565
Ca5 Ge4 3.340684 1_455
Ca5 Ge17 3.346681 1_555
Ca6 Ge8 3.305253 1_555
Ca6 Ge10 3.305253 1_545
Ca6 Ge5 3.340684 1_655
Ca6 Ge16 3.346681 1_555
Ca7 Ge10 3.305253 1_555
Ca7 Ge8 3.305253 1_565
Ca7 Ge6 3.340684 1_555
Ca7 Ge17 3.346681 1_555
Ca8 Ge11 3.305253 1_555
Ca8 Ge9 3.305253 1_545
Ca8 Ge7 3.340684 1_555
Ca8 Ge16 3.346681 1_555
Ca9 Ge1 3.305253 1_555
Ca9 Ge3 3.305253 1_655
Ca9 Ge8 3.340684 1_554
Ca9 Ge13 3.346681 1_555
Ca10 Ge0 3.305253 1_555
Ca10 Ge2 3.305253 1_455
Ca10 Ge9 3.340684 1_556
Ca10 Ge12 3.346681 1_555
Ca11 Ge2 3.305253 1_555
Ca11 Ge0 3.305253 1_655
Ca11 Ge10 3.340684 1_555
Ca11 Ge13 3.346681 1_555
Ca12 Ge3 3.305253 1_555
Ca12 Ge1 3.305253 1_455
Ca12 Ge11 3.340684 1_555
Ca12 Ge12 3.346681 1_555
Au0 Ge18 2.666695 1_565
Au0 Ge0 2.758046 1_555
Au0 Ge17 2.891237 1_555
Au0 Au28 2.924599 1_455
Au0 Au24 2.993278 1_555
Au0 Au36 3.080332 1_565
Au0 Ca1 3.157127 1_565
Au0 Ca11 3.234286 1_455
Au0 Ca5 3.274786 1_555
Au1 Ge19 2.666695 1_555
Au1 Ge1 2.758046 1_555
Au1 Ge16 2.891237 1_555
Au1 Au31 2.924599 1_555
Au1 Au25 2.993278 1_555
Au1 Au37 3.080332 1_555
Au1 Ca2 3.157127 1_545
Au1 Ca9 3.234286 1_555
Au1 Ca8 3.274786 1_555
Au2 Ge20 2.666695 1_656
Au2 Ge2 2.758046 1_555
Au2 Ge16 2.891237 1_555
Au2 Au29 2.924599 1_655
Au2 Au26 2.993278 1_555
Au2 Au38 3.080332 1_656
Au2 Ca3 3.157127 1_555
Au2 Ca10 3.234286 1_655
Au2 Ca6 3.274786 1_555
Au3 Ge21 2.666695 1_555
Au3 Ge3 2.758046 1_555
Au3 Ge17 2.891237 1_555
Au3 Au30 2.924599 1_555
Au3 Au39 3.080332 1_555
Au3 Ca4 3.157127 1_555
Au3 Ca12 3.234286 1_555
Au3 Ca7 3.274786 1_555
Au4 Ge20 2.666695 1_655
Au4 Ge4 2.758046 1_555
Au4 Ge13 2.891237 1_555
Au4 Ca5 3.157127 1_655
Au4 Ca3 3.234286 1_554
Au4 Ca9 3.274786 1_555
Au5 Ge18 2.666695 1_555
Au5 Ge5 2.758046 1_555
Au5 Ge12 2.891237 1_555
Au5 Ca6 3.157127 1_455
Au5 Ca1 3.234286 1_555
Au5 Ca12 3.274786 1_555
Au6 Ge19 2.666695 1_566
Au6 Ge6 2.758046 1_555
Au6 Ge12 2.891237 1_555
Au6 Ca7 3.157127 1_555
Au6 Ca2 3.234286 1_556
Au6 Ca10 3.274786 1_555
Au7 Ge21 2.666695 1_555
Au7 Ge7 2.758046 1_555
Au7 Ge13 2.891237 1_555
Au7 Ca8 3.157127 1_555
Au7 Ca4 3.234286 1_555
Au7 Ca11 3.274786 1_555
Au8 Ge19 2.666695 1_556
Au8 Ge8 2.758046 1_555
Au8 Ge15 2.891237 1_555
Au8 Ca9 3.157127 1_556
Au8 Ca7 3.234286 1_545
Au8 Ca1 3.274786 1_555
Au9 Ge20 2.666695 1_555
Au9 Ge9 2.758046 1_555
Au9 Ge14 2.891237 1_555
Au9 Ca10 3.157127 1_554
Au9 Ca5 3.234286 1_555
Au9 Ca4 3.274786 1_555
Au10 Ge18 2.666695 1_665
Au10 Ge10 2.758046 1_555
Au10 Ge14 2.891237 1_555
Au10 Au25 2.924599 1_565
Au10 Au34 2.993278 1_555
Au10 Au36 3.080332 1_665
Au10 Ca11 3.157127 1_555
Au10 Ca6 3.234286 1_565
Au10 Ca2 3.274786 1_555
Au11 Ge21 2.666695 1_555
Au11 Ge11 2.758046 1_555
Au11 Ge15 2.891237 1_555
Au11 Au26 2.924599 1_555
Au11 Au35 2.993278 1_555
Au11 Au39 3.080332 1_555
Au11 Ca12 3.157127 1_555
Au11 Ca8 3.234286 1_555
Au11 Ca3 3.274786 1_555
Au12 Ge18 2.666695 1_655
Au12 Ge1 2.758046 1_555
Au12 Ge16 2.891237 1_555
Au12 Au29 2.924599 1_655
Au12 Au25 2.993278 1_555
Au12 Au40 3.080332 1_655
Au12 Ca2 3.157127 1_545
Au12 Ca12 3.234286 1_655
Au12 Ca6 3.274786 1_555
Au13 Ge19 2.666695 1_566
Au13 Ge0 2.758046 1_555
Au13 Ge17 2.891237 1_555
Au13 Au30 2.924599 1_555
Au13 Au24 2.993278 1_555
Au13 Au41 3.080332 1_566
Au13 Ca1 3.157127 1_565
Au13 Ca10 3.234286 1_555
Au13 Ca7 3.274786 1_555
Au14 Ge20 2.666695 1_555
Au14 Ge3 2.758046 1_555
Au14 Ge17 2.891237 1_555
Au14 Au28 2.924599 1_455
Au14 Au27 2.993278 1_555
Au14 Au42 3.080332 1_555
Au14 Ca4 3.157127 1_555
Au14 Ca9 3.234286 1_455
Au14 Ca5 3.274786 1_555
Au15 Ge21 2.666695 1_555
Au15 Ge2 2.758046 1_555
Au15 Ge16 2.891237 1_555
Au15 Au31 2.924599 1_555
Au15 Au26 2.993278 1_555
Au15 Au43 3.080332 1_555
Au15 Ca3 3.157127 1_555
Au15 Ca11 3.234286 1_555
Au15 Ca8 3.274786 1_555
Au16 Ge20 2.666695 1_556
Au16 Ge5 2.758046 1_555
Au16 Ge12 2.891237 1_555
Au16 Au33 2.924599 1_556
Au16 Au29 2.993278 1_555
Au16 Au42 3.080332 1_556
Au16 Ca6 3.157127 1_455
Au16 Ca4 3.234286 1_556
Au16 Ca10 3.274786 1_555
Au17 Ge18 2.666695 1_665
Au17 Ge4 2.758046 1_555
Au17 Ge13 2.891237 1_555
Au17 Au34 2.924599 1_555
Au17 Au28 2.993278 1_555
Au17 Au40 3.080332 1_665
Au17 Ca5 3.157127 1_655
Au17 Ca2 3.234286 1_555
Au17 Ca11 3.274786 1_555
Au18 Ge19 2.666695 1_555
Au18 Ge7 2.758046 1_555
Au18 Ge13 2.891237 1_555
Au18 Au32 2.924599 1_554
Au18 Au31 2.993278 1_555
Au18 Au41 3.080332 1_555
Au18 Ca8 3.157127 1_555
Au18 Ca1 3.234286 1_554
Au18 Ca9 3.274786 1_555
Au19 Ge21 2.666695 1_555
Au19 Ge6 2.758046 1_555
Au19 Ge12 2.891237 1_555
Au19 Au35 2.924599 1_555
Au19 Au30 2.993278 1_555
Au19 Au43 3.080332 1_555
Au19 Ca7 3.157127 1_555
Au19 Ca3 3.234286 1_555
Au19 Ca12 3.274786 1_555
Au20 Ge19 2.666695 1_565
Au20 Ge9 2.758046 1_555
Au20 Ge14 2.891237 1_555
Au20 Au25 2.924599 1_565
Au20 Au33 2.993278 1_555
Au20 Au41 3.080332 1_565
Au20 Ca10 3.157127 1_554
Au20 Ca8 3.234286 1_565
Au20 Ca2 3.274786 1_555
Au21 Ge20 2.666695 1_656
Au21 Ge8 2.758046 1_555
Au21 Ge15 2.891237 1_555
Au21 Au26 2.924599 1_555
Au21 Au32 2.993278 1_555
Au21 Au42 3.080332 1_656
Au21 Ca9 3.157127 1_556
Au21 Ca6 3.234286 1_555
Au21 Ca3 3.274786 1_555
Au22 Ge18 2.666695 1_555
Au22 Ge11 2.758046 1_555
Au22 Ge15 2.891237 1_555
Au22 Au24 2.924599 1_545
Au22 Au35 2.993278 1_555
Au22 Au40 3.080332 1_555
Au22 Ca12 3.157127 1_555
Au22 Ca5 3.234286 1_545
Au22 Ca1 3.274786 1_555
Au23 Ge21 2.666695 1_555
Au23 Ge10 2.758046 1_555
Au23 Ge14 2.891237 1_555
Au23 Au27 2.924599 1_555
Au23 Au34 2.993278 1_555
Au23 Au43 3.080332 1_555
Au23 Ca11 3.157127 1_555
Au23 Ca7 3.234286 1_555
Au23 Ca4 3.274786 1_555
Au24 Ge15 2.651144 1_565
Au24 Ge17 2.744282 1_555
Au24 Au27 2.909599 1_555
Au24 Au8 2.924599 1_565
Au24 Au44 3.014055 1_565
Au24 Au45 3.014055 1_565
Au24 Ca1 3.278369 1_565
Au24 Ca7 3.305640 1_555
Au24 Ca5 3.305640 1_555
Au25 Ge14 2.651144 1_545
Au25 Ge16 2.744282 1_555
Au25 Au26 2.909599 1_555
Au25 Au45 3.014055 1_555
Au25 Au44 3.014055 1_555
Au25 Ca2 3.278369 1_545
Au25 Ca6 3.305640 1_555
Au25 Ca8 3.305640 1_555
Au26 Ge15 2.651144 1_555
Au26 Ge16 2.744282 1_555
Au26 Au44 3.014055 1_555
Au26 Au45 3.014055 1_555
Au26 Ca3 3.278369 1_555
Au26 Ca6 3.305640 1_555
Au26 Ca8 3.305640 1_555
Au27 Ge14 2.651144 1_555
Au27 Ge17 2.744282 1_555
Au27 Au9 2.924599 1_555
Au27 Au3 2.993278 1_555
Au27 Au45 3.014055 1_565
Au27 Au44 3.014055 1_565
Au27 Ca4 3.278369 1_555
Au27 Ca5 3.305640 1_555
Au27 Ca7 3.305640 1_555
Au28 Ge17 2.651144 1_655
Au28 Ge13 2.744282 1_555
Au28 Au31 2.909599 1_555
Au28 Au4 2.993278 1_555
Au28 Au46 3.014055 1_655
Au28 Au47 3.014055 1_655
Au28 Ca5 3.278369 1_655
Au28 Ca11 3.305640 1_555
Au28 Ca9 3.305640 1_555
Au29 Ge16 2.651144 1_455
Au29 Ge12 2.744282 1_555
Au29 Au30 2.909599 1_555
Au29 Au5 2.993278 1_555
Au29 Au46 3.014055 1_555
Au29 Au47 3.014055 1_555
Au29 Ca6 3.278369 1_455
Au29 Ca12 3.305640 1_555
Au29 Ca10 3.305640 1_555
Au30 Ge17 2.651144 1_555
Au30 Ge12 2.744282 1_555
Au30 Au6 2.993278 1_555
Au30 Au46 3.014055 1_555
Au30 Au47 3.014055 1_555
Au30 Ca7 3.278369 1_555
Au30 Ca10 3.305640 1_555
Au30 Ca12 3.305640 1_555
Au31 Ge16 2.651144 1_555
Au31 Ge13 2.744282 1_555
Au31 Au7 2.993278 1_555
Au31 Au47 3.014055 1_655
Au31 Au46 3.014055 1_655
Au31 Ca8 3.278369 1_555
Au31 Ca9 3.305640 1_555
Au31 Ca11 3.305640 1_555
Au32 Ge13 2.651144 1_556
Au32 Ge15 2.744282 1_555
Au32 Au35 2.909599 1_555
Au32 Au4 2.924599 1_556
Au32 Au8 2.993278 1_555
Au32 Au49 3.014055 1_556
Au32 Au48 3.014055 1_556
Au32 Ca9 3.278369 1_556
Au32 Ca3 3.305640 1_555
Au32 Ca1 3.305640 1_555
Au33 Ge12 2.651144 1_554
Au33 Ge14 2.744282 1_555
Au33 Au34 2.909599 1_555
Au33 Au6 2.924599 1_554
Au33 Au9 2.993278 1_555
Au33 Au48 3.014055 1_555
Au33 Au49 3.014055 1_555
Au33 Ca10 3.278369 1_554
Au33 Ca2 3.305640 1_555
Au33 Ca4 3.305640 1_555
Au34 Ge13 2.651144 1_555
Au34 Ge14 2.744282 1_555
Au34 Au7 2.924599 1_555
Au34 Au48 3.014055 1_555
Au34 Au49 3.014055 1_555
Au34 Ca11 3.278369 1_555
Au34 Ca2 3.305640 1_555
Au34 Ca4 3.305640 1_555
Au35 Ge12 2.651144 1_555
Au35 Ge15 2.744282 1_555
Au35 Au5 2.924599 1_555
Au35 Au49 3.014055 1_556
Au35 Au48 3.014055 1_556
Au35 Ca12 3.278369 1_555
Au35 Ca1 3.305640 1_555
Au35 Ca3 3.305640 1_555
Au36 Ge5 2.631162 1_555
Au36 Ge10 2.631162 1_445
Au36 Ge0 2.631162 1_545
Au36 Ge18 2.804343 1_555
Au36 Au5 3.080332 1_555
Au36 Ca6 3.321431 1_455
Au36 Ca11 3.321431 1_445
Au36 Ca1 3.321431 1_555
Au36 Ca0 3.668331 1_556
Au37 Ge1 2.631162 1_555
Au37 Ge6 2.631162 1_544
Au37 Ge8 2.631162 1_554
Au37 Ge19 2.804343 1_555
Au37 Au8 3.080332 1_554
Au37 Au6 3.080332 1_544
Au37 Ca2 3.321431 1_545
Au37 Ca7 3.321431 1_544
Au37 Ca9 3.321431 1_555
Au37 Ca0 3.668331 1_655
Au38 Ge2 2.631162 1_454
Au38 Ge9 2.631162 1_555
Au38 Ge4 2.631162 1_455
Au38 Ge20 2.804343 1_555
Au38 Au4 3.080332 1_455
Au38 Au9 3.080332 1_555
Au38 Ca10 3.321431 1_554
Au38 Ca5 3.321431 1_555
Au38 Ca3 3.321431 1_454
Au38 Ca0 3.668331 1_565
Au39 Ge3 2.631162 1_555
Au39 Ge11 2.631162 1_555
Au39 Ge7 2.631162 1_555
Au39 Ge21 2.804343 1_555
Au39 Au7 3.080332 1_555
Au39 Ca8 3.321431 1_555
Au39 Ca12 3.321431 1_555
Au39 Ca4 3.321431 1_555
Au39 Ca0 3.668331 1_555
Au40 Ge4 2.631162 1_445
Au40 Ge11 2.631162 1_555
Au40 Ge1 2.631162 1_455
Au40 Ge18 2.804343 1_555
Au40 Ca2 3.321431 1_445
Au40 Ca12 3.321431 1_555
Au40 Ca5 3.321431 1_545
Au40 Ca0 3.668331 1_555
Au41 Ge0 2.631162 1_544
Au41 Ge9 2.631162 1_545
Au41 Ge7 2.631162 1_555
Au41 Ge19 2.804343 1_555
Au41 Ca8 3.321431 1_555
Au41 Ca1 3.321431 1_554
Au41 Ca10 3.321431 1_544
Au41 Ca0 3.668331 1_555
Au42 Ge3 2.631162 1_555
Au42 Ge8 2.631162 1_454
Au42 Ge5 2.631162 1_554
Au42 Ge20 2.804343 1_555
Au42 Ca4 3.321431 1_555
Au42 Ca9 3.321431 1_455
Au42 Ca6 3.321431 1_454
Au42 Ca0 3.668331 1_555
Au43 Ge2 2.631162 1_555
Au43 Ge10 2.631162 1_555
Au43 Ge6 2.631162 1_555
Au43 Ge21 2.804343 1_555
Au43 Ca11 3.321431 1_555
Au43 Ca3 3.321431 1_555
Au43 Ca7 3.321431 1_555
Au43 Ca0 3.668331 1_666
Au44 Ge8 2.841143 1_555
Au44 Ge10 2.841143 1_545
Au44 Ca7 3.148226 1_545
Au44 Ca6 3.148226 1_555
Au45 Ge9 2.841143 1_545
Au45 Ge11 2.841143 1_555
Au45 Ca8 3.148226 1_555
Au45 Ca5 3.148226 1_545
Au46 Ge0 2.841143 1_555
Au46 Ge2 2.841143 1_455
Au46 Ca11 3.148226 1_455
Au46 Ca10 3.148226 1_555
Au47 Ge1 2.841143 1_455
Au47 Ge3 2.841143 1_555
Au47 Ca12 3.148226 1_555
Au47 Ca9 3.148226 1_455
Au48 Ge4 2.841143 1_555
Au48 Ge6 2.841143 1_554
Au48 Ca3 3.148226 1_554
Au48 Ca2 3.148226 1_555
Au49 Ge5 2.841143 1_554
Au49 Ge7 2.841143 1_555
Au49 Ca4 3.148226 1_555
Au49 Ca1 3.148226 1_554
