# generated using pymatgen
data_CsHgBr3
_symmetry_space_group_name_H-M   'P 1'
_cell_length_a   12.63100851
_cell_length_b   12.63100851
_cell_length_c   14.50936956
_cell_angle_alpha   56.78275534
_cell_angle_beta   56.78275534
_cell_angle_gamma   37.30797283
_symmetry_Int_Tables_number   1
_chemical_formula_structural   CsHgBr3
_chemical_formula_sum   'Cs6 Hg6 Br18'
_cell_volume   1144.73976539
_cell_formula_units_Z   6
loop_
 _symmetry_equiv_pos_site_id
 _symmetry_equiv_pos_as_xyz
  1  'x, y, z'
loop_
 _atom_site_type_symbol
 _atom_site_label
 _atom_site_symmetry_multiplicity
 _atom_site_fract_x
 _atom_site_fract_y
 _atom_site_fract_z
 _atom_site_occupancy
  Cs  Cs0  1  0.50000000  -0.00000000  0.00000000  1
  Cs  Cs1  1  -0.00000000  0.50000000  0.50000000  1
  Cs  Cs2  1  0.18410188  0.63813249  0.68055326  1
  Cs  Cs3  1  0.36186751  0.81589812  0.81944674  1
  Cs  Cs4  1  0.81589812  0.36186751  0.31944674  1
  Cs  Cs5  1  0.63813249  0.18410188  0.18055326  1
  Hg  Hg0  1  0.24946765  0.75053235  0.25000000  1
  Hg  Hg1  1  0.75053235  0.24946765  0.75000000  1
  Hg  Hg2  1  0.09487492  0.57728166  0.07761738  1
  Hg  Hg3  1  0.42271834  0.90512508  0.42238262  1
  Hg  Hg4  1  0.90512508  0.42271834  0.92238262  1
  Hg  Hg5  1  0.57728166  0.09487492  0.57761738  1
  Br  Br0  1  0.10975447  0.70980471  0.21445262  1
  Br  Br1  1  0.29019529  0.89024553  0.28554738  1
  Br  Br2  1  0.89024553  0.29019529  0.78554738  1
  Br  Br3  1  0.70980471  0.10975447  0.71445262  1
  Br  Br4  1  0.93756209  0.89295213  0.95932287  1
  Br  Br5  1  0.10704787  0.06243791  0.54067713  1
  Br  Br6  1  0.06243791  0.10704787  0.04067713  1
  Br  Br7  1  0.89295213  0.93756209  0.45932287  1
  Br  Br8  1  0.18846406  0.32255966  0.25218838  1
  Br  Br9  1  0.67744034  0.81153594  0.24781162  1
  Br  Br10  1  0.81153594  0.67744034  0.74781162  1
  Br  Br11  1  0.32255966  0.18846406  0.75218838  1
  Br  Br12  1  -0.00000000  0.50000000  0.00000000  1
  Br  Br13  1  0.50000000  -0.00000000  0.50000000  1
  Br  Br14  1  0.40685456  0.44046726  0.43266094  1
  Br  Br15  1  0.55953274  0.59314544  0.06733906  1
  Br  Br16  1  0.59314544  0.55953274  0.56733906  1
  Br  Br17  1  0.44046726  0.40685456  0.93266094  1
loop_
_geom_bond_atom_site_label_1
_geom_bond_atom_site_label_2
_geom_bond_distance
_geom_bond_site_symmetry_2
Br0 Hg0 2.525267 1_555
Br0 Cs1 3.692133 1_555
Br0 Cs5 3.850858 1_465
Br0 Cs5 4.284851 1_555
Br1 Hg0 2.525267 1_555
Br1 Cs0 3.692133 1_565
Br1 Cs4 3.850858 1_465
Br1 Cs4 4.284851 1_555
Br2 Hg1 2.525267 1_555
Br2 Cs1 3.692133 1_655
Br2 Cs3 3.850858 1_645
Br2 Cs3 4.284851 1_555
Br3 Hg1 2.525267 1_555
Br3 Cs0 3.692133 1_556
Br3 Cs2 3.850858 1_645
Br3 Cs2 4.284851 1_555
Br4 Hg2 2.535258 1_656
Br4 Cs5 3.954545 1_566
Br4 Cs3 3.967200 1_655
Br4 Cs0 4.258550 1_566
Br5 Hg3 2.535258 1_545
Br5 Cs4 3.954545 1_455
Br5 Cs2 3.967200 1_545
Br5 Cs1 4.258550 1_555
Br6 Hg4 2.535258 1_454
Br6 Cs3 3.954545 1_544
Br6 Cs5 3.967200 1_455
Br6 Cs0 4.258550 1_555
Br7 Hg5 2.535258 1_565
Br7 Cs2 3.954545 1_655
Br7 Cs4 3.967200 1_565
Br7 Cs1 4.258550 1_655
Br8 Hg2 2.542882 1_555
Br8 Cs1 3.818696 1_555
Br8 Cs4 3.889308 1_455
Br8 Cs5 4.015065 1_555
Br9 Hg3 2.542882 1_555
Br9 Cs0 3.818696 1_565
Br9 Cs5 3.889308 1_565
Br9 Cs4 4.015065 1_555
Br10 Hg4 2.542882 1_555
Br10 Cs1 3.818696 1_655
Br10 Cs2 3.889308 1_655
Br10 Cs3 4.015065 1_555
Br11 Hg5 2.542882 1_555
Br11 Cs0 3.818696 1_556
Br11 Cs3 3.889308 1_545
Br11 Cs2 4.015065 1_555
Br12 Hg4 2.863766 1_454
Br12 Hg2 2.863766 1_555
Br12 Cs2 3.964803 1_554
Br12 Cs4 3.964803 1_455
Br12 Cs0 4.040056 1_555
Br12 Cs0 4.040056 1_465
Br13 Hg5 2.863766 1_555
Br13 Hg3 2.863766 1_545
Br13 Cs3 3.964803 1_545
Br13 Cs5 3.964803 1_555
Br13 Cs1 4.040056 1_645
Br13 Cs1 4.040056 1_555
Br14 Hg5 2.840021 1_555
Br14 Hg0 2.886064 1_555
Br14 Cs2 3.829235 1_555
Br14 Cs4 3.834900 1_555
Br14 Cs1 4.133489 1_555
Br14 Cs5 4.315302 1_555
Br15 Hg4 2.840021 1_554
Br15 Hg0 2.886064 1_555
Br15 Cs3 3.829235 1_554
Br15 Cs5 3.834900 1_555
Br15 Cs0 4.133489 1_565
Br15 Cs4 4.315302 1_555
Br16 Hg3 2.840021 1_555
Br16 Hg1 2.886064 1_555
Br16 Cs4 3.829235 1_555
Br16 Cs2 3.834900 1_555
Br16 Cs1 4.133489 1_655
Br16 Cs3 4.315302 1_555
Br17 Hg2 2.840021 1_556
Br17 Hg1 2.886064 1_555
Br17 Cs5 3.829235 1_556
Br17 Cs3 3.834900 1_555
Br17 Cs0 4.133489 1_556
Br17 Cs2 4.315302 1_555
