# generated using pymatgen
data_Ge2Sb2Te5
_symmetry_space_group_name_H-M   'P 1'
_cell_length_a   7.49494323
_cell_length_b   7.49494323
_cell_length_c   9.67222807
_cell_angle_alpha   49.87555369
_cell_angle_beta   49.87555369
_cell_angle_gamma   48.29368468
_symmetry_Int_Tables_number   1
_chemical_formula_structural   Ge2Sb2Te5
_chemical_formula_sum   'Ge2 Sb2 Te5'
_cell_volume   287.17272559
_cell_formula_units_Z   1
loop_
 _symmetry_equiv_pos_site_id
 _symmetry_equiv_pos_as_xyz
  1  'x, y, z'
loop_
 _atom_site_type_symbol
 _atom_site_label
 _atom_site_symmetry_multiplicity
 _atom_site_fract_x
 _atom_site_fract_y
 _atom_site_fract_z
 _atom_site_occupancy
  Ge  Ge0  1  0.50265700  0.50265700  0.01104400  1
  Ge  Ge1  1  0.71571300  0.71571300  0.18783000  1
  Sb  Sb0  1  0.88813000  0.88813000  0.41735200  1
  Sb  Sb1  1  0.09829200  0.09829200  0.58787300  1
  Te  Te0  1  0.60004100  0.60004100  0.59711800  1
  Te  Te1  1  0.79348100  0.79348100  0.80980300  1
  Te  Te2  1  0.99167600  0.99167600  0.00643500  1
  Te  Te3  1  0.20471200  0.20471200  0.19611200  1
  Te  Te4  1  0.40529800  0.40529800  0.38643300  1
loop_
_geom_bond_atom_site_label_1
_geom_bond_atom_site_label_2
_geom_bond_distance
_geom_bond_site_symmetry_2
Ge0 Te4 2.850752 1_555
Ge0 Te1 2.945521 1_554
Ge0 Te2 3.071547 1_455
Ge0 Te2 3.071547 1_545
Ge0 Te3 3.083618 1_555
Ge0 Te0 3.204729 1_554
Ge1 Te2 2.823490 1_555
Ge1 Te1 3.001130 1_554
Ge1 Te0 3.054136 1_555
Ge1 Te3 3.067968 1_565
Ge1 Te3 3.067968 1_655
Ge1 Te4 3.193347 1_555
Sb0 Te0 2.978822 1_555
Sb0 Te1 3.023801 1_555
Sb0 Te4 3.073398 1_655
Sb0 Te4 3.073398 1_565
Sb0 Te2 3.138683 1_555
Sb0 Te3 3.200302 1_665
Sb1 Te3 2.947207 1_555
Sb1 Te1 3.057679 1_445
Sb1 Te0 3.067895 1_545
Sb1 Te0 3.067895 1_455
Sb1 Te4 3.142229 1_555
Sb1 Te2 3.190177 1_446
