# generated using pymatgen
data_LiNbFeO4
_symmetry_space_group_name_H-M   'P 1'
_cell_length_a   6.26618912
_cell_length_b   6.26791372
_cell_length_c   8.73500742
_cell_angle_alpha   90.50347868
_cell_angle_beta   89.48831058
_cell_angle_gamma   89.69470899
_symmetry_Int_Tables_number   1
_chemical_formula_structural   LiNbFeO4
_chemical_formula_sum   'Li4 Nb4 Fe4 O16'
_cell_volume   343.04362258
_cell_formula_units_Z   4
loop_
 _symmetry_equiv_pos_site_id
 _symmetry_equiv_pos_as_xyz
  1  'x, y, z'
loop_
 _atom_site_type_symbol
 _atom_site_label
 _atom_site_symmetry_multiplicity
 _atom_site_fract_x
 _atom_site_fract_y
 _atom_site_fract_z
 _atom_site_occupancy
  Li  Li0  1  0.27186800  0.02370600  0.12573900  1
  Li  Li1  1  0.77359000  0.52150800  0.62416900  1
  Li  Li2  1  0.72522900  0.97487400  0.87488300  1
  Li  Li3  1  0.22608700  0.47629500  0.37515100  1
  Nb  Nb0  1  0.77057900  0.22798900  0.22860800  1
  Nb  Nb1  1  0.26972700  0.72721900  0.72890400  1
  Nb  Nb2  1  0.97816600  0.02004400  0.52150400  1
  Nb  Nb3  1  0.47742500  0.51947300  0.02122100  1
  Fe  Fe0  1  0.99592700  0.50734300  0.99690600  1
  Fe  Fe1  1  0.25774100  0.24657900  0.75274900  1
  Fe  Fe2  1  0.49746600  0.00663600  0.49595100  1
  Fe  Fe3  1  0.75648000  0.74741600  0.25417900  1
  O  O0  1  0.53451900  0.02419100  0.26375700  1
  O  O1  1  0.03606800  0.52083800  0.76288100  1
  O  O2  1  0.77399000  0.78446300  0.48639600  1
  O  O3  1  0.27004600  0.28650800  0.98663700  1
  O  O4  1  0.22769300  0.21340100  0.51249300  1
  O  O5  1  0.72843000  0.71396300  0.01486200  1
  O  O6  1  0.46416800  0.97807700  0.73538900  1
  O  O7  1  0.96291000  0.47779200  0.23804800  1
  O  O8  1  0.76899300  0.24203400  0.48643900  1
  O  O9  1  0.26922400  0.74285400  0.98553300  1
  O  O10  1  0.99242200  0.01884200  0.26335600  1
  O  O11  1  0.49317300  0.51903400  0.76429900  1
  O  O12  1  0.22982400  0.76010100  0.51226300  1
  O  O13  1  0.72773700  0.26089800  0.01172100  1
  O  O14  1  0.01089200  0.97813200  0.73825800  1
  O  O15  1  0.50962600  0.47979200  0.23770200  1
loop_
_geom_bond_atom_site_label_1
_geom_bond_atom_site_label_2
_geom_bond_distance
_geom_bond_site_symmetry_2
Li0 O0 2.048806 1_555
Li0 O3 2.055493 1_554
Li0 O10 2.115602 1_455
Li0 O9 2.135838 1_544
Li1 O2 2.049302 1_555
Li1 O1 2.051556 1_655
Li1 O8 2.116802 1_555
Li1 O11 2.132669 1_555
Li2 O6 2.048612 1_555
Li2 O5 2.050634 1_556
Li2 O14 2.142778 1_655
Li2 O13 2.146149 1_566
Li3 O7 2.046758 1_455
Li3 O4 2.046792 1_555
Li3 O15 2.135752 1_555
Li3 O12 2.136085 1_555
Nb0 O13 1.928508 1_555
Nb0 O10 1.933427 1_555
Nb0 O7 1.982532 1_555
Nb0 O0 1.983160 1_555
Nb0 O8 2.253034 1_555
Nb0 O15 2.266951 1_555
Nb1 O12 1.923742 1_555
Nb1 O11 1.937550 1_555
Nb1 O1 1.980994 1_555
Nb1 O6 1.995020 1_555
Nb1 O9 2.242910 1_555
Nb1 O14 2.253629 1_555
Nb2 O14 1.926378 1_645
Nb2 O8 1.934698 1_555
Nb2 O2 1.982538 1_545
Nb2 O4 1.984810 1_655
Nb2 O10 2.255841 1_555
Nb2 O12 2.261835 1_645
Nb3 O15 1.921682 1_555
Nb3 O9 1.937800 1_554
Nb3 O3 1.982820 1_554
Nb3 O5 1.995761 1_555
Nb3 O11 2.245480 1_554
Nb3 O13 2.249902 1_555
Fe0 O1 2.059927 1_655
Fe0 O5 2.116607 1_556
Fe0 O7 2.124481 1_556
Fe0 O3 2.200942 1_655
Fe0 O9 2.268957 1_655
Fe0 O13 2.292227 1_556
Fe1 O3 2.058280 1_555
Fe1 O4 2.117259 1_555
Fe1 O6 2.120681 1_545
Fe1 O1 2.205002 1_555
Fe1 O11 2.264813 1_555
Fe1 O14 2.295052 1_545
Fe2 O0 2.043394 1_555
Fe2 O6 2.109290 1_545
Fe2 O4 2.127692 1_555
Fe2 O2 2.217720 1_545
Fe2 O8 2.259457 1_555
Fe2 O12 2.290851 1_545
Fe3 O2 2.043625 1_555
Fe3 O5 2.108088 1_555
Fe3 O7 2.125645 1_555
Fe3 O0 2.218256 1_565
Fe3 O10 2.261221 1_565
Fe3 O15 2.292294 1_555
