# generated using pymatgen
data_Na3ErTi2Nb2O12
_symmetry_space_group_name_H-M   'P 1'
_cell_length_a   5.43486800
_cell_length_b   5.59206600
_cell_length_c   15.50839100
_cell_angle_alpha   90.00000000
_cell_angle_beta   90.00000000
_cell_angle_gamma   90.00000000
_symmetry_Int_Tables_number   1
_chemical_formula_structural   Na3ErTi2Nb2O12
_chemical_formula_sum   'Na6 Er2 Ti4 Nb4 O24'
_cell_volume   471.33319909
_cell_formula_units_Z   2
loop_
 _symmetry_equiv_pos_site_id
 _symmetry_equiv_pos_as_xyz
  1  'x, y, z'
loop_
 _atom_site_type_symbol
 _atom_site_label
 _atom_site_symmetry_multiplicity
 _atom_site_fract_x
 _atom_site_fract_y
 _atom_site_fract_z
 _atom_site_occupancy
  Na  Na0  1  0.00511000  0.96879900  0.37190300  1
  Na  Na1  1  0.00511000  0.96879900  0.87809700  1
  Na  Na2  1  0.49489000  0.46879900  0.87809700  1
  Na  Na3  1  0.49489000  0.46879900  0.37190300  1
  Na  Na4  1  0.50815500  0.53513300  0.62500000  1
  Na  Na5  1  0.99184500  0.03513300  0.62500000  1
  Er  Er0  1  0.51250600  0.56505800  0.12500000  1
  Er  Er1  1  0.98749400  0.06505800  0.12500000  1
  Ti  Ti0  1  0.01205200  0.52357800  0.99869300  1
  Ti  Ti1  1  0.48794800  0.02357800  0.25130700  1
  Ti  Ti2  1  0.48794800  0.02357800  0.99869300  1
  Ti  Ti3  1  0.01205200  0.52357800  0.25130700  1
  Nb  Nb0  1  0.50003000  0.00093100  0.75216500  1
  Nb  Nb1  1  0.50003000  0.00093100  0.49783500  1
  Nb  Nb2  1  0.99997000  0.50093100  0.49783500  1
  Nb  Nb3  1  0.99997000  0.50093100  0.75216500  1
  O  O0  1  0.10196800  0.45841600  0.12500000  1
  O  O1  1  0.07717300  0.48229400  0.62500000  1
  O  O2  1  0.20672500  0.20839500  0.47788600  1
  O  O3  1  0.19739100  0.19075900  0.26097600  1
  O  O4  1  0.20672500  0.20839500  0.77211400  1
  O  O5  1  0.19739100  0.19075900  0.98902400  1
  O  O6  1  0.29327500  0.70839500  0.47788600  1
  O  O7  1  0.29327500  0.70839500  0.77211400  1
  O  O8  1  0.30260900  0.69075900  0.26097600  1
  O  O9  1  0.30260900  0.69075900  0.98902400  1
  O  O10  1  0.39803200  0.95841600  0.12500000  1
  O  O11  1  0.42282700  0.98229400  0.62500000  1
  O  O12  1  0.57359600  0.01677300  0.88015800  1
  O  O13  1  0.57359600  0.01677300  0.36984200  1
  O  O14  1  0.70276700  0.27872500  0.03379000  1
  O  O15  1  0.70276700  0.27872500  0.21621000  1
  O  O16  1  0.70648600  0.29158800  0.51812300  1
  O  O17  1  0.70648600  0.29158800  0.73187700  1
  O  O18  1  0.79723300  0.77872500  0.03379000  1
  O  O19  1  0.79723300  0.77872500  0.21621000  1
  O  O20  1  0.79351400  0.79158800  0.51812300  1
  O  O21  1  0.79351400  0.79158800  0.73187700  1
  O  O22  1  0.92640400  0.51677300  0.88015800  1
  O  O23  1  0.92640400  0.51677300  0.36984200  1
loop_
_geom_bond_atom_site_label_1
_geom_bond_atom_site_label_2
_geom_bond_distance
_geom_bond_site_symmetry_2
Na0 O13 2.360732 1_465
Na0 O3 2.364765 1_565
Na0 O2 2.386910 1_565
Na0 O23 2.563896 1_455
Na0 O6 2.697184 1_555
Na0 O20 2.728865 1_455
Na0 O8 2.826862 1_555
Na0 O19 2.869882 1_455
Na1 O12 2.360732 1_465
Na1 O5 2.364765 1_565
Na1 O4 2.386910 1_565
Na1 O22 2.563896 1_455
Na1 O7 2.697184 1_555
Na1 O21 2.728865 1_455
Na1 O9 2.826862 1_555
Na1 O18 2.869882 1_456
Na2 O22 2.360732 1_555
Na2 O9 2.364765 1_555
Na2 O7 2.386910 1_555
Na2 O12 2.563896 1_555
Na2 O4 2.697184 1_555
Na2 O17 2.728865 1_555
Na2 O5 2.826862 1_555
Na2 O14 2.869882 1_556
Na3 O23 2.360732 1_555
Na3 O8 2.364765 1_555
Na3 O6 2.386910 1_555
Na3 O13 2.563896 1_555
Na3 O2 2.697184 1_555
Na3 O16 2.728865 1_555
Na3 O3 2.826862 1_555
Na3 O15 2.869882 1_555
Na4 O1 2.360894 1_555
Na4 O17 2.400828 1_555
Na4 O16 2.400828 1_555
Na4 O11 2.543193 1_555
Na4 O20 2.684997 1_555
Na4 O21 2.684997 1_555
Na4 O7 2.740048 1_555
Na4 O6 2.740048 1_555
Na5 O11 2.360894 1_645
Na5 O20 2.400828 1_545
Na5 O21 2.400828 1_545
Na5 O1 2.543193 1_655
Na5 O16 2.684997 1_555
Na5 O17 2.684997 1_555
Na5 O4 2.740048 1_655
Na5 O2 2.740048 1_655
Er0 O10 2.285975 1_555
Er0 O0 2.309540 1_555
Er0 O14 2.373591 1_555
Er0 O15 2.373591 1_555
Er0 O18 2.413115 1_555
Er0 O19 2.413115 1_555
Er0 O9 2.498470 1_554
Er0 O8 2.498470 1_555
Er1 O0 2.285975 1_655
Er1 O10 2.309540 1_645
Er1 O19 2.373591 1_545
Er1 O18 2.373591 1_545
Er1 O14 2.413115 1_555
Er1 O15 2.413115 1_555
Er1 O3 2.498470 1_655
Er1 O5 2.498470 1_654
Nb0 O4 1.995680 1_555
Nb0 O17 1.999963 1_555
Nb0 O21 2.003400 1_545
Nb0 O7 2.008604 1_545
Nb0 O11 2.018958 1_545
Nb0 O12 2.026769 1_555
Nb1 O2 1.995680 1_555
Nb1 O16 1.999963 1_555
Nb1 O20 2.003400 1_545
Nb1 O6 2.008604 1_545
Nb1 O11 2.018958 1_545
Nb1 O13 2.026769 1_555
Nb2 O6 1.995680 1_655
Nb2 O20 1.999963 1_555
Nb2 O16 2.003400 1_555
Nb2 O2 2.008604 1_655
Nb2 O1 2.018958 1_655
Nb2 O23 2.026769 1_555
Nb3 O7 1.995680 1_655
Nb3 O21 1.999963 1_555
Nb3 O17 2.003400 1_555
Nb3 O4 2.008604 1_655
Nb3 O1 2.018958 1_655
Nb3 O22 2.026769 1_555
O0 Ti0 2.051477 1_554
O0 Ti3 2.051477 1_555
O3 Ti1 1.841244 1_555
O3 Ti3 2.121553 1_555
O5 Ti2 1.841244 1_555
O5 Ti0 2.121553 1_555
O8 Ti3 1.841244 1_555
O8 Ti1 2.121553 1_565
O9 Ti0 1.841244 1_555
O9 Ti2 2.121553 1_565
O10 Ti2 2.051477 1_564
O10 Ti1 2.051477 1_565
O12 Ti2 1.896688 1_555
O13 Ti1 1.896688 1_555
O14 Ti2 1.922265 1_554
O14 Ti0 2.235300 1_654
O15 Ti1 1.922265 1_555
O15 Ti3 2.235300 1_655
O18 Ti0 1.922265 1_654
O18 Ti2 2.235300 1_564
O19 Ti3 1.922265 1_655
O19 Ti1 2.235300 1_565
O22 Ti0 1.896688 1_655
O23 Ti3 1.896688 1_655
