# generated using pymatgen
data_K2Ag3Sb3S7
_symmetry_space_group_name_H-M   'P 1'
_cell_length_a   13.48732715
_cell_length_b   13.48732715
_cell_length_c   6.92045400
_cell_angle_alpha   90.00000000
_cell_angle_beta   90.00000000
_cell_angle_gamma   140.24371526
_symmetry_Int_Tables_number   1
_chemical_formula_structural   K2Ag3Sb3S7
_chemical_formula_sum   'K4 Ag6 Sb6 S14'
_cell_volume   805.08690700
_cell_formula_units_Z   2
loop_
 _symmetry_equiv_pos_site_id
 _symmetry_equiv_pos_as_xyz
  1  'x, y, z'
loop_
 _atom_site_type_symbol
 _atom_site_label
 _atom_site_symmetry_multiplicity
 _atom_site_fract_x
 _atom_site_fract_y
 _atom_site_fract_z
 _atom_site_occupancy
  K  K0  1  0.48373500  0.89728400  0.68535000  1
  K  K1  1  0.89728400  0.48373500  0.68535000  1
  K  K2  1  0.51626500  0.10271600  0.18535000  1
  K  K3  1  0.10271600  0.51626500  0.18535000  1
  Ag  Ag0  1  0.67979500  0.67979500  0.37388100  1
  Ag  Ag1  1  0.32020500  0.32020500  0.87388100  1
  Ag  Ag2  1  0.40246700  0.58290000  0.62764600  1
  Ag  Ag3  1  0.58290000  0.40246700  0.62764600  1
  Ag  Ag4  1  0.59753300  0.41710000  0.12764600  1
  Ag  Ag5  1  0.41710000  0.59753300  0.12764600  1
  Sb  Sb0  1  0.98182800  0.23785700  0.68548300  1
  Sb  Sb1  1  0.23785700  0.98182800  0.68548300  1
  Sb  Sb2  1  0.01817200  0.76214300  0.18548300  1
  Sb  Sb3  1  0.76214300  0.01817200  0.18548300  1
  Sb  Sb4  1  0.84182100  0.84182100  0.82893900  1
  Sb  Sb5  1  0.15817900  0.15817900  0.32893900  1
  S  S0  1  0.61887200  0.61887200  0.02766900  1
  S  S1  1  0.38112800  0.38112800  0.52766900  1
  S  S2  1  0.81782900  0.19425000  0.42732300  1
  S  S3  1  0.19425000  0.81782900  0.42732300  1
  S  S4  1  0.18217100  0.80575000  0.92732300  1
  S  S5  1  0.80575000  0.18217100  0.92732300  1
  S  S6  1  0.17630600  0.51792700  0.69085600  1
  S  S7  1  0.51792700  0.17630600  0.69085600  1
  S  S8  1  0.82369400  0.48207300  0.19085600  1
  S  S9  1  0.48207300  0.82369400  0.19085600  1
  S  S10  1  0.84187900  0.69327100  0.61885300  1
  S  S11  1  0.69327100  0.84187900  0.61885300  1
  S  S12  1  0.15812100  0.30672900  0.11885300  1
  S  S13  1  0.30672900  0.15812100  0.11885300  1
loop_
_geom_bond_atom_site_label_1
_geom_bond_atom_site_label_2
_geom_bond_distance
_geom_bond_site_symmetry_2
K0 S6 3.279273 1_555
K0 S5 3.282123 1_565
K0 S7 3.421682 1_565
K0 S2 3.433036 1_565
K0 S11 3.464671 1_555
K0 S9 3.558418 1_555
K0 S3 3.626015 1_555
K0 S4 3.626392 1_555
K0 S9 3.631767 1_556
K1 S7 3.279273 1_555
K1 S4 3.282123 1_655
K1 S6 3.421682 1_655
K1 S3 3.433036 1_655
K1 S10 3.464671 1_555
K1 S8 3.558418 1_555
K1 S2 3.626015 1_555
K1 S5 3.626392 1_555
K1 S8 3.631767 1_556
K2 S8 3.279273 1_555
K2 S3 3.282123 1_545
K2 S9 3.421682 1_545
K2 S4 3.433036 1_544
K2 S13 3.464671 1_555
K2 S7 3.558418 1_554
K2 S5 3.626015 1_554
K2 S2 3.626392 1_555
K2 S7 3.631767 1_555
K3 S9 3.279273 1_555
K3 S2 3.282123 1_455
K3 S8 3.421682 1_455
K3 S5 3.433036 1_454
K3 S12 3.464671 1_555
K3 S6 3.558418 1_554
K3 S4 3.626015 1_554
K3 S3 3.626392 1_555
K3 S6 3.631767 1_555
Ag0 S0 2.460241 1_555
Ag0 S11 2.659919 1_555
Ag0 S10 2.659919 1_555
Ag0 S1 2.938839 1_555
Ag1 S1 2.460241 1_555
Ag1 S12 2.659919 1_556
Ag1 S13 2.659919 1_556
Ag1 S0 2.938839 1_556
Ag2 S6 2.480679 1_555
Ag2 S11 2.554123 1_555
Ag2 S1 2.600601 1_555
Ag2 K0 3.492025 1_555
Ag3 S7 2.480679 1_555
Ag3 S10 2.554123 1_555
Ag3 S1 2.600601 1_555
Ag3 K1 3.492025 1_555
Ag4 S8 2.480679 1_555
Ag4 S13 2.554123 1_555
Ag4 S0 2.600601 1_555
Ag4 K2 3.492025 1_555
Ag5 S9 2.480679 1_555
Ag5 S12 2.554123 1_555
Ag5 S0 2.600601 1_555
Ag5 K3 3.492025 1_555
S0 Sb4 2.464340 1_554
S1 Sb5 2.464340 1_555
S2 Sb3 2.502508 1_555
S2 Sb0 2.535768 1_555
S3 Sb2 2.502508 1_555
S3 Sb1 2.535768 1_555
S4 Sb1 2.502508 1_555
S4 Sb2 2.535768 1_556
S5 Sb0 2.502508 1_555
S5 Sb3 2.535768 1_556
S6 Sb0 2.432301 1_455
S7 Sb1 2.432301 1_545
S8 Sb2 2.432301 1_655
S9 Sb3 2.432301 1_565
S10 Sb4 2.475963 1_555
S11 Sb4 2.475963 1_555
S12 Sb5 2.475963 1_555
S13 Sb5 2.475963 1_555
