# generated using pymatgen
data_Sm2Fe17N
_symmetry_space_group_name_H-M   'P 1'
_cell_length_a   6.47361182
_cell_length_b   6.47361182
_cell_length_c   6.43078168
_cell_angle_alpha   83.56696985
_cell_angle_beta   83.56696985
_cell_angle_gamma   83.76704877
_symmetry_Int_Tables_number   1
_chemical_formula_structural   Sm2Fe17N
_chemical_formula_sum   'Sm2 Fe17 N1'
_cell_volume   264.85473774
_cell_formula_units_Z   1
loop_
 _symmetry_equiv_pos_site_id
 _symmetry_equiv_pos_as_xyz
  1  'x, y, z'
loop_
 _atom_site_type_symbol
 _atom_site_label
 _atom_site_symmetry_multiplicity
 _atom_site_fract_x
 _atom_site_fract_y
 _atom_site_fract_z
 _atom_site_occupancy
  Sm  Sm0  1  0.65711600  0.65711600  0.65572900  1
  Sm  Sm1  1  0.34288400  0.34288400  0.34427100  1
  Fe  Fe0  1  0.71677700  0.28322300  0.00000000  1
  Fe  Fe1  1  0.99956400  0.71445800  0.28742200  1
  Fe  Fe2  1  0.28554200  0.00043600  0.71257800  1
  Fe  Fe3  1  0.00043600  0.28554200  0.71257800  1
  Fe  Fe4  1  0.71445800  0.99956400  0.28742200  1
  Fe  Fe5  1  0.28322300  0.71677700  0.00000000  1
  Fe  Fe6  1  0.00000000  0.00000000  0.50000000  1
  Fe  Fe7  1  0.50000000  0.00000000  0.00000000  1
  Fe  Fe8  1  0.00000000  0.50000000  0.00000000  1
  Fe  Fe9  1  0.34153500  0.34153500  0.84983200  1
  Fe  Fe10  1  0.85317900  0.34331800  0.34590000  1
  Fe  Fe11  1  0.34331800  0.85317900  0.34590000  1
  Fe  Fe12  1  0.65846500  0.65846500  0.15016800  1
  Fe  Fe13  1  0.14682100  0.65668200  0.65410000  1
  Fe  Fe14  1  0.65668200  0.14682100  0.65410000  1
  Fe  Fe15  1  0.90368300  0.90368300  0.90212200  1
  Fe  Fe16  1  0.09631700  0.09631700  0.09787800  1
  N  N0  1  0.50000000  0.50000000  0.00000000  1
loop_
_geom_bond_atom_site_label_1
_geom_bond_atom_site_label_2
_geom_bond_distance
_geom_bond_site_symmetry_2
Fe0 N0 1.873778 1_555
Fe0 Fe7 2.426864 1_555
Fe0 Fe8 2.426864 1_655
Fe0 Fe4 2.455160 1_545
Fe0 Fe3 2.455160 1_654
Fe0 Fe10 2.566650 1_555
Fe0 Fe14 2.566650 1_554
Fe0 Fe16 2.725318 1_655
Fe0 Fe15 2.725318 1_544
Fe1 Fe6 2.419498 1_665
Fe1 Fe8 2.432452 1_655
Fe1 Fe5 2.455160 1_655
Fe1 Fe4 2.464401 1_555
Fe1 Fe12 2.543343 1_555
Fe1 Fe11 2.568483 1_655
Fe1 Fe13 2.614878 1_655
Fe1 Fe10 2.650298 1_555
Fe1 Fe16 2.734740 1_665
Fe1 Fe15 2.743100 1_554
Fe1 Sm0 3.076885 1_555
Fe1 Sm1 3.111828 1_655
Fe2 Fe6 2.419498 1_555
Fe2 Fe7 2.432452 1_556
Fe2 Fe5 2.455160 1_546
Fe2 Fe3 2.464401 1_555
Fe2 Fe9 2.543343 1_555
Fe2 Sm1 3.076885 1_555
Fe2 Sm0 3.111828 1_545
Fe3 Fe6 2.419498 1_555
Fe3 Fe8 2.432452 1_556
Fe3 Fe9 2.543343 1_555
Fe3 Sm1 3.076885 1_555
Fe3 Sm0 3.111828 1_455
Fe4 Fe6 2.419498 1_665
Fe4 Fe7 2.432452 1_565
Fe4 Sm0 3.076885 1_555
Fe4 Sm1 3.111828 1_565
Fe5 N0 1.873778 1_555
Fe5 Fe8 2.426864 1_555
Fe5 Fe7 2.426864 1_565
Fe6 Sm0 3.306155 1_445
Fe6 Sm1 3.306155 1_555
Fe7 Fe9 2.474738 1_554
Fe7 Sm0 3.312014 1_544
Fe7 Sm1 3.312014 1_555
Fe8 Fe9 2.474738 1_554
Fe8 Sm0 3.312014 1_454
Fe8 Sm1 3.312014 1_555
Fe9 N0 1.926073 1_556
Fe10 Fe6 2.466536 1_655
Fe10 Fe8 2.471874 1_655
Fe10 Fe14 2.527024 1_555
Fe10 Fe12 2.560680 1_555
Fe10 Fe4 2.568483 1_545
Fe10 Fe3 2.614878 1_655
Fe10 Fe16 2.653407 1_655
Fe10 Sm0 3.080231 1_555
Fe10 Sm1 3.168701 1_655
Fe10 Sm1 3.304949 1_555
Fe11 Fe6 2.466536 1_565
Fe11 Fe7 2.471874 1_565
Fe11 Fe13 2.527024 1_555
Fe11 Fe12 2.560680 1_555
Fe11 Fe5 2.566650 1_555
Fe11 Fe2 2.614878 1_565
Fe11 Fe4 2.650298 1_555
Fe11 Fe16 2.653407 1_565
Fe11 Sm0 3.080231 1_555
Fe11 Sm1 3.168701 1_565
Fe11 Sm1 3.304949 1_555
Fe12 N0 1.926073 1_555
Fe12 Fe8 2.474738 1_655
Fe12 Fe7 2.474738 1_565
Fe12 Fe4 2.543343 1_555
Fe12 Fe15 2.645140 1_554
Fe13 Fe6 2.466536 1_565
Fe13 Fe8 2.471874 1_556
Fe13 Fe9 2.560680 1_555
Fe13 Fe5 2.566650 1_556
Fe13 Fe2 2.568483 1_565
Fe13 Fe3 2.650298 1_555
Fe13 Fe15 2.653407 1_455
Fe13 Sm1 3.080231 1_555
Fe13 Sm0 3.168701 1_455
Fe13 Sm0 3.304949 1_555
Fe14 Fe6 2.466536 1_655
Fe14 Fe7 2.471874 1_556
Fe14 Fe9 2.560680 1_555
Fe14 Fe3 2.568483 1_655
Fe14 Fe4 2.614878 1_545
Fe14 Fe2 2.650298 1_555
Fe14 Fe15 2.653407 1_545
Fe14 Sm1 3.080231 1_555
Fe14 Sm0 3.168701 1_545
Fe14 Sm0 3.304949 1_555
Fe15 Fe16 2.395032 1_666
Fe15 Fe6 2.612763 1_665
Fe15 Fe7 2.641924 1_566
Fe15 Fe8 2.641924 1_656
Fe15 Fe5 2.725318 1_656
Fe15 Fe3 2.734740 1_665
Fe15 Fe2 2.734740 1_665
Fe15 Fe4 2.743100 1_556
Fe15 Sm0 3.048430 1_555
Fe16 Fe6 2.612763 1_555
Fe16 Fe7 2.641924 1_555
Fe16 Fe8 2.641924 1_555
Fe16 Fe9 2.645140 1_554
Fe16 Fe5 2.725318 1_545
Fe16 Fe4 2.734740 1_445
Fe16 Fe2 2.743100 1_554
Fe16 Fe3 2.743100 1_554
Fe16 Sm1 3.048430 1_555
N0 Sm0 2.487159 1_554
N0 Sm1 2.487159 1_555
