# generated using pymatgen
data_Pr6Al3Fe11
_symmetry_space_group_name_H-M   'P 1'
_cell_length_a   13.05710897
_cell_length_b   13.05710897
_cell_length_c   13.05710897
_cell_angle_alpha   143.88657706
_cell_angle_beta   143.88657706
_cell_angle_gamma   51.99693300
_symmetry_Int_Tables_number   1
_chemical_formula_structural   Pr6Al3Fe11
_chemical_formula_sum   'Pr12 Al6 Fe22'
_cell_volume   768.90590290
_cell_formula_units_Z   2
loop_
 _symmetry_equiv_pos_site_id
 _symmetry_equiv_pos_as_xyz
  1  'x, y, z'
loop_
 _atom_site_type_symbol
 _atom_site_label
 _atom_site_symmetry_multiplicity
 _atom_site_fract_x
 _atom_site_fract_y
 _atom_site_fract_z
 _atom_site_occupancy
  Pr  Pr0  1  0.48079600  0.98079600  0.83223400  1
  Pr  Pr1  1  0.14856100  0.64856100  0.16776600  1
  Pr  Pr2  1  0.98079600  0.14856100  0.50000000  1
  Pr  Pr3  1  0.64856100  0.48079600  0.50000000  1
  Pr  Pr4  1  0.52262700  0.02262700  0.16315800  1
  Pr  Pr5  1  0.85946900  0.35946900  0.83684200  1
  Pr  Pr6  1  0.02262700  0.85946900  0.50000000  1
  Pr  Pr7  1  0.35946900  0.52262700  0.50000000  1
  Pr  Pr8  1  0.60590600  0.60590600  0.00000000  1
  Pr  Pr9  1  0.10590600  0.10590600  0.00000000  1
  Pr  Pr10  1  0.39426900  0.39426900  0.00000000  1
  Pr  Pr11  1  0.89426900  0.89426900  0.00000000  1
  Al  Al0  1  0.25028300  0.25028300  0.00000000  1
  Al  Al1  1  0.75028300  0.75028300  0.00000000  1
  Al  Al2  1  0.21133300  0.71133300  0.73709400  1
  Al  Al3  1  0.97424000  0.47424000  0.26290600  1
  Al  Al4  1  0.71133300  0.97424000  0.50000000  1
  Al  Al5  1  0.47424000  0.21133300  0.50000000  1
  Fe  Fe0  1  0.62072200  0.12072200  0.85846000  1
  Fe  Fe1  1  0.26226200  0.76226200  0.14154000  1
  Fe  Fe2  1  0.12072200  0.26226200  0.50000000  1
  Fe  Fe3  1  0.76226200  0.62072200  0.50000000  1
  Fe  Fe4  1  0.37980800  0.87980800  0.14843100  1
  Fe  Fe5  1  0.73137700  0.23137700  0.85156900  1
  Fe  Fe6  1  0.87980800  0.73137700  0.50000000  1
  Fe  Fe7  1  0.23137700  0.37980800  0.50000000  1
  Fe  Fe8  1  0.56748500  0.70985800  0.27919500  1
  Fe  Fe9  1  0.43066200  0.28829000  0.72080500  1
  Fe  Fe10  1  0.06748500  0.78829000  0.85762700  1
  Fe  Fe11  1  0.93066200  0.20985800  0.14237300  1
  Fe  Fe12  1  0.28829000  0.56748500  0.85762700  1
  Fe  Fe13  1  0.70985800  0.43066200  0.14237300  1
  Fe  Fe14  1  0.20985800  0.06748500  0.27919500  1
  Fe  Fe15  1  0.78829000  0.93066200  0.72080500  1
  Fe  Fe16  1  0.49879100  0.99879100  0.50000000  1
  Fe  Fe17  1  0.99879100  0.49879100  0.50000000  1
  Fe  Fe18  1  0.79405000  0.29405000  0.27483900  1
  Fe  Fe19  1  0.01921000  0.51921000  0.72516100  1
  Fe  Fe20  1  0.29405000  0.01921000  0.50000000  1
  Fe  Fe21  1  0.51921000  0.79405000  0.50000000  1
loop_
_geom_bond_atom_site_label_1
_geom_bond_atom_site_label_2
_geom_bond_distance
_geom_bond_site_symmetry_2
Al0 Pr5 3.315849 1_454
Al0 Pr4 3.315849 1_555
Al0 Pr6 3.315849 1_544
Al0 Pr7 3.315849 1_555
Al0 Pr1 3.375834 1_555
Al0 Pr2 3.375837 1_454
Al0 Pr3 3.375837 1_555
Al0 Pr0 3.375844 1_544
Al0 Pr10 3.379583 1_555
Al0 Pr9 3.388761 1_555
Al1 Pr5 3.315849 1_554
Al1 Pr6 3.315849 1_655
Al1 Pr7 3.315849 1_554
Al1 Pr4 3.315849 1_565
Al1 Pr1 3.375834 1_655
Al1 Pr2 3.375837 1_565
Al1 Pr3 3.375837 1_554
Al1 Pr0 3.375844 1_554
Al1 Pr11 3.379583 1_555
Al1 Pr8 3.388761 1_555
Al2 Fe4 2.510950 1_556
Al2 Fe6 2.579273 1_455
Al2 Fe7 2.579273 1_555
Al2 Fe17 2.590150 1_455
Al2 Fe10 2.628917 1_555
Al2 Fe12 2.628917 1_555
Al2 Al3 2.714037 1_455
Al2 Pr8 3.247901 1_556
Al2 Pr9 3.247901 1_566
Al2 Pr7 3.298143 1_555
Al2 Pr6 3.298143 1_555
Al2 Pr4 3.356499 1_566
Al3 Fe5 2.510958 1_554
Al3 Fe6 2.579281 1_555
Al3 Fe7 2.579281 1_655
Al3 Fe17 2.590170 1_555
Al3 Fe13 2.628943 1_555
Al3 Fe11 2.628943 1_555
Al3 Pr8 3.247899 1_555
Al3 Pr9 3.247899 1_655
Al3 Pr7 3.298126 1_655
Al3 Pr6 3.298126 1_655
Al3 Pr5 3.356483 1_554
Al4 Fe6 2.510960 1_555
Al4 Fe4 2.579274 1_555
Al4 Fe5 2.579274 1_565
Al4 Fe16 2.590157 1_555
Al4 Fe8 2.628928 1_555
Al4 Fe15 2.628939 1_555
Al4 Al5 2.714025 1_565
Al4 Pr8 3.247903 1_555
Al4 Pr9 3.247903 1_666
Al4 Pr4 3.298132 1_565
Al4 Pr5 3.298132 1_565
Al4 Pr6 3.356495 1_655
Al5 Fe7 2.510960 1_555
Al5 Fe4 2.579274 1_545
Al5 Fe5 2.579274 1_555
Al5 Fe16 2.590157 1_545
Al5 Fe14 2.628928 1_555
Al5 Fe9 2.628939 1_555
Al5 Pr8 3.247903 1_556
Al5 Pr9 3.247903 1_555
Al5 Pr4 3.298132 1_555
Al5 Pr5 3.298132 1_555
Al5 Pr7 3.356495 1_555
Fe0 Fe16 2.453176 1_545
Fe0 Fe13 2.462594 1_556
Fe0 Fe11 2.462594 1_556
Fe0 Fe18 2.519725 1_556
Fe0 Fe21 2.557276 1_545
Fe0 Fe20 2.557276 1_555
Fe0 Fe9 2.576273 1_555
Fe0 Fe15 2.576273 1_545
Fe0 Fe5 2.678413 1_555
Fe0 Pr0 2.980288 1_545
Fe0 Pr10 3.174047 1_556
Fe0 Pr11 3.174047 1_546
Fe1 Fe16 2.453176 1_555
Fe1 Fe12 2.462603 1_554
Fe1 Fe10 2.462603 1_554
Fe1 Fe19 2.519733 1_554
Fe1 Fe21 2.557276 1_555
Fe1 Fe20 2.557276 1_565
Fe1 Fe14 2.576274 1_565
Fe1 Fe8 2.576274 1_555
Fe1 Fe4 2.678413 1_555
Fe1 Pr1 2.980311 1_555
Fe1 Pr11 3.174047 1_455
Fe1 Pr10 3.174047 1_555
Fe2 Fe9 2.462593 1_555
Fe2 Fe20 2.519734 1_555
Fe2 Fe7 2.678413 1_555
Fe2 Pr2 2.980299 1_455
Fe2 Pr11 3.174047 1_445
Fe2 Pr10 3.174047 1_556
Fe3 Fe8 2.462603 1_555
Fe3 Fe6 2.678413 1_555
Fe3 Pr3 2.980299 1_555
Fe3 Pr10 3.174047 1_555
Fe3 Pr11 3.174047 1_556
Fe4 Fe8 2.551420 1_555
Fe4 Pr4 3.180476 1_565
Fe4 Pr8 3.210311 1_555
Fe4 Pr9 3.210311 1_565
Fe5 Fe9 2.551431 1_555
Fe5 Pr5 3.180476 1_555
Fe5 Pr8 3.210311 1_556
Fe5 Pr9 3.210311 1_656
Fe6 Fe8 2.475339 1_555
Fe6 Pr6 3.180476 1_655
Fe6 Pr8 3.210311 1_555
Fe6 Pr9 3.210311 1_666
Fe7 Fe9 2.475341 1_555
Fe7 Pr7 3.180476 1_555
Fe7 Pr8 3.210311 1_556
Fe7 Pr9 3.210311 1_555
Fe8 Pr10 3.044487 1_555
Fe8 Pr8 3.083056 1_555
Fe9 Pr10 3.044476 1_556
Fe9 Pr8 3.083064 1_556
Fe10 Fe17 2.405614 1_455
Fe10 Fe4 2.475339 1_556
Fe10 Fe12 2.527575 1_555
Fe10 Fe15 2.536758 1_455
Fe10 Fe14 2.536763 1_566
Fe10 Fe6 2.551420 1_455
Fe10 Fe3 2.576274 1_455
Fe10 Fe19 2.622997 1_555
Fe10 Pr11 3.044487 1_456
Fe10 Pr9 3.083056 1_566
Fe11 Fe17 2.405611 1_555
Fe11 Fe5 2.475342 1_554
Fe11 Fe13 2.527564 1_555
Fe11 Fe15 2.536767 1_544
Fe11 Fe14 2.536769 1_655
Fe11 Fe7 2.551428 1_655
Fe11 Fe2 2.576270 1_655
Fe11 Fe18 2.622965 1_555
Fe11 Pr11 3.044480 1_545
Fe11 Pr9 3.083069 1_655
Fe12 Fe17 2.405614 1_455
Fe12 Fe4 2.475339 1_556
Fe12 Fe9 2.536758 1_555
Fe12 Fe8 2.536763 1_556
Fe12 Fe7 2.551420 1_555
Fe12 Fe2 2.576274 1_555
Fe12 Fe19 2.622997 1_555
Fe12 Pr10 3.044487 1_556
Fe12 Pr8 3.083056 1_556
Fe13 Fe17 2.405611 1_555
Fe13 Fe5 2.475342 1_554
Fe13 Fe9 2.536767 1_554
Fe13 Fe8 2.536769 1_555
Fe13 Fe6 2.551428 1_555
Fe13 Fe3 2.576270 1_555
Fe13 Fe18 2.622965 1_555
Fe13 Pr10 3.044480 1_555
Fe13 Pr8 3.083069 1_555
Fe14 Fe16 2.405614 1_545
Fe14 Fe2 2.462603 1_555
Fe14 Fe7 2.475339 1_555
Fe14 Fe9 2.527575 1_555
Fe14 Fe4 2.551420 1_545
Fe14 Fe20 2.622989 1_555
Fe14 Pr11 3.044487 1_445
Fe14 Pr9 3.083056 1_555
Fe15 Fe16 2.405619 1_555
Fe15 Fe3 2.462593 1_555
Fe15 Fe6 2.475341 1_555
Fe15 Fe8 2.527575 1_555
Fe15 Fe5 2.551431 1_565
Fe15 Fe21 2.622981 1_555
Fe15 Pr11 3.044476 1_556
Fe15 Pr9 3.083064 1_666
Fe16 Fe8 2.405614 1_555
Fe16 Fe9 2.405619 1_565
Fe16 Fe5 2.413818 1_565
Fe16 Fe4 2.413818 1_555
Fe16 Fe21 2.517950 1_555
Fe16 Fe20 2.517950 1_565
Fe17 Fe7 2.413818 1_655
Fe17 Fe6 2.413818 1_555
Fe17 Fe3 2.453176 1_555
Fe17 Fe2 2.453176 1_655
Fe17 Fe18 2.517943 1_555
Fe17 Fe19 2.517963 1_655
Fe18 Fe2 2.557275 1_655
Fe18 Fe3 2.557275 1_555
Fe18 Fe19 2.577439 1_655
Fe18 Pr3 3.151956 1_555
Fe18 Pr2 3.151956 1_555
Fe18 Pr11 3.278479 1_545
Fe18 Pr10 3.278479 1_555
Fe18 Pr0 3.327987 1_544
Fe19 Fe2 2.557283 1_555
Fe19 Fe3 2.557283 1_455
Fe19 Pr3 3.151940 1_455
Fe19 Pr2 3.151940 1_455
Fe19 Pr10 3.278477 1_556
Fe19 Pr11 3.278477 1_456
Fe19 Pr1 3.327987 1_556
Fe20 Fe21 2.577427 1_545
Fe20 Fe9 2.622981 1_555
Fe20 Pr0 3.151934 1_545
Fe20 Pr1 3.151951 1_545
Fe20 Pr11 3.278481 1_445
Fe20 Pr10 3.278481 1_556
Fe20 Pr2 3.327987 1_455
Fe21 Fe3 2.519734 1_555
Fe21 Fe8 2.622989 1_555
Fe21 Pr0 3.151934 1_555
Fe21 Pr1 3.151951 1_555
Fe21 Pr10 3.278481 1_555
Fe21 Pr11 3.278481 1_556
Fe21 Pr3 3.327987 1_555
