# generated using pymatgen
data_Sr2TbNbO6
_symmetry_space_group_name_H-M   'P 1'
_cell_length_a   8.38976955
_cell_length_b   8.38976955
_cell_length_c   8.38976955
_cell_angle_alpha   90.00000000
_cell_angle_beta   90.00000000
_cell_angle_gamma   90.00000000
_symmetry_Int_Tables_number   1
_chemical_formula_structural   Sr2TbNbO6
_chemical_formula_sum   'Sr8 Tb4 Nb4 O24'
_cell_volume   590.54105476
_cell_formula_units_Z   4
loop_
 _symmetry_equiv_pos_site_id
 _symmetry_equiv_pos_as_xyz
  1  'x, y, z'
loop_
 _atom_site_type_symbol
 _atom_site_label
 _atom_site_symmetry_multiplicity
 _atom_site_fract_x
 _atom_site_fract_y
 _atom_site_fract_z
 _atom_site_occupancy
  Sr  Sr0  1  0.50000000  0.50000000  0.50000000  1
  Sr  Sr1  1  0.00000000  0.00000000  0.00000000  1
  Sr  Sr2  1  0.00000000  0.00000000  0.50000000  1
  Sr  Sr3  1  0.00000000  0.50000000  0.00000000  1
  Sr  Sr4  1  0.50000000  0.00000000  0.00000000  1
  Sr  Sr5  1  0.50000000  0.50000000  0.00000000  1
  Sr  Sr6  1  0.50000000  0.00000000  0.50000000  1
  Sr  Sr7  1  0.00000000  0.50000000  0.50000000  1
  Tb  Tb0  1  0.25000000  0.25000000  0.25000000  1
  Tb  Tb1  1  0.25000000  0.75000000  0.75000000  1
  Tb  Tb2  1  0.75000000  0.25000000  0.75000000  1
  Tb  Tb3  1  0.75000000  0.75000000  0.25000000  1
  Nb  Nb0  1  0.75000000  0.75000000  0.75000000  1
  Nb  Nb1  1  0.75000000  0.25000000  0.25000000  1
  Nb  Nb2  1  0.25000000  0.75000000  0.25000000  1
  Nb  Nb3  1  0.25000000  0.25000000  0.75000000  1
  O  O0  1  0.21742594  0.28972194  0.51430018  1
  O  O1  1  0.21742594  0.71027806  0.48569982  1
  O  O2  1  0.78257406  0.28972194  0.48569982  1
  O  O3  1  0.78257406  0.71027806  0.51430018  1
  O  O4  1  0.28972194  0.51430018  0.21742594  1
  O  O5  1  0.71027806  0.48569982  0.21742594  1
  O  O6  1  0.28972194  0.48569982  0.78257406  1
  O  O7  1  0.71027806  0.51430018  0.78257406  1
  O  O8  1  0.51430018  0.21742594  0.28972194  1
  O  O9  1  0.48569982  0.21742594  0.71027806  1
  O  O10  1  0.48569982  0.78257406  0.28972194  1
  O  O11  1  0.51430018  0.78257406  0.71027806  1
  O  O12  1  0.28257406  0.21027806  0.98569982  1
  O  O13  1  0.28257406  0.78972194  0.01430018  1
  O  O14  1  0.71742594  0.21027806  0.01430018  1
  O  O15  1  0.71742594  0.78972194  0.98569982  1
  O  O16  1  0.21027806  0.98569982  0.28257406  1
  O  O17  1  0.78972194  0.01430018  0.28257406  1
  O  O18  1  0.21027806  0.01430018  0.71742594  1
  O  O19  1  0.78972194  0.98569982  0.71742594  1
  O  O20  1  0.98569982  0.28257406  0.21027806  1
  O  O21  1  0.01430018  0.28257406  0.78972194  1
  O  O22  1  0.01430018  0.71742594  0.21027806  1
  O  O23  1  0.98569982  0.71742594  0.78972194  1
loop_
_geom_bond_atom_site_label_1
_geom_bond_atom_site_label_2
_geom_bond_distance
_geom_bond_site_symmetry_2
Nb0 O3 2.023888 1_555
Nb0 O23 2.023888 1_555
Nb0 O11 2.023888 1_555
Nb0 O15 2.023888 1_555
Nb0 O7 2.023888 1_555
Nb0 O19 2.023888 1_555
Nb1 O2 2.023888 1_555
Nb1 O20 2.023888 1_555
Nb1 O17 2.023888 1_555
Nb1 O14 2.023888 1_555
Nb1 O8 2.023888 1_555
Nb1 O5 2.023888 1_555
Nb2 O13 2.023888 1_555
Nb2 O10 2.023888 1_555
Nb2 O22 2.023888 1_555
Nb2 O4 2.023888 1_555
Nb2 O1 2.023888 1_555
Nb2 O16 2.023888 1_555
Nb3 O0 2.023888 1_555
Nb3 O18 2.023888 1_555
Nb3 O6 2.023888 1_555
Nb3 O12 2.023888 1_555
Nb3 O9 2.023888 1_555
Nb3 O21 2.023888 1_555
O0 Tb0 2.258913 1_555
O0 Sr7 2.540527 1_555
O0 Sr0 2.957551 1_555
O0 Sr2 3.041420 1_555
O1 Tb1 2.258913 1_555
O1 Sr7 2.540527 1_555
O1 Sr0 2.957551 1_555
O1 Sr2 3.041420 1_565
O2 Tb2 2.258913 1_555
O2 Sr7 2.540527 1_655
O2 Sr0 2.957551 1_555
O2 Sr2 3.041420 1_655
O3 Tb3 2.258913 1_555
O3 Sr7 2.540527 1_655
O3 Sr0 2.957551 1_555
O3 Sr2 3.041420 1_665
O4 Tb0 2.258913 1_555
O4 Sr5 2.540527 1_555
O4 Sr0 2.957551 1_555
O4 Sr3 3.041420 1_555
O5 Tb3 2.258913 1_555
O5 Sr5 2.540527 1_555
O5 Sr0 2.957551 1_555
O5 Sr3 3.041420 1_655
O6 Tb1 2.258913 1_555
O6 Sr5 2.540527 1_556
O6 Sr0 2.957551 1_555
O6 Sr3 3.041420 1_556
O7 Tb2 2.258913 1_555
O7 Sr5 2.540527 1_556
O7 Sr0 2.957551 1_555
O7 Sr3 3.041420 1_656
O8 Tb0 2.258913 1_555
O8 Sr6 2.540527 1_555
O8 Sr0 2.957551 1_555
O8 Sr4 3.041420 1_555
O9 Tb2 2.258913 1_555
O9 Sr6 2.540527 1_555
O9 Sr0 2.957551 1_555
O9 Sr4 3.041420 1_556
O10 Tb3 2.258913 1_555
O10 Sr6 2.540527 1_565
O10 Sr0 2.957551 1_555
O10 Sr4 3.041420 1_565
O11 Tb1 2.258913 1_555
O11 Sr6 2.540527 1_565
O11 Sr0 2.957551 1_555
O11 Sr4 3.041420 1_566
O12 Tb0 2.258913 1_556
O12 Sr4 2.540527 1_556
O12 Sr1 2.957551 1_556
O12 Sr5 3.041420 1_556
O13 Tb1 2.258913 1_554
O13 Sr4 2.540527 1_565
O13 Sr1 2.957551 1_565
O13 Sr5 3.041420 1_555
O14 Tb2 2.258913 1_554
O14 Sr4 2.540527 1_555
O14 Sr1 2.957551 1_655
O14 Sr5 3.041420 1_555
O15 Tb3 2.258913 1_556
O15 Sr4 2.540527 1_566
O15 Sr1 2.957551 1_666
O15 Sr5 3.041420 1_556
O16 Tb0 2.258913 1_565
O16 Sr2 2.540527 1_565
O16 Sr1 2.957551 1_565
O16 Sr6 3.041420 1_565
O17 Tb3 2.258913 1_545
O17 Sr2 2.540527 1_655
O17 Sr1 2.957551 1_655
O17 Sr6 3.041420 1_555
O18 Tb1 2.258913 1_545
O18 Sr2 2.540527 1_555
O18 Sr1 2.957551 1_556
O18 Sr6 3.041420 1_555
O19 Tb2 2.258913 1_565
O19 Sr2 2.540527 1_665
O19 Sr1 2.957551 1_666
O19 Sr6 3.041420 1_565
O20 Tb0 2.258913 1_655
O20 Sr3 2.540527 1_655
O20 Sr1 2.957551 1_655
O20 Sr7 3.041420 1_655
O21 Tb2 2.258913 1_455
O21 Sr3 2.540527 1_556
O21 Sr1 2.957551 1_556
O21 Sr7 3.041420 1_555
O22 Tb3 2.258913 1_455
O22 Sr3 2.540527 1_555
O22 Sr1 2.957551 1_565
O22 Sr7 3.041420 1_555
O23 Tb1 2.258913 1_655
O23 Sr3 2.540527 1_656
O23 Sr1 2.957551 1_666
O23 Sr7 3.041420 1_655
