# generated using pymatgen
data_PrSi2Ni9
_symmetry_space_group_name_H-M   'P 1'
_cell_length_a   7.54960526
_cell_length_b   7.54960526
_cell_length_c   7.54862808
_cell_angle_alpha   99.57299480
_cell_angle_beta   99.57299480
_cell_angle_gamma   131.85825871
_symmetry_Int_Tables_number   1
_chemical_formula_structural   PrSi2Ni9
_chemical_formula_sum   'Pr2 Si4 Ni18'
_cell_volume   292.59848362
_cell_formula_units_Z   2
loop_
 _symmetry_equiv_pos_site_id
 _symmetry_equiv_pos_as_xyz
  1  'x, y, z'
loop_
 _atom_site_type_symbol
 _atom_site_label
 _atom_site_symmetry_multiplicity
 _atom_site_fract_x
 _atom_site_fract_y
 _atom_site_fract_z
 _atom_site_occupancy
  Pr  Pr0  1  0.49999583  0.50000417  -0.00000000  1
  Pr  Pr1  1  0.75000417  0.24999583  0.50000000  1
  Si  Si0  1  0.62500000  0.87500000  0.75000000  1
  Si  Si1  1  0.12500000  0.37500000  0.25000000  1
  Si  Si2  1  0.12500000  0.87500000  0.75000000  1
  Si  Si3  1  0.12500000  0.87500000  0.25000000  1
  Ni  Ni0  1  0.24998402  0.75001598  0.50000000  1
  Ni  Ni1  1  0.00001598  0.99998402  -0.00000000  1
  Ni  Ni2  1  0.68883185  0.01761544  0.07837337  1
  Ni  Ni3  1  0.68891091  0.61056375  0.67126514  1
  Ni  Ni4  1  0.26761544  0.43883185  0.57837337  1
  Ni  Ni5  1  0.26763220  0.68925011  0.82875680  1
  Ni  Ni6  1  0.93925011  0.01763220  0.32875680  1
  Ni  Ni7  1  0.93925927  0.61048547  0.92163813  1
  Ni  Ni8  1  0.86056375  0.43891091  0.17126514  1
  Ni  Ni9  1  0.86048547  0.68925927  0.42163813  1
  Ni  Ni10  1  0.56116815  0.73238456  0.42162663  1
  Ni  Ni11  1  0.56108909  0.13943625  0.82873486  1
  Ni  Ni12  1  0.98238456  0.31116815  0.92162663  1
  Ni  Ni13  1  0.98236780  0.06074989  0.67124320  1
  Ni  Ni14  1  0.31074989  0.73236780  0.17124320  1
  Ni  Ni15  1  0.31074073  0.13951453  0.57836187  1
  Ni  Ni16  1  0.38943625  0.31108909  0.32873486  1
  Ni  Ni17  1  0.38951453  0.06074073  0.07836187  1
loop_
_geom_bond_atom_site_label_1
_geom_bond_atom_site_label_2
_geom_bond_distance
_geom_bond_site_symmetry_2
Ni0 Si2 2.555442 1_555
Ni0 Si3 2.555442 1_555
Ni0 Si0 2.555941 1_555
Ni0 Si1 2.555941 1_555
Ni0 Ni5 2.595598 1_555
Ni0 Ni14 2.595598 1_555
Ni0 Ni11 2.595599 1_565
Ni0 Ni8 2.595599 1_455
Ni0 Ni9 2.595827 1_455
Ni0 Ni15 2.595827 1_565
Ni0 Ni4 2.596239 1_555
Ni0 Ni10 2.596239 1_555
Ni0 Pr1 3.079230 1_455
Ni0 Pr1 3.079230 1_565
Ni1 Si2 2.555442 1_554
Ni1 Si3 2.555442 1_555
Ni1 Si1 2.555941 1_565
Ni1 Si0 2.555941 1_454
Ni1 Ni13 2.595598 1_464
Ni1 Ni6 2.595598 1_465
Ni1 Ni16 2.595599 1_565
Ni1 Ni3 2.595599 1_454
Ni1 Ni17 2.595827 1_565
Ni1 Ni7 2.595827 1_454
Ni1 Ni12 2.596239 1_464
Ni1 Ni2 2.596239 1_465
Ni1 Pr0 3.079230 1_565
Ni1 Pr0 3.079230 1_455
Ni2 Si1 2.315733 1_655
Ni2 Si0 2.357610 1_544
Ni2 Ni5 2.395960 1_544
Ni2 Ni8 2.396111 1_555
Ni2 Ni6 2.440823 1_555
Ni2 Pr0 3.027961 1_545
Ni2 Pr1 3.161229 1_555
Ni3 Si2 2.315331 1_655
Ni3 Si0 2.357520 1_555
Ni3 Ni9 2.395562 1_555
Ni3 Ni4 2.396111 1_555
Ni3 Ni7 2.440894 1_555
Ni3 Pr0 3.027539 1_556
Ni3 Pr1 3.161898 1_555
Ni4 Si0 2.315733 1_555
Ni4 Si1 2.357610 1_555
Ni4 Ni6 2.395960 1_455
Ni4 Ni5 2.440823 1_555
Ni4 Pr1 3.027961 1_455
Ni4 Pr0 3.161229 1_556
Ni5 Si0 2.315283 1_555
Ni5 Si2 2.357794 1_555
Ni5 Ni7 2.395922 1_455
Ni5 Pr1 3.028073 1_455
Ni5 Pr0 3.161425 1_556
Ni6 Si1 2.315283 1_655
Ni6 Si3 2.357794 1_645
Ni6 Ni9 2.395922 1_545
Ni6 Pr0 3.028073 1_545
Ni6 Pr1 3.161425 1_555
Ni7 Si2 2.315294 1_655
Ni7 Si3 2.357643 1_656
Ni7 Ni8 2.395562 1_556
Ni7 Pr0 3.027913 1_556
Ni7 Pr1 3.161523 1_555
Ni8 Si3 2.315331 1_655
Ni8 Si1 2.357520 1_655
Ni8 Ni9 2.440894 1_555
Ni8 Pr1 3.027539 1_555
Ni8 Pr0 3.161898 1_555
Ni9 Si3 2.315294 1_655
Ni9 Si2 2.357643 1_655
Ni9 Pr1 3.027913 1_555
Ni9 Pr0 3.161523 1_555
Ni10 Si1 2.315733 1_555
Ni10 Si0 2.357610 1_555
Ni10 Ni13 2.395960 1_565
Ni10 Ni16 2.396111 1_555
Ni10 Ni14 2.440823 1_555
Ni10 Ni9 2.488813 1_555
Ni10 Ni6 2.498125 1_565
Ni10 Ni4 2.532321 1_555
Ni10 Ni3 2.546115 1_555
Ni10 Pr1 3.027961 1_565
Ni10 Pr0 3.161229 1_555
Ni11 Si2 2.315331 1_545
Ni11 Si0 2.357520 1_545
Ni11 Ni17 2.395562 1_556
Ni11 Ni12 2.396111 1_555
Ni11 Ni15 2.440894 1_555
Ni11 Ni8 2.489612 1_556
Ni11 Ni7 2.498831 1_555
Ni11 Ni5 2.531970 1_545
Ni11 Ni2 2.546115 1_556
Ni11 Pr1 3.027539 1_555
Ni11 Pr0 3.161898 1_556
Ni12 Si0 2.315733 1_545
Ni12 Si1 2.357610 1_656
Ni12 Ni14 2.395960 1_656
Ni12 Ni13 2.440823 1_555
Ni12 Ni7 2.488813 1_555
Ni12 Ni5 2.498125 1_655
Ni12 Ni2 2.532321 1_556
Ni12 Ni8 2.546115 1_556
Ni12 Pr0 3.027961 1_656
Ni12 Pr1 3.161229 1_555
Ni13 Si0 2.315283 1_545
Ni13 Si2 2.357794 1_645
Ni13 Ni15 2.395922 1_655
Ni13 Ni6 2.488870 1_555
Ni13 Ni4 2.498125 1_655
Ni13 Ni3 2.531970 1_545
Ni13 Ni9 2.546411 1_545
Ni13 Pr0 3.028073 1_656
Ni13 Pr1 3.161425 1_555
Ni14 Si1 2.315283 1_555
Ni14 Si3 2.357794 1_555
Ni14 Ni17 2.395922 1_565
Ni14 Ni5 2.488870 1_554
Ni14 Ni2 2.498125 1_565
Ni14 Ni8 2.531970 1_455
Ni14 Ni7 2.546411 1_454
Ni14 Pr1 3.028073 1_565
Ni14 Pr0 3.161425 1_555
Ni15 Si2 2.315294 1_545
Ni15 Si3 2.357643 1_545
Ni15 Ni16 2.395562 1_555
Ni15 Ni4 2.488813 1_555
Ni15 Ni3 2.498831 1_555
Ni15 Ni9 2.532451 1_445
Ni15 Ni6 2.546411 1_455
Ni15 Pr1 3.027913 1_555
Ni15 Pr0 3.161523 1_556
Ni16 Si3 2.315331 1_545
Ni16 Si1 2.357520 1_555
Ni16 Ni17 2.440894 1_555
Ni16 Ni3 2.489612 1_555
Ni16 Ni9 2.498831 1_555
Ni16 Ni6 2.531970 1_455
Ni16 Ni4 2.546115 1_555
Ni16 Pr0 3.027539 1_555
Ni16 Pr1 3.161898 1_555
Ni17 Si3 2.315294 1_545
Ni17 Si2 2.357643 1_544
Ni17 Ni2 2.488813 1_555
Ni17 Ni8 2.498831 1_555
Ni17 Ni7 2.532451 1_444
Ni17 Ni5 2.546411 1_544
Ni17 Pr0 3.027913 1_555
Ni17 Pr1 3.161523 1_555
