# generated using pymatgen
data_Rb3ErF6
_symmetry_space_group_name_H-M   'P 1'
_cell_length_a   6.94467607
_cell_length_b   6.94467607
_cell_length_c   6.94467607
_cell_angle_alpha   93.12790088
_cell_angle_beta   118.21083860
_cell_angle_gamma   118.21083860
_symmetry_Int_Tables_number   1
_chemical_formula_structural   Rb3ErF6
_chemical_formula_sum   'Rb3 Er1 F6'
_cell_volume   242.84556873
_cell_formula_units_Z   1
loop_
 _symmetry_equiv_pos_site_id
 _symmetry_equiv_pos_as_xyz
  1  'x, y, z'
loop_
 _atom_site_type_symbol
 _atom_site_label
 _atom_site_symmetry_multiplicity
 _atom_site_fract_x
 _atom_site_fract_y
 _atom_site_fract_z
 _atom_site_occupancy
  Rb  Rb0  1  0.50000000  0.75000000  0.25000000  1
  Rb  Rb1  1  0.50000000  0.25000000  0.75000000  1
  Rb  Rb2  1  0.00000000  0.50000000  0.50000000  1
  Er  Er0  1  0.00000000  0.00000000  0.00000000  1
  F  F0  1  0.69888600  0.00000000  0.69888600  1
  F  F1  1  0.30111400  0.00000000  0.30111400  1
  F  F2  1  0.69888600  0.69888600  0.00000000  1
  F  F3  1  0.30111400  0.30111400  0.00000000  1
  F  F4  1  0.00000000  0.22842800  0.22842800  1
  F  F5  1  0.00000000  0.77157200  0.77157200  1
loop_
_geom_bond_atom_site_label_1
_geom_bond_atom_site_label_2
_geom_bond_distance
_geom_bond_site_symmetry_2
Er0 F1 2.147433 1_555
Er0 F2 2.147433 1_445
Er0 F3 2.147433 1_555
Er0 F0 2.147433 1_454
Er0 F5 2.181384 1_544
Er0 F4 2.181384 1_555
F0 Rb1 2.776945 1_555
F0 Rb0 2.776945 1_545
F1 Rb1 2.776945 1_555
F1 Rb0 2.776945 1_545
F2 Rb1 2.776945 1_554
F2 Rb0 2.776945 1_555
F3 Rb1 2.776945 1_554
F3 Rb0 2.776945 1_555
F4 Rb2 2.593390 1_555
F5 Rb2 2.593390 1_555
