# generated using pymatgen
data_Ca2TaAgO6
_symmetry_space_group_name_H-M   'P 1'
_cell_length_a   7.62563000
_cell_length_b   5.85587400
_cell_length_c   6.07368854
_cell_angle_alpha   79.13275557
_cell_angle_beta   90.00000000
_cell_angle_gamma   90.00000000
_symmetry_Int_Tables_number   1
_chemical_formula_structural   Ca2TaAgO6
_chemical_formula_sum   'Ca4 Ta2 Ag2 O12'
_cell_volume   266.35505066
_cell_formula_units_Z   2
loop_
 _symmetry_equiv_pos_site_id
 _symmetry_equiv_pos_as_xyz
  1  'x, y, z'
loop_
 _atom_site_type_symbol
 _atom_site_label
 _atom_site_symmetry_multiplicity
 _atom_site_fract_x
 _atom_site_fract_y
 _atom_site_fract_z
 _atom_site_occupancy
  Ca  Ca0  1  0.75000000  0.96647700  0.06976900  1
  Ca  Ca1  1  0.75000000  0.47563800  0.56051000  1
  Ca  Ca2  1  0.25000000  0.52436200  0.43949000  1
  Ca  Ca3  1  0.25000000  0.03352300  0.93023100  1
  Ta  Ta0  1  0.00000000  0.00000000  0.50000000  1
  Ta  Ta1  1  0.50000000  0.00000000  0.50000000  1
  Ag  Ag0  1  0.00000000  0.50000000  0.00000000  1
  Ag  Ag1  1  0.50000000  0.50000000  0.00000000  1
  O  O0  1  0.45043500  0.17363600  0.18372900  1
  O  O1  1  0.55179300  0.73225500  0.35788100  1
  O  O2  1  0.54956500  0.82636400  0.81627100  1
  O  O3  1  0.05179300  0.26774500  0.64211900  1
  O  O4  1  0.25000000  0.89443700  0.54094000  1
  O  O5  1  0.44820700  0.26774500  0.64211900  1
  O  O6  1  0.94820700  0.73225500  0.35788100  1
  O  O7  1  0.04956500  0.17363600  0.18372900  1
  O  O8  1  0.75000000  0.37939300  0.94773700  1
  O  O9  1  0.95043500  0.82636400  0.81627100  1
  O  O10  1  0.25000000  0.62060700  0.05226300  1
  O  O11  1  0.75000000  0.10556300  0.45906000  1
loop_
_geom_bond_atom_site_label_1
_geom_bond_atom_site_label_2
_geom_bond_distance
_geom_bond_site_symmetry_2
Ca0 O8 2.391700 1_564
Ca0 O9 2.419969 1_554
Ca0 O2 2.419969 1_554
Ca0 O6 2.514529 1_555
Ca0 O1 2.514529 1_555
Ca0 O11 2.641977 1_565
Ca0 O0 2.735991 1_565
Ca0 O7 2.735991 1_665
Ca1 O8 2.312844 1_555
Ca1 O6 2.315153 1_555
Ca1 O1 2.315153 1_555
Ca1 O11 2.362109 1_555
Ca1 O3 2.607004 1_655
Ca1 O5 2.607004 1_555
Ca2 O10 2.312844 1_555
Ca2 O5 2.315153 1_555
Ca2 O3 2.315153 1_555
Ca2 O4 2.362109 1_555
Ca2 O1 2.607004 1_555
Ca2 O6 2.607004 1_455
Ca3 O10 2.391700 1_546
Ca3 O0 2.419969 1_556
Ca3 O7 2.419969 1_556
Ca3 O5 2.514529 1_555
Ca3 O3 2.514529 1_555
Ca3 O4 2.641977 1_545
Ca3 O2 2.735991 1_545
Ca3 O9 2.735991 1_445
Ag0 O9 2.058261 1_454
Ag0 O7 2.058261 1_555
Ag0 O10 2.078097 1_555
Ag0 O8 2.078097 1_454
Ag0 O3 2.800938 1_554
Ag0 O6 2.800938 1_455
Ag1 O2 2.058261 1_554
Ag1 O0 2.058261 1_555
Ag1 O10 2.078097 1_555
Ag1 O8 2.078097 1_554
Ag1 O1 2.800938 1_555
Ag1 O5 2.800938 1_554
O0 Ta1 2.032293 1_555
O1 Ta1 1.967141 1_565
O2 Ta1 2.032293 1_565
O3 Ta0 1.967141 1_555
O4 Ta0 2.005090 1_565
O4 Ta1 2.005090 1_565
O5 Ta1 1.967141 1_555
O6 Ta0 1.967141 1_665
O7 Ta0 2.032293 1_555
O9 Ta0 2.032293 1_665
O11 Ta0 2.005090 1_655
O11 Ta1 2.005090 1_555
