# generated using pymatgen
data_NbFe
_symmetry_space_group_name_H-M   'P 1'
_cell_length_a   18.13953925
_cell_length_b   18.13953925
_cell_length_c   18.13953921
_cell_angle_alpha   15.60852847
_cell_angle_beta   15.60852847
_cell_angle_gamma   15.60853172
_symmetry_Int_Tables_number   1
_chemical_formula_structural   NbFe
_chemical_formula_sum   'Nb13 Fe13'
_cell_volume   376.52629258
_cell_formula_units_Z   13
loop_
 _symmetry_equiv_pos_site_id
 _symmetry_equiv_pos_as_xyz
  1  'x, y, z'
loop_
 _atom_site_type_symbol
 _atom_site_label
 _atom_site_symmetry_multiplicity
 _atom_site_fract_x
 _atom_site_fract_y
 _atom_site_fract_z
 _atom_site_occupancy
  Nb  Nb0  1  0.82556500  0.82556500  0.82556500  1
  Nb  Nb1  1  0.32614900  0.32614900  0.32614900  1
  Nb  Nb2  1  0.67385100  0.67385100  0.67385100  1
  Nb  Nb3  1  0.17443500  0.17443500  0.17443500  1
  Nb  Nb4  1  0.77354500  0.77354500  0.77354500  1
  Nb  Nb5  1  0.27549400  0.27549400  0.27549400  1
  Nb  Nb6  1  0.72450600  0.72450600  0.72450600  1
  Nb  Nb7  1  0.22645500  0.22645500  0.22645500  1
  Nb  Nb8  1  0.41554600  0.41554600  0.41554600  1
  Nb  Nb9  1  0.91769400  0.91769400  0.91769400  1
  Nb  Nb10  1  0.08230600  0.08230600  0.08230600  1
  Nb  Nb11  1  0.58445400  0.58445400  0.58445400  1
  Nb  Nb12  1  0.50000000  0.50000000  0.50000000  1
  Fe  Fe0  1  0.20356800  0.20356800  0.70341900  1
  Fe  Fe1  1  0.70999800  0.70999800  0.19847900  1
  Fe  Fe2  1  0.70341900  0.20356800  0.20356800  1
  Fe  Fe3  1  0.19847900  0.70999800  0.70999800  1
  Fe  Fe4  1  0.20356800  0.70341900  0.20356800  1
  Fe  Fe5  1  0.70999800  0.19847900  0.70999800  1
  Fe  Fe6  1  0.29000200  0.29000200  0.80152100  1
  Fe  Fe7  1  0.79643200  0.79643200  0.29658100  1
  Fe  Fe8  1  0.80152100  0.29000200  0.29000200  1
  Fe  Fe9  1  0.29658100  0.79643200  0.79643200  1
  Fe  Fe10  1  0.29000200  0.80152100  0.29000200  1
  Fe  Fe11  1  0.79643200  0.29658100  0.79643200  1
  Fe  Fe12  1  0.00000000  0.00000000  0.00000000  1
loop_
_geom_bond_atom_site_label_1
_geom_bond_atom_site_label_2
_geom_bond_distance
_geom_bond_site_symmetry_2
Nb0 Nb4 2.795842 1_555
Nb0 Nb12 2.874688 1_556
Nb0 Nb12 2.874688 1_565
Nb0 Nb12 2.874688 1_655
Nb0 Nb3 2.964250 1_665
Nb0 Nb3 2.964251 1_656
Nb0 Nb3 2.964251 1_566
Nb1 Nb5 2.722479 1_555
Nb1 Nb2 2.947182 1_554
Nb1 Nb2 2.947183 1_545
Nb1 Nb2 2.947183 1_455
Nb2 Nb6 2.722479 1_555
Nb3 Nb7 2.795842 1_555
Nb4 Nb6 2.635626 1_555
Nb4 Nb8 3.137979 1_556
Nb4 Nb8 3.137979 1_565
Nb4 Nb8 3.137979 1_655
Nb5 Nb7 2.635626 1_555
Nb5 Nb9 3.133475 1_445
Nb5 Nb9 3.133476 1_454
Nb5 Nb9 3.133476 1_544
Nb6 Nb8 3.131374 1_556
Nb6 Nb8 3.131374 1_655
Nb6 Nb8 3.131374 1_565
Nb7 Nb9 3.135863 1_445
Nb7 Nb9 3.135863 1_544
Nb7 Nb9 3.135863 1_454
Nb10 Nb8 2.844211 1_554
Nb10 Nb8 2.844212 1_545
Nb10 Nb8 2.844212 1_455
Nb10 Nb6 3.133475 1_445
Nb10 Nb6 3.133476 1_454
Nb10 Nb6 3.133476 1_544
Nb10 Nb4 3.135863 1_445
Nb10 Nb4 3.135863 1_544
Nb10 Nb4 3.135863 1_454
Nb11 Nb9 2.844211 1_554
Nb11 Nb9 2.844212 1_455
Nb11 Nb9 2.844212 1_545
Nb11 Nb5 3.131374 1_556
Nb11 Nb5 3.131374 1_565
Nb11 Nb5 3.131374 1_655
Nb11 Nb7 3.137979 1_556
Nb11 Nb7 3.137979 1_655
Nb11 Nb7 3.137979 1_565
Nb12 Nb3 2.874688 1_556
Nb12 Nb3 2.874688 1_565
Nb12 Nb3 2.874688 1_655
Fe0 Fe12 2.438525 1_556
Fe0 Fe2 2.462421 1_555
Fe0 Fe4 2.462421 1_555
Fe0 Fe2 2.463890 1_456
Fe0 Fe4 2.463890 1_546
Fe0 Nb6 2.709152 1_545
Fe0 Nb6 2.709152 1_455
Fe0 Nb1 2.760909 1_555
Fe0 Nb8 2.822193 1_555
Fe0 Nb10 2.826954 1_556
Fe0 Nb2 2.934199 1_455
Fe0 Nb2 2.934199 1_545
Fe1 Fe5 2.406409 1_564
Fe1 Fe3 2.406409 1_654
Fe1 Fe3 2.519902 1_555
Fe1 Fe5 2.519902 1_555
Fe1 Nb12 2.573255 1_555
Fe1 Nb7 2.694100 1_655
Fe1 Nb7 2.694100 1_565
Fe1 Nb9 2.783098 1_554
Fe1 Nb11 2.820677 1_555
Fe1 Nb0 2.895157 1_554
Fe1 Nb3 2.995862 1_655
Fe1 Nb3 2.995862 1_565
Fe2 Fe4 2.462422 1_555
Fe2 Fe4 2.463890 1_645
Fe2 Nb6 2.709152 1_554
Fe2 Nb6 2.709152 1_545
Fe2 Nb1 2.760909 1_555
Fe2 Nb8 2.822193 1_555
Fe2 Nb10 2.826954 1_655
Fe2 Nb2 2.934199 1_545
Fe2 Nb2 2.934199 1_554
Fe3 Fe5 2.406410 1_465
Fe3 Fe5 2.519902 1_555
Fe3 Nb12 2.573255 1_555
Fe3 Nb7 2.694100 1_565
Fe3 Nb7 2.694100 1_556
Fe3 Nb9 2.783099 1_455
Fe3 Nb11 2.820678 1_555
Fe3 Nb0 2.895157 1_455
Fe3 Nb3 2.995862 1_556
Fe3 Nb3 2.995862 1_565
Fe4 Nb6 2.709152 1_554
Fe4 Nb6 2.709152 1_455
Fe4 Nb1 2.760909 1_555
Fe4 Nb8 2.822193 1_555
Fe4 Nb10 2.826954 1_565
Fe4 Nb2 2.934199 1_455
Fe4 Nb2 2.934199 1_554
Fe5 Nb12 2.573255 1_555
Fe5 Nb7 2.694100 1_655
Fe5 Nb7 2.694100 1_556
Fe5 Nb9 2.783099 1_545
Fe5 Nb11 2.820678 1_555
Fe5 Nb0 2.895157 1_545
Fe5 Nb3 2.995862 1_556
Fe5 Nb3 2.995862 1_655
Fe6 Fe8 2.406409 1_456
Fe6 Fe8 2.519902 1_555
Fe6 Nb12 2.573255 1_555
Fe6 Nb4 2.694100 1_455
Fe6 Nb4 2.694100 1_545
Fe6 Nb10 2.783098 1_556
Fe6 Nb8 2.820677 1_555
Fe6 Nb3 2.895157 1_556
Fe6 Nb0 2.995862 1_455
Fe6 Nb0 2.995862 1_545
Fe7 Fe9 2.462421 1_555
Fe7 Fe9 2.463890 1_654
Fe7 Nb5 2.709152 1_655
Fe7 Nb5 2.709152 1_565
Fe7 Nb2 2.760909 1_555
Fe7 Nb11 2.822193 1_555
Fe7 Nb9 2.826954 1_554
Fe7 Nb1 2.934199 1_655
Fe7 Nb1 2.934199 1_565
Fe8 Nb12 2.573255 1_555
Fe8 Nb4 2.694100 1_545
Fe8 Nb4 2.694100 1_554
Fe8 Nb10 2.783099 1_655
Fe8 Nb8 2.820678 1_555
Fe8 Nb3 2.895157 1_655
Fe8 Nb0 2.995862 1_554
Fe8 Nb0 2.995862 1_545
Fe9 Nb5 2.709152 1_556
Fe9 Nb5 2.709152 1_565
Fe9 Nb2 2.760909 1_555
Fe9 Nb11 2.822193 1_555
Fe9 Nb9 2.826954 1_455
Fe9 Nb1 2.934199 1_565
Fe9 Nb1 2.934199 1_556
Fe10 Fe6 2.406409 1_564
Fe10 Fe8 2.406410 1_465
Fe10 Fe6 2.519902 1_555
Fe10 Fe8 2.519902 1_555
Fe10 Nb12 2.573255 1_555
Fe10 Nb4 2.694100 1_455
Fe10 Nb4 2.694100 1_554
Fe10 Nb10 2.783099 1_565
Fe10 Nb8 2.820678 1_555
Fe10 Nb3 2.895157 1_565
Fe10 Nb0 2.995862 1_554
Fe10 Nb0 2.995862 1_455
Fe11 Fe12 2.438526 1_656
Fe11 Fe7 2.462421 1_555
Fe11 Fe9 2.462422 1_555
Fe11 Fe7 2.463890 1_546
Fe11 Fe9 2.463890 1_645
Fe11 Nb5 2.709152 1_556
Fe11 Nb5 2.709152 1_655
Fe11 Nb2 2.760909 1_555
Fe11 Nb11 2.822193 1_555
Fe11 Nb9 2.826954 1_545
Fe11 Nb1 2.934199 1_655
Fe11 Nb1 2.934199 1_556
Fe12 Fe7 2.438525 1_445
Fe12 Fe9 2.438526 1_544
Fe12 Fe2 2.438526 1_455
Fe12 Fe4 2.438526 1_545
Fe12 Nb1 2.870297 1_554
Fe12 Nb2 2.870297 1_445
Fe12 Nb1 2.870298 1_455
Fe12 Nb2 2.870298 1_454
Fe12 Nb1 2.870298 1_545
Fe12 Nb2 2.870298 1_544
