# generated using pymatgen
data_Sr5Ir3O11
_symmetry_space_group_name_H-M   'P 1'
_cell_length_a   3.97436932
_cell_length_b   3.97436932
_cell_length_c   16.77032340
_cell_angle_alpha   89.79633409
_cell_angle_beta   89.79633409
_cell_angle_gamma   90.92973261
_symmetry_Int_Tables_number   1
_chemical_formula_structural   Sr5Ir3O11
_chemical_formula_sum   'Sr5 Ir3 O11'
_cell_volume   264.85923663
_cell_formula_units_Z   1
loop_
 _symmetry_equiv_pos_site_id
 _symmetry_equiv_pos_as_xyz
  1  'x, y, z'
loop_
 _atom_site_type_symbol
 _atom_site_label
 _atom_site_symmetry_multiplicity
 _atom_site_fract_x
 _atom_site_fract_y
 _atom_site_fract_z
 _atom_site_occupancy
  Sr  Sr0  1  0.01921100  0.01504700  0.73002800  1
  Sr  Sr1  1  0.98495300  0.98078900  0.26997200  1
  Sr  Sr2  1  0.51704100  0.48963500  0.88930300  1
  Sr  Sr3  1  0.51036500  0.48295900  0.11069700  1
  Sr  Sr4  1  0.99983500  0.00016500  0.50000000  1
  Ir  Ir0  1  0.00808500  0.99191500  0.00000000  1
  Ir  Ir1  1  0.50503300  0.50462300  0.62286600  1
  Ir  Ir2  1  0.49537700  0.49496700  0.37713400  1
  O  O0  1  0.50009100  0.49990900  0.50000000  1
  O  O1  1  0.00770100  0.99610700  0.87586300  1
  O  O2  1  0.00389300  0.99229900  0.12413700  1
  O  O3  1  0.50471500  0.50306900  0.74402700  1
  O  O4  1  0.49693100  0.49528500  0.25597300  1
  O  O5  1  0.03190400  0.49007300  0.00003600  1
  O  O6  1  0.50992700  0.96809600  0.99996400  1
  O  O7  1  0.01006400  0.55750100  0.62058800  1
  O  O8  1  0.55750500  0.00983000  0.62068300  1
  O  O9  1  0.99017000  0.44249500  0.37931700  1
  O  O10  1  0.44249900  0.98993600  0.37941200  1
loop_
_geom_bond_atom_site_label_1
_geom_bond_atom_site_label_2
_geom_bond_distance
_geom_bond_site_symmetry_2
Ir0 O6 1.980593 1_454
Ir0 O5 1.980593 1_565
Ir0 O6 1.998283 1_554
Ir0 O5 1.998283 1_555
Ir0 O2 2.081831 1_555
Ir0 O1 2.081831 1_554
Ir1 O8 1.981333 1_555
Ir1 O7 1.982260 1_555
Ir1 O7 2.014970 1_655
Ir1 O8 2.015501 1_565
Ir1 O3 2.031892 1_555
Ir1 O0 2.060815 1_555
Ir2 O9 1.981333 1_555
Ir2 O10 1.982260 1_555
Ir2 O10 2.014970 1_545
Ir2 O9 2.015501 1_455
Ir2 O4 2.031892 1_555
Ir2 O0 2.060815 1_555
O0 Sr4 2.787410 1_565
O0 Sr4 2.787410 1_455
O0 Sr4 2.831561 1_555
O0 Sr4 2.834463 1_465
O1 Sr0 2.446833 1_565
O1 Sr2 2.787761 1_455
O1 Sr2 2.797326 1_465
O1 Sr2 2.805972 1_565
O1 Sr2 2.886635 1_555
O2 Sr1 2.446833 1_455
O2 Sr3 2.787761 1_565
O2 Sr3 2.797326 1_465
O2 Sr3 2.805972 1_455
O2 Sr3 2.886635 1_555
O3 Sr2 2.437405 1_555
O3 Sr0 2.724947 1_555
O3 Sr0 2.836543 1_565
O3 Sr0 2.850756 1_655
O3 Sr0 2.869642 1_665
O4 Sr3 2.437405 1_555
O4 Sr1 2.724947 1_555
O4 Sr1 2.836543 1_455
O4 Sr1 2.850756 1_545
O4 Sr1 2.869642 1_445
O5 Sr3 2.662206 1_555
O5 Sr2 2.672238 1_554
O5 Sr2 2.768148 1_454
O5 Sr3 2.776995 1_455
O6 Sr2 2.662206 1_555
O6 Sr3 2.672238 1_556
O6 Sr3 2.768148 1_566
O6 Sr2 2.776995 1_565
O7 Sr0 2.588175 1_565
O7 Sr4 2.676590 1_465
O7 Sr0 2.827129 1_555
O7 Sr4 3.004554 1_455
O8 Sr0 2.598696 1_655
O8 Sr4 2.676858 1_555
O8 Sr0 2.813154 1_555
O8 Sr4 3.006604 1_455
O9 Sr1 2.598696 1_545
O9 Sr4 2.676858 1_555
O9 Sr1 2.813154 1_555
O9 Sr4 3.006604 1_565
O10 Sr1 2.588175 1_455
O10 Sr4 2.676590 1_465
O10 Sr1 2.827129 1_555
O10 Sr4 3.004554 1_565
