# generated using pymatgen
data_La2CoRuO6
_symmetry_space_group_name_H-M   'P 1'
_cell_length_a   5.47602815
_cell_length_b   5.64775559
_cell_length_c   7.73773735
_cell_angle_alpha   89.99901758
_cell_angle_beta   90.44338855
_cell_angle_gamma   89.99934296
_symmetry_Int_Tables_number   1
_chemical_formula_structural   La2CoRuO6
_chemical_formula_sum   'La4 Co2 Ru2 O12'
_cell_volume   239.29991571
_cell_formula_units_Z   2
loop_
 _symmetry_equiv_pos_site_id
 _symmetry_equiv_pos_as_xyz
  1  'x, y, z'
loop_
 _atom_site_type_symbol
 _atom_site_label
 _atom_site_symmetry_multiplicity
 _atom_site_fract_x
 _atom_site_fract_y
 _atom_site_fract_z
 _atom_site_occupancy
  La  La0  1  0.01135650  0.45500408  0.24991169  1
  La  La1  1  0.98862266  0.54494610  0.75000342  1
  La  La2  1  0.48865296  0.95495092  0.25009455  1
  La  La3  1  0.51133083  0.04499241  0.74994184  1
  Co  Co0  1  0.50000070  0.50000122  -0.00000052  1
  Co  Co1  1  0.00000610  0.00001349  0.49999663  1
  Ru  Ru0  1  0.00000038  0.00000201  0.00000730  1
  Ru  Ru1  1  0.50000027  0.50000481  0.49999693  1
  O  O0  1  0.29588852  0.21225118  0.04060880  1
  O  O1  1  0.70411923  0.78777152  0.95939865  1
  O  O2  1  0.20411174  0.71227061  0.45935992  1
  O  O3  1  0.79589265  0.28772634  0.54064487  1
  O  O4  1  0.21246591  0.70060982  0.04282968  1
  O  O5  1  0.78754495  0.29939982  0.95717474  1
  O  O6  1  0.28752364  0.20061366  0.45713577  1
  O  O7  1  0.71247651  0.79940700  0.54286870  1
  O  O8  1  0.91984308  0.02073462  0.25325914  1
  O  O9  1  0.08015798  0.97929613  0.74675856  1
  O  O10  1  0.58016071  0.52070755  0.24672925  1
  O  O11  1  0.41984567  0.47929772  0.75328007  1
loop_
_geom_bond_atom_site_label_1
_geom_bond_atom_site_label_2
_geom_bond_distance
_geom_bond_site_symmetry_2
La0 O10 2.390155 1_455
La0 O4 2.394099 1_555
La0 O2 2.413599 1_555
La0 O8 2.503500 1_455
La0 O6 2.623859 1_555
La0 O0 2.639947 1_555
La0 O5 2.713358 1_454
La0 O3 2.717808 1_455
La1 O11 2.390256 1_655
La1 O5 2.394288 1_555
La1 O3 2.412917 1_555
La1 O9 2.503960 1_655
La1 O7 2.623592 1_555
La1 O1 2.640508 1_555
La1 O4 2.714118 1_656
La1 O2 2.717384 1_655
La2 O8 2.390203 1_565
La2 O6 2.394141 1_565
La2 O0 2.413881 1_565
La2 O10 2.503340 1_555
La2 O4 2.624009 1_555
La2 O2 2.639574 1_555
La2 O7 2.713482 1_555
La2 O1 2.717399 1_554
La3 O9 2.390033 1_545
La3 O7 2.394095 1_545
La3 O1 2.413519 1_545
La3 O11 2.503656 1_555
La3 O5 2.624149 1_555
La3 O3 2.639950 1_555
La3 O6 2.713788 1_555
La3 O0 2.717311 1_556
Co0 O11 1.959042 1_554
Co0 O10 1.959127 1_555
Co0 O4 1.969961 1_555
Co0 O5 1.969972 1_554
Co0 O0 1.998647 1_555
Co0 O1 1.998749 1_554
Co1 O8 1.959189 1_455
Co1 O9 1.959358 1_545
Co1 O6 1.969914 1_555
Co1 O7 1.970002 1_445
Co1 O3 1.998517 1_455
Co1 O2 1.998616 1_545
O0 Ru0 2.037935 1_555
O1 Ru0 2.037851 1_666
O2 Ru1 2.038005 1_555
O3 Ru1 2.038076 1_555
O4 Ru0 2.077628 1_565
O5 Ru0 2.077635 1_656
O6 Ru1 2.077735 1_555
O7 Ru1 2.077797 1_555
O8 Ru0 2.014874 1_655
O9 Ru0 2.014843 1_566
O10 Ru1 2.014985 1_555
O11 Ru1 2.015095 1_555
