# generated using pymatgen
data_Mg30CdSiO32
_symmetry_space_group_name_H-M   'P 1'
_cell_length_a   8.59466600
_cell_length_b   8.59466600
_cell_length_c   8.59751700
_cell_angle_alpha   90.00000000
_cell_angle_beta   90.00000000
_cell_angle_gamma   90.00000000
_symmetry_Int_Tables_number   1
_chemical_formula_structural   Mg30CdSiO32
_chemical_formula_sum   'Mg30 Cd1 Si1 O32'
_cell_volume   635.08382446
_cell_formula_units_Z   1
loop_
 _symmetry_equiv_pos_site_id
 _symmetry_equiv_pos_as_xyz
  1  'x, y, z'
loop_
 _atom_site_type_symbol
 _atom_site_label
 _atom_site_symmetry_multiplicity
 _atom_site_fract_x
 _atom_site_fract_y
 _atom_site_fract_z
 _atom_site_occupancy
  Mg  Mg0  1  0.00000000  0.50000000  0.00000000  1
  Mg  Mg1  1  0.50000000  0.00000000  0.00000000  1
  Mg  Mg2  1  0.00000000  0.00000000  0.50000000  1
  Mg  Mg3  1  0.00000000  0.50000000  0.50000000  1
  Mg  Mg4  1  0.50000000  0.00000000  0.50000000  1
  Mg  Mg5  1  0.50000000  0.50000000  0.50000000  1
  Mg  Mg6  1  0.24915900  0.24915900  0.00000000  1
  Mg  Mg7  1  0.24915900  0.75084100  0.00000000  1
  Mg  Mg8  1  0.75084100  0.24915900  0.00000000  1
  Mg  Mg9  1  0.75084100  0.75084100  0.00000000  1
  Mg  Mg10  1  0.24998900  0.24998900  0.50000000  1
  Mg  Mg11  1  0.24998900  0.75001100  0.50000000  1
  Mg  Mg12  1  0.75001100  0.24998900  0.50000000  1
  Mg  Mg13  1  0.75001100  0.75001100  0.50000000  1
  Mg  Mg14  1  0.00000000  0.25122300  0.25122400  1
  Mg  Mg15  1  0.00000000  0.74877700  0.25122400  1
  Mg  Mg16  1  0.50000000  0.24792200  0.25206700  1
  Mg  Mg17  1  0.50000000  0.75207800  0.25206700  1
  Mg  Mg18  1  0.00000000  0.25122300  0.74877600  1
  Mg  Mg19  1  0.00000000  0.74877700  0.74877600  1
  Mg  Mg20  1  0.50000000  0.24792200  0.74793300  1
  Mg  Mg21  1  0.50000000  0.75207800  0.74793300  1
  Mg  Mg22  1  0.25122300  0.00000000  0.25122400  1
  Mg  Mg23  1  0.24792200  0.50000000  0.25206700  1
  Mg  Mg24  1  0.74877700  0.00000000  0.25122400  1
  Mg  Mg25  1  0.75207800  0.50000000  0.25206700  1
  Mg  Mg26  1  0.25122300  0.00000000  0.74877600  1
  Mg  Mg27  1  0.24792200  0.50000000  0.74793300  1
  Mg  Mg28  1  0.74877700  0.00000000  0.74877600  1
  Mg  Mg29  1  0.75207800  0.50000000  0.74793300  1
  Cd  Cd0  1  0.50000000  0.50000000  0.00000000  1
  Si  Si0  1  0.00000000  0.00000000  0.00000000  1
  O  O0  1  0.00000000  0.00000000  0.25974900  1
  O  O1  1  0.00000000  0.50000000  0.25301900  1
  O  O2  1  0.50000000  0.00000000  0.25301900  1
  O  O3  1  0.50000000  0.50000000  0.26424700  1
  O  O4  1  0.00000000  0.00000000  0.74025100  1
  O  O5  1  0.00000000  0.50000000  0.74698100  1
  O  O6  1  0.50000000  0.00000000  0.74698100  1
  O  O7  1  0.50000000  0.50000000  0.73575300  1
  O  O8  1  0.24998000  0.24998000  0.24919800  1
  O  O9  1  0.24998000  0.75002000  0.24919800  1
  O  O10  1  0.75002000  0.24998000  0.24919800  1
  O  O11  1  0.75002000  0.75002000  0.24919800  1
  O  O12  1  0.24998000  0.24998000  0.75080200  1
  O  O13  1  0.24998000  0.75002000  0.75080200  1
  O  O14  1  0.75002000  0.24998000  0.75080200  1
  O  O15  1  0.75002000  0.75002000  0.75080200  1
  O  O16  1  0.00000000  0.25764100  0.00000000  1
  O  O17  1  0.00000000  0.74235900  0.00000000  1
  O  O18  1  0.50000000  0.23707400  0.00000000  1
  O  O19  1  0.50000000  0.76292600  0.00000000  1
  O  O20  1  0.00000000  0.25090700  0.50000000  1
  O  O21  1  0.00000000  0.74909300  0.50000000  1
  O  O22  1  0.50000000  0.24826700  0.50000000  1
  O  O23  1  0.50000000  0.75173300  0.50000000  1
  O  O24  1  0.25764100  0.00000000  0.00000000  1
  O  O25  1  0.23707400  0.50000000  0.00000000  1
  O  O26  1  0.74235900  0.00000000  0.00000000  1
  O  O27  1  0.76292600  0.50000000  0.00000000  1
  O  O28  1  0.25090700  0.00000000  0.50000000  1
  O  O29  1  0.24826700  0.50000000  0.50000000  1
  O  O30  1  0.74909300  0.00000000  0.50000000  1
  O  O31  1  0.75173300  0.50000000  0.50000000  1
loop_
_geom_bond_atom_site_label_1
_geom_bond_atom_site_label_2
_geom_bond_distance
_geom_bond_site_symmetry_2
Mg0 O27 2.037572 1_455
Mg0 O25 2.037572 1_555
Mg0 O17 2.082995 1_555
Mg0 O16 2.082995 1_555
Mg0 O5 2.175335 1_554
Mg0 O1 2.175335 1_555
Mg1 O18 2.037572 1_555
Mg1 O19 2.037572 1_545
Mg1 O24 2.082995 1_555
Mg1 O26 2.082995 1_555
Mg1 O2 2.175335 1_555
Mg1 O6 2.175335 1_554
Mg2 O0 2.065562 1_555
Mg2 O4 2.065562 1_555
Mg2 O28 2.156462 1_555
Mg2 O30 2.156462 1_455
Mg2 O21 2.156462 1_545
Mg2 O20 2.156462 1_555
Mg3 O5 2.123423 1_555
Mg3 O1 2.123423 1_555
Mg3 O29 2.133772 1_555
Mg3 O31 2.133772 1_455
Mg3 O20 2.140871 1_555
Mg3 O21 2.140871 1_555
Mg4 O2 2.123423 1_555
Mg4 O6 2.123423 1_555
Mg4 O23 2.133772 1_545
Mg4 O22 2.133772 1_555
Mg4 O28 2.140871 1_555
Mg4 O30 2.140871 1_555
Mg5 O7 2.026890 1_555
Mg5 O3 2.026890 1_555
Mg5 O29 2.163561 1_555
Mg5 O31 2.163561 1_555
Mg5 O22 2.163561 1_555
Mg5 O23 2.163561 1_555
Mg6 O8 2.142507 1_555
Mg6 O12 2.142507 1_554
Mg6 O24 2.142679 1_555
Mg6 O16 2.142679 1_555
Mg6 O25 2.158395 1_555
Mg6 O18 2.158395 1_555
Mg7 O13 2.142507 1_554
Mg7 O9 2.142507 1_555
Mg7 O17 2.142679 1_555
Mg7 O24 2.142679 1_565
Mg7 O19 2.158395 1_555
Mg7 O25 2.158395 1_555
Mg8 O10 2.142507 1_555
Mg8 O14 2.142507 1_554
Mg8 O26 2.142679 1_555
Mg8 O16 2.142679 1_655
Mg8 O27 2.158395 1_555
Mg8 O18 2.158395 1_555
Mg9 O15 2.142507 1_554
Mg9 O11 2.142507 1_555
Mg9 O17 2.142679 1_655
Mg9 O26 2.142679 1_565
Mg9 O19 2.158395 1_555
Mg9 O27 2.158395 1_555
Mg10 O28 2.148586 1_555
Mg10 O20 2.148586 1_555
Mg10 O22 2.148812 1_555
Mg10 O29 2.148812 1_555
Mg10 O12 2.156274 1_555
Mg10 O8 2.156274 1_555
Mg11 O28 2.148586 1_565
Mg11 O21 2.148586 1_555
Mg11 O29 2.148812 1_555
Mg11 O23 2.148812 1_555
Mg11 O13 2.156274 1_555
Mg11 O9 2.156274 1_555
Mg12 O30 2.148586 1_555
Mg12 O20 2.148586 1_655
Mg12 O22 2.148812 1_555
Mg12 O31 2.148812 1_555
Mg12 O14 2.156274 1_555
Mg12 O10 2.156274 1_555
Mg13 O30 2.148586 1_565
Mg13 O21 2.148586 1_655
Mg13 O31 2.148812 1_555
Mg13 O23 2.148812 1_555
Mg13 O11 2.156274 1_555
Mg13 O15 2.156274 1_555
Mg14 O1 2.138211 1_555
Mg14 O20 2.138858 1_555
Mg14 O8 2.148592 1_555
Mg14 O10 2.148592 1_455
Mg14 O0 2.160421 1_555
Mg14 O16 2.160607 1_555
Mg15 O1 2.138211 1_555
Mg15 O21 2.138858 1_555
Mg15 O9 2.148592 1_555
Mg15 O11 2.148592 1_455
Mg15 O0 2.160421 1_565
Mg15 O17 2.160607 1_555
Mg16 O2 2.130823 1_555
Mg16 O22 2.131610 1_555
Mg16 O10 2.149053 1_555
Mg16 O8 2.149053 1_555
Mg16 O3 2.169055 1_555
Mg16 O18 2.169155 1_555
Mg17 O2 2.130823 1_565
Mg17 O23 2.131610 1_555
Mg17 O9 2.149053 1_555
Mg17 O11 2.149053 1_555
Mg17 O3 2.169055 1_555
Mg17 O19 2.169155 1_555
Mg18 O5 2.138211 1_555
Mg18 O20 2.138858 1_555
Mg18 O14 2.148592 1_455
Mg18 O12 2.148592 1_555
Mg18 O4 2.160421 1_555
Mg18 O16 2.160607 1_556
Mg19 O5 2.138211 1_555
Mg19 O21 2.138858 1_555
Mg19 O15 2.148592 1_455
Mg19 O13 2.148592 1_555
Mg19 O4 2.160421 1_565
Mg19 O17 2.160607 1_556
Mg20 O6 2.130823 1_555
Mg20 O22 2.131610 1_555
Mg20 O14 2.149053 1_555
Mg20 O12 2.149053 1_555
Mg20 O7 2.169055 1_555
Mg20 O18 2.169155 1_556
Mg21 O6 2.130823 1_565
Mg21 O23 2.131610 1_555
Mg21 O15 2.149053 1_555
Mg21 O13 2.149053 1_555
Mg21 O7 2.169055 1_555
Mg21 O19 2.169155 1_556
Mg22 O2 2.138211 1_555
Mg22 O28 2.138858 1_555
Mg22 O8 2.148592 1_555
Mg22 O9 2.148592 1_545
Mg22 O0 2.160421 1_555
Mg22 O24 2.160607 1_555
Mg23 O1 2.130823 1_555
Mg23 O29 2.131610 1_555
Mg23 O9 2.149053 1_555
Mg23 O8 2.149053 1_555
Mg23 O3 2.169055 1_555
Mg23 O25 2.169155 1_555
Mg24 O2 2.138211 1_555
Mg24 O30 2.138858 1_555
Mg24 O11 2.148592 1_545
Mg24 O10 2.148592 1_555
Mg24 O0 2.160421 1_655
Mg24 O26 2.160607 1_555
Mg25 O1 2.130823 1_655
Mg25 O31 2.131610 1_555
Mg25 O10 2.149053 1_555
Mg25 O11 2.149053 1_555
Mg25 O3 2.169055 1_555
Mg25 O27 2.169155 1_555
Mg26 O6 2.138211 1_555
Mg26 O28 2.138858 1_555
Mg26 O13 2.148592 1_545
Mg26 O12 2.148592 1_555
Mg26 O4 2.160421 1_555
Mg26 O24 2.160607 1_556
Mg27 O5 2.130823 1_555
Mg27 O29 2.131610 1_555
Mg27 O13 2.149053 1_555
Mg27 O12 2.149053 1_555
Mg27 O7 2.169055 1_555
Mg27 O25 2.169155 1_556
Mg28 O6 2.138211 1_555
Mg28 O30 2.138858 1_555
Mg28 O15 2.148592 1_545
Mg28 O14 2.148592 1_555
Mg28 O4 2.160421 1_655
Mg28 O26 2.160607 1_556
Mg29 O5 2.130823 1_655
Mg29 O31 2.131610 1_555
Mg29 O14 2.149053 1_555
Mg29 O15 2.149053 1_555
Mg29 O7 2.169055 1_555
Mg29 O27 2.169155 1_556
Cd0 O27 2.259761 1_555
Cd0 O25 2.259761 1_555
Cd0 O18 2.259761 1_555
Cd0 O19 2.259761 1_555
Cd0 O7 2.271868 1_554
Cd0 O3 2.271868 1_555
O0 Si0 2.233196 1_555
O4 Si0 2.233196 1_556
O16 Si0 2.214338 1_555
O17 Si0 2.214338 1_565
O24 Si0 2.214338 1_555
O26 Si0 2.214338 1_655
