# generated using pymatgen
data_Li2Fe3WO8
_symmetry_space_group_name_H-M   'P 1'
_cell_length_a   8.61351143
_cell_length_b   8.56044998
_cell_length_c   8.59619342
_cell_angle_alpha   90.33009497
_cell_angle_beta   89.86914102
_cell_angle_gamma   90.28098015
_symmetry_Int_Tables_number   1
_chemical_formula_structural   Li2Fe3WO8
_chemical_formula_sum   'Li8 Fe12 W4 O32'
_cell_volume   633.82515656
_cell_formula_units_Z   4
loop_
 _symmetry_equiv_pos_site_id
 _symmetry_equiv_pos_as_xyz
  1  'x, y, z'
loop_
 _atom_site_type_symbol
 _atom_site_label
 _atom_site_symmetry_multiplicity
 _atom_site_fract_x
 _atom_site_fract_y
 _atom_site_fract_z
 _atom_site_occupancy
  Li  Li0  1  0.99859300  0.99876300  0.99646100  1
  Li  Li1  1  0.24837600  0.25596300  0.25229600  1
  Li  Li2  1  0.24864900  0.74526700  0.75622100  1
  Li  Li3  1  0.50329600  0.00389700  0.49845800  1
  Li  Li4  1  0.49834400  0.50355100  0.00373400  1
  Li  Li5  1  0.75211600  0.24583800  0.74977800  1
  Li  Li6  1  0.74739900  0.75117400  0.24825300  1
  Li  Li7  1  0.00358200  0.49573800  0.49827400  1
  Fe  Fe0  1  0.12003300  0.13599900  0.62605900  1
  Fe  Fe1  1  0.12674600  0.38089400  0.87329900  1
  Fe  Fe2  1  0.12526200  0.62360700  0.12190500  1
  Fe  Fe3  1  0.36815100  0.37350600  0.61363900  1
  Fe  Fe4  1  0.37576300  0.61373700  0.36672400  1
  Fe  Fe5  1  0.38063900  0.86342000  0.12074300  1
  Fe  Fe6  1  0.62449200  0.37250500  0.37674100  1
  Fe  Fe7  1  0.62458800  0.11835600  0.13266600  1
  Fe  Fe8  1  0.62909600  0.87528300  0.87968000  1
  Fe  Fe9  1  0.85930700  0.13000800  0.38146200  1
  Fe  Fe10  1  0.87373600  0.88258600  0.63297600  1
  Fe  Fe11  1  0.88548800  0.63164000  0.87744500  1
  W  W0  1  0.12383400  0.87538700  0.37231400  1
  W  W1  1  0.37480500  0.13033600  0.87940500  1
  W  W2  1  0.62864700  0.62069600  0.62397900  1
  W  W3  1  0.87433600  0.37588400  0.12397400  1
  O  O0  1  0.12234600  0.10193000  0.38366500  1
  O  O1  1  0.11512300  0.87865000  0.60155100  1
  O  O2  1  0.12313900  0.61339000  0.90117200  1
  O  O3  1  0.14623200  0.12619800  0.86177900  1
  O  O4  1  0.10732300  0.39122300  0.11986600  1
  O  O5  1  0.14016700  0.36494400  0.63302000  1
  O  O6  1  0.13398100  0.64484200  0.36366600  1
  O  O7  1  0.13201200  0.86277400  0.14423700  1
  O  O8  1  0.36222500  0.13243500  0.64429400  1
  O  O9  1  0.38311100  0.35230600  0.86634800  1
  O  O10  1  0.35560800  0.63529700  0.13685800  1
  O  O11  1  0.39472000  0.61645300  0.61282500  1
  O  O12  1  0.35324600  0.86798500  0.36514900  1
  O  O13  1  0.38480500  0.38581800  0.38774800  1
  O  O14  1  0.36698100  0.11414900  0.10195400  1
  O  O15  1  0.38354100  0.89438300  0.88243400  1
  O  O16  1  0.61749400  0.39606200  0.62448900  1
  O  O17  1  0.61089900  0.62421700  0.39503200  1
  O  O18  1  0.60824400  0.88059400  0.10930700  1
  O  O19  1  0.64887600  0.37233200  0.13221400  1
  O  O20  1  0.60085600  0.11215200  0.87045800  1
  O  O21  1  0.63992600  0.13429800  0.37146200  1
  O  O22  1  0.63390800  0.85491900  0.63192000  1
  O  O23  1  0.62132900  0.63717900  0.84975600  1
  O  O24  1  0.87142300  0.36578600  0.35728800  1
  O  O25  1  0.88400000  0.14863300  0.13902700  1
  O  O26  1  0.85861100  0.87100600  0.86011000  1
  O  O27  1  0.89639400  0.88261100  0.38093600  1
  O  O28  1  0.85245400  0.63633100  0.61811300  1
  O  O29  1  0.89019200  0.11311200  0.61322400  1
  O  O30  1  0.87210500  0.37934500  0.90082100  1
  O  O31  1  0.89344900  0.60475200  0.13292800  1
loop_
_geom_bond_atom_site_label_1
_geom_bond_atom_site_label_2
_geom_bond_distance
_geom_bond_site_symmetry_2
Li0 O26 2.000614 1_555
Li0 O25 2.027542 1_566
Li0 O3 2.035159 1_665
Li0 O7 2.079997 1_656
Li1 O13 1.987691 1_555
Li1 O4 2.036683 1_555
Li1 O14 2.043459 1_555
Li1 O0 2.046925 1_555
Li2 O2 1.998470 1_555
Li2 O15 2.032688 1_555
Li2 O11 2.075885 1_555
Li2 O1 2.105152 1_555
Li3 O21 1.954015 1_555
Li3 O22 2.060381 1_545
Li3 O8 2.061340 1_555
Li3 O12 2.077007 1_545
Li4 O9 2.007828 1_554
Li4 O10 2.021230 1_555
Li4 O23 2.044962 1_554
Li4 O19 2.048875 1_555
Li5 O30 2.009385 1_555
Li5 O29 2.018623 1_555
Li5 O20 2.018968 1_555
Li5 O16 2.048070 1_555
Li6 O18 2.031138 1_555
Li6 O31 2.032712 1_555
Li6 O17 2.037648 1_555
Li6 O27 2.047354 1_555
Li7 O24 1.995129 1_455
Li7 O5 2.003367 1_555
Li7 O28 2.049201 1_455
Li7 O6 2.055892 1_555
Fe0 O5 1.967262 1_555
Fe0 O29 1.991699 1_455
Fe0 O3 2.041585 1_555
Fe0 O8 2.092746 1_555
Fe0 O0 2.102375 1_555
Fe0 O1 2.212072 1_545
Fe1 O2 2.003654 1_555
Fe1 O5 2.072209 1_555
Fe1 O4 2.127114 1_556
Fe1 O3 2.189239 1_555
Fe1 O30 2.205522 1_455
Fe1 O9 2.223545 1_555
Fe2 O2 1.899100 1_554
Fe2 O10 1.990530 1_555
Fe2 O4 1.994527 1_555
Fe2 O31 2.004517 1_455
Fe2 O7 2.055807 1_555
Fe2 O6 2.086607 1_555
Fe3 O13 1.950185 1_555
Fe3 O5 1.971459 1_555
Fe3 O8 2.082301 1_555
Fe3 O11 2.091223 1_555
Fe3 O16 2.157619 1_555
Fe3 O9 2.185093 1_555
Fe4 O13 1.962421 1_555
Fe4 O10 1.993678 1_555
Fe4 O17 2.041938 1_555
Fe4 O6 2.101083 1_555
Fe4 O11 2.122181 1_555
Fe4 O12 2.186171 1_555
Fe5 O18 1.967540 1_555
Fe5 O10 1.969287 1_555
Fe5 O15 2.067219 1_554
Fe5 O12 2.113792 1_555
Fe5 O7 2.150577 1_555
Fe5 O14 2.157155 1_565
Fe6 O21 2.044375 1_555
Fe6 O13 2.070165 1_555
Fe6 O19 2.111984 1_555
Fe6 O24 2.134156 1_555
Fe6 O16 2.138799 1_555
Fe6 O17 2.163317 1_555
Fe7 O18 2.048267 1_545
Fe7 O21 2.060980 1_555
Fe7 O19 2.183194 1_555
Fe7 O14 2.235240 1_555
Fe7 O25 2.248920 1_555
Fe7 O20 2.264001 1_554
Fe8 O18 1.981945 1_556
Fe8 O26 1.984191 1_555
Fe8 O20 2.045439 1_565
Fe8 O23 2.053757 1_555
Fe8 O15 2.122268 1_555
Fe8 O22 2.136238 1_555
Fe9 O21 1.892337 1_555
Fe9 O29 2.016669 1_555
Fe9 O24 2.032374 1_555
Fe9 O25 2.101252 1_555
Fe9 O27 2.143313 1_545
Fe9 O0 2.279708 1_655
Fe10 O26 1.959579 1_555
Fe10 O29 1.986016 1_565
Fe10 O22 2.078174 1_555
Fe10 O1 2.096462 1_655
Fe10 O28 2.118261 1_555
Fe10 O27 2.174914 1_555
Fe11 O2 2.064381 1_655
Fe11 O26 2.069507 1_555
Fe11 O30 2.172712 1_555
Fe11 O31 2.210783 1_556
Fe11 O28 2.248611 1_555
Fe11 O23 2.289044 1_555
O0 W0 1.941305 1_545
O1 W0 1.971865 1_555
O3 W1 1.975112 1_555
O4 W3 2.010728 1_455
O6 W0 1.976894 1_555
O7 W0 1.964066 1_555
O8 W1 2.024397 1_555
O9 W1 1.905105 1_555
O11 W2 2.017571 1_555
O12 W0 1.978176 1_555
O14 W1 1.919888 1_554
O15 W1 2.021953 1_565
O16 W2 1.924925 1_555
O17 W2 1.974764 1_555
O19 W3 1.943227 1_555
O20 W1 1.955369 1_555
O22 W2 2.006116 1_555
O23 W2 1.946034 1_555
O24 W3 2.008066 1_555
O25 W3 1.952608 1_555
O27 W0 1.961554 1_655
O28 W2 1.932313 1_555
O30 W3 1.918807 1_556
O31 W3 1.966393 1_555
