# generated using pymatgen
data_Ba2SrWO6
_symmetry_space_group_name_H-M   'P 1'
_cell_length_a   8.72492185
_cell_length_b   8.72492185
_cell_length_c   8.72492185
_cell_angle_alpha   90.00000000
_cell_angle_beta   90.00000000
_cell_angle_gamma   90.00000000
_symmetry_Int_Tables_number   1
_chemical_formula_structural   Ba2SrWO6
_chemical_formula_sum   'Ba8 Sr4 W4 O24'
_cell_volume   664.17823063
_cell_formula_units_Z   4
loop_
 _symmetry_equiv_pos_site_id
 _symmetry_equiv_pos_as_xyz
  1  'x, y, z'
loop_
 _atom_site_type_symbol
 _atom_site_label
 _atom_site_symmetry_multiplicity
 _atom_site_fract_x
 _atom_site_fract_y
 _atom_site_fract_z
 _atom_site_occupancy
  Ba  Ba0  1  0.50000000  0.50000000  0.50000000  1
  Ba  Ba1  1  -0.00000000  -0.00000000  -0.00000000  1
  Ba  Ba2  1  -0.00000000  -0.00000000  0.50000000  1
  Ba  Ba3  1  0.00000000  0.50000000  -0.00000000  1
  Ba  Ba4  1  0.50000000  -0.00000000  -0.00000000  1
  Ba  Ba5  1  0.50000000  0.50000000  -0.00000000  1
  Ba  Ba6  1  0.50000000  -0.00000000  0.50000000  1
  Ba  Ba7  1  -0.00000000  0.50000000  0.50000000  1
  Sr  Sr0  1  0.75000000  0.75000000  0.75000000  1
  Sr  Sr1  1  0.75000000  0.25000000  0.25000000  1
  Sr  Sr2  1  0.25000000  0.75000000  0.25000000  1
  Sr  Sr3  1  0.25000000  0.25000000  0.75000000  1
  W  W0  1  0.25000000  0.25000000  0.25000000  1
  W  W1  1  0.25000000  0.75000000  0.75000000  1
  W  W2  1  0.75000000  0.25000000  0.75000000  1
  W  W3  1  0.75000000  0.75000000  0.25000000  1
  O  O0  1  0.22518413  0.27804318  0.47201374  1
  O  O1  1  0.22518413  0.72195682  0.52798626  1
  O  O2  1  0.77481587  0.27804318  0.52798626  1
  O  O3  1  0.77481587  0.72195682  0.47201374  1
  O  O4  1  0.27804318  0.47201374  0.22518413  1
  O  O5  1  0.72195682  0.52798626  0.22518413  1
  O  O6  1  0.27804318  0.52798626  0.77481587  1
  O  O7  1  0.72195682  0.47201374  0.77481587  1
  O  O8  1  0.47201374  0.22518413  0.27804318  1
  O  O9  1  0.52798626  0.22518413  0.72195682  1
  O  O10  1  0.52798626  0.77481587  0.27804318  1
  O  O11  1  0.47201374  0.77481587  0.72195682  1
  O  O12  1  0.27481587  0.22195682  0.02798626  1
  O  O13  1  0.27481587  0.77804318  0.97201374  1
  O  O14  1  0.72518413  0.22195682  0.97201374  1
  O  O15  1  0.72518413  0.77804318  0.02798626  1
  O  O16  1  0.22195682  0.02798626  0.27481587  1
  O  O17  1  0.77804318  0.97201374  0.27481587  1
  O  O18  1  0.22195682  0.97201374  0.72518413  1
  O  O19  1  0.77804318  0.02798626  0.72518413  1
  O  O20  1  0.02798626  0.27481587  0.22195682  1
  O  O21  1  0.97201374  0.27481587  0.77804318  1
  O  O22  1  0.97201374  0.72518413  0.22195682  1
  O  O23  1  0.02798626  0.72518413  0.77804318  1
loop_
_geom_bond_atom_site_label_1
_geom_bond_atom_site_label_2
_geom_bond_distance
_geom_bond_site_symmetry_2
Ba0 O11 3.091773 1_555
Ba0 O4 3.091773 1_555
Ba0 O1 3.091773 1_555
Ba0 O5 3.091773 1_555
Ba0 O6 3.091773 1_555
Ba0 O8 3.091773 1_555
Ba0 O7 3.091773 1_555
Ba0 O0 3.091773 1_555
Ba0 O9 3.091773 1_555
Ba0 O10 3.091773 1_555
Ba0 O2 3.091773 1_555
Ba0 O3 3.091773 1_555
Ba1 O15 3.091773 1_445
Ba1 O18 3.091773 1_544
Ba1 O19 3.091773 1_454
Ba1 O23 3.091773 1_544
Ba1 O13 3.091773 1_544
Ba1 O17 3.091773 1_445
Ba1 O14 3.091773 1_454
Ba1 O21 3.091773 1_454
Ba1 O12 3.091773 1_555
Ba1 O16 3.091773 1_555
Ba1 O20 3.091773 1_555
Ba1 O22 3.091773 1_445
Ba2 O17 2.769472 1_445
Ba2 O16 2.769472 1_555
Ba2 O19 2.769472 1_455
Ba2 O18 2.769472 1_545
Ba2 O1 3.131252 1_545
Ba2 O3 3.131252 1_445
Ba2 O0 3.131252 1_555
Ba2 O2 3.131252 1_455
Ba3 O20 2.769472 1_555
Ba3 O21 2.769472 1_454
Ba3 O22 2.769472 1_455
Ba3 O23 2.769472 1_554
Ba3 O5 3.131252 1_455
Ba3 O7 3.131252 1_454
Ba3 O4 3.131252 1_555
Ba3 O6 3.131252 1_554
Ba4 O12 2.769472 1_555
Ba4 O13 2.769472 1_544
Ba4 O15 2.769472 1_545
Ba4 O14 2.769472 1_554
Ba4 O9 3.131252 1_554
Ba4 O11 3.131252 1_544
Ba4 O8 3.131252 1_555
Ba4 O10 3.131252 1_545
Ba5 O4 2.769472 1_555
Ba5 O6 2.769472 1_554
Ba5 O5 2.769472 1_555
Ba5 O7 2.769472 1_554
Ba5 O12 3.131252 1_555
Ba5 O13 3.131252 1_554
Ba5 O15 3.131252 1_555
Ba5 O14 3.131252 1_554
Ba6 O8 2.769472 1_555
Ba6 O10 2.769472 1_545
Ba6 O9 2.769472 1_555
Ba6 O11 2.769472 1_545
Ba6 O16 3.131252 1_555
Ba6 O17 3.131252 1_545
Ba6 O19 3.131252 1_555
Ba6 O18 3.131252 1_545
Ba7 O0 2.769472 1_555
Ba7 O2 2.769472 1_455
Ba7 O1 2.769472 1_555
Ba7 O3 2.769472 1_455
Ba7 O20 3.131252 1_555
Ba7 O21 3.131252 1_455
Ba7 O22 3.131252 1_455
Ba7 O23 3.131252 1_555
O0 W0 1.964413 1_555
O0 Sr3 2.447315 1_555
O1 W1 1.964413 1_555
O1 Sr2 2.447315 1_555
O2 W2 1.964413 1_555
O2 Sr1 2.447315 1_555
O3 W3 1.964413 1_555
O3 Sr0 2.447315 1_555
O4 W0 1.964413 1_555
O4 Sr2 2.447315 1_555
O5 W3 1.964413 1_555
O5 Sr1 2.447315 1_555
O6 W1 1.964413 1_555
O6 Sr3 2.447315 1_555
O7 W2 1.964413 1_555
O7 Sr0 2.447315 1_555
O8 W0 1.964413 1_555
O8 Sr1 2.447315 1_555
O9 W2 1.964413 1_555
O9 Sr3 2.447315 1_555
O10 W3 1.964413 1_555
O10 Sr2 2.447315 1_555
O11 W1 1.964413 1_555
O11 Sr0 2.447315 1_555
O12 W0 1.964413 1_555
O12 Sr3 2.447315 1_554
O13 W1 1.964413 1_555
O13 Sr2 2.447315 1_556
O14 W2 1.964413 1_555
O14 Sr1 2.447315 1_556
O15 W3 1.964413 1_555
O15 Sr0 2.447315 1_554
O16 W0 1.964413 1_555
O16 Sr2 2.447315 1_545
O17 W3 1.964413 1_555
O17 Sr1 2.447315 1_565
O18 W1 1.964413 1_555
O18 Sr3 2.447315 1_565
O19 W2 1.964413 1_555
O19 Sr0 2.447315 1_545
O20 W0 1.964413 1_555
O20 Sr1 2.447315 1_455
O21 W2 1.964413 1_555
O21 Sr3 2.447315 1_655
O22 W3 1.964413 1_555
O22 Sr2 2.447315 1_655
O23 W1 1.964413 1_555
O23 Sr0 2.447315 1_455
