# generated using pymatgen
data_HgClO6
_symmetry_space_group_name_H-M   'P 1'
_cell_length_a   10.99623847
_cell_length_b   10.99623847
_cell_length_c   10.99623847
_cell_angle_alpha   140.50309818
_cell_angle_beta   139.26364964
_cell_angle_gamma   58.03646380
_symmetry_Int_Tables_number   1
_chemical_formula_structural   HgClO6
_chemical_formula_sum   'Hg4 Cl4 O24'
_cell_volume   546.95979429
_cell_formula_units_Z   4
loop_
 _symmetry_equiv_pos_site_id
 _symmetry_equiv_pos_as_xyz
  1  'x, y, z'
loop_
 _atom_site_type_symbol
 _atom_site_label
 _atom_site_symmetry_multiplicity
 _atom_site_fract_x
 _atom_site_fract_y
 _atom_site_fract_z
 _atom_site_occupancy
  Hg  Hg0  1  0.62692100  0.67862000  0.94830100  1
  Hg  Hg1  1  0.37307900  0.32138000  0.05169900  1
  Hg  Hg2  1  0.23031900  0.17862000  0.05169900  1
  Hg  Hg3  1  0.76968100  0.82138000  0.94830100  1
  Cl  Cl0  1  0.09852700  0.63758000  0.46094600  1
  Cl  Cl1  1  0.90147300  0.36242000  0.53905400  1
  Cl  Cl2  1  0.67663400  0.13758000  0.53905400  1
  Cl  Cl3  1  0.32336600  0.86242000  0.46094600  1
  O  O0  1  0.22704300  0.49979200  0.41239700  1
  O  O1  1  0.77295700  0.18535500  0.27275000  1
  O  O2  1  0.58739500  0.99979200  0.27275000  1
  O  O3  1  0.41260500  0.68535500  0.41239700  1
  O  O4  1  0.77295700  0.50020800  0.58760300  1
  O  O5  1  0.22704300  0.81464500  0.72725000  1
  O  O6  1  0.41260500  0.00020800  0.72725000  1
  O  O7  1  0.58739500  0.31464500  0.58760300  1
  O  O8  1  0.98977700  0.56437800  0.42540000  1
  O  O9  1  0.01022300  0.43562200  0.57460000  1
  O  O10  1  0.63897800  0.06437800  0.57460000  1
  O  O11  1  0.36102200  0.93562200  0.42540000  1
  O  O12  1  0.97901900  0.67814500  0.30087400  1
  O  O13  1  0.02098100  0.32185500  0.69912600  1
  O  O14  1  0.87727000  0.17814500  0.69912600  1
  O  O15  1  0.12273000  0.82185500  0.30087400  1
  O  O16  1  0.44407500  0.56791200  0.87616400  1
  O  O17  1  0.55592500  0.43208800  0.12383600  1
  O  O18  1  0.19174800  0.06791200  0.12383600  1
  O  O19  1  0.80825200  0.93208800  0.87616400  1
  O  O20  1  0.27349500  0.27349500  0.50000000  1
  O  O21  1  0.72650500  0.22650500  0.00000000  1
  O  O22  1  0.27349500  0.77349500  0.00000000  1
  O  O23  1  0.72650500  0.72650500  0.50000000  1
loop_
_geom_bond_atom_site_label_1
_geom_bond_atom_site_label_2
_geom_bond_distance
_geom_bond_site_symmetry_2
Hg0 O16 2.199546 1_555
Hg0 O2 2.582473 1_556
Hg0 O7 2.582473 1_555
Hg0 O12 2.698790 1_556
Hg0 Hg3 2.745512 1_555
Hg1 O17 2.199546 1_555
Hg1 O6 2.582473 1_554
Hg1 O3 2.582473 1_555
Hg1 O13 2.698790 1_554
Hg1 Hg2 2.745512 1_555
Hg2 O18 2.199536 1_555
Hg2 O0 2.582468 1_555
Hg2 O5 2.582476 1_544
Hg2 O14 2.698794 1_454
Hg3 O19 2.199536 1_555
Hg3 O4 2.582468 1_555
Hg3 O1 2.582476 1_566
Hg3 O15 2.698794 1_656
Cl0 O8 1.433869 1_455
Cl0 O12 1.452548 1_455
Cl0 O5 1.485176 1_555
Cl0 O0 1.485176 1_555
Cl1 O9 1.433869 1_655
Cl1 O13 1.452548 1_655
Cl1 O1 1.485176 1_555
Cl1 O4 1.485176 1_555
Cl2 O10 1.433848 1_555
Cl2 O14 1.452541 1_555
Cl2 O2 1.485176 1_545
Cl2 O7 1.485176 1_555
Cl3 O11 1.433848 1_555
Cl3 O15 1.452541 1_555
Cl3 O3 1.485176 1_555
Cl3 O6 1.485176 1_565
