# generated using pymatgen
data_Bi3PbWClO8
_symmetry_space_group_name_H-M   'P 1'
_cell_length_a   3.88359700
_cell_length_b   3.88359700
_cell_length_c   14.96807500
_cell_angle_alpha   90.00000000
_cell_angle_beta   90.00000000
_cell_angle_gamma   90.00000000
_symmetry_Int_Tables_number   1
_chemical_formula_structural   Bi3PbWClO8
_chemical_formula_sum   'Bi3 Pb1 W1 Cl1 O8'
_cell_volume   225.75338163
_cell_formula_units_Z   1
loop_
 _symmetry_equiv_pos_site_id
 _symmetry_equiv_pos_as_xyz
  1  'x, y, z'
loop_
 _atom_site_type_symbol
 _atom_site_label
 _atom_site_symmetry_multiplicity
 _atom_site_fract_x
 _atom_site_fract_y
 _atom_site_fract_z
 _atom_site_occupancy
  Bi  Bi0  1  0.50000000  0.50000000  0.79825300  1
  Bi  Bi1  1  0.50000000  0.50000000  0.19491800  1
  Bi  Bi2  1  0.00000000  0.00000000  0.36542800  1
  Pb  Pb0  1  0.00000000  0.00000000  0.62903600  1
  W  W0  1  0.00000000  0.00000000  0.00432600  1
  Cl  Cl0  1  0.50000000  0.50000000  0.47162800  1
  O  O0  1  0.50000000  0.00000000  0.71689000  1
  O  O1  1  0.00000000  0.50000000  0.71689000  1
  O  O2  1  0.50000000  0.00000000  0.28511600  1
  O  O3  1  0.00000000  0.50000000  0.28511600  1
  O  O4  1  0.00000000  0.00000000  0.87857600  1
  O  O5  1  0.00000000  0.00000000  0.13716800  1
  O  O6  1  0.50000000  0.00000000  0.00832900  1
  O  O7  1  0.00000000  0.50000000  0.00832900  1
loop_
_geom_bond_atom_site_label_1
_geom_bond_atom_site_label_2
_geom_bond_distance
_geom_bond_site_symmetry_2
Bi0 O1 2.292103 1_655
Bi0 O0 2.292103 1_555
Bi0 O0 2.292103 1_565
Bi0 O1 2.292103 1_555
Bi1 O2 2.365021 1_555
Bi1 O2 2.365021 1_565
Bi1 O3 2.365021 1_655
Bi1 O3 2.365021 1_555
Bi2 O2 2.283783 1_455
Bi2 O3 2.283783 1_545
Bi2 O2 2.283783 1_555
Bi2 O3 2.283783 1_555
Bi2 Cl0 3.173015 1_455
Bi2 Cl0 3.173015 1_555
Bi2 Cl0 3.173015 1_545
Bi2 Cl0 3.173015 1_445
O0 Pb0 2.345170 1_655
O0 Pb0 2.345170 1_555
O1 Pb0 2.345170 1_565
O1 Pb0 2.345170 1_555
O4 W0 1.882235 1_556
O5 W0 1.988389 1_555
O6 W0 1.942723 1_555
O6 W0 1.942723 1_655
O7 W0 1.942723 1_555
O7 W0 1.942723 1_565
