# generated using pymatgen
data_UB8O17
_symmetry_space_group_name_H-M   'P 1'
_cell_length_a   8.97706869
_cell_length_b   8.97706869
_cell_length_c   11.12518335
_cell_angle_alpha   89.98961474
_cell_angle_beta   89.98961474
_cell_angle_gamma   136.85945971
_symmetry_Int_Tables_number   1
_chemical_formula_structural   UB8O17
_chemical_formula_sum   'U2 B16 O34'
_cell_volume   613.05454557
_cell_formula_units_Z   2
loop_
 _symmetry_equiv_pos_site_id
 _symmetry_equiv_pos_as_xyz
  1  'x, y, z'
loop_
 _atom_site_type_symbol
 _atom_site_label
 _atom_site_symmetry_multiplicity
 _atom_site_fract_x
 _atom_site_fract_y
 _atom_site_fract_z
 _atom_site_occupancy
  U  U0  1  0.00818500  0.47127700  0.24597200  1
  U  U1  1  0.47127700  0.00818500  0.74597200  1
  B  B0  1  0.49093900  0.89308100  0.31043100  1
  B  B1  1  0.89308100  0.49093900  0.81043100  1
  B  B2  1  0.20600500  0.66712000  0.94740000  1
  B  B3  1  0.66712000  0.20600500  0.44740000  1
  B  B4  1  0.87027100  0.27374100  0.98330800  1
  B  B5  1  0.27374100  0.87027100  0.48330800  1
  B  B6  1  0.54195400  0.92595000  0.08236700  1
  B  B7  1  0.92595000  0.54195400  0.58236700  1
  B  B8  1  0.83902200  0.96453900  0.99365000  1
  B  B9  1  0.96453900  0.83902200  0.49365000  1
  B  B10  1  0.74466800  0.88647900  0.41550200  1
  B  B11  1  0.88647900  0.74466800  0.91550200  1
  B  B12  1  0.11471200  0.99445300  0.07714800  1
  B  B13  1  0.99445300  0.11471200  0.57714800  1
  B  B14  1  0.40106500  0.28473800  0.21356100  1
  B  B15  1  0.28473800  0.40106500  0.71356100  1
  O  O0  1  0.86463600  0.41475000  0.47078200  1
  O  O1  1  0.41475000  0.86463600  0.97078200  1
  O  O2  1  0.07447600  0.49562700  0.02705500  1
  O  O3  1  0.49562700  0.07447600  0.52705500  1
  O  O4  1  0.09829900  0.35191800  0.27627800  1
  O  O5  1  0.35191800  0.09829900  0.77627800  1
  O  O6  1  0.63622200  0.84436900  0.06351900  1
  O  O7  1  0.84436900  0.63622200  0.56351900  1
  O  O8  1  0.40480800  0.83026000  0.18823800  1
  O  O9  1  0.83026000  0.40480800  0.68823800  1
  O  O10  1  0.64861300  0.13438000  0.33280700  1
  O  O11  1  0.13438000  0.64861300  0.83280700  1
  O  O12  1  0.28902000  0.77127400  0.38528200  1
  O  O13  1  0.77127400  0.28902000  0.88528200  1
  O  O14  1  0.73073700  0.16645500  0.09026000  1
  O  O15  1  0.16645500  0.73073700  0.59026000  1
  O  O16  1  0.81610700  0.79423300  0.40814900  1
  O  O17  1  0.79423300  0.81610700  0.90814900  1
  O  O18  1  0.90630400  0.57926100  0.21751500  1
  O  O19  1  0.57926100  0.90630400  0.71751500  1
  O  O20  1  0.58518600  0.82011000  0.34066900  1
  O  O21  1  0.82011000  0.58518600  0.84066900  1
  O  O22  1  0.91720500  0.16105900  0.93474700  1
  O  O23  1  0.16105900  0.91720500  0.43474700  1
  O  O24  1  0.05299000  0.83835100  0.99883400  1
  O  O25  1  0.83835100  0.05299000  0.49883400  1
  O  O26  1  0.28354400  0.09180000  0.15456000  1
  O  O27  1  0.09180000  0.28354400  0.65456000  1
  O  O28  1  0.00913900  0.05367400  0.08094500  1
  O  O29  1  0.05367400  0.00913900  0.58094500  1
  O  O30  1  0.45943200  0.33356600  0.33117500  1
  O  O31  1  0.33356600  0.45943200  0.83117500  1
  O  O32  1  0.50531900  0.48085800  0.16404500  1
  O  O33  1  0.48085800  0.50531900  0.66404500  1
loop_
_geom_bond_atom_site_label_1
_geom_bond_atom_site_label_2
_geom_bond_distance
_geom_bond_site_symmetry_2
B0 O20 1.437684 1_555
B0 O8 1.458840 1_555
B0 O12 1.510418 1_555
B0 O10 1.511130 1_565
B1 O21 1.437684 1_555
B1 O9 1.458840 1_555
B1 O13 1.510418 1_555
B1 O11 1.511130 1_655
B2 O1 1.369142 1_555
B2 O2 1.376918 1_556
B2 O11 1.382316 1_555
B3 O0 1.369142 1_555
B3 O3 1.376918 1_555
B3 O10 1.382316 1_555
B4 O22 1.454208 1_555
B4 O14 1.466578 1_556
B4 O13 1.475163 1_555
B4 O2 1.495616 1_656
B5 O23 1.454208 1_555
B5 O15 1.466578 1_555
B5 O12 1.475163 1_555
B5 O3 1.495616 1_565
B6 O8 1.447992 1_555
B6 O6 1.483542 1_555
B6 O14 1.483780 1_565
B6 O1 1.493830 1_554
B7 O9 1.447992 1_555
B7 O7 1.483542 1_555
B7 O15 1.483780 1_655
B7 O0 1.493830 1_555
B8 O17 1.435522 1_555
B8 O28 1.460532 1_666
B8 O6 1.488428 1_556
B8 O22 1.492241 1_565
B9 O16 1.435522 1_555
B9 O29 1.460532 1_665
B9 O7 1.488428 1_555
B9 O23 1.492241 1_655
B10 O20 1.361464 1_555
B10 O16 1.370674 1_555
B10 O25 1.402621 1_565
B11 O21 1.361464 1_555
B11 O17 1.370674 1_555
B11 O24 1.402621 1_655
B12 O26 1.367602 1_565
B12 O24 1.377438 1_554
B12 O28 1.384884 1_565
B13 O27 1.367602 1_655
B13 O25 1.377438 1_555
B13 O29 1.384884 1_655
B14 O30 1.357966 1_555
B14 O32 1.368891 1_555
B14 O26 1.370321 1_555
B15 O31 1.357966 1_555
B15 O33 1.368891 1_555
B15 O27 1.370321 1_555
O4 U0 1.783570 1_555
O5 U1 1.783570 1_555
O18 U0 1.780519 1_655
O19 U1 1.780519 1_565
