# generated using pymatgen
data_PrRe2
_symmetry_space_group_name_H-M   'P 1'
_cell_length_a   5.55028182
_cell_length_b   5.55028182
_cell_length_c   9.00001100
_cell_angle_alpha   90.00000000
_cell_angle_beta   90.00000000
_cell_angle_gamma   119.99999783
_symmetry_Int_Tables_number   1
_chemical_formula_structural   PrRe2
_chemical_formula_sum   'Pr4 Re8'
_cell_volume   240.10640858
_cell_formula_units_Z   4
loop_
 _symmetry_equiv_pos_site_id
 _symmetry_equiv_pos_as_xyz
  1  'x, y, z'
loop_
 _atom_site_type_symbol
 _atom_site_label
 _atom_site_symmetry_multiplicity
 _atom_site_fract_x
 _atom_site_fract_y
 _atom_site_fract_z
 _atom_site_occupancy
  Pr  Pr0  1  0.33333300  0.66666700  0.43873900  1
  Pr  Pr1  1  0.66666700  0.33333300  0.56126100  1
  Pr  Pr2  1  0.66666700  0.33333300  0.93873900  1
  Pr  Pr3  1  0.33333300  0.66666700  0.06126100  1
  Re  Re0  1  0.00000000  0.00000000  0.50000000  1
  Re  Re1  1  0.00000000  0.00000000  0.00000000  1
  Re  Re2  1  0.83000000  0.17000000  0.25000000  1
  Re  Re3  1  0.83000000  0.66000000  0.25000000  1
  Re  Re4  1  0.34000000  0.17000000  0.25000000  1
  Re  Re5  1  0.17000000  0.83000000  0.75000000  1
  Re  Re6  1  0.17000000  0.34000000  0.75000000  1
  Re  Re7  1  0.66000000  0.83000000  0.75000000  1
loop_
_geom_bond_atom_site_label_1
_geom_bond_atom_site_label_2
_geom_bond_distance
_geom_bond_site_symmetry_2
Pr0 Re5 3.211393 1_555
Pr0 Re7 3.211395 1_555
Pr0 Re6 3.211395 1_555
Pr0 Re0 3.251539 1_565
Pr0 Re0 3.251544 1_665
Pr0 Re0 3.251544 1_555
Pr0 Re3 3.253896 1_455
Pr0 Re4 3.253896 1_565
Pr0 Re2 3.253899 1_455
Pr0 Re2 3.253899 1_565
Pr0 Re4 3.253901 1_555
Pr0 Re3 3.253901 1_555
Pr0 Pr1 3.388874 1_455
Pr0 Pr1 3.388874 1_565
Pr0 Pr1 3.388883 1_555
Pr0 Pr3 3.397306 1_555
Pr1 Re2 3.211393 1_555
Pr1 Re3 3.211395 1_555
Pr1 Re4 3.211395 1_555
Pr1 Re0 3.251539 1_655
Pr1 Re0 3.251544 1_665
Pr1 Re0 3.251544 1_555
Pr1 Re6 3.253896 1_655
Pr1 Re7 3.253896 1_545
Pr1 Re5 3.253899 1_545
Pr1 Re5 3.253899 1_655
Pr1 Re6 3.253901 1_555
Pr1 Re7 3.253901 1_555
Pr1 Pr2 3.397306 1_555
Pr2 Re2 3.211393 1_556
Pr2 Re4 3.211395 1_556
Pr2 Re3 3.211395 1_556
Pr2 Re1 3.251539 1_656
Pr2 Re1 3.251544 1_556
Pr2 Re1 3.251544 1_666
Pr2 Re6 3.253896 1_655
Pr2 Re7 3.253896 1_545
Pr2 Re5 3.253899 1_545
Pr2 Re5 3.253899 1_655
Pr2 Re6 3.253901 1_555
Pr2 Re7 3.253901 1_555
Pr2 Pr3 3.388874 1_546
Pr2 Pr3 3.388874 1_656
Pr2 Pr3 3.388883 1_556
Pr3 Re5 3.211393 1_554
Pr3 Re6 3.211395 1_554
Pr3 Re7 3.211395 1_554
Pr3 Re1 3.251539 1_565
Pr3 Re1 3.251544 1_555
Pr3 Re1 3.251544 1_665
Pr3 Re4 3.253896 1_565
Pr3 Re3 3.253896 1_455
Pr3 Re2 3.253899 1_455
Pr3 Re2 3.253899 1_565
Pr3 Re4 3.253901 1_555
Pr3 Re3 3.253901 1_555
Re0 Re5 2.780892 1_545
Re0 Re2 2.780892 1_455
Re0 Re7 2.780892 1_445
Re0 Re6 2.780892 1_555
Re0 Re4 2.780892 1_555
Re0 Re3 2.780892 1_445
Re1 Re5 2.780892 1_544
Re1 Re2 2.780892 1_455
Re1 Re7 2.780892 1_444
Re1 Re6 2.780892 1_554
Re1 Re4 2.780892 1_555
Re1 Re3 2.780892 1_445
Re2 Re3 2.719638 1_555
Re2 Re4 2.719638 1_555
Re2 Re3 2.830644 1_545
Re2 Re4 2.830644 1_655
Re3 Re4 2.719638 1_555
Re3 Re4 2.830644 1_665
Re5 Re7 2.719638 1_555
Re5 Re6 2.719638 1_555
Re5 Re7 2.830644 1_455
Re5 Re6 2.830644 1_565
Re6 Re7 2.719638 1_555
Re6 Re7 2.830644 1_445
