# generated using pymatgen
data_MgAg20(BiO4)4
_symmetry_space_group_name_H-M   'P 1'
_cell_length_a   6.06002384
_cell_length_b   8.78222288
_cell_length_c   13.01159569
_cell_angle_alpha   87.65606828
_cell_angle_beta   92.98153755
_cell_angle_gamma   90.05494714
_symmetry_Int_Tables_number   1
_chemical_formula_structural   MgAg20(BiO4)4
_chemical_formula_sum   'Mg1 Ag20 Bi4 O16'
_cell_volume   690.96691723
_cell_formula_units_Z   1
loop_
 _symmetry_equiv_pos_site_id
 _symmetry_equiv_pos_as_xyz
  1  'x, y, z'
loop_
 _atom_site_type_symbol
 _atom_site_label
 _atom_site_symmetry_multiplicity
 _atom_site_fract_x
 _atom_site_fract_y
 _atom_site_fract_z
 _atom_site_occupancy
  Mg  Mg0  1  0.07851339  0.83446239  0.33025192  1
  Ag  Ag0  1  0.31705272  0.67921481  0.12600498  1
  Ag  Ag1  1  0.73093434  0.76014108  0.62851189  1
  Ag  Ag2  1  0.06044646  0.46964242  0.99221747  1
  Ag  Ag3  1  0.47449056  0.00237421  0.49376084  1
  Ag  Ag4  1  0.01764202  0.15314966  0.67554550  1
  Ag  Ag5  1  0.48766800  0.61700861  0.84354469  1
  Ag  Ag6  1  0.95237910  0.99828223  0.49890211  1
  Ag  Ag7  1  0.54217587  0.39511802  0.12207239  1
  Ag  Ag8  1  0.53418592  0.99383917  0.22710424  1
  Ag  Ag9  1  0.94813431  0.46390413  0.22894629  1
  Ag  Ag10  1  0.47919148  0.99352862  0.75096090  1
  Ag  Ag11  1  0.03921176  0.49457060  0.73213661  1
  Ag  Ag12  1  0.52089052  0.97449170  0.99558207  1
  Ag  Ag13  1  0.02007424  0.54508027  0.48953111  1
  Ag  Ag14  1  0.28097091  0.25016952  0.86547591  1
  Ag  Ag15  1  0.23817044  0.77038098  0.62289841  1
  Ag  Ag16  1  0.75096589  0.67749499  0.08979574  1
  Ag  Ag17  1  0.74261899  0.22406573  0.35702266  1
  Ag  Ag18  1  0.77289228  0.25447993  0.86379457  1
  Ag  Ag19  1  0.22858143  0.22679466  0.36137684  1
  Bi  Bi0  1  0.51882707  0.37597896  0.60511195  1
  Bi  Bi1  1  0.99542239  0.85411579  0.88190350  1
  Bi  Bi2  1  0.53349686  0.63629952  0.37076891  1
  Bi  Bi3  1  0.03589047  0.09158859  0.11297797  1
  O  O0  1  0.16793540  0.32341432  0.11969335  1
  O  O1  1  0.40090452  0.87947864  0.35873415  1
  O  O2  1  0.93687493  0.60820627  0.86339357  1
  O  O3  1  0.58736031  0.12717219  0.62213831  1
  O  O4  1  0.99664098  0.89792346  0.70080363  1
  O  O5  1  0.51641036  0.38601509  0.78632829  1
  O  O6  1  0.03129074  0.11888806  0.93658944  1
  O  O7  1  0.46554025  0.63646641  0.54089702  1
  O  O8  1  0.03850019  0.82637874  0.05678652  1
  O  O9  1  0.49908631  0.35999078  0.42503183  1
  O  O10  1  0.67621173  0.12863642  0.10349720  1
  O  O11  1  0.86423539  0.76367356  0.43129264  1
  O  O12  1  0.35720921  0.84495700  0.87498382  1
  O  O13  1  0.15764081  0.36567921  0.60342424  1
  O  O14  1  0.98525758  0.06309725  0.30038786  1
  O  O15  1  0.18474089  0.62670301  0.30148562  1
loop_
_geom_bond_atom_site_label_1
_geom_bond_atom_site_label_2
_geom_bond_distance
_geom_bond_site_symmetry_2
Mg0 O11 1.977448 1_455
Mg0 O15 1.991684 1_555
Mg0 O1 2.011407 1_555
Mg0 O14 2.101816 1_465
Ag0 O8 2.254285 1_555
Ag0 O15 2.484467 1_555
Ag1 O4 2.207596 1_555
Ag1 O7 2.230051 1_555
Ag1 O11 2.729040 1_555
Ag2 O0 2.130643 1_556
Ag2 O2 2.134385 1_455
Ag3 O3 2.118666 1_555
Ag3 O1 2.126771 1_545
Ag4 O13 2.240684 1_555
Ag4 O4 2.256517 1_445
Ag4 O3 2.675337 1_455
Ag5 O5 2.199466 1_555
Ag5 O12 2.214408 1_555
Ag5 O2 2.721894 1_555
Ag6 O11 2.324147 1_555
Ag6 O14 2.639809 1_565
Ag7 O0 2.352117 1_555
Ag7 O10 2.503103 1_555
Ag8 O1 2.143852 1_555
Ag8 O10 2.171455 1_565
Ag9 O15 2.226335 1_655
Ag9 O0 2.379271 1_655
Ag10 O3 2.137461 1_565
Ag10 O12 2.191592 1_555
Ag11 O2 2.132635 1_455
Ag11 O13 2.209716 1_555
Ag12 O10 2.169268 1_566
Ag12 O12 2.173079 1_555
Ag13 O11 2.227446 1_455
Ag13 O13 2.248655 1_555
Ag13 O15 2.757801 1_555
Ag14 O6 2.128349 1_555
Ag14 O5 2.137437 1_555
Ag15 O4 2.162145 1_455
Ag15 O7 2.163044 1_555
Ag16 O8 2.226621 1_655
Ag17 O9 2.147488 1_555
Ag17 O14 2.214826 1_555
Ag18 O5 2.124014 1_555
Ag18 O6 2.127021 1_655
Ag19 O9 2.162373 1_555
Ag19 O14 2.199621 1_455
Bi0 O13 2.189585 1_555
Bi0 O3 2.224567 1_555
Bi0 O9 2.349894 1_555
Bi0 O5 2.363966 1_555
Bi0 O7 2.419253 1_555
Bi1 O12 2.200641 1_655
Bi1 O2 2.209091 1_555
Bi1 O8 2.280001 1_656
Bi1 O4 2.372411 1_555
Bi1 O6 2.465522 1_665
Bi2 O15 2.257035 1_555
Bi2 O7 2.272640 1_555
Bi2 O1 2.279038 1_555
Bi2 O11 2.406701 1_555
Bi2 O9 2.510897 1_555
Bi3 O0 2.190245 1_555
Bi3 O10 2.200479 1_455
Bi3 O6 2.296535 1_554
Bi3 O8 2.469866 1_545
Bi3 O14 2.476051 1_455
