# generated using pymatgen
data_LiUAs(H4O5)2
_symmetry_space_group_name_H-M   'P 1'
_cell_length_a   7.14380400
_cell_length_b   7.14380400
_cell_length_c   9.44111100
_cell_angle_alpha   90.00000000
_cell_angle_beta   90.00000000
_cell_angle_gamma   90.00000000
_symmetry_Int_Tables_number   1
_chemical_formula_structural   LiUAs(H4O5)2
_chemical_formula_sum   'Li2 U2 As2 H16 O20'
_cell_volume   481.81705068
_cell_formula_units_Z   2
loop_
 _symmetry_equiv_pos_site_id
 _symmetry_equiv_pos_as_xyz
  1  'x, y, z'
loop_
 _atom_site_type_symbol
 _atom_site_label
 _atom_site_symmetry_multiplicity
 _atom_site_fract_x
 _atom_site_fract_y
 _atom_site_fract_z
 _atom_site_occupancy
  Li  Li0  1  0.50000000  0.50000000  0.50000000  1
  Li  Li1  1  0.00000000  0.00000000  0.50000000  1
  U  U0  1  0.00000000  0.50000000  0.89437400  1
  U  U1  1  0.50000000  0.00000000  0.10562600  1
  As  As0  1  0.50000000  0.50000000  0.00000000  1
  As  As1  1  0.00000000  0.00000000  0.00000000  1
  H  H0  1  0.17837000  0.35753700  0.38714200  1
  H  H1  1  0.82163000  0.64246300  0.38714200  1
  H  H2  1  0.85753700  0.32163000  0.38714200  1
  H  H3  1  0.14246300  0.67837000  0.38714200  1
  H  H4  1  0.32163000  0.14246300  0.61285800  1
  H  H5  1  0.67837000  0.85753700  0.61285800  1
  H  H6  1  0.64246300  0.17837000  0.61285800  1
  H  H7  1  0.35753700  0.82163000  0.61285800  1
  H  H8  1  0.09017100  0.82978400  0.27652500  1
  H  H9  1  0.90982900  0.17021600  0.27652500  1
  H  H10  1  0.32978400  0.40982900  0.27652500  1
  H  H11  1  0.67021600  0.59017100  0.27652500  1
  H  H12  1  0.40982900  0.67021600  0.72347500  1
  H  H13  1  0.59017100  0.32978400  0.72347500  1
  H  H14  1  0.17021600  0.09017100  0.72347500  1
  H  H15  1  0.82978400  0.90982900  0.72347500  1
  O  O0  1  0.00000000  0.50000000  0.70233500  1
  O  O1  1  0.50000000  0.00000000  0.29766500  1
  O  O2  1  0.00000000  0.50000000  0.08700200  1
  O  O3  1  0.50000000  0.00000000  0.91299800  1
  O  O4  1  0.94786100  0.81820300  0.88741400  1
  O  O5  1  0.05213900  0.18179700  0.88741400  1
  O  O6  1  0.31820300  0.55213900  0.88741400  1
  O  O7  1  0.68179700  0.44786100  0.88741400  1
  O  O8  1  0.55213900  0.68179700  0.11258600  1
  O  O9  1  0.44786100  0.31820300  0.11258600  1
  O  O10  1  0.18179700  0.94786100  0.11258600  1
  O  O11  1  0.81820300  0.05213900  0.11258600  1
  O  O12  1  0.28509100  0.44326200  0.37251600  1
  O  O13  1  0.71490900  0.55673800  0.37251600  1
  O  O14  1  0.94326200  0.21490900  0.37251600  1
  O  O15  1  0.05673800  0.78509100  0.37251600  1
  O  O16  1  0.21490900  0.05673800  0.62748400  1
  O  O17  1  0.78509100  0.94326200  0.62748400  1
  O  O18  1  0.55673800  0.28509100  0.62748400  1
  O  O19  1  0.44326200  0.71490900  0.62748400  1
loop_
_geom_bond_atom_site_label_1
_geom_bond_atom_site_label_2
_geom_bond_distance
_geom_bond_site_symmetry_2
Li0 O19 1.992477 1_555
Li0 O18 1.992477 1_555
Li0 O13 1.992477 1_555
Li0 O12 1.992477 1_555
Li1 O16 1.992477 1_555
Li1 O17 1.992477 1_445
Li1 O15 1.992477 1_545
Li1 O14 1.992477 1_455
As0 O8 1.719084 1_555
As0 O9 1.719084 1_555
As0 O7 1.719084 1_554
As0 O6 1.719084 1_554
As1 O11 1.719084 1_455
As1 O10 1.719084 1_545
As1 O5 1.719084 1_554
As1 O4 1.719084 1_444
H0 O12 0.987598 1_555
H1 O13 0.987598 1_555
H2 O14 0.987598 1_555
H3 O15 0.987598 1_555
H4 O16 0.987598 1_555
H5 O17 0.987598 1_555
H6 O18 0.987598 1_555
H7 O19 0.987598 1_555
H8 O15 0.990097 1_555
H9 O14 0.990097 1_555
H10 O12 0.990097 1_555
H11 O13 0.990097 1_555
H12 O19 0.990097 1_555
H13 O18 0.990097 1_555
H14 O16 0.990097 1_555
H15 O17 0.990097 1_555
O0 U0 1.813062 1_555
O1 U1 1.813062 1_555
O2 U0 1.818622 1_554
O3 U1 1.818622 1_556
O4 U0 2.304430 1_655
O5 U0 2.304430 1_555
O6 U0 2.304430 1_555
O7 U0 2.304430 1_655
O8 U1 2.304430 1_565
O9 U1 2.304430 1_555
O10 U1 2.304430 1_565
O11 U1 2.304430 1_555
