# generated using pymatgen
data_Cs2U3P6(HO5)4
_symmetry_space_group_name_H-M   'P 1'
_cell_length_a   13.24899287
_cell_length_b   13.24899287
_cell_length_c   7.74951582
_cell_angle_alpha   81.10915588
_cell_angle_beta   81.10915588
_cell_angle_gamma   24.80330477
_symmetry_Int_Tables_number   1
_chemical_formula_structural   Cs2U3P6(HO5)4
_chemical_formula_sum   'Cs2 U3 P6 H4 O20'
_cell_volume   563.46888113
_cell_formula_units_Z   1
loop_
 _symmetry_equiv_pos_site_id
 _symmetry_equiv_pos_as_xyz
  1  'x, y, z'
loop_
 _atom_site_type_symbol
 _atom_site_label
 _atom_site_symmetry_multiplicity
 _atom_site_fract_x
 _atom_site_fract_y
 _atom_site_fract_z
 _atom_site_occupancy
  Cs  Cs0  1  0.66878900  0.66878900  0.42121400  1
  Cs  Cs1  1  0.33121100  0.33121100  0.57878600  1
  U  U0  1  0.50000000  0.50000000  0.50000000  1
  U  U1  1  0.82060500  0.82060500  0.07779800  1
  U  U2  1  0.17939500  0.17939500  0.92220200  1
  P  P0  1  0.74401100  0.74401100  0.81198600  1
  P  P1  1  0.25598900  0.25598900  0.18801400  1
  P  P2  1  0.41508400  0.41508400  0.94343700  1
  P  P3  1  0.58491600  0.58491600  0.05656300  1
  P  P4  1  0.93271400  0.93271400  0.31667900  1
  P  P5  1  0.06728600  0.06728600  0.68332100  1
  H  H0  1  0.44916000  0.44916000  0.06802500  1
  H  H1  1  0.55084000  0.55084000  0.93197500  1
  H  H2  1  0.96412900  0.96412900  0.15075500  1
  H  H3  1  0.03587100  0.03587100  0.84924500  1
  O  O0  1  0.45136900  0.45136900  0.76324000  1
  O  O1  1  0.54863100  0.54863100  0.23676000  1
  O  O2  1  0.82870700  0.27673900  0.58854100  1
  O  O3  1  0.27673900  0.82870700  0.58854100  1
  O  O4  1  0.17129300  0.72326100  0.41145900  1
  O  O5  1  0.72326100  0.17129300  0.41145900  1
  O  O6  1  0.72953200  0.72953200  0.01478200  1
  O  O7  1  0.27046800  0.27046800  0.98521800  1
  O  O8  1  0.15702900  0.60790200  0.96853600  1
  O  O9  1  0.60790200  0.15702900  0.96853600  1
  O  O10  1  0.84297100  0.39209800  0.03146400  1
  O  O11  1  0.39209800  0.84297100  0.03146400  1
  O  O12  1  0.05762900  0.50149100  0.26545100  1
  O  O13  1  0.50149100  0.05762900  0.26545100  1
  O  O14  1  0.94237100  0.49850900  0.73454900  1
  O  O15  1  0.49850900  0.94237100  0.73454900  1
  O  O16  1  0.80458700  0.80458700  0.77577700  1
  O  O17  1  0.19541300  0.19541300  0.22422300  1
  O  O18  1  0.87527400  0.87527400  0.29329000  1
  O  O19  1  0.12472600  0.12472600  0.70671000  1
loop_
_geom_bond_atom_site_label_1
_geom_bond_atom_site_label_2
_geom_bond_distance
_geom_bond_site_symmetry_2
Cs0 O14 3.210182 1_555
Cs0 O15 3.210182 1_555
Cs0 O17 3.250940 1_655
Cs0 O17 3.250940 1_565
Cs0 O6 3.290059 1_555
Cs0 O12 3.329273 1_655
Cs0 O13 3.329273 1_565
Cs0 O3 3.455131 1_555
Cs0 O2 3.455131 1_555
Cs0 O1 3.622155 1_555
Cs0 O19 3.673301 1_565
Cs0 O19 3.673301 1_655
Cs0 O11 3.714293 1_555
Cs0 O10 3.714293 1_555
Cs1 O12 3.210182 1_555
Cs1 O13 3.210182 1_555
Cs1 O16 3.250940 1_545
Cs1 O16 3.250940 1_455
Cs1 O7 3.290059 1_555
Cs1 O15 3.329273 1_545
Cs1 O14 3.329273 1_455
Cs1 O4 3.455131 1_555
Cs1 O5 3.455131 1_555
Cs1 O0 3.622155 1_555
Cs1 O18 3.673301 1_545
Cs1 O18 3.673301 1_455
Cs1 O8 3.714293 1_555
Cs1 O9 3.714293 1_555
H0 P2 1.406899 1_554
H1 P3 1.406899 1_556
H2 P4 1.408364 1_555
H3 P5 1.408364 1_555
O0 P2 1.554615 1_555
O0 U0 2.221019 1_555
O1 P3 1.554615 1_555
O1 U0 2.221019 1_555
O2 P5 1.547364 1_655
O2 U0 2.257328 1_555
O3 P5 1.547364 1_565
O3 U0 2.257328 1_555
O4 P4 1.547364 1_455
O4 U0 2.257328 1_555
O5 P4 1.547364 1_545
O5 U0 2.257328 1_555
O6 P0 1.556877 1_554
O6 U1 2.481517 1_555
O7 P1 1.556877 1_556
O7 U2 2.481517 1_555
O8 P2 1.531122 1_555
O8 U1 2.300493 1_456
O9 P2 1.531122 1_555
O9 U1 2.300493 1_546
O10 P3 1.531122 1_555
O10 U2 2.300493 1_654
O11 P3 1.531122 1_555
O11 U2 2.300493 1_564
O12 P1 1.563064 1_555
O12 U1 2.293099 1_455
O13 P1 1.563064 1_555
O13 U1 2.293099 1_545
O14 P0 1.563064 1_555
O14 U2 2.293099 1_655
O15 P0 1.563064 1_555
O15 U2 2.293099 1_565
O16 P0 1.548276 1_555
O16 U1 2.440683 1_556
O17 P1 1.548276 1_555
O17 U2 2.440683 1_554
O18 P4 1.525744 1_555
O18 U1 2.353345 1_555
O19 P5 1.525744 1_555
O19 U2 2.353345 1_555
