# generated using pymatgen
data_BaN2
_symmetry_space_group_name_H-M   'P 1'
_cell_length_a   4.22152961
_cell_length_b   4.22152903
_cell_length_c   7.31309529
_cell_angle_alpha   77.20459870
_cell_angle_beta   77.20458902
_cell_angle_gamma   63.66145310
_symmetry_Int_Tables_number   1
_chemical_formula_structural   BaN2
_chemical_formula_sum   'Ba2 N4'
_cell_volume   112.76116764
_cell_formula_units_Z   2
loop_
 _symmetry_equiv_pos_site_id
 _symmetry_equiv_pos_as_xyz
  1  'x, y, z'
loop_
 _atom_site_type_symbol
 _atom_site_label
 _atom_site_symmetry_multiplicity
 _atom_site_fract_x
 _atom_site_fract_y
 _atom_site_fract_z
 _atom_site_occupancy
  Ba  Ba0  1  0.79592880  0.20407120  0.25000000  1
  Ba  Ba1  1  0.20407120  0.79592880  0.75000000  1
  N  N0  1  0.15001088  0.44392642  0.45479638  1
  N  N1  1  0.55607358  0.84998912  0.04520362  1
  N  N2  1  0.44392642  0.15001088  0.95479638  1
  N  N3  1  0.84998912  0.55607358  0.54520362  1
loop_
_geom_bond_atom_site_label_1
_geom_bond_atom_site_label_2
_geom_bond_distance
_geom_bond_site_symmetry_2
Ba0 N0 2.667665 1_555
Ba0 N1 2.667665 1_555
Ba0 N1 2.917029 1_545
Ba0 N0 2.917029 1_655
Ba0 N3 2.976745 1_555
Ba0 N2 2.976745 1_554
Ba0 N2 3.040449 1_654
Ba0 N3 3.040449 1_545
Ba0 N1 3.062912 1_645
Ba0 N0 3.062912 1_645
Ba1 N3 2.667665 1_555
Ba1 N2 2.667665 1_555
Ba1 N2 2.917029 1_565
Ba1 N3 2.917029 1_455
Ba1 N0 2.976745 1_555
Ba1 N1 2.976745 1_556
Ba1 N1 3.040449 1_456
Ba1 N0 3.040449 1_565
Ba1 N2 3.062912 1_465
Ba1 N3 3.062912 1_465
N0 N3 1.225183 1_455
N1 N2 1.225183 1_564
