# generated using pymatgen
data_K2PrAuCl6
_symmetry_space_group_name_H-M   'P 1'
_cell_length_a   7.74950990
_cell_length_b   7.74950990
_cell_length_c   7.74950990
_cell_angle_alpha   60.00000000
_cell_angle_beta   60.00000000
_cell_angle_gamma   60.00000000
_symmetry_Int_Tables_number   1
_chemical_formula_structural   K2PrAuCl6
_chemical_formula_sum   'K2 Pr1 Au1 Cl6'
_cell_volume   329.08471731
_cell_formula_units_Z   1
loop_
 _symmetry_equiv_pos_site_id
 _symmetry_equiv_pos_as_xyz
  1  'x, y, z'
loop_
 _atom_site_type_symbol
 _atom_site_label
 _atom_site_symmetry_multiplicity
 _atom_site_fract_x
 _atom_site_fract_y
 _atom_site_fract_z
 _atom_site_occupancy
  K  K0  1  0.75000000  0.75000000  0.75000000  1
  K  K1  1  0.25000000  0.25000000  0.25000000  1
  Pr  Pr0  1  0.00000000  0.00000000  0.00000000  1
  Au  Au0  1  0.50000000  0.50000000  0.50000000  1
  Cl  Cl0  1  0.74993400  0.25006600  0.25006600  1
  Cl  Cl1  1  0.25006600  0.25006600  0.74993400  1
  Cl  Cl2  1  0.25006600  0.74993400  0.74993400  1
  Cl  Cl3  1  0.25006600  0.74993400  0.25006600  1
  Cl  Cl4  1  0.74993400  0.25006600  0.74993400  1
  Cl  Cl5  1  0.74993400  0.74993400  0.25006600  1
loop_
_geom_bond_atom_site_label_1
_geom_bond_atom_site_label_2
_geom_bond_distance
_geom_bond_site_symmetry_2
Au0 Cl2 2.739142 1_555
Au0 Cl0 2.739142 1_555
Au0 Cl3 2.739142 1_555
Au0 Cl4 2.739142 1_555
Au0 Cl1 2.739142 1_555
Au0 Cl5 2.739142 1_555
Cl0 Pr0 2.740589 1_655
Cl1 Pr0 2.740589 1_556
Cl2 Pr0 2.740589 1_566
Cl3 Pr0 2.740589 1_565
Cl4 Pr0 2.740589 1_656
Cl5 Pr0 2.740589 1_665
