# generated using pymatgen
data_Hf2V3Ge
_symmetry_space_group_name_H-M   'P 1'
_cell_length_a   5.15472046
_cell_length_b   5.15472046
_cell_length_c   8.56999500
_cell_angle_alpha   90.00000000
_cell_angle_beta   90.00000000
_cell_angle_gamma   120.00000590
_symmetry_Int_Tables_number   1
_chemical_formula_structural   Hf2V3Ge
_chemical_formula_sum   'Hf4 V6 Ge2'
_cell_volume   197.20658447
_cell_formula_units_Z   2
loop_
 _symmetry_equiv_pos_site_id
 _symmetry_equiv_pos_as_xyz
  1  'x, y, z'
loop_
 _atom_site_type_symbol
 _atom_site_label
 _atom_site_symmetry_multiplicity
 _atom_site_fract_x
 _atom_site_fract_y
 _atom_site_fract_z
 _atom_site_occupancy
  Hf  Hf0  1  0.33333300  0.66666700  0.43897500  1
  Hf  Hf1  1  0.66666700  0.33333300  0.56102500  1
  Hf  Hf2  1  0.66666700  0.33333300  0.93897500  1
  Hf  Hf3  1  0.33333300  0.66666700  0.06102500  1
  V  V0  1  0.82206400  0.17793600  0.25000000  1
  V  V1  1  0.82206400  0.64412800  0.25000000  1
  V  V2  1  0.35587200  0.17793600  0.25000000  1
  V  V3  1  0.17793600  0.82206400  0.75000000  1
  V  V4  1  0.17793600  0.35587200  0.75000000  1
  V  V5  1  0.64412800  0.82206400  0.75000000  1
  Ge  Ge0  1  0.00000000  0.00000000  0.50000000  1
  Ge  Ge1  1  0.00000000  0.00000000  0.00000000  1
loop_
_geom_bond_atom_site_label_1
_geom_bond_atom_site_label_2
_geom_bond_distance
_geom_bond_site_symmetry_2
Hf0 V3 3.004952 1_555
Hf0 V5 3.004954 1_555
Hf0 V4 3.004954 1_555
Hf0 V2 3.045607 1_565
Hf0 V1 3.045607 1_455
Hf0 V0 3.045609 1_565
Hf0 V0 3.045609 1_455
Hf0 V2 3.045612 1_555
Hf0 V1 3.045612 1_555
Hf1 V0 3.004952 1_555
Hf1 V1 3.004954 1_555
Hf1 V2 3.004954 1_555
Hf1 V4 3.045607 1_655
Hf1 V5 3.045607 1_545
Hf1 V3 3.045609 1_655
Hf1 V3 3.045609 1_545
Hf1 V4 3.045612 1_555
Hf1 V5 3.045612 1_555
Hf2 V0 3.004952 1_556
Hf2 V1 3.004954 1_556
Hf2 V2 3.004954 1_556
Hf2 V4 3.045607 1_655
Hf2 V5 3.045607 1_545
Hf2 V3 3.045609 1_655
Hf2 V3 3.045609 1_545
Hf2 V4 3.045612 1_555
Hf2 V5 3.045612 1_555
Hf3 V3 3.004952 1_554
Hf3 V5 3.004954 1_554
Hf3 V4 3.004954 1_554
Hf3 V2 3.045607 1_565
Hf3 V1 3.045607 1_455
Hf3 V0 3.045609 1_565
Hf3 V0 3.045609 1_455
Hf3 V2 3.045612 1_555
Hf3 V1 3.045612 1_555
V0 V1 2.403089 1_555
V0 V2 2.403089 1_555
V0 V2 2.751631 1_655
V0 V1 2.751631 1_545
V1 V2 2.403089 1_555
V1 V2 2.751631 1_665
V3 V5 2.403089 1_555
V3 V4 2.403089 1_555
V3 V4 2.751631 1_565
V3 V5 2.751631 1_455
V4 V5 2.403089 1_555
V4 V5 2.751631 1_445
Ge0 V2 2.667232 1_555
Ge0 V4 2.667232 1_555
Ge0 V5 2.667232 1_445
Ge0 V1 2.667232 1_445
Ge0 V0 2.667232 1_455
Ge0 V3 2.667232 1_545
Ge0 Hf1 3.021679 1_455
Ge0 Hf0 3.021679 1_545
Ge0 Hf1 3.021683 1_445
Ge0 Hf0 3.021683 1_445
Ge0 Hf1 3.021683 1_555
Ge0 Hf0 3.021683 1_555
Ge1 V2 2.667232 1_555
Ge1 V4 2.667232 1_554
Ge1 V1 2.667232 1_445
Ge1 V5 2.667232 1_444
Ge1 V0 2.667232 1_455
Ge1 V3 2.667232 1_544
Ge1 Hf3 3.021679 1_545
Ge1 Hf2 3.021679 1_454
Ge1 Hf3 3.021683 1_445
Ge1 Hf3 3.021683 1_555
Ge1 Hf2 3.021683 1_554
Ge1 Hf2 3.021683 1_444
