# generated using pymatgen
data_Mg6BiMo
_symmetry_space_group_name_H-M   'P 1'
_cell_length_a   5.12953800
_cell_length_b   6.19756300
_cell_length_c   10.93013800
_cell_angle_alpha   90.00000000
_cell_angle_beta   90.00000000
_cell_angle_gamma   90.00000000
_symmetry_Int_Tables_number   1
_chemical_formula_structural   Mg6BiMo
_chemical_formula_sum   'Mg12 Bi2 Mo2'
_cell_volume   347.47602674
_cell_formula_units_Z   2
loop_
 _symmetry_equiv_pos_site_id
 _symmetry_equiv_pos_as_xyz
  1  'x, y, z'
loop_
 _atom_site_type_symbol
 _atom_site_label
 _atom_site_symmetry_multiplicity
 _atom_site_fract_x
 _atom_site_fract_y
 _atom_site_fract_z
 _atom_site_occupancy
  Mg  Mg0  1  0.50000000  0.24808200  0.41669600  1
  Mg  Mg1  1  0.50000000  0.75191800  0.41669600  1
  Mg  Mg2  1  0.00000000  0.76613500  0.08349800  1
  Mg  Mg3  1  0.00000000  0.23386500  0.08349800  1
  Mg  Mg4  1  0.00000000  0.00000000  0.32673200  1
  Mg  Mg5  1  0.00000000  0.50000000  0.33839400  1
  Mg  Mg6  1  0.50000000  0.74808200  0.91669600  1
  Mg  Mg7  1  0.50000000  0.25191800  0.91669600  1
  Mg  Mg8  1  0.00000000  0.26613500  0.58349800  1
  Mg  Mg9  1  0.00000000  0.73386500  0.58349800  1
  Mg  Mg10  1  0.00000000  0.50000000  0.82673200  1
  Mg  Mg11  1  0.00000000  0.00000000  0.83839400  1
  Bi  Bi0  1  0.50000000  0.50000000  0.16850600  1
  Bi  Bi1  1  0.50000000  0.00000000  0.66850600  1
  Mo  Mo0  1  0.50000000  0.00000000  0.16597600  1
  Mo  Mo1  1  0.50000000  0.50000000  0.66597600  1
loop_
_geom_bond_atom_site_label_1
_geom_bond_atom_site_label_2
_geom_bond_distance
_geom_bond_site_symmetry_2
Mg0 Mg1 3.075008 1_545
Mg0 Mg5 3.122196 1_655
Mg0 Mg5 3.122196 1_555
Mg0 Mg1 3.122555 1_555
Mg0 Mo1 3.140284 1_555
Mg0 Mo0 3.142250 1_555
Mg0 Mg4 3.147836 1_655
Mg0 Mg4 3.147836 1_555
Mg0 Mg8 3.148730 1_555
Mg0 Mg8 3.148730 1_655
Mg1 Mg5 3.122196 1_655
Mg1 Mg5 3.122196 1_555
Mg1 Mo1 3.140284 1_555
Mg1 Mo0 3.142250 1_565
Mg1 Mg4 3.147836 1_565
Mg1 Mg4 3.147836 1_665
Mg1 Mg9 3.148730 1_655
Mg1 Mg9 3.148730 1_555
Mg2 Mg3 2.898786 1_565
Mg2 Mg4 3.028002 1_565
Mg2 Mo0 3.080824 1_465
Mg2 Mo0 3.080824 1_565
Mg2 Mg6 3.148730 1_454
Mg2 Mg6 3.148730 1_554
Mg2 Mg5 3.237676 1_555
Mg2 Mg3 3.298777 1_555
Mg3 Mg4 3.028002 1_555
Mg3 Mo0 3.080824 1_555
Mg3 Mo0 3.080824 1_455
Mg3 Mg7 3.148730 1_554
Mg3 Mg7 3.148730 1_454
Mg3 Mg5 3.237676 1_555
Mg4 Mg5 3.101402 1_545
Mg4 Mg5 3.101402 1_555
Mg4 Mo0 3.108921 1_455
Mg4 Mo0 3.108921 1_555
Mg4 Mg9 3.255281 1_545
Mg4 Mg8 3.255281 1_555
Mg5 Mg9 3.045963 1_555
Mg5 Mg8 3.045963 1_555
Mg6 Mg7 3.075008 1_555
Mg6 Mg7 3.122555 1_565
Mg6 Mo0 3.140284 1_566
Mg6 Mo1 3.142250 1_555
Mg7 Mo0 3.140284 1_556
Mg7 Mo1 3.142250 1_555
Mg8 Mg9 2.898786 1_555
Mg8 Mo1 3.080824 1_555
Mg8 Mo1 3.080824 1_455
Mg8 Mg9 3.298777 1_545
Mg9 Mo1 3.080824 1_555
Mg9 Mo1 3.080824 1_455
Mg10 Mg8 3.028002 1_555
Mg10 Mg9 3.028002 1_555
Mg10 Mg11 3.101402 1_565
Mg10 Mg11 3.101402 1_555
Mg10 Mo1 3.108921 1_555
Mg10 Mo1 3.108921 1_455
Mg10 Mg7 3.147836 1_555
Mg10 Mg6 3.147836 1_455
Mg10 Mg6 3.147836 1_555
Mg10 Mg7 3.147836 1_455
Mg10 Mg3 3.255281 1_556
Mg10 Mg2 3.255281 1_556
Mg11 Mg3 3.045963 1_556
Mg11 Mg2 3.045963 1_546
Mg11 Mg7 3.122196 1_555
Mg11 Mg6 3.122196 1_445
Mg11 Mg7 3.122196 1_455
Mg11 Mg6 3.122196 1_545
Mg11 Mg9 3.237676 1_545
Mg11 Mg8 3.237676 1_555
Bi0 Mo0 3.098905 1_565
Bi0 Mo0 3.098905 1_555
Bi0 Mg0 3.129953 1_555
Bi0 Mg1 3.129953 1_555
Bi0 Mg6 3.152645 1_554
Bi0 Mg7 3.152645 1_554
Bi0 Mg5 3.166404 1_655
Bi0 Mg5 3.166404 1_555
Bi0 Mg2 3.187764 1_555
Bi0 Mg2 3.187764 1_655
Bi0 Mg3 3.187764 1_555
Bi0 Mg3 3.187764 1_655
Bi1 Mo1 3.098905 1_545
Bi1 Mo1 3.098905 1_555
Bi1 Mg6 3.129953 1_545
Bi1 Mg7 3.129953 1_555
Bi1 Mg1 3.152645 1_545
Bi1 Mg0 3.152645 1_555
Bi1 Mg11 3.166404 1_555
Bi1 Mg11 3.166404 1_655
Bi1 Mg9 3.187764 1_545
Bi1 Mg8 3.187764 1_555
Bi1 Mg9 3.187764 1_645
Bi1 Mg8 3.187764 1_655
