# generated using pymatgen
data_ZnH6Cl2O3
_symmetry_space_group_name_H-M   'P 1'
_cell_length_a   6.71840000
_cell_length_b   6.74843496
_cell_length_c   14.42353164
_cell_angle_alpha   90.44547209
_cell_angle_beta   100.96910246
_cell_angle_gamma   96.98690113
_symmetry_Int_Tables_number   1
_chemical_formula_structural   ZnH6Cl2O3
_chemical_formula_sum   'Zn4 H24 Cl8 O12'
_cell_volume   636.90799302
_cell_formula_units_Z   4
loop_
 _symmetry_equiv_pos_site_id
 _symmetry_equiv_pos_as_xyz
  1  'x, y, z'
loop_
 _atom_site_type_symbol
 _atom_site_label
 _atom_site_symmetry_multiplicity
 _atom_site_fract_x
 _atom_site_fract_y
 _atom_site_fract_z
 _atom_site_occupancy
  Zn  Zn0  1  0.88608600  0.10098800  0.75920600  1
  Zn  Zn1  1  0.11391400  0.89901200  0.24079400  1
  Zn  Zn2  1  0.50000000  0.50000000  0.00000000  1
  Zn  Zn3  1  0.50000000  0.50000000  0.50000000  1
  H  H0  1  0.84590900  0.75737900  0.00469000  1
  H  H1  1  0.15409100  0.24262100  0.99531000  1
  H  H2  1  0.83803300  0.59068600  0.92435400  1
  H  H3  1  0.16196700  0.40931400  0.07564600  1
  H  H4  1  0.76427300  0.44558700  0.16137500  1
  H  H5  1  0.23572700  0.55441300  0.83862500  1
  H  H6  1  0.55249000  0.32222100  0.16905600  1
  H  H7  1  0.44751000  0.67777900  0.83094400  1
  H  H8  1  0.53455900  0.15002100  0.89718300  1
  H  H9  1  0.46544100  0.84997900  0.10281700  1
  H  H10  1  0.66978800  0.14597800  0.00036700  1
  H  H11  1  0.33021200  0.85402200  0.99963300  1
  H  H12  1  0.46637400  0.60975700  0.31623100  1
  H  H13  1  0.53362600  0.39024300  0.68376900  1
  H  H14  1  0.68202600  0.71240300  0.36913300  1
  H  H15  1  0.31797400  0.28759700  0.63086700  1
  H  H16  1  0.84439800  0.54856500  0.63008700  1
  H  H17  1  0.15560200  0.45143500  0.36991300  1
  H  H18  1  0.83982700  0.74658400  0.57366400  1
  H  H19  1  0.16017300  0.25341600  0.42633600  1
  H  H20  1  0.70462500  0.16461000  0.50860800  1
  H  H21  1  0.29537500  0.83539000  0.49139200  1
  H  H22  1  0.56213600  0.16229400  0.40728300  1
  H  H23  1  0.43786400  0.83770600  0.59271700  1
  Cl  Cl0  1  0.08810400  0.98315000  0.88566200  1
  Cl  Cl1  1  0.91189600  0.01685000  0.11433800  1
  Cl  Cl2  1  0.88220200  0.44472000  0.77664400  1
  Cl  Cl3  1  0.11779800  0.55528000  0.22335600  1
  Cl  Cl4  1  0.55341200  0.95889200  0.75186400  1
  Cl  Cl5  1  0.44658800  0.04110800  0.24813600  1
  Cl  Cl6  1  0.98166200  0.06121400  0.61721600  1
  Cl  Cl7  1  0.01833800  0.93878600  0.38278400  1
  O  O0  1  0.79248500  0.61908000  0.98318900  1
  O  O1  1  0.20751500  0.38092000  0.01681100  1
  O  O2  1  0.61551400  0.44178500  0.14186000  1
  O  O3  1  0.38448600  0.55821500  0.85814000  1
  O  O4  1  0.56877100  0.21670700  0.95984400  1
  O  O5  1  0.43122900  0.78329300  0.04015600  1
  O  O6  1  0.57801300  0.59751800  0.36969900  1
  O  O7  1  0.42198700  0.40248200  0.63030100  1
  O  O8  1  0.79866900  0.60091200  0.56690800  1
  O  O9  1  0.20133100  0.39908800  0.43309200  1
  O  O10  1  0.58026600  0.21183700  0.47299500  1
  O  O11  1  0.41973400  0.78816300  0.52700500  1
loop_
_geom_bond_atom_site_label_1
_geom_bond_atom_site_label_2
_geom_bond_distance
_geom_bond_site_symmetry_2
H0 O0 0.983715 1_554
H1 O1 0.983715 1_556
H2 O0 0.980335 1_555
H3 O1 0.980335 1_555
H4 O2 0.982510 1_555
H5 O3 0.982510 1_555
H6 O2 0.984483 1_555
H7 O3 0.984483 1_555
H8 O4 0.980638 1_555
H9 O5 0.980638 1_555
H10 O4 0.980935 1_554
H11 O5 0.980935 1_556
H12 O6 0.979825 1_555
H13 O7 0.979825 1_555
H14 O6 0.979762 1_555
H15 O7 0.979762 1_555
H16 O8 0.987142 1_555
H17 O9 0.987142 1_555
H18 O8 0.987159 1_555
H19 O9 0.987159 1_555
H20 O10 0.983606 1_555
H21 O11 0.983606 1_555
H22 O10 0.982941 1_555
H23 O11 0.982941 1_555
Cl0 Zn0 2.268102 1_465
Cl1 Zn1 2.268102 1_645
Cl2 Zn0 2.335141 1_555
Cl3 Zn1 2.335141 1_555
Cl4 Zn0 2.305011 1_565
Cl5 Zn1 2.305011 1_545
Cl6 Zn0 2.283088 1_555
Cl7 Zn1 2.283088 1_555
O0 Zn2 2.089522 1_556
O1 Zn2 2.089522 1_555
O2 Zn2 2.103713 1_555
O3 Zn2 2.103713 1_556
O4 Zn2 2.122115 1_556
O5 Zn2 2.122115 1_555
O6 Zn3 2.133101 1_555
O7 Zn3 2.133101 1_555
O8 Zn3 2.083708 1_555
O9 Zn3 2.083708 1_555
O10 Zn3 2.132477 1_555
O11 Zn3 2.132477 1_555
