# generated using pymatgen
data_UCrCuSi2
_symmetry_space_group_name_H-M   'P 1'
_cell_length_a   5.88156557
_cell_length_b   5.88156557
_cell_length_c   5.88156557
_cell_angle_alpha   140.84461528
_cell_angle_beta   140.84461528
_cell_angle_gamma   56.57308806
_symmetry_Int_Tables_number   1
_chemical_formula_structural   UCrCuSi2
_chemical_formula_sum   'U1 Cr1 Cu1 Si2'
_cell_volume   80.46764133
_cell_formula_units_Z   1
loop_
 _symmetry_equiv_pos_site_id
 _symmetry_equiv_pos_as_xyz
  1  'x, y, z'
loop_
 _atom_site_type_symbol
 _atom_site_label
 _atom_site_symmetry_multiplicity
 _atom_site_fract_x
 _atom_site_fract_y
 _atom_site_fract_z
 _atom_site_occupancy
  U  U0  1  0.00000000  0.00000000  0.00000000  1
  Cr  Cr0  1  0.25000000  0.75000000  0.50000000  1
  Cu  Cu0  1  0.75000000  0.25000000  0.50000000  1
  Si  Si0  1  0.61474100  0.61474100  0.00000000  1
  Si  Si1  1  0.38525900  0.38525900  0.00000000  1
loop_
_geom_bond_atom_site_label_1
_geom_bond_atom_site_label_2
_geom_bond_distance
_geom_bond_site_symmetry_2
Cr0 Si1 2.418091 1_566
Cr0 Si0 2.418091 1_455
Cr0 Si0 2.418091 1_556
Cr0 Si1 2.418091 1_555
Cr0 Cu0 2.787165 1_566
Cr0 Cu0 2.787165 1_465
Cr0 Cu0 2.787165 1_454
Cr0 Cu0 2.787165 1_555
Cr0 U0 3.254270 1_565
Cr0 U0 3.254270 1_555
Cr0 U0 3.254270 1_566
Cr0 U0 3.254270 1_666
Cu0 Si1 2.418091 1_555
Cu0 Si0 2.418091 1_545
Cu0 Si1 2.418091 1_656
Cu0 Si0 2.418091 1_556
Cu0 U0 3.254270 1_655
Cu0 U0 3.254270 1_555
Cu0 U0 3.254270 1_656
Cu0 U0 3.254270 1_666
Si0 Si1 2.377085 1_555
Si0 U0 3.030003 1_655
Si0 U0 3.030003 1_565
Si0 U0 3.030003 1_554
Si0 U0 3.030003 1_666
Si1 U0 3.030003 1_655
Si1 U0 3.030003 1_565
Si1 U0 3.030003 1_554
Si1 U0 3.030003 1_666
