# generated using pymatgen
data_Ca2GeO4
_symmetry_space_group_name_H-M   'P 1'
_cell_length_a   5.80323171
_cell_length_b   5.80323171
_cell_length_c   6.86051100
_cell_angle_alpha   90.00000000
_cell_angle_beta   90.00000000
_cell_angle_gamma   119.99999668
_symmetry_Int_Tables_number   1
_chemical_formula_structural   Ca2GeO4
_chemical_formula_sum   'Ca4 Ge2 O8'
_cell_volume   200.09071388
_cell_formula_units_Z   2
loop_
 _symmetry_equiv_pos_site_id
 _symmetry_equiv_pos_as_xyz
  1  'x, y, z'
loop_
 _atom_site_type_symbol
 _atom_site_label
 _atom_site_symmetry_multiplicity
 _atom_site_fract_x
 _atom_site_fract_y
 _atom_site_fract_z
 _atom_site_occupancy
  Ca  Ca0  1  0.66666700  0.33333300  0.36537200  1
  Ca  Ca1  1  0.33333300  0.66666700  0.63462800  1
  Ca  Ca2  1  0.00000000  0.00000000  0.50000000  1
  Ca  Ca3  1  0.00000000  0.00000000  0.00000000  1
  Ge  Ge0  1  0.66666700  0.33333300  0.81229500  1
  Ge  Ge1  1  0.33333300  0.66666700  0.18770500  1
  O  O0  1  0.66666700  0.33333300  0.06200900  1
  O  O1  1  0.33333300  0.66666700  0.93799100  1
  O  O2  1  0.34588600  0.17294300  0.70390500  1
  O  O3  1  0.82705700  0.65411400  0.70390500  1
  O  O4  1  0.82705700  0.17294300  0.70390500  1
  O  O5  1  0.65411400  0.82705700  0.29609500  1
  O  O6  1  0.17294300  0.34588600  0.29609500  1
  O  O7  1  0.17294300  0.82705700  0.29609500  1
loop_
_geom_bond_atom_site_label_1
_geom_bond_atom_site_label_2
_geom_bond_distance
_geom_bond_site_symmetry_2
Ca0 O0 2.081225 1_555
Ca0 O4 2.827208 1_555
Ca0 O3 2.827211 1_555
Ca0 O2 2.827211 1_555
Ca0 O6 2.940956 1_655
Ca0 O5 2.940956 1_545
Ca0 O7 2.940959 1_655
Ca0 O7 2.940959 1_545
Ca0 O5 2.940962 1_555
Ca0 O6 2.940962 1_555
Ca1 O1 2.081225 1_555
Ca1 O7 2.827208 1_555
Ca1 O5 2.827211 1_555
Ca1 O6 2.827211 1_555
Ca1 O2 2.940956 1_565
Ca1 O3 2.940956 1_455
Ca1 O4 2.940959 1_565
Ca1 O4 2.940959 1_455
Ca1 O3 2.940962 1_555
Ca1 O2 2.940962 1_555
Ca2 O7 2.231302 1_545
Ca2 O4 2.231302 1_455
Ca2 O2 2.231302 1_555
Ca2 O6 2.231302 1_555
Ca2 O3 2.231302 1_445
Ca2 O5 2.231302 1_445
Ca3 O7 2.673620 1_545
Ca3 O4 2.673620 1_454
Ca3 O2 2.673620 1_554
Ca3 O6 2.673620 1_555
Ca3 O5 2.673620 1_445
Ca3 O3 2.673620 1_444
Ge0 O0 1.713166 1_556
Ge0 O4 1.775391 1_555
Ge0 O3 1.775396 1_555
Ge0 O2 1.775396 1_555
Ge1 O1 1.713166 1_554
Ge1 O7 1.775391 1_555
Ge1 O5 1.775396 1_555
Ge1 O6 1.775396 1_555
