# generated using pymatgen
data_Mn5CrO8
_symmetry_space_group_name_H-M   'P 1'
_cell_length_a   6.11897248
_cell_length_b   6.11897248
_cell_length_c   5.87570078
_cell_angle_alpha   61.61149065
_cell_angle_beta   61.61149065
_cell_angle_gamma   57.12298206
_symmetry_Int_Tables_number   1
_chemical_formula_structural   Mn5CrO8
_chemical_formula_sum   'Mn5 Cr1 O8'
_cell_volume   155.35020148
_cell_formula_units_Z   1
loop_
 _symmetry_equiv_pos_site_id
 _symmetry_equiv_pos_as_xyz
  1  'x, y, z'
loop_
 _atom_site_type_symbol
 _atom_site_label
 _atom_site_symmetry_multiplicity
 _atom_site_fract_x
 _atom_site_fract_y
 _atom_site_fract_z
 _atom_site_occupancy
  Mn  Mn0  1  0.62817641  0.62817641  0.11678557  1
  Mn  Mn1  1  0.37182359  0.37182359  0.88321443  1
  Mn  Mn2  1  0.00000000  0.00000000  -0.00000000  1
  Mn  Mn3  1  0.50000000  0.00000000  0.50000000  1
  Mn  Mn4  1  0.00000000  0.50000000  0.50000000  1
  Cr  Cr0  1  0.00000000  0.00000000  0.50000000  1
  O  O0  1  0.22326507  0.22326507  0.29726652  1
  O  O1  1  0.25101007  0.25101007  0.71359164  1
  O  O2  1  0.74898993  0.74898993  0.28640836  1
  O  O3  1  0.77673493  0.77673493  0.70273348  1
  O  O4  1  0.22870478  0.78155674  0.75200820  1
  O  O5  1  0.78155674  0.22870478  0.75200820  1
  O  O6  1  0.21844326  0.77129522  0.24799180  1
  O  O7  1  0.77129522  0.21844326  0.24799180  1
loop_
_geom_bond_atom_site_label_1
_geom_bond_atom_site_label_2
_geom_bond_distance
_geom_bond_site_symmetry_2
Mn0 O7 2.016774 1_555
Mn0 O6 2.016774 1_555
Mn0 O2 2.020107 1_555
Mn0 O3 2.064624 1_554
Mn1 O4 2.016774 1_555
Mn1 O5 2.016774 1_555
Mn1 O1 2.020107 1_555
Mn1 O0 2.064624 1_556
Mn2 O4 1.936609 1_544
Mn2 O5 1.936609 1_454
Mn2 O7 1.936609 1_455
Mn2 O6 1.936609 1_545
Mn2 O1 2.279401 1_554
Mn2 O2 2.279401 1_445
Mn3 O1 1.931197 1_555
Mn3 O2 1.931197 1_545
Mn3 O3 2.002939 1_545
Mn3 O0 2.002939 1_555
Mn3 O7 2.219132 1_555
Mn3 O4 2.219132 1_545
Mn4 O1 1.931197 1_555
Mn4 O2 1.931197 1_455
Mn4 O0 2.002939 1_555
Mn4 O3 2.002939 1_455
Mn4 O6 2.219132 1_555
Mn4 O5 2.219132 1_455
Cr0 O5 1.998798 1_455
Cr0 O4 1.998798 1_545
Cr0 O6 1.998798 1_545
Cr0 O7 1.998798 1_455
Cr0 O3 2.020663 1_445
Cr0 O0 2.020663 1_555
