# generated using pymatgen
data_SrC4(SO)4
_symmetry_space_group_name_H-M   'P 1'
_cell_length_a   8.02394400
_cell_length_b   11.14849500
_cell_length_c   11.31872400
_cell_angle_alpha   90.00000000
_cell_angle_beta   90.00000000
_cell_angle_gamma   90.00000000
_symmetry_Int_Tables_number   1
_chemical_formula_structural   SrC4(SO)4
_chemical_formula_sum   'Sr4 C16 S16 O16'
_cell_volume   1012.51531862
_cell_formula_units_Z   4
loop_
 _symmetry_equiv_pos_site_id
 _symmetry_equiv_pos_as_xyz
  1  'x, y, z'
loop_
 _atom_site_type_symbol
 _atom_site_label
 _atom_site_symmetry_multiplicity
 _atom_site_fract_x
 _atom_site_fract_y
 _atom_site_fract_z
 _atom_site_occupancy
  Sr  Sr0  1  0.67540000  0.26274700  0.75000000  1
  Sr  Sr1  1  0.17540000  0.23725300  0.75000000  1
  Sr  Sr2  1  0.32460000  0.73725300  0.25000000  1
  Sr  Sr3  1  0.82460000  0.76274700  0.25000000  1
  C  C0  1  0.95675000  0.59784800  0.81281100  1
  C  C1  1  0.45675100  0.90215200  0.68718900  1
  C  C2  1  0.04325000  0.40215200  0.31281100  1
  C  C3  1  0.54325000  0.09784800  0.18718900  1
  C  C4  1  0.04325000  0.40215200  0.18718900  1
  C  C5  1  0.54325000  0.09784800  0.31281100  1
  C  C6  1  0.95675000  0.59784800  0.68718900  1
  C  C7  1  0.45675100  0.90215200  0.81281100  1
  C  C8  1  0.93808200  0.72888000  0.81513000  1
  C  C9  1  0.43808200  0.77112000  0.68487000  1
  C  C10  1  0.06191800  0.27112000  0.31513000  1
  C  C11  1  0.56191800  0.22888000  0.18487000  1
  C  C12  1  0.06191800  0.27112000  0.18487000  1
  C  C13  1  0.56191800  0.22888000  0.31513000  1
  C  C14  1  0.93808200  0.72888000  0.68487000  1
  C  C15  1  0.43808200  0.77112000  0.81513000  1
  S  S0  1  0.95853600  0.46957700  0.89718500  1
  S  S1  1  0.45853600  0.03042300  0.60281500  1
  S  S2  1  0.04146400  0.53042300  0.39718500  1
  S  S3  1  0.54146400  0.96957700  0.10281500  1
  S  S4  1  0.04146400  0.53042300  0.10281500  1
  S  S5  1  0.54146400  0.96957700  0.39718500  1
  S  S6  1  0.95853600  0.46957700  0.60281500  1
  S  S7  1  0.45853600  0.03042300  0.89718500  1
  S  S8  1  0.90734500  0.83479000  0.91523000  1
  S  S9  1  0.40734500  0.66521000  0.58477000  1
  S  S10  1  0.09265500  0.16521000  0.41523000  1
  S  S11  1  0.59265500  0.33479000  0.08477000  1
  S  S12  1  0.09265500  0.16521000  0.08477000  1
  S  S13  1  0.59265500  0.33479000  0.41523000  1
  S  S14  1  0.90734500  0.83479000  0.58477000  1
  S  S15  1  0.40734500  0.66521000  0.91523000  1
  O  O0  1  0.41403100  0.38885100  0.75000000  1
  O  O1  1  0.91403100  0.11114900  0.75000000  1
  O  O2  1  0.58596900  0.61114900  0.25000000  1
  O  O3  1  0.08596900  0.88885100  0.25000000  1
  O  O4  1  0.94065600  0.39123400  0.75000000  1
  O  O5  1  0.44065600  0.10876600  0.75000000  1
  O  O6  1  0.05934400  0.60876600  0.25000000  1
  O  O7  1  0.55934400  0.89123400  0.25000000  1
  O  O8  1  0.10489200  0.22469300  0.96432000  1
  O  O9  1  0.60489200  0.27530700  0.53568000  1
  O  O10  1  0.89510800  0.77530700  0.46432000  1
  O  O11  1  0.39510800  0.72469300  0.03568000  1
  O  O12  1  0.89510800  0.77530700  0.03568000  1
  O  O13  1  0.39510800  0.72469300  0.46432000  1
  O  O14  1  0.10489200  0.22469300  0.53568000  1
  O  O15  1  0.60489200  0.27530700  0.96432000  1
loop_
_geom_bond_atom_site_label_1
_geom_bond_atom_site_label_2
_geom_bond_distance
_geom_bond_site_symmetry_2
C0 C6 1.421881 1_555
C0 C8 1.468704 1_555
C0 S0 1.719658 1_555
C1 C7 1.421881 1_555
C1 C9 1.468705 1_555
C1 S1 1.719658 1_565
C2 C4 1.421881 1_555
C2 S2 1.719658 1_555
C3 C5 1.421881 1_555
C3 S3 1.719658 1_545
C4 S4 1.719658 1_555
C5 S5 1.719658 1_545
C6 S6 1.719658 1_555
C7 S7 1.719658 1_565
C8 S8 1.654892 1_555
C9 S9 1.654892 1_555
C10 C2 1.468704 1_555
C10 C12 1.474377 1_555
C10 S10 1.654892 1_555
C11 C3 1.468704 1_555
C11 C13 1.474377 1_555
C11 S11 1.654892 1_555
C12 C4 1.468704 1_555
C12 S12 1.654892 1_555
C13 C5 1.468704 1_555
C13 S13 1.654892 1_555
C14 C6 1.468704 1_555
C14 C8 1.474377 1_555
C14 S14 1.654892 1_555
C15 C7 1.468705 1_555
C15 C9 1.474377 1_555
C15 S15 1.654892 1_555
O0 Sr0 2.524829 1_555
O0 Sr1 2.553961 1_555
O1 Sr1 2.524829 1_655
O1 Sr0 2.553961 1_555
O2 Sr2 2.524829 1_555
O2 Sr3 2.553961 1_555
O3 Sr3 2.524829 1_455
O3 Sr2 2.553961 1_555
O4 S0 1.886478 1_555
O4 S6 1.886478 1_555
O4 Sr1 2.548481 1_655
O4 Sr0 2.565533 1_555
O5 S1 1.886478 1_555
O5 S7 1.886478 1_555
O5 Sr0 2.548481 1_555
O5 Sr1 2.565533 1_555
O6 S2 1.886478 1_555
O6 S4 1.886478 1_555
O6 Sr3 2.548481 1_455
O6 Sr2 2.565533 1_555
O7 S5 1.886478 1_555
O7 S3 1.886478 1_555
O7 Sr2 2.548481 1_555
O7 Sr3 2.565533 1_555
O8 S12 1.519243 1_556
O8 Sr1 2.494860 1_555
O9 S13 1.519243 1_555
O9 Sr0 2.494860 1_555
O10 S14 1.519243 1_555
O10 Sr3 2.494860 1_555
O11 S15 1.519243 1_554
O11 Sr2 2.494860 1_555
O12 S8 1.519243 1_554
O12 Sr3 2.494860 1_555
O13 S9 1.519243 1_555
O13 Sr2 2.494860 1_555
O14 S10 1.519243 1_555
O14 Sr1 2.494860 1_555
O15 S11 1.519243 1_556
O15 Sr0 2.494860 1_555
