# generated using pymatgen
data_Li7Mn4CoO12
_symmetry_space_group_name_H-M   'P 1'
_cell_length_a   3.01354700
_cell_length_b   6.46379785
_cell_length_c   12.09270724
_cell_angle_alpha   102.68539209
_cell_angle_beta   94.56957388
_cell_angle_gamma   103.32761828
_symmetry_Int_Tables_number   1
_chemical_formula_structural   Li7Mn4CoO12
_chemical_formula_sum   'Li7 Mn4 Co1 O12'
_cell_volume   221.49841562
_cell_formula_units_Z   1
loop_
 _symmetry_equiv_pos_site_id
 _symmetry_equiv_pos_as_xyz
  1  'x, y, z'
loop_
 _atom_site_type_symbol
 _atom_site_label
 _atom_site_symmetry_multiplicity
 _atom_site_fract_x
 _atom_site_fract_y
 _atom_site_fract_z
 _atom_site_occupancy
  Li  Li0  1  0.00826700  0.99814700  0.24885400  1
  Li  Li1  1  0.34462300  0.66436200  0.57339500  1
  Li  Li2  1  0.67340500  0.34814900  0.41544100  1
  Li  Li3  1  0.99312500  0.99889900  0.75439500  1
  Li  Li4  1  0.66230300  0.33463800  0.91840200  1
  Li  Li5  1  0.32052700  0.65566400  0.08419800  1
  Li  Li6  1  0.31596600  0.65970000  0.33942700  1
  Mn  Mn0  1  0.99867000  0.00578100  0.00409000  1
  Mn  Mn1  1  0.99881300  0.98807100  0.49293500  1
  Mn  Mn2  1  0.67906900  0.33445600  0.66292800  1
  Mn  Mn3  1  0.33632000  0.66761900  0.83400300  1
  Co  Co0  1  0.66301500  0.34772700  0.17550500  1
  O  O0  1  0.48306400  0.02515400  0.12681300  1
  O  O1  1  0.83821900  0.68931400  0.46227300  1
  O  O2  1  0.13249700  0.33004300  0.28032700  1
  O  O3  1  0.53494300  0.01077200  0.60913200  1
  O  O4  1  0.14490100  0.34386400  0.78803400  1
  O  O5  1  0.80921300  0.68349600  0.95839300  1
  O  O6  1  0.47391400  0.99863300  0.39101200  1
  O  O7  1  0.86203600  0.65585400  0.71184200  1
  O  O8  1  0.19630700  0.31784000  0.54333500  1
  O  O9  1  0.52577700  0.98971200  0.87695300  1
  O  O10  1  0.18505100  0.32093700  0.04723900  1
  O  O11  1  0.81997600  0.63116700  0.20107200  1
loop_
_geom_bond_atom_site_label_1
_geom_bond_atom_site_label_2
_geom_bond_distance
_geom_bond_site_symmetry_2
Li0 O2 2.033660 1_565
Li0 O6 2.129686 1_555
Li0 O0 2.140523 1_465
Li0 O0 2.142473 1_565
Li0 O11 2.237826 1_455
Li0 O6 2.447312 1_455
Li1 O1 2.010603 1_455
Li1 O1 2.085035 1_555
Li1 O3 2.114906 1_565
Li1 O8 2.122215 1_555
Li1 O7 2.213874 1_555
Li1 O7 2.304880 1_455
Li2 O1 2.081377 1_555
Li2 O6 2.145946 1_545
Li2 O2 2.178088 1_555
Li2 O8 2.191004 1_655
Li2 O8 2.203400 1_555
Li2 O2 2.224459 1_655
Li3 O7 2.097672 1_555
Li3 O4 2.109123 1_665
Li3 O9 2.116633 1_655
Li3 O9 2.125141 1_555
Li3 O3 2.172483 1_565
Li3 O3 2.493208 1_665
Li4 O9 2.108257 1_545
Li4 O5 2.131044 1_555
Li4 O4 2.147686 1_555
Li4 O10 2.156541 1_656
Li4 O10 2.205122 1_556
Li4 O4 2.229490 1_655
Li5 O11 2.038906 1_555
Li5 O10 2.046121 1_555
Li5 O5 2.143724 1_454
Li5 O11 2.150765 1_455
Li5 O5 2.206946 1_554
Li5 O0 2.255970 1_565
Li6 O2 2.020387 1_555
Li6 O1 2.020918 1_555
Li6 O6 2.070503 1_555
Li6 O11 2.099106 1_455
Li6 O1 2.158518 1_455
Li6 O11 2.353444 1_555
Mn0 O10 1.922625 1_655
Mn0 O0 1.959049 1_655
Mn0 O5 1.966417 1_544
Mn0 O9 1.979360 1_544
Mn0 O0 2.237836 1_555
Mn0 O9 2.300598 1_644
Mn1 O1 1.823985 1_555
Mn1 O6 1.949869 1_555
Mn1 O6 1.961307 1_655
Mn1 O3 2.011141 1_665
Mn1 O8 2.013944 1_665
Mn1 O3 2.065681 1_565
Mn2 O8 1.934956 1_555
Mn2 O4 1.960863 1_655
Mn2 O7 1.962126 1_555
Mn2 O3 1.981795 1_555
Mn2 O8 2.213775 1_655
Mn2 O4 2.297065 1_555
Mn3 O7 1.948082 1_455
Mn3 O5 1.956339 1_555
Mn3 O9 1.964698 1_555
Mn3 O4 1.975487 1_555
Mn3 O7 2.253243 1_555
Mn3 O5 2.276945 1_455
Co0 O11 1.733291 1_555
Co0 O2 1.863852 1_655
Co0 O0 1.968966 1_555
Co0 O10 1.980293 1_555
Co0 O2 2.116150 1_555
Co0 O10 2.303732 1_655
