# generated using pymatgen
data_Na3B6ClO10
_symmetry_space_group_name_H-M   'P 1'
_cell_length_a   7.48956300
_cell_length_b   10.00589800
_cell_length_c   12.89428500
_cell_angle_alpha   90.00000000
_cell_angle_beta   90.00000000
_cell_angle_gamma   90.00000000
_symmetry_Int_Tables_number   1
_chemical_formula_structural   Na3B6ClO10
_chemical_formula_sum   'Na12 B24 Cl4 O40'
_cell_volume   966.29518343
_cell_formula_units_Z   4
loop_
 _symmetry_equiv_pos_site_id
 _symmetry_equiv_pos_as_xyz
  1  'x, y, z'
loop_
 _atom_site_type_symbol
 _atom_site_label
 _atom_site_symmetry_multiplicity
 _atom_site_fract_x
 _atom_site_fract_y
 _atom_site_fract_z
 _atom_site_occupancy
  Na  Na0  1  0.55270000  0.70917800  0.25710300  1
  Na  Na1  1  0.94730000  0.29082200  0.75710300  1
  Na  Na2  1  0.05270000  0.79082200  0.74289700  1
  Na  Na3  1  0.44730000  0.20917800  0.24289700  1
  Na  Na4  1  0.02520200  0.75891600  0.24574800  1
  Na  Na5  1  0.47479800  0.24108400  0.74574800  1
  Na  Na6  1  0.52520200  0.74108400  0.75425200  1
  Na  Na7  1  0.97479800  0.25891600  0.25425200  1
  Na  Na8  1  0.86899300  0.50336300  0.05762200  1
  Na  Na9  1  0.63100700  0.49663700  0.55762200  1
  Na  Na10  1  0.36899300  0.99663700  0.94237800  1
  Na  Na11  1  0.13100700  0.00336300  0.44237800  1
  B  B0  1  0.74885700  0.99896300  0.25620600  1
  B  B1  1  0.75114300  0.00103700  0.75620600  1
  B  B2  1  0.24885700  0.50103700  0.74379400  1
  B  B3  1  0.25114300  0.49896300  0.24379400  1
  B  B4  1  0.97682800  0.23352800  0.98092300  1
  B  B5  1  0.52317200  0.76647200  0.48092300  1
  B  B6  1  0.47682800  0.26647200  0.01907700  1
  B  B7  1  0.02317200  0.73352800  0.51907700  1
  B  B8  1  0.24839600  0.63112600  0.91037600  1
  B  B9  1  0.25160400  0.36887400  0.41037600  1
  B  B10  1  0.74839600  0.86887400  0.08962400  1
  B  B11  1  0.75160400  0.13112600  0.58962400  1
  B  B12  1  0.88599200  0.00183400  0.93387400  1
  B  B13  1  0.61400800  0.99816600  0.43387400  1
  B  B14  1  0.38599200  0.49816600  0.06612600  1
  B  B15  1  0.11400800  0.50183400  0.56612600  1
  B  B16  1  0.98340400  0.76963000  0.97600400  1
  B  B17  1  0.51659600  0.23037000  0.47600400  1
  B  B18  1  0.48340400  0.73037000  0.02399600  1
  B  B19  1  0.01659600  0.26963000  0.52399600  1
  B  B20  1  0.23975300  0.37049500  0.91151700  1
  B  B21  1  0.26024700  0.62950500  0.41151700  1
  B  B22  1  0.73975300  0.12950500  0.08848300  1
  B  B23  1  0.76024700  0.87049500  0.58848300  1
  Cl  Cl0  1  0.81910400  0.51646900  0.27964400  1
  Cl  Cl1  1  0.68089600  0.48353100  0.77964400  1
  Cl  Cl2  1  0.31910400  0.98353100  0.72035600  1
  Cl  Cl3  1  0.18089600  0.01646900  0.22035600  1
  O  O0  1  0.81487800  0.00010000  0.04479800  1
  O  O1  1  0.68512200  0.99990000  0.54479800  1
  O  O2  1  0.31487800  0.49990000  0.95520200  1
  O  O3  1  0.18512200  0.50010000  0.45520200  1
  O  O4  1  0.87136500  0.76137500  0.06097300  1
  O  O5  1  0.62863500  0.23862500  0.56097400  1
  O  O6  1  0.37136500  0.73862500  0.93902600  1
  O  O7  1  0.12863500  0.26137500  0.43902600  1
  O  O8  1  0.86391300  0.23872000  0.06547800  1
  O  O9  1  0.63608700  0.76128000  0.56547800  1
  O  O10  1  0.36391300  0.26128000  0.93452200  1
  O  O11  1  0.13608700  0.73872000  0.43452200  1
  O  O12  1  0.75183800  0.87832300  0.20419300  1
  O  O13  1  0.74816200  0.12167700  0.70419300  1
  O  O14  1  0.25183800  0.62167700  0.79580700  1
  O  O15  1  0.24816200  0.37832300  0.29580700  1
  O  O16  1  0.72830700  0.11766800  0.20258000  1
  O  O17  1  0.77169300  0.88233200  0.70258000  1
  O  O18  1  0.22830700  0.38233200  0.79742000  1
  O  O19  1  0.27169300  0.61766800  0.29742000  1
  O  O20  1  0.00281600  0.88462900  0.91913700  1
  O  O21  1  0.49718400  0.11537100  0.41913700  1
  O  O22  1  0.50281600  0.61537100  0.08086300  1
  O  O23  1  0.99718400  0.38462900  0.58086300  1
  O  O24  1  0.76489800  0.00177300  0.36203000  1
  O  O25  1  0.73510200  0.99822700  0.86203000  1
  O  O26  1  0.26489800  0.49822700  0.63797000  1
  O  O27  1  0.23510200  0.50177300  0.13797000  1
  O  O28  1  0.99270500  0.12312300  0.91869100  1
  O  O29  1  0.50729500  0.87687700  0.41869100  1
  O  O30  1  0.49270500  0.37687700  0.08130900  1
  O  O31  1  0.00729500  0.62312300  0.58130900  1
  O  O32  1  0.06889800  0.65362900  0.94954600  1
  O  O33  1  0.43110200  0.34637100  0.44954600  1
  O  O34  1  0.56889800  0.84637100  0.05045400  1
  O  O35  1  0.93110200  0.15362900  0.55045400  1
  O  O36  1  0.06382200  0.35021500  0.95747800  1
  O  O37  1  0.43617800  0.64978500  0.45747800  1
  O  O38  1  0.56382200  0.14978500  0.04252200  1
  O  O39  1  0.93617800  0.85021500  0.54252200  1
loop_
_geom_bond_atom_site_label_1
_geom_bond_atom_site_label_2
_geom_bond_distance
_geom_bond_site_symmetry_2
Na0 O19 2.353311 1_555
Na0 O12 2.356750 1_555
Na0 O22 2.486926 1_555
Na0 O29 2.696755 1_555
Na0 O37 2.791100 1_555
Na1 O18 2.353311 1_655
Na1 O13 2.356750 1_555
Na1 O23 2.486926 1_555
Na1 O28 2.696755 1_555
Na1 O36 2.791100 1_655
Na2 O17 2.353311 1_455
Na2 O14 2.356750 1_555
Na2 O20 2.486926 1_555
Na2 O31 2.696755 1_555
Na2 O39 2.791100 1_455
Na3 O16 2.353311 1_555
Na3 O15 2.356750 1_555
Na3 O21 2.486926 1_555
Na3 O30 2.696755 1_555
Na3 O38 2.791100 1_555
Na4 O19 2.418573 1_555
Na4 O12 2.430297 1_455
Na4 O11 2.579807 1_555
Na4 O4 2.646622 1_455
Na5 O18 2.418573 1_555
Na5 O13 2.430297 1_555
Na5 O10 2.579807 1_555
Na5 O5 2.646611 1_555
Na6 O17 2.418573 1_555
Na6 O14 2.430297 1_555
Na6 O9 2.579807 1_555
Na6 O6 2.646611 1_555
Na7 O16 2.418573 1_555
Na7 O15 2.430297 1_655
Na7 O8 2.579807 1_555
Na7 O7 2.646611 1_655
Na8 O36 2.478878 1_654
Na8 O32 2.538559 1_654
Na8 O4 2.582064 1_555
Na8 O8 2.650201 1_555
Na8 O27 2.931238 1_655
Na8 O22 2.977785 1_555
Na9 O37 2.478878 1_555
Na9 O33 2.538559 1_555
Na9 O5 2.582065 1_555
Na9 O9 2.650201 1_555
Na9 O26 2.931238 1_555
Na9 O23 2.977785 1_555
Na10 O38 2.478878 1_566
Na10 O34 2.538559 1_556
Na10 O6 2.582065 1_555
Na10 O10 2.650201 1_565
Na10 O25 2.931238 1_555
Na10 O20 2.977785 1_555
Na11 O39 2.478878 1_445
Na11 O35 2.538559 1_455
Na11 O7 2.582065 1_555
Na11 O11 2.650201 1_545
Na11 O24 2.931238 1_455
Na11 O21 2.977785 1_555
B0 O24 1.370092 1_565
B0 O12 1.381092 1_555
B0 O16 1.382956 1_565
B1 O25 1.370092 1_545
B1 O13 1.381092 1_555
B1 O17 1.382956 1_545
B2 O26 1.370092 1_555
B2 O14 1.381092 1_555
B2 O18 1.382956 1_555
B3 O27 1.370092 1_555
B3 O15 1.381092 1_555
B3 O19 1.382956 1_555
B4 O28 1.370551 1_555
B4 O36 1.370801 1_655
B4 O8 1.380791 1_556
B5 O29 1.370551 1_555
B5 O37 1.370801 1_555
B5 O9 1.380791 1_555
B6 O30 1.370551 1_555
B6 O38 1.370801 1_555
B6 O10 1.380791 1_554
B7 O31 1.370551 1_555
B7 O39 1.370801 1_455
B7 O11 1.380791 1_555
B8 O32 1.453651 1_555
B8 O6 1.463438 1_555
B8 O14 1.480532 1_555
B8 O2 1.518574 1_555
B9 O33 1.453651 1_555
B9 O7 1.463438 1_555
B9 O15 1.480532 1_555
B9 O3 1.518574 1_555
B10 O34 1.453651 1_555
B10 O4 1.463441 1_555
B10 O12 1.480532 1_555
B10 O0 1.518574 1_565
B11 O35 1.453651 1_555
B11 O5 1.463438 1_555
B11 O13 1.480532 1_555
B11 O1 1.518574 1_545
B12 O25 1.461712 1_545
B12 O28 1.466267 1_555
B12 O20 1.475462 1_645
B12 O0 1.526334 1_556
B13 O24 1.461712 1_565
B13 O29 1.466267 1_555
B13 O21 1.475462 1_565
B13 O1 1.526334 1_555
B14 O27 1.461712 1_555
B14 O30 1.466267 1_555
B14 O22 1.475462 1_555
B14 O2 1.526334 1_554
B15 O26 1.461712 1_555
B15 O31 1.466267 1_555
B15 O23 1.475462 1_455
B15 O3 1.526334 1_555
B16 O32 1.368795 1_655
B16 O20 1.372168 1_655
B16 O4 1.382505 1_556
B17 O33 1.368795 1_555
B17 O21 1.372168 1_555
B17 O5 1.382516 1_555
B18 O34 1.368795 1_555
B18 O22 1.372168 1_555
B18 O6 1.382516 1_554
B19 O35 1.368795 1_455
B19 O23 1.372168 1_455
B19 O7 1.382516 1_555
B20 O36 1.458967 1_555
B20 O10 1.465234 1_555
B20 O18 1.478446 1_555
B20 O2 1.520004 1_555
B21 O37 1.458967 1_555
B21 O11 1.465234 1_555
B21 O19 1.478446 1_555
B21 O3 1.520004 1_555
B22 O38 1.458967 1_555
B22 O8 1.465234 1_555
B22 O16 1.478446 1_555
B22 O0 1.520004 1_555
B23 O39 1.458967 1_555
B23 O9 1.465234 1_555
B23 O17 1.478446 1_555
B23 O1 1.520004 1_555
Cl0 Na0 2.789903 1_555
Cl0 Na7 2.847477 1_555
Cl0 Na8 2.890072 1_555
Cl0 Na4 2.908379 1_655
Cl1 Na1 2.789903 1_555
Cl1 Na6 2.847477 1_555
Cl1 Na9 2.890072 1_555
Cl1 Na5 2.908379 1_555
Cl2 Na2 2.789903 1_555
Cl2 Na5 2.847477 1_565
Cl2 Na10 2.890072 1_555
Cl2 Na6 2.908379 1_555
Cl3 Na3 2.789903 1_555
Cl3 Na4 2.847477 1_545
Cl3 Na11 2.890072 1_555
Cl3 Na7 2.908379 1_455
