# generated using pymatgen
data_CsBr2F7
_symmetry_space_group_name_H-M   'P 1'
_cell_length_a   7.63646644
_cell_length_b   8.04725580
_cell_length_c   14.19075189
_cell_angle_alpha   90.00000000
_cell_angle_beta   122.35100115
_cell_angle_gamma   90.00000000
_symmetry_Int_Tables_number   1
_chemical_formula_structural   CsBr2F7
_chemical_formula_sum   'Cs4 Br8 F28'
_cell_volume   736.70275242
_cell_formula_units_Z   4
loop_
 _symmetry_equiv_pos_site_id
 _symmetry_equiv_pos_as_xyz
  1  'x, y, z'
loop_
 _atom_site_type_symbol
 _atom_site_label
 _atom_site_symmetry_multiplicity
 _atom_site_fract_x
 _atom_site_fract_y
 _atom_site_fract_z
 _atom_site_occupancy
  Cs  Cs0  1  0.87784539  0.91626125  0.30967648  1
  Cs  Cs1  1  0.12215461  0.41626125  0.19032352  1
  Cs  Cs2  1  0.12215461  0.08373875  0.69032352  1
  Cs  Cs3  1  0.87784539  0.58373875  0.80967648  1
  Br  Br0  1  0.23947683  0.92495806  0.12135407  1
  Br  Br1  1  0.76052317  0.42495806  0.37864593  1
  Br  Br2  1  0.76052317  0.07504194  0.87864593  1
  Br  Br3  1  0.23947683  0.57504194  0.62135407  1
  Br  Br4  1  0.51923031  0.72092994  0.98100310  1
  Br  Br5  1  0.48076969  0.22092994  0.51899690  1
  Br  Br6  1  0.48076969  0.27907006  0.01899690  1
  Br  Br7  1  0.51923031  0.77907006  0.48100310  1
  F  F0  1  0.38973900  0.11417299  0.20045630  1
  F  F1  1  0.61026100  0.61417299  0.29954370  1
  F  F2  1  0.61026100  0.88582701  0.79954370  1
  F  F3  1  0.38973900  0.38582701  0.70045630  1
  F  F4  1  0.08407288  0.73305668  0.04283555  1
  F  F5  1  0.91592712  0.23305668  0.45716445  1
  F  F6  1  0.91592712  0.26694332  0.95716445  1
  F  F7  1  0.08407288  0.76694332  0.54283555  1
  F  F8  1  0.04729313  0.97517121  0.15487309  1
  F  F9  1  0.95270687  0.47517121  0.34512691  1
  F  F10  1  0.95270687  0.02482879  0.84512691  1
  F  F11  1  0.04729313  0.52482879  0.65487309  1
  F  F12  1  0.46674619  0.88517136  0.08115649  1
  F  F13  1  0.53325381  0.38517136  0.41884351  1
  F  F14  1  0.53325381  0.11482864  0.91884351  1
  F  F15  1  0.46674619  0.61482864  0.58115649  1
  F  F16  1  0.27003517  0.77805773  0.84676879  1
  F  F17  1  0.72996483  0.27805773  0.65323121  1
  F  F18  1  0.72996483  0.22194227  0.15323121  1
  F  F19  1  0.27003517  0.72194227  0.34676879  1
  F  F20  1  0.58318425  0.58186499  0.90389518  1
  F  F21  1  0.41681575  0.08186499  0.59610482  1
  F  F22  1  0.41681575  0.41813501  0.09610482  1
  F  F23  1  0.58318425  0.91813501  0.40389518  1
  F  F24  1  0.76593822  0.65514290  0.11255905  1
  F  F25  1  0.23406178  0.15514290  0.38744095  1
  F  F26  1  0.23406178  0.34485710  0.88744095  1
  F  F27  1  0.76593822  0.84485710  0.61255905  1
loop_
_geom_bond_atom_site_label_1
_geom_bond_atom_site_label_2
_geom_bond_distance
_geom_bond_site_symmetry_2
Cs0 F25 3.016659 1_665
Cs0 F7 3.048763 1_655
Cs0 F12 3.088533 1_555
Cs0 F18 3.093861 1_565
Cs0 F8 3.125239 1_655
Cs0 F1 3.129117 1_555
Cs0 F19 3.163052 1_655
Cs0 F23 3.173474 1_555
Cs0 F5 3.211353 1_565
Cs0 F24 3.226762 1_555
Cs1 F24 3.016659 1_455
Cs1 F6 3.048763 1_454
Cs1 F13 3.088533 1_555
Cs1 F19 3.093861 1_555
Cs1 F9 3.125239 1_455
Cs1 F0 3.129117 1_555
Cs1 F18 3.163052 1_455
Cs1 F22 3.173474 1_555
Cs1 F4 3.211353 1_555
Cs1 F25 3.226762 1_555
Cs2 F27 3.016659 1_445
Cs2 F5 3.048763 1_455
Cs2 F14 3.088533 1_555
Cs2 F16 3.093861 1_545
Cs2 F10 3.125239 1_455
Cs2 F3 3.129117 1_555
Cs2 F17 3.163052 1_455
Cs2 F21 3.173474 1_555
Cs2 F7 3.211353 1_545
Cs2 F26 3.226762 1_555
Cs3 F26 3.016659 1_655
Cs3 F4 3.048763 1_656
Cs3 F15 3.088533 1_555
Cs3 F17 3.093861 1_555
Cs3 F11 3.125239 1_655
Cs3 F2 3.129117 1_555
Cs3 F16 3.163052 1_655
Cs3 F20 3.173474 1_555
Cs3 F6 3.211353 1_555
Cs3 F27 3.226762 1_555
Br0 F8 1.813970 1_555
Br0 F0 1.875299 1_565
Br0 F4 1.902505 1_555
Br0 F12 2.121203 1_555
Br1 F9 1.813970 1_555
Br1 F1 1.875299 1_555
Br1 F5 1.902505 1_555
Br1 F13 2.121203 1_555
Br2 F10 1.813970 1_555
Br2 F2 1.875299 1_545
Br2 F6 1.902505 1_555
Br2 F14 2.121203 1_555
Br3 F11 1.813970 1_555
Br3 F3 1.875299 1_555
Br3 F7 1.902505 1_555
Br3 F15 2.121203 1_555
Br4 F20 1.805579 1_555
Br4 F24 1.884351 1_556
Br4 F16 1.892561 1_555
Br4 F12 2.130043 1_556
Br5 F21 1.805579 1_555
Br5 F25 1.884351 1_555
Br5 F17 1.892561 1_555
Br5 F13 2.130043 1_555
Br6 F22 1.805579 1_555
Br6 F26 1.884351 1_554
Br6 F18 1.892561 1_555
Br6 F14 2.130043 1_554
Br7 F23 1.805579 1_555
Br7 F27 1.884351 1_555
Br7 F19 1.892561 1_555
Br7 F15 2.130043 1_555
