# generated using pymatgen
data_Mg2Bi2O5
_symmetry_space_group_name_H-M   'P 1'
_cell_length_a   4.06393700
_cell_length_b   6.34717600
_cell_length_c   10.95200200
_cell_angle_alpha   90.00000000
_cell_angle_beta   90.00000000
_cell_angle_gamma   90.00000000
_symmetry_Int_Tables_number   1
_chemical_formula_structural   Mg2Bi2O5
_chemical_formula_sum   'Mg4 Bi4 O10'
_cell_volume   282.50167178
_cell_formula_units_Z   2
loop_
 _symmetry_equiv_pos_site_id
 _symmetry_equiv_pos_as_xyz
  1  'x, y, z'
loop_
 _atom_site_type_symbol
 _atom_site_label
 _atom_site_symmetry_multiplicity
 _atom_site_fract_x
 _atom_site_fract_y
 _atom_site_fract_z
 _atom_site_occupancy
  Mg  Mg0  1  0.50000000  0.13079000  0.40363200  1
  Mg  Mg1  1  0.50000000  0.86921000  0.59636800  1
  Mg  Mg2  1  0.50000000  0.63079000  0.09636800  1
  Mg  Mg3  1  0.50000000  0.36921000  0.90363200  1
  Bi  Bi0  1  0.00000000  0.18581000  0.12276600  1
  Bi  Bi1  1  0.00000000  0.81419000  0.87723400  1
  Bi  Bi2  1  0.00000000  0.31419000  0.62276600  1
  Bi  Bi3  1  0.00000000  0.68581000  0.37723400  1
  O  O0  1  0.00000000  0.50000000  0.00000000  1
  O  O1  1  0.00000000  0.22839000  0.81105100  1
  O  O2  1  0.00000000  0.72839000  0.68894900  1
  O  O3  1  0.00000000  0.27161000  0.31105100  1
  O  O4  1  0.50000000  0.18779400  0.59719400  1
  O  O5  1  0.50000000  0.81220600  0.40280600  1
  O  O6  1  0.00000000  0.77161000  0.18894900  1
  O  O7  1  0.50000000  0.31220600  0.09719400  1
  O  O8  1  0.00000000  0.00000000  0.50000000  1
  O  O9  1  0.50000000  0.68779400  0.90280600  1
loop_
_geom_bond_atom_site_label_1
_geom_bond_atom_site_label_2
_geom_bond_distance
_geom_bond_site_symmetry_2
Mg0 O5 2.022129 1_545
Mg0 O4 2.150546 1_555
Mg0 O8 2.435561 1_555
Mg0 O8 2.435561 1_655
Mg0 O3 2.440467 1_555
Mg0 O3 2.440467 1_655
Mg1 O4 2.022129 1_565
Mg1 O5 2.150546 1_555
Mg1 O8 2.435561 1_565
Mg1 O8 2.435561 1_665
Mg1 O2 2.440467 1_655
Mg1 O2 2.440467 1_555
Mg2 O7 2.022129 1_555
Mg2 O9 2.150546 1_554
Mg2 O0 2.435561 1_555
Mg2 O0 2.435561 1_655
Mg2 O6 2.440467 1_655
Mg2 O6 2.440467 1_555
Mg3 O9 2.022129 1_555
Mg3 O7 2.150546 1_556
Mg3 O0 2.435561 1_556
Mg3 O0 2.435561 1_656
Mg3 O1 2.440467 1_555
Mg3 O1 2.440467 1_655
Bi0 O3 2.132797 1_555
Bi0 O7 2.202487 1_455
Bi0 O7 2.202487 1_555
Bi0 O0 2.405136 1_555
Bi0 O6 2.727092 1_545
Bi1 O2 2.132797 1_555
Bi1 O9 2.202487 1_555
Bi1 O9 2.202487 1_455
Bi1 O0 2.405136 1_556
Bi1 O1 2.727092 1_565
Bi2 O1 2.132797 1_555
Bi2 O4 2.202487 1_555
Bi2 O4 2.202487 1_455
Bi2 O8 2.405136 1_555
Bi2 O2 2.727092 1_555
Bi3 O6 2.132797 1_555
Bi3 O5 2.202487 1_455
Bi3 O5 2.202487 1_555
Bi3 O8 2.405136 1_565
Bi3 O3 2.727092 1_555
