# generated using pymatgen
data_Li9Mn2Co5O16
_symmetry_space_group_name_H-M   'P 1'
_cell_length_a   5.91570800
_cell_length_b   6.45579061
_cell_length_c   7.88787138
_cell_angle_alpha   88.95871517
_cell_angle_beta   103.98593548
_cell_angle_gamma   104.77316655
_symmetry_Int_Tables_number   1
_chemical_formula_structural   Li9Mn2Co5O16
_chemical_formula_sum   'Li9 Mn2 Co5 O16'
_cell_volume   282.34574095
_cell_formula_units_Z   1
loop_
 _symmetry_equiv_pos_site_id
 _symmetry_equiv_pos_as_xyz
  1  'x, y, z'
loop_
 _atom_site_type_symbol
 _atom_site_label
 _atom_site_symmetry_multiplicity
 _atom_site_fract_x
 _atom_site_fract_y
 _atom_site_fract_z
 _atom_site_occupancy
  Li  Li0  1  0.12855000  0.61842300  0.87122200  1
  Li  Li1  1  0.74225300  0.25531800  0.75497600  1
  Li  Li2  1  0.00629800  0.49881000  0.50784100  1
  Li  Li3  1  0.62214400  0.12680000  0.37834000  1
  Li  Li4  1  0.87299800  0.38054100  0.12015100  1
  Li  Li5  1  0.49826900  0.00597800  0.99044900  1
  Li  Li6  1  0.37949800  0.87404600  0.62657800  1
  Li  Li7  1  0.25135900  0.74297800  0.25045400  1
  Li  Li8  1  0.25426900  0.25523600  0.75196800  1
  Mn  Mn0  1  0.99879000  0.99949400  0.99567600  1
  Mn  Mn1  1  0.12753500  0.12536300  0.37896100  1
  Co  Co0  1  0.62085900  0.62068400  0.87399600  1
  Co  Co1  1  0.87472900  0.87323700  0.62394100  1
  Co  Co2  1  0.49428300  0.50114100  0.50626200  1
  Co  Co3  1  0.74844900  0.74778300  0.24894000  1
  Co  Co4  1  0.38003900  0.37367600  0.11847600  1
  O  O0  1  0.92355600  0.69974900  0.05225900  1
  O  O1  1  0.56393600  0.33034100  0.93694000  1
  O  O2  1  0.80135700  0.57261900  0.67285700  1
  O  O3  1  0.42886800  0.19470200  0.54743700  1
  O  O4  1  0.66986200  0.44995300  0.29865300  1
  O  O5  1  0.29168100  0.07321000  0.18928400  1
  O  O6  1  0.15321400  0.93992100  0.82214000  1
  O  O7  1  0.05621800  0.82221900  0.42322800  1
  O  O8  1  0.33366000  0.56928800  0.69774100  1
  O  O9  1  0.95089200  0.16270200  0.54510000  1
  O  O10  1  0.19388600  0.42449600  0.32949900  1
  O  O11  1  0.83342800  0.04728700  0.18341000  1
  O  O12  1  0.07327800  0.30135000  0.95515100  1
  O  O13  1  0.69848700  0.93193000  0.82346800  1
  O  O14  1  0.57935100  0.80198100  0.44618600  1
  O  O15  1  0.44800700  0.67874400  0.07840900  1
loop_
_geom_bond_atom_site_label_1
_geom_bond_atom_site_label_2
_geom_bond_distance
_geom_bond_site_symmetry_2
Li0 O6 2.079095 1_555
Li0 O12 2.109327 1_555
Li0 O8 2.111878 1_555
Li0 O2 2.131464 1_455
Li0 O15 2.132797 1_556
Li0 O0 2.230343 1_456
Li1 O1 2.103596 1_555
Li1 O2 2.105675 1_555
Li1 O3 2.110993 1_555
Li1 O13 2.113874 1_545
Li1 O12 2.154496 1_655
Li1 O9 2.453862 1_555
Li2 O8 2.091489 1_555
Li2 O2 2.114487 1_455
Li2 O10 2.119237 1_555
Li2 O9 2.136049 1_455
Li2 O7 2.149883 1_555
Li2 O4 2.212386 1_455
Li3 O9 2.027510 1_555
Li3 O3 2.071839 1_555
Li3 O5 2.104737 1_555
Li3 O14 2.121723 1_545
Li3 O4 2.136541 1_555
Li3 O11 2.339814 1_555
Li4 O1 1.993470 1_554
Li4 O0 2.084676 1_555
Li4 O12 2.106528 1_654
Li4 O10 2.153589 1_655
Li4 O11 2.166329 1_555
Li4 O4 2.177783 1_555
Li5 O1 2.084766 1_555
Li5 O6 2.092318 1_545
Li5 O13 2.105215 1_545
Li5 O11 2.145990 1_556
Li5 O15 2.181463 1_546
Li5 O5 2.315930 1_556
Li6 O8 2.005205 1_555
Li6 O13 2.087441 1_555
Li6 O3 2.119690 1_565
Li6 O7 2.133678 1_555
Li6 O14 2.180964 1_555
Li6 O6 2.380041 1_555
Li7 O15 2.096772 1_555
Li7 O10 2.105010 1_555
Li7 O14 2.118958 1_555
Li7 O7 2.130391 1_555
Li7 O0 2.134675 1_455
Li7 O5 2.143278 1_565
Li8 O1 2.000129 1_555
Li8 O8 2.023382 1_555
Li8 O6 2.075050 1_545
Li8 O9 2.076899 1_455
Li8 O12 2.193840 1_555
Li8 O3 2.203762 1_555
Mn0 O13 1.910833 1_555
Mn0 O6 1.912820 1_655
Mn0 O12 1.923896 1_665
Mn0 O0 1.940945 1_556
Mn0 O5 1.971718 1_666
Mn0 O11 2.028720 1_566
Mn1 O3 1.900965 1_555
Mn1 O9 1.915543 1_455
Mn1 O10 1.922409 1_555
Mn1 O7 1.937832 1_545
Mn1 O11 1.986002 1_455
Mn1 O5 2.045000 1_555
Co0 O8 1.875378 1_555
Co0 O1 1.896931 1_555
Co0 O0 1.946042 1_556
Co0 O13 1.998989 1_555
Co0 O2 2.181587 1_555
Co0 O15 2.190944 1_556
Co1 O14 1.913134 1_555
Co1 O2 1.930760 1_555
Co1 O9 1.935378 1_565
Co1 O6 1.939414 1_655
Co1 O13 2.173443 1_555
Co1 O7 2.188287 1_655
Co2 O2 1.918418 1_555
Co2 O10 1.930232 1_555
Co2 O3 1.953434 1_555
Co2 O14 1.957846 1_555
Co2 O8 2.075732 1_555
Co2 O4 2.210576 1_555
Co3 O15 1.905022 1_555
Co3 O4 1.916150 1_555
Co3 O7 1.950305 1_655
Co3 O11 1.962656 1_565
Co3 O14 2.119988 1_555
Co3 O0 2.129353 1_555
Co4 O4 1.902348 1_555
Co4 O12 1.905402 1_554
Co4 O15 1.943003 1_555
Co4 O5 1.983038 1_555
Co4 O1 2.057895 1_554
Co4 O10 2.276202 1_555
