# generated using pymatgen
data_Tb2(Ga3Rh)3
_symmetry_space_group_name_H-M   'P 1'
_cell_length_a   7.48041451
_cell_length_b   7.48041451
_cell_length_c   9.49543103
_cell_angle_alpha   90.00000000
_cell_angle_beta   90.00000000
_cell_angle_gamma   119.71562011
_symmetry_Int_Tables_number   1
_chemical_formula_structural   Tb2(Ga3Rh)3
_chemical_formula_sum   'Tb4 Ga18 Rh6'
_cell_volume   461.45997555
_cell_formula_units_Z   2
loop_
 _symmetry_equiv_pos_site_id
 _symmetry_equiv_pos_as_xyz
  1  'x, y, z'
loop_
 _atom_site_type_symbol
 _atom_site_label
 _atom_site_symmetry_multiplicity
 _atom_site_fract_x
 _atom_site_fract_y
 _atom_site_fract_z
 _atom_site_occupancy
  Tb  Tb0  1  0.99801275  0.66919880  0.25000000  1
  Tb  Tb1  1  0.00198725  0.33080120  0.75000000  1
  Tb  Tb2  1  0.66919880  0.99801275  0.25000000  1
  Tb  Tb3  1  0.33080120  0.00198725  0.75000000  1
  Ga  Ga0  1  0.12836079  0.12836079  0.25000000  1
  Ga  Ga1  1  0.87163921  0.87163921  0.75000000  1
  Ga  Ga2  1  0.00235026  0.33457799  0.07738916  1
  Ga  Ga3  1  0.99764974  0.66542201  0.92261084  1
  Ga  Ga4  1  0.99764974  0.66542201  0.57738916  1
  Ga  Ga5  1  0.33457799  0.00235026  0.42261084  1
  Ga  Ga6  1  0.00235026  0.33457799  0.42261084  1
  Ga  Ga7  1  0.66542201  0.99764974  0.57738916  1
  Ga  Ga8  1  0.66542201  0.99764974  0.92261084  1
  Ga  Ga9  1  0.33457799  0.00235026  0.07738916  1
  Ga  Ga10  1  0.33477107  0.33477107  0.56559051  1
  Ga  Ga11  1  0.66522893  0.66522893  0.43440949  1
  Ga  Ga12  1  0.66522893  0.66522893  0.06559051  1
  Ga  Ga13  1  0.33477107  0.33477107  0.93440949  1
  Ga  Ga14  1  0.33730624  0.54520669  0.25000000  1
  Ga  Ga15  1  0.66269376  0.45479331  0.75000000  1
  Ga  Ga16  1  0.54520669  0.33730624  0.25000000  1
  Ga  Ga17  1  0.45479331  0.66269376  0.75000000  1
  Rh  Rh0  1  0.67145478  0.32854522  0.00000000  1
  Rh  Rh1  1  0.32854522  0.67145478  0.00000000  1
  Rh  Rh2  1  0.32854522  0.67145478  0.50000000  1
  Rh  Rh3  1  0.67145478  0.32854522  0.50000000  1
  Rh  Rh4  1  0.00000000  0.00000000  0.00000000  1
  Rh  Rh5  1  0.00000000  0.00000000  0.50000000  1
loop_
_geom_bond_atom_site_label_1
_geom_bond_atom_site_label_2
_geom_bond_distance
_geom_bond_site_symmetry_2
Ga0 Rh4 2.562246 1_555
Ga0 Rh5 2.562246 1_555
Ga0 Ga16 2.708184 1_555
Ga0 Ga14 2.708184 1_555
Ga0 Ga6 2.719561 1_555
Ga0 Ga9 2.719561 1_555
Ga0 Ga2 2.719561 1_555
Ga0 Ga5 2.719561 1_555
Ga0 Tb2 3.070478 1_445
Ga0 Tb0 3.070478 1_445
Ga1 Rh5 2.562246 1_665
Ga1 Rh4 2.562246 1_666
Ga1 Ga17 2.708184 1_555
Ga1 Ga15 2.708184 1_555
Ga1 Ga7 2.719561 1_555
Ga1 Ga8 2.719561 1_555
Ga1 Ga4 2.719561 1_555
Ga1 Ga3 2.719561 1_555
Ga1 Tb1 3.070478 1_665
Ga1 Tb3 3.070478 1_665
Ga2 Rh0 2.560875 1_455
Ga2 Rh1 2.597739 1_555
Ga2 Rh4 2.600115 1_555
Ga2 Ga3 2.893505 1_454
Ga2 Ga8 2.926926 1_444
Ga2 Tb2 3.002548 1_445
Ga2 Tb0 3.005571 1_455
Ga2 Tb1 3.108819 1_554
Ga3 Rh1 2.560875 1_656
Ga3 Rh0 2.597739 1_556
Ga3 Rh4 2.600115 1_666
Ga3 Ga9 2.926926 1_666
Ga3 Tb3 3.002548 1_665
Ga3 Tb1 3.005571 1_655
Ga3 Tb0 3.108819 1_556
Ga4 Rh2 2.560875 1_655
Ga4 Rh3 2.597739 1_555
Ga4 Rh5 2.600115 1_665
Ga4 Ga6 2.893505 1_655
Ga4 Ga5 2.926926 1_665
Ga4 Tb3 3.002548 1_665
Ga4 Tb1 3.005571 1_655
Ga4 Tb0 3.108819 1_555
Ga5 Rh2 2.560875 1_545
Ga5 Rh3 2.597739 1_555
Ga5 Rh5 2.600115 1_555
Ga5 Ga7 2.893505 1_545
Ga5 Tb0 3.002548 1_445
Ga5 Tb2 3.005571 1_545
Ga5 Tb3 3.108819 1_555
Ga6 Rh3 2.560875 1_455
Ga6 Rh2 2.597739 1_555
Ga6 Rh5 2.600115 1_555
Ga6 Ga7 2.926926 1_445
Ga6 Tb2 3.002548 1_445
Ga6 Tb0 3.005571 1_455
Ga6 Tb1 3.108819 1_555
Ga7 Rh3 2.560875 1_565
Ga7 Rh2 2.597739 1_555
Ga7 Rh5 2.600115 1_665
Ga7 Tb1 3.002548 1_665
Ga7 Tb3 3.005571 1_565
Ga7 Tb2 3.108819 1_555
Ga8 Rh0 2.560875 1_566
Ga8 Rh1 2.597739 1_556
Ga8 Rh4 2.600115 1_666
Ga8 Ga9 2.893505 1_566
Ga8 Tb1 3.002548 1_665
Ga8 Tb3 3.005571 1_565
Ga8 Tb2 3.108819 1_556
Ga9 Rh1 2.560875 1_545
Ga9 Rh0 2.597739 1_555
Ga9 Rh4 2.600115 1_555
Ga9 Tb0 3.002548 1_445
Ga9 Tb2 3.005571 1_545
Ga9 Tb3 3.108819 1_554
Ga10 Rh5 2.590952 1_555
Ga10 Rh2 2.617128 1_555
Ga10 Rh3 2.617128 1_555
Ga10 Ga17 2.775979 1_555
Ga10 Ga15 2.775979 1_555
Ga10 Ga11 2.777548 1_555
Ga10 Ga6 2.832502 1_555
Ga10 Ga5 2.832502 1_555
Ga10 Tb3 3.031613 1_555
Ga10 Tb1 3.031613 1_555
Ga11 Rh5 2.590952 1_665
Ga11 Rh3 2.617128 1_555
Ga11 Rh2 2.617128 1_555
Ga11 Ga14 2.775979 1_555
Ga11 Ga16 2.775979 1_555
Ga11 Ga7 2.832502 1_555
Ga11 Ga4 2.832502 1_555
Ga11 Tb2 3.031613 1_555
Ga11 Tb0 3.031613 1_555
Ga12 Rh4 2.590952 1_665
Ga12 Rh0 2.617128 1_555
Ga12 Rh1 2.617128 1_555
Ga12 Ga14 2.775979 1_555
Ga12 Ga16 2.775979 1_555
Ga12 Ga13 2.777548 1_554
Ga12 Ga8 2.832502 1_554
Ga12 Ga3 2.832502 1_554
Ga12 Tb2 3.031613 1_555
Ga12 Tb0 3.031613 1_555
Ga13 Rh4 2.590952 1_556
Ga13 Rh1 2.617128 1_556
Ga13 Rh0 2.617128 1_556
Ga13 Ga15 2.775979 1_555
Ga13 Ga17 2.775979 1_555
Ga13 Ga2 2.832502 1_556
Ga13 Ga9 2.832502 1_556
Ga13 Tb1 3.031613 1_555
Ga13 Tb3 3.031613 1_555
Ga14 Rh1 2.567630 1_555
Ga14 Rh2 2.567630 1_555
Ga14 Ga16 2.689786 1_555
Ga14 Ga6 2.744650 1_555
Ga14 Ga2 2.744650 1_555
Ga14 Tb2 3.049559 1_555
Ga14 Tb0 3.104162 1_455
Ga15 Rh3 2.567630 1_555
Ga15 Rh0 2.567630 1_556
Ga15 Ga17 2.689786 1_555
Ga15 Ga3 2.744650 1_555
Ga15 Ga4 2.744650 1_555
Ga15 Tb3 3.049559 1_555
Ga15 Tb1 3.104162 1_655
Ga16 Rh0 2.567630 1_555
Ga16 Rh3 2.567630 1_555
Ga16 Ga9 2.744650 1_555
Ga16 Ga5 2.744650 1_555
Ga16 Tb0 3.049559 1_555
Ga16 Tb2 3.104162 1_545
Ga17 Rh1 2.567630 1_556
Ga17 Rh2 2.567630 1_555
Ga17 Ga8 2.744650 1_555
Ga17 Ga7 2.744650 1_555
Ga17 Tb1 3.049559 1_555
Ga17 Tb3 3.104162 1_565
