# generated using pymatgen
data_CeThB12
_symmetry_space_group_name_H-M   'P 1'
_cell_length_a   4.11590148
_cell_length_b   4.11590046
_cell_length_c   8.23404661
_cell_angle_alpha   90.00000000
_cell_angle_beta   90.00000000
_cell_angle_gamma   90.00000000
_symmetry_Int_Tables_number   1
_chemical_formula_structural   CeThB12
_chemical_formula_sum   'Ce1 Th1 B12'
_cell_volume   139.49002591
_cell_formula_units_Z   1
loop_
 _symmetry_equiv_pos_site_id
 _symmetry_equiv_pos_as_xyz
  1  'x, y, z'
loop_
 _atom_site_type_symbol
 _atom_site_label
 _atom_site_symmetry_multiplicity
 _atom_site_fract_x
 _atom_site_fract_y
 _atom_site_fract_z
 _atom_site_occupancy
  Ce  Ce0  1  0.00000000  -0.00000000  0.00000000  1
  Th  Th0  1  -0.00000000  -0.00000000  0.50000000  1
  B  B0  1  0.19828617  0.50000000  0.25014590  1
  B  B1  1  0.19828617  0.50000000  0.74985410  1
  B  B2  1  0.50000000  0.50000000  0.40109789  1
  B  B3  1  0.50000000  0.50000000  0.90072021  1
  B  B4  1  0.50000000  0.19828617  0.25014590  1
  B  B5  1  0.50000000  0.19828617  0.74985410  1
  B  B6  1  0.50000000  0.50000000  0.09927979  1
  B  B7  1  0.50000000  0.50000000  0.59890211  1
  B  B8  1  0.50000000  0.80171383  0.25014590  1
  B  B9  1  0.50000000  0.80171383  0.74985410  1
  B  B10  1  0.80171383  0.50000000  0.25014590  1
  B  B11  1  0.80171383  0.50000000  0.74985410  1
loop_
_geom_bond_atom_site_label_1
_geom_bond_atom_site_label_2
_geom_bond_distance
_geom_bond_site_symmetry_2
B0 B10 1.632253 1_455
B0 B4 1.756205 1_555
B0 B8 1.756205 1_555
B0 B6 1.756498 1_555
B0 B2 1.756998 1_555
B0 Th0 3.022209 1_565
B0 Th0 3.022209 1_555
B0 Ce0 3.023845 1_565
B0 Ce0 3.023845 1_555
B1 B11 1.632253 1_455
B1 B5 1.756205 1_555
B1 B9 1.756205 1_555
B1 B3 1.756498 1_555
B1 B7 1.756998 1_555
B1 Th0 3.022209 1_565
B1 Th0 3.022209 1_555
B1 Ce0 3.023845 1_556
B1 Ce0 3.023845 1_566
B2 B7 1.628729 1_555
B2 B4 1.756998 1_555
B2 B8 1.756998 1_555
B2 Th0 3.022170 1_565
B2 Th0 3.022170 1_555
B2 Th0 3.022170 1_655
B2 Th0 3.022170 1_665
B3 B6 1.634949 1_556
B3 B5 1.756498 1_555
B3 B9 1.756498 1_555
B3 Ce0 3.023009 1_666
B3 Ce0 3.023009 1_656
B3 Ce0 3.023009 1_556
B3 Ce0 3.023009 1_566
B4 B8 1.632252 1_545
B4 B6 1.756498 1_555
B4 Th0 3.022209 1_655
B4 Th0 3.022209 1_555
B4 Ce0 3.023845 1_655
B4 Ce0 3.023845 1_555
B5 B9 1.632252 1_545
B5 B7 1.756998 1_555
B5 Th0 3.022209 1_555
B5 Th0 3.022209 1_655
B5 Ce0 3.023845 1_656
B5 Ce0 3.023845 1_556
B6 B8 1.756498 1_555
B6 Ce0 3.023009 1_565
B6 Ce0 3.023009 1_555
B6 Ce0 3.023009 1_655
B6 Ce0 3.023009 1_665
B7 B9 1.756998 1_555
B7 Th0 3.022170 1_565
B7 Th0 3.022170 1_555
B7 Th0 3.022170 1_655
B7 Th0 3.022170 1_665
B8 Th0 3.022209 1_665
B8 Th0 3.022209 1_565
B8 Ce0 3.023845 1_565
B8 Ce0 3.023845 1_665
B9 Th0 3.022209 1_565
B9 Th0 3.022209 1_665
B9 Ce0 3.023845 1_666
B9 Ce0 3.023845 1_566
B10 B4 1.756205 1_555
B10 B8 1.756205 1_555
B10 B6 1.756498 1_555
B10 B2 1.756998 1_555
B10 Th0 3.022209 1_655
B10 Th0 3.022209 1_665
B10 Ce0 3.023845 1_655
B10 Ce0 3.023845 1_665
B11 B5 1.756205 1_555
B11 B9 1.756205 1_555
B11 B3 1.756498 1_555
B11 B7 1.756998 1_555
B11 Th0 3.022209 1_655
B11 Th0 3.022209 1_665
B11 Ce0 3.023845 1_666
B11 Ce0 3.023845 1_656
