# generated using pymatgen
data_Mg30MnCdO32
_symmetry_space_group_name_H-M   'P 1'
_cell_length_a   8.46550487
_cell_length_b   8.46550487
_cell_length_c   8.46686838
_cell_angle_alpha   90.00000000
_cell_angle_beta   90.00000000
_cell_angle_gamma   90.00000000
_symmetry_Int_Tables_number   1
_chemical_formula_structural   Mg30MnCdO32
_chemical_formula_sum   'Mg30 Mn1 Cd1 O32'
_cell_volume   606.77619797
_cell_formula_units_Z   1
loop_
 _symmetry_equiv_pos_site_id
 _symmetry_equiv_pos_as_xyz
  1  'x, y, z'
loop_
 _atom_site_type_symbol
 _atom_site_label
 _atom_site_symmetry_multiplicity
 _atom_site_fract_x
 _atom_site_fract_y
 _atom_site_fract_z
 _atom_site_occupancy
  Mg  Mg0  1  0.50000000  -0.00000000  0.00000000  1
  Mg  Mg1  1  -0.00000000  0.50000000  0.00000000  1
  Mg  Mg2  1  -0.00000000  -0.00000000  0.50000000  1
  Mg  Mg3  1  0.50000000  -0.00000000  0.50000000  1
  Mg  Mg4  1  -0.00000000  0.50000000  0.50000000  1
  Mg  Mg5  1  0.50000000  0.50000000  0.50000000  1
  Mg  Mg6  1  0.24787516  0.24787516  0.00000000  1
  Mg  Mg7  1  0.75212484  0.24787516  0.00000000  1
  Mg  Mg8  1  0.24787516  0.75212484  0.00000000  1
  Mg  Mg9  1  0.75212484  0.75212484  0.00000000  1
  Mg  Mg10  1  0.24993789  0.24993789  0.50000000  1
  Mg  Mg11  1  0.75006211  0.24993789  0.50000000  1
  Mg  Mg12  1  0.24993789  0.75006211  0.50000000  1
  Mg  Mg13  1  0.75006211  0.75006211  0.50000000  1
  Mg  Mg14  1  0.25084109  -0.00000000  0.25188171  1
  Mg  Mg15  1  0.74915891  -0.00000000  0.25188171  1
  Mg  Mg16  1  0.24723870  0.50000000  0.25273854  1
  Mg  Mg17  1  0.75276130  0.50000000  0.25273854  1
  Mg  Mg18  1  0.25084109  -0.00000000  0.74811829  1
  Mg  Mg19  1  0.74915891  -0.00000000  0.74811829  1
  Mg  Mg20  1  0.24723870  0.50000000  0.74726146  1
  Mg  Mg21  1  0.75276130  0.50000000  0.74726146  1
  Mg  Mg22  1  -0.00000000  0.25084109  0.25188171  1
  Mg  Mg23  1  0.50000000  0.24723870  0.25273854  1
  Mg  Mg24  1  -0.00000000  0.74915891  0.25188171  1
  Mg  Mg25  1  0.50000000  0.75276130  0.25273854  1
  Mg  Mg26  1  -0.00000000  0.25084109  0.74811829  1
  Mg  Mg27  1  0.50000000  0.24723870  0.74726146  1
  Mg  Mg28  1  -0.00000000  0.74915891  0.74811829  1
  Mg  Mg29  1  0.50000000  0.75276130  0.74726146  1
  Mn  Mn0  1  -0.00000000  -0.00000000  0.00000000  1
  Cd  Cd0  1  0.50000000  0.50000000  0.00000000  1
  O  O0  1  -0.00000000  -0.00000000  0.25688297  1
  O  O1  1  0.50000000  -0.00000000  0.25325164  1
  O  O2  1  -0.00000000  0.50000000  0.25325164  1
  O  O3  1  0.50000000  0.50000000  0.26430076  1
  O  O4  1  -0.00000000  -0.00000000  0.74311703  1
  O  O5  1  0.50000000  -0.00000000  0.74674836  1
  O  O6  1  -0.00000000  0.50000000  0.74674836  1
  O  O7  1  0.50000000  0.50000000  0.73569924  1
  O  O8  1  0.24999045  0.24999045  0.24972053  1
  O  O9  1  0.75000955  0.24999045  0.24972053  1
  O  O10  1  0.24999045  0.75000955  0.24972053  1
  O  O11  1  0.75000955  0.75000955  0.24972053  1
  O  O12  1  0.24999045  0.24999045  0.75027947  1
  O  O13  1  0.75000955  0.24999045  0.75027947  1
  O  O14  1  0.24999045  0.75000955  0.75027947  1
  O  O15  1  0.75000955  0.75000955  0.75027947  1
  O  O16  1  0.25454610  -0.00000000  0.00000000  1
  O  O17  1  0.74545390  -0.00000000  0.00000000  1
  O  O18  1  0.23655210  0.50000000  0.00000000  1
  O  O19  1  0.76344790  0.50000000  0.00000000  1
  O  O20  1  0.25016979  -0.00000000  0.50000000  1
  O  O21  1  0.74983021  -0.00000000  0.50000000  1
  O  O22  1  0.24798378  0.50000000  0.50000000  1
  O  O23  1  0.75201622  0.50000000  0.50000000  1
  O  O24  1  -0.00000000  0.25454610  0.00000000  1
  O  O25  1  0.50000000  0.23655210  0.00000000  1
  O  O26  1  -0.00000000  0.74545390  0.00000000  1
  O  O27  1  0.50000000  0.76344790  0.00000000  1
  O  O28  1  -0.00000000  0.25016979  0.50000000  1
  O  O29  1  0.50000000  0.24798378  0.50000000  1
  O  O30  1  -0.00000000  0.74983021  0.50000000  1
  O  O31  1  0.50000000  0.75201622  0.50000000  1
loop_
_geom_bond_atom_site_label_1
_geom_bond_atom_site_label_2
_geom_bond_distance
_geom_bond_site_symmetry_2
Mg0 O25 2.002533 1_555
Mg0 O27 2.002533 1_545
Mg0 O17 2.077891 1_555
Mg0 O16 2.077891 1_555
Mg0 O1 2.144248 1_555
Mg0 O5 2.144248 1_554
Mg1 O18 2.002533 1_555
Mg1 O19 2.002533 1_455
Mg1 O24 2.077891 1_555
Mg1 O26 2.077891 1_555
Mg1 O2 2.144248 1_555
Mg1 O6 2.144248 1_554
Mg2 O4 2.058440 1_555
Mg2 O0 2.058440 1_555
Mg2 O30 2.117814 1_545
Mg2 O21 2.117814 1_455
Mg2 O20 2.117814 1_555
Mg2 O28 2.117814 1_555
Mg3 O1 2.089186 1_555
Mg3 O5 2.089186 1_555
Mg3 O31 2.099308 1_545
Mg3 O29 2.099308 1_555
Mg3 O20 2.114939 1_555
Mg3 O21 2.114939 1_555
Mg4 O2 2.089186 1_555
Mg4 O6 2.089186 1_555
Mg4 O23 2.099308 1_455
Mg4 O22 2.099308 1_555
Mg4 O28 2.114939 1_555
Mg4 O30 2.114939 1_555
Mg5 O3 1.995634 1_555
Mg5 O7 1.995634 1_555
Mg5 O22 2.133445 1_555
Mg5 O23 2.133445 1_555
Mg5 O29 2.133445 1_555
Mg5 O31 2.133445 1_555
Mg6 O24 2.099148 1_555
Mg6 O16 2.099148 1_555
Mg6 O8 2.114503 1_555
Mg6 O12 2.114503 1_554
Mg6 O25 2.136515 1_555
Mg6 O18 2.136515 1_555
Mg7 O17 2.099148 1_555
Mg7 O24 2.099148 1_655
Mg7 O9 2.114503 1_555
Mg7 O13 2.114503 1_554
Mg7 O25 2.136515 1_555
Mg7 O19 2.136515 1_555
Mg8 O16 2.099148 1_565
Mg8 O26 2.099148 1_555
Mg8 O10 2.114503 1_555
Mg8 O14 2.114503 1_554
Mg8 O18 2.136515 1_555
Mg8 O27 2.136515 1_555
Mg9 O17 2.099148 1_565
Mg9 O26 2.099148 1_655
Mg9 O11 2.114503 1_555
Mg9 O15 2.114503 1_554
Mg9 O19 2.136515 1_555
Mg9 O27 2.136515 1_555
Mg10 O20 2.115851 1_555
Mg10 O28 2.115851 1_555
Mg10 O29 2.116967 1_555
Mg10 O22 2.116967 1_555
Mg10 O12 2.119083 1_555
Mg10 O8 2.119083 1_555
Mg11 O28 2.115851 1_655
Mg11 O21 2.115851 1_555
Mg11 O29 2.116967 1_555
Mg11 O23 2.116967 1_555
Mg11 O13 2.119083 1_555
Mg11 O9 2.119083 1_555
Mg12 O30 2.115851 1_555
Mg12 O20 2.115851 1_565
Mg12 O31 2.116967 1_555
Mg12 O22 2.116967 1_555
Mg12 O14 2.119083 1_555
Mg12 O10 2.119083 1_555
Mg13 O21 2.115851 1_565
Mg13 O30 2.115851 1_655
Mg13 O31 2.116967 1_555
Mg13 O23 2.116967 1_555
Mg13 O15 2.119083 1_555
Mg13 O11 2.119083 1_555
Mg14 O20 2.100793 1_555
Mg14 O1 2.109288 1_555
Mg14 O10 2.116387 1_545
Mg14 O8 2.116387 1_555
Mg14 O0 2.123919 1_555
Mg14 O16 2.132880 1_555
Mg15 O21 2.100793 1_555
Mg15 O1 2.109288 1_555
Mg15 O11 2.116387 1_545
Mg15 O9 2.116387 1_555
Mg15 O0 2.123919 1_655
Mg15 O17 2.132880 1_555
Mg16 O2 2.093005 1_555
Mg16 O22 2.093540 1_555
Mg16 O8 2.116740 1_555
Mg16 O10 2.116740 1_555
Mg16 O18 2.141815 1_555
Mg16 O3 2.141990 1_555
Mg17 O2 2.093005 1_655
Mg17 O23 2.093540 1_555
Mg17 O11 2.116740 1_555
Mg17 O9 2.116740 1_555
Mg17 O19 2.141815 1_555
Mg17 O3 2.141990 1_555
Mg18 O20 2.100793 1_555
Mg18 O5 2.109288 1_555
Mg18 O14 2.116387 1_545
Mg18 O12 2.116387 1_555
Mg18 O4 2.123919 1_555
Mg18 O16 2.132880 1_556
Mg19 O21 2.100793 1_555
Mg19 O5 2.109288 1_555
Mg19 O15 2.116387 1_545
Mg19 O13 2.116387 1_555
Mg19 O4 2.123919 1_655
Mg19 O17 2.132880 1_556
Mg20 O6 2.093005 1_555
Mg20 O22 2.093540 1_555
Mg20 O14 2.116740 1_555
Mg20 O12 2.116740 1_555
Mg20 O18 2.141815 1_556
Mg20 O7 2.141990 1_555
Mg21 O6 2.093005 1_655
Mg21 O23 2.093540 1_555
Mg21 O15 2.116740 1_555
Mg21 O13 2.116740 1_555
Mg21 O19 2.141815 1_556
Mg21 O7 2.141990 1_555
Mg22 O28 2.100793 1_555
Mg22 O2 2.109288 1_555
Mg22 O9 2.116387 1_455
Mg22 O8 2.116387 1_555
Mg22 O0 2.123919 1_555
Mg22 O24 2.132880 1_555
Mg23 O1 2.093005 1_555
Mg23 O29 2.093540 1_555
Mg23 O9 2.116740 1_555
Mg23 O8 2.116740 1_555
Mg23 O25 2.141815 1_555
Mg23 O3 2.141990 1_555
Mg24 O30 2.100793 1_555
Mg24 O2 2.109288 1_555
Mg24 O11 2.116387 1_455
Mg24 O10 2.116387 1_555
Mg24 O0 2.123919 1_565
Mg24 O26 2.132880 1_555
Mg25 O1 2.093005 1_565
Mg25 O31 2.093540 1_555
Mg25 O10 2.116740 1_555
Mg25 O11 2.116740 1_555
Mg25 O27 2.141815 1_555
Mg25 O3 2.141990 1_555
Mg26 O28 2.100793 1_555
Mg26 O6 2.109288 1_555
Mg26 O13 2.116387 1_455
Mg26 O12 2.116387 1_555
Mg26 O4 2.123919 1_555
Mg26 O24 2.132880 1_556
Mg27 O5 2.093005 1_555
Mg27 O29 2.093540 1_555
Mg27 O13 2.116740 1_555
Mg27 O12 2.116740 1_555
Mg27 O25 2.141815 1_556
Mg27 O7 2.141990 1_555
Mg28 O30 2.100793 1_555
Mg28 O6 2.109288 1_555
Mg28 O15 2.116387 1_455
Mg28 O14 2.116387 1_555
Mg28 O4 2.123919 1_565
Mg28 O26 2.132880 1_556
Mg29 O5 2.093005 1_565
Mg29 O31 2.093540 1_555
Mg29 O14 2.116740 1_555
Mg29 O15 2.116740 1_555
Mg29 O27 2.141815 1_556
Mg29 O7 2.141990 1_555
Mn0 O26 2.154861 1_545
Mn0 O24 2.154861 1_555
Mn0 O16 2.154861 1_555
Mn0 O17 2.154861 1_455
Mn0 O0 2.174994 1_555
Mn0 O4 2.174994 1_554
Cd0 O19 2.230219 1_555
Cd0 O27 2.230219 1_555
Cd0 O25 2.230219 1_555
Cd0 O18 2.230219 1_555
Cd0 O7 2.237800 1_554
Cd0 O3 2.237800 1_555
