# generated using pymatgen
data_Sm4MgTi2Mn2O12
_symmetry_space_group_name_H-M   'P 1'
_cell_length_a   5.57125375
_cell_length_b   6.16276015
_cell_length_c   7.81235099
_cell_angle_alpha   88.47886151
_cell_angle_beta   90.54033229
_cell_angle_gamma   85.94992563
_symmetry_Int_Tables_number   1
_chemical_formula_structural   Sm4MgTi2Mn2O12
_chemical_formula_sum   'Sm4 Mg1 Ti2 Mn2 O12'
_cell_volume   267.45027382
_cell_formula_units_Z   1
loop_
 _symmetry_equiv_pos_site_id
 _symmetry_equiv_pos_as_xyz
  1  'x, y, z'
loop_
 _atom_site_type_symbol
 _atom_site_label
 _atom_site_symmetry_multiplicity
 _atom_site_fract_x
 _atom_site_fract_y
 _atom_site_fract_z
 _atom_site_occupancy
  Sm  Sm0  1  0.04844300  0.94474100  0.73742400  1
  Sm  Sm1  1  0.44547800  0.38638900  0.72992600  1
  Sm  Sm2  1  0.94738600  0.09717900  0.24388300  1
  Sm  Sm3  1  0.49303400  0.58961400  0.23465600  1
  Mg  Mg0  1  0.58007200  0.78315100  0.83155200  1
  Ti  Ti0  1  0.50668500  0.01058900  0.47665100  1
  Ti  Ti1  1  0.98858500  0.51151100  0.99501300  1
  Mn  Mn0  1  0.96197200  0.51061600  0.49379800  1
  Mn  Mn1  1  0.47260600  0.09080300  0.06902700  1
  O  O0  1  0.84576400  0.57483500  0.75605400  1
  O  O1  1  0.64141500  0.05564700  0.72421800  1
  O  O2  1  0.10838900  0.46103900  0.23236400  1
  O  O3  1  0.32646800  0.94029400  0.26817200  1
  O  O4  1  0.80277900  0.83540600  0.43342300  1
  O  O5  1  0.68862000  0.33974700  0.04899100  1
  O  O6  1  0.19583400  0.20106400  0.55079500  1
  O  O7  1  0.28936800  0.67512700  0.93608400  1
  O  O8  1  0.17252400  0.20806700  0.92634800  1
  O  O9  1  0.35518500  0.73218000  0.58911000  1
  O  O10  1  0.76560600  0.82226300  0.05134200  1
  O  O11  1  0.66378300  0.31307100  0.42950200  1
loop_
_geom_bond_atom_site_label_1
_geom_bond_atom_site_label_2
_geom_bond_distance
_geom_bond_site_symmetry_2
Mg0 O1 1.910965 1_565
Mg0 O7 1.970161 1_555
Mg0 O0 1.993832 1_555
Mg0 O10 2.024498 1_556
Mg0 O9 2.301794 1_555
Mn0 O4 2.169495 1_555
Mn0 O11 2.190141 1_555
Mn0 O0 2.192120 1_555
Mn0 O2 2.227007 1_655
Mn0 O6 2.264507 1_655
Mn0 O9 2.768349 1_655
Mn1 O3 1.999415 1_545
Mn1 O5 2.019447 1_555
Mn1 O8 2.076334 1_554
Mn1 O10 2.248863 1_545
O0 Ti1 2.039589 1_555
O0 Sm1 2.594910 1_555
O0 Sm0 2.615738 1_655
O1 Ti0 2.100422 1_555
O1 Sm1 2.244918 1_555
O1 Sm0 2.322277 1_645
O2 Ti1 1.974152 1_454
O2 Sm3 2.336734 1_555
O2 Sm2 2.473033 1_455
O3 Ti0 1.979019 1_565
O3 Sm2 2.263944 1_465
O3 Sm3 2.313362 1_555
O4 Ti0 1.943999 1_565
O4 Sm2 2.350215 1_565
O4 Sm0 2.849842 1_655
O4 Sm3 2.850843 1_555
O5 Ti1 2.081023 1_554
O5 Sm3 2.360895 1_555
O5 Sm2 2.482859 1_555
O5 Sm1 2.823853 1_554
O6 Ti0 2.116728 1_555
O6 Sm0 2.319254 1_545
O6 Sm1 2.338756 1_555
O6 Sm2 2.866856 1_455
O7 Ti1 2.065272 1_455
O7 Sm1 2.544936 1_555
O7 Sm0 2.545569 1_555
O7 Sm3 2.608898 1_556
O8 Ti1 2.151265 1_455
O8 Sm0 2.357158 1_545
O8 Sm1 2.462826 1_555
O8 Sm2 2.878174 1_456
O9 Ti0 2.136978 1_565
O9 Sm1 2.391282 1_555
O9 Sm0 2.404312 1_555
O9 Sm3 3.017240 1_555
O10 Ti1 2.263506 1_554
O10 Sm2 2.551011 1_565
O10 Sm3 2.579190 1_555
O10 Sm0 3.034766 1_654
O11 Ti0 2.139336 1_555
O11 Sm3 2.394270 1_555
O11 Sm2 2.493638 1_555
O11 Sm1 2.687822 1_555
