# generated using pymatgen
data_Zn2Hg2H3(SeO5)2
_symmetry_space_group_name_H-M   'P 1'
_cell_length_a   6.40192800
_cell_length_b   11.67883700
_cell_length_c   14.58351300
_cell_angle_alpha   90.00000000
_cell_angle_beta   90.00000000
_cell_angle_gamma   90.00000000
_symmetry_Int_Tables_number   1
_chemical_formula_structural   Zn2Hg2H3(SeO5)2
_chemical_formula_sum   'Zn8 Hg8 H12 Se8 O40'
_cell_volume   1090.36658978
_cell_formula_units_Z   4
loop_
 _symmetry_equiv_pos_site_id
 _symmetry_equiv_pos_as_xyz
  1  'x, y, z'
loop_
 _atom_site_type_symbol
 _atom_site_label
 _atom_site_symmetry_multiplicity
 _atom_site_fract_x
 _atom_site_fract_y
 _atom_site_fract_z
 _atom_site_occupancy
  Zn  Zn0  1  0.50471000  0.15112900  0.14452200  1
  Zn  Zn1  1  0.49529000  0.84887100  0.85547800  1
  Zn  Zn2  1  0.49529000  0.84887100  0.64452200  1
  Zn  Zn3  1  0.49529000  0.65112900  0.35547800  1
  Zn  Zn4  1  0.50471000  0.15112900  0.35547800  1
  Zn  Zn5  1  0.50471000  0.34887100  0.64452200  1
  Zn  Zn6  1  0.50471000  0.34887100  0.85547800  1
  Zn  Zn7  1  0.49529000  0.65112900  0.14452200  1
  Hg  Hg0  1  0.00938000  0.14840100  0.25000000  1
  Hg  Hg1  1  0.99062000  0.85159900  0.75000000  1
  Hg  Hg2  1  0.99062000  0.64840100  0.25000000  1
  Hg  Hg3  1  0.00938000  0.35159900  0.75000000  1
  Hg  Hg4  1  0.69037900  0.40114400  0.25000000  1
  Hg  Hg5  1  0.30962100  0.59885600  0.75000000  1
  Hg  Hg6  1  0.30962100  0.90114400  0.25000000  1
  Hg  Hg7  1  0.69037900  0.09885600  0.75000000  1
  H  H0  1  0.09453100  0.80045900  0.03530800  1
  H  H1  1  0.90546900  0.19954100  0.96469200  1
  H  H2  1  0.90546900  0.19954100  0.53530800  1
  H  H3  1  0.90546900  0.30045900  0.46469200  1
  H  H4  1  0.09453100  0.80045900  0.46469200  1
  H  H5  1  0.09453100  0.69954100  0.53530800  1
  H  H6  1  0.09453100  0.69954100  0.96469200  1
  H  H7  1  0.90546900  0.30045900  0.03530800  1
  H  H8  1  0.80654300  0.25000000  0.00000000  1
  H  H9  1  0.19345700  0.75000000  0.00000000  1
  H  H10  1  0.19345700  0.75000000  0.50000000  1
  H  H11  1  0.80654300  0.25000000  0.50000000  1
  Se  Se0  1  0.24650600  0.40572100  0.06714000  1
  Se  Se1  1  0.75349400  0.59427900  0.93286000  1
  Se  Se2  1  0.75349400  0.59427900  0.56714000  1
  Se  Se3  1  0.75349400  0.90572100  0.43286000  1
  Se  Se4  1  0.24650600  0.40572100  0.43286000  1
  Se  Se5  1  0.24650600  0.09427900  0.56714000  1
  Se  Se6  1  0.24650600  0.09427900  0.93286000  1
  Se  Se7  1  0.75349400  0.90572100  0.06714000  1
  O  O0  1  0.32560600  0.08743200  0.25000000  1
  O  O1  1  0.67439400  0.91256800  0.75000000  1
  O  O2  1  0.67439400  0.58743200  0.25000000  1
  O  O3  1  0.32560600  0.41256800  0.75000000  1
  O  O4  1  0.41565100  0.32401000  0.12869500  1
  O  O5  1  0.58434900  0.67599000  0.87130500  1
  O  O6  1  0.58434900  0.67599000  0.62869500  1
  O  O7  1  0.58434900  0.82401000  0.37130500  1
  O  O8  1  0.41565100  0.32401000  0.37130500  1
  O  O9  1  0.41565100  0.17599000  0.62869500  1
  O  O10  1  0.41565100  0.17599000  0.87130500  1
  O  O11  1  0.58434900  0.82401000  0.12869500  1
  O  O12  1  0.69892200  0.21424400  0.25000000  1
  O  O13  1  0.30107800  0.78575600  0.75000000  1
  O  O14  1  0.30107800  0.71424400  0.25000000  1
  O  O15  1  0.69892200  0.28575600  0.75000000  1
  O  O16  1  0.99590400  0.36211800  0.09024800  1
  O  O17  1  0.00409600  0.63788200  0.90975200  1
  O  O18  1  0.00409600  0.63788200  0.59024800  1
  O  O19  1  0.00409600  0.86211800  0.40975200  1
  O  O20  1  0.99590400  0.36211800  0.40975200  1
  O  O21  1  0.99590400  0.13788200  0.59024800  1
  O  O22  1  0.99590400  0.13788200  0.90975200  1
  O  O23  1  0.00409600  0.86211800  0.09024800  1
  O  O24  1  0.25654500  0.54016000  0.10907800  1
  O  O25  1  0.74345500  0.45984000  0.89092200  1
  O  O26  1  0.74345500  0.45984000  0.60907800  1
  O  O27  1  0.74345500  0.04016000  0.39092200  1
  O  O28  1  0.25654500  0.54016000  0.39092200  1
  O  O29  1  0.25654500  0.95984000  0.60907800  1
  O  O30  1  0.25654500  0.95984000  0.89092200  1
  O  O31  1  0.74345500  0.04016000  0.10907800  1
  O  O32  1  0.28734500  0.10174700  0.04631000  1
  O  O33  1  0.71265500  0.89825300  0.95369000  1
  O  O34  1  0.71265500  0.89825300  0.54631000  1
  O  O35  1  0.71265500  0.60174700  0.45369000  1
  O  O36  1  0.28734500  0.10174700  0.45369000  1
  O  O37  1  0.28734500  0.39825300  0.54631000  1
  O  O38  1  0.28734500  0.39825300  0.95369000  1
  O  O39  1  0.71265500  0.60174700  0.04631000  1
loop_
_geom_bond_atom_site_label_1
_geom_bond_atom_site_label_2
_geom_bond_distance
_geom_bond_site_symmetry_2
Hg0 O12 2.131100 1_455
Hg0 O0 2.146027 1_555
Hg1 O13 2.131100 1_655
Hg1 O1 2.146027 1_555
Hg2 O14 2.131100 1_655
Hg2 O2 2.146027 1_555
Hg3 O15 2.131100 1_455
Hg3 O3 2.146027 1_555
Hg4 O2 2.178033 1_555
Hg4 O12 2.183460 1_555
Hg4 O4 2.652243 1_555
Hg4 O8 2.652243 1_555
Hg5 O3 2.178033 1_555
Hg5 O13 2.183460 1_555
Hg5 O5 2.652243 1_555
Hg5 O6 2.652243 1_555
Hg6 O0 2.178033 1_565
Hg6 O14 2.183460 1_555
Hg6 O7 2.652243 1_555
Hg6 O11 2.652243 1_555
Hg7 O1 2.178033 1_545
Hg7 O15 2.183460 1_555
Hg7 O9 2.652243 1_555
Hg7 O10 2.652243 1_555
H0 H9 1.006730 1_555
H0 O23 1.222986 1_555
H1 H8 1.006730 1_556
H1 O22 1.222986 1_555
H2 O21 1.222986 1_555
H3 O20 1.222986 1_555
H4 O19 1.222986 1_555
H5 O18 1.222986 1_555
H6 H9 1.006730 1_556
H6 O17 1.222986 1_555
H7 H8 1.006730 1_555
H7 O16 1.222986 1_555
H10 H5 1.006730 1_555
H10 H4 1.006730 1_555
H11 H3 1.006730 1_555
H11 H2 1.006730 1_555
O0 Zn0 2.057740 1_555
O0 Zn4 2.057740 1_555
O1 Zn1 2.057740 1_555
O1 Zn2 2.057740 1_555
O2 Zn7 2.057740 1_555
O2 Zn3 2.057740 1_555
O3 Zn6 2.057740 1_555
O3 Zn5 2.057740 1_555
O4 Se0 1.699731 1_555
O4 Zn0 2.110664 1_555
O5 Se1 1.699731 1_555
O5 Zn1 2.110664 1_555
O6 Se2 1.699731 1_555
O6 Zn2 2.110664 1_555
O7 Se3 1.699731 1_555
O7 Zn3 2.110664 1_555
O8 Se4 1.699731 1_555
O8 Zn4 2.110664 1_555
O9 Se5 1.699731 1_555
O9 Zn5 2.110664 1_555
O10 Se6 1.699731 1_555
O10 Zn6 2.110664 1_555
O11 Se7 1.699731 1_555
O11 Zn7 2.110664 1_555
O12 Zn0 2.110778 1_555
O12 Zn4 2.110778 1_555
O13 Zn1 2.110778 1_555
O13 Zn2 2.110778 1_555
O14 Zn7 2.110778 1_555
O14 Zn3 2.110778 1_555
O15 Zn6 2.110778 1_555
O15 Zn5 2.110778 1_555
O16 Se0 1.716618 1_655
O17 Se1 1.716618 1_455
O18 Se2 1.716618 1_455
O19 Se3 1.716618 1_455
O20 Se4 1.716618 1_655
O21 Se5 1.716618 1_655
O22 Se6 1.716618 1_655
O23 Se7 1.716618 1_455
O24 Se0 1.686231 1_555
O24 Zn7 2.069508 1_555
O25 Se1 1.686231 1_555
O25 Zn6 2.069508 1_555
O26 Se2 1.686231 1_555
O26 Zn5 2.069508 1_555
O27 Se3 1.686231 1_545
O27 Zn4 2.069508 1_555
O28 Se4 1.686231 1_555
O28 Zn3 2.069508 1_555
O29 Se5 1.686231 1_565
O29 Zn2 2.069508 1_555
O30 Se6 1.686231 1_565
O30 Zn1 2.069508 1_555
O31 Se7 1.686231 1_545
O31 Zn0 2.069508 1_555
O32 Se6 1.677299 1_554
O32 Zn0 2.078569 1_555
O33 Se7 1.677299 1_556
O33 Zn1 2.078569 1_555
O34 Se3 1.677299 1_555
O34 Zn2 2.078569 1_555
O35 Se2 1.677299 1_555
O35 Zn3 2.078569 1_555
O36 Se5 1.677299 1_555
O36 Zn4 2.078569 1_555
O37 Se4 1.677299 1_555
O37 Zn5 2.078569 1_555
O38 Se0 1.677299 1_556
O38 Zn6 2.078569 1_555
O39 Se1 1.677299 1_554
O39 Zn7 2.078569 1_555
