# generated using pymatgen
data_NdSi2Ag
_symmetry_space_group_name_H-M   'P 1'
_cell_length_a   4.24607467
_cell_length_b   4.22723926
_cell_length_c   9.00390134
_cell_angle_alpha   90.00000000
_cell_angle_beta   103.62518696
_cell_angle_gamma   90.00000000
_symmetry_Int_Tables_number   1
_chemical_formula_structural   NdSi2Ag
_chemical_formula_sum   'Nd2 Si4 Ag2'
_cell_volume   157.06441174
_cell_formula_units_Z   2
loop_
 _symmetry_equiv_pos_site_id
 _symmetry_equiv_pos_as_xyz
  1  'x, y, z'
loop_
 _atom_site_type_symbol
 _atom_site_label
 _atom_site_symmetry_multiplicity
 _atom_site_fract_x
 _atom_site_fract_y
 _atom_site_fract_z
 _atom_site_occupancy
  Nd  Nd0  1  0.59710052  0.25000000  0.19399780  1
  Nd  Nd1  1  0.40289948  0.75000000  0.80600220  1
  Si  Si0  1  0.96791228  0.25000000  0.93543055  1
  Si  Si1  1  0.03208772  0.75000000  0.06456945  1
  Si  Si2  1  0.83529808  0.25000000  0.67086747  1
  Si  Si3  1  0.16470192  0.75000000  0.32913253  1
  Ag  Ag0  1  0.25172326  0.25000000  0.50360301  1
  Ag  Ag1  1  0.74827674  0.75000000  0.49639699  1
loop_
_geom_bond_atom_site_label_1
_geom_bond_atom_site_label_2
_geom_bond_distance
_geom_bond_site_symmetry_2
Nd0 Si0 3.102605 1_554
Nd0 Si0 3.102756 1_454
Nd0 Si1 3.201703 1_645
Nd0 Si1 3.201703 1_655
Nd0 Si1 3.203726 1_555
Nd0 Si1 3.203726 1_545
Nd0 Si3 3.220438 1_555
Nd0 Si3 3.220438 1_545
Nd0 Si3 3.220983 1_645
Nd0 Si3 3.220983 1_655
Nd1 Si1 3.102605 1_556
Nd1 Si1 3.102756 1_656
Nd1 Si0 3.201703 1_465
Nd1 Si0 3.201703 1_455
Nd1 Si0 3.203726 1_565
Nd1 Si0 3.203726 1_555
Nd1 Si2 3.220438 1_555
Nd1 Si2 3.220438 1_565
Nd1 Si2 3.220983 1_455
Nd1 Si2 3.220983 1_465
Si0 Si2 2.315063 1_555
Si0 Si1 2.396740 1_656
Si0 Si1 2.396740 1_646
Si1 Si3 2.315063 1_555
Ag0 Si2 2.578600 1_455
Ag0 Si2 2.578747 1_555
Ag0 Si3 2.607339 1_545
Ag0 Si3 2.607339 1_555
Ag0 Ag1 2.995979 1_445
Ag0 Ag1 2.995979 1_455
Ag0 Ag1 2.996900 1_545
Ag0 Ag1 2.996900 1_555
Ag0 Nd1 3.386662 1_555
Ag0 Nd1 3.386662 1_545
Ag0 Nd0 3.441867 1_455
Ag0 Nd0 3.442048 1_555
Ag1 Si3 2.578600 1_655
Ag1 Si3 2.578747 1_555
Ag1 Si2 2.607339 1_555
Ag1 Si2 2.607339 1_565
Ag1 Nd0 3.386662 1_555
Ag1 Nd0 3.386662 1_565
Ag1 Nd1 3.441867 1_655
Ag1 Nd1 3.442048 1_555
