# generated using pymatgen
data_Nd2InNi2
_symmetry_space_group_name_H-M   'P 1'
_cell_length_a   3.77392100
_cell_length_b   7.53329300
_cell_length_c   7.72199900
_cell_angle_alpha   90.00000000
_cell_angle_beta   90.00000000
_cell_angle_gamma   90.00000000
_symmetry_Int_Tables_number   1
_chemical_formula_structural   Nd2InNi2
_chemical_formula_sum   'Nd4 In2 Ni4'
_cell_volume   219.53683815
_cell_formula_units_Z   2
loop_
 _symmetry_equiv_pos_site_id
 _symmetry_equiv_pos_as_xyz
  1  'x, y, z'
loop_
 _atom_site_type_symbol
 _atom_site_label
 _atom_site_symmetry_multiplicity
 _atom_site_fract_x
 _atom_site_fract_y
 _atom_site_fract_z
 _atom_site_occupancy
  Nd  Nd0  1  0.50000000  0.67022800  0.81727200  1
  Nd  Nd1  1  0.50000000  0.32977200  0.18272800  1
  Nd  Nd2  1  0.50000000  0.82977200  0.31727200  1
  Nd  Nd3  1  0.50000000  0.17022800  0.68272800  1
  In  In0  1  0.00000000  0.50000000  0.50000000  1
  In  In1  1  0.00000000  0.00000000  0.00000000  1
  Ni  Ni0  1  0.00000000  0.12461300  0.38984400  1
  Ni  Ni1  1  0.00000000  0.87538700  0.61015600  1
  Ni  Ni2  1  0.00000000  0.37538700  0.88984400  1
  Ni  Ni3  1  0.00000000  0.62461300  0.11015600  1
loop_
_geom_bond_atom_site_label_1
_geom_bond_atom_site_label_2
_geom_bond_distance
_geom_bond_site_symmetry_2
Nd0 Ni1 2.916707 1_655
Nd0 Ni1 2.916707 1_555
Nd0 Ni3 2.965428 1_556
Nd0 Ni3 2.965428 1_656
Nd0 Ni2 2.967837 1_555
Nd0 Ni2 2.967837 1_655
Nd1 Ni0 2.916707 1_655
Nd1 Ni0 2.916707 1_555
Nd1 Ni2 2.965428 1_554
Nd1 Ni2 2.965428 1_654
Nd1 Ni3 2.967837 1_555
Nd1 Ni3 2.967837 1_655
Nd2 Ni3 2.916707 1_555
Nd2 Ni3 2.916707 1_655
Nd2 Ni1 2.965428 1_655
Nd2 Ni1 2.965428 1_555
Nd2 Ni0 2.967837 1_565
Nd2 Ni0 2.967837 1_665
Nd3 Ni2 2.916707 1_555
Nd3 Ni2 2.916707 1_655
Nd3 Ni0 2.965428 1_555
Nd3 Ni0 2.965428 1_655
Nd3 Ni1 2.967837 1_545
Nd3 Ni1 2.967837 1_645
In0 Ni1 2.953063 1_555
In0 Ni0 2.953063 1_555
In0 Ni2 3.153348 1_555
In0 Ni3 3.153348 1_555
In0 Nd0 3.347758 1_455
In0 Nd0 3.347758 1_555
In0 Nd1 3.347758 1_555
In0 Nd1 3.347758 1_455
In0 Nd2 3.423917 1_455
In0 Nd2 3.423917 1_555
In0 Nd3 3.423917 1_455
In0 Nd3 3.423917 1_555
In1 Ni2 2.953063 1_554
In1 Ni3 2.953063 1_545
In1 Ni0 3.153348 1_555
In1 Ni1 3.153348 1_544
In1 Nd2 3.347758 1_445
In1 Nd3 3.347758 1_554
In1 Nd3 3.347758 1_454
In1 Nd2 3.347758 1_545
In1 Nd1 3.423917 1_455
In1 Nd1 3.423917 1_555
In1 Nd0 3.423917 1_544
In1 Nd0 3.423917 1_444
Ni0 Ni1 2.533619 1_545
Ni2 Ni3 2.533619 1_556
