# generated using pymatgen
data_SrAl2(SiO5)2
_symmetry_space_group_name_H-M   'P 1'
_cell_length_a   13.18749400
_cell_length_b   5.38638500
_cell_length_c   5.44104839
_cell_angle_alpha   66.29446028
_cell_angle_beta   90.00000000
_cell_angle_gamma   90.00000000
_symmetry_Int_Tables_number   1
_chemical_formula_structural   SrAl2(SiO5)2
_chemical_formula_sum   'Sr2 Al4 Si4 O20'
_cell_volume   353.88266824
_cell_formula_units_Z   2
loop_
 _symmetry_equiv_pos_site_id
 _symmetry_equiv_pos_as_xyz
  1  'x, y, z'
loop_
 _atom_site_type_symbol
 _atom_site_label
 _atom_site_symmetry_multiplicity
 _atom_site_fract_x
 _atom_site_fract_y
 _atom_site_fract_z
 _atom_site_occupancy
  Sr  Sr0  1  0.75000000  0.32147500  0.34309300  1
  Sr  Sr1  1  0.25000000  0.67852500  0.65690700  1
  Al  Al0  1  0.00000000  0.00000000  0.50000000  1
  Al  Al1  1  0.50000000  0.00000000  0.50000000  1
  Al  Al2  1  0.00000000  0.50000000  0.00000000  1
  Al  Al3  1  0.50000000  0.50000000  0.00000000  1
  Si  Si0  1  0.12826500  0.00975700  0.02554600  1
  Si  Si1  1  0.62826500  0.99024300  0.97445400  1
  Si  Si2  1  0.87173500  0.99024300  0.97445400  1
  Si  Si3  1  0.37173500  0.00975700  0.02554600  1
  O  O0  1  0.75000000  0.05397700  0.00845200  1
  O  O1  1  0.25000000  0.94602300  0.99154800  1
  O  O2  1  0.11046300  0.33923200  0.89924600  1
  O  O3  1  0.61046300  0.66076800  0.10075400  1
  O  O4  1  0.88953700  0.66076800  0.10075400  1
  O  O5  1  0.38953700  0.33923200  0.89924600  1
  O  O6  1  0.39667900  0.87527300  0.34603700  1
  O  O7  1  0.89667900  0.12472700  0.65396300  1
  O  O8  1  0.60332100  0.12472700  0.65396300  1
  O  O9  1  0.10332100  0.87527300  0.34603700  1
  O  O10  1  0.07227700  0.85489500  0.85499100  1
  O  O11  1  0.57227700  0.14510500  0.14500900  1
  O  O12  1  0.92772300  0.14510500  0.14500900  1
  O  O13  1  0.42772300  0.85489500  0.85499100  1
  O  O14  1  0.06153700  0.34801000  0.34510000  1
  O  O15  1  0.56153700  0.65199000  0.65490000  1
  O  O16  1  0.93846300  0.65199000  0.65490000  1
  O  O17  1  0.43846300  0.34801000  0.34510000  1
  O  O18  1  0.75000000  0.71449900  0.54262300  1
  O  O19  1  0.25000000  0.28550100  0.45737700  1
loop_
_geom_bond_atom_site_label_1
_geom_bond_atom_site_label_2
_geom_bond_distance
_geom_bond_site_symmetry_2
Al0 O7 1.860696 1_455
Al0 O9 1.860696 1_545
Al0 O14 1.900626 1_555
Al0 O16 1.900626 1_445
Al0 O10 2.009052 1_545
Al0 O12 2.009052 1_455
Al1 O8 1.860696 1_555
Al1 O6 1.860696 1_545
Al1 O15 1.900626 1_545
Al1 O17 1.900626 1_555
Al1 O11 2.009052 1_555
Al1 O13 2.009052 1_545
Al2 O2 1.885256 1_554
Al2 O4 1.885256 1_455
Al2 O14 1.902242 1_555
Al2 O16 1.902242 1_454
Al2 O10 1.993112 1_554
Al2 O12 1.993112 1_455
Al3 O3 1.885256 1_555
Al3 O5 1.885256 1_554
Al3 O15 1.902242 1_554
Al3 O17 1.902242 1_555
Al3 O11 1.993112 1_555
Al3 O13 1.993112 1_554
O0 Si2 1.667446 1_544
O0 Si1 1.667446 1_544
O0 Sr0 2.738763 1_555
O1 Si3 1.667446 1_566
O1 Si0 1.667446 1_566
O1 Sr1 2.738763 1_555
O2 Si0 1.642020 1_556
O2 Sr1 2.554823 1_555
O3 Si1 1.642020 1_554
O3 Sr0 2.554823 1_555
O4 Si2 1.642020 1_554
O4 Sr0 2.554823 1_555
O5 Si3 1.642020 1_556
O5 Sr1 2.554823 1_555
O6 Si3 1.630371 1_565
O6 Sr1 2.506874 1_555
O7 Si2 1.630371 1_545
O7 Sr0 2.506874 1_555
O8 Si1 1.630371 1_545
O8 Sr0 2.506874 1_555
O9 Si0 1.630371 1_565
O9 Sr1 2.506874 1_555
O10 Si0 1.650621 1_566
O10 Sr1 2.894896 1_555
O11 Si1 1.650621 1_544
O11 Sr0 2.894896 1_555
O12 Si2 1.650621 1_544
O12 Sr0 2.894896 1_555
O13 Si3 1.650621 1_566
O13 Sr1 2.894896 1_555
O18 Sr0 2.740117 1_555
O18 Sr0 3.002275 1_565
O19 Sr1 2.740117 1_555
O19 Sr1 3.002275 1_545
