# generated using pymatgen
data_LiFeF3
_symmetry_space_group_name_H-M   'P 1'
_cell_length_a   6.91196400
_cell_length_b   7.97358585
_cell_length_c   21.26715075
_cell_angle_alpha   83.01047849
_cell_angle_beta   82.88734625
_cell_angle_gamma   89.06448116
_symmetry_Int_Tables_number   1
_chemical_formula_structural   LiFeF3
_chemical_formula_sum   'Li18 Fe18 F54'
_cell_volume   1154.43520690
_cell_formula_units_Z   18
loop_
 _symmetry_equiv_pos_site_id
 _symmetry_equiv_pos_as_xyz
  1  'x, y, z'
loop_
 _atom_site_type_symbol
 _atom_site_label
 _atom_site_symmetry_multiplicity
 _atom_site_fract_x
 _atom_site_fract_y
 _atom_site_fract_z
 _atom_site_occupancy
  Li  Li0  1  0.74633800  0.70196500  0.86419900  1
  Li  Li1  1  0.89110300  0.29568700  0.29564800  1
  Li  Li2  1  0.66183100  0.39847700  0.65172700  1
  Li  Li3  1  0.74302600  0.31439200  0.44428800  1
  Li  Li4  1  0.82492700  0.99689100  0.08910900  1
  Li  Li5  1  0.53487000  0.43108600  0.79621000  1
  Li  Li6  1  0.38057800  0.28167100  0.98415800  1
  Li  Li7  1  0.69466200  0.02541100  0.23196700  1
  Li  Li8  1  0.51363800  0.86794200  0.42102100  1
  Li  Li9  1  0.48636200  0.13205800  0.57897900  1
  Li  Li10  1  0.30533800  0.97458900  0.76803300  1
  Li  Li11  1  0.61942200  0.71832900  0.01584200  1
  Li  Li12  1  0.46513000  0.56891400  0.20379000  1
  Li  Li13  1  0.17507300  0.00310900  0.91089100  1
  Li  Li14  1  0.25697400  0.68560800  0.55571200  1
  Li  Li15  1  0.33816900  0.60152300  0.34827300  1
  Li  Li16  1  0.10889700  0.70431300  0.70435200  1
  Li  Li17  1  0.25366200  0.29803500  0.13580100  1
  Fe  Fe0  1  0.89586500  0.35177100  0.96638800  1
  Fe  Fe1  1  0.94280300  0.01029700  0.58197300  1
  Fe  Fe2  1  0.80874900  0.04916400  0.73822800  1
  Fe  Fe3  1  0.99229800  0.67289600  0.18876700  1
  Fe  Fe4  1  0.76787600  0.69518900  0.50685800  1
  Fe  Fe5  1  0.60649100  0.04409600  0.89960700  1
  Fe  Fe6  1  0.84936300  0.68217900  0.34631900  1
  Fe  Fe7  1  0.58484900  0.76246100  0.66342700  1
  Fe  Fe8  1  0.76525000  0.36738700  0.13268600  1
  Fe  Fe9  1  0.23475000  0.63261300  0.86731400  1
  Fe  Fe10  1  0.41515100  0.23753900  0.33657300  1
  Fe  Fe11  1  0.15063700  0.31782100  0.65368100  1
  Fe  Fe12  1  0.39350900  0.95590400  0.10039300  1
  Fe  Fe13  1  0.23212400  0.30481100  0.49314200  1
  Fe  Fe14  1  0.00770200  0.32710400  0.81123300  1
  Fe  Fe15  1  0.19125100  0.95083600  0.26177200  1
  Fe  Fe16  1  0.05719700  0.98970300  0.41802700  1
  Fe  Fe17  1  0.10413500  0.64822900  0.03361200  1
  F  F0  1  0.97307100  0.16685400  0.90020800  1
  F  F1  1  0.94154400  0.52556500  0.87343500  1
  F  F2  1  0.90366700  0.86335700  0.67281200  1
  F  F3  1  0.80085900  0.92832300  0.82299900  1
  F  F4  1  0.96046100  0.17046800  0.48402400  1
  F  F5  1  0.86149100  0.21413300  0.64837100  1
  F  F6  1  0.64867600  0.80189900  0.93305800  1
  F  F7  1  0.96796300  0.52546700  0.28451200  1
  F  F8  1  0.73531400  0.25937300  0.79423500  1
  F  F9  1  0.85147400  0.53892300  0.43876600  1
  F  F10  1  0.89428700  0.85778900  0.25963300  1
  F  F11  1  0.63741500  0.29688900  0.93987500  1
  F  F12  1  0.73454500  0.60111900  0.59681500  1
  F  F13  1  0.79727800  0.88095500  0.42220000  1
  F  F14  1  0.66635300  0.94963300  0.57790800  1
  F  F15  1  0.52154700  0.61213200  0.84362900  1
  F  F16  1  0.54222900  0.97192000  0.70981900  1
  F  F17  1  0.57373300  0.53742000  0.71345600  1
  F  F18  1  0.88045800  0.22766500  0.06126700  1
  F  F19  1  0.81247600  0.23790600  0.22140200  1
  F  F20  1  0.69196500  0.25351100  0.36542100  1
  F  F21  1  0.82377000  0.55451800  0.02838400  1
  F  F22  1  0.72698600  0.61196400  0.17605400  1
  F  F23  1  0.38544700  0.98905200  0.84443300  1
  F  F24  1  0.52154900  0.27591200  0.50216400  1
  F  F25  1  0.64534200  0.92232100  0.04354200  1
  F  F26  1  0.43700300  0.29304200  0.63717400  1
  F  F27  1  0.56299700  0.70695800  0.36282600  1
  F  F28  1  0.35465800  0.07767900  0.95645800  1
  F  F29  1  0.47845100  0.72408800  0.49783600  1
  F  F30  1  0.61455300  0.01094800  0.15556700  1
  F  F31  1  0.27301400  0.38803600  0.82394600  1
  F  F32  1  0.17623000  0.44548200  0.97161600  1
  F  F33  1  0.30803500  0.74648900  0.63457900  1
  F  F34  1  0.18752400  0.76209400  0.77859800  1
  F  F35  1  0.11954200  0.77233500  0.93873300  1
  F  F36  1  0.42626700  0.46258000  0.28654400  1
  F  F37  1  0.45777100  0.02808000  0.29018100  1
  F  F38  1  0.47845300  0.38786800  0.15637100  1
  F  F39  1  0.33364700  0.05036700  0.42209200  1
  F  F40  1  0.20272200  0.11904500  0.57780000  1
  F  F41  1  0.26545500  0.39888100  0.40318500  1
  F  F42  1  0.36258500  0.70311100  0.06012500  1
  F  F43  1  0.10571300  0.14221100  0.74036700  1
  F  F44  1  0.14852600  0.46107700  0.56123400  1
  F  F45  1  0.26468600  0.74062700  0.20576500  1
  F  F46  1  0.03203700  0.47453300  0.71548800  1
  F  F47  1  0.35132400  0.19810100  0.06694200  1
  F  F48  1  0.13850900  0.78586700  0.35162900  1
  F  F49  1  0.03953900  0.82953200  0.51597600  1
  F  F50  1  0.19914100  0.07167700  0.17700100  1
  F  F51  1  0.09633300  0.13664300  0.32718800  1
  F  F52  1  0.05845600  0.47443500  0.12656500  1
  F  F53  1  0.02692900  0.83314600  0.09979200  1
loop_
_geom_bond_atom_site_label_1
_geom_bond_atom_site_label_2
_geom_bond_distance
_geom_bond_site_symmetry_2
F0 Li13 1.911176 1_655
F0 Fe14 2.140082 1_655
F0 Fe0 2.175568 1_555
F1 Li0 1.942641 1_555
F1 Fe14 2.190716 1_655
F1 Fe9 2.194731 1_655
F1 Fe0 2.262951 1_555
F2 Li16 2.010041 1_655
F2 Fe1 2.123242 1_565
F2 Fe2 2.191973 1_565
F2 Fe7 2.397721 1_555
F3 Li0 1.929486 1_555
F3 Fe2 1.932925 1_565
F3 Fe5 2.257201 1_565
F4 Li3 2.076536 1_555
F4 Fe16 2.173254 1_645
F4 Fe13 2.217503 1_655
F4 Fe1 2.297807 1_555
F5 Li2 2.001267 1_555
F5 Fe2 2.178635 1_555
F5 Fe11 2.196163 1_655
F5 Fe1 2.298631 1_555
F6 Li11 1.793118 1_556
F6 Li0 1.804664 1_555
F6 Fe5 2.004792 1_565
F7 Li1 1.894780 1_555
F7 Fe6 2.015105 1_555
F7 Fe3 2.212571 1_555
F8 Li5 1.932235 1_555
F8 Fe14 2.053364 1_655
F8 Fe2 2.189552 1_555
F9 Li3 1.936947 1_555
F9 Fe4 2.047406 1_555
F9 Fe6 2.151850 1_555
F10 Li7 1.996456 1_565
F10 Fe6 2.167948 1_555
F10 Fe15 2.201536 1_655
F10 Fe3 2.271361 1_555
F11 Li6 1.902199 1_555
F11 Fe0 2.008897 1_555
F11 Fe5 2.306839 1_555
F12 Li2 1.910261 1_555
F12 Fe4 1.955251 1_555
F12 Fe7 2.183938 1_555
F13 Li8 1.968360 1_555
F13 Fe16 1.994996 1_655
F13 Fe4 2.178774 1_555
F13 Fe6 2.388713 1_555
F14 Li9 1.898958 1_565
F14 Fe1 1.993469 1_565
F14 Fe7 2.228378 1_555
F15 Li0 1.843776 1_555
F15 Li5 1.853752 1_555
F15 Fe9 1.993039 1_555
F16 Li10 1.928081 1_555
F16 Fe7 2.040238 1_555
F16 Fe2 2.131017 1_565
F17 Li5 1.848141 1_555
F17 Li2 1.858924 1_555
F17 Fe7 1.969103 1_555
F18 Li4 1.893540 1_545
F18 Fe8 2.065341 1_555
F18 Fe0 2.127533 1_554
F19 Li1 1.843530 1_555
F19 Li7 1.868560 1_555
F19 Fe8 2.097539 1_555
F20 Li3 1.877184 1_555
F20 Li1 1.896685 1_555
F20 Fe10 2.090721 1_555
F21 Li11 1.928852 1_555
F21 Fe17 2.108767 1_655
F21 Fe0 2.220339 1_554
F21 Fe8 2.510462 1_555
F22 Li12 1.856953 1_555
F22 Fe3 1.963648 1_555
F22 Fe8 2.254821 1_555
F23 Li10 1.797328 1_555
F23 Li13 1.910201 1_565
F23 Fe5 2.120142 1_565
F24 Li3 1.846465 1_555
F24 Li9 1.870367 1_555
F24 Fe13 2.039886 1_555
F25 Li11 1.814841 1_555
F25 Li4 1.815397 1_555
F25 Fe12 2.026284 1_555
F26 Li2 1.855418 1_555
F26 Li9 1.887752 1_555
F26 Fe11 1.977914 1_555
F27 Li15 1.855418 1_555
F27 Li8 1.887752 1_555
F27 Fe6 1.977914 1_555
F28 Li6 1.814841 1_555
F28 Li13 1.815397 1_555
F28 Fe5 2.026284 1_555
F29 Li14 1.846465 1_555
F29 Li8 1.870367 1_555
F29 Fe4 2.039886 1_555
F30 Li7 1.797328 1_555
F30 Li4 1.910201 1_545
F30 Fe12 2.120142 1_545
F31 Li5 1.856953 1_555
F31 Fe14 1.963648 1_555
F31 Fe9 2.254821 1_555
F32 Li6 1.928852 1_555
F32 Fe0 2.108767 1_455
F32 Fe17 2.220339 1_556
F32 Fe9 2.510462 1_555
F33 Li14 1.877184 1_555
F33 Li16 1.896685 1_555
F33 Fe7 2.090721 1_555
F34 Li16 1.843530 1_555
F34 Li10 1.868560 1_555
F34 Fe9 2.097539 1_555
F35 Li13 1.893540 1_565
F35 Fe9 2.065341 1_555
F35 Fe17 2.127533 1_556
F36 Li12 1.848141 1_555
F36 Li15 1.858924 1_555
F36 Fe10 1.969103 1_555
F37 Li7 1.928081 1_555
F37 Fe10 2.040238 1_555
F37 Fe15 2.131017 1_545
F38 Li17 1.843776 1_555
F38 Li12 1.853752 1_555
F38 Fe8 1.993039 1_555
F39 Li8 1.898958 1_545
F39 Fe16 1.993469 1_545
F39 Fe10 2.228378 1_555
F40 Li9 1.968360 1_555
F40 Fe1 1.994996 1_455
F40 Fe13 2.178774 1_555
F40 Fe11 2.388713 1_555
F41 Li15 1.910261 1_555
F41 Fe13 1.955251 1_555
F41 Fe10 2.183938 1_555
F42 Li11 1.902199 1_555
F42 Fe17 2.008897 1_555
F42 Fe12 2.306839 1_555
F43 Li10 1.996456 1_545
F43 Fe11 2.167948 1_555
F43 Fe2 2.201536 1_455
F43 Fe14 2.271361 1_555
F44 Li14 1.936947 1_555
F44 Fe13 2.047406 1_555
F44 Fe11 2.151850 1_555
F45 Li12 1.932235 1_555
F45 Fe3 2.053364 1_455
F45 Fe15 2.189552 1_555
F46 Li16 1.894780 1_555
F46 Fe11 2.015105 1_555
F46 Fe14 2.212571 1_555
F47 Li6 1.793118 1_554
F47 Li17 1.804664 1_555
F47 Fe12 2.004792 1_545
F48 Li15 2.001267 1_555
F48 Fe15 2.178635 1_555
F48 Fe6 2.196163 1_455
F48 Fe16 2.298631 1_555
F49 Li14 2.076536 1_555
F49 Fe1 2.173254 1_465
F49 Fe4 2.217503 1_455
F49 Fe16 2.297807 1_555
F50 Li17 1.929486 1_555
F50 Fe15 1.932925 1_545
F50 Fe12 2.257201 1_545
F51 Li1 2.010041 1_455
F51 Fe16 2.123242 1_545
F51 Fe15 2.191973 1_545
F51 Fe10 2.397721 1_555
F52 Li17 1.942641 1_555
F52 Fe3 2.190716 1_455
F52 Fe8 2.194731 1_455
F52 Fe17 2.262951 1_555
F53 Li4 1.911176 1_455
F53 Fe3 2.140082 1_455
F53 Fe17 2.175568 1_555
