# generated using pymatgen
data_Tb(Co2B)6
_symmetry_space_group_name_H-M   'P 1'
_cell_length_a   5.92481743
_cell_length_b   5.92484577
_cell_length_c   5.92484259
_cell_angle_alpha   104.08783600
_cell_angle_beta   104.08761489
_cell_angle_gamma   104.08716659
_symmetry_Int_Tables_number   1
_chemical_formula_structural   Tb(Co2B)6
_chemical_formula_sum   'Tb1 Co12 B6'
_cell_volume   185.25971854
_cell_formula_units_Z   1
loop_
 _symmetry_equiv_pos_site_id
 _symmetry_equiv_pos_as_xyz
  1  'x, y, z'
loop_
 _atom_site_type_symbol
 _atom_site_label
 _atom_site_symmetry_multiplicity
 _atom_site_fract_x
 _atom_site_fract_y
 _atom_site_fract_z
 _atom_site_occupancy
  Tb  Tb0  1  -0.00000000  0.00000000  -0.00000000  1
  Co  Co0  1  0.13277416  0.86722484  0.50000100  1
  Co  Co1  1  0.49999463  0.13276494  0.86720907  1
  Co  Co2  1  0.86723506  0.50000437  0.13279193  1
  Co  Co3  1  0.50000537  0.86723506  0.13279093  1
  Co  Co4  1  0.13276494  0.49999563  0.86720807  1
  Co  Co5  1  0.86722584  0.13277516  0.49999900  1
  Co  Co6  1  0.54233501  0.81435187  0.54233112  1
  Co  Co7  1  0.54231960  0.54231960  0.81435736  1
  Co  Co8  1  0.81434987  0.54233401  0.54232912  1
  Co  Co9  1  0.45766499  0.18564813  0.45766888  1
  Co  Co10  1  0.45768040  0.45768040  0.18564264  1
  Co  Co11  1  0.18565013  0.45766599  0.45767088  1
  B  B0  1  0.76922723  0.32209343  0.76921280  1
  B  B1  1  0.76923338  0.76923338  0.32211226  1
  B  B2  1  0.32209143  0.76922623  0.76921080  1
  B  B3  1  0.23077277  0.67790657  0.23078720  1
  B  B4  1  0.23076662  0.23076662  0.67788774  1
  B  B5  1  0.67790857  0.23077377  0.23078920  1
loop_
_geom_bond_atom_site_label_1
_geom_bond_atom_site_label_2
_geom_bond_distance
_geom_bond_site_symmetry_2
Co0 Tb0 3.211669 1_566
Co0 Tb0 3.211689 1_565
Co1 Tb0 3.211672 1_656
Co1 Tb0 3.211693 1_556
Co2 Tb0 3.211675 1_655
Co2 Tb0 3.211717 1_665
Co3 Tb0 3.211672 1_565
Co3 Tb0 3.211693 1_665
Co4 Tb0 3.211675 1_566
Co4 Tb0 3.211717 1_556
Co5 Tb0 3.211669 1_655
Co5 Tb0 3.211689 1_656
Co6 Tb0 3.071173 1_666
Co7 Tb0 3.071280 1_666
Co8 Tb0 3.071185 1_666
Co9 Tb0 3.071173 1_555
Co10 Tb0 3.071280 1_555
Co11 Tb0 3.071185 1_555
B0 Co5 2.009073 1_555
B0 Co1 2.009183 1_555
B0 Co4 2.018784 1_655
B0 Co2 2.018999 1_556
B0 Co9 2.087250 1_555
B0 Co8 2.107197 1_555
B0 Co7 2.107251 1_555
B0 Tb0 3.001895 1_656
B1 Co3 2.009154 1_555
B1 Co2 2.009155 1_555
B1 Co0 2.018783 1_655
B1 Co5 2.018791 1_565
B1 Co10 2.087251 1_555
B1 Co6 2.107158 1_555
B1 Co8 2.107161 1_555
B1 Tb0 3.001922 1_665
B2 Co0 2.009058 1_555
B2 Co4 2.009176 1_555
B2 Co1 2.018795 1_565
B2 Co3 2.019007 1_556
B2 Co11 2.087232 1_555
B2 Co6 2.107186 1_555
B2 Co7 2.107258 1_555
B2 Tb0 3.001883 1_566
B3 Co0 2.009073 1_555
B3 Co3 2.009183 1_555
B3 Co2 2.018784 1_455
B3 Co4 2.018999 1_554
B3 Co6 2.087250 1_555
B3 Co11 2.107197 1_555
B3 Co10 2.107251 1_555
B3 Tb0 3.001895 1_565
B4 Co1 2.009154 1_555
B4 Co4 2.009155 1_555
B4 Co5 2.018783 1_455
B4 Co0 2.018791 1_545
B4 Co7 2.087251 1_555
B4 Co9 2.107158 1_555
B4 Co11 2.107161 1_555
B4 Tb0 3.001922 1_556
B5 Co5 2.009058 1_555
B5 Co2 2.009176 1_555
B5 Co3 2.018795 1_545
B5 Co1 2.019007 1_554
B5 Co8 2.087232 1_555
B5 Co9 2.107186 1_555
B5 Co10 2.107258 1_555
B5 Tb0 3.001883 1_655
