# generated using pymatgen
data_Sr2Co(SeO3)3
_symmetry_space_group_name_H-M   'P 1'
_cell_length_a   7.46007440
_cell_length_b   7.76397967
_cell_length_c   8.87212183
_cell_angle_alpha   103.24766111
_cell_angle_beta   105.47959853
_cell_angle_gamma   95.57393877
_symmetry_Int_Tables_number   1
_chemical_formula_structural   Sr2Co(SeO3)3
_chemical_formula_sum   'Sr4 Co2 Se6 O18'
_cell_volume   475.14047698
_cell_formula_units_Z   2
loop_
 _symmetry_equiv_pos_site_id
 _symmetry_equiv_pos_as_xyz
  1  'x, y, z'
loop_
 _atom_site_type_symbol
 _atom_site_label
 _atom_site_symmetry_multiplicity
 _atom_site_fract_x
 _atom_site_fract_y
 _atom_site_fract_z
 _atom_site_occupancy
  Sr  Sr0  1  0.62783300  0.48432000  0.80703400  1
  Sr  Sr1  1  0.37216700  0.51568000  0.19296600  1
  Sr  Sr2  1  0.75326000  0.90949000  0.61077000  1
  Sr  Sr3  1  0.24674100  0.09051000  0.38923000  1
  Co  Co0  1  0.09636200  0.33863100  0.75453500  1
  Co  Co1  1  0.90363700  0.66136900  0.24546500  1
  Se  Se0  1  0.23434300  0.63392600  0.58490500  1
  Se  Se1  1  0.90402800  0.21000300  0.04062500  1
  Se  Se2  1  0.36252600  0.08363900  0.79342300  1
  Se  Se3  1  0.63747300  0.91636100  0.20657700  1
  Se  Se4  1  0.09597100  0.78999700  0.95937400  1
  Se  Se5  1  0.76565800  0.36607400  0.41509500  1
  O  O0  1  0.17441400  0.63059100  0.38202100  1
  O  O1  1  0.82558600  0.36940900  0.61798000  1
  O  O2  1  0.22588200  0.40727500  0.58834400  1
  O  O3  1  0.77411800  0.59272500  0.41165600  1
  O  O4  1  0.47479700  0.69954900  0.64611100  1
  O  O5  1  0.52520300  0.30045100  0.35388900  1
  O  O6  1  0.06151300  0.81823600  0.14776800  1
  O  O7  1  0.93848700  0.18176400  0.85223200  1
  O  O8  1  0.16565200  0.58052800  0.93153300  1
  O  O9  1  0.83434900  0.41947200  0.06846700  1
  O  O10  1  0.87214100  0.75216300  0.83010500  1
  O  O11  1  0.12786000  0.24783700  0.16989500  1
  O  O12  1  0.48799800  0.87569700  0.31811400  1
  O  O13  1  0.51200100  0.12430300  0.68188500  1
  O  O14  1  0.85384800  0.94902000  0.35305800  1
  O  O15  1  0.36387700  0.30263300  0.90051700  1
  O  O16  1  0.63612400  0.69736700  0.09948300  1
  O  O17  1  0.14615100  0.05098000  0.64694300  1
loop_
_geom_bond_atom_site_label_1
_geom_bond_atom_site_label_2
_geom_bond_distance
_geom_bond_site_symmetry_2
Co0 O8 2.070460 1_555
Co0 O7 2.090895 1_455
Co0 O2 2.100544 1_555
Co0 O1 2.127312 1_455
Co0 O15 2.152410 1_555
Co0 O17 2.325982 1_555
Co1 O9 2.070460 1_555
Co1 O6 2.090900 1_655
Co1 O3 2.100539 1_555
Co1 O0 2.127321 1_655
Co1 O16 2.152398 1_555
Co1 O14 2.325984 1_555
O0 Se0 1.728414 1_555
O0 Sr1 2.583874 1_555
O1 Se5 1.728423 1_555
O1 Sr0 2.583867 1_555
O2 Se0 1.762262 1_555
O2 Sr3 2.724564 1_555
O2 Sr0 3.021244 1_555
O3 Se5 1.762262 1_555
O3 Sr2 2.724562 1_555
O3 Sr1 3.021244 1_555
O4 Se0 1.716944 1_555
O4 Sr0 2.593865 1_555
O4 Sr2 2.644748 1_555
O5 Se5 1.716951 1_555
O5 Sr1 2.593865 1_555
O5 Sr3 2.644743 1_555
O6 Se4 1.726340 1_554
O6 Sr3 2.596982 1_565
O7 Se1 1.726335 1_556
O7 Sr2 2.596981 1_545
O8 Se4 1.739189 1_555
O8 Sr1 2.604874 1_556
O9 Se1 1.739183 1_555
O9 Sr0 2.604877 1_554
O10 Se4 1.708188 1_655
O10 Sr2 2.538497 1_555
O10 Sr0 2.560774 1_555
O11 Se1 1.708203 1_455
O11 Sr3 2.538497 1_555
O11 Sr1 2.560769 1_555
O12 Se3 1.728056 1_555
O12 Sr3 2.669440 1_565
O12 Sr1 2.718214 1_555
O12 Sr2 2.751496 1_555
O13 Se2 1.728063 1_555
O13 Sr2 2.669450 1_545
O13 Sr0 2.718216 1_555
O13 Sr3 2.751483 1_555
O14 Se3 1.734500 1_555
O14 Sr2 2.660428 1_555
O14 Sr3 2.934522 1_665
O15 Se2 1.744972 1_555
O15 Sr1 2.720199 1_556
O15 Sr0 2.724629 1_555
O16 Se3 1.744975 1_555
O16 Sr0 2.720196 1_554
O16 Sr1 2.724634 1_555
O17 Se2 1.734496 1_555
O17 Sr3 2.660444 1_555
O17 Sr2 2.934506 1_445
