# generated using pymatgen
data_Ba4ZrN4
_symmetry_space_group_name_H-M   'P 1'
_cell_length_a   6.94323767
_cell_length_b   6.96286350
_cell_length_c   10.08284458
_cell_angle_alpha   71.72494497
_cell_angle_beta   79.12360777
_cell_angle_gamma   65.87036455
_symmetry_Int_Tables_number   1
_chemical_formula_structural   Ba4ZrN4
_chemical_formula_sum   'Ba8 Zr2 N8'
_cell_volume   421.39247785
_cell_formula_units_Z   2
loop_
 _symmetry_equiv_pos_site_id
 _symmetry_equiv_pos_as_xyz
  1  'x, y, z'
loop_
 _atom_site_type_symbol
 _atom_site_label
 _atom_site_symmetry_multiplicity
 _atom_site_fract_x
 _atom_site_fract_y
 _atom_site_fract_z
 _atom_site_occupancy
  Ba  Ba0  1  0.76909100  0.57778700  0.16228100  1
  Ba  Ba1  1  0.23090900  0.42221300  0.83771900  1
  Ba  Ba2  1  0.74928400  0.23463300  0.96805900  1
  Ba  Ba3  1  0.25071600  0.76536700  0.03194100  1
  Ba  Ba4  1  0.72053500  0.49065000  0.56466100  1
  Ba  Ba5  1  0.27946500  0.50935000  0.43533900  1
  Ba  Ba6  1  0.21956200  0.97160800  0.61633800  1
  Ba  Ba7  1  0.78043800  0.02839200  0.38366200  1
  Zr  Zr0  1  0.72003500  0.84403400  0.75768600  1
  Zr  Zr1  1  0.27996500  0.15596600  0.24231400  1
  N  N0  1  0.96028400  0.68337300  0.62402200  1
  N  N1  1  0.03971600  0.31662700  0.37597800  1
  N  N2  1  0.89251000  0.81980000  0.92111300  1
  N  N3  1  0.10749000  0.18020000  0.07888700  1
  N  N4  1  0.51991200  0.66421600  0.81261200  1
  N  N5  1  0.48008800  0.33578400  0.18738800  1
  N  N6  1  0.45491300  0.84317100  0.37217000  1
  N  N7  1  0.54508700  0.15682900  0.62783000  1
loop_
_geom_bond_atom_site_label_1
_geom_bond_atom_site_label_2
_geom_bond_distance
_geom_bond_site_symmetry_2
Ba0 N2 2.703939 1_554
Ba0 N1 2.785132 1_655
Ba0 N5 3.038949 1_555
Ba0 N3 3.047544 1_655
Ba0 N6 3.172752 1_555
Ba1 N3 2.703939 1_556
Ba1 N0 2.785132 1_455
Ba1 N4 3.038949 1_555
Ba1 N2 3.047544 1_455
Ba1 N7 3.172752 1_555
Ba2 N5 2.687144 1_556
Ba2 N3 2.755103 1_656
Ba2 N2 2.808440 1_545
Ba2 N4 2.836684 1_555
Ba3 N4 2.687144 1_554
Ba3 N2 2.755103 1_454
Ba3 N3 2.808440 1_565
Ba3 N5 2.836684 1_555
Ba4 N0 2.763333 1_555
Ba4 N1 2.767311 1_655
Ba4 N6 2.802679 1_555
Ba4 N7 2.895856 1_555
Ba4 N4 2.975801 1_555
Ba5 N1 2.763333 1_555
Ba5 N0 2.767311 1_455
Ba5 N7 2.802679 1_555
Ba5 N6 2.895856 1_555
Ba5 N5 2.975801 1_555
Ba6 N4 2.845700 1_555
Ba6 N6 2.863353 1_555
Ba6 N1 2.870870 1_565
Ba6 N7 3.059569 1_565
Ba6 N0 3.174658 1_455
Ba7 N5 2.845700 1_555
Ba7 N7 2.863353 1_555
Ba7 N0 2.870870 1_545
Ba7 N6 3.059569 1_545
Ba7 N1 3.174658 1_655
N0 Zr0 2.102795 1_555
N1 Zr1 2.102795 1_555
N2 Zr0 2.140779 1_555
N3 Zr1 2.140779 1_555
N4 Zr0 2.121834 1_555
N5 Zr1 2.121834 1_555
N6 Zr1 2.140569 1_565
N7 Zr0 2.140569 1_545
