# generated using pymatgen
data_U4Os
_symmetry_space_group_name_H-M   'P 1'
_cell_length_a   6.96672148
_cell_length_b   6.96672148
_cell_length_c   6.96672148
_cell_angle_alpha   60.00000000
_cell_angle_beta   60.00000000
_cell_angle_gamma   60.00000000
_symmetry_Int_Tables_number   1
_chemical_formula_structural   U4Os
_chemical_formula_sum   'U8 Os2'
_cell_volume   239.09491899
_cell_formula_units_Z   2
loop_
 _symmetry_equiv_pos_site_id
 _symmetry_equiv_pos_as_xyz
  1  'x, y, z'
loop_
 _atom_site_type_symbol
 _atom_site_label
 _atom_site_symmetry_multiplicity
 _atom_site_fract_x
 _atom_site_fract_y
 _atom_site_fract_z
 _atom_site_occupancy
  U  U0  1  0.59658500  0.59658500  0.59658500  1
  U  U1  1  0.21024600  0.59658500  0.59658500  1
  U  U2  1  0.59658500  0.21024600  0.59658500  1
  U  U3  1  0.53975400  0.15341500  0.15341500  1
  U  U4  1  0.15341500  0.15341500  0.15341500  1
  U  U5  1  0.59658500  0.59658500  0.21024600  1
  U  U6  1  0.15341500  0.53975400  0.15341500  1
  U  U7  1  0.15341500  0.15341500  0.53975400  1
  Os  Os0  1  0.00000000  0.00000000  0.00000000  1
  Os  Os1  1  0.75000000  0.75000000  0.75000000  1
loop_
_geom_bond_atom_site_label_1
_geom_bond_atom_site_label_2
_geom_bond_distance
_geom_bond_site_symmetry_2
U0 U1 2.691516 1_555
U0 U2 2.691516 1_555
U0 U5 2.691516 1_555
U1 U2 2.691516 1_555
U1 U5 2.691516 1_555
U2 U5 2.691516 1_555
U3 U6 2.691516 1_555
U3 U7 2.691516 1_555
U3 U4 2.691516 1_555
U4 U7 2.691516 1_555
U4 U6 2.691516 1_555
U6 U7 2.691516 1_555
Os0 U4 2.618014 1_555
Os0 U3 2.618019 1_455
Os0 U7 2.618019 1_554
Os0 U6 2.618019 1_545
Os1 U0 2.618014 1_555
Os1 U2 2.618019 1_565
Os1 U1 2.618019 1_655
Os1 U5 2.618019 1_556
