# generated using pymatgen
data_Nd3Np
_symmetry_space_group_name_H-M   'P 1'
_cell_length_a   7.34785963
_cell_length_b   7.34785963
_cell_length_c   5.95005800
_cell_angle_alpha   90.00000000
_cell_angle_beta   90.00000000
_cell_angle_gamma   119.99999670
_symmetry_Int_Tables_number   1
_chemical_formula_structural   Nd3Np
_chemical_formula_sum   'Nd6 Np2'
_cell_volume   278.21052002
_cell_formula_units_Z   2
loop_
 _symmetry_equiv_pos_site_id
 _symmetry_equiv_pos_as_xyz
  1  'x, y, z'
loop_
 _atom_site_type_symbol
 _atom_site_label
 _atom_site_symmetry_multiplicity
 _atom_site_fract_x
 _atom_site_fract_y
 _atom_site_fract_z
 _atom_site_occupancy
  Nd  Nd0  1  0.83065700  0.16934300  0.75000000  1
  Nd  Nd1  1  0.33868600  0.16934300  0.75000000  1
  Nd  Nd2  1  0.83065700  0.66131400  0.75000000  1
  Nd  Nd3  1  0.16934300  0.83065700  0.25000000  1
  Nd  Nd4  1  0.66131400  0.83065700  0.25000000  1
  Nd  Nd5  1  0.16934300  0.33868600  0.25000000  1
  Np  Np0  1  0.66666700  0.33333300  0.25000000  1
  Np  Np1  1  0.33333300  0.66666700  0.75000000  1
loop_
_geom_bond_atom_site_label_1
_geom_bond_atom_site_label_2
_geom_bond_distance
_geom_bond_site_symmetry_2
Nd0 Nd2 3.614934 1_555
Nd0 Nd1 3.614934 1_555
Nd0 Np0 3.634102 1_556
Nd0 Np0 3.634102 1_555
Nd0 Nd5 3.673651 1_655
Nd0 Nd4 3.673651 1_545
Nd0 Nd5 3.673651 1_656
Nd0 Nd4 3.673651 1_546
Nd0 Np1 3.674088 1_545
Nd0 Np1 3.674088 1_655
Nd0 Nd1 3.732926 1_655
Nd0 Nd2 3.732926 1_545
Nd1 Nd2 3.614934 1_555
Nd1 Np0 3.634105 1_556
Nd1 Np0 3.634105 1_555
Nd1 Nd5 3.673651 1_555
Nd1 Nd5 3.673651 1_556
Nd1 Nd3 3.673651 1_546
Nd1 Nd3 3.673651 1_545
Nd1 Np1 3.674084 1_545
Nd1 Np1 3.674091 1_555
Nd1 Nd2 3.732926 1_445
Nd2 Np0 3.634105 1_556
Nd2 Np0 3.634105 1_555
Nd2 Nd4 3.673651 1_555
Nd2 Nd4 3.673651 1_556
Nd2 Nd3 3.673651 1_656
Nd2 Nd3 3.673651 1_655
Nd2 Np1 3.674084 1_655
Nd2 Np1 3.674091 1_555
Nd3 Nd4 3.614934 1_555
Nd3 Nd5 3.614934 1_555
Nd3 Np1 3.634102 1_554
Nd3 Np1 3.634102 1_555
Nd3 Np0 3.674088 1_455
Nd3 Np0 3.674088 1_565
Nd3 Nd5 3.732926 1_565
Nd3 Nd4 3.732926 1_455
Nd4 Nd5 3.614934 1_555
Nd4 Np1 3.634105 1_554
Nd4 Np1 3.634105 1_555
Nd4 Np0 3.674084 1_565
Nd4 Np0 3.674091 1_555
Nd4 Nd5 3.732926 1_665
Nd5 Np1 3.634105 1_554
Nd5 Np1 3.634105 1_555
Nd5 Np0 3.674084 1_455
Nd5 Np0 3.674091 1_555
