# generated using pymatgen
data_CsAgH12C4S4(NO4)2
_symmetry_space_group_name_H-M   'P 1'
_cell_length_a   10.58380164
_cell_length_b   10.58380164
_cell_length_c   16.97919863
_cell_angle_alpha   63.38580129
_cell_angle_beta   63.38580129
_cell_angle_gamma   31.26308984
_symmetry_Int_Tables_number   1
_chemical_formula_structural   CsAgH12C4S4(NO4)2
_chemical_formula_sum   'Cs2 Ag2 H24 C8 S8 N4 O16'
_cell_volume   873.75449170
_cell_formula_units_Z   2
loop_
 _symmetry_equiv_pos_site_id
 _symmetry_equiv_pos_as_xyz
  1  'x, y, z'
loop_
 _atom_site_type_symbol
 _atom_site_label
 _atom_site_symmetry_multiplicity
 _atom_site_fract_x
 _atom_site_fract_y
 _atom_site_fract_z
 _atom_site_occupancy
  Cs  Cs0  1  0.83541300  0.16458700  0.75000000  1
  Cs  Cs1  1  0.16458700  0.83541300  0.25000000  1
  Ag  Ag0  1  0.00000000  0.00000000  0.50000000  1
  Ag  Ag1  1  0.00000000  0.00000000  0.00000000  1
  H  H0  1  0.63819100  0.75284600  0.52596200  1
  H  H1  1  0.24715300  0.36180900  0.97403800  1
  H  H2  1  0.36180900  0.24715300  0.47403800  1
  H  H3  1  0.75284700  0.63819100  0.02596200  1
  H  H4  1  0.47781400  0.72418400  0.54978400  1
  H  H5  1  0.27581600  0.52218600  0.95021600  1
  H  H6  1  0.52218600  0.27581600  0.45021600  1
  H  H7  1  0.72418400  0.47781400  0.04978400  1
  H  H8  1  0.50079500  0.85187200  0.44013200  1
  H  H9  1  0.14812800  0.49920500  0.05986800  1
  H  H10  1  0.49920500  0.14812800  0.55986800  1
  H  H11  1  0.85187200  0.50079500  0.94013200  1
  H  H12  1  0.86968300  0.49450700  0.19006200  1
  H  H13  1  0.50549300  0.13031700  0.30993800  1
  H  H14  1  0.13031700  0.50549300  0.80993800  1
  H  H15  1  0.49450700  0.86968300  0.69006200  1
  H  H16  1  0.12470500  0.20730700  0.25259400  1
  H  H17  1  0.79269300  0.87529500  0.24740600  1
  H  H18  1  0.87529500  0.79269300  0.74740600  1
  H  H19  1  0.20730700  0.12470500  0.75259400  1
  H  H20  1  0.96945700  0.48713900  0.25625900  1
  H  H21  1  0.51286100  0.03054300  0.24374100  1
  H  H22  1  0.03054300  0.51286100  0.74374100  1
  H  H23  1  0.48713900  0.96945700  0.75625900  1
  C  C0  1  0.59141100  0.72003100  0.49934600  1
  C  C1  1  0.27996900  0.40858900  0.00065400  1
  C  C2  1  0.40858900  0.27996900  0.50065400  1
  C  C3  1  0.72003100  0.59141100  0.99934600  1
  C  C4  1  0.94822400  0.40708400  0.25063300  1
  C  C5  1  0.59291600  0.05177600  0.24936700  1
  C  C6  1  0.05177600  0.59291600  0.74936700  1
  C  C7  1  0.40708400  0.94822400  0.75063300  1
  S  S0  1  0.88182700  0.41923600  0.46978500  1
  S  S1  1  0.58076400  0.11817300  0.03021500  1
  S  S2  1  0.11817300  0.58076400  0.53021500  1
  S  S3  1  0.41923600  0.88182700  0.96978500  1
  S  S4  1  0.73014100  0.47324000  0.34037300  1
  S  S5  1  0.52676000  0.26985900  0.15962700  1
  S  S6  1  0.26985900  0.52676000  0.65962700  1
  S  S7  1  0.47324000  0.73014100  0.84037300  1
  N  N0  1  0.83749900  0.33879900  0.43390400  1
  N  N1  1  0.66120100  0.16250100  0.06609600  1
  N  N2  1  0.16250100  0.66120100  0.56609600  1
  N  N3  1  0.33879900  0.83749900  0.93390400  1
  O  O0  1  0.98721100  0.25172200  0.55161400  1
  O  O1  1  0.74827800  0.01278900  0.94838600  1
  O  O2  1  0.01278900  0.74827800  0.44838600  1
  O  O3  1  0.25172200  0.98721100  0.05161400  1
  O  O4  1  0.02120800  0.42645100  0.40055200  1
  O  O5  1  0.57354900  0.97879200  0.09944800  1
  O  O6  1  0.97879200  0.57354900  0.59944800  1
  O  O7  1  0.42645100  0.02120800  0.90055200  1
  O  O8  1  0.71845700  0.35269700  0.33105200  1
  O  O9  1  0.64730300  0.28154300  0.16894800  1
  O  O10  1  0.28154300  0.64730300  0.66894800  1
  O  O11  1  0.35269700  0.71845700  0.83105200  1
  O  O12  1  0.50109000  0.73977400  0.33748800  1
  O  O13  1  0.26022600  0.49891000  0.16251200  1
  O  O14  1  0.49891000  0.26022600  0.66251200  1
  O  O15  1  0.73977400  0.50109000  0.83748800  1
loop_
_geom_bond_atom_site_label_1
_geom_bond_atom_site_label_2
_geom_bond_distance
_geom_bond_site_symmetry_2
Cs0 O1 3.111117 1_555
Cs0 O0 3.111117 1_555
Cs0 O10 3.301065 1_645
Cs0 O11 3.301065 1_645
Cs0 O10 3.476667 1_555
Cs0 O11 3.476667 1_555
Cs0 O14 3.625628 1_555
Cs0 O15 3.625628 1_555
Cs1 O2 3.111117 1_555
Cs1 O3 3.111117 1_555
Cs1 O8 3.301065 1_465
Cs1 O9 3.301065 1_465
Cs1 O8 3.476667 1_555
Cs1 O9 3.476667 1_555
Cs1 O13 3.625628 1_555
Cs1 O12 3.625628 1_555
Ag0 N0 2.157754 1_455
Ag0 N2 2.157754 1_545
Ag1 N3 2.157754 1_544
Ag1 N1 2.157754 1_455
C0 H8 1.093995 1_555
C0 H4 1.096226 1_555
C0 H0 1.097750 1_555
C0 S0 1.776282 1_555
C1 H9 1.093995 1_555
C1 H5 1.096226 1_554
C1 H1 1.097760 1_554
C1 S1 1.776282 1_555
C2 H10 1.093995 1_555
C2 H6 1.096226 1_555
C2 H2 1.097760 1_555
C2 S2 1.776282 1_555
C3 H11 1.093995 1_555
C3 H7 1.096226 1_556
C3 H3 1.097760 1_556
C3 S3 1.776282 1_555
C4 H20 1.093064 1_555
C4 H16 1.096126 1_655
C4 H12 1.096945 1_555
C4 S4 1.783654 1_555
C5 H21 1.093064 1_555
C5 H17 1.096126 1_545
C5 H13 1.096945 1_555
C5 S5 1.783654 1_555
C6 H22 1.093064 1_555
C6 H18 1.096126 1_455
C6 H14 1.096945 1_555
C6 S6 1.783654 1_555
C7 H23 1.093064 1_555
C7 H19 1.096126 1_565
C7 H15 1.096945 1_555
C7 S7 1.783654 1_555
N0 S4 1.632743 1_555
N0 S0 1.649134 1_555
N1 S5 1.632743 1_555
N1 S1 1.649134 1_555
N2 S6 1.632743 1_555
N2 S2 1.649134 1_555
N3 S7 1.632743 1_555
N3 S3 1.649134 1_555
O0 S0 1.455513 1_555
O1 S1 1.455513 1_556
O2 S2 1.455513 1_555
O3 S3 1.455513 1_554
O4 S0 1.456812 1_455
O5 S1 1.456812 1_565
O6 S2 1.456812 1_655
O7 S3 1.456812 1_545
O8 S4 1.461564 1_555
O9 S5 1.461564 1_555
O10 S6 1.461564 1_555
O11 S7 1.461564 1_555
O12 S4 1.458902 1_555
O13 S5 1.458902 1_555
O14 S6 1.458902 1_555
O15 S7 1.458902 1_555
