# generated using pymatgen
data_SrCaAl4
_symmetry_space_group_name_H-M   'P 1'
_cell_length_a   5.75244022
_cell_length_b   5.75244022
_cell_length_c   5.75244022
_cell_angle_alpha   60.00000000
_cell_angle_beta   60.00000000
_cell_angle_gamma   60.00000000
_symmetry_Int_Tables_number   1
_chemical_formula_structural   SrCaAl4
_chemical_formula_sum   'Sr1 Ca1 Al4'
_cell_volume   134.59884872
_cell_formula_units_Z   1
loop_
 _symmetry_equiv_pos_site_id
 _symmetry_equiv_pos_as_xyz
  1  'x, y, z'
loop_
 _atom_site_type_symbol
 _atom_site_label
 _atom_site_symmetry_multiplicity
 _atom_site_fract_x
 _atom_site_fract_y
 _atom_site_fract_z
 _atom_site_occupancy
  Sr  Sr0  1  0.50000000  0.50000000  0.50000000  1
  Ca  Ca0  1  0.75000000  0.75000000  0.75000000  1
  Al  Al0  1  0.62534456  0.12488548  0.12488548  1
  Al  Al1  1  0.12488548  0.62534456  0.12488548  1
  Al  Al2  1  0.12488548  0.12488548  0.62534456  1
  Al  Al3  1  0.12488548  0.12488548  0.12488548  1
loop_
_geom_bond_atom_site_label_1
_geom_bond_atom_site_label_2
_geom_bond_distance
_geom_bond_site_symmetry_2
Ca0 Sr0 3.522636 1_556
Ca0 Sr0 3.522636 1_565
Ca0 Sr0 3.522636 1_655
Ca0 Sr0 3.522636 1_555
Al0 Al1 2.873579 1_645
Al0 Al2 2.873579 1_654
Al0 Al3 2.873579 1_655
Al0 Al3 2.878861 1_555
Al0 Al1 2.878861 1_555
Al0 Al2 2.878861 1_555
Al0 Ca0 3.372384 1_554
Al0 Ca0 3.372384 1_545
Al0 Ca0 3.372389 1_544
Al0 Sr0 3.372946 1_555
Al0 Sr0 3.372951 1_545
Al0 Sr0 3.372951 1_554
Al1 Al2 2.873579 1_564
Al1 Al3 2.873579 1_565
Al1 Al3 2.878861 1_555
Al1 Al2 2.878861 1_555
Al1 Ca0 3.372384 1_554
Al1 Ca0 3.372384 1_455
Al1 Ca0 3.372389 1_454
Al1 Sr0 3.372946 1_555
Al1 Sr0 3.372951 1_554
Al1 Sr0 3.372951 1_455
Al2 Al3 2.873579 1_556
Al2 Al3 2.878861 1_555
Al2 Ca0 3.372384 1_545
Al2 Ca0 3.372384 1_455
Al2 Ca0 3.372389 1_445
Al2 Sr0 3.372946 1_555
Al2 Sr0 3.372951 1_455
Al2 Sr0 3.372951 1_545
Al3 Ca0 3.372387 1_544
Al3 Ca0 3.372387 1_454
Al3 Ca0 3.372387 1_445
Al3 Sr0 3.372948 1_545
Al3 Sr0 3.372948 1_455
Al3 Sr0 3.372948 1_554
