# generated using pymatgen
data_Te2MoWSeS
_symmetry_space_group_name_H-M   'P 1'
_cell_length_a   3.39790831
_cell_length_b   3.39790831
_cell_length_c   38.81379100
_cell_angle_alpha   90.00000000
_cell_angle_beta   90.00000000
_cell_angle_gamma   120.00000594
_symmetry_Int_Tables_number   1
_chemical_formula_structural   Te2MoWSeS
_chemical_formula_sum   'Te4 Mo2 W2 Se2 S2'
_cell_volume   388.09672561
_cell_formula_units_Z   2
loop_
 _symmetry_equiv_pos_site_id
 _symmetry_equiv_pos_as_xyz
  1  'x, y, z'
loop_
 _atom_site_type_symbol
 _atom_site_label
 _atom_site_symmetry_multiplicity
 _atom_site_fract_x
 _atom_site_fract_y
 _atom_site_fract_z
 _atom_site_occupancy
  Te  Te0  1  0.00000000  0.00000000  0.70584100  1
  Te  Te1  1  0.33333300  0.66666700  0.42107400  1
  Te  Te2  1  0.33333300  0.66666700  0.51808700  1
  Te  Te3  1  0.00000000  0.00000000  0.60936200  1
  Mo  Mo0  1  0.00000000  0.00000000  0.09395300  1
  Mo  Mo1  1  0.33333300  0.66666700  0.65763700  1
  W  W0  1  0.00000000  0.00000000  0.46958500  1
  W  W1  1  0.33333300  0.66666700  0.28177800  1
  Se  Se0  1  0.00000000  0.00000000  0.32449000  1
  Se  Se1  1  0.00000000  0.00000000  0.23905200  1
  S  S0  1  0.33333300  0.66666700  0.05521400  1
  S  S1  1  0.33333300  0.66666700  0.13267600  1
loop_
_geom_bond_atom_site_label_1
_geom_bond_atom_site_label_2
_geom_bond_distance
_geom_bond_site_symmetry_2
Te1 W0 2.719170 1_565
Te1 W0 2.719172 1_665
Te1 W0 2.719172 1_555
Te2 W0 2.718928 1_565
Te2 W0 2.718930 1_665
Te2 W0 2.718930 1_555
Mo0 S1 2.471347 1_545
Mo0 S1 2.471349 1_555
Mo0 S1 2.471349 1_445
Mo0 S0 2.471724 1_545
Mo0 S0 2.471727 1_555
Mo0 S0 2.471727 1_445
Mo1 Te0 2.710932 1_565
Mo1 Te0 2.710934 1_555
Mo1 Te0 2.710934 1_665
Mo1 Te3 2.712835 1_565
Mo1 Te3 2.712837 1_555
Mo1 Te3 2.712837 1_665
Se0 W1 2.568450 1_545
Se0 W1 2.568452 1_555
Se0 W1 2.568452 1_445
Se1 W1 2.568801 1_545
Se1 W1 2.568803 1_555
Se1 W1 2.568803 1_445
