# generated using pymatgen
data_LiPu3
_symmetry_space_group_name_H-M   'P 1'
_cell_length_a   4.69448333
_cell_length_b   4.69448333
_cell_length_c   4.69448333
_cell_angle_alpha   60.00000000
_cell_angle_beta   60.00000000
_cell_angle_gamma   60.00000000
_symmetry_Int_Tables_number   1
_chemical_formula_structural   LiPu3
_chemical_formula_sum   'Li1 Pu3'
_cell_volume   73.15573989
_cell_formula_units_Z   1
loop_
 _symmetry_equiv_pos_site_id
 _symmetry_equiv_pos_as_xyz
  1  'x, y, z'
loop_
 _atom_site_type_symbol
 _atom_site_label
 _atom_site_symmetry_multiplicity
 _atom_site_fract_x
 _atom_site_fract_y
 _atom_site_fract_z
 _atom_site_occupancy
  Li  Li0  1  0.74999900  0.74999900  0.74999900  1
  Pu  Pu0  1  0.00000000  0.00000000  0.00000000  1
  Pu  Pu1  1  0.49999900  0.49999900  0.49999900  1
  Pu  Pu2  1  0.25000000  0.25000000  0.25000000  1
loop_
_geom_bond_atom_site_label_1
_geom_bond_atom_site_label_2
_geom_bond_distance
_geom_bond_site_symmetry_2
Li0 Pu0 2.874768 1_656
Li0 Pu0 2.874768 1_665
Li0 Pu0 2.874768 1_566
Li0 Pu1 2.874772 1_555
Li0 Pu1 2.874772 1_655
Li0 Pu1 2.874772 1_565
Li0 Pu1 2.874772 1_556
Li0 Pu0 2.874784 1_666
Li0 Pu2 3.319494 1_556
Li0 Pu2 3.319494 1_565
Li0 Pu2 3.319494 1_655
Li0 Pu2 3.319508 1_665
Li0 Pu2 3.319508 1_566
Li0 Pu2 3.319508 1_656
Pu0 Pu2 2.874772 1_554
Pu0 Pu2 2.874772 1_455
Pu0 Pu2 2.874772 1_555
Pu0 Pu2 2.874772 1_545
Pu1 Pu2 2.874761 1_555
Pu1 Pu2 2.874776 1_655
Pu1 Pu2 2.874776 1_556
Pu1 Pu2 2.874776 1_565
