# generated using pymatgen
data_Er2Mn3Ga
_symmetry_space_group_name_H-M   'P 1'
_cell_length_a   5.39016859
_cell_length_b   5.38709800
_cell_length_c   8.44507300
_cell_angle_alpha   90.00000000
_cell_angle_beta   90.00000000
_cell_angle_gamma   60.01884260
_symmetry_Int_Tables_number   1
_chemical_formula_structural   Er2Mn3Ga
_chemical_formula_sum   'Er4 Mn6 Ga2'
_cell_volume   212.40938107
_cell_formula_units_Z   2
loop_
 _symmetry_equiv_pos_site_id
 _symmetry_equiv_pos_as_xyz
  1  'x, y, z'
loop_
 _atom_site_type_symbol
 _atom_site_label
 _atom_site_symmetry_multiplicity
 _atom_site_fract_x
 _atom_site_fract_y
 _atom_site_fract_z
 _atom_site_occupancy
  Er  Er0  1  0.33316000  0.33342000  0.56484700  1
  Er  Er1  1  0.66684000  0.66658000  0.43515300  1
  Er  Er2  1  0.66684000  0.66658000  0.06484700  1
  Er  Er3  1  0.33316000  0.33342000  0.93515300  1
  Mn  Mn0  1  0.82590700  0.34849200  0.75000000  1
  Mn  Mn1  1  0.34865200  0.82567400  0.75000000  1
  Mn  Mn2  1  0.82590700  0.82560200  0.75000000  1
  Mn  Mn3  1  0.17409300  0.65150800  0.25000000  1
  Mn  Mn4  1  0.65134800  0.17432600  0.25000000  1
  Mn  Mn5  1  0.17409300  0.17439800  0.25000000  1
  Ga  Ga0  1  0.00000000  0.00000000  0.50000000  1
  Ga  Ga1  1  0.00000000  0.00000000  0.00000000  1
loop_
_geom_bond_atom_site_label_1
_geom_bond_atom_site_label_2
_geom_bond_distance
_geom_bond_site_symmetry_2
Er0 Mn3 3.045138 1_555
Er0 Mn5 3.045140 1_555
Er0 Mn4 3.045778 1_555
Er0 Mn1 3.115346 1_555
Er0 Mn1 3.115346 1_545
Er0 Mn0 3.115348 1_455
Er0 Mn2 3.115351 1_455
Er0 Mn2 3.117904 1_545
Er0 Mn0 3.117907 1_555
Er0 Er3 3.127261 1_555
Er0 Ga0 3.158271 1_565
Er0 Ga0 3.158271 1_555
Er0 Ga0 3.161212 1_655
Er0 Er1 3.298162 1_455
Er0 Er1 3.298781 1_545
Er0 Er1 3.298781 1_555
Er1 Mn0 3.045138 1_555
Er1 Mn2 3.045140 1_555
Er1 Mn1 3.045778 1_555
Er1 Mn4 3.115346 1_565
Er1 Mn4 3.115346 1_555
Er1 Mn3 3.115348 1_655
Er1 Mn5 3.115351 1_655
Er1 Mn5 3.117904 1_565
Er1 Mn3 3.117907 1_555
Er1 Er2 3.127261 1_555
Er1 Ga0 3.158271 1_665
Er1 Ga0 3.158271 1_655
Er1 Ga0 3.161212 1_565
Er2 Mn0 3.045138 1_554
Er2 Mn2 3.045140 1_554
Er2 Mn1 3.045778 1_554
Er2 Mn4 3.115346 1_565
Er2 Mn4 3.115346 1_555
Er2 Mn3 3.115348 1_655
Er2 Mn5 3.115351 1_655
Er2 Mn5 3.117904 1_565
Er2 Mn3 3.117907 1_555
Er2 Ga1 3.158271 1_665
Er2 Ga1 3.158271 1_655
Er2 Ga1 3.161212 1_565
Er2 Er3 3.298162 1_654
Er2 Er3 3.298781 1_564
Er2 Er3 3.298781 1_554
Er3 Mn3 3.045138 1_556
Er3 Mn5 3.045140 1_556
Er3 Mn4 3.045778 1_556
Er3 Mn1 3.115346 1_555
Er3 Mn1 3.115346 1_545
Er3 Mn0 3.115348 1_455
Er3 Mn2 3.115351 1_455
Er3 Mn2 3.117904 1_545
Er3 Mn0 3.117907 1_555
Er3 Ga1 3.158271 1_566
Er3 Ga1 3.158271 1_556
Er3 Ga1 3.161212 1_656
Mn0 Mn2 2.570238 1_555
Mn0 Mn1 2.572288 1_555
Mn0 Mn2 2.816860 1_545
Mn0 Mn1 2.817880 1_645
Mn1 Mn2 2.572291 1_555
Mn1 Mn2 2.817878 1_455
Mn3 Mn5 2.570238 1_555
Mn3 Mn4 2.572288 1_555
Mn3 Mn5 2.816860 1_565
Mn3 Mn4 2.817880 1_465
Mn4 Mn5 2.572291 1_555
Mn4 Mn5 2.817878 1_655
Ga0 Mn5 2.664921 1_555
Ga0 Mn2 2.664921 1_445
Ga0 Mn0 2.664924 1_455
Ga0 Mn3 2.664924 1_545
Ga0 Mn1 2.665946 1_545
Ga0 Mn4 2.665946 1_455
Ga1 Mn5 2.664921 1_555
Ga1 Mn2 2.664921 1_444
Ga1 Mn0 2.664924 1_454
Ga1 Mn3 2.664924 1_545
Ga1 Mn1 2.665946 1_544
Ga1 Mn4 2.665946 1_455
