# generated using pymatgen
data_NaSr2Nb5O15
_symmetry_space_group_name_H-M   'P 1'
_cell_length_a   12.62277100
_cell_length_b   12.62277100
_cell_length_c   4.07861800
_cell_angle_alpha   90.00000000
_cell_angle_beta   90.00000000
_cell_angle_gamma   90.05348503
_symmetry_Int_Tables_number   1
_chemical_formula_structural   NaSr2Nb5O15
_chemical_formula_sum   'Na2 Sr4 Nb10 O30'
_cell_volume   649.86365559
_cell_formula_units_Z   2
loop_
 _symmetry_equiv_pos_site_id
 _symmetry_equiv_pos_as_xyz
  1  'x, y, z'
loop_
 _atom_site_type_symbol
 _atom_site_label
 _atom_site_symmetry_multiplicity
 _atom_site_fract_x
 _atom_site_fract_y
 _atom_site_fract_z
 _atom_site_occupancy
  Na  Na0  1  0.32923300  0.32923300  0.99217200  1
  Na  Na1  1  0.67076700  0.67076700  0.99217200  1
  Sr  Sr0  1  0.82731600  0.17268400  0.00154000  1
  Sr  Sr1  1  0.17268400  0.82731600  0.00154000  1
  Sr  Sr2  1  0.50000000  0.00000000  0.04543400  1
  Sr  Sr3  1  0.00000000  0.50000000  0.04543400  1
  Nb  Nb0  1  0.42352600  0.78786200  0.53845800  1
  Nb  Nb1  1  0.57647400  0.21213900  0.53845800  1
  Nb  Nb2  1  0.92157600  0.71060500  0.53833500  1
  Nb  Nb3  1  0.07842400  0.28939500  0.53833500  1
  Nb  Nb4  1  0.71060500  0.92157600  0.53833500  1
  Nb  Nb5  1  0.28939500  0.07842400  0.53833500  1
  Nb  Nb6  1  0.78786100  0.42352600  0.53845800  1
  Nb  Nb7  1  0.21213900  0.57647400  0.53845800  1
  Nb  Nb8  1  0.50000000  0.50000000  0.52274700  1
  Nb  Nb9  1  0.00000000  0.00000000  0.52552600  1
  O  O0  1  0.21908700  0.21908700  0.59214000  1
  O  O1  1  0.78091300  0.78091300  0.59214000  1
  O  O2  1  0.72674400  0.27325600  0.58158800  1
  O  O3  1  0.27325600  0.72674400  0.58158800  1
  O  O4  1  0.41529000  0.79963400  0.08082000  1
  O  O5  1  0.58471000  0.20036600  0.08082000  1
  O  O6  1  0.92269300  0.70108700  0.08245400  1
  O  O7  1  0.07730700  0.29891300  0.08245400  1
  O  O8  1  0.70108700  0.92269300  0.08245400  1
  O  O9  1  0.29891300  0.07730700  0.08245400  1
  O  O10  1  0.79963400  0.41529000  0.08082000  1
  O  O11  1  0.20036600  0.58471000  0.08082000  1
  O  O12  1  0.15747200  0.99204800  0.58881800  1
  O  O13  1  0.84252800  0.00795200  0.58881800  1
  O  O14  1  0.65794100  0.50199400  0.58673500  1
  O  O15  1  0.34205900  0.49800600  0.58673500  1
  O  O16  1  0.50199400  0.65794100  0.58673500  1
  O  O17  1  0.49800600  0.34205900  0.58673500  1
  O  O18  1  0.99204800  0.15747200  0.58881800  1
  O  O19  1  0.00795200  0.84252800  0.58881800  1
  O  O20  1  0.36068400  0.93555600  0.59385000  1
  O  O21  1  0.63931600  0.06444400  0.59385000  1
  O  O22  1  0.86580700  0.56216100  0.58583600  1
  O  O23  1  0.13419300  0.43783900  0.58583600  1
  O  O24  1  0.56216100  0.86580700  0.58583600  1
  O  O25  1  0.43783900  0.13419300  0.58583600  1
  O  O26  1  0.93555600  0.36068400  0.59385000  1
  O  O27  1  0.06444400  0.63931600  0.59385000  1
  O  O28  1  0.50000000  0.50000000  0.07626400  1
  O  O29  1  0.00000000  0.00000000  0.07445100  1
loop_
_geom_bond_atom_site_label_1
_geom_bond_atom_site_label_2
_geom_bond_distance
_geom_bond_site_symmetry_2
Na0 O0 2.554324 1_555
Na0 O17 2.701586 1_555
Na0 O15 2.701586 1_555
Na1 O1 2.554324 1_555
Na1 O14 2.701586 1_555
Na1 O16 2.701586 1_555
Nb0 O4 1.875328 1_555
Nb0 O16 1.926743 1_555
Nb0 O24 2.016061 1_555
Nb0 O20 2.039283 1_555
Nb0 O3 2.054588 1_555
Nb0 O4 2.219515 1_556
Nb1 O5 1.875329 1_555
Nb1 O17 1.926733 1_555
Nb1 O25 2.016067 1_555
Nb1 O21 2.039294 1_555
Nb1 O2 2.054583 1_555
Nb1 O5 2.219516 1_556
Nb2 O6 1.863296 1_555
Nb2 O1 1.997830 1_555
Nb2 O19 2.000193 1_655
Nb2 O22 2.010389 1_555
Nb2 O27 2.028859 1_655
Nb2 O6 2.222549 1_556
Nb3 O7 1.863296 1_555
Nb3 O0 1.997830 1_555
Nb3 O18 2.000193 1_455
Nb3 O23 2.010389 1_555
Nb3 O26 2.028859 1_455
Nb3 O7 2.222549 1_556
Nb4 O8 1.863296 1_555
Nb4 O1 1.997830 1_555
Nb4 O13 2.000193 1_565
Nb4 O24 2.010389 1_555
Nb4 O21 2.028859 1_565
Nb4 O8 2.222549 1_556
Nb5 O9 1.863296 1_555
Nb5 O0 1.997830 1_555
Nb5 O12 2.000193 1_545
Nb5 O25 2.010389 1_555
Nb5 O20 2.028859 1_545
Nb5 O9 2.222549 1_556
Nb6 O10 1.875329 1_555
Nb6 O14 1.926733 1_555
Nb6 O22 2.016067 1_555
Nb6 O26 2.039294 1_555
Nb6 O2 2.054583 1_555
Nb6 O10 2.219516 1_556
Nb7 O11 1.875329 1_555
Nb7 O15 1.926733 1_555
Nb7 O23 2.016067 1_555
Nb7 O27 2.039294 1_555
Nb7 O3 2.054583 1_555
Nb7 O11 2.219516 1_556
Nb8 O28 1.821034 1_555
Nb8 O16 2.010797 1_555
Nb8 O14 2.010797 1_555
Nb8 O15 2.010797 1_555
Nb8 O17 2.010797 1_555
Nb8 O28 2.257584 1_556
Nb9 O29 1.839763 1_555
Nb9 O19 2.007030 1_545
Nb9 O13 2.007030 1_455
Nb9 O18 2.007030 1_455
Nb9 O12 2.007030 1_545
Nb9 O29 2.238855 1_556
O2 Sr0 2.481939 1_556
O2 Sr0 2.970394 1_555
O3 Sr1 2.481939 1_556
O3 Sr1 2.970394 1_555
O4 Sr2 2.748791 1_565
O4 Sr1 3.099468 1_555
O5 Sr2 2.748791 1_555
O5 Sr0 3.099468 1_555
O6 Sr3 2.724427 1_655
O7 Sr3 2.724427 1_555
O8 Sr2 2.724427 1_565
O9 Sr2 2.724427 1_555
O10 Sr3 2.748791 1_655
O10 Sr0 3.099468 1_555
O11 Sr3 2.748791 1_555
O11 Sr1 3.099468 1_555
O12 Sr1 2.682356 1_556
O12 Sr1 3.177860 1_555
O13 Sr0 2.682356 1_556
O13 Sr0 3.177860 1_555
O18 Sr0 2.682356 1_556
O18 Sr0 3.177860 1_555
O19 Sr1 2.682356 1_556
O19 Sr1 3.177860 1_555
O20 Sr2 2.672813 1_566
O20 Sr2 2.958842 1_565
O20 Sr1 3.202678 1_556
O21 Sr2 2.672813 1_556
O21 Sr2 2.958842 1_555
O21 Sr0 3.202678 1_556
O22 Sr3 2.645987 1_656
O22 Sr3 2.888846 1_655
O23 Sr3 2.645987 1_556
O23 Sr3 2.888846 1_555
O24 Sr2 2.645987 1_566
O24 Sr2 2.888846 1_565
O25 Sr2 2.645987 1_556
O25 Sr2 2.888846 1_555
O26 Sr3 2.672813 1_656
O26 Sr3 2.958842 1_655
O26 Sr0 3.202678 1_556
O27 Sr3 2.672813 1_556
O27 Sr3 2.958842 1_555
O27 Sr1 3.202678 1_556
O29 Sr0 3.098375 1_455
O29 Sr1 3.098375 1_545
