# generated using pymatgen
data_Mg30NbSiO32
_symmetry_space_group_name_H-M   'P 1'
_cell_length_a   8.59030500
_cell_length_b   8.59030500
_cell_length_c   8.58914500
_cell_angle_alpha   90.00000000
_cell_angle_beta   90.00000000
_cell_angle_gamma   90.00000000
_symmetry_Int_Tables_number   1
_chemical_formula_structural   Mg30NbSiO32
_chemical_formula_sum   'Mg30 Nb1 Si1 O32'
_cell_volume   633.82169723
_cell_formula_units_Z   1
loop_
 _symmetry_equiv_pos_site_id
 _symmetry_equiv_pos_as_xyz
  1  'x, y, z'
loop_
 _atom_site_type_symbol
 _atom_site_label
 _atom_site_symmetry_multiplicity
 _atom_site_fract_x
 _atom_site_fract_y
 _atom_site_fract_z
 _atom_site_occupancy
  Mg  Mg0  1  0.50000000  0.00000000  0.00000000  1
  Mg  Mg1  1  0.00000000  0.50000000  0.00000000  1
  Mg  Mg2  1  0.00000000  0.00000000  0.50000000  1
  Mg  Mg3  1  0.50000000  0.00000000  0.50000000  1
  Mg  Mg4  1  0.00000000  0.50000000  0.50000000  1
  Mg  Mg5  1  0.50000000  0.50000000  0.50000000  1
  Mg  Mg6  1  0.24972600  0.24972600  0.00000000  1
  Mg  Mg7  1  0.75027400  0.24972600  0.00000000  1
  Mg  Mg8  1  0.24972600  0.75027400  0.00000000  1
  Mg  Mg9  1  0.75027400  0.75027400  0.00000000  1
  Mg  Mg10  1  0.24989200  0.24989200  0.50000000  1
  Mg  Mg11  1  0.75010800  0.24989200  0.50000000  1
  Mg  Mg12  1  0.24989200  0.75010800  0.50000000  1
  Mg  Mg13  1  0.75010800  0.75010800  0.50000000  1
  Mg  Mg14  1  0.25125700  0.00000000  0.25144400  1
  Mg  Mg15  1  0.74874300  0.00000000  0.25144400  1
  Mg  Mg16  1  0.24836900  0.50000000  0.25155900  1
  Mg  Mg17  1  0.75163100  0.50000000  0.25155900  1
  Mg  Mg18  1  0.25125700  0.00000000  0.74855600  1
  Mg  Mg19  1  0.74874300  0.00000000  0.74855600  1
  Mg  Mg20  1  0.24836900  0.50000000  0.74844100  1
  Mg  Mg21  1  0.75163100  0.50000000  0.74844100  1
  Mg  Mg22  1  0.00000000  0.25125700  0.25144400  1
  Mg  Mg23  1  0.50000000  0.24836900  0.25155900  1
  Mg  Mg24  1  0.00000000  0.74874300  0.25144400  1
  Mg  Mg25  1  0.50000000  0.75163100  0.25155900  1
  Mg  Mg26  1  0.00000000  0.25125700  0.74855600  1
  Mg  Mg27  1  0.50000000  0.24836900  0.74844100  1
  Mg  Mg28  1  0.00000000  0.74874300  0.74855600  1
  Mg  Mg29  1  0.50000000  0.75163100  0.74844100  1
  Nb  Nb0  1  0.50000000  0.50000000  0.00000000  1
  Si  Si0  1  0.00000000  0.00000000  0.00000000  1
  O  O0  1  0.00000000  0.00000000  0.25970500  1
  O  O1  1  0.50000000  0.00000000  0.25244200  1
  O  O2  1  0.00000000  0.50000000  0.25244200  1
  O  O3  1  0.50000000  0.50000000  0.26231200  1
  O  O4  1  0.00000000  0.00000000  0.74029500  1
  O  O5  1  0.50000000  0.00000000  0.74755800  1
  O  O6  1  0.00000000  0.50000000  0.74755800  1
  O  O7  1  0.50000000  0.50000000  0.73768800  1
  O  O8  1  0.24986800  0.24986800  0.24932100  1
  O  O9  1  0.75013200  0.24986800  0.24932100  1
  O  O10  1  0.24986800  0.75013200  0.24932100  1
  O  O11  1  0.75013200  0.75013200  0.24932100  1
  O  O12  1  0.24986800  0.24986800  0.75067900  1
  O  O13  1  0.75013200  0.24986800  0.75067900  1
  O  O14  1  0.24986800  0.75013200  0.75067900  1
  O  O15  1  0.75013200  0.75013200  0.75067900  1
  O  O16  1  0.25816800  0.00000000  0.00000000  1
  O  O17  1  0.74183200  0.00000000  0.00000000  1
  O  O18  1  0.23853700  0.50000000  0.00000000  1
  O  O19  1  0.76146300  0.50000000  0.00000000  1
  O  O20  1  0.25093400  0.00000000  0.50000000  1
  O  O21  1  0.74906600  0.00000000  0.50000000  1
  O  O22  1  0.24888800  0.50000000  0.50000000  1
  O  O23  1  0.75111200  0.50000000  0.50000000  1
  O  O24  1  0.00000000  0.25816800  0.00000000  1
  O  O25  1  0.50000000  0.23853700  0.00000000  1
  O  O26  1  0.00000000  0.74183200  0.00000000  1
  O  O27  1  0.50000000  0.76146300  0.00000000  1
  O  O28  1  0.00000000  0.25093400  0.50000000  1
  O  O29  1  0.50000000  0.24888800  0.50000000  1
  O  O30  1  0.00000000  0.74906600  0.50000000  1
  O  O31  1  0.50000000  0.75111200  0.50000000  1
loop_
_geom_bond_atom_site_label_1
_geom_bond_atom_site_label_2
_geom_bond_distance
_geom_bond_site_symmetry_2
Mg0 O25 2.049106 1_555
Mg0 O27 2.049106 1_545
Mg0 O17 2.077411 1_555
Mg0 O16 2.077411 1_555
Mg0 O1 2.168261 1_555
Mg0 O5 2.168261 1_554
Mg1 O19 2.049106 1_455
Mg1 O18 2.049106 1_555
Mg1 O26 2.077411 1_555
Mg1 O24 2.077411 1_555
Mg1 O2 2.168261 1_555
Mg1 O6 2.168261 1_554
Mg2 O4 2.063929 1_555
Mg2 O0 2.063929 1_555
Mg2 O21 2.155600 1_455
Mg2 O20 2.155600 1_555
Mg2 O28 2.155600 1_555
Mg2 O30 2.155600 1_545
Mg3 O5 2.126312 1_555
Mg3 O1 2.126312 1_555
Mg3 O31 2.138024 1_545
Mg3 O29 2.138024 1_555
Mg3 O21 2.139553 1_555
Mg3 O20 2.139553 1_555
Mg4 O6 2.126312 1_555
Mg4 O2 2.126312 1_555
Mg4 O23 2.138024 1_455
Mg4 O22 2.138024 1_555
Mg4 O30 2.139553 1_555
Mg4 O28 2.139553 1_555
Mg5 O3 2.041537 1_555
Mg5 O7 2.041537 1_555
Mg5 O31 2.157129 1_555
Mg5 O22 2.157129 1_555
Mg5 O23 2.157129 1_555
Mg5 O29 2.157129 1_555
Mg6 O12 2.141455 1_554
Mg6 O8 2.141455 1_555
Mg6 O24 2.146448 1_555
Mg6 O16 2.146448 1_555
Mg6 O25 2.152077 1_555
Mg6 O18 2.152077 1_555
Mg7 O9 2.141455 1_555
Mg7 O13 2.141455 1_554
Mg7 O17 2.146448 1_555
Mg7 O24 2.146448 1_655
Mg7 O25 2.152077 1_555
Mg7 O19 2.152077 1_555
Mg8 O10 2.141455 1_555
Mg8 O14 2.141455 1_554
Mg8 O26 2.146448 1_555
Mg8 O16 2.146448 1_565
Mg8 O18 2.152077 1_555
Mg8 O27 2.152077 1_555
Mg9 O15 2.141455 1_554
Mg9 O11 2.141455 1_555
Mg9 O17 2.146448 1_565
Mg9 O26 2.146448 1_655
Mg9 O19 2.152077 1_555
Mg9 O27 2.152077 1_555
Mg10 O28 2.146667 1_555
Mg10 O20 2.146667 1_555
Mg10 O22 2.148521 1_555
Mg10 O29 2.148521 1_555
Mg10 O8 2.153118 1_555
Mg10 O12 2.153118 1_555
Mg11 O21 2.146667 1_555
Mg11 O28 2.146667 1_655
Mg11 O29 2.148521 1_555
Mg11 O23 2.148521 1_555
Mg11 O9 2.153118 1_555
Mg11 O13 2.153118 1_555
Mg12 O30 2.146667 1_555
Mg12 O20 2.146667 1_565
Mg12 O22 2.148521 1_555
Mg12 O31 2.148521 1_555
Mg12 O14 2.153118 1_555
Mg12 O10 2.153118 1_555
Mg13 O21 2.146667 1_565
Mg13 O30 2.146667 1_655
Mg13 O23 2.148521 1_555
Mg13 O31 2.148521 1_555
Mg13 O11 2.153118 1_555
Mg13 O15 2.153118 1_555
Mg14 O20 2.134885 1_555
Mg14 O1 2.136795 1_555
Mg14 O8 2.146553 1_555
Mg14 O10 2.146553 1_545
Mg14 O0 2.159540 1_555
Mg14 O16 2.160505 1_555
Mg15 O21 2.134885 1_555
Mg15 O1 2.136795 1_555
Mg15 O9 2.146553 1_555
Mg15 O11 2.146553 1_545
Mg15 O0 2.159540 1_655
Mg15 O17 2.160505 1_555
Mg16 O2 2.133579 1_555
Mg16 O22 2.133900 1_555
Mg16 O10 2.148835 1_555
Mg16 O8 2.148835 1_555
Mg16 O18 2.162327 1_555
Mg16 O3 2.163559 1_555
Mg17 O2 2.133579 1_655
Mg17 O23 2.133900 1_555
Mg17 O11 2.148835 1_555
Mg17 O9 2.148835 1_555
Mg17 O19 2.162327 1_555
Mg17 O3 2.163559 1_555
Mg18 O20 2.134885 1_555
Mg18 O5 2.136795 1_555
Mg18 O12 2.146553 1_555
Mg18 O14 2.146553 1_545
Mg18 O4 2.159540 1_555
Mg18 O16 2.160505 1_556
Mg19 O21 2.134885 1_555
Mg19 O5 2.136795 1_555
Mg19 O13 2.146553 1_555
Mg19 O15 2.146553 1_545
Mg19 O4 2.159540 1_655
Mg19 O17 2.160505 1_556
Mg20 O6 2.133579 1_555
Mg20 O22 2.133900 1_555
Mg20 O14 2.148835 1_555
Mg20 O12 2.148835 1_555
Mg20 O18 2.162327 1_556
Mg20 O7 2.163559 1_555
Mg21 O6 2.133579 1_655
Mg21 O23 2.133900 1_555
Mg21 O15 2.148835 1_555
Mg21 O13 2.148835 1_555
Mg21 O19 2.162327 1_556
Mg21 O7 2.163559 1_555
Mg22 O28 2.134885 1_555
Mg22 O2 2.136795 1_555
Mg22 O8 2.146553 1_555
Mg22 O9 2.146553 1_455
Mg22 O0 2.159540 1_555
Mg22 O24 2.160505 1_555
Mg23 O1 2.133579 1_555
Mg23 O29 2.133900 1_555
Mg23 O9 2.148835 1_555
Mg23 O8 2.148835 1_555
Mg23 O25 2.162327 1_555
Mg23 O3 2.163559 1_555
Mg24 O30 2.134885 1_555
Mg24 O2 2.136795 1_555
Mg24 O10 2.146553 1_555
Mg24 O11 2.146553 1_455
Mg24 O0 2.159540 1_565
Mg24 O26 2.160505 1_555
Mg25 O1 2.133579 1_565
Mg25 O31 2.133900 1_555
Mg25 O11 2.148835 1_555
Mg25 O10 2.148835 1_555
Mg25 O27 2.162327 1_555
Mg25 O3 2.163559 1_555
Mg26 O28 2.134885 1_555
Mg26 O6 2.136795 1_555
Mg26 O12 2.146553 1_555
Mg26 O13 2.146553 1_455
Mg26 O4 2.159540 1_555
Mg26 O24 2.160505 1_556
Mg27 O5 2.133579 1_555
Mg27 O29 2.133900 1_555
Mg27 O13 2.148835 1_555
Mg27 O12 2.148835 1_555
Mg27 O25 2.162327 1_556
Mg27 O7 2.163559 1_555
Mg28 O30 2.134885 1_555
Mg28 O6 2.136795 1_555
Mg28 O14 2.146553 1_555
Mg28 O15 2.146553 1_455
Mg28 O4 2.159540 1_565
Mg28 O26 2.160505 1_556
Mg29 O5 2.133579 1_565
Mg29 O31 2.133900 1_555
Mg29 O15 2.148835 1_555
Mg29 O14 2.148835 1_555
Mg29 O27 2.162327 1_556
Mg29 O7 2.163559 1_555
Nb0 O25 2.246047 1_555
Nb0 O18 2.246047 1_555
Nb0 O19 2.246047 1_555
Nb0 O27 2.246047 1_555
Nb0 O3 2.253036 1_555
Nb0 O7 2.253036 1_554
O0 Si0 2.230644 1_555
O4 Si0 2.230644 1_556
O16 Si0 2.217742 1_555
O17 Si0 2.217742 1_655
O24 Si0 2.217742 1_555
O26 Si0 2.217742 1_565
