# generated using pymatgen
data_Dy2Mn17C3
_symmetry_space_group_name_H-M   'P 1'
_cell_length_a   8.32382500
_cell_length_b   8.54717862
_cell_length_c   8.54717862
_cell_angle_alpha   120.00000484
_cell_angle_beta   90.00000000
_cell_angle_gamma   90.00000000
_symmetry_Int_Tables_number   1
_chemical_formula_structural   Dy2Mn17C3
_chemical_formula_sum   'Dy4 Mn34 C6'
_cell_volume   526.62213815
_cell_formula_units_Z   2
loop_
 _symmetry_equiv_pos_site_id
 _symmetry_equiv_pos_as_xyz
  1  'x, y, z'
loop_
 _atom_site_type_symbol
 _atom_site_label
 _atom_site_symmetry_multiplicity
 _atom_site_fract_x
 _atom_site_fract_y
 _atom_site_fract_z
 _atom_site_occupancy
  Dy  Dy0  1  0.75000000  0.66666700  0.33333300  1
  Dy  Dy1  1  0.25000000  0.33333300  0.66666700  1
  Dy  Dy2  1  0.75000000  0.00000000  0.00000000  1
  Dy  Dy3  1  0.25000000  0.00000000  0.00000000  1
  Mn  Mn0  1  0.75000000  0.61439300  0.67222700  1
  Mn  Mn1  1  0.25000000  0.38560700  0.32777300  1
  Mn  Mn2  1  0.75000000  0.05783400  0.38560700  1
  Mn  Mn3  1  0.25000000  0.94216600  0.32777300  1
  Mn  Mn4  1  0.25000000  0.94216600  0.61439300  1
  Mn  Mn5  1  0.75000000  0.05783400  0.67222700  1
  Mn  Mn6  1  0.75000000  0.32777300  0.94216600  1
  Mn  Mn7  1  0.25000000  0.67222700  0.61439300  1
  Mn  Mn8  1  0.25000000  0.67222700  0.05783400  1
  Mn  Mn9  1  0.75000000  0.32777300  0.38560700  1
  Mn  Mn10  1  0.25000000  0.38560700  0.05783400  1
  Mn  Mn11  1  0.75000000  0.61439300  0.94216600  1
  Mn  Mn12  1  0.38894900  0.66666700  0.33333300  1
  Mn  Mn13  1  0.61105100  0.33333300  0.66666700  1
  Mn  Mn14  1  0.88894900  0.33333300  0.66666700  1
  Mn  Mn15  1  0.11105100  0.66666700  0.33333300  1
  Mn  Mn16  1  0.97652000  0.82739700  0.17260300  1
  Mn  Mn17  1  0.02348000  0.17260300  0.82739700  1
  Mn  Mn18  1  0.97652000  0.34520700  0.17260300  1
  Mn  Mn19  1  0.47652000  0.17260300  0.82739700  1
  Mn  Mn20  1  0.02348000  0.65479300  0.82739700  1
  Mn  Mn21  1  0.52348000  0.82739700  0.17260300  1
  Mn  Mn22  1  0.97652000  0.82739700  0.65479300  1
  Mn  Mn23  1  0.47652000  0.65479300  0.82739700  1
  Mn  Mn24  1  0.02348000  0.17260300  0.34520700  1
  Mn  Mn25  1  0.52348000  0.34520700  0.17260300  1
  Mn  Mn26  1  0.47652000  0.17260300  0.34520700  1
  Mn  Mn27  1  0.52348000  0.82739700  0.65479300  1
  Mn  Mn28  1  0.00000000  0.50000000  0.50000000  1
  Mn  Mn29  1  0.00000000  0.00000000  0.50000000  1
  Mn  Mn30  1  0.50000000  0.50000000  0.50000000  1
  Mn  Mn31  1  0.00000000  0.50000000  0.00000000  1
  Mn  Mn32  1  0.50000000  0.00000000  0.50000000  1
  Mn  Mn33  1  0.50000000  0.50000000  0.00000000  1
  C  C0  1  0.75000000  0.83612700  0.16387300  1
  C  C1  1  0.25000000  0.16387300  0.83612700  1
  C  C2  1  0.75000000  0.32774600  0.16387300  1
  C  C3  1  0.25000000  0.67225400  0.83612700  1
  C  C4  1  0.75000000  0.83612700  0.67225400  1
  C  C5  1  0.25000000  0.16387300  0.32774600  1
loop_
_geom_bond_atom_site_label_1
_geom_bond_atom_site_label_2
_geom_bond_distance
_geom_bond_site_symmetry_2
Dy0 Mn15 3.005325 1_655
Dy0 Mn12 3.005325 1_555
Dy0 Mn31 3.227727 1_655
Dy0 Mn32 3.227727 1_565
Dy0 Mn33 3.227727 1_555
Dy0 Mn29 3.227727 1_665
Dy0 Mn28 3.227733 1_655
Dy0 Mn30 3.227733 1_555
Dy1 Mn13 3.005325 1_555
Dy1 Mn14 3.005325 1_455
Dy1 Mn32 3.227727 1_555
Dy1 Mn29 3.227727 1_555
Dy1 Mn33 3.227727 1_556
Dy1 Mn31 3.227727 1_556
Dy1 Mn30 3.227733 1_555
Dy1 Mn28 3.227733 1_555
Mn0 Mn28 2.452348 1_655
Mn0 Mn30 2.452348 1_555
Mn0 Mn13 2.645126 1_555
Mn0 Mn14 2.645126 1_555
Mn1 Mn30 2.452348 1_555
Mn1 Mn28 2.452348 1_555
Mn1 Mn12 2.645126 1_555
Mn1 Mn15 2.645126 1_555
Mn2 Mn29 2.452348 1_655
Mn2 Mn32 2.452348 1_555
Mn3 Mn32 2.452348 1_565
Mn10 Mn33 2.452348 1_555
Mn10 Mn31 2.452348 1_555
Mn10 Mn15 2.645122 1_555
Mn10 Mn12 2.645122 1_555
Mn11 Mn33 2.452348 1_556
Mn11 Mn31 2.452348 1_656
Mn11 Mn13 2.645122 1_555
Mn11 Mn14 2.645122 1_555
Mn12 Mn15 2.313174 1_555
Mn12 Mn27 2.629802 1_555
Mn12 Mn25 2.629802 1_555
Mn12 Mn21 2.629802 1_555
Mn12 Mn32 2.634825 1_565
Mn12 Mn33 2.634825 1_555
Mn12 Mn30 2.634832 1_555
Mn12 Mn8 2.645118 1_555
Mn12 Mn3 2.645118 1_555
Mn12 Mn4 2.645122 1_555
Mn12 Mn7 2.645126 1_555
Mn13 Mn14 2.313174 1_555
Mn13 Mn23 2.629802 1_555
Mn13 Mn26 2.629802 1_555
Mn13 Mn19 2.629802 1_555
Mn13 Mn32 2.634825 1_555
Mn13 Mn33 2.634825 1_556
Mn13 Mn30 2.634832 1_555
Mn13 Mn6 2.645118 1_555
Mn13 Mn5 2.645118 1_555
Mn13 Mn2 2.645122 1_555
Mn13 Mn9 2.645126 1_555
Mn14 Mn20 2.629802 1_655
Mn14 Mn24 2.629802 1_655
Mn14 Mn17 2.629802 1_655
Mn14 Mn29 2.634825 1_655
Mn14 Mn31 2.634825 1_656
Mn14 Mn28 2.634832 1_655
Mn14 Mn6 2.645118 1_555
Mn14 Mn5 2.645118 1_555
Mn14 Mn2 2.645122 1_555
Mn14 Mn9 2.645126 1_555
Mn15 Mn22 2.629802 1_455
Mn15 Mn18 2.629802 1_455
Mn15 Mn16 2.629802 1_455
Mn15 Mn29 2.634825 1_565
Mn15 Mn31 2.634825 1_555
Mn15 Mn28 2.634832 1_555
Mn15 Mn8 2.645118 1_555
Mn15 Mn3 2.645118 1_555
Mn15 Mn4 2.645122 1_555
Mn15 Mn7 2.645126 1_555
Mn16 Mn29 2.432476 1_665
Mn16 Mn31 2.432476 1_655
Mn17 Mn31 2.432476 1_556
Mn17 Mn29 2.432476 1_555
Mn18 Mn31 2.432469 1_655
Mn18 Mn28 2.432476 1_655
Mn19 Mn33 2.432476 1_556
Mn19 Mn32 2.432476 1_555
Mn20 Mn31 2.432469 1_556
Mn20 Mn28 2.432476 1_555
Mn21 Mn32 2.432476 1_565
Mn21 Mn33 2.432476 1_555
Mn22 Mn29 2.432469 1_665
Mn22 Mn28 2.432476 1_655
Mn23 Mn33 2.432469 1_556
Mn23 Mn30 2.432476 1_555
Mn24 Mn29 2.432469 1_555
Mn24 Mn28 2.432476 1_555
Mn25 Mn33 2.432469 1_555
Mn25 Mn30 2.432476 1_555
Mn26 Mn32 2.432469 1_555
Mn26 Mn30 2.432476 1_555
Mn27 Mn32 2.432469 1_565
Mn27 Mn30 2.432476 1_555
Mn28 Mn9 2.452348 1_455
Mn28 Mn7 2.452348 1_555
Mn29 Mn3 2.452348 1_545
Mn29 Mn5 2.452348 1_455
Mn29 Mn4 2.452348 1_545
Mn30 Mn7 2.452348 1_555
Mn30 Mn9 2.452348 1_555
Mn31 Mn8 2.452348 1_555
Mn31 Mn6 2.452348 1_454
Mn32 Mn5 2.452348 1_555
Mn32 Mn4 2.452348 1_545
Mn33 Mn8 2.452348 1_555
Mn33 Mn6 2.452348 1_554
C0 Mn16 1.889937 1_555
C0 Mn21 1.889937 1_555
C0 Mn2 1.895085 1_565
C0 Mn11 1.895085 1_554
C0 Dy2 2.426000 1_565
C0 Dy0 2.508711 1_555
C1 Mn17 1.889937 1_555
C1 Mn19 1.889937 1_555
C1 Mn10 1.895085 1_556
C1 Mn4 1.895085 1_545
C1 Dy3 2.426000 1_556
C1 Dy1 2.508711 1_555
C2 Mn18 1.889937 1_555
C2 Mn25 1.889937 1_555
C2 Mn9 1.895085 1_555
C2 Mn6 1.895085 1_554
C2 Dy2 2.426000 1_555
C2 Dy0 2.508718 1_555
C3 Mn23 1.889937 1_555
C3 Mn20 1.889937 1_555
C3 Mn7 1.895085 1_555
C3 Mn8 1.895085 1_556
C3 Dy3 2.426000 1_566
C3 Dy1 2.508718 1_555
C4 Mn22 1.889937 1_555
C4 Mn27 1.889937 1_555
C4 Mn0 1.895085 1_555
C4 Mn5 1.895085 1_565
C4 Dy2 2.426000 1_566
C4 Dy0 2.508718 1_555
C5 Mn24 1.889937 1_555
C5 Mn26 1.889937 1_555
C5 Mn1 1.895085 1_555
C5 Mn3 1.895085 1_545
C5 Dy3 2.426000 1_555
C5 Dy1 2.508718 1_555
