# generated using pymatgen
data_MgTl4V4(TeO5)4
_symmetry_space_group_name_H-M   'P 1'
_cell_length_a   7.30804558
_cell_length_b   8.11750935
_cell_length_c   9.30476768
_cell_angle_alpha   93.71858420
_cell_angle_beta   93.62827918
_cell_angle_gamma   84.43959240
_symmetry_Int_Tables_number   1
_chemical_formula_structural   MgTl4V4(TeO5)4
_chemical_formula_sum   'Mg1 Tl4 V4 Te4 O20'
_cell_volume   547.33037860
_cell_formula_units_Z   1
loop_
 _symmetry_equiv_pos_site_id
 _symmetry_equiv_pos_as_xyz
  1  'x, y, z'
loop_
 _atom_site_type_symbol
 _atom_site_label
 _atom_site_symmetry_multiplicity
 _atom_site_fract_x
 _atom_site_fract_y
 _atom_site_fract_z
 _atom_site_occupancy
  Mg  Mg0  1  0.84358700  0.84506400  0.02507000  1
  Tl  Tl0  1  0.06719900  0.94777900  0.83171900  1
  Tl  Tl1  1  0.52501500  0.91728600  0.61016300  1
  Tl  Tl2  1  0.52431700  0.40486400  0.39230400  1
  Tl  Tl3  1  0.02918000  0.41131700  0.09710300  1
  V  V0  1  0.26553300  0.78051500  0.25720100  1
  V  V1  1  0.24009500  0.28357300  0.74046400  1
  V  V2  1  0.76918500  0.76161300  0.28614300  1
  V  V3  1  0.72449500  0.31798400  0.74659600  1
  Te  Te0  1  0.97631000  0.09226700  0.46095400  1
  Te  Te1  1  0.03795600  0.59235800  0.53338700  1
  Te  Te2  1  0.49410500  0.59048500  0.97018900  1
  Te  Te3  1  0.49630500  0.06346700  0.05855400  1
  O  O0  1  0.94368600  0.26352800  0.81874800  1
  O  O1  1  0.15008100  0.05748300  0.62250000  1
  O  O2  1  0.01883500  0.75817700  0.17974700  1
  O  O3  1  0.86884400  0.54783200  0.37421700  1
  O  O4  1  0.23417900  0.97510100  0.34229300  1
  O  O5  1  0.54403800  0.75306900  0.33000800  1
  O  O6  1  0.89343400  0.86827100  0.45892500  1
  O  O7  1  0.22256800  0.47615400  0.82563400  1
  O  O8  1  0.46082900  0.26325600  0.67852200  1
  O  O9  1  0.61414200  0.36667700  0.93034100  1
  O  O10  1  0.28528100  0.14331600  0.88732000  1
  O  O11  1  0.36266300  0.55129300  0.13144500  1
  O  O12  1  0.72066900  0.64759400  0.07746500  1
  O  O13  1  0.35626900  0.87400100  0.06810700  1
  O  O14  1  0.76480100  0.16651200  0.57973700  1
  O  O15  1  0.72858800  0.50570400  0.68403800  1
  O  O16  1  0.64573400  0.97500300  0.90644500  1
  O  O17  1  0.71572100  0.98028000  0.19023400  1
  O  O18  1  0.23876500  0.63294700  0.42173100  1
  O  O19  1  0.11259100  0.35822400  0.55412600  1
loop_
_geom_bond_atom_site_label_1
_geom_bond_atom_site_label_2
_geom_bond_distance
_geom_bond_site_symmetry_2
Mg0 O2 1.983033 1_655
Mg0 O12 2.012446 1_555
Mg0 O16 2.018672 1_554
Mg0 O17 2.050353 1_555
Mg0 Tl0 2.726380 1_654
O0 V3 1.725467 1_555
O0 V1 2.352178 1_655
O0 Tl0 2.641359 1_645
O0 Tl3 2.841698 1_656
O1 Te0 1.922461 1_455
O1 V1 2.210674 1_555
O1 Tl0 2.329877 1_545
O1 Tl1 2.869616 1_545
O2 V0 1.919533 1_555
O2 V2 2.127122 1_455
O2 Tl3 2.865333 1_555
O3 Te1 1.907086 1_655
O3 V2 2.019291 1_555
O4 V0 1.721912 1_555
O4 Te0 2.335563 1_465
O5 V2 1.729010 1_555
O5 V0 2.099601 1_555
O5 Tl1 2.854962 1_555
O6 Te0 1.969994 1_565
O6 V2 1.986410 1_555
O6 Te1 2.502433 1_655
O7 V1 1.703416 1_555
O7 Te2 2.542739 1_555
O8 V1 1.736483 1_555
O8 V3 2.070354 1_555
O8 Tl1 2.839466 1_545
O9 V3 1.937728 1_555
O9 Te2 1.962801 1_555
O10 V1 1.828759 1_555
O10 Te3 2.228512 1_556
O10 Tl0 2.367805 1_545
O11 Te2 1.891784 1_554
O11 V0 2.214060 1_555
O11 Tl3 2.779148 1_555
O12 Te2 1.957624 1_554
O12 V2 2.120355 1_555
O12 Tl3 2.819685 1_655
O13 Te3 1.937760 1_565
O13 V0 2.128316 1_555
O13 Te2 2.556627 1_554
O14 V3 1.936288 1_555
O14 Te0 1.980741 1_555
O14 Tl1 2.840415 1_545
O15 V3 1.669681 1_555
O16 Te3 1.903475 1_566
O16 Tl1 2.864035 1_555
O17 V2 2.031436 1_555
O17 Te3 2.043838 1_565
O18 Te1 1.916411 1_555
O18 V0 2.034227 1_555
O18 Tl2 2.667501 1_555
O19 Te1 1.944305 1_555
O19 V1 2.015943 1_555
O19 Te0 2.543425 1_455
