# generated using pymatgen
data_La7SmCr2(Fe3O10)2
_symmetry_space_group_name_H-M   'P 1'
_cell_length_a   11.07725688
_cell_length_b   11.69139530
_cell_length_c   17.91266034
_cell_angle_alpha   109.07439139
_cell_angle_beta   107.95418396
_cell_angle_gamma   90.02782731
_symmetry_Int_Tables_number   1
_chemical_formula_structural   La7SmCr2(Fe3O10)2
_chemical_formula_sum   'La28 Sm4 Cr8 Fe24 O80'
_cell_volume   2072.44554512
_cell_formula_units_Z   4
loop_
 _symmetry_equiv_pos_site_id
 _symmetry_equiv_pos_as_xyz
  1  'x, y, z'
loop_
 _atom_site_type_symbol
 _atom_site_label
 _atom_site_symmetry_multiplicity
 _atom_site_fract_x
 _atom_site_fract_y
 _atom_site_fract_z
 _atom_site_occupancy
  La  La0  1  0.30018810  0.06388574  0.11367865  1
  La  La1  1  0.30473227  0.06394163  0.61137842  1
  La  La2  1  0.30423418  0.56140772  0.60979136  1
  La  La3  1  0.80788223  0.06397596  0.61156643  1
  La  La4  1  0.80435889  0.56629497  0.11367588  1
  La  La5  1  0.80316518  0.56477988  0.61110580  1
  La  La6  1  0.19436524  0.43367347  0.38798052  1
  La  La7  1  0.18881971  0.43675856  0.88838233  1
  La  La8  1  0.19015986  0.93632907  0.38706908  1
  La  La9  1  0.18998902  0.93454914  0.88580944  1
  La  La10  1  0.69154211  0.43882372  0.38942069  1
  La  La11  1  0.69497791  0.93441372  0.38851681  1
  La  La12  1  0.68994044  0.93517444  0.88642687  1
  La  La13  1  0.05569911  0.29729572  0.11308647  1
  La  La14  1  0.05624091  0.29926297  0.61027440  1
  La  La15  1  0.05336249  0.79813966  0.60969446  1
  La  La16  1  0.55257963  0.29664961  0.11245313  1
  La  La17  1  0.55937856  0.29682901  0.61352675  1
  La  La18  1  0.55123180  0.80024492  0.11513464  1
  La  La19  1  0.55402007  0.79709634  0.61109890  1
  La  La20  1  0.44512140  0.20130770  0.38980468  1
  La  La21  1  0.44236030  0.20369350  0.88807827  1
  La  La22  1  0.44226502  0.70130189  0.38680958  1
  La  La23  1  0.43969284  0.70073914  0.88615000  1
  La  La24  1  0.94125639  0.20288079  0.38720184  1
  La  La25  1  0.94270037  0.20363455  0.88767058  1
  La  La26  1  0.94313941  0.70140384  0.38764941  1
  La  La27  1  0.93901920  0.70021945  0.88627649  1
  Sm  Sm0  1  0.29819185  0.56730209  0.11200594  1
  Sm  Sm1  1  0.80112475  0.06714389  0.11211507  1
  Sm  Sm2  1  0.68922498  0.43319345  0.88866003  1
  Sm  Sm3  1  0.05234323  0.79619522  0.11319549  1
  Cr  Cr0  1  0.00087308  0.99828213  0.00134511  1
  Cr  Cr1  1  0.00003951  0.50144008  0.00091237  1
  Cr  Cr2  1  0.50176441  0.99946847  0.00059125  1
  Cr  Cr3  1  0.50331672  0.99790593  0.49985447  1
  Cr  Cr4  1  0.50137240  0.50192577  0.00088407  1
  Cr  Cr5  1  0.25038220  0.75108270  0.00104136  1
  Cr  Cr6  1  0.75179802  0.24951967  0.00047393  1
  Cr  Cr7  1  0.75178630  0.75099840  0.00125936  1
  Fe  Fe0  1  0.00552068  0.00071335  0.49927269  1
  Fe  Fe1  1  0.00374914  0.50193649  0.49971695  1
  Fe  Fe2  1  0.50361097  0.49887519  0.50000420  1
  Fe  Fe3  1  0.25465768  0.25113162  0.00128881  1
  Fe  Fe4  1  0.25503607  0.24835657  0.49922213  1
  Fe  Fe5  1  0.25409762  0.74891880  0.49934448  1
  Fe  Fe6  1  0.75539188  0.24980456  0.49995620  1
  Fe  Fe7  1  0.75350669  0.75143495  0.50005582  1
  Fe  Fe8  1  0.10878631  0.10119300  0.24978108  1
  Fe  Fe9  1  0.11333601  0.10413517  0.74986589  1
  Fe  Fe10  1  0.11464203  0.60480948  0.25149243  1
  Fe  Fe11  1  0.11058534  0.60134879  0.74747598  1
  Fe  Fe12  1  0.61510280  0.10421850  0.25215551  1
  Fe  Fe13  1  0.61250830  0.10430215  0.75083335  1
  Fe  Fe14  1  0.60911485  0.60295764  0.25010623  1
  Fe  Fe15  1  0.61148236  0.60047855  0.74941982  1
  Fe  Fe16  1  0.36127050  0.39799467  0.24932836  1
  Fe  Fe17  1  0.36341630  0.39625819  0.74869381  1
  Fe  Fe18  1  0.35930828  0.89574463  0.24932578  1
  Fe  Fe19  1  0.36073107  0.89513733  0.74723658  1
  Fe  Fe20  1  0.86214419  0.39644531  0.25078667  1
  Fe  Fe21  1  0.85957901  0.39595859  0.74849531  1
  Fe  Fe22  1  0.86407728  0.89974023  0.25016099  1
  Fe  Fe23  1  0.86105138  0.89695963  0.74834229  1
  O  O0  1  0.11450513  0.11834840  0.47564218  1
  O  O1  1  0.11415836  0.11520523  0.97912931  1
  O  O2  1  0.11276618  0.61787989  0.47726572  1
  O  O3  1  0.11382986  0.61992685  0.98184913  1
  O  O4  1  0.61695794  0.11352882  0.47861859  1
  O  O5  1  0.61414183  0.11791538  0.97987502  1
  O  O6  1  0.61094335  0.61722636  0.47695290  1
  O  O7  1  0.61356290  0.61470557  0.97480345  1
  O  O8  1  0.13756501  0.38837242  0.02303663  1
  O  O9  1  0.13907856  0.38494874  0.52371739  1
  O  O10  1  0.13455061  0.88176717  0.02656565  1
  O  O11  1  0.13893145  0.88569907  0.52174156  1
  O  O12  1  0.63291347  0.38069264  0.01913831  1
  O  O13  1  0.63701481  0.38240130  0.52164351  1
  O  O14  1  0.63933423  0.88637901  0.02542062  1
  O  O15  1  0.63829311  0.88447224  0.52230007  1
  O  O16  1  0.36479908  0.10533970  0.47739110  1
  O  O17  1  0.36575901  0.11056069  0.97950842  1
  O  O18  1  0.36153759  0.60642327  0.47743116  1
  O  O19  1  0.36320975  0.61192356  0.97959873  1
  O  O20  1  0.86776435  0.11288241  0.47790540  1
  O  O21  1  0.86367278  0.10964789  0.98076060  1
  O  O22  1  0.86254237  0.61360257  0.47668735  1
  O  O23  1  0.85965944  0.60799029  0.97533141  1
  O  O24  1  0.38530705  0.39552465  0.02451979  1
  O  O25  1  0.38892355  0.38393121  0.52134408  1
  O  O26  1  0.38448706  0.88886250  0.02131611  1
  O  O27  1  0.38884027  0.88728041  0.52168446  1
  O  O28  1  0.88337352  0.38840593  0.01935674  1
  O  O29  1  0.88643374  0.39175713  0.52142144  1
  O  O30  1  0.88875133  0.89201813  0.02953067  1
  O  O31  1  0.88870354  0.89090410  0.52294952  1
  O  O32  1  0.10512876  0.12185441  0.14574819  1
  O  O33  1  0.09143030  0.11529930  0.63959348  1
  O  O34  1  0.11069375  0.62225270  0.14575738  1
  O  O35  1  0.08868229  0.61386374  0.63791910  1
  O  O36  1  0.61141262  0.12022961  0.14620485  1
  O  O37  1  0.59729365  0.11935904  0.64384918  1
  O  O38  1  0.60842031  0.62242624  0.14537090  1
  O  O39  1  0.58971478  0.61168192  0.63897989  1
  O  O40  1  0.44841629  0.38512266  0.35929739  1
  O  O41  1  0.46611954  0.38009492  0.85438441  1
  O  O42  1  0.45470377  0.87824523  0.35517721  1
  O  O43  1  0.45781749  0.87967052  0.85462307  1
  O  O44  1  0.95248197  0.38765571  0.36164775  1
  O  O45  1  0.96118199  0.38181569  0.85507238  1
  O  O46  1  0.94973623  0.88698792  0.36057991  1
  O  O47  1  0.95808523  0.87958905  0.85519621  1
  O  O48  1  0.34301199  0.27480755  0.13902696  1
  O  O49  1  0.33902034  0.27480693  0.63803504  1
  O  O50  1  0.35303921  0.77218666  0.14338839  1
  O  O51  1  0.34020786  0.77480972  0.63725559  1
  O  O52  1  0.85254307  0.27364369  0.14426412  1
  O  O53  1  0.83691919  0.27665392  0.63758186  1
  O  O54  1  0.86636206  0.77342707  0.14646406  1
  O  O55  1  0.83773093  0.77635150  0.63783090  1
  O  O56  1  0.20169330  0.22032175  0.36070750  1
  O  O57  1  0.20480034  0.22405212  0.86186509  1
  O  O58  1  0.20006682  0.72611215  0.36213254  1
  O  O59  1  0.20629615  0.72333486  0.85519508  1
  O  O60  1  0.70043785  0.22595236  0.36249562  1
  O  O61  1  0.70968284  0.22711048  0.85742618  1
  O  O62  1  0.69966670  0.72226444  0.36098442  1
  O  O63  1  0.70902498  0.72674544  0.85548683  1
  O  O64  1  0.42054428  0.06951219  0.25109656  1
  O  O65  1  0.41773558  0.07040856  0.75040872  1
  O  O66  1  0.41325795  0.56849921  0.24437096  1
  O  O67  1  0.41795574  0.56980312  0.74886874  1
  O  O68  1  0.91251807  0.07146361  0.24552027  1
  O  O69  1  0.92116504  0.07059447  0.75056369  1
  O  O70  1  0.92093279  0.56893992  0.25031705  1
  O  O71  1  0.91711025  0.56889102  0.74852138  1
  O  O72  1  0.16917851  0.43075894  0.25093834  1
  O  O73  1  0.17031894  0.42934287  0.74984714  1
  O  O74  1  0.16377542  0.92626596  0.24575692  1
  O  O75  1  0.16891216  0.93052521  0.74887509  1
  O  O76  1  0.66702730  0.42996108  0.25022252  1
  O  O77  1  0.66968715  0.43039315  0.75556764  1
  O  O78  1  0.67215653  0.93124484  0.25151653  1
  O  O79  1  0.66824364  0.93012467  0.74921823  1
loop_
_geom_bond_atom_site_label_1
_geom_bond_atom_site_label_2
_geom_bond_distance
_geom_bond_site_symmetry_2
La0 O48 2.376228 1_555
La0 O64 2.389922 1_555
La0 O32 2.443407 1_555
La0 O10 2.528747 1_545
La0 O26 2.556960 1_545
La0 O1 2.880907 1_554
La0 O17 2.921378 1_554
La1 O49 2.359641 1_555
La1 O65 2.393672 1_555
La1 O11 2.507031 1_545
La1 O27 2.543850 1_545
La1 O33 2.595776 1_555
La1 O16 2.860205 1_555
La1 O0 2.934290 1_555
La1 O37 3.138516 1_555
La2 O51 2.387807 1_555
La2 O67 2.389166 1_555
La2 O9 2.481673 1_555
La2 O25 2.542672 1_555
La2 O35 2.621517 1_555
La2 O18 2.836240 1_555
La2 O2 2.913989 1_555
La2 O39 3.065492 1_555
La3 O53 2.377561 1_555
La3 O69 2.393240 1_555
La3 O31 2.488816 1_545
La3 O15 2.537947 1_545
La3 O37 2.604562 1_555
La3 O4 2.877088 1_555
La3 O20 2.893572 1_555
La3 O33 3.050685 1_655
La4 O54 2.345468 1_555
La4 O70 2.379319 1_555
La4 O38 2.445706 1_555
La4 O28 2.561803 1_555
La4 O12 2.606656 1_555
La4 O23 2.911891 1_554
La4 O7 2.941991 1_554
La5 O55 2.367793 1_555
La5 O71 2.379395 1_555
La5 O29 2.512966 1_555
La5 O13 2.538999 1_555
La5 O39 2.586645 1_555
La5 O22 2.903478 1_555
La5 O6 2.914482 1_555
La5 O35 3.073197 1_655
La6 O72 2.372356 1_555
La6 O56 2.386498 1_555
La6 O18 2.475412 1_555
La6 O2 2.579718 1_555
La6 O44 2.597057 1_455
La6 O25 2.902573 1_555
La6 O9 2.904183 1_555
La6 O40 3.034501 1_555
La7 O57 2.391972 1_555
La7 O73 2.398615 1_555
La7 O45 2.438740 1_455
La7 O19 2.541382 1_555
La7 O3 2.568050 1_555
La7 O8 2.862862 1_556
La7 O24 2.900613 1_556
La8 O58 2.359016 1_555
La8 O74 2.419885 1_555
La8 O16 2.498330 1_565
La8 O0 2.522483 1_565
La8 O46 2.586748 1_455
La8 O11 2.875542 1_555
La8 O27 2.936015 1_555
La8 O42 3.186742 1_555
La9 O59 2.368052 1_555
La9 O75 2.375867 1_555
La9 O47 2.492439 1_455
La9 O1 2.553571 1_565
La9 O17 2.562545 1_565
La9 O26 2.905736 1_556
La9 O10 3.014317 1_556
La9 O43 3.211701 1_555
La10 O60 2.383543 1_555
La10 O76 2.390657 1_555
La10 O22 2.508014 1_555
La10 O6 2.516618 1_555
La10 O40 2.611419 1_555
La10 O29 2.873810 1_555
La10 O13 2.883111 1_555
La10 O44 3.107096 1_555
La11 O62 2.369458 1_555
La11 O78 2.376065 1_555
La11 O4 2.527800 1_565
La11 O20 2.550289 1_565
La11 O42 2.575640 1_555
La11 O31 2.877215 1_555
La11 O15 2.884416 1_555
La11 O46 3.035209 1_555
La12 O63 2.340941 1_555
La12 O79 2.375471 1_555
La12 O43 2.492151 1_555
La12 O21 2.541333 1_565
La12 O5 2.569509 1_565
La12 O14 2.937183 1_556
La13 O32 2.331794 1_555
La13 O72 2.382952 1_555
La13 O52 2.515527 1_455
La13 O8 2.565454 1_555
La13 O28 2.606223 1_455
La13 O1 2.886142 1_554
La13 O21 2.905916 1_454
La13 O48 3.095667 1_555
La14 O33 2.380450 1_555
La14 O73 2.392825 1_555
La14 O9 2.478095 1_555
La14 O29 2.553801 1_455
La14 O53 2.651049 1_455
La14 O20 2.880264 1_455
La14 O0 2.886745 1_555
La14 O49 3.045418 1_555
La15 O35 2.375098 1_555
La15 O75 2.399612 1_555
La15 O31 2.504709 1_455
La15 O11 2.530284 1_555
La15 O55 2.617223 1_455
La15 O2 2.863183 1_555
La15 O22 2.886224 1_455
La15 O51 3.088061 1_555
La16 O36 2.370227 1_555
La16 O76 2.383673 1_555
La16 O48 2.537909 1_555
La16 O12 2.557529 1_555
La16 O24 2.577487 1_555
La16 O5 2.868419 1_554
La16 O17 2.873699 1_554
La16 O52 3.220497 1_555
La17 O37 2.318037 1_555
La17 O77 2.426889 1_555
La17 O13 2.529316 1_555
La17 O25 2.550987 1_555
La17 O49 2.636522 1_555
La17 O4 2.899306 1_555
La17 O16 2.964982 1_555
La17 O53 2.990584 1_555
La18 O38 2.354223 1_555
La18 O78 2.375533 1_555
La18 O50 2.444685 1_555
La18 O26 2.556457 1_555
La18 O14 2.563731 1_555
La18 O19 2.909337 1_554
La18 O7 3.001422 1_554
La19 O39 2.385708 1_555
La19 O79 2.386240 1_555
La19 O27 2.514719 1_555
La19 O15 2.534091 1_555
La19 O51 2.580761 1_555
La19 O6 2.868207 1_555
La19 O18 2.933932 1_555
La19 O55 3.051850 1_555
La20 O40 2.387085 1_555
La20 O64 2.387905 1_555
La20 O4 2.531684 1_555
La20 O16 2.553854 1_555
La20 O56 2.608085 1_555
La20 O25 2.848779 1_555
La20 O13 2.865482 1_555
La20 O60 3.043901 1_555
La21 O41 2.365988 1_555
La21 O65 2.378493 1_555
La21 O5 2.545795 1_555
La21 O57 2.552228 1_555
La21 O17 2.570847 1_555
La21 O12 2.831013 1_556
La21 O24 2.962058 1_556
La21 O61 3.200776 1_555
La22 O42 2.331009 1_555
La22 O66 2.434903 1_555
La22 O6 2.498770 1_555
La22 O18 2.595378 1_555
La22 O58 2.613591 1_555
La22 O27 2.892097 1_555
La22 O15 2.922499 1_555
La22 O62 3.048049 1_555
La23 O43 2.361601 1_555
La23 O67 2.371213 1_555
La23 O59 2.504816 1_555
La23 O7 2.530471 1_555
La23 O19 2.570510 1_555
La23 O26 2.916709 1_556
La23 O14 2.979929 1_556
La24 O44 2.360703 1_555
La24 O68 2.419872 1_555
La24 O0 2.514009 1_655
La24 O20 2.518262 1_555
La24 O60 2.595311 1_555
La24 O29 2.908068 1_555
La24 O9 2.932997 1_655
La24 O56 3.081620 1_655
La25 O45 2.364501 1_555
La25 O69 2.376896 1_555
La25 O61 2.503428 1_555
La25 O1 2.559433 1_655
La25 O21 2.617420 1_555
La25 O28 2.879110 1_556
La25 O8 2.923957 1_656
La25 O57 3.098214 1_655
La26 O70 2.376347 1_555
La26 O46 2.378557 1_555
La26 O2 2.495563 1_655
La26 O22 2.518251 1_555
La26 O62 2.616117 1_555
La26 O11 2.918388 1_655
La26 O31 2.922111 1_555
La26 O58 3.046288 1_655
La27 O47 2.363776 1_555
La27 O71 2.378951 1_555
La27 O63 2.477386 1_555
La27 O23 2.543240 1_555
La27 O3 2.563222 1_655
La27 O10 2.943673 1_656
Cr0 O21 2.027618 1_464
Cr0 O30 2.033720 1_455
Cr0 O10 2.060148 1_555
Cr0 O1 2.064832 1_564
Cr0 O32 2.413697 1_565
Cr0 O47 2.421527 1_454
Cr1 O28 2.018087 1_455
Cr1 O23 2.028685 1_454
Cr1 O3 2.048719 1_554
Cr1 O8 2.048766 1_555
Cr1 O34 2.423151 1_555
Cr1 O45 2.425702 1_454
Cr2 O17 2.017678 1_564
Cr2 O26 2.026617 1_555
Cr2 O5 2.055235 1_564
Cr2 O14 2.058316 1_555
Cr2 O43 2.419978 1_554
Cr2 O36 2.431100 1_565
Cr3 O16 2.011344 1_565
Cr3 O27 2.017030 1_555
Cr3 O15 2.033665 1_555
Cr3 O4 2.046057 1_565
Cr3 O37 2.387943 1_565
Cr3 O42 2.394281 1_555
Cr4 O24 2.014443 1_555
Cr4 O19 2.025880 1_554
Cr4 O12 2.061616 1_555
Cr4 O7 2.064037 1_554
Cr4 O38 2.410918 1_555
Cr4 O41 2.447941 1_554
Cr5 O3 2.022407 1_554
Cr5 O10 2.024057 1_555
Cr5 O26 2.053327 1_555
Cr5 O19 2.060604 1_554
Cr5 O50 2.378337 1_555
Cr5 O59 2.414170 1_554
Cr6 O5 2.026947 1_554
Cr6 O12 2.033776 1_555
Cr6 O28 2.051863 1_555
Cr6 O21 2.056455 1_554
Cr6 O61 2.382463 1_554
Cr6 O52 2.389938 1_555
Cr7 O14 2.032427 1_555
Cr7 O7 2.040782 1_554
Cr7 O30 2.062714 1_555
Cr7 O23 2.067754 1_554
Cr7 O63 2.424132 1_554
Cr7 O54 2.442028 1_555
Fe0 O11 2.035454 1_545
Fe0 O20 2.040781 1_455
Fe0 O31 2.048208 1_445
Fe0 O0 2.054760 1_555
Fe0 O46 2.283752 1_445
Fe0 O33 2.311140 1_555
Fe1 O2 2.027725 1_555
Fe1 O29 2.033829 1_455
Fe1 O22 2.068195 1_455
Fe1 O9 2.071663 1_555
Fe1 O35 2.274111 1_555
Fe1 O44 2.279900 1_455
Fe2 O18 2.040395 1_555
Fe2 O6 2.042836 1_555
Fe2 O13 2.045027 1_555
Fe2 O25 2.049273 1_555
Fe2 O39 2.288103 1_555
Fe2 O40 2.313749 1_555
Fe3 O17 2.060760 1_554
Fe3 O24 2.069958 1_555
Fe3 O1 2.075978 1_554
Fe3 O8 2.076939 1_555
Fe3 O48 2.277392 1_555
Fe3 O57 2.296779 1_554
Fe4 O0 2.021080 1_555
Fe4 O25 2.023340 1_555
Fe4 O9 2.069828 1_555
Fe4 O16 2.072396 1_555
Fe4 O56 2.275342 1_555
Fe4 O49 2.283606 1_555
Fe5 O2 2.043147 1_555
Fe5 O18 2.051463 1_555
Fe5 O27 2.052077 1_555
Fe5 O11 2.060076 1_555
Fe5 O58 2.266018 1_555
Fe5 O51 2.272086 1_555
Fe6 O20 2.039578 1_555
Fe6 O13 2.048431 1_555
Fe6 O29 2.060529 1_555
Fe6 O4 2.067447 1_555
Fe6 O53 2.261173 1_555
Fe6 O60 2.266747 1_555
Fe7 O22 2.025718 1_555
Fe7 O15 2.029089 1_555
Fe7 O31 2.061984 1_555
Fe7 O6 2.073035 1_555
Fe7 O55 2.270738 1_555
Fe7 O62 2.281739 1_555
Fe8 O32 1.944305 1_555
Fe8 O56 1.968815 1_555
Fe8 O74 2.119142 1_545
Fe8 O68 2.175554 1_455
Fe9 O33 1.962309 1_555
Fe9 O57 1.980933 1_555
Fe9 O75 2.117446 1_545
Fe9 O69 2.168918 1_455
Fe10 O34 1.957579 1_555
Fe10 O58 1.959580 1_555
Fe10 O72 2.120739 1_555
Fe10 O70 2.178561 1_455
Fe11 O59 1.954453 1_555
Fe11 O35 1.955931 1_555
Fe11 O73 2.126852 1_555
Fe11 O71 2.183149 1_455
Fe12 O36 1.955238 1_555
Fe12 O60 1.958045 1_555
Fe12 O78 2.116563 1_545
Fe12 O64 2.186024 1_555
Fe13 O37 1.937336 1_555
Fe13 O61 1.950762 1_555
Fe13 O79 2.121927 1_545
Fe13 O65 2.190702 1_555
Fe14 O38 1.960046 1_555
Fe14 O62 1.963720 1_555
Fe14 O76 2.122622 1_555
Fe14 O66 2.171295 1_555
Fe15 O63 1.963718 1_555
Fe15 O39 1.965749 1_555
Fe15 O77 2.117239 1_555
Fe15 O67 2.169850 1_555
Fe16 O40 1.963758 1_555
Fe16 O48 1.977983 1_555
Fe16 O66 2.111733 1_555
Fe16 O72 2.169499 1_555
Fe17 O41 1.954579 1_555
Fe17 O49 1.961664 1_555
Fe17 O67 2.115481 1_555
Fe17 O73 2.179024 1_555
Fe18 O42 1.942197 1_555
Fe18 O50 1.954371 1_555
Fe18 O64 2.128791 1_565
Fe18 O74 2.180167 1_555
Fe19 O51 1.955514 1_555
Fe19 O43 1.959997 1_555
Fe19 O65 2.121688 1_565
Fe19 O75 2.172163 1_555
Fe20 O52 1.948766 1_555
Fe20 O44 1.965646 1_555
Fe20 O70 2.122365 1_555
Fe20 O76 2.194326 1_555
Fe21 O45 1.954602 1_555
Fe21 O53 1.958763 1_555
Fe21 O71 2.119398 1_555
Fe21 O77 2.175898 1_555
Fe22 O54 1.966705 1_555
Fe22 O46 1.967353 1_555
Fe22 O68 2.112150 1_565
Fe22 O78 2.163951 1_555
Fe23 O55 1.957978 1_555
Fe23 O47 1.961128 1_555
Fe23 O69 2.120281 1_565
Fe23 O79 2.174774 1_555
O3 Sm0 2.826346 1_556
O3 Sm3 2.840189 1_556
O5 Sm1 2.854629 1_556
O7 Sm2 2.499149 1_555
O8 Sm0 2.480146 1_555
O10 Sm3 2.474499 1_555
O12 Sm2 2.839807 1_554
O14 Sm1 2.495076 1_565
O19 Sm0 2.877083 1_556
O21 Sm1 2.834096 1_556
O23 Sm2 2.503309 1_555
O23 Sm3 2.947908 1_656
O24 Sm0 2.509499 1_555
O28 Sm2 2.842273 1_554
O30 Sm3 2.491976 1_655
O30 Sm1 2.496040 1_565
O34 Sm3 2.331899 1_555
O34 Sm0 2.369308 1_555
O36 Sm1 2.391452 1_555
O41 Sm2 2.384128 1_555
O50 Sm0 2.308883 1_555
O52 Sm1 2.317865 1_555
O54 Sm3 2.351659 1_655
O61 Sm2 2.316726 1_555
O66 Sm0 2.315522 1_555
O68 Sm1 2.310564 1_555
O74 Sm3 2.303401 1_555
O77 Sm2 2.315692 1_555
