# generated using pymatgen
data_La2CrFeO6
_symmetry_space_group_name_H-M   'P 1'
_cell_length_a   5.60191000
_cell_length_b   5.60449902
_cell_length_c   7.91237904
_cell_angle_alpha   89.98888070
_cell_angle_beta   90.00016148
_cell_angle_gamma   89.99995911
_symmetry_Int_Tables_number   1
_chemical_formula_structural   La2CrFeO6
_chemical_formula_sum   'La4 Cr2 Fe2 O12'
_cell_volume   248.41624954
_cell_formula_units_Z   2
loop_
 _symmetry_equiv_pos_site_id
 _symmetry_equiv_pos_as_xyz
  1  'x, y, z'
loop_
 _atom_site_type_symbol
 _atom_site_label
 _atom_site_symmetry_multiplicity
 _atom_site_fract_x
 _atom_site_fract_y
 _atom_site_fract_z
 _atom_site_occupancy
  La  La0  1  0.47144100  0.49218400  0.75003300  1
  La  La1  1  0.97142500  0.00781400  0.74995900  1
  La  La2  1  0.52857400  0.50782900  0.24998400  1
  La  La3  1  0.02857500  0.99219400  0.25004600  1
  Cr  Cr0  1  0.50001000  0.99998900  0.50001200  1
  Cr  Cr1  1  0.99996700  0.49999600  0.99999200  1
  Fe  Fe0  1  0.49999900  0.99999300  0.99999800  1
  Fe  Fe1  1  0.00000400  0.50000800  0.50000200  1
  O  O0  1  0.01569400  0.58176200  0.75038800  1
  O  O1  1  0.51569000  0.91823700  0.74960600  1
  O  O2  1  0.98431000  0.41824000  0.24961000  1
  O  O3  1  0.48431100  0.08176600  0.25038700  1
  O  O4  1  0.21852600  0.21941400  0.95579500  1
  O  O5  1  0.71852100  0.28058700  0.54419600  1
  O  O6  1  0.78086600  0.78101200  0.45591200  1
  O  O7  1  0.28086500  0.71898500  0.04409000  1
  O  O8  1  0.78147600  0.78057700  0.04420300  1
  O  O9  1  0.28148000  0.71941400  0.45579200  1
  O  O10  1  0.21913100  0.21898200  0.54408100  1
  O  O11  1  0.71913300  0.28101800  0.95591100  1
loop_
_geom_bond_atom_site_label_1
_geom_bond_atom_site_label_2
_geom_bond_distance
_geom_bond_site_symmetry_2
La0 O1 2.400647 1_555
La0 O5 2.444469 1_555
La0 O11 2.445147 1_555
La0 O0 2.601948 1_555
La0 O4 2.644624 1_555
La0 O10 2.645498 1_555
La0 O7 2.858340 1_556
La0 O9 2.858904 1_555
La1 O0 2.400653 1_645
La1 O4 2.444535 1_655
La1 O10 2.445203 1_655
La1 O1 2.601882 1_545
La1 O5 2.644600 1_555
La1 O11 2.645454 1_555
La1 O6 2.858238 1_545
La1 O8 2.858921 1_546
La2 O3 2.400711 1_555
La2 O9 2.444328 1_555
La2 O7 2.445258 1_555
La2 O2 2.601900 1_555
La2 O8 2.644607 1_555
La2 O6 2.645266 1_555
La2 O11 2.858432 1_554
La2 O5 2.858718 1_555
La3 O2 2.400617 1_465
La3 O8 2.444611 1_455
La3 O6 2.445187 1_455
La3 O3 2.601882 1_565
La3 O9 2.644543 1_555
La3 O7 2.645484 1_555
La3 O10 2.858120 1_565
La3 O4 2.858928 1_564
Cr0 O5 2.023341 1_565
Cr0 O9 2.023355 1_555
Cr0 O6 2.025697 1_555
Cr0 O10 2.025809 1_565
Cr0 O1 2.029150 1_555
Cr0 O3 2.029425 1_565
Cr1 O8 2.023236 1_556
Cr1 O4 2.023452 1_655
Cr1 O11 2.025579 1_555
Cr1 O7 2.025918 1_656
Cr1 O0 2.029257 1_655
Cr1 O2 2.029335 1_556
Fe0 O7 2.027010 1_556
Fe0 O11 2.027077 1_565
Fe0 O4 2.029946 1_565
Fe0 O8 2.029949 1_556
Fe0 O3 2.035475 1_566
Fe0 O1 2.035477 1_555
Fe1 O6 2.027001 1_455
Fe1 O10 2.027044 1_555
Fe1 O9 2.029920 1_555
Fe1 O5 2.029980 1_455
Fe1 O0 2.035428 1_555
Fe1 O2 2.035493 1_455
