# generated using pymatgen
data_LiMg6Si
_symmetry_space_group_name_H-M   'P 1'
_cell_length_a   4.90920300
_cell_length_b   6.23761400
_cell_length_c   10.84333300
_cell_angle_alpha   90.00000000
_cell_angle_beta   90.00000000
_cell_angle_gamma   90.00000000
_symmetry_Int_Tables_number   1
_chemical_formula_structural   LiMg6Si
_chemical_formula_sum   'Li2 Mg12 Si2'
_cell_volume   332.04143501
_cell_formula_units_Z   2
loop_
 _symmetry_equiv_pos_site_id
 _symmetry_equiv_pos_as_xyz
  1  'x, y, z'
loop_
 _atom_site_type_symbol
 _atom_site_label
 _atom_site_symmetry_multiplicity
 _atom_site_fract_x
 _atom_site_fract_y
 _atom_site_fract_z
 _atom_site_occupancy
  Li  Li0  1  0.50000000  0.50000000  0.66698500  1
  Li  Li1  1  0.50000000  0.00000000  0.16698500  1
  Mg  Mg0  1  0.50000000  0.74882400  0.91618800  1
  Mg  Mg1  1  0.50000000  0.25117600  0.91618800  1
  Mg  Mg2  1  0.00000000  0.24907200  0.58603300  1
  Mg  Mg3  1  0.00000000  0.75092800  0.58603300  1
  Mg  Mg4  1  0.00000000  0.50000000  0.83156300  1
  Mg  Mg5  1  0.00000000  0.00000000  0.83089800  1
  Mg  Mg6  1  0.50000000  0.24882400  0.41618800  1
  Mg  Mg7  1  0.50000000  0.75117600  0.41618800  1
  Mg  Mg8  1  0.00000000  0.74907200  0.08603300  1
  Mg  Mg9  1  0.00000000  0.25092800  0.08603300  1
  Mg  Mg10  1  0.00000000  0.00000000  0.33156300  1
  Mg  Mg11  1  0.00000000  0.50000000  0.33089800  1
  Si  Si0  1  0.50000000  0.00000000  0.66611000  1
  Si  Si1  1  0.50000000  0.50000000  0.16611000  1
loop_
_geom_bond_atom_site_label_1
_geom_bond_atom_site_label_2
_geom_bond_distance
_geom_bond_site_symmetry_2
Li0 Mg4 3.034761 1_655
Li0 Mg4 3.034761 1_555
Li0 Mg3 3.040626 1_655
Li0 Mg3 3.040626 1_555
Li0 Mg2 3.040626 1_555
Li0 Mg2 3.040626 1_655
Li0 Mg0 3.116208 1_555
Li0 Mg1 3.116208 1_555
Li0 Si0 3.118821 1_565
Li0 Si0 3.118821 1_555
Li0 Mg7 3.138506 1_555
Li0 Mg6 3.138506 1_555
Li1 Mg10 3.034761 1_555
Li1 Mg10 3.034761 1_655
Li1 Mg9 3.040626 1_555
Li1 Mg9 3.040626 1_655
Li1 Mg8 3.040626 1_645
Li1 Mg8 3.040626 1_545
Li1 Mg6 3.116208 1_555
Li1 Mg7 3.116208 1_545
Li1 Si1 3.118821 1_545
Li1 Si1 3.118821 1_555
Li1 Mg1 3.138506 1_554
Li1 Mg0 3.138506 1_544
Mg0 Mg4 3.045653 1_555
Mg0 Mg4 3.045653 1_655
Mg0 Mg5 3.055331 1_665
Mg0 Mg5 3.055331 1_565
Mg0 Mg8 3.068693 1_656
Mg0 Mg8 3.068693 1_556
Mg0 Mg1 3.104136 1_555
Mg0 Si1 3.122971 1_556
Mg0 Si0 3.131753 1_565
Mg0 Mg1 3.133478 1_565
Mg1 Mg4 3.045653 1_555
Mg1 Mg4 3.045653 1_655
Mg1 Mg5 3.055331 1_555
Mg1 Mg5 3.055331 1_655
Mg1 Mg9 3.068693 1_556
Mg1 Mg9 3.068693 1_656
Mg1 Si1 3.122971 1_556
Mg1 Si0 3.131753 1_555
Mg2 Si0 3.031952 1_555
Mg2 Si0 3.031952 1_455
Mg2 Mg6 3.068693 1_455
Mg2 Mg6 3.068693 1_555
Mg2 Mg5 3.076289 1_555
Mg2 Mg4 3.088366 1_555
Mg2 Mg3 3.107230 1_545
Mg2 Mg3 3.130384 1_555
Mg3 Si0 3.031952 1_565
Mg3 Si0 3.031952 1_465
Mg3 Mg7 3.068693 1_555
Mg3 Mg7 3.068693 1_455
Mg3 Mg5 3.076289 1_565
Mg3 Mg4 3.088366 1_555
Mg4 Mg5 3.118815 1_555
Mg4 Mg5 3.118815 1_565
Mg4 Mg8 3.166618 1_556
Mg4 Mg9 3.166618 1_556
Mg5 Si0 3.036100 1_555
Mg5 Si0 3.036100 1_455
Mg5 Mg9 3.178588 1_556
Mg5 Mg8 3.178588 1_546
Mg6 Mg7 3.104136 1_545
Mg6 Si0 3.122971 1_555
Mg6 Si1 3.131753 1_555
Mg6 Mg7 3.133478 1_555
Mg7 Si0 3.122971 1_565
Mg7 Si1 3.131753 1_555
Mg8 Si1 3.031952 1_455
Mg8 Si1 3.031952 1_555
Mg8 Mg9 3.107230 1_555
Mg8 Mg9 3.130384 1_565
Mg9 Si1 3.031952 1_455
Mg9 Si1 3.031952 1_555
Mg10 Mg6 3.045653 1_455
Mg10 Mg6 3.045653 1_555
Mg10 Mg7 3.045653 1_545
Mg10 Mg7 3.045653 1_445
Mg10 Mg8 3.088366 1_545
Mg10 Mg9 3.088366 1_555
Mg10 Mg11 3.118815 1_555
Mg10 Mg11 3.118815 1_545
Mg10 Mg2 3.166618 1_555
Mg10 Mg3 3.166618 1_545
Mg11 Si1 3.036100 1_555
Mg11 Si1 3.036100 1_455
Mg11 Mg7 3.055331 1_455
Mg11 Mg7 3.055331 1_555
Mg11 Mg6 3.055331 1_455
Mg11 Mg6 3.055331 1_555
Mg11 Mg9 3.076289 1_555
Mg11 Mg8 3.076289 1_555
Mg11 Mg3 3.178588 1_555
Mg11 Mg2 3.178588 1_555
