# generated using pymatgen
data_Ti2(Co7B2)3
_symmetry_space_group_name_H-M   'P 1'
_cell_length_a   7.39965750
_cell_length_b   7.39965750
_cell_length_c   7.39965750
_cell_angle_alpha   60.00000000
_cell_angle_beta   60.00000000
_cell_angle_gamma   60.00000000
_symmetry_Int_Tables_number   1
_chemical_formula_structural   Ti2(Co7B2)3
_chemical_formula_sum   'Ti2 Co21 B6'
_cell_volume   286.49685468
_cell_formula_units_Z   1
loop_
 _symmetry_equiv_pos_site_id
 _symmetry_equiv_pos_as_xyz
  1  'x, y, z'
loop_
 _atom_site_type_symbol
 _atom_site_label
 _atom_site_symmetry_multiplicity
 _atom_site_fract_x
 _atom_site_fract_y
 _atom_site_fract_z
 _atom_site_occupancy
  Ti  Ti0  1  0.75000000  0.75000000  0.75000000  1
  Ti  Ti1  1  0.25000000  0.25000000  0.25000000  1
  Co  Co0  1  0.00000000  0.00000000  0.00000000  1
  Co  Co1  1  0.61790500  0.61790500  0.14628400  1
  Co  Co2  1  0.61790500  0.14628400  0.61790500  1
  Co  Co3  1  0.14628400  0.61790500  0.61790500  1
  Co  Co4  1  0.61790500  0.61790500  0.61790500  1
  Co  Co5  1  0.38209500  0.38209500  0.85371600  1
  Co  Co6  1  0.38209500  0.85371600  0.38209500  1
  Co  Co7  1  0.85371600  0.38209500  0.38209500  1
  Co  Co8  1  0.38209500  0.38209500  0.38209500  1
  Co  Co9  1  0.00000000  0.00000000  0.33816100  1
  Co  Co10  1  0.66183900  0.00000000  0.33816100  1
  Co  Co11  1  0.00000000  0.66183900  0.33816100  1
  Co  Co12  1  0.66183900  0.33816100  0.00000000  1
  Co  Co13  1  0.00000000  0.33816100  0.00000000  1
  Co  Co14  1  0.00000000  0.33816100  0.66183900  1
  Co  Co15  1  0.33816100  0.66183900  0.00000000  1
  Co  Co16  1  0.33816100  0.00000000  0.66183900  1
  Co  Co17  1  0.33816100  0.00000000  0.00000000  1
  Co  Co18  1  0.00000000  0.00000000  0.66183900  1
  Co  Co19  1  0.00000000  0.66183900  0.00000000  1
  Co  Co20  1  0.66183900  0.00000000  0.00000000  1
  B  B0  1  0.72481900  0.72481900  0.27518100  1
  B  B1  1  0.27518100  0.72481900  0.27518100  1
  B  B2  1  0.72481900  0.27518100  0.27518100  1
  B  B3  1  0.27518100  0.27518100  0.72481900  1
  B  B4  1  0.72481900  0.27518100  0.72481900  1
  B  B5  1  0.27518100  0.72481900  0.72481900  1
loop_
_geom_bond_atom_site_label_1
_geom_bond_atom_site_label_2
_geom_bond_distance
_geom_bond_site_symmetry_2
Co0 Co15 2.502276 1_545
Co0 Co13 2.502276 1_555
Co0 Co14 2.502276 1_554
Co0 Co17 2.502276 1_555
Co0 Co16 2.502276 1_554
Co0 Co9 2.502276 1_555
Co0 Co18 2.502276 1_554
Co0 Co12 2.502276 1_455
Co0 Co11 2.502276 1_545
Co0 Co10 2.502276 1_455
Co0 Co19 2.502276 1_545
Co0 Co20 2.502276 1_455
Co1 Ti0 2.394267 1_554
Co2 Ti0 2.394267 1_545
Co3 Ti0 2.394267 1_455
Co4 Ti0 2.394273 1_555
Co5 Ti1 2.394267 1_556
Co6 Ti1 2.394267 1_565
Co7 Ti1 2.394267 1_655
Co8 Ti1 2.394273 1_555
B0 Co4 2.072797 1_555
B0 Co6 2.072797 1_555
B0 Co7 2.072797 1_555
B0 Co1 2.072803 1_555
B0 Co11 2.088894 1_655
B0 Co10 2.088894 1_565
B0 Co20 2.088894 1_565
B0 Co19 2.088894 1_655
B1 Co8 2.072797 1_555
B1 Co3 2.072797 1_555
B1 Co1 2.072797 1_555
B1 Co6 2.072803 1_555
B1 Co9 2.088894 1_565
B1 Co11 2.088894 1_555
B1 Co17 2.088894 1_565
B1 Co15 2.088894 1_555
B2 Co8 2.072797 1_555
B2 Co2 2.072797 1_555
B2 Co1 2.072797 1_555
B2 Co7 2.072803 1_555
B2 Co9 2.088894 1_655
B2 Co13 2.088894 1_655
B2 Co12 2.088894 1_555
B2 Co10 2.088894 1_555
B3 Co8 2.072797 1_555
B3 Co2 2.072797 1_555
B3 Co3 2.072797 1_555
B3 Co5 2.072803 1_555
B3 Co16 2.088894 1_555
B3 Co13 2.088894 1_556
B3 Co14 2.088894 1_555
B3 Co17 2.088894 1_556
B4 Co4 2.072797 1_555
B4 Co5 2.072797 1_555
B4 Co7 2.072797 1_555
B4 Co2 2.072803 1_555
B4 Co12 2.088894 1_556
B4 Co14 2.088894 1_655
B4 Co18 2.088894 1_655
B4 Co20 2.088894 1_556
B5 Co4 2.072797 1_555
B5 Co6 2.072797 1_555
B5 Co5 2.072797 1_555
B5 Co3 2.072803 1_555
B5 Co19 2.088894 1_556
B5 Co16 2.088894 1_565
B5 Co18 2.088894 1_565
B5 Co15 2.088894 1_556
