# generated using pymatgen
data_Tm4NiB13
_symmetry_space_group_name_H-M   'P 1'
_cell_length_a   7.24575700
_cell_length_b   7.24575700
_cell_length_c   6.78485100
_cell_angle_alpha   90.00000000
_cell_angle_beta   90.00000000
_cell_angle_gamma   90.00000000
_symmetry_Int_Tables_number   1
_chemical_formula_structural   Tm4NiB13
_chemical_formula_sum   'Tm8 Ni2 B26'
_cell_volume   356.21142506
_cell_formula_units_Z   2
loop_
 _symmetry_equiv_pos_site_id
 _symmetry_equiv_pos_as_xyz
  1  'x, y, z'
loop_
 _atom_site_type_symbol
 _atom_site_label
 _atom_site_symmetry_multiplicity
 _atom_site_fract_x
 _atom_site_fract_y
 _atom_site_fract_z
 _atom_site_occupancy
  Tm  Tm0  1  0.68469200  0.18006400  0.50000000  1
  Tm  Tm1  1  0.31530800  0.81993600  0.50000000  1
  Tm  Tm2  1  0.18469200  0.31993600  0.00000000  1
  Tm  Tm3  1  0.81530800  0.68006400  0.00000000  1
  Tm  Tm4  1  0.81993600  0.68469200  0.50000000  1
  Tm  Tm5  1  0.18006400  0.31530800  0.50000000  1
  Tm  Tm6  1  0.68006400  0.18469200  0.00000000  1
  Tm  Tm7  1  0.31993600  0.81530800  0.00000000  1
  Ni  Ni0  1  0.50000000  0.50000000  0.50000000  1
  Ni  Ni1  1  0.00000000  0.00000000  0.00000000  1
  B  B0  1  0.50000000  0.50000000  0.00000000  1
  B  B1  1  0.00000000  0.00000000  0.50000000  1
  B  B2  1  0.90866000  0.40866000  0.25000000  1
  B  B3  1  0.09134000  0.59134000  0.25000000  1
  B  B4  1  0.40866000  0.09134000  0.75000000  1
  B  B5  1  0.59134000  0.90866000  0.75000000  1
  B  B6  1  0.59134000  0.90866000  0.25000000  1
  B  B7  1  0.40866000  0.09134000  0.25000000  1
  B  B8  1  0.90866000  0.40866000  0.75000000  1
  B  B9  1  0.09134000  0.59134000  0.75000000  1
  B  B10  1  0.53973100  0.67099500  0.24342200  1
  B  B11  1  0.46026900  0.32900500  0.24342200  1
  B  B12  1  0.03973100  0.82900500  0.74342200  1
  B  B13  1  0.96026900  0.17099500  0.74342200  1
  B  B14  1  0.32900500  0.53973100  0.24342200  1
  B  B15  1  0.67099500  0.46026900  0.24342200  1
  B  B16  1  0.17099500  0.03973100  0.74342200  1
  B  B17  1  0.82900500  0.96026900  0.74342200  1
  B  B18  1  0.46026900  0.32900500  0.75657800  1
  B  B19  1  0.53973100  0.67099500  0.75657800  1
  B  B20  1  0.96026900  0.17099500  0.25657800  1
  B  B21  1  0.03973100  0.82900500  0.25657800  1
  B  B22  1  0.67099500  0.46026900  0.75657800  1
  B  B23  1  0.32900500  0.53973100  0.75657800  1
  B  B24  1  0.82900500  0.96026900  0.25657800  1
  B  B25  1  0.17099500  0.03973100  0.25657800  1
loop_
_geom_bond_atom_site_label_1
_geom_bond_atom_site_label_2
_geom_bond_distance
_geom_bond_site_symmetry_2
Ni0 Tm4 2.676718 1_555
Ni0 Tm0 2.676718 1_555
Ni0 Tm1 2.676718 1_555
Ni0 Tm5 2.676718 1_555
Ni1 Tm3 2.676718 1_445
Ni1 Tm7 2.676718 1_545
Ni1 Tm6 2.676718 1_455
Ni1 Tm2 2.676718 1_555
B0 B19 2.084632 1_554
B0 B23 2.084632 1_554
B0 B14 2.084632 1_555
B0 B11 2.084632 1_555
B0 B18 2.084632 1_554
B0 B10 2.084632 1_555
B0 B22 2.084632 1_554
B0 B15 2.084632 1_555
B0 Tm7 2.630940 1_555
B0 Tm2 2.630940 1_555
B0 Tm6 2.630940 1_555
B0 Tm3 2.630940 1_555
B1 B12 2.084632 1_545
B1 B13 2.084632 1_455
B1 B24 2.084632 1_445
B1 B25 2.084632 1_555
B1 B16 2.084632 1_555
B1 B20 2.084632 1_455
B1 B17 2.084632 1_445
B1 B21 2.084632 1_545
B1 Tm5 2.630940 1_555
B1 Tm1 2.630940 1_545
B1 Tm4 2.630940 1_445
B1 Tm0 2.630940 1_455
B2 B20 1.762762 1_555
B2 B3 1.871931 1_655
B2 Tm3 2.683634 1_555
B2 Tm5 2.683634 1_655
B2 Tm4 2.700123 1_555
B2 Tm2 2.700123 1_655
B2 Tm0 2.873008 1_555
B2 Tm6 2.873008 1_555
B3 Tm4 2.683634 1_455
B3 Tm2 2.683634 1_555
B3 Tm3 2.700123 1_455
B3 Tm5 2.700123 1_555
B3 Tm7 2.873008 1_555
B3 Tm1 2.873008 1_555
B4 B5 1.871931 1_545
B4 Tm6 2.683634 1_556
B4 Tm1 2.683634 1_545
B4 Tm7 2.700123 1_546
B4 Tm0 2.700123 1_555
B4 Tm2 2.873008 1_556
B4 Tm5 2.873008 1_555
B5 Tm7 2.683634 1_556
B5 Tm0 2.683634 1_565
B5 Tm1 2.700123 1_555
B5 Tm6 2.700123 1_566
B5 Tm3 2.873008 1_556
B5 Tm4 2.873008 1_555
B6 B7 1.871931 1_565
B6 Tm7 2.683634 1_555
B6 Tm0 2.683634 1_565
B6 Tm1 2.700123 1_555
B6 Tm6 2.700123 1_565
B6 Tm3 2.873008 1_555
B6 Tm4 2.873008 1_555
B7 Tm6 2.683634 1_555
B7 Tm1 2.683634 1_545
B7 Tm0 2.700123 1_555
B7 Tm7 2.700123 1_545
B7 Tm2 2.873008 1_555
B7 Tm5 2.873008 1_555
B8 B9 1.871931 1_655
B8 Tm3 2.683634 1_556
B8 Tm5 2.683634 1_655
B8 Tm4 2.700123 1_555
B8 Tm2 2.700123 1_656
B8 Tm0 2.873008 1_555
B8 Tm6 2.873008 1_556
B9 Tm4 2.683634 1_455
B9 Tm2 2.683634 1_556
B9 Tm3 2.700123 1_456
B9 Tm5 2.700123 1_555
B9 Tm7 2.873008 1_556
B9 Tm1 2.873008 1_555
B10 B6 1.762762 1_555
B10 B14 1.798870 1_555
B10 B15 1.798870 1_555
B10 Ni0 2.156039 1_555
B10 Tm7 2.521396 1_555
B10 Tm3 2.592124 1_555
B10 Tm1 2.615232 1_555
B10 Tm4 2.676283 1_555
B11 B7 1.762762 1_555
B11 B14 1.798870 1_555
B11 B15 1.798870 1_555
B11 Ni0 2.156039 1_555
B11 Tm6 2.521396 1_555
B11 Tm2 2.592124 1_555
B11 Tm0 2.615232 1_555
B11 Tm5 2.676283 1_555
B12 B9 1.762762 1_555
B12 B16 1.798870 1_565
B12 B17 1.798870 1_455
B12 Ni1 2.156039 1_566
B12 Tm4 2.521396 1_455
B12 Tm1 2.592124 1_555
B12 Tm3 2.615232 1_456
B12 Tm7 2.676283 1_556
B13 B8 1.762762 1_555
B13 B16 1.798870 1_655
B13 B17 1.798870 1_545
B13 Ni1 2.156039 1_656
B13 Tm5 2.521396 1_655
B13 Tm0 2.592124 1_555
B13 Tm2 2.615232 1_656
B13 Tm6 2.676283 1_556
B14 B3 1.762762 1_555
B14 Ni0 2.156039 1_555
B14 Tm2 2.521396 1_555
B14 Tm7 2.592124 1_555
B14 Tm5 2.615232 1_555
B14 Tm1 2.676283 1_555
B15 B2 1.762762 1_555
B15 Ni0 2.156039 1_555
B15 Tm3 2.521396 1_555
B15 Tm6 2.592124 1_555
B15 Tm4 2.615232 1_555
B15 Tm0 2.676283 1_555
B16 B4 1.762762 1_555
B16 Ni1 2.156039 1_556
B16 Tm1 2.521396 1_545
B16 Tm5 2.592124 1_555
B16 Tm7 2.615232 1_546
B16 Tm2 2.676283 1_556
B17 B5 1.762762 1_555
B17 Ni1 2.156039 1_666
B17 Tm0 2.521396 1_565
B17 Tm4 2.592124 1_555
B17 Tm6 2.615232 1_566
B17 Tm3 2.676283 1_556
B18 B4 1.762762 1_555
B18 B23 1.798870 1_555
B18 B22 1.798870 1_555
B18 Ni0 2.156039 1_555
B18 Tm6 2.521396 1_556
B18 Tm2 2.592124 1_556
B18 Tm0 2.615232 1_555
B18 Tm5 2.676283 1_555
B19 B5 1.762762 1_555
B19 B23 1.798870 1_555
B19 B22 1.798870 1_555
B19 Ni0 2.156039 1_555
B19 Tm7 2.521396 1_556
B19 Tm3 2.592124 1_556
B19 Tm1 2.615232 1_555
B19 Tm4 2.676283 1_555
B20 B24 1.798870 1_545
B20 B25 1.798870 1_655
B20 Ni1 2.156039 1_655
B20 Tm5 2.521396 1_655
B20 Tm0 2.592124 1_555
B20 Tm2 2.615232 1_655
B20 Tm6 2.676283 1_555
B21 B3 1.762762 1_555
B21 B25 1.798870 1_565
B21 B24 1.798870 1_455
B21 Ni1 2.156039 1_565
B21 Tm4 2.521396 1_455
B21 Tm1 2.592124 1_555
B21 Tm3 2.615232 1_455
B21 Tm7 2.676283 1_555
B22 B8 1.762762 1_555
B22 Ni0 2.156039 1_555
B22 Tm3 2.521396 1_556
B22 Tm6 2.592124 1_556
B22 Tm4 2.615232 1_555
B22 Tm0 2.676283 1_555
B23 B9 1.762762 1_555
B23 Ni0 2.156039 1_555
B23 Tm2 2.521396 1_556
B23 Tm7 2.592124 1_556
B23 Tm5 2.615232 1_555
B23 Tm1 2.676283 1_555
B24 B6 1.762762 1_555
B24 Ni1 2.156039 1_665
B24 Tm0 2.521396 1_565
B24 Tm4 2.592124 1_555
B24 Tm6 2.615232 1_565
B24 Tm3 2.676283 1_555
B25 B7 1.762762 1_555
B25 Ni1 2.156039 1_555
B25 Tm1 2.521396 1_545
B25 Tm5 2.592124 1_555
B25 Tm7 2.615232 1_545
B25 Tm2 2.676283 1_555
