# generated using pymatgen
data_Ti2Ge
_symmetry_space_group_name_H-M   'P 1'
_cell_length_a   4.39036802
_cell_length_b   4.39036802
_cell_length_c   4.39036802
_cell_angle_alpha   60.00000000
_cell_angle_beta   60.00000000
_cell_angle_gamma   60.00000000
_symmetry_Int_Tables_number   1
_chemical_formula_structural   Ti2Ge
_chemical_formula_sum   'Ti2 Ge1'
_cell_volume   59.83947594
_cell_formula_units_Z   1
loop_
 _symmetry_equiv_pos_site_id
 _symmetry_equiv_pos_as_xyz
  1  'x, y, z'
loop_
 _atom_site_type_symbol
 _atom_site_label
 _atom_site_symmetry_multiplicity
 _atom_site_fract_x
 _atom_site_fract_y
 _atom_site_fract_z
 _atom_site_occupancy
  Ti  Ti0  1  0.00000000  0.00000000  0.00000000  1
  Ti  Ti1  1  0.25000000  0.25000000  0.25000000  1
  Ge  Ge0  1  0.75000000  0.75000000  0.75000000  1
loop_
_geom_bond_atom_site_label_1
_geom_bond_atom_site_label_2
_geom_bond_distance
_geom_bond_site_symmetry_2
Ti0 Ti1 2.688540 1_455
Ti0 Ti1 2.688540 1_545
Ti0 Ti1 2.688540 1_555
Ti0 Ti1 2.688540 1_554
Ge0 Ti0 2.688540 1_566
Ge0 Ti0 2.688540 1_656
Ge0 Ti0 2.688540 1_666
Ge0 Ti0 2.688540 1_665
Ge0 Ti1 3.104459 1_656
Ge0 Ti1 3.104459 1_655
Ge0 Ti1 3.104459 1_556
Ge0 Ti1 3.104459 1_566
Ge0 Ti1 3.104459 1_565
Ge0 Ti1 3.104459 1_665
