# generated using pymatgen
data_MgTiCo(PO4)3
_symmetry_space_group_name_H-M   'P 1'
_cell_length_a   8.48200108
_cell_length_b   8.48200108
_cell_length_c   8.48200188
_cell_angle_alpha   61.18715145
_cell_angle_beta   61.18715145
_cell_angle_gamma   61.18714817
_symmetry_Int_Tables_number   1
_chemical_formula_structural   MgTiCo(PO4)3
_chemical_formula_sum   'Mg2 Ti2 Co2 P6 O24'
_cell_volume   443.02298285
_cell_formula_units_Z   2
loop_
 _symmetry_equiv_pos_site_id
 _symmetry_equiv_pos_as_xyz
  1  'x, y, z'
loop_
 _atom_site_type_symbol
 _atom_site_label
 _atom_site_symmetry_multiplicity
 _atom_site_fract_x
 _atom_site_fract_y
 _atom_site_fract_z
 _atom_site_occupancy
  Mg  Mg0  1  0.99631600  0.99631600  0.99631600  1
  Mg  Mg1  1  0.49631600  0.49631600  0.49631600  1
  Ti  Ti0  1  0.14409600  0.14409600  0.14409600  1
  Ti  Ti1  1  0.64409600  0.64409600  0.64409600  1
  Co  Co0  1  0.35407700  0.35407700  0.35407700  1
  Co  Co1  1  0.85407700  0.85407700  0.85407700  1
  P  P0  1  0.45647800  0.04628600  0.75013500  1
  P  P1  1  0.75013500  0.45647800  0.04628600  1
  P  P2  1  0.04628600  0.75013500  0.45647800  1
  P  P3  1  0.95647800  0.25013500  0.54628600  1
  P  P4  1  0.25013500  0.54628600  0.95647800  1
  P  P5  1  0.54628600  0.95647800  0.25013500  1
  O  O0  1  0.50414600  0.11232500  0.32006600  1
  O  O1  1  0.11232500  0.32006600  0.50414600  1
  O  O2  1  0.25886700  0.05423200  0.91104100  1
  O  O3  1  0.32006600  0.50414600  0.11232500  1
  O  O4  1  0.61232500  0.00414600  0.82006600  1
  O  O5  1  0.44271600  0.24022700  0.58962400  1
  O  O6  1  0.91104100  0.25886700  0.05423200  1
  O  O7  1  0.58962400  0.44271600  0.24022700  1
  O  O8  1  0.00463800  0.18419000  0.38053500  1
  O  O9  1  0.24022700  0.58962400  0.44271600  1
  O  O10  1  0.94271600  0.08962400  0.74022700  1
  O  O11  1  0.18419000  0.38053500  0.00463800  1
  O  O12  1  0.82006600  0.61232500  0.00414600  1
  O  O13  1  0.05423200  0.91104100  0.25886700  1
  O  O14  1  0.75886700  0.41104100  0.55423200  1
  O  O15  1  0.00414600  0.82006600  0.61232500  1
  O  O16  1  0.41104100  0.55423200  0.75886700  1
  O  O17  1  0.08962400  0.74022700  0.94271600  1
  O  O18  1  0.55423200  0.75886700  0.41104100  1
  O  O19  1  0.38053500  0.00463800  0.18419000  1
  O  O20  1  0.68419000  0.50463800  0.88053500  1
  O  O21  1  0.74022700  0.94271600  0.08962400  1
  O  O22  1  0.88053500  0.68419000  0.50463800  1
  O  O23  1  0.50463800  0.88053500  0.68419000  1
loop_
_geom_bond_atom_site_label_1
_geom_bond_atom_site_label_2
_geom_bond_distance
_geom_bond_site_symmetry_2
Mg0 O17 2.121153 1_655
Mg0 O21 2.121153 1_556
Mg0 O10 2.121153 1_565
Mg0 O6 2.209798 1_566
Mg0 O2 2.209798 1_665
Mg0 O13 2.209798 1_656
Mg1 O9 2.121153 1_555
Mg1 O5 2.121153 1_555
Mg1 O7 2.121153 1_555
Mg1 O14 2.209798 1_555
Mg1 O18 2.209798 1_555
Mg1 O16 2.209798 1_555
Co0 O0 1.899615 1_555
Co0 O1 1.899615 1_555
Co0 O3 1.899615 1_555
Co0 O9 2.092320 1_555
Co0 O7 2.092320 1_555
Co0 O5 2.092320 1_555
Co1 O4 1.899615 1_565
Co1 O12 1.899615 1_556
Co1 O15 1.899615 1_655
Co1 O17 2.092320 1_655
Co1 O10 2.092320 1_565
Co1 O21 2.092320 1_556
O0 P5 1.524135 1_545
O1 P3 1.524135 1_455
O2 P0 1.565703 1_555
O2 Ti0 2.078107 1_556
O3 P4 1.524136 1_554
O4 P0 1.524135 1_555
O5 P0 1.543560 1_555
O6 P1 1.565703 1_555
O6 Ti0 2.078107 1_655
O7 P1 1.543560 1_555
O8 P3 1.562202 1_455
O8 Ti0 1.876123 1_555
O9 P2 1.543560 1_555
O10 P3 1.543560 1_555
O11 P4 1.562202 1_554
O11 Ti0 1.876123 1_555
O12 P1 1.524135 1_555
O13 P2 1.565703 1_555
O13 Ti0 2.078107 1_565
O14 P3 1.565703 1_555
O14 Ti1 2.078107 1_555
O15 P2 1.524136 1_555
O16 P4 1.565703 1_555
O16 Ti1 2.078107 1_555
O17 P4 1.543560 1_555
O18 P5 1.565703 1_555
O18 Ti1 2.078107 1_555
O19 P5 1.562202 1_545
O19 Ti0 1.876123 1_555
O20 P1 1.562202 1_556
O20 Ti1 1.876123 1_555
O21 P5 1.543560 1_555
O22 P2 1.562202 1_655
O22 Ti1 1.876123 1_555
O23 P0 1.562202 1_565
O23 Ti1 1.876123 1_555
