# generated using pymatgen
data_CuH11C6NO5
_symmetry_space_group_name_H-M   'P 1'
_cell_length_a   9.54226370
_cell_length_b   9.54226370
_cell_length_c   15.29845373
_cell_angle_alpha   64.61658216
_cell_angle_beta   64.61658216
_cell_angle_gamma   63.61397271
_symmetry_Int_Tables_number   1
_chemical_formula_structural   CuH11C6NO5
_chemical_formula_sum   'Cu4 H44 C24 N4 O20'
_cell_volume   1077.48571655
_cell_formula_units_Z   4
loop_
 _symmetry_equiv_pos_site_id
 _symmetry_equiv_pos_as_xyz
  1  'x, y, z'
loop_
 _atom_site_type_symbol
 _atom_site_label
 _atom_site_symmetry_multiplicity
 _atom_site_fract_x
 _atom_site_fract_y
 _atom_site_fract_z
 _atom_site_occupancy
  Cu  Cu0  1  0.58050800  0.26062300  0.24740700  1
  Cu  Cu1  1  0.73937700  0.41949200  0.25259300  1
  Cu  Cu2  1  0.41949200  0.73937700  0.75259300  1
  Cu  Cu3  1  0.26062300  0.58050800  0.74740700  1
  H  H0  1  0.60261000  0.89130500  0.34090900  1
  H  H1  1  0.10869500  0.39739000  0.15909100  1
  H  H2  1  0.39739000  0.10869500  0.65909100  1
  H  H3  1  0.89130500  0.60261000  0.84090900  1
  H  H4  1  0.52812600  0.75337000  0.34136900  1
  H  H5  1  0.24663000  0.47187400  0.15863100  1
  H  H6  1  0.47187400  0.24663000  0.65863100  1
  H  H7  1  0.75337000  0.52812600  0.84136900  1
  H  H8  1  0.16111700  0.51229500  0.47153000  1
  H  H9  1  0.48770500  0.83888300  0.02847000  1
  H  H10  1  0.83888300  0.48770500  0.52847000  1
  H  H11  1  0.51229500  0.16111700  0.97153000  1
  H  H12  1  0.25699300  0.64548000  0.46129000  1
  H  H13  1  0.35452000  0.74300700  0.03871000  1
  H  H14  1  0.74300700  0.35452000  0.53871000  1
  H  H15  1  0.64548000  0.25699300  0.96129000  1
  H  H16  1  0.29539400  0.44524200  0.54400100  1
  H  H17  1  0.55475800  0.70460600  0.95599900  1
  H  H18  1  0.70460600  0.55475800  0.45599900  1
  H  H19  1  0.44524200  0.29539400  0.04400100  1
  H  H20  1  0.93699200  0.85644300  0.43586200  1
  H  H21  1  0.14355700  0.06300800  0.06413800  1
  H  H22  1  0.06300800  0.14355700  0.56413800  1
  H  H23  1  0.85644300  0.93699200  0.93586200  1
  H  H24  1  0.73477200  0.88288500  0.51949600  1
  H  H25  1  0.11711500  0.26522800  0.98050400  1
  H  H26  1  0.26522800  0.11711500  0.48050400  1
  H  H27  1  0.88288500  0.73477200  0.01949600  1
  H  H28  1  0.85960000  0.98140300  0.51600000  1
  H  H29  1  0.01859700  0.14040000  0.98400000  1
  H  H30  1  0.14040000  0.01859700  0.48400000  1
  H  H31  1  0.98140300  0.85960000  0.01600000  1
  H  H32  1  0.18235900  0.01739400  0.28716400  1
  H  H33  1  0.98260600  0.81764100  0.21283600  1
  H  H34  1  0.81764100  0.98260600  0.71283600  1
  H  H35  1  0.01739400  0.18235900  0.78716400  1
  H  H36  1  0.33217900  0.82358900  0.27427000  1
  H  H37  1  0.17641100  0.66782100  0.22573000  1
  H  H38  1  0.66782100  0.17641100  0.72573000  1
  H  H39  1  0.82358900  0.33217900  0.77427000  1
  H  H40  1  0.32451600  0.00261600  0.16723300  1
  H  H41  1  0.99738400  0.67548400  0.33276700  1
  H  H42  1  0.67548400  0.99738400  0.83276700  1
  H  H43  1  0.00261600  0.32451600  0.66723300  1
  C  C0  1  0.76582000  0.09054600  0.38767900  1
  C  C1  1  0.90945400  0.23418000  0.11232100  1
  C  C2  1  0.23418000  0.90945400  0.61232100  1
  C  C3  1  0.09054600  0.76582000  0.88767900  1
  C  C4  1  0.41685700  0.45605500  0.38725400  1
  C  C5  1  0.54394500  0.58314300  0.11274600  1
  C  C6  1  0.58314300  0.54394500  0.61274600  1
  C  C7  1  0.45605500  0.41685700  0.88725400  1
  C  C8  1  0.27304000  0.51972700  0.47026900  1
  C  C9  1  0.48027300  0.72696000  0.02973100  1
  C  C10  1  0.72696000  0.48027300  0.52973100  1
  C  C11  1  0.51972700  0.27304000  0.97026900  1
  C  C12  1  0.42434600  0.99704900  0.27071100  1
  C  C13  1  0.00295100  0.57565400  0.22928900  1
  C  C14  1  0.57565400  0.00295100  0.72928900  1
  C  C15  1  0.99704900  0.42434600  0.77071100  1
  C  C16  1  0.82720400  0.94430200  0.47071500  1
  C  C17  1  0.05569800  0.17279600  0.02928500  1
  C  C18  1  0.17279500  0.05569800  0.52928500  1
  C  C19  1  0.94430200  0.82720500  0.97071500  1
  C  C20  1  0.30921300  0.95579300  0.24888500  1
  C  C21  1  0.04420700  0.69078700  0.25111500  1
  C  C22  1  0.69078700  0.04420700  0.75111500  1
  C  C23  1  0.95579300  0.30921300  0.74888500  1
  N  N0  1  0.51907500  0.87122600  0.32682300  1
  N  N1  1  0.12877400  0.48092500  0.17317700  1
  N  N2  1  0.48092500  0.12877400  0.67317700  1
  N  N3  1  0.87122600  0.51907500  0.82682300  1
  O  O0  1  0.79851100  0.21925900  0.36588300  1
  O  O1  1  0.78074100  0.20148900  0.13411700  1
  O  O2  1  0.20148900  0.78074100  0.63411700  1
  O  O3  1  0.21925900  0.79851100  0.86588300  1
  O  O4  1  0.53474800  0.51447400  0.35024100  1
  O  O5  1  0.48552600  0.46525200  0.14975900  1
  O  O6  1  0.46525200  0.48552600  0.64975900  1
  O  O7  1  0.51447400  0.53474800  0.85024100  1
  O  O8  1  0.40911900  0.34945300  0.36208900  1
  O  O9  1  0.65054700  0.59088100  0.13791100  1
  O  O10  1  0.59088100  0.65054700  0.63791100  1
  O  O11  1  0.34945300  0.40911900  0.86208900  1
  O  O12  1  0.68733500  0.07061700  0.34627100  1
  O  O13  1  0.92938300  0.31266500  0.15372900  1
  O  O14  1  0.31266500  0.92938300  0.65372900  1
  O  O15  1  0.07061700  0.68733500  0.84627100  1
  O  O16  1  0.42538500  0.14115800  0.23931200  1
  O  O17  1  0.85884200  0.57461500  0.26068800  1
  O  O18  1  0.57461500  0.85884200  0.76068800  1
  O  O19  1  0.14115800  0.42538500  0.73931200  1
loop_
_geom_bond_atom_site_label_1
_geom_bond_atom_site_label_2
_geom_bond_distance
_geom_bond_site_symmetry_2
Cu0 O12 1.985444 1_555
Cu0 O5 1.988160 1_555
Cu0 O1 2.003496 1_555
Cu0 O8 2.013486 1_555
Cu0 O16 2.298684 1_555
Cu1 O13 1.985444 1_555
Cu1 O4 1.988160 1_555
Cu1 O0 2.003496 1_555
Cu1 O9 2.013486 1_555
Cu1 O17 2.298684 1_555
Cu2 O14 1.985444 1_555
Cu2 O7 1.988160 1_555
Cu2 O3 2.003496 1_555
Cu2 O10 2.013486 1_555
Cu2 O18 2.298684 1_555
Cu3 O15 1.985444 1_555
Cu3 O6 1.988160 1_555
Cu3 O2 2.003496 1_555
Cu3 O11 2.013486 1_555
Cu3 O19 2.298684 1_555
H0 N0 1.018309 1_555
H1 N1 1.018309 1_555
H2 N2 1.018309 1_555
H3 N3 1.018309 1_555
H4 N0 1.018488 1_555
H5 N1 1.018488 1_555
H6 N2 1.018488 1_555
H7 N3 1.018488 1_555
C0 O0 1.271712 1_555
C0 O12 1.278658 1_555
C1 O1 1.271712 1_555
C1 O13 1.278658 1_555
C2 O2 1.271712 1_555
C2 O14 1.278658 1_555
C3 O3 1.271712 1_555
C3 O15 1.278658 1_555
C4 O8 1.270942 1_555
C4 O4 1.279659 1_555
C5 O9 1.270942 1_555
C5 O5 1.279659 1_555
C6 O10 1.270942 1_555
C6 O6 1.279659 1_555
C7 O11 1.270942 1_555
C7 O7 1.279659 1_555
C8 H8 1.092935 1_555
C8 H12 1.093451 1_555
C8 H16 1.098726 1_555
C9 H9 1.092935 1_555
C9 H13 1.093451 1_555
C9 H17 1.098726 1_554
C10 H10 1.092935 1_555
C10 H14 1.093451 1_555
C10 H18 1.098726 1_555
C11 H11 1.092935 1_555
C11 H15 1.093451 1_555
C11 H19 1.098726 1_556
C12 O16 1.250410 1_565
C12 N0 1.346292 1_555
C12 C20 1.511651 1_555
C13 O17 1.250410 1_455
C13 N1 1.346292 1_555
C13 C21 1.511651 1_555
C14 O18 1.250410 1_545
C14 N2 1.346292 1_555
C14 C22 1.511651 1_555
C15 O19 1.250410 1_655
C15 N3 1.346292 1_555
C15 C23 1.511651 1_555
C16 H28 1.091798 1_555
C16 H24 1.094752 1_555
C16 H20 1.099258 1_555
C17 H29 1.091798 1_554
C17 H25 1.094752 1_554
C17 H21 1.099258 1_555
C18 H30 1.091791 1_555
C18 H26 1.094760 1_555
C18 H22 1.099255 1_555
C19 H31 1.091791 1_556
C19 H27 1.094760 1_556
C19 H23 1.099255 1_555
C20 H36 1.094303 1_555
C20 H40 1.097465 1_565
C20 H32 1.099389 1_565
C21 H37 1.094303 1_555
C21 H41 1.097465 1_455
C21 H33 1.099389 1_455
C22 H38 1.094303 1_555
C22 H42 1.097465 1_545
C22 H34 1.099389 1_545
C23 H39 1.094303 1_555
C23 H43 1.097465 1_655
C23 H35 1.099389 1_655
