# generated using pymatgen
data_Lu2SiO5
_symmetry_space_group_name_H-M   'P 1'
_cell_length_a   6.55519777
_cell_length_b   6.54426014
_cell_length_c   8.97361427
_cell_angle_alpha   90.00000000
_cell_angle_beta   100.02208792
_cell_angle_gamma   90.00000000
_symmetry_Int_Tables_number   1
_chemical_formula_structural   Lu2SiO5
_chemical_formula_sum   'Lu8 Si4 O20'
_cell_volume   379.08417533
_cell_formula_units_Z   4
loop_
 _symmetry_equiv_pos_site_id
 _symmetry_equiv_pos_as_xyz
  1  'x, y, z'
loop_
 _atom_site_type_symbol
 _atom_site_label
 _atom_site_symmetry_multiplicity
 _atom_site_fract_x
 _atom_site_fract_y
 _atom_site_fract_z
 _atom_site_occupancy
  Lu  Lu0  1  0.27421558  0.11752920  0.46482854  1
  Lu  Lu1  1  0.22578442  0.61752920  0.53517146  1
  Lu  Lu2  1  0.72578442  0.88247080  0.53517146  1
  Lu  Lu3  1  0.77421558  0.38247080  0.46482854  1
  Lu  Lu4  1  0.99022904  0.64177656  0.85178947  1
  Lu  Lu5  1  0.50977096  0.14177656  0.14821053  1
  Lu  Lu6  1  0.00977096  0.35822344  0.14821053  1
  Lu  Lu7  1  0.49022904  0.85822344  0.85178947  1
  Si  Si0  1  0.98735773  0.09874402  0.79768127  1
  Si  Si1  1  0.51264227  0.59874402  0.20231873  1
  Si  Si2  1  0.01264227  0.90125598  0.20231873  1
  Si  Si3  1  0.48735773  0.40125598  0.79768127  1
  O  O0  1  0.42007860  0.87781192  0.60630650  1
  O  O1  1  0.07992140  0.37781192  0.39369350  1
  O  O2  1  0.57992140  0.12218808  0.39369350  1
  O  O3  1  0.92007860  0.62218808  0.60630650  1
  O  O4  1  0.99438236  0.29991188  0.90141342  1
  O  O5  1  0.50561764  0.79991188  0.09858658  1
  O  O6  1  0.00561764  0.70008812  0.09858658  1
  O  O7  1  0.49438236  0.20008812  0.90141342  1
  O  O8  1  0.96476466  0.14829074  0.61438358  1
  O  O9  1  0.53523534  0.64829174  0.38561642  1
  O  O10  1  0.03523534  0.85170826  0.38561642  1
  O  O11  1  0.46476466  0.35170926  0.61438358  1
  O  O12  1  0.28857576  0.55978519  0.78950011  1
  O  O13  1  0.21142424  0.05978519  0.21049989  1
  O  O14  1  0.71142424  0.44021481  0.21049989  1
  O  O15  1  0.78857576  0.94021481  0.78950011  1
  O  O16  1  0.66965438  0.56550784  0.85087152  1
  O  O17  1  0.83034562  0.06550784  0.14912848  1
  O  O18  1  0.33034562  0.43449216  0.14912848  1
  O  O19  1  0.16965438  0.93449216  0.85087152  1
loop_
_geom_bond_atom_site_label_1
_geom_bond_atom_site_label_2
_geom_bond_distance
_geom_bond_site_symmetry_2
Lu0 O0 2.136489 1_545
Lu0 O1 2.155941 1_555
Lu0 O2 2.206695 1_555
Lu0 O11 2.264182 1_555
Lu0 O13 2.279016 1_555
Lu0 O10 2.366014 1_545
Lu0 O8 2.627550 1_455
Lu1 O1 2.136489 1_555
Lu1 O0 2.155941 1_555
Lu1 O3 2.206695 1_455
Lu1 O10 2.264178 1_555
Lu1 O12 2.279016 1_555
Lu1 O11 2.366009 1_555
Lu1 O9 2.627550 1_555
Lu2 O2 2.136489 1_565
Lu2 O3 2.155941 1_555
Lu2 O0 2.206695 1_555
Lu2 O9 2.264178 1_555
Lu2 O15 2.279016 1_555
Lu2 O8 2.366009 1_565
Lu2 O10 2.627550 1_655
Lu3 O3 2.136489 1_555
Lu3 O2 2.155941 1_555
Lu3 O1 2.206695 1_655
Lu3 O8 2.264182 1_555
Lu3 O14 2.279016 1_555
Lu3 O9 2.366014 1_555
Lu3 O11 2.627550 1_555
Lu4 O16 2.158512 1_555
Lu4 O3 2.174386 1_555
Lu4 O12 2.192186 1_655
Lu4 O6 2.232212 1_656
Lu4 O19 2.248636 1_655
Lu4 O4 2.280376 1_555
Lu4 O15 2.370034 1_555
Lu5 O17 2.158512 1_555
Lu5 O2 2.174386 1_555
Lu5 O13 2.192186 1_555
Lu5 O7 2.232212 1_554
Lu5 O18 2.248636 1_555
Lu5 O5 2.280376 1_545
Lu5 O14 2.370034 1_555
Lu6 O18 2.158512 1_555
Lu6 O1 2.174386 1_555
Lu6 O14 2.192186 1_455
Lu6 O4 2.232212 1_454
Lu6 O17 2.248636 1_455
Lu6 O6 2.280376 1_555
Lu6 O13 2.370034 1_555
Lu7 O19 2.158512 1_555
Lu7 O0 2.174386 1_555
Lu7 O15 2.192186 1_555
Lu7 O5 2.232212 1_556
Lu7 O16 2.248636 1_555
Lu7 O7 2.280376 1_565
Lu7 O12 2.370034 1_555
O4 Si0 1.608368 1_555
O5 Si1 1.608368 1_555
O6 Si2 1.608368 1_555
O7 Si3 1.608368 1_555
O8 Si0 1.657646 1_555
O9 Si1 1.657647 1_555
O10 Si2 1.657647 1_555
O11 Si3 1.657646 1_555
O12 Si3 1.657215 1_555
O13 Si2 1.657215 1_545
O14 Si1 1.657215 1_555
O15 Si0 1.657215 1_565
O16 Si3 1.616393 1_555
O17 Si2 1.616393 1_645
O18 Si1 1.616393 1_555
O19 Si0 1.616393 1_465
