# generated using pymatgen
data_SmSO4
_symmetry_space_group_name_H-M   'P 1'
_cell_length_a   5.88489900
_cell_length_b   7.99719100
_cell_length_c   6.74068400
_cell_angle_alpha   90.00000000
_cell_angle_beta   90.00000000
_cell_angle_gamma   90.00000000
_symmetry_Int_Tables_number   1
_chemical_formula_structural   SmSO4
_chemical_formula_sum   'Sm4 S4 O16'
_cell_volume   317.23452815
_cell_formula_units_Z   4
loop_
 _symmetry_equiv_pos_site_id
 _symmetry_equiv_pos_as_xyz
  1  'x, y, z'
loop_
 _atom_site_type_symbol
 _atom_site_label
 _atom_site_symmetry_multiplicity
 _atom_site_fract_x
 _atom_site_fract_y
 _atom_site_fract_z
 _atom_site_occupancy
  Sm  Sm0  1  0.75000000  0.83038300  0.34751400  1
  Sm  Sm1  1  0.25000000  0.16961800  0.65248600  1
  Sm  Sm2  1  0.25000000  0.66961700  0.84751400  1
  Sm  Sm3  1  0.75000000  0.33038300  0.15248600  1
  S  S0  1  0.75000000  0.94523500  0.82693600  1
  S  S1  1  0.25000000  0.05476500  0.17306400  1
  S  S2  1  0.25000000  0.55476500  0.32693600  1
  S  S3  1  0.75000000  0.44523500  0.67306400  1
  O  O0  1  0.75000000  0.61693200  0.59249700  1
  O  O1  1  0.25000000  0.38306800  0.40750300  1
  O  O2  1  0.25000000  0.88306800  0.09249700  1
  O  O3  1  0.75000000  0.11693200  0.90750300  1
  O  O4  1  0.75000000  0.81841600  0.98834400  1
  O  O5  1  0.25000000  0.18158400  0.01165600  1
  O  O6  1  0.25000000  0.68158400  0.48834400  1
  O  O7  1  0.75000000  0.31841600  0.51165600  1
  O  O8  1  0.96062300  0.92024500  0.69982900  1
  O  O9  1  0.03937700  0.07975500  0.30017100  1
  O  O10  1  0.03937700  0.57975500  0.19982900  1
  O  O11  1  0.46062300  0.07975500  0.30017100  1
  O  O12  1  0.96062300  0.42024500  0.80017100  1
  O  O13  1  0.53937700  0.92024500  0.69982900  1
  O  O14  1  0.53937700  0.42024500  0.80017100  1
  O  O15  1  0.46062300  0.57975500  0.19982900  1
loop_
_geom_bond_atom_site_label_1
_geom_bond_atom_site_label_2
_geom_bond_distance
_geom_bond_site_symmetry_2
O0 S3 1.476590 1_555
O0 Sm0 2.375046 1_555
O1 S2 1.476590 1_555
O1 Sm1 2.375040 1_555
O2 S1 1.476590 1_565
O2 Sm2 2.375046 1_554
O3 S0 1.476590 1_545
O3 Sm3 2.375046 1_556
O4 S0 1.487393 1_555
O4 Sm0 2.422942 1_556
O5 S1 1.487393 1_555
O5 Sm1 2.422942 1_554
O6 S2 1.487393 1_555
O6 Sm2 2.422942 1_555
O7 S3 1.487393 1_555
O7 Sm3 2.422942 1_555
O8 S0 1.519991 1_555
O8 Sm1 2.641791 1_665
O8 Sm0 2.773568 1_555
O8 Sm2 2.812182 1_655
O9 S1 1.519991 1_555
O9 Sm0 2.641785 1_445
O9 Sm1 2.773570 1_555
O9 Sm3 2.812182 1_455
O10 S2 1.519991 1_555
O10 Sm3 2.641785 1_455
O10 Sm2 2.773568 1_554
O10 Sm0 2.812182 1_455
O11 S1 1.519991 1_555
O11 Sm0 2.641785 1_545
O11 Sm1 2.773570 1_555
O11 Sm3 2.812182 1_555
O12 S3 1.519991 1_555
O12 Sm2 2.641785 1_655
O12 Sm3 2.773568 1_556
O12 Sm1 2.812176 1_655
O13 S0 1.519991 1_555
O13 Sm1 2.641791 1_565
O13 Sm0 2.773568 1_555
O13 Sm2 2.812182 1_555
O14 S3 1.519991 1_555
O14 Sm2 2.641785 1_555
O14 Sm3 2.773568 1_556
O14 Sm1 2.812176 1_555
O15 S2 1.519991 1_555
O15 Sm3 2.641785 1_555
O15 Sm2 2.773568 1_554
O15 Sm0 2.812182 1_555
