# generated using pymatgen
data_La3Nb(ClO2)3
_symmetry_space_group_name_H-M   'P 1'
_cell_length_a   9.61720402
_cell_length_b   9.61720402
_cell_length_c   5.41359000
_cell_angle_alpha   90.00000000
_cell_angle_beta   90.00000000
_cell_angle_gamma   120.00000013
_symmetry_Int_Tables_number   1
_chemical_formula_structural   La3Nb(ClO2)3
_chemical_formula_sum   'La6 Nb2 Cl6 O12'
_cell_volume   433.62433908
_cell_formula_units_Z   2
loop_
 _symmetry_equiv_pos_site_id
 _symmetry_equiv_pos_as_xyz
  1  'x, y, z'
loop_
 _atom_site_type_symbol
 _atom_site_label
 _atom_site_symmetry_multiplicity
 _atom_site_fract_x
 _atom_site_fract_y
 _atom_site_fract_z
 _atom_site_occupancy
  La  La0  1  0.40488600  0.08965200  0.25000000  1
  La  La1  1  0.59511400  0.91034800  0.75000000  1
  La  La2  1  0.91034800  0.31523400  0.25000000  1
  La  La3  1  0.08965200  0.68476600  0.75000000  1
  La  La4  1  0.68476600  0.59511400  0.25000000  1
  La  La5  1  0.31523400  0.40488600  0.75000000  1
  Nb  Nb0  1  0.33333300  0.66666700  0.25000000  1
  Nb  Nb1  1  0.66666700  0.33333300  0.75000000  1
  Cl  Cl0  1  0.18973400  0.23995400  0.25000000  1
  Cl  Cl1  1  0.81026600  0.76004600  0.75000000  1
  Cl  Cl2  1  0.76004600  0.94978000  0.25000000  1
  Cl  Cl3  1  0.23995400  0.05022000  0.75000000  1
  Cl  Cl4  1  0.05022000  0.81026600  0.25000000  1
  Cl  Cl5  1  0.94978000  0.18973400  0.75000000  1
  O  O0  1  0.15809100  0.52232700  0.01370100  1
  O  O1  1  0.84190900  0.47767300  0.98629900  1
  O  O2  1  0.47767300  0.63576400  0.01370100  1
  O  O3  1  0.84190900  0.47767300  0.51370100  1
  O  O4  1  0.52232700  0.36423600  0.98629900  1
  O  O5  1  0.15809100  0.52232700  0.48629900  1
  O  O6  1  0.36423600  0.84190900  0.01370100  1
  O  O7  1  0.52232700  0.36423600  0.51370100  1
  O  O8  1  0.63576400  0.15809100  0.98629900  1
  O  O9  1  0.47767300  0.63576400  0.48629900  1
  O  O10  1  0.63576400  0.15809100  0.51370100  1
  O  O11  1  0.36423600  0.84190900  0.48629900  1
loop_
_geom_bond_atom_site_label_1
_geom_bond_atom_site_label_2
_geom_bond_distance
_geom_bond_site_symmetry_2
La0 O10 2.437191 1_555
La0 O8 2.437191 1_554
La0 O6 2.556279 1_545
La0 O11 2.556279 1_545
La0 O7 2.702683 1_555
La0 O4 2.702683 1_554
La1 O11 2.437191 1_555
La1 O6 2.437191 1_556
La1 O8 2.556279 1_565
La1 O10 2.556279 1_565
La1 O9 2.702683 1_555
La1 O2 2.702683 1_556
La2 O3 2.437191 1_555
La2 O1 2.437191 1_554
La2 O0 2.556279 1_655
La2 O5 2.556279 1_655
La2 O10 2.702683 1_555
La2 O8 2.702683 1_554
La3 O0 2.437191 1_556
La3 O5 2.437191 1_555
La3 O3 2.556279 1_455
La3 O1 2.556279 1_455
La3 O6 2.702683 1_556
La3 O11 2.702683 1_555
La4 O7 2.437191 1_555
La4 O4 2.437191 1_554
La4 O2 2.556279 1_555
La4 O9 2.556279 1_555
La4 O3 2.702683 1_555
La4 O1 2.702683 1_554
La5 O9 2.437191 1_555
La5 O2 2.437191 1_556
La5 O4 2.556279 1_555
La5 O7 2.556279 1_555
La5 O5 2.702683 1_555
La5 O0 2.702683 1_556
Nb0 O11 2.015993 1_555
Nb0 O6 2.015993 1_555
Nb0 O5 2.015996 1_555
Nb0 O0 2.015996 1_555
Nb0 O9 2.016000 1_555
Nb0 O2 2.016000 1_555
Nb1 O10 2.015993 1_555
Nb1 O8 2.015993 1_555
Nb1 O1 2.015996 1_555
Nb1 O3 2.015996 1_555
Nb1 O7 2.016000 1_555
Nb1 O4 2.016000 1_555
Cl0 La0 3.059705 1_555
Cl0 La5 3.063497 1_555
Cl0 La5 3.063497 1_554
Cl0 La2 3.112704 1_455
Cl1 La1 3.059705 1_555
Cl1 La4 3.063497 1_555
Cl1 La4 3.063497 1_556
Cl1 La3 3.112704 1_655
Cl2 La2 3.059705 1_565
Cl2 La1 3.063497 1_555
Cl2 La1 3.063497 1_554
Cl2 La4 3.112704 1_555
Cl3 La3 3.059705 1_545
Cl3 La0 3.063497 1_555
Cl3 La0 3.063497 1_556
Cl3 La5 3.112704 1_555
Cl4 La4 3.059705 1_455
Cl4 La3 3.063497 1_555
Cl4 La3 3.063497 1_554
Cl4 La0 3.112704 1_565
Cl5 La5 3.059705 1_655
Cl5 La2 3.063497 1_556
Cl5 La2 3.063497 1_555
Cl5 La1 3.112704 1_545
