# generated using pymatgen
data_KYMg30O32
_symmetry_space_group_name_H-M   'P 1'
_cell_length_a   8.62212600
_cell_length_b   8.62212600
_cell_length_c   8.71781900
_cell_angle_alpha   90.00000000
_cell_angle_beta   90.00000000
_cell_angle_gamma   90.00000000
_symmetry_Int_Tables_number   1
_chemical_formula_structural   KYMg30O32
_chemical_formula_sum   'K1 Y1 Mg30 O32'
_cell_volume   648.09187710
_cell_formula_units_Z   1
loop_
 _symmetry_equiv_pos_site_id
 _symmetry_equiv_pos_as_xyz
  1  'x, y, z'
loop_
 _atom_site_type_symbol
 _atom_site_label
 _atom_site_symmetry_multiplicity
 _atom_site_fract_x
 _atom_site_fract_y
 _atom_site_fract_z
 _atom_site_occupancy
  K  K0  1  0.00000000  0.00000000  0.50000000  1
  Y  Y0  1  0.00000000  0.00000000  0.00000000  1
  Mg  Mg0  1  0.00000000  0.50000000  0.00000000  1
  Mg  Mg1  1  0.00000000  0.50000000  0.50000000  1
  Mg  Mg2  1  0.50000000  0.00000000  0.00000000  1
  Mg  Mg3  1  0.50000000  0.00000000  0.50000000  1
  Mg  Mg4  1  0.50000000  0.50000000  0.00000000  1
  Mg  Mg5  1  0.50000000  0.50000000  0.50000000  1
  Mg  Mg6  1  0.00000000  0.25728700  0.25629500  1
  Mg  Mg7  1  0.00000000  0.25728700  0.74370500  1
  Mg  Mg8  1  0.00000000  0.74271300  0.25629500  1
  Mg  Mg9  1  0.00000000  0.74271300  0.74370500  1
  Mg  Mg10  1  0.50000000  0.25067300  0.25147200  1
  Mg  Mg11  1  0.50000000  0.25067300  0.74852800  1
  Mg  Mg12  1  0.50000000  0.74932700  0.25147200  1
  Mg  Mg13  1  0.50000000  0.74932700  0.74852800  1
  Mg  Mg14  1  0.25728700  0.00000000  0.25629500  1
  Mg  Mg15  1  0.25728700  0.00000000  0.74370500  1
  Mg  Mg16  1  0.25067300  0.50000000  0.25147200  1
  Mg  Mg17  1  0.25067300  0.50000000  0.74852800  1
  Mg  Mg18  1  0.74271300  0.00000000  0.25629500  1
  Mg  Mg19  1  0.74271300  0.00000000  0.74370500  1
  Mg  Mg20  1  0.74932700  0.50000000  0.25147200  1
  Mg  Mg21  1  0.74932700  0.50000000  0.74852800  1
  Mg  Mg22  1  0.25605500  0.25605500  0.00000000  1
  Mg  Mg23  1  0.25208000  0.25208000  0.50000000  1
  Mg  Mg24  1  0.25605500  0.74394500  0.00000000  1
  Mg  Mg25  1  0.25208000  0.74792000  0.50000000  1
  Mg  Mg26  1  0.74394500  0.25605500  0.00000000  1
  Mg  Mg27  1  0.74792000  0.25208000  0.50000000  1
  Mg  Mg28  1  0.74394500  0.74394500  0.00000000  1
  Mg  Mg29  1  0.74792000  0.74792000  0.50000000  1
  O  O0  1  0.26109000  0.00000000  0.00000000  1
  O  O1  1  0.27468100  0.00000000  0.50000000  1
  O  O2  1  0.25243200  0.50000000  0.00000000  1
  O  O3  1  0.25466100  0.50000000  0.50000000  1
  O  O4  1  0.73891000  0.00000000  0.00000000  1
  O  O5  1  0.72531900  0.00000000  0.50000000  1
  O  O6  1  0.74756800  0.50000000  0.00000000  1
  O  O7  1  0.74533900  0.50000000  0.50000000  1
  O  O8  1  0.24962000  0.24962000  0.24947800  1
  O  O9  1  0.24962000  0.24962000  0.75052200  1
  O  O10  1  0.24962000  0.75038000  0.24947800  1
  O  O11  1  0.24962000  0.75038000  0.75052200  1
  O  O12  1  0.75038000  0.24962000  0.24947800  1
  O  O13  1  0.75038000  0.24962000  0.75052200  1
  O  O14  1  0.75038000  0.75038000  0.24947800  1
  O  O15  1  0.75038000  0.75038000  0.75052200  1
  O  O16  1  0.00000000  0.00000000  0.24083700  1
  O  O17  1  0.00000000  0.00000000  0.75916300  1
  O  O18  1  0.00000000  0.50000000  0.24611500  1
  O  O19  1  0.00000000  0.50000000  0.75388500  1
  O  O20  1  0.50000000  0.00000000  0.24611500  1
  O  O21  1  0.50000000  0.00000000  0.75388500  1
  O  O22  1  0.50000000  0.50000000  0.24839300  1
  O  O23  1  0.50000000  0.50000000  0.75160700  1
  O  O24  1  0.00000000  0.26109000  0.00000000  1
  O  O25  1  0.00000000  0.27468100  0.50000000  1
  O  O26  1  0.00000000  0.73891000  0.00000000  1
  O  O27  1  0.00000000  0.72531900  0.50000000  1
  O  O28  1  0.50000000  0.25243200  0.00000000  1
  O  O29  1  0.50000000  0.25466100  0.50000000  1
  O  O30  1  0.50000000  0.74756800  0.00000000  1
  O  O31  1  0.50000000  0.74533900  0.50000000  1
loop_
_geom_bond_atom_site_label_1
_geom_bond_atom_site_label_2
_geom_bond_distance
_geom_bond_site_symmetry_2
K0 O17 2.259336 1_555
K0 O16 2.259336 1_555
K0 O25 2.368334 1_555
K0 O1 2.368334 1_555
K0 O5 2.368334 1_455
K0 O27 2.368334 1_545
Mg0 O24 2.059912 1_555
Mg0 O26 2.059912 1_555
Mg0 O18 2.145586 1_555
Mg0 O19 2.145586 1_554
Mg0 O2 2.176501 1_555
Mg0 O6 2.176501 1_455
Mg1 O27 1.942729 1_555
Mg1 O25 1.942729 1_555
Mg1 O3 2.195719 1_555
Mg1 O7 2.195719 1_455
Mg1 O19 2.213323 1_555
Mg1 O18 2.213323 1_555
Mg2 O0 2.059912 1_555
Mg2 O4 2.059912 1_555
Mg2 O20 2.145586 1_555
Mg2 O21 2.145586 1_554
Mg2 O28 2.176501 1_555
Mg2 O30 2.176501 1_545
Mg3 O5 1.942729 1_555
Mg3 O1 1.942729 1_555
Mg3 O29 2.195719 1_555
Mg3 O31 2.195719 1_545
Mg3 O21 2.213323 1_555
Mg3 O20 2.213323 1_555
Mg4 O30 2.134562 1_555
Mg4 O2 2.134562 1_555
Mg4 O28 2.134562 1_555
Mg4 O6 2.134562 1_555
Mg4 O22 2.165445 1_555
Mg4 O23 2.165445 1_554
Mg5 O7 2.115344 1_555
Mg5 O31 2.115344 1_555
Mg5 O29 2.115344 1_555
Mg5 O3 2.115344 1_555
Mg5 O23 2.193464 1_555
Mg5 O22 2.193464 1_555
Mg6 O18 2.094583 1_555
Mg6 O25 2.129863 1_555
Mg6 O12 2.154090 1_455
Mg6 O8 2.154090 1_555
Mg6 O16 2.222450 1_555
Mg6 O24 2.234574 1_555
Mg7 O19 2.094583 1_555
Mg7 O25 2.129863 1_555
Mg7 O13 2.154090 1_455
Mg7 O9 2.154090 1_555
Mg7 O17 2.222450 1_555
Mg7 O24 2.234574 1_556
Mg8 O18 2.094583 1_555
Mg8 O27 2.129863 1_555
Mg8 O14 2.154090 1_455
Mg8 O10 2.154090 1_555
Mg8 O16 2.222450 1_565
Mg8 O26 2.234574 1_555
Mg9 O19 2.094583 1_555
Mg9 O27 2.129863 1_555
Mg9 O15 2.154090 1_455
Mg9 O11 2.154090 1_555
Mg9 O17 2.222450 1_565
Mg9 O26 2.234574 1_556
Mg10 O22 2.149896 1_555
Mg10 O8 2.158897 1_555
Mg10 O12 2.158897 1_555
Mg10 O20 2.161839 1_555
Mg10 O29 2.166895 1_555
Mg10 O28 2.192340 1_555
Mg11 O23 2.149896 1_555
Mg11 O9 2.158897 1_555
Mg11 O13 2.158897 1_555
Mg11 O21 2.161839 1_555
Mg11 O29 2.166895 1_555
Mg11 O28 2.192340 1_556
Mg12 O22 2.149896 1_555
Mg12 O10 2.158897 1_555
Mg12 O14 2.158897 1_555
Mg12 O20 2.161839 1_565
Mg12 O31 2.166895 1_555
Mg12 O30 2.192340 1_555
Mg13 O23 2.149896 1_555
Mg13 O11 2.158897 1_555
Mg13 O15 2.158897 1_555
Mg13 O21 2.161839 1_565
Mg13 O31 2.166895 1_555
Mg13 O30 2.192340 1_556
Mg14 O20 2.094583 1_555
Mg14 O1 2.129863 1_555
Mg14 O10 2.154090 1_545
Mg14 O8 2.154090 1_555
Mg14 O16 2.222450 1_555
Mg14 O0 2.234574 1_555
Mg15 O21 2.094583 1_555
Mg15 O1 2.129863 1_555
Mg15 O11 2.154090 1_545
Mg15 O9 2.154090 1_555
Mg15 O17 2.222450 1_555
Mg15 O0 2.234574 1_556
Mg16 O22 2.149896 1_555
Mg16 O8 2.158897 1_555
Mg16 O10 2.158897 1_555
Mg16 O18 2.161839 1_555
Mg16 O3 2.166895 1_555
Mg16 O2 2.192340 1_555
Mg17 O23 2.149896 1_555
Mg17 O9 2.158897 1_555
Mg17 O11 2.158897 1_555
Mg17 O19 2.161839 1_555
Mg17 O3 2.166895 1_555
Mg17 O2 2.192340 1_556
Mg18 O20 2.094583 1_555
Mg18 O5 2.129863 1_555
Mg18 O14 2.154090 1_545
Mg18 O12 2.154090 1_555
Mg18 O16 2.222450 1_655
Mg18 O4 2.234574 1_555
Mg19 O21 2.094583 1_555
Mg19 O5 2.129863 1_555
Mg19 O15 2.154090 1_545
Mg19 O13 2.154090 1_555
Mg19 O17 2.222450 1_655
Mg19 O4 2.234574 1_556
Mg20 O22 2.149896 1_555
Mg20 O12 2.158897 1_555
Mg20 O14 2.158897 1_555
Mg20 O18 2.161839 1_655
Mg20 O7 2.166895 1_555
Mg20 O6 2.192340 1_555
Mg21 O23 2.149896 1_555
Mg21 O13 2.158897 1_555
Mg21 O15 2.158897 1_555
Mg21 O19 2.161839 1_655
Mg21 O7 2.166895 1_555
Mg21 O6 2.192340 1_556
Mg22 O2 2.103556 1_555
Mg22 O28 2.103556 1_555
Mg22 O8 2.176319 1_555
Mg22 O9 2.176319 1_554
Mg22 O24 2.208165 1_555
Mg22 O0 2.208165 1_555
Mg23 O3 2.137713 1_555
Mg23 O29 2.137713 1_555
Mg23 O25 2.182184 1_555
Mg23 O1 2.182184 1_555
Mg23 O9 2.184211 1_555
Mg23 O8 2.184211 1_555
Mg24 O2 2.103556 1_555
Mg24 O30 2.103556 1_555
Mg24 O10 2.176319 1_555
Mg24 O11 2.176319 1_554
Mg24 O0 2.208165 1_565
Mg24 O26 2.208165 1_555
Mg25 O31 2.137713 1_555
Mg25 O3 2.137713 1_555
Mg25 O1 2.182184 1_565
Mg25 O27 2.182184 1_555
Mg25 O11 2.184211 1_555
Mg25 O10 2.184211 1_555
Mg26 O28 2.103556 1_555
Mg26 O6 2.103556 1_555
Mg26 O12 2.176319 1_555
Mg26 O13 2.176319 1_554
Mg26 O24 2.208165 1_655
Mg26 O4 2.208165 1_555
Mg27 O7 2.137713 1_555
Mg27 O29 2.137713 1_555
Mg27 O25 2.182184 1_655
Mg27 O5 2.182184 1_555
Mg27 O13 2.184211 1_555
Mg27 O12 2.184211 1_555
Mg28 O6 2.103556 1_555
Mg28 O30 2.103556 1_555
Mg28 O14 2.176319 1_555
Mg28 O15 2.176319 1_554
Mg28 O4 2.208165 1_565
Mg28 O26 2.208165 1_655
Mg29 O7 2.137713 1_555
Mg29 O31 2.137713 1_555
Mg29 O27 2.182184 1_655
Mg29 O5 2.182184 1_565
Mg29 O15 2.184211 1_555
Mg29 O14 2.184211 1_555
O0 Y0 2.251151 1_555
O4 Y0 2.251151 1_655
O16 Y0 2.099573 1_555
O17 Y0 2.099573 1_556
O24 Y0 2.251151 1_555
O26 Y0 2.251151 1_565
