# generated using pymatgen
data_Li4Fe2Ni3Te(PO4)6
_symmetry_space_group_name_H-M   'P 1'
_cell_length_a   8.42461600
_cell_length_b   8.54233842
_cell_length_c   8.55595262
_cell_angle_alpha   63.27582108
_cell_angle_beta   63.91565639
_cell_angle_gamma   63.75143342
_symmetry_Int_Tables_number   1
_chemical_formula_structural   Li4Fe2Ni3Te(PO4)6
_chemical_formula_sum   'Li4 Fe2 Ni3 Te1 P6 O24'
_cell_volume   470.44112531
_cell_formula_units_Z   1
loop_
 _symmetry_equiv_pos_site_id
 _symmetry_equiv_pos_as_xyz
  1  'x, y, z'
loop_
 _atom_site_type_symbol
 _atom_site_label
 _atom_site_symmetry_multiplicity
 _atom_site_fract_x
 _atom_site_fract_y
 _atom_site_fract_z
 _atom_site_occupancy
  Li  Li0  1  0.74042300  0.14688300  0.35730600  1
  Li  Li1  1  0.29696000  0.83982500  0.63671200  1
  Li  Li2  1  0.63384100  0.30103600  0.84411500  1
  Li  Li3  1  0.84610500  0.63204200  0.30610800  1
  Fe  Fe0  1  0.01271100  0.00260200  0.00032100  1
  Fe  Fe1  1  0.48457100  0.50197600  0.49857400  1
  Ni  Ni0  1  0.14104200  0.14733500  0.14525100  1
  Ni  Ni1  1  0.35426600  0.35144200  0.34903200  1
  Ni  Ni2  1  0.64881200  0.65151000  0.65320700  1
  Te  Te0  1  0.84938400  0.84236500  0.84785100  1
  P  P0  1  0.06650600  0.74559000  0.43623800  1
  P  P1  1  0.43390900  0.06356500  0.74909100  1
  P  P2  1  0.25187900  0.53998600  0.95110400  1
  P  P3  1  0.55166400  0.95273900  0.25206000  1
  P  P4  1  0.94062100  0.24776300  0.54031700  1
  P  P5  1  0.74702600  0.43710100  0.06264900  1
  O  O0  1  0.11028800  0.29761100  0.49069900  1
  O  O1  1  0.31318800  0.51328000  0.10406700  1
  O  O2  1  0.06481600  0.90626600  0.25295900  1
  O  O3  1  0.55224000  0.09884000  0.30711300  1
  O  O4  1  0.05832400  0.80991700  0.58635700  1
  O  O5  1  0.25107100  0.58837600  0.42013200  1
  O  O6  1  0.24267600  0.08232800  0.89663100  1
  O  O7  1  0.43858800  0.24197000  0.58278300  1
  O  O8  1  0.17405200  0.39663800  0.98343500  1
  O  O9  1  0.59479700  0.42006100  0.25106900  1
  O  O10  1  0.10218300  0.75039600  0.91468800  1
  O  O11  1  0.39183200  0.00670300  0.18555900  1
  O  O12  1  0.58355300  0.04486700  0.82419200  1
  O  O13  1  0.89425700  0.24325500  0.08327000  1
  O  O14  1  0.40946700  0.56046600  0.75884800  1
  O  O15  1  0.81678900  0.58657200  0.04894400  1
  O  O16  1  0.56242200  0.76049400  0.40968200  1
  O  O17  1  0.75819000  0.90971800  0.09886500  1
  O  O18  1  0.75266600  0.41160400  0.56449600  1
  O  O19  1  0.94445000  0.17633900  0.40420500  1
  O  O20  1  0.48060000  0.89632200  0.69317900  1
  O  O21  1  0.91662800  0.09930400  0.74796800  1
  O  O22  1  0.69056900  0.48495000  0.89584500  1
  O  O23  1  0.89663200  0.68696000  0.48807600  1
loop_
_geom_bond_atom_site_label_1
_geom_bond_atom_site_label_2
_geom_bond_distance
_geom_bond_site_symmetry_2
Li0 O3 2.049144 1_555
Li0 O19 2.063654 1_555
Li0 O9 2.077861 1_555
Li0 O13 2.095287 1_555
Li0 O7 2.473055 1_555
Li1 O14 2.076690 1_555
Li1 O20 2.094584 1_555
Li1 O10 2.230582 1_555
Li1 O16 2.292838 1_555
Li1 O4 2.368053 1_555
Li2 O18 2.077442 1_555
Li2 O22 2.089986 1_555
Li2 O14 2.251624 1_555
Li2 O21 2.289584 1_555
Li2 O12 2.493220 1_555
Li3 O23 2.059511 1_555
Li3 O16 2.096079 1_555
Li3 O18 2.256022 1_555
Li3 O17 2.266538 1_555
Li3 O15 2.526755 1_555
Fe0 O6 2.028913 1_554
Fe0 O2 2.111224 1_545
Fe0 O13 2.144850 1_455
Fe0 O10 2.290008 1_544
Fe0 O17 2.291634 1_445
Fe0 O21 2.311007 1_454
Fe1 O5 2.072706 1_555
Fe1 O7 2.163018 1_555
Fe1 O9 2.205685 1_555
Fe1 O14 2.256334 1_555
Fe1 O18 2.280727 1_555
Fe1 O16 2.284139 1_555
Ni0 O11 2.012246 1_555
Ni0 O8 2.015673 1_554
Ni0 O13 2.084958 1_455
Ni0 O2 2.108277 1_545
Ni0 O6 2.146289 1_554
Ni0 O19 2.148752 1_455
Ni1 O1 2.008099 1_555
Ni1 O0 2.012274 1_555
Ni1 O9 2.065796 1_555
Ni1 O5 2.075622 1_555
Ni1 O7 2.087742 1_555
Ni1 O3 2.133818 1_555
Ni2 O22 2.000207 1_555
Ni2 O23 2.006785 1_555
Ni2 O20 2.023430 1_555
Ni2 O14 2.154027 1_555
Ni2 O16 2.174246 1_555
Ni2 O18 2.184138 1_555
O0 P4 1.498946 1_455
O1 P2 1.501107 1_554
O2 P0 1.552312 1_555
O3 P3 1.521709 1_545
O4 P0 1.574750 1_555
O4 Te0 2.200879 1_455
O5 P0 1.539874 1_555
O6 P1 1.542684 1_555
O7 P1 1.549930 1_555
O8 P2 1.500634 1_555
O9 P5 1.549443 1_555
O10 P2 1.659821 1_555
O10 Te0 2.160313 1_455
O11 P3 1.496047 1_545
O12 P1 1.571525 1_555
O12 Te0 2.169290 1_545
O13 P5 1.557100 1_555
O14 P2 1.589075 1_555
O15 P5 1.567797 1_555
O15 Te0 2.131712 1_554
O16 P3 1.583599 1_555
O17 P3 1.656048 1_555
O17 Te0 2.191599 1_554
O18 P4 1.587770 1_555
O19 P4 1.522537 1_555
O20 P1 1.541665 1_565
O21 P4 1.640165 1_555
O21 Te0 2.203577 1_545
O22 P5 1.526569 1_556
O23 P0 1.540032 1_655
