# generated using pymatgen
data_Zn2CuSbO6
_symmetry_space_group_name_H-M   'P 1'
_cell_length_a   7.52855100
_cell_length_b   5.39111300
_cell_length_c   5.45821300
_cell_angle_alpha   81.08295952
_cell_angle_beta   90.00000000
_cell_angle_gamma   90.00000000
_symmetry_Int_Tables_number   1
_chemical_formula_structural   Zn2CuSbO6
_chemical_formula_sum   'Zn4 Cu2 Sb2 O12'
_cell_volume   218.85645864
_cell_formula_units_Z   2
loop_
 _symmetry_equiv_pos_site_id
 _symmetry_equiv_pos_as_xyz
  1  'x, y, z'
loop_
 _atom_site_type_symbol
 _atom_site_label
 _atom_site_symmetry_multiplicity
 _atom_site_fract_x
 _atom_site_fract_y
 _atom_site_fract_z
 _atom_site_occupancy
  Zn  Zn0  1  0.25000000  0.56258600  0.46866400  1
  Zn  Zn1  1  0.75000000  0.43741400  0.53133600  1
  Zn  Zn2  1  0.25000000  0.01729200  0.93846400  1
  Zn  Zn3  1  0.75000000  0.98270800  0.06153600  1
  Cu  Cu0  1  0.50000000  0.00000000  0.50000000  1
  Cu  Cu1  1  0.00000000  0.00000000  0.50000000  1
  Sb  Sb0  1  0.50000000  0.50000000  0.00000000  1
  Sb  Sb1  1  0.00000000  0.50000000  0.00000000  1
  O  O0  1  0.55759300  0.67630000  0.65434300  1
  O  O1  1  0.92623800  0.20394000  0.85837700  1
  O  O2  1  0.05759300  0.32370000  0.34565700  1
  O  O3  1  0.42623800  0.79606000  0.14162300  1
  O  O4  1  0.57376200  0.20394000  0.85837700  1
  O  O5  1  0.07376200  0.79606000  0.14162300  1
  O  O6  1  0.75000000  0.59470400  0.12491500  1
  O  O7  1  0.94240700  0.67630000  0.65434300  1
  O  O8  1  0.25000000  0.91398000  0.59293700  1
  O  O9  1  0.44240700  0.32370000  0.34565700  1
  O  O10  1  0.25000000  0.40529600  0.87508500  1
  O  O11  1  0.75000000  0.08602000  0.40706300  1
loop_
_geom_bond_atom_site_label_1
_geom_bond_atom_site_label_2
_geom_bond_distance
_geom_bond_site_symmetry_2
Cu0 O0 1.867440 1_545
Cu0 O9 1.867440 1_555
Cu0 O8 1.985421 1_545
Cu0 O11 1.985421 1_555
Cu0 O4 2.451580 1_555
Cu0 O3 2.451580 1_545
Cu1 O7 1.867440 1_445
Cu1 O2 1.867440 1_555
Cu1 O8 1.985421 1_545
Cu1 O11 1.985421 1_455
Cu1 O1 2.451580 1_455
Cu1 O5 2.451580 1_545
O0 Sb0 2.023606 1_556
O0 Zn1 2.115586 1_555
O1 Sb1 1.958551 1_656
O1 Zn3 2.000642 1_546
O1 Zn1 2.415498 1_555
O2 Sb1 2.023606 1_555
O2 Zn0 2.115586 1_555
O3 Sb0 1.958551 1_555
O3 Zn2 2.000642 1_564
O3 Zn0 2.415498 1_555
O4 Sb0 1.958551 1_556
O4 Zn3 2.000642 1_546
O4 Zn1 2.415498 1_555
O5 Sb1 1.958551 1_555
O5 Zn2 2.000642 1_564
O5 Zn0 2.415498 1_555
O6 Zn3 2.066606 1_555
O6 Sb1 2.091865 1_655
O6 Sb0 2.091865 1_555
O6 Zn1 2.248755 1_555
O7 Sb1 2.023606 1_656
O7 Zn1 2.115586 1_555
O8 Zn2 2.047607 1_565
O8 Zn0 2.108846 1_555
O9 Sb0 2.023606 1_555
O9 Zn0 2.115586 1_555
O10 Zn2 2.066606 1_555
O10 Sb1 2.091865 1_556
O10 Sb0 2.091865 1_556
O10 Zn0 2.248755 1_555
O11 Zn3 2.047607 1_545
O11 Zn1 2.108846 1_555
