# generated using pymatgen
data_Mg6Te5O16
_symmetry_space_group_name_H-M   'P 1'
_cell_length_a   10.40391575
_cell_length_b   11.22123061
_cell_length_c   13.08913038
_cell_angle_alpha   90.00000000
_cell_angle_beta   90.00000000
_cell_angle_gamma   90.00000000
_symmetry_Int_Tables_number   1
_chemical_formula_structural   Mg6Te5O16
_chemical_formula_sum   'Mg24 Te20 O64'
_cell_volume   1528.08709526
_cell_formula_units_Z   4
loop_
 _symmetry_equiv_pos_site_id
 _symmetry_equiv_pos_as_xyz
  1  'x, y, z'
loop_
 _atom_site_type_symbol
 _atom_site_label
 _atom_site_symmetry_multiplicity
 _atom_site_fract_x
 _atom_site_fract_y
 _atom_site_fract_z
 _atom_site_occupancy
  Mg  Mg0  1  0.93069418  0.75094843  0.99324441  1
  Mg  Mg1  1  0.06930582  0.24905157  0.00675559  1
  Mg  Mg2  1  0.06930582  0.74905157  0.49324441  1
  Mg  Mg3  1  0.43069418  0.24905157  0.00675559  1
  Mg  Mg4  1  0.93069418  0.25094843  0.50675559  1
  Mg  Mg5  1  0.56930582  0.75094843  0.99324441  1
  Mg  Mg6  1  0.56930582  0.25094843  0.50675559  1
  Mg  Mg7  1  0.43069418  0.74905157  0.49324441  1
  Mg  Mg8  1  0.90881844  0.75018422  0.73017783  1
  Mg  Mg9  1  0.09118156  0.24981578  0.26982217  1
  Mg  Mg10  1  0.09118156  0.74981578  0.23017783  1
  Mg  Mg11  1  0.40881844  0.24981578  0.26982217  1
  Mg  Mg12  1  0.90881844  0.25018422  0.76982217  1
  Mg  Mg13  1  0.59118156  0.75018422  0.73017783  1
  Mg  Mg14  1  0.59118156  0.25018422  0.76982217  1
  Mg  Mg15  1  0.40881844  0.74981578  0.23017783  1
  Mg  Mg16  1  0.42546114  0.98432613  0.89366401  1
  Mg  Mg17  1  0.57453886  0.01567387  0.10633599  1
  Mg  Mg18  1  0.57453886  0.51567387  0.39366401  1
  Mg  Mg19  1  0.92546114  0.01567387  0.10633599  1
  Mg  Mg20  1  0.42546114  0.48432613  0.60633599  1
  Mg  Mg21  1  0.07453886  0.98432613  0.89366401  1
  Mg  Mg22  1  0.07453886  0.48432613  0.60633599  1
  Mg  Mg23  1  0.92546114  0.51567387  0.39366401  1
  Te  Te0  1  0.75000000  0.80214013  0.18312602  1
  Te  Te1  1  0.25000000  0.19785987  0.81687398  1
  Te  Te2  1  0.25000000  0.69785987  0.68312602  1
  Te  Te3  1  0.75000000  0.30214013  0.31687398  1
  Te  Te4  1  0.75000000  0.96542440  0.86346201  1
  Te  Te5  1  0.25000000  0.03457560  0.13653799  1
  Te  Te6  1  0.25000000  0.53457560  0.36346201  1
  Te  Te7  1  0.75000000  0.46542440  0.63653799  1
  Te  Te8  1  0.75000000  0.77999327  0.49338212  1
  Te  Te9  1  0.25000000  0.22000673  0.50661788  1
  Te  Te10  1  0.25000000  0.72000673  0.99338212  1
  Te  Te11  1  0.75000000  0.27999327  0.00661788  1
  Te  Te12  1  0.96139935  0.99143191  0.36310261  1
  Te  Te13  1  0.03860065  0.00856809  0.63689739  1
  Te  Te14  1  0.03860065  0.50856809  0.86310261  1
  Te  Te15  1  0.46139935  0.00856809  0.63689739  1
  Te  Te16  1  0.96139935  0.49143191  0.13689739  1
  Te  Te17  1  0.53860065  0.99143191  0.36310261  1
  Te  Te18  1  0.53860065  0.49143191  0.13689739  1
  Te  Te19  1  0.46139935  0.50856809  0.86310261  1
  O  O0  1  0.92059897  0.63696061  0.85637057  1
  O  O1  1  0.07940103  0.36303939  0.14362943  1
  O  O2  1  0.07940103  0.86303939  0.35637057  1
  O  O3  1  0.42059897  0.36303939  0.14362943  1
  O  O4  1  0.92059897  0.13696061  0.64362943  1
  O  O5  1  0.57940103  0.63696061  0.85637057  1
  O  O6  1  0.57940103  0.13696061  0.64362943  1
  O  O7  1  0.42059897  0.86303939  0.35637057  1
  O  O8  1  0.44375592  0.67401848  0.64972492  1
  O  O9  1  0.55624408  0.32598152  0.35027508  1
  O  O10  1  0.55624408  0.82598152  0.14972492  1
  O  O11  1  0.94375592  0.32598152  0.35027508  1
  O  O12  1  0.44375592  0.17401848  0.85027508  1
  O  O13  1  0.05624408  0.67401848  0.64972492  1
  O  O14  1  0.05624408  0.17401848  0.85027508  1
  O  O15  1  0.94375592  0.82598152  0.14972492  1
  O  O16  1  0.75000000  0.21767003  0.44569056  1
  O  O17  1  0.25000000  0.78232997  0.55430944  1
  O  O18  1  0.25000000  0.28232997  0.94569056  1
  O  O19  1  0.75000000  0.71767003  0.05430944  1
  O  O20  1  0.75000000  0.72290384  0.63137598  1
  O  O21  1  0.25000000  0.27709616  0.36862402  1
  O  O22  1  0.25000000  0.77709616  0.13137598  1
  O  O23  1  0.75000000  0.22290384  0.86862402  1
  O  O24  1  0.88916792  0.93988748  0.95823855  1
  O  O25  1  0.11083208  0.06011252  0.04176145  1
  O  O26  1  0.11083208  0.56011252  0.45823855  1
  O  O27  1  0.38916792  0.06011252  0.04176145  1
  O  O28  1  0.88916792  0.43988748  0.54176145  1
  O  O29  1  0.61083208  0.93988748  0.95823855  1
  O  O30  1  0.61083208  0.43988748  0.54176145  1
  O  O31  1  0.38916792  0.56011252  0.45823855  1
  O  O32  1  0.75000000  0.80705069  0.81709517  1
  O  O33  1  0.25000000  0.19294931  0.18290483  1
  O  O34  1  0.25000000  0.69294931  0.31709517  1
  O  O35  1  0.75000000  0.30705069  0.68290483  1
  O  O36  1  0.95687482  0.89625313  0.54889282  1
  O  O37  1  0.04312518  0.10374687  0.45110718  1
  O  O38  1  0.04312518  0.60374687  0.04889282  1
  O  O39  1  0.45687482  0.10374687  0.45110718  1
  O  O40  1  0.95687482  0.39625313  0.95110718  1
  O  O41  1  0.54312518  0.89625313  0.54889282  1
  O  O42  1  0.54312518  0.39625313  0.95110718  1
  O  O43  1  0.45687482  0.60374687  0.04889282  1
  O  O44  1  0.98428142  0.92328242  0.75697572  1
  O  O45  1  0.01571858  0.07671758  0.24302428  1
  O  O46  1  0.01571858  0.57671758  0.25697572  1
  O  O47  1  0.48428142  0.07671758  0.24302428  1
  O  O48  1  0.98428142  0.42328242  0.74302428  1
  O  O49  1  0.51571858  0.92328242  0.75697572  1
  O  O50  1  0.51571858  0.42328242  0.74302428  1
  O  O51  1  0.48428142  0.57671758  0.25697572  1
  O  O52  1  0.38930412  0.81373945  0.94474071  1
  O  O53  1  0.61069588  0.18626055  0.05525929  1
  O  O54  1  0.61069588  0.68626055  0.44474071  1
  O  O55  1  0.88930412  0.18626055  0.05525929  1
  O  O56  1  0.38930412  0.31373945  0.55525929  1
  O  O57  1  0.11069588  0.81373945  0.94474071  1
  O  O58  1  0.11069588  0.31373945  0.55525929  1
  O  O59  1  0.88930412  0.68626055  0.44474071  1
  O  O60  1  0.75000000  0.97326362  0.16656312  1
  O  O61  1  0.25000000  0.02673638  0.83343688  1
  O  O62  1  0.25000000  0.52673638  0.66656312  1
  O  O63  1  0.75000000  0.47326362  0.33343688  1
loop_
_geom_bond_atom_site_label_1
_geom_bond_atom_site_label_2
_geom_bond_distance
_geom_bond_site_symmetry_2
Mg0 O19 2.076640 1_556
Mg0 O57 2.099191 1_655
Mg0 O38 2.151090 1_656
Mg0 O0 2.203808 1_555
Mg0 O24 2.211684 1_555
Mg0 O15 2.218663 1_556
Mg1 O18 2.076640 1_554
Mg1 O55 2.099191 1_455
Mg1 O40 2.151090 1_454
Mg1 O1 2.203808 1_555
Mg1 O25 2.211684 1_555
Mg1 O14 2.218663 1_554
Mg2 O17 2.076640 1_555
Mg2 O59 2.099191 1_455
Mg2 O36 2.151090 1_455
Mg2 O2 2.203808 1_555
Mg2 O26 2.211684 1_555
Mg2 O13 2.218663 1_555
Mg3 O18 2.076640 1_554
Mg3 O53 2.099191 1_555
Mg3 O42 2.151090 1_554
Mg3 O3 2.203808 1_555
Mg3 O27 2.211684 1_555
Mg3 O12 2.218663 1_554
Mg4 O16 2.076640 1_555
Mg4 O58 2.099191 1_655
Mg4 O37 2.151090 1_655
Mg4 O4 2.203808 1_555
Mg4 O28 2.211684 1_555
Mg4 O11 2.218663 1_555
Mg5 O19 2.076640 1_556
Mg5 O52 2.099191 1_555
Mg5 O43 2.151090 1_556
Mg5 O5 2.203808 1_555
Mg5 O29 2.211684 1_555
Mg5 O10 2.218663 1_556
Mg6 O16 2.076640 1_555
Mg6 O56 2.099191 1_555
Mg6 O39 2.151090 1_555
Mg6 O6 2.203808 1_555
Mg6 O30 2.211684 1_555
Mg6 O9 2.218663 1_555
Mg7 O17 2.076640 1_555
Mg7 O54 2.099191 1_555
Mg7 O41 2.151090 1_555
Mg7 O7 2.203808 1_555
Mg7 O31 2.211684 1_555
Mg7 O8 2.218663 1_555
Mg8 O13 2.047426 1_655
Mg8 O0 2.087463 1_555
Mg8 O32 2.105158 1_555
Mg8 O20 2.120462 1_555
Mg8 O44 2.124206 1_555
Mg9 O11 2.047426 1_455
Mg9 O1 2.087463 1_555
Mg9 O33 2.105158 1_555
Mg9 O21 2.120462 1_555
Mg9 O45 2.124206 1_555
Mg10 O15 2.047426 1_455
Mg10 O2 2.087463 1_555
Mg10 O34 2.105158 1_555
Mg10 O22 2.120462 1_555
Mg10 O46 2.124206 1_555
Mg11 O9 2.047426 1_555
Mg11 O3 2.087463 1_555
Mg11 O33 2.105158 1_555
Mg11 O21 2.120462 1_555
Mg11 O47 2.124206 1_555
Mg12 O14 2.047426 1_655
Mg12 O4 2.087463 1_555
Mg12 O35 2.105158 1_555
Mg12 O23 2.120462 1_555
Mg12 O48 2.124206 1_555
Mg13 O8 2.047426 1_555
Mg13 O5 2.087463 1_555
Mg13 O32 2.105158 1_555
Mg13 O20 2.120462 1_555
Mg13 O49 2.124206 1_555
Mg14 O12 2.047426 1_555
Mg14 O6 2.087463 1_555
Mg14 O35 2.105158 1_555
Mg14 O23 2.120462 1_555
Mg14 O50 2.124206 1_555
Mg15 O10 2.047426 1_555
Mg15 O7 2.087463 1_555
Mg15 O34 2.105158 1_555
Mg15 O22 2.120462 1_555
Mg15 O51 2.124206 1_555
Mg16 O61 2.044582 1_565
Mg16 O52 2.062183 1_555
Mg16 O49 2.133535 1_555
Mg16 O27 2.150218 1_566
Mg16 O29 2.163908 1_555
Mg16 O12 2.211250 1_565
Mg17 O60 2.044582 1_545
Mg17 O53 2.062183 1_555
Mg17 O47 2.133535 1_555
Mg17 O29 2.150218 1_544
Mg17 O27 2.163908 1_555
Mg17 O10 2.211250 1_545
Mg18 O63 2.044582 1_555
Mg18 O54 2.062183 1_555
Mg18 O51 2.133535 1_555
Mg18 O30 2.150218 1_555
Mg18 O31 2.163908 1_555
Mg18 O9 2.211250 1_555
Mg19 O60 2.044582 1_545
Mg19 O55 2.062183 1_555
Mg19 O45 2.133535 1_655
Mg19 O24 2.150218 1_544
Mg19 O25 2.163908 1_655
Mg19 O15 2.211250 1_545
Mg20 O62 2.044582 1_555
Mg20 O56 2.062183 1_555
Mg20 O50 2.133535 1_555
Mg20 O31 2.150218 1_555
Mg20 O30 2.163908 1_555
Mg20 O8 2.211250 1_555
Mg21 O61 2.044582 1_565
Mg21 O57 2.062183 1_555
Mg21 O44 2.133535 1_455
Mg21 O25 2.150218 1_566
Mg21 O24 2.163908 1_455
Mg21 O14 2.211250 1_565
Mg22 O62 2.044582 1_555
Mg22 O58 2.062183 1_555
Mg22 O48 2.133535 1_455
Mg22 O26 2.150218 1_555
Mg22 O28 2.163908 1_455
Mg22 O13 2.211250 1_555
Mg23 O63 2.044582 1_555
Mg23 O59 2.062183 1_555
Mg23 O46 2.133535 1_655
Mg23 O28 2.150218 1_555
Mg23 O26 2.163908 1_655
Mg23 O11 2.211250 1_555
O0 Te14 1.894899 1_655
O1 Te16 1.894899 1_455
O2 Te12 1.894899 1_455
O3 Te18 1.894899 1_555
O4 Te13 1.894899 1_655
O5 Te19 1.894899 1_555
O6 Te15 1.894899 1_555
O7 Te17 1.894899 1_555
O8 Te2 2.079961 1_555
O9 Te3 2.079961 1_555
O10 Te0 2.079961 1_555
O11 Te3 2.079961 1_555
O12 Te1 2.079961 1_555
O13 Te2 2.079961 1_555
O14 Te1 2.079961 1_555
O15 Te0 2.079961 1_555
O16 Te3 1.934259 1_555
O17 Te2 1.934259 1_555
O18 Te1 1.934259 1_555
O19 Te0 1.934259 1_555
O20 Te8 1.916459 1_555
O21 Te9 1.916459 1_555
O22 Te10 1.916459 1_554
O23 Te11 1.916459 1_556
O24 Te4 1.928069 1_555
O25 Te5 1.928069 1_555
O26 Te6 1.928069 1_555
O27 Te5 1.928069 1_555
O28 Te7 1.928069 1_555
O29 Te4 1.928069 1_555
O30 Te7 1.928069 1_555
O31 Te6 1.928069 1_555
O32 Te4 1.877920 1_555
O33 Te5 1.877920 1_555
O34 Te6 1.877920 1_555
O35 Te7 1.877920 1_555
O36 Te13 1.907413 1_665
O37 Te12 1.907413 1_445
O38 Te16 1.907413 1_455
O39 Te17 1.907413 1_545
O40 Te14 1.907413 1_655
O41 Te15 1.907413 1_565
O42 Te19 1.907413 1_555
O43 Te18 1.907413 1_555
O44 Te13 1.924981 1_665
O45 Te12 1.924981 1_445
O46 Te16 1.924981 1_455
O47 Te17 1.924981 1_545
O48 Te14 1.924981 1_655
O49 Te15 1.924981 1_565
O50 Te19 1.924981 1_555
O51 Te18 1.924981 1_555
O52 Te10 1.900559 1_555
O53 Te11 1.900559 1_555
O54 Te8 1.900559 1_555
O55 Te11 1.900559 1_555
O56 Te9 1.900559 1_555
O57 Te10 1.900559 1_555
O58 Te9 1.900559 1_555
O59 Te8 1.900559 1_555
O60 Te0 1.932415 1_555
O61 Te1 1.932415 1_555
O62 Te2 1.932415 1_555
O63 Te3 1.932415 1_555
