# generated using pymatgen
data_LiTb6B3O14
_symmetry_space_group_name_H-M   'P 1'
_cell_length_a   15.65997900
_cell_length_b   8.45775000
_cell_length_c   12.08425506
_cell_angle_alpha   47.60979097
_cell_angle_beta   90.00000000
_cell_angle_gamma   90.00000000
_symmetry_Int_Tables_number   1
_chemical_formula_structural   LiTb6B3O14
_chemical_formula_sum   'Li4 Tb24 B12 O56'
_cell_volume   1182.11000605
_cell_formula_units_Z   4
loop_
 _symmetry_equiv_pos_site_id
 _symmetry_equiv_pos_as_xyz
  1  'x, y, z'
loop_
 _atom_site_type_symbol
 _atom_site_label
 _atom_site_symmetry_multiplicity
 _atom_site_fract_x
 _atom_site_fract_y
 _atom_site_fract_z
 _atom_site_occupancy
  Li  Li0  1  0.60384300  0.88015800  0.43961600  1
  Li  Li1  1  0.39615700  0.11984200  0.56038400  1
  Li  Li2  1  0.10384300  0.11984200  0.06038400  1
  Li  Li3  1  0.89615700  0.88015800  0.93961600  1
  Tb  Tb0  1  0.82204100  0.55103300  0.30676900  1
  Tb  Tb1  1  0.17795900  0.44896700  0.69323100  1
  Tb  Tb2  1  0.32204100  0.44896700  0.19323100  1
  Tb  Tb3  1  0.67795900  0.55103300  0.80676900  1
  Tb  Tb4  1  0.32551800  0.98512100  0.05490100  1
  Tb  Tb5  1  0.67448200  0.01487900  0.94509900  1
  Tb  Tb6  1  0.82551800  0.01487900  0.44509900  1
  Tb  Tb7  1  0.17448200  0.98512100  0.55490100  1
  Tb  Tb8  1  0.35617600  0.84824100  0.42428800  1
  Tb  Tb9  1  0.64382400  0.15175900  0.57571200  1
  Tb  Tb10  1  0.85617600  0.15175900  0.07571200  1
  Tb  Tb11  1  0.14382400  0.84824100  0.92428800  1
  Tb  Tb12  1  0.51349200  0.66549600  0.28271600  1
  Tb  Tb13  1  0.48650800  0.33450400  0.71728400  1
  Tb  Tb14  1  0.01349200  0.33450400  0.21728400  1
  Tb  Tb15  1  0.98650800  0.66549600  0.78271600  1
  Tb  Tb16  1  0.50408500  0.23834000  0.06151000  1
  Tb  Tb17  1  0.49591500  0.76166000  0.93849000  1
  Tb  Tb18  1  0.00408500  0.76166000  0.43849000  1
  Tb  Tb19  1  0.99591500  0.23834000  0.56151000  1
  Tb  Tb20  1  0.66589400  0.41207300  0.16604000  1
  Tb  Tb21  1  0.33410600  0.58792700  0.83396000  1
  Tb  Tb22  1  0.16589400  0.58792700  0.33396000  1
  Tb  Tb23  1  0.83410600  0.41207300  0.66604000  1
  B  B0  1  0.82694300  0.54424200  0.02707300  1
  B  B1  1  0.17305700  0.45575800  0.97292700  1
  B  B2  1  0.32694300  0.45575800  0.47292700  1
  B  B3  1  0.67305700  0.54424200  0.52707300  1
  B  B4  1  0.99931300  0.79136100  0.14477200  1
  B  B5  1  0.00068700  0.20863900  0.85522800  1
  B  B6  1  0.49931300  0.20863900  0.35522800  1
  B  B7  1  0.50068700  0.79136100  0.64477200  1
  B  B8  1  0.69313000  0.95822200  0.22146900  1
  B  B9  1  0.30687000  0.04177800  0.77853100  1
  B  B10  1  0.19313000  0.04177800  0.27853100  1
  B  B11  1  0.80687000  0.95822200  0.72146900  1
  O  O0  1  0.75117200  0.88296800  0.17774100  1
  O  O1  1  0.24882800  0.11703200  0.82225900  1
  O  O2  1  0.25117200  0.11703200  0.32225900  1
  O  O3  1  0.74882800  0.88296800  0.67774100  1
  O  O4  1  0.46685500  0.69685400  0.59402500  1
  O  O5  1  0.53314500  0.30314600  0.40597500  1
  O  O6  1  0.96685500  0.30314600  0.90597500  1
  O  O7  1  0.03314500  0.69685400  0.09402500  1
  O  O8  1  0.42078500  0.93465000  0.22076600  1
  O  O9  1  0.57921500  0.06535000  0.77923400  1
  O  O10  1  0.92078500  0.06535000  0.27923400  1
  O  O11  1  0.07921500  0.93465000  0.72076600  1
  O  O12  1  0.91471900  0.85319900  0.11795800  1
  O  O13  1  0.08528100  0.14680100  0.88204200  1
  O  O14  1  0.41471900  0.14680100  0.38204200  1
  O  O15  1  0.58528100  0.85319900  0.61795800  1
  O  O16  1  0.91210400  0.52480500  0.00936300  1
  O  O17  1  0.08789600  0.47519500  0.99063700  1
  O  O18  1  0.41210400  0.47519500  0.49063700  1
  O  O19  1  0.58789600  0.52480500  0.50936300  1
  O  O20  1  0.79565200  0.64136600  0.07559800  1
  O  O21  1  0.20434800  0.35863400  0.92440200  1
  O  O22  1  0.29565200  0.35863400  0.42440200  1
  O  O23  1  0.70434800  0.64136600  0.57559800  1
  O  O24  1  0.44880500  0.82271900  0.72067200  1
  O  O25  1  0.55119500  0.17728100  0.27932800  1
  O  O26  1  0.94880500  0.17728100  0.77932800  1
  O  O27  1  0.05119500  0.82271900  0.22067200  1
  O  O28  1  0.59816600  0.70194000  0.10558200  1
  O  O29  1  0.40183400  0.29806000  0.89441800  1
  O  O30  1  0.09816600  0.29806000  0.39441800  1
  O  O31  1  0.90183400  0.70194000  0.60558200  1
  O  O32  1  0.91057300  0.52738200  0.46389300  1
  O  O33  1  0.08942700  0.47261800  0.53610700  1
  O  O34  1  0.41057300  0.47261800  0.03610700  1
  O  O35  1  0.58942700  0.52738200  0.96389300  1
  O  O36  1  0.41442700  0.71397600  0.12381500  1
  O  O37  1  0.58557300  0.28602400  0.87618500  1
  O  O38  1  0.91442700  0.28602400  0.37618500  1
  O  O39  1  0.08557300  0.71397600  0.62381500  1
  O  O40  1  0.23191900  0.72376600  0.12179400  1
  O  O41  1  0.76808100  0.27623400  0.87820600  1
  O  O42  1  0.73191900  0.27623400  0.37820600  1
  O  O43  1  0.26808100  0.72376600  0.62179400  1
  O  O44  1  0.22509500  0.94645600  0.22850000  1
  O  O45  1  0.77490500  0.05354400  0.77150000  1
  O  O46  1  0.72509500  0.05354400  0.27150000  1
  O  O47  1  0.27490500  0.94645600  0.72850000  1
  O  O48  1  0.60696700  0.94788000  0.20085400  1
  O  O49  1  0.39303300  0.05212000  0.79914600  1
  O  O50  1  0.10696700  0.05212000  0.29914600  1
  O  O51  1  0.89303300  0.94788000  0.70085400  1
  O  O52  1  0.76779700  0.44750100  0.00345400  1
  O  O53  1  0.23220300  0.55249900  0.99654600  1
  O  O54  1  0.26779700  0.55249900  0.49654600  1
  O  O55  1  0.73220300  0.44750100  0.50345400  1
loop_
_geom_bond_atom_site_label_1
_geom_bond_atom_site_label_2
_geom_bond_distance
_geom_bond_site_symmetry_2
Li0 O15 2.029408 1_555
Li0 O25 2.045360 1_565
Li0 O23 2.186669 1_555
Li0 O46 2.422019 1_565
Li0 O19 2.527869 1_555
Li0 O48 2.535133 1_555
Li0 O4 2.566454 1_555
Li1 O14 2.029408 1_555
Li1 O24 2.045360 1_545
Li1 O22 2.186669 1_555
Li1 O47 2.422019 1_545
Li1 O18 2.527869 1_555
Li1 O49 2.535133 1_555
Li1 O5 2.566454 1_555
Li2 O13 2.029408 1_554
Li2 O27 2.045360 1_545
Li2 O21 2.186669 1_554
Li2 O44 2.422019 1_545
Li2 O17 2.527869 1_554
Li2 O50 2.535133 1_555
Li2 O6 2.566454 1_454
Li3 O12 2.029408 1_556
Li3 O26 2.045360 1_565
Li3 O20 2.186669 1_556
Li3 O45 2.422019 1_565
Li3 O16 2.527869 1_556
Li3 O51 2.535133 1_555
Li3 O7 2.566454 1_656
B0 O16 1.377971 1_555
B0 O20 1.381389 1_555
B0 O52 1.386979 1_555
B1 O17 1.377971 1_555
B1 O21 1.381389 1_555
B1 O53 1.386979 1_555
B2 O18 1.377971 1_555
B2 O22 1.381389 1_555
B2 O54 1.386979 1_555
B3 O19 1.377971 1_555
B3 O23 1.381389 1_555
B3 O55 1.386979 1_555
B4 O27 1.378293 1_655
B4 O12 1.380205 1_555
B4 O7 1.398782 1_655
B5 O26 1.378293 1_455
B5 O13 1.380205 1_555
B5 O6 1.398782 1_455
B6 O25 1.378293 1_555
B6 O14 1.380205 1_555
B6 O5 1.398782 1_555
B7 O24 1.378293 1_555
B7 O15 1.380205 1_555
B7 O4 1.398782 1_555
B8 O48 1.385543 1_555
B8 O46 1.386828 1_565
B8 O0 1.401424 1_555
B9 O49 1.385543 1_555
B9 O47 1.386828 1_545
B9 O1 1.401424 1_555
B10 O50 1.385543 1_555
B10 O44 1.386828 1_545
B10 O2 1.401424 1_555
B11 O51 1.385543 1_555
B11 O45 1.386828 1_565
B11 O3 1.401424 1_555
O0 Tb10 2.369162 1_565
O0 Tb0 2.375333 1_555
O0 Tb5 2.522177 1_564
O1 Tb11 2.369162 1_545
O1 Tb1 2.375333 1_555
O1 Tb4 2.522177 1_546
O2 Tb8 2.369162 1_545
O2 Tb2 2.375333 1_555
O2 Tb7 2.522177 1_545
O3 Tb9 2.369162 1_565
O3 Tb3 2.375333 1_555
O3 Tb6 2.522177 1_565
O4 Tb8 2.304246 1_555
O4 Tb13 2.355956 1_555
O5 Tb9 2.304246 1_555
O5 Tb12 2.355956 1_555
O6 Tb10 2.304246 1_556
O6 Tb15 2.355956 1_555
O7 Tb11 2.304246 1_554
O7 Tb14 2.355956 1_555
O8 Tb8 2.276614 1_555
O8 Tb4 2.296020 1_555
O8 Tb16 2.310329 1_565
O8 Tb12 2.356363 1_555
O9 Tb9 2.276614 1_555
O9 Tb5 2.296020 1_555
O9 Tb17 2.310329 1_545
O9 Tb13 2.356363 1_555
O10 Tb10 2.276614 1_555
O10 Tb6 2.296020 1_555
O10 Tb18 2.310329 1_645
O10 Tb14 2.356363 1_655
O11 Tb11 2.276614 1_555
O11 Tb7 2.296020 1_555
O11 Tb19 2.310329 1_465
O11 Tb15 2.356363 1_455
O12 Tb10 2.395682 1_565
O12 Tb0 2.445660 1_555
O13 Tb11 2.395682 1_545
O13 Tb1 2.445660 1_555
O14 Tb8 2.395682 1_545
O14 Tb2 2.445660 1_555
O15 Tb9 2.395682 1_565
O15 Tb3 2.445660 1_555
O16 Tb15 2.424984 1_554
O16 Tb14 2.443703 1_655
O17 Tb14 2.424984 1_556
O17 Tb15 2.443703 1_455
O18 Tb13 2.424984 1_555
O18 Tb12 2.443703 1_555
O19 Tb12 2.424984 1_555
O19 Tb13 2.443703 1_555
O20 Tb0 2.383384 1_555
O20 Tb20 2.495313 1_555
O21 Tb1 2.383384 1_555
O21 Tb21 2.495313 1_555
O22 Tb2 2.383384 1_555
O22 Tb22 2.495313 1_555
O23 Tb3 2.383384 1_555
O23 Tb23 2.495313 1_555
O24 Tb21 2.319114 1_555
O24 Tb17 2.430316 1_555
O25 Tb20 2.319114 1_555
O25 Tb16 2.430316 1_555
O26 Tb23 2.319114 1_555
O26 Tb19 2.430316 1_555
O27 Tb22 2.319114 1_555
O27 Tb18 2.430316 1_555
O28 Tb20 2.292172 1_555
O28 Tb5 2.296433 1_564
O28 Tb17 2.349693 1_554
O28 Tb12 2.354893 1_555
O29 Tb21 2.292172 1_555
O29 Tb4 2.296433 1_546
O29 Tb16 2.349693 1_556
O29 Tb13 2.354893 1_555
O30 Tb22 2.292172 1_555
O30 Tb7 2.296433 1_545
O30 Tb19 2.349693 1_455
O30 Tb14 2.354893 1_555
O31 Tb23 2.292172 1_555
O31 Tb6 2.296433 1_565
O31 Tb18 2.349693 1_655
O31 Tb15 2.354893 1_555
O32 Tb0 2.248375 1_555
O32 Tb23 2.267172 1_555
O32 Tb19 2.294685 1_555
O32 Tb18 2.311869 1_655
O33 Tb1 2.248375 1_555
O33 Tb22 2.267172 1_555
O33 Tb18 2.294685 1_555
O33 Tb19 2.311869 1_455
O34 Tb2 2.248375 1_555
O34 Tb21 2.267172 1_554
O34 Tb17 2.294685 1_554
O34 Tb16 2.311869 1_555
O35 Tb3 2.248375 1_555
O35 Tb20 2.267172 1_556
O35 Tb16 2.294685 1_556
O35 Tb17 2.311869 1_555
O36 Tb12 2.280435 1_555
O36 Tb2 2.299009 1_555
O36 Tb4 2.305669 1_555
O36 Tb17 2.364040 1_554
O37 Tb13 2.280435 1_555
O37 Tb3 2.299009 1_555
O37 Tb5 2.305669 1_555
O37 Tb16 2.364040 1_556
O38 Tb14 2.280435 1_655
O38 Tb0 2.299009 1_555
O38 Tb6 2.305669 1_555
O38 Tb19 2.364040 1_555
O39 Tb15 2.280435 1_455
O39 Tb1 2.299009 1_555
O39 Tb7 2.305669 1_555
O39 Tb18 2.364040 1_555
O40 Tb22 2.233989 1_555
O40 Tb4 2.297561 1_555
O40 Tb11 2.306505 1_554
O40 Tb2 2.330993 1_555
O41 Tb23 2.233989 1_555
O41 Tb5 2.297561 1_555
O41 Tb10 2.306505 1_556
O41 Tb3 2.330993 1_555
O42 Tb20 2.233989 1_555
O42 Tb6 2.297561 1_555
O42 Tb9 2.306505 1_555
O42 Tb0 2.330993 1_555
O43 Tb21 2.233989 1_555
O43 Tb7 2.297561 1_555
O43 Tb8 2.306505 1_555
O43 Tb1 2.330993 1_555
O44 Tb4 2.460875 1_555
O44 Tb22 2.543247 1_555
O45 Tb5 2.460875 1_555
O45 Tb23 2.543247 1_555
O46 Tb6 2.460875 1_555
O46 Tb20 2.543247 1_555
O47 Tb7 2.460875 1_555
O47 Tb21 2.543247 1_555
O48 Tb12 2.374831 1_555
O48 Tb16 2.426634 1_565
O49 Tb13 2.374831 1_555
O49 Tb17 2.426634 1_545
O50 Tb14 2.374831 1_555
O50 Tb18 2.426634 1_545
O51 Tb15 2.374831 1_555
O51 Tb19 2.426634 1_565
O52 Tb3 2.364090 1_554
O52 Tb20 2.388039 1_555
O52 Tb10 2.447358 1_555
O53 Tb2 2.364090 1_556
O53 Tb21 2.388039 1_555
O53 Tb11 2.447358 1_555
O54 Tb1 2.364090 1_555
O54 Tb22 2.388039 1_555
O54 Tb8 2.447358 1_555
O55 Tb0 2.364090 1_555
O55 Tb23 2.388039 1_555
O55 Tb9 2.447358 1_555
