# generated using pymatgen
data_CaMgBiSbO6
_symmetry_space_group_name_H-M   'P 1'
_cell_length_a   5.22773794
_cell_length_b   5.76287439
_cell_length_c   5.22773794
_cell_angle_alpha   116.97298591
_cell_angle_beta   90.00000000
_cell_angle_gamma   116.97298580
_symmetry_Int_Tables_number   1
_chemical_formula_structural   CaMgBiSbO6
_chemical_formula_sum   'Ca1 Mg1 Bi1 Sb1 O6'
_cell_volume   120.82524044
_cell_formula_units_Z   1
loop_
 _symmetry_equiv_pos_site_id
 _symmetry_equiv_pos_as_xyz
  1  'x, y, z'
loop_
 _atom_site_type_symbol
 _atom_site_label
 _atom_site_symmetry_multiplicity
 _atom_site_fract_x
 _atom_site_fract_y
 _atom_site_fract_z
 _atom_site_occupancy
  Ca  Ca0  1  0.25000000  0.50000000  0.75000000  1
  Mg  Mg0  1  -0.00000000  0.00000000  -0.00000000  1
  Bi  Bi0  1  0.75000000  0.50000000  0.25000000  1
  Sb  Sb0  1  0.50000000  0.00000000  0.50000000  1
  O  O0  1  0.24356608  0.48713216  0.24356608  1
  O  O1  1  0.75643392  0.51286784  0.75643392  1
  O  O2  1  0.08186136  -0.03128268  0.34272721  1
  O  O3  1  0.88685596  -0.03128268  0.62599010  1
  O  O4  1  0.37400990  0.03128268  0.91813864  1
  O  O5  1  0.65727279  0.03128268  0.11314404  1
loop_
_geom_bond_atom_site_label_1
_geom_bond_atom_site_label_2
_geom_bond_distance
_geom_bond_site_symmetry_2
Ca0 O4 2.514981 1_565
Ca0 O3 2.514981 1_455
Ca0 O2 2.514981 1_555
Ca0 O5 2.514981 1_566
Ca0 O0 2.614488 1_555
Ca0 O1 2.614488 1_455
Ca0 O0 2.614488 1_556
Ca0 O1 2.614488 1_555
Mg0 O5 1.946479 1_455
Mg0 O2 1.946479 1_555
Mg0 O3 1.946479 1_454
Mg0 O4 1.946479 1_554
Mg0 O0 2.153659 1_555
Mg0 O1 2.153659 1_444
Bi0 O3 2.258810 1_565
Bi0 O4 2.258810 1_554
Bi0 O5 2.258810 1_555
Bi0 O2 2.258810 1_665
Bi0 O0 2.614488 1_655
Bi0 O1 2.614488 1_555
Bi0 O1 2.614488 1_554
Bi0 O0 2.614488 1_555
O0 Sb0 2.267439 1_565
O1 Sb0 2.267439 1_555
O2 O3 1.797802 1_455
O2 Sb0 2.234902 1_555
O3 Sb0 2.234902 1_555
O4 O5 1.797802 1_556
O4 Sb0 2.234902 1_555
O5 Sb0 2.234902 1_555
