# generated using pymatgen
data_Ba10MgAs6(ClO12)2
_symmetry_space_group_name_H-M   'P 1'
_cell_length_a   10.77824621
_cell_length_b   10.77414381
_cell_length_c   8.31184086
_cell_angle_alpha   90.00000000
_cell_angle_beta   90.00000000
_cell_angle_gamma   120.07563412
_symmetry_Int_Tables_number   1
_chemical_formula_structural   Ba10MgAs6(ClO12)2
_chemical_formula_sum   'Ba10 Mg1 As6 Cl2 O24'
_cell_volume   835.27064994
_cell_formula_units_Z   1
loop_
 _symmetry_equiv_pos_site_id
 _symmetry_equiv_pos_as_xyz
  1  'x, y, z'
loop_
 _atom_site_type_symbol
 _atom_site_label
 _atom_site_symmetry_multiplicity
 _atom_site_fract_x
 _atom_site_fract_y
 _atom_site_fract_z
 _atom_site_occupancy
  Ba  Ba0  1  0.66657394  0.33332605  0.50061489  1
  Ba  Ba1  1  0.33100556  0.66537616  0.43573474  1
  Ba  Ba2  1  0.00590073  0.25258808  0.25000000  1
  Ba  Ba3  1  0.33100556  0.66537616  0.06426526  1
  Ba  Ba4  1  0.74604831  0.75322095  0.25000000  1
  Ba  Ba5  1  0.24660684  0.99350091  0.25000000  1
  Ba  Ba6  1  0.75414691  0.00950888  0.75000000  1
  Ba  Ba7  1  0.99130332  0.74325490  0.75000000  1
  Ba  Ba8  1  0.66657394  0.33332605  0.99938511  1
  Ba  Ba9  1  0.25592213  0.24629330  0.75000000  1
  Mg  Mg0  1  0.33777850  0.66871330  0.75000000  1
  As  As0  1  0.95479454  0.59372524  0.25000000  1
  As  As1  1  0.60157520  0.63178834  0.75000000  1
  As  As2  1  0.36846672  0.96977743  0.75000000  1
  As  As3  1  0.40616270  0.36175991  0.25000000  1
  As  As4  1  0.03200190  0.39984266  0.75000000  1
  As  As5  1  0.63759217  0.04372228  0.25000000  1
  Cl  Cl0  1  0.99992155  0.99980360  0.00211532  1
  Cl  Cl1  1  0.99992155  0.99980360  0.49788468  1
  O  O0  1  0.64786358  0.74084680  0.91949407  1
  O  O1  1  0.32289017  0.46532070  0.25000000  1
  O  O2  1  0.35820480  0.25501409  0.42009160  1
  O  O3  1  0.41029678  0.53222942  0.75000000  1
  O  O4  1  0.09314726  0.35215468  0.58017965  1
  O  O5  1  0.67386769  0.51878282  0.75000000  1
  O  O6  1  0.84649360  0.32881496  0.75000000  1
  O  O7  1  0.12675532  0.59162432  0.75000000  1
  O  O8  1  0.59109269  0.46913950  0.25000000  1
  O  O9  1  0.74449236  0.10248134  0.08007639  1
  O  O10  1  0.09314726  0.35215468  0.91982035  1
  O  O11  1  0.87798939  0.40887464  0.25000000  1
  O  O12  1  0.46854270  0.87879533  0.75000000  1
  O  O13  1  0.89614210  0.64138350  0.07968827  1
  O  O14  1  0.89614210  0.64138350  0.42031173  1
  O  O15  1  0.48138723  0.15553619  0.75000000  1
  O  O16  1  0.35820480  0.25501409  0.07990840  1
  O  O17  1  0.74449236  0.10248134  0.41992361  1
  O  O18  1  0.14167185  0.67772515  0.25000000  1
  O  O19  1  0.25950674  0.90750252  0.91957147  1
  O  O20  1  0.53377302  0.85683186  0.25000000  1
  O  O21  1  0.25950674  0.90750252  0.58042853  1
  O  O22  1  0.64786358  0.74084680  0.58050593  1
  O  O23  1  0.53072376  0.12160145  0.25000000  1
loop_
_geom_bond_atom_site_label_1
_geom_bond_atom_site_label_2
_geom_bond_distance
_geom_bond_site_symmetry_2
Ba0 O15 2.849179 1_555
Ba0 O5 2.852718 1_555
Ba0 O6 2.855539 1_555
Ba0 O11 2.887062 1_555
Ba0 O8 2.887110 1_555
Ba0 O23 2.887740 1_555
Ba0 O14 3.058228 1_555
Ba0 O2 3.065283 1_555
Ba0 O17 3.071582 1_555
Ba1 O18 2.614870 1_555
Ba1 O1 2.616841 1_555
Ba1 O20 2.626063 1_555
Ba2 O11 2.657599 1_455
Ba2 O9 2.825191 1_455
Ba2 O17 2.825191 1_455
Ba2 O10 2.925017 1_554
Ba2 O4 2.925017 1_555
Ba2 O1 3.012913 1_555
Ba2 Cl0 3.389844 1_445
Ba2 Cl1 3.389844 1_445
Ba3 O18 2.614870 1_555
Ba3 O1 2.616841 1_555
Ba3 O20 2.626063 1_555
Ba4 O8 2.652155 1_555
Ba4 O14 2.833146 1_555
Ba4 O13 2.833146 1_555
Ba4 O22 2.922825 1_555
Ba4 O0 2.922825 1_554
Ba4 O20 3.006798 1_555
Ba4 Cl0 3.391825 1_555
Ba4 Cl1 3.391825 1_555
Ba5 O23 2.654489 1_565
Ba5 O2 2.826217 1_565
Ba5 O16 2.826217 1_565
Ba5 O21 2.924048 1_555
Ba5 O19 2.924048 1_554
Ba5 O18 2.999584 1_555
Ba5 Cl1 3.391185 1_455
Ba5 Cl0 3.391185 1_455
Ba6 O12 2.667248 1_545
Ba6 O22 2.890029 1_545
Ba6 O0 2.890029 1_545
Ba6 O9 2.940362 1_556
Ba6 O17 2.940362 1_555
Ba6 O6 3.064960 1_555
Ba6 Cl1 3.420112 1_545
Ba6 Cl0 3.420112 1_546
Ba7 O7 2.681582 1_655
Ba7 O21 2.889183 1_655
Ba7 O19 2.889183 1_655
Ba7 O14 2.938994 1_555
Ba7 O13 2.938994 1_556
Ba7 O5 3.043278 1_555
Ba7 Cl0 3.432607 1_556
Ba7 Cl1 3.432607 1_555
Ba8 O15 2.849179 1_555
Ba8 O5 2.852718 1_555
Ba8 O6 2.855539 1_555
Ba8 O11 2.887062 1_556
Ba8 O8 2.887110 1_556
Ba8 O23 2.887740 1_556
Ba8 O13 3.058228 1_556
Ba8 O16 3.065283 1_556
Ba8 O9 3.071582 1_556
Ba9 O3 2.668643 1_555
Ba9 O10 2.894289 1_555
Ba9 O4 2.894289 1_555
Ba9 O2 2.939340 1_555
Ba9 O16 2.939340 1_556
Ba9 O15 3.040280 1_555
Ba9 Cl0 3.422428 1_446
Ba9 Cl1 3.422428 1_445
Mg0 O12 1.977937 1_555
Mg0 O3 1.981234 1_555
Mg0 O7 1.992385 1_555
As0 O14 1.729907 1_555
As0 O13 1.729907 1_555
As0 O11 1.731855 1_555
As0 O18 1.746148 1_655
As1 O22 1.739752 1_555
As1 O0 1.739752 1_555
As1 O5 1.743670 1_555
As1 O3 1.784512 1_555
As2 O19 1.739590 1_555
As2 O21 1.739590 1_555
As2 O15 1.745117 1_565
As2 O12 1.784414 1_555
As3 O2 1.729976 1_555
As3 O16 1.729976 1_555
As3 O8 1.732087 1_555
As3 O1 1.747645 1_555
As4 O10 1.740717 1_555
As4 O4 1.740717 1_555
As4 O6 1.746379 1_455
As4 O7 1.788145 1_555
As5 O17 1.729757 1_555
As5 O9 1.729757 1_555
As5 O23 1.731916 1_555
As5 O20 1.745947 1_545
