# generated using pymatgen
data_Nb2SiSb2
_symmetry_space_group_name_H-M   'P 1'
_cell_length_a   5.74812600
_cell_length_b   5.74812600
_cell_length_c   29.56790800
_cell_angle_alpha   90.00000000
_cell_angle_beta   90.00000000
_cell_angle_gamma   90.00000000
_symmetry_Int_Tables_number   1
_chemical_formula_structural   Nb2SiSb2
_chemical_formula_sum   'Nb16 Si8 Sb16'
_cell_volume   976.95184410
_cell_formula_units_Z   8
loop_
 _symmetry_equiv_pos_site_id
 _symmetry_equiv_pos_as_xyz
  1  'x, y, z'
loop_
 _atom_site_type_symbol
 _atom_site_label
 _atom_site_symmetry_multiplicity
 _atom_site_fract_x
 _atom_site_fract_y
 _atom_site_fract_z
 _atom_site_occupancy
  Nb  Nb0_0  1  0.25000000  0.25000000  0.08502650  1
  Nb  Nb0_1  1  0.25000000  0.25000000  0.58502650  1
  Nb  Nb0_2  1  0.25000000  0.75000000  0.08502650  1
  Nb  Nb0_3  1  0.25000000  0.75000000  0.58502650  1
  Nb  Nb0_4  1  0.75000000  0.25000000  0.08502650  1
  Nb  Nb0_5  1  0.75000000  0.25000000  0.58502650  1
  Nb  Nb0_6  1  0.75000000  0.75000000  0.08502650  1
  Nb  Nb0_7  1  0.75000000  0.75000000  0.58502650  1
  Nb  Nb1_0  1  0.25000000  0.25000000  0.41497350  1
  Nb  Nb1_1  1  0.25000000  0.25000000  0.91497350  1
  Nb  Nb1_2  1  0.25000000  0.75000000  0.41497350  1
  Nb  Nb1_3  1  0.25000000  0.75000000  0.91497350  1
  Nb  Nb1_4  1  0.75000000  0.25000000  0.41497350  1
  Nb  Nb1_5  1  0.75000000  0.25000000  0.91497350  1
  Nb  Nb1_6  1  0.75000000  0.75000000  0.41497350  1
  Nb  Nb1_7  1  0.75000000  0.75000000  0.91497350  1
  Si  Si0_0  1  0.25000000  0.25000000  0.00000000  1
  Si  Si0_1  1  0.25000000  0.25000000  0.50000000  1
  Si  Si0_2  1  0.25000000  0.75000000  0.00000000  1
  Si  Si0_3  1  0.25000000  0.75000000  0.50000000  1
  Si  Si0_4  1  0.75000000  0.25000000  0.00000000  1
  Si  Si0_5  1  0.75000000  0.25000000  0.50000000  1
  Si  Si0_6  1  0.75000000  0.75000000  0.00000000  1
  Si  Si0_7  1  0.75000000  0.75000000  0.50000000  1
  Sb  Sb0_0  1  0.25000000  0.25000000  0.31655250  1
  Sb  Sb0_1  1  0.25000000  0.25000000  0.81655250  1
  Sb  Sb0_2  1  0.25000000  0.75000000  0.31655250  1
  Sb  Sb0_3  1  0.25000000  0.75000000  0.81655250  1
  Sb  Sb0_4  1  0.75000000  0.25000000  0.31655250  1
  Sb  Sb0_5  1  0.75000000  0.25000000  0.81655250  1
  Sb  Sb0_6  1  0.75000000  0.75000000  0.31655250  1
  Sb  Sb0_7  1  0.75000000  0.75000000  0.81655250  1
  Sb  Sb1_0  1  0.25000000  0.25000000  0.18344750  1
  Sb  Sb1_1  1  0.25000000  0.25000000  0.68344750  1
  Sb  Sb1_2  1  0.25000000  0.75000000  0.18344750  1
  Sb  Sb1_3  1  0.25000000  0.75000000  0.68344750  1
  Sb  Sb1_4  1  0.75000000  0.25000000  0.18344750  1
  Sb  Sb1_5  1  0.75000000  0.25000000  0.68344750  1
  Sb  Sb1_6  1  0.75000000  0.75000000  0.18344750  1
  Sb  Sb1_7  1  0.75000000  0.75000000  0.68344750  1
loop_
_geom_bond_atom_site_label_1
_geom_bond_atom_site_label_2
_geom_bond_distance
_geom_bond_site_symmetry_2
Nb0_0 Si0_0 2.514056 1_555
Nb0_0 Nb0_4 2.874063 1_555
Nb0_0 Nb0_2 2.874063 1_555
Nb0_0 Nb0_2 2.874063 1_545
Nb0_0 Nb0_4 2.874063 1_455
Nb0_0 Sb1_0 2.910103 1_555
Nb0_1 Si0_1 2.514056 1_555
Nb0_1 Nb0_5 2.874063 1_455
Nb0_1 Nb0_5 2.874063 1_555
Nb0_1 Nb0_3 2.874063 1_555
Nb0_1 Nb0_3 2.874063 1_545
Nb0_1 Sb1_1 2.910103 1_555
Nb0_2 Si0_2 2.514056 1_555
Nb0_2 Nb0_6 2.874063 1_455
Nb0_2 Nb0_6 2.874063 1_555
Nb0_2 Sb1_2 2.910103 1_555
Nb0_3 Si0_3 2.514056 1_555
Nb0_3 Nb0_7 2.874063 1_455
Nb0_3 Nb0_7 2.874063 1_555
Nb0_3 Sb1_3 2.910103 1_555
Nb0_4 Si0_4 2.514056 1_555
Nb0_4 Nb0_6 2.874063 1_545
Nb0_4 Nb0_6 2.874063 1_555
Nb0_4 Sb1_4 2.910103 1_555
Nb0_5 Si0_5 2.514056 1_555
Nb0_5 Nb0_7 2.874063 1_545
Nb0_5 Nb0_7 2.874063 1_555
Nb0_5 Sb1_5 2.910103 1_555
Nb0_6 Si0_6 2.514056 1_555
Nb0_6 Sb1_6 2.910103 1_555
Nb0_7 Si0_7 2.514056 1_555
Nb0_7 Sb1_7 2.910103 1_555
Nb1_0 Si0_1 2.514056 1_555
Nb1_0 Nb1_2 2.874063 1_555
Nb1_0 Nb1_2 2.874063 1_545
Nb1_0 Nb1_4 2.874063 1_455
Nb1_0 Nb1_4 2.874063 1_555
Nb1_0 Sb0_0 2.910103 1_555
Nb1_1 Si0_0 2.514056 1_556
Nb1_1 Nb1_5 2.874063 1_555
Nb1_1 Nb1_3 2.874063 1_555
Nb1_1 Nb1_5 2.874063 1_455
Nb1_1 Nb1_3 2.874063 1_545
Nb1_1 Sb0_1 2.910103 1_555
Nb1_2 Si0_3 2.514056 1_555
Nb1_2 Nb1_6 2.874063 1_555
Nb1_2 Nb1_6 2.874063 1_455
Nb1_2 Sb0_2 2.910103 1_555
Nb1_3 Si0_2 2.514056 1_556
Nb1_3 Nb1_7 2.874063 1_455
Nb1_3 Nb1_7 2.874063 1_555
Nb1_3 Sb0_3 2.910103 1_555
Nb1_4 Si0_5 2.514056 1_555
Nb1_4 Nb1_6 2.874063 1_555
Nb1_4 Nb1_6 2.874063 1_545
Nb1_4 Sb0_4 2.910103 1_555
Nb1_5 Si0_4 2.514056 1_556
Nb1_5 Nb1_7 2.874063 1_545
Nb1_5 Nb1_7 2.874063 1_555
Nb1_5 Sb0_5 2.910103 1_555
Nb1_6 Si0_7 2.514056 1_555
Nb1_6 Sb0_6 2.910103 1_555
Nb1_7 Si0_6 2.514056 1_556
Nb1_7 Sb0_7 2.910103 1_555
Sb0_0 Sb0_2 2.874063 1_545
Sb0_0 Sb0_4 2.874063 1_455
Sb0_0 Sb0_4 2.874063 1_555
Sb0_0 Sb0_2 2.874063 1_555
Sb0_1 Sb0_5 2.874063 1_455
Sb0_1 Sb0_5 2.874063 1_555
Sb0_1 Sb0_3 2.874063 1_545
Sb0_1 Sb0_3 2.874063 1_555
Sb0_2 Sb0_6 2.874063 1_455
Sb0_2 Sb0_6 2.874063 1_555
Sb0_3 Sb0_7 2.874063 1_455
Sb0_3 Sb0_7 2.874063 1_555
Sb0_4 Sb0_6 2.874063 1_555
Sb0_4 Sb0_6 2.874063 1_545
Sb0_5 Sb0_7 2.874063 1_545
Sb0_5 Sb0_7 2.874063 1_555
Sb1_0 Sb1_2 2.874063 1_545
Sb1_0 Sb1_4 2.874063 1_455
Sb1_0 Sb1_4 2.874063 1_555
Sb1_0 Sb1_2 2.874063 1_555
Sb1_1 Sb1_3 2.874063 1_555
Sb1_1 Sb1_5 2.874063 1_455
Sb1_1 Sb1_5 2.874063 1_555
Sb1_1 Sb1_3 2.874063 1_545
Sb1_2 Sb1_6 2.874063 1_555
Sb1_2 Sb1_6 2.874063 1_455
Sb1_3 Sb1_7 2.874063 1_455
Sb1_3 Sb1_7 2.874063 1_555
Sb1_4 Sb1_6 2.874063 1_545
Sb1_4 Sb1_6 2.874063 1_555
Sb1_5 Sb1_7 2.874063 1_545
Sb1_5 Sb1_7 2.874063 1_555
