# generated using pymatgen
data_K2RbAuBr6
_symmetry_space_group_name_H-M   'P 1'
_cell_length_a   8.30731250
_cell_length_b   8.30731250
_cell_length_c   8.30731250
_cell_angle_alpha   60.00000000
_cell_angle_beta   60.00000000
_cell_angle_gamma   60.00000000
_symmetry_Int_Tables_number   1
_chemical_formula_structural   K2RbAuBr6
_chemical_formula_sum   'K2 Rb1 Au1 Br6'
_cell_volume   405.38403877
_cell_formula_units_Z   1
loop_
 _symmetry_equiv_pos_site_id
 _symmetry_equiv_pos_as_xyz
  1  'x, y, z'
loop_
 _atom_site_type_symbol
 _atom_site_label
 _atom_site_symmetry_multiplicity
 _atom_site_fract_x
 _atom_site_fract_y
 _atom_site_fract_z
 _atom_site_occupancy
  K  K0  1  0.75000000  0.75000000  0.75000000  1
  K  K1  1  0.25000000  0.25000000  0.25000000  1
  Rb  Rb0  1  0.50000000  0.50000000  0.50000000  1
  Au  Au0  1  0.00000000  0.00000000  0.00000000  1
  Br  Br0  1  0.77371100  0.22628900  0.22628900  1
  Br  Br1  1  0.22628900  0.22628900  0.77371100  1
  Br  Br2  1  0.22628900  0.77371100  0.77371100  1
  Br  Br3  1  0.22628900  0.77371100  0.22628900  1
  Br  Br4  1  0.77371100  0.22628900  0.77371100  1
  Br  Br5  1  0.77371100  0.77371100  0.22628900  1
loop_
_geom_bond_atom_site_label_1
_geom_bond_atom_site_label_2
_geom_bond_distance
_geom_bond_site_symmetry_2
Au0 Br5 2.658514 1_445
Au0 Br4 2.658514 1_454
Au0 Br2 2.658514 1_544
Au0 Br0 2.658514 1_455
Au0 Br3 2.658514 1_545
Au0 Br1 2.658514 1_554
Br0 Rb0 3.215643 1_555
Br1 Rb0 3.215643 1_555
Br2 Rb0 3.215643 1_555
Br3 Rb0 3.215643 1_555
Br4 Rb0 3.215643 1_555
Br5 Rb0 3.215643 1_555
