# generated using pymatgen
data_BaCaInBiO6
_symmetry_space_group_name_H-M   'P 1'
_cell_length_a   8.43323021
_cell_length_b   8.44969084
_cell_length_c   8.42115740
_cell_angle_alpha   90.00000000
_cell_angle_beta   90.00000000
_cell_angle_gamma   90.00000000
_symmetry_Int_Tables_number   1
_chemical_formula_structural   BaCaInBiO6
_chemical_formula_sum   'Ba4 Ca4 In4 Bi4 O24'
_cell_volume   600.07641767
_cell_formula_units_Z   4
loop_
 _symmetry_equiv_pos_site_id
 _symmetry_equiv_pos_as_xyz
  1  'x, y, z'
loop_
 _atom_site_type_symbol
 _atom_site_label
 _atom_site_symmetry_multiplicity
 _atom_site_fract_x
 _atom_site_fract_y
 _atom_site_fract_z
 _atom_site_occupancy
  Ba  Ba0  1  -0.00000000  0.00000000  0.00000000  1
  Ba  Ba1  1  0.50000000  0.50000000  0.50000000  1
  Ba  Ba2  1  0.50000000  0.50000000  -0.00000000  1
  Ba  Ba3  1  -0.00000000  -0.00000000  0.50000000  1
  Ca  Ca0  1  -0.00000000  0.50000000  0.50000000  1
  Ca  Ca1  1  0.50000000  0.00000000  0.50000000  1
  Ca  Ca2  1  0.50000000  0.00000000  0.00000000  1
  Ca  Ca3  1  -0.00000000  0.50000000  0.00000000  1
  In  In0  1  0.25000000  0.25000000  0.25000000  1
  In  In1  1  0.75000000  0.75000000  0.25000000  1
  In  In2  1  0.75000000  0.25000000  0.75000000  1
  In  In3  1  0.25000000  0.75000000  0.75000000  1
  Bi  Bi0  1  0.75000000  0.75000000  0.75000000  1
  Bi  Bi1  1  0.25000000  0.25000000  0.75000000  1
  Bi  Bi2  1  0.25000000  0.75000000  0.25000000  1
  Bi  Bi3  1  0.75000000  0.25000000  0.25000000  1
  O  O0  1  0.99845271  0.21958774  0.28079614  1
  O  O1  1  0.00154729  0.78041226  0.28079614  1
  O  O2  1  0.00154729  0.21958774  0.71920386  1
  O  O3  1  0.99845271  0.78041226  0.71920386  1
  O  O4  1  0.28703832  0.99657387  0.19290569  1
  O  O5  1  0.28703832  0.00342613  0.80709431  1
  O  O6  1  0.71296168  0.00342613  0.19290569  1
  O  O7  1  0.71296168  0.99657387  0.80709431  1
  O  O8  1  0.20488373  0.30319742  0.99683019  1
  O  O9  1  0.79511627  0.30319742  0.00316981  1
  O  O10  1  0.20488373  0.69680258  0.00316981  1
  O  O11  1  0.79511627  0.69680258  0.99683019  1
  O  O12  1  0.50154729  0.28041226  0.21920386  1
  O  O13  1  0.49845271  0.71958774  0.21920386  1
  O  O14  1  0.49845271  0.28041226  0.78079614  1
  O  O15  1  0.50154729  0.71958774  0.78079614  1
  O  O16  1  0.21296168  0.50342613  0.30709431  1
  O  O17  1  0.21296168  0.49657387  0.69290569  1
  O  O18  1  0.78703832  0.49657387  0.30709431  1
  O  O19  1  0.78703832  0.50342613  0.69290569  1
  O  O20  1  0.29511627  0.19680258  0.50316981  1
  O  O21  1  0.70488373  0.19680258  0.49683019  1
  O  O22  1  0.29511627  0.80319742  0.49683019  1
  O  O23  1  0.70488373  0.80319742  0.50316981  1
loop_
_geom_bond_atom_site_label_1
_geom_bond_atom_site_label_2
_geom_bond_distance
_geom_bond_site_symmetry_2
Ba0 O6 2.915373 1_455
Ba0 O7 2.915373 1_444
Ba0 O5 2.915373 1_554
Ba0 O4 2.915373 1_545
Ba0 O2 3.005716 1_554
Ba0 O1 3.005716 1_545
Ba0 O0 3.005716 1_455
Ba0 O3 3.005716 1_444
Ba0 O8 3.090238 1_554
Ba0 O9 3.090238 1_455
Ba0 O10 3.090238 1_545
Ba0 O11 3.090238 1_444
Ba1 O18 2.915373 1_555
Ba1 O19 2.915373 1_555
Ba1 O17 2.915373 1_555
Ba1 O16 2.915373 1_555
Ba1 O14 3.005716 1_555
Ba1 O12 3.005716 1_555
Ba1 O15 3.005716 1_555
Ba1 O13 3.005716 1_555
Ba1 O20 3.090238 1_555
Ba1 O22 3.090238 1_555
Ba1 O23 3.090238 1_555
Ba1 O21 3.090238 1_555
Ba2 O12 2.617325 1_555
Ba2 O14 2.617325 1_554
Ba2 O15 2.617325 1_554
Ba2 O13 2.617325 1_555
Ba2 O9 2.993336 1_555
Ba2 O10 2.993336 1_555
Ba2 O11 2.993336 1_554
Ba2 O8 2.993336 1_554
Ba3 O0 2.617325 1_455
Ba3 O1 2.617325 1_545
Ba3 O2 2.617325 1_555
Ba3 O3 2.617325 1_445
Ba3 O22 2.993336 1_545
Ba3 O21 2.993336 1_455
Ba3 O23 2.993336 1_445
Ba3 O20 2.993336 1_555
Ca0 O16 2.421829 1_555
Ca0 O17 2.421829 1_555
Ca0 O18 2.421829 1_455
Ca0 O19 2.421829 1_455
Ca0 O3 3.003622 1_455
Ca0 O0 3.003622 1_455
Ca0 O2 3.003622 1_555
Ca0 O1 3.003622 1_555
Ca1 O22 2.398212 1_545
Ca1 O20 2.398212 1_555
Ca1 O23 2.398212 1_545
Ca1 O21 2.398212 1_555
Ca2 O5 2.421829 1_554
Ca2 O4 2.421829 1_545
Ca2 O7 2.421829 1_544
Ca2 O6 2.421829 1_555
Ca2 O15 3.003622 1_544
Ca2 O13 3.003622 1_545
Ca2 O12 3.003622 1_555
Ca2 O14 3.003622 1_554
Ca3 O10 2.398212 1_555
Ca3 O11 2.398212 1_454
Ca3 O8 2.398212 1_554
Ca3 O9 2.398212 1_455
In0 O12 2.152544 1_555
In0 O0 2.152544 1_455
In0 O20 2.211824 1_555
In0 O8 2.211824 1_554
In0 O16 2.216802 1_555
In0 O4 2.216802 1_545
In1 O1 2.152544 1_655
In1 O13 2.152544 1_555
In1 O11 2.211824 1_554
In1 O23 2.211824 1_555
In1 O18 2.216802 1_555
In1 O6 2.216802 1_565
In2 O14 2.152544 1_555
In2 O2 2.152544 1_655
In2 O21 2.211824 1_555
In2 O9 2.211824 1_556
In2 O19 2.216802 1_555
In2 O7 2.216802 1_545
In3 O15 2.152544 1_555
In3 O3 2.152544 1_455
In3 O10 2.211824 1_556
In3 O22 2.211824 1_555
In3 O17 2.216802 1_555
In3 O5 2.216802 1_565
Bi0 O15 2.126829 1_555
Bi0 O3 2.126829 1_555
Bi0 O11 2.160411 1_555
Bi0 O23 2.160411 1_555
Bi0 O7 2.160924 1_555
Bi0 O19 2.160924 1_555
Bi1 O2 2.126829 1_555
Bi1 O14 2.126829 1_555
Bi1 O8 2.160411 1_555
Bi1 O20 2.160411 1_555
Bi1 O17 2.160924 1_555
Bi1 O5 2.160924 1_555
Bi2 O1 2.126829 1_555
Bi2 O13 2.126829 1_555
Bi2 O10 2.160411 1_555
Bi2 O22 2.160411 1_555
Bi2 O16 2.160924 1_555
Bi2 O4 2.160924 1_555
Bi3 O12 2.126829 1_555
Bi3 O0 2.126829 1_555
Bi3 O9 2.160411 1_555
Bi3 O21 2.160411 1_555
Bi3 O6 2.160924 1_555
Bi3 O18 2.160924 1_555
