# generated using pymatgen
data_Ba20Hg103
_symmetry_space_group_name_H-M   'P 1'
_cell_length_a   17.15726157
_cell_length_b   17.15726157
_cell_length_c   17.15726157
_cell_angle_alpha   60.00000000
_cell_angle_beta   60.00000000
_cell_angle_gamma   60.00000000
_symmetry_Int_Tables_number   1
_chemical_formula_structural   Ba20Hg103
_chemical_formula_sum   'Ba20 Hg103'
_cell_volume   3571.32125776
_cell_formula_units_Z   1
loop_
 _symmetry_equiv_pos_site_id
 _symmetry_equiv_pos_as_xyz
  1  'x, y, z'
loop_
 _atom_site_type_symbol
 _atom_site_label
 _atom_site_symmetry_multiplicity
 _atom_site_fract_x
 _atom_site_fract_y
 _atom_site_fract_z
 _atom_site_occupancy
  Ba  Ba0  1  0.59524900  0.59524900  0.21425300  1
  Ba  Ba1  1  0.59524900  0.21425300  0.59524900  1
  Ba  Ba2  1  0.21425300  0.59524900  0.59524900  1
  Ba  Ba3  1  0.59524900  0.59524900  0.59524900  1
  Ba  Ba4  1  0.84181100  0.84181100  0.47456800  1
  Ba  Ba5  1  0.84181100  0.47456800  0.84181100  1
  Ba  Ba6  1  0.47456800  0.84181100  0.84181100  1
  Ba  Ba7  1  0.84181100  0.84181100  0.84181100  1
  Ba  Ba8  1  0.18348000  0.18348000  0.81652000  1
  Ba  Ba9  1  0.81652000  0.18348000  0.81652000  1
  Ba  Ba10  1  0.18348000  0.81652000  0.81652000  1
  Ba  Ba11  1  0.81652000  0.81652000  0.18348000  1
  Ba  Ba12  1  0.18348000  0.81652000  0.18348000  1
  Ba  Ba13  1  0.81652000  0.18348000  0.18348000  1
  Ba  Ba14  1  0.05510700  0.05510700  0.44489300  1
  Ba  Ba15  1  0.44489300  0.05510700  0.44489300  1
  Ba  Ba16  1  0.05510700  0.44489300  0.44489300  1
  Ba  Ba17  1  0.44489300  0.44489300  0.05510700  1
  Ba  Ba18  1  0.05510700  0.44489300  0.05510700  1
  Ba  Ba19  1  0.44489300  0.05510700  0.05510700  1
  Hg  Hg0  1  0.42013400  0.82608200  0.10651000  1
  Hg  Hg1  1  0.64727400  0.42013400  0.10651000  1
  Hg  Hg2  1  0.82608200  0.64727400  0.10651000  1
  Hg  Hg3  1  0.64727400  0.82608200  0.10651000  1
  Hg  Hg4  1  0.82608200  0.42013400  0.10651000  1
  Hg  Hg5  1  0.42013400  0.64727400  0.10651000  1
  Hg  Hg6  1  0.64727400  0.10651000  0.82608200  1
  Hg  Hg7  1  0.82608200  0.10651000  0.42013400  1
  Hg  Hg8  1  0.42013400  0.10651000  0.64727400  1
  Hg  Hg9  1  0.42013400  0.10651000  0.82608200  1
  Hg  Hg10  1  0.64727400  0.10651000  0.42013400  1
  Hg  Hg11  1  0.82608200  0.10651000  0.64727400  1
  Hg  Hg12  1  0.10651000  0.64727400  0.42013400  1
  Hg  Hg13  1  0.10651000  0.82608200  0.64727400  1
  Hg  Hg14  1  0.10651000  0.42013400  0.82608200  1
  Hg  Hg15  1  0.10651000  0.42013400  0.64727400  1
  Hg  Hg16  1  0.10651000  0.64727400  0.82608200  1
  Hg  Hg17  1  0.10651000  0.82608200  0.42013400  1
  Hg  Hg18  1  0.82608200  0.42013400  0.64727400  1
  Hg  Hg19  1  0.42013400  0.64727400  0.82608200  1
  Hg  Hg20  1  0.64727400  0.82608200  0.42013400  1
  Hg  Hg21  1  0.82608200  0.64727400  0.42013400  1
  Hg  Hg22  1  0.42013400  0.82608200  0.64727400  1
  Hg  Hg23  1  0.64727400  0.42013400  0.82608200  1
  Hg  Hg24  1  0.61861600  0.79507300  0.96769500  1
  Hg  Hg25  1  0.61861600  0.61861600  0.96769500  1
  Hg  Hg26  1  0.79507300  0.61861600  0.96769500  1
  Hg  Hg27  1  0.61861600  0.96769500  0.79507300  1
  Hg  Hg28  1  0.79507300  0.96769500  0.61861600  1
  Hg  Hg29  1  0.61861600  0.96769500  0.61861600  1
  Hg  Hg30  1  0.96769500  0.61861600  0.61861600  1
  Hg  Hg31  1  0.96769500  0.79507300  0.61861600  1
  Hg  Hg32  1  0.96769500  0.61861600  0.79507300  1
  Hg  Hg33  1  0.79507300  0.61861600  0.61861600  1
  Hg  Hg34  1  0.61861600  0.61861600  0.79507300  1
  Hg  Hg35  1  0.61861600  0.79507300  0.61861600  1
  Hg  Hg36  1  0.99259300  0.30150700  0.71330700  1
  Hg  Hg37  1  0.99259300  0.99259300  0.71330700  1
  Hg  Hg38  1  0.30150700  0.99259300  0.71330700  1
  Hg  Hg39  1  0.99259300  0.71330700  0.30150700  1
  Hg  Hg40  1  0.30150700  0.71330700  0.99259300  1
  Hg  Hg41  1  0.99259300  0.71330700  0.99259300  1
  Hg  Hg42  1  0.71330700  0.99259300  0.99259300  1
  Hg  Hg43  1  0.71330700  0.30150700  0.99259300  1
  Hg  Hg44  1  0.71330700  0.99259300  0.30150700  1
  Hg  Hg45  1  0.30150700  0.99259300  0.99259300  1
  Hg  Hg46  1  0.99259300  0.99259300  0.30150700  1
  Hg  Hg47  1  0.99259300  0.30150700  0.99259300  1
  Hg  Hg48  1  0.45530700  0.81984500  0.26954000  1
  Hg  Hg49  1  0.45530700  0.45530700  0.26954000  1
  Hg  Hg50  1  0.81984500  0.45530700  0.26954000  1
  Hg  Hg51  1  0.45530700  0.26954000  0.81984500  1
  Hg  Hg52  1  0.81984500  0.26954000  0.45530700  1
  Hg  Hg53  1  0.45530700  0.26954000  0.45530700  1
  Hg  Hg54  1  0.26954000  0.45530700  0.45530700  1
  Hg  Hg55  1  0.26954000  0.81984500  0.45530700  1
  Hg  Hg56  1  0.26954000  0.45530700  0.81984500  1
  Hg  Hg57  1  0.81984500  0.45530700  0.45530700  1
  Hg  Hg58  1  0.45530700  0.45530700  0.81984500  1
  Hg  Hg59  1  0.45530700  0.81984500  0.45530700  1
  Hg  Hg60  1  0.20113200  0.20113200  0.39660400  1
  Hg  Hg61  1  0.20113200  0.39660400  0.20113200  1
  Hg  Hg62  1  0.39660400  0.20113200  0.20113200  1
  Hg  Hg63  1  0.20113200  0.20113200  0.20113200  1
  Hg  Hg64  1  0.32648200  0.32648200  0.02055500  1
  Hg  Hg65  1  0.32648200  0.02055500  0.32648200  1
  Hg  Hg66  1  0.02055500  0.32648200  0.32648200  1
  Hg  Hg67  1  0.32648200  0.32648200  0.32648200  1
  Hg  Hg68  1  0.45425000  0.45425000  0.63725000  1
  Hg  Hg69  1  0.45425000  0.63725000  0.45425000  1
  Hg  Hg70  1  0.63725000  0.45425000  0.45425000  1
  Hg  Hg71  1  0.45425000  0.45425000  0.45425000  1
  Hg  Hg72  1  0.04864800  0.04864800  0.85405500  1
  Hg  Hg73  1  0.04864800  0.85405500  0.04864800  1
  Hg  Hg74  1  0.85405500  0.04864800  0.04864800  1
  Hg  Hg75  1  0.04864800  0.04864800  0.04864800  1
  Hg  Hg76  1  0.92656600  0.92656600  0.22030200  1
  Hg  Hg77  1  0.92656600  0.22030200  0.92656600  1
  Hg  Hg78  1  0.22030200  0.92656600  0.92656600  1
  Hg  Hg79  1  0.92656600  0.92656600  0.92656600  1
  Hg  Hg80  1  0.24122000  0.95676000  0.56080100  1
  Hg  Hg81  1  0.24122000  0.24122000  0.56080100  1
  Hg  Hg82  1  0.95676000  0.24122000  0.56080100  1
  Hg  Hg83  1  0.24122000  0.56080100  0.95676000  1
  Hg  Hg84  1  0.95676000  0.56080100  0.24122000  1
  Hg  Hg85  1  0.24122000  0.56080100  0.24122000  1
  Hg  Hg86  1  0.56080100  0.24122000  0.24122000  1
  Hg  Hg87  1  0.56080100  0.95676000  0.24122000  1
  Hg  Hg88  1  0.56080100  0.24122000  0.95676000  1
  Hg  Hg89  1  0.95676000  0.24122000  0.24122000  1
  Hg  Hg90  1  0.24122000  0.24122000  0.95676000  1
  Hg  Hg91  1  0.24122000  0.95676000  0.24122000  1
  Hg  Hg92  1  0.32336700  0.32336700  0.67663300  1
  Hg  Hg93  1  0.67663300  0.32336700  0.67663300  1
  Hg  Hg94  1  0.32336700  0.67663300  0.67663300  1
  Hg  Hg95  1  0.67663300  0.67663300  0.32336700  1
  Hg  Hg96  1  0.32336700  0.67663300  0.32336700  1
  Hg  Hg97  1  0.67663300  0.32336700  0.32336700  1
  Hg  Hg98  1  0.75000000  0.75000000  0.75000000  1
  Hg  Hg99  1  0.12364000  0.12364000  0.62908100  1
  Hg  Hg100  1  0.12364000  0.62908100  0.12364000  1
  Hg  Hg101  1  0.62908100  0.12364000  0.12364000  1
  Hg  Hg102  1  0.12364000  0.12364000  0.12364000  1
loop_
_geom_bond_atom_site_label_1
_geom_bond_atom_site_label_2
_geom_bond_distance
_geom_bond_site_symmetry_2
Ba0 Hg48 3.693143 1_555
Ba0 Hg50 3.693143 1_555
Ba0 Hg49 3.693158 1_555
Ba0 Hg3 3.803040 1_555
Ba0 Hg2 3.803040 1_555
Ba0 Hg4 3.803040 1_555
Ba0 Hg0 3.803040 1_555
Ba0 Hg5 3.803040 1_555
Ba0 Hg1 3.803040 1_555
Ba0 Hg95 3.818645 1_555
Ba0 Hg97 3.818645 1_555
Ba0 Hg96 3.818645 1_555
Ba0 Hg71 3.819641 1_555
Ba0 Hg70 3.819641 1_555
Ba0 Hg69 3.819641 1_555
Ba0 Hg26 3.871093 1_554
Ba0 Hg24 3.871093 1_554
Ba0 Hg25 3.871093 1_554
Ba1 Hg51 3.693143 1_555
Ba1 Hg52 3.693143 1_555
Ba1 Hg53 3.693158 1_555
Ba1 Hg6 3.803040 1_555
Ba1 Hg11 3.803040 1_555
Ba1 Hg7 3.803040 1_555
Ba1 Hg9 3.803040 1_555
Ba1 Hg8 3.803040 1_555
Ba1 Hg10 3.803040 1_555
Ba1 Hg93 3.818645 1_555
Ba1 Hg97 3.818645 1_555
Ba1 Hg92 3.818645 1_555
Ba1 Hg71 3.819641 1_555
Ba1 Hg70 3.819641 1_555
Ba1 Hg68 3.819641 1_555
Ba1 Hg28 3.871093 1_545
Ba1 Hg27 3.871093 1_545
Ba1 Hg29 3.871093 1_545
Ba2 Hg56 3.693143 1_555
Ba2 Hg55 3.693143 1_555
Ba2 Hg54 3.693158 1_555
Ba2 Hg13 3.803040 1_555
Ba2 Hg16 3.803040 1_555
Ba2 Hg14 3.803040 1_555
Ba2 Hg17 3.803040 1_555
Ba2 Hg15 3.803040 1_555
Ba2 Hg12 3.803040 1_555
Ba2 Hg94 3.818645 1_555
Ba2 Hg92 3.818645 1_555
Ba2 Hg96 3.818645 1_555
Ba2 Hg71 3.819641 1_555
Ba2 Hg68 3.819641 1_555
Ba2 Hg69 3.819641 1_555
Ba2 Hg31 3.871093 1_455
Ba2 Hg32 3.871093 1_455
Ba2 Hg30 3.871093 1_455
Ba3 Hg59 3.693151 1_555
Ba3 Hg58 3.693151 1_555
Ba3 Hg57 3.693151 1_555
Ba3 Hg18 3.803040 1_555
Ba3 Hg22 3.803040 1_555
Ba3 Hg19 3.803040 1_555
Ba3 Hg23 3.803040 1_555
Ba3 Hg20 3.803040 1_555
Ba3 Hg21 3.803040 1_555
Ba3 Hg95 3.818645 1_555
Ba3 Hg93 3.818645 1_555
Ba3 Hg94 3.818645 1_555
Ba3 Hg68 3.819641 1_555
Ba3 Hg69 3.819641 1_555
Ba3 Hg70 3.819641 1_555
Ba3 Hg33 3.871093 1_555
Ba3 Hg35 3.871093 1_555
Ba3 Hg34 3.871093 1_555
Ba4 Hg76 3.561973 1_555
Ba4 Hg31 3.611117 1_555
Ba4 Hg28 3.611117 1_555
Ba4 Hg29 3.611124 1_555
Ba4 Hg30 3.611124 1_555
Ba4 Hg33 3.611131 1_555
Ba4 Hg35 3.611131 1_555
Ba4 Hg46 3.678494 1_555
Ba4 Hg39 3.678505 1_555
Ba4 Hg44 3.678505 1_555
Ba4 Hg98 3.858484 1_555
Ba4 Hg7 4.044172 1_565
Ba4 Hg17 4.044172 1_655
Ba4 Hg12 4.044179 1_655
Ba4 Hg10 4.044179 1_565
Ba4 Hg21 4.044189 1_555
Ba4 Hg20 4.044189 1_555
Ba5 Hg77 3.561973 1_555
Ba5 Hg26 3.611117 1_555
Ba5 Hg32 3.611117 1_555
Ba5 Hg25 3.611124 1_555
Ba5 Hg30 3.611124 1_555
Ba5 Hg33 3.611131 1_555
Ba5 Hg34 3.611131 1_555
Ba5 Hg47 3.678494 1_555
Ba5 Hg43 3.678505 1_555
Ba5 Hg36 3.678505 1_555
Ba5 Hg98 3.858484 1_555
Ba5 Hg4 4.044172 1_556
Ba5 Hg14 4.044172 1_655
Ba5 Hg1 4.044179 1_556
Ba5 Hg15 4.044179 1_655
Ba5 Hg18 4.044189 1_555
Ba5 Hg23 4.044189 1_555
Ba6 Hg78 3.561973 1_555
Ba6 Hg27 3.611117 1_555
Ba6 Hg24 3.611117 1_555
Ba6 Hg25 3.611124 1_555
Ba6 Hg29 3.611124 1_555
Ba6 Hg34 3.611131 1_555
Ba6 Hg35 3.611131 1_555
Ba6 Hg45 3.678494 1_555
Ba6 Hg40 3.678505 1_555
Ba6 Hg38 3.678505 1_555
Ba6 Hg98 3.858484 1_555
Ba6 Hg0 4.044172 1_556
Ba6 Hg9 4.044172 1_565
Ba6 Hg5 4.044179 1_556
Ba6 Hg8 4.044179 1_565
Ba6 Hg19 4.044189 1_555
Ba6 Hg22 4.044189 1_555
Ba7 Hg79 3.561959 1_555
Ba7 Hg27 3.611132 1_555
Ba7 Hg24 3.611132 1_555
Ba7 Hg31 3.611132 1_555
Ba7 Hg28 3.611132 1_555
Ba7 Hg26 3.611132 1_555
Ba7 Hg32 3.611132 1_555
Ba7 Hg42 3.678492 1_555
Ba7 Hg37 3.678492 1_555
Ba7 Hg41 3.678492 1_555
Ba7 Hg98 3.858498 1_555
Ba7 Hg11 4.044177 1_565
Ba7 Hg3 4.044177 1_556
Ba7 Hg6 4.044177 1_565
Ba7 Hg13 4.044177 1_655
Ba7 Hg2 4.044177 1_556
Ba7 Hg16 4.044177 1_655
Ba8 Hg92 3.394223 1_555
Ba8 Hg15 3.653029 1_555
Ba8 Hg9 3.653029 1_555
Ba8 Hg14 3.653029 1_555
Ba8 Hg8 3.653029 1_555
Ba8 Hg78 3.671432 1_545
Ba8 Hg77 3.671432 1_455
Ba8 Hg75 3.672850 1_556
Ba8 Hg72 3.672858 1_555
Ba8 Hg81 3.674359 1_555
Ba8 Hg90 3.674375 1_555
Ba8 Hg45 3.680279 1_545
Ba8 Hg47 3.680279 1_455
Ba8 Hg36 3.680279 1_455
Ba8 Hg38 3.680279 1_545
Ba9 Hg93 3.394223 1_555
Ba9 Hg18 3.653029 1_555
Ba9 Hg23 3.653029 1_555
Ba9 Hg11 3.653029 1_555
Ba9 Hg6 3.653029 1_555
Ba9 Hg77 3.671432 1_555
Ba9 Hg79 3.671432 1_545
Ba9 Hg72 3.672843 1_655
Ba9 Hg74 3.672843 1_556
Ba9 Hg82 3.674362 1_555
Ba9 Hg88 3.674362 1_555
Ba9 Hg43 3.680279 1_555
Ba9 Hg36 3.680279 1_555
Ba9 Hg37 3.680279 1_545
Ba9 Hg42 3.680279 1_545
Ba10 Hg94 3.394223 1_555
Ba10 Hg22 3.653029 1_555
Ba10 Hg13 3.653029 1_555
Ba10 Hg16 3.653029 1_555
Ba10 Hg19 3.653029 1_555
Ba10 Hg79 3.671432 1_455
Ba10 Hg78 3.671432 1_555
Ba10 Hg72 3.672843 1_565
Ba10 Hg73 3.672843 1_556
Ba10 Hg83 3.674362 1_555
Ba10 Hg80 3.674362 1_555
Ba10 Hg38 3.680279 1_555
Ba10 Hg40 3.680279 1_555
Ba10 Hg37 3.680279 1_455
Ba10 Hg41 3.680279 1_455
Ba11 Hg95 3.394223 1_555
Ba11 Hg21 3.653029 1_555
Ba11 Hg20 3.653029 1_555
Ba11 Hg3 3.653029 1_555
Ba11 Hg2 3.653029 1_555
Ba11 Hg76 3.671432 1_555
Ba11 Hg79 3.671432 1_554
Ba11 Hg73 3.672843 1_655
Ba11 Hg74 3.672843 1_565
Ba11 Hg84 3.674362 1_555
Ba11 Hg87 3.674362 1_555
Ba11 Hg44 3.680279 1_555
Ba11 Hg39 3.680279 1_555
Ba11 Hg41 3.680279 1_554
Ba11 Hg42 3.680279 1_554
Ba12 Hg96 3.394223 1_555
Ba12 Hg17 3.653029 1_555
Ba12 Hg12 3.653029 1_555
Ba12 Hg0 3.653029 1_555
Ba12 Hg5 3.653029 1_555
Ba12 Hg78 3.671432 1_554
Ba12 Hg76 3.671432 1_455
Ba12 Hg75 3.672850 1_565
Ba12 Hg73 3.672858 1_555
Ba12 Hg85 3.674359 1_555
Ba12 Hg91 3.674375 1_555
Ba12 Hg45 3.680279 1_554
Ba12 Hg46 3.680279 1_455
Ba12 Hg39 3.680279 1_455
Ba12 Hg40 3.680279 1_554
Ba13 Hg97 3.394223 1_555
Ba13 Hg7 3.653029 1_555
Ba13 Hg4 3.653029 1_555
Ba13 Hg1 3.653029 1_555
Ba13 Hg10 3.653029 1_555
Ba13 Hg77 3.671432 1_554
Ba13 Hg76 3.671432 1_545
Ba13 Hg75 3.672850 1_655
Ba13 Hg74 3.672858 1_555
Ba13 Hg86 3.674359 1_555
Ba13 Hg89 3.674375 1_555
Ba13 Hg46 3.680279 1_545
Ba13 Hg47 3.680279 1_554
Ba13 Hg43 3.680279 1_554
Ba13 Hg44 3.680279 1_545
Ba14 Hg17 3.771980 1_545
Ba14 Hg7 3.771980 1_455
Ba14 Hg11 3.771980 1_455
Ba14 Hg13 3.771980 1_545
Ba14 Hg89 3.821629 1_455
Ba14 Hg91 3.821629 1_545
Ba14 Hg80 3.821642 1_545
Ba14 Hg82 3.821642 1_455
Ba14 Hg37 3.844560 1_445
Ba14 Hg46 3.844560 1_445
Ba14 Hg55 3.866035 1_545
Ba14 Hg52 3.866035 1_455
Ba14 Hg65 3.891349 1_555
Ba14 Hg66 3.891349 1_555
Ba14 Hg60 3.919934 1_555
Ba14 Hg63 3.919934 1_555
Ba15 Hg22 3.771980 1_545
Ba15 Hg20 3.771980 1_545
Ba15 Hg8 3.771980 1_555
Ba15 Hg10 3.771980 1_555
Ba15 Hg87 3.821627 1_545
Ba15 Hg80 3.821627 1_545
Ba15 Hg86 3.821638 1_555
Ba15 Hg81 3.821638 1_555
Ba15 Hg38 3.844560 1_545
Ba15 Hg44 3.844560 1_545
Ba15 Hg53 3.866025 1_555
Ba15 Hg59 3.866043 1_545
Ba15 Hg65 3.891334 1_555
Ba15 Hg67 3.891345 1_555
Ba15 Hg60 3.919934 1_555
Ba15 Hg62 3.919934 1_555
Ba16 Hg18 3.771980 1_455
Ba16 Hg21 3.771980 1_455
Ba16 Hg12 3.771980 1_555
Ba16 Hg15 3.771980 1_555
Ba16 Hg84 3.821627 1_455
Ba16 Hg82 3.821627 1_455
Ba16 Hg85 3.821638 1_555
Ba16 Hg81 3.821638 1_555
Ba16 Hg36 3.844560 1_455
Ba16 Hg39 3.844560 1_455
Ba16 Hg54 3.866025 1_555
Ba16 Hg57 3.866043 1_455
Ba16 Hg66 3.891334 1_555
Ba16 Hg67 3.891345 1_555
Ba16 Hg61 3.919934 1_555
Ba16 Hg60 3.919934 1_555
Ba17 Hg23 3.771980 1_554
Ba17 Hg19 3.771980 1_554
Ba17 Hg5 3.771980 1_555
Ba17 Hg1 3.771980 1_555
Ba17 Hg83 3.821627 1_554
Ba17 Hg88 3.821627 1_554
Ba17 Hg86 3.821638 1_555
Ba17 Hg85 3.821638 1_555
Ba17 Hg43 3.844560 1_554
Ba17 Hg40 3.844560 1_554
Ba17 Hg49 3.866025 1_555
Ba17 Hg58 3.866043 1_554
Ba17 Hg64 3.891334 1_555
Ba17 Hg67 3.891345 1_555
Ba17 Hg61 3.919934 1_555
Ba17 Hg62 3.919934 1_555
Ba18 Hg14 3.771980 1_554
Ba18 Hg4 3.771980 1_455
Ba18 Hg16 3.771980 1_554
Ba18 Hg2 3.771980 1_455
Ba18 Hg90 3.821629 1_554
Ba18 Hg89 3.821629 1_455
Ba18 Hg83 3.821642 1_554
Ba18 Hg84 3.821642 1_455
Ba18 Hg41 3.844560 1_454
Ba18 Hg47 3.844560 1_454
Ba18 Hg50 3.866035 1_455
Ba18 Hg56 3.866035 1_554
Ba18 Hg66 3.891349 1_555
Ba18 Hg64 3.891349 1_555
Ba18 Hg61 3.919934 1_555
Ba18 Hg63 3.919934 1_555
Ba19 Hg0 3.771980 1_545
Ba19 Hg9 3.771980 1_554
Ba19 Hg3 3.771980 1_545
Ba19 Hg6 3.771980 1_554
Ba19 Hg90 3.821629 1_554
Ba19 Hg91 3.821629 1_545
Ba19 Hg87 3.821642 1_545
Ba19 Hg88 3.821642 1_554
Ba19 Hg42 3.844560 1_544
Ba19 Hg45 3.844560 1_544
Ba19 Hg48 3.866035 1_545
Ba19 Hg51 3.866035 1_554
Ba19 Hg65 3.891349 1_555
Ba19 Hg64 3.891349 1_555
Ba19 Hg62 3.919934 1_555
Ba19 Hg63 3.919934 1_555
Hg0 Hg45 2.950244 1_554
Hg0 Hg24 2.982788 1_554
Hg0 Hg5 3.067856 1_555
Hg0 Hg48 3.086061 1_555
Hg0 Hg91 3.316093 1_555
Hg1 Hg43 2.950244 1_554
Hg1 Hg25 2.982788 1_554
Hg1 Hg4 3.067856 1_555
Hg1 Hg49 3.086070 1_555
Hg1 Hg86 3.316083 1_555
Hg2 Hg41 2.950244 1_554
Hg2 Hg26 2.982788 1_554
Hg2 Hg3 3.067856 1_555
Hg2 Hg50 3.086072 1_555
Hg2 Hg84 3.316097 1_555
Hg3 Hg42 2.950244 1_554
Hg3 Hg48 3.086072 1_555
Hg3 Hg87 3.316097 1_555
Hg4 Hg47 2.950244 1_554
Hg4 Hg50 3.086061 1_555
Hg4 Hg89 3.316093 1_555
Hg5 Hg85 3.316083 1_555
Hg6 Hg88 3.316097 1_555
Hg7 Hg89 3.316093 1_555
Hg8 Hg9 3.067856 1_555
Hg8 Hg81 3.316083 1_555
Hg9 Hg90 3.316093 1_555
Hg10 Hg44 2.950244 1_545
Hg10 Hg29 2.982788 1_545
Hg10 Hg7 3.067856 1_555
Hg10 Hg53 3.086070 1_555
Hg10 Hg86 3.316083 1_555
Hg11 Hg37 2.950244 1_545
Hg11 Hg28 2.982788 1_545
Hg11 Hg6 3.067856 1_555
Hg11 Hg52 3.086072 1_555
Hg11 Hg82 3.316097 1_555
Hg12 Hg39 2.950244 1_455
Hg12 Hg30 2.982788 1_455
Hg12 Hg17 3.067856 1_555
Hg12 Hg54 3.086070 1_555
Hg12 Hg85 3.316083 1_555
Hg13 Hg37 2.950244 1_455
Hg13 Hg31 2.982788 1_455
Hg13 Hg16 3.067856 1_555
Hg13 Hg55 3.086072 1_555
Hg13 Hg80 3.316097 1_555
Hg14 Hg47 2.950244 1_455
Hg14 Hg32 2.982788 1_455
Hg14 Hg15 3.067856 1_555
Hg14 Hg56 3.086061 1_555
Hg14 Hg90 3.316093 1_555
Hg15 Hg36 2.950244 1_455
Hg15 Hg30 2.982788 1_455
Hg15 Hg54 3.086070 1_555
Hg15 Hg81 3.316083 1_555
Hg16 Hg41 2.950244 1_455
Hg16 Hg32 2.982788 1_455
Hg16 Hg56 3.086072 1_555
Hg16 Hg83 3.316097 1_555
Hg17 Hg46 2.950244 1_455
Hg17 Hg31 2.982788 1_455
Hg17 Hg55 3.086061 1_555
Hg17 Hg91 3.316093 1_555
Hg18 Hg36 2.950244 1_555
Hg18 Hg33 2.982788 1_555
Hg18 Hg23 3.067856 1_555
Hg18 Hg57 3.086078 1_555
Hg18 Hg82 3.316083 1_555
Hg19 Hg40 2.950244 1_555
Hg19 Hg34 2.982788 1_555
Hg19 Hg22 3.067856 1_555
Hg19 Hg58 3.086078 1_555
Hg19 Hg83 3.316083 1_555
Hg20 Hg44 2.950244 1_555
Hg20 Hg35 2.982788 1_555
Hg20 Hg21 3.067856 1_555
Hg20 Hg59 3.086078 1_555
Hg20 Hg87 3.316083 1_555
Hg21 Hg39 2.950244 1_555
Hg21 Hg33 2.982788 1_555
Hg21 Hg57 3.086078 1_555
Hg21 Hg84 3.316083 1_555
Hg22 Hg38 2.950244 1_555
Hg22 Hg35 2.982788 1_555
Hg22 Hg59 3.086078 1_555
Hg22 Hg80 3.316083 1_555
Hg23 Hg43 2.950244 1_555
Hg23 Hg34 2.982788 1_555
Hg23 Hg58 3.086078 1_555
Hg23 Hg88 3.316083 1_555
Hg24 Hg27 2.961721 1_555
Hg24 Hg3 2.982788 1_556
Hg24 Hg25 3.027519 1_555
Hg24 Hg26 3.027519 1_555
Hg25 Hg34 2.961721 1_555
Hg25 Hg5 2.982788 1_556
Hg25 Hg26 3.027519 1_555
Hg26 Hg32 2.961721 1_555
Hg26 Hg4 2.982788 1_556
Hg27 Hg9 2.982788 1_565
Hg27 Hg6 2.982788 1_565
Hg27 Hg28 3.027519 1_555
Hg27 Hg29 3.027519 1_555
Hg28 Hg31 2.961721 1_555
Hg28 Hg7 2.982788 1_565
Hg28 Hg29 3.027519 1_555
Hg29 Hg35 2.961721 1_555
Hg29 Hg8 2.982788 1_565
Hg30 Hg33 2.961721 1_555
Hg30 Hg31 3.027519 1_555
Hg30 Hg32 3.027519 1_555
Hg31 Hg32 3.027519 1_555
Hg33 Hg34 3.027519 1_555
Hg33 Hg35 3.027519 1_555
Hg34 Hg35 3.027519 1_555
Hg36 Hg77 2.991293 1_555
Hg36 Hg99 3.279620 1_655
Hg37 Hg79 2.991293 1_555
Hg37 Hg99 3.279634 1_665
Hg38 Hg8 2.950244 1_565
Hg38 Hg78 2.991293 1_555
Hg38 Hg99 3.279620 1_565
Hg39 Hg76 2.991293 1_555
Hg40 Hg5 2.950244 1_556
Hg40 Hg78 2.991293 1_555
Hg41 Hg79 2.991293 1_555
Hg42 Hg6 2.950244 1_565
Hg42 Hg79 2.991293 1_555
Hg43 Hg77 2.991293 1_555
Hg44 Hg76 2.991293 1_555
Hg45 Hg9 2.950244 1_565
Hg45 Hg78 2.991293 1_555
Hg46 Hg7 2.950244 1_565
Hg46 Hg76 2.991293 1_555
Hg47 Hg77 2.991293 1_555
Hg48 Hg69 3.151078 1_555
Hg48 Hg55 3.187253 1_555
Hg48 Hg59 3.187253 1_555
Hg48 Hg91 3.355759 1_555
Hg48 Hg87 3.355787 1_555
Hg48 Hg65 3.360353 1_565
Hg49 Hg5 3.086070 1_555
Hg49 Hg71 3.151087 1_555
Hg49 Hg54 3.187253 1_555
Hg49 Hg53 3.187253 1_555
Hg49 Hg86 3.355756 1_555
Hg49 Hg85 3.355756 1_555
Hg49 Hg67 3.360324 1_555
Hg50 Hg70 3.151078 1_555
Hg50 Hg57 3.187253 1_555
Hg50 Hg52 3.187253 1_555
Hg50 Hg89 3.355759 1_555
Hg50 Hg84 3.355787 1_555
Hg50 Hg66 3.360353 1_655
Hg51 Hg9 3.086061 1_555
Hg51 Hg6 3.086072 1_555
Hg51 Hg68 3.151078 1_555
Hg51 Hg58 3.187253 1_555
Hg51 Hg56 3.187253 1_555
Hg51 Hg90 3.355759 1_555
Hg51 Hg88 3.355787 1_555
Hg51 Hg64 3.360353 1_556
Hg52 Hg7 3.086061 1_555
Hg52 Hg70 3.151078 1_555
Hg52 Hg57 3.187253 1_555
Hg52 Hg89 3.355759 1_555
Hg52 Hg82 3.355787 1_555
Hg52 Hg66 3.360353 1_655
Hg53 Hg8 3.086070 1_555
Hg53 Hg71 3.151087 1_555
Hg53 Hg54 3.187253 1_555
Hg53 Hg86 3.355756 1_555
Hg53 Hg81 3.355756 1_555
Hg53 Hg67 3.360324 1_555
Hg54 Hg71 3.151087 1_555
Hg54 Hg81 3.355756 1_555
Hg54 Hg85 3.355756 1_555
Hg54 Hg67 3.360324 1_555
Hg55 Hg69 3.151078 1_555
Hg55 Hg59 3.187253 1_555
Hg55 Hg91 3.355759 1_555
Hg55 Hg80 3.355787 1_555
Hg55 Hg65 3.360353 1_565
Hg56 Hg68 3.151078 1_555
Hg56 Hg58 3.187253 1_555
Hg56 Hg90 3.355759 1_555
Hg56 Hg83 3.355787 1_555
Hg56 Hg64 3.360353 1_556
Hg57 Hg70 3.151070 1_555
Hg57 Hg84 3.355771 1_555
Hg57 Hg82 3.355771 1_555
Hg57 Hg66 3.360337 1_655
Hg58 Hg68 3.151070 1_555
Hg58 Hg83 3.355771 1_555
Hg58 Hg88 3.355771 1_555
Hg58 Hg64 3.360337 1_556
Hg59 Hg69 3.151070 1_555
Hg59 Hg80 3.355771 1_555
Hg59 Hg87 3.355771 1_555
Hg59 Hg65 3.360337 1_565
Hg60 Hg65 3.185668 1_555
Hg60 Hg66 3.185668 1_555
Hg60 Hg67 3.185682 1_555
Hg60 Hg99 3.256734 1_555
Hg60 Hg62 3.353764 1_555
Hg60 Hg63 3.353764 1_555
Hg60 Hg61 3.353764 1_555
Hg61 Hg64 3.185668 1_555
Hg61 Hg66 3.185668 1_555
Hg61 Hg67 3.185682 1_555
Hg61 Hg62 3.353764 1_555
Hg61 Hg63 3.353764 1_555
Hg62 Hg64 3.185668 1_555
Hg62 Hg65 3.185668 1_555
Hg62 Hg67 3.185682 1_555
Hg62 Hg63 3.353764 1_555
Hg63 Hg64 3.185677 1_555
Hg63 Hg65 3.185677 1_555
Hg63 Hg66 3.185677 1_555
Hg64 Hg90 3.289419 1_554
Hg64 Hg88 3.289419 1_554
Hg64 Hg83 3.289419 1_554
Hg65 Hg91 3.289419 1_545
Hg65 Hg87 3.289419 1_545
Hg65 Hg80 3.289419 1_545
Hg66 Hg89 3.289419 1_455
Hg66 Hg82 3.289419 1_455
Hg66 Hg84 3.289419 1_455
Hg67 Hg81 3.289419 1_555
Hg67 Hg85 3.289419 1_555
Hg67 Hg86 3.289419 1_555
Hg68 Hg71 3.139779 1_555
Hg68 Hg69 3.139779 1_555
Hg68 Hg70 3.139779 1_555
Hg69 Hg71 3.139779 1_555
Hg69 Hg70 3.139779 1_555
Hg70 Hg71 3.139779 1_555
Hg72 Hg79 3.081881 1_445
Hg72 Hg78 3.081895 1_545
Hg72 Hg77 3.081895 1_455
Hg72 Hg99 3.151626 1_555
Hg73 Hg79 3.081881 1_454
Hg73 Hg78 3.081895 1_554
Hg73 Hg76 3.081895 1_455
Hg74 Hg79 3.081881 1_544
Hg74 Hg77 3.081895 1_554
Hg74 Hg76 3.081895 1_545
Hg75 Hg78 3.081886 1_544
Hg75 Hg76 3.081886 1_445
Hg75 Hg77 3.081886 1_454
Hg80 Hg99 2.975714 1_565
Hg81 Hg99 2.975714 1_555
Hg82 Hg99 2.975714 1_655
Hg100 Hg83 2.975714 1_554
Hg100 Hg85 2.975714 1_555
Hg100 Hg84 2.975714 1_455
Hg100 Hg73 3.151626 1_555
Hg100 Hg61 3.256734 1_555
Hg100 Hg39 3.279620 1_455
Hg100 Hg40 3.279620 1_554
Hg100 Hg41 3.279634 1_454
Hg101 Hg88 2.975714 1_554
Hg101 Hg86 2.975714 1_555
Hg101 Hg87 2.975714 1_545
Hg101 Hg74 3.151626 1_555
Hg101 Hg62 3.256734 1_555
Hg101 Hg43 3.279620 1_554
Hg101 Hg44 3.279620 1_545
Hg101 Hg42 3.279634 1_544
Hg102 Hg90 2.975714 1_554
Hg102 Hg91 2.975714 1_545
Hg102 Hg89 2.975714 1_455
Hg102 Hg75 3.151654 1_555
Hg102 Hg63 3.256720 1_555
Hg102 Hg45 3.279630 1_544
Hg102 Hg47 3.279630 1_454
Hg102 Hg46 3.279630 1_445
