# generated using pymatgen
data_V3NO8
_symmetry_space_group_name_H-M   'P 1'
_cell_length_a   5.20300408
_cell_length_b   7.96248158
_cell_length_c   8.62743700
_cell_angle_alpha   90.00000000
_cell_angle_beta   90.00000000
_cell_angle_gamma   97.48149249
_symmetry_Int_Tables_number   1
_chemical_formula_structural   V3NO8
_chemical_formula_sum   'V6 N2 O16'
_cell_volume   354.38180506
_cell_formula_units_Z   2
loop_
 _symmetry_equiv_pos_site_id
 _symmetry_equiv_pos_as_xyz
  1  'x, y, z'
loop_
 _atom_site_type_symbol
 _atom_site_label
 _atom_site_symmetry_multiplicity
 _atom_site_fract_x
 _atom_site_fract_y
 _atom_site_fract_z
 _atom_site_occupancy
  V  V0  1  0.43898200  0.67923500  0.44825700  1
  V  V1  1  0.56101800  0.32076500  0.94825700  1
  V  V2  1  0.56101800  0.32076500  0.55174300  1
  V  V3  1  0.43898200  0.67923500  0.05174300  1
  V  V4  1  0.93574200  0.57887100  0.25000000  1
  V  V5  1  0.06425800  0.42112900  0.75000000  1
  N  N0  1  0.94385000  0.05958700  0.25000000  1
  N  N1  1  0.05615000  0.94041300  0.75000000  1
  O  O0  1  0.68317200  0.50673200  0.41314100  1
  O  O1  1  0.31682800  0.49326800  0.91314100  1
  O  O2  1  0.31682800  0.49326800  0.58685900  1
  O  O3  1  0.68317200  0.50673200  0.08685900  1
  O  O4  1  0.43758400  0.17159400  0.43724400  1
  O  O5  1  0.56241600  0.82840600  0.93724400  1
  O  O6  1  0.56241600  0.82840600  0.56275600  1
  O  O7  1  0.43758400  0.17159400  0.06275600  1
  O  O8  1  0.11333800  0.72072400  0.39999200  1
  O  O9  1  0.88666200  0.27927600  0.89999200  1
  O  O10  1  0.88666200  0.27927600  0.60000800  1
  O  O11  1  0.11333800  0.72072400  0.10000800  1
  O  O12  1  0.11140400  0.42476500  0.25000000  1
  O  O13  1  0.88859600  0.57523500  0.75000000  1
  O  O14  1  0.57661200  0.74522800  0.25000000  1
  O  O15  1  0.42338800  0.25477200  0.75000000  1
loop_
_geom_bond_atom_site_label_1
_geom_bond_atom_site_label_2
_geom_bond_distance
_geom_bond_site_symmetry_2
O0 V2 1.944583 1_555
O0 V4 1.959927 1_555
O0 V0 2.011742 1_555
O1 V3 1.944583 1_556
O1 V5 1.959927 1_555
O1 V1 2.011742 1_555
O2 V0 1.944583 1_555
O2 V5 1.959927 1_555
O2 V2 2.011742 1_555
O3 V1 1.944583 1_554
O3 V4 1.959927 1_555
O3 V3 2.011742 1_555
O4 V2 1.612583 1_555
O5 V3 1.612583 1_556
O6 V0 1.612583 1_555
O7 V1 1.612583 1_554
O8 V0 1.816323 1_555
O8 V4 1.879462 1_455
O9 V1 1.816323 1_555
O9 V5 1.879462 1_655
O10 V2 1.816323 1_555
O10 V5 1.879462 1_655
O11 V3 1.816323 1_555
O11 V4 1.879462 1_455
O12 V4 1.622678 1_455
O13 V5 1.622678 1_655
O14 V0 1.901723 1_555
O14 V3 1.901723 1_555
O14 V4 2.427066 1_555
O15 V1 1.901723 1_555
O15 V2 1.901723 1_555
O15 V5 2.427066 1_555
