# generated using pymatgen
data_NdSi3Ir
_symmetry_space_group_name_H-M   'P 1'
_cell_length_a   5.75777727
_cell_length_b   5.75777727
_cell_length_c   5.75777727
_cell_angle_alpha   136.72498670
_cell_angle_beta   136.72498670
_cell_angle_gamma   62.86146372
_symmetry_Int_Tables_number   1
_chemical_formula_structural   NdSi3Ir
_chemical_formula_sum   'Nd1 Si3 Ir1'
_cell_volume   88.58005886
_cell_formula_units_Z   1
loop_
 _symmetry_equiv_pos_site_id
 _symmetry_equiv_pos_as_xyz
  1  'x, y, z'
loop_
 _atom_site_type_symbol
 _atom_site_label
 _atom_site_symmetry_multiplicity
 _atom_site_fract_x
 _atom_site_fract_y
 _atom_site_fract_z
 _atom_site_occupancy
  Nd  Nd0  1  0.99916600  0.99916600  -0.00000000  1
  Si  Si0  1  0.41376786  0.41376786  0.00000000  1
  Si  Si1  1  0.26341248  0.76341248  0.50000000  1
  Si  Si2  1  0.76341248  0.26341248  0.50000000  1
  Ir  Ir0  1  0.65424219  0.65424219  0.00000000  1
loop_
_geom_bond_atom_site_label_1
_geom_bond_atom_site_label_2
_geom_bond_distance
_geom_bond_site_symmetry_2
Nd0 Si0 3.117543 1_655
Nd0 Si0 3.117543 1_666
Nd0 Si0 3.117543 1_565
Nd0 Si0 3.117543 1_554
Nd0 Si1 3.142229 1_655
Nd0 Si2 3.142229 1_565
Nd0 Si2 3.142229 1_554
Nd0 Si1 3.142229 1_554
Nd0 Si2 3.353964 1_665
Nd0 Si1 3.353964 1_665
Nd0 Si2 3.353964 1_564
Nd0 Si1 3.353964 1_654
Si0 Si2 2.586527 1_555
Si0 Si2 2.586527 1_454
Si0 Si1 2.586527 1_544
Si0 Si1 2.586527 1_555
Ir0 Si0 2.362875 1_555
Ir0 Si1 2.378688 1_655
Ir0 Si1 2.378688 1_554
Ir0 Si2 2.378688 1_565
Ir0 Si2 2.378688 1_554
Ir0 Nd0 3.367019 1_455
Ir0 Nd0 3.367019 1_556
Ir0 Nd0 3.367019 1_545
Ir0 Nd0 3.367019 1_444
Ir0 Nd0 3.389184 1_555
