# generated using pymatgen
data_K2Ca3Si3O10
_symmetry_space_group_name_H-M   'P 1'
_cell_length_a   5.72403900
_cell_length_b   7.48650849
_cell_length_c   12.06384135
_cell_angle_alpha   85.42372650
_cell_angle_beta   80.47258053
_cell_angle_gamma   88.32354067
_symmetry_Int_Tables_number   1
_chemical_formula_structural   K2Ca3Si3O10
_chemical_formula_sum   'K4 Ca6 Si6 O20'
_cell_volume   508.14863000
_cell_formula_units_Z   2
loop_
 _symmetry_equiv_pos_site_id
 _symmetry_equiv_pos_as_xyz
  1  'x, y, z'
loop_
 _atom_site_type_symbol
 _atom_site_label
 _atom_site_symmetry_multiplicity
 _atom_site_fract_x
 _atom_site_fract_y
 _atom_site_fract_z
 _atom_site_occupancy
  K  K0  1  0.72068900  0.96020700  0.62576500  1
  K  K1  1  0.27931100  0.03979300  0.37423500  1
  K  K2  1  0.16732600  0.93866900  0.84849600  1
  K  K3  1  0.83267400  0.06133100  0.15150400  1
  Ca  Ca0  1  0.20677700  0.24440600  0.62305300  1
  Ca  Ca1  1  0.79322300  0.75559400  0.37694700  1
  Ca  Ca2  1  0.16903200  0.47011900  0.86021400  1
  Ca  Ca3  1  0.83096800  0.52988100  0.13978600  1
  Ca  Ca4  1  0.72805700  0.49579600  0.66022100  1
  Ca  Ca5  1  0.27194300  0.50420400  0.33977900  1
  Si  Si0  1  0.24906700  0.72876200  0.57831500  1
  Si  Si1  1  0.75093300  0.27123800  0.42168500  1
  Si  Si2  1  0.65803200  0.18531000  0.84999000  1
  Si  Si3  1  0.34196800  0.81469000  0.15001000  1
  Si  Si4  1  0.36373300  0.25473500  0.08926600  1
  Si  Si5  1  0.63626700  0.74526500  0.91073400  1
  O  O0  1  0.21160300  0.93270200  0.62273400  1
  O  O1  1  0.78839700  0.06729800  0.37726600  1
  O  O2  1  0.46268100  0.31122800  0.45839900  1
  O  O3  1  0.53731900  0.68877200  0.54160100  1
  O  O4  1  0.12861300  0.56997700  0.67364400  1
  O  O5  1  0.87138700  0.43002300  0.32635600  1
  O  O6  1  0.88399000  0.28453100  0.53326900  1
  O  O7  1  0.11601000  0.71546900  0.46673100  1
  O  O8  1  0.91701700  0.26153400  0.79576200  1
  O  O9  1  0.08298300  0.73846600  0.20423800  1
  O  O10  1  0.46152300  0.25010000  0.77010900  1
  O  O11  1  0.53847700  0.74990000  0.22989100  1
  O  O12  1  0.58055500  0.24921500  0.97890300  1
  O  O13  1  0.41944500  0.75078500  0.02109700  1
  O  O14  1  0.32335900  0.03821900  0.13753300  1
  O  O15  1  0.67664100  0.96178100  0.86246700  1
  O  O16  1  0.53098900  0.64571600  0.81635500  1
  O  O17  1  0.46901100  0.35428400  0.18364500  1
  O  O18  1  0.12194700  0.33339700  0.04980900  1
  O  O19  1  0.87805300  0.66660300  0.95019100  1
loop_
_geom_bond_atom_site_label_1
_geom_bond_atom_site_label_2
_geom_bond_distance
_geom_bond_site_symmetry_2
K0 O3 2.658737 1_555
K0 O6 2.714682 1_565
K0 O0 2.805928 1_655
K0 O15 2.825712 1_555
K0 O0 2.933749 1_555
K0 O1 3.005019 1_565
K0 O10 3.082636 1_565
K0 O16 3.235470 1_555
K0 O7 3.322581 1_655
K1 O2 2.658737 1_555
K1 O7 2.714682 1_545
K1 O1 2.805928 1_455
K1 O14 2.825712 1_555
K1 O1 2.933749 1_555
K1 O0 3.005019 1_545
K1 O11 3.082636 1_545
K1 O17 3.235470 1_555
K1 O6 3.322581 1_455
K2 O0 2.697080 1_555
K2 O19 2.742552 1_455
K2 O15 2.786871 1_455
K2 O8 2.855490 1_465
K2 O10 2.918366 1_565
K2 O15 2.958779 1_555
K2 O13 2.967400 1_556
K2 O16 2.982445 1_555
K3 O1 2.697080 1_555
K3 O18 2.742552 1_655
K3 O14 2.786871 1_655
K3 O9 2.855490 1_645
K3 O11 2.918366 1_545
K3 O14 2.958779 1_555
K3 O12 2.967400 1_554
K3 O17 2.982445 1_555
Ca0 O6 2.292449 1_455
Ca0 O2 2.294046 1_555
Ca0 O0 2.333233 1_545
Ca0 O8 2.448409 1_455
Ca0 O10 2.479405 1_555
Ca0 O4 2.568408 1_555
Ca1 O7 2.292449 1_655
Ca1 O3 2.294046 1_555
Ca1 O1 2.333233 1_565
Ca1 O9 2.448409 1_655
Ca1 O11 2.479405 1_555
Ca1 O5 2.568408 1_555
Ca2 O4 2.360520 1_555
Ca2 O19 2.372573 1_455
Ca2 O18 2.406306 1_556
Ca2 O8 2.412648 1_455
Ca2 O16 2.446674 1_555
Ca2 O10 2.493936 1_555
Ca3 O5 2.360520 1_555
Ca3 O18 2.372573 1_655
Ca3 O19 2.406306 1_554
Ca3 O9 2.412648 1_655
Ca3 O17 2.446674 1_555
Ca3 O11 2.493936 1_555
Ca4 O3 2.328524 1_555
Ca4 O6 2.344193 1_555
Ca4 O16 2.374854 1_555
Ca4 O4 2.409010 1_655
Ca4 O10 2.563979 1_555
Ca4 O8 2.633684 1_555
Ca5 O2 2.328524 1_555
Ca5 O7 2.344193 1_555
Ca5 O17 2.374854 1_555
Ca5 O5 2.409010 1_455
Ca5 O11 2.563979 1_555
Ca5 O9 2.633684 1_555
O0 Si0 1.654572 1_555
O1 Si1 1.654572 1_555
O2 Si1 1.660881 1_555
O3 Si0 1.660881 1_555
O4 Si0 1.666852 1_555
O5 Si1 1.666852 1_555
O6 Si1 1.663506 1_555
O7 Si0 1.663506 1_555
O8 Si2 1.618681 1_555
O9 Si3 1.618681 1_555
O10 Si2 1.637526 1_555
O11 Si3 1.637526 1_555
O12 Si2 1.649899 1_555
O12 Si4 1.665362 1_556
O13 Si3 1.649899 1_555
O13 Si5 1.665362 1_554
O14 Si3 1.670068 1_545
O14 Si4 1.687216 1_555
O15 Si2 1.670068 1_565
O15 Si5 1.687216 1_555
O16 Si5 1.613612 1_555
O17 Si4 1.613612 1_555
O18 Si4 1.616937 1_555
O19 Si5 1.616937 1_555
