# generated using pymatgen
data_Hf8Mg(N2O)4
_symmetry_space_group_name_H-M   'P 1'
_cell_length_a   5.49100776
_cell_length_b   5.47178662
_cell_length_c   10.66563833
_cell_angle_alpha   90.78655658
_cell_angle_beta   76.60930870
_cell_angle_gamma   59.06750196
_symmetry_Int_Tables_number   1
_chemical_formula_structural   Hf8Mg(N2O)4
_chemical_formula_sum   'Hf8 Mg1 N8 O4'
_cell_volume   263.99888275
_cell_formula_units_Z   1
loop_
 _symmetry_equiv_pos_site_id
 _symmetry_equiv_pos_as_xyz
  1  'x, y, z'
loop_
 _atom_site_type_symbol
 _atom_site_label
 _atom_site_symmetry_multiplicity
 _atom_site_fract_x
 _atom_site_fract_y
 _atom_site_fract_z
 _atom_site_occupancy
  Hf  Hf0  1  0.15552500  0.41095400  0.24555900  1
  Hf  Hf1  1  0.12116800  0.91815800  0.77774700  1
  Hf  Hf2  1  0.35662200  0.35088000  0.96041600  1
  Hf  Hf3  1  0.64815500  0.19710600  0.53833500  1
  Hf  Hf4  1  0.36933500  0.82479000  0.46304400  1
  Hf  Hf5  1  0.81582500  0.08948400  0.22655300  1
  Hf  Hf6  1  0.63133600  0.68641700  0.03946700  1
  Hf  Hf7  1  0.82530000  0.58437900  0.75469800  1
  Mg  Mg0  1  0.02657600  0.48759900  0.50027400  1
  N  N0  1  0.44331900  0.13309700  0.37746300  1
  N  N1  1  0.55053100  0.36858400  0.12061300  1
  N  N2  1  0.24591100  0.56919400  0.62627700  1
  N  N3  1  0.77522100  0.41513000  0.38551800  1
  N  N4  1  0.43651600  0.64461900  0.87711800  1
  N  N5  1  0.94331900  0.68702900  0.12141700  1
  N  N6  1  0.97535000  0.18610600  0.62004500  1
  N  N7  1  0.74461000  0.93932200  0.88110400  1
  O  O0  1  0.23080400  0.05797100  0.12979700  1
  O  O1  1  0.07185600  0.78367700  0.38228600  1
  O  O2  1  0.04622700  0.31441200  0.88216500  1
  O  O3  1  0.60788100  0.84623600  0.60912500  1
loop_
_geom_bond_atom_site_label_1
_geom_bond_atom_site_label_2
_geom_bond_distance
_geom_bond_site_symmetry_2
Hf0 O0 2.074401 1_555
Hf0 N5 2.086329 1_455
Hf0 N1 2.160992 1_555
Hf0 N3 2.257386 1_455
Hf0 O1 2.267556 1_555
Hf0 N0 2.325180 1_555
Hf1 N7 2.049029 1_455
Hf1 N4 2.142674 1_555
Hf1 N2 2.187071 1_555
Hf1 O2 2.216974 1_565
Hf1 N6 2.259300 1_465
Hf1 O3 2.684190 1_555
Hf2 N4 2.036828 1_555
Hf2 N7 2.122822 1_545
Hf2 O2 2.155276 1_555
Hf2 N1 2.237531 1_556
Hf2 N5 2.301981 1_456
Hf2 O0 2.636182 1_556
Hf3 N2 2.066005 1_555
Hf3 N6 2.146272 1_555
Hf3 O3 2.168840 1_545
Hf3 N3 2.224620 1_555
Hf3 N0 2.369407 1_555
Hf3 O1 2.448015 1_645
Hf4 N0 2.102194 1_565
Hf4 O1 2.117741 1_555
Hf4 N3 2.152926 1_555
Hf4 N6 2.286264 1_465
Hf4 O3 2.292439 1_555
Hf4 N2 2.437437 1_555
Hf5 N1 2.062452 1_555
Hf5 N5 2.140245 1_545
Hf5 O0 2.188369 1_655
Hf5 N0 2.189553 1_555
Hf5 N3 2.330856 1_555
Hf5 O1 2.504949 1_645
Hf6 O0 2.065563 1_565
Hf6 N5 2.097151 1_555
Hf6 N1 2.151090 1_555
Hf6 N4 2.300783 1_554
Hf6 O2 2.348770 1_654
Hf6 N7 2.370065 1_554
Hf7 N4 2.084371 1_555
Hf7 O2 2.116317 1_655
Hf7 N7 2.133720 1_555
Hf7 N6 2.238453 1_555
Hf7 O3 2.247217 1_555
Hf7 N2 2.356157 1_655
Mg0 O3 2.132466 1_455
Mg0 O1 2.143650 1_555
Mg0 N0 2.166434 1_555
Mg0 N2 2.177597 1_555
Mg0 N6 2.191111 1_455
Mg0 N3 2.211782 1_455
