# generated using pymatgen
data_Cd3Si2Pb3O10
_symmetry_space_group_name_H-M   'P 1'
_cell_length_a   7.40546181
_cell_length_b   7.40546181
_cell_length_c   5.79376000
_cell_angle_alpha   90.00000000
_cell_angle_beta   90.00000000
_cell_angle_gamma   119.99999831
_symmetry_Int_Tables_number   1
_chemical_formula_structural   Cd3Si2Pb3O10
_chemical_formula_sum   'Cd3 Si2 Pb3 O10'
_cell_volume   275.16641995
_cell_formula_units_Z   1
loop_
 _symmetry_equiv_pos_site_id
 _symmetry_equiv_pos_as_xyz
  1  'x, y, z'
loop_
 _atom_site_type_symbol
 _atom_site_label
 _atom_site_symmetry_multiplicity
 _atom_site_fract_x
 _atom_site_fract_y
 _atom_site_fract_z
 _atom_site_occupancy
  Cd  Cd0  1  0.15153100  0.30306200  0.99619600  1
  Cd  Cd1  1  0.15153100  0.84846900  0.99619600  1
  Cd  Cd2  1  0.69693800  0.84846900  0.99619600  1
  Si  Si0  1  0.33333300  0.66666700  0.49702100  1
  Si  Si1  1  0.66666700  0.33333300  0.02181700  1
  Pb  Pb0  1  0.84356300  0.68712700  0.49418400  1
  Pb  Pb1  1  0.84356300  0.15643700  0.49418400  1
  Pb  Pb2  1  0.31287300  0.15643700  0.49418400  1
  O  O0  1  0.21342400  0.42684900  0.39062000  1
  O  O1  1  0.21342400  0.78657600  0.39062000  1
  O  O2  1  0.57315100  0.78657600  0.39062000  1
  O  O3  1  0.00000000  0.00000000  0.74702500  1
  O  O4  1  0.33333300  0.66666700  0.78947800  1
  O  O5  1  0.00000000  0.00000000  0.23135600  1
  O  O6  1  0.66666700  0.33333300  0.30329200  1
  O  O7  1  0.79006700  0.58013500  0.93234200  1
  O  O8  1  0.79006700  0.20993300  0.93234200  1
  O  O9  1  0.41986500  0.20993300  0.93234200  1
loop_
_geom_bond_atom_site_label_1
_geom_bond_atom_site_label_2
_geom_bond_distance
_geom_bond_site_symmetry_2
Cd0 O5 2.373607 1_556
Cd0 O0 2.419170 1_556
Cd0 O3 2.421115 1_555
Cd0 O9 2.435502 1_555
Cd0 O8 2.435509 1_455
Cd0 O4 2.621498 1_555
Cd1 O5 2.373607 1_566
Cd1 O1 2.419168 1_556
Cd1 O3 2.421115 1_565
Cd1 O7 2.435508 1_455
Cd1 O9 2.435508 1_565
Cd1 O4 2.621492 1_555
Cd2 O5 2.373607 1_666
Cd2 O2 2.419170 1_556
Cd2 O3 2.421115 1_665
Cd2 O7 2.435502 1_555
Cd2 O8 2.435509 1_565
Cd2 O4 2.621498 1_555
O0 Si0 1.656973 1_555
O0 Pb2 2.527313 1_555
O0 Pb1 2.527313 1_455
O1 Si0 1.656973 1_555
O1 Pb0 2.527313 1_455
O1 Pb2 2.527313 1_565
O2 Si0 1.656973 1_555
O2 Pb0 2.527313 1_555
O2 Pb1 2.527313 1_565
O3 Pb2 2.484390 1_555
O3 Pb0 2.484390 1_445
O3 Pb1 2.484395 1_455
O4 Si0 1.694426 1_555
O5 Pb2 2.518941 1_555
O5 Pb0 2.518941 1_445
O5 Pb1 2.518946 1_455
O6 Si1 1.630799 1_555
O6 Pb1 2.524177 1_555
O6 Pb0 2.524189 1_555
O6 Pb2 2.524189 1_555
O7 Si1 1.665549 1_556
O7 Pb0 2.629683 1_555
O8 Si1 1.665537 1_556
O8 Pb1 2.629683 1_555
O9 Si1 1.665549 1_556
O9 Pb2 2.629683 1_555
