# generated using pymatgen
data_Nd11Sn10
_symmetry_space_group_name_H-M   'P 1'
_cell_length_a   11.89225884
_cell_length_b   11.89209712
_cell_length_c   12.19691401
_cell_angle_alpha   119.18325472
_cell_angle_beta   119.18347594
_cell_angle_gamma   90.00149342
_symmetry_Int_Tables_number   1
_chemical_formula_structural   Nd11Sn10
_chemical_formula_sum   'Nd22 Sn20'
_cell_volume   1249.20080204
_cell_formula_units_Z   2
loop_
 _symmetry_equiv_pos_site_id
 _symmetry_equiv_pos_as_xyz
  1  'x, y, z'
loop_
 _atom_site_type_symbol
 _atom_site_label
 _atom_site_symmetry_multiplicity
 _atom_site_fract_x
 _atom_site_fract_y
 _atom_site_fract_z
 _atom_site_occupancy
  Nd  Nd0  1  0.93873860  0.19017427  0.38035014  1
  Nd  Nd1  1  0.44163577  0.19023937  0.38039347  1
  Nd  Nd2  1  0.19023750  0.44163905  0.38038866  1
  Nd  Nd3  1  0.19017228  0.93873099  0.38034528  1
  Nd  Nd4  1  0.06126140  0.80982573  0.61964986  1
  Nd  Nd5  1  0.55836423  0.80976063  0.61960653  1
  Nd  Nd6  1  0.80976250  0.55836095  0.61961134  1
  Nd  Nd7  1  0.80982772  0.06126901  0.61965472  1
  Nd  Nd8  1  0.82539371  0.17460462  -0.00000043  1
  Nd  Nd9  1  0.17460629  0.82539538  0.00000043  1
  Nd  Nd10  1  0.17464799  0.17464666  0.00008365  1
  Nd  Nd11  1  0.82535201  0.82535334  0.99991635  1
  Nd  Nd12  1  0.33725307  0.33725292  0.67444643  1
  Nd  Nd13  1  0.66274693  0.66274708  0.32555357  1
  Nd  Nd14  1  0.07010337  0.39828374  0.79645293  1
  Nd  Nd15  1  0.72631004  0.39828162  0.79654738  1
  Nd  Nd16  1  0.39828218  0.72631269  0.79654720  1
  Nd  Nd17  1  0.39828377  0.07010105  0.79645196  1
  Nd  Nd18  1  0.92989663  0.60171626  0.20354707  1
  Nd  Nd19  1  0.27368996  0.60171838  0.20345262  1
  Nd  Nd20  1  0.60171782  0.27368731  0.20345280  1
  Nd  Nd21  1  0.60171623  0.92989895  0.20354804  1
  Sn  Sn0  1  0.99993290  0.35748990  0.99986426  1
  Sn  Sn1  1  0.00006710  0.64251010  0.00013574  1
  Sn  Sn2  1  0.35750111  0.99993226  0.99986307  1
  Sn  Sn3  1  0.64249889  0.00006774  0.00013693  1
  Sn  Sn4  1  0.10997904  0.10997864  0.21997705  1
  Sn  Sn5  1  0.89002096  0.89002136  0.78002295  1
  Sn  Sn6  1  0.62571718  0.37426589  -0.00000006  1
  Sn  Sn7  1  0.37428282  0.62573411  0.00000006  1
  Sn  Sn8  1  0.37414226  0.37412549  0.99979545  1
  Sn  Sn9  1  0.62585774  0.62587451  0.00020455  1
  Sn  Sn10  1  0.74997365  0.24999152  0.49996513  1
  Sn  Sn11  1  0.25002635  0.75000848  0.50003487  1
  Sn  Sn12  1  0.11419100  0.52973650  0.64392055  1
  Sn  Sn13  1  0.52972263  0.11417629  0.64391890  1
  Sn  Sn14  1  0.52973382  0.52974892  0.64390945  1
  Sn  Sn15  1  0.11428247  0.11427068  0.64395211  1
  Sn  Sn16  1  0.88580900  0.47026350  0.35607945  1
  Sn  Sn17  1  0.47027737  0.88582371  0.35608110  1
  Sn  Sn18  1  0.47026618  0.47025108  0.35609055  1
  Sn  Sn19  1  0.88571753  0.88572932  0.35604789  1
loop_
_geom_bond_atom_site_label_1
_geom_bond_atom_site_label_2
_geom_bond_distance
_geom_bond_site_symmetry_2
Nd0 Sn10 3.139383 1_555
Nd0 Sn4 3.308820 1_655
Nd0 Sn12 3.434091 1_655
Nd0 Sn15 3.434338 1_655
Nd0 Sn16 3.515446 1_555
Nd0 Sn19 3.516311 1_545
Nd0 Sn3 3.587596 1_555
Nd0 Nd12 3.960948 1_655
Nd1 Sn10 3.138725 1_555
Nd1 Sn4 3.308827 1_555
Nd1 Sn14 3.433660 1_555
Nd1 Sn13 3.434883 1_555
Nd1 Sn18 3.514706 1_555
Nd1 Sn17 3.515828 1_545
Nd1 Sn2 3.590565 1_544
Nd1 Nd12 3.960778 1_555
Nd2 Sn11 3.138840 1_555
Nd2 Sn4 3.308832 1_555
Nd2 Sn14 3.433570 1_555
Nd2 Sn12 3.434811 1_555
Nd2 Sn18 3.514885 1_555
Nd2 Sn16 3.516012 1_455
Nd2 Sn0 3.590442 1_454
Nd3 Sn11 3.139514 1_555
Nd3 Sn4 3.308822 1_565
Nd3 Sn13 3.434008 1_565
Nd3 Sn15 3.434272 1_565
Nd3 Sn17 3.515605 1_555
Nd3 Sn19 3.516471 1_455
Nd3 Sn1 3.587483 1_555
Nd4 Sn11 3.139383 1_555
Nd4 Sn5 3.308820 1_455
Nd4 Sn16 3.434091 1_455
Nd4 Sn19 3.434338 1_455
Nd4 Sn12 3.515446 1_555
Nd4 Sn15 3.516311 1_565
Nd4 Sn2 3.587596 1_555
Nd5 Sn11 3.138725 1_555
Nd5 Sn5 3.308827 1_555
Nd5 Sn18 3.433660 1_555
Nd5 Sn17 3.434883 1_555
Nd5 Sn14 3.514706 1_555
Nd5 Sn13 3.515828 1_565
Nd5 Sn3 3.590565 1_566
Nd6 Sn10 3.138840 1_555
Nd6 Sn5 3.308832 1_555
Nd6 Sn18 3.433570 1_555
Nd6 Sn16 3.434811 1_555
Nd6 Sn14 3.514885 1_555
Nd6 Sn12 3.516012 1_655
Nd6 Sn1 3.590442 1_656
Nd7 Sn10 3.139514 1_555
Nd7 Sn5 3.308822 1_545
Nd7 Sn17 3.434008 1_545
Nd7 Sn19 3.434272 1_545
Nd7 Sn13 3.515605 1_555
Nd7 Sn15 3.516471 1_655
Nd7 Sn0 3.587483 1_555
Nd8 Sn0 3.007514 1_554
Nd8 Sn3 3.007596 1_555
Nd8 Sn6 3.358091 1_555
Nd8 Sn5 3.521200 1_544
Nd8 Sn4 3.521220 1_655
Nd8 Sn16 3.715630 1_555
Nd8 Sn13 3.715643 1_554
Nd9 Sn1 3.007514 1_555
Nd9 Sn2 3.007596 1_554
Nd9 Sn7 3.358091 1_555
Nd9 Sn4 3.521200 1_565
Nd9 Sn5 3.521220 1_454
Nd9 Sn12 3.715630 1_554
Nd9 Sn17 3.715643 1_555
Nd10 Sn0 3.007580 1_454
Nd10 Sn2 3.007662 1_544
Nd10 Sn8 3.357362 1_554
Nd10 Sn5 3.521066 1_444
Nd10 Sn4 3.521226 1_555
Nd10 Sn18 3.714574 1_555
Nd10 Sn15 3.717014 1_554
Nd11 Sn1 3.007580 1_656
Nd11 Sn3 3.007662 1_566
Nd11 Sn9 3.357362 1_556
Nd11 Sn4 3.521066 1_666
Nd11 Sn5 3.521226 1_555
Nd11 Sn14 3.714574 1_555
Nd11 Sn19 3.717014 1_556
Nd12 Sn15 3.503872 1_555
Nd12 Sn14 3.504480 1_555
Nd12 Sn12 3.504774 1_555
Nd12 Sn13 3.504778 1_555
Nd12 Sn8 3.568913 1_555
Nd12 Sn7 3.569349 1_556
Nd12 Sn6 3.569357 1_556
Nd12 Sn9 3.570490 1_556
Nd12 Nd2 3.960836 1_555
Nd12 Nd3 3.960982 1_545
Nd12 Sn4 4.014339 1_555
Nd12 Nd16 4.046913 1_555
Nd12 Nd15 4.046936 1_555
Nd12 Nd17 4.048678 1_555
Nd12 Nd14 4.048707 1_555
Nd13 Sn19 3.503872 1_555
Nd13 Sn18 3.504480 1_555
Nd13 Sn16 3.504774 1_555
Nd13 Sn17 3.504778 1_555
Nd13 Sn9 3.568913 1_555
Nd13 Sn6 3.569349 1_555
Nd13 Sn7 3.569357 1_555
Nd13 Sn8 3.570490 1_554
Nd13 Nd5 3.960778 1_555
Nd13 Nd6 3.960836 1_555
Nd13 Nd4 3.960948 1_655
Nd13 Nd7 3.960982 1_565
Nd13 Sn5 4.014339 1_555
Nd13 Nd20 4.046913 1_555
Nd13 Nd19 4.046936 1_555
Nd13 Nd21 4.048678 1_555
Nd13 Nd18 4.048707 1_555
Nd14 Sn12 3.157092 1_555
Nd14 Sn15 3.157518 1_555
Nd14 Sn0 3.206212 1_455
Nd14 Sn1 3.206609 1_556
Nd14 Sn10 3.321945 1_455
Nd14 Sn8 3.355101 1_555
Nd14 Sn7 3.355280 1_556
Nd15 Sn13 3.157177 1_555
Nd15 Sn14 3.157470 1_555
Nd15 Sn0 3.205813 1_555
Nd15 Sn1 3.206693 1_656
Nd15 Sn10 3.323595 1_555
Nd15 Sn6 3.355078 1_556
Nd15 Sn9 3.355645 1_556
Nd16 Sn12 3.157011 1_555
Nd16 Sn14 3.157266 1_555
Nd16 Sn2 3.205702 1_555
Nd16 Sn3 3.206595 1_566
Nd16 Sn11 3.323078 1_555
Nd16 Sn7 3.354861 1_556
Nd16 Sn9 3.355429 1_556
Nd17 Sn13 3.156919 1_555
Nd17 Sn15 3.157380 1_555
Nd17 Sn2 3.206121 1_545
Nd17 Sn3 3.206532 1_556
Nd17 Sn11 3.321416 1_545
Nd17 Sn8 3.354869 1_555
Nd17 Sn6 3.355048 1_556
Nd18 Sn16 3.157092 1_555
Nd18 Sn19 3.157518 1_555
Nd18 Sn1 3.206212 1_655
Nd18 Sn0 3.206609 1_554
Nd18 Sn11 3.321945 1_655
Nd18 Sn9 3.355101 1_555
Nd18 Sn6 3.355280 1_555
Nd19 Sn17 3.157177 1_555
Nd19 Sn18 3.157470 1_555
Nd19 Sn1 3.205813 1_555
Nd19 Sn0 3.206693 1_454
Nd19 Sn11 3.323595 1_555
Nd19 Sn7 3.355078 1_555
Nd19 Sn8 3.355645 1_554
Nd20 Sn16 3.157011 1_555
Nd20 Sn18 3.157266 1_555
Nd20 Sn3 3.205702 1_555
Nd20 Sn2 3.206595 1_544
Nd20 Sn10 3.323078 1_555
Nd20 Sn6 3.354861 1_555
Nd20 Sn8 3.355429 1_554
Nd21 Sn17 3.156919 1_555
Nd21 Sn19 3.157380 1_555
Nd21 Sn3 3.206121 1_565
Nd21 Sn2 3.206532 1_554
Nd21 Sn10 3.321416 1_565
Nd21 Sn9 3.354869 1_555
Nd21 Sn7 3.355048 1_555
Sn0 Sn1 3.387874 1_656
Sn2 Sn3 3.387639 1_566
Sn6 Sn8 2.990578 1_554
Sn6 Sn9 2.990938 1_555
Sn7 Sn9 2.990578 1_555
Sn7 Sn8 2.990938 1_554
Sn12 Sn16 2.912362 1_455
Sn12 Sn7 3.434645 1_556
Sn13 Sn17 2.912322 1_545
Sn13 Sn6 3.434652 1_556
Sn14 Sn18 2.912210 1_555
Sn14 Sn9 3.436481 1_556
Sn15 Sn19 2.913759 1_445
Sn15 Sn8 3.431689 1_555
Sn16 Sn6 3.434645 1_555
Sn17 Sn7 3.434652 1_555
Sn18 Sn8 3.436481 1_554
Sn19 Sn9 3.431689 1_555
