# generated using pymatgen
data_Cr2Fe9N8
_symmetry_space_group_name_H-M   'P 1'
_cell_length_a   7.92372492
_cell_length_b   3.84273544
_cell_length_c   6.14698736
_cell_angle_alpha   90.00000045
_cell_angle_beta   77.87777917
_cell_angle_gamma   75.96686898
_symmetry_Int_Tables_number   1
_chemical_formula_structural   Cr2Fe9N8
_chemical_formula_sum   'Cr2 Fe9 N8'
_cell_volume   177.27738804
_cell_formula_units_Z   1
loop_
 _symmetry_equiv_pos_site_id
 _symmetry_equiv_pos_as_xyz
  1  'x, y, z'
loop_
 _atom_site_type_symbol
 _atom_site_label
 _atom_site_symmetry_multiplicity
 _atom_site_fract_x
 _atom_site_fract_y
 _atom_site_fract_z
 _atom_site_occupancy
  Cr  Cr0  1  0.41308077  0.79345962  0.81944149  1
  Cr  Cr1  1  0.58691923  0.20654038  0.18055851  1
  Fe  Fe0  1  0.00000000  0.50000000  0.50000000  1
  Fe  Fe1  1  0.00539273  0.99730313  0.76939570  1
  Fe  Fe2  1  0.99460727  0.00269687  0.23060430  1
  Fe  Fe3  1  0.69385725  0.65307188  0.40723603  1
  Fe  Fe4  1  0.30614275  0.34692812  0.59276397  1
  Fe  Fe5  1  0.80498783  0.59750559  0.95515758  1
  Fe  Fe6  1  0.19501217  0.40249441  0.04484242  1
  Fe  Fe7  1  0.64585459  0.17707320  0.67867552  1
  Fe  Fe8  1  0.35414541  0.82292680  0.32132448  1
  N  N0  1  0.23963888  0.88018056  0.07462093  1
  N  N1  1  0.76036112  0.11981944  0.92537907  1
  N  N2  1  0.26203505  0.86898298  0.62997681  1
  N  N3  1  0.73796495  0.13101702  0.37002319  1
  N  N4  1  0.65989467  0.67005267  0.72382592  1
  N  N5  1  0.34010533  0.32994733  0.27617408  1
  N  N6  1  0.05849746  0.47075127  0.78791302  1
  N  N7  1  0.94150254  0.52924873  0.21208698  1
loop_
_geom_bond_atom_site_label_1
_geom_bond_atom_site_label_2
_geom_bond_distance
_geom_bond_site_symmetry_2
Cr0 N2 1.813841 1_555
Cr0 N0 1.825577 1_556
Cr0 N4 1.860781 1_555
Cr1 N3 1.813841 1_555
Cr1 N1 1.825577 1_554
Cr1 N5 1.860781 1_555
Fe0 N6 1.918055 1_555
Fe0 N7 1.918055 1_455
Fe1 N1 1.919764 1_465
Fe1 N6 1.972656 1_555
Fe1 N6 1.972659 1_565
Fe1 N2 1.973507 1_555
Fe2 N0 1.919764 1_645
Fe2 N7 1.972656 1_555
Fe2 N7 1.972659 1_545
Fe2 N3 1.973507 1_555
Fe3 N4 1.906675 1_555
Fe3 N3 1.955851 1_565
Fe3 N3 1.955859 1_555
Fe3 N7 2.018533 1_555
Fe4 N5 1.906675 1_555
Fe4 N2 1.955851 1_545
Fe4 N2 1.955859 1_555
Fe4 N6 2.018533 1_555
Fe5 N1 1.967238 1_555
Fe5 N1 1.967242 1_565
Fe5 N4 1.988147 1_555
Fe5 N6 1.996834 1_655
Fe5 N7 2.076805 1_556
Fe6 N0 1.967238 1_555
Fe6 N0 1.967242 1_545
Fe6 N5 1.988147 1_555
Fe6 N7 1.996834 1_455
Fe6 N6 2.076805 1_554
Fe7 N3 1.876023 1_555
Fe7 N1 1.911133 1_555
Fe7 N4 1.947637 1_555
Fe7 N4 1.947641 1_545
Fe8 N2 1.876023 1_555
Fe8 N0 1.911133 1_555
Fe8 N5 1.947637 1_555
Fe8 N5 1.947641 1_565
