# generated using pymatgen
data_ZrCoNi
_symmetry_space_group_name_H-M   'P 1'
_cell_length_a   4.90165854
_cell_length_b   4.90165854
_cell_length_c   4.90165854
_cell_angle_alpha   120.56138087
_cell_angle_beta   119.53041714
_cell_angle_gamma   89.92284102
_symmetry_Int_Tables_number   1
_chemical_formula_structural   ZrCoNi
_chemical_formula_sum   'Zr2 Co2 Ni2'
_cell_volume   83.20861990
_cell_formula_units_Z   2
loop_
 _symmetry_equiv_pos_site_id
 _symmetry_equiv_pos_as_xyz
  1  'x, y, z'
loop_
 _atom_site_type_symbol
 _atom_site_label
 _atom_site_symmetry_multiplicity
 _atom_site_fract_x
 _atom_site_fract_y
 _atom_site_fract_z
 _atom_site_occupancy
  Zr  Zr0  1  0.12284900  0.87284900  0.25000000  1
  Zr  Zr1  1  0.87715100  0.12715100  0.75000000  1
  Co  Co0  1  0.00000000  0.50000000  0.50000000  1
  Co  Co1  1  0.50000000  0.50000000  0.00000000  1
  Ni  Ni0  1  0.50000000  0.00000000  0.00000000  1
  Ni  Ni1  1  0.50000000  0.50000000  0.50000000  1
loop_
_geom_bond_atom_site_label_1
_geom_bond_atom_site_label_2
_geom_bond_distance
_geom_bond_site_symmetry_2
Co0 Ni1 2.450829 1_455
Co0 Ni0 2.450829 1_455
Co0 Ni1 2.450829 1_555
Co0 Ni0 2.450829 1_566
Co0 Co1 2.468204 1_556
Co0 Co1 2.468204 1_455
Co0 Zr0 2.864587 1_545
Co0 Zr0 2.864587 1_556
Co0 Zr1 2.864587 1_454
Co0 Zr1 2.864587 1_465
Co0 Zr0 2.865674 1_555
Co0 Zr1 2.865674 1_455
Co1 Ni1 2.450829 1_554
Co1 Ni0 2.450829 1_555
Co1 Ni0 2.450829 1_565
Co1 Ni1 2.450829 1_555
Co1 Zr0 2.864587 1_555
Co1 Zr1 2.864587 1_554
Co1 Zr0 2.864587 1_544
Co1 Zr1 2.864587 1_565
Co1 Zr1 2.865674 1_454
Co1 Zr0 2.865674 1_655
Ni0 Ni1 2.430004 1_555
Ni0 Ni1 2.430004 1_544
Ni0 Zr1 2.880007 1_555
Ni0 Zr1 2.880007 1_454
Ni0 Zr0 2.880007 1_544
Ni0 Zr0 2.880007 1_645
Ni0 Zr1 2.884538 1_554
Ni0 Zr0 2.884538 1_545
Ni1 Zr0 2.880007 1_555
Ni1 Zr1 2.880007 1_555
Ni1 Zr1 2.880007 1_454
Ni1 Zr0 2.880007 1_656
Ni1 Zr1 2.884538 1_565
Ni1 Zr0 2.884538 1_545
