# generated using pymatgen
data_Ce2Te3
_symmetry_space_group_name_H-M   'P 1'
_cell_length_a   4.48213712
_cell_length_b   12.15455066
_cell_length_c   12.38077606
_cell_angle_alpha   90.00000000
_cell_angle_beta   90.00000000
_cell_angle_gamma   90.00000000
_symmetry_Int_Tables_number   1
_chemical_formula_structural   Ce2Te3
_chemical_formula_sum   'Ce8 Te12'
_cell_volume   674.48440858
_cell_formula_units_Z   4
loop_
 _symmetry_equiv_pos_site_id
 _symmetry_equiv_pos_as_xyz
  1  'x, y, z'
loop_
 _atom_site_type_symbol
 _atom_site_label
 _atom_site_symmetry_multiplicity
 _atom_site_fract_x
 _atom_site_fract_y
 _atom_site_fract_z
 _atom_site_occupancy
  Ce  Ce0  1  0.25000000  0.18706903  0.48848560  1
  Ce  Ce1  1  0.25000000  0.31293097  0.98848560  1
  Ce  Ce2  1  0.75000000  0.81293097  0.51151440  1
  Ce  Ce3  1  0.75000000  0.68706903  0.01151440  1
  Ce  Ce4  1  0.25000000  -0.00258681  0.80640579  1
  Ce  Ce5  1  0.25000000  0.50258681  0.30640579  1
  Ce  Ce6  1  0.75000000  0.00258681  0.19359421  1
  Ce  Ce7  1  0.75000000  0.49741319  0.69359421  1
  Te  Te0  1  0.25000000  0.62534748  0.54525172  1
  Te  Te1  1  0.25000000  0.87465252  0.04525172  1
  Te  Te2  1  0.75000000  0.37465252  0.45474828  1
  Te  Te3  1  0.75000000  0.12534748  0.95474828  1
  Te  Te4  1  0.25000000  0.94402050  0.37900690  1
  Te  Te5  1  0.25000000  0.55597950  0.87900690  1
  Te  Te6  1  0.75000000  0.05597950  0.62099310  1
  Te  Te7  1  0.75000000  0.44402050  0.12099310  1
  Te  Te8  1  0.25000000  0.30012209  0.72732356  1
  Te  Te9  1  0.25000000  0.19987791  0.22732356  1
  Te  Te10  1  0.75000000  0.69987791  0.27267644  1
  Te  Te11  1  0.75000000  0.80012209  0.77267644  1
loop_
_geom_bond_atom_site_label_1
_geom_bond_atom_site_label_2
_geom_bond_distance
_geom_bond_site_symmetry_2
Ce0 Te6 3.201951 1_455
Ce0 Te6 3.201951 1_555
Ce0 Te2 3.224163 1_555
Ce0 Te2 3.224163 1_455
Ce0 Te9 3.237135 1_555
Ce0 Te4 3.250257 1_545
Ce0 Te8 3.260678 1_555
Ce1 Te7 3.201951 1_556
Ce1 Te7 3.201951 1_456
Ce1 Te3 3.224163 1_455
Ce1 Te3 3.224163 1_555
Ce1 Te8 3.237135 1_555
Ce1 Te5 3.250257 1_555
Ce1 Te9 3.260678 1_556
Ce2 Te4 3.201951 1_655
Ce2 Te4 3.201951 1_555
Ce2 Te0 3.224163 1_655
Ce2 Te0 3.224163 1_555
Ce2 Te11 3.237135 1_555
Ce2 Te6 3.250257 1_565
Ce2 Te10 3.260678 1_555
Ce3 Te5 3.201951 1_554
Ce3 Te5 3.201951 1_654
Ce3 Te1 3.224163 1_555
Ce3 Te1 3.224163 1_655
Ce3 Te10 3.237135 1_555
Ce3 Te7 3.250257 1_555
Ce3 Te11 3.260678 1_554
Ce4 Te6 3.286134 1_455
Ce4 Te6 3.286134 1_555
Ce4 Te3 3.288380 1_455
Ce4 Te3 3.288380 1_555
Ce4 Te11 3.308641 1_445
Ce4 Te11 3.308641 1_545
Ce4 Te1 3.312219 1_546
Ce4 Te8 3.807337 1_555
Ce5 Te7 3.286134 1_555
Ce5 Te7 3.286134 1_455
Ce5 Te2 3.288380 1_555
Ce5 Te2 3.288380 1_455
Ce5 Te10 3.308641 1_555
Ce5 Te10 3.308641 1_455
Ce5 Te0 3.312219 1_555
Ce5 Te9 3.807337 1_555
Ce6 Te4 3.286134 1_545
Ce6 Te4 3.286134 1_645
Ce6 Te1 3.288380 1_645
Ce6 Te1 3.288380 1_545
Ce6 Te9 3.308641 1_555
Ce6 Te9 3.308641 1_655
Ce6 Te3 3.312219 1_554
Ce6 Te10 3.807337 1_545
Ce7 Te5 3.286134 1_655
Ce7 Te5 3.286134 1_555
Ce7 Te0 3.288380 1_555
Ce7 Te0 3.288380 1_655
Ce7 Te8 3.308641 1_655
Ce7 Te8 3.308641 1_555
Ce7 Te2 3.312219 1_555
Ce7 Te11 3.807337 1_555
