# generated using pymatgen
data_Li3InN2
_symmetry_space_group_name_H-M   'P 1'
_cell_length_a   8.73877964
_cell_length_b   8.73877964
_cell_length_c   8.73877964
_cell_angle_alpha   109.47122063
_cell_angle_beta   109.47122063
_cell_angle_gamma   109.47122063
_symmetry_Int_Tables_number   1
_chemical_formula_structural   Li3InN2
_chemical_formula_sum   'Li24 In8 N16'
_cell_volume   513.72473216
_cell_formula_units_Z   8
loop_
 _symmetry_equiv_pos_site_id
 _symmetry_equiv_pos_as_xyz
  1  'x, y, z'
loop_
 _atom_site_type_symbol
 _atom_site_label
 _atom_site_symmetry_multiplicity
 _atom_site_fract_x
 _atom_site_fract_y
 _atom_site_fract_z
 _atom_site_occupancy
  Li  Li0  1  0.26366530  0.22592011  0.76002906  1
  Li  Li1  1  0.53410895  0.27407989  0.53774519  1
  Li  Li2  1  0.23633470  0.99636377  0.96225481  1
  Li  Li3  1  0.96589105  0.50363623  0.73997094  1
  Li  Li4  1  0.99636377  0.96225481  0.23633470  1
  Li  Li5  1  0.50363623  0.73997094  0.96589105  1
  Li  Li6  1  0.22592011  0.76002906  0.26366530  1
  Li  Li7  1  0.27407989  0.53774519  0.53410895  1
  Li  Li8  1  0.73997094  0.96589105  0.50363623  1
  Li  Li9  1  0.96225481  0.23633470  0.99636377  1
  Li  Li10  1  0.53774519  0.53410895  0.27407989  1
  Li  Li11  1  0.76002906  0.26366530  0.22592011  1
  Li  Li12  1  0.73633470  0.77407989  0.23997094  1
  Li  Li13  1  0.46589105  0.72592011  0.46225481  1
  Li  Li14  1  0.76366530  0.00363623  0.03774519  1
  Li  Li15  1  0.03410895  0.49636377  0.26002906  1
  Li  Li16  1  0.00363623  0.03774519  0.76366530  1
  Li  Li17  1  0.49636377  0.26002906  0.03410895  1
  Li  Li18  1  0.77407989  0.23997094  0.73633470  1
  Li  Li19  1  0.72592011  0.46225481  0.46589105  1
  Li  Li20  1  0.26002906  0.03410895  0.49636377  1
  Li  Li21  1  0.03774519  0.76366530  0.00363623  1
  Li  Li22  1  0.46225481  0.46589105  0.72592011  1
  Li  Li23  1  0.23997094  0.73633470  0.77407989  1
  In  In0  1  0.24793520  0.50000000  0.00000000  1
  In  In1  1  0.50000000  -0.00000000  0.24793520  1
  In  In2  1  0.25206480  0.25206480  0.25206480  1
  In  In3  1  -0.00000000  0.24793520  0.50000000  1
  In  In4  1  0.75206480  0.50000000  -0.00000000  1
  In  In5  1  0.50000000  -0.00000000  0.75206480  1
  In  In6  1  0.74793520  0.74793520  0.74793520  1
  In  In7  1  0.00000000  0.75206480  0.50000000  1
  N  N0  1  0.00000000  0.50000000  0.00000000  1
  N  N1  1  0.50000000  0.00000000  0.00000000  1
  N  N2  1  0.50000000  0.50000000  0.50000000  1
  N  N3  1  0.00000000  0.00000000  0.50000000  1
  N  N4  1  0.49945996  0.75000000  0.24945996  1
  N  N5  1  0.00054004  0.25000000  0.25054004  1
  N  N6  1  0.25000000  0.25054004  0.00054004  1
  N  N7  1  0.75000000  0.24945996  0.49945996  1
  N  N8  1  0.25054004  0.00054004  0.25000000  1
  N  N9  1  0.24945996  0.49945996  0.75000000  1
  N  N10  1  0.50054004  0.25000000  0.75054004  1
  N  N11  1  0.99945996  0.75000000  0.74945996  1
  N  N12  1  0.75000000  0.74945996  0.99945996  1
  N  N13  1  0.25000000  0.75054004  0.50054004  1
  N  N14  1  0.74945996  0.99945996  0.75000000  1
  N  N15  1  0.75054004  0.50054004  0.25000000  1
loop_
_geom_bond_atom_site_label_1
_geom_bond_atom_site_label_2
_geom_bond_distance
_geom_bond_site_symmetry_2
Li0 N10 2.042478 1_555
Li0 N6 2.088298 1_556
Li0 N3 2.203696 1_555
Li0 N9 2.463202 1_555
Li1 N10 2.042478 1_555
Li1 N7 2.088298 1_555
Li1 N2 2.203696 1_555
Li1 N8 2.463202 1_555
Li2 N11 2.042478 1_455
Li2 N6 2.088298 1_566
Li2 N1 2.203696 1_566
Li2 N8 2.463202 1_566
Li3 N11 2.042478 1_555
Li3 N7 2.088298 1_555
Li3 N0 2.203696 1_656
Li3 N9 2.463202 1_655
Li4 N12 2.042478 1_554
Li4 N8 2.088298 1_665
Li4 N3 2.203696 1_665
Li4 N5 2.463202 1_665
Li5 N12 2.042478 1_555
Li5 N9 2.088298 1_555
Li5 N1 2.203696 1_566
Li5 N4 2.463202 1_556
Li6 N13 2.042478 1_555
Li6 N8 2.088298 1_565
Li6 N0 2.203696 1_555
Li6 N4 2.463202 1_555
Li7 N13 2.042478 1_555
Li7 N9 2.088298 1_555
Li7 N2 2.203696 1_555
Li7 N5 2.463202 1_555
Li8 N14 2.042478 1_555
Li8 N4 2.088298 1_555
Li8 N3 2.203696 1_665
Li8 N7 2.463202 1_565
Li9 N14 2.042478 1_545
Li9 N5 2.088298 1_656
Li9 N0 2.203696 1_656
Li9 N6 2.463202 1_656
Li10 N15 2.042478 1_555
Li10 N4 2.088298 1_555
Li10 N2 2.203696 1_555
Li10 N6 2.463202 1_555
Li11 N15 2.042478 1_555
Li11 N5 2.088298 1_655
Li11 N1 2.203696 1_555
Li11 N7 2.463202 1_555
Li12 N4 2.042478 1_555
Li12 N12 2.088298 1_554
Li12 N3 2.203696 1_665
Li12 N15 2.463202 1_555
Li13 N4 2.042478 1_555
Li13 N13 2.088298 1_555
Li13 N2 2.203696 1_555
Li13 N14 2.463202 1_555
Li14 N5 2.042478 1_655
Li14 N12 2.088298 1_544
Li14 N1 2.203696 1_555
Li14 N14 2.463202 1_544
Li15 N5 2.042478 1_555
Li15 N13 2.088298 1_555
Li15 N0 2.203696 1_555
Li15 N15 2.463202 1_455
Li16 N6 2.042478 1_556
Li16 N14 2.088298 1_445
Li16 N3 2.203696 1_555
Li16 N11 2.463202 1_445
Li17 N6 2.042478 1_555
Li17 N15 2.088298 1_555
Li17 N1 2.203696 1_555
Li17 N10 2.463202 1_554
Li18 N7 2.042478 1_555
Li18 N14 2.088298 1_545
Li18 N0 2.203696 1_656
Li18 N10 2.463202 1_555
Li19 N7 2.042478 1_555
Li19 N15 2.088298 1_555
Li19 N2 2.203696 1_555
Li19 N11 2.463202 1_555
Li20 N8 2.042478 1_555
Li20 N10 2.088298 1_555
Li20 N3 2.203696 1_555
Li20 N13 2.463202 1_545
Li21 N8 2.042478 1_565
Li21 N11 2.088298 1_454
Li21 N0 2.203696 1_555
Li21 N12 2.463202 1_454
Li22 N9 2.042478 1_555
Li22 N10 2.088298 1_555
Li22 N2 2.203696 1_555
Li22 N12 2.463202 1_555
Li23 N9 2.042478 1_555
Li23 N11 2.088298 1_455
Li23 N1 2.203696 1_566
Li23 N13 2.463202 1_555
In0 N0 2.166651 1_555
In0 N4 2.187617 1_555
In0 N9 2.187617 1_554
In0 N6 2.187617 1_555
In1 N1 2.166651 1_555
In1 N7 2.187617 1_555
In1 N8 2.187617 1_555
In1 N4 2.187617 1_545
In2 N2 2.166651 1_555
In2 N8 2.187617 1_555
In2 N6 2.187617 1_555
In2 N5 2.187617 1_555
In3 N3 2.166651 1_555
In3 N7 2.187617 1_455
In3 N9 2.187617 1_555
In3 N5 2.187617 1_555
In4 N0 2.166651 1_655
In4 N10 2.187617 1_554
In4 N12 2.187617 1_554
In4 N15 2.187617 1_555
In5 N1 2.166651 1_556
In5 N14 2.187617 1_545
In5 N10 2.187617 1_555
In5 N13 2.187617 1_545
In6 N2 2.166651 1_555
In6 N12 2.187617 1_555
In6 N14 2.187617 1_555
In6 N11 2.187617 1_555
In7 N3 2.166651 1_565
In7 N11 2.187617 1_455
In7 N15 2.187617 1_455
In7 N13 2.187617 1_555
