# generated using pymatgen
data_SrCeScO4
_symmetry_space_group_name_H-M   'P 1'
_cell_length_a   6.83347794
_cell_length_b   6.83347794
_cell_length_c   5.88053300
_cell_angle_alpha   90.00000000
_cell_angle_beta   90.00000000
_cell_angle_gamma   130.53857254
_symmetry_Int_Tables_number   1
_chemical_formula_structural   SrCeScO4
_chemical_formula_sum   'Sr2 Ce2 Sc2 O8'
_cell_volume   208.68725122
_cell_formula_units_Z   2
loop_
 _symmetry_equiv_pos_site_id
 _symmetry_equiv_pos_as_xyz
  1  'x, y, z'
loop_
 _atom_site_type_symbol
 _atom_site_label
 _atom_site_symmetry_multiplicity
 _atom_site_fract_x
 _atom_site_fract_y
 _atom_site_fract_z
 _atom_site_occupancy
  Sr  Sr0  1  0.89564800  0.10435200  0.48520100  1
  Sr  Sr1  1  0.10435200  0.89564800  0.98520100  1
  Ce  Ce0  1  0.60743900  0.39256100  0.51638400  1
  Ce  Ce1  1  0.39256100  0.60743900  0.01638400  1
  Sc  Sc0  1  0.24493100  0.75506900  0.50497300  1
  Sc  Sc1  1  0.75506900  0.24493100  0.00497300  1
  O  O0  1  0.97199100  0.51736600  0.25811700  1
  O  O1  1  0.02800900  0.48263400  0.75811700  1
  O  O2  1  0.51736600  0.97199100  0.75811700  1
  O  O3  1  0.48263400  0.02800900  0.25811700  1
  O  O4  1  0.91640800  0.08359200  0.06531000  1
  O  O5  1  0.56603400  0.43396600  0.91189800  1
  O  O6  1  0.08359200  0.91640800  0.56531000  1
  O  O7  1  0.43396600  0.56603400  0.41189800  1
loop_
_geom_bond_atom_site_label_1
_geom_bond_atom_site_label_2
_geom_bond_distance
_geom_bond_site_symmetry_2
Ce0 O7 2.239347 1_555
Ce0 O5 2.381948 1_555
Ce0 O3 2.545196 1_555
Ce0 O0 2.545196 1_555
Ce0 O6 2.888463 1_655
Ce0 O6 2.888463 1_545
Ce0 O2 2.891314 1_545
Ce0 O1 2.891314 1_655
Ce1 O5 2.239347 1_554
Ce1 O7 2.381948 1_555
Ce1 O1 2.545196 1_554
Ce1 O2 2.545196 1_554
Ce1 O4 2.888463 1_565
Ce1 O4 2.888463 1_455
Ce1 O3 2.891314 1_565
Ce1 O0 2.891314 1_455
O0 Sc0 2.070318 1_655
O0 Sc1 2.071680 1_555
O0 Sr1 2.652656 1_654
O0 Sr0 2.847266 1_555
O1 Sc1 2.070318 1_456
O1 Sc0 2.071680 1_555
O1 Sr0 2.652656 1_455
O1 Sr1 2.847266 1_555
O2 Sc1 2.070318 1_566
O2 Sc0 2.071680 1_555
O2 Sr0 2.652656 1_565
O2 Sr1 2.847266 1_555
O3 Sc0 2.070318 1_545
O3 Sc1 2.071680 1_555
O3 Sr1 2.652656 1_544
O3 Sr0 2.847266 1_555
O4 Sc1 2.033965 1_555
O4 Sr1 2.380124 1_644
O4 Sr0 2.482594 1_555
O5 Sc1 2.409568 1_556
O5 Sr1 2.929996 1_655
O5 Sr1 2.929996 1_545
O6 Sc0 2.033965 1_555
O6 Sr0 2.380124 1_465
O6 Sr1 2.482594 1_555
O7 Sc0 2.409568 1_555
O7 Sr0 2.929996 1_565
O7 Sr0 2.929996 1_455
