# generated using pymatgen
data_KSrMg6
_symmetry_space_group_name_H-M   'P 1'
_cell_length_a   6.99111191
_cell_length_b   6.99111191
_cell_length_c   5.54006700
_cell_angle_alpha   90.00000000
_cell_angle_beta   90.00000000
_cell_angle_gamma   114.04028442
_symmetry_Int_Tables_number   1
_chemical_formula_structural   KSrMg6
_chemical_formula_sum   'K1 Sr1 Mg6'
_cell_volume   247.28718366
_cell_formula_units_Z   1
loop_
 _symmetry_equiv_pos_site_id
 _symmetry_equiv_pos_as_xyz
  1  'x, y, z'
loop_
 _atom_site_type_symbol
 _atom_site_label
 _atom_site_symmetry_multiplicity
 _atom_site_fract_x
 _atom_site_fract_y
 _atom_site_fract_z
 _atom_site_occupancy
  K  K0  1  0.83620900  0.16379100  0.50000000  1
  Sr  Sr0  1  0.34031500  0.65968500  0.50000000  1
  Mg  Mg0  1  0.32921800  0.16132500  0.50000000  1
  Mg  Mg1  1  0.83867500  0.67078200  0.50000000  1
  Mg  Mg2  1  0.17902800  0.32273700  0.00000000  1
  Mg  Mg3  1  0.67726300  0.82097200  0.00000000  1
  Mg  Mg4  1  0.64801000  0.35199000  0.00000000  1
  Mg  Mg5  1  0.15128700  0.84871300  0.00000000  1
loop_
_geom_bond_atom_site_label_1
_geom_bond_atom_site_label_2
_geom_bond_distance
_geom_bond_site_symmetry_2
K0 Mg1 3.453740 1_545
K0 Mg0 3.453740 1_655
K0 Mg2 3.533001 1_656
K0 Mg2 3.533001 1_655
K0 Mg3 3.533001 1_545
K0 Mg3 3.533001 1_546
K0 Mg1 3.537443 1_555
K0 Mg0 3.537443 1_555
K0 Mg4 3.542001 1_556
K0 Mg4 3.542001 1_555
K0 Sr0 3.805876 1_655
K0 Sr0 3.805876 1_545
Mg0 Mg2 3.318788 1_555
Mg0 Mg2 3.318788 1_556
Mg0 Mg5 3.432473 1_546
Mg0 Mg5 3.432473 1_545
Mg0 Sr0 3.453213 1_555
Mg0 Mg4 3.463604 1_556
Mg0 Mg4 3.463604 1_555
Mg0 Sr0 3.539335 1_545
Mg1 Mg3 3.318788 1_556
Mg1 Mg3 3.318788 1_555
Mg1 Mg5 3.432473 1_655
Mg1 Mg5 3.432473 1_656
Mg1 Sr0 3.453213 1_555
Mg1 Mg4 3.463604 1_555
Mg1 Mg4 3.463604 1_556
Mg1 Sr0 3.539335 1_655
Mg2 Mg4 3.200846 1_555
Mg2 Mg5 3.239793 1_545
Mg2 Sr0 3.511329 1_554
Mg2 Sr0 3.511329 1_555
Mg3 Mg4 3.200846 1_555
Mg3 Mg5 3.239793 1_655
Mg3 Sr0 3.511329 1_554
Mg3 Sr0 3.511329 1_555
Mg5 Sr0 3.548069 1_554
Mg5 Sr0 3.548069 1_555
