# generated using pymatgen
data_SiNiN2
_symmetry_space_group_name_H-M   'P 1'
_cell_length_a   5.05198200
_cell_length_b   10.17212900
_cell_length_c   12.57702400
_cell_angle_alpha   90.00000000
_cell_angle_beta   90.00000000
_cell_angle_gamma   90.00000000
_symmetry_Int_Tables_number   1
_chemical_formula_structural   SiNiN2
_chemical_formula_sum   'Si16 Ni16 N32'
_cell_volume   646.32587574
_cell_formula_units_Z   16
loop_
 _symmetry_equiv_pos_site_id
 _symmetry_equiv_pos_as_xyz
  1  'x, y, z'
loop_
 _atom_site_type_symbol
 _atom_site_label
 _atom_site_symmetry_multiplicity
 _atom_site_fract_x
 _atom_site_fract_y
 _atom_site_fract_z
 _atom_site_occupancy
  Si  Si0  1  0.63898400  0.03721600  0.18637300  1
  Si  Si1  1  0.13898400  0.46278400  0.81362700  1
  Si  Si2  1  0.36101600  0.53721600  0.31362700  1
  Si  Si3  1  0.86101600  0.96278400  0.68637300  1
  Si  Si4  1  0.36101600  0.96278400  0.81362700  1
  Si  Si5  1  0.86101600  0.53721600  0.18637300  1
  Si  Si6  1  0.63898400  0.46278400  0.68637300  1
  Si  Si7  1  0.13898400  0.03721600  0.31362700  1
  Si  Si8  1  0.78697000  0.28968900  0.06115400  1
  Si  Si9  1  0.28697000  0.21031100  0.93884600  1
  Si  Si10  1  0.21303000  0.78968900  0.43884600  1
  Si  Si11  1  0.71303000  0.71031100  0.56115400  1
  Si  Si12  1  0.21303000  0.71031100  0.93884600  1
  Si  Si13  1  0.71303000  0.78968900  0.06115400  1
  Si  Si14  1  0.78697000  0.21031100  0.56115400  1
  Si  Si15  1  0.28697000  0.28968900  0.43884600  1
  Ni  Ni0  1  0.67007000  0.95180000  0.44254800  1
  Ni  Ni1  1  0.17007000  0.54820000  0.55745200  1
  Ni  Ni2  1  0.32993000  0.45180000  0.05745200  1
  Ni  Ni3  1  0.82993000  0.04820000  0.94254800  1
  Ni  Ni4  1  0.32993000  0.04820000  0.55745200  1
  Ni  Ni5  1  0.82993000  0.45180000  0.44254800  1
  Ni  Ni6  1  0.67007000  0.54820000  0.94254800  1
  Ni  Ni7  1  0.17007000  0.95180000  0.05745200  1
  Ni  Ni8  1  0.79009900  0.29206200  0.30402800  1
  Ni  Ni9  1  0.29009900  0.20793800  0.69597200  1
  Ni  Ni10  1  0.20990100  0.79206200  0.19597200  1
  Ni  Ni11  1  0.70990100  0.70793800  0.80402800  1
  Ni  Ni12  1  0.20990100  0.70793800  0.69597200  1
  Ni  Ni13  1  0.70990100  0.79206200  0.30402800  1
  Ni  Ni14  1  0.79009900  0.20793800  0.80402800  1
  Ni  Ni15  1  0.29009900  0.29206200  0.19597200  1
  N  N0  1  0.68690000  0.48500300  0.29848800  1
  N  N1  1  0.18690000  0.01499700  0.70151200  1
  N  N2  1  0.31310000  0.98500300  0.20151200  1
  N  N3  1  0.81310000  0.51499700  0.79848800  1
  N  N4  1  0.31310000  0.51499700  0.70151200  1
  N  N5  1  0.81310000  0.98500300  0.29848800  1
  N  N6  1  0.68690000  0.01499700  0.79848800  1
  N  N7  1  0.18690000  0.48500300  0.20151200  1
  N  N8  1  0.63106700  0.27555600  0.44941700  1
  N  N9  1  0.13106700  0.22444400  0.55058300  1
  N  N10  1  0.36893300  0.77555600  0.05058300  1
  N  N11  1  0.86893300  0.72444400  0.94941700  1
  N  N12  1  0.36893300  0.72444400  0.55058300  1
  N  N13  1  0.86893300  0.77555600  0.44941700  1
  N  N14  1  0.63106700  0.22444400  0.94941700  1
  N  N15  1  0.13106700  0.27555600  0.05058300  1
  N  N16  1  0.72399200  0.45822300  0.07585200  1
  N  N17  1  0.22399200  0.04177700  0.92414800  1
  N  N18  1  0.27600800  0.95822300  0.42414800  1
  N  N19  1  0.77600800  0.54177700  0.57585200  1
  N  N20  1  0.27600800  0.54177700  0.92414800  1
  N  N21  1  0.77600800  0.95822300  0.07585200  1
  N  N22  1  0.72399200  0.04177700  0.57585200  1
  N  N23  1  0.22399200  0.45822300  0.42414800  1
  N  N24  1  0.65324400  0.20852900  0.17299100  1
  N  N25  1  0.15324400  0.29147100  0.82700900  1
  N  N26  1  0.34675600  0.70852900  0.32700900  1
  N  N27  1  0.84675600  0.79147100  0.67299100  1
  N  N28  1  0.34675600  0.79147100  0.82700900  1
  N  N29  1  0.84675600  0.70852900  0.17299100  1
  N  N30  1  0.65324400  0.29147100  0.67299100  1
  N  N31  1  0.15324400  0.20852900  0.32700900  1
loop_
_geom_bond_atom_site_label_1
_geom_bond_atom_site_label_2
_geom_bond_distance
_geom_bond_site_symmetry_2
N0 Si2 1.740357 1_555
N0 Si5 1.744747 1_555
N0 Ni5 1.979643 1_555
N0 Ni8 2.031884 1_555
N1 Si3 1.740357 1_445
N1 Si4 1.744747 1_545
N1 Ni4 1.979643 1_555
N1 Ni9 2.031884 1_555
N2 Si0 1.740357 1_565
N2 Si7 1.744747 1_565
N2 Ni7 1.979643 1_555
N2 Ni10 2.031884 1_555
N3 Si1 1.740357 1_655
N3 Si6 1.744747 1_555
N3 Ni6 1.979643 1_555
N3 Ni11 2.031884 1_555
N4 Si6 1.740357 1_555
N4 Si1 1.744747 1_555
N4 Ni1 1.979643 1_555
N4 Ni12 2.031884 1_555
N5 Si7 1.740357 1_665
N5 Si0 1.744747 1_565
N5 Ni0 1.979643 1_555
N5 Ni13 2.031884 1_555
N6 Si4 1.740357 1_545
N6 Si3 1.744747 1_545
N6 Ni3 1.979643 1_555
N6 Ni14 2.031884 1_555
N7 Si5 1.740357 1_455
N7 Si2 1.744747 1_555
N7 Ni2 1.979643 1_555
N7 Ni15 2.031884 1_555
N8 Si14 1.742337 1_555
N8 Si15 1.749366 1_555
N8 Ni8 2.004325 1_555
N8 Ni5 2.056900 1_555
N9 Si15 1.742337 1_555
N9 Si14 1.749366 1_455
N9 Ni9 2.004325 1_555
N9 Ni4 2.056900 1_555
N10 Si12 1.742337 1_554
N10 Si13 1.749366 1_555
N10 Ni10 2.004325 1_555
N10 Ni7 2.056900 1_555
N11 Si13 1.742337 1_556
N11 Si12 1.749366 1_655
N11 Ni11 2.004325 1_555
N11 Ni6 2.056900 1_555
N12 Si10 1.742337 1_555
N12 Si11 1.749366 1_555
N12 Ni12 2.004325 1_555
N12 Ni1 2.056900 1_555
N13 Si11 1.742337 1_555
N13 Si10 1.749366 1_655
N13 Ni13 2.004325 1_555
N13 Ni0 2.056900 1_555
N14 Si8 1.742337 1_556
N14 Si9 1.749366 1_555
N14 Ni14 2.004325 1_555
N14 Ni3 2.056900 1_555
N15 Si9 1.742337 1_554
N15 Si8 1.749366 1_455
N15 Ni15 2.004325 1_555
N15 Ni2 2.056900 1_555
N16 Si5 1.748435 1_555
N16 Si8 1.753395 1_555
N16 Ni6 1.929452 1_554
N16 Ni2 2.005264 1_555
N17 Si4 1.748435 1_545
N17 Si9 1.753395 1_555
N17 Ni7 1.929452 1_546
N17 Ni3 2.005264 1_455
N18 Si7 1.748435 1_565
N18 Si10 1.753395 1_555
N18 Ni4 1.929452 1_565
N18 Ni0 2.005264 1_555
N19 Si6 1.748435 1_555
N19 Si11 1.753395 1_555
N19 Ni5 1.929452 1_555
N19 Ni1 2.005264 1_655
N20 Si1 1.748435 1_555
N20 Si12 1.753395 1_555
N20 Ni2 1.929452 1_556
N20 Ni6 2.005264 1_555
N21 Si0 1.748435 1_565
N21 Si13 1.753395 1_555
N21 Ni3 1.929452 1_564
N21 Ni7 2.005264 1_655
N22 Si3 1.748435 1_545
N22 Si14 1.753395 1_555
N22 Ni0 1.929452 1_545
N22 Ni4 2.005264 1_555
N23 Si2 1.748435 1_555
N23 Si15 1.753395 1_555
N23 Ni1 1.929452 1_555
N23 Ni5 2.005264 1_455
N24 Si0 1.752208 1_555
N24 Si8 1.765342 1_555
N24 Ni8 1.978916 1_555
N24 Ni15 2.042378 1_555
N25 Si1 1.752208 1_555
N25 Si9 1.765342 1_555
N25 Ni9 1.978916 1_555
N25 Ni14 2.042378 1_455
N26 Si2 1.752208 1_555
N26 Si10 1.765342 1_555
N26 Ni10 1.978916 1_555
N26 Ni13 2.042378 1_555
N27 Si3 1.752208 1_555
N27 Si11 1.765342 1_555
N27 Ni11 1.978916 1_555
N27 Ni12 2.042378 1_655
N28 Si4 1.752208 1_555
N28 Si12 1.765342 1_555
N28 Ni12 1.978916 1_555
N28 Ni11 2.042378 1_555
N29 Si5 1.752208 1_555
N29 Si13 1.765342 1_555
N29 Ni13 1.978916 1_555
N29 Ni10 2.042378 1_655
N30 Si6 1.752208 1_555
N30 Si14 1.765342 1_555
N30 Ni14 1.978916 1_555
N30 Ni9 2.042378 1_555
N31 Si7 1.752208 1_555
N31 Si15 1.765342 1_555
N31 Ni15 1.978916 1_555
N31 Ni8 2.042378 1_455
