# generated using pymatgen
data_Li4MnCo2O7
_symmetry_space_group_name_H-M   'P 1'
_cell_length_a   14.86161318
_cell_length_b   14.86161318
_cell_length_c   5.91189051
_cell_angle_alpha   83.52153048
_cell_angle_beta   83.52153048
_cell_angle_gamma   11.21489623
_symmetry_Int_Tables_number   1
_chemical_formula_structural   Li4MnCo2O7
_chemical_formula_sum   'Li8 Mn2 Co4 O14'
_cell_volume   252.31614143
_cell_formula_units_Z   2
loop_
 _symmetry_equiv_pos_site_id
 _symmetry_equiv_pos_as_xyz
  1  'x, y, z'
loop_
 _atom_site_type_symbol
 _atom_site_label
 _atom_site_symmetry_multiplicity
 _atom_site_fract_x
 _atom_site_fract_y
 _atom_site_fract_z
 _atom_site_occupancy
  Li  Li0  1  0.57138000  0.57138000  0.20905000  1
  Li  Li1  1  0.71063100  0.71063100  0.64108200  1
  Li  Li2  1  0.85923800  0.85923800  0.06905000  1
  Li  Li3  1  0.13552900  0.13552900  0.92523900  1
  Li  Li4  1  0.28477300  0.28477300  0.35951200  1
  Li  Li5  1  0.43120100  0.43120100  0.78338800  1
  Li  Li6  1  0.00585900  0.00585900  0.50259800  1
  Li  Li7  1  0.57128600  0.57128600  0.72006000  1
  Mn  Mn0  1  0.00296100  0.00296100  0.99463700  1
  Mn  Mn1  1  0.28584500  0.28584500  0.85680800  1
  Co  Co0  1  0.13475000  0.13475000  0.44692900  1
  Co  Co1  1  0.42874600  0.42874600  0.28784100  1
  Co  Co2  1  0.70933000  0.70933000  0.15321100  1
  Co  Co3  1  0.85968600  0.85968600  0.56477800  1
  O  O0  1  0.49876400  0.49876400  0.22458800  1
  O  O1  1  0.64260500  0.64260500  0.66344500  1
  O  O2  1  0.78567700  0.78567700  0.07843900  1
  O  O3  1  0.06498500  0.06498500  0.96851800  1
  O  O4  1  0.21522900  0.21522900  0.37364600  1
  O  O5  1  0.35328300  0.35328300  0.80982600  1
  O  O6  1  0.92957800  0.92957800  0.52381900  1
  O  O7  1  0.64574700  0.64574700  0.18632500  1
  O  O8  1  0.78652200  0.78652200  0.63555400  1
  O  O9  1  0.93250100  0.93250100  0.05073300  1
  O  O10  1  0.22067600  0.22067600  0.90400900  1
  O  O11  1  0.35878900  0.35878900  0.32974000  1
  O  O12  1  0.50009700  0.50009700  0.77944700  1
  O  O13  1  0.07433000  0.07433000  0.45772700  1
loop_
_geom_bond_atom_site_label_1
_geom_bond_atom_site_label_2
_geom_bond_distance
_geom_bond_site_symmetry_2
Li0 O3 2.056121 1_564
Li0 O3 2.056121 1_654
Li0 O13 2.075289 1_565
Li0 O13 2.075289 1_655
Li0 O0 2.139586 1_555
Li0 O7 2.188692 1_555
Li1 O1 2.001603 1_555
Li1 O4 2.139682 1_565
Li1 O4 2.139682 1_655
Li1 O10 2.172082 1_655
Li1 O10 2.172082 1_565
Li1 O8 2.241461 1_555
Li2 O11 2.116487 1_655
Li2 O11 2.116487 1_565
Li2 O5 2.132976 1_564
Li2 O5 2.132976 1_654
Li2 O9 2.157600 1_555
Li2 O2 2.170415 1_555
Li3 O3 2.073397 1_555
Li3 O1 2.115301 1_455
Li3 O1 2.115301 1_545
Li3 O7 2.165260 1_546
Li3 O7 2.165260 1_456
Li3 O10 2.507606 1_555
Li4 O4 2.049390 1_555
Li4 O11 2.176549 1_555
Li4 O8 2.189473 1_545
Li4 O8 2.189473 1_455
Li4 O2 2.204670 1_545
Li4 O2 2.204670 1_455
Li5 O12 2.035502 1_555
Li5 O6 2.117217 1_545
Li5 O6 2.117217 1_455
Li5 O9 2.149898 1_546
Li5 O9 2.149898 1_456
Li5 O5 2.292438 1_555
Li6 O13 2.012697 1_555
Li6 O12 2.180221 1_455
Li6 O12 2.180221 1_545
Li6 O0 2.220888 1_455
Li6 O0 2.220888 1_545
Li6 O6 2.245706 1_445
Li7 O3 2.058878 1_565
Li7 O3 2.058878 1_655
Li7 O12 2.095278 1_555
Li7 O1 2.098260 1_555
Li7 O13 2.119070 1_655
Li7 O13 2.119070 1_565
Mn0 O3 1.823690 1_555
Mn0 O12 1.938771 1_545
Mn0 O12 1.938771 1_455
Mn0 O0 1.983434 1_456
Mn0 O0 1.983434 1_546
Mn0 O9 2.073032 1_446
Mn1 O10 1.916290 1_555
Mn1 O8 1.952992 1_545
Mn1 O8 1.952992 1_455
Mn1 O2 1.955530 1_456
Mn1 O2 1.955530 1_546
Mn1 O5 1.982692 1_555
Co0 O13 1.781176 1_555
Co0 O1 1.966889 1_545
Co0 O1 1.966889 1_455
Co0 O7 2.115324 1_455
Co0 O7 2.115324 1_545
Co0 O4 2.370933 1_555
Co1 O9 2.012642 1_545
Co1 O9 2.012642 1_455
Co1 O6 2.015788 1_455
Co1 O6 2.015788 1_545
Co1 O11 2.056097 1_555
Co1 O0 2.062546 1_555
Co2 O7 1.868803 1_555
Co2 O4 1.972076 1_655
Co2 O4 1.972076 1_565
Co2 O10 2.068764 1_564
Co2 O10 2.068764 1_654
Co2 O2 2.251555 1_555
Co3 O11 2.012114 1_655
Co3 O11 2.012114 1_565
Co3 O5 2.044787 1_565
Co3 O5 2.044787 1_655
Co3 O6 2.054159 1_555
Co3 O8 2.157262 1_555
