# generated using pymatgen
data_Li6FeS4
_symmetry_space_group_name_H-M   'P 1'
_cell_length_a   7.33089671
_cell_length_b   7.33089671
_cell_length_c   7.33089671
_cell_angle_alpha   150.67672683
_cell_angle_beta   122.90534583
_cell_angle_gamma   65.47292462
_symmetry_Int_Tables_number   1
_chemical_formula_structural   Li6FeS4
_chemical_formula_sum   'Li6 Fe1 S4'
_cell_volume   160.34155335
_cell_formula_units_Z   1
loop_
 _symmetry_equiv_pos_site_id
 _symmetry_equiv_pos_as_xyz
  1  'x, y, z'
loop_
 _atom_site_type_symbol
 _atom_site_label
 _atom_site_symmetry_multiplicity
 _atom_site_fract_x
 _atom_site_fract_y
 _atom_site_fract_z
 _atom_site_occupancy
  Li  Li0  1  0.42597100  0.12336500  0.30260600  1
  Li  Li1  1  0.83478700  0.36865200  0.46613500  1
  Li  Li2  1  0.38058000  0.30640100  0.07417900  1
  Li  Li3  1  0.76777800  0.69359900  0.07417900  1
  Li  Li4  1  0.09748200  0.63134800  0.46613500  1
  Li  Li5  1  0.17924100  0.87663500  0.30260600  1
  Fe  Fe0  1  0.70692100  0.00000000  0.70692100  1
  S  S0  1  0.03052200  0.00000000  0.03052200  1
  S  S1  1  0.51657400  0.75956500  0.75700900  1
  S  S2  1  0.99744400  0.24043500  0.75700900  1
  S  S3  1  0.54388100  0.50000000  0.04388100  1
loop_
_geom_bond_atom_site_label_1
_geom_bond_atom_site_label_2
_geom_bond_distance
_geom_bond_site_symmetry_2
Li0 S0 2.439097 1_555
Li0 S1 2.523217 1_544
Li0 S1 2.523217 1_555
Li0 S3 2.935252 1_545
Li0 S3 2.935252 1_556
Li1 S0 2.504122 1_666
Li1 S0 2.504122 1_655
Li1 S2 2.579567 1_555
Li1 S1 2.720297 1_544
Li1 S1 2.720297 1_555
Li2 S1 2.327585 1_544
Li2 S1 2.327585 1_555
Li2 S2 2.366534 1_454
Li2 S3 2.397078 1_555
Li3 S2 2.327585 1_565
Li3 S2 2.327585 1_554
Li3 S1 2.366534 1_554
Li3 S3 2.397078 1_555
Li4 S0 2.504117 1_566
Li4 S0 2.504120 1_555
Li4 S1 2.579574 1_555
Li4 S2 2.720297 1_465
Li4 S2 2.720300 1_454
Li5 S0 2.439097 1_565
Li5 S2 2.523217 1_465
Li5 S2 2.523217 1_454
Li5 S3 2.935252 1_555
Li5 S3 2.935252 1_566
Fe0 S3 2.178983 1_556
Fe0 S3 2.178983 1_545
Fe0 S0 2.267357 1_656
Fe0 S2 2.985984 1_555
Fe0 S1 2.985984 1_545
