# generated using pymatgen
data_Sr2La2MgRuO8
_symmetry_space_group_name_H-M   'P 1'
_cell_length_a   3.93023915
_cell_length_b   15.81400273
_cell_length_c   6.93021745
_cell_angle_alpha   106.65814466
_cell_angle_beta   106.45103016
_cell_angle_gamma   89.80115099
_symmetry_Int_Tables_number   1
_chemical_formula_structural   Sr2La2MgRuO8
_chemical_formula_sum   'Sr4 La4 Mg2 Ru2 O16'
_cell_volume   394.34430958
_cell_formula_units_Z   2
loop_
 _symmetry_equiv_pos_site_id
 _symmetry_equiv_pos_as_xyz
  1  'x, y, z'
loop_
 _atom_site_type_symbol
 _atom_site_label
 _atom_site_symmetry_multiplicity
 _atom_site_fract_x
 _atom_site_fract_y
 _atom_site_fract_z
 _atom_site_occupancy
  Sr  Sr0  1  0.35108300  0.08812600  0.70571000  1
  Sr  Sr1  1  0.35065400  0.34135300  0.71348100  1
  Sr  Sr2  1  0.64891700  0.16187400  0.29429000  1
  Sr  Sr3  1  0.64934600  0.90864700  0.28651900  1
  La  La0  1  0.34800400  0.58703400  0.72807100  1
  La  La1  1  0.35217200  0.83209200  0.71756500  1
  La  La2  1  0.64782800  0.41790800  0.28243500  1
  La  La3  1  0.65199600  0.66296600  0.27192900  1
  Mg  Mg0  1  0.00191800  0.75024600  0.00243200  1
  Mg  Mg1  1  0.99808200  0.49975400  0.99756800  1
  Ru  Ru0  1  0.99991900  0.00039800  0.99807400  1
  Ru  Ru1  1  0.00008100  0.24960200  0.00192600  1
  O  O0  1  0.00000000  0.12500000  0.00000000  1
  O  O1  1  0.00586700  0.37493000  0.01026200  1
  O  O2  1  0.00000000  0.62500000  0.00000000  1
  O  O3  1  0.99413300  0.87507000  0.98973800  1
  O  O4  1  0.15990000  0.03904500  0.32565600  1
  O  O5  1  0.15698300  0.29486600  0.33056600  1
  O  O6  1  0.16229100  0.53905900  0.36006900  1
  O  O7  1  0.16538400  0.78549200  0.35224200  1
  O  O8  1  0.49834000  0.99838500  0.99456200  1
  O  O9  1  0.50166000  0.25161500  0.00543800  1
  O  O10  1  0.50490900  0.50150000  0.01154700  1
  O  O11  1  0.49509100  0.74850000  0.98845300  1
  O  O12  1  0.84010000  0.21095500  0.67434400  1
  O  O13  1  0.83461600  0.46450800  0.64775800  1
  O  O14  1  0.83770900  0.71094100  0.63993100  1
  O  O15  1  0.84301700  0.95513400  0.66943400  1
loop_
_geom_bond_atom_site_label_1
_geom_bond_atom_site_label_2
_geom_bond_distance
_geom_bond_site_symmetry_2
La0 O6 2.335113 1_555
La0 O2 2.566736 1_556
La0 O11 2.624524 1_555
La0 O10 2.626956 1_556
La0 O13 2.628346 1_455
La0 O2 2.665549 1_656
La0 O13 2.771413 1_555
La0 O14 2.863571 1_455
La0 O14 3.048800 1_555
La1 O7 2.318022 1_555
La1 O11 2.531339 1_555
La1 O3 2.600312 1_455
La1 O14 2.620719 1_455
La1 O3 2.639511 1_555
La1 O8 2.724395 1_555
La1 O14 2.750773 1_555
La1 O15 2.805133 1_455
La1 O15 2.895089 1_555
La2 O13 2.318022 1_555
La2 O10 2.531339 1_555
La2 O1 2.600312 1_655
La2 O6 2.620719 1_655
La2 O1 2.639511 1_555
La2 O9 2.724395 1_555
La2 O6 2.750773 1_555
La2 O5 2.805133 1_655
La2 O5 2.895089 1_555
La3 O14 2.335113 1_555
La3 O2 2.566736 1_655
La3 O10 2.624524 1_555
La3 O11 2.626956 1_554
La3 O7 2.628346 1_655
La3 O2 2.665549 1_555
La3 O7 2.771413 1_555
La3 O6 2.863571 1_655
La3 O6 3.048800 1_555
Mg0 O11 1.966613 1_454
Mg0 O11 1.967627 1_554
Mg0 O2 1.975897 1_555
Mg0 O3 2.000709 1_454
Mg0 O7 2.223984 1_555
Mg0 O14 2.302888 1_454
Mg1 O10 1.966613 1_656
Mg1 O10 1.967627 1_556
Mg1 O2 1.975897 1_656
Mg1 O1 2.000709 1_656
Mg1 O13 2.223984 1_555
Mg1 O6 2.302888 1_656
O0 Ru1 1.966672 1_555
O0 Ru0 1.966672 1_454
O0 Sr0 2.703706 1_554
O0 Sr2 2.703706 1_455
O0 Sr0 2.717810 1_454
O0 Sr2 2.717810 1_555
O1 Ru1 1.966178 1_555
O1 Sr1 2.701101 1_554
O1 Sr1 2.743549 1_454
O3 Ru0 1.966178 1_565
O3 Sr3 2.701101 1_556
O3 Sr3 2.743549 1_656
O4 Ru0 2.078811 1_454
O4 Sr0 2.411494 1_555
O4 Sr3 2.784264 1_445
O4 Sr2 2.796639 1_455
O4 Sr3 2.823754 1_545
O4 Sr2 2.831741 1_555
O5 Ru1 2.086330 1_555
O5 Sr1 2.429655 1_555
O5 Sr2 2.813426 1_455
O5 Sr2 2.858047 1_555
O7 Sr3 2.841099 1_455
O7 Sr3 2.939969 1_555
O8 Ru0 1.964827 1_565
O8 Ru0 1.965980 1_465
O8 Sr0 2.706116 1_565
O8 Sr3 2.724002 1_556
O8 Sr2 2.754033 1_566
O9 Ru1 1.964827 1_555
O9 Ru1 1.965980 1_655
O9 Sr2 2.706116 1_555
O9 Sr1 2.724002 1_554
O9 Sr0 2.754033 1_554
O10 Sr1 2.711173 1_554
O11 Sr3 2.711173 1_556
O12 Ru1 2.078811 1_656
O12 Sr2 2.411494 1_555
O12 Sr1 2.784264 1_655
O12 Sr0 2.796639 1_655
O12 Sr1 2.823754 1_555
O12 Sr0 2.831741 1_555
O13 Sr1 2.841099 1_655
O13 Sr1 2.939969 1_555
O15 Ru0 2.086330 1_565
O15 Sr3 2.429655 1_555
O15 Sr0 2.813426 1_665
O15 Sr0 2.858047 1_565
