# generated using pymatgen
data_Mo(PO4)2
_symmetry_space_group_name_H-M   'P 1'
_cell_length_a   4.89302940
_cell_length_b   7.34336480
_cell_length_c   7.69644103
_cell_angle_alpha   90.00000000
_cell_angle_beta   90.00000000
_cell_angle_gamma   90.00000000
_symmetry_Int_Tables_number   1
_chemical_formula_structural   Mo(PO4)2
_chemical_formula_sum   'Mo2 P4 O16'
_cell_volume   276.54313051
_cell_formula_units_Z   2
loop_
 _symmetry_equiv_pos_site_id
 _symmetry_equiv_pos_as_xyz
  1  'x, y, z'
loop_
 _atom_site_type_symbol
 _atom_site_label
 _atom_site_symmetry_multiplicity
 _atom_site_fract_x
 _atom_site_fract_y
 _atom_site_fract_z
 _atom_site_occupancy
  Mo  Mo0  1  0.50000000  0.75000000  0.78524322  1
  Mo  Mo1  1  -0.00000000  0.25000000  0.21475678  1
  P  P0  1  0.25631125  0.63818925  0.35992893  1
  P  P1  1  0.75631125  0.36181075  0.64007107  1
  P  P2  1  0.74368875  0.86181075  0.35992893  1
  P  P3  1  0.24368875  0.13818925  0.64007107  1
  O  O0  1  0.27859213  0.63062823  0.55153069  1
  O  O1  1  0.77859213  0.36937177  0.44846931  1
  O  O2  1  0.72140787  0.86937177  0.55153069  1
  O  O3  1  0.22140787  0.13062823  0.44846931  1
  O  O4  1  0.28620597  0.64051875  0.91855646  1
  O  O5  1  0.78620597  0.35948125  0.08144354  1
  O  O6  1  0.71379403  0.85948125  0.91855646  1
  O  O7  1  0.21379403  0.14051875  0.08144354  1
  O  O8  1  0.25091376  0.95976582  0.73354535  1
  O  O9  1  0.75091376  0.04023418  0.26645465  1
  O  O10  1  0.74908624  0.54023418  0.73354535  1
  O  O11  1  0.24908624  0.45976582  0.26645465  1
  O  O12  1  0.50000000  0.75000000  0.27672500  1
  O  O13  1  -0.00000000  0.25000000  0.72327500  1
  O  O14  1  0.50000000  0.25000000  0.70342954  1
  O  O15  1  -0.00000000  0.75000000  0.29657046  1
loop_
_geom_bond_atom_site_label_1
_geom_bond_atom_site_label_2
_geom_bond_distance
_geom_bond_site_symmetry_2
Mo0 O6 1.671356 1_555
Mo0 O4 1.671356 1_555
Mo0 O10 2.004133 1_555
Mo0 O8 2.004133 1_555
Mo0 O0 2.275431 1_555
Mo0 O2 2.275431 1_555
Mo1 O5 1.671356 1_455
Mo1 O7 1.671356 1_555
Mo1 O9 2.004133 1_455
Mo1 O11 2.004133 1_555
Mo1 O3 2.275431 1_555
Mo1 O1 2.275431 1_455
O0 P0 1.479718 1_555
O1 P1 1.479718 1_555
O2 P2 1.479718 1_555
O3 P3 1.479718 1_555
O8 P3 1.495163 1_565
O9 P2 1.495163 1_545
O10 P1 1.495163 1_555
O11 P0 1.495163 1_555
O12 P0 1.583032 1_555
O12 P2 1.583032 1_555
O13 P3 1.583032 1_555
O13 P1 1.583032 1_455
O14 P3 1.576326 1_555
O14 P1 1.576326 1_555
O15 P0 1.576326 1_555
O15 P2 1.576326 1_455
