# generated using pymatgen
data_V3ZnP3O13
_symmetry_space_group_name_H-M   'P 1'
_cell_length_a   6.32833800
_cell_length_b   7.49484200
_cell_length_c   10.74866327
_cell_angle_alpha   80.54214882
_cell_angle_beta   90.00000000
_cell_angle_gamma   90.00000000
_symmetry_Int_Tables_number   1
_chemical_formula_structural   V3ZnP3O13
_chemical_formula_sum   'V6 Zn2 P6 O26'
_cell_volume   502.87800633
_cell_formula_units_Z   2
loop_
 _symmetry_equiv_pos_site_id
 _symmetry_equiv_pos_as_xyz
  1  'x, y, z'
loop_
 _atom_site_type_symbol
 _atom_site_label
 _atom_site_symmetry_multiplicity
 _atom_site_fract_x
 _atom_site_fract_y
 _atom_site_fract_z
 _atom_site_occupancy
  V  V0  1  0.25000000  0.63956300  0.20408100  1
  V  V1  1  0.75000000  0.36043700  0.79591900  1
  V  V2  1  0.25000000  0.22411700  0.44329200  1
  V  V3  1  0.50000000  0.00000000  0.00000000  1
  V  V4  1  0.75000000  0.77588300  0.55670800  1
  V  V5  1  0.00000000  0.00000000  0.00000000  1
  Zn  Zn0  1  0.75000000  0.39687400  0.13915600  1
  Zn  Zn1  1  0.25000000  0.60312600  0.86084400  1
  P  P0  1  0.25000000  0.77799700  0.48484700  1
  P  P1  1  0.75000000  0.22200300  0.51515300  1
  P  P2  1  0.25000000  0.26627900  0.76688000  1
  P  P3  1  0.75000000  0.73372100  0.23312000  1
  P  P4  1  0.75000000  0.68736200  0.87823000  1
  P  P5  1  0.25000000  0.31263800  0.12177000  1
  O  O0  1  0.75000000  0.64677300  0.74290400  1
  O  O1  1  0.55466600  0.26432100  0.42879100  1
  O  O2  1  0.25000000  0.21396600  0.63785400  1
  O  O3  1  0.53961200  0.78270400  0.90326700  1
  O  O4  1  0.75000000  0.34710500  0.61546600  1
  O  O5  1  0.75000000  0.11925700  0.90820700  1
  O  O6  1  0.25000000  0.65289500  0.38453400  1
  O  O7  1  0.03961200  0.21729600  0.09673300  1
  O  O8  1  0.25000000  0.97750500  0.41686800  1
  O  O9  1  0.75000000  0.02249500  0.58313200  1
  O  O10  1  0.06382400  0.39288200  0.79516800  1
  O  O11  1  0.25000000  0.88074300  0.09179300  1
  O  O12  1  0.56382400  0.60711800  0.20483200  1
  O  O13  1  0.75000000  0.49117500  0.95689600  1
  O  O14  1  0.75000000  0.78603400  0.36214600  1
  O  O15  1  0.46038800  0.21729600  0.09673300  1
  O  O16  1  0.94533400  0.26432100  0.42879100  1
  O  O17  1  0.44533400  0.73567900  0.57120900  1
  O  O18  1  0.43617600  0.39288200  0.79516800  1
  O  O19  1  0.25000000  0.35322700  0.25709600  1
  O  O20  1  0.75000000  0.90373100  0.12679200  1
  O  O21  1  0.25000000  0.09626900  0.87320800  1
  O  O22  1  0.93617600  0.60711800  0.20483200  1
  O  O23  1  0.96038800  0.78270400  0.90326700  1
  O  O24  1  0.05466600  0.73567900  0.57120900  1
  O  O25  1  0.25000000  0.50882500  0.04310400  1
loop_
_geom_bond_atom_site_label_1
_geom_bond_atom_site_label_2
_geom_bond_distance
_geom_bond_site_symmetry_2
O0 P4 1.534193 1_555
O0 V4 2.074930 1_555
O0 V1 2.127985 1_555
O1 P1 1.547118 1_555
O1 V2 1.953702 1_555
O2 P2 1.501932 1_555
O2 V2 2.080134 1_555
O3 P4 1.555275 1_555
O3 V3 2.086327 1_566
O3 Zn1 2.362226 1_555
O4 P1 1.540767 1_555
O4 V1 1.958529 1_555
O5 V3 1.996384 1_556
O5 V5 1.996384 1_656
O5 V1 2.001789 1_555
O6 P0 1.540767 1_555
O6 V0 1.958529 1_555
O7 P5 1.555275 1_555
O7 V5 2.086327 1_555
O7 Zn0 2.362226 1_455
O8 P0 1.552641 1_555
O8 V2 1.915587 1_565
O9 P1 1.552641 1_555
O9 V4 1.915587 1_545
O10 P2 1.573449 1_555
O10 V1 2.000671 1_455
O10 Zn1 2.176006 1_555
O11 V5 1.996384 1_565
O11 V3 1.996384 1_565
O11 V0 2.001789 1_555
O12 P3 1.573449 1_555
O12 V0 2.000671 1_555
O12 Zn0 2.176006 1_555
O13 P4 1.571117 1_555
O13 Zn0 1.970372 1_556
O13 V1 2.123963 1_555
O14 P3 1.501932 1_555
O14 V4 2.080134 1_555
O15 P5 1.555275 1_555
O15 V3 2.086327 1_555
O15 Zn0 2.362226 1_555
O16 P1 1.547118 1_555
O16 V2 1.953702 1_655
O17 P0 1.547118 1_555
O17 V4 1.953702 1_555
O18 P2 1.573449 1_555
O18 V1 2.000671 1_555
O18 Zn1 2.176006 1_555
O19 P5 1.534193 1_555
O19 V2 2.074930 1_555
O19 V0 2.127985 1_555
O20 P3 1.565622 1_555
O20 V5 2.134893 1_665
O20 V3 2.134893 1_565
O21 P2 1.565622 1_555
O21 V3 2.134893 1_556
O21 V5 2.134893 1_556
O22 P3 1.573449 1_555
O22 V0 2.000671 1_655
O22 Zn0 2.176006 1_555
O23 P4 1.555275 1_555
O23 V5 2.086327 1_666
O23 Zn1 2.362226 1_655
O24 P0 1.547118 1_555
O24 V4 1.953702 1_455
O25 P5 1.571117 1_555
O25 Zn1 1.970372 1_554
O25 V0 2.123963 1_555
