# generated using pymatgen
data_NaZrP2O9
_symmetry_space_group_name_H-M   'P 1'
_cell_length_a   5.52616200
_cell_length_b   9.16838700
_cell_length_c   15.72032651
_cell_angle_alpha   85.91630481
_cell_angle_beta   90.00000000
_cell_angle_gamma   90.00000000
_symmetry_Int_Tables_number   1
_chemical_formula_structural   NaZrP2O9
_chemical_formula_sum   'Na4 Zr4 P8 O36'
_cell_volume   794.46372778
_cell_formula_units_Z   4
loop_
 _symmetry_equiv_pos_site_id
 _symmetry_equiv_pos_as_xyz
  1  'x, y, z'
loop_
 _atom_site_type_symbol
 _atom_site_label
 _atom_site_symmetry_multiplicity
 _atom_site_fract_x
 _atom_site_fract_y
 _atom_site_fract_z
 _atom_site_occupancy
  Na  Na0  1  0.29976800  0.59529500  0.83493100  1
  Na  Na1  1  0.79976800  0.40470500  0.66506900  1
  Na  Na2  1  0.70023200  0.40470500  0.16506900  1
  Na  Na3  1  0.20023200  0.59529500  0.33493100  1
  Zr  Zr0  1  0.74867000  0.75050500  0.48031100  1
  Zr  Zr1  1  0.24867000  0.24949500  0.01968900  1
  Zr  Zr2  1  0.25133000  0.24949500  0.51968900  1
  Zr  Zr3  1  0.75133000  0.75050500  0.98031100  1
  P  P0  1  0.74614400  0.06353400  0.60459000  1
  P  P1  1  0.24614400  0.93646600  0.89541000  1
  P  P2  1  0.25385600  0.93646600  0.39541000  1
  P  P3  1  0.75385600  0.06353400  0.10459000  1
  P  P4  1  0.24639600  0.59844800  0.60346200  1
  P  P5  1  0.74639600  0.40155200  0.89653800  1
  P  P6  1  0.75360400  0.40155200  0.39653800  1
  P  P7  1  0.25360400  0.59844800  0.10346200  1
  O  O0  1  0.75193500  0.95243100  0.53781200  1
  O  O1  1  0.25193500  0.04756900  0.96218800  1
  O  O2  1  0.24806500  0.04756900  0.46218800  1
  O  O3  1  0.74806500  0.95243100  0.03781200  1
  O  O4  1  0.96104200  0.16840700  0.60318000  1
  O  O5  1  0.46104200  0.83159300  0.89682000  1
  O  O6  1  0.03895800  0.83159300  0.39682000  1
  O  O7  1  0.53895800  0.16840700  0.10318000  1
  O  O8  1  0.50921000  0.14817900  0.60878200  1
  O  O9  1  0.00921000  0.85182100  0.89121800  1
  O  O10  1  0.49079000  0.85182100  0.39121800  1
  O  O11  1  0.99079000  0.14817900  0.10878200  1
  O  O12  1  0.00832200  0.66564300  0.56346700  1
  O  O13  1  0.50832200  0.33435700  0.93653300  1
  O  O14  1  0.99167800  0.33435700  0.43653300  1
  O  O15  1  0.49167800  0.66564300  0.06346700  1
  O  O16  1  0.77550900  0.57019300  0.40810400  1
  O  O17  1  0.27550900  0.42980700  0.09189600  1
  O  O18  1  0.22449100  0.42980700  0.59189600  1
  O  O19  1  0.72449100  0.57019300  0.90810400  1
  O  O20  1  0.46318300  0.65598600  0.54634600  1
  O  O21  1  0.96318300  0.34401400  0.95365400  1
  O  O22  1  0.53681700  0.34401400  0.45365400  1
  O  O23  1  0.03681700  0.65598600  0.04634600  1
  O  O24  1  0.77986800  0.97058900  0.70148100  1
  O  O25  1  0.27986800  0.02941100  0.79851900  1
  O  O26  1  0.22013200  0.02941100  0.29851900  1
  O  O27  1  0.72013200  0.97058900  0.20148100  1
  O  O28  1  0.77586500  0.37461600  0.80464700  1
  O  O29  1  0.27586500  0.62538400  0.69535300  1
  O  O30  1  0.22413500  0.62538400  0.19535300  1
  O  O31  1  0.72413500  0.37461600  0.30464700  1
  O  O32  1  0.70987300  0.82963900  0.70130000  1
  O  O33  1  0.20987300  0.17036100  0.79870000  1
  O  O34  1  0.29012700  0.17036100  0.29870000  1
  O  O35  1  0.79012700  0.82963900  0.20130000  1
loop_
_geom_bond_atom_site_label_1
_geom_bond_atom_site_label_2
_geom_bond_distance
_geom_bond_site_symmetry_2
Na0 O29 2.195883 1_555
Na0 O5 2.595121 1_555
Na0 O19 2.616731 1_555
Na1 O28 2.195883 1_555
Na1 O4 2.595121 1_555
Na1 O18 2.616731 1_655
Na2 O31 2.195883 1_555
Na2 O7 2.595121 1_555
Na2 O17 2.616731 1_555
Na3 O30 2.195883 1_555
Na3 O6 2.595121 1_555
Na3 O16 2.616731 1_455
O0 P0 1.514254 1_565
O0 Zr0 2.117361 1_555
O1 P1 1.514254 1_545
O1 Zr1 2.117361 1_556
O2 P2 1.514254 1_545
O2 Zr2 2.117361 1_555
O3 P3 1.514254 1_565
O3 Zr3 2.117361 1_554
O4 P0 1.527177 1_555
O4 Zr2 2.170206 1_655
O5 P1 1.527177 1_555
O5 Zr3 2.170206 1_555
O6 P2 1.527177 1_555
O6 Zr0 2.170206 1_455
O7 P3 1.527177 1_555
O7 Zr1 2.170206 1_555
O8 P0 1.525861 1_555
O8 Zr2 2.161027 1_555
O9 P1 1.525861 1_555
O9 Zr3 2.161027 1_455
O10 P2 1.525861 1_555
O10 Zr0 2.161027 1_555
O11 P3 1.525861 1_555
O11 Zr1 2.161027 1_655
O12 P4 1.565432 1_555
O12 Zr0 2.056271 1_455
O13 P5 1.565432 1_555
O13 Zr1 2.056271 1_556
O14 P6 1.565432 1_555
O14 Zr2 2.056271 1_655
O15 P7 1.565432 1_555
O15 Zr3 2.056271 1_554
O16 P6 1.574288 1_555
O16 Zr0 2.076230 1_555
O17 P7 1.574288 1_555
O17 Zr1 2.076230 1_555
O18 P4 1.574288 1_555
O18 Zr2 2.076230 1_555
O19 P5 1.574288 1_555
O19 Zr3 2.076230 1_555
O20 P4 1.565958 1_555
O20 Zr0 2.046815 1_555
O21 P5 1.565958 1_555
O21 Zr1 2.046815 1_656
O22 P6 1.565958 1_555
O22 Zr2 2.046815 1_555
O23 P7 1.565958 1_555
O23 Zr3 2.046815 1_454
O24 O32 1.349128 1_555
O24 P0 1.701777 1_565
O25 O33 1.349128 1_555
O25 P1 1.701777 1_545
O26 O34 1.349128 1_555
O26 P2 1.701777 1_545
O27 O35 1.349128 1_555
O27 P3 1.701777 1_565
O28 P5 1.491665 1_555
O29 P4 1.491665 1_555
O30 P7 1.491665 1_555
O31 P6 1.491665 1_555
