# generated using pymatgen
data_Ce(Ga4Fe)2
_symmetry_space_group_name_H-M   'P 1'
_cell_length_a   4.05626800
_cell_length_b   12.51912800
_cell_length_c   14.28793300
_cell_angle_alpha   90.00000000
_cell_angle_beta   90.00000000
_cell_angle_gamma   90.00000000
_symmetry_Int_Tables_number   1
_chemical_formula_structural   Ce(Ga4Fe)2
_chemical_formula_sum   'Ce4 Ga32 Fe8'
_cell_volume   725.55464403
_cell_formula_units_Z   4
loop_
 _symmetry_equiv_pos_site_id
 _symmetry_equiv_pos_as_xyz
  1  'x, y, z'
loop_
 _atom_site_type_symbol
 _atom_site_label
 _atom_site_symmetry_multiplicity
 _atom_site_fract_x
 _atom_site_fract_y
 _atom_site_fract_z
 _atom_site_occupancy
  Ce  Ce0  1  0.00000000  0.84291100  0.18047600  1
  Ce  Ce1  1  0.00000000  0.15708900  0.81952400  1
  Ce  Ce2  1  0.00000000  0.34291100  0.31952400  1
  Ce  Ce3  1  0.00000000  0.65708900  0.68047600  1
  Ga  Ga0  1  0.00000000  0.50000000  0.50000000  1
  Ga  Ga1  1  0.00000000  0.00000000  0.00000000  1
  Ga  Ga2  1  0.50000000  0.50000000  0.00000000  1
  Ga  Ga3  1  0.50000000  0.00000000  0.50000000  1
  Ga  Ga4  1  0.50000000  0.73835400  0.32493800  1
  Ga  Ga5  1  0.50000000  0.26164600  0.67506200  1
  Ga  Ga6  1  0.50000000  0.23835400  0.17506200  1
  Ga  Ga7  1  0.50000000  0.76164600  0.82493800  1
  Ga  Ga8  1  0.50000000  0.95107000  0.31744200  1
  Ga  Ga9  1  0.50000000  0.04893000  0.68255800  1
  Ga  Ga10  1  0.50000000  0.45107000  0.18255800  1
  Ga  Ga11  1  0.50000000  0.54893000  0.81744200  1
  Ga  Ga12  1  0.50000000  0.66457400  0.12196900  1
  Ga  Ga13  1  0.50000000  0.33542600  0.87803100  1
  Ga  Ga14  1  0.50000000  0.16457400  0.37803100  1
  Ga  Ga15  1  0.50000000  0.83542600  0.62196900  1
  Ga  Ga16  1  0.00000000  0.83749500  0.45444300  1
  Ga  Ga17  1  0.00000000  0.16250500  0.54555700  1
  Ga  Ga18  1  0.00000000  0.33749500  0.04555700  1
  Ga  Ga19  1  0.00000000  0.66250500  0.95444300  1
  Ga  Ga20  1  0.00000000  0.59859500  0.24568100  1
  Ga  Ga21  1  0.00000000  0.40140500  0.75431900  1
  Ga  Ga22  1  0.00000000  0.09859500  0.25431900  1
  Ga  Ga23  1  0.00000000  0.90140500  0.74568100  1
  Ga  Ga24  1  0.50000000  0.83226900  0.00992900  1
  Ga  Ga25  1  0.50000000  0.16773100  0.99007100  1
  Ga  Ga26  1  0.50000000  0.33226900  0.49007100  1
  Ga  Ga27  1  0.50000000  0.66773100  0.50992900  1
  Ga  Ga28  1  0.50000000  0.52325900  0.36642500  1
  Ga  Ga29  1  0.50000000  0.47674100  0.63357500  1
  Ga  Ga30  1  0.50000000  0.02325900  0.13357500  1
  Ga  Ga31  1  0.50000000  0.97674100  0.86642500  1
  Fe  Fe0  1  0.00000000  0.65226800  0.40295100  1
  Fe  Fe1  1  0.00000000  0.34773200  0.59704900  1
  Fe  Fe2  1  0.00000000  0.15226800  0.09704900  1
  Fe  Fe3  1  0.00000000  0.84773200  0.90295100  1
  Fe  Fe4  1  0.00000000  0.53427900  0.09272700  1
  Fe  Fe5  1  0.00000000  0.46572100  0.90727300  1
  Fe  Fe6  1  0.00000000  0.03427900  0.40727300  1
  Fe  Fe7  1  0.00000000  0.96572100  0.59272700  1
loop_
_geom_bond_atom_site_label_1
_geom_bond_atom_site_label_2
_geom_bond_distance
_geom_bond_site_symmetry_2
Ce0 Ga30 3.108061 1_565
Ce0 Ga30 3.108061 1_465
Ce0 Ga8 3.126738 1_555
Ce0 Ga8 3.126738 1_455
Ce0 Ga12 3.129974 1_555
Ce0 Ga12 3.129974 1_455
Ce0 Ga24 3.173152 1_455
Ce0 Ga24 3.173152 1_555
Ce0 Ga4 3.176014 1_555
Ce0 Ga4 3.176014 1_455
Ce0 Ga20 3.197364 1_555
Ce0 Ga1 3.242979 1_565
Ce0 Ga22 3.370338 1_565
Ce1 Ga31 3.108061 1_445
Ce1 Ga31 3.108061 1_545
Ce1 Ga9 3.126738 1_555
Ce1 Ga9 3.126738 1_455
Ce1 Ga13 3.129974 1_455
Ce1 Ga13 3.129974 1_555
Ce1 Ga25 3.173152 1_555
Ce1 Ga25 3.173152 1_455
Ce1 Ga5 3.176014 1_555
Ce1 Ga5 3.176014 1_455
Ce1 Ga21 3.197364 1_555
Ce1 Ga1 3.242979 1_556
Ce1 Ga23 3.370338 1_545
Ce2 Ga28 3.108061 1_555
Ce2 Ga28 3.108061 1_455
Ce2 Ga10 3.126738 1_555
Ce2 Ga10 3.126738 1_455
Ce2 Ga14 3.129974 1_555
Ce2 Ga14 3.129974 1_455
Ce2 Ga26 3.173152 1_555
Ce2 Ga26 3.173152 1_455
Ce2 Ga6 3.176014 1_555
Ce2 Ga6 3.176014 1_455
Ce2 Ga22 3.197364 1_555
Ce2 Ga0 3.242979 1_555
Ce2 Ga20 3.370338 1_555
Ce3 Ga29 3.108061 1_555
Ce3 Ga29 3.108061 1_455
Ce3 Ga11 3.126738 1_555
Ce3 Ga11 3.126738 1_455
Ce3 Ga15 3.129974 1_555
Ce3 Ga15 3.129974 1_455
Ce3 Ga27 3.173152 1_555
Ce3 Ga27 3.173152 1_455
Ce3 Ga7 3.176014 1_455
Ce3 Ga7 3.176014 1_555
Ce3 Ga23 3.197364 1_555
Ce3 Ga0 3.242979 1_555
Ce3 Ga21 3.370338 1_555
Ga0 Ga28 2.800094 1_455
Ga0 Ga29 2.800094 1_555
Ga0 Ga29 2.800094 1_455
Ga0 Ga28 2.800094 1_555
Ga0 Ga27 2.922808 1_455
Ga0 Ga27 2.922808 1_555
Ga0 Ga26 2.922808 1_555
Ga0 Ga26 2.922808 1_455
Ga1 Ga31 2.800094 1_444
Ga1 Ga30 2.800094 1_555
Ga1 Ga30 2.800094 1_455
Ga1 Ga31 2.800094 1_544
Ga1 Ga24 2.922808 1_545
Ga1 Ga24 2.922808 1_445
Ga1 Ga25 2.922808 1_554
Ga1 Ga25 2.922808 1_454
Ga3 Ga8 2.679339 1_545
Ga3 Ga9 2.679339 1_555
Ga4 Ga8 2.665172 1_555
Ga5 Ga9 2.665172 1_555
Ga10 Ga6 2.665172 1_555
Ga10 Ga2 2.679339 1_555
Ga10 Ga28 2.778183 1_555
Ga10 Ga12 2.809578 1_555
Ga10 Ga20 2.887512 1_655
Ga10 Ga20 2.887512 1_555
Ga11 Ga7 2.665172 1_555
Ga11 Ga2 2.679339 1_556
Ga11 Ga29 2.778183 1_555
Ga11 Ga13 2.809578 1_555
Ga11 Ga21 2.887512 1_655
Ga11 Ga21 2.887512 1_555
Ga12 Ga24 2.640092 1_555
Ga12 Ga2 2.698496 1_555
Ga12 Ga20 2.814245 1_555
Ga12 Ga20 2.814245 1_655
Ga12 Ga4 3.043549 1_555
Ga12 Ga19 3.137407 1_554
Ga12 Ga19 3.137407 1_654
Ga13 Ga25 2.640092 1_555
Ga13 Ga2 2.698496 1_556
Ga13 Ga21 2.814245 1_555
Ga13 Ga21 2.814245 1_655
Ga13 Ga5 3.043549 1_555
Ga13 Ga18 3.137407 1_556
Ga13 Ga18 3.137407 1_656
Ga14 Ga26 2.640092 1_555
Ga14 Ga3 2.698496 1_555
Ga14 Ga8 2.809578 1_545
Ga14 Ga22 2.814245 1_555
Ga14 Ga22 2.814245 1_655
Ga14 Ga6 3.043549 1_555
Ga14 Ga17 3.137407 1_655
Ga14 Ga17 3.137407 1_555
Ga15 Ga27 2.640092 1_555
Ga15 Ga3 2.698496 1_565
Ga15 Ga9 2.809578 1_565
Ga15 Ga23 2.814245 1_555
Ga15 Ga23 2.814245 1_655
Ga15 Ga7 3.043549 1_555
Ga15 Ga16 3.137407 1_555
Ga15 Ga16 3.137407 1_655
Ga16 Ga3 2.945486 1_465
Ga16 Ga3 2.945486 1_565
Ga16 Ga4 3.012911 1_455
Ga16 Ga4 3.012911 1_555
Ga16 Ga27 3.042814 1_455
Ga16 Ga27 3.042814 1_555
Ga17 Ga3 2.945486 1_455
Ga17 Ga3 2.945486 1_555
Ga17 Ga5 3.012911 1_455
Ga17 Ga5 3.012911 1_555
Ga17 Ga26 3.042814 1_555
Ga17 Ga26 3.042814 1_455
Ga18 Ga2 2.945486 1_455
Ga18 Ga2 2.945486 1_555
Ga18 Ga6 3.012911 1_455
Ga18 Ga6 3.012911 1_555
Ga18 Ga25 3.042814 1_554
Ga18 Ga25 3.042814 1_454
Ga19 Ga2 2.945486 1_456
Ga19 Ga2 2.945486 1_556
Ga19 Ga7 3.012911 1_455
Ga19 Ga7 3.012911 1_555
Ga19 Ga24 3.042814 1_456
Ga19 Ga24 3.042814 1_556
Ga20 Ga28 2.824729 1_555
Ga20 Ga28 2.824729 1_455
Ga20 Ga4 2.908094 1_555
Ga20 Ga4 2.908094 1_455
Ga21 Ga29 2.824729 1_455
Ga21 Ga29 2.824729 1_555
Ga21 Ga5 2.908094 1_555
Ga21 Ga5 2.908094 1_455
Ga22 Ga30 2.824729 1_555
Ga22 Ga30 2.824729 1_455
Ga22 Ga8 2.887512 1_445
Ga22 Ga8 2.887512 1_545
Ga22 Ga6 2.908094 1_555
Ga22 Ga6 2.908094 1_455
Ga23 Ga31 2.824729 1_455
Ga23 Ga31 2.824729 1_555
Ga23 Ga9 2.887512 1_465
Ga23 Ga9 2.887512 1_565
Ga23 Ga7 2.908094 1_455
Ga23 Ga7 2.908094 1_555
Ga24 Ga31 2.734100 1_554
Ga24 Ga7 2.787092 1_554
Ga24 Ga30 2.972886 1_565
Ga25 Ga30 2.734100 1_556
Ga25 Ga6 2.787092 1_556
Ga25 Ga31 2.972886 1_545
Ga26 Ga29 2.734100 1_555
Ga26 Ga5 2.787092 1_555
Ga26 Ga28 2.972886 1_555
Ga27 Ga28 2.734100 1_555
Ga27 Ga4 2.787092 1_555
Ga27 Ga29 2.972886 1_555
Ga28 Ga4 2.757272 1_555
Ga29 Ga5 2.757272 1_555
Ga30 Ga6 2.757272 1_555
Ga30 Ga8 2.778183 1_545
Ga31 Ga7 2.757272 1_555
Ga31 Ga9 2.778183 1_565
Fe0 Ga20 2.345377 1_555
Fe0 Ga0 2.357240 1_555
Fe0 Ga16 2.432793 1_555
Fe0 Ga27 2.546978 1_555
Fe0 Ga27 2.546978 1_455
Fe0 Ga4 2.552889 1_555
Fe0 Ga4 2.552889 1_455
Fe0 Ga28 2.644650 1_555
Fe0 Ga28 2.644650 1_455
Fe1 Ga21 2.345377 1_555
Fe1 Ga0 2.357240 1_555
Fe1 Ga17 2.432793 1_555
Fe1 Ga26 2.546978 1_455
Fe1 Ga26 2.546978 1_555
Fe1 Ga5 2.552889 1_555
Fe1 Ga5 2.552889 1_455
Fe1 Ga29 2.644650 1_455
Fe1 Ga29 2.644650 1_555
Fe2 Ga22 2.345377 1_555
Fe2 Ga1 2.357240 1_555
Fe2 Ga18 2.432793 1_555
Fe2 Ga25 2.546978 1_454
Fe2 Ga25 2.546978 1_554
Fe2 Ga6 2.552889 1_555
Fe2 Ga6 2.552889 1_455
Fe2 Ga30 2.644650 1_555
Fe2 Ga30 2.644650 1_455
Fe3 Ga23 2.345377 1_555
Fe3 Ga1 2.357240 1_566
Fe3 Ga19 2.432793 1_555
Fe3 Ga24 2.546978 1_556
Fe3 Ga24 2.546978 1_456
Fe3 Ga7 2.552889 1_455
Fe3 Ga7 2.552889 1_555
Fe3 Ga31 2.644650 1_455
Fe3 Ga31 2.644650 1_555
Fe4 Ga20 2.329007 1_555
Fe4 Ga2 2.460242 1_555
Fe4 Ga2 2.460242 1_455
Fe4 Ga19 2.545717 1_554
Fe4 Ga18 2.554089 1_555
Fe4 Ga10 2.616457 1_455
Fe4 Ga10 2.616457 1_555
Fe4 Ga12 2.636027 1_555
Fe4 Ga12 2.636027 1_455
Fe5 Ga21 2.329007 1_555
Fe5 Ga2 2.460242 1_556
Fe5 Ga2 2.460242 1_456
Fe5 Ga18 2.545717 1_556
Fe5 Ga19 2.554089 1_555
Fe5 Ga11 2.616457 1_555
Fe5 Ga11 2.616457 1_455
Fe5 Ga13 2.636027 1_455
Fe5 Ga13 2.636027 1_555
Fe6 Ga22 2.329007 1_555
Fe6 Ga3 2.460242 1_555
Fe6 Ga3 2.460242 1_455
Fe6 Ga17 2.545717 1_555
Fe6 Ga16 2.554089 1_545
Fe6 Ga8 2.616457 1_445
Fe6 Ga8 2.616457 1_545
Fe6 Ga14 2.636027 1_455
Fe6 Ga14 2.636027 1_555
Fe7 Ga23 2.329007 1_555
Fe7 Ga3 2.460242 1_465
Fe7 Ga3 2.460242 1_565
Fe7 Ga16 2.545717 1_555
Fe7 Ga17 2.554089 1_565
Fe7 Ga9 2.616457 1_465
Fe7 Ga9 2.616457 1_565
Fe7 Ga15 2.636027 1_455
Fe7 Ga15 2.636027 1_555
