# generated using pymatgen
data_RbYb(PO3)4
_symmetry_space_group_name_H-M   'P 1'
_cell_length_a   9.03223700
_cell_length_b   10.49405900
_cell_length_c   12.98070101
_cell_angle_alpha   55.74623258
_cell_angle_beta   90.00000000
_cell_angle_gamma   90.00000000
_symmetry_Int_Tables_number   1
_chemical_formula_structural   RbYb(PO3)4
_chemical_formula_sum   'Rb4 Yb4 P16 O48'
_cell_volume   1016.96859905
_cell_formula_units_Z   4
loop_
 _symmetry_equiv_pos_site_id
 _symmetry_equiv_pos_as_xyz
  1  'x, y, z'
loop_
 _atom_site_type_symbol
 _atom_site_label
 _atom_site_symmetry_multiplicity
 _atom_site_fract_x
 _atom_site_fract_y
 _atom_site_fract_z
 _atom_site_occupancy
  Rb  Rb0  1  0.43579100  0.26849800  0.54161700  1
  Rb  Rb1  1  0.06420900  0.26849800  0.04161700  1
  Rb  Rb2  1  0.56420900  0.73150200  0.45838300  1
  Rb  Rb3  1  0.93579100  0.73150200  0.95838300  1
  Yb  Yb0  1  0.72874800  0.18430700  0.81743600  1
  Yb  Yb1  1  0.77125200  0.18430700  0.31743600  1
  Yb  Yb2  1  0.27125200  0.81569300  0.18256400  1
  Yb  Yb3  1  0.22874800  0.81569300  0.68256400  1
  P  P0  1  0.32708200  0.17601100  0.86656100  1
  P  P1  1  0.17291800  0.17601100  0.36656100  1
  P  P2  1  0.67291800  0.82398900  0.13343900  1
  P  P3  1  0.82708200  0.82398900  0.63343900  1
  P  P4  1  0.59222300  0.88882900  0.75789200  1
  P  P5  1  0.90777700  0.88882900  0.25789200  1
  P  P6  1  0.40777700  0.11117100  0.24210800  1
  P  P7  1  0.09222300  0.11117100  0.74210800  1
  P  P8  1  0.52560500  0.52689200  0.22047700  1
  P  P9  1  0.97439500  0.52689200  0.72047700  1
  P  P10  1  0.47439500  0.47310800  0.77952300  1
  P  P11  1  0.02560500  0.47310800  0.27952300  1
  P  P12  1  0.89134300  0.30270000  0.52377100  1
  P  P13  1  0.60865700  0.30270000  0.02377100  1
  P  P14  1  0.10865700  0.69730000  0.47622900  1
  P  P15  1  0.39134300  0.69730000  0.97622900  1
  O  O0  1  0.25697900  0.07258100  0.99131700  1
  O  O1  1  0.24302100  0.07258100  0.49131700  1
  O  O2  1  0.74302100  0.92741900  0.00868300  1
  O  O3  1  0.75697900  0.92741900  0.50868300  1
  O  O4  1  0.20915600  0.21993800  0.75517900  1
  O  O5  1  0.29084400  0.21993800  0.25517900  1
  O  O6  1  0.79084400  0.78006200  0.24482100  1
  O  O7  1  0.70915600  0.78006200  0.74482100  1
  O  O8  1  0.46946600  0.13123000  0.83520500  1
  O  O9  1  0.03053400  0.13123000  0.33520500  1
  O  O10  1  0.53053400  0.86877000  0.16479500  1
  O  O11  1  0.96946600  0.86877000  0.66479500  1
  O  O12  1  0.46093000  0.92521900  0.67530400  1
  O  O13  1  0.03907000  0.92521900  0.17530400  1
  O  O14  1  0.53907000  0.07478100  0.32469600  1
  O  O15  1  0.96093000  0.07478100  0.82469600  1
  O  O16  1  0.67586600  0.01985700  0.74533600  1
  O  O17  1  0.82413400  0.01985700  0.24533600  1
  O  O18  1  0.32413400  0.98014300  0.25466400  1
  O  O19  1  0.17586600  0.98014300  0.75466400  1
  O  O20  1  0.41626200  0.57175100  0.28193600  1
  O  O21  1  0.08373800  0.57175100  0.78193600  1
  O  O22  1  0.58373800  0.42824900  0.71806400  1
  O  O23  1  0.91626200  0.42824900  0.21806400  1
  O  O24  1  0.65771400  0.65513000  0.15684600  1
  O  O25  1  0.84228600  0.65513000  0.65684600  1
  O  O26  1  0.34228600  0.34487000  0.84315400  1
  O  O27  1  0.15771400  0.34487000  0.34315400  1
  O  O28  1  0.83049600  0.20248200  0.48525600  1
  O  O29  1  0.66950400  0.20248200  0.98525600  1
  O  O30  1  0.16950400  0.79751800  0.51474400  1
  O  O31  1  0.33049600  0.79751800  0.01474400  1
  O  O32  1  0.78734300  0.33973000  0.59365300  1
  O  O33  1  0.71265700  0.33973000  0.09365300  1
  O  O34  1  0.21265700  0.66027000  0.40634700  1
  O  O35  1  0.28734300  0.66027000  0.90634700  1
  O  O36  1  0.95370100  0.45946700  0.40107200  1
  O  O37  1  0.54629900  0.45946700  0.90107200  1
  O  O38  1  0.04629900  0.54053300  0.59892800  1
  O  O39  1  0.45370100  0.54053300  0.09892800  1
  O  O40  1  0.90744900  0.36935700  0.79890200  1
  O  O41  1  0.59255100  0.36935700  0.29890200  1
  O  O42  1  0.09255100  0.63064300  0.20109800  1
  O  O43  1  0.40744900  0.63064300  0.70109800  1
  O  O44  1  0.04685300  0.23358300  0.59772100  1
  O  O45  1  0.45314700  0.23358300  0.09772100  1
  O  O46  1  0.95314700  0.76641700  0.40227900  1
  O  O47  1  0.54685300  0.76641700  0.90227900  1
loop_
_geom_bond_atom_site_label_1
_geom_bond_atom_site_label_2
_geom_bond_distance
_geom_bond_site_symmetry_2
O0 P0 1.490921 1_555
O0 Yb2 2.431692 1_546
O0 Rb1 3.032500 1_556
O1 P1 1.490921 1_555
O1 Yb3 2.431692 1_545
O1 Rb0 3.032500 1_555
O2 P2 1.490921 1_555
O2 Yb0 2.431692 1_564
O2 Rb3 3.032500 1_554
O3 P3 1.490921 1_555
O3 Yb1 2.431692 1_565
O3 Rb2 3.032500 1_555
O4 P7 1.632513 1_555
O4 P0 1.639245 1_555
O4 Rb0 3.247261 1_555
O5 P6 1.632513 1_555
O5 P1 1.639245 1_555
O5 Rb1 3.247261 1_555
O6 P5 1.632513 1_555
O6 P2 1.639245 1_555
O6 Rb2 3.247261 1_555
O7 P4 1.632513 1_555
O7 P3 1.639245 1_555
O7 Rb3 3.247261 1_555
O8 P0 1.501913 1_555
O8 Yb0 2.388158 1_555
O8 Rb0 3.242104 1_555
O9 P1 1.501913 1_555
O9 Yb1 2.388158 1_455
O9 Rb1 3.242104 1_555
O10 P2 1.501913 1_555
O10 Yb2 2.388158 1_555
O10 Rb2 3.242104 1_555
O11 P3 1.501913 1_555
O11 Yb3 2.388158 1_655
O11 Rb3 3.242104 1_555
O12 P4 1.496846 1_555
O12 Yb3 2.367684 1_555
O12 Rb0 3.000481 1_565
O13 P5 1.496846 1_455
O13 Yb2 2.367684 1_555
O13 Rb1 3.000481 1_565
O14 P6 1.496846 1_555
O14 Yb1 2.367684 1_555
O14 Rb2 3.000481 1_545
O15 P7 1.496846 1_655
O15 Yb0 2.367684 1_555
O15 Rb3 3.000481 1_545
O16 P4 1.495227 1_545
O16 Yb0 2.429088 1_555
O16 Rb0 3.276546 1_555
O17 P5 1.495227 1_545
O17 Yb1 2.429088 1_555
O17 Rb1 3.276546 1_655
O18 P6 1.495227 1_565
O18 Yb2 2.429088 1_555
O18 Rb2 3.276546 1_555
O19 P7 1.495227 1_565
O19 Yb3 2.429088 1_555
O19 Rb3 3.276546 1_455
O20 P8 1.502069 1_555
O20 Yb2 2.493075 1_555
O20 Rb0 3.073312 1_555
O21 P9 1.502069 1_455
O21 Yb3 2.493075 1_555
O21 Rb1 3.073312 1_556
O22 P10 1.502069 1_555
O22 Yb0 2.493075 1_555
O22 Rb2 3.073312 1_555
O23 P11 1.502069 1_655
O23 Yb1 2.493075 1_555
O23 Rb3 3.073312 1_554
O24 P2 1.626383 1_555
O24 P8 1.632721 1_555
O24 Rb3 3.356074 1_554
O25 P3 1.626383 1_555
O25 P9 1.632721 1_555
O25 Rb2 3.356074 1_555
O26 P0 1.626383 1_555
O26 P10 1.632721 1_555
O26 Rb1 3.356074 1_556
O27 P1 1.626383 1_555
O27 P11 1.632721 1_555
O27 Rb0 3.356074 1_555
O28 P12 1.499984 1_555
O28 Yb1 2.352862 1_555
O29 P13 1.499984 1_556
O29 Yb0 2.352862 1_555
O30 P14 1.499984 1_555
O30 Yb3 2.352862 1_555
O31 P15 1.499984 1_554
O31 Yb2 2.352862 1_555
O32 P12 1.501023 1_555
O32 Yb0 2.458661 1_555
O32 Rb0 3.415547 1_555
O33 P13 1.501023 1_555
O33 Yb1 2.458661 1_555
O33 Rb1 3.415547 1_655
O34 P14 1.501023 1_555
O34 Yb2 2.458661 1_555
O34 Rb2 3.415547 1_555
O35 P15 1.501023 1_555
O35 Yb3 2.458661 1_555
O35 Rb3 3.415547 1_455
O36 P12 1.615792 1_555
O36 P11 1.636292 1_655
O37 P13 1.615792 1_556
O37 P10 1.636292 1_555
O38 P14 1.615792 1_555
O38 P9 1.636292 1_455
O39 P15 1.615792 1_554
O39 P8 1.636292 1_555
O40 P9 1.496813 1_555
O40 Yb0 2.430688 1_555
O40 Rb1 3.049173 1_656
O41 P8 1.496813 1_555
O41 Yb1 2.430688 1_555
O41 Rb0 3.049173 1_555
O42 P11 1.496813 1_555
O42 Yb2 2.430688 1_555
O42 Rb3 3.049173 1_454
O43 P10 1.496813 1_555
O43 Yb3 2.430688 1_555
O43 Rb2 3.049173 1_555
O44 P7 1.618820 1_555
O44 P12 1.623782 1_455
O45 P6 1.618820 1_555
O45 P13 1.623782 1_555
O46 P5 1.618820 1_555
O46 P14 1.623782 1_655
O47 P4 1.618820 1_555
O47 P15 1.623782 1_555
