# generated using pymatgen
data_In(PO3)3
_symmetry_space_group_name_H-M   'P 1'
_cell_length_a   7.44336065
_cell_length_b   8.78381676
_cell_length_c   8.55942949
_cell_angle_alpha   58.92908321
_cell_angle_beta   91.21575567
_cell_angle_gamma   90.44796815
_symmetry_Int_Tables_number   1
_chemical_formula_structural   In(PO3)3
_chemical_formula_sum   'In2 P6 O18'
_cell_volume   479.22406956
_cell_formula_units_Z   2
loop_
 _symmetry_equiv_pos_site_id
 _symmetry_equiv_pos_as_xyz
  1  'x, y, z'
loop_
 _atom_site_type_symbol
 _atom_site_label
 _atom_site_symmetry_multiplicity
 _atom_site_fract_x
 _atom_site_fract_y
 _atom_site_fract_z
 _atom_site_occupancy
  In  In0  1  0.50770200  0.33464300  0.32994600  1
  In  In1  1  0.00634100  0.67051100  0.66146600  1
  P  P0  1  0.70659200  0.68052300  0.97721800  1
  P  P1  1  0.69614900  0.34522300  0.68697300  1
  P  P2  1  0.66492300  0.93300100  0.40691600  1
  P  P3  1  0.19667300  0.31645900  0.02483000  1
  P  P4  1  0.16075200  0.59036800  0.33397900  1
  P  P5  1  0.19716000  0.02427300  0.65864700  1
  O  O0  1  0.67422200  0.48235100  0.09402000  1
  O  O1  1  0.67898000  0.40407100  0.48729300  1
  O  O2  1  0.68088400  0.11142000  0.39270800  1
  O  O3  1  0.17815400  0.51552900  0.89605300  1
  O  O4  1  0.17380800  0.59967600  0.50474700  1
  O  O5  1  0.17599800  0.89981500  0.58695900  1
  O  O6  1  0.82149000  0.73489900  0.81396200  1
  O  O7  1  0.82641400  0.45098200  0.72826100  1
  O  O8  1  0.84298800  0.84430800  0.42655600  1
  O  O9  1  0.33200300  0.26416600  0.17584800  1
  O  O10  1  0.33470800  0.55617200  0.27236800  1
  O  O11  1  0.31930100  0.18019100  0.55091800  1
  O  O12  1  0.61224200  0.81171400  0.00267400  1
  O  O13  1  0.59215000  0.19797900  0.82883100  1
  O  O14  1  0.09162100  0.18405200  0.00736500  1
  O  O15  1  0.10094100  0.00037200  0.81730800  1
  O  O16  1  0.49343400  0.85087700  0.40467600  1
  O  O17  1  0.98937300  0.60742400  0.23747700  1
loop_
_geom_bond_atom_site_label_1
_geom_bond_atom_site_label_2
_geom_bond_distance
_geom_bond_site_symmetry_2
In0 O1 2.138661 1_555
In0 O9 2.142487 1_555
In0 O0 2.162000 1_555
In0 O10 2.170193 1_555
In0 O2 2.172025 1_555
In0 O11 2.195146 1_555
In1 O8 2.146795 1_455
In1 O3 2.148790 1_555
In1 O4 2.164476 1_555
In1 O7 2.166332 1_455
In1 O5 2.174124 1_555
In1 O6 2.183378 1_455
O0 P0 1.514917 1_554
O1 P1 1.511474 1_555
O2 P2 1.511950 1_545
O3 P3 1.516383 1_556
O4 P4 1.506595 1_555
O5 P5 1.510649 1_565
O6 P0 1.505861 1_555
O7 P1 1.496081 1_555
O8 P2 1.504459 1_555
O9 P3 1.495214 1_555
O10 P4 1.497811 1_555
O11 P5 1.505012 1_555
O12 P0 1.465237 1_554
O13 P1 1.466150 1_555
O14 P3 1.465168 1_555
O15 P5 1.464900 1_555
O16 P2 1.465915 1_555
O17 P4 1.470549 1_655
