# generated using pymatgen
data_La2Ga5Cu3
_symmetry_space_group_name_H-M   'P 1'
_cell_length_a   4.28477919
_cell_length_b   4.28477919
_cell_length_c   10.23014063
_cell_angle_alpha   90.00000000
_cell_angle_beta   90.00000000
_cell_angle_gamma   90.00000000
_symmetry_Int_Tables_number   1
_chemical_formula_structural   La2Ga5Cu3
_chemical_formula_sum   'La2 Ga5 Cu3'
_cell_volume   187.81855547
_cell_formula_units_Z   1
loop_
 _symmetry_equiv_pos_site_id
 _symmetry_equiv_pos_as_xyz
  1  'x, y, z'
loop_
 _atom_site_type_symbol
 _atom_site_label
 _atom_site_symmetry_multiplicity
 _atom_site_fract_x
 _atom_site_fract_y
 _atom_site_fract_z
 _atom_site_occupancy
  La  La0  1  0.50000000  -0.00000000  0.74403779  1
  La  La1  1  0.00000000  0.50000000  0.25596221  1
  Ga  Ga0  1  -0.00000000  0.50000000  0.86601710  1
  Ga  Ga1  1  0.50000000  -0.00000000  0.38246219  1
  Ga  Ga2  1  0.50000000  -0.00000000  0.13398290  1
  Ga  Ga3  1  0.00000000  0.50000000  0.61753781  1
  Ga  Ga4  1  0.50000000  0.50000000  0.00000000  1
  Cu  Cu0  1  0.00000000  -0.00000000  0.50000000  1
  Cu  Cu1  1  0.00000000  -0.00000000  0.00000000  1
  Cu  Cu2  1  0.50000000  0.50000000  0.50000000  1
loop_
_geom_bond_atom_site_label_1
_geom_bond_atom_site_label_2
_geom_bond_distance
_geom_bond_site_symmetry_2
Ga0 Ga3 2.541978 1_555
Ga0 Ga4 2.543335 1_456
Ga0 Ga4 2.543335 1_556
Ga0 La0 3.276711 1_465
Ga0 La0 3.276711 1_565
Ga0 La0 3.276711 1_555
Ga0 La0 3.276711 1_455
Ga1 Ga2 2.541978 1_555
Ga1 La1 3.294601 1_645
Ga1 La1 3.294601 1_555
Ga1 La1 3.294601 1_545
Ga1 La1 3.294601 1_655
Ga2 Ga4 2.543335 1_555
Ga2 Ga4 2.543335 1_545
Ga2 La1 3.276711 1_645
Ga2 La1 3.276711 1_555
Ga2 La1 3.276711 1_545
Ga2 La1 3.276711 1_655
Ga3 La0 3.294601 1_465
Ga3 La0 3.294601 1_565
Ga3 La0 3.294601 1_455
Ga3 La0 3.294601 1_555
Ga4 La0 3.383272 1_554
Ga4 La0 3.383272 1_564
Ga4 La1 3.383272 1_555
Ga4 La1 3.383272 1_655
Cu0 Ga3 2.456759 1_545
Cu0 Ga3 2.456759 1_555
Cu0 Ga1 2.456759 1_455
Cu0 Ga1 2.456759 1_555
Cu0 La1 3.289764 1_545
Cu0 La1 3.289764 1_555
Cu0 La0 3.289764 1_455
Cu0 La0 3.289764 1_555
Cu1 Ga2 2.543335 1_455
Cu1 Ga2 2.543335 1_555
Cu1 Ga0 2.543335 1_544
Cu1 Ga0 2.543335 1_554
Cu1 La0 3.383272 1_454
Cu1 La0 3.383272 1_554
Cu1 La1 3.383272 1_555
Cu1 La1 3.383272 1_545
Cu2 Ga3 2.456759 1_655
Cu2 Ga1 2.456759 1_565
Cu2 Ga3 2.456759 1_555
Cu2 Ga1 2.456759 1_555
Cu2 La1 3.289764 1_655
Cu2 La1 3.289764 1_555
Cu2 La0 3.289764 1_555
Cu2 La0 3.289764 1_565
