# generated using pymatgen
data_BaMn2V2O8
_symmetry_space_group_name_H-M   'P 1'
_cell_length_a   10.08841011
_cell_length_b   10.08841011
_cell_length_c   10.08841011
_cell_angle_alpha   101.09306077
_cell_angle_beta   101.09306077
_cell_angle_gamma   127.96600082
_symmetry_Int_Tables_number   1
_chemical_formula_structural   BaMn2V2O8
_chemical_formula_sum   'Ba4 Mn8 V8 O32'
_cell_volume   727.44283014
_cell_formula_units_Z   4
loop_
 _symmetry_equiv_pos_site_id
 _symmetry_equiv_pos_as_xyz
  1  'x, y, z'
loop_
 _atom_site_type_symbol
 _atom_site_label
 _atom_site_symmetry_multiplicity
 _atom_site_fract_x
 _atom_site_fract_y
 _atom_site_fract_z
 _atom_site_occupancy
  Ba  Ba0  1  0.50000000  0.50000000  0.00000000  1
  Ba  Ba1  1  0.75000000  0.25000000  0.50000000  1
  Ba  Ba2  1  0.00000000  0.00000000  0.00000000  1
  Ba  Ba3  1  0.25000000  0.75000000  0.50000000  1
  Mn  Mn0  1  0.66772200  0.16772200  0.83544300  1
  Mn  Mn1  1  0.41772200  0.08227800  0.00000000  1
  Mn  Mn2  1  0.08227800  0.41772200  0.00000000  1
  Mn  Mn3  1  0.33227800  0.83227800  0.16455700  1
  Mn  Mn4  1  0.58227800  0.58227800  0.66455700  1
  Mn  Mn5  1  0.83227800  0.66772200  0.50000000  1
  Mn  Mn6  1  0.16772200  0.33227800  0.50000000  1
  Mn  Mn7  1  0.91772200  0.91772200  0.33544300  1
  V  V0  1  0.37500000  0.70479300  0.82979300  1
  V  V1  1  0.95479300  0.62500000  0.82979300  1
  V  V2  1  0.79520700  0.12500000  0.17020700  1
  V  V3  1  0.87500000  0.54520700  0.17020700  1
  V  V4  1  0.87500000  0.04520700  0.67020700  1
  V  V5  1  0.29520700  0.12500000  0.67020700  1
  V  V6  1  0.45479300  0.62500000  0.32979300  1
  V  V7  1  0.37500000  0.20479300  0.32979300  1
  O  O0  1  0.87466900  0.53684500  0.34054000  1
  O  O1  1  0.19630600  0.53412900  0.65946000  1
  O  O2  1  0.78684500  0.94630600  0.16217600  1
  O  O3  1  0.78412900  0.62466900  0.83782400  1
  O  O4  1  0.55369400  0.71315500  0.83782400  1
  O  O5  1  0.96315500  0.62533100  0.65946000  1
  O  O6  1  0.96587100  0.30369400  0.34054000  1
  O  O7  1  0.87533100  0.71587100  0.16217600  1
  O  O8  1  0.37533100  0.21315500  0.15946000  1
  O  O9  1  0.05369400  0.21587100  0.84054000  1
  O  O10  1  0.46315500  0.80369400  0.33782400  1
  O  O11  1  0.46587100  0.12533100  0.66217600  1
  O  O12  1  0.69630600  0.03684500  0.66217600  1
  O  O13  1  0.28684500  0.12466900  0.84054000  1
  O  O14  1  0.28412900  0.44630600  0.15946000  1
  O  O15  1  0.37466900  0.03412900  0.33782400  1
  O  O16  1  0.07775200  0.60112700  0.16530700  1
  O  O17  1  0.43582000  0.91244500  0.83469300  1
  O  O18  1  0.85112700  0.18582000  0.02337500  1
  O  O19  1  0.16244500  0.82775200  0.97662500  1
  O  O20  1  0.57775200  0.41244500  0.47662500  1
  O  O21  1  0.66244500  0.68582000  0.33469300  1
  O  O22  1  0.35112700  0.32775200  0.66530700  1
  O  O23  1  0.93582000  0.10112700  0.52337500  1
  O  O24  1  0.08755500  0.92224800  0.52337500  1
  O  O25  1  0.39887300  0.56418000  0.47662500  1
  O  O26  1  0.81418000  0.83755500  0.66530700  1
  O  O27  1  0.17224800  0.14887300  0.33469300  1
  O  O28  1  0.67224800  0.33755500  0.02337500  1
  O  O29  1  0.58755500  0.06418000  0.16530700  1
  O  O30  1  0.89887300  0.42224800  0.83469300  1
  O  O31  1  0.31418000  0.64887300  0.97662500  1
loop_
_geom_bond_atom_site_label_1
_geom_bond_atom_site_label_2
_geom_bond_distance
_geom_bond_site_symmetry_2
Ba0 O7 2.802875 1_555
Ba0 O13 2.802875 1_554
Ba0 O4 2.802877 1_554
Ba0 O14 2.802877 1_555
Ba0 O28 3.042341 1_555
Ba0 O21 3.042341 1_555
Ba0 O22 3.042341 1_554
Ba0 O31 3.042341 1_554
Ba0 O3 3.261248 1_554
Ba0 O8 3.261248 1_555
Ba0 O2 3.261255 1_555
Ba0 O9 3.261255 1_554
Ba1 O15 2.802875 1_555
Ba1 O5 2.802875 1_555
Ba1 O12 2.802877 1_555
Ba1 O6 2.802877 1_555
Ba1 O23 3.042341 1_555
Ba1 O20 3.042341 1_555
Ba1 O29 3.042341 1_555
Ba1 O30 3.042341 1_555
Ba1 O0 3.261248 1_555
Ba1 O11 3.261248 1_555
Ba1 O10 3.261255 1_545
Ba1 O1 3.261255 1_655
Ba2 O3 2.802875 1_444
Ba2 O8 2.802875 1_555
Ba2 O2 2.802877 1_445
Ba2 O9 2.802877 1_554
Ba2 O19 3.042341 1_544
Ba2 O27 3.042341 1_555
Ba2 O26 3.042341 1_444
Ba2 O18 3.042341 1_455
Ba2 O7 3.261248 1_445
Ba2 O13 3.261248 1_554
Ba2 O4 3.261255 1_444
Ba2 O14 3.261255 1_555
Ba3 O0 2.802875 1_455
Ba3 O11 2.802875 1_565
Ba3 O10 2.802877 1_555
Ba3 O1 2.802877 1_555
Ba3 O25 3.042341 1_555
Ba3 O24 3.042341 1_555
Ba3 O16 3.042341 1_555
Ba3 O17 3.042341 1_555
Ba3 O5 3.261248 1_455
Ba3 O15 3.261248 1_565
Ba3 O12 3.261255 1_565
Ba3 O6 3.261255 1_455
Mn0 O11 2.157826 1_555
Mn0 O12 2.157832 1_555
Mn0 O30 2.162934 1_555
Mn0 O17 2.162943 1_545
Mn0 O18 2.269942 1_556
Mn0 O28 2.269942 1_556
Mn1 O8 2.157832 1_555
Mn1 O13 2.157832 1_554
Mn1 O19 2.162938 1_544
Mn1 O28 2.162938 1_555
Mn1 O17 2.269935 1_544
Mn1 O29 2.269935 1_555
Mn2 O9 2.157826 1_554
Mn2 O14 2.157826 1_555
Mn2 O18 2.162938 1_455
Mn2 O31 2.162938 1_554
Mn2 O30 2.269935 1_454
Mn2 O16 2.269935 1_555
Mn3 O15 2.157826 1_565
Mn3 O10 2.157832 1_555
Mn3 O16 2.162934 1_555
Mn3 O29 2.162943 1_565
Mn3 O31 2.269942 1_554
Mn3 O19 2.269942 1_554
Mn4 O3 2.157826 1_555
Mn4 O4 2.157832 1_555
Mn4 O22 2.162934 1_555
Mn4 O26 2.162943 1_555
Mn4 O25 2.269942 1_555
Mn4 O20 2.269942 1_555
Mn5 O0 2.157832 1_555
Mn5 O5 2.157832 1_555
Mn5 O24 2.162938 1_655
Mn5 O20 2.162938 1_555
Mn5 O21 2.269935 1_555
Mn5 O26 2.269935 1_555
Mn6 O1 2.157826 1_555
Mn6 O6 2.157826 1_455
Mn6 O25 2.162938 1_555
Mn6 O23 2.162938 1_455
Mn6 O22 2.269935 1_555
Mn6 O27 2.269935 1_555
Mn7 O7 2.157826 1_555
Mn7 O2 2.157832 1_555
Mn7 O27 2.162934 1_665
Mn7 O21 2.162943 1_555
Mn7 O23 2.269942 1_565
Mn7 O24 2.269942 1_655
O0 V3 1.737133 1_555
O1 V0 1.737131 1_555
O2 V2 1.737123 1_565
O3 V1 1.737133 1_555
O4 V0 1.737123 1_555
O5 V1 1.737133 1_555
O6 V2 1.737131 1_555
O7 V3 1.737133 1_555
O8 V7 1.737133 1_555
O9 V4 1.737131 1_455
O10 V6 1.737123 1_555
O11 V5 1.737133 1_555
O12 V4 1.737123 1_555
O13 V5 1.737133 1_555
O14 V6 1.737131 1_555
O15 V7 1.737133 1_555
O16 V3 1.770427 1_455
O17 V0 1.770427 1_555
O18 V2 1.770427 1_555
O19 V1 1.770427 1_455
O20 V7 1.770427 1_555
O21 V6 1.770427 1_555
O22 V5 1.770427 1_555
O23 V4 1.770427 1_555
O24 V5 1.770427 1_565
O25 V6 1.770427 1_555
O26 V4 1.770427 1_565
O27 V7 1.770427 1_555
O28 V3 1.770427 1_555
O29 V2 1.770427 1_555
O30 V1 1.770427 1_555
O31 V0 1.770427 1_555
