# generated using pymatgen
data_K2MgZn2(PO3)6
_symmetry_space_group_name_H-M   'P 1'
_cell_length_a   6.94881194
_cell_length_b   6.94578371
_cell_length_c   10.05959200
_cell_angle_alpha   90.00000000
_cell_angle_beta   90.00000000
_cell_angle_gamma   120.11226507
_symmetry_Int_Tables_number   1
_chemical_formula_structural   K2MgZn2(PO3)6
_chemical_formula_sum   'K2 Mg1 Zn2 P6 O18'
_cell_volume   420.00107430
_cell_formula_units_Z   1
loop_
 _symmetry_equiv_pos_site_id
 _symmetry_equiv_pos_as_xyz
  1  'x, y, z'
loop_
 _atom_site_type_symbol
 _atom_site_label
 _atom_site_symmetry_multiplicity
 _atom_site_fract_x
 _atom_site_fract_y
 _atom_site_fract_z
 _atom_site_occupancy
  K  K0  1  0.33500000  0.66914500  0.94024000  1
  K  K1  1  0.33500000  0.66914500  0.55976000  1
  Mg  Mg0  1  0.32996600  0.66029100  0.25000000  1
  Zn  Zn0  1  0.99967600  0.99974900  0.00654900  1
  Zn  Zn1  1  0.99967600  0.99974900  0.49345100  1
  P  P0  1  0.87564700  0.26195400  0.75000000  1
  P  P1  1  0.38580300  0.12478500  0.75000000  1
  P  P2  1  0.38706700  0.26510700  0.25000000  1
  P  P3  1  0.73911200  0.61454900  0.75000000  1
  P  P4  1  0.73244700  0.11924300  0.25000000  1
  P  P5  1  0.87923300  0.61233500  0.25000000  1
  O  O0  1  0.75860900  0.73373700  0.87815800  1
  O  O1  1  0.97507100  0.24245700  0.87815600  1
  O  O2  1  0.75860900  0.73373700  0.62184200  1
  O  O3  1  0.97415500  0.73215500  0.37936200  1
  O  O4  1  0.26665400  0.02513800  0.87813200  1
  O  O5  1  0.97507100  0.24245700  0.62184400  1
  O  O6  1  0.26726700  0.24107800  0.37919800  1
  O  O7  1  0.97415500  0.73215500  0.12063800  1
  O  O8  1  0.26665400  0.02513800  0.62186800  1
  O  O9  1  0.26726700  0.24107800  0.12080200  1
  O  O10  1  0.75779400  0.02495800  0.37939300  1
  O  O11  1  0.75779400  0.02495800  0.12060700  1
  O  O12  1  0.90194800  0.51040900  0.75000000  1
  O  O13  1  0.60788200  0.09856100  0.75000000  1
  O  O14  1  0.61203700  0.50926200  0.25000000  1
  O  O15  1  0.49054200  0.39231200  0.75000000  1
  O  O16  1  0.48896700  0.10064900  0.25000000  1
  O  O17  1  0.89756700  0.38704300  0.25000000  1
loop_
_geom_bond_atom_site_label_1
_geom_bond_atom_site_label_2
_geom_bond_distance
_geom_bond_site_symmetry_2
K0 O4 2.812153 1_565
K0 O0 2.816180 1_555
K0 O1 2.826891 1_455
K0 Mg0 3.116516 1_556
K0 O13 3.237160 1_565
K0 O12 3.256414 1_455
K0 O15 3.257780 1_555
K0 O11 3.278092 1_566
K0 O7 3.297450 1_456
K0 O9 3.310119 1_556
K1 O8 2.812153 1_565
K1 O2 2.816180 1_555
K1 O5 2.826891 1_455
K1 Mg0 3.116516 1_555
K1 O13 3.237160 1_565
K1 O12 3.256414 1_455
K1 O15 3.257780 1_555
K1 O10 3.278092 1_565
K1 O3 3.297450 1_455
K1 O6 3.310119 1_555
Mg0 O17 2.628333 1_455
Mg0 O14 2.646765 1_555
Mg0 O16 2.680506 1_565
O0 P3 1.501079 1_555
O0 Zn0 2.186886 1_556
O1 P0 1.500520 1_555
O1 Zn0 2.197393 1_546
O2 P3 1.501079 1_555
O2 Zn1 2.186886 1_555
O3 P5 1.506767 1_555
O3 Zn1 2.114826 1_555
O4 P1 1.500317 1_555
O4 Zn0 2.193931 1_446
O5 P0 1.500520 1_555
O5 Zn1 2.197393 1_545
O6 P2 1.506856 1_555
O6 Zn1 2.112062 1_445
O7 P5 1.506767 1_555
O7 Zn0 2.114826 1_555
O8 P1 1.500317 1_555
O8 Zn1 2.193931 1_445
O9 P2 1.506856 1_555
O9 Zn0 2.112062 1_445
O10 P4 1.506619 1_555
O10 Zn1 2.113645 1_545
O11 P4 1.506619 1_555
O11 Zn0 2.113645 1_545
O12 P3 1.620118 1_555
O12 P0 1.641655 1_555
O13 P0 1.622096 1_555
O13 P1 1.642144 1_555
O14 P5 1.620525 1_555
O14 P2 1.630846 1_555
O15 P1 1.620359 1_555
O15 P3 1.640400 1_555
O16 P2 1.617958 1_555
O16 P4 1.630934 1_555
O17 P4 1.623246 1_555
O17 P5 1.632470 1_555
