# generated using pymatgen
data_MgFe6Sb10(IO3)6
_symmetry_space_group_name_H-M   'P 1'
_cell_length_a   8.30118800
_cell_length_b   9.31738326
_cell_length_c   12.58958739
_cell_angle_alpha   78.85040851
_cell_angle_beta   89.34634806
_cell_angle_gamma   77.65557446
_symmetry_Int_Tables_number   1
_chemical_formula_structural   MgFe6Sb10(IO3)6
_chemical_formula_sum   'Mg1 Fe6 Sb10 I6 O18'
_cell_volume   932.82400497
_cell_formula_units_Z   1
loop_
 _symmetry_equiv_pos_site_id
 _symmetry_equiv_pos_as_xyz
  1  'x, y, z'
loop_
 _atom_site_type_symbol
 _atom_site_label
 _atom_site_symmetry_multiplicity
 _atom_site_fract_x
 _atom_site_fract_y
 _atom_site_fract_z
 _atom_site_occupancy
  Mg  Mg0  1  0.47497852  0.37468329  0.18455715  1
  Fe  Fe0  1  0.73141208  0.99789325  0.32791169  1
  Fe  Fe1  1  0.27442589  0.02093913  0.65602363  1
  Fe  Fe2  1  0.02384913  0.99002123  0.12080674  1
  Fe  Fe3  1  0.98771641  0.00456413  0.87422862  1
  Fe  Fe4  1  0.63372717  0.08768522  0.06209253  1
  Fe  Fe5  1  0.38694377  0.91299407  0.93116400  1
  Sb  Sb0  1  0.88513735  0.18703996  0.49371635  1
  Sb  Sb1  1  0.08065394  0.83885983  0.50140306  1
  Sb  Sb2  1  0.27624112  0.10865853  0.26149451  1
  Sb  Sb3  1  0.71661450  0.86464156  0.74329114  1
  Sb  Sb4  1  0.54541892  0.20791606  0.77242970  1
  Sb  Sb5  1  0.47927016  0.77694401  0.23597758  1
  Sb  Sb6  1  0.22355876  0.24072003  0.99216961  1
  Sb  Sb7  1  0.78601031  0.74638074  0.01708758  1
  Sb  Sb8  1  0.82083280  0.33768807  0.18787463  1
  Sb  Sb9  1  0.15391491  0.69538316  0.79161776  1
  I  I0  1  0.74476373  0.36628341  0.92990186  1
  I  I1  1  0.24957975  0.62635341  0.07057291  1
  I  I2  1  0.88214776  0.69576183  0.30667323  1
  I  I3  1  0.12337199  0.30830513  0.69734380  1
  I  I4  1  0.48367886  0.28914161  0.42446539  1
  I  I5  1  0.44781669  0.71947382  0.59550312  1
  O  O0  1  0.17145691  0.04107445  0.97341843  1
  O  O1  1  0.85280492  0.94262351  0.01676722  1
  O  O2  1  0.84506099  0.98391135  0.46953587  1
  O  O3  1  0.12044013  0.03943117  0.52914614  1
  O  O4  1  0.79768526  0.11172460  0.18149114  1
  O  O5  1  0.20756775  0.89223294  0.80374501  1
  O  O6  1  0.46778847  0.12847767  0.92372335  1
  O  O7  1  0.55855870  0.86139755  0.08813981  1
  O  O8  1  0.77249723  0.05840803  0.77933128  1
  O  O9  1  0.24398097  0.91149039  0.22058279  1
  O  O10  1  0.48937136  0.03472164  0.71550526  1
  O  O11  1  0.51389002  0.95576008  0.29339509  1
  O  O12  1  0.10516747  0.18579354  0.13216523  1
  O  O13  1  0.93338474  0.76941365  0.86051113  1
  O  O14  1  0.01839769  0.77666652  0.65293388  1
  O  O15  1  0.92875684  0.25006462  0.34103439  1
  O  O16  1  0.61553604  0.80872358  0.89120255  1
  O  O17  1  0.40652799  0.20689523  0.12614783  1
loop_
_geom_bond_atom_site_label_1
_geom_bond_atom_site_label_2
_geom_bond_distance
_geom_bond_site_symmetry_2
Mg0 O17 2.035098 1_555
Fe0 O2 1.995511 1_555
Fe0 O11 1.997608 1_555
Fe0 O4 2.072634 1_565
Fe0 I2 2.887768 1_555
Fe1 O10 1.981578 1_555
Fe1 O3 2.015219 1_555
Fe1 O5 2.145530 1_545
Fe1 I3 2.846085 1_555
Fe1 I5 3.100968 1_545
Fe2 O12 2.105465 1_565
Fe2 O1 2.112091 1_455
Fe2 O9 2.139558 1_555
Fe2 O4 2.187767 1_465
Fe2 O0 2.242044 1_564
Fe3 O8 2.074741 1_555
Fe3 O0 2.105031 1_655
Fe3 O1 2.153490 1_546
Fe3 O5 2.172344 1_645
Fe3 O13 2.367340 1_545
Fe4 O4 2.114097 1_555
Fe4 O6 2.156702 1_554
Fe4 O1 2.164108 1_545
Fe4 O17 2.203889 1_555
Fe4 O7 2.287520 1_545
Fe4 I0 3.110428 1_554
Fe5 O16 2.043722 1_555
Fe5 O0 2.053773 1_565
Fe5 O6 2.234310 1_565
Fe5 O5 2.263982 1_555
Fe5 O7 2.360126 1_556
I0 Sb8 3.264652 1_556
I0 Sb4 3.331104 1_555
I1 Mg0 2.818276 1_555
I4 Mg0 2.968555 1_555
I5 Sb1 3.170732 1_555
O0 Sb6 2.054070 1_555
O1 Sb7 2.020235 1_555
O2 Sb0 2.068754 1_565
O2 Sb1 2.119043 1_655
O3 Sb1 2.059723 1_545
O3 Sb0 2.130685 1_455
O4 Sb8 2.171361 1_555
O5 Sb9 2.011174 1_555
O6 Sb4 2.054703 1_555
O6 Sb6 2.312722 1_555
O7 Sb5 2.035588 1_555
O7 Sb7 2.231735 1_555
O8 Sb4 2.082193 1_555
O8 Sb3 2.088117 1_545
O9 Sb2 2.071557 1_565
O9 Sb5 2.071659 1_555
O10 Sb4 2.027324 1_555
O10 Sb3 2.171312 1_545
O11 Sb5 2.014013 1_555
O11 Sb2 2.162814 1_565
O12 Sb6 2.039813 1_554
O12 Sb2 2.085208 1_555
O12 Sb8 2.642681 1_455
O13 Sb9 2.057818 1_655
O13 Sb3 2.252696 1_555
O13 Sb7 2.306970 1_556
O14 Sb1 1.979964 1_555
O14 Sb9 2.014113 1_555
O15 Sb0 1.951743 1_555
O15 Sb8 2.074861 1_555
O16 Sb7 2.048272 1_556
O16 Sb3 2.054051 1_555
O17 Sb2 2.165417 1_555
O17 Sb6 2.213486 1_554
