# generated using pymatgen
data_Ho2Ni17
_symmetry_space_group_name_H-M   'P 1'
_cell_length_a   8.25017153
_cell_length_b   8.25017153
_cell_length_c   8.03360300
_cell_angle_alpha   90.00000000
_cell_angle_beta   90.00000000
_cell_angle_gamma   119.99999627
_symmetry_Int_Tables_number   1
_chemical_formula_structural   Ho2Ni17
_chemical_formula_sum   'Ho4 Ni34'
_cell_volume   473.55123209
_cell_formula_units_Z   2
loop_
 _symmetry_equiv_pos_site_id
 _symmetry_equiv_pos_as_xyz
  1  'x, y, z'
loop_
 _atom_site_type_symbol
 _atom_site_label
 _atom_site_symmetry_multiplicity
 _atom_site_fract_x
 _atom_site_fract_y
 _atom_site_fract_z
 _atom_site_occupancy
  Ho  Ho0  1  0.00000000  0.00000000  0.25000000  1
  Ho  Ho1  1  0.00000000  0.00000000  0.75000000  1
  Ho  Ho2  1  0.33333300  0.66666700  0.75000000  1
  Ho  Ho3  1  0.66666700  0.33333300  0.25000000  1
  Ni  Ni0  1  0.33333300  0.66666700  0.39847700  1
  Ni  Ni1  1  0.66666700  0.33333300  0.60152300  1
  Ni  Ni2  1  0.66666700  0.33333300  0.89847700  1
  Ni  Ni3  1  0.33333300  0.66666700  0.10152300  1
  Ni  Ni4  1  0.50000000  0.50000000  0.50000000  1
  Ni  Ni5  1  0.50000000  0.00000000  0.50000000  1
  Ni  Ni6  1  0.00000000  0.50000000  0.50000000  1
  Ni  Ni7  1  0.50000000  0.50000000  0.00000000  1
  Ni  Ni8  1  0.50000000  0.00000000  0.00000000  1
  Ni  Ni9  1  0.00000000  0.50000000  0.00000000  1
  Ni  Ni10  1  0.32812900  0.36876400  0.25000000  1
  Ni  Ni11  1  0.63123600  0.95936500  0.25000000  1
  Ni  Ni12  1  0.04063500  0.67187100  0.25000000  1
  Ni  Ni13  1  0.63123600  0.67187100  0.25000000  1
  Ni  Ni14  1  0.04063500  0.36876400  0.25000000  1
  Ni  Ni15  1  0.32812900  0.95936500  0.25000000  1
  Ni  Ni16  1  0.67187100  0.63123600  0.75000000  1
  Ni  Ni17  1  0.36876400  0.04063500  0.75000000  1
  Ni  Ni18  1  0.95936500  0.32812900  0.75000000  1
  Ni  Ni19  1  0.36876400  0.32812900  0.75000000  1
  Ni  Ni20  1  0.95936500  0.63123600  0.75000000  1
  Ni  Ni21  1  0.67187100  0.04063500  0.75000000  1
  Ni  Ni22  1  0.16556400  0.83443600  0.51914400  1
  Ni  Ni23  1  0.16556400  0.33112800  0.51914400  1
  Ni  Ni24  1  0.66887200  0.83443600  0.51914400  1
  Ni  Ni25  1  0.83443600  0.16556400  0.48085600  1
  Ni  Ni26  1  0.83443600  0.66887200  0.48085600  1
  Ni  Ni27  1  0.33112800  0.16556400  0.48085600  1
  Ni  Ni28  1  0.83443600  0.16556400  0.01914400  1
  Ni  Ni29  1  0.83443600  0.66887200  0.01914400  1
  Ni  Ni30  1  0.33112800  0.16556400  0.01914400  1
  Ni  Ni31  1  0.16556400  0.83443600  0.98085600  1
  Ni  Ni32  1  0.16556400  0.33112800  0.98085600  1
  Ni  Ni33  1  0.66887200  0.83443600  0.98085600  1
loop_
_geom_bond_atom_site_label_1
_geom_bond_atom_site_label_2
_geom_bond_distance
_geom_bond_site_symmetry_2
Ho0 Ni12 2.889367 1_545
Ho0 Ni15 2.889367 1_545
Ho0 Ni11 2.889367 1_445
Ho0 Ni14 2.889367 1_555
Ho0 Ni10 2.889367 1_555
Ho0 Ni13 2.889367 1_445
Ho0 Ni25 3.006138 1_455
Ho0 Ni28 3.006138 1_455
Ho0 Ni26 3.006138 1_445
Ho0 Ni27 3.006138 1_555
Ho0 Ni29 3.006138 1_445
Ho0 Ni30 3.006138 1_555
Ho0 Ni22 3.205058 1_545
Ho0 Ni31 3.205058 1_544
Ho0 Ni23 3.205058 1_555
Ho0 Ni24 3.205058 1_445
Ho0 Ni33 3.205058 1_444
Ho0 Ni32 3.205058 1_554
Ho1 Ni21 2.889367 1_455
Ho1 Ni18 2.889367 1_455
Ho1 Ni20 2.889367 1_445
Ho1 Ni17 2.889367 1_555
Ho1 Ni16 2.889367 1_445
Ho1 Ni19 2.889367 1_555
Ho1 Ni31 3.006138 1_545
Ho1 Ni22 3.006138 1_545
Ho1 Ni32 3.006138 1_555
Ho1 Ni33 3.006138 1_445
Ho1 Ni24 3.006138 1_445
Ho1 Ni23 3.006138 1_555
Ho1 Ni28 3.205058 1_456
Ho1 Ni25 3.205058 1_455
Ho1 Ni29 3.205058 1_446
Ho1 Ni30 3.205058 1_556
Ho1 Ni27 3.205058 1_555
Ho1 Ni26 3.205058 1_445
Ho2 Ni3 2.823996 1_556
Ho2 Ni0 2.823996 1_555
Ho2 Ni17 2.950026 1_565
Ho2 Ni20 2.950026 1_455
Ho2 Ni21 2.950030 1_565
Ho2 Ni18 2.950030 1_455
Ho2 Ni19 2.950034 1_555
Ho2 Ni16 2.950034 1_555
Ho2 Ni31 3.030998 1_555
Ho2 Ni22 3.030998 1_555
Ho2 Ni33 3.031004 1_555
Ho2 Ni32 3.031004 1_555
Ho2 Ni24 3.031004 1_555
Ho2 Ni23 3.031004 1_555
Ho2 Ni8 3.115409 1_566
Ho2 Ni5 3.115409 1_565
Ho2 Ni6 3.115409 1_555
Ho2 Ni9 3.115409 1_556
Ho2 Ni7 3.115414 1_556
Ho2 Ni4 3.115414 1_555
Ho3 Ni1 2.823996 1_555
Ho3 Ni2 2.823996 1_554
Ho3 Ni14 2.950026 1_655
Ho3 Ni11 2.950026 1_545
Ho3 Ni12 2.950030 1_655
Ho3 Ni15 2.950030 1_545
Ho3 Ni13 2.950034 1_555
Ho3 Ni10 2.950034 1_555
Ho3 Ni25 3.030998 1_555
Ho3 Ni28 3.030998 1_555
Ho3 Ni27 3.031004 1_555
Ho3 Ni26 3.031004 1_555
Ho3 Ni29 3.031004 1_555
Ho3 Ni30 3.031004 1_555
Ho3 Ni6 3.115409 1_655
Ho3 Ni8 3.115409 1_555
Ho3 Ni9 3.115409 1_655
Ho3 Ni5 3.115409 1_555
Ho3 Ni7 3.115414 1_555
Ho3 Ni4 3.115414 1_555
Ni0 Ni3 2.385611 1_555
Ni0 Ni5 2.517399 1_565
Ni0 Ni6 2.517399 1_555
Ni0 Ni4 2.517405 1_555
Ni0 Ni22 2.585944 1_555
Ni0 Ni24 2.585951 1_555
Ni0 Ni23 2.585951 1_555
Ni0 Ni15 2.712859 1_555
Ni0 Ni12 2.712859 1_555
Ni0 Ni11 2.712863 1_555
Ni0 Ni14 2.712863 1_555
Ni0 Ni13 2.712867 1_555
Ni0 Ni10 2.712867 1_555
Ni1 Ni2 2.385611 1_555
Ni1 Ni5 2.517399 1_555
Ni1 Ni6 2.517399 1_655
Ni1 Ni4 2.517405 1_555
Ni1 Ni25 2.585944 1_555
Ni1 Ni26 2.585951 1_555
Ni1 Ni27 2.585951 1_555
Ni1 Ni18 2.712859 1_555
Ni1 Ni21 2.712859 1_555
Ni1 Ni20 2.712863 1_555
Ni1 Ni17 2.712863 1_555
Ni1 Ni16 2.712867 1_555
Ni1 Ni19 2.712867 1_555
Ni2 Ni8 2.517399 1_556
Ni2 Ni9 2.517399 1_656
Ni2 Ni7 2.517405 1_556
Ni2 Ni28 2.585944 1_556
Ni2 Ni29 2.585951 1_556
Ni2 Ni30 2.585951 1_556
Ni2 Ni21 2.712859 1_555
Ni2 Ni20 2.712863 1_555
Ni3 Ni8 2.517399 1_565
Ni3 Ni9 2.517399 1_555
Ni3 Ni7 2.517405 1_555
Ni3 Ni31 2.585944 1_554
Ni3 Ni32 2.585951 1_554
Ni3 Ni33 2.585951 1_554
Ni10 Ni14 2.371875 1_555
Ni10 Ni7 2.383552 1_555
Ni10 Ni4 2.383552 1_555
Ni10 Ni23 2.480695 1_555
Ni10 Ni32 2.480695 1_554
Ni10 Ni13 2.500685 1_555
Ni10 Ni27 2.508403 1_555
Ni10 Ni30 2.508403 1_555
Ni10 Ni3 2.712867 1_555
Ni11 Ni13 2.371875 1_555
Ni11 Ni5 2.383552 1_565
Ni11 Ni8 2.383552 1_565
Ni11 Ni24 2.480695 1_555
Ni11 Ni33 2.480695 1_554
Ni11 Ni15 2.500685 1_555
Ni11 Ni25 2.508403 1_565
Ni11 Ni28 2.508403 1_565
Ni11 Ni3 2.712863 1_555
Ni12 Ni15 2.371875 1_555
Ni12 Ni9 2.383552 1_555
Ni12 Ni6 2.383552 1_555
Ni12 Ni22 2.480695 1_555
Ni12 Ni31 2.480695 1_554
Ni12 Ni14 2.500685 1_555
Ni12 Ni26 2.508403 1_455
Ni12 Ni29 2.508403 1_455
Ni12 Ni3 2.712859 1_555
Ni13 Ni7 2.383552 1_555
Ni13 Ni4 2.383552 1_555
Ni13 Ni24 2.480695 1_555
Ni13 Ni33 2.480695 1_554
Ni13 Ni26 2.508403 1_555
Ni13 Ni29 2.508403 1_555
Ni13 Ni3 2.712867 1_555
Ni14 Ni9 2.383552 1_555
Ni14 Ni6 2.383552 1_555
Ni14 Ni23 2.480695 1_555
Ni14 Ni32 2.480695 1_554
Ni14 Ni25 2.508403 1_455
Ni14 Ni28 2.508403 1_455
Ni14 Ni3 2.712863 1_555
Ni15 Ni5 2.383552 1_565
Ni15 Ni8 2.383552 1_565
Ni15 Ni22 2.480695 1_555
Ni15 Ni31 2.480695 1_554
Ni15 Ni27 2.508403 1_565
Ni15 Ni30 2.508403 1_565
Ni15 Ni3 2.712859 1_555
Ni16 Ni20 2.371875 1_555
Ni16 Ni7 2.383552 1_556
Ni16 Ni4 2.383552 1_555
Ni16 Ni29 2.480695 1_556
Ni16 Ni26 2.480695 1_555
Ni16 Ni19 2.500685 1_555
Ni16 Ni33 2.508403 1_555
Ni16 Ni24 2.508403 1_555
Ni16 Ni2 2.712867 1_555
Ni17 Ni19 2.371875 1_555
Ni17 Ni8 2.383552 1_556
Ni17 Ni5 2.383552 1_555
Ni17 Ni30 2.480695 1_556
Ni17 Ni27 2.480695 1_555
Ni17 Ni21 2.500685 1_555
Ni17 Ni31 2.508403 1_545
Ni17 Ni22 2.508403 1_545
Ni17 Ni2 2.712863 1_555
Ni18 Ni21 2.371875 1_555
Ni18 Ni6 2.383552 1_655
Ni18 Ni9 2.383552 1_656
Ni18 Ni28 2.480695 1_556
Ni18 Ni25 2.480695 1_555
Ni18 Ni20 2.500685 1_555
Ni18 Ni32 2.508403 1_655
Ni18 Ni23 2.508403 1_655
Ni18 Ni2 2.712859 1_555
Ni19 Ni7 2.383552 1_556
Ni19 Ni4 2.383552 1_555
Ni19 Ni30 2.480695 1_556
Ni19 Ni27 2.480695 1_555
Ni19 Ni32 2.508403 1_555
Ni19 Ni23 2.508403 1_555
Ni19 Ni2 2.712867 1_555
Ni20 Ni6 2.383552 1_655
Ni20 Ni9 2.383552 1_656
Ni20 Ni29 2.480695 1_556
Ni20 Ni26 2.480695 1_555
Ni20 Ni31 2.508403 1_655
Ni20 Ni22 2.508403 1_655
Ni21 Ni8 2.383552 1_556
Ni21 Ni5 2.383552 1_555
Ni21 Ni28 2.480695 1_556
Ni21 Ni25 2.480695 1_555
Ni21 Ni33 2.508403 1_545
Ni21 Ni24 2.508403 1_545
Ni22 Ni26 2.385774 1_455
Ni22 Ni27 2.385774 1_565
Ni22 Ni6 2.394481 1_555
Ni22 Ni5 2.394481 1_565
Ni23 Ni27 2.385774 1_555
Ni23 Ni25 2.385774 1_455
Ni23 Ni6 2.394481 1_555
Ni23 Ni4 2.394481 1_555
Ni24 Ni26 2.385774 1_555
Ni24 Ni25 2.385774 1_565
Ni24 Ni5 2.394481 1_565
Ni24 Ni4 2.394481 1_555
Ni25 Ni5 2.394481 1_555
Ni25 Ni6 2.394481 1_655
Ni26 Ni6 2.394481 1_655
Ni26 Ni4 2.394481 1_555
Ni27 Ni5 2.394481 1_555
Ni27 Ni4 2.394481 1_555
Ni28 Ni33 2.385774 1_544
Ni28 Ni32 2.385774 1_654
Ni28 Ni8 2.394481 1_555
Ni28 Ni9 2.394481 1_655
Ni29 Ni33 2.385774 1_554
Ni29 Ni31 2.385774 1_654
Ni29 Ni9 2.394481 1_655
Ni29 Ni7 2.394481 1_555
Ni30 Ni32 2.385774 1_554
Ni30 Ni31 2.385774 1_544
Ni30 Ni8 2.394481 1_555
Ni30 Ni7 2.394481 1_555
Ni31 Ni9 2.394481 1_556
Ni31 Ni8 2.394481 1_566
Ni32 Ni9 2.394481 1_556
Ni32 Ni7 2.394481 1_556
Ni33 Ni8 2.394481 1_566
Ni33 Ni7 2.394481 1_556
