# generated using pymatgen
data_Ba2LiSmCoCu2O7
_symmetry_space_group_name_H-M   'P 1'
_cell_length_a   3.86698000
_cell_length_b   4.03470700
_cell_length_c   12.59968800
_cell_angle_alpha   90.00000000
_cell_angle_beta   90.00000000
_cell_angle_gamma   90.00000000
_symmetry_Int_Tables_number   1
_chemical_formula_structural   Ba2LiSmCoCu2O7
_chemical_formula_sum   'Ba2 Li1 Sm1 Co1 Cu2 O7'
_cell_volume   196.58198620
_cell_formula_units_Z   1
loop_
 _symmetry_equiv_pos_site_id
 _symmetry_equiv_pos_as_xyz
  1  'x, y, z'
loop_
 _atom_site_type_symbol
 _atom_site_label
 _atom_site_symmetry_multiplicity
 _atom_site_fract_x
 _atom_site_fract_y
 _atom_site_fract_z
 _atom_site_occupancy
  Ba  Ba0  1  0.50000000  0.50000000  0.19044700  1
  Ba  Ba1  1  0.50000000  0.50000000  0.76753800  1
  Li  Li0  1  0.50000000  0.00000000  0.92785700  1
  Sm  Sm0  1  0.50000000  0.50000000  0.48401700  1
  Co  Co0  1  0.00000000  0.00000000  0.02678400  1
  Cu  Cu0  1  0.00000000  0.00000000  0.36071500  1
  Cu  Cu1  1  0.00000000  0.00000000  0.61205600  1
  O  O0  1  0.50000000  0.00000000  0.38011800  1
  O  O1  1  0.50000000  0.00000000  0.62039600  1
  O  O2  1  0.00000000  0.00000000  0.16852600  1
  O  O3  1  0.00000000  0.00000000  0.87437200  1
  O  O4  1  0.00000000  0.50000000  0.37286100  1
  O  O5  1  0.00000000  0.50000000  0.61394700  1
  O  O6  1  0.00000000  0.50000000  0.02258500  1
loop_
_geom_bond_atom_site_label_1
_geom_bond_atom_site_label_2
_geom_bond_distance
_geom_bond_site_symmetry_2
Ba0 O2 2.807915 1_555
Ba0 O2 2.807915 1_655
Ba0 O2 2.807915 1_565
Ba0 O2 2.807915 1_665
Ba0 O6 2.865597 1_555
Ba0 O6 2.865597 1_655
Ba0 O4 3.003471 1_555
Ba0 O4 3.003471 1_655
Ba0 O0 3.127433 1_555
Ba0 O0 3.127433 1_565
Ba1 O5 2.735576 1_555
Ba1 O5 2.735576 1_655
Ba1 O1 2.739858 1_565
Ba1 O1 2.739858 1_555
Ba1 Li0 2.854819 1_565
Ba1 Li0 2.854819 1_555
Ba1 O3 3.101615 1_555
Ba1 O3 3.101615 1_655
Ba1 O3 3.101615 1_665
Ba1 O3 3.101615 1_565
Li0 O3 2.047564 1_655
Li0 O3 2.047564 1_555
Co0 O2 1.785905 1_555
Co0 O3 1.920344 1_554
Co0 O6 2.018047 1_545
Co0 O6 2.018047 1_555
Co0 Li0 2.300439 1_554
Co0 Li0 2.300439 1_454
Cu0 O0 1.948884 1_555
Cu0 O0 1.948884 1_455
Cu0 O4 2.023150 1_555
Cu0 O4 2.023150 1_545
Cu0 O2 2.421521 1_555
Cu1 O1 1.936343 1_555
Cu1 O1 1.936343 1_455
Cu1 O5 2.017494 1_545
Cu1 O5 2.017494 1_555
O0 Sm0 2.404879 1_545
O0 Sm0 2.404879 1_555
O1 Sm0 2.649978 1_545
O1 Sm0 2.649978 1_555
O4 Sm0 2.387440 1_455
O4 Sm0 2.387440 1_555
O5 Sm0 2.533457 1_555
O5 Sm0 2.533457 1_455
