# generated using pymatgen
data_Ce2Mg
_symmetry_space_group_name_H-M   'P 1'
_cell_length_a   6.02698255
_cell_length_b   6.02698255
_cell_length_c   5.24150300
_cell_angle_alpha   90.00000000
_cell_angle_beta   90.00000000
_cell_angle_gamma   126.07569378
_symmetry_Int_Tables_number   1
_chemical_formula_structural   Ce2Mg
_chemical_formula_sum   'Ce4 Mg2'
_cell_volume   153.88486884
_cell_formula_units_Z   2
loop_
 _symmetry_equiv_pos_site_id
 _symmetry_equiv_pos_as_xyz
  1  'x, y, z'
loop_
 _atom_site_type_symbol
 _atom_site_label
 _atom_site_symmetry_multiplicity
 _atom_site_fract_x
 _atom_site_fract_y
 _atom_site_fract_z
 _atom_site_occupancy
  Ce  Ce0  1  0.96372600  0.33707200  0.75000000  1
  Ce  Ce1  1  0.33707200  0.96372600  0.75000000  1
  Ce  Ce2  1  0.66292800  0.03627400  0.25000000  1
  Ce  Ce3  1  0.03627400  0.66292800  0.25000000  1
  Mg  Mg0  1  0.66114500  0.66114500  0.75000000  1
  Mg  Mg1  1  0.33885500  0.33885500  0.25000000  1
loop_
_geom_bond_atom_site_label_1
_geom_bond_atom_site_label_2
_geom_bond_distance
_geom_bond_site_symmetry_2
Ce0 Ce1 3.052698 1_545
Ce0 Ce1 3.052698 1_655
Ce0 Ce2 3.093688 1_556
Ce0 Ce2 3.093688 1_555
Ce0 Ce3 3.147256 1_656
Ce0 Ce3 3.147256 1_655
Ce0 Mg0 3.342476 1_545
Ce0 Mg0 3.366827 1_555
Ce0 Mg0 3.437164 1_655
Ce0 Mg1 3.457093 1_655
Ce0 Mg1 3.457093 1_656
Ce1 Ce3 3.093688 1_556
Ce1 Ce3 3.093688 1_555
Ce1 Ce2 3.147256 1_566
Ce1 Ce2 3.147256 1_565
Ce1 Mg0 3.342476 1_455
Ce1 Mg0 3.366827 1_555
Ce1 Mg0 3.437164 1_565
Ce1 Mg1 3.457093 1_566
Ce1 Mg1 3.457093 1_565
Ce2 Ce3 3.052698 1_655
Ce2 Ce3 3.052698 1_545
Ce2 Mg1 3.342476 1_655
Ce2 Mg1 3.366827 1_555
Ce2 Mg1 3.437164 1_545
Ce2 Mg0 3.457093 1_545
Ce2 Mg0 3.457093 1_544
Ce3 Mg1 3.342476 1_565
Ce3 Mg1 3.366827 1_555
Ce3 Mg1 3.437164 1_455
Ce3 Mg0 3.457093 1_455
Ce3 Mg0 3.457093 1_454
Mg0 Mg1 3.157673 1_556
Mg0 Mg1 3.157673 1_555
