# generated using pymatgen
data_Dy4Bi2S9
_symmetry_space_group_name_H-M   'P 1'
_cell_length_a   28.06605100
_cell_length_b   3.85027000
_cell_length_c   12.60386300
_cell_angle_alpha   90.00000000
_cell_angle_beta   90.00000000
_cell_angle_gamma   90.00000000
_symmetry_Int_Tables_number   1
_chemical_formula_structural   Dy4Bi2S9
_chemical_formula_sum   'Dy16 Bi8 S36'
_cell_volume   1361.99705774
_cell_formula_units_Z   4
loop_
 _symmetry_equiv_pos_site_id
 _symmetry_equiv_pos_as_xyz
  1  'x, y, z'
loop_
 _atom_site_type_symbol
 _atom_site_label
 _atom_site_symmetry_multiplicity
 _atom_site_fract_x
 _atom_site_fract_y
 _atom_site_fract_z
 _atom_site_occupancy
  Dy  Dy0  1  0.68853400  0.25000000  0.89157300  1
  Dy  Dy1  1  0.18853400  0.25000000  0.60842700  1
  Dy  Dy2  1  0.31146600  0.75000000  0.10842700  1
  Dy  Dy3  1  0.81146600  0.75000000  0.39157300  1
  Dy  Dy4  1  0.81776300  0.25000000  0.74132100  1
  Dy  Dy5  1  0.31776300  0.25000000  0.75867900  1
  Dy  Dy6  1  0.18223700  0.75000000  0.25867900  1
  Dy  Dy7  1  0.68223700  0.75000000  0.24132100  1
  Dy  Dy8  1  0.05763600  0.25000000  0.73994000  1
  Dy  Dy9  1  0.55763600  0.25000000  0.76006000  1
  Dy  Dy10  1  0.94236400  0.75000000  0.26006000  1
  Dy  Dy11  1  0.44236400  0.75000000  0.23994000  1
  Dy  Dy12  1  0.80431900  0.25000000  0.07372100  1
  Dy  Dy13  1  0.30431900  0.25000000  0.42627900  1
  Dy  Dy14  1  0.19568100  0.75000000  0.92627900  1
  Dy  Dy15  1  0.69568100  0.75000000  0.57372100  1
  Bi  Bi0  1  0.56127300  0.25000000  0.43287700  1
  Bi  Bi1  1  0.06127300  0.25000000  0.06712300  1
  Bi  Bi2  1  0.43872700  0.75000000  0.56712300  1
  Bi  Bi3  1  0.93872700  0.75000000  0.93287700  1
  Bi  Bi4  1  0.93323900  0.25000000  0.56481100  1
  Bi  Bi5  1  0.43323900  0.25000000  0.93518900  1
  Bi  Bi6  1  0.06676100  0.75000000  0.43518900  1
  Bi  Bi7  1  0.56676100  0.75000000  0.06481100  1
  S  S0  1  0.99281700  0.25000000  0.38358200  1
  S  S1  1  0.49281700  0.25000000  0.11641800  1
  S  S2  1  0.00718300  0.75000000  0.61641800  1
  S  S3  1  0.50718300  0.75000000  0.88358200  1
  S  S4  1  0.63942000  0.25000000  0.10660800  1
  S  S5  1  0.13942000  0.25000000  0.39339200  1
  S  S6  1  0.36058000  0.75000000  0.89339200  1
  S  S7  1  0.86058000  0.75000000  0.60660800  1
  S  S8  1  0.95745300  0.25000000  0.10738300  1
  S  S9  1  0.45745300  0.25000000  0.39261700  1
  S  S10  1  0.04254700  0.75000000  0.89261700  1
  S  S11  1  0.54254700  0.75000000  0.60738300  1
  S  S12  1  0.44186300  0.25000000  0.71095800  1
  S  S13  1  0.94186300  0.25000000  0.78904200  1
  S  S14  1  0.55813700  0.75000000  0.28904200  1
  S  S15  1  0.05813700  0.75000000  0.21095800  1
  S  S16  1  0.76899900  0.25000000  0.53621100  1
  S  S17  1  0.26899900  0.25000000  0.96378900  1
  S  S18  1  0.23100100  0.75000000  0.46378900  1
  S  S19  1  0.73100100  0.75000000  0.03621100  1
  S  S20  1  0.88330200  0.25000000  0.37566500  1
  S  S21  1  0.38330200  0.25000000  0.12433500  1
  S  S22  1  0.11669800  0.75000000  0.62433500  1
  S  S23  1  0.61669800  0.75000000  0.87566500  1
  S  S24  1  0.65930900  0.25000000  0.40765800  1
  S  S25  1  0.15930900  0.25000000  0.09234200  1
  S  S26  1  0.34069100  0.75000000  0.59234200  1
  S  S27  1  0.84069100  0.75000000  0.90765800  1
  S  S28  1  0.75554300  0.25000000  0.26790300  1
  S  S29  1  0.25554300  0.25000000  0.23209700  1
  S  S30  1  0.24445700  0.75000000  0.73209700  1
  S  S31  1  0.74445700  0.75000000  0.76790300  1
  S  S32  1  0.65000300  0.25000000  0.68178800  1
  S  S33  1  0.15000300  0.25000000  0.81821200  1
  S  S34  1  0.34999700  0.75000000  0.31821200  1
  S  S35  1  0.84999700  0.75000000  0.18178800  1
loop_
_geom_bond_atom_site_label_1
_geom_bond_atom_site_label_2
_geom_bond_distance
_geom_bond_site_symmetry_2
Dy0 S23 2.794856 1_555
Dy0 S23 2.794856 1_545
Dy0 S32 2.856698 1_555
Dy0 S19 2.906896 1_556
Dy0 S19 2.906896 1_546
Dy0 S31 2.932439 1_555
Dy0 S31 2.932439 1_545
Dy0 S4 3.040667 1_556
Dy1 S22 2.794856 1_545
Dy1 S22 2.794856 1_555
Dy1 S33 2.856698 1_555
Dy1 S18 2.906896 1_555
Dy1 S18 2.906896 1_545
Dy1 S30 2.932439 1_545
Dy1 S30 2.932439 1_555
Dy1 S5 3.040667 1_555
Dy2 S21 2.794856 1_555
Dy2 S21 2.794856 1_565
Dy2 S34 2.856698 1_555
Dy2 S17 2.906896 1_554
Dy2 S17 2.906896 1_564
Dy2 S29 2.932439 1_555
Dy2 S29 2.932439 1_565
Dy2 S6 3.040667 1_554
Dy3 S20 2.794856 1_565
Dy3 S20 2.794856 1_555
Dy3 S35 2.856698 1_555
Dy3 S16 2.906896 1_555
Dy3 S16 2.906896 1_565
Dy3 S28 2.932439 1_565
Dy3 S28 2.932439 1_555
Dy3 S7 3.040667 1_555
Dy4 S7 2.834275 1_545
Dy4 S7 2.834275 1_555
Dy4 S31 2.837486 1_555
Dy4 S31 2.837486 1_545
Dy4 S27 2.918133 1_555
Dy4 S27 2.918133 1_545
Dy4 S16 2.925107 1_555
Dy4 S13 3.534548 1_555
Dy5 S6 2.834275 1_555
Dy5 S6 2.834275 1_545
Dy5 S30 2.837486 1_555
Dy5 S30 2.837486 1_545
Dy5 S26 2.918133 1_555
Dy5 S26 2.918133 1_545
Dy5 S17 2.925107 1_555
Dy5 S12 3.534548 1_555
Dy6 S5 2.834275 1_555
Dy6 S5 2.834275 1_565
Dy6 S29 2.837486 1_555
Dy6 S29 2.837486 1_565
Dy6 S25 2.918133 1_565
Dy6 S25 2.918133 1_555
Dy6 S18 2.925107 1_555
Dy6 S15 3.534548 1_555
Dy7 S4 2.834275 1_555
Dy7 S4 2.834275 1_565
Dy7 S28 2.837486 1_565
Dy7 S28 2.837486 1_555
Dy7 S24 2.918133 1_555
Dy7 S24 2.918133 1_565
Dy7 S19 2.925107 1_555
Dy7 S14 3.534548 1_555
Dy8 S10 2.754722 1_545
Dy8 S10 2.754722 1_555
Dy8 S33 2.773745 1_555
Dy8 S2 2.852200 1_555
Dy8 S2 2.852200 1_545
Dy8 S22 2.928644 1_545
Dy8 S22 2.928644 1_555
Dy8 S13 3.307703 1_455
Dy9 S11 2.754722 1_545
Dy9 S11 2.754722 1_555
Dy9 S32 2.773745 1_555
Dy9 S3 2.852200 1_555
Dy9 S3 2.852200 1_545
Dy9 S23 2.928644 1_545
Dy9 S23 2.928644 1_555
Dy9 S12 3.307703 1_555
Dy10 S8 2.754722 1_555
Dy10 S8 2.754722 1_565
Dy10 S35 2.773745 1_555
Dy10 S0 2.852200 1_555
Dy10 S0 2.852200 1_565
Dy10 S20 2.928644 1_555
Dy10 S20 2.928644 1_565
Dy10 S15 3.307703 1_655
Dy11 S9 2.754722 1_565
Dy11 S9 2.754722 1_555
Dy11 S34 2.773745 1_555
Dy11 S1 2.852200 1_565
Dy11 S1 2.852200 1_555
Dy11 S21 2.928644 1_555
Dy11 S21 2.928644 1_565
Dy11 S14 3.307703 1_555
Dy12 S35 2.684191 1_555
Dy12 S35 2.684191 1_545
Dy12 S28 2.804283 1_555
Dy12 S19 2.857268 1_555
Dy12 S19 2.857268 1_545
Dy12 S27 3.021425 1_554
Dy12 S27 3.021425 1_544
Dy13 S34 2.684191 1_545
Dy13 S34 2.684191 1_555
Dy13 S29 2.804283 1_555
Dy13 S18 2.857268 1_555
Dy13 S18 2.857268 1_545
Dy13 S26 3.021425 1_555
Dy13 S26 3.021425 1_545
Dy14 S33 2.684191 1_565
Dy14 S33 2.684191 1_555
Dy14 S30 2.804283 1_555
Dy14 S17 2.857268 1_565
Dy14 S17 2.857268 1_555
Dy14 S25 3.021425 1_556
Dy14 S25 3.021425 1_566
Dy15 S32 2.684191 1_565
Dy15 S32 2.684191 1_555
Dy15 S31 2.804283 1_555
Dy15 S16 2.857268 1_565
Dy15 S16 2.857268 1_555
Dy15 S24 3.021425 1_555
Dy15 S24 3.021425 1_565
Bi0 S14 2.645829 1_555
Bi0 S14 2.645829 1_545
Bi0 S24 2.769782 1_555
Bi0 S9 2.957671 1_555
Bi0 S11 2.969839 1_545
Bi0 S11 2.969839 1_555
Bi1 S15 2.645829 1_555
Bi1 S15 2.645829 1_545
Bi1 S25 2.769782 1_555
Bi1 S8 2.957671 1_455
Bi1 S10 2.969839 1_554
Bi1 S10 2.969839 1_544
Bi2 S12 2.645829 1_555
Bi2 S12 2.645829 1_565
Bi2 S26 2.769782 1_555
Bi2 S11 2.957671 1_555
Bi2 S9 2.969839 1_555
Bi2 S9 2.969839 1_565
Bi3 S13 2.645829 1_555
Bi3 S13 2.645829 1_565
Bi3 S27 2.769782 1_555
Bi3 S10 2.957671 1_655
Bi3 S8 2.969839 1_556
Bi3 S8 2.969839 1_566
Bi4 S20 2.765432 1_555
Bi4 S0 2.830810 1_555
Bi4 S13 2.836522 1_555
Bi4 S7 2.853456 1_555
Bi4 S7 2.853456 1_545
Bi4 S2 2.904507 1_655
Bi4 S2 2.904507 1_645
Bi5 S21 2.765432 1_556
Bi5 S1 2.830810 1_556
Bi5 S12 2.836522 1_555
Bi5 S6 2.853456 1_555
Bi5 S6 2.853456 1_545
Bi5 S3 2.904507 1_555
Bi5 S3 2.904507 1_545
Bi6 S22 2.765432 1_555
Bi6 S2 2.830810 1_555
Bi6 S15 2.836522 1_555
Bi6 S5 2.853456 1_555
Bi6 S5 2.853456 1_565
Bi6 S0 2.904507 1_465
Bi6 S0 2.904507 1_455
Bi7 S23 2.765432 1_554
Bi7 S3 2.830810 1_554
Bi7 S14 2.836522 1_555
Bi7 S4 2.853456 1_555
Bi7 S4 2.853456 1_565
Bi7 S1 2.904507 1_555
Bi7 S1 2.904507 1_565
