# generated using pymatgen
data_K7Se4NO16
_symmetry_space_group_name_H-M   'P 1'
_cell_length_a   6.02167300
_cell_length_b   7.91800159
_cell_length_c   10.71531050
_cell_angle_alpha   90.29803696
_cell_angle_beta   90.00000000
_cell_angle_gamma   90.00000000
_symmetry_Int_Tables_number   1
_chemical_formula_structural   K7Se4NO16
_chemical_formula_sum   'K7 Se4 N1 O16'
_cell_volume   510.89498219
_cell_formula_units_Z   1
loop_
 _symmetry_equiv_pos_site_id
 _symmetry_equiv_pos_as_xyz
  1  'x, y, z'
loop_
 _atom_site_type_symbol
 _atom_site_label
 _atom_site_symmetry_multiplicity
 _atom_site_fract_x
 _atom_site_fract_y
 _atom_site_fract_z
 _atom_site_occupancy
  K  K0  1  0.25000000  0.48921500  0.79012200  1
  K  K1  1  0.25000000  0.98560900  0.70048200  1
  K  K2  1  0.75000000  0.51659100  0.21574600  1
  K  K3  1  0.75000000  0.99855200  0.29557100  1
  K  K4  1  0.25000000  0.17499300  0.08540300  1
  K  K5  1  0.75000000  0.33324300  0.58005300  1
  K  K6  1  0.75000000  0.82533600  0.91615700  1
  Se  Se0  1  0.25000000  0.72744300  0.07424900  1
  Se  Se1  1  0.25000000  0.23000100  0.42395500  1
  Se  Se2  1  0.75000000  0.27441200  0.92357400  1
  Se  Se3  1  0.75000000  0.77539100  0.58218400  1
  N  N0  1  0.25000000  0.66510400  0.40555600  1
  O  O0  1  0.25000000  0.79140900  0.92403100  1
  O  O1  1  0.25000000  0.29513100  0.57293400  1
  O  O2  1  0.75000000  0.20824500  0.07258500  1
  O  O3  1  0.75000000  0.69281100  0.43744800  1
  O  O4  1  0.01942300  0.80701300  0.13959100  1
  O  O5  1  0.48086100  0.29422700  0.35103300  1
  O  O6  1  0.52199800  0.19864400  0.85229000  1
  O  O7  1  0.97227000  0.70509400  0.66084100  1
  O  O8  1  0.97800200  0.19864400  0.85229000  1
  O  O9  1  0.52773000  0.70509400  0.66084100  1
  O  O10  1  0.48057700  0.80701300  0.13959100  1
  O  O11  1  0.01913900  0.29422700  0.35103300  1
  O  O12  1  0.25000000  0.51693500  0.08031800  1
  O  O13  1  0.25000000  0.01805100  0.41801400  1
  O  O14  1  0.75000000  0.48511700  0.91659400  1
  O  O15  1  0.75000000  0.98645400  0.57751400  1
loop_
_geom_bond_atom_site_label_1
_geom_bond_atom_site_label_2
_geom_bond_distance
_geom_bond_site_symmetry_2
K0 O9 2.768101 1_555
K0 O7 2.768101 1_455
K0 O1 2.782166 1_555
K0 O0 2.783615 1_555
K0 O6 2.904440 1_555
K0 O8 2.904440 1_455
K0 O12 3.116138 1_556
K0 O14 3.301996 1_455
K0 O14 3.301996 1_555
K1 O9 2.810853 1_555
K1 O7 2.810853 1_455
K1 O1 2.812323 1_565
K1 O0 2.853190 1_555
K1 O6 2.854033 1_565
K1 O8 2.854033 1_465
K1 O13 3.038944 1_565
K1 O15 3.286556 1_455
K1 O15 3.286556 1_555
K2 O3 2.748801 1_555
K2 O5 2.802600 1_555
K2 O11 2.802600 1_655
K2 O2 2.876644 1_555
K2 O4 2.933515 1_655
K2 O10 2.933515 1_555
K2 O14 3.213887 1_554
K2 O12 3.342309 1_655
K2 O12 3.342309 1_555
K3 O4 2.774765 1_655
K3 O10 2.774765 1_555
K3 O3 2.865313 1_555
K3 O11 2.906248 1_665
K3 O5 2.906248 1_565
K3 O2 2.916692 1_565
K3 O15 3.023123 1_555
K3 O13 3.287590 1_565
K3 O13 3.287590 1_665
K4 O12 2.708329 1_555
K4 O8 2.993659 1_454
K4 O6 2.993659 1_554
K4 O2 3.025508 1_555
K4 O2 3.025508 1_455
K4 O10 3.282075 1_545
K4 O4 3.282075 1_545
K4 O5 3.301121 1_555
K4 O11 3.301121 1_555
K5 O15 2.745869 1_545
K5 O5 2.955728 1_555
K5 O11 2.955728 1_655
K5 O1 3.026844 1_555
K5 O1 3.026844 1_655
K5 O3 3.238204 1_555
K5 O9 3.344141 1_555
K5 O7 3.344141 1_555
K5 O6 3.400393 1_555
K5 O8 3.400393 1_555
K6 O14 2.693883 1_555
K6 O4 2.896342 1_656
K6 O10 2.896342 1_556
K6 O0 3.024013 1_655
K6 O0 3.024013 1_555
K6 O9 3.186740 1_555
K6 O7 3.186740 1_555
K6 O8 3.333385 1_565
K6 O6 3.333385 1_565
O0 Se0 1.689948 1_556
O1 Se1 1.675033 1_555
O2 Se2 1.683043 1_554
O3 Se3 1.679958 1_555
O4 Se0 1.676424 1_555
O5 Se1 1.675075 1_555
O6 Se2 1.680354 1_555
O7 Se3 1.678237 1_555
O8 Se2 1.680354 1_555
O9 Se3 1.678237 1_555
O10 Se0 1.676424 1_555
O11 Se1 1.675075 1_555
O12 Se0 1.668409 1_555
O13 Se1 1.679096 1_555
O14 Se2 1.670427 1_555
O15 Se3 1.672206 1_555
