# generated using pymatgen
data_Li4Co3O7
_symmetry_space_group_name_H-M   'P 1'
_cell_length_a   2.98049100
_cell_length_b   5.03139919
_cell_length_c   16.54346966
_cell_angle_alpha   89.77527992
_cell_angle_beta   87.33410334
_cell_angle_gamma   88.67851764
_symmetry_Int_Tables_number   1
_chemical_formula_structural   Li4Co3O7
_chemical_formula_sum   'Li8 Co6 O14'
_cell_volume   247.75111774
_cell_formula_units_Z   2
loop_
 _symmetry_equiv_pos_site_id
 _symmetry_equiv_pos_as_xyz
  1  'x, y, z'
loop_
 _atom_site_type_symbol
 _atom_site_label
 _atom_site_symmetry_multiplicity
 _atom_site_fract_x
 _atom_site_fract_y
 _atom_site_fract_z
 _atom_site_occupancy
  Li  Li0  1  0.50000000  0.50000000  0.00000000  1
  Li  Li1  1  0.93342800  0.64606400  0.14307000  1
  Li  Li2  1  0.35536900  0.78638500  0.28582100  1
  Li  Li3  1  0.78522900  0.92886600  0.42844900  1
  Li  Li4  1  0.21477100  0.07113400  0.57155100  1
  Li  Li5  1  0.64463100  0.21361500  0.71417900  1
  Li  Li6  1  0.06657200  0.35393600  0.85693000  1
  Li  Li7  1  0.00000000  0.00000000  0.00000000  1
  Co  Co0  1  0.56354400  0.86106200  0.86293300  1
  Co  Co1  1  0.43645600  0.13893800  0.13706700  1
  Co  Co2  1  0.84761400  0.28140100  0.28508700  1
  Co  Co3  1  0.28195200  0.42942700  0.42793700  1
  Co  Co4  1  0.71804800  0.57057300  0.57206300  1
  Co  Co5  1  0.15238600  0.71859900  0.71491300  1
  O  O0  1  0.00469000  0.68839600  0.92261400  1
  O  O1  1  0.46095700  0.85039800  0.08047400  1
  O  O2  1  0.85953300  0.98819900  0.21379800  1
  O  O3  1  0.28364500  0.12607300  0.35671100  1
  O  O4  1  0.75330600  0.26894000  0.50095500  1
  O  O5  1  0.19089000  0.41509900  0.64476300  1
  O  O6  1  0.58760000  0.57121300  0.78562800  1
  O  O7  1  0.99531000  0.31160400  0.07738600  1
  O  O8  1  0.41240000  0.42878700  0.21437200  1
  O  O9  1  0.80911000  0.58490100  0.35523700  1
  O  O10  1  0.24669400  0.73106000  0.49904500  1
  O  O11  1  0.71635500  0.87392700  0.64328900  1
  O  O12  1  0.14046700  0.01180100  0.78620200  1
  O  O13  1  0.53904300  0.14960200  0.91952600  1
loop_
_geom_bond_atom_site_label_1
_geom_bond_atom_site_label_2
_geom_bond_distance
_geom_bond_site_symmetry_2
Li0 O0 2.162706 1_654
Li0 O7 2.162706 1_455
Li0 O0 2.195134 1_554
Li0 O7 2.195134 1_555
Li0 O1 2.211025 1_555
Li0 O13 2.211025 1_554
Li1 O7 2.006991 1_555
Li1 O1 2.042762 1_555
Li1 O2 2.086918 1_555
Li1 O1 2.125134 1_655
Li1 O8 2.167724 1_655
Li1 O8 2.212660 1_555
Li2 O9 2.060940 1_555
Li2 O3 2.077901 1_565
Li2 O2 2.145474 1_555
Li2 O8 2.155719 1_555
Li2 O2 2.172519 1_455
Li2 O9 2.211404 1_455
Li3 O10 2.079273 1_655
Li3 O4 2.091295 1_565
Li3 O9 2.114197 1_555
Li3 O3 2.120030 1_665
Li3 O3 2.171477 1_565
Li3 O10 2.195683 1_555
Li4 O4 2.079273 1_455
Li4 O10 2.091295 1_545
Li4 O5 2.114197 1_555
Li4 O11 2.120030 1_445
Li4 O11 2.171477 1_545
Li4 O4 2.195683 1_555
Li5 O5 2.060940 1_555
Li5 O11 2.077901 1_545
Li5 O12 2.145474 1_555
Li5 O6 2.155719 1_555
Li5 O12 2.172519 1_655
Li5 O5 2.211404 1_655
Li6 O0 2.006991 1_555
Li6 O13 2.042762 1_555
Li6 O12 2.086918 1_555
Li6 O13 2.125134 1_455
Li6 O6 2.167724 1_455
Li6 O6 2.212660 1_555
Li7 O0 2.027380 1_544
Li7 O7 2.027380 1_455
Li7 O1 2.083533 1_545
Li7 O13 2.083533 1_454
Li7 O1 2.183834 1_445
Li7 O13 2.183834 1_554
Co0 O13 1.728845 1_565
Co0 O0 1.876081 1_655
Co0 O6 1.941329 1_555
Co0 O12 1.968218 1_565
Co0 O0 2.100239 1_555
Co0 O12 2.234471 1_665
Co1 O1 1.728845 1_545
Co1 O7 1.876081 1_455
Co1 O8 1.941329 1_555
Co1 O2 1.968218 1_545
Co1 O7 2.100239 1_555
Co1 O2 2.234471 1_445
Co2 O2 1.890969 1_545
Co2 O9 1.919697 1_555
Co2 O8 1.921224 1_555
Co2 O3 1.947522 1_655
Co2 O8 2.149353 1_655
Co2 O3 2.169855 1_555
Co3 O10 1.921787 1_555
Co3 O3 1.931645 1_555
Co3 O9 2.035683 1_455
Co3 O4 2.045177 1_555
Co3 O9 2.097759 1_555
Co3 O4 2.113712 1_455
Co4 O4 1.921787 1_555
Co4 O11 1.931645 1_555
Co4 O5 2.035683 1_655
Co4 O10 2.045177 1_555
Co4 O5 2.097759 1_555
Co4 O10 2.113712 1_655
Co5 O12 1.890969 1_565
Co5 O5 1.919697 1_555
Co5 O6 1.921224 1_555
Co5 O11 1.947522 1_455
Co5 O6 2.149353 1_455
Co5 O11 2.169855 1_555
