# generated using pymatgen
data_HfCuSiAs
_symmetry_space_group_name_H-M   'P 1'
_cell_length_a   3.65462900
_cell_length_b   3.65462900
_cell_length_c   9.57147300
_cell_angle_alpha   90.00000000
_cell_angle_beta   90.00000000
_cell_angle_gamma   90.00000000
_symmetry_Int_Tables_number   1
_chemical_formula_structural   HfCuSiAs
_chemical_formula_sum   'Hf2 Cu2 Si2 As2'
_cell_volume   127.83959048
_cell_formula_units_Z   2
loop_
 _symmetry_equiv_pos_site_id
 _symmetry_equiv_pos_as_xyz
  1  'x, y, z'
loop_
 _atom_site_type_symbol
 _atom_site_label
 _atom_site_symmetry_multiplicity
 _atom_site_fract_x
 _atom_site_fract_y
 _atom_site_fract_z
 _atom_site_occupancy
  Hf  Hf0  1  0.00000000  0.50000000  0.78002100  1
  Hf  Hf1  1  0.50000000  0.00000000  0.21997900  1
  Cu  Cu0  1  0.50000000  0.50000000  0.50000000  1
  Cu  Cu1  1  0.00000000  0.00000000  0.50000000  1
  Si  Si0  1  0.50000000  0.50000000  0.00000000  1
  Si  Si1  1  0.00000000  0.00000000  0.00000000  1
  As  As0  1  0.00000000  0.50000000  0.31851000  1
  As  As1  1  0.50000000  0.00000000  0.68149000  1
loop_
_geom_bond_atom_site_label_1
_geom_bond_atom_site_label_2
_geom_bond_distance
_geom_bond_site_symmetry_2
Hf0 Si1 2.787886 1_566
Hf0 Si0 2.787886 1_556
Hf0 Si0 2.787886 1_456
Hf0 Si1 2.787886 1_556
Hf1 Si1 2.787886 1_555
Hf1 Si1 2.787886 1_655
Hf1 Si0 2.787886 1_545
Hf1 Si0 2.787886 1_555
Si0 Si1 2.584213 1_655
Si0 Si1 2.584213 1_565
Si0 Si1 2.584213 1_665
Si0 Si1 2.584213 1_555
As0 Cu0 2.521247 1_555
As0 Cu1 2.521247 1_555
As0 Cu0 2.521247 1_455
As0 Cu1 2.521247 1_565
As0 Hf1 2.750922 1_555
As0 Hf1 2.750922 1_565
As0 Hf1 2.750922 1_465
As0 Hf1 2.750922 1_455
As1 Cu0 2.521247 1_545
As1 Cu0 2.521247 1_555
As1 Cu1 2.521247 1_655
As1 Cu1 2.521247 1_555
As1 Hf0 2.750922 1_545
As1 Hf0 2.750922 1_655
As1 Hf0 2.750922 1_645
As1 Hf0 2.750922 1_555
