# generated using pymatgen
data_Ca3Ti3N5
_symmetry_space_group_name_H-M   'P 1'
_cell_length_a   5.81337272
_cell_length_b   7.71803964
_cell_length_c   8.12011741
_cell_angle_alpha   108.26892254
_cell_angle_beta   104.02850288
_cell_angle_gamma   103.62371410
_symmetry_Int_Tables_number   1
_chemical_formula_structural   Ca3Ti3N5
_chemical_formula_sum   'Ca6 Ti6 N10'
_cell_volume   315.87691123
_cell_formula_units_Z   2
loop_
 _symmetry_equiv_pos_site_id
 _symmetry_equiv_pos_as_xyz
  1  'x, y, z'
loop_
 _atom_site_type_symbol
 _atom_site_label
 _atom_site_symmetry_multiplicity
 _atom_site_fract_x
 _atom_site_fract_y
 _atom_site_fract_z
 _atom_site_occupancy
  Ca  Ca0  1  0.74242600  0.42954300  0.57793700  1
  Ca  Ca1  1  0.25757400  0.57045700  0.42206300  1
  Ca  Ca2  1  0.65274300  0.82144400  0.87178200  1
  Ca  Ca3  1  0.34725700  0.17855600  0.12821800  1
  Ca  Ca4  1  0.70385900  0.65875600  0.22322100  1
  Ca  Ca5  1  0.29614100  0.34124400  0.77677900  1
  Ti  Ti0  1  0.89272900  0.31566200  0.99220800  1
  Ti  Ti1  1  0.10727100  0.68433800  0.00779200  1
  Ti  Ti2  1  0.72431500  0.98623600  0.59415200  1
  Ti  Ti3  1  0.27568500  0.01376400  0.40584800  1
  Ti  Ti4  1  0.10905500  0.86478300  0.70479500  1
  Ti  Ti5  1  0.89094500  0.13521700  0.29520500  1
  N  N0  1  0.99859000  0.09561800  0.84044300  1
  N  N1  1  0.00141000  0.90438200  0.15955700  1
  N  N2  1  0.73517800  0.72525900  0.54220700  1
  N  N3  1  0.26482200  0.27474100  0.45779300  1
  N  N4  1  0.76172600  0.49886500  0.90247400  1
  N  N5  1  0.23827400  0.50113500  0.09752600  1
  N  N6  1  0.39613900  0.94804500  0.62958500  1
  N  N7  1  0.60386100  0.05195500  0.37041500  1
  N  N8  1  0.19044400  0.66546600  0.78365900  1
  N  N9  1  0.80955600  0.33453400  0.21634100  1
loop_
_geom_bond_atom_site_label_1
_geom_bond_atom_site_label_2
_geom_bond_distance
_geom_bond_site_symmetry_2
Ca0 N2 2.397832 1_555
Ca0 N4 2.487557 1_555
Ca0 N3 2.545865 1_555
Ca0 N8 2.576633 1_655
Ca0 N7 2.671784 1_555
Ca0 N9 2.941384 1_555
Ca1 N3 2.397832 1_555
Ca1 N5 2.487557 1_555
Ca1 N2 2.545865 1_555
Ca1 N9 2.576633 1_455
Ca1 N6 2.671784 1_555
Ca1 N8 2.941384 1_555
Ca2 N1 2.476564 1_656
Ca2 N8 2.487462 1_555
Ca2 N0 2.676987 1_565
Ca2 N2 2.736152 1_555
Ca2 N6 2.741704 1_555
Ca2 N4 2.778047 1_555
Ca3 N0 2.476564 1_454
Ca3 N9 2.487462 1_555
Ca3 N1 2.676987 1_545
Ca3 N3 2.736152 1_555
Ca3 N7 2.741704 1_555
Ca3 N5 2.778047 1_555
Ca4 N2 2.428903 1_555
Ca4 N5 2.485671 1_555
Ca4 N1 2.521189 1_655
Ca4 N4 2.650420 1_554
Ca4 N9 2.701076 1_555
Ca5 N3 2.428903 1_555
Ca5 N4 2.485671 1_555
Ca5 N0 2.521189 1_455
Ca5 N5 2.650420 1_556
Ca5 N8 2.701076 1_555
N0 Ti2 2.004012 1_545
N0 Ti0 2.080756 1_555
N0 Ti4 2.109807 1_645
N1 Ti3 2.004012 1_565
N1 Ti1 2.080756 1_555
N1 Ti5 2.109807 1_465
N2 Ti2 1.944017 1_555
N2 Ti4 2.059508 1_655
N3 Ti3 1.944017 1_555
N3 Ti5 2.059508 1_455
N4 Ti1 1.964869 1_656
N4 Ti0 1.998606 1_555
N5 Ti0 1.964869 1_454
N5 Ti1 1.998606 1_555
N6 Ti4 1.950948 1_555
N6 Ti2 1.965650 1_555
N6 Ti3 2.043666 1_565
N7 Ti5 1.950948 1_555
N7 Ti3 1.965650 1_555
N7 Ti2 2.043666 1_545
N8 Ti4 1.952961 1_555
N8 Ti1 1.964932 1_556
N9 Ti5 1.952961 1_555
N9 Ti0 1.964932 1_554
