# generated using pymatgen
data_La(Mg4Al3)4
_symmetry_space_group_name_H-M   'P 1'
_cell_length_a   8.94324962
_cell_length_b   9.29514366
_cell_length_c   9.29514580
_cell_angle_alpha   110.22537009
_cell_angle_beta   108.70611430
_cell_angle_gamma   108.70610467
_symmetry_Int_Tables_number   1
_chemical_formula_structural   La(Mg4Al3)4
_chemical_formula_sum   'La1 Mg16 Al12'
_cell_volume   600.34344454
_cell_formula_units_Z   1
loop_
 _symmetry_equiv_pos_site_id
 _symmetry_equiv_pos_as_xyz
  1  'x, y, z'
loop_
 _atom_site_type_symbol
 _atom_site_label
 _atom_site_symmetry_multiplicity
 _atom_site_fract_x
 _atom_site_fract_y
 _atom_site_fract_z
 _atom_site_occupancy
  La  La0  1  0.37538900  0.00000100  0.00000100  1
  Mg  Mg0  1  0.61525000  0.33351100  0.99999900  1
  Mg  Mg1  1  0.99319500  0.00000000  0.00000000  1
  Mg  Mg2  1  0.99523900  0.34090800  0.00000000  1
  Mg  Mg3  1  0.31538400  0.59967600  0.00000100  1
  Mg  Mg4  1  0.68821700  0.68682100  0.29402900  1
  Mg  Mg5  1  0.00139500  0.60720700  0.31317900  1
  Mg  Mg6  1  0.61525000  0.99999900  0.33351100  1
  Mg  Mg7  1  0.99523900  0.00000000  0.34090700  1
  Mg  Mg8  1  0.39418900  0.70597300  0.39279400  1
  Mg  Mg9  1  0.71571000  0.40032500  0.40032600  1
  Mg  Mg10  1  0.31538400  0.00000100  0.59967600  1
  Mg  Mg11  1  0.00139500  0.31317900  0.60720700  1
  Mg  Mg12  1  0.65433100  0.65909200  0.65909200  1
  Mg  Mg13  1  0.28174000  0.66648800  0.66648800  1
  Mg  Mg14  1  0.68821700  0.29402900  0.68682100  1
  Mg  Mg15  1  0.39418900  0.39279400  0.70597300  1
  Al  Al0  1  0.81133700  0.63832100  0.00000000  1
  Al  Al1  1  0.63119600  0.81744600  0.00000000  1
  Al  Al2  1  0.36276300  0.36436200  0.17969800  1
  Al  Al3  1  0.81374900  0.18255400  0.18255400  1
  Al  Al4  1  0.18306400  0.82030100  0.18466400  1
  Al  Al5  1  0.17301900  0.36168100  0.36168100  1
  Al  Al6  1  0.36276300  0.17969800  0.36436200  1
  Al  Al7  1  0.99840000  0.81533700  0.63563800  1
  Al  Al8  1  0.81133700  0.00000000  0.63832100  1
  Al  Al9  1  0.99840000  0.63563900  0.81533600  1
  Al  Al10  1  0.63119600  0.00000000  0.81744500  1
  Al  Al11  1  0.18306300  0.18466400  0.82030100  1
loop_
_geom_bond_atom_site_label_1
_geom_bond_atom_site_label_2
_geom_bond_distance
_geom_bond_site_symmetry_2
La0 Mg0 3.153782 1_554
La0 Mg6 3.153783 1_545
La0 Mg13 3.153803 1_544
La0 Mg1 3.418050 1_455
La0 Mg9 3.585184 1_555
La0 Mg3 3.585185 1_545
La0 Mg10 3.585186 1_554
Mg0 Mg14 3.109351 1_555
Mg0 Mg5 3.109357 1_656
Mg0 Mg15 3.155295 1_555
Mg0 Mg4 3.155311 1_556
Mg0 Mg10 3.307429 1_555
Mg0 Mg9 3.307459 1_556
Mg0 Mg2 3.376910 1_556
Mg1 Mg7 3.162965 1_555
Mg1 Mg2 3.162974 1_555
Mg1 Mg12 3.162974 1_544
Mg2 Mg5 3.071132 1_655
Mg2 Mg3 3.092834 1_655
Mg3 Mg4 3.183559 1_555
Mg3 Mg8 3.195591 1_555
Mg3 Mg6 3.307429 1_555
Mg4 Mg7 3.071135 1_565
Mg4 Mg5 3.086216 1_655
Mg4 Mg8 3.086226 1_555
Mg4 Mg6 3.109351 1_555
Mg4 Mg9 3.195593 1_555
Mg5 Mg8 3.086229 1_555
Mg5 Mg9 3.183550 1_455
Mg6 Mg8 3.155295 1_555
Mg6 Mg9 3.307446 1_565
Mg6 Mg7 3.376913 1_565
Mg10 Mg7 3.092838 1_455
Mg10 Mg8 3.183556 1_545
Mg10 Mg14 3.183559 1_555
Mg10 Mg15 3.195591 1_555
Mg10 Mg5 3.195600 1_545
Mg10 Mg13 3.307450 1_545
Mg11 Mg7 3.071136 1_455
Mg11 Mg14 3.086216 1_455
Mg11 Mg15 3.086229 1_555
Mg11 Mg6 3.109357 1_445
Mg11 Mg13 3.155307 1_555
Mg11 Mg9 3.183539 1_455
Mg11 Mg3 3.195600 1_556
Mg12 Mg8 3.071127 1_555
Mg12 Mg15 3.071127 1_555
Mg12 Mg9 3.092836 1_555
Mg12 Mg13 3.376898 1_555
Mg13 Mg15 3.109341 1_555
Mg13 Mg8 3.109342 1_555
Mg13 Mg5 3.155307 1_555
Mg13 Mg3 3.307451 1_556
Mg14 Mg2 3.071131 1_556
Mg14 Mg15 3.086225 1_555
Mg14 Mg6 3.155311 1_545
Mg14 Mg9 3.195579 1_555
Mg15 Mg3 3.183556 1_556
Al0 Al1 2.662372 1_555
Al0 Al4 2.754045 1_655
Al0 Al9 2.754045 1_554
Al0 Mg0 2.813474 1_554
Al0 Mg14 3.028290 1_554
Al0 Mg5 3.028293 1_655
Al0 Mg7 3.129378 1_565
Al0 Mg12 3.129382 1_554
Al0 Mg15 3.206533 1_554
Al0 Mg4 3.206544 1_555
Al0 Mg1 3.231117 1_565
Al1 Al3 2.783805 1_565
Al1 Al10 2.783813 1_564
Al1 Mg3 2.899561 1_555
Al1 Mg13 3.051480 1_554
Al1 Mg6 3.051480 1_555
Al1 Mg7 3.105073 1_565
Al1 Mg12 3.105078 1_554
Al1 Mg1 3.136356 1_565
Al1 La0 3.256256 1_565
Al1 Mg15 3.316822 1_554
Al1 Mg4 3.316838 1_555
Al2 Al5 2.754046 1_555
Al2 Al6 2.815981 1_555
Al2 Mg4 2.966921 1_555
Al2 Mg8 2.967625 1_555
Al2 Mg9 2.996319 1_555
Al2 Mg2 3.067251 1_455
Al2 Mg3 3.228040 1_555
Al2 Mg0 3.236428 1_554
Al2 Mg1 3.248345 1_455
Al2 La0 3.275347 1_555
Al3 Al5 2.662402 1_655
Al3 Mg9 2.899551 1_555
Al3 Mg0 3.051481 1_554
Al3 Mg6 3.051482 1_545
Al3 Mg7 3.105078 1_555
Al3 Mg2 3.105083 1_555
Al3 Mg1 3.136363 1_555
Al3 La0 3.256242 1_555
Al3 Mg5 3.316830 1_655
Al3 Mg11 3.316830 1_655
Al4 Al6 2.740261 1_565
Al4 Al9 2.815982 1_454
Al4 Mg8 2.966919 1_555
Al4 Mg5 2.967609 1_555
Al4 Mg3 2.996300 1_555
Al4 Mg7 3.067244 1_465
Al4 Mg10 3.228046 1_565
Al4 Mg6 3.236429 1_555
Al4 Mg1 3.248348 1_465
Al4 La0 3.275364 1_565
Al5 Al6 2.754045 1_555
Al5 Mg13 2.813454 1_555
Al5 Mg8 3.028285 1_555
Al5 Mg15 3.028285 1_555
Al5 Mg7 3.129389 1_455
Al5 Mg2 3.129394 1_455
Al5 Mg5 3.206546 1_555
Al5 Mg11 3.206546 1_555
Al5 Mg1 3.231132 1_455
Al6 Mg14 2.966921 1_555
Al6 Mg15 2.967626 1_555
Al6 Mg9 2.996312 1_555
Al6 Mg7 3.067246 1_455
Al6 Mg10 3.228041 1_555
Al6 Mg6 3.236427 1_545
Al6 Mg1 3.248346 1_455
Al6 La0 3.275348 1_555
Al7 Al9 2.740253 1_555
Al7 Al8 2.754037 1_565
Al7 Mg5 2.966927 1_655
Al7 Mg4 2.967603 1_555
Al7 Mg10 2.996310 1_665
Al7 Mg12 3.067245 1_555
Al7 Mg9 3.228042 1_555
Al7 Mg13 3.236450 1_655
Al7 Mg1 3.248339 1_566
Al7 La0 3.275367 1_666
Al8 Mg6 2.813474 1_545
Al8 Mg4 3.028290 1_545
Al8 Mg11 3.028293 1_655
Al8 Mg12 3.129382 1_545
Al8 Mg2 3.129382 1_556
Al8 Mg8 3.206533 1_545
Al8 Mg14 3.206543 1_555
Al8 Mg1 3.231118 1_556
Al9 Mg11 2.966931 1_655
Al9 Mg14 2.967611 1_555
Al9 Mg3 2.996319 1_656
Al9 Mg12 3.067238 1_555
Al9 Mg9 3.228030 1_555
Al9 Mg13 3.236444 1_655
Al9 Mg1 3.248332 1_566
Al9 La0 3.275360 1_666
Al10 Al8 2.662364 1_555
Al10 Al3 2.783813 1_556
Al10 Mg10 2.899558 1_555
Al10 Mg0 3.051482 1_555
Al10 Mg13 3.051482 1_545
Al10 Mg12 3.105076 1_545
Al10 Mg2 3.105076 1_556
Al10 Mg1 3.136357 1_556
Al10 La0 3.256263 1_556
Al10 Mg8 3.316815 1_545
Al10 Mg14 3.316832 1_555
Al11 Al2 2.740262 1_556
Al11 Al8 2.754038 1_455
Al11 Al7 2.815973 1_445
Al11 Mg15 2.966924 1_555
Al11 Mg11 2.967605 1_555
Al11 Mg10 2.996307 1_555
Al11 Mg2 3.067240 1_456
Al11 Mg3 3.228044 1_556
Al11 Mg0 3.236437 1_555
Al11 Mg1 3.248344 1_456
Al11 La0 3.275368 1_556
