# generated using pymatgen
data_Y2Cr3O9
_symmetry_space_group_name_H-M   'P 1'
_cell_length_a   3.77514500
_cell_length_b   3.77514500
_cell_length_c   11.53458800
_cell_angle_alpha   90.00000000
_cell_angle_beta   90.00000000
_cell_angle_gamma   90.00000000
_symmetry_Int_Tables_number   1
_chemical_formula_structural   Y2Cr3O9
_chemical_formula_sum   'Y2 Cr3 O9'
_cell_volume   164.38771585
_cell_formula_units_Z   1
loop_
 _symmetry_equiv_pos_site_id
 _symmetry_equiv_pos_as_xyz
  1  'x, y, z'
loop_
 _atom_site_type_symbol
 _atom_site_label
 _atom_site_symmetry_multiplicity
 _atom_site_fract_x
 _atom_site_fract_y
 _atom_site_fract_z
 _atom_site_occupancy
  Y  Y0  1  0.50000000  0.50000000  0.81119100  1
  Y  Y1  1  0.50000000  0.50000000  0.18880900  1
  Cr  Cr0  1  0.00000000  0.00000000  0.00000000  1
  Cr  Cr1  1  0.00000000  0.00000000  0.34751500  1
  Cr  Cr2  1  0.00000000  0.00000000  0.65248500  1
  O  O0  1  0.00000000  0.00000000  0.83299400  1
  O  O1  1  0.00000000  0.00000000  0.16700600  1
  O  O2  1  0.00000000  0.00000000  0.50000000  1
  O  O3  1  0.00000000  0.50000000  0.00000000  1
  O  O4  1  0.00000000  0.50000000  0.31389500  1
  O  O5  1  0.00000000  0.50000000  0.68610500  1
  O  O6  1  0.50000000  0.00000000  0.00000000  1
  O  O7  1  0.50000000  0.00000000  0.31389500  1
  O  O8  1  0.50000000  0.00000000  0.68610500  1
loop_
_geom_bond_atom_site_label_1
_geom_bond_atom_site_label_2
_geom_bond_distance
_geom_bond_site_symmetry_2
Cr0 O6 1.887573 1_555
Cr0 O3 1.887573 1_555
Cr0 O3 1.887573 1_545
Cr0 O6 1.887573 1_455
Cr0 O1 1.926345 1_555
Cr0 O0 1.926345 1_554
Cr1 O2 1.758852 1_555
Cr1 O7 1.926996 1_555
Cr1 O7 1.926996 1_455
Cr1 O4 1.926996 1_555
Cr1 O4 1.926996 1_545
Cr1 O1 2.082097 1_555
Cr2 O2 1.758852 1_555
Cr2 O5 1.926996 1_545
Cr2 O8 1.926996 1_455
Cr2 O8 1.926996 1_555
Cr2 O5 1.926996 1_555
Cr2 O0 2.082097 1_555
O0 Y0 2.681251 1_455
O0 Y0 2.681251 1_555
O0 Y0 2.681251 1_445
O0 Y0 2.681251 1_545
O1 Y1 2.681251 1_555
O1 Y1 2.681251 1_455
O1 Y1 2.681251 1_445
O1 Y1 2.681251 1_545
O3 Y0 2.881994 1_554
O3 Y1 2.881994 1_555
O3 Y1 2.881994 1_455
O3 Y0 2.881994 1_454
O4 Y1 2.375846 1_555
O4 Y1 2.375846 1_455
O5 Y0 2.375846 1_455
O5 Y0 2.375846 1_555
O6 Y0 2.881994 1_554
O6 Y1 2.881994 1_555
O6 Y0 2.881994 1_544
O6 Y1 2.881994 1_545
O7 Y1 2.375846 1_555
O7 Y1 2.375846 1_545
O8 Y0 2.375846 1_545
O8 Y0 2.375846 1_555
