# generated using pymatgen
data_SnSb
_symmetry_space_group_name_H-M   'P 1'
_cell_length_a   6.90607466
_cell_length_b   6.24415004
_cell_length_c   6.40077869
_cell_angle_alpha   90.19765256
_cell_angle_beta   122.64767024
_cell_angle_gamma   89.63361452
_symmetry_Int_Tables_number   1
_chemical_formula_structural   SnSb
_chemical_formula_sum   'Sn4 Sb4'
_cell_volume   232.40346934
_cell_formula_units_Z   4
loop_
 _symmetry_equiv_pos_site_id
 _symmetry_equiv_pos_as_xyz
  1  'x, y, z'
loop_
 _atom_site_type_symbol
 _atom_site_label
 _atom_site_symmetry_multiplicity
 _atom_site_fract_x
 _atom_site_fract_y
 _atom_site_fract_z
 _atom_site_occupancy
  Sn  Sn0  1  0.00000000  0.00000000  0.00000000  1
  Sn  Sn1  1  0.50000000  0.00000000  0.00000000  1
  Sn  Sn2  1  0.00000000  0.00000000  0.50000000  1
  Sn  Sn3  1  0.50000000  0.00000000  0.50000000  1
  Sb  Sb0  1  0.00000000  0.50000000  0.00000000  1
  Sb  Sb1  1  0.50000000  0.50000000  0.00000000  1
  Sb  Sb2  1  0.00000000  0.50000000  0.50000000  1
  Sb  Sb3  1  0.50000000  0.50000000  0.50000000  1
loop_
_geom_bond_atom_site_label_1
_geom_bond_atom_site_label_2
_geom_bond_distance
_geom_bond_site_symmetry_2
Sn0 Sn3 3.200389 1_454
Sn0 Sn3 3.200389 1_555
Sn0 Sn2 3.200389 1_554
Sn0 Sn2 3.200389 1_555
Sn0 Sn1 3.453037 1_555
Sn0 Sn1 3.453037 1_455
Sn1 Sn2 3.200389 1_554
Sn1 Sn2 3.200389 1_655
Sn1 Sn3 3.200389 1_555
Sn1 Sn3 3.200389 1_554
Sn2 Sn3 3.453037 1_555
Sn2 Sn3 3.453037 1_455
Sb0 Sn0 3.122075 1_565
Sb0 Sn0 3.122075 1_555
Sb0 Sb3 3.200389 1_454
Sb0 Sb3 3.200389 1_555
Sb0 Sb2 3.200389 1_555
Sb0 Sb2 3.200389 1_554
Sb0 Sb1 3.453037 1_455
Sb0 Sb1 3.453037 1_555
Sb1 Sn1 3.122075 1_565
Sb1 Sn1 3.122075 1_555
Sb1 Sb2 3.200389 1_655
Sb1 Sb2 3.200389 1_554
Sb1 Sb3 3.200389 1_554
Sb1 Sb3 3.200389 1_555
Sb2 Sn2 3.122075 1_555
Sb2 Sn2 3.122075 1_565
Sb2 Sb3 3.453037 1_555
Sb2 Sb3 3.453037 1_455
Sb3 Sn3 3.122075 1_565
Sb3 Sn3 3.122075 1_555
