# generated using pymatgen
data_Ti4ZnO9
_symmetry_space_group_name_H-M   'P 1'
_cell_length_a   8.51505300
_cell_length_b   8.51505300
_cell_length_c   5.01722200
_cell_angle_alpha   90.00000000
_cell_angle_beta   90.00000000
_cell_angle_gamma   90.00000000
_symmetry_Int_Tables_number   1
_chemical_formula_structural   Ti4ZnO9
_chemical_formula_sum   'Ti8 Zn2 O18'
_cell_volume   363.77933849
_cell_formula_units_Z   2
loop_
 _symmetry_equiv_pos_site_id
 _symmetry_equiv_pos_as_xyz
  1  'x, y, z'
loop_
 _atom_site_type_symbol
 _atom_site_label
 _atom_site_symmetry_multiplicity
 _atom_site_fract_x
 _atom_site_fract_y
 _atom_site_fract_z
 _atom_site_occupancy
  Ti  Ti0  1  0.08895900  0.78027500  0.62333900  1
  Ti  Ti1  1  0.21972500  0.08895900  0.37666100  1
  Ti  Ti2  1  0.71972500  0.58895900  0.62333900  1
  Ti  Ti3  1  0.58895900  0.28027500  0.37666100  1
  Ti  Ti4  1  0.91104100  0.21972500  0.62333900  1
  Ti  Ti5  1  0.28027500  0.41104100  0.62333900  1
  Ti  Ti6  1  0.41104100  0.71972500  0.37666100  1
  Ti  Ti7  1  0.78027500  0.91104100  0.37666100  1
  Zn  Zn0  1  0.00000000  0.50000000  0.03510400  1
  Zn  Zn1  1  0.50000000  0.00000000  0.96489600  1
  O  O0  1  0.00000000  0.00000000  0.50000000  1
  O  O1  1  0.50000000  0.50000000  0.50000000  1
  O  O2  1  0.72745000  0.93384400  0.05089300  1
  O  O3  1  0.43384400  0.77255000  0.05089300  1
  O  O4  1  0.56615600  0.22745000  0.05089300  1
  O  O5  1  0.27255000  0.06615600  0.05089300  1
  O  O6  1  0.77255000  0.56615600  0.94910700  1
  O  O7  1  0.06615600  0.72745000  0.94910700  1
  O  O8  1  0.93384400  0.27255000  0.94910700  1
  O  O9  1  0.22745000  0.43384400  0.94910700  1
  O  O10  1  0.10742300  0.29024000  0.47492000  1
  O  O11  1  0.79024000  0.39257700  0.47492000  1
  O  O12  1  0.20976000  0.60742300  0.47492000  1
  O  O13  1  0.89257700  0.70976000  0.47492000  1
  O  O14  1  0.60742300  0.79024000  0.52508000  1
  O  O15  1  0.70976000  0.10742300  0.52508000  1
  O  O16  1  0.29024000  0.89257700  0.52508000  1
  O  O17  1  0.39257700  0.20976000  0.52508000  1
loop_
_geom_bond_atom_site_label_1
_geom_bond_atom_site_label_2
_geom_bond_distance
_geom_bond_site_symmetry_2
O0 Ti4 2.111222 1_455
O0 Ti1 2.111222 1_555
O0 Ti0 2.111222 1_545
O0 Ti7 2.111222 1_445
O1 Ti2 2.111222 1_555
O1 Ti5 2.111222 1_555
O1 Ti6 2.111222 1_555
O1 Ti3 2.111222 1_555
O2 Ti7 1.706299 1_555
O2 Zn1 2.062642 1_564
O3 Ti6 1.706299 1_555
O3 Zn1 2.062642 1_564
O4 Ti3 1.706299 1_555
O4 Zn1 2.062642 1_554
O5 Ti1 1.706299 1_555
O5 Zn1 2.062642 1_554
O6 Ti2 1.706299 1_555
O6 Zn0 2.062642 1_656
O7 Ti0 1.706299 1_555
O7 Zn0 2.062642 1_556
O8 Ti4 1.706299 1_555
O8 Zn0 2.062642 1_656
O9 Ti5 1.706299 1_555
O9 Zn0 2.062642 1_556
O10 Ti4 1.926472 1_455
O10 Ti5 1.943940 1_555
O10 Ti1 2.023606 1_555
O11 Ti2 1.926472 1_555
O11 Ti4 1.943940 1_555
O11 Ti3 2.023606 1_555
O12 Ti5 1.926472 1_555
O12 Ti0 1.943940 1_555
O12 Ti6 2.023606 1_555
O13 Ti0 1.926472 1_655
O13 Ti2 1.943940 1_555
O13 Ti7 2.023606 1_555
O14 Ti6 1.926472 1_555
O14 Ti7 1.943940 1_555
O14 Ti2 2.023606 1_555
O15 Ti7 1.926472 1_545
O15 Ti3 1.943940 1_555
O15 Ti4 2.023606 1_555
O16 Ti1 1.926472 1_565
O16 Ti6 1.943940 1_555
O16 Ti0 2.023606 1_555
O17 Ti3 1.926472 1_555
O17 Ti1 1.943940 1_555
O17 Ti5 2.023606 1_555
