# generated using pymatgen
data_Pr(Cd10Pd)2
_symmetry_space_group_name_H-M   'P 1'
_cell_length_a   11.13627711
_cell_length_b   11.13627866
_cell_length_c   11.13627866
_cell_angle_alpha   60.00000000
_cell_angle_beta   59.99999538
_cell_angle_gamma   59.99999538
_symmetry_Int_Tables_number   1
_chemical_formula_structural   Pr(Cd10Pd)2
_chemical_formula_sum   'Pr2 Cd40 Pd4'
_cell_volume   976.57405142
_cell_formula_units_Z   2
loop_
 _symmetry_equiv_pos_site_id
 _symmetry_equiv_pos_as_xyz
  1  'x, y, z'
loop_
 _atom_site_type_symbol
 _atom_site_label
 _atom_site_symmetry_multiplicity
 _atom_site_fract_x
 _atom_site_fract_y
 _atom_site_fract_z
 _atom_site_occupancy
  Pr  Pr0  1  0.49999973  0.50000009  0.50000009  1
  Pr  Pr1  1  0.75000027  0.74999991  0.74999991  1
  Cd  Cd0  1  0.56883071  0.30157492  0.30157492  1
  Cd  Cd1  1  0.30157544  0.56883049  0.82801930  1
  Cd  Cd2  1  0.30157544  0.82801930  0.56883049  1
  Cd  Cd3  1  0.82801929  0.30157530  0.30157530  1
  Cd  Cd4  1  0.30157544  0.30157576  0.56883049  1
  Cd  Cd5  1  0.56883071  0.82802046  0.30157492  1
  Cd  Cd6  1  0.82801929  0.56883112  0.30157530  1
  Cd  Cd7  1  0.30157544  0.30157576  0.82801930  1
  Cd  Cd8  1  0.30157544  0.56883049  0.30157576  1
  Cd  Cd9  1  0.82801929  0.30157530  0.56883112  1
  Cd  Cd10  1  0.56883071  0.30157492  0.82802046  1
  Cd  Cd11  1  0.30157544  0.82801930  0.30157576  1
  Cd  Cd12  1  0.68116929  0.94842508  0.94842508  1
  Cd  Cd13  1  0.94842456  0.68116951  0.42198070  1
  Cd  Cd14  1  0.94842456  0.42198070  0.68116951  1
  Cd  Cd15  1  0.42198071  0.94842470  0.94842470  1
  Cd  Cd16  1  0.94842456  0.94842424  0.68116951  1
  Cd  Cd17  1  0.68116929  0.42197954  0.94842508  1
  Cd  Cd18  1  0.42198071  0.68116888  0.94842470  1
  Cd  Cd19  1  0.94842456  0.94842424  0.42198070  1
  Cd  Cd20  1  0.94842456  0.68116951  0.94842424  1
  Cd  Cd21  1  0.42198071  0.94842470  0.68116888  1
  Cd  Cd22  1  0.68116929  0.94842508  0.42197954  1
  Cd  Cd23  1  0.94842456  0.42198070  0.94842424  1
  Cd  Cd24  1  0.86261679  0.86261908  0.13738207  1
  Cd  Cd25  1  0.13738178  0.13738242  0.86261790  1
  Cd  Cd26  1  0.86261679  0.13738207  0.86261908  1
  Cd  Cd27  1  0.13738178  0.86261790  0.13738242  1
  Cd  Cd28  1  0.13738178  0.86261790  0.86261790  1
  Cd  Cd29  1  0.86261679  0.13738207  0.13738207  1
  Cd  Cd30  1  0.38738321  0.38738092  0.11261793  1
  Cd  Cd31  1  0.11261822  0.11261758  0.38738210  1
  Cd  Cd32  1  0.38738321  0.11261793  0.38738092  1
  Cd  Cd33  1  0.11261822  0.38738210  0.11261758  1
  Cd  Cd34  1  0.11261822  0.38738210  0.38738210  1
  Cd  Cd35  1  0.38738321  0.11261793  0.11261793  1
  Cd  Cd36  1  0.12500000  0.62500000  0.62500000  1
  Cd  Cd37  1  0.62500000  0.12500000  0.62500000  1
  Cd  Cd38  1  0.62500000  0.62500000  0.12500000  1
  Cd  Cd39  1  0.62500000  0.62500000  0.62500000  1
  Pd  Pd0  1  0.62500000  0.12500000  0.12500000  1
  Pd  Pd1  1  0.12500000  0.62500000  0.12500000  1
  Pd  Pd2  1  0.12500000  0.12500000  0.62500000  1
  Pd  Pd3  1  0.12500000  0.12500000  0.12500000  1
loop_
_geom_bond_atom_site_label_1
_geom_bond_atom_site_label_2
_geom_bond_distance
_geom_bond_site_symmetry_2
Cd0 Cd3 2.886400 1_555
Cd0 Cd29 2.961349 1_555
Cd0 Cd4 2.976230 1_555
Cd0 Cd8 2.976230 1_555
Cd0 Pd0 3.087279 1_555
Cd0 Cd30 3.120016 1_555
Cd0 Cd32 3.120016 1_555
Cd0 Cd17 3.211516 1_554
Cd0 Cd22 3.211516 1_545
Cd0 Cd37 3.342316 1_555
Cd0 Cd38 3.342316 1_555
Cd0 Pr0 3.442169 1_555
Cd1 Cd2 2.886399 1_555
Cd1 Cd28 2.961358 1_555
Cd1 Cd7 2.976223 1_555
Cd1 Cd10 2.976230 1_555
Cd1 Pd1 3.087282 1_556
Cd1 Cd33 3.120021 1_556
Cd1 Cd30 3.120027 1_556
Cd1 Cd18 3.211509 1_555
Cd1 Cd20 3.211525 1_455
Cd1 Cd39 3.342311 1_555
Cd1 Cd36 3.342318 1_555
Cd1 Pr0 3.442164 1_555
Cd2 Cd28 2.961358 1_555
Cd2 Cd5 2.976230 1_555
Cd2 Pd2 3.087282 1_565
Cd2 Cd31 3.120021 1_565
Cd2 Cd32 3.120027 1_565
Cd2 Cd21 3.211509 1_555
Cd2 Cd39 3.342311 1_555
Cd2 Cd36 3.342318 1_555
Cd2 Pr0 3.442164 1_555
Cd3 Cd6 2.976235 1_555
Cd3 Cd9 2.976235 1_555
Cd3 Pd3 3.087283 1_655
Cd3 Cd31 3.120024 1_655
Cd3 Cd33 3.120024 1_655
Cd3 Cd37 3.342315 1_555
Cd3 Cd38 3.342315 1_555
Cd3 Pr0 3.442165 1_555
Cd4 Cd7 2.886399 1_555
Cd4 Cd8 2.976223 1_555
Cd4 Pd2 3.087291 1_555
Cd4 Pr0 3.442155 1_555
Cd5 Cd6 2.886400 1_555
Cd5 Pd0 3.087270 1_565
Cd5 Pr0 3.442178 1_555
Cd6 Cd9 2.976235 1_555
Cd6 Pd1 3.087278 1_655
Cd6 Pr0 3.442170 1_555
Cd7 Pd3 3.087286 1_556
Cd7 Pr0 3.442159 1_555
Cd8 Pd1 3.087291 1_555
Cd8 Pr0 3.442155 1_555
Cd9 Pd2 3.087278 1_655
Cd9 Pr0 3.442170 1_555
Cd10 Cd9 2.886400 1_555
Cd10 Cd26 2.961345 1_555
Cd10 Cd7 2.976231 1_555
Cd10 Pd0 3.087270 1_556
Cd10 Cd30 3.120006 1_556
Cd10 Cd35 3.120012 1_556
Cd10 Cd17 3.211498 1_555
Cd10 Cd12 3.211516 1_545
Cd10 Cd39 3.342316 1_555
Cd10 Cd37 3.342326 1_555
Cd10 Pr0 3.442178 1_555
Cd11 Cd8 2.886399 1_555
Cd11 Cd27 2.961367 1_555
Cd11 Cd2 2.976223 1_555
Cd11 Cd5 2.976231 1_555
Cd11 Pd3 3.087286 1_565
Cd11 Cd31 3.120016 1_565
Cd11 Cd35 3.120027 1_565
Cd11 Cd19 3.211525 1_455
Cd11 Cd15 3.211527 1_554
Cd11 Cd36 3.342313 1_555
Cd11 Cd38 3.342316 1_555
Cd11 Pr0 3.442159 1_555
Cd12 Cd15 2.886400 1_555
Cd12 Cd35 2.961349 1_566
Cd12 Cd16 2.976230 1_555
Cd12 Cd20 2.976230 1_555
Cd12 Pd0 3.087279 1_566
Cd12 Cd24 3.120016 1_556
Cd12 Cd26 3.120016 1_565
Cd12 Cd5 3.211516 1_556
Cd12 Cd38 3.342316 1_556
Cd12 Cd37 3.342316 1_565
Cd12 Pr1 3.442169 1_555
Cd13 Cd14 2.886399 1_555
Cd13 Cd34 2.961358 1_655
Cd13 Cd19 2.976223 1_555
Cd13 Cd22 2.976230 1_555
Cd13 Pd1 3.087282 1_655
Cd13 Cd27 3.120021 1_655
Cd13 Cd24 3.120027 1_555
Cd13 Cd6 3.211509 1_555
Cd13 Cd8 3.211525 1_655
Cd13 Cd39 3.342311 1_555
Cd13 Cd36 3.342318 1_655
Cd13 Pr1 3.442164 1_555
Cd14 Cd34 2.961358 1_655
Cd14 Cd23 2.976223 1_555
Cd14 Cd17 2.976230 1_555
Cd14 Pd2 3.087282 1_655
Cd14 Cd25 3.120021 1_655
Cd14 Cd26 3.120027 1_555
Cd14 Cd9 3.211509 1_555
Cd14 Cd4 3.211525 1_655
Cd14 Cd39 3.342311 1_555
Cd14 Cd36 3.342318 1_655
Cd14 Pr1 3.442164 1_555
Cd15 Cd35 2.961368 1_566
Cd15 Cd18 2.976235 1_555
Cd15 Cd21 2.976235 1_555
Cd15 Pd3 3.087283 1_566
Cd15 Cd25 3.120024 1_565
Cd15 Cd27 3.120024 1_556
Cd15 Cd7 3.211527 1_565
Cd15 Cd38 3.342315 1_556
Cd15 Cd37 3.342315 1_565
Cd15 Pr1 3.442165 1_555
Cd16 Cd19 2.886399 1_555
Cd16 Cd31 2.961362 1_665
Cd16 Cd20 2.976223 1_555
Cd16 Pd2 3.087291 1_665
Cd16 Cd28 3.120025 1_655
Cd16 Cd26 3.120036 1_565
Cd16 Cd2 3.211525 1_655
Cd16 Cd9 3.211527 1_565
Cd16 Cd36 3.342308 1_655
Cd16 Cd37 3.342311 1_565
Cd16 Pr1 3.442155 1_555
Cd17 Cd18 2.886400 1_555
Cd17 Cd30 2.961345 1_556
Cd17 Cd23 2.976231 1_555
Cd17 Pd0 3.087270 1_556
Cd17 Cd26 3.120006 1_555
Cd17 Cd29 3.120012 1_556
Cd17 Cd39 3.342316 1_555
Cd17 Cd38 3.342326 1_556
Cd17 Pr1 3.442178 1_555
Cd18 Cd30 2.961359 1_556
Cd18 Cd21 2.976235 1_555
Cd18 Pd1 3.087278 1_556
Cd18 Cd28 3.120024 1_555
Cd18 Cd27 3.120029 1_556
Cd18 Cd8 3.211527 1_556
Cd18 Cd39 3.342310 1_555
Cd18 Cd38 3.342320 1_556
Cd18 Pr1 3.442170 1_555
Cd19 Cd31 2.961367 1_665
Cd19 Cd22 2.976231 1_555
Cd19 Pd3 3.087286 1_665
Cd19 Cd27 3.120016 1_655
Cd19 Cd29 3.120027 1_565
Cd19 Cd3 3.211527 1_565
Cd19 Cd36 3.342313 1_655
Cd19 Cd37 3.342316 1_565
Cd19 Pr1 3.442159 1_555
Cd20 Cd23 2.886399 1_555
Cd20 Cd33 2.961362 1_656
Cd20 Pd1 3.087291 1_656
Cd20 Cd28 3.120025 1_655
Cd20 Cd24 3.120036 1_556
Cd20 Cd6 3.211527 1_556
Cd20 Cd36 3.342308 1_655
Cd20 Cd38 3.342311 1_556
Cd20 Pr1 3.442155 1_555
Cd21 Cd22 2.886400 1_555
Cd21 Cd32 2.961359 1_565
Cd21 Pd2 3.087278 1_565
Cd21 Cd28 3.120024 1_555
Cd21 Cd25 3.120029 1_565
Cd21 Cd4 3.211527 1_565
Cd21 Cd39 3.342310 1_555
Cd21 Cd37 3.342320 1_565
Cd21 Pr1 3.442170 1_555
Cd22 Cd32 2.961345 1_565
Cd22 Pd0 3.087270 1_565
Cd22 Cd24 3.120006 1_555
Cd22 Cd29 3.120012 1_565
Cd22 Cd5 3.211498 1_555
Cd22 Cd39 3.342316 1_555
Cd22 Cd37 3.342326 1_565
Cd22 Pr1 3.442178 1_555
Cd23 Cd33 2.961367 1_656
Cd23 Pd3 3.087286 1_656
Cd23 Cd25 3.120016 1_655
Cd23 Cd29 3.120027 1_556
Cd23 Cd7 3.211525 1_655
Cd23 Cd3 3.211527 1_556
Cd23 Cd36 3.342313 1_655
Cd23 Cd38 3.342316 1_556
Cd23 Pr1 3.442159 1_555
Cd24 Pd0 2.790878 1_565
Cd24 Pd1 2.790903 1_655
Cd24 Cd5 2.961345 1_555
Cd24 Cd6 2.961359 1_555
Cd25 Pd3 2.790891 1_556
Cd25 Pd2 2.790891 1_555
Cd25 Cd4 2.961362 1_555
Cd25 Cd7 2.961367 1_555
Cd26 Pd0 2.790878 1_556
Cd26 Pd2 2.790903 1_655
Cd26 Cd9 2.961359 1_555
Cd27 Pd3 2.790891 1_565
Cd27 Pd1 2.790891 1_555
Cd27 Cd8 2.961362 1_555
Cd28 Pd2 2.790891 1_565
Cd28 Pd1 2.790891 1_556
Cd29 Pd0 2.790878 1_555
Cd29 Pd3 2.790903 1_655
Cd29 Cd3 2.961368 1_555
Cd30 Pd0 2.790878 1_555
Cd30 Pd1 2.790903 1_555
Cd30 Cd8 3.120036 1_555
Cd31 Pd2 2.790891 1_555
Cd31 Pd3 2.790891 1_555
Cd31 Cd9 3.120029 1_455
Cd32 Pd0 2.790878 1_555
Cd32 Pd2 2.790903 1_555
Cd32 Cd5 3.120006 1_545
Cd32 Cd4 3.120036 1_555
Cd33 Pd1 2.790891 1_555
Cd33 Pd3 2.790891 1_555
Cd33 Cd7 3.120016 1_554
Cd33 Cd6 3.120029 1_455
Cd34 Pd1 2.790891 1_555
Cd34 Pd2 2.790891 1_555
Cd34 Cd6 3.120024 1_455
Cd34 Cd9 3.120024 1_455
Cd34 Cd4 3.120025 1_555
Cd34 Cd8 3.120025 1_555
Cd35 Pd0 2.790878 1_555
Cd35 Pd3 2.790903 1_555
Cd35 Cd5 3.120012 1_545
Cd35 Cd7 3.120027 1_554
Cd36 Cd8 3.342308 1_555
Cd36 Cd4 3.342308 1_555
Cd36 Cd7 3.342313 1_555
Cd36 Pr1 3.409772 1_455
Cd36 Pr0 3.409772 1_555
Cd37 Cd4 3.342311 1_555
Cd37 Cd7 3.342316 1_555
Cd37 Cd9 3.342320 1_555
Cd37 Pr1 3.409776 1_545
Cd37 Pr0 3.409776 1_555
Cd38 Cd8 3.342311 1_555
Cd38 Cd6 3.342320 1_555
Cd38 Cd5 3.342326 1_555
Cd38 Pr1 3.409776 1_554
Cd38 Pr0 3.409776 1_555
Cd39 Cd9 3.342310 1_555
Cd39 Cd6 3.342310 1_555
Cd39 Cd5 3.342316 1_555
Cd39 Pr0 3.409776 1_555
Cd39 Pr1 3.409776 1_555
