# generated using pymatgen
data_Rb3AsF6
_symmetry_space_group_name_H-M   'P 1'
_cell_length_a   8.83927472
_cell_length_b   7.11209963
_cell_length_c   7.13455231
_cell_angle_alpha   77.58723023
_cell_angle_beta   110.04923479
_cell_angle_gamma   128.27288450
_symmetry_Int_Tables_number   1
_chemical_formula_structural   Rb3AsF6
_chemical_formula_sum   'Rb3 As1 F6'
_cell_volume   330.77787088
_cell_formula_units_Z   1
loop_
 _symmetry_equiv_pos_site_id
 _symmetry_equiv_pos_as_xyz
  1  'x, y, z'
loop_
 _atom_site_type_symbol
 _atom_site_label
 _atom_site_symmetry_multiplicity
 _atom_site_fract_x
 _atom_site_fract_y
 _atom_site_fract_z
 _atom_site_occupancy
  Rb  Rb0  1  0.00000000  0.00000000  0.50000000  1
  Rb  Rb1  1  0.50000000  0.50000000  0.00000000  1
  Rb  Rb2  1  0.00000000  0.50000000  0.00000000  1
  As  As0  1  0.00000000  0.00000000  0.00000000  1
  F  F0  1  0.05083100  0.26558200  0.78252500  1
  F  F1  1  0.94916900  0.73441800  0.21747500  1
  F  F2  1  0.79087800  0.71933300  0.79354600  1
  F  F3  1  0.20912200  0.28066700  0.20645400  1
  F  F4  1  0.78334900  0.99557900  0.06408000  1
  F  F5  1  0.21665100  0.00442100  0.93592000  1
loop_
_geom_bond_atom_site_label_1
_geom_bond_atom_site_label_2
_geom_bond_distance
_geom_bond_site_symmetry_2
As0 F0 2.084168 1_554
As0 F1 2.084168 1_445
As0 F4 2.096880 1_445
As0 F5 2.096880 1_554
As0 F3 2.096949 1_555
As0 F2 2.096949 1_444
F0 Rb0 2.792326 1_555
F0 Rb2 2.811928 1_556
F0 Rb1 3.104608 1_556
F1 Rb0 2.792326 1_665
F1 Rb2 2.811928 1_655
F1 Rb1 3.104608 1_555
F2 Rb1 2.802509 1_556
F2 Rb0 2.841437 1_665
F2 Rb2 2.955893 1_656
F3 Rb1 2.802509 1_555
F3 Rb0 2.841437 1_555
F3 Rb2 2.955893 1_555
F4 Rb1 2.806527 1_555
F4 Rb2 2.851456 1_665
F4 Rb0 3.037230 1_665
F5 Rb1 2.806527 1_556
F5 Rb2 2.851456 1_546
F5 Rb0 3.037230 1_555
