# generated using pymatgen
data_Tb2(MoO4)3
_symmetry_space_group_name_H-M   'P 1'
_cell_length_a   7.37075316
_cell_length_b   7.37075316
_cell_length_c   10.58881821
_cell_angle_alpha   90.00000000
_cell_angle_beta   90.00000000
_cell_angle_gamma   90.00000000
_symmetry_Int_Tables_number   1
_chemical_formula_structural   Tb2(MoO4)3
_chemical_formula_sum   'Tb4 Mo6 O24'
_cell_volume   575.26933843
_cell_formula_units_Z   2
loop_
 _symmetry_equiv_pos_site_id
 _symmetry_equiv_pos_as_xyz
  1  'x, y, z'
loop_
 _atom_site_type_symbol
 _atom_site_label
 _atom_site_symmetry_multiplicity
 _atom_site_fract_x
 _atom_site_fract_y
 _atom_site_fract_z
 _atom_site_occupancy
  Tb  Tb0  1  0.18653144  0.68653144  0.26127181  1
  Tb  Tb1  1  0.81346856  0.31346856  0.26127181  1
  Tb  Tb2  1  0.68653144  0.81346856  0.73872819  1
  Tb  Tb3  1  0.31346856  0.18653144  0.73872819  1
  Mo  Mo0  1  0.20726785  0.70726785  0.64434158  1
  Mo  Mo1  1  0.79273215  0.29273215  0.64434158  1
  Mo  Mo2  1  0.70726785  0.79273215  0.35565842  1
  Mo  Mo3  1  0.29273215  0.20726785  0.35565842  1
  Mo  Mo4  1  -0.00000000  -0.00000000  0.00000000  1
  Mo  Mo5  1  0.50000000  0.50000000  0.00000000  1
  O  O0  1  0.19483196  0.69483196  0.47942267  1
  O  O1  1  0.80516804  0.30516804  0.47942267  1
  O  O2  1  0.69483196  0.80516804  0.52057733  1
  O  O3  1  0.30516804  0.19483196  0.52057733  1
  O  O4  1  0.62629467  0.12629467  0.69007133  1
  O  O5  1  0.37370533  0.87370533  0.69007133  1
  O  O6  1  0.12629467  0.37370533  0.30992867  1
  O  O7  1  0.87370533  0.62629467  0.30992867  1
  O  O8  1  0.77515379  0.00362393  0.29588733  1
  O  O9  1  0.22484621  0.99637607  0.29588733  1
  O  O10  1  0.50362393  0.27515379  0.29588733  1
  O  O11  1  0.49637607  0.72484621  0.29588733  1
  O  O12  1  0.00362393  0.22484621  0.70411267  1
  O  O13  1  0.99637607  0.77515379  0.70411267  1
  O  O14  1  0.72484621  0.50362393  0.70411267  1
  O  O15  1  0.27515379  0.49637607  0.70411267  1
  O  O16  1  0.80970444  0.96005500  0.90360781  1
  O  O17  1  0.19029556  0.03994500  0.90360781  1
  O  O18  1  0.46005500  0.30970444  0.90360781  1
  O  O19  1  0.53994500  0.69029556  0.90360781  1
  O  O20  1  0.96005500  0.19029556  0.09639219  1
  O  O21  1  0.03994500  0.80970444  0.09639219  1
  O  O22  1  0.69029556  0.46005500  0.09639219  1
  O  O23  1  0.30970444  0.53994500  0.09639219  1
loop_
_geom_bond_atom_site_label_1
_geom_bond_atom_site_label_2
_geom_bond_distance
_geom_bond_site_symmetry_2
Mo0 O0 1.751101 1_555
Mo0 O13 1.751341 1_455
Mo0 O15 1.751341 1_555
Mo0 O5 1.801222 1_555
Mo1 O1 1.751101 1_555
Mo1 O14 1.751341 1_555
Mo1 O12 1.751341 1_655
Mo1 O4 1.801222 1_555
Mo2 O2 1.751101 1_555
Mo2 O11 1.751341 1_555
Mo2 O8 1.751341 1_565
Mo2 O7 1.801222 1_555
Mo3 O3 1.751101 1_555
Mo3 O9 1.751341 1_545
Mo3 O10 1.751341 1_555
Mo3 O6 1.801222 1_555
Mo4 O20 1.759494 1_455
Mo4 O17 1.759494 1_554
Mo4 O16 1.759494 1_444
Mo4 O21 1.759494 1_545
Mo5 O18 1.759494 1_554
Mo5 O23 1.759494 1_555
Mo5 O19 1.759494 1_554
Mo5 O22 1.759494 1_555
O0 Tb0 2.311580 1_555
O1 Tb1 2.311580 1_555
O2 Tb2 2.311580 1_555
O3 Tb3 2.311580 1_555
O4 Tb2 2.403981 1_545
O4 Tb3 2.403981 1_555
O5 Tb3 2.403981 1_565
O5 Tb2 2.403981 1_555
O6 Tb0 2.403981 1_555
O6 Tb1 2.403981 1_455
O7 Tb0 2.403981 1_655
O7 Tb1 2.403981 1_555
O8 Tb1 2.330192 1_555
O9 Tb0 2.330192 1_555
O10 Tb1 2.330192 1_555
O11 Tb0 2.330192 1_555
O12 Tb3 2.330192 1_555
O13 Tb2 2.330192 1_555
O14 Tb2 2.330192 1_555
O15 Tb3 2.330192 1_555
O16 Tb2 2.244932 1_555
O17 Tb3 2.244932 1_555
O18 Tb3 2.244932 1_555
O19 Tb2 2.244932 1_555
O20 Tb1 2.244932 1_555
O21 Tb0 2.244932 1_555
O22 Tb1 2.244932 1_555
O23 Tb0 2.244932 1_555
