# generated using pymatgen
data_CdSn3
_symmetry_space_group_name_H-M   'P 1'
_cell_length_a   6.10348986
_cell_length_b   6.10348986
_cell_length_c   6.10348986
_cell_angle_alpha   136.74818523
_cell_angle_beta   136.74818523
_cell_angle_gamma   62.82572571
_symmetry_Int_Tables_number   1
_chemical_formula_structural   CdSn3
_chemical_formula_sum   'Cd1 Sn3'
_cell_volume   105.42543506
_cell_formula_units_Z   1
loop_
 _symmetry_equiv_pos_site_id
 _symmetry_equiv_pos_as_xyz
  1  'x, y, z'
loop_
 _atom_site_type_symbol
 _atom_site_label
 _atom_site_symmetry_multiplicity
 _atom_site_fract_x
 _atom_site_fract_y
 _atom_site_fract_z
 _atom_site_occupancy
  Cd  Cd0  1  -0.00000000  0.00000000  -0.00000000  1
  Sn  Sn0  1  0.75000000  0.25000000  0.50000000  1
  Sn  Sn1  1  0.25000000  0.75000000  0.50000000  1
  Sn  Sn2  1  0.50000000  0.50000000  -0.00000000  1
loop_
_geom_bond_atom_site_label_1
_geom_bond_atom_site_label_2
_geom_bond_distance
_geom_bond_site_symmetry_2
Cd0 Sn2 3.181146 1_556
Cd0 Sn2 3.181146 1_455
Cd0 Sn2 3.181146 1_444
Cd0 Sn2 3.181146 1_545
Cd0 Sn0 3.441376 1_555
Cd0 Sn0 3.441376 1_444
Cd0 Sn1 3.441376 1_444
Cd0 Sn1 3.441376 1_544
Cd0 Sn1 3.441376 1_555
Cd0 Sn1 3.441376 1_545
Cd0 Sn0 3.441376 1_455
Cd0 Sn0 3.441376 1_454
Sn0 Sn1 3.181146 1_645
Sn0 Sn1 3.181146 1_656
Sn0 Sn1 3.181146 1_544
Sn0 Sn1 3.181146 1_555
Sn0 Sn2 3.441376 1_545
Sn0 Sn2 3.441376 1_555
Sn0 Sn2 3.441376 1_556
Sn0 Sn2 3.441376 1_656
Sn1 Sn2 3.441376 1_555
Sn1 Sn2 3.441376 1_566
Sn1 Sn2 3.441376 1_556
Sn1 Sn2 3.441376 1_455
