# generated using pymatgen
data_AgAs(SeF2)3
_symmetry_space_group_name_H-M   'P 1'
_cell_length_a   9.30593527
_cell_length_b   9.30593527
_cell_length_c   5.44222824
_cell_angle_alpha   88.66568794
_cell_angle_beta   88.66568794
_cell_angle_gamma   118.70510570
_symmetry_Int_Tables_number   1
_chemical_formula_structural   AgAs(SeF2)3
_chemical_formula_sum   'Ag2 As2 Se6 F12'
_cell_volume   412.94668078
_cell_formula_units_Z   2
loop_
 _symmetry_equiv_pos_site_id
 _symmetry_equiv_pos_as_xyz
  1  'x, y, z'
loop_
 _atom_site_type_symbol
 _atom_site_label
 _atom_site_symmetry_multiplicity
 _atom_site_fract_x
 _atom_site_fract_y
 _atom_site_fract_z
 _atom_site_occupancy
  Ag  Ag0  1  0.50000000  0.50000000  0.00000000  1
  Ag  Ag1  1  0.00000000  0.00000000  0.50000000  1
  As  As0  1  0.82582400  0.17417600  0.00000000  1
  As  As1  1  0.17417600  0.82582400  0.00000000  1
  Se  Se0  1  0.27768700  0.27768700  0.61467700  1
  Se  Se1  1  0.72231300  0.72231300  0.38532300  1
  Se  Se2  1  0.27889800  0.50647000  0.39843200  1
  Se  Se3  1  0.50647000  0.27889800  0.39843200  1
  Se  Se4  1  0.72110200  0.49353000  0.60156800  1
  Se  Se5  1  0.49353000  0.72110200  0.60156800  1
  F  F0  1  0.01793800  0.20537700  0.11626400  1
  F  F1  1  0.20537700  0.01793800  0.11626400  1
  F  F2  1  0.98206200  0.79462300  0.88373600  1
  F  F3  1  0.79462300  0.98206200  0.88373600  1
  F  F4  1  0.93090000  0.27194700  0.71883900  1
  F  F5  1  0.27194700  0.93090000  0.71883900  1
  F  F6  1  0.06910000  0.72805300  0.28116100  1
  F  F7  1  0.72805300  0.06910000  0.28116100  1
  F  F8  1  0.63884100  0.14289000  0.88190700  1
  F  F9  1  0.14289000  0.63884100  0.88190700  1
  F  F10  1  0.36115900  0.85711000  0.11809300  1
  F  F11  1  0.85711000  0.36115900  0.11809300  1
loop_
_geom_bond_atom_site_label_1
_geom_bond_atom_site_label_2
_geom_bond_distance
_geom_bond_site_symmetry_2
Ag0 Se4 2.975947 1_554
Ag0 Se2 2.975947 1_555
Ag0 Se5 2.975947 1_554
Ag0 Se3 2.975947 1_555
Ag0 Se0 3.041422 1_554
Ag0 Se1 3.041422 1_555
Ag1 Se0 2.735062 1_555
Ag1 Se1 2.735062 1_445
Ag1 F2 2.744700 1_445
Ag1 F0 2.744700 1_555
Ag1 F1 2.744700 1_555
Ag1 F3 2.744700 1_445
As0 F11 1.760608 1_555
As0 F8 1.760608 1_554
As0 F4 1.770923 1_554
As0 F7 1.770923 1_555
As0 F3 1.800967 1_544
As0 F0 1.800967 1_655
As1 F10 1.760608 1_555
As1 F9 1.760608 1_554
As1 F5 1.770923 1_554
As1 F6 1.770923 1_555
As1 F1 1.800967 1_565
As1 F2 1.800967 1_454
Se0 Se3 2.403657 1_555
Se0 Se2 2.403657 1_555
Se1 Se5 2.403657 1_555
Se1 Se4 2.403657 1_555
Se2 Se5 2.361019 1_555
Se3 Se4 2.361019 1_555
