# generated using pymatgen
data_Ca(NiO2)2
_symmetry_space_group_name_H-M   'P 1'
_cell_length_a   6.19991052
_cell_length_b   6.19991052
_cell_length_c   14.86091721
_cell_angle_alpha   87.39330425
_cell_angle_beta   87.39330425
_cell_angle_gamma   59.67824567
_symmetry_Int_Tables_number   1
_chemical_formula_structural   Ca(NiO2)2
_chemical_formula_sum   'Ca6 Ni12 O24'
_cell_volume   492.41594854
_cell_formula_units_Z   6
loop_
 _symmetry_equiv_pos_site_id
 _symmetry_equiv_pos_as_xyz
  1  'x, y, z'
loop_
 _atom_site_type_symbol
 _atom_site_label
 _atom_site_symmetry_multiplicity
 _atom_site_fract_x
 _atom_site_fract_y
 _atom_site_fract_z
 _atom_site_occupancy
  Ca  Ca0  1  0.84372400  0.84372400  0.95964900  1
  Ca  Ca1  1  0.16199500  0.16199500  0.67102800  1
  Ca  Ca2  1  0.33534800  0.33534800  0.83310400  1
  Ca  Ca3  1  0.83734700  0.83734700  0.32865300  1
  Ca  Ca4  1  0.00068100  0.00068100  0.49820800  1
  Ca  Ca5  1  0.66193000  0.66193000  0.16589400  1
  Ni  Ni0  1  0.82626800  0.34092800  0.83701900  1
  Ni  Ni1  1  0.50763300  0.50763300  0.61811900  1
  Ni  Ni2  1  0.49967000  0.49967000  0.99756600  1
  Ni  Ni3  1  0.34092800  0.82626800  0.83701900  1
  Ni  Ni4  1  0.50260000  0.99798100  0.49997900  1
  Ni  Ni5  1  0.18021900  0.18021900  0.28961800  1
  Ni  Ni6  1  0.99798100  0.50260000  0.49997900  1
  Ni  Ni7  1  0.17583200  0.65784800  0.16498400  1
  Ni  Ni8  1  0.82207100  0.82207100  0.71174700  1
  Ni  Ni9  1  0.65784800  0.17583200  0.16498400  1
  Ni  Ni10  1  0.49216400  0.49216400  0.37913200  1
  Ni  Ni11  1  0.14944400  0.14944400  0.04236400  1
  O  O0  1  0.66072700  0.23510200  0.91943200  1
  O  O1  1  0.51654800  0.51654800  0.74570100  1
  O  O2  1  0.23510200  0.66072700  0.91943200  1
  O  O3  1  0.64226000  0.64226000  0.91281800  1
  O  O4  1  0.35527300  0.84020500  0.57618700  1
  O  O5  1  0.99042100  0.99042100  0.77346700  1
  O  O6  1  0.18809800  0.18809800  0.41827700  1
  O  O7  1  0.49151200  0.97353200  0.76415900  1
  O  O8  1  0.84020500  0.35527300  0.57618700  1
  O  O9  1  0.14671700  0.14671700  0.91102800  1
  O  O10  1  0.33892100  0.33892100  0.57493700  1
  O  O11  1  0.97353200  0.49151200  0.76415900  1
  O  O12  1  0.02581200  0.50353800  0.23866100  1
  O  O13  1  0.66400400  0.66400400  0.42756500  1
  O  O14  1  0.15458100  0.64386100  0.42368600  1
  O  O15  1  0.50353800  0.02581200  0.23866100  1
  O  O16  1  0.86049800  0.86049800  0.10710200  1
  O  O17  1  0.81319100  0.81319100  0.58041800  1
  O  O18  1  0.02342100  0.02342100  0.24358600  1
  O  O19  1  0.64386100  0.15458100  0.42368600  1
  O  O20  1  0.34685700  0.34685700  0.07070100  1
  O  O21  1  0.78405000  0.33200200  0.07574700  1
  O  O22  1  0.47338900  0.47338900  0.23966700  1
  O  O23  1  0.33200200  0.78405000  0.07574700  1
loop_
_geom_bond_atom_site_label_1
_geom_bond_atom_site_label_2
_geom_bond_distance
_geom_bond_site_symmetry_2
Ca0 O0 2.163881 1_565
Ca0 O2 2.163881 1_655
Ca0 O16 2.208109 1_556
Ca0 O3 2.310429 1_555
Ca1 O4 2.256311 1_545
Ca1 O8 2.256311 1_455
Ca1 O11 2.270311 1_455
Ca1 O7 2.270311 1_545
Ca1 O10 2.318544 1_555
Ca1 O5 2.329926 1_445
Ca2 O11 2.223757 1_455
Ca2 O7 2.223757 1_545
Ca2 O2 2.235764 1_555
Ca2 O0 2.235764 1_555
Ca2 O9 2.282779 1_555
Ca2 O1 2.284766 1_555
Ca3 O19 2.240135 1_565
Ca3 O14 2.240135 1_655
Ca3 O15 2.259410 1_565
Ca3 O12 2.259410 1_655
Ca3 O18 2.310502 1_665
Ca3 O13 2.312902 1_555
Ca4 O14 2.241952 1_545
Ca4 O19 2.241952 1_455
Ca4 O4 2.254828 1_545
Ca4 O8 2.254828 1_455
Ca4 O6 2.285501 1_555
Ca4 O17 2.302396 1_445
Ca5 O22 2.254179 1_555
Ca5 O12 2.260925 1_655
Ca5 O15 2.260925 1_565
Ca5 O16 2.264785 1_555
Ca5 O21 2.268337 1_555
Ca5 O23 2.268337 1_555
Ni0 O0 1.864492 1_555
Ni0 O11 1.885850 1_555
Ni0 O3 1.995784 1_555
Ni0 O9 2.066281 1_655
Ni0 O5 2.125157 1_545
Ni0 O1 2.169334 1_555
Ni1 O8 1.871403 1_555
Ni1 O4 1.871403 1_555
Ni1 O1 1.903423 1_555
Ni1 O10 1.956244 1_555
Ni2 O0 1.857386 1_555
Ni2 O2 1.857386 1_555
Ni2 O20 1.922367 1_556
Ni2 O3 1.932827 1_555
Ni2 O21 1.940354 1_556
Ni2 O23 1.940354 1_556
Ni3 O2 1.864492 1_555
Ni3 O7 1.885850 1_555
Ni3 O3 1.995784 1_555
Ni3 O9 2.066281 1_565
Ni3 O5 2.125157 1_455
Ni3 O1 2.169334 1_555
Ni4 O19 1.913973 1_565
Ni4 O4 1.944508 1_555
Ni4 O17 2.075296 1_555
Ni4 O6 2.104782 1_565
Ni4 O13 2.111754 1_555
Ni4 O10 2.164319 1_565
Ni5 O18 1.852903 1_555
Ni5 O15 1.870393 1_555
Ni5 O12 1.870393 1_555
Ni5 O6 1.918302 1_555
Ni6 O14 1.913973 1_655
Ni6 O8 1.944508 1_555
Ni6 O17 2.075296 1_555
Ni6 O6 2.104782 1_655
Ni6 O13 2.111754 1_555
Ni6 O10 2.164319 1_655
Ni7 O12 1.920883 1_555
Ni7 O16 1.927470 1_455
Ni7 O23 1.965231 1_555
Ni7 O22 1.970675 1_555
Ni7 O20 2.202591 1_555
Ni7 O18 2.317838 1_565
Ni8 O7 1.914888 1_555
Ni8 O11 1.914888 1_555
Ni8 O17 1.959001 1_555
Ni8 O5 2.072269 1_555
Ni9 O15 1.920883 1_555
Ni9 O16 1.927470 1_545
Ni9 O21 1.965231 1_555
Ni9 O22 1.970675 1_555
Ni9 O20 2.202591 1_555
Ni9 O18 2.317838 1_655
Ni10 O19 1.909592 1_555
Ni10 O14 1.909592 1_555
Ni10 O13 2.018356 1_555
Ni10 O22 2.092904 1_555
Ni11 O9 1.953531 1_554
Ni11 O21 2.004776 1_455
Ni11 O23 2.004776 1_545
Ni11 O20 2.186266 1_555
