# generated using pymatgen
data_MgTi
_symmetry_space_group_name_H-M   'P 1'
_cell_length_a   10.91386756
_cell_length_b   10.91386756
_cell_length_c   10.65166779
_cell_angle_alpha   67.21441791
_cell_angle_beta   67.21441791
_cell_angle_gamma   31.79606292
_symmetry_Int_Tables_number   1
_chemical_formula_structural   MgTi
_chemical_formula_sum   'Mg16 Ti16'
_cell_volume   611.90301121
_cell_formula_units_Z   16
loop_
 _symmetry_equiv_pos_site_id
 _symmetry_equiv_pos_as_xyz
  1  'x, y, z'
loop_
 _atom_site_type_symbol
 _atom_site_label
 _atom_site_symmetry_multiplicity
 _atom_site_fract_x
 _atom_site_fract_y
 _atom_site_fract_z
 _atom_site_occupancy
  Mg  Mg0_0  1  0.31171700  0.31171700  0.02356850  1
  Mg  Mg0_1  1  0.31171700  0.31171700  0.52356850  1
  Mg  Mg0_2  1  0.31171700  0.81171700  0.02356850  1
  Mg  Mg0_3  1  0.31171700  0.81171700  0.52356850  1
  Mg  Mg0_4  1  0.81171700  0.31171700  0.02356850  1
  Mg  Mg0_5  1  0.81171700  0.31171700  0.52356850  1
  Mg  Mg0_6  1  0.81171700  0.81171700  0.02356850  1
  Mg  Mg0_7  1  0.81171700  0.81171700  0.52356850  1
  Mg  Mg1_0  1  0.18828300  0.18828300  0.47643150  1
  Mg  Mg1_1  1  0.18828300  0.18828300  0.97643150  1
  Mg  Mg1_2  1  0.18828300  0.68828300  0.47643150  1
  Mg  Mg1_3  1  0.18828300  0.68828300  0.97643150  1
  Mg  Mg1_4  1  0.68828300  0.18828300  0.47643150  1
  Mg  Mg1_5  1  0.68828300  0.18828300  0.97643150  1
  Mg  Mg1_6  1  0.68828300  0.68828300  0.47643150  1
  Mg  Mg1_7  1  0.68828300  0.68828300  0.97643150  1
  Ti  Ti0_0  1  0.43367350  0.43367350  0.22847800  1
  Ti  Ti0_1  1  0.43367350  0.43367350  0.72847800  1
  Ti  Ti0_2  1  0.43367350  0.93367350  0.22847800  1
  Ti  Ti0_3  1  0.43367350  0.93367350  0.72847800  1
  Ti  Ti0_4  1  0.93367350  0.43367350  0.22847800  1
  Ti  Ti0_5  1  0.93367350  0.43367350  0.72847800  1
  Ti  Ti0_6  1  0.93367350  0.93367350  0.22847800  1
  Ti  Ti0_7  1  0.93367350  0.93367350  0.72847800  1
  Ti  Ti1_0  1  0.06632650  0.06632650  0.27152200  1
  Ti  Ti1_1  1  0.06632650  0.06632650  0.77152200  1
  Ti  Ti1_2  1  0.06632650  0.56632650  0.27152200  1
  Ti  Ti1_3  1  0.06632650  0.56632650  0.77152200  1
  Ti  Ti1_4  1  0.56632650  0.06632650  0.27152200  1
  Ti  Ti1_5  1  0.56632650  0.06632650  0.77152200  1
  Ti  Ti1_6  1  0.56632650  0.56632650  0.27152200  1
  Ti  Ti1_7  1  0.56632650  0.56632650  0.77152200  1
loop_
_geom_bond_atom_site_label_1
_geom_bond_atom_site_label_2
_geom_bond_distance
_geom_bond_site_symmetry_2
Mg0_0 Mg1_1 2.830967 1_554
Mg0_0 Mg1_5 2.910611 1_554
Mg0_0 Mg1_3 2.910611 1_554
Mg0_0 Mg0_6 2.989594 1_545
Mg0_0 Mg0_6 2.989594 1_455
Mg0_0 Ti1_5 3.040107 1_554
Mg0_0 Ti1_3 3.040107 1_554
Mg0_0 Ti1_2 3.070036 1_555
Mg0_0 Ti1_4 3.070036 1_555
Mg0_0 Ti0_2 3.081976 1_545
Mg0_0 Ti0_4 3.081976 1_455
Mg0_0 Ti0_1 3.154898 1_554
Mg0_1 Mg1_0 2.830967 1_555
Mg0_1 Mg1_4 2.910611 1_555
Mg0_1 Mg1_2 2.910611 1_555
Mg0_1 Mg0_7 2.989594 1_455
Mg0_1 Mg0_7 2.989594 1_545
Mg0_1 Ti1_4 3.040107 1_555
Mg0_1 Ti1_2 3.040107 1_555
Mg0_1 Ti1_5 3.070036 1_555
Mg0_1 Ti1_3 3.070036 1_555
Mg0_1 Ti0_5 3.081976 1_455
Mg0_1 Ti0_3 3.081976 1_545
Mg0_1 Ti0_0 3.154898 1_555
Mg0_2 Mg1_3 2.830967 1_554
Mg0_2 Mg1_7 2.910611 1_554
Mg0_2 Mg1_1 2.910611 1_564
Mg0_2 Mg0_4 2.989594 1_465
Mg0_2 Mg0_4 2.989594 1_555
Mg0_2 Ti1_7 3.040107 1_554
Mg0_2 Ti1_1 3.040107 1_564
Mg0_2 Ti1_0 3.070036 1_565
Mg0_2 Ti1_6 3.070036 1_555
Mg0_2 Ti0_6 3.081976 1_455
Mg0_2 Ti0_0 3.081976 1_555
Mg0_2 Ti0_3 3.154898 1_554
Mg0_3 Mg1_2 2.830967 1_555
Mg0_3 Mg1_0 2.910611 1_565
Mg0_3 Mg1_6 2.910611 1_555
Mg0_3 Mg0_5 2.989594 1_465
Mg0_3 Mg0_5 2.989594 1_555
Mg0_3 Ti1_0 3.040107 1_565
Mg0_3 Ti1_6 3.040107 1_555
Mg0_3 Ti1_1 3.070036 1_565
Mg0_3 Ti1_7 3.070036 1_555
Mg0_3 Ti0_1 3.081976 1_555
Mg0_3 Ti0_7 3.081976 1_455
Mg0_3 Ti0_2 3.154898 1_555
Mg0_4 Mg1_5 2.830967 1_554
Mg0_4 Mg1_7 2.910611 1_554
Mg0_4 Mg1_1 2.910611 1_654
Mg0_4 Ti1_7 3.040107 1_554
Mg0_4 Ti1_1 3.040107 1_654
Mg0_4 Ti1_6 3.070036 1_555
Mg0_4 Ti1_0 3.070036 1_655
Mg0_4 Ti0_6 3.081976 1_545
Mg0_4 Ti0_0 3.081976 1_555
Mg0_4 Ti0_5 3.154898 1_554
Mg0_5 Mg1_4 2.830967 1_555
Mg0_5 Mg1_0 2.910611 1_655
Mg0_5 Mg1_6 2.910611 1_555
Mg0_5 Ti1_0 3.040107 1_655
Mg0_5 Ti1_6 3.040107 1_555
Mg0_5 Ti1_1 3.070036 1_655
Mg0_5 Ti1_7 3.070036 1_555
Mg0_5 Ti0_1 3.081976 1_555
Mg0_5 Ti0_7 3.081976 1_545
Mg0_5 Ti0_4 3.154898 1_555
Mg0_6 Mg1_7 2.830967 1_554
Mg0_6 Mg1_5 2.910611 1_564
Mg0_6 Mg1_3 2.910611 1_654
Mg0_6 Ti1_5 3.040107 1_564
Mg0_6 Ti1_3 3.040107 1_654
Mg0_6 Ti1_4 3.070036 1_565
Mg0_6 Ti1_2 3.070036 1_655
Mg0_6 Ti0_2 3.081976 1_555
Mg0_6 Ti0_4 3.081976 1_555
Mg0_6 Ti0_7 3.154898 1_554
Mg0_7 Mg1_6 2.830967 1_555
Mg0_7 Mg1_2 2.910611 1_655
Mg0_7 Mg1_4 2.910611 1_565
Mg0_7 Ti1_2 3.040107 1_655
Mg0_7 Ti1_4 3.040107 1_565
Mg0_7 Ti1_3 3.070036 1_655
Mg0_7 Ti1_5 3.070036 1_565
Mg0_7 Ti0_5 3.081976 1_555
Mg0_7 Ti0_3 3.081976 1_555
Mg0_7 Ti0_6 3.154898 1_555
Mg1_0 Mg1_6 2.989594 1_545
Mg1_0 Mg1_6 2.989594 1_455
Mg1_0 Ti0_3 3.040107 1_545
Mg1_0 Ti0_5 3.040107 1_455
Mg1_0 Ti0_2 3.070036 1_545
Mg1_0 Ti0_4 3.070036 1_455
Mg1_0 Ti1_4 3.081976 1_555
Mg1_0 Ti1_2 3.081976 1_555
Mg1_0 Ti1_1 3.154898 1_555
Mg1_1 Mg1_7 2.989594 1_455
Mg1_1 Mg1_7 2.989594 1_545
Mg1_1 Ti0_4 3.040107 1_456
Mg1_1 Ti0_2 3.040107 1_546
Mg1_1 Ti0_5 3.070036 1_455
Mg1_1 Ti0_3 3.070036 1_545
Mg1_1 Ti1_3 3.081976 1_555
Mg1_1 Ti1_5 3.081976 1_555
Mg1_1 Ti1_0 3.154898 1_556
Mg1_2 Mg1_4 2.989594 1_465
Mg1_2 Mg1_4 2.989594 1_555
Mg1_2 Ti0_1 3.040107 1_555
Mg1_2 Ti0_7 3.040107 1_455
Mg1_2 Ti0_6 3.070036 1_455
Mg1_2 Ti0_0 3.070036 1_555
Mg1_2 Ti1_6 3.081976 1_555
Mg1_2 Ti1_0 3.081976 1_565
Mg1_2 Ti1_3 3.154898 1_555
Mg1_3 Mg1_5 2.989594 1_555
Mg1_3 Mg1_5 2.989594 1_465
Mg1_3 Ti0_0 3.040107 1_556
Mg1_3 Ti0_6 3.040107 1_456
Mg1_3 Ti0_1 3.070036 1_555
Mg1_3 Ti0_7 3.070036 1_455
Mg1_3 Ti1_1 3.081976 1_565
Mg1_3 Ti1_7 3.081976 1_555
Mg1_3 Ti1_2 3.154898 1_556
Mg1_4 Ti0_1 3.040107 1_555
Mg1_4 Ti0_7 3.040107 1_545
Mg1_4 Ti0_6 3.070036 1_545
Mg1_4 Ti0_0 3.070036 1_555
Mg1_4 Ti1_0 3.081976 1_655
Mg1_4 Ti1_6 3.081976 1_555
Mg1_4 Ti1_5 3.154898 1_555
Mg1_5 Ti0_0 3.040107 1_556
Mg1_5 Ti0_6 3.040107 1_546
Mg1_5 Ti0_1 3.070036 1_555
Mg1_5 Ti0_7 3.070036 1_545
Mg1_5 Ti1_1 3.081976 1_655
Mg1_5 Ti1_7 3.081976 1_555
Mg1_5 Ti1_4 3.154898 1_556
Mg1_6 Ti0_5 3.040107 1_555
Mg1_6 Ti0_3 3.040107 1_555
Mg1_6 Ti0_4 3.070036 1_555
Mg1_6 Ti0_2 3.070036 1_555
Mg1_6 Ti1_2 3.081976 1_655
Mg1_6 Ti1_4 3.081976 1_565
Mg1_6 Ti1_7 3.154898 1_555
Mg1_7 Ti0_4 3.040107 1_556
Mg1_7 Ti0_2 3.040107 1_556
Mg1_7 Ti0_5 3.070036 1_555
Mg1_7 Ti0_3 3.070036 1_555
Mg1_7 Ti1_3 3.081976 1_655
Mg1_7 Ti1_5 3.081976 1_565
Mg1_7 Ti1_6 3.154898 1_556
Ti0_0 Ti1_2 2.757455 1_555
Ti0_0 Ti1_4 2.757455 1_555
Ti0_0 Ti0_6 2.989594 1_545
Ti0_0 Ti0_6 2.989594 1_455
Ti0_0 Ti1_6 2.998901 1_555
Ti0_1 Ti1_3 2.757455 1_555
Ti0_1 Ti1_5 2.757455 1_555
Ti0_1 Ti0_7 2.989594 1_545
Ti0_1 Ti0_7 2.989594 1_455
Ti0_1 Ti1_7 2.998901 1_555
Ti0_2 Ti1_0 2.757455 1_565
Ti0_2 Ti1_6 2.757455 1_555
Ti0_2 Ti0_4 2.989594 1_465
Ti0_2 Ti0_4 2.989594 1_555
Ti0_2 Ti1_4 2.998901 1_565
Ti0_3 Ti1_7 2.757455 1_555
Ti0_3 Ti1_1 2.757455 1_565
Ti0_3 Ti0_5 2.989594 1_555
Ti0_3 Ti0_5 2.989594 1_465
Ti0_3 Ti1_5 2.998901 1_565
Ti0_4 Ti1_0 2.757455 1_655
Ti0_4 Ti1_6 2.757455 1_555
Ti0_4 Ti1_2 2.998901 1_655
Ti0_5 Ti1_7 2.757455 1_555
Ti0_5 Ti1_1 2.757455 1_655
Ti0_5 Ti1_3 2.998901 1_655
Ti0_6 Ti1_4 2.757455 1_565
Ti0_6 Ti1_2 2.757455 1_655
Ti0_6 Ti1_0 2.998901 1_665
Ti0_7 Ti1_3 2.757455 1_655
Ti0_7 Ti1_5 2.757455 1_565
Ti0_7 Ti1_1 2.998901 1_665
Ti1_0 Ti1_6 2.989594 1_545
Ti1_0 Ti1_6 2.989594 1_455
Ti1_1 Ti1_7 2.989594 1_545
Ti1_1 Ti1_7 2.989594 1_455
Ti1_2 Ti1_4 2.989594 1_555
Ti1_2 Ti1_4 2.989594 1_465
Ti1_3 Ti1_5 2.989594 1_465
Ti1_3 Ti1_5 2.989594 1_555
