# generated using pymatgen
data_CsMg14Zn
_symmetry_space_group_name_H-M   'P 1'
_cell_length_a   6.61181132
_cell_length_b   6.49815154
_cell_length_c   10.76319675
_cell_angle_alpha   90.00000000
_cell_angle_beta   90.00000000
_cell_angle_gamma   119.43296222
_symmetry_Int_Tables_number   1
_chemical_formula_structural   CsMg14Zn
_chemical_formula_sum   'Cs1 Mg14 Zn1'
_cell_volume   402.74989829
_cell_formula_units_Z   1
loop_
 _symmetry_equiv_pos_site_id
 _symmetry_equiv_pos_as_xyz
  1  'x, y, z'
loop_
 _atom_site_type_symbol
 _atom_site_label
 _atom_site_symmetry_multiplicity
 _atom_site_fract_x
 _atom_site_fract_y
 _atom_site_fract_z
 _atom_site_occupancy
  Cs  Cs0  1  0.16115433  0.83057666  0.12500000  1
  Mg  Mg0  1  0.16071012  0.33035456  0.62500000  1
  Mg  Mg1  1  0.16683776  0.83341838  0.62500000  1
  Mg  Mg2  1  0.65744574  0.33693976  0.12500000  1
  Mg  Mg3  1  0.66642196  0.32840141  0.62500000  1
  Mg  Mg4  1  0.65744574  0.82050498  0.12500000  1
  Mg  Mg5  1  0.66642196  0.83801955  0.62500000  1
  Mg  Mg6  1  0.33951544  0.17865347  0.39524188  1
  Mg  Mg7  1  0.33951544  0.17865347  0.85475812  1
  Mg  Mg8  1  0.33951544  0.66086297  0.39524188  1
  Mg  Mg9  1  0.33951544  0.66086297  0.85475812  1
  Mg  Mg10  1  0.83899056  0.16949578  0.36746916  1
  Mg  Mg11  1  0.83899056  0.16949578  0.88253084  1
  Mg  Mg12  1  0.82031004  0.66015552  0.39453183  1
  Mg  Mg13  1  0.82031004  0.66015552  0.85546817  1
  Zn  Zn0  1  0.18689943  0.34344921  0.12500000  1
loop_
_geom_bond_atom_site_label_1
_geom_bond_atom_site_label_2
_geom_bond_distance
_geom_bond_site_symmetry_2
Cs0 Zn0 3.252456 1_565
Cs0 Zn0 3.252456 1_555
Cs0 Mg2 3.298757 1_455
Cs0 Mg4 3.298758 1_455
Cs0 Mg2 3.314036 1_565
Cs0 Mg4 3.314037 1_555
Cs0 Mg13 3.502606 1_454
Cs0 Mg12 3.502606 1_455
Cs0 Mg9 3.513614 1_554
Cs0 Mg8 3.513614 1_555
Cs0 Mg7 3.513620 1_564
Cs0 Mg6 3.513620 1_565
Mg0 Mg6 3.103254 1_555
Mg0 Mg7 3.103254 1_555
Mg0 Mg8 3.103261 1_555
Mg0 Mg9 3.103261 1_555
Mg0 Mg1 3.249267 1_555
Mg0 Mg1 3.249267 1_545
Mg0 Mg5 3.261922 1_445
Mg0 Mg3 3.261922 1_455
Mg0 Mg10 3.333963 1_455
Mg0 Mg11 3.333963 1_455
Mg0 Mg5 3.349926 1_555
Mg0 Mg3 3.349926 1_555
Mg1 Mg8 3.151885 1_555
Mg1 Mg9 3.151885 1_555
Mg1 Mg6 3.151892 1_565
Mg1 Mg7 3.151892 1_565
Mg1 Mg12 3.183567 1_455
Mg1 Mg13 3.183567 1_455
Mg1 Mg3 3.288567 1_565
Mg1 Mg5 3.288567 1_555
Mg1 Mg3 3.323449 1_455
Mg1 Mg5 3.323449 1_455
Mg2 Zn0 3.132166 1_555
Mg2 Mg7 3.436876 1_554
Mg2 Mg6 3.436876 1_555
Mg3 Mg6 3.109182 1_555
Mg3 Mg7 3.109182 1_555
Mg3 Mg5 3.186576 1_545
Mg3 Mg5 3.311576 1_555
Mg4 Zn0 3.132166 1_555
Mg4 Mg9 3.436876 1_554
Mg4 Mg8 3.436876 1_555
Mg5 Mg8 3.109182 1_555
Mg5 Mg9 3.109182 1_555
Mg6 Mg8 3.133470 1_555
Mg6 Mg8 3.364681 1_545
Mg6 Zn0 3.418672 1_555
Mg7 Mg9 3.133470 1_555
Mg7 Mg9 3.364681 1_545
Mg7 Zn0 3.418672 1_556
Mg8 Zn0 3.418678 1_555
Mg9 Zn0 3.418678 1_556
Mg10 Mg12 3.263879 1_545
Mg10 Mg12 3.263879 1_555
Mg10 Mg2 3.274003 1_555
Mg10 Mg4 3.274010 1_545
Mg10 Zn0 3.290047 1_655
Mg10 Mg8 3.294133 1_655
Mg10 Mg6 3.294134 1_655
Mg10 Mg8 3.345462 1_545
Mg10 Mg6 3.345462 1_555
Mg10 Mg3 3.348017 1_555
Mg10 Mg5 3.348023 1_545
Mg11 Mg13 3.263879 1_545
Mg11 Mg13 3.263879 1_555
Mg11 Mg2 3.274003 1_556
Mg11 Mg4 3.274010 1_546
Mg11 Zn0 3.290047 1_656
Mg11 Mg9 3.294133 1_655
Mg11 Mg7 3.294134 1_655
Mg11 Mg9 3.345462 1_545
Mg11 Mg7 3.345462 1_555
Mg11 Mg3 3.348017 1_555
Mg11 Mg5 3.348023 1_545
Mg12 Mg5 3.111291 1_555
Mg12 Mg3 3.111298 1_555
Mg12 Mg6 3.181194 1_555
Mg12 Mg8 3.181194 1_555
Mg12 Mg4 3.429862 1_555
Mg12 Mg2 3.429868 1_555
Mg12 Mg6 3.430640 1_665
Mg12 Mg8 3.430640 1_655
Mg13 Mg5 3.111291 1_555
Mg13 Mg3 3.111298 1_555
Mg13 Mg7 3.181194 1_555
Mg13 Mg9 3.181194 1_555
Mg13 Mg4 3.429862 1_556
Mg13 Mg2 3.429868 1_556
Mg13 Mg7 3.430640 1_665
Mg13 Mg9 3.430640 1_655
