# generated using pymatgen
data_VZnN2
_symmetry_space_group_name_H-M   'P 1'
_cell_length_a   5.60252100
_cell_length_b   6.42218700
_cell_length_c   5.24750200
_cell_angle_alpha   90.00000000
_cell_angle_beta   90.00000000
_cell_angle_gamma   90.00000000
_symmetry_Int_Tables_number   1
_chemical_formula_structural   VZnN2
_chemical_formula_sum   'V4 Zn4 N8'
_cell_volume   188.80741792
_cell_formula_units_Z   4
loop_
 _symmetry_equiv_pos_site_id
 _symmetry_equiv_pos_as_xyz
  1  'x, y, z'
loop_
 _atom_site_type_symbol
 _atom_site_label
 _atom_site_symmetry_multiplicity
 _atom_site_fract_x
 _atom_site_fract_y
 _atom_site_fract_z
 _atom_site_occupancy
  V  V0  1  0.57576300  0.37608900  0.99756600  1
  V  V1  1  0.42423700  0.62391100  0.49756600  1
  V  V2  1  0.92423700  0.87608900  0.49756600  1
  V  V3  1  0.07576300  0.12391100  0.99756600  1
  Zn  Zn0  1  0.58433400  0.87716100  0.00151300  1
  Zn  Zn1  1  0.41566600  0.12283900  0.50151300  1
  Zn  Zn2  1  0.91566600  0.37716100  0.50151300  1
  Zn  Zn3  1  0.08433400  0.62283900  0.00151300  1
  N  N0  1  0.57256300  0.38739400  0.35628800  1
  N  N1  1  0.42743700  0.61260600  0.85628800  1
  N  N2  1  0.92743700  0.88739400  0.85628800  1
  N  N3  1  0.07256300  0.11260600  0.35628800  1
  N  N4  1  0.60205500  0.86071200  0.39463400  1
  N  N5  1  0.39794500  0.13928800  0.89463400  1
  N  N6  1  0.89794500  0.36071200  0.89463400  1
  N  N7  1  0.10205500  0.63928800  0.39463400  1
loop_
_geom_bond_atom_site_label_1
_geom_bond_atom_site_label_2
_geom_bond_distance
_geom_bond_site_symmetry_2
N0 V1 1.883454 1_555
N0 V0 1.883879 1_554
N0 Zn1 2.059150 1_555
N0 Zn2 2.068836 1_555
N1 V0 1.883454 1_555
N1 V1 1.883879 1_555
N1 Zn0 2.059150 1_556
N1 Zn3 2.068836 1_556
N2 V3 1.883454 1_665
N2 V2 1.883879 1_555
N2 Zn3 2.059150 1_656
N2 Zn0 2.068836 1_556
N3 V2 1.883454 1_445
N3 V3 1.883879 1_554
N3 Zn2 2.059150 1_455
N3 Zn1 2.068836 1_555
N4 V2 1.886700 1_555
N4 V1 1.896574 1_555
N4 Zn1 2.058868 1_565
N4 Zn0 2.067991 1_555
N5 V3 1.886700 1_555
N5 V0 1.896574 1_555
N5 Zn0 2.058868 1_546
N5 Zn1 2.067991 1_555
N6 V0 1.886700 1_555
N6 V3 1.896574 1_655
N6 Zn3 2.058868 1_656
N6 Zn2 2.067991 1_555
N7 V1 1.886700 1_555
N7 V2 1.896574 1_455
N7 Zn2 2.058868 1_455
N7 Zn3 2.067991 1_555
