# generated using pymatgen
data_Sb4S3N2
_symmetry_space_group_name_H-M   'P 1'
_cell_length_a   8.46064548
_cell_length_b   3.70322199
_cell_length_c   9.20080162
_cell_angle_alpha   90.00000318
_cell_angle_beta   50.80709723
_cell_angle_gamma   77.35851274
_symmetry_Int_Tables_number   1
_chemical_formula_structural   Sb4S3N2
_chemical_formula_sum   'Sb4 S3 N2'
_cell_volume   214.32813820
_cell_formula_units_Z   1
loop_
 _symmetry_equiv_pos_site_id
 _symmetry_equiv_pos_as_xyz
  1  'x, y, z'
loop_
 _atom_site_type_symbol
 _atom_site_label
 _atom_site_symmetry_multiplicity
 _atom_site_fract_x
 _atom_site_fract_y
 _atom_site_fract_z
 _atom_site_occupancy
  Sb  Sb0  1  0.27798400  0.86100800  0.58724300  1
  Sb  Sb1  1  0.72201600  0.13899200  0.41275700  1
  Sb  Sb2  1  0.67970200  0.66014900  0.08761200  1
  Sb  Sb3  1  0.32029800  0.33985100  0.91238800  1
  S  S0  1  0.00000000  0.00000000  0.00000000  1
  S  S1  1  0.60959900  0.69520100  0.75010000  1
  S  S2  1  0.39040100  0.30479900  0.24990000  1
  N  N0  1  0.62052800  0.68973600  0.35279400  1
  N  N1  1  0.37947200  0.31026400  0.64720600  1
loop_
_geom_bond_atom_site_label_1
_geom_bond_atom_site_label_2
_geom_bond_distance
_geom_bond_site_symmetry_2
S0 Sb3 2.882596 1_544
S0 Sb2 2.882596 1_455
S0 Sb3 2.882596 1_554
S0 Sb2 2.882596 1_445
S0 Sb1 2.898341 1_455
S0 Sb0 2.898341 1_544
S1 Sb3 2.596729 1_565
S1 Sb3 2.596732 1_555
S2 Sb2 2.596729 1_545
S2 Sb2 2.596732 1_555
N0 Sb2 2.155886 1_555
N0 Sb0 2.179191 1_555
N0 Sb1 2.243556 1_565
N0 Sb1 2.243556 1_555
N1 Sb3 2.155886 1_555
N1 Sb1 2.179191 1_555
N1 Sb0 2.243556 1_545
N1 Sb0 2.243556 1_555
