# generated using pymatgen
data_BaSrCeNbO6
_symmetry_space_group_name_H-M   'P 1'
_cell_length_a   8.57820394
_cell_length_b   8.59114670
_cell_length_c   8.57344237
_cell_angle_alpha   90.00000000
_cell_angle_beta   90.00000000
_cell_angle_gamma   90.00000000
_symmetry_Int_Tables_number   1
_chemical_formula_structural   BaSrCeNbO6
_chemical_formula_sum   'Ba4 Sr4 Ce4 Nb4 O24'
_cell_volume   631.83362559
_cell_formula_units_Z   4
loop_
 _symmetry_equiv_pos_site_id
 _symmetry_equiv_pos_as_xyz
  1  'x, y, z'
loop_
 _atom_site_type_symbol
 _atom_site_label
 _atom_site_symmetry_multiplicity
 _atom_site_fract_x
 _atom_site_fract_y
 _atom_site_fract_z
 _atom_site_occupancy
  Ba  Ba0  1  -0.00000000  0.00000000  0.00000000  1
  Ba  Ba1  1  0.50000000  0.50000000  0.50000000  1
  Ba  Ba2  1  0.50000000  0.00000000  0.50000000  1
  Ba  Ba3  1  -0.00000000  -0.00000000  0.50000000  1
  Sr  Sr0  1  -0.00000000  0.50000000  0.50000000  1
  Sr  Sr1  1  0.50000000  0.50000000  0.00000000  1
  Sr  Sr2  1  0.50000000  0.00000000  0.00000000  1
  Sr  Sr3  1  -0.00000000  0.50000000  0.00000000  1
  Ce  Ce0  1  0.74962275  0.74814609  0.75218148  1
  Ce  Ce1  1  0.25037725  0.25185391  0.75218148  1
  Ce  Ce2  1  0.25037725  0.74814609  0.24781852  1
  Ce  Ce3  1  0.74962275  0.25185391  0.24781852  1
  Nb  Nb0  1  0.24905570  0.25334049  0.24771024  1
  Nb  Nb1  1  0.75094430  0.74665951  0.24771024  1
  Nb  Nb2  1  0.75094430  0.25334049  0.75228976  1
  Nb  Nb3  1  0.24905570  0.74665951  0.75228976  1
  O  O0  1  0.01539466  0.21837017  0.27408908  1
  O  O1  1  0.98460534  0.78162983  0.27408908  1
  O  O2  1  0.98460534  0.21837017  0.72591092  1
  O  O3  1  0.01539466  0.78162983  0.72591092  1
  O  O4  1  0.28352760  0.01794782  0.21088476  1
  O  O5  1  0.28352760  0.98205218  0.78911524  1
  O  O6  1  0.71647240  0.98205218  0.21088476  1
  O  O7  1  0.71647240  0.01794782  0.78911524  1
  O  O8  1  0.21215178  0.28900665  0.01481631  1
  O  O9  1  0.78784822  0.28900665  0.98518369  1
  O  O10  1  0.21215178  0.71099335  0.98518369  1
  O  O11  1  0.78784822  0.71099335  0.01481631  1
  O  O12  1  0.48342626  0.29035392  0.21409735  1
  O  O13  1  0.51657374  0.70964608  0.21409735  1
  O  O14  1  0.51657374  0.29035392  0.78590265  1
  O  O15  1  0.48342626  0.70964608  0.78590265  1
  O  O16  1  0.21498274  0.48567870  0.28809448  1
  O  O17  1  0.21498274  0.51432130  0.71190552  1
  O  O18  1  0.78501726  0.51432130  0.28809448  1
  O  O19  1  0.78501726  0.48567870  0.71190552  1
  O  O20  1  0.28015776  0.22438977  0.48279103  1
  O  O21  1  0.71984224  0.22438977  0.51720897  1
  O  O22  1  0.28015776  0.77561023  0.51720897  1
  O  O23  1  0.71984224  0.77561023  0.48279103  1
loop_
_geom_bond_atom_site_label_1
_geom_bond_atom_site_label_2
_geom_bond_distance
_geom_bond_site_symmetry_2
Ba0 O0 3.009813 1_555
Ba0 O2 3.009813 1_454
Ba0 O3 3.009813 1_544
Ba0 O1 3.009813 1_445
Ba0 O5 3.034479 1_544
Ba0 O6 3.034479 1_445
Ba0 O7 3.034479 1_454
Ba0 O4 3.034479 1_555
Ba0 O8 3.081053 1_555
Ba0 O9 3.081053 1_454
Ba0 O11 3.081053 1_445
Ba0 O10 3.081053 1_544
Ba1 O22 3.030630 1_555
Ba1 O23 3.030630 1_555
Ba1 O21 3.030630 1_555
Ba1 O20 3.030630 1_555
Ba1 O15 3.045063 1_555
Ba1 O13 3.045063 1_555
Ba1 O12 3.045063 1_555
Ba1 O14 3.045063 1_555
Ba1 O17 3.048519 1_555
Ba1 O19 3.048519 1_555
Ba1 O16 3.048519 1_555
Ba1 O18 3.048519 1_555
Ba2 O21 2.700830 1_555
Ba2 O22 2.700830 1_545
Ba2 O23 2.700830 1_545
Ba2 O20 2.700830 1_555
Ba2 O4 3.100973 1_555
Ba2 O6 3.100973 1_545
Ba2 O5 3.100973 1_545
Ba2 O7 3.100973 1_555
Ba3 O0 2.699691 1_555
Ba3 O2 2.699691 1_455
Ba3 O3 2.699691 1_545
Ba3 O1 2.699691 1_445
Ba3 O20 3.084422 1_555
Ba3 O22 3.084422 1_545
Ba3 O21 3.084422 1_455
Ba3 O23 3.084422 1_445
Ce0 O11 2.297713 1_556
Ce0 O19 2.301299 1_555
Ce0 O3 2.308934 1_655
Ce0 O15 2.325360 1_555
Ce0 O23 2.335637 1_555
Ce0 O7 2.356655 1_565
Ce1 O8 2.297713 1_556
Ce1 O17 2.301299 1_555
Ce1 O2 2.308934 1_455
Ce1 O14 2.325360 1_555
Ce1 O20 2.335637 1_555
Ce1 O5 2.356655 1_545
Ce2 O10 2.297713 1_554
Ce2 O16 2.301299 1_555
Ce2 O1 2.308934 1_455
Ce2 O13 2.325360 1_555
Ce2 O22 2.335637 1_555
Ce2 O4 2.356655 1_565
Ce3 O9 2.297713 1_554
Ce3 O18 2.301299 1_555
Ce3 O0 2.308934 1_655
Ce3 O12 2.325360 1_555
Ce3 O21 2.335637 1_555
Ce3 O6 2.356655 1_545
Nb0 O0 2.039362 1_555
Nb0 O8 2.044731 1_555
Nb0 O16 2.046834 1_555
Nb0 O20 2.048192 1_555
Nb0 O12 2.055769 1_555
Nb0 O4 2.068040 1_555
Nb1 O1 2.039362 1_555
Nb1 O11 2.044731 1_555
Nb1 O18 2.046834 1_555
Nb1 O23 2.048192 1_555
Nb1 O13 2.055769 1_555
Nb1 O6 2.068040 1_555
Nb2 O2 2.039362 1_555
Nb2 O9 2.044731 1_555
Nb2 O19 2.046834 1_555
Nb2 O21 2.048192 1_555
Nb2 O14 2.055769 1_555
Nb2 O7 2.068040 1_555
Nb3 O3 2.039362 1_555
Nb3 O10 2.044731 1_555
Nb3 O17 2.046834 1_555
Nb3 O22 2.048192 1_555
Nb3 O15 2.055769 1_555
Nb3 O5 2.068040 1_555
O0 Sr0 3.102073 1_555
O1 Sr0 3.102073 1_655
O2 Sr0 3.102073 1_655
O3 Sr0 3.102073 1_555
O4 Sr2 2.596327 1_555
O5 Sr2 2.596327 1_566
O6 Sr2 2.596327 1_565
O7 Sr2 2.596327 1_556
O8 Sr3 2.571749 1_555
O8 Sr1 3.065775 1_555
O9 Sr3 2.571749 1_656
O9 Sr1 3.065775 1_556
O10 Sr3 2.571749 1_556
O10 Sr1 3.065775 1_556
O11 Sr3 2.571749 1_655
O11 Sr1 3.065775 1_555
O12 Sr1 2.575543 1_555
O12 Sr2 3.100300 1_555
O13 Sr1 2.575543 1_555
O13 Sr2 3.100300 1_565
O14 Sr1 2.575543 1_556
O14 Sr2 3.100300 1_556
O15 Sr1 2.575543 1_556
O15 Sr2 3.100300 1_566
O16 Sr0 2.591660 1_555
O16 Sr3 3.084930 1_555
O17 Sr0 2.591660 1_555
O17 Sr3 3.084930 1_556
O18 Sr0 2.591660 1_655
O18 Sr3 3.084930 1_655
O19 Sr0 2.591660 1_655
O19 Sr3 3.084930 1_656
