# generated using pymatgen
data_LiMg6Zr
_symmetry_space_group_name_H-M   'P 1'
_cell_length_a   5.07579600
_cell_length_b   6.35694400
_cell_length_c   11.10080100
_cell_angle_alpha   90.00000000
_cell_angle_beta   90.00000000
_cell_angle_gamma   90.00000000
_symmetry_Int_Tables_number   1
_chemical_formula_structural   LiMg6Zr
_chemical_formula_sum   'Li2 Mg12 Zr2'
_cell_volume   358.18456080
_cell_formula_units_Z   2
loop_
 _symmetry_equiv_pos_site_id
 _symmetry_equiv_pos_as_xyz
  1  'x, y, z'
loop_
 _atom_site_type_symbol
 _atom_site_label
 _atom_site_symmetry_multiplicity
 _atom_site_fract_x
 _atom_site_fract_y
 _atom_site_fract_z
 _atom_site_occupancy
  Li  Li0  1  0.50000000  0.50000000  0.16727300  1
  Li  Li1  1  0.50000000  0.00000000  0.66727300  1
  Mg  Mg0  1  0.00000000  0.74543100  0.08246100  1
  Mg  Mg1  1  0.00000000  0.25456900  0.08246100  1
  Mg  Mg2  1  0.00000000  0.00000000  0.33554900  1
  Mg  Mg3  1  0.50000000  0.25400800  0.41557000  1
  Mg  Mg4  1  0.50000000  0.74599200  0.41557000  1
  Mg  Mg5  1  0.50000000  0.00000000  0.16683500  1
  Mg  Mg6  1  0.00000000  0.24543100  0.58246100  1
  Mg  Mg7  1  0.00000000  0.75456900  0.58246100  1
  Mg  Mg8  1  0.00000000  0.50000000  0.83554900  1
  Mg  Mg9  1  0.50000000  0.75400800  0.91557000  1
  Mg  Mg10  1  0.50000000  0.24599200  0.91557000  1
  Mg  Mg11  1  0.50000000  0.50000000  0.66683500  1
  Zr  Zr0  1  0.00000000  0.50000000  0.33428100  1
  Zr  Zr1  1  0.00000000  0.00000000  0.83428100  1
loop_
_geom_bond_atom_site_label_1
_geom_bond_atom_site_label_2
_geom_bond_distance
_geom_bond_site_symmetry_2
Li0 Mg0 3.124341 1_655
Li0 Mg1 3.124341 1_555
Li0 Mg1 3.124341 1_655
Li0 Mg0 3.124341 1_555
Li0 Zr0 3.142921 1_655
Li0 Zr0 3.142921 1_555
Li0 Mg4 3.168991 1_555
Li0 Mg3 3.168991 1_555
Li0 Mg5 3.178476 1_565
Li0 Mg5 3.178476 1_555
Li0 Mg10 3.227123 1_554
Li0 Mg9 3.227123 1_554
Li1 Mg7 3.124341 1_545
Li1 Mg7 3.124341 1_645
Li1 Mg6 3.124341 1_655
Li1 Mg6 3.124341 1_555
Li1 Zr1 3.142921 1_555
Li1 Zr1 3.142921 1_655
Li1 Mg9 3.168991 1_545
Li1 Mg10 3.168991 1_555
Li1 Mg11 3.178476 1_555
Li1 Mg11 3.178476 1_545
Li1 Mg4 3.227123 1_545
Li1 Mg3 3.227123 1_555
Mg0 Mg1 3.120382 1_555
Mg0 Mg9 3.142629 1_554
Mg0 Mg9 3.142629 1_454
Mg0 Mg5 3.152303 1_465
Mg0 Mg5 3.152303 1_565
Mg0 Mg8 3.153862 1_554
Mg0 Zr1 3.195128 1_564
Mg0 Zr0 3.201324 1_555
Mg0 Mg1 3.236562 1_565
Mg0 Mg2 3.242223 1_565
Mg1 Mg10 3.142629 1_554
Mg1 Mg10 3.142629 1_454
Mg1 Mg5 3.152303 1_455
Mg1 Mg5 3.152303 1_555
Mg1 Mg8 3.153862 1_554
Mg1 Zr1 3.195128 1_554
Mg1 Zr0 3.201324 1_555
Mg1 Mg2 3.242223 1_555
Mg2 Mg4 3.136447 1_545
Mg2 Mg3 3.136447 1_455
Mg2 Mg4 3.136447 1_445
Mg2 Mg3 3.136447 1_555
Mg2 Mg7 3.153862 1_545
Mg2 Mg6 3.153862 1_555
Mg2 Mg5 3.154129 1_455
Mg2 Mg5 3.154129 1_555
Mg2 Zr0 3.178503 1_555
Mg2 Zr0 3.178503 1_545
Mg3 Zr0 3.114569 1_655
Mg3 Zr0 3.114569 1_555
Mg3 Mg4 3.127515 1_555
Mg3 Mg6 3.142629 1_655
Mg3 Mg6 3.142629 1_555
Mg3 Mg5 3.198640 1_555
Mg3 Mg4 3.229429 1_545
Mg4 Zr0 3.114569 1_655
Mg4 Zr0 3.114569 1_555
Mg4 Mg7 3.142629 1_655
Mg4 Mg7 3.142629 1_555
Mg4 Mg5 3.198640 1_565
Mg5 Mg9 3.197689 1_544
Mg6 Mg7 3.120382 1_545
Mg6 Zr0 3.195128 1_555
Mg6 Zr1 3.201324 1_555
Mg6 Mg7 3.236562 1_555
Mg6 Mg8 3.242223 1_555
Mg7 Zr0 3.195128 1_555
Mg7 Zr1 3.201324 1_565
Mg7 Mg8 3.242223 1_555
Mg8 Mg9 3.136447 1_455
Mg8 Mg9 3.136447 1_555
Mg8 Zr1 3.178503 1_555
Mg8 Zr1 3.178503 1_565
Mg9 Zr1 3.114569 1_565
Mg9 Zr1 3.114569 1_665
Mg10 Zr1 3.114569 1_555
Mg10 Zr1 3.114569 1_655
Mg10 Mg9 3.127515 1_545
Mg10 Mg8 3.136447 1_555
Mg10 Mg8 3.136447 1_655
Mg10 Mg5 3.197689 1_556
Mg10 Mg11 3.198640 1_555
Mg10 Mg9 3.229429 1_555
Mg11 Mg6 3.152303 1_555
Mg11 Mg6 3.152303 1_655
Mg11 Mg7 3.152303 1_555
Mg11 Mg7 3.152303 1_655
Mg11 Mg8 3.154129 1_655
Mg11 Mg8 3.154129 1_555
Mg11 Mg3 3.197689 1_555
Mg11 Mg4 3.197689 1_555
Mg11 Mg9 3.198640 1_555
