# generated using pymatgen
data_MgSi2
_symmetry_space_group_name_H-M   'P 1'
_cell_length_a   5.98239900
_cell_length_b   7.22654900
_cell_length_c   9.87002004
_cell_angle_alpha   81.46635365
_cell_angle_beta   90.00000000
_cell_angle_gamma   90.00000000
_symmetry_Int_Tables_number   1
_chemical_formula_structural   MgSi2
_chemical_formula_sum   'Mg8 Si16'
_cell_volume   421.97762884
_cell_formula_units_Z   8
loop_
 _symmetry_equiv_pos_site_id
 _symmetry_equiv_pos_as_xyz
  1  'x, y, z'
loop_
 _atom_site_type_symbol
 _atom_site_label
 _atom_site_symmetry_multiplicity
 _atom_site_fract_x
 _atom_site_fract_y
 _atom_site_fract_z
 _atom_site_occupancy
  Mg  Mg0  1  0.50000000  0.95623400  0.87472300  1
  Mg  Mg1  1  0.00000000  0.12616600  0.38423000  1
  Mg  Mg2  1  0.50000000  0.56266400  0.60146000  1
  Mg  Mg3  1  0.00000000  0.50273700  0.14464000  1
  Mg  Mg4  1  0.00000000  0.48270800  0.61238600  1
  Mg  Mg5  1  0.50000000  0.43820700  0.10847200  1
  Mg  Mg6  1  0.00000000  0.86863900  0.92763600  1
  Mg  Mg7  1  0.50000000  0.05979100  0.33260100  1
  Si  Si0  1  0.29210900  0.58875200  0.85258300  1
  Si  Si1  1  0.80084400  0.75583800  0.40233800  1
  Si  Si2  1  0.30115300  0.17840500  0.61035000  1
  Si  Si3  1  0.80238200  0.13941200  0.10019400  1
  Si  Si4  1  0.20227000  0.84365900  0.65349400  1
  Si  Si5  1  0.70508900  0.80717100  0.15261200  1
  Si  Si6  1  0.20165900  0.26005600  0.84186900  1
  Si  Si7  1  0.70645300  0.42523400  0.38000800  1
  Si  Si8  1  0.69884700  0.17840500  0.61035000  1
  Si  Si9  1  0.19761800  0.13941200  0.10019400  1
  Si  Si10  1  0.70789100  0.58875200  0.85258300  1
  Si  Si11  1  0.19915600  0.75583800  0.40233800  1
  Si  Si12  1  0.79834100  0.26005600  0.84186900  1
  Si  Si13  1  0.29354700  0.42523400  0.38000800  1
  Si  Si14  1  0.79773000  0.84365900  0.65349400  1
  Si  Si15  1  0.29491100  0.80717100  0.15261200  1
loop_
_geom_bond_atom_site_label_1
_geom_bond_atom_site_label_2
_geom_bond_distance
_geom_bond_site_symmetry_2
Mg0 Si6 2.810683 1_565
Mg0 Si12 2.810683 1_565
Mg0 Si0 2.969695 1_555
Mg0 Si10 2.969695 1_555
Mg0 Si4 3.021474 1_555
Mg0 Si14 3.021474 1_555
Mg0 Si5 3.051502 1_556
Mg0 Si15 3.051502 1_556
Mg0 Si2 3.091648 1_565
Mg0 Si8 3.091648 1_565
Mg1 Si13 2.780263 1_555
Mg1 Si7 2.780263 1_455
Mg1 Si1 2.910586 1_445
Mg1 Si11 2.910586 1_545
Mg1 Si8 2.935874 1_455
Mg1 Si2 2.935874 1_555
Mg1 Si3 3.030919 1_455
Mg1 Si9 3.030919 1_555
Mg2 Si10 2.804351 1_555
Mg2 Si0 2.804351 1_555
Mg2 Si4 2.805202 1_555
Mg2 Si14 2.805202 1_555
Mg2 Si13 2.816637 1_555
Mg2 Si7 2.816637 1_555
Mg2 Si1 2.869886 1_555
Mg2 Si11 2.869886 1_555
Mg2 Si8 3.010229 1_555
Mg2 Si2 3.010229 1_555
Mg2 Mg4 3.045369 1_555
Mg2 Mg4 3.045369 1_655
Mg3 Si15 2.830241 1_555
Mg3 Si5 2.830241 1_455
Mg3 Si7 2.899693 1_455
Mg3 Si13 2.899693 1_555
Mg3 Si3 2.970798 1_455
Mg3 Si9 2.970798 1_555
Mg4 Si12 2.844812 1_455
Mg4 Si6 2.844812 1_555
Mg4 Si2 2.845208 1_555
Mg4 Si8 2.845208 1_455
Mg4 Si1 2.898100 1_455
Mg4 Si11 2.898100 1_555
Mg4 Si4 2.957510 1_555
Mg4 Si14 2.957510 1_455
Mg4 Si7 2.966421 1_455
Mg4 Si13 2.966421 1_555
Mg4 Si0 3.130607 1_555
Mg4 Si10 3.130607 1_455
Mg5 Si9 2.827330 1_555
Mg5 Si3 2.827330 1_555
Mg5 Si10 2.879874 1_554
Mg5 Si0 2.879874 1_554
Mg5 Si13 2.939797 1_555
Mg5 Si7 2.939797 1_555
Mg5 Si5 3.024771 1_555
Mg5 Si15 3.024771 1_555
Mg6 Si15 2.819211 1_556
Mg6 Si5 2.819211 1_456
Mg6 Si10 2.852752 1_455
Mg6 Si0 2.852752 1_555
Mg6 Si4 2.993840 1_555
Mg6 Si14 2.993840 1_455
Mg6 Si9 3.019328 1_566
Mg6 Si3 3.019328 1_466
Mg6 Si12 3.076089 1_465
Mg6 Si6 3.076089 1_565
Mg7 Si1 2.844114 1_545
Mg7 Si11 2.844114 1_545
Mg7 Si9 2.910934 1_555
Mg7 Si3 2.910934 1_555
Mg7 Si5 2.992738 1_545
Mg7 Si15 2.992738 1_545
Mg7 Si13 3.014201 1_555
Mg7 Si7 3.014201 1_555
Mg7 Si8 3.219074 1_555
Mg7 Si2 3.219074 1_555
Si0 Si6 2.453723 1_555
Si0 Si10 2.487374 1_555
Si0 Si4 2.543459 1_555
Si1 Si11 2.382861 1_655
Si1 Si7 2.496325 1_555
Si1 Si5 2.503926 1_555
Si1 Si14 2.648592 1_555
Si2 Si8 2.379164 1_555
Si2 Si4 2.465238 1_545
Si2 Si6 2.514810 1_555
Si3 Si9 2.364459 1_655
Si3 Si5 2.449976 1_545
Si6 Si9 2.569398 1_556
Si7 Si8 2.673748 1_555
Si10 Si12 2.453723 1_555
Si10 Si14 2.543459 1_555
Si11 Si13 2.496325 1_555
Si11 Si15 2.503926 1_555
Si11 Si4 2.648592 1_555
Si12 Si6 2.412809 1_655
Si12 Si8 2.514810 1_555
Si12 Si3 2.569398 1_556
Si13 Si7 2.470168 1_555
Si13 Si2 2.673748 1_555
Si14 Si4 2.420120 1_655
Si14 Si8 2.465238 1_565
Si15 Si9 2.449976 1_565
Si15 Si5 2.453848 1_555
