# generated using pymatgen
data_K2Ca2(SO4)3
_symmetry_space_group_name_H-M   'P 1'
_cell_length_a   10.64135000
_cell_length_b   10.64135000
_cell_length_c   10.64135000
_cell_angle_alpha   90.00000000
_cell_angle_beta   90.00000000
_cell_angle_gamma   90.00000000
_symmetry_Int_Tables_number   1
_chemical_formula_structural   K2Ca2(SO4)3
_chemical_formula_sum   'K8 Ca8 S12 O48'
_cell_volume   1205.00870106
_cell_formula_units_Z   4
loop_
 _symmetry_equiv_pos_site_id
 _symmetry_equiv_pos_as_xyz
  1  'x, y, z'
loop_
 _atom_site_type_symbol
 _atom_site_label
 _atom_site_symmetry_multiplicity
 _atom_site_fract_x
 _atom_site_fract_y
 _atom_site_fract_z
 _atom_site_occupancy
  K  K0  1  0.68552700  0.18552700  0.31447300  1
  K  K1  1  0.31447300  0.68552700  0.18552700  1
  K  K2  1  0.94450700  0.55549300  0.44450700  1
  K  K3  1  0.18552700  0.31447300  0.68552700  1
  K  K4  1  0.05549300  0.05549300  0.05549300  1
  K  K5  1  0.44450700  0.94450700  0.55549300  1
  K  K6  1  0.55549300  0.44450700  0.94450700  1
  K  K7  1  0.81447300  0.81447300  0.81447300  1
  Ca  Ca0  1  0.32930500  0.32930500  0.32930500  1
  Ca  Ca1  1  0.17069500  0.67069500  0.82930500  1
  Ca  Ca2  1  0.82930500  0.17069500  0.67069500  1
  Ca  Ca3  1  0.67069500  0.82930500  0.17069500  1
  Ca  Ca4  1  0.58905100  0.58905100  0.58905100  1
  Ca  Ca5  1  0.08905100  0.91094900  0.41094900  1
  Ca  Ca6  1  0.41094900  0.08905100  0.91094900  1
  Ca  Ca7  1  0.91094900  0.41094900  0.08905100  1
  S  S0  1  0.27139200  0.62553200  0.50876100  1
  S  S1  1  0.77139200  0.87446800  0.49123900  1
  S  S2  1  0.72860800  0.12553200  0.99123900  1
  S  S3  1  0.87446800  0.49123900  0.77139200  1
  S  S4  1  0.99123900  0.72860800  0.12553200  1
  S  S5  1  0.49123900  0.77139200  0.87446800  1
  S  S6  1  0.62553200  0.50876100  0.27139200  1
  S  S7  1  0.50876100  0.27139200  0.62553200  1
  S  S8  1  0.12553200  0.99123900  0.72860800  1
  S  S9  1  0.22860800  0.37446800  0.00876100  1
  S  S10  1  0.00876100  0.22860800  0.37446800  1
  S  S11  1  0.37446800  0.00876100  0.22860800  1
  O  O0  1  0.23212100  0.57851900  0.63479600  1
  O  O1  1  0.73212100  0.92148100  0.36520400  1
  O  O2  1  0.76787900  0.07851900  0.86520400  1
  O  O3  1  0.92148100  0.36520400  0.73212100  1
  O  O4  1  0.86520400  0.76787900  0.07851900  1
  O  O5  1  0.36520400  0.73212100  0.92148100  1
  O  O6  1  0.57851900  0.63479600  0.23212100  1
  O  O7  1  0.63479600  0.23212100  0.57851900  1
  O  O8  1  0.07851900  0.86520400  0.76787900  1
  O  O9  1  0.42148100  0.13479600  0.26787900  1
  O  O10  1  0.13479600  0.26787900  0.42148100  1
  O  O11  1  0.26787900  0.42148100  0.13479600  1
  O  O12  1  0.27397600  0.51994900  0.41754500  1
  O  O13  1  0.77397600  0.98005100  0.58245500  1
  O  O14  1  0.72602400  0.01994900  0.08245500  1
  O  O15  1  0.98005100  0.58245500  0.77397600  1
  O  O16  1  0.08245500  0.72602400  0.01994900  1
  O  O17  1  0.58245500  0.77397600  0.98005100  1
  O  O18  1  0.98310200  0.60127200  0.18385000  1
  O  O19  1  0.51994900  0.41754500  0.27397600  1
  O  O20  1  0.01994900  0.08245500  0.72602400  1
  O  O21  1  0.48005100  0.91754500  0.22602400  1
  O  O22  1  0.91754500  0.22602400  0.48005100  1
  O  O23  1  0.22602400  0.48005100  0.91754500  1
  O  O24  1  0.39872800  0.68385000  0.51689800  1
  O  O25  1  0.89872800  0.81615000  0.48310200  1
  O  O26  1  0.60127200  0.18385000  0.98310200  1
  O  O27  1  0.81615000  0.48310200  0.89872800  1
  O  O28  1  0.32126200  0.28069000  0.96252100  1
  O  O29  1  0.96252100  0.32126200  0.28069000  1
  O  O30  1  0.28069000  0.96252100  0.32126200  1
  O  O31  1  0.21931000  0.03747900  0.82126200  1
  O  O32  1  0.46252100  0.17873800  0.71931000  1
  O  O33  1  0.71931000  0.46252100  0.17873800  1
  O  O34  1  0.53747900  0.67873800  0.78069000  1
  O  O35  1  0.03747900  0.82126200  0.21931000  1
  O  O36  1  0.78069000  0.53747900  0.67873800  1
  O  O37  1  0.82126200  0.21931000  0.03747900  1
  O  O38  1  0.67873800  0.78069000  0.53747900  1
  O  O39  1  0.17873800  0.71931000  0.46252100  1
  O  O40  1  0.10127200  0.31615000  0.01689800  1
  O  O41  1  0.01689800  0.10127200  0.31615000  1
  O  O42  1  0.31615000  0.01689800  0.10127200  1
  O  O43  1  0.18385000  0.98310200  0.60127200  1
  O  O44  1  0.51689800  0.39872800  0.68385000  1
  O  O45  1  0.68385000  0.51689800  0.39872800  1
  O  O46  1  0.48310200  0.89872800  0.81615000  1
  O  O47  1  0.41754500  0.27397600  0.51994900  1
loop_
_geom_bond_atom_site_label_1
_geom_bond_atom_site_label_2
_geom_bond_distance
_geom_bond_site_symmetry_2
K0 O9 2.903839 1_555
K0 O1 2.903839 1_545
K0 O7 2.903839 1_555
K0 O19 3.063682 1_555
K0 O14 3.063682 1_555
K0 O22 3.063682 1_555
K0 O29 3.302094 1_555
K0 O33 3.302094 1_555
K0 O37 3.302094 1_555
K1 O5 2.903839 1_554
K1 O11 2.903839 1_555
K1 O6 2.903839 1_555
K1 O16 3.063682 1_555
K1 O12 3.063682 1_555
K1 O21 3.063682 1_555
K1 O30 3.302094 1_555
K1 O39 3.302094 1_555
K1 O35 3.302094 1_555
K2 O18 2.845986 1_555
K2 O25 2.845986 1_555
K2 O45 2.845986 1_555
K2 O36 3.047677 1_555
K2 O29 3.047677 1_555
K2 O39 3.047677 1_655
K3 O3 2.903839 1_455
K3 O10 2.903839 1_555
K3 O0 2.903839 1_555
K3 O47 3.063682 1_555
K3 O20 3.063682 1_555
K3 O23 3.063682 1_555
K3 O28 3.302094 1_555
K3 O32 3.302094 1_555
K3 O31 3.302094 1_555
K4 O40 2.845986 1_555
K4 O41 2.845986 1_555
K4 O42 2.845986 1_555
K4 O35 3.047677 1_545
K4 O37 3.047677 1_455
K4 O31 3.047677 1_554
K5 O43 2.845986 1_555
K5 O46 2.845986 1_555
K5 O24 2.845986 1_555
K5 O30 3.047677 1_555
K5 O38 3.047677 1_555
K5 O32 3.047677 1_565
K6 O26 2.845986 1_555
K6 O27 2.845986 1_555
K6 O44 2.845986 1_555
K6 O34 3.047677 1_555
K6 O28 3.047677 1_555
K6 O33 3.047677 1_556
K7 O4 2.903839 1_556
K7 O8 2.903839 1_655
K7 O2 2.903839 1_565
K7 O13 3.063682 1_555
K7 O17 3.063682 1_555
K7 O15 3.063682 1_555
K7 O36 3.302094 1_555
K7 O34 3.302094 1_555
K7 O38 3.302094 1_555
Ca0 O12 2.311715 1_555
Ca0 O47 2.311715 1_555
Ca0 O19 2.311715 1_555
Ca0 O10 2.381935 1_555
Ca0 O11 2.381935 1_555
Ca0 O9 2.381935 1_555
Ca1 O15 2.311715 1_455
Ca1 O16 2.311715 1_556
Ca1 O23 2.311715 1_555
Ca1 O0 2.381935 1_555
Ca1 O5 2.381935 1_555
Ca1 O8 2.381935 1_555
Ca2 O13 2.311715 1_545
Ca2 O20 2.311715 1_655
Ca2 O22 2.311715 1_555
Ca2 O7 2.381935 1_555
Ca2 O2 2.381935 1_555
Ca2 O3 2.381935 1_555
Ca3 O17 2.311715 1_554
Ca3 O14 2.311715 1_565
Ca3 O21 2.311715 1_555
Ca3 O4 2.381935 1_555
Ca3 O1 2.381935 1_555
Ca3 O6 2.381935 1_555
Ca4 O36 2.317493 1_555
Ca4 O34 2.317493 1_555
Ca4 O38 2.317493 1_555
Ca4 O45 2.389350 1_555
Ca4 O24 2.389350 1_555
Ca4 O44 2.389350 1_555
Ca5 O35 2.317493 1_555
Ca5 O30 2.317493 1_555
Ca5 O39 2.317493 1_555
Ca5 O25 2.389350 1_455
Ca5 O41 2.389350 1_565
Ca5 O43 2.389350 1_555
Ca6 O31 2.317493 1_555
Ca6 O28 2.317493 1_555
Ca6 O32 2.317493 1_555
Ca6 O46 2.389350 1_545
Ca6 O26 2.389350 1_555
Ca6 O42 2.389350 1_556
Ca7 O33 2.317493 1_555
Ca7 O37 2.317493 1_555
Ca7 O29 2.317493 1_555
Ca7 O27 2.389350 1_554
Ca7 O40 2.389350 1_655
Ca7 O18 2.389350 1_555
O0 S0 1.491204 1_555
O1 S1 1.491204 1_555
O2 S2 1.491204 1_555
O3 S3 1.491204 1_555
O4 S4 1.491204 1_555
O5 S5 1.491204 1_555
O6 S6 1.491204 1_555
O7 S7 1.491204 1_555
O8 S8 1.491204 1_555
O9 S11 1.491204 1_555
O10 S10 1.491204 1_555
O11 S9 1.491204 1_555
O12 S0 1.485023 1_555
O13 S1 1.485023 1_555
O14 S2 1.485023 1_554
O15 S3 1.485023 1_555
O16 S4 1.485023 1_455
O17 S5 1.485023 1_555
O18 S4 1.492889 1_555
O19 S6 1.485023 1_555
O20 S8 1.485023 1_545
O21 S11 1.485023 1_565
O22 S10 1.485023 1_655
O23 S9 1.485023 1_556
O24 S0 1.492889 1_555
O25 S1 1.492889 1_555
O26 S2 1.492889 1_555
O27 S3 1.492889 1_555
O28 S9 1.486639 1_556
O29 S10 1.486639 1_655
O30 S11 1.486639 1_565
O31 S8 1.486639 1_545
O32 S7 1.486639 1_555
O33 S6 1.486639 1_555
O34 S5 1.486639 1_555
O35 S4 1.486639 1_455
O36 S3 1.486639 1_555
O37 S2 1.486639 1_554
O38 S1 1.486639 1_555
O39 S0 1.486639 1_555
O40 S9 1.492889 1_555
O41 S10 1.492889 1_555
O42 S11 1.492889 1_555
O43 S8 1.492889 1_555
O44 S7 1.492889 1_555
O45 S6 1.492889 1_555
O46 S5 1.492889 1_555
O47 S7 1.485023 1_555
