# generated using pymatgen
data_KBaY(BO2)6
_symmetry_space_group_name_H-M   'P 1'
_cell_length_a   7.29688270
_cell_length_b   7.29688270
_cell_length_c   7.29688269
_cell_angle_alpha   59.51206025
_cell_angle_beta   59.51206025
_cell_angle_gamma   59.51205395
_symmetry_Int_Tables_number   1
_chemical_formula_structural   KBaY(BO2)6
_chemical_formula_sum   'K1 Ba1 Y1 B6 O12'
_cell_volume   271.67589158
_cell_formula_units_Z   1
loop_
 _symmetry_equiv_pos_site_id
 _symmetry_equiv_pos_as_xyz
  1  'x, y, z'
loop_
 _atom_site_type_symbol
 _atom_site_label
 _atom_site_symmetry_multiplicity
 _atom_site_fract_x
 _atom_site_fract_y
 _atom_site_fract_z
 _atom_site_occupancy
  K  K0  1  0.78890500  0.78890500  0.78890500  1
  Ba  Ba0  1  0.20808200  0.20808200  0.20808200  1
  Y  Y0  1  0.99882300  0.99882300  0.99882300  1
  B  B0  1  0.63367700  0.75269700  0.36693300  1
  B  B1  1  0.36693300  0.63367700  0.75269700  1
  B  B2  1  0.75269700  0.36693300  0.63367700  1
  B  B3  1  0.36691200  0.24782600  0.63317000  1
  B  B4  1  0.63317000  0.36691200  0.24782600  1
  B  B5  1  0.24782600  0.63317000  0.36691200  1
  O  O0  1  0.17079000  0.67341100  0.91778400  1
  O  O1  1  0.91778400  0.17079000  0.67341100  1
  O  O2  1  0.67341100  0.91778400  0.17079000  1
  O  O3  1  0.83483300  0.31817500  0.09029300  1
  O  O4  1  0.09029300  0.83483300  0.31817500  1
  O  O5  1  0.31817500  0.09029300  0.83483300  1
  O  O6  1  0.79426000  0.53563000  0.41878600  1
  O  O7  1  0.41878600  0.79426000  0.53563000  1
  O  O8  1  0.53563000  0.41878600  0.79426000  1
  O  O9  1  0.20501500  0.46455400  0.57944400  1
  O  O10  1  0.57944400  0.20501500  0.46455400  1
  O  O11  1  0.46455400  0.57944400  0.20501500  1
loop_
_geom_bond_atom_site_label_1
_geom_bond_atom_site_label_2
_geom_bond_distance
_geom_bond_site_symmetry_2
K0 O5 2.943087 1_565
K0 O3 2.943087 1_556
K0 O4 2.943087 1_655
K0 O9 2.970922 1_655
K0 O10 2.970922 1_565
K0 O11 2.970922 1_556
K0 O0 2.971792 1_655
K0 O2 2.971792 1_556
K0 O1 2.971792 1_565
Ba0 O3 2.873395 1_455
Ba0 O5 2.873395 1_554
Ba0 O4 2.873395 1_545
Ba0 O2 2.905036 1_545
Ba0 O0 2.905036 1_554
Ba0 O1 2.905036 1_455
Ba0 O6 2.981433 1_455
Ba0 O7 2.981433 1_545
Ba0 O8 2.981433 1_554
B0 O2 1.329462 1_555
B0 O6 1.408347 1_555
B0 O7 1.415505 1_555
B1 O0 1.329462 1_555
B1 O7 1.408347 1_555
B1 O8 1.415505 1_555
B2 O1 1.329462 1_555
B2 O8 1.408347 1_555
B2 O6 1.415505 1_555
B3 O5 1.334382 1_555
B3 O10 1.406665 1_555
B3 O9 1.412565 1_555
B4 O3 1.334382 1_555
B4 O11 1.406665 1_555
B4 O10 1.412565 1_555
B5 O4 1.334382 1_555
B5 O9 1.406665 1_555
B5 O11 1.412565 1_555
O0 Y0 2.282740 1_455
O1 Y0 2.282740 1_545
O2 Y0 2.282740 1_554
O3 Y0 2.290386 1_544
O4 Y0 2.290386 1_454
O5 Y0 2.290386 1_445
