# generated using pymatgen
data_Te2Mo2SeS
_symmetry_space_group_name_H-M   'P 1'
_cell_length_a   3.39912423
_cell_length_b   3.39912423
_cell_length_c   40.00886200
_cell_angle_alpha   90.00000000
_cell_angle_beta   90.00000000
_cell_angle_gamma   120.00000447
_symmetry_Int_Tables_number   1
_chemical_formula_structural   Te2Mo2SeS
_chemical_formula_sum   'Te4 Mo4 Se2 S2'
_cell_volume   400.33253380
_cell_formula_units_Z   2
loop_
 _symmetry_equiv_pos_site_id
 _symmetry_equiv_pos_as_xyz
  1  'x, y, z'
loop_
 _atom_site_type_symbol
 _atom_site_label
 _atom_site_symmetry_multiplicity
 _atom_site_fract_x
 _atom_site_fract_y
 _atom_site_fract_z
 _atom_site_occupancy
  Te  Te0  1  0.00000000  0.00000000  0.32748700  1
  Te  Te1  1  0.33333300  0.66666700  0.42368700  1
  Te  Te2  1  0.33333300  0.66666700  0.51734400  1
  Te  Te3  1  0.00000000  0.00000000  0.23368800  1
  Mo  Mo0  1  0.00000000  0.00000000  0.09388000  1
  Mo  Mo1  1  0.00000000  0.00000000  0.47051200  1
  Mo  Mo2  1  0.33333300  0.66666700  0.28060300  1
  Mo  Mo3  1  0.33333300  0.66666700  0.65794300  1
  Se  Se0  1  0.00000000  0.00000000  0.69913600  1
  Se  Se1  1  0.00000000  0.00000000  0.61674500  1
  S  S0  1  0.33333300  0.66666700  0.05630000  1
  S  S1  1  0.33333300  0.66666700  0.13142200  1
loop_
_geom_bond_atom_site_label_1
_geom_bond_atom_site_label_2
_geom_bond_distance
_geom_bond_site_symmetry_2
Mo0 S1 2.471312 1_545
Mo0 S1 2.471314 1_555
Mo0 S1 2.471314 1_445
Mo0 S0 2.472236 1_545
Mo0 S0 2.472239 1_555
Mo0 S0 2.472239 1_445
Mo1 Te1 2.713121 1_545
Mo1 Te1 2.713123 1_445
Mo1 Te1 2.713123 1_555
Mo1 Te2 2.713314 1_545
Mo1 Te2 2.713316 1_555
Mo1 Te2 2.713316 1_445
Mo2 Te0 2.714751 1_565
Mo2 Te0 2.714753 1_555
Mo2 Te0 2.714753 1_665
Mo2 Te3 2.715608 1_565
Mo2 Te3 2.715610 1_665
Mo2 Te3 2.715610 1_555
Mo3 Se0 2.562718 1_565
Mo3 Se0 2.562720 1_555
Mo3 Se0 2.562720 1_665
Mo3 Se1 2.562847 1_565
Mo3 Se1 2.562849 1_665
Mo3 Se1 2.562849 1_555
