# generated using pymatgen
data_SiSbPt5
_symmetry_space_group_name_H-M   'P 1'
_cell_length_a   3.93242956
_cell_length_b   3.93242956
_cell_length_c   7.52182402
_cell_angle_alpha   90.00000000
_cell_angle_beta   90.00000000
_cell_angle_gamma   90.00000000
_symmetry_Int_Tables_number   1
_chemical_formula_structural   SiSbPt5
_chemical_formula_sum   'Si1 Sb1 Pt5'
_cell_volume   116.31750353
_cell_formula_units_Z   1
loop_
 _symmetry_equiv_pos_site_id
 _symmetry_equiv_pos_as_xyz
  1  'x, y, z'
loop_
 _atom_site_type_symbol
 _atom_site_label
 _atom_site_symmetry_multiplicity
 _atom_site_fract_x
 _atom_site_fract_y
 _atom_site_fract_z
 _atom_site_occupancy
  Si  Si0  1  0.50000000  0.50000000  0.00000000  1
  Sb  Sb0  1  -0.00000000  0.00000000  0.50000000  1
  Pt  Pt0  1  -0.00000000  0.00000000  0.00000000  1
  Pt  Pt1  1  0.50000000  0.00000000  0.74882341  1
  Pt  Pt2  1  -0.00000000  0.50000000  0.74882341  1
  Pt  Pt3  1  0.50000000  0.00000000  0.25117659  1
  Pt  Pt4  1  -0.00000000  0.50000000  0.25117659  1
loop_
_geom_bond_atom_site_label_1
_geom_bond_atom_site_label_2
_geom_bond_distance
_geom_bond_site_symmetry_2
Pt0 Pt3 2.726807 1_455
Pt0 Pt4 2.726807 1_555
Pt0 Pt4 2.726807 1_545
Pt0 Pt3 2.726807 1_555
Pt0 Pt2 2.726807 1_554
Pt0 Pt1 2.726807 1_554
Pt0 Pt1 2.726807 1_454
Pt0 Pt2 2.726807 1_544
Pt0 Si0 2.780648 1_455
Pt0 Si0 2.780648 1_555
Pt0 Si0 2.780648 1_545
Pt0 Si0 2.780648 1_445
Pt1 Sb0 2.714573 1_655
Pt1 Sb0 2.714573 1_555
Pt1 Si0 2.726807 1_546
Pt1 Si0 2.726807 1_556
Pt1 Pt2 2.780648 1_545
Pt1 Pt2 2.780648 1_655
Pt1 Pt2 2.780648 1_555
Pt1 Pt2 2.780648 1_645
Pt2 Sb0 2.714573 1_565
Pt2 Sb0 2.714573 1_555
Pt2 Si0 2.726807 1_456
Pt2 Si0 2.726807 1_556
Pt3 Sb0 2.714573 1_555
Pt3 Sb0 2.714573 1_655
Pt3 Si0 2.726807 1_555
Pt3 Si0 2.726807 1_545
Pt3 Pt4 2.780648 1_545
Pt3 Pt4 2.780648 1_645
Pt3 Pt4 2.780648 1_555
Pt3 Pt4 2.780648 1_655
Pt4 Sb0 2.714573 1_565
Pt4 Sb0 2.714573 1_555
Pt4 Si0 2.726807 1_455
Pt4 Si0 2.726807 1_555
