# generated using pymatgen
data_B8P
_symmetry_space_group_name_H-M   'P 1'
_cell_length_a   5.25271023
_cell_length_b   5.25271023
_cell_length_c   10.20490467
_cell_angle_alpha   71.15034372
_cell_angle_beta   71.15034372
_cell_angle_gamma   68.59484944
_symmetry_Int_Tables_number   1
_chemical_formula_structural   B8P
_chemical_formula_sum   'B24 P3'
_cell_volume   241.26319388
_cell_formula_units_Z   3
loop_
 _symmetry_equiv_pos_site_id
 _symmetry_equiv_pos_as_xyz
  1  'x, y, z'
loop_
 _atom_site_type_symbol
 _atom_site_label
 _atom_site_symmetry_multiplicity
 _atom_site_fract_x
 _atom_site_fract_y
 _atom_site_fract_z
 _atom_site_occupancy
  B  B0  1  0.80586300  0.27642300  0.90382300  1
  B  B1  1  0.30664700  0.77810300  0.41092100  1
  B  B2  1  0.54366400  0.54366400  0.64665500  1
  B  B3  1  0.04009400  0.04009400  0.14021200  1
  B  B4  1  0.27642300  0.80586300  0.90382300  1
  B  B5  1  0.77810300  0.30664700  0.41092100  1
  B  B6  1  0.69792700  0.22772100  0.59539900  1
  B  B7  1  0.18958600  0.72114900  0.08947600  1
  B  B8  1  0.96222600  0.96222600  0.85074300  1
  B  B9  1  0.45545700  0.45545700  0.36140900  1
  B  B10  1  0.22772100  0.69792700  0.59539900  1
  B  B11  1  0.72114900  0.18958600  0.08947600  1
  B  B12  1  0.33044300  0.01561600  0.99227300  1
  B  B13  1  0.83362800  0.51778700  0.49701600  1
  B  B14  1  0.17378500  0.17378500  0.83658200  1
  B  B15  1  0.67459000  0.67459000  0.33635900  1
  B  B16  1  0.01561600  0.33044300  0.99227300  1
  B  B17  1  0.51778700  0.83362800  0.49701600  1
  B  B18  1  0.16432900  0.48776500  0.51201300  1
  B  B19  1  0.66686700  0.98058200  0.99876200  1
  B  B20  1  0.32679300  0.32679300  0.66803300  1
  B  B21  1  0.82287200  0.82287200  0.16050200  1
  B  B22  1  0.48776500  0.16432900  0.51201300  1
  B  B23  1  0.98058200  0.66686700  0.99876200  1
  P  P0  1  0.38924800  0.38924800  0.20300400  1
  P  P1  1  0.61220800  0.61220800  0.79752300  1
  P  P2  1  0.10747600  0.10747600  0.29666400  1
loop_
_geom_bond_atom_site_label_1
_geom_bond_atom_site_label_2
_geom_bond_distance
_geom_bond_site_symmetry_2
B0 B8 1.729895 1_545
B0 B11 1.743691 1_556
B0 B14 1.765797 1_655
B0 B16 1.773541 1_655
B0 B19 1.812387 1_545
B0 P1 1.868022 1_555
B1 B10 1.733250 1_555
B1 B9 1.752052 1_555
B1 B17 1.765874 1_555
B1 B15 1.777629 1_555
B1 B18 1.807242 1_555
B1 P2 1.900218 1_565
B2 B6 1.729103 1_555
B2 B20 1.808038 1_555
B2 P1 1.854885 1_555
B3 B7 1.740385 1_545
B3 P2 1.902980 1_555
B4 B8 1.729895 1_455
B4 B7 1.743691 1_556
B4 P1 1.868022 1_555
B5 B6 1.733250 1_555
B5 B9 1.752052 1_555
B5 P2 1.900218 1_655
B7 P0 1.904447 1_555
B9 P0 1.915676 1_555
B10 B2 1.729103 1_555
B10 B18 1.764092 1_555
B10 B17 1.783080 1_555
B10 B20 1.787640 1_555
B11 B3 1.740385 1_655
B11 B21 1.765812 1_545
B11 B19 1.788648 1_544
B11 B16 1.814797 1_654
B11 P0 1.904447 1_555
B12 B19 1.729566 1_545
B12 B3 1.765283 1_556
B12 B4 1.773541 1_545
B12 B7 1.814797 1_546
B12 B14 1.839712 1_555
B12 B16 1.863678 1_555
B13 B18 1.738380 1_655
B13 B5 1.765874 1_555
B13 B2 1.774908 1_555
B13 B6 1.783080 1_555
B13 B17 1.869680 1_555
B13 B15 1.890604 1_555
B14 B20 1.713282 1_555
B14 B4 1.765797 1_545
B14 B8 1.784520 1_445
B14 B16 1.839712 1_555
B15 B21 1.752230 1_555
B15 B5 1.777629 1_555
B15 B9 1.817127 1_555
B15 B17 1.890604 1_555
B16 B23 1.729566 1_455
B16 B3 1.765283 1_556
B17 B22 1.738380 1_565
B17 B2 1.774908 1_555
B18 B9 1.785999 1_555
B18 B20 1.859992 1_555
B18 B22 1.914640 1_555
B19 B8 1.780043 1_555
B19 B23 1.857095 1_555
B19 B21 1.891293 1_556
B20 B6 1.787640 1_555
B20 B22 1.859992 1_555
B21 B7 1.765812 1_655
B21 B3 1.814280 1_665
B21 B23 1.891293 1_554
B22 B6 1.764092 1_555
B22 B9 1.785999 1_555
B22 B5 1.807242 1_555
B23 B8 1.780043 1_555
B23 B7 1.788648 1_656
B23 B4 1.812387 1_655
P0 P2 2.250667 1_555
