# generated using pymatgen
data_KMg6Fe
_symmetry_space_group_name_H-M   'P 1'
_cell_length_a   4.97775300
_cell_length_b   6.72747700
_cell_length_c   11.20766000
_cell_angle_alpha   90.00000000
_cell_angle_beta   90.00000000
_cell_angle_gamma   90.00000000
_symmetry_Int_Tables_number   1
_chemical_formula_structural   KMg6Fe
_chemical_formula_sum   'K2 Mg12 Fe2'
_cell_volume   375.31896670
_cell_formula_units_Z   2
loop_
 _symmetry_equiv_pos_site_id
 _symmetry_equiv_pos_as_xyz
  1  'x, y, z'
loop_
 _atom_site_type_symbol
 _atom_site_label
 _atom_site_symmetry_multiplicity
 _atom_site_fract_x
 _atom_site_fract_y
 _atom_site_fract_z
 _atom_site_occupancy
  K  K0  1  0.50000000  0.50000000  0.15587500  1
  K  K1  1  0.50000000  0.00000000  0.65587500  1
  Mg  Mg0  1  0.00000000  0.21953600  0.07381300  1
  Mg  Mg1  1  0.00000000  0.78046400  0.07381300  1
  Mg  Mg2  1  0.00000000  0.50000000  0.84182600  1
  Mg  Mg3  1  0.50000000  0.21873800  0.90347200  1
  Mg  Mg4  1  0.50000000  0.78126200  0.90347200  1
  Mg  Mg5  1  0.50000000  0.50000000  0.66920600  1
  Mg  Mg6  1  0.00000000  0.71953600  0.57381300  1
  Mg  Mg7  1  0.00000000  0.28046400  0.57381300  1
  Mg  Mg8  1  0.00000000  0.00000000  0.34182600  1
  Mg  Mg9  1  0.50000000  0.71873800  0.40347200  1
  Mg  Mg10  1  0.50000000  0.28126200  0.40347200  1
  Mg  Mg11  1  0.50000000  0.00000000  0.16920600  1
  Fe  Fe0  1  0.00000000  0.50000000  0.37852300  1
  Fe  Fe1  1  0.00000000  0.00000000  0.87852300  1
loop_
_geom_bond_atom_site_label_1
_geom_bond_atom_site_label_2
_geom_bond_distance
_geom_bond_site_symmetry_2
K0 Mg9 3.141020 1_555
K0 Mg10 3.141020 1_555
K0 Mg0 3.255836 1_655
K0 Mg0 3.255836 1_555
K0 Mg1 3.255836 1_655
K0 Mg1 3.255836 1_555
K0 Mg11 3.367055 1_555
K0 Mg11 3.367055 1_565
K0 Mg3 3.403342 1_554
K0 Mg4 3.403342 1_554
K1 Mg3 3.141020 1_555
K1 Mg4 3.141020 1_545
K1 Mg7 3.255836 1_555
K1 Mg7 3.255836 1_655
K1 Mg6 3.255836 1_645
K1 Mg6 3.255836 1_545
K1 Mg5 3.367055 1_545
K1 Mg5 3.367055 1_555
K1 Mg9 3.403342 1_545
K1 Mg10 3.403342 1_555
Mg0 Mg11 3.085264 1_455
Mg0 Mg11 3.085264 1_555
Mg0 Mg3 3.136764 1_454
Mg0 Mg3 3.136764 1_554
Mg0 Mg2 3.212512 1_554
Mg0 Mg8 3.347254 1_555
Mg1 Mg11 3.085264 1_565
Mg1 Mg11 3.085264 1_465
Mg1 Mg4 3.136764 1_554
Mg1 Mg4 3.136764 1_454
Mg1 Mg2 3.212512 1_554
Mg1 Mg8 3.347254 1_565
Mg2 Mg5 3.152371 1_555
Mg2 Mg5 3.152371 1_455
Mg2 Mg3 3.201909 1_455
Mg2 Mg4 3.201909 1_455
Mg2 Mg3 3.201909 1_555
Mg2 Mg4 3.201909 1_555
Mg2 Mg6 3.347254 1_555
Mg2 Mg7 3.347254 1_555
Mg3 Mg4 2.943110 1_545
Mg3 Mg5 3.236355 1_555
Mg4 Mg5 3.236355 1_555
Mg5 Mg6 3.085264 1_555
Mg5 Mg6 3.085264 1_655
Mg5 Mg7 3.085264 1_655
Mg5 Mg7 3.085264 1_555
Mg5 Mg9 3.321970 1_555
Mg6 Mg9 3.136764 1_455
Mg6 Mg9 3.136764 1_555
Mg6 Mg8 3.212512 1_565
Mg7 Mg8 3.212512 1_555
Mg8 Mg9 3.201909 1_445
Mg8 Mg9 3.201909 1_545
Mg10 Mg9 2.943110 1_555
Mg10 Mg7 3.136764 1_655
Mg10 Mg7 3.136764 1_555
Mg10 Mg8 3.201909 1_555
Mg10 Mg8 3.201909 1_655
Mg10 Mg11 3.236355 1_555
Mg10 Mg5 3.321970 1_555
Mg11 Mg8 3.152371 1_555
Mg11 Mg8 3.152371 1_655
Mg11 Mg9 3.236355 1_545
Mg11 Mg4 3.321970 1_544
Mg11 Mg3 3.321970 1_554
Fe0 Mg6 2.640436 1_555
Fe0 Mg7 2.640436 1_555
Fe0 Mg9 2.904852 1_555
Fe0 Mg10 2.904852 1_455
Fe0 Mg10 2.904852 1_555
Fe0 Mg9 2.904852 1_455
Fe0 Mg8 3.388789 1_565
Fe0 Mg8 3.388789 1_555
Fe0 K0 3.524393 1_555
Fe0 K0 3.524393 1_455
Fe1 Mg0 2.640436 1_556
Fe1 Mg1 2.640436 1_546
Fe1 Mg3 2.904852 1_455
Fe1 Mg4 2.904852 1_445
Fe1 Mg3 2.904852 1_555
Fe1 Mg4 2.904852 1_545
Fe1 Mg2 3.388789 1_545
Fe1 Mg2 3.388789 1_555
Fe1 K1 3.524393 1_455
Fe1 K1 3.524393 1_555
