# generated using pymatgen
data_NaReN2
_symmetry_space_group_name_H-M   'P 1'
_cell_length_a   5.93764532
_cell_length_b   12.36133411
_cell_length_c   14.17746939
_cell_angle_alpha   90.00000000
_cell_angle_beta   90.00000000
_cell_angle_gamma   90.00000000
_symmetry_Int_Tables_number   1
_chemical_formula_structural   NaReN2
_chemical_formula_sum   'Na16 Re16 N32'
_cell_volume   1040.58680622
_cell_formula_units_Z   16
loop_
 _symmetry_equiv_pos_site_id
 _symmetry_equiv_pos_as_xyz
  1  'x, y, z'
loop_
 _atom_site_type_symbol
 _atom_site_label
 _atom_site_symmetry_multiplicity
 _atom_site_fract_x
 _atom_site_fract_y
 _atom_site_fract_z
 _atom_site_occupancy
  Na  Na0  1  0.21681552  0.95717612  0.43497419  1
  Na  Na1  1  0.71681552  0.54282388  0.56502581  1
  Na  Na2  1  0.78318448  0.45717612  0.06502581  1
  Na  Na3  1  0.28318448  0.04282388  0.93497419  1
  Na  Na4  1  0.78318448  0.04282388  0.56502581  1
  Na  Na5  1  0.28318448  0.45717612  0.43497419  1
  Na  Na6  1  0.21681552  0.54282388  0.93497419  1
  Na  Na7  1  0.71681552  0.95717612  0.06502581  1
  Na  Na8  1  0.33106414  0.22097808  0.31371941  1
  Na  Na9  1  0.83106414  0.27902192  0.68628059  1
  Na  Na10  1  0.66893586  0.72097808  0.18628059  1
  Na  Na11  1  0.16893586  0.77902192  0.81371941  1
  Na  Na12  1  0.66893586  0.77902192  0.68628059  1
  Na  Na13  1  0.16893586  0.72097808  0.31371941  1
  Na  Na14  1  0.33106414  0.27902192  0.81371941  1
  Na  Na15  1  0.83106414  0.22097808  0.18628059  1
  Re  Re0  1  0.69852129  0.02578642  0.32143026  1
  Re  Re1  1  0.19852129  0.47421358  0.67856974  1
  Re  Re2  1  0.30147871  0.52578642  0.17856974  1
  Re  Re3  1  0.80147871  0.97421358  0.82143026  1
  Re  Re4  1  0.30147871  0.97421358  0.67856974  1
  Re  Re5  1  0.80147871  0.52578642  0.32143026  1
  Re  Re6  1  0.69852129  0.47421358  0.82143026  1
  Re  Re7  1  0.19852129  0.02578642  0.17856974  1
  Re  Re8  1  0.79839566  0.28012168  0.44478077  1
  Re  Re9  1  0.29839566  0.21987832  0.55521923  1
  Re  Re10  1  0.20160434  0.78012168  0.05521923  1
  Re  Re11  1  0.70160434  0.71987832  0.94478077  1
  Re  Re12  1  0.20160434  0.71987832  0.55521923  1
  Re  Re13  1  0.70160434  0.78012168  0.44478077  1
  Re  Re14  1  0.79839566  0.21987832  0.94478077  1
  Re  Re15  1  0.29839566  0.28012168  0.05521923  1
  N  N0  1  0.11999051  0.27048187  0.45466286  1
  N  N1  1  0.61999051  0.22951813  0.54533714  1
  N  N2  1  0.88000949  0.77048187  0.04533714  1
  N  N3  1  0.38000949  0.72951813  0.95466286  1
  N  N4  1  0.88000949  0.72951813  0.54533714  1
  N  N5  1  0.38000949  0.77048187  0.45466286  1
  N  N6  1  0.11999051  0.22951813  0.95466286  1
  N  N7  1  0.61999051  0.27048187  0.04533714  1
  N  N8  1  0.71923977  0.42648069  0.41693117  1
  N  N9  1  0.21923977  0.07351931  0.58306883  1
  N  N10  1  0.28076023  0.92648069  0.08306883  1
  N  N11  1  0.78076023  0.57351931  0.91693117  1
  N  N12  1  0.28076023  0.57351931  0.58306883  1
  N  N13  1  0.78076023  0.92648069  0.41693117  1
  N  N14  1  0.71923977  0.07351931  0.91693117  1
  N  N15  1  0.21923977  0.42648069  0.08306883  1
  N  N16  1  0.72900724  0.17193099  0.35503892  1
  N  N17  1  0.22900724  0.32806901  0.64496108  1
  N  N18  1  0.27099276  0.67193099  0.14496108  1
  N  N19  1  0.77099276  0.82806901  0.85503892  1
  N  N20  1  0.27099276  0.82806901  0.64496108  1
  N  N21  1  0.77099276  0.67193099  0.35503892  1
  N  N22  1  0.72900724  0.32806901  0.85503892  1
  N  N23  1  0.22900724  0.17193099  0.14496108  1
  N  N24  1  0.59824999  0.50610535  0.22108787  1
  N  N25  1  0.09824999  0.99389465  0.77891213  1
  N  N26  1  0.40175001  0.00610535  0.27891213  1
  N  N27  1  0.90175001  0.49389465  0.72108787  1
  N  N28  1  0.40175001  0.49389465  0.77891213  1
  N  N29  1  0.90175001  0.00610535  0.22108787  1
  N  N30  1  0.59824999  0.99389465  0.72108787  1
  N  N31  1  0.09824999  0.50610535  0.27891213  1
loop_
_geom_bond_atom_site_label_1
_geom_bond_atom_site_label_2
_geom_bond_distance
_geom_bond_site_symmetry_2
N0 Re9 1.883043 1_555
N0 Re8 1.918353 1_455
N0 Na8 2.436814 1_555
N0 Na5 2.518481 1_555
N1 Re8 1.883043 1_555
N1 Re9 1.918353 1_555
N1 Na9 2.436814 1_555
N1 Na4 2.518481 1_555
N2 Re11 1.883043 1_554
N2 Re10 1.918353 1_655
N2 Na10 2.436814 1_555
N2 Na7 2.518481 1_555
N3 Re10 1.883043 1_556
N3 Re11 1.918353 1_555
N3 Na11 2.436814 1_555
N3 Na6 2.518481 1_555
N4 Re13 1.883043 1_555
N4 Re12 1.918353 1_655
N4 Na12 2.436814 1_555
N4 Na1 2.518481 1_555
N5 Re12 1.883043 1_555
N5 Re13 1.918353 1_555
N5 Na13 2.436814 1_555
N5 Na0 2.518481 1_555
N6 Re15 1.883043 1_556
N6 Re14 1.918353 1_455
N6 Na14 2.436814 1_555
N6 Na3 2.518481 1_555
N7 Re14 1.883043 1_554
N7 Re15 1.918353 1_555
N7 Na15 2.436814 1_555
N7 Na2 2.518481 1_555
N8 Re5 1.891702 1_555
N8 Re8 1.910490 1_555
N8 Na1 2.544966 1_555
N8 Na5 2.629270 1_555
N9 Re4 1.891702 1_545
N9 Re9 1.910490 1_555
N9 Na0 2.544966 1_545
N9 Na4 2.629270 1_455
N10 Re7 1.891702 1_565
N10 Re10 1.910490 1_555
N10 Na3 2.544966 1_564
N10 Na7 2.629270 1_555
N11 Re6 1.891702 1_555
N11 Re11 1.910490 1_555
N11 Na2 2.544966 1_556
N11 Na6 2.629270 1_655
N12 Re1 1.891702 1_555
N12 Re12 1.910490 1_555
N12 Na5 2.544966 1_555
N12 Na1 2.629270 1_555
N13 Re0 1.891702 1_565
N13 Re13 1.910490 1_555
N13 Na4 2.544966 1_565
N13 Na0 2.629270 1_655
N14 Re3 1.891702 1_545
N14 Re14 1.910490 1_555
N14 Na7 2.544966 1_546
N14 Na3 2.629270 1_555
N15 Re2 1.891702 1_555
N15 Re15 1.910490 1_555
N15 Na6 2.544966 1_554
N15 Na2 2.629270 1_455
N16 Re0 1.877072 1_555
N16 Re8 1.891326 1_555
N16 Na8 2.508743 1_555
N16 Na15 2.541489 1_555
N17 Re1 1.877072 1_555
N17 Re9 1.891326 1_555
N17 Na9 2.508743 1_455
N17 Na14 2.541489 1_555
N18 Re2 1.877072 1_555
N18 Re10 1.891326 1_555
N18 Na10 2.508743 1_555
N18 Na13 2.541489 1_555
N19 Re3 1.877072 1_555
N19 Re11 1.891326 1_555
N19 Na11 2.508743 1_655
N19 Na12 2.541489 1_555
N20 Re4 1.877072 1_555
N20 Re12 1.891326 1_555
N20 Na12 2.508743 1_555
N20 Na11 2.541489 1_555
N21 Re5 1.877072 1_555
N21 Re13 1.891326 1_555
N21 Na13 2.508743 1_655
N21 Na10 2.541489 1_555
N22 Re6 1.877072 1_555
N22 Re14 1.891326 1_555
N22 Na14 2.508743 1_555
N22 Na9 2.541489 1_555
N23 Re7 1.877072 1_555
N23 Re15 1.891326 1_555
N23 Na15 2.508743 1_455
N23 Na8 2.541489 1_555
N24 Re2 1.878199 1_555
N24 Re5 1.881251 1_555
N24 Na2 2.543036 1_555
N24 Na10 2.733974 1_555
N25 Re3 1.878199 1_455
N25 Re4 1.881251 1_555
N25 Na3 2.543036 1_565
N25 Na11 2.733974 1_555
N26 Re0 1.878199 1_555
N26 Re7 1.881251 1_555
N26 Na0 2.543036 1_545
N26 Na8 2.733974 1_555
N27 Re1 1.878199 1_655
N27 Re6 1.881251 1_555
N27 Na1 2.543036 1_555
N27 Na9 2.733974 1_555
N28 Re6 1.878199 1_555
N28 Re1 1.881251 1_555
N28 Na6 2.543036 1_555
N28 Na14 2.733974 1_555
N29 Re7 1.878199 1_655
N29 Re0 1.881251 1_555
N29 Na7 2.543036 1_545
N29 Na15 2.733974 1_555
N30 Re4 1.878199 1_555
N30 Re3 1.881251 1_555
N30 Na4 2.543036 1_565
N30 Na12 2.733974 1_555
N31 Re5 1.878199 1_455
N31 Re2 1.881251 1_555
N31 Na5 2.543036 1_555
N31 Na13 2.733974 1_555
