# generated using pymatgen
data_Li3Zn2Fe19O32
_symmetry_space_group_name_H-M   'P 1'
_cell_length_a   6.03902819
_cell_length_b   6.03902819
_cell_length_c   20.01148569
_cell_angle_alpha   81.34649257
_cell_angle_beta   81.34649257
_cell_angle_gamma   59.98507732
_symmetry_Int_Tables_number   1
_chemical_formula_structural   Li3Zn2Fe19O32
_chemical_formula_sum   'Li3 Zn2 Fe19 O32'
_cell_volume   622.33539104
_cell_formula_units_Z   1
loop_
 _symmetry_equiv_pos_site_id
 _symmetry_equiv_pos_as_xyz
  1  'x, y, z'
loop_
 _atom_site_type_symbol
 _atom_site_label
 _atom_site_symmetry_multiplicity
 _atom_site_fract_x
 _atom_site_fract_y
 _atom_site_fract_z
 _atom_site_occupancy
  Li  Li0  1  0.43807800  0.43807800  0.68868800  1
  Li  Li1  1  0.18757000  0.18757000  0.43781000  1
  Li  Li2  1  0.93711500  0.93711500  0.18708400  1
  Zn  Zn0  1  0.22059500  0.22059500  0.84298900  1
  Zn  Zn1  1  0.34183900  0.34183900  0.96857900  1
  Fe  Fe0  1  0.99784000  0.99784000  0.00130900  1
  Fe  Fe1  1  0.71278300  0.22249500  0.84297200  1
  Fe  Fe2  1  0.22249500  0.71278300  0.84297200  1
  Fe  Fe3  1  0.69052300  0.69052300  0.93567500  1
  Fe  Fe4  1  0.09600000  0.09600000  0.71564600  1
  Fe  Fe5  1  0.74839500  0.74839500  0.74849400  1
  Fe  Fe6  1  0.45791500  0.97384000  0.59448900  1
  Fe  Fe7  1  0.97384000  0.45791500  0.59448900  1
  Fe  Fe8  1  0.72485600  0.20869900  0.34481400  1
  Fe  Fe9  1  0.84457300  0.84457300  0.46604200  1
  Fe  Fe10  1  0.97382600  0.97382600  0.59459200  1
  Fe  Fe11  1  0.72401700  0.72401700  0.34470400  1
  Fe  Fe12  1  0.49984000  0.49984000  0.50002100  1
  Fe  Fe13  1  0.25063600  0.25063600  0.25155000  1
  Fe  Fe14  1  0.20869900  0.72485600  0.34481400  1
  Fe  Fe15  1  0.96318900  0.46913800  0.09541800  1
  Fe  Fe16  1  0.46966800  0.46966800  0.09522900  1
  Fe  Fe17  1  0.59379700  0.59379700  0.21604000  1
  Fe  Fe18  1  0.46913800  0.96318900  0.09541800  1
  O  O0  1  0.53446000  0.04353700  0.90493900  1
  O  O1  1  0.52697200  0.52697200  0.90310700  1
  O  O2  1  0.40856400  0.40856400  0.79162700  1
  O  O3  1  0.02842600  0.02842600  0.90233100  1
  O  O4  1  0.90797300  0.38853900  0.78079700  1
  O  O5  1  0.66566900  0.13650000  0.53232200  1
  O  O6  1  0.38853900  0.90797300  0.78079700  1
  O  O7  1  0.81114000  0.26750500  0.65297300  1
  O  O8  1  0.04353700  0.53446000  0.90493900  1
  O  O9  1  0.01811900  0.01811900  0.40348900  1
  O  O10  1  0.15394200  0.15394200  0.53900500  1
  O  O11  1  0.26876400  0.26876400  0.65302600  1
  O  O12  1  0.91487800  0.91487800  0.78272400  1
  O  O13  1  0.78321400  0.78321400  0.64944700  1
  O  O14  1  0.66532100  0.66532100  0.53236300  1
  O  O15  1  0.13650000  0.66566900  0.53232200  1
  O  O16  1  0.88780800  0.41561600  0.28322600  1
  O  O17  1  0.56112400  0.01874000  0.40310900  1
  O  O18  1  0.01874000  0.56112400  0.40310900  1
  O  O19  1  0.26750500  0.81114000  0.65297300  1
  O  O20  1  0.90442900  0.90442900  0.28899700  1
  O  O21  1  0.28196100  0.28196100  0.15189600  1
  O  O22  1  0.41673800  0.41673800  0.28254700  1
  O  O23  1  0.16057000  0.16057000  0.03608500  1
  O  O24  1  0.53308200  0.53308200  0.40060600  1
  O  O25  1  0.63926000  0.16130000  0.03678000  1
  O  O26  1  0.41561600  0.88780800  0.28322600  1
  O  O27  1  0.16130000  0.63926000  0.03678000  1
  O  O28  1  0.31242800  0.76596900  0.15283400  1
  O  O29  1  0.76596900  0.31242800  0.15283400  1
  O  O30  1  0.76556700  0.76556700  0.15320200  1
  O  O31  1  0.65466000  0.65466000  0.03574700  1
loop_
_geom_bond_atom_site_label_1
_geom_bond_atom_site_label_2
_geom_bond_distance
_geom_bond_site_symmetry_2
Li0 O19 2.015647 1_555
Li0 O7 2.015647 1_555
Li0 O11 2.021236 1_555
Li0 O2 2.029235 1_555
Li1 O10 1.994271 1_555
Li1 O9 2.009159 1_555
Li1 O18 2.012810 1_555
Li1 O17 2.012810 1_555
Li2 O20 2.008459 1_555
Li2 O29 2.019210 1_565
Li2 O28 2.019210 1_655
Li2 O30 2.025521 1_555
Fe0 O25 1.943527 1_565
Fe0 O27 1.943527 1_655
Fe0 O23 1.947721 1_665
Fe0 O3 1.950729 1_664
Fe1 O2 1.961865 1_555
Fe1 O0 2.055397 1_555
Fe1 O1 2.069678 1_555
Fe1 O4 2.075764 1_555
Fe1 O12 2.087369 1_545
Fe1 O3 2.108434 1_655
Fe2 O2 1.961865 1_555
Fe2 O8 2.055397 1_555
Fe2 O1 2.069678 1_555
Fe2 O6 2.075764 1_555
Fe2 O12 2.087369 1_455
Fe2 O3 2.108434 1_565
Fe3 O0 1.892389 1_565
Fe3 O8 1.892389 1_655
Fe3 O1 1.933700 1_555
Fe3 O31 1.972328 1_556
Fe4 O11 2.012348 1_555
Fe4 O19 2.020115 1_545
Fe4 O7 2.020115 1_455
Fe4 O6 2.085883 1_545
Fe4 O4 2.085883 1_455
Fe4 O12 2.123194 1_445
Fe5 O6 1.933596 1_555
Fe5 O4 1.933596 1_555
Fe5 O13 1.952041 1_555
Fe5 O12 1.979042 1_555
Fe6 O19 2.009157 1_555
Fe6 O10 2.009482 1_565
Fe6 O11 2.009715 1_565
Fe6 O13 2.097769 1_555
Fe6 O14 2.116492 1_555
Fe6 O5 2.117139 1_565
Fe7 O7 2.009157 1_555
Fe7 O10 2.009482 1_655
Fe7 O11 2.009715 1_655
Fe7 O13 2.097769 1_555
Fe7 O14 2.116492 1_555
Fe7 O15 2.117139 1_655
Fe8 O9 2.004919 1_655
Fe8 O17 2.009869 1_555
Fe8 O20 2.014847 1_545
Fe8 O24 2.103476 1_555
Fe8 O16 2.109657 1_555
Fe8 O22 2.116892 1_555
Fe9 O17 2.017747 1_565
Fe9 O18 2.017747 1_655
Fe9 O9 2.018193 1_665
Fe9 O15 2.097946 1_655
Fe9 O5 2.097946 1_565
Fe9 O14 2.100658 1_555
Fe10 O19 2.002612 1_655
Fe10 O7 2.002612 1_565
Fe10 O10 2.014736 1_665
Fe10 O13 2.102450 1_555
Fe10 O15 2.116961 1_655
Fe10 O5 2.116961 1_565
Fe11 O18 2.007463 1_655
Fe11 O17 2.007463 1_565
Fe11 O20 2.018271 1_555
Fe11 O16 2.107345 1_555
Fe11 O26 2.107345 1_555
Fe11 O24 2.112911 1_555
Fe12 O14 1.950554 1_555
Fe12 O15 1.950622 1_555
Fe12 O5 1.950622 1_555
Fe12 O24 1.959193 1_555
Fe13 O22 1.943782 1_555
Fe13 O16 1.945135 1_455
Fe13 O26 1.945135 1_545
Fe13 O21 1.963992 1_555
Fe14 O9 2.004919 1_565
Fe14 O18 2.009869 1_555
Fe14 O20 2.014847 1_455
Fe14 O24 2.103476 1_555
Fe14 O26 2.109657 1_555
Fe14 O22 2.116892 1_555
Fe15 O29 2.005733 1_555
Fe15 O30 2.009050 1_555
Fe15 O27 2.075639 1_655
Fe15 O23 2.078644 1_655
Fe15 O31 2.081149 1_555
Fe15 O21 2.086688 1_655
Fe16 O29 2.005942 1_555
Fe16 O28 2.005942 1_555
Fe16 O27 2.066838 1_555
Fe16 O25 2.066838 1_555
Fe16 O31 2.088381 1_555
Fe16 O21 2.089931 1_555
Fe17 O30 2.006197 1_555
Fe17 O29 2.012868 1_555
Fe17 O28 2.012868 1_555
Fe17 O22 2.084547 1_555
Fe17 O26 2.118881 1_555
Fe17 O16 2.118881 1_555
Fe18 O28 2.005733 1_555
Fe18 O30 2.009050 1_555
Fe18 O25 2.075639 1_565
Fe18 O23 2.078644 1_565
Fe18 O31 2.081149 1_555
Fe18 O21 2.086688 1_565
O0 Zn1 2.090062 1_555
O0 Zn0 2.133886 1_555
O1 Zn1 2.141381 1_555
O2 Zn0 2.054392 1_555
O3 Zn0 2.149833 1_555
O4 Zn0 2.133874 1_655
O6 Zn0 2.133874 1_565
O8 Zn1 2.090062 1_555
O8 Zn0 2.133886 1_555
O23 Zn1 2.128495 1_554
O25 Zn1 2.146675 1_554
O27 Zn1 2.146675 1_554
