# generated using pymatgen
data_Sc(VGe)5
_symmetry_space_group_name_H-M   'P 1'
_cell_length_a   5.08724500
_cell_length_b   7.77106602
_cell_length_c   9.48513477
_cell_angle_alpha   65.76152972
_cell_angle_beta   74.44464116
_cell_angle_gamma   90.00000000
_symmetry_Int_Tables_number   1
_chemical_formula_structural   Sc(VGe)5
_chemical_formula_sum   'Sc2 V10 Ge10'
_cell_volume   326.80130332
_cell_formula_units_Z   2
loop_
 _symmetry_equiv_pos_site_id
 _symmetry_equiv_pos_as_xyz
  1  'x, y, z'
loop_
 _atom_site_type_symbol
 _atom_site_label
 _atom_site_symmetry_multiplicity
 _atom_site_fract_x
 _atom_site_fract_y
 _atom_site_fract_z
 _atom_site_occupancy
  Sc  Sc0  1  0.35707900  0.74531300  0.28584200  1
  Sc  Sc1  1  0.64292100  0.25468700  0.71415800  1
  V  V0  1  0.06378200  0.32245200  0.87243700  1
  V  V1  1  0.93621800  0.67754800  0.12756300  1
  V  V2  1  0.43514600  0.19006500  0.12970700  1
  V  V3  1  0.56485400  0.80993500  0.87029300  1
  V  V4  1  0.94212900  0.69114000  0.61882400  1
  V  V5  1  0.56095200  0.30886000  0.38117600  1
  V  V6  1  0.05787100  0.30886000  0.38117600  1
  V  V7  1  0.43904800  0.69114000  0.61882400  1
  V  V8  1  0.14423800  0.02993200  0.71152400  1
  V  V9  1  0.85576200  0.97006800  0.28847600  1
  Ge  Ge0  1  0.43401300  0.52209500  0.13197400  1
  Ge  Ge1  1  0.56598700  0.47790500  0.86802600  1
  Ge  Ge2  1  0.06750500  0.66485500  0.86499000  1
  Ge  Ge3  1  0.93249500  0.33514500  0.13501000  1
  Ge  Ge4  1  0.24610100  0.00000000  0.00000000  1
  Ge  Ge5  1  0.75389900  0.00000000  0.00000000  1
  Ge  Ge6  1  0.21059300  0.40845600  0.57881300  1
  Ge  Ge7  1  0.78940700  0.59154400  0.42118700  1
  Ge  Ge8  1  0.28601700  0.99231300  0.42796700  1
  Ge  Ge9  1  0.71398300  0.00768700  0.57203300  1
loop_
_geom_bond_atom_site_label_1
_geom_bond_atom_site_label_2
_geom_bond_distance
_geom_bond_site_symmetry_2
Ge0 V3 2.482436 1_554
Ge0 V5 2.520458 1_555
Ge0 V6 2.520461 1_555
Ge0 Ge1 2.577014 1_554
Ge0 V2 2.589123 1_555
Ge0 Sc0 2.657908 1_555
Ge0 V1 2.808821 1_555
Ge0 V1 2.808826 1_455
Ge0 Ge3 2.923536 1_555
Ge0 Ge3 2.923536 1_455
Ge1 V2 2.482436 1_556
Ge1 V7 2.520458 1_555
Ge1 V4 2.520461 1_555
Ge1 V3 2.589123 1_555
Ge1 Sc1 2.657908 1_555
Ge1 V0 2.808821 1_555
Ge1 V0 2.808826 1_655
Ge1 Ge2 2.923536 1_555
Ge1 Ge2 2.923536 1_655
Ge2 V1 2.442981 1_456
Ge2 V4 2.511478 1_455
Ge2 V7 2.511481 1_555
Ge2 V8 2.573813 1_565
Ge2 V0 2.632558 1_555
Ge2 V3 2.791058 1_455
Ge2 V3 2.791062 1_555
Ge3 V0 2.442981 1_654
Ge3 V6 2.511478 1_655
Ge3 V5 2.511481 1_555
Ge3 V9 2.573813 1_545
Ge3 V1 2.632558 1_555
Ge3 V2 2.791058 1_655
Ge3 V2 2.791062 1_555
Ge4 Ge5 2.503952 1_455
Ge4 Ge5 2.583293 1_555
Ge4 V0 2.591477 1_554
Ge4 V1 2.591480 1_445
Ge4 V2 2.597433 1_555
Ge4 V3 2.597436 1_544
Ge4 Sc0 2.828754 1_545
Ge4 Sc1 2.828755 1_554
Ge4 V8 2.836816 1_554
Ge4 V9 2.836816 1_445
Ge5 V1 2.591477 1_545
Ge5 V0 2.591480 1_654
Ge5 V3 2.597433 1_544
Ge5 V2 2.597436 1_555
Ge5 Sc1 2.828754 1_554
Ge5 Sc0 2.828755 1_545
Ge5 V9 2.836816 1_545
Ge5 V8 2.836816 1_654
Ge6 V0 2.473282 1_555
Ge6 V6 2.586361 1_555
Ge6 V5 2.586361 1_555
Ge6 V8 2.661388 1_555
Ge6 V4 2.691012 1_455
Ge6 V7 2.691016 1_555
Ge6 Sc0 2.836649 1_555
Ge6 Sc1 2.857952 1_455
Ge6 Sc1 2.857956 1_555
Ge7 V1 2.473282 1_555
Ge7 V4 2.586361 1_555
Ge7 V7 2.586361 1_555
Ge7 V9 2.661388 1_555
Ge7 V6 2.691012 1_655
Ge7 V5 2.691016 1_555
Ge7 Sc1 2.836649 1_555
Ge7 Sc0 2.857952 1_655
Ge7 Sc0 2.857956 1_555
Ge8 V2 2.493963 1_565
Ge8 V7 2.576431 1_555
Ge8 V4 2.576431 1_455
Ge8 V5 2.641029 1_565
Ge8 V6 2.641034 1_565
Ge8 V8 2.728488 1_565
Ge8 Sc0 2.737789 1_555
Ge8 V9 2.883116 1_555
Ge8 V9 2.883120 1_455
Ge9 V3 2.493963 1_545
Ge9 V5 2.576431 1_555
Ge9 V6 2.576431 1_655
Ge9 V7 2.641029 1_545
Ge9 V4 2.641034 1_545
Ge9 V9 2.728488 1_545
Ge9 Sc1 2.737789 1_555
Ge9 V8 2.883116 1_555
Ge9 V8 2.883120 1_655
