# generated using pymatgen
data_Nb3Ge
_symmetry_space_group_name_H-M   'P 1'
_cell_length_a   7.77642641
_cell_length_b   7.77642641
_cell_length_c   5.40212100
_cell_angle_alpha   90.00000000
_cell_angle_beta   90.00000000
_cell_angle_gamma   118.39023249
_symmetry_Int_Tables_number   1
_chemical_formula_structural   Nb3Ge
_chemical_formula_sum   'Nb12 Ge4'
_cell_volume   287.39133276
_cell_formula_units_Z   4
loop_
 _symmetry_equiv_pos_site_id
 _symmetry_equiv_pos_as_xyz
  1  'x, y, z'
loop_
 _atom_site_type_symbol
 _atom_site_label
 _atom_site_symmetry_multiplicity
 _atom_site_fract_x
 _atom_site_fract_y
 _atom_site_fract_z
 _atom_site_occupancy
  Nb  Nb0  1  0.65849800  0.33352900  0.24566900  1
  Nb  Nb1  1  0.33352900  0.65849800  0.24566900  1
  Nb  Nb2  1  0.33352900  0.65849800  0.75433100  1
  Nb  Nb3  1  0.65849800  0.33352900  0.75433100  1
  Nb  Nb4  1  0.24425700  0.00041400  0.50000000  1
  Nb  Nb5  1  0.00041400  0.24425700  0.50000000  1
  Nb  Nb6  1  0.74682700  0.74682700  0.50000000  1
  Nb  Nb7  1  0.76241800  0.00544000  0.00000000  1
  Nb  Nb8  1  0.00544000  0.76241800  0.00000000  1
  Nb  Nb9  1  0.24998100  0.24998100  0.00000000  1
  Nb  Nb10  1  0.60821800  0.99907100  0.50000000  1
  Nb  Nb11  1  0.99907100  0.60821800  0.50000000  1
  Ge  Ge0  1  0.38665200  0.38665200  0.50000000  1
  Ge  Ge1  1  0.40039700  0.99695500  0.00000000  1
  Ge  Ge2  1  0.99695500  0.40039700  0.00000000  1
  Ge  Ge3  1  0.61532700  0.61532700  0.00000000  1
loop_
_geom_bond_atom_site_label_1
_geom_bond_atom_site_label_2
_geom_bond_distance
_geom_bond_site_symmetry_2
Nb0 Nb10 2.799663 1_545
Nb0 Nb11 2.843414 1_555
Nb1 Nb11 2.799663 1_455
Nb1 Nb10 2.843414 1_555
Nb10 Nb6 2.649557 1_555
Nb10 Nb5 2.721635 1_665
Nb10 Nb3 2.799663 1_565
Nb10 Nb4 2.835297 1_565
Nb10 Nb2 2.843414 1_555
Nb10 Nb7 2.946117 1_566
Nb10 Nb7 2.946117 1_565
Nb11 Nb6 2.649557 1_555
Nb11 Nb4 2.721635 1_665
Nb11 Nb2 2.799663 1_655
Nb11 Nb5 2.835297 1_655
Nb11 Nb3 2.843414 1_555
Nb11 Nb8 2.946117 1_655
Nb11 Nb8 2.946117 1_656
Ge0 Nb5 2.661714 1_555
Ge0 Nb4 2.661714 1_555
Ge0 Nb0 2.712518 1_555
Ge0 Nb1 2.712518 1_555
Ge0 Nb2 2.712518 1_555
Ge0 Nb3 2.712518 1_555
Ge0 Nb6 2.868746 1_555
Ge0 Nb9 2.912165 1_556
Ge0 Nb9 2.912165 1_555
Ge1 Nb9 2.725517 1_565
Ge1 Nb8 2.726304 1_555
Ge1 Nb3 2.764893 1_564
Ge1 Nb0 2.764893 1_565
Ge1 Nb1 2.767227 1_555
Ge1 Nb2 2.767227 1_554
Ge1 Nb7 2.784462 1_565
Ge1 Nb4 2.966786 1_565
Ge1 Nb4 2.966786 1_564
Ge1 Nb10 3.143645 1_555
Ge1 Nb10 3.143645 1_554
Ge2 Nb9 2.725517 1_655
Ge2 Nb7 2.726304 1_555
Ge2 Nb1 2.764893 1_655
Ge2 Nb2 2.764893 1_654
Ge2 Nb0 2.767227 1_555
Ge2 Nb3 2.767227 1_554
Ge2 Nb8 2.784462 1_655
Ge2 Nb5 2.966786 1_654
Ge2 Nb5 2.966786 1_655
Ge2 Nb11 3.143645 1_554
Ge2 Nb11 3.143645 1_555
Ge3 Nb8 2.685475 1_655
Ge3 Nb7 2.685475 1_565
Ge3 Nb1 2.715831 1_555
Ge3 Nb3 2.715831 1_554
Ge3 Nb2 2.715831 1_554
Ge3 Nb0 2.715831 1_555
Ge3 Nb6 2.897021 1_555
Ge3 Nb6 2.897021 1_554
Ge3 Nb9 2.909932 1_555
