# generated using pymatgen
data_LiMn(P2O7)2
_symmetry_space_group_name_H-M   'P 1'
_cell_length_a   8.72041800
_cell_length_b   8.72041800
_cell_length_c   8.96938247
_cell_angle_alpha   69.44661309
_cell_angle_beta   69.44661309
_cell_angle_gamma   99.98457171
_symmetry_Int_Tables_number   1
_chemical_formula_structural   LiMn(P2O7)2
_chemical_formula_sum   'Li2 Mn2 P8 O28'
_cell_volume   562.74219310
_cell_formula_units_Z   2
loop_
 _symmetry_equiv_pos_site_id
 _symmetry_equiv_pos_as_xyz
  1  'x, y, z'
loop_
 _atom_site_type_symbol
 _atom_site_label
 _atom_site_symmetry_multiplicity
 _atom_site_fract_x
 _atom_site_fract_y
 _atom_site_fract_z
 _atom_site_occupancy
  Li  Li0  1  0.36178200  0.63821800  0.75000000  1
  Li  Li1  1  0.63821800  0.36178200  0.25000000  1
  Mn  Mn0  1  0.50000000  0.00000000  0.00000000  1
  Mn  Mn1  1  0.00000000  0.50000000  0.50000000  1
  P  P0  1  0.21281600  0.31267000  0.69273300  1
  P  P1  1  0.68733000  0.78718400  0.80726700  1
  P  P2  1  0.78718400  0.68733000  0.30726700  1
  P  P3  1  0.31267000  0.21281600  0.19273300  1
  P  P4  1  0.28053300  0.85570300  0.42423100  1
  P  P5  1  0.14429700  0.71946700  0.07576900  1
  P  P6  1  0.71946700  0.14429700  0.57576900  1
  P  P7  1  0.85570300  0.28053300  0.92423100  1
  O  O0  1  0.03477000  0.23936400  0.87527500  1
  O  O1  1  0.76063600  0.96523000  0.62472500  1
  O  O2  1  0.96523000  0.76063600  0.12472500  1
  O  O3  1  0.23936400  0.03477000  0.37527500  1
  O  O4  1  0.26050800  0.15821100  0.67524900  1
  O  O5  1  0.84178900  0.73949200  0.82475100  1
  O  O6  1  0.73949200  0.84178900  0.32475100  1
  O  O7  1  0.15821100  0.26050800  0.17524900  1
  O  O8  1  0.35099300  0.43604900  0.70030700  1
  O  O9  1  0.56395100  0.64900700  0.79969300  1
  O  O10  1  0.64900700  0.56395100  0.29969300  1
  O  O11  1  0.43604900  0.35099300  0.20030700  1
  O  O12  1  0.17530100  0.40880200  0.53496700  1
  O  O13  1  0.59119800  0.82469900  0.96503300  1
  O  O14  1  0.82469900  0.59119800  0.46503300  1
  O  O15  1  0.40880200  0.17530100  0.03496700  1
  O  O16  1  0.35587900  0.83454500  0.55530500  1
  O  O17  1  0.16545500  0.64412100  0.94469500  1
  O  O18  1  0.64412100  0.16545500  0.44469500  1
  O  O19  1  0.83454500  0.35587900  0.05530500  1
  O  O20  1  0.40248400  0.85927100  0.24970000  1
  O  O21  1  0.14072900  0.59751600  0.25030000  1
  O  O22  1  0.59751600  0.14072900  0.75030000  1
  O  O23  1  0.85927100  0.40248400  0.74970000  1
  O  O24  1  0.10176400  0.71114500  0.51408200  1
  O  O25  1  0.28885500  0.89823600  0.98591800  1
  O  O26  1  0.89823600  0.28885500  0.48591800  1
  O  O27  1  0.71114500  0.10176400  0.01408200  1
loop_
_geom_bond_atom_site_label_1
_geom_bond_atom_site_label_2
_geom_bond_distance
_geom_bond_site_symmetry_2
Li0 O9 1.959428 1_555
Li0 O8 1.959428 1_555
Li0 O17 1.994422 1_555
Li0 O16 1.994422 1_555
Li1 O10 1.959428 1_555
Li1 O11 1.959428 1_555
Li1 O18 1.994422 1_555
Li1 O19 1.994422 1_555
Mn0 O20 1.901619 1_545
Mn0 O22 1.901619 1_554
Mn0 O15 1.910721 1_555
Mn0 O13 1.910721 1_544
Mn0 O27 1.967016 1_555
Mn0 O25 1.967016 1_544
Mn1 O23 1.901619 1_455
Mn1 O21 1.901619 1_555
Mn1 O12 1.910721 1_555
Mn1 O14 1.910721 1_455
Mn1 O24 1.967016 1_555
Mn1 O26 1.967016 1_455
O0 P7 1.607402 1_455
O0 P0 1.623570 1_555
O1 P6 1.607402 1_565
O1 P1 1.623570 1_555
O2 P5 1.607402 1_655
O2 P2 1.623570 1_555
O3 P4 1.607402 1_545
O3 P3 1.623570 1_555
O4 P0 1.519409 1_555
O5 P1 1.519409 1_555
O6 P2 1.519409 1_555
O7 P3 1.519409 1_555
O8 P0 1.507774 1_555
O9 P1 1.507774 1_555
O10 P2 1.507774 1_555
O11 P3 1.507774 1_555
O12 P0 1.549000 1_555
O13 P1 1.549000 1_555
O14 P2 1.549000 1_555
O15 P3 1.549000 1_555
O16 P4 1.509979 1_555
O17 P5 1.509979 1_556
O18 P6 1.509979 1_555
O19 P7 1.509979 1_554
O20 P4 1.538796 1_555
O21 P5 1.538796 1_555
O22 P6 1.538796 1_555
O23 P7 1.538796 1_555
O24 P4 1.546586 1_555
O25 P5 1.546586 1_556
O26 P6 1.546586 1_555
O27 P7 1.546586 1_554
