# generated using pymatgen
data_Nd2Co17N2
_symmetry_space_group_name_H-M   'P 1'
_cell_length_a   6.37153902
_cell_length_b   6.37153902
_cell_length_c   6.42719054
_cell_angle_alpha   84.00674856
_cell_angle_beta   84.00674856
_cell_angle_gamma   84.20568756
_symmetry_Int_Tables_number   1
_chemical_formula_structural   Nd2Co17N2
_chemical_formula_sum   'Nd2 Co17 N2'
_cell_volume   257.00507658
_cell_formula_units_Z   1
loop_
 _symmetry_equiv_pos_site_id
 _symmetry_equiv_pos_as_xyz
  1  'x, y, z'
loop_
 _atom_site_type_symbol
 _atom_site_label
 _atom_site_symmetry_multiplicity
 _atom_site_fract_x
 _atom_site_fract_y
 _atom_site_fract_z
 _atom_site_occupancy
  Nd  Nd0  1  0.65026100  0.65026100  0.66469600  1
  Nd  Nd1  1  0.34973900  0.34973900  0.33530400  1
  Co  Co0  1  0.91092900  0.91092900  0.89264900  1
  Co  Co1  1  0.08907100  0.08907100  0.10735100  1
  Co  Co2  1  0.34503900  0.34503900  0.86749500  1
  Co  Co3  1  0.86358200  0.34203200  0.34313200  1
  Co  Co4  1  0.34203200  0.86358200  0.34313200  1
  Co  Co5  1  0.65496100  0.65496100  0.13250500  1
  Co  Co6  1  0.13641800  0.65796800  0.65686800  1
  Co  Co7  1  0.65796800  0.13641800  0.65686800  1
  Co  Co8  1  0.71865600  0.28134400  0.00000000  1
  Co  Co9  1  0.99655200  0.71695400  0.27911400  1
  Co  Co10  1  0.28304600  0.00344800  0.72088600  1
  Co  Co11  1  0.00344800  0.28304600  0.72088600  1
  Co  Co12  1  0.71695400  0.99655200  0.27911400  1
  Co  Co13  1  0.28134400  0.71865600  0.00000000  1
  Co  Co14  1  0.00000000  0.00000000  0.50000000  1
  Co  Co15  1  0.50000000  0.00000000  0.00000000  1
  Co  Co16  1  0.00000000  0.50000000  0.00000000  1
  N  N0  1  0.00000000  0.50000000  0.50000000  1
  N  N1  1  0.50000000  0.00000000  0.50000000  1
loop_
_geom_bond_atom_site_label_1
_geom_bond_atom_site_label_2
_geom_bond_distance
_geom_bond_site_symmetry_2
Co0 Co1 2.322738 1_666
Co0 Co14 2.545534 1_665
Co0 Co6 2.558550 1_655
Co0 Co7 2.558550 1_565
Co0 Co10 2.605261 1_665
Co0 Co11 2.605261 1_665
Co0 Co15 2.656665 1_566
Co0 Co16 2.656665 1_656
Co0 Co8 2.669594 1_566
Co0 Co13 2.669594 1_656
Co0 Co5 2.680165 1_556
Co0 Co12 2.738717 1_556
Co0 Co9 2.738717 1_556
Co0 Nd0 3.039183 1_555
Co1 Co14 2.545534 1_555
Co1 Co3 2.558550 1_455
Co1 Co4 2.558550 1_545
Co1 Co9 2.605261 1_445
Co1 Co12 2.605261 1_445
Co1 Co15 2.656665 1_555
Co1 Co16 2.656665 1_555
Co1 Co8 2.669594 1_455
Co1 Co13 2.669594 1_545
Co1 Co2 2.680165 1_554
Co1 Co10 2.738717 1_554
Co1 Co11 2.738717 1_554
Co1 Nd1 3.039183 1_555
Co2 Co8 2.590935 1_556
Co2 Co6 2.617607 1_555
Co2 Co7 2.617607 1_555
Co2 Nd0 2.994643 1_555
Co2 Nd1 3.013272 1_556
Co2 Nd1 3.414523 1_555
Co3 N0 1.832101 1_655
Co3 Co8 2.557596 1_555
Co3 Co5 2.617607 1_555
Co4 N1 1.832101 1_565
Co4 Co5 2.617607 1_555
Co5 Co9 2.541744 1_555
Co5 Co8 2.590935 1_555
Co5 Nd1 2.994643 1_555
Co5 Nd0 3.013272 1_554
Co5 Nd0 3.414523 1_555
Co6 N0 1.832101 1_555
Co7 N1 1.832101 1_555
Co7 Co8 2.557596 1_556
Co8 Nd1 3.048088 1_555
Co8 Nd0 3.048088 1_554
Co9 N0 1.875467 1_655
Co10 N1 1.875467 1_555
Co10 Co15 2.373382 1_556
Co10 Co14 2.411953 1_555
Co10 Co13 2.414758 1_546
Co10 Co2 2.541744 1_555
Co11 N0 1.875467 1_555
Co11 Co16 2.373382 1_556
Co11 Co14 2.411953 1_555
Co11 Co8 2.414758 1_456
Co11 Co2 2.541744 1_555
Co12 N1 1.875467 1_565
Co12 Co15 2.373382 1_565
Co12 Co14 2.411953 1_665
Co12 Co8 2.414758 1_565
Co12 Co5 2.541744 1_555
Co13 Co16 2.378780 1_555
Co13 Co15 2.378780 1_565
Co13 Co9 2.414758 1_455
Co13 Co4 2.557596 1_555
Co13 Co6 2.557596 1_554
Co13 Co2 2.590935 1_554
Co13 Co5 2.590935 1_555
Co13 Nd1 3.048088 1_555
Co13 Nd0 3.048088 1_554
Co14 Co9 2.411953 1_445
Co14 Co3 2.421349 1_455
Co14 Co6 2.421349 1_545
Co14 Co4 2.421349 1_545
Co14 Co7 2.421349 1_455
Co14 Nd0 3.327056 1_445
Co14 Nd1 3.327056 1_555
Co15 Co8 2.378780 1_555
Co15 Co2 2.424780 1_554
Co15 Co5 2.424780 1_545
Co15 Co7 2.438246 1_554
Co15 Co4 2.438246 1_545
Co15 Nd1 3.266154 1_555
Co15 Nd0 3.266154 1_544
Co16 Co9 2.373382 1_455
Co16 Co8 2.378780 1_455
Co16 Co2 2.424780 1_554
Co16 Co5 2.424780 1_455
Co16 Co3 2.438246 1_455
Co16 Co6 2.438246 1_554
Co16 Nd1 3.266154 1_555
Co16 Nd0 3.266154 1_454
N0 Nd0 2.508194 1_455
N0 Nd1 2.508194 1_555
N1 Nd0 2.508194 1_545
N1 Nd1 2.508194 1_555
