# generated using pymatgen
data_ZnMo2(PO5)2
_symmetry_space_group_name_H-M   'P 1'
_cell_length_a   9.97171933
_cell_length_b   8.84943525
_cell_length_c   7.03804644
_cell_angle_alpha   76.81569352
_cell_angle_beta   59.77568871
_cell_angle_gamma   43.40861777
_symmetry_Int_Tables_number   1
_chemical_formula_structural   ZnMo2(PO5)2
_chemical_formula_sum   'Zn2 Mo4 P4 O20'
_cell_volume   358.73635720
_cell_formula_units_Z   2
loop_
 _symmetry_equiv_pos_site_id
 _symmetry_equiv_pos_as_xyz
  1  'x, y, z'
loop_
 _atom_site_type_symbol
 _atom_site_label
 _atom_site_symmetry_multiplicity
 _atom_site_fract_x
 _atom_site_fract_y
 _atom_site_fract_z
 _atom_site_occupancy
  Zn  Zn0  1  0.51254900  0.98745100  0.98745100  1
  Zn  Zn1  1  0.26254900  0.73745100  0.73745100  1
  Mo  Mo0  1  0.87277600  0.37982600  0.37988000  1
  Mo  Mo1  1  0.36751800  0.37988000  0.37982600  1
  Mo  Mo2  1  0.87017400  0.37722400  0.88248200  1
  Mo  Mo3  1  0.87012000  0.88248200  0.37722400  1
  P  P0  1  0.03887600  0.55449800  0.95901200  1
  P  P1  1  0.69550200  0.21112400  0.80238600  1
  P  P2  1  0.44761400  0.95901200  0.55449800  1
  P  P3  1  0.29098800  0.80238600  0.21112400  1
  O  O0  1  0.56673500  0.72560700  0.46230200  1
  O  O1  1  0.66205900  0.17887000  0.33536800  1
  O  O2  1  0.30563000  0.67206300  0.40810200  1
  O  O3  1  0.78769800  0.00464400  0.68326500  1
  O  O4  1  0.21629600  0.07182900  0.75960100  1
  O  O5  1  0.43210100  0.09004200  0.35975000  1
  O  O6  1  0.07113000  0.58794100  0.42629600  1
  O  O7  1  0.82370400  0.33536800  0.17887000  1
  O  O8  1  0.91463200  0.42629600  0.58794100  1
  O  O9  1  0.17817100  0.03370400  0.29772600  1
  O  O10  1  0.24535600  0.46230200  0.72560700  1
  O  O11  1  0.49039900  0.29772600  0.03370400  1
  O  O12  1  0.95227400  0.75960100  0.07182900  1
  O  O13  1  0.15995800  0.81789900  0.13189300  1
  O  O14  1  0.11810700  0.35975000  0.09004200  1
  O  O15  1  0.89025000  0.13189300  0.81789900  1
  O  O16  1  0.84189800  0.63579400  0.94437000  1
  O  O17  1  0.61420600  0.40810200  0.67206300  1
  O  O18  1  0.52439300  0.68326500  0.00464400  1
  O  O19  1  0.57793700  0.94437000  0.63579400  1
loop_
_geom_bond_atom_site_label_1
_geom_bond_atom_site_label_2
_geom_bond_distance
_geom_bond_site_symmetry_2
Mo0 O7 1.904266 1_555
Mo0 O8 1.904473 1_555
Mo0 O0 2.114848 1_555
Mo0 O9 2.114851 1_655
Mo0 O14 2.164985 1_655
Mo0 O17 2.213296 1_555
Mo1 O1 1.904274 1_555
Mo1 O6 1.904481 1_555
Mo1 O10 2.114848 1_555
Mo1 O11 2.114851 1_555
Mo1 O5 2.164985 1_555
Mo1 O2 2.213302 1_555
Mo2 O8 1.904272 1_555
Mo2 O7 1.904480 1_556
Mo2 O18 2.114848 1_556
Mo2 O4 2.114851 1_655
Mo2 O15 2.164985 1_555
Mo2 O16 2.213294 1_555
Mo3 O6 1.904271 1_655
Mo3 O1 1.904478 1_565
Mo3 O3 2.114848 1_565
Mo3 O12 2.114851 1_555
Mo3 O13 2.164985 1_655
Mo3 O19 2.213301 1_555
O0 P2 1.539134 1_555
O2 P3 1.582122 1_555
O2 Zn1 2.267275 1_555
O3 P1 1.539134 1_555
O4 P2 1.536331 1_545
O5 P2 1.573208 1_545
O5 Zn0 2.498855 1_544
O9 P3 1.536331 1_545
O10 P0 1.539134 1_555
O11 P1 1.536331 1_554
O12 P0 1.536331 1_654
O13 P3 1.573208 1_555
O13 Zn1 2.498855 1_554
O14 P0 1.573208 1_554
O14 Zn0 2.498855 1_544
O15 P1 1.573208 1_555
O15 Zn1 2.498855 1_645
O16 P0 1.582126 1_655
O16 Zn0 2.267278 1_555
O17 P1 1.582122 1_555
O17 Zn1 2.267280 1_555
O18 P3 1.539134 1_555
O19 P2 1.582117 1_555
O19 Zn0 2.267281 1_555
