# generated using pymatgen
data_Li9Mn2Co5O16
_symmetry_space_group_name_H-M   'P 1'
_cell_length_a   2.89929823
_cell_length_b   5.12814341
_cell_length_c   19.59354298
_cell_angle_alpha   94.80437473
_cell_angle_beta   82.55756085
_cell_angle_gamma   91.58339232
_symmetry_Int_Tables_number   1
_chemical_formula_structural   Li9Mn2Co5O16
_chemical_formula_sum   'Li9 Mn2 Co5 O16'
_cell_volume   287.80647297
_cell_formula_units_Z   1
loop_
 _symmetry_equiv_pos_site_id
 _symmetry_equiv_pos_as_xyz
  1  'x, y, z'
loop_
 _atom_site_type_symbol
 _atom_site_label
 _atom_site_symmetry_multiplicity
 _atom_site_fract_x
 _atom_site_fract_y
 _atom_site_fract_z
 _atom_site_occupancy
  Li  Li0  1  0.88340400  0.39142800  0.11495100  1
  Li  Li1  1  0.12159200  0.63193800  0.37820800  1
  Li  Li2  1  0.37276500  0.87927100  0.62615500  1
  Li  Li3  1  0.61279700  0.12444100  0.87790000  1
  Li  Li4  1  0.39473400  0.86993100  0.11715600  1
  Li  Li5  1  0.62412500  0.11913800  0.37756200  1
  Li  Li6  1  0.87531000  0.37342700  0.62665900  1
  Li  Li7  1  0.12338900  0.61102600  0.88092000  1
  Li  Li8  1  0.50000100  0.50169200  0.99973600  1
  Mn  Mn0  1  0.99949900  0.00020300  0.99978300  1
  Mn  Mn1  1  0.25120700  0.25053300  0.25017600  1
  Co  Co0  1  0.49927200  0.49994400  0.50092900  1
  Co  Co1  1  0.74844900  0.74954900  0.75020600  1
  Co  Co2  1  0.75187800  0.74987700  0.24937700  1
  Co  Co3  1  0.99766700  0.00028900  0.50018600  1
  Co  Co4  1  0.24818300  0.25002800  0.75042400  1
  O  O0  1  0.45662700  0.16917900  0.05578800  1
  O  O1  1  0.70507000  0.41796100  0.30663500  1
  O  O2  1  0.93714700  0.69472900  0.55520800  1
  O  O3  1  0.17719400  0.92384200  0.80635200  1
  O  O4  1  0.93695500  0.71553900  0.05946300  1
  O  O5  1  0.19088900  0.95462700  0.30694200  1
  O  O6  1  0.40432700  0.18397500  0.55702800  1
  O  O7  1  0.67521500  0.42689900  0.80767300  1
  O  O8  1  0.31056000  0.54263300  0.19391200  1
  O  O9  1  0.59560900  0.81363800  0.44147700  1
  O  O10  1  0.82106000  0.07352200  0.69162300  1
  O  O11  1  0.06089800  0.28405700  0.94189600  1
  O  O12  1  0.79272800  0.08595400  0.19590800  1
  O  O13  1  0.06644500  0.30735800  0.44440000  1
  O  O14  1  0.32436900  0.57178300  0.69069800  1
  O  O15  1  0.54063400  0.83158900  0.94466900  1
loop_
_geom_bond_atom_site_label_1
_geom_bond_atom_site_label_2
_geom_bond_distance
_geom_bond_site_symmetry_2
Li0 O4 2.052647 1_555
Li0 O0 2.060614 1_555
Li0 O8 2.184253 1_655
Li0 O0 2.188398 1_655
Li0 O8 2.226614 1_555
Li0 O12 2.307523 1_555
Li1 O9 2.031219 1_455
Li1 O9 2.114435 1_555
Li1 O1 2.176418 1_455
Li1 O13 2.184335 1_555
Li1 O5 2.241545 1_555
Li1 O1 2.294063 1_555
Li2 O14 2.093140 1_555
Li2 O10 2.115042 1_565
Li2 O10 2.130447 1_465
Li2 O2 2.142785 1_455
Li2 O6 2.144529 1_565
Li2 O2 2.186651 1_555
Li3 O11 2.030142 1_655
Li3 O11 2.045323 1_555
Li3 O15 2.061908 1_545
Li3 O7 2.146938 1_555
Li3 O3 2.182616 1_545
Li3 O3 2.226731 1_645
Li4 O4 1.958203 1_555
Li4 O4 1.961359 1_455
Li4 O0 2.017656 1_565
Li4 O12 2.245870 1_565
Li4 O8 2.333148 1_555
Li4 O12 2.403619 1_465
Li5 O9 2.079469 1_545
Li5 O5 2.097673 1_545
Li5 O13 2.108604 1_655
Li5 O13 2.141716 1_555
Li5 O1 2.141730 1_555
Li5 O5 2.149080 1_645
Li6 O10 2.067110 1_555
Li6 O14 2.107227 1_655
Li6 O6 2.115643 1_655
Li6 O14 2.125410 1_555
Li6 O6 2.203901 1_555
Li6 O2 2.238747 1_555
Li7 O15 2.093347 1_555
Li7 O11 2.129410 1_555
Li7 O7 2.184637 1_555
Li7 O7 2.197271 1_455
Li7 O15 2.239739 1_455
Li7 O3 2.247683 1_555
Li8 O11 2.057689 1_555
Li8 O4 2.066250 1_556
Li8 O15 2.074100 1_555
Li8 O0 2.096585 1_556
Li8 O11 2.141376 1_655
Li8 O4 2.150824 1_456
Mn0 O11 1.909700 1_655
Mn0 O4 1.935880 1_546
Mn0 O15 1.958553 1_545
Mn0 O15 1.963400 1_645
Mn0 O0 1.966112 1_656
Mn0 O0 1.975094 1_556
Mn1 O8 1.924043 1_555
Mn1 O12 1.940028 1_455
Mn1 O5 1.946275 1_545
Mn1 O12 1.948934 1_555
Mn1 O1 1.961646 1_555
Mn1 O1 1.982521 1_455
Co0 O2 1.960177 1_555
Co0 O13 1.971108 1_555
Co0 O6 2.026019 1_555
Co0 O9 2.056097 1_555
Co0 O2 2.061062 1_455
Co0 O13 2.083482 1_655
Co1 O3 1.918971 1_655
Co1 O14 1.957978 1_555
Co1 O3 2.048734 1_555
Co1 O7 2.069137 1_555
Co1 O10 2.087958 1_565
Co1 O14 2.092928 1_655
Co2 O8 2.009800 1_555
Co2 O5 2.023461 1_655
Co2 O12 2.083482 1_565
Co2 O8 2.092816 1_655
Co2 O5 2.107323 1_555
Co2 O1 2.107581 1_555
Co3 O6 1.902864 1_655
Co3 O9 1.923412 1_545
Co3 O2 1.966509 1_545
Co3 O13 1.982087 1_655
Co3 O6 2.122385 1_555
Co3 O9 2.153014 1_645
Co4 O7 1.934189 1_555
Co4 O10 1.952737 1_455
Co4 O7 2.066552 1_455
Co4 O3 2.066594 1_545
Co4 O10 2.077994 1_555
Co4 O14 2.092156 1_555
