# generated using pymatgen
data_Sb26O53
_symmetry_space_group_name_H-M   'P 1'
_cell_length_a   4.98277355
_cell_length_b   5.55387647
_cell_length_c   44.57884934
_cell_angle_alpha   102.05060374
_cell_angle_beta   113.70835539
_cell_angle_gamma   90.33493130
_symmetry_Int_Tables_number   1
_chemical_formula_structural   Sb26O53
_chemical_formula_sum   'Sb26 O53'
_cell_volume   1099.08687618
_cell_formula_units_Z   1
loop_
 _symmetry_equiv_pos_site_id
 _symmetry_equiv_pos_as_xyz
  1  'x, y, z'
loop_
 _atom_site_type_symbol
 _atom_site_label
 _atom_site_symmetry_multiplicity
 _atom_site_fract_x
 _atom_site_fract_y
 _atom_site_fract_z
 _atom_site_occupancy
  Sb  Sb0  1  0.25478400  0.70795500  0.86928300  1
  Sb  Sb1  1  0.59278100  0.41527500  0.93854300  1
  Sb  Sb2  1  0.23394400  0.73814400  0.72209600  1
  Sb  Sb3  1  0.52970200  0.47186600  0.79573000  1
  Sb  Sb4  1  0.83437400  0.19515400  0.86922400  1
  Sb  Sb5  1  0.07222300  0.92065300  0.94669300  1
  Sb  Sb6  1  0.21950300  0.75000400  0.57323700  1
  Sb  Sb7  1  0.51228000  0.48985700  0.64655400  1
  Sb  Sb8  1  0.80852100  0.23169200  0.72000100  1
  Sb  Sb9  1  0.02959200  0.97251300  0.79515400  1
  Sb  Sb10  1  0.20765300  0.75412900  0.42398800  1
  Sb  Sb11  1  0.49956900  0.49735800  0.49729300  1
  Sb  Sb12  1  0.79228500  0.24107900  0.57058400  1
  Sb  Sb13  1  0.01267300  0.98996600  0.64654700  1
  Sb  Sb14  1  0.18928100  0.75172400  0.27533200  1
  Sb  Sb15  1  0.48694100  0.49972400  0.34816900  1
  Sb  Sb16  1  0.77990500  0.24496100  0.42129800  1
  Sb  Sb17  1  0.00004700  0.99733700  0.49729700  1
  Sb  Sb18  1  0.45338500  0.51327100  0.19900700  1
  Sb  Sb19  1  0.75750100  0.25224300  0.27201100  1
  Sb  Sb20  1  0.98669600  0.99974400  0.34803700  1
  Sb  Sb21  1  0.59920500  0.63086000  0.08486200  1
  Sb  Sb22  1  0.74183500  0.24926000  0.13985400  1
  Sb  Sb23  1  0.98397500  0.99335100  0.20045700  1
  Sb  Sb24  1  0.80649500  0.45852200  0.01434200  1
  Sb  Sb25  1  0.95112500  0.02750100  0.06027100  1
  O  O0  1  0.09748900  0.93499100  0.89994900  1
  O  O1  1  0.41605000  0.32433200  0.96735700  1
  O  O2  1  0.21853600  0.43093700  0.89955400  1
  O  O3  1  0.02216000  0.94313400  0.74854700  1
  O  O4  1  0.29425900  0.28969300  0.81306800  1
  O  O5  1  0.20577300  0.44601200  0.74901700  1
  O  O6  1  0.73023200  0.10786200  0.92434700  1
  O  O7  1  0.39041900  0.79135500  0.81298500  1
  O  O8  1  0.90451800  0.59394500  0.98091900  1
  O  O9  1  0.74456900  0.62513000  0.91732100  1
  O  O10  1  0.01138200  0.95781100  0.59995800  1
  O  O11  1  0.96869300  0.13594200  0.99867700  1
  O  O12  1  0.29105200  0.30078700  0.66483300  1
  O  O13  1  0.18632400  0.46001300  0.60008400  1
  O  O14  1  0.66998200  0.15515000  0.77796500  1
  O  O15  1  0.36477300  0.80126400  0.66473700  1
  O  O16  1  0.84802600  0.49946200  0.84294800  1
  O  O17  1  0.76317900  0.65622900  0.77822800  1
  O  O18  1  0.99969000  0.96302300  0.45071200  1
  O  O19  1  0.04621600  0.00361600  0.84238300  1
  O  O20  1  0.27970500  0.30727800  0.51556700  1
  O  O21  1  0.17379900  0.46496200  0.45080200  1
  O  O22  1  0.66028700  0.17808100  0.62867100  1
  O  O23  1  0.35098200  0.80831900  0.51545900  1
  O  O24  1  0.84026600  0.51928200  0.69309900  1
  O  O25  1  0.73493000  0.67942600  0.62855400  1
  O  O26  1  0.98257300  0.96334900  0.30148600  1
  O  O27  1  0.01448900  0.02096900  0.69324000  1
  O  O28  1  0.26791300  0.30880200  0.36635400  1
  O  O29  1  0.15930400  0.46718300  0.30169700  1
  O  O30  1  0.64929400  0.18652000  0.47940400  1
  O  O31  1  0.33714700  0.81001900  0.36627100  1
  O  O32  1  0.82634700  0.52958900  0.54395700  1
  O  O33  1  0.72109100  0.68765600  0.47930000  1
  O  O34  1  0.97529500  0.97297700  0.15568600  1
  O  O35  1  0.00109000  0.03167400  0.54408900  1
  O  O36  1  0.26865900  0.30714200  0.21929600  1
  O  O37  1  0.11052100  0.45977900  0.15445500  1
  O  O38  1  0.63654600  0.18951900  0.33034300  1
  O  O39  1  0.33559800  0.81908500  0.22037200  1
  O  O40  1  0.81476200  0.53327900  0.39470800  1
  O  O41  1  0.70577800  0.69036600  0.32991600  1
  O  O42  1  0.15046400  0.05010800  0.02867900  1
  O  O43  1  0.98810800  0.03481600  0.39478900  1
  O  O44  1  0.17255500  0.61462100  0.05480400  1
  O  O45  1  0.62880900  0.21371700  0.17840000  1
  O  O46  1  0.79646400  0.52855200  0.24505900  1
  O  O47  1  0.70821400  0.69087200  0.18471100  1
  O  O48  1  0.96725500  0.04338100  0.24574200  1
  O  O49  1  0.67402000  0.27344900  0.03928800  1
  O  O50  1  0.48495800  0.47470900  0.11639400  1
  O  O51  1  0.63114800  0.75299400  0.02775100  1
  O  O52  1  0.53542800  0.00038600  0.09786500  1
loop_
_geom_bond_atom_site_label_1
_geom_bond_atom_site_label_2
_geom_bond_distance
_geom_bond_site_symmetry_2
O0 Sb0 2.055842 1_555
O0 Sb5 2.155115 1_555
O0 Sb4 2.255462 1_465
O1 Sb1 1.963628 1_555
O1 Sb24 2.186741 1_556
O1 Sb5 2.575614 1_545
O2 Sb1 1.991111 1_555
O2 Sb4 2.087384 1_455
O2 Sb0 2.297898 1_555
O3 Sb9 2.035013 1_555
O3 Sb2 2.062597 1_555
O3 Sb8 2.259002 1_465
O4 Sb9 2.004645 1_545
O4 Sb3 2.009771 1_555
O5 Sb3 2.032681 1_555
O5 Sb8 2.068495 1_455
O5 Sb2 2.244590 1_555
O6 Sb1 1.922397 1_555
O6 Sb5 2.016265 1_645
O7 Sb9 2.020515 1_555
O7 Sb3 2.023766 1_555
O8 Sb1 1.950808 1_555
O8 Sb24 2.018185 1_556
O9 Sb1 1.962384 1_555
O9 Sb5 2.103815 1_655
O9 Sb0 2.641060 1_555
O10 Sb13 2.044445 1_555
O10 Sb6 2.063902 1_555
O10 Sb12 2.261032 1_465
O11 O42 1.460654 1_656
O11 Sb24 2.073391 1_556
O11 Sb5 2.622527 1_645
O12 Sb13 2.010888 1_545
O12 Sb7 2.011927 1_555
O13 Sb7 2.025989 1_555
O13 Sb12 2.071453 1_455
O13 Sb6 2.239304 1_555
O14 Sb9 2.017040 1_645
O14 Sb3 2.021806 1_555
O15 Sb13 2.016494 1_555
O15 Sb7 2.024121 1_555
O16 Sb3 2.036571 1_555
O16 Sb0 2.078083 1_655
O16 Sb4 2.263284 1_555
O17 Sb9 2.007735 1_655
O17 Sb3 2.014983 1_555
O18 Sb17 2.044700 1_655
O18 Sb10 2.066084 1_655
O18 Sb16 2.256804 1_565
O19 Sb4 2.043248 1_455
O19 Sb9 2.043819 1_545
O19 Sb0 2.248200 1_545
O20 Sb11 2.010356 1_555
O20 Sb17 2.010504 1_545
O21 Sb11 2.024383 1_555
O21 Sb16 2.073646 1_455
O21 Sb10 2.235414 1_555
O22 Sb13 2.013330 1_645
O22 Sb7 2.022143 1_555
O23 Sb17 2.013237 1_555
O23 Sb11 2.024783 1_555
O24 Sb7 2.032548 1_555
O24 Sb2 2.067201 1_655
O24 Sb8 2.227966 1_555
O25 Sb13 2.008736 1_655
O25 Sb7 2.009511 1_555
O26 Sb20 2.034260 1_555
O26 Sb14 2.051657 1_655
O26 Sb19 2.296717 1_565
O27 Sb13 2.048814 1_545
O27 Sb8 2.064406 1_455
O27 Sb2 2.247315 1_545
O28 Sb15 2.007358 1_555
O28 Sb20 2.010730 1_445
O29 Sb15 2.027346 1_555
O29 Sb19 2.089619 1_455
O29 Sb14 2.194315 1_555
O30 Sb17 2.011244 1_645
O30 Sb11 2.022744 1_555
O31 Sb20 2.014451 1_455
O31 Sb15 2.024082 1_555
O32 Sb11 2.031725 1_555
O32 Sb6 2.070871 1_655
O32 Sb12 2.226725 1_555
O33 Sb11 2.007752 1_555
O33 Sb17 2.008224 1_655
O34 Sb23 1.958131 1_555
O34 Sb22 2.004664 1_565
O35 Sb17 2.052483 1_545
O35 Sb12 2.063711 1_455
O35 Sb6 2.247555 1_545
O36 Sb18 2.016278 1_555
O36 Sb23 2.038788 1_445
O36 Sb19 2.693179 1_555
O37 Sb22 1.964966 1_455
O37 Sb18 1.992631 1_555
O38 Sb20 2.009739 1_545
O38 Sb15 2.018684 1_555
O39 Sb18 1.980413 1_555
O39 Sb23 1.980499 1_455
O40 Sb15 2.029018 1_555
O40 Sb10 2.071060 1_655
O40 Sb16 2.225800 1_555
O41 Sb15 2.007964 1_555
O41 Sb20 2.011778 1_555
O42 Sb25 2.045242 1_455
O43 Sb20 2.049477 1_545
O43 Sb16 2.063752 1_555
O43 Sb10 2.245736 1_645
O44 Sb21 1.994897 1_555
O44 Sb24 2.003726 1_455
O44 Sb25 2.558798 1_465
O45 Sb22 2.056058 1_555
O45 Sb18 2.097705 1_555
O45 Sb23 2.173725 1_545
O46 Sb18 2.060943 1_555
O46 Sb14 2.082702 1_655
O46 Sb19 2.188651 1_555
O47 Sb18 1.972293 1_555
O47 Sb23 1.976848 1_555
O48 Sb23 2.015146 1_545
O48 Sb19 2.059243 1_555
O48 Sb14 2.308105 1_645
O49 Sb24 1.946431 1_555
O49 Sb25 2.040649 1_555
O49 Sb21 2.672188 1_555
O50 Sb22 1.946507 1_555
O50 Sb21 2.049094 1_555
O51 Sb24 1.955484 1_555
O51 Sb25 2.039119 1_565
O52 Sb22 1.956260 1_555
O52 Sb21 2.075562 1_545
