# generated using pymatgen
data_Gd3PbC
_symmetry_space_group_name_H-M   'P 1'
_cell_length_a   5.78873300
_cell_length_b   5.78873300
_cell_length_c   5.78873300
_cell_angle_alpha   90.00000000
_cell_angle_beta   90.00000000
_cell_angle_gamma   90.00000000
_symmetry_Int_Tables_number   1
_chemical_formula_structural   Gd3PbC
_chemical_formula_sum   'Gd3 Pb1 C1'
_cell_volume   193.97714178
_cell_formula_units_Z   1
loop_
 _symmetry_equiv_pos_site_id
 _symmetry_equiv_pos_as_xyz
  1  'x, y, z'
loop_
 _atom_site_type_symbol
 _atom_site_label
 _atom_site_symmetry_multiplicity
 _atom_site_fract_x
 _atom_site_fract_y
 _atom_site_fract_z
 _atom_site_occupancy
  Gd  Gd0  1  0.00000000  0.50000000  0.50000000  1
  Gd  Gd1  1  0.50000000  0.50000000  0.00000000  1
  Gd  Gd2  1  0.50000000  0.00000000  0.50000000  1
  Pb  Pb0  1  0.50000000  0.50000000  0.50000000  1
  C  C0  1  0.00000000  0.00000000  0.00000000  1
loop_
_geom_bond_atom_site_label_1
_geom_bond_atom_site_label_2
_geom_bond_distance
_geom_bond_site_symmetry_2
Gd0 Pb0 2.894366 1_455
Gd0 Pb0 2.894366 1_555
Gd1 Pb0 2.894366 1_555
Gd1 Pb0 2.894366 1_554
Gd2 Pb0 2.894366 1_555
Gd2 Pb0 2.894366 1_545
