# generated using pymatgen
data_Sr2AlGa3
_symmetry_space_group_name_H-M   'P 1'
_cell_length_a   4.33889891
_cell_length_b   4.33889891
_cell_length_c   9.66877068
_cell_angle_alpha   90.00000000
_cell_angle_beta   90.00000000
_cell_angle_gamma   119.99999680
_symmetry_Int_Tables_number   1
_chemical_formula_structural   Sr2AlGa3
_chemical_formula_sum   'Sr2 Al1 Ga3'
_cell_volume   157.63801927
_cell_formula_units_Z   1
loop_
 _symmetry_equiv_pos_site_id
 _symmetry_equiv_pos_as_xyz
  1  'x, y, z'
loop_
 _atom_site_type_symbol
 _atom_site_label
 _atom_site_symmetry_multiplicity
 _atom_site_fract_x
 _atom_site_fract_y
 _atom_site_fract_z
 _atom_site_occupancy
  Sr  Sr0  1  0.00000000  0.00000000  0.75227011  1
  Sr  Sr1  1  0.00000000  0.00000000  0.24772989  1
  Al  Al0  1  0.33333300  0.66666700  0.50000000  1
  Ga  Ga0  1  0.33333300  0.66666700  0.00000000  1
  Ga  Ga1  1  0.66666700  0.33333300  0.50000000  1
  Ga  Ga2  1  0.66666700  0.33333300  0.00000000  1
loop_
_geom_bond_atom_site_label_1
_geom_bond_atom_site_label_2
_geom_bond_distance
_geom_bond_site_symmetry_2
Al0 Ga1 2.505062 1_455
Al0 Ga1 2.505062 1_565
Al0 Ga1 2.505069 1_555
Al0 Sr0 3.496391 1_565
Al0 Sr1 3.496391 1_565
Al0 Sr1 3.496394 1_555
Al0 Sr0 3.496394 1_665
Al0 Sr1 3.496394 1_665
Al0 Sr0 3.496394 1_555
Ga0 Ga2 2.505062 1_455
Ga0 Ga2 2.505062 1_565
Ga0 Ga2 2.505069 1_555
Ga0 Sr1 3.465909 1_565
Ga0 Sr0 3.465909 1_564
Ga0 Sr0 3.465912 1_554
Ga0 Sr0 3.465912 1_664
Ga0 Sr1 3.465912 1_555
Ga0 Sr1 3.465912 1_665
Ga1 Sr1 3.496391 1_655
Ga1 Sr0 3.496391 1_655
Ga1 Sr1 3.496394 1_555
Ga1 Sr0 3.496394 1_665
Ga1 Sr1 3.496394 1_665
Ga1 Sr0 3.496394 1_555
Ga2 Sr1 3.465909 1_655
Ga2 Sr0 3.465909 1_654
Ga2 Sr0 3.465912 1_554
Ga2 Sr0 3.465912 1_664
Ga2 Sr1 3.465912 1_555
Ga2 Sr1 3.465912 1_665
