# generated using pymatgen
data_BiIrS
_symmetry_space_group_name_H-M   'P 1'
_cell_length_a   6.21905600
_cell_length_b   6.21905600
_cell_length_c   6.21905600
_cell_angle_alpha   90.00000000
_cell_angle_beta   90.00000000
_cell_angle_gamma   90.00000000
_symmetry_Int_Tables_number   1
_chemical_formula_structural   BiIrS
_chemical_formula_sum   'Bi4 Ir4 S4'
_cell_volume   240.53229908
_cell_formula_units_Z   4
loop_
 _symmetry_equiv_pos_site_id
 _symmetry_equiv_pos_as_xyz
  1  'x, y, z'
loop_
 _atom_site_type_symbol
 _atom_site_label
 _atom_site_symmetry_multiplicity
 _atom_site_fract_x
 _atom_site_fract_y
 _atom_site_fract_z
 _atom_site_occupancy
  Bi  Bi0  1  0.12863100  0.62863100  0.87136900  1
  Bi  Bi1  1  0.62863100  0.87136900  0.12863100  1
  Bi  Bi2  1  0.87136900  0.12863100  0.62863100  1
  Bi  Bi3  1  0.37136900  0.37136900  0.37136900  1
  Ir  Ir0  1  0.47735200  0.97735200  0.52264800  1
  Ir  Ir1  1  0.97735200  0.52264800  0.47735200  1
  Ir  Ir2  1  0.52264800  0.47735200  0.97735200  1
  Ir  Ir3  1  0.02264800  0.02264800  0.02264800  1
  S  S0  1  0.88171800  0.38171800  0.11828200  1
  S  S1  1  0.38171800  0.11828200  0.88171800  1
  S  S2  1  0.11828200  0.88171800  0.38171800  1
  S  S3  1  0.61828200  0.61828200  0.61828200  1
loop_
_geom_bond_atom_site_label_1
_geom_bond_atom_site_label_2
_geom_bond_distance
_geom_bond_site_symmetry_2
Bi0 S0 2.659678 1_456
Bi0 Ir1 2.706305 1_455
Bi0 Ir3 2.706305 1_566
Bi0 Ir2 2.706305 1_555
Bi1 S1 2.659678 1_564
Bi1 Ir2 2.706305 1_554
Bi1 Ir3 2.706305 1_665
Bi1 Ir0 2.706305 1_555
Bi2 S2 2.659678 1_645
Bi2 Ir0 2.706305 1_545
Bi2 Ir3 2.706305 1_656
Bi2 Ir1 2.706305 1_555
Bi3 S3 2.659678 1_555
Bi3 Ir1 2.706305 1_455
Bi3 Ir2 2.706305 1_554
Bi3 Ir0 2.706305 1_545
Ir0 S2 2.471544 1_555
Ir0 S3 2.471544 1_555
Ir0 S1 2.471544 1_565
Ir1 S3 2.471544 1_555
Ir1 S0 2.471544 1_555
Ir1 S2 2.471544 1_655
Ir2 S1 2.471544 1_555
Ir2 S3 2.471544 1_555
Ir2 S0 2.471544 1_556
Ir3 S0 2.471544 1_455
Ir3 S2 2.471544 1_545
Ir3 S1 2.471544 1_554
