# generated using pymatgen
data_Ho2Ge5Rh3
_symmetry_space_group_name_H-M   'P 1'
_cell_length_a   8.26711531
_cell_length_b   8.26711531
_cell_length_c   5.84760734
_cell_angle_alpha   70.96850891
_cell_angle_beta   70.96850891
_cell_angle_gamma   93.53762069
_symmetry_Int_Tables_number   1
_chemical_formula_structural   Ho2Ge5Rh3
_chemical_formula_sum   'Ho4 Ge10 Rh6'
_cell_volume   350.78854142
_cell_formula_units_Z   2
loop_
 _symmetry_equiv_pos_site_id
 _symmetry_equiv_pos_as_xyz
  1  'x, y, z'
loop_
 _atom_site_type_symbol
 _atom_site_label
 _atom_site_symmetry_multiplicity
 _atom_site_fract_x
 _atom_site_fract_y
 _atom_site_fract_z
 _atom_site_occupancy
  Ho  Ho0  1  0.09238991  0.36783872  0.76673885  1
  Ho  Ho1  1  0.63216128  0.90761009  0.73326115  1
  Ho  Ho2  1  0.90761009  0.63216128  0.23326115  1
  Ho  Ho3  1  0.36783872  0.09238991  0.26673885  1
  Ge  Ge0  1  0.98923270  0.01076730  0.75000000  1
  Ge  Ge1  1  0.01076730  0.98923270  0.25000000  1
  Ge  Ge2  1  0.29055566  0.70944434  0.75000000  1
  Ge  Ge3  1  0.70944434  0.29055566  0.25000000  1
  Ge  Ge4  1  0.72252678  0.27747322  0.75000000  1
  Ge  Ge5  1  0.27747322  0.72252678  0.25000000  1
  Ge  Ge6  1  0.76419556  0.57174981  0.83212163  1
  Ge  Ge7  1  0.57174981  0.76419556  0.33212163  1
  Ge  Ge8  1  0.23580444  0.42825019  0.16787837  1
  Ge  Ge9  1  0.42825019  0.23580444  0.66787837  1
  Rh  Rh0  1  0.75837955  0.04266003  0.12176835  1
  Rh  Rh1  1  0.50198042  0.49801958  0.25000000  1
  Rh  Rh2  1  0.04266003  0.75837955  0.62176835  1
  Rh  Rh3  1  0.24162045  0.95733997  0.87823165  1
  Rh  Rh4  1  0.95733997  0.24162045  0.37823165  1
  Rh  Rh5  1  0.49801958  0.50198042  0.75000000  1
loop_
_geom_bond_atom_site_label_1
_geom_bond_atom_site_label_2
_geom_bond_distance
_geom_bond_site_symmetry_2
Ho0 Rh2 3.149271 1_555
Ho0 Rh4 3.152880 1_456
Ho0 Rh4 3.248544 1_455
Ho0 Rh0 3.296535 1_456
Ho0 Rh5 3.426485 1_555
Ho0 Rh1 3.537114 1_555
Ho1 Rh3 3.149271 1_555
Ho1 Rh0 3.152880 1_565
Ho1 Rh0 3.248544 1_566
Ho1 Rh4 3.296535 1_565
Ho1 Rh5 3.426485 1_555
Ho1 Rh1 3.537114 1_556
Ho2 Rh4 3.149271 1_555
Ho2 Rh2 3.152880 1_654
Ho2 Rh2 3.248544 1_655
Ho2 Rh3 3.296535 1_654
Ho2 Rh1 3.426485 1_555
Ho2 Rh5 3.537114 1_555
Ho3 Rh0 3.149271 1_555
Ho3 Rh3 3.152880 1_545
Ho3 Rh3 3.248544 1_544
Ho3 Rh2 3.296535 1_545
Ho3 Rh1 3.426485 1_555
Ho3 Rh5 3.537114 1_554
Ge0 Rh2 2.455408 1_645
Ge0 Rh3 2.455408 1_645
Ge0 Rh0 2.483544 1_556
Ge0 Rh4 2.483544 1_555
Ge0 Ho1 3.063183 1_545
Ge0 Ho0 3.063183 1_655
Ge0 Ho2 3.311363 1_546
Ge0 Ho3 3.311363 1_655
Ge1 Rh0 2.455408 1_465
Ge1 Rh4 2.455408 1_465
Ge1 Rh2 2.483544 1_555
Ge1 Rh3 2.483544 1_554
Ge1 Ho2 3.063183 1_455
Ge1 Ho3 3.063183 1_565
Ge1 Ho0 3.311363 1_564
Ge1 Ho1 3.311363 1_455
Ge2 Rh2 2.415076 1_555
Ge2 Rh3 2.415076 1_555
Ge2 Rh5 2.499271 1_555
Ge2 Ge7 2.650316 1_555
Ge2 Ge8 2.650316 1_556
Ge2 Ge5 2.928048 1_555
Ge2 Ge5 2.928048 1_556
Ge2 Ho0 3.132596 1_555
Ge2 Ho1 3.132596 1_555
Ge2 Ho2 3.339894 1_456
Ge2 Ho3 3.339894 1_565
Ge3 Rh0 2.415076 1_555
Ge3 Rh4 2.415076 1_555
Ge3 Rh1 2.499271 1_555
Ge3 Ge6 2.650316 1_554
Ge3 Ge9 2.650316 1_555
Ge3 Ge4 2.928048 1_554
Ge3 Ge4 2.928048 1_555
Ge3 Ho3 3.132596 1_555
Ge3 Ho2 3.132596 1_555
Ge3 Ho1 3.339894 1_545
Ge3 Ho0 3.339894 1_654
Ge4 Rh0 2.514213 1_556
Ge4 Rh4 2.514213 1_555
Ge4 Ge6 2.652219 1_555
Ge4 Ge9 2.652219 1_555
Ge4 Rh5 2.704587 1_555
Ge4 Ho1 3.142961 1_545
Ge4 Ho0 3.142961 1_655
Ge4 Ho2 3.274503 1_555
Ge4 Ho3 3.274503 1_556
Ge5 Rh3 2.514213 1_554
Ge5 Rh2 2.514213 1_555
Ge5 Ge7 2.652219 1_555
Ge5 Ge8 2.652219 1_555
Ge5 Rh1 2.704587 1_555
Ge5 Ho2 3.142961 1_455
Ge5 Ho3 3.142961 1_565
Ge5 Ho1 3.274503 1_554
Ge5 Ho0 3.274503 1_555
Ge6 Rh2 2.381255 1_655
Ge6 Rh5 2.473601 1_555
Ge6 Rh1 2.540227 1_556
Ge6 Ho1 2.995641 1_555
Ge6 Ho2 3.108410 1_556
Ge6 Ho2 3.161796 1_555
Ge6 Ho0 3.264624 1_655
Ge7 Rh0 2.381255 1_565
Ge7 Rh1 2.473601 1_555
Ge7 Rh5 2.540227 1_555
Ge7 Ho2 2.995641 1_555
Ge7 Ho1 3.108410 1_555
Ge7 Ho1 3.161796 1_554
Ge7 Ho3 3.264624 1_565
Ge8 Rh4 2.381255 1_455
Ge8 Rh1 2.473601 1_555
Ge8 Rh5 2.540227 1_554
Ge8 Ho3 2.995641 1_555
Ge8 Ho0 3.108410 1_554
Ge8 Ho0 3.161796 1_555
Ge8 Ho2 3.264624 1_455
Ge9 Rh3 2.381255 1_545
Ge9 Rh5 2.473601 1_555
Ge9 Rh1 2.540227 1_555
Ge9 Ho0 2.995641 1_555
Ge9 Ho3 3.108410 1_555
Ge9 Ho3 3.161796 1_556
Ge9 Ho1 3.264624 1_545
