# generated using pymatgen
data_La5P12Ru19
_symmetry_space_group_name_H-M   'P 1'
_cell_length_a   12.69238625
_cell_length_b   12.69238625
_cell_length_c   4.03490300
_cell_angle_alpha   90.00000000
_cell_angle_beta   90.00000000
_cell_angle_gamma   120.00000131
_symmetry_Int_Tables_number   1
_chemical_formula_structural   La5P12Ru19
_chemical_formula_sum   'La5 P12 Ru19'
_cell_volume   562.92467337
_cell_formula_units_Z   1
loop_
 _symmetry_equiv_pos_site_id
 _symmetry_equiv_pos_as_xyz
  1  'x, y, z'
loop_
 _atom_site_type_symbol
 _atom_site_label
 _atom_site_symmetry_multiplicity
 _atom_site_fract_x
 _atom_site_fract_y
 _atom_site_fract_z
 _atom_site_occupancy
  La  La0  1  0.18357500  0.18357500  0.50000000  1
  La  La1  1  0.81642500  0.00000000  0.50000000  1
  La  La2  1  0.00000000  0.81642500  0.50000000  1
  La  La3  1  0.33333300  0.66666700  0.00000000  1
  La  La4  1  0.66666700  0.33333300  0.00000000  1
  P  P0  1  0.81152400  0.81152400  0.00000000  1
  P  P1  1  0.18847600  0.00000000  0.00000000  1
  P  P2  1  0.00000000  0.18847600  0.00000000  1
  P  P3  1  0.16905500  0.47493900  0.50000000  1
  P  P4  1  0.52506100  0.69411500  0.50000000  1
  P  P5  1  0.30588500  0.83094500  0.50000000  1
  P  P6  1  0.69411500  0.52506100  0.50000000  1
  P  P7  1  0.83094500  0.30588500  0.50000000  1
  P  P8  1  0.47493900  0.16905500  0.50000000  1
  P  P9  1  0.37585800  0.37585800  0.00000000  1
  P  P10  1  0.62414200  0.00000000  0.00000000  1
  P  P11  1  0.00000000  0.62414200  0.00000000  1
  Ru  Ru0  1  0.55485500  0.55485500  0.00000000  1
  Ru  Ru1  1  0.44514500  0.00000000  0.00000000  1
  Ru  Ru2  1  0.00000000  0.44514500  0.00000000  1
  Ru  Ru3  1  0.71469100  0.71469100  0.50000000  1
  Ru  Ru4  1  0.28530900  0.00000000  0.50000000  1
  Ru  Ru5  1  0.00000000  0.28530900  0.50000000  1
  Ru  Ru6  1  0.18424600  0.37826100  0.00000000  1
  Ru  Ru7  1  0.62173900  0.80598500  0.00000000  1
  Ru  Ru8  1  0.19401500  0.81575400  0.00000000  1
  Ru  Ru9  1  0.80598500  0.62173900  0.00000000  1
  Ru  Ru10  1  0.81575400  0.19401500  0.00000000  1
  Ru  Ru11  1  0.37826100  0.18424600  0.00000000  1
  Ru  Ru12  1  0.36605600  0.49065500  0.50000000  1
  Ru  Ru13  1  0.50934500  0.87540200  0.50000000  1
  Ru  Ru14  1  0.12459800  0.63394400  0.50000000  1
  Ru  Ru15  1  0.87540200  0.50934500  0.50000000  1
  Ru  Ru16  1  0.63394400  0.12459800  0.50000000  1
  Ru  Ru17  1  0.49065500  0.36605600  0.50000000  1
  Ru  Ru18  1  0.00000000  0.00000000  0.00000000  1
loop_
_geom_bond_atom_site_label_1
_geom_bond_atom_site_label_2
_geom_bond_distance
_geom_bond_site_symmetry_2
La0 Ru18 3.082050 1_555
La0 Ru18 3.082050 1_556
La0 P2 3.106097 1_556
La0 P1 3.106097 1_555
La0 P2 3.106097 1_555
La0 P1 3.106097 1_556
La0 P9 3.166433 1_556
La0 P9 3.166433 1_555
La0 Ru4 3.178813 1_555
La0 Ru5 3.178813 1_555
La0 Ru11 3.186711 1_555
La0 Ru6 3.186711 1_556
La0 Ru11 3.186711 1_556
La0 Ru6 3.186711 1_555
La0 Ru12 3.395330 1_555
La0 Ru17 3.395330 1_555
La1 Ru18 3.082050 1_655
La1 Ru18 3.082050 1_656
La1 P2 3.106097 1_655
La1 P2 3.106097 1_656
La1 P0 3.106097 1_546
La1 P0 3.106097 1_545
La1 P10 3.166433 1_555
La1 P10 3.166433 1_556
La1 Ru5 3.178813 1_655
La1 Ru3 3.178813 1_545
La1 Ru7 3.186711 1_546
La1 Ru7 3.186711 1_545
La1 Ru10 3.186711 1_556
La1 Ru10 3.186711 1_555
La1 Ru16 3.395320 1_555
La1 Ru13 3.395332 1_545
La2 Ru18 3.082050 1_566
La2 Ru18 3.082050 1_565
La2 P1 3.106097 1_565
La2 P1 3.106097 1_566
La2 P0 3.106097 1_455
La2 P0 3.106097 1_456
La2 P11 3.166433 1_556
La2 P11 3.166433 1_555
La2 Ru4 3.178813 1_565
La2 Ru3 3.178813 1_455
La2 Ru9 3.186711 1_456
La2 Ru9 3.186711 1_455
La2 Ru8 3.186711 1_555
La2 Ru8 3.186711 1_556
La2 Ru14 3.395320 1_555
La2 Ru15 3.395332 1_455
La3 P5 3.043918 1_555
La3 P5 3.043918 1_554
La3 P3 3.043930 1_555
La3 P3 3.043930 1_554
La3 P4 3.043937 1_554
La3 P4 3.043937 1_555
La3 Ru8 3.170733 1_555
La3 Ru6 3.170744 1_555
La3 Ru7 3.170744 1_555
La3 Ru13 3.187677 1_554
La3 Ru13 3.187677 1_555
La3 Ru14 3.187677 1_554
La3 Ru14 3.187677 1_555
La3 Ru12 3.187677 1_555
La3 Ru12 3.187677 1_554
La4 P7 3.043918 1_554
La4 P7 3.043918 1_555
La4 P8 3.043930 1_554
La4 P8 3.043930 1_555
La4 P6 3.043937 1_555
La4 P6 3.043937 1_554
La4 Ru10 3.170733 1_555
La4 Ru11 3.170744 1_555
La4 Ru9 3.170744 1_555
La4 Ru15 3.187677 1_555
La4 Ru15 3.187677 1_554
La4 Ru16 3.187677 1_555
La4 Ru16 3.187677 1_554
La4 Ru17 3.187677 1_554
La4 Ru17 3.187677 1_555
P0 Ru3 2.362341 1_554
P0 Ru3 2.362341 1_555
P0 Ru9 2.374454 1_555
P0 Ru7 2.374454 1_555
P0 Ru18 2.392210 1_665
P1 Ru4 2.362341 1_555
P1 Ru4 2.362341 1_554
P1 Ru11 2.374454 1_555
P1 Ru8 2.374454 1_545
P1 Ru18 2.392210 1_555
P2 Ru5 2.362341 1_555
P2 Ru5 2.362341 1_554
P2 Ru6 2.374454 1_555
P2 Ru10 2.374454 1_455
P2 Ru18 2.392210 1_555
P3 Ru5 2.287492 1_555
P3 Ru14 2.351619 1_555
P3 Ru12 2.406883 1_555
P3 Ru6 2.418593 1_555
P3 Ru6 2.418593 1_556
P3 Ru2 2.829448 1_556
P3 Ru2 2.829448 1_555
P4 Ru3 2.287486 1_555
P4 Ru12 2.351602 1_555
P4 Ru13 2.406909 1_555
P4 Ru7 2.418597 1_555
P4 Ru7 2.418597 1_556
P4 Ru0 2.829439 1_556
P4 Ru0 2.829439 1_555
P5 Ru4 2.287499 1_565
P5 Ru13 2.351594 1_555
P5 Ru14 2.406894 1_555
P5 Ru8 2.418600 1_555
P5 Ru8 2.418600 1_556
P5 Ru1 2.829445 1_566
P5 Ru1 2.829445 1_565
P6 Ru3 2.287486 1_555
P6 Ru17 2.351602 1_555
P6 Ru15 2.406909 1_555
P6 Ru9 2.418597 1_555
P6 Ru9 2.418597 1_556
P6 Ru0 2.829439 1_556
P6 Ru0 2.829439 1_555
P7 Ru5 2.287499 1_655
P7 Ru15 2.351594 1_555
P7 Ru16 2.406894 1_555
P7 Ru10 2.418600 1_556
P7 Ru10 2.418600 1_555
P7 Ru2 2.829445 1_655
P7 Ru2 2.829445 1_656
P8 Ru4 2.287492 1_555
P8 Ru16 2.351619 1_555
P8 Ru17 2.406883 1_555
P8 Ru11 2.418593 1_556
P8 Ru11 2.418593 1_555
P8 Ru1 2.829448 1_555
P8 Ru1 2.829448 1_556
P9 Ru0 2.271899 1_555
P9 Ru6 2.447406 1_555
P9 Ru11 2.447406 1_555
P9 Ru12 2.527815 1_555
P9 Ru12 2.527815 1_554
P9 Ru17 2.527815 1_555
P9 Ru17 2.527815 1_554
P10 Ru1 2.271899 1_555
P10 Ru10 2.447406 1_555
P10 Ru7 2.447406 1_545
P10 Ru16 2.527808 1_554
P10 Ru16 2.527808 1_555
P10 Ru13 2.527811 1_544
P10 Ru13 2.527811 1_545
P11 Ru2 2.271899 1_555
P11 Ru8 2.447406 1_555
P11 Ru9 2.447406 1_455
P11 Ru14 2.527808 1_555
P11 Ru14 2.527808 1_554
P11 Ru15 2.527811 1_454
P11 Ru15 2.527811 1_455
Ru0 Ru7 2.859118 1_555
Ru0 Ru9 2.859118 1_555
Ru0 Ru17 2.919548 1_554
Ru0 Ru12 2.919548 1_555
Ru0 Ru12 2.919548 1_554
Ru0 Ru17 2.919548 1_555
Ru1 Ru8 2.859118 1_545
Ru1 Ru11 2.859118 1_555
Ru1 Ru13 2.919539 1_544
Ru1 Ru13 2.919539 1_545
Ru1 Ru16 2.919546 1_555
Ru1 Ru16 2.919546 1_554
Ru2 Ru6 2.859118 1_555
Ru3 Ru7 2.858624 1_556
Ru3 Ru9 2.858624 1_555
Ru3 Ru9 2.858624 1_556
Ru3 Ru7 2.858624 1_555
Ru4 Ru8 2.858624 1_546
Ru4 Ru8 2.858624 1_545
Ru5 Ru6 2.858624 1_555
Ru5 Ru6 2.858624 1_556
Ru10 Ru16 2.852765 1_554
Ru10 Ru16 2.852765 1_555
Ru10 Ru5 2.858624 1_654
Ru10 Ru5 2.858624 1_655
Ru10 Ru2 2.859118 1_655
Ru11 Ru17 2.852766 1_554
Ru11 Ru17 2.852766 1_555
Ru11 Ru4 2.858624 1_554
Ru11 Ru4 2.858624 1_555
Ru12 Ru17 2.739167 1_555
Ru12 Ru6 2.852766 1_556
Ru12 Ru6 2.852766 1_555
Ru13 Ru16 2.739145 1_565
Ru13 Ru7 2.852773 1_555
Ru13 Ru7 2.852773 1_556
Ru14 Ru15 2.739145 1_455
Ru14 Ru8 2.852765 1_555
Ru14 Ru8 2.852765 1_556
Ru14 Ru2 2.919546 1_556
Ru14 Ru2 2.919546 1_555
Ru15 Ru9 2.852773 1_555
Ru15 Ru9 2.852773 1_556
Ru15 Ru2 2.919539 1_655
Ru15 Ru2 2.919539 1_656
