# generated using pymatgen
data_LiMn2O4
_symmetry_space_group_name_H-M   'P 1'
_cell_length_a   8.38554304
_cell_length_b   13.32410980
_cell_length_c   13.35239711
_cell_angle_alpha   84.32929782
_cell_angle_beta   71.69900768
_cell_angle_gamma   71.65877210
_symmetry_Int_Tables_number   1
_chemical_formula_structural   LiMn2O4
_chemical_formula_sum   'Li18 Mn36 O72'
_cell_volume   1344.44932113
_cell_formula_units_Z   18
loop_
 _symmetry_equiv_pos_site_id
 _symmetry_equiv_pos_as_xyz
  1  'x, y, z'
loop_
 _atom_site_type_symbol
 _atom_site_label
 _atom_site_symmetry_multiplicity
 _atom_site_fract_x
 _atom_site_fract_y
 _atom_site_fract_z
 _atom_site_occupancy
  Li  Li0  1  0.12500000  0.75000000  0.75000000  1
  Li  Li1  1  0.87500000  0.25000000  0.25000000  1
  Li  Li2  1  0.46139306  0.75000000  0.07721387  1
  Li  Li3  1  0.78860694  0.75000000  0.42278613  1
  Li  Li4  1  0.53860694  0.25000000  0.92278613  1
  Li  Li5  1  0.21139306  0.25000000  0.57721387  1
  Li  Li6  1  0.45571231  0.08857537  0.75000000  1
  Li  Li7  1  0.79428769  0.41142463  0.75000000  1
  Li  Li8  1  0.54428769  0.91142463  0.25000000  1
  Li  Li9  1  0.20571231  0.58857537  0.25000000  1
  Li  Li10  1  0.79344566  0.08398750  0.09078847  1
  Li  Li11  1  0.12256685  0.08398750  0.40921153  1
  Li  Li12  1  0.11576587  0.41601250  0.09078847  1
  Li  Li13  1  0.46822162  0.41601250  0.40921153  1
  Li  Li14  1  0.20655434  0.91601250  0.90921153  1
  Li  Li15  1  0.87743315  0.91601250  0.59078847  1
  Li  Li16  1  0.88423413  0.58398750  0.90921153  1
  Li  Li17  1  0.53177838  0.58398750  0.59078847  1
  Mn  Mn0  1  0.50000000  0.00000000  0.00000000  1
  Mn  Mn1  1  0.50000000  0.00000000  0.50000000  1
  Mn  Mn2  1  0.50000000  0.50000000  0.00000000  1
  Mn  Mn3  1  -0.00000000  0.50000000  0.50000000  1
  Mn  Mn4  1  0.83353582  0.66239703  0.66955541  1
  Mn  Mn5  1  0.50406715  0.66239703  0.83044459  1
  Mn  Mn6  1  0.49690877  0.83760297  0.66955541  1
  Mn  Mn7  1  0.66548826  0.83760297  0.83044459  1
  Mn  Mn8  1  0.16646418  0.33760297  0.33044459  1
  Mn  Mn9  1  0.49593285  0.33760297  0.16955541  1
  Mn  Mn10  1  0.50309123  0.16239703  0.33044459  1
  Mn  Mn11  1  0.33451174  0.16239703  0.16955541  1
  Mn  Mn12  1  0.83594440  0.66710395  0.16094254  1
  Mn  Mn13  1  0.49695165  0.66710395  0.33905746  1
  Mn  Mn14  1  0.00311306  0.83289605  0.16094254  1
  Mn  Mn15  1  0.16399089  0.83289605  0.33905746  1
  Mn  Mn16  1  0.16405560  0.33289605  0.83905746  1
  Mn  Mn17  1  0.50304835  0.33289605  0.66094254  1
  Mn  Mn18  1  0.99688694  0.16710395  0.83905746  1
  Mn  Mn19  1  0.83600911  0.16710395  0.66094254  1
  Mn  Mn20  1  0.83432457  0.00479932  0.83588542  1
  Mn  Mn21  1  0.16087611  0.00479932  0.66411458  1
  Mn  Mn22  1  0.32979001  0.49520068  0.83588542  1
  Mn  Mn23  1  0.17500931  0.49520068  0.66411458  1
  Mn  Mn24  1  0.16567543  0.99520068  0.16411458  1
  Mn  Mn25  1  0.83912389  0.99520068  0.33588542  1
  Mn  Mn26  1  0.67020999  0.50479932  0.16411458  1
  Mn  Mn27  1  0.82499069  0.50479932  0.33588542  1
  Mn  Mn28  1  0.84349058  0.83386277  0.99051074  1
  Mn  Mn29  1  0.32264666  0.83386277  0.50948926  1
  Mn  Mn30  1  0.16599868  0.66613723  0.99051074  1
  Mn  Mn31  1  0.16786409  0.66613723  0.50948926  1
  Mn  Mn32  1  0.15650942  0.16613723  0.00948926  1
  Mn  Mn33  1  0.67735334  0.16613723  0.49051074  1
  Mn  Mn34  1  0.83400132  0.33386277  0.00948926  1
  Mn  Mn35  1  0.83213591  0.33386277  0.49051074  1
  O  O0  1  0.89568713  0.84854074  0.83735498  1
  O  O1  1  0.25577213  0.84854074  0.66264502  1
  O  O2  1  0.26695789  0.65145926  0.83735498  1
  O  O3  1  0.08158286  0.65145926  0.66264502  1
  O  O4  1  0.10431287  0.15145926  0.16264502  1
  O  O5  1  0.74422787  0.15145926  0.33735498  1
  O  O6  1  0.73304211  0.34854074  0.16264502  1
  O  O7  1  0.91841714  0.34854074  0.33735498  1
  O  O8  1  0.93582867  0.65657519  0.51400459  1
  O  O9  1  0.40759614  0.65657519  0.98599541  1
  O  O10  1  0.55016674  0.84342481  0.51400459  1
  O  O11  1  0.60640845  0.84342481  0.98599541  1
  O  O12  1  0.06417133  0.34342481  0.48599541  1
  O  O13  1  0.59240386  0.34342481  0.01400459  1
  O  O14  1  0.44983326  0.15657519  0.48599541  1
  O  O15  1  0.39359155  0.15657519  0.01400459  1
  O  O16  1  0.60891648  0.65647425  0.16397941  1
  O  O17  1  0.73460927  0.65647425  0.33602059  1
  O  O18  1  0.22710411  0.84352575  0.16397941  1
  O  O19  1  0.92937014  0.84352575  0.33602059  1
  O  O20  1  0.39108352  0.34352575  0.83602059  1
  O  O21  1  0.26539073  0.34352575  0.66397941  1
  O  O22  1  0.77289589  0.15647425  0.83602059  1
  O  O23  1  0.07062986  0.15647425  0.66397941  1
  O  O24  1  0.59900946  0.00561017  0.84603126  1
  O  O25  1  0.39538037  0.00561017  0.65396874  1
  O  O26  1  0.55495928  0.49438983  0.84603126  1
  O  O27  1  0.95065089  0.49438983  0.65396874  1
  O  O28  1  0.40099054  0.99438983  0.15396874  1
  O  O29  1  0.60461963  0.99438983  0.34603126  1
  O  O30  1  0.44504072  0.50561017  0.15396874  1
  O  O31  1  0.04934911  0.50561017  0.34603126  1
  O  O32  1  0.24998607  0.51293787  0.51289826  1
  O  O33  1  0.23707606  0.51293787  0.98710174  1
  O  O34  1  0.23711567  0.98706213  0.51289826  1
  O  O35  1  0.77582220  0.98706213  0.98710174  1
  O  O36  1  0.75001393  0.48706213  0.48710174  1
  O  O37  1  0.76292394  0.48706213  0.01289826  1
  O  O38  1  0.76288433  0.01293787  0.48710174  1
  O  O39  1  0.22417780  0.01293787  0.01289826  1
  O  O40  1  0.91633204  0.01009710  0.68118508  1
  O  O41  1  0.07357086  0.01009710  0.81881492  1
  O  O42  1  0.40248288  0.48990290  0.68118508  1
  O  O43  1  0.10761422  0.48990290  0.81881492  1
  O  O44  1  0.08366796  0.98990290  0.31881492  1
  O  O45  1  0.92642914  0.98990290  0.18118508  1
  O  O46  1  0.59751712  0.51009710  0.31881492  1
  O  O47  1  0.89238578  0.51009710  0.18118508  1
  O  O48  1  0.77950885  0.82591525  0.14595540  1
  O  O49  1  0.39457589  0.82591525  0.35404460  1
  O  O50  1  0.07453574  0.67408475  0.14595540  1
  O  O51  1  0.25137951  0.67408475  0.35404460  1
  O  O52  1  0.22049115  0.17408475  0.85404460  1
  O  O53  1  0.60542411  0.17408475  0.64595540  1
  O  O54  1  0.92546426  0.32591525  0.85404460  1
  O  O55  1  0.74862049  0.32591525  0.64595540  1
  O  O56  1  0.93035040  0.68144658  0.98925239  1
  O  O57  1  0.38820302  0.68144658  0.51074761  1
  O  O58  1  0.08039721  0.81855342  0.98925239  1
  O  O59  1  0.10104938  0.81855342  0.51074761  1
  O  O60  1  0.06964960  0.31855342  0.01074761  1
  O  O61  1  0.61179698  0.31855342  0.48925239  1
  O  O62  1  0.91960279  0.18144658  0.01074761  1
  O  O63  1  0.89895062  0.18144658  0.48925239  1
  O  O64  1  0.73872725  0.66808399  0.82262577  1
  O  O65  1  0.59318876  0.66808399  0.67737423  1
  O  O66  1  0.43864698  0.83191601  0.82262577  1
  O  O67  1  0.72943701  0.83191601  0.67737423  1
  O  O68  1  0.26127275  0.33191601  0.17737423  1
  O  O69  1  0.40681124  0.33191601  0.32262577  1
  O  O70  1  0.56135302  0.16808399  0.17737423  1
  O  O71  1  0.27056299  0.16808399  0.32262577  1
loop_
_geom_bond_atom_site_label_1
_geom_bond_atom_site_label_2
_geom_bond_distance
_geom_bond_site_symmetry_2
Li0 O3 2.021658 1_555
Li0 O2 2.021658 1_555
Li0 O1 2.021658 1_555
Li0 O0 2.021658 1_455
Li1 O7 2.021658 1_555
Li1 O5 2.021658 1_555
Li1 O6 2.021658 1_555
Li1 O4 2.021658 1_655
Li2 O18 2.017415 1_555
Li2 O16 2.017415 1_555
Li2 O9 2.057822 1_554
Li2 O11 2.057822 1_554
Li3 O19 2.017415 1_555
Li3 O17 2.017415 1_555
Li3 O8 2.057822 1_555
Li3 O10 2.057822 1_555
Li4 O22 2.017415 1_555
Li4 O20 2.017415 1_555
Li4 O13 2.057822 1_556
Li4 O15 2.057822 1_556
Li5 O23 2.017415 1_555
Li5 O21 2.017415 1_555
Li5 O12 2.057822 1_555
Li5 O14 2.057822 1_555
Li6 O25 2.039998 1_555
Li6 O24 2.039998 1_555
Li6 O52 2.072735 1_555
Li6 O53 2.072735 1_555
Li7 O27 2.039998 1_555
Li7 O26 2.039998 1_555
Li7 O54 2.072735 1_555
Li7 O55 2.072735 1_555
Li8 O29 2.039998 1_555
Li8 O28 2.039998 1_555
Li8 O48 2.072735 1_555
Li8 O49 2.072735 1_555
Li9 O31 2.039998 1_555
Li9 O30 2.039998 1_555
Li9 O50 2.072735 1_555
Li9 O51 2.072735 1_555
Li10 O62 1.956488 1_555
Li10 O70 1.962246 1_555
Li10 O45 1.984540 1_545
Li10 O35 2.051429 1_544
Li11 O63 1.956488 1_455
Li11 O71 1.962246 1_555
Li11 O44 1.984540 1_545
Li11 O34 2.051429 1_545
Li12 O60 1.956488 1_555
Li12 O68 1.962246 1_555
Li12 O47 1.984540 1_455
Li12 O33 2.051429 1_554
Li13 O61 1.956488 1_555
Li13 O69 1.962246 1_555
Li13 O46 1.984540 1_555
Li13 O32 2.051429 1_555
Li14 O58 1.956488 1_555
Li14 O66 1.962246 1_555
Li14 O41 1.984540 1_565
Li14 O39 2.051429 1_566
Li15 O59 1.956488 1_655
Li15 O67 1.962246 1_555
Li15 O40 1.984540 1_565
Li15 O38 2.051429 1_565
Li16 O56 1.956488 1_555
Li16 O64 1.962246 1_555
Li16 O43 1.984540 1_655
Li16 O37 2.051429 1_556
Li17 O57 1.956488 1_555
Li17 O65 1.962246 1_555
Li17 O42 1.984540 1_555
Li17 O36 2.051429 1_555
Mn0 O28 1.964223 1_545
Mn0 O24 1.964223 1_554
Mn0 O11 1.996057 1_544
Mn0 O15 1.996057 1_555
Mn0 O35 2.216697 1_544
Mn0 O39 2.216697 1_555
Mn1 O29 1.964223 1_545
Mn1 O25 1.964223 1_555
Mn1 O10 1.996057 1_545
Mn1 O14 1.996057 1_555
Mn1 O34 2.216697 1_545
Mn1 O38 2.216697 1_555
Mn2 O30 1.964223 1_555
Mn2 O26 1.964223 1_554
Mn2 O13 1.996057 1_555
Mn2 O9 1.996057 1_554
Mn2 O37 2.216697 1_555
Mn2 O33 2.216697 1_554
Mn3 O31 1.964223 1_555
Mn3 O27 1.964223 1_455
Mn3 O12 1.996057 1_555
Mn3 O8 1.996057 1_455
Mn3 O36 2.216697 1_455
Mn3 O32 2.216697 1_555
Mn4 O64 1.946117 1_555
Mn4 O65 1.962639 1_555
Mn4 O8 1.981597 1_555
Mn4 O3 2.011850 1_655
Mn4 O27 2.144529 1_555
Mn4 O67 2.150133 1_555
Mn5 O65 1.946117 1_555
Mn5 O64 1.962639 1_555
Mn5 O9 1.981597 1_555
Mn5 O2 2.011850 1_555
Mn5 O26 2.144529 1_555
Mn5 O66 2.150133 1_555
Mn6 O66 1.946117 1_555
Mn6 O67 1.962639 1_555
Mn6 O10 1.981597 1_555
Mn6 O1 2.011850 1_555
Mn6 O25 2.144529 1_565
Mn6 O65 2.150133 1_555
Mn7 O67 1.946117 1_555
Mn7 O66 1.962639 1_555
Mn7 O11 1.981597 1_555
Mn7 O0 2.011850 1_555
Mn7 O24 2.144529 1_565
Mn7 O64 2.150133 1_555
Mn8 O68 1.946117 1_555
Mn8 O69 1.962639 1_555
Mn8 O12 1.981597 1_555
Mn8 O7 2.011850 1_455
Mn8 O31 2.144529 1_555
Mn8 O71 2.150133 1_555
Mn9 O69 1.946117 1_555
Mn9 O68 1.962639 1_555
Mn9 O13 1.981597 1_555
Mn9 O6 2.011850 1_555
Mn9 O30 2.144529 1_555
Mn9 O70 2.150133 1_555
Mn10 O70 1.946117 1_555
Mn10 O71 1.962639 1_555
Mn10 O14 1.981597 1_555
Mn10 O5 2.011850 1_555
Mn10 O29 2.144529 1_545
Mn10 O69 2.150133 1_555
Mn11 O71 1.946117 1_555
Mn11 O70 1.962639 1_555
Mn11 O15 1.981597 1_555
Mn11 O4 2.011850 1_555
Mn11 O28 2.144529 1_545
Mn11 O68 2.150133 1_555
Mn12 O16 1.940632 1_555
Mn12 O50 1.978274 1_655
Mn12 O47 2.004718 1_555
Mn12 O48 2.021660 1_555
Mn12 O56 2.188048 1_554
Mn12 O17 2.229306 1_555
Mn13 O17 1.940632 1_555
Mn13 O51 1.978274 1_555
Mn13 O46 2.004718 1_555
Mn13 O49 2.021660 1_555
Mn13 O57 2.188048 1_555
Mn13 O16 2.229306 1_555
Mn14 O18 1.940632 1_555
Mn14 O48 1.978274 1_455
Mn14 O45 2.004718 1_455
Mn14 O50 2.021660 1_555
Mn14 O58 2.188048 1_554
Mn14 O19 2.229306 1_455
Mn15 O19 1.940632 1_455
Mn15 O49 1.978274 1_555
Mn15 O44 2.004718 1_555
Mn15 O51 2.021660 1_555
Mn15 O59 2.188048 1_555
Mn15 O18 2.229306 1_555
Mn16 O20 1.940632 1_555
Mn16 O54 1.978274 1_455
Mn16 O43 2.004718 1_555
Mn16 O52 2.021660 1_555
Mn16 O60 2.188048 1_556
Mn16 O21 2.229306 1_555
Mn17 O21 1.940632 1_555
Mn17 O55 1.978274 1_555
Mn17 O42 2.004718 1_555
Mn17 O53 2.021660 1_555
Mn17 O61 2.188048 1_555
Mn17 O20 2.229306 1_555
Mn18 O22 1.940632 1_555
Mn18 O52 1.978274 1_655
Mn18 O41 2.004718 1_655
Mn18 O54 2.021660 1_555
Mn18 O62 2.188048 1_556
Mn18 O23 2.229306 1_655
Mn19 O23 1.940632 1_655
Mn19 O53 1.978274 1_555
Mn19 O40 2.004718 1_555
Mn19 O55 2.021660 1_555
Mn19 O63 2.188048 1_555
Mn19 O22 2.229306 1_555
Mn20 O22 1.922106 1_555
Mn20 O35 1.931291 1_545
Mn20 O24 1.931620 1_555
Mn20 O40 1.963242 1_555
Mn20 O41 1.969919 1_655
Mn20 O0 1.980894 1_545
Mn21 O23 1.922106 1_555
Mn21 O34 1.931291 1_545
Mn21 O25 1.931620 1_555
Mn21 O41 1.963242 1_555
Mn21 O40 1.969919 1_455
Mn21 O1 1.980894 1_545
Mn22 O20 1.922106 1_555
Mn22 O33 1.931291 1_555
Mn22 O26 1.931620 1_555
Mn22 O42 1.963242 1_555
Mn22 O43 1.969919 1_555
Mn22 O2 1.980894 1_555
Mn23 O21 1.922106 1_555
Mn23 O32 1.931291 1_555
Mn23 O27 1.931620 1_455
Mn23 O43 1.963242 1_555
Mn23 O42 1.969919 1_555
Mn23 O3 1.980894 1_555
Mn24 O18 1.922106 1_555
Mn24 O39 1.931291 1_565
Mn24 O28 1.931620 1_555
Mn24 O44 1.963242 1_555
Mn24 O45 1.969919 1_455
Mn24 O4 1.980894 1_565
Mn25 O19 1.922106 1_555
Mn25 O38 1.931291 1_565
Mn25 O29 1.931620 1_555
Mn25 O45 1.963242 1_555
Mn25 O44 1.969919 1_655
Mn25 O5 1.980894 1_565
Mn26 O16 1.922106 1_555
Mn26 O37 1.931291 1_555
Mn26 O30 1.931620 1_555
Mn26 O46 1.963242 1_555
Mn26 O47 1.969919 1_555
Mn26 O6 1.980894 1_555
Mn27 O17 1.922106 1_555
Mn27 O36 1.931291 1_555
Mn27 O31 1.931620 1_655
Mn27 O47 1.963242 1_555
Mn27 O46 1.969919 1_555
Mn27 O7 1.980894 1_555
Mn28 O58 1.926945 1_655
Mn28 O56 1.929541 1_555
Mn28 O35 1.938978 1_555
Mn28 O0 1.955644 1_555
Mn28 O11 1.971448 1_555
Mn28 O48 1.974838 1_556
Mn29 O59 1.926945 1_555
Mn29 O57 1.929541 1_555
Mn29 O34 1.938978 1_555
Mn29 O1 1.955644 1_555
Mn29 O10 1.971448 1_555
Mn29 O49 1.974838 1_555
Mn30 O56 1.926945 1_455
Mn30 O58 1.929541 1_555
Mn30 O33 1.938978 1_555
Mn30 O2 1.955644 1_555
Mn30 O9 1.971448 1_555
Mn30 O50 1.974838 1_556
Mn31 O57 1.926945 1_555
Mn31 O59 1.929541 1_555
Mn31 O32 1.938978 1_555
Mn31 O3 1.955644 1_555
Mn31 O8 1.971448 1_455
Mn31 O51 1.974838 1_555
Mn32 O62 1.926945 1_455
Mn32 O60 1.929541 1_555
Mn32 O39 1.938978 1_555
Mn32 O4 1.955644 1_555
Mn32 O15 1.971448 1_555
Mn32 O52 1.974838 1_554
Mn33 O63 1.926945 1_555
Mn33 O61 1.929541 1_555
Mn33 O38 1.938978 1_555
Mn33 O5 1.955644 1_555
Mn33 O14 1.971448 1_555
Mn33 O53 1.974838 1_555
Mn34 O60 1.926945 1_655
Mn34 O62 1.929541 1_555
Mn34 O37 1.938978 1_555
Mn34 O6 1.955644 1_555
Mn34 O13 1.971448 1_555
Mn34 O54 1.974838 1_554
Mn35 O61 1.926945 1_555
Mn35 O63 1.929541 1_555
Mn35 O36 1.938978 1_555
Mn35 O7 1.955644 1_555
Mn35 O12 1.971448 1_655
Mn35 O55 1.974838 1_555
