# generated using pymatgen
data_KLaMoO5
_symmetry_space_group_name_H-M   'P 1'
_cell_length_a   5.86823000
_cell_length_b   5.86823000
_cell_length_c   8.15819500
_cell_angle_alpha   90.00000000
_cell_angle_beta   90.00000000
_cell_angle_gamma   90.00000000
_symmetry_Int_Tables_number   1
_chemical_formula_structural   KLaMoO5
_chemical_formula_sum   'K2 La2 Mo2 O10'
_cell_volume   280.93660919
_cell_formula_units_Z   2
loop_
 _symmetry_equiv_pos_site_id
 _symmetry_equiv_pos_as_xyz
  1  'x, y, z'
loop_
 _atom_site_type_symbol
 _atom_site_label
 _atom_site_symmetry_multiplicity
 _atom_site_fract_x
 _atom_site_fract_y
 _atom_site_fract_z
 _atom_site_occupancy
  K  K0  1  0.50000000  0.50000000  0.00000000  1
  K  K1  1  0.00000000  0.00000000  0.00000000  1
  La  La0  1  0.00000000  0.00000000  0.50000000  1
  La  La1  1  0.50000000  0.50000000  0.50000000  1
  Mo  Mo0  1  0.00000000  0.50000000  0.74142100  1
  Mo  Mo1  1  0.50000000  0.00000000  0.25857900  1
  O  O0  1  0.00000000  0.50000000  0.96023900  1
  O  O1  1  0.50000000  0.00000000  0.03976100  1
  O  O2  1  0.77993000  0.72007000  0.67291500  1
  O  O3  1  0.22007000  0.27993000  0.67291500  1
  O  O4  1  0.72007000  0.77993000  0.32708500  1
  O  O5  1  0.22007000  0.72007000  0.67291500  1
  O  O6  1  0.77993000  0.27993000  0.67291500  1
  O  O7  1  0.72007000  0.22007000  0.32708500  1
  O  O8  1  0.27993000  0.22007000  0.32708500  1
  O  O9  1  0.27993000  0.77993000  0.32708500  1
loop_
_geom_bond_atom_site_label_1
_geom_bond_atom_site_label_2
_geom_bond_distance
_geom_bond_site_symmetry_2
K0 O0 2.951991 1_554
K0 O0 2.951991 1_654
K0 O1 2.951991 1_565
K0 O1 2.951991 1_555
K1 O1 2.951991 1_455
K1 O0 2.951991 1_554
K1 O0 2.951991 1_544
K1 O1 2.951991 1_555
La0 O9 2.521153 1_545
La0 O8 2.521153 1_555
La0 O4 2.521153 1_445
La0 O7 2.521153 1_455
La0 O6 2.521153 1_455
La0 O2 2.521153 1_445
La0 O3 2.521153 1_555
La0 O5 2.521153 1_545
La1 O9 2.521153 1_555
La1 O7 2.521153 1_555
La1 O4 2.521153 1_555
La1 O8 2.521153 1_555
La1 O5 2.521153 1_555
La1 O2 2.521153 1_555
La1 O6 2.521153 1_555
La1 O3 2.521153 1_555
Mo0 O0 1.785160 1_555
Mo0 O6 1.909945 1_455
Mo0 O3 1.909945 1_555
Mo0 O2 1.909945 1_455
Mo0 O5 1.909945 1_555
Mo1 O1 1.785160 1_555
Mo1 O7 1.909945 1_555
Mo1 O9 1.909945 1_545
Mo1 O8 1.909945 1_555
Mo1 O4 1.909945 1_545
