# generated using pymatgen
data_Sm2Ti2O5
_symmetry_space_group_name_H-M   'P 1'
_cell_length_a   8.68368211
_cell_length_b   8.68368211
_cell_length_c   8.68368211
_cell_angle_alpha   143.75564531
_cell_angle_beta   142.54437044
_cell_angle_gamma   53.10665081
_symmetry_Int_Tables_number   1
_chemical_formula_structural   Sm2Ti2O5
_chemical_formula_sum   'Sm4 Ti4 O10'
_cell_volume   233.98441641
_cell_formula_units_Z   2
loop_
 _symmetry_equiv_pos_site_id
 _symmetry_equiv_pos_as_xyz
  1  'x, y, z'
loop_
 _atom_site_type_symbol
 _atom_site_label
 _atom_site_symmetry_multiplicity
 _atom_site_fract_x
 _atom_site_fract_y
 _atom_site_fract_z
 _atom_site_occupancy
  Sm  Sm0  1  0.15301700  0.13473500  0.01828300  1
  Sm  Sm1  1  0.84698300  0.86526500  0.98171700  1
  Sm  Sm2  1  0.61645200  0.63473500  0.98171700  1
  Sm  Sm3  1  0.38354800  0.36526500  0.01828300  1
  Ti  Ti0  1  0.00000000  0.50000000  0.50000000  1
  Ti  Ti1  1  0.50000000  0.00000000  0.50000000  1
  Ti  Ti2  1  0.20080500  0.75000000  0.45080500  1
  Ti  Ti3  1  0.79919500  0.25000000  0.54919500  1
  O  O0  1  0.71659600  0.71659600  0.50000000  1
  O  O1  1  0.28340400  0.78340400  0.00000000  1
  O  O2  1  0.71659600  0.21659600  0.00000000  1
  O  O3  1  0.28340400  0.28340400  0.50000000  1
  O  O4  1  0.02968700  0.62534800  0.40433800  1
  O  O5  1  0.97031300  0.37465200  0.59566200  1
  O  O6  1  0.72101000  0.12534800  0.59566200  1
  O  O7  1  0.27899000  0.87465200  0.40433800  1
  O  O8  1  0.50000000  0.50000000  0.50000000  1
  O  O9  1  0.50000000  0.00000000  0.00000000  1
loop_
_geom_bond_atom_site_label_1
_geom_bond_atom_site_label_2
_geom_bond_distance
_geom_bond_site_symmetry_2
O0 Ti0 2.009113 1_655
O0 Ti1 2.009113 1_565
O0 Sm1 2.443671 1_555
O0 Sm3 2.443676 1_555
O1 Ti1 2.009113 1_565
O1 Ti0 2.009113 1_554
O1 Sm0 2.443674 1_565
O1 Sm2 2.443676 1_554
O2 Ti0 2.009113 1_655
O2 Ti1 2.009113 1_554
O2 Sm1 2.443674 1_544
O2 Sm3 2.443676 1_555
O3 Ti0 2.009113 1_555
O3 Ti1 2.009113 1_555
O3 Sm0 2.443671 1_555
O3 Sm2 2.443676 1_555
O4 Ti2 1.953772 1_555
O4 Ti0 2.019081 1_555
O4 Sm2 2.361124 1_454
O4 Sm0 2.778558 1_555
O4 Sm0 2.778569 1_566
O5 Ti3 1.953772 1_555
O5 Ti0 2.019081 1_655
O5 Sm3 2.361124 1_656
O5 Sm1 2.778558 1_555
O5 Sm1 2.778569 1_544
O6 Ti3 1.953780 1_555
O6 Ti1 2.019074 1_555
O6 Sm0 2.361119 1_656
O6 Sm2 2.778566 1_555
O6 Sm2 2.778566 1_544
O7 Ti2 1.953780 1_555
O7 Ti1 2.019074 1_565
O7 Sm1 2.361119 1_454
O7 Sm3 2.778566 1_555
O7 Sm3 2.778566 1_566
O8 Ti3 2.146465 1_555
O8 Ti2 2.146465 1_555
O8 Sm3 2.588427 1_555
O8 Sm2 2.588427 1_555
O8 Sm1 2.588433 1_555
O8 Sm0 2.588433 1_555
O9 Ti3 2.146465 1_555
O9 Ti2 2.146465 1_544
O9 Sm3 2.588427 1_555
O9 Sm2 2.588427 1_544
O9 Sm1 2.588436 1_544
O9 Sm0 2.588436 1_555
