# generated using pymatgen
data_AlO3
_symmetry_space_group_name_H-M   'P 1'
_cell_length_a   5.43023800
_cell_length_b   8.93789600
_cell_length_c   12.15981255
_cell_angle_alpha   49.74413158
_cell_angle_beta   90.00000000
_cell_angle_gamma   90.00000000
_symmetry_Int_Tables_number   1
_chemical_formula_structural   AlO3
_chemical_formula_sum   'Al8 O24'
_cell_volume   450.40190526
_cell_formula_units_Z   8
loop_
 _symmetry_equiv_pos_site_id
 _symmetry_equiv_pos_as_xyz
  1  'x, y, z'
loop_
 _atom_site_type_symbol
 _atom_site_label
 _atom_site_symmetry_multiplicity
 _atom_site_fract_x
 _atom_site_fract_y
 _atom_site_fract_z
 _atom_site_occupancy
  Al  Al0  1  0.99055300  0.83307600  0.66742300  1
  Al  Al1  1  0.50944700  0.83307600  0.16742300  1
  Al  Al2  1  0.00944700  0.16692400  0.33257700  1
  Al  Al3  1  0.49055300  0.16692400  0.83257700  1
  Al  Al4  1  0.49147300  0.66778700  0.83267700  1
  Al  Al5  1  0.00852700  0.66778700  0.33267700  1
  Al  Al6  1  0.50852700  0.33221300  0.16732300  1
  Al  Al7  1  0.99147300  0.33221300  0.66732300  1
  O  O0  1  0.29292800  0.71508400  0.68614900  1
  O  O1  1  0.20707200  0.71508400  0.18614900  1
  O  O2  1  0.70707200  0.28491600  0.31385100  1
  O  O3  1  0.79292800  0.28491600  0.81385100  1
  O  O4  1  0.81254900  0.21767200  0.18402100  1
  O  O5  1  0.68745100  0.21767200  0.68402100  1
  O  O6  1  0.18745100  0.78232800  0.81597900  1
  O  O7  1  0.31254900  0.78232800  0.31597900  1
  O  O8  1  0.38953400  0.41135700  0.99128400  1
  O  O9  1  0.11046600  0.41135700  0.49128400  1
  O  O10  1  0.61046600  0.58864300  0.00871600  1
  O  O11  1  0.88953400  0.58864300  0.50871600  1
  O  O12  1  0.89125900  0.91427700  0.48760600  1
  O  O13  1  0.60874100  0.91427700  0.98760600  1
  O  O14  1  0.10874100  0.08572300  0.51239400  1
  O  O15  1  0.39125900  0.08572300  0.01239400  1
  O  O16  1  0.79402400  0.60803900  0.79341600  1
  O  O17  1  0.70597600  0.60803900  0.29341600  1
  O  O18  1  0.20597600  0.39196100  0.20658400  1
  O  O19  1  0.29402400  0.39196100  0.70658400  1
  O  O20  1  0.31438000  0.10633000  0.29627700  1
  O  O21  1  0.18562000  0.10633000  0.79627700  1
  O  O22  1  0.68562000  0.89367000  0.70372300  1
  O  O23  1  0.81438000  0.89367000  0.20372300  1
loop_
_geom_bond_atom_site_label_1
_geom_bond_atom_site_label_2
_geom_bond_distance
_geom_bond_site_symmetry_2
Al0 O22 1.881215 1_555
Al0 O12 1.883477 1_555
Al0 O16 1.883907 1_555
Al0 O0 1.884074 1_655
Al0 O6 1.884973 1_655
Al0 O14 1.887634 1_665
Al1 O23 1.881215 1_555
Al1 O13 1.883477 1_554
Al1 O17 1.883907 1_555
Al1 O1 1.884074 1_555
Al1 O7 1.884973 1_555
Al1 O15 1.887634 1_565
Al2 O20 1.881215 1_555
Al2 O14 1.883477 1_555
Al2 O18 1.883907 1_555
Al2 O2 1.884074 1_455
Al2 O4 1.884973 1_455
Al2 O12 1.887634 1_445
Al3 O21 1.881215 1_555
Al3 O15 1.883477 1_556
Al3 O19 1.883907 1_555
Al3 O3 1.884074 1_555
Al3 O5 1.884973 1_555
Al3 O13 1.887634 1_545
Al4 O16 1.881964 1_555
Al4 O0 1.882099 1_555
Al4 O10 1.882312 1_556
Al4 O6 1.883126 1_555
Al4 O22 1.885429 1_555
Al4 O8 1.888442 1_555
Al5 O17 1.881964 1_455
Al5 O1 1.882099 1_555
Al5 O11 1.882312 1_455
Al5 O7 1.883126 1_555
Al5 O23 1.885429 1_455
Al5 O9 1.888442 1_555
Al6 O18 1.881964 1_555
Al6 O2 1.882099 1_555
Al6 O8 1.882312 1_554
Al6 O4 1.883126 1_555
Al6 O20 1.885429 1_555
Al6 O10 1.888442 1_555
Al7 O19 1.881964 1_655
Al7 O3 1.882099 1_555
Al7 O9 1.882312 1_655
Al7 O5 1.883126 1_555
Al7 O21 1.885429 1_655
Al7 O11 1.888442 1_555
