# generated using pymatgen
data_Cr2Fe3Sn(PO4)6
_symmetry_space_group_name_H-M   'P 1'
_cell_length_a   8.57984841
_cell_length_b   8.57984841
_cell_length_c   8.57984868
_cell_angle_alpha   60.70727703
_cell_angle_beta   60.70727703
_cell_angle_gamma   60.70728340
_symmetry_Int_Tables_number   1
_chemical_formula_structural   Cr2Fe3Sn(PO4)6
_chemical_formula_sum   'Cr2 Fe3 Sn1 P6 O24'
_cell_volume   453.73428857
_cell_formula_units_Z   1
loop_
 _symmetry_equiv_pos_site_id
 _symmetry_equiv_pos_as_xyz
  1  'x, y, z'
loop_
 _atom_site_type_symbol
 _atom_site_label
 _atom_site_symmetry_multiplicity
 _atom_site_fract_x
 _atom_site_fract_y
 _atom_site_fract_z
 _atom_site_occupancy
  Cr  Cr0  1  0.00322600  0.00322600  0.00322600  1
  Cr  Cr1  1  0.49919400  0.49919400  0.49919400  1
  Fe  Fe0  1  0.14664800  0.14664800  0.14664800  1
  Fe  Fe1  1  0.35345300  0.35345300  0.35345300  1
  Fe  Fe2  1  0.64545900  0.64545900  0.64545900  1
  Sn  Sn0  1  0.85495200  0.85495200  0.85495200  1
  P  P0  1  0.95306000  0.54204400  0.25421800  1
  P  P1  1  0.25421800  0.95306000  0.54204400  1
  P  P2  1  0.54204400  0.25421800  0.95306000  1
  P  P3  1  0.44978000  0.74734300  0.04924300  1
  P  P4  1  0.74734300  0.04924300  0.44978000  1
  P  P5  1  0.04924300  0.44978000  0.74734300  1
  O  O0  1  0.50392300  0.31951200  0.10776900  1
  O  O1  1  0.10776900  0.50392300  0.31951200  1
  O  O2  1  0.25419300  0.90939000  0.06286300  1
  O  O3  1  0.31951200  0.10776900  0.50392300  1
  O  O4  1  0.60342500  0.81536200  0.01589400  1
  O  O5  1  0.43527700  0.58932000  0.24663300  1
  O  O6  1  0.90939000  0.06286300  0.25419300  1
  O  O7  1  0.58932000  0.24663300  0.43527700  1
  O  O8  1  0.99454600  0.39124100  0.18129600  1
  O  O9  1  0.24663300  0.43527700  0.58932000  1
  O  O10  1  0.93972500  0.74421800  0.09261200  1
  O  O11  1  0.18129600  0.99454600  0.39124100  1
  O  O12  1  0.81536200  0.01589400  0.60342500  1
  O  O13  1  0.06286300  0.25419300  0.90939000  1
  O  O14  1  0.75396900  0.55984500  0.41017600  1
  O  O15  1  0.01589400  0.60342500  0.81536200  1
  O  O16  1  0.41017600  0.75396900  0.55984500  1
  O  O17  1  0.09261200  0.93972500  0.74421800  1
  O  O18  1  0.55984500  0.41017600  0.75396900  1
  O  O19  1  0.39124100  0.18129600  0.99454600  1
  O  O20  1  0.68317200  0.89004600  0.49697300  1
  O  O21  1  0.74421800  0.09261200  0.93972500  1
  O  O22  1  0.89004600  0.49697300  0.68317200  1
  O  O23  1  0.49697300  0.68317200  0.89004600  1
loop_
_geom_bond_atom_site_label_1
_geom_bond_atom_site_label_2
_geom_bond_distance
_geom_bond_site_symmetry_2
Cr0 O13 2.127240 1_554
Cr0 O6 2.127240 1_455
Cr0 O2 2.127241 1_545
Cr0 O10 2.220714 1_445
Cr0 O17 2.220714 1_544
Cr0 O21 2.220714 1_454
Cr1 O9 2.168527 1_555
Cr1 O5 2.168527 1_555
Cr1 O7 2.168527 1_555
Cr1 O14 2.173222 1_555
Cr1 O18 2.173222 1_555
Cr1 O16 2.173222 1_555
Fe0 O19 1.935555 1_554
Fe0 O11 1.935555 1_545
Fe0 O8 1.935555 1_455
Fe0 O6 2.111124 1_455
Fe0 O13 2.111124 1_554
Fe0 O2 2.111124 1_545
Fe1 O3 1.940285 1_555
Fe1 O0 1.940285 1_555
Fe1 O1 1.940285 1_555
Fe1 O5 2.091386 1_555
Fe1 O9 2.091386 1_555
Fe1 O7 2.091386 1_555
Fe2 O20 1.943315 1_555
Fe2 O23 1.943315 1_555
Fe2 O22 1.943315 1_555
Fe2 O18 2.103379 1_555
Fe2 O14 2.103379 1_555
Fe2 O16 2.103379 1_555
O0 P2 1.518644 1_554
O1 P0 1.518644 1_455
O2 P3 1.564212 1_555
O3 P1 1.518644 1_545
O4 P3 1.542904 1_555
O4 Sn0 2.005413 1_554
O5 P3 1.560090 1_555
O6 P4 1.564212 1_555
O7 P4 1.560090 1_555
O8 P0 1.521777 1_555
O9 P5 1.560090 1_555
O10 P0 1.597507 1_555
O10 Sn0 2.113978 1_554
O11 P1 1.521777 1_555
O12 P4 1.542904 1_555
O12 Sn0 2.005413 1_545
O13 P5 1.564212 1_555
O14 P0 1.561958 1_555
O15 P5 1.542904 1_555
O15 Sn0 2.005413 1_455
O16 P1 1.561958 1_555
O17 P1 1.597507 1_555
O17 Sn0 2.113978 1_455
O18 P2 1.561958 1_555
O19 P2 1.521777 1_555
O20 P4 1.519631 1_565
O21 P2 1.597507 1_555
O21 Sn0 2.113978 1_545
O22 P5 1.519631 1_655
O23 P3 1.519631 1_556
