# generated using pymatgen
data_UMnB4
_symmetry_space_group_name_H-M   'P 1'
_cell_length_a   3.43276500
_cell_length_b   5.84913600
_cell_length_c   11.35608800
_cell_angle_alpha   90.00000000
_cell_angle_beta   90.00000000
_cell_angle_gamma   90.00000000
_symmetry_Int_Tables_number   1
_chemical_formula_structural   UMnB4
_chemical_formula_sum   'U4 Mn4 B16'
_cell_volume   228.01559020
_cell_formula_units_Z   4
loop_
 _symmetry_equiv_pos_site_id
 _symmetry_equiv_pos_as_xyz
  1  'x, y, z'
loop_
 _atom_site_type_symbol
 _atom_site_label
 _atom_site_symmetry_multiplicity
 _atom_site_fract_x
 _atom_site_fract_y
 _atom_site_fract_z
 _atom_site_occupancy
  U  U0  1  0.00000000  0.62623500  0.34966200  1
  U  U1  1  0.00000000  0.37376500  0.65033800  1
  U  U2  1  0.00000000  0.12623500  0.15033800  1
  U  U3  1  0.00000000  0.87376500  0.84966200  1
  Mn  Mn0  1  0.00000000  0.63503800  0.09089400  1
  Mn  Mn1  1  0.00000000  0.36496200  0.90910600  1
  Mn  Mn2  1  0.00000000  0.13503800  0.40910600  1
  Mn  Mn3  1  0.00000000  0.86496200  0.59089400  1
  B  B0  1  0.50000000  0.78312100  0.18717000  1
  B  B1  1  0.50000000  0.21687900  0.81283000  1
  B  B2  1  0.50000000  0.28312100  0.31283000  1
  B  B3  1  0.50000000  0.71687900  0.68717000  1
  B  B4  1  0.50000000  0.86411900  0.03352800  1
  B  B5  1  0.50000000  0.13588100  0.96647200  1
  B  B6  1  0.50000000  0.36411900  0.46647200  1
  B  B7  1  0.50000000  0.63588100  0.53352800  1
  B  B8  1  0.50000000  0.88585000  0.45421800  1
  B  B9  1  0.50000000  0.11415000  0.54578200  1
  B  B10  1  0.50000000  0.38585000  0.04578200  1
  B  B11  1  0.50000000  0.61415000  0.95421800  1
  B  B12  1  0.50000000  0.97326000  0.30866000  1
  B  B13  1  0.50000000  0.02674000  0.69134000  1
  B  B14  1  0.50000000  0.47326000  0.19134000  1
  B  B15  1  0.50000000  0.52674000  0.80866000  1
loop_
_geom_bond_atom_site_label_1
_geom_bond_atom_site_label_2
_geom_bond_distance
_geom_bond_site_symmetry_2
B0 B12 1.772093 1_555
B0 B4 1.807951 1_555
B0 B14 1.813038 1_555
B0 Mn0 2.211683 1_555
B0 Mn0 2.211683 1_655
B0 U2 2.673695 1_565
B0 U2 2.673695 1_665
B0 U0 2.681992 1_655
B0 U0 2.681992 1_555
B1 B13 1.772093 1_555
B1 B5 1.807951 1_555
B1 B15 1.813038 1_555
B1 Mn1 2.211683 1_555
B1 Mn1 2.211683 1_655
B1 U3 2.673695 1_545
B1 U3 2.673695 1_645
B1 U1 2.681992 1_555
B1 U1 2.681992 1_655
B2 B6 1.807951 1_555
B2 Mn2 2.211683 1_555
B2 Mn2 2.211683 1_655
B2 U0 2.673695 1_655
B2 U0 2.673695 1_555
B2 U2 2.681992 1_655
B2 U2 2.681992 1_555
B3 B7 1.807951 1_555
B3 Mn3 2.211683 1_555
B3 Mn3 2.211683 1_655
B3 U1 2.673695 1_555
B3 U1 2.673695 1_655
B3 U3 2.681992 1_555
B3 U3 2.681992 1_655
B4 B5 1.762559 1_564
B4 Mn0 2.272831 1_555
B4 Mn0 2.272831 1_655
B4 U2 2.656339 1_565
B4 U2 2.656339 1_665
B4 U3 2.703496 1_554
B4 U3 2.703496 1_654
B5 Mn1 2.272831 1_555
B5 Mn1 2.272831 1_655
B5 U3 2.656339 1_545
B5 U3 2.656339 1_645
B5 U2 2.703496 1_556
B5 U2 2.703496 1_656
B6 B9 1.717241 1_555
B6 B7 1.762559 1_555
B6 Mn2 2.272831 1_655
B6 Mn2 2.272831 1_555
B6 U0 2.656339 1_655
B6 U0 2.656339 1_555
B6 U1 2.703496 1_655
B6 U1 2.703496 1_555
B7 B8 1.717241 1_555
B7 Mn3 2.272831 1_555
B7 Mn3 2.272831 1_655
B7 U1 2.656339 1_555
B7 U1 2.656339 1_655
B7 U0 2.703496 1_555
B7 U0 2.703496 1_655
B8 B9 1.692449 1_565
B8 Mn2 2.309291 1_665
B8 Mn2 2.309291 1_565
B8 Mn3 2.317310 1_555
B8 Mn3 2.317310 1_655
B8 U0 2.581022 1_655
B8 U0 2.581022 1_555
B9 Mn3 2.309291 1_645
B9 Mn3 2.309291 1_545
B9 Mn2 2.317310 1_555
B9 Mn2 2.317310 1_655
B9 U1 2.581022 1_555
B9 U1 2.581022 1_655
B10 B11 1.692449 1_554
B10 B5 1.717241 1_554
B10 B14 1.730234 1_555
B10 Mn0 2.309291 1_655
B10 Mn0 2.309291 1_555
B10 Mn1 2.317310 1_654
B10 Mn1 2.317310 1_554
B10 U2 2.581022 1_555
B10 U2 2.581022 1_655
B11 B4 1.717241 1_556
B11 B15 1.730234 1_555
B11 Mn1 2.309291 1_555
B11 Mn1 2.309291 1_655
B11 Mn0 2.317310 1_556
B11 Mn0 2.317310 1_656
B11 U3 2.581022 1_655
B11 U3 2.581022 1_555
B12 B8 1.730234 1_555
B12 B2 1.813038 1_565
B12 Mn2 2.267712 1_565
B12 Mn2 2.267712 1_665
B12 U2 2.641798 1_565
B12 U2 2.641798 1_665
B12 U0 2.698675 1_555
B12 U0 2.698675 1_655
B13 B9 1.730234 1_555
B13 B3 1.813038 1_545
B13 Mn3 2.267712 1_545
B13 Mn3 2.267712 1_645
B13 U3 2.641798 1_545
B13 U3 2.641798 1_645
B13 U1 2.698675 1_555
B13 U1 2.698675 1_655
B14 B2 1.772093 1_555
B14 Mn0 2.267712 1_555
B14 Mn0 2.267712 1_655
B14 U0 2.641798 1_655
B14 U0 2.641798 1_555
B14 U2 2.698675 1_655
B14 U2 2.698675 1_555
B15 B3 1.772093 1_555
B15 Mn1 2.267712 1_655
B15 Mn1 2.267712 1_555
B15 U1 2.641798 1_555
B15 U1 2.641798 1_655
B15 U3 2.698675 1_555
B15 U3 2.698675 1_655
