# generated using pymatgen
data_Mn2Nb
_symmetry_space_group_name_H-M   'P 1'
_cell_length_a   5.08843659
_cell_length_b   5.08843662
_cell_length_c   7.93684729
_cell_angle_alpha   89.99999367
_cell_angle_beta   90.00000250
_cell_angle_gamma   119.99920929
_symmetry_Int_Tables_number   1
_chemical_formula_structural   Mn2Nb
_chemical_formula_sum   'Mn8 Nb4'
_cell_volume   177.97166057
_cell_formula_units_Z   4
loop_
 _symmetry_equiv_pos_site_id
 _symmetry_equiv_pos_as_xyz
  1  'x, y, z'
loop_
 _atom_site_type_symbol
 _atom_site_label
 _atom_site_symmetry_multiplicity
 _atom_site_fract_x
 _atom_site_fract_y
 _atom_site_fract_z
 _atom_site_occupancy
  Mn  Mn0  1  0.17002480  0.34005262  0.75002181  1
  Mn  Mn1  1  0.83037659  0.16962400  0.24997624  1
  Mn  Mn2  1  0.33924897  0.16962371  0.24997660  1
  Mn  Mn3  1  0.65994753  0.82997554  0.75002163  1
  Mn  Mn4  1  0.00000000  -0.00000035  0.00030227  1
  Mn  Mn5  1  -0.00000012  -0.00000041  0.49969792  1
  Mn  Mn6  1  0.83037664  0.66075151  0.24997641  1
  Mn  Mn7  1  0.17002622  0.82997445  0.75002156  1
  Nb  Nb0  1  0.33333287  0.66666689  0.43690085  1
  Nb  Nb1  1  0.66666716  0.33333267  0.94285710  1
  Nb  Nb2  1  0.66666760  0.33333223  0.55715413  1
  Nb  Nb3  1  0.33333273  0.66666713  0.06309348  1
loop_
_geom_bond_atom_site_label_1
_geom_bond_atom_site_label_2
_geom_bond_distance
_geom_bond_site_symmetry_2
Mn0 Mn4 2.488277 1_556
Mn0 Mn5 2.488553 1_555
Mn0 Mn7 2.492933 1_555
Mn0 Mn3 2.492971 1_555
Mn0 Mn7 2.595504 1_545
Mn0 Mn3 2.595526 1_445
Mn0 Nb3 2.871559 1_556
Mn0 Nb0 2.871897 1_555
Mn0 Nb1 2.969227 1_455
Mn0 Nb1 2.969247 1_555
Mn0 Nb2 2.969357 1_455
Mn0 Nb2 2.969382 1_555
Mn1 Mn4 2.482287 1_655
Mn1 Mn5 2.482589 1_655
Mn1 Mn2 2.499071 1_555
Mn1 Mn6 2.499071 1_555
Mn1 Mn6 2.589366 1_545
Mn1 Mn2 2.589366 1_655
Mn1 Nb1 2.832570 1_554
Mn1 Nb2 2.832970 1_555
Mn1 Nb3 2.945154 1_655
Mn1 Nb3 2.945157 1_545
Mn1 Nb0 2.945321 1_655
Mn1 Nb0 2.945324 1_545
Mn2 Mn4 2.482303 1_555
Mn2 Mn5 2.482601 1_555
Mn2 Mn6 2.499102 1_555
Mn2 Mn6 2.589395 1_445
Mn2 Nb1 2.832582 1_554
Mn2 Nb2 2.832979 1_555
Mn2 Nb3 2.945124 1_545
Mn2 Nb3 2.945137 1_555
Mn2 Nb0 2.945290 1_545
Mn2 Nb0 2.945300 1_555
Mn3 Mn4 2.488277 1_666
Mn3 Mn5 2.488550 1_665
Mn3 Mn7 2.492931 1_555
Mn3 Mn7 2.595506 1_655
Mn3 Nb3 2.871561 1_556
Mn3 Nb0 2.871897 1_555
Mn3 Nb1 2.969226 1_565
Mn3 Nb1 2.969249 1_555
Mn3 Nb2 2.969354 1_565
Mn3 Nb2 2.969383 1_555
Mn4 Mn6 2.482299 1_445
Mn4 Mn7 2.488264 1_544
Mn4 Nb1 2.972964 1_454
Mn4 Nb1 2.973004 1_444
Mn4 Nb1 2.973004 1_554
Mn4 Nb3 2.979763 1_545
Mn4 Nb3 2.979807 1_445
Mn4 Nb3 2.979808 1_555
Mn5 Mn6 2.482600 1_445
Mn5 Mn7 2.488536 1_545
Mn5 Nb2 2.972973 1_455
Mn5 Nb2 2.973019 1_445
Mn5 Nb2 2.973020 1_555
Mn5 Nb0 2.979773 1_545
Mn5 Nb0 2.979814 1_445
Mn5 Nb0 2.979815 1_555
Mn6 Nb1 2.832582 1_554
Mn6 Nb2 2.832982 1_555
Mn6 Nb3 2.945123 1_655
Mn6 Nb3 2.945137 1_555
Mn6 Nb0 2.945290 1_655
Mn6 Nb0 2.945302 1_555
Mn7 Nb3 2.871550 1_556
Mn7 Nb0 2.871887 1_555
Mn7 Nb1 2.969262 1_565
Mn7 Nb1 2.969265 1_455
Mn7 Nb2 2.969392 1_565
Mn7 Nb2 2.969396 1_455
Nb0 Nb3 2.966852 1_555
Nb0 Nb2 3.088959 1_555
Nb0 Nb2 3.088976 1_455
Nb0 Nb2 3.088976 1_565
Nb1 Nb2 3.061266 1_555
Nb1 Nb3 3.088916 1_556
Nb1 Nb3 3.088935 1_546
Nb1 Nb3 3.088935 1_656
