# generated using pymatgen
data_CaPtO6
_symmetry_space_group_name_H-M   'P 1'
_cell_length_a   6.65374922
_cell_length_b   6.65374922
_cell_length_c   7.14099316
_cell_angle_alpha   89.69661811
_cell_angle_beta   89.69661811
_cell_angle_gamma   120.38670446
_symmetry_Int_Tables_number   1
_chemical_formula_structural   CaPtO6
_chemical_formula_sum   'Ca2 Pt2 O12'
_cell_volume   272.70426419
_cell_formula_units_Z   2
loop_
 _symmetry_equiv_pos_site_id
 _symmetry_equiv_pos_as_xyz
  1  'x, y, z'
loop_
 _atom_site_type_symbol
 _atom_site_label
 _atom_site_symmetry_multiplicity
 _atom_site_fract_x
 _atom_site_fract_y
 _atom_site_fract_z
 _atom_site_occupancy
  Ca  Ca0  1  0.33248600  0.66751400  0.25000000  1
  Ca  Ca1  1  0.66751400  0.33248600  0.75000000  1
  Pt  Pt0  1  0.00000000  0.00000000  0.50000000  1
  Pt  Pt1  1  0.00000000  0.00000000  0.00000000  1
  O  O0  1  0.20451800  0.28509400  0.33255400  1
  O  O1  1  0.71446900  0.91370100  0.33657400  1
  O  O2  1  0.08366000  0.79943900  0.33683300  1
  O  O3  1  0.28509400  0.20451800  0.83255400  1
  O  O4  1  0.79943900  0.08366000  0.83683300  1
  O  O5  1  0.91370100  0.71446900  0.83657400  1
  O  O6  1  0.79548200  0.71490600  0.66744600  1
  O  O7  1  0.28553100  0.08629900  0.66342600  1
  O  O8  1  0.91634000  0.20056100  0.66316700  1
  O  O9  1  0.71490600  0.79548200  0.16744600  1
  O  O10  1  0.20056100  0.91634000  0.16316700  1
  O  O11  1  0.08629900  0.28553100  0.16342600  1
loop_
_geom_bond_atom_site_label_1
_geom_bond_atom_site_label_2
_geom_bond_distance
_geom_bond_site_symmetry_2
Ca0 O0 2.309564 1_555
Ca0 O9 2.309564 1_555
Ca0 O1 2.311004 1_555
Ca0 O11 2.311004 1_555
Ca0 O2 2.315440 1_555
Ca0 O10 2.315440 1_555
Ca1 O3 2.309564 1_555
Ca1 O6 2.309564 1_555
Ca1 O5 2.311004 1_555
Ca1 O7 2.311004 1_555
Ca1 O4 2.315440 1_555
Ca1 O8 2.315440 1_555
O0 O11 1.445588 1_555
O0 Pt0 2.056021 1_555
O1 O9 1.445588 1_555
O1 Pt0 2.056218 1_665
O2 Pt0 2.051693 1_565
O3 O7 1.445588 1_555
O3 Pt1 2.056021 1_556
O4 O8 1.454475 1_555
O4 Pt1 2.051693 1_656
O5 O6 1.445588 1_555
O5 Pt1 2.056218 1_666
O6 Pt0 2.056021 1_665
O7 Pt0 2.056218 1_555
O8 Pt0 2.051693 1_655
O9 Pt1 2.056021 1_665
O10 O2 1.454475 1_555
O10 Pt1 2.051693 1_565
O11 Pt1 2.056218 1_555
