# generated using pymatgen
data_Li3MnV(PO4)3
_symmetry_space_group_name_H-M   'P 1'
_cell_length_a   8.68138100
_cell_length_b   8.69823512
_cell_length_c   15.16792388
_cell_angle_alpha   73.45821033
_cell_angle_beta   74.63314054
_cell_angle_gamma   61.31770543
_symmetry_Int_Tables_number   1
_chemical_formula_structural   Li3MnV(PO4)3
_chemical_formula_sum   'Li12 Mn4 V4 P12 O48'
_cell_volume   951.95602099
_cell_formula_units_Z   4
loop_
 _symmetry_equiv_pos_site_id
 _symmetry_equiv_pos_as_xyz
  1  'x, y, z'
loop_
 _atom_site_type_symbol
 _atom_site_label
 _atom_site_symmetry_multiplicity
 _atom_site_fract_x
 _atom_site_fract_y
 _atom_site_fract_z
 _atom_site_occupancy
  Li  Li0  1  0.30168400  0.43020200  0.31816600  1
  Li  Li1  1  0.18356500  0.15287600  0.55508900  1
  Li  Li2  1  0.68371200  0.65078800  0.05549100  1
  Li  Li3  1  0.17302700  0.06040400  0.18782700  1
  Li  Li4  1  0.21320600  0.85200200  0.82469400  1
  Li  Li5  1  0.71150800  0.35082800  0.32580600  1
  Li  Li6  1  0.26081400  0.57669000  0.63073700  1
  Li  Li7  1  0.75969600  0.07917300  0.13068800  1
  Li  Li8  1  0.79860100  0.93204700  0.81881900  1
  Li  Li9  1  0.67193600  0.55914900  0.68934900  1
  Li  Li10  1  0.36863800  0.19438300  0.98032900  1
  Li  Li11  1  0.86592100  0.69553700  0.48154400  1
  Mn  Mn0  1  0.28404400  0.78343100  0.07382200  1
  Mn  Mn1  1  0.78365700  0.28315500  0.57375700  1
  Mn  Mn2  1  0.47880800  0.96210500  0.67538200  1
  Mn  Mn3  1  0.72502000  0.21563600  0.92342600  1
  V  V0  1  0.03145500  0.53532200  0.82144500  1
  V  V1  1  0.53186800  0.03848800  0.32079100  1
  V  V2  1  0.21773600  0.71944900  0.42383300  1
  V  V3  1  0.97385700  0.46343400  0.17924900  1
  P  P0  1  0.01555000  0.21760600  0.73437200  1
  P  P1  1  0.51348500  0.72006100  0.23524200  1
  P  P2  1  0.02238800  0.23185100  0.02450900  1
  P  P3  1  0.09832200  0.16601600  0.37512700  1
  P  P4  1  0.40521200  0.32992500  0.12440800  1
  P  P5  1  0.47551000  0.27903300  0.47679200  1
  P  P6  1  0.52167800  0.73574000  0.52434800  1
  P  P7  1  0.59909900  0.65844100  0.87655400  1
  P  P8  1  0.90638700  0.82858900  0.62521100  1
  P  P9  1  0.97566400  0.78053400  0.97726300  1
  P  P10  1  0.48447900  0.27438000  0.76263800  1
  P  P11  1  0.98622900  0.77961400  0.26354700  1
  O  O0  1  0.02430000  0.60282600  0.23922400  1
  O  O1  1  0.45615900  0.78100000  0.13647500  1
  O  O2  1  0.40342300  0.63290000  0.30971600  1
  O  O3  1  0.00940900  0.20957300  0.47257200  1
  O  O4  1  0.29902500  0.45284700  0.46867000  1
  O  O5  1  0.35958900  0.52164000  0.12542600  1
  O  O6  1  0.23493000  0.30000700  0.14450900  1
  O  O7  1  0.26666800  0.19975100  0.35207300  1
  O  O8  1  0.20818000  0.06885500  0.72352800  1
  O  O9  1  0.70611100  0.56990700  0.22456900  1
  O  O10  1  0.20700200  0.06885200  0.03732600  1
  O  O11  1  0.15250200  0.97254300  0.36831800  1
  O  O12  1  0.10118800  0.86513900  0.19283500  1
  O  O13  1  0.01557200  0.75946200  0.53372300  1
  O  O14  1  0.12516200  0.81174200  0.99515600  1
  O  O15  1  0.42383900  0.14440900  0.55153100  1
  O  O16  1  0.51209900  0.25936600  0.03391900  1
  O  O17  1  0.02660800  0.71136800  0.70207300  1
  O  O18  1  0.04639500  0.72314400  0.88010400  1
  O  O19  1  0.62455300  0.31089700  0.49561800  1
  O  O20  1  0.92387400  0.64661000  0.05449200  1
  O  O21  1  0.03134800  0.72361400  0.36416000  1
  O  O22  1  0.52580400  0.21393800  0.20150800  1
  O  O23  1  0.55000200  0.22390100  0.37857600  1
  O  O24  1  0.52298100  0.09695000  0.73726600  1
  O  O25  1  0.49281600  0.88763300  0.25926700  1
  O  O26  1  0.43864400  0.81113300  0.61747500  1
  O  O27  1  0.94182300  0.30726000  0.11635000  1
  O  O28  1  0.95533700  0.28313000  0.63569100  1
  O  O29  1  0.47159100  0.77207500  0.80439600  1
  O  O30  1  0.06404100  0.36628500  0.94214500  1
  O  O31  1  0.38036900  0.68789700  0.51110200  1
  O  O32  1  0.97026200  0.28465900  0.30211700  1
  O  O33  1  0.56490800  0.86863700  0.44237800  1
  O  O34  1  0.88358500  0.18109500  0.01190400  1
  O  O35  1  0.90651600  0.12795100  0.80737400  1
  O  O36  1  0.51442500  0.70200600  0.97432900  1
  O  O37  1  0.79626200  0.95523400  0.96910700  1
  O  O38  1  0.86013000  0.01961600  0.62537100  1
  O  O39  1  0.29142500  0.41933400  0.75911600  1
  O  O40  1  0.79270500  0.92197100  0.26107500  1
  O  O41  1  0.73881300  0.79515400  0.64275300  1
  O  O42  1  0.76779400  0.69339000  0.85189600  1
  O  O43  1  0.70352200  0.57160800  0.53834100  1
  O  O44  1  0.65501800  0.46242500  0.86997500  1
  O  O45  1  0.60015200  0.36058700  0.69156200  1
  O  O46  1  0.53059700  0.21565800  0.86225300  1
  O  O47  1  0.99278400  0.38596100  0.75940300  1
loop_
_geom_bond_atom_site_label_1
_geom_bond_atom_site_label_2
_geom_bond_distance
_geom_bond_site_symmetry_2
Li0 O7 2.071236 1_555
Li0 O23 2.259254 1_555
Li0 O2 2.282813 1_555
Li0 O4 2.339746 1_555
Li0 O0 2.553574 1_555
Li1 O3 2.007822 1_555
Li1 O28 2.013482 1_455
Li1 O15 2.038258 1_555
Li1 O8 2.486635 1_555
Li2 O36 1.972799 1_554
Li2 O1 2.013101 1_555
Li2 O20 2.063820 1_555
Li2 O9 2.493059 1_555
Li3 O12 2.048832 1_545
Li3 O10 2.207249 1_555
Li3 O6 2.274267 1_555
Li3 O27 2.346352 1_455
Li4 O29 1.966901 1_555
Li4 O8 2.054934 1_565
Li4 O18 2.106269 1_555
Li4 O14 2.466960 1_555
Li4 O35 2.606983 1_465
Li5 O32 1.988806 1_555
Li5 O23 2.052645 1_555
Li5 O9 2.068243 1_555
Li5 O19 2.456920 1_555
Li5 O2 2.634150 1_555
Li6 O17 1.986593 1_555
Li6 O39 2.035490 1_555
Li6 O31 2.066823 1_555
Li6 O13 2.510946 1_555
Li7 O22 1.981714 1_555
Li7 O34 2.041463 1_555
Li7 O40 2.060945 1_545
Li7 O16 2.521802 1_555
Li8 O42 2.121636 1_555
Li8 O35 2.255941 1_565
Li8 O18 2.267015 1_655
Li8 O37 2.338975 1_555
Li8 O46 2.556663 1_565
Li8 O24 2.564515 1_565
Li9 O45 2.088436 1_555
Li9 O43 2.210775 1_555
Li9 O41 2.269604 1_555
Li9 O26 2.375468 1_555
Li9 O29 2.576827 1_555
Li9 O44 2.613100 1_555
Li9 O28 2.619370 1_555
Li10 O46 1.986240 1_555
Li10 O16 2.001312 1_556
Li10 O10 2.049134 1_556
Li10 O30 2.467151 1_555
Li11 O21 2.006508 1_655
Li11 O13 2.027905 1_655
Li11 O43 2.044052 1_555
Li11 O33 2.446505 1_555
Li11 O41 2.608852 1_555
Mn0 O14 1.940563 1_554
Mn0 O1 1.961370 1_555
Mn0 O5 2.012873 1_555
Mn0 O12 2.100612 1_555
Mn0 O36 2.104364 1_554
Mn0 O10 2.176492 1_565
Mn1 O19 1.937941 1_555
Mn1 O28 1.960987 1_555
Mn1 O38 2.025123 1_555
Mn1 O45 2.081116 1_555
Mn1 O3 2.089791 1_655
Mn1 O43 2.196101 1_555
Mn2 O24 1.911362 1_565
Mn2 O26 1.968789 1_555
Mn2 O41 2.029648 1_555
Mn2 O8 2.073165 1_565
Mn2 O15 2.079357 1_565
Mn2 O29 2.181288 1_555
Mn3 O44 1.911156 1_555
Mn3 O37 1.995431 1_545
Mn3 O34 2.034390 1_556
Mn3 O35 2.074574 1_555
Mn3 O16 2.101539 1_556
Mn3 O46 2.130594 1_555
O0 P11 1.542907 1_455
O0 V3 1.959146 1_455
O1 P1 1.569288 1_555
O2 P1 1.549008 1_555
O2 V2 2.063902 1_555
O3 P3 1.535395 1_555
O4 P5 1.555261 1_555
O4 V2 2.030659 1_555
O5 P4 1.521632 1_555
O6 P4 1.559236 1_555
O6 V3 2.033764 1_455
O7 P3 1.557775 1_555
O7 V1 2.047770 1_555
O8 P0 1.547950 1_555
O9 P1 1.552059 1_555
O9 V3 2.045091 1_555
O10 P2 1.563200 1_555
O11 P3 1.541874 1_565
O11 V2 1.968921 1_555
O12 P11 1.546221 1_455
O13 P8 1.554535 1_455
O13 V2 2.042836 1_555
O14 P9 1.548733 1_455
O15 P5 1.528518 1_555
O16 P4 1.542581 1_555
O17 P8 1.560313 1_455
O17 V0 2.006170 1_555
O18 P9 1.563043 1_455
O18 V0 2.137700 1_555
O19 P5 1.554882 1_555
O20 P9 1.542051 1_554
O20 V3 2.088643 1_555
O21 P11 1.558852 1_455
O21 V2 2.034720 1_555
O22 P4 1.563537 1_555
O22 V1 2.001582 1_555
O23 P5 1.570350 1_555
O23 V1 2.125036 1_555
O24 P10 1.554523 1_555
O25 P1 1.518643 1_555
O25 V1 1.999888 1_565
O26 P6 1.574486 1_555
O27 P2 1.556767 1_655
O27 V3 2.018450 1_555
O28 P0 1.575239 1_655
O29 P7 1.541441 1_555
O30 P2 1.547078 1_556
O30 V0 1.983939 1_555
O31 P6 1.544916 1_555
O31 V2 2.057321 1_555
O32 P3 1.558127 1_655
O32 V3 2.063449 1_555
O33 P6 1.540673 1_555
O33 V1 1.997056 1_565
O34 P2 1.537637 1_655
O35 P0 1.546477 1_655
O36 P7 1.535645 1_555
O37 P9 1.572700 1_555
O38 P8 1.511110 1_545
O39 P10 1.543423 1_555
O39 V0 2.057146 1_555
O40 P11 1.538600 1_555
O40 V1 2.051323 1_565
O41 P8 1.558412 1_555
O42 P7 1.565050 1_555
O42 V0 2.030604 1_655
O43 P6 1.554682 1_555
O44 P7 1.558629 1_555
O45 P10 1.556164 1_555
O46 P10 1.545645 1_555
O47 P0 1.525338 1_655
O47 V0 1.992091 1_655
