# generated using pymatgen
data_TbFe10Mo2N
_symmetry_space_group_name_H-M   'P 1'
_cell_length_a   4.77082700
_cell_length_b   6.56227856
_cell_length_c   6.56227856
_cell_angle_alpha   97.88097503
_cell_angle_beta   111.31554054
_cell_angle_gamma   68.68445946
_symmetry_Int_Tables_number   1
_chemical_formula_structural   TbFe10Mo2N
_chemical_formula_sum   'Tb1 Fe10 Mo2 N1'
_cell_volume   178.29861212
_cell_formula_units_Z   1
loop_
 _symmetry_equiv_pos_site_id
 _symmetry_equiv_pos_as_xyz
  1  'x, y, z'
loop_
 _atom_site_type_symbol
 _atom_site_label
 _atom_site_symmetry_multiplicity
 _atom_site_fract_x
 _atom_site_fract_y
 _atom_site_fract_z
 _atom_site_occupancy
  Tb  Tb0  1  0.00000000  0.00000000  0.00000000  1
  Fe  Fe0  1  0.71985000  0.78015000  0.21985000  1
  Fe  Fe1  1  0.28015000  0.21985000  0.78015000  1
  Fe  Fe2  1  0.50000000  0.77932900  0.77932900  1
  Fe  Fe3  1  0.50000000  0.22067100  0.22067100  1
  Fe  Fe4  1  0.50000000  0.00000000  0.50000000  1
  Fe  Fe5  1  0.00000000  0.00000000  0.50000000  1
  Fe  Fe6  1  0.50000000  0.50000000  0.00000000  1
  Fe  Fe7  1  0.00000000  0.50000000  0.00000000  1
  Fe  Fe8  1  0.64036700  0.35963300  0.64036700  1
  Fe  Fe9  1  0.35963300  0.64036700  0.35963300  1
  Mo  Mo0  1  0.00000000  0.35859000  0.35859000  1
  Mo  Mo1  1  0.00000000  0.64141000  0.64141000  1
  N  N0  1  0.50000000  0.00000000  0.00000000  1
loop_
_geom_bond_atom_site_label_1
_geom_bond_atom_site_label_2
_geom_bond_distance
_geom_bond_site_symmetry_2
Fe0 N0 1.906184 1_565
Fe0 Fe7 2.477042 1_655
Fe0 Fe5 2.477042 1_665
Fe0 Fe6 2.477042 1_555
Fe0 Fe4 2.477042 1_565
Fe0 Fe9 2.675645 1_655
Fe0 Fe9 2.675645 1_555
Fe0 Mo0 2.717755 1_655
Fe0 Mo1 2.717755 1_655
Fe1 N0 1.906184 1_556
Fe1 Fe5 2.477042 1_555
Fe1 Fe7 2.477042 1_556
Fe1 Fe4 2.477042 1_555
Fe1 Fe6 2.477042 1_556
Fe1 Fe8 2.675645 1_455
Fe1 Fe8 2.675645 1_555
Fe1 Mo0 2.717755 1_555
Fe1 Mo1 2.717755 1_555
Fe2 N0 1.902353 1_566
Fe2 Fe5 2.486956 1_565
Fe2 Fe7 2.486956 1_656
Fe2 Fe4 2.486956 1_565
Fe2 Fe6 2.486956 1_556
Fe2 Mo1 2.665303 1_555
Fe2 Mo1 2.665303 1_655
Fe2 Fe9 2.698108 1_555
Fe2 Fe8 2.698108 1_555
Fe3 N0 1.902353 1_555
Fe3 Fe5 2.486956 1_655
Fe3 Fe7 2.486956 1_555
Fe3 Fe6 2.486956 1_555
Fe3 Fe4 2.486956 1_555
Fe3 Mo0 2.665303 1_555
Fe3 Mo0 2.665303 1_655
Fe3 Fe8 2.698108 1_555
Fe3 Fe9 2.698108 1_555
Fe4 Fe5 2.385413 1_655
Fe4 Fe5 2.385413 1_555
Fe4 Fe9 2.640259 1_545
Fe4 Fe8 2.640259 1_555
Fe4 Mo1 2.645252 1_645
Fe4 Mo0 2.645252 1_555
Fe4 Tb0 3.281139 1_555
Fe4 Tb0 3.281139 1_656
Fe5 Fe9 2.640259 1_545
Fe5 Fe8 2.640259 1_455
Fe5 Mo1 2.645252 1_545
Fe5 Mo0 2.645252 1_555
Fe5 Tb0 3.281139 1_555
Fe5 Tb0 3.281139 1_556
Fe6 Fe7 2.385413 1_655
Fe6 Fe7 2.385413 1_555
Fe6 Fe8 2.640259 1_554
Fe6 Fe9 2.640259 1_555
Fe6 Mo1 2.645252 1_554
Fe6 Mo0 2.645252 1_655
Fe6 Tb0 3.281139 1_565
Fe6 Tb0 3.281139 1_655
Fe7 Fe8 2.640259 1_454
Fe7 Fe9 2.640259 1_555
Fe7 Mo1 2.645252 1_554
Fe7 Mo0 2.645252 1_555
Fe7 Tb0 3.281139 1_565
Fe7 Tb0 3.281139 1_555
Fe8 Fe9 2.434072 1_555
Fe8 Mo1 2.942361 1_555
Fe8 Mo0 2.942361 1_555
Fe8 Mo0 2.942361 1_655
Fe8 Mo1 2.942361 1_655
Fe8 Tb0 3.118156 1_656
Fe9 Mo1 2.942361 1_655
Fe9 Mo0 2.942361 1_655
Fe9 Mo0 2.942361 1_555
Fe9 Mo1 2.942361 1_555
Fe9 Tb0 3.118156 1_565
Mo0 Mo1 2.438126 1_555
Mo0 Tb0 3.091321 1_555
Mo1 Tb0 3.091321 1_566
N0 Tb0 2.385413 1_555
N0 Tb0 2.385413 1_655
