# generated using pymatgen
data_SrCa7Mn6(FeO10)2
_symmetry_space_group_name_H-M   'P 1'
_cell_length_a   10.93596529
_cell_length_b   11.14162386
_cell_length_c   17.21813982
_cell_angle_alpha   108.79943468
_cell_angle_beta   108.43227457
_cell_angle_gamma   90.00193635
_symmetry_Int_Tables_number   1
_chemical_formula_structural   SrCa7Mn6(FeO10)2
_chemical_formula_sum   'Sr4 Ca28 Mn24 Fe8 O80'
_cell_volume   1871.95448015
_cell_formula_units_Z   4
loop_
 _symmetry_equiv_pos_site_id
 _symmetry_equiv_pos_as_xyz
  1  'x, y, z'
loop_
 _atom_site_type_symbol
 _atom_site_label
 _atom_site_symmetry_multiplicity
 _atom_site_fract_x
 _atom_site_fract_y
 _atom_site_fract_z
 _atom_site_occupancy
  Sr  Sr0  1  0.30834000  0.56072300  0.60985400  1
  Sr  Sr1  1  0.05778400  0.29789400  0.61078300  1
  Sr  Sr2  1  0.55978600  0.29912200  0.61113200  1
  Sr  Sr3  1  0.44768400  0.20038100  0.88948500  1
  Ca  Ca0  1  0.30462700  0.06418600  0.10787900  1
  Ca  Ca1  1  0.30224500  0.06020500  0.60391300  1
  Ca  Ca2  1  0.30555600  0.56563300  0.10849700  1
  Ca  Ca3  1  0.80602200  0.06381800  0.10767300  1
  Ca  Ca4  1  0.80622500  0.06141800  0.60641400  1
  Ca  Ca5  1  0.80693600  0.56458100  0.10832600  1
  Ca  Ca6  1  0.80735400  0.56312400  0.60598800  1
  Ca  Ca7  1  0.19937900  0.43549200  0.39157600  1
  Ca  Ca8  1  0.19731900  0.43745100  0.89517800  1
  Ca  Ca9  1  0.19802600  0.93600300  0.39176600  1
  Ca  Ca10  1  0.19829300  0.93581000  0.89332000  1
  Ca  Ca11  1  0.69830700  0.43569200  0.39263800  1
  Ca  Ca12  1  0.69969300  0.43826600  0.89535600  1
  Ca  Ca13  1  0.69968200  0.93658000  0.39207900  1
  Ca  Ca14  1  0.70008800  0.93820900  0.89342100  1
  Ca  Ca15  1  0.05618300  0.29411500  0.10823500  1
  Ca  Ca16  1  0.05554300  0.79287400  0.10757500  1
  Ca  Ca17  1  0.05547600  0.79483700  0.60607500  1
  Ca  Ca18  1  0.55612700  0.29373100  0.10839600  1
  Ca  Ca19  1  0.55633300  0.79427900  0.10855700  1
  Ca  Ca20  1  0.55655000  0.79469900  0.60636200  1
  Ca  Ca21  1  0.44807900  0.20720400  0.39157300  1
  Ca  Ca22  1  0.44985600  0.70623900  0.39259900  1
  Ca  Ca23  1  0.44935200  0.70705700  0.89476500  1
  Ca  Ca24  1  0.94824700  0.20587900  0.39169200  1
  Ca  Ca25  1  0.95059600  0.20601400  0.89222800  1
  Ca  Ca26  1  0.94885700  0.70607100  0.39232500  1
  Ca  Ca27  1  0.94773600  0.70723700  0.89299300  1
  Mn  Mn0  1  0.00535300  0.99934600  0.49920000  1
  Mn  Mn1  1  0.00336600  0.49969700  0.49753700  1
  Mn  Mn2  1  0.50520700  0.49884900  0.49706600  1
  Mn  Mn3  1  0.25600700  0.25096800  0.00158500  1
  Mn  Mn4  1  0.25305600  0.24773700  0.49608600  1
  Mn  Mn5  1  0.25456400  0.74950000  0.49805200  1
  Mn  Mn6  1  0.75434900  0.24838500  0.49846600  1
  Mn  Mn7  1  0.75526600  0.74987100  0.49919700  1
  Mn  Mn8  1  0.10959400  0.09566300  0.24947400  1
  Mn  Mn9  1  0.10788300  0.09307100  0.75105800  1
  Mn  Mn10  1  0.11009100  0.59769000  0.25076000  1
  Mn  Mn11  1  0.10788100  0.60178100  0.75151000  1
  Mn  Mn12  1  0.60959600  0.09642500  0.25094000  1
  Mn  Mn13  1  0.61314000  0.09372000  0.74863300  1
  Mn  Mn14  1  0.60925800  0.59762500  0.25130300  1
  Mn  Mn15  1  0.61649200  0.60270900  0.75242100  1
  Mn  Mn16  1  0.35900100  0.40428900  0.24881300  1
  Mn  Mn17  1  0.36256800  0.40575900  0.75257500  1
  Mn  Mn18  1  0.35923500  0.90215700  0.25036700  1
  Mn  Mn19  1  0.35713000  0.90205900  0.74781800  1
  Mn  Mn20  1  0.85907100  0.40357900  0.24921300  1
  Mn  Mn21  1  0.86320800  0.40388300  0.75103300  1
  Mn  Mn22  1  0.86119800  0.90285700  0.25101200  1
  Mn  Mn23  1  0.85935500  0.90037600  0.74884600  1
  Fe  Fe0  1  0.00638600  0.00240000  0.00146600  1
  Fe  Fe1  1  0.00536800  0.49810800  0.99917600  1
  Fe  Fe2  1  0.50545100  0.00073200  0.00175500  1
  Fe  Fe3  1  0.50463700  0.99836600  0.49800100  1
  Fe  Fe4  1  0.50575000  0.50059000  0.00196900  1
  Fe  Fe5  1  0.25500900  0.75061500  0.00060700  1
  Fe  Fe6  1  0.75661700  0.25039700  0.00113400  1
  Fe  Fe7  1  0.75645400  0.75103700  0.00132000  1
  O  O0  1  0.12259200  0.11635000  0.48432400  1
  O  O1  1  0.12477200  0.12249900  0.98736400  1
  O  O2  1  0.12272700  0.62309300  0.48618600  1
  O  O3  1  0.12384900  0.62101900  0.98916200  1
  O  O4  1  0.62282100  0.11819700  0.48498200  1
  O  O5  1  0.62707300  0.11900800  0.99230000  1
  O  O6  1  0.62389100  0.62154200  0.48792100  1
  O  O7  1  0.62450700  0.62175100  0.98969600  1
  O  O8  1  0.13957700  0.37966000  0.01579300  1
  O  O9  1  0.13162600  0.37411000  0.50370900  1
  O  O10  1  0.13546700  0.88076300  0.01216400  1
  O  O11  1  0.13482100  0.87891800  0.50962800  1
  O  O12  1  0.63673500  0.38192900  0.01479700  1
  O  O13  1  0.63645100  0.38072600  0.50882900  1
  O  O14  1  0.63483300  0.87905500  0.01250000  1
  O  O15  1  0.63602100  0.87764800  0.51037500  1
  O  O16  1  0.37135900  0.11591700  0.48779500  1
  O  O17  1  0.37099400  0.11821700  0.99096500  1
  O  O18  1  0.37445400  0.61874900  0.48624700  1
  O  O19  1  0.37389900  0.61819800  0.98977500  1
  O  O20  1  0.87115000  0.11524600  0.48525300  1
  O  O21  1  0.87416900  0.11714100  0.98639900  1
  O  O22  1  0.87165200  0.62057300  0.48746500  1
  O  O23  1  0.87396700  0.61782200  0.98802300  1
  O  O24  1  0.38477900  0.38287600  0.01530000  1
  O  O25  1  0.38288100  0.37810200  0.50532000  1
  O  O26  1  0.38581900  0.88235300  0.01240600  1
  O  O27  1  0.38441400  0.87989300  0.50985000  1
  O  O28  1  0.88638200  0.38317200  0.01277000  1
  O  O29  1  0.87867100  0.38019600  0.50754500  1
  O  O30  1  0.88637800  0.88376500  0.01326900  1
  O  O31  1  0.88525900  0.88127000  0.51145400  1
  O  O32  1  0.08249600  0.09874600  0.13339500  1
  O  O33  1  0.07957500  0.08578000  0.62997700  1
  O  O34  1  0.08268100  0.59559000  0.13612500  1
  O  O35  1  0.07329400  0.59049900  0.63398000  1
  O  O36  1  0.58090500  0.09594600  0.13714400  1
  O  O37  1  0.58302000  0.08476300  0.63230300  1
  O  O38  1  0.58087600  0.59701200  0.13714300  1
  O  O39  1  0.57732600  0.59016700  0.63294500  1
  O  O40  1  0.44898800  0.40562400  0.36679600  1
  O  O41  1  0.44827300  0.40974500  0.86643100  1
  O  O42  1  0.44516400  0.90466800  0.36554300  1
  O  O43  1  0.44386400  0.90934900  0.86386800  1
  O  O44  1  0.94154500  0.40685900  0.36377800  1
  O  O45  1  0.95430900  0.40074600  0.86799700  1
  O  O46  1  0.94438900  0.90556300  0.36751000  1
  O  O47  1  0.94745000  0.90505200  0.86367700  1
  O  O48  1  0.32745300  0.28528300  0.13003800  1
  O  O49  1  0.32213300  0.29477800  0.63323100  1
  O  O50  1  0.32975700  0.79076000  0.13523300  1
  O  O51  1  0.32638000  0.79436600  0.63135300  1
  O  O52  1  0.83225400  0.28936200  0.13558200  1
  O  O53  1  0.82177900  0.28507500  0.62915600  1
  O  O54  1  0.83289400  0.78899300  0.13582000  1
  O  O55  1  0.82730900  0.78927100  0.63188500  1
  O  O56  1  0.19752300  0.21053700  0.36696500  1
  O  O57  1  0.19486500  0.21539200  0.87177400  1
  O  O58  1  0.19467500  0.71002300  0.36650600  1
  O  O59  1  0.19534200  0.71350100  0.86659200  1
  O  O60  1  0.69471200  0.20896700  0.36640900  1
  O  O61  1  0.69128600  0.20805900  0.86394800  1
  O  O62  1  0.69567700  0.71055500  0.36748700  1
  O  O63  1  0.70019300  0.71566300  0.86623200  1
  O  O64  1  0.42725200  0.07251500  0.25016100  1
  O  O65  1  0.42894000  0.06384300  0.74122900  1
  O  O66  1  0.42976500  0.57658400  0.25034000  1
  O  O67  1  0.43619800  0.57388700  0.75764400  1
  O  O68  1  0.92501800  0.06983200  0.25009500  1
  O  O69  1  0.91986500  0.06805400  0.74929200  1
  O  O70  1  0.92508000  0.57407000  0.25031300  1
  O  O71  1  0.92830000  0.57810700  0.74964900  1
  O  O72  1  0.17305400  0.43090700  0.25014400  1
  O  O73  1  0.18634900  0.43908500  0.75837600  1
  O  O74  1  0.17888400  0.92353900  0.24986200  1
  O  O75  1  0.17920900  0.91960700  0.75004500  1
  O  O76  1  0.67771500  0.42721800  0.25021900  1
  O  O77  1  0.68377800  0.44118900  0.75913300  1
  O  O78  1  0.67446200  0.92775000  0.25021000  1
  O  O79  1  0.67593200  0.92229200  0.74985300  1
loop_
_geom_bond_atom_site_label_1
_geom_bond_atom_site_label_2
_geom_bond_distance
_geom_bond_site_symmetry_2
Ca0 O64 2.363174 1_555
Ca0 O48 2.368564 1_555
Ca0 O10 2.493149 1_545
Ca0 O26 2.524224 1_545
Ca0 O17 2.578067 1_554
Ca0 O32 2.609273 1_555
Ca0 O1 2.623858 1_554
Ca0 O36 2.903454 1_555
Ca1 O65 2.319067 1_555
Ca1 O11 2.464607 1_545
Ca1 O49 2.492560 1_555
Ca1 O27 2.507966 1_545
Ca1 O16 2.590241 1_555
Ca1 O0 2.600615 1_555
Ca1 O33 2.611714 1_555
Ca1 O37 2.950703 1_555
Ca2 O66 2.352610 1_555
Ca2 O50 2.398362 1_555
Ca2 O8 2.484321 1_555
Ca2 O24 2.499022 1_555
Ca2 O3 2.605139 1_554
Ca2 O19 2.611120 1_554
Ca2 O34 2.628557 1_555
Ca2 O38 2.894935 1_555
Ca3 O68 2.363799 1_555
Ca3 O52 2.400521 1_555
Ca3 O30 2.498098 1_545
Ca3 O14 2.512647 1_545
Ca3 O5 2.546193 1_554
Ca3 O21 2.655593 1_554
Ca3 O36 2.668222 1_555
Ca3 O32 2.920832 1_655
Ca4 O69 2.356142 1_555
Ca4 O53 2.391819 1_555
Ca4 O31 2.495522 1_545
Ca4 O15 2.502492 1_545
Ca4 O37 2.614964 1_555
Ca4 O20 2.637975 1_555
Ca4 O4 2.644863 1_555
Ca4 O33 2.887299 1_655
Ca5 O70 2.343773 1_555
Ca5 O54 2.389218 1_555
Ca5 O12 2.488231 1_555
Ca5 O28 2.511538 1_555
Ca5 O7 2.611471 1_554
Ca5 O23 2.632873 1_554
Ca5 O38 2.673694 1_555
Ca5 O34 2.902161 1_655
Ca6 O71 2.358136 1_555
Ca6 O55 2.410264 1_555
Ca6 O29 2.498953 1_555
Ca6 O13 2.500603 1_555
Ca6 O22 2.611140 1_555
Ca6 O6 2.618275 1_555
Ca6 O39 2.698633 1_555
Ca6 O35 2.793275 1_655
Ca7 O72 2.343536 1_555
Ca7 O56 2.402472 1_555
Ca7 O18 2.524438 1_555
Ca7 O2 2.528701 1_555
Ca7 O9 2.549514 1_555
Ca7 O25 2.567767 1_555
Ca7 O44 2.707298 1_455
Ca7 O40 2.896409 1_555
Ca8 O73 2.326356 1_555
Ca8 O57 2.373784 1_555
Ca8 O3 2.477183 1_555
Ca8 O19 2.516771 1_555
Ca8 O45 2.557128 1_455
Ca8 O8 2.611014 1_556
Ca8 O24 2.641890 1_556
Ca8 O41 2.938153 1_555
Ca9 O74 2.343247 1_555
Ca9 O58 2.411199 1_555
Ca9 O0 2.454677 1_565
Ca9 O16 2.495356 1_565
Ca9 O11 2.592198 1_555
Ca9 O27 2.622603 1_555
Ca9 O46 2.675688 1_455
Ca9 O42 2.881048 1_555
Ca10 O75 2.355690 1_555
Ca10 O59 2.367218 1_555
Ca10 O1 2.499514 1_565
Ca10 O17 2.512670 1_565
Ca10 O10 2.594867 1_556
Ca10 O26 2.625417 1_556
Ca10 O47 2.627729 1_455
Ca10 O43 2.884646 1_555
Ca11 O76 2.361025 1_555
Ca11 O60 2.416630 1_555
Ca11 O6 2.509270 1_555
Ca11 O22 2.525348 1_555
Ca11 O13 2.545667 1_555
Ca11 O29 2.551084 1_555
Ca11 O40 2.623155 1_555
Ca11 O44 2.856395 1_555
Ca12 O77 2.307344 1_555
Ca12 O61 2.440099 1_555
Ca12 O7 2.489642 1_555
Ca12 O23 2.489933 1_555
Ca12 O28 2.611883 1_556
Ca12 O12 2.612429 1_556
Ca12 O41 2.634556 1_555
Ca12 O45 2.975326 1_555
Ca13 O78 2.339168 1_555
Ca13 O62 2.413293 1_555
Ca13 O20 2.468139 1_565
Ca13 O4 2.474685 1_565
Ca13 O15 2.612118 1_555
Ca13 O31 2.627129 1_555
Ca13 O42 2.678342 1_555
Ca13 O46 2.842826 1_555
Ca14 O79 2.348701 1_555
Ca14 O63 2.370528 1_555
Ca14 O21 2.485362 1_565
Ca14 O5 2.498663 1_565
Ca14 O30 2.631547 1_556
Ca14 O14 2.635072 1_556
Ca14 O43 2.684527 1_555
Ca14 O47 2.910457 1_555
Ca15 O32 2.353209 1_555
Ca15 O72 2.356165 1_555
Ca15 O8 2.483795 1_555
Ca15 O28 2.501147 1_455
Ca15 O21 2.635140 1_454
Ca15 O52 2.639464 1_455
Ca15 O1 2.640544 1_554
Ca15 O48 2.875917 1_555
Ca16 O74 2.356338 1_555
Ca16 O34 2.401127 1_555
Ca16 O30 2.498983 1_455
Ca16 O10 2.523170 1_555
Ca16 O23 2.609905 1_454
Ca16 O3 2.613093 1_554
Ca16 O54 2.632374 1_455
Ca16 O50 2.885181 1_555
Ca17 O75 2.359265 1_555
Ca17 O35 2.469378 1_555
Ca17 O31 2.477965 1_455
Ca17 O11 2.510390 1_555
Ca17 O22 2.613373 1_455
Ca17 O2 2.622578 1_555
Ca17 O55 2.673287 1_455
Ca17 O51 2.855261 1_555
Ca18 O76 2.355602 1_555
Ca18 O36 2.406810 1_555
Ca18 O24 2.488784 1_555
Ca18 O12 2.501800 1_555
Ca18 O5 2.619206 1_554
Ca18 O17 2.621832 1_554
Ca18 O48 2.648292 1_555
Ca18 O52 2.908780 1_555
Ca19 O78 2.344946 1_555
Ca19 O38 2.399725 1_555
Ca19 O14 2.503850 1_555
Ca19 O26 2.505184 1_555
Ca19 O19 2.616384 1_554
Ca19 O7 2.620830 1_554
Ca19 O50 2.661470 1_555
Ca19 O54 2.913971 1_555
Ca20 O79 2.350733 1_555
Ca20 O39 2.461840 1_555
Ca20 O15 2.496720 1_555
Ca20 O27 2.498936 1_555
Ca20 O6 2.614820 1_555
Ca20 O18 2.620728 1_555
Ca20 O51 2.684600 1_555
Ca20 O55 2.856334 1_555
Ca21 O64 2.350885 1_555
Ca21 O40 2.383259 1_555
Ca21 O4 2.511276 1_555
Ca21 O16 2.539344 1_555
Ca21 O25 2.539551 1_555
Ca21 O13 2.628976 1_555
Ca21 O56 2.639106 1_555
Ca21 O60 2.864842 1_555
Ca22 O66 2.348171 1_555
Ca22 O42 2.399181 1_555
Ca22 O18 2.466558 1_555
Ca22 O6 2.495914 1_555
Ca22 O27 2.593759 1_555
Ca22 O15 2.607167 1_555
Ca22 O58 2.685280 1_555
Ca22 O62 2.857377 1_555
Ca23 O67 2.307332 1_555
Ca23 O43 2.473684 1_555
Ca23 O19 2.496917 1_555
Ca23 O7 2.503129 1_555
Ca23 O26 2.596241 1_556
Ca23 O14 2.606138 1_556
Ca23 O59 2.669688 1_555
Ca23 O63 2.942484 1_555
Ca24 O68 2.352161 1_555
Ca24 O44 2.433510 1_555
Ca24 O20 2.496599 1_555
Ca24 O0 2.505318 1_655
Ca24 O9 2.545342 1_655
Ca24 O29 2.606344 1_555
Ca24 O60 2.669207 1_555
Ca24 O56 2.891991 1_655
Ca25 O45 2.340327 1_555
Ca25 O69 2.360374 1_555
Ca25 O1 2.487303 1_655
Ca25 O21 2.489953 1_555
Ca25 O28 2.641643 1_556
Ca25 O8 2.665905 1_656
Ca25 O61 2.722750 1_555
Ca25 O57 2.808826 1_655
Ca26 O70 2.343001 1_555
Ca26 O46 2.392502 1_555
Ca26 O2 2.470196 1_655
Ca26 O22 2.486780 1_555
Ca26 O11 2.611383 1_655
Ca26 O31 2.612095 1_555
Ca26 O62 2.667669 1_555
Ca26 O58 2.862627 1_655
Ca27 O71 2.363538 1_555
Ca27 O47 2.414197 1_555
Ca27 O23 2.491155 1_555
Ca27 O3 2.526375 1_655
Ca27 O63 2.605520 1_555
Ca27 O30 2.619349 1_556
Ca27 O10 2.634783 1_656
Ca27 O59 2.888350 1_655
Mn0 O0 1.957451 1_565
Mn0 O11 1.957514 1_555
Mn0 O31 1.963185 1_455
Mn0 O20 1.963732 1_465
Mn0 O33 2.025616 1_565
Mn0 O46 2.048081 1_455
Mn1 O22 1.977708 1_455
Mn1 O9 1.984516 1_555
Mn1 O29 1.989555 1_455
Mn1 O2 1.991640 1_555
Mn1 O44 2.076323 1_455
Mn1 O35 2.111756 1_555
Mn2 O13 1.954794 1_555
Mn2 O6 1.961106 1_555
Mn2 O18 1.963669 1_555
Mn2 O25 1.965449 1_555
Mn2 O40 2.028367 1_555
Mn2 O39 2.104702 1_555
Mn3 O8 1.925614 1_555
Mn3 O1 1.928788 1_554
Mn3 O24 1.940292 1_555
Mn3 O17 1.942568 1_554
Mn3 O48 2.002638 1_555
Mn3 O57 2.020843 1_554
Mn4 O9 1.937626 1_555
Mn4 O16 1.957811 1_555
Mn4 O0 1.961019 1_555
Mn4 O25 1.964426 1_555
Mn4 O56 2.008883 1_555
Mn4 O49 2.120317 1_555
Mn5 O2 1.931862 1_555
Mn5 O27 1.948230 1_555
Mn5 O11 1.952852 1_555
Mn5 O18 1.964776 1_555
Mn5 O58 2.042635 1_555
Mn5 O51 2.062820 1_555
Mn6 O29 1.935756 1_555
Mn6 O4 1.948963 1_555
Mn6 O13 1.960708 1_555
Mn6 O20 1.962180 1_555
Mn6 O53 2.032794 1_555
Mn6 O60 2.051073 1_555
Mn7 O22 1.926464 1_555
Mn7 O15 1.935618 1_555
Mn7 O6 1.946972 1_555
Mn7 O31 1.954425 1_555
Mn7 O62 2.045643 1_555
Mn7 O55 2.061153 1_555
Mn8 O32 1.937360 1_555
Mn8 O56 1.938098 1_555
Mn8 O68 2.042779 1_455
Mn8 O74 2.063279 1_545
Mn9 O33 1.982801 1_555
Mn9 O57 2.001580 1_555
Mn9 O69 2.064307 1_455
Mn9 O75 2.081088 1_545
Mn10 O34 1.892718 1_555
Mn10 O58 1.902737 1_555
Mn10 O72 1.979713 1_555
Mn10 O70 2.037588 1_455
Mn11 O59 1.897978 1_555
Mn11 O35 1.898957 1_555
Mn11 O71 1.970328 1_455
Mn11 O73 2.027386 1_555
Mn12 O36 1.882033 1_555
Mn12 O60 1.901155 1_555
Mn12 O78 2.006412 1_545
Mn12 O64 2.007077 1_555
Mn13 O37 1.893242 1_555
Mn13 O61 1.895300 1_555
Mn13 O65 1.998774 1_555
Mn13 O79 2.033927 1_545
Mn14 O38 1.888279 1_555
Mn14 O62 1.913188 1_555
Mn14 O66 1.971092 1_555
Mn14 O76 2.037555 1_555
Mn15 O63 1.880933 1_555
Mn15 O39 1.921562 1_555
Mn15 O77 1.968175 1_555
Mn15 O67 2.032108 1_555
Mn16 O40 1.952378 1_555
Mn16 O48 1.966108 1_555
Mn16 O66 2.058911 1_555
Mn16 O72 2.061255 1_555
Mn17 O41 1.872307 1_555
Mn17 O49 1.932552 1_555
Mn17 O73 1.989855 1_555
Mn17 O67 2.003752 1_555
Mn18 O50 1.893228 1_555
Mn18 O42 1.897994 1_555
Mn18 O74 1.984280 1_555
Mn18 O64 2.040064 1_565
Mn19 O43 1.896265 1_555
Mn19 O51 1.896528 1_555
Mn19 O75 1.966714 1_555
Mn19 O65 2.016623 1_565
Mn20 O44 1.880004 1_555
Mn20 O52 1.888334 1_555
Mn20 O76 2.005487 1_555
Mn20 O70 2.024305 1_555
Mn21 O45 1.956062 1_555
Mn21 O53 1.992378 1_555
Mn21 O77 2.044102 1_555
Mn21 O71 2.077439 1_555
Mn22 O54 1.905022 1_555
Mn22 O46 1.912894 1_555
Mn22 O68 1.993529 1_565
Mn22 O78 2.057211 1_555
Mn23 O47 1.889219 1_555
Mn23 O55 1.912520 1_555
Mn23 O69 1.978787 1_565
Mn23 O79 2.025559 1_555
Fe0 O21 1.941383 1_454
Fe0 O30 1.962778 1_445
Fe0 O10 1.964654 1_545
Fe0 O1 1.983355 1_554
Fe0 O32 2.058602 1_555
Fe0 O47 2.143580 1_444
Fe1 O28 1.942554 1_456
Fe1 O23 1.967636 1_455
Fe1 O3 1.969074 1_555
Fe1 O8 1.988863 1_556
Fe1 O45 2.052642 1_455
Fe1 O34 2.131492 1_556
Fe2 O26 1.947395 1_545
Fe2 O5 1.951201 1_554
Fe2 O14 1.967316 1_545
Fe2 O17 1.973365 1_554
Fe2 O36 2.104802 1_555
Fe2 O43 2.134880 1_544
Fe3 O27 1.963575 1_555
Fe3 O16 1.963948 1_565
Fe3 O4 1.969569 1_565
Fe3 O15 1.977390 1_555
Fe3 O42 2.059552 1_555
Fe3 O37 2.078589 1_565
Fe4 O19 1.956070 1_554
Fe4 O12 1.958784 1_555
Fe4 O24 1.977087 1_555
Fe4 O7 1.977608 1_554
Fe4 O41 2.101362 1_554
Fe4 O38 2.103646 1_555
Fe5 O3 1.954182 1_554
Fe5 O10 1.957034 1_555
Fe5 O26 1.966203 1_555
Fe5 O19 1.969265 1_554
Fe5 O59 2.086658 1_554
Fe5 O50 2.091638 1_555
Fe6 O28 1.967602 1_555
Fe6 O21 1.971014 1_554
Fe6 O5 1.973117 1_554
Fe6 O12 1.973506 1_555
Fe6 O52 2.091173 1_555
Fe6 O61 2.127692 1_554
Fe7 O14 1.955903 1_555
Fe7 O7 1.956667 1_554
Fe7 O30 1.966444 1_555
Fe7 O23 1.968264 1_554
Fe7 O54 2.094116 1_555
Fe7 O63 2.109068 1_554
O0 Sr1 2.733502 1_555
O2 Sr0 2.712525 1_555
O4 Sr2 2.716892 1_555
O5 Sr3 2.577381 1_555
O9 Sr0 2.591330 1_555
O9 Sr1 2.592786 1_555
O12 Sr3 2.717944 1_554
O13 Sr2 2.568733 1_555
O16 Sr2 2.713148 1_555
O17 Sr3 2.559691 1_555
O18 Sr0 2.707430 1_555
O20 Sr1 2.711793 1_655
O24 Sr3 2.721021 1_554
O25 Sr0 2.571316 1_555
O25 Sr2 2.576994 1_555
O29 Sr1 2.585778 1_655
O33 Sr1 2.490942 1_555
O35 Sr0 2.734287 1_555
O35 Sr1 3.151890 1_555
O37 Sr2 2.530619 1_555
O39 Sr0 2.845193 1_555
O39 Sr2 3.140461 1_555
O41 Sr3 2.489434 1_555
O43 Sr3 3.126834 1_565
O49 Sr2 2.745717 1_555
O49 Sr1 2.794643 1_555
O49 Sr0 3.113648 1_555
O51 Sr0 2.507015 1_555
O53 Sr1 2.706871 1_655
O53 Sr2 2.792655 1_555
O57 Sr3 2.695353 1_555
O61 Sr3 2.839478 1_555
O65 Sr3 2.457382 1_555
O67 Sr0 2.441594 1_555
O73 Sr1 2.464420 1_555
O77 Sr2 2.460283 1_555
