# generated using pymatgen
data_Na2Mg2Fe2Se3(SO8)3
_symmetry_space_group_name_H-M   'P 1'
_cell_length_a   9.11960091
_cell_length_b   9.11960091
_cell_length_c   9.11960091
_cell_angle_alpha   57.37391119
_cell_angle_beta   57.37391119
_cell_angle_gamma   57.37390599
_symmetry_Int_Tables_number   1
_chemical_formula_structural   Na2Mg2Fe2Se3(SO8)3
_chemical_formula_sum   'Na2 Mg2 Fe2 Se3 S3 O24'
_cell_volume   503.89264265
_cell_formula_units_Z   1
loop_
 _symmetry_equiv_pos_site_id
 _symmetry_equiv_pos_as_xyz
  1  'x, y, z'
loop_
 _atom_site_type_symbol
 _atom_site_label
 _atom_site_symmetry_multiplicity
 _atom_site_fract_x
 _atom_site_fract_y
 _atom_site_fract_z
 _atom_site_occupancy
  Na  Na0  1  0.99974500  0.99974500  0.99974500  1
  Na  Na1  1  0.50126600  0.50126600  0.50126600  1
  Mg  Mg0  1  0.35775200  0.35775200  0.35775200  1
  Mg  Mg1  1  0.65121000  0.65121000  0.65121000  1
  Fe  Fe0  1  0.84947400  0.84947400  0.84947400  1
  Fe  Fe1  1  0.14319600  0.14319600  0.14319600  1
  Se  Se0  1  0.24897600  0.95933600  0.54057800  1
  Se  Se1  1  0.54057800  0.24897600  0.95933600  1
  Se  Se2  1  0.95933600  0.54057800  0.24897600  1
  S  S0  1  0.75510600  0.04107800  0.45626300  1
  S  S1  1  0.45626300  0.75510600  0.04107800  1
  S  S2  1  0.04107800  0.45626300  0.75510600  1
  O  O0  1  0.81242400  0.00117600  0.60382000  1
  O  O1  1  0.60382000  0.81242400  0.00117600  1
  O  O2  1  0.00117600  0.60382000  0.81242400  1
  O  O3  1  0.19155000  0.98768600  0.37862000  1
  O  O4  1  0.37862000  0.19155000  0.98768600  1
  O  O5  1  0.98768600  0.37862000  0.19155000  1
  O  O6  1  0.52647300  0.24562400  0.14893600  1
  O  O7  1  0.14893600  0.52647300  0.24562400  1
  O  O8  1  0.24562400  0.14893600  0.52647300  1
  O  O9  1  0.48453100  0.73382000  0.87851100  1
  O  O10  1  0.87851100  0.48453100  0.73382000  1
  O  O11  1  0.73382000  0.87851100  0.48453100  1
  O  O12  1  0.09224100  0.88979100  0.75039100  1
  O  O13  1  0.75039100  0.09224100  0.88979100  1
  O  O14  1  0.88979100  0.75039100  0.09224100  1
  O  O15  1  0.90449800  0.08509400  0.26959300  1
  O  O16  1  0.26959300  0.90449800  0.08509400  1
  O  O17  1  0.08509400  0.26959300  0.90449800  1
  O  O18  1  0.45771600  0.58248000  0.20669800  1
  O  O19  1  0.20669800  0.45771600  0.58248000  1
  O  O20  1  0.58248000  0.20669800  0.45771600  1
  O  O21  1  0.52413400  0.45265200  0.78755800  1
  O  O22  1  0.78755800  0.52413400  0.45265200  1
  O  O23  1  0.45265200  0.78755800  0.52413400  1
loop_
_geom_bond_atom_site_label_1
_geom_bond_atom_site_label_2
_geom_bond_distance
_geom_bond_site_symmetry_2
Na0 O13 2.523184 1_565
Na0 O12 2.523184 1_655
Na0 O14 2.523184 1_556
Na0 O16 2.539255 1_656
Na0 O15 2.539255 1_566
Na0 O17 2.539255 1_665
Na1 O23 2.509176 1_555
Na1 O21 2.509176 1_555
Na1 O22 2.509176 1_555
Na1 O20 2.571103 1_555
Na1 O18 2.571103 1_555
Na1 O19 2.571103 1_555
Mg0 O7 2.069583 1_555
Mg0 O6 2.069583 1_555
Mg0 O8 2.069584 1_555
Mg0 O20 2.131918 1_555
Mg0 O19 2.131919 1_555
Mg0 O18 2.131919 1_555
Mg1 O10 2.055839 1_555
Mg1 O9 2.055839 1_555
Mg1 O11 2.055839 1_555
Mg1 O23 2.109287 1_555
Mg1 O22 2.109287 1_555
Mg1 O21 2.109287 1_555
Fe0 O2 2.004262 1_655
Fe0 O0 2.004262 1_565
Fe0 O1 2.004262 1_556
Fe0 O13 2.053177 1_565
Fe0 O14 2.053177 1_556
Fe0 O12 2.053177 1_655
Fe1 O5 1.969389 1_455
Fe1 O3 1.969390 1_545
Fe1 O4 1.969390 1_554
Fe1 O16 2.056087 1_545
Fe1 O17 2.056087 1_554
Fe1 O15 2.056087 1_455
O0 S0 1.497267 1_555
O1 S1 1.497268 1_555
O2 S2 1.497267 1_555
O3 Se0 1.672998 1_555
O4 Se1 1.672998 1_555
O5 Se2 1.672998 1_555
O6 Se1 1.647604 1_554
O7 Se2 1.647604 1_455
O8 Se0 1.647604 1_545
O9 S1 1.465036 1_556
O10 S2 1.465036 1_655
O11 S0 1.465036 1_565
O12 Se0 1.681158 1_555
O13 Se1 1.681157 1_555
O14 Se2 1.681157 1_555
O15 S0 1.505727 1_555
O16 S1 1.505727 1_555
O17 S2 1.505727 1_555
O18 S1 1.481526 1_555
O19 S2 1.481526 1_555
O20 S0 1.481526 1_555
O21 Se1 1.655893 1_555
O22 Se2 1.655893 1_555
O23 Se0 1.655893 1_555
