# generated using pymatgen
data_Mn2FeReO6
_symmetry_space_group_name_H-M   'P 1'
_cell_length_a   5.31688743
_cell_length_b   5.40627502
_cell_length_c   7.86000816
_cell_angle_alpha   90.00438617
_cell_angle_beta   89.96361949
_cell_angle_gamma   89.99129929
_symmetry_Int_Tables_number   1
_chemical_formula_structural   Mn2FeReO6
_chemical_formula_sum   'Mn4 Fe2 Re2 O12'
_cell_volume   225.93239326
_cell_formula_units_Z   2
loop_
 _symmetry_equiv_pos_site_id
 _symmetry_equiv_pos_as_xyz
  1  'x, y, z'
loop_
 _atom_site_type_symbol
 _atom_site_label
 _atom_site_symmetry_multiplicity
 _atom_site_fract_x
 _atom_site_fract_y
 _atom_site_fract_z
 _atom_site_occupancy
  Mn  Mn0  1  0.00011400  0.04496300  0.75765500  1
  Mn  Mn1  1  0.49977600  0.54525200  0.74206800  1
  Mn  Mn2  1  0.50817300  0.44998700  0.25848400  1
  Mn  Mn3  1  0.99204600  0.94962800  0.24164100  1
  Fe  Fe0  1  0.49933700  0.99864000  0.50106000  1
  Fe  Fe1  1  0.00060600  0.49920300  0.99873400  1
  Re  Re0  1  0.00318500  0.49935300  0.49956800  1
  Re  Re1  1  0.49674600  0.99976000  0.00049400  1
  O  O0  1  0.16041500  0.79787900  0.57561200  1
  O  O1  1  0.65949000  0.70463400  0.07382700  1
  O  O2  1  0.84032600  0.20423400  0.42608700  1
  O  O3  1  0.33976200  0.29807600  0.92454500  1
  O  O4  1  0.18160300  0.82575100  0.94712900  1
  O  O5  1  0.69417900  0.68332000  0.44181500  1
  O  O6  1  0.80557400  0.18338400  0.05825700  1
  O  O7  1  0.31870500  0.32534100  0.55292000  1
  O  O8  1  0.61878000  0.92691600  0.76793000  1
  O  O9  1  0.12361200  0.56849100  0.26797100  1
  O  O10  1  0.37656000  0.06833800  0.23195300  1
  O  O11  1  0.88101100  0.42685000  0.73225100  1
loop_
_geom_bond_atom_site_label_1
_geom_bond_atom_site_label_2
_geom_bond_distance
_geom_bond_site_symmetry_2
Mn0 O8 2.127159 1_445
Mn0 O4 2.134319 1_545
Mn0 O0 2.134470 1_545
Mn0 O11 2.168693 1_455
Mn0 O6 2.684920 1_456
Mn1 O11 2.126914 1_555
Mn1 O7 2.133665 1_555
Mn1 O3 2.136760 1_555
Mn1 O8 2.167880 1_555
Mn1 O5 2.681883 1_555
Mn2 O9 2.143847 1_555
Mn2 O5 2.155852 1_555
Mn2 O1 2.155990 1_555
Mn2 O10 2.188819 1_555
Mn2 O2 2.573320 1_555
Mn2 O7 2.611942 1_555
Mn2 O6 2.655254 1_555
Mn3 O10 2.144185 1_665
Mn3 O2 2.155235 1_565
Mn3 O6 2.158560 1_565
Mn3 O9 2.185809 1_655
Mn3 O1 2.573700 1_555
Mn3 O4 2.611415 1_654
Mn3 O5 2.656010 1_555
Fe0 O5 2.048121 1_555
Fe0 O7 2.051094 1_565
Fe0 O0 2.183573 1_555
Fe0 O2 2.206584 1_565
Fe0 O8 2.226058 1_555
Fe0 O10 2.245867 1_565
Fe1 O4 2.051200 1_555
Fe1 O6 2.051695 1_456
Fe1 O3 2.184504 1_555
Fe1 O1 2.206624 1_456
Fe1 O11 2.223996 1_455
Fe1 O9 2.246793 1_556
O0 Re0 1.913562 1_555
O1 Re1 1.904480 1_555
O2 Re0 1.905225 1_655
O3 Re1 1.911663 1_546
O4 Re1 1.967183 1_556
O5 Re0 1.973587 1_655
O6 Re1 1.972100 1_545
O7 Re0 1.968664 1_555
O8 Re1 1.978841 1_556
O9 Re0 1.965217 1_555
O10 Re1 1.963132 1_545
O11 Re0 1.979677 1_655
