# generated using pymatgen
data_Rb3YbCl6
_symmetry_space_group_name_H-M   'P 1'
_cell_length_a   13.56517302
_cell_length_b   13.56517302
_cell_length_c   12.86561008
_cell_angle_alpha   79.58427635
_cell_angle_beta   79.58427635
_cell_angle_gamma   34.83436654
_symmetry_Int_Tables_number   1
_chemical_formula_structural   Rb3YbCl6
_chemical_formula_sum   'Rb12 Yb4 Cl24'
_cell_volume   1327.80580446
_cell_formula_units_Z   4
loop_
 _symmetry_equiv_pos_site_id
 _symmetry_equiv_pos_as_xyz
  1  'x, y, z'
loop_
 _atom_site_type_symbol
 _atom_site_label
 _atom_site_symmetry_multiplicity
 _atom_site_fract_x
 _atom_site_fract_y
 _atom_site_fract_z
 _atom_site_occupancy
  Rb  Rb0  1  0.30479700  0.79500200  0.06818600  1
  Rb  Rb1  1  0.69520300  0.20499800  0.93181400  1
  Rb  Rb2  1  0.20499800  0.69520300  0.43181400  1
  Rb  Rb3  1  0.79500200  0.30479700  0.56818600  1
  Rb  Rb4  1  0.47261400  0.83865300  0.35148000  1
  Rb  Rb5  1  0.52738600  0.16134700  0.64852000  1
  Rb  Rb6  1  0.16134700  0.52738600  0.14852000  1
  Rb  Rb7  1  0.83865300  0.47261400  0.85148000  1
  Rb  Rb8  1  0.65067800  0.02519000  0.29840800  1
  Rb  Rb9  1  0.34932200  0.97481000  0.70159200  1
  Rb  Rb10  1  0.97481000  0.34932200  0.20159200  1
  Rb  Rb11  1  0.02519000  0.65067800  0.79840800  1
  Yb  Yb0  1  0.78688300  0.21311700  0.25000000  1
  Yb  Yb1  1  0.21311700  0.78688300  0.75000000  1
  Yb  Yb2  1  0.50000000  0.00000000  0.00000000  1
  Yb  Yb3  1  0.00000000  0.50000000  0.50000000  1
  Cl  Cl0  1  0.61874000  0.71827400  0.08151900  1
  Cl  Cl1  1  0.38126000  0.28172600  0.91848100  1
  Cl  Cl2  1  0.28172600  0.38126000  0.41848100  1
  Cl  Cl3  1  0.71827400  0.61874000  0.58151900  1
  Cl  Cl4  1  0.50213900  0.38232800  0.17382300  1
  Cl  Cl5  1  0.49786100  0.61767200  0.82617700  1
  Cl  Cl6  1  0.61767200  0.49786100  0.32617700  1
  Cl  Cl7  1  0.38232800  0.50213900  0.67382300  1
  Cl  Cl8  1  0.78926000  0.86293800  0.03555500  1
  Cl  Cl9  1  0.21074000  0.13706200  0.96444500  1
  Cl  Cl10  1  0.13706200  0.21074000  0.46444500  1
  Cl  Cl11  1  0.86293800  0.78926000  0.53555500  1
  Cl  Cl12  1  0.90002100  0.98294300  0.69992200  1
  Cl  Cl13  1  0.09997900  0.01705700  0.30007800  1
  Cl  Cl14  1  0.01705700  0.09997900  0.80007800  1
  Cl  Cl15  1  0.98294300  0.90002100  0.19992200  1
  Cl  Cl16  1  0.71869900  0.16188100  0.44368000  1
  Cl  Cl17  1  0.28130100  0.83811900  0.55632000  1
  Cl  Cl18  1  0.83811900  0.28130100  0.05632000  1
  Cl  Cl19  1  0.16188100  0.71869900  0.94368000  1
  Cl  Cl20  1  0.35663300  0.14498900  0.18979500  1
  Cl  Cl21  1  0.64336700  0.85501100  0.81020500  1
  Cl  Cl22  1  0.85501100  0.64336700  0.31020500  1
  Cl  Cl23  1  0.14498900  0.35663300  0.68979500  1
loop_
_geom_bond_atom_site_label_1
_geom_bond_atom_site_label_2
_geom_bond_distance
_geom_bond_site_symmetry_2
Cl0 Yb2 2.712170 1_565
Cl0 Rb10 3.314085 1_555
Cl0 Rb0 3.488871 1_555
Cl0 Rb7 3.580181 1_554
Cl0 Rb4 3.592581 1_555
Cl1 Yb2 2.712170 1_556
Cl1 Rb11 3.314085 1_555
Cl1 Rb1 3.488871 1_555
Cl1 Rb6 3.580181 1_556
Cl1 Rb5 3.592581 1_555
Cl2 Yb3 2.712170 1_555
Cl2 Rb8 3.314085 1_555
Cl2 Rb2 3.488871 1_555
Cl2 Rb5 3.580181 1_555
Cl2 Rb6 3.592581 1_555
Cl3 Yb3 2.712170 1_655
Cl3 Rb9 3.314085 1_555
Cl3 Rb3 3.488871 1_555
Cl3 Rb4 3.580181 1_555
Cl3 Rb7 3.592581 1_555
Cl4 Yb0 2.673873 1_555
Cl4 Rb6 3.275444 1_555
Cl4 Rb1 3.428926 1_554
Cl4 Rb8 3.526297 1_555
Cl4 Rb0 3.783476 1_555
Cl5 Yb1 2.673873 1_555
Cl5 Rb7 3.275444 1_555
Cl5 Rb0 3.428926 1_556
Cl5 Rb9 3.526297 1_555
Cl5 Rb1 3.783476 1_555
Cl6 Yb0 2.673873 1_555
Cl6 Rb4 3.275444 1_555
Cl6 Rb3 3.428926 1_555
Cl6 Rb10 3.526297 1_555
Cl6 Rb2 3.783476 1_555
Cl7 Yb1 2.673873 1_555
Cl7 Rb5 3.275444 1_555
Cl7 Rb2 3.428926 1_555
Cl7 Rb11 3.526297 1_555
Cl7 Rb3 3.783476 1_555
Cl8 Yb2 2.725415 1_565
Cl8 Rb6 3.294276 1_655
Cl8 Rb11 3.515723 1_654
Cl8 Rb8 3.662636 1_565
Cl8 Rb1 3.687476 1_564
Cl9 Yb2 2.725415 1_556
Cl9 Rb7 3.294276 1_455
Cl9 Rb10 3.515723 1_456
Cl9 Rb9 3.662636 1_545
Cl9 Rb0 3.687476 1_546
Cl10 Yb3 2.725415 1_555
Cl10 Rb4 3.294276 1_545
Cl10 Rb9 3.515723 1_545
Cl10 Rb10 3.662636 1_455
Cl10 Rb3 3.687476 1_455
Cl11 Yb3 2.725415 1_655
Cl11 Rb5 3.294276 1_565
Cl11 Rb8 3.515723 1_565
Cl11 Rb11 3.662636 1_655
Cl11 Rb2 3.687476 1_655
Cl12 Yb1 2.711777 1_655
Cl12 Rb11 3.309575 1_655
Cl12 Rb3 3.457015 1_565
Cl12 Rb1 3.493873 1_565
Cl12 Rb5 3.520457 1_565
Cl13 Yb0 2.711777 1_455
Cl13 Rb10 3.309575 1_455
Cl13 Rb2 3.457015 1_545
Cl13 Rb0 3.493873 1_545
Cl13 Rb4 3.520457 1_545
Cl14 Yb1 2.711777 1_545
Cl14 Rb9 3.309575 1_545
Cl14 Rb1 3.457015 1_455
Cl14 Rb3 3.493873 1_455
Cl14 Rb7 3.520457 1_455
Cl15 Yb0 2.711777 1_565
Cl15 Rb8 3.309575 1_565
Cl15 Rb0 3.457015 1_655
Cl15 Rb2 3.493873 1_655
Cl15 Rb6 3.520457 1_655
Cl16 Yb0 2.672720 1_555
Cl16 Rb5 3.351324 1_555
Cl16 Rb3 3.523105 1_555
Cl16 Rb8 3.531027 1_555
Cl16 Rb2 3.878924 1_645
Cl17 Yb1 2.672720 1_555
Cl17 Rb4 3.351324 1_555
Cl17 Rb2 3.523105 1_555
Cl17 Rb9 3.531027 1_555
Cl17 Rb3 3.878924 1_465
Cl18 Yb0 2.672720 1_555
Cl18 Rb7 3.351324 1_554
Cl18 Rb1 3.523105 1_554
Cl18 Rb10 3.531027 1_555
Cl18 Rb0 3.878924 1_645
Cl19 Yb1 2.672720 1_555
Cl19 Rb6 3.351324 1_556
Cl19 Rb0 3.523105 1_556
Cl19 Rb11 3.531027 1_555
Cl19 Rb1 3.878924 1_465
Cl20 Yb2 2.711693 1_555
Cl20 Rb10 3.291360 1_455
Cl20 Rb8 3.325206 1_555
Cl20 Rb6 3.340936 1_555
Cl20 Rb4 3.375762 1_545
Cl21 Yb2 2.711693 1_566
Cl21 Rb11 3.291360 1_655
Cl21 Rb9 3.325206 1_555
Cl21 Rb7 3.340936 1_555
Cl21 Rb5 3.375762 1_565
Cl22 Yb3 2.711693 1_655
Cl22 Rb8 3.291360 1_565
Cl22 Rb10 3.325206 1_555
Cl22 Rb4 3.340936 1_555
Cl22 Rb6 3.375762 1_655
Cl23 Yb3 2.711693 1_555
Cl23 Rb9 3.291360 1_545
Cl23 Rb11 3.325206 1_555
Cl23 Rb5 3.340936 1_555
Cl23 Rb7 3.375762 1_455
