# generated using pymatgen
data_LiFeF3
_symmetry_space_group_name_H-M   'P 1'
_cell_length_a   6.29334458
_cell_length_b   6.29334458
_cell_length_c   6.45306900
_cell_angle_alpha   90.00000000
_cell_angle_beta   90.00000000
_cell_angle_gamma   109.27506138
_symmetry_Int_Tables_number   1
_chemical_formula_structural   LiFeF3
_chemical_formula_sum   'Li4 Fe4 F12'
_cell_volume   241.25476212
_cell_formula_units_Z   4
loop_
 _symmetry_equiv_pos_site_id
 _symmetry_equiv_pos_as_xyz
  1  'x, y, z'
loop_
 _atom_site_type_symbol
 _atom_site_label
 _atom_site_symmetry_multiplicity
 _atom_site_fract_x
 _atom_site_fract_y
 _atom_site_fract_z
 _atom_site_occupancy
  Li  Li0  1  0.50282500  0.49717500  0.25000000  1
  Li  Li1  1  0.99978200  0.00021800  0.75000000  1
  Li  Li2  1  0.00021800  0.99978200  0.25000000  1
  Li  Li3  1  0.49717500  0.50282500  0.75000000  1
  Fe  Fe0  1  0.00000000  0.50000000  0.00000000  1
  Fe  Fe1  1  0.00000000  0.50000000  0.50000000  1
  Fe  Fe2  1  0.50000000  0.00000000  0.00000000  1
  Fe  Fe3  1  0.50000000  0.00000000  0.50000000  1
  F  F0  1  0.94818600  0.68525600  0.75000000  1
  F  F1  1  0.68525600  0.94818600  0.25000000  1
  F  F2  1  0.93524400  0.68308300  0.25000000  1
  F  F3  1  0.68308300  0.93524400  0.75000000  1
  F  F4  1  0.63977700  0.36022300  0.50628900  1
  F  F5  1  0.63977700  0.36022300  0.99371100  1
  F  F6  1  0.36022300  0.63977700  0.00628900  1
  F  F7  1  0.36022300  0.63977700  0.49371100  1
  F  F8  1  0.06475600  0.31691700  0.75000000  1
  F  F9  1  0.31691700  0.06475600  0.25000000  1
  F  F10  1  0.05181400  0.31474400  0.25000000  1
  F  F11  1  0.31474400  0.05181400  0.75000000  1
loop_
_geom_bond_atom_site_label_1
_geom_bond_atom_site_label_2
_geom_bond_distance
_geom_bond_site_symmetry_2
F0 Li1 1.899864 1_565
F0 Fe1 2.078276 1_655
F0 Fe0 2.078276 1_656
F1 Li2 1.899864 1_655
F1 Fe3 2.078276 1_565
F1 Fe2 2.078276 1_565
F2 Li2 1.897782 1_655
F2 Fe1 2.099118 1_655
F2 Fe0 2.099118 1_655
F3 Li1 1.897782 1_565
F3 Fe2 2.099118 1_566
F3 Fe3 2.099118 1_565
F4 Fe3 2.144339 1_555
F4 Fe1 2.144339 1_655
F4 Li3 2.148460 1_555
F4 Li0 2.170565 1_555
F5 Fe2 2.144339 1_556
F5 Fe0 2.144339 1_656
F5 Li3 2.148460 1_555
F5 Li0 2.170565 1_556
F6 Fe0 2.144339 1_555
F6 Fe2 2.144339 1_565
F6 Li0 2.148460 1_555
F6 Li3 2.170565 1_554
F7 Fe1 2.144339 1_555
F7 Fe3 2.144339 1_565
F7 Li0 2.148460 1_555
F7 Li3 2.170565 1_555
F8 Li1 1.897782 1_455
F8 Fe0 2.099118 1_556
F8 Fe1 2.099118 1_555
F9 Li2 1.897782 1_545
F9 Fe3 2.099118 1_555
F9 Fe2 2.099118 1_555
F10 Li2 1.899864 1_545
F10 Fe1 2.078276 1_555
F10 Fe0 2.078276 1_555
F11 Li1 1.899864 1_455
F11 Fe3 2.078276 1_555
F11 Fe2 2.078276 1_556
