# generated using pymatgen
data_TaAl2Ni9
_symmetry_space_group_name_H-M   'P 1'
_cell_length_a   3.57571161
_cell_length_b   3.57571161
_cell_length_c   10.57171699
_cell_angle_alpha   90.00000000
_cell_angle_beta   90.00000000
_cell_angle_gamma   90.00000000
_symmetry_Int_Tables_number   1
_chemical_formula_structural   TaAl2Ni9
_chemical_formula_sum   'Ta1 Al2 Ni9'
_cell_volume   135.16694483
_cell_formula_units_Z   1
loop_
 _symmetry_equiv_pos_site_id
 _symmetry_equiv_pos_as_xyz
  1  'x, y, z'
loop_
 _atom_site_type_symbol
 _atom_site_label
 _atom_site_symmetry_multiplicity
 _atom_site_fract_x
 _atom_site_fract_y
 _atom_site_fract_z
 _atom_site_occupancy
  Ta  Ta0  1  0.00000000  0.00000000  0.00000000  1
  Al  Al0  1  0.00000000  -0.00000000  0.33922084  1
  Al  Al1  1  0.00000000  0.00000000  0.66077916  1
  Ni  Ni0  1  0.50000000  0.50000000  0.00000000  1
  Ni  Ni1  1  0.50000000  0.50000000  0.33664121  1
  Ni  Ni2  1  0.50000000  0.50000000  0.66335879  1
  Ni  Ni3  1  0.50000000  0.00000000  0.17179938  1
  Ni  Ni4  1  0.50000000  0.00000000  0.50000000  1
  Ni  Ni5  1  0.50000000  -0.00000000  0.82820062  1
  Ni  Ni6  1  0.00000000  0.50000000  0.17179938  1
  Ni  Ni7  1  0.00000000  0.50000000  0.50000000  1
  Ni  Ni8  1  -0.00000000  0.50000000  0.82820062  1
loop_
_geom_bond_atom_site_label_1
_geom_bond_atom_site_label_2
_geom_bond_distance
_geom_bond_site_symmetry_2
Al0 Ni4 2.466870 1_455
Al0 Ni4 2.466870 1_555
Al0 Ni7 2.466870 1_555
Al0 Ni7 2.466870 1_545
Al0 Ni6 2.515768 1_555
Al0 Ni3 2.515768 1_555
Al0 Ni6 2.515768 1_545
Al0 Ni3 2.515768 1_455
Al0 Ni1 2.528557 1_555
Al0 Ni1 2.528557 1_545
Al0 Ni1 2.528557 1_445
Al0 Ni1 2.528557 1_455
Al1 Ni7 2.466870 1_545
Al1 Ni4 2.466870 1_555
Al1 Ni7 2.466870 1_555
Al1 Ni4 2.466870 1_455
Al1 Ni8 2.515768 1_545
Al1 Ni5 2.515768 1_555
Al1 Ni5 2.515768 1_455
Al1 Ni8 2.515768 1_555
Al1 Ni2 2.528557 1_445
Al1 Ni2 2.528557 1_555
Al1 Ni2 2.528557 1_545
Al1 Ni2 2.528557 1_455
Ni0 Ta0 2.528410 1_665
Ni0 Ta0 2.528410 1_655
Ni0 Ta0 2.528410 1_565
Ni0 Ta0 2.528410 1_555
Ni0 Ni8 2.548541 1_654
Ni0 Ni5 2.548541 1_564
Ni0 Ni5 2.548541 1_554
Ni0 Ni8 2.548541 1_554
Ni0 Ni6 2.548541 1_655
Ni0 Ni6 2.548541 1_555
Ni0 Ni3 2.548541 1_555
Ni0 Ni3 2.548541 1_565
Ni1 Ni4 2.485739 1_555
Ni1 Ni7 2.485739 1_555
Ni1 Ni4 2.485739 1_565
Ni1 Ni7 2.485739 1_655
Ni1 Ni6 2.496657 1_655
Ni1 Ni3 2.496657 1_555
Ni1 Ni3 2.496657 1_565
Ni1 Ni6 2.496657 1_555
Ni2 Ni4 2.485739 1_555
Ni2 Ni4 2.485739 1_565
Ni2 Ni7 2.485739 1_555
Ni2 Ni7 2.485739 1_655
Ni2 Ni5 2.496657 1_565
Ni2 Ni5 2.496657 1_555
Ni2 Ni8 2.496657 1_655
Ni2 Ni8 2.496657 1_555
Ni3 Ni6 2.528410 1_645
Ni3 Ni6 2.528410 1_555
Ni3 Ni6 2.528410 1_545
Ni3 Ni6 2.528410 1_655
Ni3 Ta0 2.548541 1_555
Ni3 Ta0 2.548541 1_655
Ni4 Ni7 2.528410 1_655
Ni4 Ni7 2.528410 1_645
Ni4 Ni7 2.528410 1_555
Ni4 Ni7 2.528410 1_545
Ni5 Ni8 2.528410 1_645
Ni5 Ni8 2.528410 1_555
Ni5 Ni8 2.528410 1_545
Ni5 Ni8 2.528410 1_655
Ni5 Ta0 2.548541 1_556
Ni5 Ta0 2.548541 1_656
Ni6 Ta0 2.548541 1_555
Ni6 Ta0 2.548541 1_565
Ni8 Ta0 2.548541 1_556
Ni8 Ta0 2.548541 1_566
