# generated using pymatgen
data_BaSb2
_symmetry_space_group_name_H-M   'P 1'
_cell_length_a   11.82957061
_cell_length_b   11.82957061
_cell_length_c   7.21534800
_cell_angle_alpha   90.00000000
_cell_angle_beta   90.00000000
_cell_angle_gamma   122.08322287
_symmetry_Int_Tables_number   1
_chemical_formula_structural   BaSb2
_chemical_formula_sum   'Ba8 Sb16'
_cell_volume   855.50176709
_cell_formula_units_Z   8
loop_
 _symmetry_equiv_pos_site_id
 _symmetry_equiv_pos_as_xyz
  1  'x, y, z'
loop_
 _atom_site_type_symbol
 _atom_site_label
 _atom_site_symmetry_multiplicity
 _atom_site_fract_x
 _atom_site_fract_y
 _atom_site_fract_z
 _atom_site_occupancy
  Ba  Ba0_0  1  0.25000000  0.25000000  0.00000000  1
  Ba  Ba0_1  1  0.25000000  0.25000000  0.50000000  1
  Ba  Ba0_2  1  0.25000000  0.75000000  0.00000000  1
  Ba  Ba0_3  1  0.25000000  0.75000000  0.50000000  1
  Ba  Ba0_4  1  0.75000000  0.25000000  0.00000000  1
  Ba  Ba0_5  1  0.75000000  0.25000000  0.50000000  1
  Ba  Ba0_6  1  0.75000000  0.75000000  0.00000000  1
  Ba  Ba0_7  1  0.75000000  0.75000000  0.50000000  1
  Sb  Sb0_0  1  0.10000900  0.39999100  0.25000000  1
  Sb  Sb0_1  1  0.10000900  0.39999100  0.75000000  1
  Sb  Sb0_2  1  0.10000900  0.89999100  0.25000000  1
  Sb  Sb0_3  1  0.10000900  0.89999100  0.75000000  1
  Sb  Sb0_4  1  0.60000900  0.39999100  0.25000000  1
  Sb  Sb0_5  1  0.60000900  0.39999100  0.75000000  1
  Sb  Sb0_6  1  0.60000900  0.89999100  0.25000000  1
  Sb  Sb0_7  1  0.60000900  0.89999100  0.75000000  1
  Sb  Sb1_0  1  0.39999100  0.10000900  0.25000000  1
  Sb  Sb1_1  1  0.39999100  0.10000900  0.75000000  1
  Sb  Sb1_2  1  0.39999100  0.60000900  0.25000000  1
  Sb  Sb1_3  1  0.39999100  0.60000900  0.75000000  1
  Sb  Sb1_4  1  0.89999100  0.10000900  0.25000000  1
  Sb  Sb1_5  1  0.89999100  0.10000900  0.75000000  1
  Sb  Sb1_6  1  0.89999100  0.60000900  0.25000000  1
  Sb  Sb1_7  1  0.89999100  0.60000900  0.75000000  1
loop_
_geom_bond_atom_site_label_1
_geom_bond_atom_site_label_2
_geom_bond_distance
_geom_bond_site_symmetry_2
Ba0_0 Sb1_1 3.590919 1_554
Ba0_0 Sb0_1 3.590919 1_554
Ba0_0 Sb0_0 3.590919 1_555
Ba0_0 Sb1_0 3.590919 1_555
Ba0_0 Ba0_1 3.607674 1_554
Ba0_0 Ba0_1 3.607674 1_555
Ba0_0 Sb0_5 3.967521 1_554
Ba0_0 Sb1_5 3.967521 1_454
Ba0_0 Sb1_3 3.967521 1_554
Ba0_0 Sb0_3 3.967521 1_544
Ba0_0 Sb1_2 3.967521 1_555
Ba0_0 Sb0_4 3.967521 1_555
Ba0_0 Sb1_4 3.967521 1_455
Ba0_0 Sb0_2 3.967521 1_545
Ba0_1 Sb0_0 3.590919 1_555
Ba0_1 Sb1_0 3.590919 1_555
Ba0_1 Sb1_1 3.590919 1_555
Ba0_1 Sb0_1 3.590919 1_555
Ba0_1 Sb0_4 3.967521 1_555
Ba0_1 Sb1_2 3.967521 1_555
Ba0_1 Sb1_4 3.967521 1_455
Ba0_1 Sb0_2 3.967521 1_545
Ba0_1 Sb0_5 3.967521 1_555
Ba0_1 Sb1_3 3.967521 1_555
Ba0_1 Sb1_5 3.967521 1_455
Ba0_1 Sb0_3 3.967521 1_545
Ba0_2 Sb0_3 3.590919 1_554
Ba0_2 Sb1_3 3.590919 1_554
Ba0_2 Sb1_2 3.590919 1_555
Ba0_2 Sb0_2 3.590919 1_555
Ba0_2 Ba0_3 3.607674 1_554
Ba0_2 Ba0_3 3.607674 1_555
Ba0_2 Sb0_7 3.967521 1_554
Ba0_2 Sb0_6 3.967521 1_555
Ba0_2 Sb0_1 3.967521 1_554
Ba0_2 Sb1_1 3.967521 1_564
Ba0_2 Sb1_0 3.967521 1_565
Ba0_2 Sb0_0 3.967521 1_555
Ba0_2 Sb1_7 3.967521 1_454
Ba0_2 Sb1_6 3.967521 1_455
Ba0_3 Sb1_2 3.590919 1_555
Ba0_3 Sb0_2 3.590919 1_555
Ba0_3 Sb1_3 3.590919 1_555
Ba0_3 Sb0_3 3.590919 1_555
Ba0_3 Sb0_6 3.967521 1_555
Ba0_3 Sb0_7 3.967521 1_555
Ba0_3 Sb1_0 3.967521 1_565
Ba0_3 Sb0_0 3.967521 1_555
Ba0_3 Sb1_1 3.967521 1_565
Ba0_3 Sb0_1 3.967521 1_555
Ba0_3 Sb1_6 3.967521 1_455
Ba0_3 Sb1_7 3.967521 1_455
Ba0_4 Sb0_5 3.590919 1_554
Ba0_4 Sb1_5 3.590919 1_554
Ba0_4 Sb1_4 3.590919 1_555
Ba0_4 Sb0_4 3.590919 1_555
Ba0_4 Ba0_5 3.607674 1_554
Ba0_4 Ba0_5 3.607674 1_555
Ba0_4 Sb1_7 3.967521 1_554
Ba0_4 Sb1_6 3.967521 1_555
Ba0_4 Sb0_1 3.967521 1_654
Ba0_4 Sb1_1 3.967521 1_554
Ba0_4 Sb0_0 3.967521 1_655
Ba0_4 Sb1_0 3.967521 1_555
Ba0_4 Sb0_7 3.967521 1_544
Ba0_4 Sb0_6 3.967521 1_545
Ba0_5 Sb1_4 3.590919 1_555
Ba0_5 Sb0_4 3.590919 1_555
Ba0_5 Sb0_5 3.590919 1_555
Ba0_5 Sb1_5 3.590919 1_555
Ba0_5 Sb1_6 3.967521 1_555
Ba0_5 Sb1_7 3.967521 1_555
Ba0_5 Sb0_0 3.967521 1_655
Ba0_5 Sb1_0 3.967521 1_555
Ba0_5 Sb0_1 3.967521 1_655
Ba0_5 Sb1_1 3.967521 1_555
Ba0_5 Sb0_6 3.967521 1_545
Ba0_5 Sb0_7 3.967521 1_545
Ba0_6 Sb1_7 3.590919 1_554
Ba0_6 Sb0_7 3.590919 1_554
Ba0_6 Sb0_6 3.590919 1_555
Ba0_6 Sb1_6 3.590919 1_555
Ba0_6 Ba0_7 3.607674 1_555
Ba0_6 Ba0_7 3.607674 1_554
Ba0_6 Sb1_3 3.967521 1_554
Ba0_6 Sb0_5 3.967521 1_554
Ba0_6 Sb1_2 3.967521 1_555
Ba0_6 Sb0_4 3.967521 1_555
Ba0_6 Sb0_3 3.967521 1_654
Ba0_6 Sb1_5 3.967521 1_564
Ba0_6 Sb0_2 3.967521 1_655
Ba0_6 Sb1_4 3.967521 1_565
Ba0_7 Sb0_6 3.590919 1_555
Ba0_7 Sb1_6 3.590919 1_555
Ba0_7 Sb1_7 3.590919 1_555
Ba0_7 Sb0_7 3.590919 1_555
Ba0_7 Sb1_2 3.967521 1_555
Ba0_7 Sb0_4 3.967521 1_555
Ba0_7 Sb1_3 3.967521 1_555
Ba0_7 Sb0_5 3.967521 1_555
Ba0_7 Sb0_2 3.967521 1_655
Ba0_7 Sb1_4 3.967521 1_565
Ba0_7 Sb1_5 3.967521 1_565
Ba0_7 Sb0_3 3.967521 1_655
Sb0_0 Sb1_4 3.044970 1_455
Sb0_0 Sb1_2 3.044970 1_555
Sb0_1 Sb1_3 3.044970 1_555
Sb0_1 Sb1_5 3.044970 1_455
Sb0_2 Sb1_0 3.044970 1_565
Sb0_2 Sb1_6 3.044970 1_455
Sb0_3 Sb1_1 3.044970 1_565
Sb0_3 Sb1_7 3.044970 1_455
Sb0_4 Sb1_6 3.044970 1_555
Sb0_4 Sb1_0 3.044970 1_555
Sb0_5 Sb1_7 3.044970 1_555
Sb0_5 Sb1_1 3.044970 1_555
Sb0_6 Sb1_2 3.044970 1_555
Sb0_6 Sb1_4 3.044970 1_565
Sb0_7 Sb1_3 3.044970 1_555
Sb0_7 Sb1_5 3.044970 1_565
