# generated using pymatgen
data_Rb2CeCl5
_symmetry_space_group_name_H-M   'P 1'
_cell_length_a   8.21889134
_cell_length_b   9.02514143
_cell_length_c   13.14078642
_cell_angle_alpha   90.00000000
_cell_angle_beta   90.00000000
_cell_angle_gamma   90.00000000
_symmetry_Int_Tables_number   1
_chemical_formula_structural   Rb2CeCl5
_chemical_formula_sum   'Rb8 Ce4 Cl20'
_cell_volume   974.73960359
_cell_formula_units_Z   4
loop_
 _symmetry_equiv_pos_site_id
 _symmetry_equiv_pos_as_xyz
  1  'x, y, z'
loop_
 _atom_site_type_symbol
 _atom_site_label
 _atom_site_symmetry_multiplicity
 _atom_site_fract_x
 _atom_site_fract_y
 _atom_site_fract_z
 _atom_site_occupancy
  Rb  Rb0  1  0.55753968  0.49404830  0.82948050  1
  Rb  Rb1  1  0.44246032  0.50595170  0.17051950  1
  Rb  Rb2  1  0.05753968  0.50595170  0.67051950  1
  Rb  Rb3  1  0.44246032  0.99404830  0.17051950  1
  Rb  Rb4  1  0.94246032  0.49404830  0.32948050  1
  Rb  Rb5  1  0.55753968  0.00595170  0.82948050  1
  Rb  Rb6  1  0.94246032  0.00595170  0.32948050  1
  Rb  Rb7  1  0.05753968  0.99404830  0.67051950  1
  Ce  Ce0  1  0.57218179  0.75000000  0.50564081  1
  Ce  Ce1  1  0.42781821  0.25000000  0.49435919  1
  Ce  Ce2  1  0.07218179  0.25000000  0.99435919  1
  Ce  Ce3  1  0.92781821  0.75000000  0.00564081  1
  Cl  Cl0  1  0.84384520  0.75000000  0.79977294  1
  Cl  Cl1  1  0.15615480  0.25000000  0.20022706  1
  Cl  Cl2  1  0.34384520  0.25000000  0.70022706  1
  Cl  Cl3  1  0.65615480  0.75000000  0.29977294  1
  Cl  Cl4  1  0.38158832  0.75000000  0.68039232  1
  Cl  Cl5  1  0.61841168  0.25000000  0.31960768  1
  Cl  Cl6  1  0.88158832  0.25000000  0.81960768  1
  Cl  Cl7  1  0.11841168  0.75000000  0.18039232  1
  Cl  Cl8  1  0.91329024  0.75000000  0.51052730  1
  Cl  Cl9  1  0.08670976  0.25000000  0.48947270  1
  Cl  Cl10  1  0.41329024  0.25000000  0.98947270  1
  Cl  Cl11  1  0.58670976  0.75000000  0.01052730  1
  Cl  Cl12  1  0.66578341  0.04290205  0.57223550  1
  Cl  Cl13  1  0.33421659  0.95709795  0.42776450  1
  Cl  Cl14  1  0.16578341  0.95709795  0.92776450  1
  Cl  Cl15  1  0.33421659  0.54290205  0.42776450  1
  Cl  Cl16  1  0.83421659  0.04290205  0.07223550  1
  Cl  Cl17  1  0.66578341  0.45709795  0.57223550  1
  Cl  Cl18  1  0.83421659  0.45709795  0.07223550  1
  Cl  Cl19  1  0.16578341  0.54290205  0.92776450  1
loop_
_geom_bond_atom_site_label_1
_geom_bond_atom_site_label_2
_geom_bond_distance
_geom_bond_site_symmetry_2
Ce0 Cl4 2.779774 1_555
Ce0 Cl3 2.791915 1_555
Ce0 Cl8 2.804269 1_555
Ce0 Cl12 2.888881 1_565
Ce0 Cl17 2.888881 1_555
Ce0 Cl15 2.892394 1_555
Ce0 Cl13 2.892394 1_555
Ce1 Cl5 2.779774 1_555
Ce1 Cl2 2.791915 1_555
Ce1 Cl9 2.804269 1_555
Ce1 Cl13 2.888881 1_545
Ce1 Cl15 2.888881 1_555
Ce1 Cl12 2.892394 1_555
Ce1 Cl17 2.892394 1_555
Ce2 Cl6 2.779774 1_455
Ce2 Cl1 2.791915 1_556
Ce2 Cl10 2.804269 1_555
Ce2 Cl14 2.888881 1_545
Ce2 Cl19 2.888881 1_555
Ce2 Cl16 2.892394 1_456
Ce2 Cl18 2.892394 1_456
Ce3 Cl7 2.779774 1_655
Ce3 Cl0 2.791915 1_554
Ce3 Cl11 2.804269 1_555
Ce3 Cl16 2.888881 1_565
Ce3 Cl18 2.888881 1_555
Ce3 Cl19 2.892394 1_654
Ce3 Cl14 2.892394 1_654
Cl0 Rb7 3.289512 1_655
Cl0 Rb2 3.289512 1_655
Cl0 Rb5 3.320488 1_565
Cl0 Rb0 3.320488 1_555
Cl1 Rb6 3.289512 1_455
Cl1 Rb4 3.289512 1_455
Cl1 Rb1 3.320488 1_555
Cl1 Rb3 3.320488 1_545
Cl2 Rb5 3.289512 1_555
Cl2 Rb0 3.289512 1_555
Cl2 Rb2 3.320488 1_555
Cl2 Rb7 3.320488 1_545
Cl3 Rb3 3.289512 1_555
Cl3 Rb1 3.289512 1_555
Cl3 Rb4 3.320488 1_555
Cl3 Rb6 3.320488 1_565
Cl4 Rb0 3.356426 1_555
Cl4 Rb5 3.356426 1_565
Cl4 Rb7 3.458529 1_555
Cl4 Rb2 3.458529 1_555
Cl5 Rb1 3.356426 1_555
Cl5 Rb3 3.356426 1_545
Cl5 Rb6 3.458529 1_555
Cl5 Rb4 3.458529 1_555
Cl6 Rb2 3.356426 1_655
Cl6 Rb7 3.356426 1_645
Cl6 Rb5 3.458529 1_555
Cl6 Rb0 3.458529 1_555
Cl7 Rb4 3.356426 1_455
Cl7 Rb6 3.356426 1_465
Cl7 Rb3 3.458529 1_555
Cl7 Rb1 3.458529 1_555
Cl8 Rb2 3.267580 1_655
Cl8 Rb7 3.267580 1_655
Cl8 Rb4 3.324708 1_555
Cl8 Rb6 3.324708 1_565
Cl9 Rb4 3.267580 1_455
Cl9 Rb6 3.267580 1_455
Cl9 Rb7 3.324708 1_545
Cl9 Rb2 3.324708 1_555
Cl10 Rb5 3.267580 1_555
Cl10 Rb0 3.267580 1_555
Cl10 Rb3 3.324708 1_546
Cl10 Rb1 3.324708 1_556
Cl11 Rb1 3.267580 1_555
Cl11 Rb3 3.267580 1_555
Cl11 Rb5 3.324708 1_564
Cl11 Rb0 3.324708 1_554
Cl12 Rb7 3.497081 1_645
Cl12 Rb5 3.511380 1_555
Cl13 Rb6 3.497081 1_465
Cl13 Rb3 3.511380 1_555
Cl14 Rb5 3.497081 1_565
Cl14 Rb7 3.511380 1_555
Cl15 Rb4 3.497081 1_455
Cl15 Rb1 3.511380 1_555
Cl16 Rb3 3.497081 1_545
Cl16 Rb6 3.511380 1_555
Cl17 Rb2 3.497081 1_655
Cl17 Rb0 3.511380 1_555
Cl18 Rb1 3.497081 1_555
Cl18 Rb4 3.511380 1_555
Cl19 Rb0 3.497081 1_555
Cl19 Rb2 3.511380 1_555
