# generated using pymatgen
data_La2Co2O5
_symmetry_space_group_name_H-M   'P 1'
_cell_length_a   8.84891150
_cell_length_b   8.84891150
_cell_length_c   8.84891150
_cell_angle_alpha   143.92884857
_cell_angle_beta   141.65067560
_cell_angle_gamma   53.66332214
_symmetry_Int_Tables_number   1
_chemical_formula_structural   La2Co2O5
_chemical_formula_sum   'La4 Co4 O10'
_cell_volume   251.49975013
_cell_formula_units_Z   2
loop_
 _symmetry_equiv_pos_site_id
 _symmetry_equiv_pos_as_xyz
  1  'x, y, z'
loop_
 _atom_site_type_symbol
 _atom_site_label
 _atom_site_symmetry_multiplicity
 _atom_site_fract_x
 _atom_site_fract_y
 _atom_site_fract_z
 _atom_site_occupancy
  La  La0  1  0.86701500  0.38898900  0.47670600  1
  La  La1  1  0.13298500  0.60969200  0.52197500  1
  La  La2  1  0.41228300  0.88898900  0.52197500  1
  La  La3  1  0.58771700  0.10969200  0.47670600  1
  Co  Co0  1  0.00000000  0.98979000  0.98979000  1
  Co  Co1  1  0.50000000  0.48979000  0.98979000  1
  Co  Co2  1  0.81183600  0.78514900  0.09698500  1
  Co  Co3  1  0.18816400  0.28514900  0.97331300  1
  O  O0  1  0.76239800  0.76211800  0.48964100  1
  O  O1  1  0.23760200  0.72724300  0.99972000  1
  O  O2  1  0.77247700  0.26211800  0.99972000  1
  O  O3  1  0.22752300  0.22724300  0.48964100  1
  O  O4  1  0.77559900  0.81637000  0.87488900  1
  O  O5  1  0.22440100  0.09929000  0.04077100  1
  O  O6  1  0.44148100  0.31637000  0.04077100  1
  O  O7  1  0.55851900  0.59929000  0.87488900  1
  O  O8  1  0.86240300  0.15736000  0.51976300  1
  O  O9  1  0.13759700  0.65736000  0.29495600  1
loop_
_geom_bond_atom_site_label_1
_geom_bond_atom_site_label_2
_geom_bond_distance
_geom_bond_site_symmetry_2
La0 O6 2.355778 1_555
La0 O8 2.394560 1_555
La0 O3 2.553361 1_655
La0 O1 2.562314 1_655
La0 O4 2.583718 1_555
La0 O2 2.773070 1_554
La0 O0 2.775767 1_555
La0 O4 3.027897 1_544
La1 O7 2.355778 1_555
La1 O9 2.394570 1_555
La1 O2 2.553364 1_454
La1 O0 2.562311 1_455
La1 O5 2.583713 1_566
La1 O3 2.773072 1_555
La1 O1 2.775765 1_555
La1 O5 3.027902 1_555
La2 O4 2.355774 1_555
La2 O9 2.394549 1_555
La2 O1 2.553368 1_554
La2 O3 2.562319 1_565
La2 O6 2.583714 1_566
La2 O0 2.773076 1_555
La2 O2 2.775770 1_565
La2 O6 3.027898 1_555
La3 O5 2.355774 1_555
La3 O8 2.394554 1_555
La3 O0 2.553368 1_545
La3 O2 2.562319 1_555
La3 O7 2.583714 1_555
La3 O1 2.773076 1_544
La3 O3 2.775770 1_555
La3 O7 3.027898 1_544
Co0 O2 2.013448 1_465
Co0 O3 2.013448 1_566
Co0 O1 2.019263 1_555
Co0 O0 2.019263 1_455
Co0 O4 2.292126 1_455
Co0 O5 2.292126 1_566
Co1 O0 2.013448 1_556
Co1 O1 2.013448 1_555
Co1 O3 2.019263 1_555
Co1 O2 2.019263 1_555
Co1 O6 2.292126 1_556
Co1 O7 2.292126 1_555
Co2 O7 1.955987 1_554
Co2 O4 1.955987 1_554
Co2 O9 2.018905 1_655
Co2 O8 2.060558 1_565
Co3 O5 1.955987 1_556
Co3 O6 1.955987 1_556
Co3 O8 2.018907 1_455
Co3 O9 2.060555 1_556
