# generated using pymatgen
data_Ca2B5H7O13
_symmetry_space_group_name_H-M   'P 1'
_cell_length_a   7.01726500
_cell_length_b   11.75965300
_cell_length_c   12.48311007
_cell_angle_alpha   69.31075680
_cell_angle_beta   90.00000000
_cell_angle_gamma   90.00000000
_symmetry_Int_Tables_number   1
_chemical_formula_structural   Ca2B5H7O13
_chemical_formula_sum   'Ca8 B20 H28 O52'
_cell_volume   963.68210238
_cell_formula_units_Z   4
loop_
 _symmetry_equiv_pos_site_id
 _symmetry_equiv_pos_as_xyz
  1  'x, y, z'
loop_
 _atom_site_type_symbol
 _atom_site_label
 _atom_site_symmetry_multiplicity
 _atom_site_fract_x
 _atom_site_fract_y
 _atom_site_fract_z
 _atom_site_occupancy
  Ca  Ca0  1  0.75689400  0.99215200  0.58219900  1
  Ca  Ca1  1  0.25689400  0.00784800  0.91780100  1
  Ca  Ca2  1  0.24310600  0.00784800  0.41780100  1
  Ca  Ca3  1  0.74310600  0.99215200  0.08219900  1
  Ca  Ca4  1  0.24750000  0.69324700  0.37613000  1
  Ca  Ca5  1  0.74750000  0.30675300  0.12387000  1
  Ca  Ca6  1  0.75250000  0.30675300  0.62387000  1
  Ca  Ca7  1  0.25250000  0.69324700  0.87613000  1
  B  B0  1  0.75024200  0.75096000  0.35478300  1
  B  B1  1  0.25024200  0.24904000  0.14521700  1
  B  B2  1  0.24975800  0.24904000  0.64521700  1
  B  B3  1  0.74975800  0.75096000  0.85478300  1
  B  B4  1  0.72655900  0.98163400  0.33005300  1
  B  B5  1  0.22655900  0.01836600  0.16994700  1
  B  B6  1  0.27344100  0.01836600  0.66994700  1
  B  B7  1  0.77344100  0.98163400  0.83005300  1
  B  B8  1  0.53601600  0.81585200  0.48045600  1
  B  B9  1  0.03601600  0.18414800  0.01954400  1
  B  B10  1  0.46398400  0.18414800  0.51954400  1
  B  B11  1  0.96398400  0.81585200  0.98045600  1
  B  B12  1  0.28445600  0.69734500  0.62518500  1
  B  B13  1  0.78445600  0.30265500  0.87481500  1
  B  B14  1  0.71554400  0.30265500  0.37481500  1
  B  B15  1  0.21554400  0.69734500  0.12518500  1
  B  B16  1  0.62011300  0.71128100  0.68961500  1
  B  B17  1  0.12011300  0.28871900  0.81038500  1
  B  B18  1  0.37988700  0.28871900  0.31038500  1
  B  B19  1  0.87988700  0.71128100  0.18961500  1
  H  H0  1  0.22222200  0.51444800  0.64584400  1
  H  H1  1  0.72222200  0.48555200  0.85415600  1
  H  H2  1  0.77777800  0.48555200  0.35415600  1
  H  H3  1  0.27777800  0.51444800  0.14584400  1
  H  H4  1  0.99798800  0.68973000  0.69819300  1
  H  H5  1  0.49798800  0.31027000  0.80180700  1
  H  H6  1  0.00201200  0.31027000  0.30180700  1
  H  H7  1  0.50201200  0.68973000  0.19819300  1
  H  H8  1  0.91313500  0.73599500  0.49479800  1
  H  H9  1  0.41313500  0.26400500  0.00520200  1
  H  H10  1  0.08686500  0.26400500  0.50520200  1
  H  H11  1  0.58686500  0.73599500  0.99479800  1
  H  H12  1  0.88852800  0.11202100  0.36091700  1
  H  H13  1  0.38852800  0.88797900  0.13908300  1
  H  H14  1  0.11147200  0.88797900  0.63908300  1
  H  H15  1  0.61147200  0.11202100  0.86091700  1
  H  H16  1  0.52991900  0.09579700  0.22346900  1
  H  H17  1  0.02991900  0.90420300  0.27653100  1
  H  H18  1  0.47008100  0.90420300  0.77653100  1
  H  H19  1  0.97008100  0.09579700  0.72346900  1
  H  H20  1  0.26537000  0.42983200  0.45163500  1
  H  H21  1  0.76537000  0.57016800  0.04836500  1
  H  H22  1  0.73463000  0.57016800  0.54836500  1
  H  H23  1  0.23463000  0.42983200  0.95163500  1
  H  H24  1  0.47096600  0.46556400  0.40608900  1
  H  H25  1  0.97096600  0.53443600  0.09391100  1
  H  H26  1  0.52903400  0.53443600  0.59391100  1
  H  H27  1  0.02903400  0.46556400  0.90608900  1
  O  O0  1  0.75613200  0.68299200  0.77526000  1
  O  O1  1  0.25613200  0.31700800  0.72474000  1
  O  O2  1  0.24386800  0.31700800  0.22474000  1
  O  O3  1  0.74386800  0.68299200  0.27526000  1
  O  O4  1  0.91553400  0.69923200  0.43594300  1
  O  O5  1  0.41553400  0.30076800  0.06405700  1
  O  O6  1  0.08446600  0.30076800  0.56405700  1
  O  O7  1  0.58446600  0.69923200  0.93594300  1
  O  O8  1  0.57120500  0.73563000  0.41632600  1
  O  O9  1  0.07120500  0.26437000  0.08367400  1
  O  O10  1  0.42879500  0.26437000  0.58367400  1
  O  O11  1  0.92879500  0.73563000  0.91632600  1
  O  O12  1  0.78891900  0.88347500  0.28913000  1
  O  O13  1  0.28891900  0.11652500  0.21087000  1
  O  O14  1  0.21108100  0.11652500  0.71087000  1
  O  O15  1  0.71108100  0.88347500  0.78913000  1
  O  O16  1  0.89085300  0.02088800  0.38939200  1
  O  O17  1  0.39085300  0.97911200  0.11060800  1
  O  O18  1  0.10914700  0.97911200  0.61060800  1
  O  O19  1  0.60914700  0.02088800  0.88939200  1
  O  O20  1  0.67246300  0.08905700  0.22742300  1
  O  O21  1  0.17246300  0.91094300  0.27257700  1
  O  O22  1  0.32753700  0.91094300  0.77257700  1
  O  O23  1  0.82753700  0.08905700  0.72742300  1
  O  O24  1  0.56539800  0.94488600  0.41040900  1
  O  O25  1  0.06539800  0.05511400  0.08959100  1
  O  O26  1  0.43460200  0.05511400  0.58959100  1
  O  O27  1  0.93460200  0.94488600  0.91040900  1
  O  O28  1  0.67223000  0.78797300  0.58130700  1
  O  O29  1  0.17223000  0.21202700  0.91869300  1
  O  O30  1  0.32777000  0.21202700  0.41869300  1
  O  O31  1  0.82777000  0.78797300  0.08130700  1
  O  O32  1  0.33598300  0.80065500  0.52052800  1
  O  O33  1  0.83598300  0.19934500  0.97947200  1
  O  O34  1  0.66401700  0.19934500  0.47947200  1
  O  O35  1  0.16401700  0.80065500  0.02052800  1
  O  O36  1  0.11861200  0.73461800  0.67895400  1
  O  O37  1  0.61861200  0.26538200  0.82104600  1
  O  O38  1  0.88138800  0.26538200  0.32104600  1
  O  O39  1  0.38138800  0.73461800  0.17895400  1
  O  O40  1  0.25692800  0.59265000  0.58793600  1
  O  O41  1  0.75692800  0.40735000  0.91206400  1
  O  O42  1  0.74307200  0.40735000  0.41206400  1
  O  O43  1  0.24307200  0.59265000  0.08793600  1
  O  O44  1  0.43694800  0.67063000  0.71440500  1
  O  O45  1  0.93694800  0.32937000  0.78559500  1
  O  O46  1  0.56305200  0.32937000  0.28559500  1
  O  O47  1  0.06305200  0.67063000  0.21440500  1
  O  O48  1  0.33725900  0.49196700  0.39101200  1
  O  O49  1  0.83725900  0.50803300  0.10898800  1
  O  O50  1  0.66274100  0.50803300  0.60898800  1
  O  O51  1  0.16274100  0.49196700  0.89101200  1
loop_
_geom_bond_atom_site_label_1
_geom_bond_atom_site_label_2
_geom_bond_distance
_geom_bond_site_symmetry_2
Ca0 O26 2.391625 1_565
Ca0 O34 2.407917 1_565
Ca0 O15 2.465076 1_555
Ca0 O28 2.477325 1_555
Ca0 O16 2.493187 1_565
Ca0 O18 2.494175 1_655
Ca0 O23 2.508089 1_565
Ca0 O24 2.748763 1_555
Ca1 O27 2.391625 1_445
Ca1 O35 2.407917 1_546
Ca1 O14 2.465076 1_555
Ca1 O29 2.477325 1_555
Ca1 O17 2.493187 1_546
Ca1 O19 2.494175 1_555
Ca1 O22 2.508089 1_545
Ca1 O25 2.748763 1_556
Ca2 O24 2.391625 1_545
Ca2 O32 2.407917 1_545
Ca2 O13 2.465076 1_555
Ca2 O30 2.477325 1_555
Ca2 O18 2.493187 1_545
Ca2 O16 2.494175 1_455
Ca2 O21 2.508089 1_545
Ca2 O26 2.748763 1_555
Ca3 O25 2.391625 1_665
Ca3 O33 2.407917 1_564
Ca3 O12 2.465076 1_555
Ca3 O31 2.477325 1_555
Ca3 O19 2.493187 1_564
Ca3 O17 2.494175 1_555
Ca3 O20 2.508089 1_565
Ca3 O27 2.748763 1_554
Ca4 O48 2.392308 1_555
Ca4 O8 2.415930 1_555
Ca4 O4 2.454815 1_455
Ca4 O21 2.482675 1_555
Ca4 O40 2.486855 1_555
Ca4 O47 2.490198 1_555
Ca4 O39 2.516269 1_555
Ca4 O32 2.615107 1_555
Ca5 O49 2.392308 1_555
Ca5 O9 2.415930 1_655
Ca5 O5 2.454815 1_555
Ca5 O20 2.482675 1_555
Ca5 O41 2.486855 1_554
Ca5 O46 2.490198 1_555
Ca5 O38 2.516269 1_555
Ca5 O33 2.615107 1_554
Ca6 O50 2.392308 1_555
Ca6 O10 2.415930 1_555
Ca6 O6 2.454815 1_655
Ca6 O23 2.482675 1_555
Ca6 O42 2.486855 1_555
Ca6 O45 2.490198 1_555
Ca6 O37 2.516269 1_555
Ca6 O34 2.615107 1_555
Ca7 O51 2.392308 1_555
Ca7 O11 2.415930 1_455
Ca7 O7 2.454815 1_555
Ca7 O22 2.482675 1_555
Ca7 O43 2.486855 1_556
Ca7 O44 2.490198 1_555
Ca7 O36 2.516269 1_555
Ca7 O35 2.615107 1_556
B0 O8 1.450262 1_555
B0 O3 1.478829 1_555
B0 O12 1.507084 1_555
B0 O4 1.518670 1_555
B1 O9 1.450262 1_555
B1 O2 1.478829 1_555
B1 O13 1.507084 1_555
B1 O5 1.518670 1_555
B2 O10 1.450262 1_555
B2 O1 1.478829 1_555
B2 O14 1.507084 1_555
B2 O6 1.518670 1_555
B3 O11 1.450262 1_555
B3 O0 1.478829 1_555
B3 O15 1.507084 1_555
B3 O7 1.518670 1_555
B4 O24 1.471599 1_555
B4 O12 1.483767 1_555
B4 O20 1.495886 1_565
B4 O16 1.527269 1_565
B5 O25 1.471599 1_555
B5 O13 1.483767 1_555
B5 O21 1.495886 1_545
B5 O17 1.527269 1_545
B6 O26 1.471599 1_555
B6 O14 1.483767 1_555
B6 O22 1.495886 1_545
B6 O18 1.527269 1_545
B7 O27 1.471599 1_555
B7 O15 1.483767 1_555
B7 O23 1.495886 1_565
B7 O19 1.527269 1_565
B8 O8 1.457892 1_555
B8 O24 1.473789 1_555
B8 O32 1.479637 1_555
B8 O28 1.521318 1_555
B9 O9 1.457892 1_555
B9 O25 1.473789 1_555
B9 O33 1.479637 1_454
B9 O29 1.521318 1_554
B10 O10 1.457892 1_555
B10 O26 1.473789 1_555
B10 O34 1.479637 1_555
B10 O30 1.521318 1_555
B11 O11 1.457892 1_555
B11 O27 1.473789 1_555
B11 O35 1.479637 1_656
B11 O31 1.521318 1_556
B12 O40 1.474392 1_555
B12 O32 1.480537 1_555
B12 O36 1.484885 1_555
B12 O44 1.495644 1_555
B13 O41 1.474392 1_555
B13 O33 1.480537 1_555
B13 O37 1.484885 1_555
B13 O45 1.495644 1_555
B14 O42 1.474392 1_555
B14 O34 1.480537 1_555
B14 O38 1.484885 1_555
B14 O46 1.495644 1_555
B15 O43 1.474392 1_555
B15 O35 1.480537 1_555
B15 O39 1.484885 1_555
B15 O47 1.495644 1_555
B16 O44 1.368137 1_555
B16 O0 1.383258 1_555
B16 O28 1.383290 1_555
B17 O45 1.368137 1_455
B17 O1 1.383258 1_555
B17 O29 1.383290 1_555
B18 O46 1.368137 1_555
B18 O2 1.383258 1_555
B18 O30 1.383290 1_555
B19 O47 1.368137 1_655
B19 O3 1.383258 1_555
B19 O31 1.383290 1_555
H0 O40 0.978695 1_555
H1 O41 0.978695 1_555
H2 O42 0.978695 1_555
H3 O43 0.978695 1_555
H4 O36 0.981439 1_655
H5 O37 0.981439 1_555
H6 O38 0.981439 1_455
H7 O39 0.981439 1_555
H8 O4 0.975392 1_555
H9 O5 0.975392 1_555
H10 O6 0.975392 1_555
H11 O7 0.975392 1_555
H12 O16 1.002980 1_555
H13 O17 1.002980 1_555
H14 O18 1.002980 1_555
H15 O19 1.002980 1_555
H16 O20 1.003241 1_555
H16 O13 1.707948 1_555
H17 O21 1.003241 1_555
H17 O12 1.707948 1_455
H18 O22 1.003241 1_555
H18 O15 1.707948 1_555
H19 O23 1.003241 1_555
H19 O14 1.707948 1_655
H20 O48 0.985068 1_555
H21 O49 0.985068 1_555
H22 O50 0.985068 1_555
H23 O51 0.985068 1_555
H24 O48 0.985323 1_555
H25 O49 0.985323 1_555
H26 O50 0.985323 1_555
H27 O51 0.985323 1_555
