# generated using pymatgen
data_Co(PO3)4
_symmetry_space_group_name_H-M   'P 1'
_cell_length_a   7.52906168
_cell_length_b   7.52906168
_cell_length_c   10.09141812
_cell_angle_alpha   67.30692634
_cell_angle_beta   67.30692634
_cell_angle_gamma   63.51458613
_symmetry_Int_Tables_number   1
_chemical_formula_structural   Co(PO3)4
_chemical_formula_sum   'Co2 P8 O24'
_cell_volume   456.27568871
_cell_formula_units_Z   2
loop_
 _symmetry_equiv_pos_site_id
 _symmetry_equiv_pos_as_xyz
  1  'x, y, z'
loop_
 _atom_site_type_symbol
 _atom_site_label
 _atom_site_symmetry_multiplicity
 _atom_site_fract_x
 _atom_site_fract_y
 _atom_site_fract_z
 _atom_site_occupancy
  Co  Co0  1  0.50000000  0.00000000  0.00000000  1
  Co  Co1  1  0.00000000  0.50000000  0.50000000  1
  P  P0  1  0.75527300  0.26267700  0.48498300  1
  P  P1  1  0.73732300  0.24472700  0.01501700  1
  P  P2  1  0.68932400  0.66578500  0.81207200  1
  P  P3  1  0.26267700  0.75527300  0.98498300  1
  P  P4  1  0.24472700  0.73732300  0.51501700  1
  P  P5  1  0.33421500  0.31067600  0.68792800  1
  P  P6  1  0.66578500  0.68932400  0.31207200  1
  P  P7  1  0.31067600  0.33421500  0.18792800  1
  O  O0  1  0.67861000  0.45522000  0.34824900  1
  O  O1  1  0.20375900  0.33851500  0.34597900  1
  O  O2  1  0.79624100  0.66148500  0.65402100  1
  O  O3  1  0.81652500  0.33426000  0.57559600  1
  O  O4  1  0.33426000  0.81652500  0.07559600  1
  O  O5  1  0.45522000  0.67861000  0.84824900  1
  O  O6  1  0.31217400  0.16507200  0.14154900  1
  O  O7  1  0.20834500  0.55045400  0.07847200  1
  O  O8  1  0.55045400  0.20834500  0.57847200  1
  O  O9  1  0.08543500  0.90650400  0.91528800  1
  O  O10  1  0.32139000  0.54478000  0.65175100  1
  O  O11  1  0.33851500  0.20375900  0.84597900  1
  O  O12  1  0.83492800  0.68782600  0.35845100  1
  O  O13  1  0.09349600  0.91456500  0.58471200  1
  O  O14  1  0.90650400  0.08543500  0.41528800  1
  O  O15  1  0.66574000  0.18347500  0.92440400  1
  O  O16  1  0.66148500  0.79624100  0.15402100  1
  O  O17  1  0.18347500  0.66574000  0.42440400  1
  O  O18  1  0.91456500  0.09349600  0.08471200  1
  O  O19  1  0.44954600  0.79165500  0.42152800  1
  O  O20  1  0.79165500  0.44954600  0.92152800  1
  O  O21  1  0.68782600  0.83492800  0.85845100  1
  O  O22  1  0.54478000  0.32139000  0.15175100  1
  O  O23  1  0.16507200  0.31217400  0.64154900  1
loop_
_geom_bond_atom_site_label_1
_geom_bond_atom_site_label_2
_geom_bond_distance
_geom_bond_site_symmetry_2
Co0 O6 1.956637 1_555
Co0 O21 1.956637 1_544
Co0 O15 2.009297 1_554
Co0 O4 2.009297 1_545
Co0 O11 2.049925 1_554
Co0 O16 2.049925 1_545
Co1 O12 1.956637 1_455
Co1 O23 1.956637 1_555
Co1 O17 2.009297 1_555
Co1 O3 2.009297 1_455
Co1 O2 2.049925 1_455
Co1 O1 2.049925 1_555
O0 P6 1.621172 1_555
O0 P0 1.632004 1_555
O1 P7 1.489591 1_555
O2 P2 1.489591 1_555
O3 P0 1.505533 1_555
O4 P3 1.505533 1_554
O5 P2 1.621172 1_555
O5 P3 1.632004 1_555
O6 P7 1.511277 1_555
O7 P3 1.605547 1_554
O7 P7 1.616961 1_555
O8 P0 1.605547 1_555
O8 P5 1.616961 1_555
O9 P3 1.524120 1_555
O10 P5 1.621172 1_555
O10 P4 1.632004 1_555
O11 P5 1.489591 1_555
O12 P6 1.511277 1_555
O13 P4 1.524120 1_555
O14 P0 1.524120 1_555
O15 P1 1.505533 1_556
O16 P6 1.489591 1_555
O17 P4 1.505533 1_555
O18 P1 1.524120 1_555
O19 P4 1.605547 1_555
O19 P6 1.616961 1_555
O20 P1 1.605547 1_556
O20 P2 1.616961 1_555
O21 P2 1.511277 1_555
O22 P7 1.621172 1_555
O22 P1 1.632004 1_555
O23 P5 1.511277 1_555
