# generated using pymatgen
data_Ce2ThO6
_symmetry_space_group_name_H-M   'P 1'
_cell_length_a   3.88985478
_cell_length_b   3.88985478
_cell_length_c   9.49381379
_cell_angle_alpha   90.00000000
_cell_angle_beta   90.00000000
_cell_angle_gamma   119.99999515
_symmetry_Int_Tables_number   1
_chemical_formula_structural   Ce2ThO6
_chemical_formula_sum   'Ce2 Th1 O6'
_cell_volume   124.40508643
_cell_formula_units_Z   1
loop_
 _symmetry_equiv_pos_site_id
 _symmetry_equiv_pos_as_xyz
  1  'x, y, z'
loop_
 _atom_site_type_symbol
 _atom_site_label
 _atom_site_symmetry_multiplicity
 _atom_site_fract_x
 _atom_site_fract_y
 _atom_site_fract_z
 _atom_site_occupancy
  Ce  Ce0  1  0.33333300  0.66666700  0.66294922  1
  Ce  Ce1  1  0.66666700  0.33333300  0.33705078  1
  Th  Th0  1  -0.00000000  0.00000000  0.00000000  1
  O  O0  1  -0.00000000  0.00000000  0.25567166  1
  O  O1  1  0.33333300  0.66666700  0.91263367  1
  O  O2  1  0.66666700  0.33333300  0.58184796  1
  O  O3  1  0.66666700  0.33333300  0.08736633  1
  O  O4  1  0.00000000  -0.00000000  0.74432834  1
  O  O5  1  0.33333300  0.66666700  0.41815204  1
loop_
_geom_bond_atom_site_label_1
_geom_bond_atom_site_label_2
_geom_bond_distance
_geom_bond_site_symmetry_2
Ce0 O5 2.324059 1_555
Ce0 O1 2.370458 1_555
Ce0 O2 2.374128 1_455
Ce0 O2 2.374128 1_565
Ce0 O2 2.374135 1_555
Ce0 O4 2.374985 1_565
Ce0 O4 2.374988 1_665
Ce0 O4 2.374988 1_555
Ce1 O2 2.324059 1_555
Ce1 O3 2.370458 1_555
Ce1 O5 2.374128 1_545
Ce1 O5 2.374128 1_655
Ce1 O5 2.374135 1_555
Ce1 O0 2.374985 1_655
Ce1 O0 2.374988 1_665
Ce1 O0 2.374988 1_555
O0 Th0 2.427299 1_555
O1 Th0 2.394079 1_566
O1 Th0 2.394083 1_556
O1 Th0 2.394083 1_666
O3 Th0 2.394079 1_655
O3 Th0 2.394083 1_665
O3 Th0 2.394083 1_555
O4 Th0 2.427299 1_556
