# generated using pymatgen
data_BaPHO4
_symmetry_space_group_name_H-M   'P 1'
_cell_length_a   13.62374032
_cell_length_b   13.62374032
_cell_length_c   4.73265175
_cell_angle_alpha   88.70610605
_cell_angle_beta   88.70610605
_cell_angle_gamma   116.58380907
_symmetry_Int_Tables_number   1
_chemical_formula_structural   BaPHO4
_chemical_formula_sum   'Ba8 P8 H8 O32'
_cell_volume   784.81981128
_cell_formula_units_Z   8
loop_
 _symmetry_equiv_pos_site_id
 _symmetry_equiv_pos_as_xyz
  1  'x, y, z'
loop_
 _atom_site_type_symbol
 _atom_site_label
 _atom_site_symmetry_multiplicity
 _atom_site_fract_x
 _atom_site_fract_y
 _atom_site_fract_z
 _atom_site_occupancy
  Ba  Ba0  1  0.32322200  0.56321800  0.89271600  1
  Ba  Ba1  1  0.07693900  0.81944200  0.06725200  1
  Ba  Ba2  1  0.81944200  0.07693900  0.06725200  1
  Ba  Ba3  1  0.56321800  0.32322200  0.89271600  1
  Ba  Ba4  1  0.65936700  0.65936700  0.39527300  1
  Ba  Ba5  1  0.14999800  0.14999800  0.61185000  1
  Ba  Ba6  1  0.43020600  0.94526300  0.54156900  1
  Ba  Ba7  1  0.94526300  0.43020600  0.54156900  1
  P  P0  1  0.16933400  0.67156600  0.49873600  1
  P  P1  1  0.67156600  0.16933400  0.49873600  1
  P  P2  1  0.56270200  0.81320400  0.98626100  1
  P  P3  1  0.31635800  0.07195100  0.02836300  1
  P  P4  1  0.07195100  0.31635800  0.02836300  1
  P  P5  1  0.81320400  0.56270200  0.98626100  1
  P  P6  1  0.41911900  0.41911900  0.47429000  1
  P  P7  1  0.91843200  0.91843200  0.51394500  1
  H  H0  1  0.33983900  0.33983900  0.09133300  1
  H  H1  1  0.84159300  0.84159300  0.91845900  1
  H  H2  1  0.62993400  0.88510500  0.55090800  1
  H  H3  1  0.38517900  0.14193800  0.44985700  1
  H  H4  1  0.14193800  0.38517900  0.44985700  1
  H  H5  1  0.88510500  0.62993400  0.55090800  1
  H  H6  1  0.33758800  0.73967400  0.23706700  1
  H  H7  1  0.73967400  0.33758800  0.23706700  1
  O  O0  1  0.62647200  0.91115300  0.75159100  1
  O  O1  1  0.41116100  0.14230300  0.24264100  1
  O  O2  1  0.14230300  0.41116100  0.24264100  1
  O  O3  1  0.91115300  0.62647200  0.75159100  1
  O  O4  1  0.08166800  0.63456700  0.27566300  1
  O  O5  1  0.14235900  0.58218900  0.73038600  1
  O  O6  1  0.58218900  0.14235900  0.73038600  1
  O  O7  1  0.63456700  0.08166800  0.27566300  1
  O  O8  1  0.63260300  0.84813100  0.25076000  1
  O  O9  1  0.35380700  0.14111600  0.74729300  1
  O  O10  1  0.14111600  0.35380700  0.74729300  1
  O  O11  1  0.84813100  0.63260300  0.25076000  1
  O  O12  1  0.28652600  0.67808100  0.36796300  1
  O  O13  1  0.19685800  0.78792300  0.59387100  1
  O  O14  1  0.78792300  0.19685800  0.59387100  1
  O  O15  1  0.67808100  0.28652600  0.36796300  1
  O  O16  1  0.32413900  0.32413900  0.30223700  1
  O  O17  1  0.82337100  0.82337100  0.71304900  1
  O  O18  1  0.41979500  0.52973600  0.39640000  1
  O  O19  1  0.02866300  0.91836900  0.58137900  1
  O  O20  1  0.91836900  0.02866300  0.58137900  1
  O  O21  1  0.52973600  0.41979500  0.39640000  1
  O  O22  1  0.55617300  0.70488100  0.87891600  1
  O  O23  1  0.20449300  0.06188300  0.12983700  1
  O  O24  1  0.06188300  0.20449300  0.12983700  1
  O  O25  1  0.70488100  0.55617300  0.87891600  1
  O  O26  1  0.38623900  0.38623900  0.78775300  1
  O  O27  1  0.88458300  0.88458300  0.21088000  1
  O  O28  1  0.44739100  0.80869200  0.02624500  1
  O  O29  1  0.31647500  0.95957300  0.01479200  1
  O  O30  1  0.95957300  0.31647500  0.01479200  1
  O  O31  1  0.80869200  0.44739100  0.02624500  1
loop_
_geom_bond_atom_site_label_1
_geom_bond_atom_site_label_2
_geom_bond_distance
_geom_bond_site_symmetry_2
Ba0 O5 2.715688 1_555
Ba0 O18 2.811112 1_555
Ba0 O2 2.863566 1_556
Ba0 H6 2.871168 1_556
Ba0 O18 2.872471 1_556
Ba0 O22 2.881688 1_555
Ba0 O12 2.926757 1_556
Ba0 O10 2.932413 1_555
Ba0 O26 2.947003 1_555
Ba0 O12 3.073619 1_555
Ba0 O28 3.086346 1_556
Ba1 O4 2.712327 1_555
Ba1 O19 2.873719 1_554
Ba1 O13 2.894600 1_554
Ba1 O29 2.953288 1_555
Ba1 O23 2.991208 1_565
Ba1 O19 3.006424 1_555
Ba1 O3 3.043017 1_454
Ba1 O11 3.102715 1_455
Ba1 O13 3.135050 1_555
Ba1 O27 3.185208 1_455
Ba2 O7 2.712327 1_555
Ba2 O20 2.873719 1_554
Ba2 O14 2.894600 1_554
Ba2 O30 2.953288 1_555
Ba2 O24 2.991208 1_655
Ba2 O20 3.006424 1_555
Ba2 O0 3.043017 1_544
Ba2 O8 3.102715 1_545
Ba2 O14 3.135050 1_555
Ba2 O27 3.185208 1_545
Ba3 O6 2.715688 1_555
Ba3 O21 2.811112 1_555
Ba3 O1 2.863566 1_556
Ba3 H7 2.871168 1_556
Ba3 O21 2.872471 1_556
Ba3 O25 2.881688 1_555
Ba3 O15 2.926757 1_556
Ba3 O9 2.932413 1_555
Ba3 O26 2.947003 1_555
Ba3 O15 3.073619 1_555
Ba3 O31 3.086346 1_556
Ba4 O11 2.825825 1_555
Ba4 O8 2.825825 1_555
Ba4 O17 2.842839 1_555
Ba4 O22 2.880822 1_555
Ba4 O25 2.880822 1_555
Ba4 O21 2.934551 1_555
Ba4 O18 2.934551 1_555
Ba4 O25 3.033120 1_554
Ba4 O22 3.033120 1_554
Ba5 O24 2.835671 1_555
Ba5 O23 2.835671 1_555
Ba5 O16 2.837699 1_555
Ba5 O20 2.841485 1_455
Ba5 O19 2.841485 1_545
Ba5 O9 2.917680 1_555
Ba5 O10 2.917680 1_555
Ba5 O23 2.957850 1_556
Ba5 O24 2.957850 1_556
Ba6 O6 2.740766 1_565
Ba6 O29 2.754622 1_556
Ba6 O7 2.809642 1_565
Ba6 O13 2.933262 1_555
Ba6 H6 2.935165 1_555
Ba6 O28 2.999933 1_556
Ba6 O29 3.012797 1_555
Ba6 H3 3.028985 1_565
Ba6 O0 3.092702 1_555
Ba6 O1 3.121431 1_565
Ba6 O28 3.167599 1_555
Ba7 O5 2.740766 1_655
Ba7 O30 2.754622 1_556
Ba7 O4 2.809642 1_655
Ba7 O14 2.933262 1_555
Ba7 H7 2.935165 1_555
Ba7 O31 2.999933 1_556
Ba7 O30 3.012797 1_555
Ba7 H4 3.028985 1_655
Ba7 O3 3.092702 1_555
Ba7 O2 3.121431 1_655
Ba7 O31 3.167599 1_555
H0 O16 1.013678 1_555
H0 O26 1.556837 1_554
H1 O17 1.017321 1_555
H1 O27 1.538670 1_556
H2 O0 1.028779 1_555
H2 O8 1.522907 1_555
H3 O1 1.034207 1_555
H3 O9 1.460186 1_555
H4 O2 1.034207 1_555
H4 O10 1.460186 1_555
H5 O3 1.028779 1_555
H5 O11 1.522907 1_555
H6 O12 1.003213 1_555
H6 O28 1.657931 1_555
H7 O15 1.003213 1_555
H7 O31 1.657931 1_555
O0 P2 1.618897 1_555
O1 P3 1.615642 1_555
O2 P4 1.615642 1_555
O3 P5 1.618897 1_555
O4 P0 1.528805 1_555
O5 P0 1.529919 1_555
O6 P1 1.529919 1_555
O7 P1 1.528805 1_555
O8 P2 1.541247 1_554
O9 P3 1.549231 1_556
O10 P4 1.549231 1_556
O11 P5 1.541247 1_554
O12 P0 1.663156 1_555
O13 P0 1.537557 1_555
O14 P1 1.537557 1_555
O15 P1 1.663156 1_555
O16 P6 1.615048 1_555
O17 P7 1.622043 1_555
O18 P6 1.539288 1_555
O19 P7 1.542698 1_455
O20 P7 1.542698 1_545
O21 P6 1.539288 1_555
O22 P2 1.536976 1_555
O23 P3 1.532631 1_555
O24 P4 1.532631 1_555
O25 P5 1.536976 1_555
O26 P6 1.537045 1_555
O27 P7 1.533606 1_555
O28 P2 1.551497 1_554
O29 P3 1.534515 1_565
O30 P4 1.534515 1_655
O31 P5 1.551497 1_554
