# generated using pymatgen
data_Zn(SnO2)2
_symmetry_space_group_name_H-M   'P 1'
_cell_length_a   6.60272424
_cell_length_b   6.60272424
_cell_length_c   16.03331800
_cell_angle_alpha   90.00000000
_cell_angle_beta   90.00000000
_cell_angle_gamma   120.00000245
_symmetry_Int_Tables_number   1
_chemical_formula_structural   Zn(SnO2)2
_chemical_formula_sum   'Zn6 Sn12 O24'
_cell_volume   605.34135828
_cell_formula_units_Z   6
loop_
 _symmetry_equiv_pos_site_id
 _symmetry_equiv_pos_as_xyz
  1  'x, y, z'
loop_
 _atom_site_type_symbol
 _atom_site_label
 _atom_site_symmetry_multiplicity
 _atom_site_fract_x
 _atom_site_fract_y
 _atom_site_fract_z
 _atom_site_occupancy
  Zn  Zn0  1  0.33333300  0.66666700  0.95587800  1
  Zn  Zn1  1  0.66666700  0.33333300  0.61811000  1
  Zn  Zn2  1  0.00000000  0.00000000  0.66768200  1
  Zn  Zn3  1  0.00000000  0.00000000  0.28596800  1
  Zn  Zn4  1  0.66666700  0.33333300  0.99968100  1
  Zn  Zn5  1  0.66666700  0.33333300  0.38293300  1
  Sn  Sn0  1  0.83184200  0.16815800  0.83409500  1
  Sn  Sn1  1  0.83184200  0.66368300  0.83409500  1
  Sn  Sn2  1  0.16246300  0.83753700  0.49985600  1
  Sn  Sn3  1  0.33631700  0.16815800  0.83409500  1
  Sn  Sn4  1  0.16246300  0.32492600  0.49985600  1
  Sn  Sn5  1  0.33333300  0.66666700  0.33498700  1
  Sn  Sn6  1  0.33333300  0.66666700  0.70978800  1
  Sn  Sn7  1  0.50159100  0.49840900  0.16776700  1
  Sn  Sn8  1  0.67507400  0.83753700  0.49985600  1
  Sn  Sn9  1  0.50159100  0.00318200  0.16776700  1
  Sn  Sn10  1  0.99681800  0.49840900  0.16776700  1
  Sn  Sn11  1  0.00000000  0.00000000  0.04948500  1
  O  O0  1  0.51107600  0.48892400  0.91179300  1
  O  O1  1  0.66666700  0.33333300  0.75552900  1
  O  O2  1  0.51107600  0.02215200  0.91179300  1
  O  O3  1  0.97784800  0.48892400  0.91179300  1
  O  O4  1  0.84794400  0.15205600  0.58082200  1
  O  O5  1  0.71499300  0.85749600  0.75981100  1
  O  O6  1  0.00000000  0.00000000  0.41810400  1
  O  O7  1  0.14250400  0.28500700  0.75981100  1
  O  O8  1  0.00000000  0.00000000  0.89944300  1
  O  O9  1  0.84794400  0.69588700  0.58082200  1
  O  O10  1  0.30411300  0.15205600  0.58082200  1
  O  O11  1  0.14250400  0.85749600  0.75981100  1
  O  O12  1  0.16440200  0.83559800  0.23217400  1
  O  O13  1  0.99961800  0.49980900  0.43185900  1
  O  O14  1  0.50019100  0.00038200  0.43185900  1
  O  O15  1  0.33333300  0.66666700  0.09130300  1
  O  O16  1  0.33333300  0.66666700  0.55678400  1
  O  O17  1  0.16440200  0.32880400  0.23217400  1
  O  O18  1  0.67119600  0.83559800  0.23217400  1
  O  O19  1  0.50019100  0.49980900  0.43185900  1
  O  O20  1  0.39136000  0.19568000  0.09095400  1
  O  O21  1  0.80432000  0.60864000  0.09095400  1
  O  O22  1  0.66666700  0.33333300  0.24621600  1
  O  O23  1  0.80432000  0.19568000  0.09095400  1
loop_
_geom_bond_atom_site_label_1
_geom_bond_atom_site_label_2
_geom_bond_distance
_geom_bond_site_symmetry_2
O0 Zn0 2.152100 1_555
O0 Sn3 2.219265 1_555
O0 Sn1 2.219265 1_555
O0 Zn4 2.269769 1_555
O1 Zn1 2.203283 1_555
O1 Sn3 2.270470 1_555
O1 Sn1 2.270470 1_555
O1 Sn0 2.270470 1_555
O2 Zn0 2.152094 1_545
O2 Sn3 2.219261 1_555
O2 Sn0 2.219266 1_555
O2 Zn4 2.269765 1_555
O3 Zn0 2.152094 1_655
O3 Sn1 2.219261 1_555
O3 Sn0 2.219266 1_555
O3 Zn4 2.269765 1_555
O4 Zn1 2.157613 1_555
O4 Sn8 2.220424 1_545
O4 Sn4 2.220424 1_655
O4 Zn2 2.227877 1_655
O5 Sn0 2.153764 1_565
O5 Sn1 2.153764 1_555
O5 Zn2 2.199515 1_665
O5 Sn6 2.325090 1_555
O6 Zn3 2.118579 1_555
O6 Sn4 2.273791 1_555
O6 Sn8 2.273791 1_445
O6 Sn2 2.273791 1_545
O7 Sn0 2.153764 1_455
O7 Sn3 2.153764 1_555
O7 Zn2 2.199515 1_555
O7 Sn6 2.325090 1_555
O8 Sn0 2.189994 1_455
O8 Sn3 2.189999 1_555
O8 Sn1 2.189999 1_445
O8 Sn11 2.405671 1_556
O9 Zn1 2.157613 1_555
O9 Sn2 2.220424 1_655
O9 Sn8 2.220429 1_555
O9 Zn2 2.227881 1_665
O10 Zn1 2.157613 1_555
O10 Sn2 2.220424 1_545
O10 Sn4 2.220429 1_555
O10 Zn2 2.227881 1_555
O11 Sn1 2.153764 1_455
O11 Sn3 2.153764 1_565
O11 Zn2 2.199519 1_565
O11 Sn6 2.325079 1_555
O12 Zn3 2.068535 1_565
O12 Sn9 2.187226 1_565
O12 Sn10 2.187226 1_455
O12 Sn5 2.539629 1_555
O13 Zn5 2.059132 1_555
O13 Sn2 2.218012 1_655
O13 Sn4 2.218012 1_655
O13 Sn5 2.460424 1_655
O14 Zn5 2.059132 1_555
O14 Sn2 2.218012 1_545
O14 Sn8 2.218012 1_545
O14 Sn5 2.460424 1_545
O15 Zn0 2.171312 1_554
O15 Sn10 2.281598 1_455
O15 Sn9 2.281598 1_565
O15 Sn7 2.281603 1_555
O16 Sn2 2.156771 1_555
O16 Sn4 2.156776 1_555
O16 Sn8 2.156776 1_555
O16 Sn6 2.453162 1_555
O17 Zn3 2.068535 1_555
O17 Sn7 2.187226 1_555
O17 Sn10 2.187226 1_455
O17 Sn5 2.539634 1_555
O18 Zn3 2.068535 1_665
O18 Sn7 2.187226 1_555
O18 Sn9 2.187226 1_565
O18 Sn5 2.539634 1_555
O19 Zn5 2.059137 1_555
O19 Sn4 2.218012 1_555
O19 Sn8 2.218012 1_555
O19 Sn5 2.460429 1_555
O20 Sn7 2.141735 1_555
O20 Sn9 2.141735 1_555
O20 Zn4 2.149372 1_554
O20 Sn11 2.334530 1_555
O21 Sn7 2.141735 1_555
O21 Sn10 2.141735 1_555
O21 Zn4 2.149372 1_554
O21 Sn11 2.334530 1_665
O22 Zn5 2.192027 1_555
O22 Sn10 2.268483 1_555
O22 Sn9 2.268483 1_555
O22 Sn7 2.268488 1_555
O23 Sn9 2.141735 1_555
O23 Sn10 2.141735 1_555
O23 Zn4 2.149368 1_554
O23 Sn11 2.334530 1_655
