# generated using pymatgen
data_Zr4MoC5
_symmetry_space_group_name_H-M   'P 1'
_cell_length_a   13.51724470
_cell_length_b   13.51724470
_cell_length_c   13.51724514
_cell_angle_alpha   13.97898973
_cell_angle_beta   13.97898973
_cell_angle_gamma   13.97899138
_symmetry_Int_Tables_number   1
_chemical_formula_structural   Zr4MoC5
_chemical_formula_sum   'Zr4 Mo1 C5'
_cell_volume   125.43419254
_cell_formula_units_Z   1
loop_
 _symmetry_equiv_pos_site_id
 _symmetry_equiv_pos_as_xyz
  1  'x, y, z'
loop_
 _atom_site_type_symbol
 _atom_site_label
 _atom_site_symmetry_multiplicity
 _atom_site_fract_x
 _atom_site_fract_y
 _atom_site_fract_z
 _atom_site_occupancy
  Zr  Zr0  1  0.10254600  0.10254600  0.10254600  1
  Zr  Zr1  1  0.70078400  0.70078400  0.70078400  1
  Zr  Zr2  1  0.29921600  0.29921600  0.29921600  1
  Zr  Zr3  1  0.89745400  0.89745400  0.89745400  1
  Mo  Mo0  1  0.50000000  0.50000000  0.50000000  1
  C  C0  1  0.59820500  0.59820500  0.59820500  1
  C  C1  1  0.00000000  0.00000000  0.00000000  1
  C  C2  1  0.40179500  0.40179500  0.40179500  1
  C  C3  1  0.19618200  0.19618200  0.19618200  1
  C  C4  1  0.80381800  0.80381800  0.80381800  1
loop_
_geom_bond_atom_site_label_1
_geom_bond_atom_site_label_2
_geom_bond_distance
_geom_bond_site_symmetry_2
C0 Zr3 2.340982 1_455
C0 Zr3 2.340982 1_545
C0 Zr3 2.340982 1_554
C0 Zr2 2.347100 1_655
C0 Zr2 2.347100 1_565
C0 Zr2 2.347100 1_556
C1 Zr1 2.341757 1_544
C1 Zr1 2.341757 1_454
C1 Zr2 2.341757 1_545
C1 Zr2 2.341757 1_455
C1 Zr1 2.341757 1_445
C1 Zr2 2.341757 1_554
C2 Zr0 2.340982 1_655
C2 Zr0 2.340982 1_565
C2 Zr0 2.340982 1_556
C2 Zr1 2.347100 1_545
C2 Zr1 2.347100 1_455
C2 Zr1 2.347100 1_554
C3 Mo0 2.238700 1_545
C3 Mo0 2.238700 1_455
C3 Mo0 2.238700 1_554
C3 Zr3 2.353271 1_544
C3 Zr3 2.353271 1_454
C3 Zr3 2.353271 1_445
C4 Mo0 2.238700 1_655
C4 Mo0 2.238700 1_565
C4 Mo0 2.238700 1_556
C4 Zr0 2.353271 1_566
C4 Zr0 2.353271 1_656
C4 Zr0 2.353271 1_665
