# generated using pymatgen
data_BaHg6
_symmetry_space_group_name_H-M   'P 1'
_cell_length_a   5.39610825
_cell_length_b   10.59169807
_cell_length_c   13.74621245
_cell_angle_alpha   90.00000000
_cell_angle_beta   90.00000000
_cell_angle_gamma   90.00000000
_symmetry_Int_Tables_number   1
_chemical_formula_structural   BaHg6
_chemical_formula_sum   'Ba4 Hg24'
_cell_volume   785.65032994
_cell_formula_units_Z   4
loop_
 _symmetry_equiv_pos_site_id
 _symmetry_equiv_pos_as_xyz
  1  'x, y, z'
loop_
 _atom_site_type_symbol
 _atom_site_label
 _atom_site_symmetry_multiplicity
 _atom_site_fract_x
 _atom_site_fract_y
 _atom_site_fract_z
 _atom_site_occupancy
  Ba  Ba0  1  0.25000000  0.12830734  0.81710597  1
  Ba  Ba1  1  0.25000000  0.37175732  0.31707511  1
  Ba  Ba2  1  0.75000000  0.87175732  0.18292489  1
  Ba  Ba3  1  0.75000000  0.62830734  0.68289403  1
  Hg  Hg0  1  0.25000000  0.89137299  0.00602130  1
  Hg  Hg1  1  0.25000000  0.60866843  0.50564406  1
  Hg  Hg2  1  0.75000000  0.10866843  0.99435594  1
  Hg  Hg3  1  0.75000000  0.39137299  0.49397870  1
  Hg  Hg4  1  0.25000000  0.76539953  0.81177003  1
  Hg  Hg5  1  0.25000000  0.73469779  0.31157568  1
  Hg  Hg6  1  0.75000000  0.23469779  0.18842432  1
  Hg  Hg7  1  0.75000000  0.26539953  0.68822997  1
  Hg  Hg8  1  0.25000000  0.48957119  0.84136311  1
  Hg  Hg9  1  0.25000000  0.01031348  0.34129807  1
  Hg  Hg10  1  0.75000000  0.51031348  0.15870193  1
  Hg  Hg11  1  0.75000000  0.98957119  0.65863689  1
  Hg  Hg12  1  0.25000000  0.38688477  0.63355826  1
  Hg  Hg13  1  0.25000000  0.11317001  0.13385235  1
  Hg  Hg14  1  0.75000000  0.61317001  0.36614865  1
  Hg  Hg15  1  0.75000000  0.88688477  0.86644174  1
  Hg  Hg16  1  0.25000000  0.85934403  0.59940299  1
  Hg  Hg17  1  0.25000000  0.64055741  0.09964644  1
  Hg  Hg18  1  0.75000000  0.14055741  0.40035356  1
  Hg  Hg19  1  0.75000000  0.35934403  0.90059701  1
  Hg  Hg20  1  0.25000000  0.13350857  0.54094638  1
  Hg  Hg21  1  0.25000000  0.36644515  0.04120548  1
  Hg  Hg22  1  0.75000000  0.86644515  0.45879452  1
  Hg  Hg23  1  0.75000000  0.63350857  0.95905362  1
loop_
_geom_bond_atom_site_label_1
_geom_bond_atom_site_label_2
_geom_bond_distance
_geom_bond_site_symmetry_2
Ba0 Hg7 3.539255 1_455
Ba0 Hg7 3.539255 1_555
Ba0 Hg0 3.611303 1_546
Ba0 Hg2 3.641342 1_555
Ba0 Hg2 3.641342 1_455
Ba0 Hg12 3.723821 1_555
Ba0 Hg11 3.766164 1_445
Ba0 Hg11 3.766164 1_545
Ba0 Hg15 3.778632 1_445
Ba0 Hg15 3.778632 1_545
Ba0 Hg20 3.796548 1_555
Ba0 Hg19 3.819010 1_455
Ba0 Hg19 3.819010 1_555
Ba0 Hg8 3.840899 1_555
Ba0 Hg4 3.844510 1_545
Ba0 Hg21 3.981396 1_556
Ba0 Hg16 4.131724 1_545
Ba1 Hg6 3.537565 1_455
Ba1 Hg6 3.537565 1_555
Ba1 Hg1 3.607710 1_555
Ba1 Hg3 3.638144 1_455
Ba1 Hg3 3.638144 1_555
Ba1 Hg13 3.720873 1_555
Ba1 Hg10 3.764658 1_455
Ba1 Hg10 3.764658 1_555
Ba1 Hg14 3.777915 1_455
Ba1 Hg14 3.777915 1_555
Ba1 Hg21 3.792580 1_555
Ba1 Hg18 3.819241 1_555
Ba1 Hg18 3.819241 1_455
Ba1 Hg9 3.842757 1_555
Ba1 Hg5 3.844899 1_555
Ba1 Hg20 3.979714 1_555
Ba1 Hg17 4.127801 1_555
Ba2 Hg5 3.537565 1_555
Ba2 Hg5 3.537565 1_655
Ba2 Hg2 3.607710 1_564
Ba2 Hg0 3.638144 1_655
Ba2 Hg0 3.638144 1_555
Ba2 Hg14 3.720883 1_555
Ba2 Hg9 3.764658 1_565
Ba2 Hg9 3.764658 1_665
Ba2 Hg13 3.777913 1_565
Ba2 Hg13 3.777913 1_665
Ba2 Hg22 3.792580 1_555
Ba2 Hg17 3.819241 1_555
Ba2 Hg17 3.819241 1_655
Ba2 Hg10 3.842757 1_555
Ba2 Hg6 3.844899 1_565
Ba2 Hg23 3.979714 1_554
Ba2 Hg18 4.127801 1_565
Ba3 Hg4 3.539255 1_655
Ba3 Hg4 3.539255 1_555
Ba3 Hg3 3.611303 1_555
Ba3 Hg1 3.641342 1_655
Ba3 Hg1 3.641342 1_555
Ba3 Hg15 3.723821 1_555
Ba3 Hg8 3.766164 1_655
Ba3 Hg8 3.766164 1_555
Ba3 Hg12 3.778632 1_555
Ba3 Hg12 3.778632 1_655
Ba3 Hg23 3.796548 1_555
Ba3 Hg16 3.819010 1_555
Ba3 Hg16 3.819010 1_655
Ba3 Hg11 3.840899 1_555
Ba3 Hg7 3.844510 1_555
Ba3 Hg22 3.981396 1_555
Ba3 Hg19 4.131724 1_555
Hg0 Hg13 2.933684 1_565
Hg0 Hg17 2.951893 1_555
Hg0 Hg4 2.985022 1_554
Hg0 Hg15 3.311062 1_454
Hg0 Hg15 3.311062 1_554
Hg1 Hg12 2.934255 1_555
Hg1 Hg16 2.951361 1_555
Hg1 Hg5 2.983038 1_555
Hg1 Hg14 3.310393 1_455
Hg1 Hg14 3.310393 1_555
Hg2 Hg6 2.983038 1_556
Hg3 Hg7 2.985022 1_555
Hg4 Hg8 2.949676 1_555
Hg5 Hg9 2.947691 1_565
Hg10 Hg6 2.947691 1_555
Hg10 Hg23 3.038815 1_554
Hg10 Hg14 3.052623 1_555
Hg10 Hg17 3.137121 1_555
Hg10 Hg17 3.137121 1_655
Hg11 Hg7 2.949676 1_565
Hg11 Hg22 3.040911 1_555
Hg11 Hg15 3.056581 1_555
Hg11 Hg16 3.137679 1_555
Hg11 Hg16 3.137679 1_655
Hg12 Hg20 2.970328 1_555
Hg12 Hg8 3.056581 1_555
Hg12 Hg7 3.082204 1_455
Hg12 Hg7 3.082204 1_555
Hg12 Hg3 3.311062 1_455
Hg12 Hg3 3.311062 1_555
Hg13 Hg21 2.969567 1_555
Hg13 Hg9 3.052610 1_555
Hg13 Hg6 3.082058 1_555
Hg13 Hg6 3.082058 1_455
Hg13 Hg2 3.310401 1_554
Hg13 Hg2 3.310401 1_454
Hg14 Hg3 2.933676 1_555
Hg14 Hg22 2.969561 1_555
Hg14 Hg5 3.082061 1_555
Hg14 Hg5 3.082061 1_655
Hg15 Hg2 2.934255 1_565
Hg15 Hg23 2.970328 1_555
Hg15 Hg4 3.082204 1_555
Hg15 Hg4 3.082204 1_655
Hg16 Hg20 3.012997 1_565
Hg16 Hg4 3.084164 1_555
Hg16 Hg22 3.319789 1_455
Hg16 Hg22 3.319789 1_555
Hg17 Hg21 3.012406 1_555
Hg17 Hg5 3.079139 1_555
Hg17 Hg23 3.319651 1_554
Hg17 Hg23 3.319651 1_454
Hg18 Hg3 2.951893 1_555
Hg18 Hg22 3.012406 1_545
Hg18 Hg6 3.079139 1_555
Hg18 Hg9 3.137121 1_655
Hg18 Hg9 3.137121 1_555
Hg18 Hg20 3.319651 1_555
Hg18 Hg20 3.319651 1_655
Hg19 Hg2 2.951361 1_555
Hg19 Hg23 3.012997 1_555
Hg19 Hg7 3.084164 1_555
Hg19 Hg8 3.137679 1_555
Hg19 Hg8 3.137679 1_655
Hg19 Hg21 3.319789 1_556
Hg19 Hg21 3.319789 1_656
Hg20 Hg9 3.038815 1_555
Hg21 Hg8 3.040911 1_554
