# generated using pymatgen
data_B
_symmetry_space_group_name_H-M   'P 1'
_cell_length_a   5.03164439
_cell_length_b   5.59965214
_cell_length_c   6.93884639
_cell_angle_alpha   90.00000000
_cell_angle_beta   90.00000000
_cell_angle_gamma   90.00000000
_symmetry_Int_Tables_number   1
_chemical_formula_structural   B
_chemical_formula_sum   B28
_cell_volume   195.50517695
_cell_formula_units_Z   28
loop_
 _symmetry_equiv_pos_site_id
 _symmetry_equiv_pos_as_xyz
  1  'x, y, z'
loop_
 _atom_site_type_symbol
 _atom_site_label
 _atom_site_symmetry_multiplicity
 _atom_site_fract_x
 _atom_site_fract_y
 _atom_site_fract_z
 _atom_site_occupancy
  B  B0  1  0.65312716  0.90709990  0.29187771  1
  B  B1  1  0.34687284  0.09290010  0.29187771  1
  B  B2  1  0.15312716  0.59290010  0.20812229  1
  B  B3  1  0.84687284  0.40709990  0.20812229  1
  B  B4  1  0.34687284  0.09290010  0.70812229  1
  B  B5  1  0.65312716  0.90709990  0.70812229  1
  B  B6  1  0.84687284  0.40709990  0.79187771  1
  B  B7  1  0.15312716  0.59290010  0.79187771  1
  B  B8  1  0.14799076  0.77096325  0.00000000  1
  B  B9  1  0.85200924  0.22903675  0.00000000  1
  B  B10  1  0.64799076  0.72903675  0.50000000  1
  B  B11  1  0.35200924  0.27096325  0.50000000  1
  B  B12  1  0.83580325  0.99228561  0.50000000  1
  B  B13  1  0.16419675  0.00771439  0.50000000  1
  B  B14  1  0.33580325  0.50771439  0.00000000  1
  B  B15  1  0.66419675  0.49228561  0.00000000  1
  B  B16  1  0.33932555  0.78075240  0.37467403  1
  B  B17  1  0.66067445  0.21924760  0.37467403  1
  B  B18  1  0.83932555  0.71924760  0.12532597  1
  B  B19  1  0.16067445  0.28075240  0.12532597  1
  B  B20  1  0.66067445  0.21924760  0.62532597  1
  B  B21  1  0.33932555  0.78075240  0.62532597  1
  B  B22  1  0.16067445  0.28075240  0.87467403  1
  B  B23  1  0.83932555  0.71924760  0.87467403  1
  B  B24  1  0.16993238  0.51952589  0.50000000  1
  B  B25  1  0.83006762  0.48047411  0.50000000  1
  B  B26  1  0.66993238  0.98047411  0.00000000  1
  B  B27  1  0.33006762  0.01952589  0.00000000  1
loop_
_geom_bond_atom_site_label_1
_geom_bond_atom_site_label_2
_geom_bond_distance
_geom_bond_site_symmetry_2
B0 B10 1.755097 1_555
B0 B12 1.777049 1_555
B0 B18 1.822046 1_555
B0 B16 1.823093 1_555
B0 B17 1.840305 1_565
B0 B1 1.859310 1_565
B0 B26 2.068280 1_555
B1 B11 1.755097 1_555
B1 B13 1.777049 1_555
B1 B19 1.822046 1_555
B1 B17 1.823093 1_555
B1 B16 1.840305 1_545
B1 B27 2.068280 1_555
B2 B8 1.755097 1_555
B2 B3 1.859310 1_455
B2 B24 2.068280 1_555
B3 B9 1.755097 1_555
B4 B5 1.859310 1_545
B6 B9 1.755097 1_556
B6 B7 1.859310 1_655
B7 B8 1.755097 1_556
B10 B25 1.666316 1_555
B10 B12 1.751003 1_555
B10 B5 1.755097 1_555
B10 B16 1.803385 1_555
B10 B21 1.803385 1_555
B11 B24 1.666316 1_555
B11 B13 1.751003 1_555
B11 B4 1.755097 1_555
B11 B17 1.803385 1_555
B11 B20 1.803385 1_555
B12 B13 1.654616 1_665
B12 B20 1.774241 1_565
B12 B17 1.774241 1_565
B12 B5 1.777049 1_555
B13 B16 1.774241 1_545
B13 B21 1.774241 1_545
B13 B4 1.777049 1_555
B14 B15 1.654616 1_555
B14 B8 1.751003 1_555
B14 B19 1.774241 1_555
B14 B22 1.774241 1_554
B14 B7 1.777049 1_554
B14 B2 1.777049 1_555
B15 B9 1.751003 1_555
B15 B18 1.774241 1_555
B15 B23 1.774241 1_554
B15 B6 1.777049 1_554
B15 B3 1.777049 1_555
B16 B21 1.739235 1_555
B16 B2 1.822046 1_555
B16 B24 1.903264 1_555
B17 B20 1.739235 1_555
B17 B3 1.822046 1_555
B17 B25 1.903264 1_555
B18 B23 1.739235 1_554
B18 B8 1.803385 1_655
B18 B2 1.823093 1_655
B18 B3 1.840305 1_555
B18 B26 1.903264 1_555
B19 B22 1.739235 1_554
B19 B9 1.803385 1_455
B19 B3 1.823093 1_455
B19 B2 1.840305 1_555
B19 B27 1.903264 1_555
B20 B6 1.822046 1_555
B20 B4 1.823093 1_555
B20 B5 1.840305 1_545
B20 B25 1.903264 1_555
B21 B7 1.822046 1_555
B21 B5 1.823093 1_555
B21 B4 1.840305 1_565
B21 B24 1.903264 1_555
B22 B9 1.803385 1_456
B22 B4 1.822046 1_555
B22 B6 1.823093 1_455
B22 B7 1.840305 1_555
B22 B27 1.903264 1_556
B23 B8 1.803385 1_656
B23 B5 1.822046 1_555
B23 B7 1.823093 1_655
B23 B6 1.840305 1_555
B23 B26 1.903264 1_556
B24 B25 1.724004 1_455
B24 B7 2.068280 1_555
B25 B3 2.068280 1_555
B25 B6 2.068280 1_555
B26 B9 1.666316 1_565
B26 B27 1.724004 1_565
B26 B5 2.068280 1_554
B27 B8 1.666316 1_545
B27 B4 2.068280 1_554
