# generated using pymatgen
data_Gd(VFe5)2
_symmetry_space_group_name_H-M   'P 1'
_cell_length_a   4.70645000
_cell_length_b   6.43641657
_cell_length_c   6.43641657
_cell_angle_alpha   97.25746430
_cell_angle_beta   111.44519240
_cell_angle_gamma   68.55480760
_symmetry_Int_Tables_number   1
_chemical_formula_structural   Gd(VFe5)2
_chemical_formula_sum   'Gd1 V2 Fe10'
_cell_volume   168.90743586
_cell_formula_units_Z   1
loop_
 _symmetry_equiv_pos_site_id
 _symmetry_equiv_pos_as_xyz
  1  'x, y, z'
loop_
 _atom_site_type_symbol
 _atom_site_label
 _atom_site_symmetry_multiplicity
 _atom_site_fract_x
 _atom_site_fract_y
 _atom_site_fract_z
 _atom_site_occupancy
  Gd  Gd0  1  0.00000000  0.00000000  0.00000000  1
  V  V0  1  0.00000000  0.35894900  0.35894900  1
  V  V1  1  0.00000000  0.64105100  0.64105100  1
  Fe  Fe0  1  0.72576800  0.77423200  0.22576800  1
  Fe  Fe1  1  0.27423200  0.22576800  0.77423200  1
  Fe  Fe2  1  0.50000000  0.77219900  0.77219900  1
  Fe  Fe3  1  0.50000000  0.22780100  0.22780100  1
  Fe  Fe4  1  0.50000000  0.00000000  0.50000000  1
  Fe  Fe5  1  0.00000000  0.00000000  0.50000000  1
  Fe  Fe6  1  0.50000000  0.50000000  0.00000000  1
  Fe  Fe7  1  0.00000000  0.50000000  0.00000000  1
  Fe  Fe8  1  0.64042200  0.35957800  0.64042200  1
  Fe  Fe9  1  0.35957800  0.64042200  0.35957800  1
loop_
_geom_bond_atom_site_label_1
_geom_bond_atom_site_label_2
_geom_bond_distance
_geom_bond_site_symmetry_2
Gd0 V1 3.053979 1_544
Gd0 V0 3.053979 1_555
V0 V1 2.400156 1_555
Fe0 Fe7 2.439356 1_655
Fe0 Fe4 2.439356 1_565
Fe0 Fe5 2.439356 1_665
Fe0 Fe6 2.439356 1_555
Fe0 V0 2.606240 1_655
Fe0 V1 2.606240 1_655
Fe0 Fe9 2.609980 1_555
Fe0 Fe9 2.609980 1_655
Fe0 Fe3 2.717376 1_565
Fe0 Fe2 2.717376 1_554
Fe0 Gd0 3.027432 1_565
Fe0 Gd0 3.027432 1_665
Fe1 Fe5 2.439356 1_555
Fe1 Fe6 2.439356 1_556
Fe1 Fe7 2.439356 1_556
Fe1 Fe4 2.439356 1_555
Fe1 V1 2.606240 1_555
Fe1 V0 2.606240 1_555
Fe1 Fe8 2.609980 1_555
Fe1 Fe8 2.609980 1_455
Fe1 Fe3 2.717376 1_556
Fe1 Fe2 2.717376 1_545
Fe1 Gd0 3.027432 1_656
Fe1 Gd0 3.027432 1_556
Fe2 Fe7 2.422455 1_656
Fe2 Fe4 2.422455 1_565
Fe2 Fe5 2.422455 1_565
Fe2 Fe6 2.422455 1_556
Fe2 Fe8 2.601302 1_555
Fe2 Fe9 2.601302 1_555
Fe2 V1 2.604367 1_555
Fe2 V1 2.604367 1_655
Fe2 Gd0 3.048626 1_566
Fe2 Gd0 3.048626 1_666
Fe3 Fe4 2.422455 1_555
Fe3 Fe5 2.422455 1_655
Fe3 Fe6 2.422455 1_555
Fe3 Fe7 2.422455 1_555
Fe3 Fe8 2.601302 1_555
Fe3 Fe9 2.601302 1_555
Fe3 V0 2.604367 1_555
Fe3 V0 2.604367 1_655
Fe3 Gd0 3.048626 1_555
Fe3 Gd0 3.048626 1_655
Fe4 Fe5 2.353225 1_655
Fe4 Fe5 2.353225 1_555
Fe4 V1 2.586861 1_645
Fe4 V0 2.586861 1_555
Fe4 Fe9 2.600624 1_545
Fe4 Fe8 2.600624 1_555
Fe4 Gd0 3.218208 1_656
Fe4 Gd0 3.218208 1_555
Fe5 V0 2.586861 1_555
Fe5 V1 2.586861 1_545
Fe5 Fe9 2.600624 1_545
Fe5 Fe8 2.600624 1_455
Fe5 Gd0 3.218208 1_555
Fe5 Gd0 3.218208 1_556
Fe6 Fe7 2.353225 1_655
Fe6 Fe7 2.353225 1_555
Fe6 V1 2.586861 1_554
Fe6 V0 2.586861 1_655
Fe6 Fe8 2.600624 1_554
Fe6 Fe9 2.600624 1_555
Fe6 Gd0 3.218208 1_565
Fe6 Gd0 3.218208 1_655
Fe7 V1 2.586861 1_554
Fe7 V0 2.586861 1_555
Fe7 Fe8 2.600624 1_454
Fe7 Fe9 2.600624 1_555
Fe7 Gd0 3.218208 1_565
Fe7 Gd0 3.218208 1_555
Fe8 Fe9 2.369284 1_555
Fe8 V1 2.895036 1_655
Fe8 V0 2.895036 1_655
Fe8 V0 2.895036 1_555
Fe8 V1 2.895036 1_555
Fe8 Gd0 3.033508 1_656
Fe9 V0 2.895036 1_555
Fe9 V1 2.895036 1_555
Fe9 V0 2.895036 1_655
Fe9 V1 2.895036 1_655
Fe9 Gd0 3.033508 1_565
