# generated using pymatgen
data_K2Nd4MgNb2O12
_symmetry_space_group_name_H-M   'P 1'
_cell_length_a   5.66655155
_cell_length_b   6.80850484
_cell_length_c   12.38323907
_cell_angle_alpha   99.76299260
_cell_angle_beta   86.17338389
_cell_angle_gamma   114.90601471
_symmetry_Int_Tables_number   1
_chemical_formula_structural   K2Nd4MgNb2O12
_chemical_formula_sum   'K2 Nd4 Mg1 Nb2 O12'
_cell_volume   427.04191772
_cell_formula_units_Z   1
loop_
 _symmetry_equiv_pos_site_id
 _symmetry_equiv_pos_as_xyz
  1  'x, y, z'
loop_
 _atom_site_type_symbol
 _atom_site_label
 _atom_site_symmetry_multiplicity
 _atom_site_fract_x
 _atom_site_fract_y
 _atom_site_fract_z
 _atom_site_occupancy
  K  K0  1  0.00824000  0.11288800  0.37518700  1
  K  K1  1  0.77480100  0.58381400  0.47742800  1
  Nd  Nd0  1  0.15300500  0.28909700  0.95184500  1
  Nd  Nd1  1  0.56037500  0.15417000  0.13950700  1
  Nd  Nd2  1  0.45445100  0.86656500  0.86005900  1
  Nd  Nd3  1  0.86602700  0.74468100  0.06282200  1
  Mg  Mg0  1  0.09194000  0.08883100  0.67068900  1
  Nb  Nb0  1  0.72779700  0.39447100  0.79359200  1
  Nb  Nb1  1  0.29291800  0.64285800  0.21756900  1
  O  O0  1  0.03909500  0.56889400  0.89180900  1
  O  O1  1  0.18046400  0.88260600  0.21456700  1
  O  O2  1  0.26473600  0.01431500  0.00061800  1
  O  O3  1  0.84592700  0.14853900  0.78885100  1
  O  O4  1  0.64770000  0.88416600  0.21568300  1
  O  O5  1  0.75243200  0.01148700  0.00086700  1
  O  O6  1  0.36394300  0.14624200  0.78761400  1
  O  O7  1  0.97972300  0.45944400  0.11876400  1
  O  O8  1  0.79700000  0.49370200  0.66458000  1
  O  O9  1  0.21637900  0.54138900  0.34929100  1
  O  O10  1  0.45175300  0.45937400  0.12045000  1
  O  O11  1  0.56254400  0.56802200  0.89106400  1
loop_
_geom_bond_atom_site_label_1
_geom_bond_atom_site_label_2
_geom_bond_distance
_geom_bond_site_symmetry_2
K0 O4 2.704826 1_445
K0 O1 2.709021 1_545
K0 O9 2.715521 1_555
K1 O8 2.519803 1_555
K1 O9 2.964070 1_655
Nd0 O5 2.384320 1_456
Nd0 O2 2.386972 1_556
Nd0 O11 2.469444 1_555
Nd0 O0 2.485640 1_555
Nd0 O3 2.535494 1_455
Nd0 O7 2.541070 1_456
Nd0 O6 2.548450 1_555
Nd0 O10 2.562600 1_556
Nd1 O5 2.269588 1_555
Nd1 O2 2.270860 1_555
Nd1 O1 2.424926 1_545
Nd1 O4 2.435304 1_545
Nd1 O7 2.443823 1_555
Nd1 O10 2.452657 1_555
Nd2 O2 2.294452 1_566
Nd2 O5 2.295923 1_566
Nd2 O0 2.435308 1_555
Nd2 O11 2.449259 1_555
Nd2 O3 2.471889 1_565
Nd2 O6 2.481339 1_565
Nd3 O2 2.412856 1_665
Nd3 O5 2.413757 1_565
Nd3 O1 2.454938 1_655
Nd3 O4 2.466359 1_555
Nd3 O10 2.489811 1_555
Nd3 O7 2.497227 1_555
Nd3 O0 2.594351 1_654
Nd3 O11 2.608887 1_554
Mg0 O6 2.055088 1_555
Mg0 O3 2.062275 1_455
Nb0 O8 1.794939 1_555
Nb0 O11 2.006835 1_555
Nb0 O0 2.008309 1_655
Nb0 O6 2.038586 1_555
Nb0 O3 2.039780 1_555
Nb1 O9 1.833412 1_555
Nb1 O4 1.991551 1_555
Nb1 O1 1.992926 1_555
Nb1 O10 2.027335 1_555
Nb1 O7 2.027592 1_455
