# generated using pymatgen
data_CaTiP3WO12
_symmetry_space_group_name_H-M   'P 1'
_cell_length_a   8.98749652
_cell_length_b   8.98749676
_cell_length_c   8.98749698
_cell_angle_alpha   58.63240932
_cell_angle_beta   58.63241532
_cell_angle_gamma   58.63241655
_symmetry_Int_Tables_number   1
_chemical_formula_structural   CaTiP3WO12
_chemical_formula_sum   'Ca2 Ti2 P6 W2 O24'
_cell_volume   497.28787467
_cell_formula_units_Z   2
loop_
 _symmetry_equiv_pos_site_id
 _symmetry_equiv_pos_as_xyz
  1  'x, y, z'
loop_
 _atom_site_type_symbol
 _atom_site_label
 _atom_site_symmetry_multiplicity
 _atom_site_fract_x
 _atom_site_fract_y
 _atom_site_fract_z
 _atom_site_occupancy
  Ca  Ca0  1  0.99941600  0.99941600  0.99941600  1
  Ca  Ca1  1  0.49941600  0.49941600  0.49941600  1
  Ti  Ti0  1  0.14843300  0.14843300  0.14843300  1
  Ti  Ti1  1  0.64843300  0.64843300  0.64843300  1
  P  P0  1  0.03793100  0.45303900  0.75901200  1
  P  P1  1  0.45303900  0.75901200  0.03793100  1
  P  P2  1  0.75901200  0.03793100  0.45303900  1
  P  P3  1  0.25901200  0.95303900  0.53793100  1
  P  P4  1  0.53793100  0.25901200  0.95303900  1
  P  P5  1  0.95303900  0.53793100  0.25901200  1
  W  W0  1  0.35535600  0.35535600  0.35535600  1
  W  W1  1  0.85535600  0.85535600  0.85535600  1
  O  O0  1  0.10610900  0.51051900  0.30572000  1
  O  O1  1  0.30572000  0.10610900  0.51051900  1
  O  O2  1  0.05058800  0.26771300  0.92697800  1
  O  O3  1  0.51051900  0.30572000  0.10610900  1
  O  O4  1  0.01051900  0.60610900  0.80572000  1
  O  O5  1  0.22482800  0.42885700  0.59706700  1
  O  O6  1  0.26771300  0.92697800  0.05058800  1
  O  O7  1  0.42885700  0.59706700  0.22482800  1
  O  O8  1  0.20718800  0.99953600  0.37170700  1
  O  O9  1  0.59706700  0.22482800  0.42885700  1
  O  O10  1  0.09706700  0.92885700  0.72482800  1
  O  O11  1  0.37170700  0.20718800  0.99953600  1
  O  O12  1  0.60610900  0.80572000  0.01051900  1
  O  O13  1  0.92697800  0.05058800  0.26771300  1
  O  O14  1  0.42697800  0.76771300  0.55058800  1
  O  O15  1  0.80572000  0.01051900  0.60610900  1
  O  O16  1  0.55058800  0.42697800  0.76771300  1
  O  O17  1  0.72482800  0.09706700  0.92885700  1
  O  O18  1  0.76771300  0.55058800  0.42697800  1
  O  O19  1  0.99953600  0.37170700  0.20718800  1
  O  O20  1  0.49953600  0.70718800  0.87170700  1
  O  O21  1  0.92885700  0.72482800  0.09706700  1
  O  O22  1  0.70718800  0.87170700  0.49953600  1
  O  O23  1  0.87170700  0.49953600  0.70718800  1
loop_
_geom_bond_atom_site_label_1
_geom_bond_atom_site_label_2
_geom_bond_distance
_geom_bond_site_symmetry_2
Ca0 O2 2.378722 1_665
Ca0 O6 2.378722 1_656
Ca0 O13 2.378723 1_566
Ca0 O21 2.461250 1_556
Ca0 O17 2.461250 1_565
Ca0 O10 2.461250 1_655
Ca1 O18 2.378722 1_555
Ca1 O16 2.378722 1_555
Ca1 O14 2.378722 1_555
Ca1 O5 2.461250 1_555
Ca1 O7 2.461250 1_555
Ca1 O9 2.461250 1_555
O0 P5 1.506725 1_455
O0 W0 2.074213 1_555
O1 P3 1.506725 1_545
O1 W0 2.074213 1_555
O2 P0 1.558841 1_555
O2 Ti0 2.122112 1_556
O3 P4 1.506725 1_554
O3 W0 2.074213 1_555
O4 P0 1.506725 1_555
O4 W1 2.074213 1_455
O5 P0 1.546364 1_555
O5 W0 2.136803 1_555
O6 P1 1.558841 1_555
O6 Ti0 2.122112 1_565
O7 P1 1.546364 1_555
O7 W0 2.136803 1_555
O8 P3 1.579637 1_555
O8 Ti0 1.915276 1_565
O9 P2 1.546364 1_555
O9 W0 2.136803 1_555
O10 P3 1.546364 1_555
O10 W1 2.136803 1_455
O11 P4 1.579637 1_555
O11 Ti0 1.915276 1_556
O12 P1 1.506725 1_555
O12 W1 2.074213 1_554
O13 P2 1.558841 1_555
O13 Ti0 2.122112 1_655
O14 P3 1.558841 1_555
O14 Ti1 2.122112 1_555
O15 P2 1.506725 1_555
O15 W1 2.074213 1_545
O16 P4 1.558841 1_555
O16 Ti1 2.122112 1_555
O17 P4 1.546364 1_555
O17 W1 2.136803 1_545
O18 P5 1.558841 1_555
O18 Ti1 2.122112 1_555
O19 P5 1.579637 1_555
O19 Ti0 1.915276 1_655
O20 P1 1.579637 1_556
O20 Ti1 1.915276 1_555
O21 P5 1.546364 1_555
O21 W1 2.136803 1_554
O22 P2 1.579637 1_565
O22 Ti1 1.915276 1_555
O23 P0 1.579637 1_655
O23 Ti1 1.915276 1_555
