# generated using pymatgen
data_Er(MnAl)6
_symmetry_space_group_name_H-M   'P 1'
_cell_length_a   6.60985682
_cell_length_b   6.60985682
_cell_length_c   6.60985682
_cell_angle_alpha   136.30108272
_cell_angle_beta   99.21312909
_cell_angle_gamma   96.71394265
_symmetry_Int_Tables_number   1
_chemical_formula_structural   Er(MnAl)6
_chemical_formula_sum   'Er1 Mn6 Al6'
_cell_volume   185.12297898
_cell_formula_units_Z   1
loop_
 _symmetry_equiv_pos_site_id
 _symmetry_equiv_pos_as_xyz
  1  'x, y, z'
loop_
 _atom_site_type_symbol
 _atom_site_label
 _atom_site_symmetry_multiplicity
 _atom_site_fract_x
 _atom_site_fract_y
 _atom_site_fract_z
 _atom_site_occupancy
  Er  Er0  1  0.00000000  0.00000000  0.00000000  1
  Mn  Mn0  1  0.50000000  0.00000000  0.00000000  1
  Mn  Mn1  1  0.50000000  0.50000000  0.50000000  1
  Mn  Mn2  1  0.00000000  0.00000000  0.50000000  1
  Mn  Mn3  1  0.00000000  0.50000000  0.00000000  1
  Mn  Mn4  1  0.23543800  0.50000000  0.73543800  1
  Mn  Mn5  1  0.76456200  0.50000000  0.26456200  1
  Al  Al0  1  0.34669600  0.34669600  0.00000000  1
  Al  Al1  1  0.65330400  0.65330400  0.00000000  1
  Al  Al2  1  0.66220800  0.00000000  0.66220800  1
  Al  Al3  1  0.33779200  0.00000000  0.33779200  1
  Al  Al4  1  0.80539800  0.30539800  0.50000000  1
  Al  Al5  1  0.19460200  0.69460200  0.50000000  1
loop_
_geom_bond_atom_site_label_1
_geom_bond_atom_site_label_2
_geom_bond_distance
_geom_bond_site_symmetry_2
Er0 Mn4 3.181135 1_555
Er0 Mn4 3.181135 1_544
Er0 Mn5 3.181135 1_455
Er0 Mn5 3.181135 1_444
Er0 Mn3 3.304928 1_555
Er0 Mn1 3.304928 1_444
Er0 Mn0 3.304928 1_555
Er0 Mn0 3.304928 1_455
Er0 Mn2 3.304928 1_554
Er0 Mn3 3.304928 1_545
Er0 Mn1 3.304928 1_555
Er0 Mn2 3.304928 1_555
Mn0 Mn1 2.459985 1_544
Mn0 Mn1 2.459985 1_555
Mn0 Mn4 2.520164 1_544
Mn0 Mn5 2.520164 1_555
Mn1 Mn5 2.520164 1_555
Mn1 Mn4 2.520164 1_555
Mn2 Mn3 2.459985 1_556
Mn2 Mn3 2.459985 1_545
Mn2 Mn4 2.520164 1_555
Mn2 Mn5 2.520164 1_445
Mn3 Mn4 2.520164 1_554
Mn3 Mn5 2.520164 1_455
Al0 Mn3 2.611755 1_555
Al0 Mn0 2.611755 1_555
Al0 Mn1 2.611755 1_555
Al0 Mn2 2.611755 1_554
Al0 Mn5 2.636348 1_555
Al0 Mn4 2.636348 1_554
Al0 Al1 2.693348 1_555
Al0 Al5 2.799382 1_544
Al0 Al5 2.799382 1_555
Al0 Er0 3.045494 1_555
Al1 Mn1 2.611755 1_554
Al1 Mn2 2.611755 1_665
Al1 Mn3 2.611755 1_655
Al1 Mn0 2.611755 1_565
Al1 Mn4 2.636348 1_554
Al1 Mn5 2.636348 1_555
Al1 Al4 2.799382 1_554
Al1 Al4 2.799382 1_565
Al1 Er0 3.045494 1_665
Al2 Mn5 2.611587 1_556
Al2 Mn5 2.611587 1_545
Al2 Mn3 2.627036 1_656
Al2 Mn1 2.627036 1_545
Al2 Mn0 2.627036 1_556
Al2 Mn2 2.627036 1_655
Al2 Al3 2.779209 1_555
Al2 Er0 2.893799 1_656
Al3 Mn4 2.611587 1_544
Al3 Mn4 2.611587 1_555
Al3 Mn3 2.627036 1_545
Al3 Mn2 2.627036 1_555
Al3 Mn0 2.627036 1_555
Al3 Mn1 2.627036 1_555
Al3 Er0 2.893799 1_555
Al4 Mn0 2.517256 1_555
Al4 Mn1 2.517256 1_555
Al4 Mn3 2.517256 1_656
Al4 Mn2 2.517256 1_655
Al4 Mn5 2.643920 1_555
Al4 Mn4 2.643920 1_655
Al4 Er0 2.995621 1_666
Al4 Er0 2.995621 1_655
Al5 Mn3 2.517256 1_555
Al5 Mn2 2.517256 1_565
Al5 Mn0 2.517256 1_566
Al5 Mn1 2.517256 1_555
Al5 Mn5 2.643920 1_455
Al5 Mn4 2.643920 1_555
Al5 Er0 2.995621 1_566
Al5 Er0 2.995621 1_555
