# generated using pymatgen
data_La6Sm2Cr5Fe3O20
_symmetry_space_group_name_H-M   'P 1'
_cell_length_a   11.11928545
_cell_length_b   11.54482716
_cell_length_c   18.00818019
_cell_angle_alpha   108.81970672
_cell_angle_beta   108.15258249
_cell_angle_gamma   89.98046714
_symmetry_Int_Tables_number   1
_chemical_formula_structural   La6Sm2Cr5Fe3O20
_chemical_formula_sum   'La24 Sm8 Cr20 Fe12 O80'
_cell_volume   2066.29071952
_cell_formula_units_Z   4
loop_
 _symmetry_equiv_pos_site_id
 _symmetry_equiv_pos_as_xyz
  1  'x, y, z'
loop_
 _atom_site_type_symbol
 _atom_site_label
 _atom_site_symmetry_multiplicity
 _atom_site_fract_x
 _atom_site_fract_y
 _atom_site_fract_z
 _atom_site_occupancy
  La  La0  1  0.30039010  0.06235730  0.61075323  1
  La  La1  1  0.30306343  0.56666746  0.61351228  1
  La  La2  1  0.81027940  0.06209639  0.61449107  1
  La  La3  1  0.80609492  0.56705221  0.61931036  1
  La  La4  1  0.18713219  0.43654185  0.38297395  1
  La  La5  1  0.19262092  0.43859766  0.88751851  1
  La  La6  1  0.18690897  0.93253271  0.37844332  1
  La  La7  1  0.68984115  0.43676394  0.38748481  1
  La  La8  1  0.69171038  0.93502009  0.38631657  1
  La  La9  1  0.69092175  0.93476664  0.88458665  1
  La  La10  1  0.05327085  0.30456477  0.11790633  1
  La  La11  1  0.05253074  0.29901664  0.61312367  1
  La  La12  1  0.05248444  0.80146538  0.61652023  1
  La  La13  1  0.55217700  0.29870273  0.11400856  1
  La  La14  1  0.55773764  0.30229285  0.61160606  1
  La  La15  1  0.54772777  0.80269015  0.11714873  1
  La  La16  1  0.56023286  0.79907831  0.61478905  1
  La  La17  1  0.43585822  0.19078379  0.37854622  1
  La  La18  1  0.44108516  0.20190158  0.88682927  1
  La  La19  1  0.43099077  0.69599951  0.38051218  1
  La  La20  1  0.43889895  0.69813196  0.88603095  1
  La  La21  1  0.94029743  0.19845510  0.38256986  1
  La  La22  1  0.93633910  0.19417595  0.88480485  1
  La  La23  1  0.94536591  0.69669708  0.38274025  1
  Sm  Sm0  1  0.29955563  0.05952024  0.11535290  1
  Sm  Sm1  1  0.29762015  0.56391342  0.11533042  1
  Sm  Sm2  1  0.80100352  0.06488398  0.11007854  1
  Sm  Sm3  1  0.80352087  0.56792923  0.11353737  1
  Sm  Sm4  1  0.19151280  0.93810541  0.88941770  1
  Sm  Sm5  1  0.69008375  0.43386595  0.89039716  1
  Sm  Sm6  1  0.05456141  0.80364767  0.11644104  1
  Sm  Sm7  1  0.93769119  0.70194243  0.88823964  1
  Cr  Cr0  1  0.00507930  -0.00013864  0.00222359  1
  Cr  Cr1  1  0.00226090  0.99852138  0.49846012  1
  Cr  Cr2  1  0.00054431  0.50068775  0.99663738  1
  Cr  Cr3  1  0.00136271  0.49920970  0.49979235  1
  Cr  Cr4  1  0.50013394  0.00043770  0.00066314  1
  Cr  Cr5  1  0.50379494  0.00195236  0.50287462  1
  Cr  Cr6  1  0.50123909  0.50230529  0.00220467  1
  Cr  Cr7  1  0.50017002  0.49882054  0.49898591  1
  Cr  Cr8  1  0.24939409  0.24994111  0.00071754  1
  Cr  Cr9  1  0.25418224  0.25131370  0.50135531  1
  Cr  Cr10  1  0.24743352  0.74996438  0.99963150  1
  Cr  Cr11  1  0.25357693  0.75185633  0.50172483  1
  Cr  Cr12  1  0.75336106  0.25204938  0.00140934  1
  Cr  Cr13  1  0.75082142  0.25043177  0.49983823  1
  Cr  Cr14  1  0.75325024  0.74976243  0.00157063  1
  Cr  Cr15  1  0.75006590  0.74873033  0.49737683  1
  Cr  Cr16  1  0.11956420  0.12123967  0.24878779  1
  Cr  Cr17  1  0.11600695  0.62009195  0.24060378  1
  Cr  Cr18  1  0.37225000  0.87721542  0.25385370  1
  Cr  Cr19  1  0.87869696  0.87819247  0.75610636  1
  Fe  Fe0  1  0.11555037  0.10416517  0.75237176  1
  Fe  Fe1  1  0.11191094  0.60646502  0.75308102  1
  Fe  Fe2  1  0.61762711  0.10310761  0.24730377  1
  Fe  Fe3  1  0.60746316  0.10573200  0.74671858  1
  Fe  Fe4  1  0.61555085  0.60436391  0.24791629  1
  Fe  Fe5  1  0.61545184  0.60147881  0.75341092  1
  Fe  Fe6  1  0.36352869  0.38986075  0.24693051  1
  Fe  Fe7  1  0.36297181  0.39370785  0.74644282  1
  Fe  Fe8  1  0.36578296  0.89865661  0.75209848  1
  Fe  Fe9  1  0.85745252  0.39382031  0.24713413  1
  Fe  Fe10  1  0.86077864  0.39747520  0.75760796  1
  Fe  Fe11  1  0.86255354  0.90037424  0.24527827  1
  O  O0  1  0.11805683  0.12122486  0.48134938  1
  O  O1  1  0.11304443  0.10987972  0.97418701  1
  O  O2  1  0.11613190  0.61566439  0.47935880  1
  O  O3  1  0.10571062  0.61298817  0.96879269  1
  O  O4  1  0.61136378  0.11777262  0.47946459  1
  O  O5  1  0.61515670  0.11810021  0.97886106  1
  O  O6  1  0.61008052  0.61649053  0.47512853  1
  O  O7  1  0.61525182  0.61197935  0.97426757  1
  O  O8  1  0.13330994  0.38609514  0.02168360  1
  O  O9  1  0.13780598  0.38054873  0.52171023  1
  O  O10  1  0.13414455  0.88444545  0.02676692  1
  O  O11  1  0.13798226  0.88489005  0.52704314  1
  O  O12  1  0.63559901  0.38395765  0.02078812  1
  O  O13  1  0.63801889  0.38576256  0.52476097  1
  O  O14  1  0.63710842  0.88313263  0.02632139  1
  O  O15  1  0.63765298  0.88976068  0.52254418  1
  O  O16  1  0.36831886  0.11613670  0.48452060  1
  O  O17  1  0.35906253  0.10716322  0.97248372  1
  O  O18  1  0.36309066  0.61004615  0.47666207  1
  O  O19  1  0.36172294  0.61054703  0.97528015  1
  O  O20  1  0.86454691  0.11158364  0.47949291  1
  O  O21  1  0.86721888  0.10965722  0.98058648  1
  O  O22  1  0.86336703  0.60848788  0.47329351  1
  O  O23  1  0.86194998  0.60601053  0.97040987  1
  O  O24  1  0.38346309  0.39671203  0.02775274  1
  O  O25  1  0.38738817  0.38714329  0.52434856  1
  O  O26  1  0.37953262  0.89687125  0.02511788  1
  O  O27  1  0.39188135  0.89310471  0.52625736  1
  O  O28  1  0.88294940  0.39794310  0.02167074  1
  O  O29  1  0.88642396  0.39034562  0.52403938  1
  O  O30  1  0.89107842  0.89402954  0.02809072  1
  O  O31  1  0.88616811  0.88829571  0.52095361  1
  O  O32  1  0.09004927  0.10601435  0.12571224  1
  O  O33  1  0.09561109  0.11798388  0.64389205  1
  O  O34  1  0.08423127  0.60505179  0.11798362  1
  O  O35  1  0.10018292  0.61832523  0.64464096  1
  O  O36  1  0.61269024  0.11899469  0.14200435  1
  O  O37  1  0.58177389  0.10629059  0.63117201  1
  O  O38  1  0.61382741  0.62219756  0.14304021  1
  O  O39  1  0.60159797  0.61510296  0.64522601  1
  O  O40  1  0.45273732  0.37594859  0.35620502  1
  O  O41  1  0.46316563  0.38124590  0.85315923  1
  O  O42  1  0.44643367  0.90114054  0.37944976  1
  O  O43  1  0.46229717  0.87937754  0.85784762  1
  O  O44  1  0.95668684  0.38129285  0.35483926  1
  O  O45  1  0.95064765  0.39228649  0.87129937  1
  O  O46  1  0.95581286  0.87966058  0.35532343  1
  O  O47  1  0.96018897  0.89607849  0.87955323  1
  O  O48  1  0.35287997  0.26379481  0.14038656  1
  O  O49  1  0.32878388  0.27985695  0.62949131  1
  O  O50  1  0.34270613  0.76451252  0.13521159  1
  O  O51  1  0.35003411  0.77694136  0.64375029  1
  O  O52  1  0.85508360  0.27290465  0.14150964  1
  O  O53  1  0.84440867  0.27904884  0.64797539  1
  O  O54  1  0.86682916  0.76853329  0.14231891  1
  O  O55  1  0.83845012  0.77379220  0.63483903  1
  O  O56  1  0.20302656  0.22440797  0.37601285  1
  O  O57  1  0.21236406  0.22990136  0.85868415  1
  O  O58  1  0.20208841  0.72509495  0.36257830  1
  O  O59  1  0.20803594  0.73164238  0.85881571  1
  O  O60  1  0.70609904  0.22297481  0.35807860  1
  O  O61  1  0.70858252  0.22319323  0.85481760  1
  O  O62  1  0.69689817  0.72608238  0.35790096  1
  O  O63  1  0.71963040  0.72528729  0.85769438  1
  O  O64  1  0.42588411  0.06716023  0.24397765  1
  O  O65  1  0.41761399  0.07486276  0.74893663  1
  O  O66  1  0.42268202  0.55990906  0.24242163  1
  O  O67  1  0.42386776  0.56782996  0.74900967  1
  O  O68  1  0.90122756  0.07175102  0.24320109  1
  O  O69  1  0.92427774  0.07521517  0.75025925  1
  O  O70  1  0.90185716  0.56866016  0.24411925  1
  O  O71  1  0.92586869  0.56863013  0.75857625  1
  O  O72  1  0.17846276  0.43106544  0.25032076  1
  O  O73  1  0.17318053  0.43115416  0.74988888  1
  O  O74  1  0.15956815  0.92896956  0.24589102  1
  O  O75  1  0.17738537  0.93440259  0.75789371  1
  O  O76  1  0.66923381  0.42884444  0.25048033  1
  O  O77  1  0.66796745  0.42522676  0.75562161  1
  O  O78  1  0.67797508  0.93023544  0.25165539  1
  O  O79  1  0.65721091  0.93239889  0.74991085  1
loop_
_geom_bond_atom_site_label_1
_geom_bond_atom_site_label_2
_geom_bond_distance
_geom_bond_site_symmetry_2
La0 O65 2.378951 1_555
La0 O49 2.430254 1_555
La0 O11 2.458636 1_545
La0 O27 2.492637 1_545
La0 O33 2.559628 1_555
La0 O0 2.842486 1_555
La0 O16 2.846806 1_555
La0 O37 3.057068 1_555
La1 O51 2.330925 1_555
La1 O67 2.386425 1_555
La1 O35 2.516005 1_555
La1 O25 2.557849 1_555
La1 O9 2.558234 1_555
La1 O2 2.868573 1_555
La1 O18 2.931061 1_555
La2 O69 2.331859 1_555
La2 O53 2.380057 1_555
La2 O31 2.505857 1_545
La2 O15 2.506252 1_545
La2 O37 2.679948 1_555
La2 O20 2.900176 1_555
La2 O4 2.978943 1_555
La2 O33 3.081698 1_655
La3 O55 2.326287 1_555
La3 O71 2.439892 1_555
La3 O39 2.487833 1_555
La3 O13 2.548139 1_555
La3 O29 2.568762 1_555
La3 O6 3.040863 1_555
La4 O72 2.340712 1_555
La4 O56 2.420790 1_555
La4 O44 2.492599 1_455
La4 O2 2.539542 1_555
La4 O18 2.540133 1_555
La4 O9 2.976021 1_555
La5 O57 2.320850 1_555
La5 O73 2.392832 1_555
La5 O19 2.469965 1_555
La5 O3 2.471489 1_555
La5 O45 2.649697 1_455
La5 O24 2.926152 1_556
La5 O8 2.928766 1_556
La6 O74 2.297062 1_555
La6 O58 2.331024 1_555
La6 O46 2.513837 1_455
La6 O0 2.654075 1_565
La6 O16 2.683380 1_565
La6 O42 2.903454 1_555
La6 O27 3.080268 1_555
La6 O11 3.101048 1_555
La7 O60 2.370863 1_555
La7 O76 2.377008 1_555
La7 O22 2.491870 1_555
La7 O6 2.518120 1_555
La7 O40 2.565489 1_555
La7 O29 2.934700 1_555
La7 O13 2.935457 1_555
La8 O62 2.303383 1_555
La8 O78 2.364281 1_555
La8 O20 2.539798 1_565
La8 O4 2.590847 1_565
La8 O42 2.714006 1_555
La8 O15 2.898033 1_555
La8 O31 2.901931 1_555
La8 O46 3.183336 1_555
La9 O79 2.326790 1_555
La9 O63 2.350590 1_555
La9 O43 2.478502 1_555
La9 O21 2.558744 1_565
La9 O5 2.577476 1_565
La9 O14 3.026808 1_556
La10 O72 2.333013 1_555
La10 O32 2.369125 1_555
La10 O52 2.419710 1_455
La10 O8 2.587349 1_555
La10 O28 2.628905 1_455
La10 O21 2.946808 1_454
La11 O33 2.342138 1_555
La11 O73 2.389837 1_555
La11 O29 2.518019 1_455
La11 O9 2.543217 1_555
La11 O53 2.607896 1_455
La11 O0 2.882514 1_555
La11 O20 2.889935 1_455
La11 O49 3.008127 1_555
La12 O35 2.351760 1_555
La12 O75 2.458284 1_555
La12 O11 2.526679 1_555
La12 O55 2.536252 1_455
La12 O31 2.552517 1_455
La12 O2 2.978742 1_555
La13 O36 2.339616 1_555
La13 O76 2.370069 1_555
La13 O48 2.465548 1_555
La13 O24 2.555225 1_555
La13 O12 2.585391 1_555
La13 O5 2.923687 1_554
La14 O37 2.402334 1_555
La14 O77 2.426589 1_555
La14 O13 2.452371 1_555
La14 O25 2.480694 1_555
La14 O49 2.686470 1_555
La14 O16 2.849350 1_555
La14 O4 2.858123 1_555
La14 O53 3.077919 1_555
La15 O38 2.347743 1_555
La15 O78 2.376402 1_555
La15 O50 2.460144 1_555
La15 O14 2.553246 1_555
La15 O26 2.580023 1_555
La16 O79 2.324345 1_555
La16 O39 2.369928 1_555
La16 O27 2.545567 1_555
La16 O15 2.571040 1_555
La16 O51 2.577992 1_555
La16 O6 2.919481 1_555
La16 O18 2.976327 1_555
La16 O55 3.026088 1_555
La17 O40 2.317120 1_555
La17 O64 2.350105 1_555
La17 O4 2.568843 1_555
La17 O56 2.606229 1_555
La17 O16 2.627400 1_555
La17 O13 3.089405 1_555
La18 O41 2.370226 1_555
La18 O65 2.373211 1_555
La18 O57 2.476145 1_555
La18 O17 2.524486 1_555
La18 O5 2.542344 1_555
La18 O12 2.897544 1_556
La18 O24 3.039538 1_556
La19 O42 2.381247 1_555
La19 O66 2.448913 1_555
La19 O58 2.500510 1_555
La19 O18 2.544871 1_555
La19 O6 2.569995 1_555
La19 O15 3.078353 1_555
La19 O62 3.141751 1_555
La20 O43 2.339111 1_555
La20 O67 2.393286 1_555
La20 O19 2.500094 1_555
La20 O59 2.513415 1_555
La20 O7 2.536961 1_555
La20 O14 2.975586 1_556
La20 O26 3.048777 1_556
La21 O44 2.339925 1_555
La21 O68 2.362174 1_555
La21 O60 2.533868 1_555
La21 O0 2.587914 1_655
La21 O20 2.609167 1_555
La21 O9 2.949018 1_655
La21 O56 2.979333 1_655
La21 O29 3.010914 1_555
La22 O69 2.329261 1_555
La22 O45 2.387210 1_555
La22 O61 2.466039 1_555
La22 O21 2.535804 1_555
La22 O1 2.537172 1_655
La22 O8 2.982911 1_656
La22 O28 3.021782 1_556
La23 O46 2.329754 1_555
La23 O70 2.349017 1_555
La23 O2 2.549183 1_655
La23 O22 2.554612 1_555
La23 O62 2.697291 1_555
La23 O11 2.992160 1_655
La23 O31 2.998141 1_555
La23 O58 3.018464 1_655
Cr0 O10 2.003439 1_545
Cr0 O30 2.013162 1_445
Cr0 O21 2.013341 1_454
Cr0 O1 2.025294 1_554
Cr0 O47 2.042153 1_444
Cr0 O32 2.067163 1_555
Cr1 O31 2.027133 1_455
Cr1 O20 2.031167 1_465
Cr1 O11 2.052719 1_555
Cr1 O0 2.071130 1_565
Cr1 O46 2.383869 1_455
Cr1 O33 2.411478 1_565
Cr2 O23 1.998046 1_455
Cr2 O28 2.008311 1_456
Cr2 O3 2.021282 1_555
Cr2 O8 2.025275 1_556
Cr2 O34 2.031710 1_556
Cr2 O45 2.089564 1_455
Cr3 O22 2.025988 1_455
Cr3 O29 2.026451 1_455
Cr3 O2 2.045595 1_555
Cr3 O9 2.075701 1_555
Cr3 O35 2.409009 1_555
Cr3 O44 2.411156 1_455
Cr4 O26 2.032389 1_545
Cr4 O17 2.035263 1_554
Cr4 O5 2.072030 1_554
Cr4 O14 2.081120 1_545
Cr4 O36 2.384716 1_555
Cr4 O43 2.398302 1_544
Cr5 O27 1.993466 1_545
Cr5 O15 1.996154 1_545
Cr5 O4 2.018717 1_555
Cr5 O16 2.021323 1_555
Cr5 O42 2.037095 1_545
Cr5 O37 2.120769 1_555
Cr6 O19 2.030808 1_554
Cr6 O24 2.037435 1_555
Cr6 O12 2.047646 1_555
Cr6 O7 2.067109 1_554
Cr6 O38 2.381868 1_555
Cr6 O41 2.491736 1_554
Cr7 O18 2.020804 1_555
Cr7 O25 2.044861 1_555
Cr7 O13 2.052975 1_555
Cr7 O6 2.056329 1_555
Cr7 O40 2.388285 1_555
Cr7 O39 2.424657 1_555
Cr8 O1 2.047778 1_554
Cr8 O8 2.049101 1_555
Cr8 O17 2.075287 1_554
Cr8 O24 2.085128 1_555
Cr8 O48 2.369185 1_555
Cr8 O57 2.393172 1_554
Cr9 O9 1.994064 1_555
Cr9 O0 1.997266 1_555
Cr9 O25 2.006194 1_555
Cr9 O16 2.017713 1_555
Cr9 O56 2.064629 1_555
Cr9 O49 2.106692 1_555
Cr10 O10 2.031944 1_556
Cr10 O3 2.045054 1_555
Cr10 O19 2.070842 1_555
Cr10 O26 2.079435 1_556
Cr10 O50 2.288131 1_556
Cr10 O59 2.372535 1_555
Cr11 O11 2.032439 1_555
Cr11 O2 2.044400 1_555
Cr11 O18 2.056995 1_555
Cr11 O27 2.081554 1_555
Cr11 O58 2.304102 1_555
Cr11 O51 2.364045 1_555
Cr12 O12 2.023853 1_555
Cr12 O5 2.031139 1_554
Cr12 O28 2.079397 1_555
Cr12 O21 2.083860 1_554
Cr12 O52 2.352182 1_555
Cr12 O61 2.437503 1_554
Cr13 O13 2.027975 1_555
Cr13 O4 2.041899 1_555
Cr13 O29 2.051965 1_555
Cr13 O20 2.052130 1_555
Cr13 O60 2.356212 1_555
Cr13 O53 2.451616 1_555
Cr14 O14 2.037578 1_555
Cr14 O7 2.038014 1_554
Cr14 O23 2.085760 1_554
Cr14 O30 2.093635 1_555
Cr14 O54 2.391126 1_555
Cr14 O63 2.420088 1_554
Cr15 O6 2.032855 1_555
Cr15 O31 2.055871 1_555
Cr15 O22 2.069464 1_555
Cr15 O15 2.072253 1_555
Cr15 O55 2.280264 1_555
Cr15 O62 2.318988 1_555
Cr16 O32 2.084789 1_555
Cr16 O56 2.108151 1_555
Cr16 O74 2.250964 1_545
Cr16 O68 2.458084 1_455
Cr17 O58 2.045309 1_555
Cr17 O34 2.073044 1_555
Cr17 O72 2.333422 1_555
Cr17 O70 2.479072 1_455
Cr18 O50 2.033478 1_555
Cr18 O42 2.075297 1_555
Cr18 O64 2.348322 1_565
Cr18 O74 2.411055 1_555
Cr19 O55 2.028599 1_555
Cr19 O47 2.062641 1_555
Cr19 O69 2.372824 1_565
Cr19 O79 2.518350 1_555
Fe0 O33 1.955002 1_555
Fe0 O57 1.963456 1_555
Fe0 O75 2.099042 1_545
Fe0 O69 2.139711 1_455
Fe1 O59 1.952956 1_555
Fe1 O35 1.965461 1_555
Fe1 O73 2.124181 1_555
Fe1 O71 2.153134 1_455
Fe2 O36 1.947292 1_555
Fe2 O60 1.964509 1_555
Fe2 O78 2.122918 1_545
Fe2 O64 2.150913 1_555
Fe3 O61 1.956197 1_555
Fe3 O37 2.012362 1_555
Fe3 O79 2.089820 1_545
Fe3 O65 2.155714 1_555
Fe4 O62 1.950531 1_555
Fe4 O38 1.959079 1_555
Fe4 O76 2.122939 1_555
Fe4 O66 2.169817 1_555
Fe5 O63 1.955870 1_555
Fe5 O39 1.963337 1_555
Fe5 O77 2.126016 1_555
Fe5 O67 2.137936 1_555
Fe6 O40 1.967143 1_555
Fe6 O48 1.967341 1_555
Fe6 O66 2.104825 1_555
Fe6 O72 2.126838 1_555
Fe7 O41 1.949177 1_555
Fe7 O49 2.005790 1_555
Fe7 O67 2.103104 1_555
Fe7 O73 2.169784 1_555
Fe8 O43 1.956442 1_555
Fe8 O51 1.957181 1_555
Fe8 O65 2.137667 1_565
Fe8 O75 2.162736 1_555
Fe9 O52 1.955266 1_555
Fe9 O44 1.961565 1_555
Fe9 O70 2.099797 1_555
Fe9 O76 2.146966 1_555
Fe10 O53 1.958297 1_555
Fe10 O45 1.999546 1_555
Fe10 O71 2.097475 1_555
Fe10 O77 2.158581 1_555
Fe11 O54 1.997703 1_555
Fe11 O46 2.021093 1_555
Fe11 O68 2.039411 1_565
Fe11 O78 2.113087 1_555
O1 Sm4 2.428970 1_545
O3 Sm7 2.433204 1_455
O5 Sm2 2.850381 1_556
O7 Sm5 2.445401 1_555
O8 Sm1 2.499078 1_555
O10 Sm0 2.471238 1_565
O10 Sm6 2.474633 1_555
O12 Sm3 2.560822 1_555
O12 Sm5 2.823496 1_554
O14 Sm2 2.499380 1_565
O17 Sm4 2.429027 1_545
O21 Sm2 2.845146 1_556
O23 Sm7 2.441309 1_555
O23 Sm5 2.473291 1_555
O24 Sm1 2.469227 1_555
O26 Sm0 2.426510 1_565
O26 Sm4 2.852306 1_554
O28 Sm3 2.486509 1_555
O28 Sm5 2.798665 1_554
O30 Sm2 2.472825 1_565
O30 Sm6 2.488429 1_655
O32 Sm0 2.440309 1_555
O34 Sm6 2.324049 1_555
O34 Sm1 2.431652 1_555
O36 Sm2 2.371232 1_555
O38 Sm3 2.367775 1_555
O41 Sm5 2.422609 1_555
O45 Sm5 3.042428 1_555
O47 Sm7 2.315446 1_555
O47 Sm4 2.558025 1_655
O48 Sm0 2.294540 1_555
O50 Sm1 2.257614 1_555
O52 Sm2 2.315463 1_555
O54 Sm3 2.264303 1_555
O54 Sm6 2.338279 1_655
O59 Sm4 2.287839 1_555
O61 Sm5 2.333386 1_555
O63 Sm7 2.349136 1_555
O64 Sm0 2.277514 1_555
O66 Sm1 2.293271 1_555
O68 Sm2 2.282108 1_555
O70 Sm3 2.260636 1_555
O71 Sm7 2.308356 1_555
O74 Sm6 2.240535 1_555
O75 Sm4 2.310667 1_555
O77 Sm5 2.330878 1_555
