# generated using pymatgen
data_CaMg14C
_symmetry_space_group_name_H-M   'P 1'
_cell_length_a   6.42100773
_cell_length_b   6.42100720
_cell_length_c   10.03864201
_cell_angle_alpha   90.00000000
_cell_angle_beta   90.00000000
_cell_angle_gamma   120.00000277
_symmetry_Int_Tables_number   1
_chemical_formula_structural   CaMg14C
_chemical_formula_sum   'Ca1 Mg14 C1'
_cell_volume   358.43625940
_cell_formula_units_Z   1
loop_
 _symmetry_equiv_pos_site_id
 _symmetry_equiv_pos_as_xyz
  1  'x, y, z'
loop_
 _atom_site_type_symbol
 _atom_site_label
 _atom_site_symmetry_multiplicity
 _atom_site_fract_x
 _atom_site_fract_y
 _atom_site_fract_z
 _atom_site_occupancy
  Ca  Ca0  1  0.16666700  0.33333300  0.12500000  1
  Mg  Mg0  1  0.18145986  0.84072943  0.12500000  1
  Mg  Mg1  1  0.15183411  0.82591656  0.62500000  1
  Mg  Mg2  1  0.65927057  0.31854014  0.12500000  1
  Mg  Mg3  1  0.67408344  0.34816589  0.62500000  1
  Mg  Mg4  1  0.65927057  0.84072943  0.12500000  1
  Mg  Mg5  1  0.67408344  0.82591656  0.62500000  1
  Mg  Mg6  1  0.32491064  0.17508936  0.40395193  1
  Mg  Mg7  1  0.32491064  0.17508936  0.84604807  1
  Mg  Mg8  1  0.32491064  0.64982228  0.40395193  1
  Mg  Mg9  1  0.32491064  0.64982228  0.84604807  1
  Mg  Mg10  1  0.85017772  0.17508936  0.40395193  1
  Mg  Mg11  1  0.85017772  0.17508936  0.84604807  1
  Mg  Mg12  1  0.83333300  0.66666700  0.36419064  1
  Mg  Mg13  1  0.83333300  0.66666700  0.88580936  1
  C  C0  1  0.16666700  0.33333300  0.62500000  1
loop_
_geom_bond_atom_site_label_1
_geom_bond_atom_site_label_2
_geom_bond_distance
_geom_bond_site_symmetry_2
Ca0 Mg4 3.211557 1_555
Ca0 Mg0 3.211557 1_555
Ca0 Mg4 3.211557 1_445
Ca0 Mg0 3.211557 1_545
Ca0 Mg2 3.211558 1_455
Ca0 Mg2 3.211558 1_555
Ca0 Mg7 3.307408 1_554
Ca0 Mg6 3.307408 1_555
Ca0 Mg9 3.307414 1_554
Ca0 Mg8 3.307414 1_555
Ca0 Mg11 3.307414 1_454
Ca0 Mg10 3.307414 1_455
Mg0 Mg2 3.068026 1_565
Mg0 Mg4 3.068026 1_555
Mg0 Mg12 3.084319 1_455
Mg0 Mg13 3.084319 1_454
Mg0 Mg2 3.352981 1_455
Mg0 Mg4 3.352981 1_455
Mg0 Mg9 3.364791 1_554
Mg0 Mg8 3.364791 1_555
Mg0 Mg7 3.364797 1_564
Mg0 Mg6 3.364797 1_565
Mg1 Mg8 2.948588 1_555
Mg1 Mg9 2.948588 1_555
Mg1 Mg6 2.948596 1_565
Mg1 Mg7 2.948596 1_565
Mg1 Mg3 3.067640 1_455
Mg1 Mg5 3.067641 1_455
Mg1 Mg12 3.160956 1_455
Mg1 Mg13 3.160956 1_455
Mg1 Mg3 3.353367 1_565
Mg1 Mg5 3.353367 1_555
Mg2 Mg4 3.068026 1_545
Mg2 Mg4 3.352981 1_555
Mg2 Mg7 3.364797 1_554
Mg2 Mg6 3.364797 1_555
Mg3 Mg6 2.948596 1_555
Mg3 Mg7 2.948596 1_555
Mg3 Mg5 3.067640 1_555
Mg3 Mg5 3.353367 1_545
Mg4 Mg9 3.364797 1_554
Mg4 Mg8 3.364797 1_555
Mg5 Mg8 2.948596 1_555
Mg5 Mg9 2.948596 1_555
Mg10 Mg3 2.948588 1_555
Mg10 Mg5 2.948595 1_545
Mg10 Mg12 3.236577 1_545
Mg10 Mg12 3.236577 1_555
Mg10 Mg2 3.364791 1_555
Mg10 Mg4 3.364797 1_545
Mg11 Mg3 2.948588 1_555
Mg11 Mg5 2.948595 1_545
Mg11 Mg13 3.236577 1_545
Mg11 Mg13 3.236577 1_555
Mg11 Mg2 3.364791 1_556
Mg11 Mg4 3.364797 1_546
Mg12 Mg4 3.084312 1_555
Mg12 Mg2 3.084319 1_555
Mg12 Mg5 3.160950 1_555
Mg12 Mg3 3.160956 1_555
Mg12 Mg6 3.236577 1_665
Mg12 Mg6 3.236577 1_555
Mg12 Mg8 3.236577 1_555
Mg12 Mg8 3.236577 1_655
Mg13 Mg4 3.084312 1_556
Mg13 Mg2 3.084319 1_556
Mg13 Mg5 3.160950 1_555
Mg13 Mg3 3.160956 1_555
Mg13 Mg7 3.236577 1_665
Mg13 Mg7 3.236577 1_555
Mg13 Mg9 3.236577 1_555
Mg13 Mg9 3.236577 1_655
C0 Mg6 2.832197 1_555
C0 Mg7 2.832197 1_555
C0 Mg8 2.832204 1_555
C0 Mg9 2.832204 1_555
C0 Mg10 2.832204 1_455
C0 Mg11 2.832204 1_455
