# generated using pymatgen
data_NaLi3V4O12
_symmetry_space_group_name_H-M   'P 1'
_cell_length_a   6.84307872
_cell_length_b   6.84307872
_cell_length_c   5.92263809
_cell_angle_alpha   75.01420117
_cell_angle_beta   75.01420117
_cell_angle_gamma   82.15137507
_symmetry_Int_Tables_number   1
_chemical_formula_structural   NaLi3V4O12
_chemical_formula_sum   'Na1 Li3 V4 O12'
_cell_volume   258.07671380
_cell_formula_units_Z   1
loop_
 _symmetry_equiv_pos_site_id
 _symmetry_equiv_pos_as_xyz
  1  'x, y, z'
loop_
 _atom_site_type_symbol
 _atom_site_label
 _atom_site_symmetry_multiplicity
 _atom_site_fract_x
 _atom_site_fract_y
 _atom_site_fract_z
 _atom_site_occupancy
  Na  Na0  1  0.71260800  0.28739200  0.00000000  1
  Li  Li0  1  0.91660200  0.08339800  0.50000000  1
  Li  Li1  1  0.08640300  0.91359700  0.00000000  1
  Li  Li2  1  0.27254000  0.72746000  0.50000000  1
  V  V0  1  0.80681000  0.61965300  0.50112800  1
  V  V1  1  0.38034700  0.19319000  0.49887200  1
  V  V2  1  0.19661000  0.38301500  0.99565500  1
  V  V3  1  0.61698500  0.80339000  0.00434500  1
  O  O0  1  0.90796600  0.38049800  0.54457100  1
  O  O1  1  0.61950200  0.09203400  0.45542900  1
  O  O2  1  0.08801200  0.61976800  0.95570300  1
  O  O3  1  0.38023200  0.91198800  0.04429700  1
  O  O4  1  0.63167500  0.65450700  0.30376200  1
  O  O5  1  0.34549300  0.36832500  0.69623800  1
  O  O6  1  0.36203000  0.34733900  0.20324300  1
  O  O7  1  0.65266100  0.63797000  0.79675700  1
  O  O8  1  0.99471100  0.78111400  0.40734400  1
  O  O9  1  0.21888600  0.00528900  0.59265600  1
  O  O10  1  0.02062500  0.21069700  0.09911600  1
  O  O11  1  0.78930300  0.97937500  0.90088400  1
loop_
_geom_bond_atom_site_label_1
_geom_bond_atom_site_label_2
_geom_bond_distance
_geom_bond_site_symmetry_2
Na0 O10 2.289376 1_655
Na0 O11 2.289376 1_544
Na0 O6 2.421933 1_555
Na0 O7 2.421933 1_554
Na0 O1 2.635861 1_555
Na0 O0 2.635861 1_554
Li0 O1 2.107903 1_555
Li0 O0 2.107903 1_555
Li0 O9 2.235878 1_655
Li0 O8 2.235878 1_545
Li0 O10 2.264615 1_655
Li0 O11 2.264615 1_545
Li1 O3 2.092156 1_555
Li1 O2 2.092156 1_554
Li1 O10 2.216134 1_565
Li1 O11 2.216134 1_454
Li1 O8 2.297255 1_455
Li1 O9 2.297255 1_564
Li2 O8 2.072499 1_455
Li2 O9 2.072499 1_565
Li2 O4 2.475399 1_555
Li2 O5 2.475399 1_555
Li2 O2 2.623930 1_555
Li2 O3 2.623930 1_555
O0 V0 1.669920 1_555
O1 V1 1.669920 1_555
O2 V2 1.672394 1_555
O3 V3 1.672394 1_555
O4 V3 1.822824 1_555
O4 V0 1.833531 1_555
O5 V2 1.822824 1_555
O5 V1 1.833531 1_555
O6 V1 1.821075 1_555
O6 V2 1.828011 1_554
O7 V0 1.821075 1_555
O7 V3 1.828011 1_556
O8 V0 1.698207 1_555
O9 V1 1.698207 1_555
O10 V2 1.687831 1_554
O11 V3 1.687831 1_556
