# generated using pymatgen
data_Ti2ZnO4
_symmetry_space_group_name_H-M   'P 1'
_cell_length_a   5.99637203
_cell_length_b   5.99637203
_cell_length_c   5.99637203
_cell_angle_alpha   120.25871609
_cell_angle_beta   118.31188909
_cell_angle_gamma   91.25050616
_symmetry_Int_Tables_number   1
_chemical_formula_structural   Ti2ZnO4
_chemical_formula_sum   'Ti4 Zn2 O8'
_cell_volume   154.01128235
_cell_formula_units_Z   2
loop_
 _symmetry_equiv_pos_site_id
 _symmetry_equiv_pos_as_xyz
  1  'x, y, z'
loop_
 _atom_site_type_symbol
 _atom_site_label
 _atom_site_symmetry_multiplicity
 _atom_site_fract_x
 _atom_site_fract_y
 _atom_site_fract_z
 _atom_site_occupancy
  Ti  Ti0  1  0.00000000  0.50000000  0.50000000  1
  Ti  Ti1  1  0.00000000  0.00000000  0.50000000  1
  Ti  Ti2  1  0.50000000  0.50000000  0.00000000  1
  Ti  Ti3  1  0.00000000  0.50000000  0.00000000  1
  Zn  Zn0  1  0.50000000  0.00000000  0.00000000  1
  Zn  Zn1  1  0.50000000  0.50000000  0.50000000  1
  O  O0  1  0.75378600  0.28273000  0.02894500  1
  O  O1  1  0.23887900  0.74295000  0.49593000  1
  O  O2  1  0.75378600  0.72484100  0.47105500  1
  O  O3  1  0.25298000  0.25705000  0.99593000  1
  O  O4  1  0.24621400  0.27515900  0.52894500  1
  O  O5  1  0.76112100  0.25705000  0.50407000  1
  O  O6  1  0.74702000  0.74295000  0.00407000  1
  O  O7  1  0.24621400  0.71727000  0.97105500  1
loop_
_geom_bond_atom_site_label_1
_geom_bond_atom_site_label_2
_geom_bond_distance
_geom_bond_site_symmetry_2
O0 Ti0 2.026630 1_655
O0 Ti2 2.026634 1_555
O0 Ti3 2.072251 1_655
O0 Zn0 2.135535 1_555
O1 Ti0 2.037797 1_555
O1 Ti1 2.125986 1_565
O1 Ti3 2.125990 1_555
O1 Zn0 2.161876 1_566
O1 Zn1 2.161880 1_555
O2 Ti2 2.026630 1_555
O2 Ti0 2.026630 1_655
O2 Ti1 2.072247 1_665
O2 Zn1 2.135540 1_555
O3 Ti2 2.037801 1_556
O3 Ti1 2.125990 1_555
O3 Ti3 2.125990 1_556
O3 Zn0 2.161876 1_556
O3 Zn1 2.161876 1_556
O4 Ti2 2.026630 1_556
O4 Ti0 2.026630 1_555
O4 Ti1 2.072247 1_555
O4 Zn1 2.135540 1_555
O5 Ti0 2.037797 1_655
O5 Ti1 2.125986 1_655
O5 Ti3 2.125990 1_656
O5 Zn0 2.161876 1_555
O5 Zn1 2.161880 1_555
O6 Ti2 2.037801 1_555
O6 Ti1 2.125990 1_665
O6 Ti3 2.125990 1_655
O6 Zn1 2.161876 1_554
O6 Zn0 2.161876 1_565
O7 Ti0 2.026630 1_555
O7 Ti2 2.026634 1_556
O7 Ti3 2.072251 1_556
O7 Zn0 2.135535 1_566
