# generated using pymatgen
data_K2UMo2HO10
_symmetry_space_group_name_H-M   'P 1'
_cell_length_a   7.93518865
_cell_length_b   11.09767100
_cell_length_c   13.69968254
_cell_angle_alpha   90.00000000
_cell_angle_beta   99.88773705
_cell_angle_gamma   90.00000000
_symmetry_Int_Tables_number   1
_chemical_formula_structural   K2UMo2HO10
_chemical_formula_sum   'K8 U4 Mo8 H4 O40'
_cell_volume   1188.50290586
_cell_formula_units_Z   4
loop_
 _symmetry_equiv_pos_site_id
 _symmetry_equiv_pos_as_xyz
  1  'x, y, z'
loop_
 _atom_site_type_symbol
 _atom_site_label
 _atom_site_symmetry_multiplicity
 _atom_site_fract_x
 _atom_site_fract_y
 _atom_site_fract_z
 _atom_site_occupancy
  K  K0  1  0.57016800  0.17226800  0.41040200  1
  K  K1  1  0.42983200  0.82773200  0.58959800  1
  K  K2  1  0.42983200  0.67226800  0.08959800  1
  K  K3  1  0.57016800  0.32773200  0.91040200  1
  K  K4  1  0.25309800  0.07025000  0.12541000  1
  K  K5  1  0.74690200  0.92975000  0.87459000  1
  K  K6  1  0.74690200  0.57025000  0.37459000  1
  K  K7  1  0.25309800  0.42975000  0.62541000  1
  U  U0  1  0.03090400  0.24217500  0.35400700  1
  U  U1  1  0.96909600  0.75782500  0.64599300  1
  U  U2  1  0.96909600  0.74217500  0.14599300  1
  U  U3  1  0.03090400  0.25782500  0.85400700  1
  Mo  Mo0  1  0.98799900  0.39892300  0.09174100  1
  Mo  Mo1  1  0.01200100  0.60107700  0.90825900  1
  Mo  Mo2  1  0.01200100  0.89892300  0.40825900  1
  Mo  Mo3  1  0.98799900  0.10107700  0.59174100  1
  Mo  Mo4  1  0.26569900  0.54598300  0.35823700  1
  Mo  Mo5  1  0.73430100  0.45401700  0.64176300  1
  Mo  Mo6  1  0.73430100  0.04598300  0.14176300  1
  Mo  Mo7  1  0.26569900  0.95401700  0.85823700  1
  H  H0  1  0.48101600  0.29484000  0.18914700  1
  H  H1  1  0.51898400  0.70516000  0.81085300  1
  H  H2  1  0.51898400  0.79484000  0.31085300  1
  H  H3  1  0.48101600  0.20516000  0.68914700  1
  O  O0  1  0.08095400  0.27477500  0.02988400  1
  O  O1  1  0.91904600  0.72522500  0.97011600  1
  O  O2  1  0.91904600  0.77477500  0.47011600  1
  O  O3  1  0.08095400  0.22522500  0.52988400  1
  O  O4  1  0.62470900  0.13160300  0.04287200  1
  O  O5  1  0.37529100  0.86839700  0.95712800  1
  O  O6  1  0.37529100  0.63160300  0.45712800  1
  O  O7  1  0.62470900  0.36839700  0.54287200  1
  O  O8  1  0.76553200  0.39517900  0.07823000  1
  O  O9  1  0.23446800  0.60482100  0.92177000  1
  O  O10  1  0.23446800  0.89517900  0.42177000  1
  O  O11  1  0.76553200  0.10482100  0.57823000  1
  O  O12  1  0.07210000  0.55532600  0.08306500  1
  O  O13  1  0.92790000  0.44467400  0.91693500  1
  O  O14  1  0.92790000  0.05532600  0.41693500  1
  O  O15  1  0.07210000  0.94467400  0.58306500  1
  O  O16  1  0.17562500  0.81446500  0.13996100  1
  O  O17  1  0.82437500  0.18553500  0.86003900  1
  O  O18  1  0.82437500  0.31446500  0.36003900  1
  O  O19  1  0.17562500  0.68553500  0.63996100  1
  O  O20  1  0.23412200  0.16782300  0.34307500  1
  O  O21  1  0.76587800  0.83217700  0.65692500  1
  O  O22  1  0.76587800  0.66782300  0.15692500  1
  O  O23  1  0.23412200  0.33217700  0.84307500  1
  O  O24  1  0.06292100  0.36664200  0.22104200  1
  O  O25  1  0.93707900  0.63335800  0.77895800  1
  O  O26  1  0.93707900  0.86664200  0.27895800  1
  O  O27  1  0.06292100  0.13335800  0.72104200  1
  O  O28  1  0.17557200  0.41522800  0.41609200  1
  O  O29  1  0.82442800  0.58477200  0.58390800  1
  O  O30  1  0.82442800  0.91522800  0.08390800  1
  O  O31  1  0.17557200  0.08477200  0.91609200  1
  O  O32  1  0.09327600  0.63636900  0.28603200  1
  O  O33  1  0.90672400  0.36363100  0.71396800  1
  O  O34  1  0.90672400  0.13636900  0.21396800  1
  O  O35  1  0.09327600  0.86363100  0.78603200  1
  O  O36  1  0.41981700  0.50676000  0.28466200  1
  O  O37  1  0.58018300  0.49324000  0.71533800  1
  O  O38  1  0.58018300  0.00676000  0.21533800  1
  O  O39  1  0.41981700  0.99324000  0.78466200  1
loop_
_geom_bond_atom_site_label_1
_geom_bond_atom_site_label_2
_geom_bond_distance
_geom_bond_site_symmetry_2
K0 O11 2.650602 1_555
K0 O20 2.668178 1_555
K0 O18 2.741040 1_555
K0 O7 2.819314 1_555
K0 O14 3.108545 1_555
K0 O38 3.254870 1_555
K1 O10 2.650602 1_555
K1 O21 2.668178 1_555
K1 O19 2.741040 1_555
K1 O6 2.819314 1_555
K1 O15 3.108545 1_555
K1 O39 3.254870 1_555
K2 O9 2.650602 1_554
K2 O22 2.668178 1_555
K2 O16 2.741040 1_555
K2 O5 2.819314 1_554
K2 O12 3.108545 1_555
K2 O36 3.254870 1_555
K3 O8 2.650602 1_556
K3 O23 2.668178 1_555
K3 O17 2.741040 1_555
K3 O4 2.819314 1_556
K3 O13 3.108545 1_555
K3 O37 3.254870 1_555
K4 O38 2.766331 1_555
K4 O31 2.832250 1_554
K4 O0 2.848930 1_555
K4 O16 2.918477 1_545
K4 O20 3.200216 1_555
K4 O34 3.272616 1_455
K5 O39 2.766331 1_555
K5 O30 2.832250 1_556
K5 O1 2.848930 1_555
K5 O17 2.918477 1_565
K5 O21 3.200216 1_555
K5 O35 3.272616 1_655
K6 O36 2.766331 1_555
K6 O29 2.832250 1_555
K6 O2 2.848930 1_555
K6 O18 2.918477 1_555
K6 O22 3.200216 1_555
K6 O32 3.272616 1_655
K7 O37 2.766331 1_555
K7 O28 2.832250 1_555
K7 O3 2.848930 1_555
K7 O19 2.918477 1_555
K7 O23 3.200216 1_555
K7 O33 3.272616 1_455
Mo0 O8 1.743592 1_555
Mo0 O24 1.804968 1_655
Mo0 O0 1.837138 1_655
Mo0 O12 1.870674 1_655
Mo0 O13 2.414124 1_554
Mo1 O9 1.743592 1_555
Mo1 O25 1.804968 1_455
Mo1 O1 1.837138 1_455
Mo1 O13 1.870674 1_455
Mo1 O12 2.414124 1_556
Mo2 O10 1.743592 1_555
Mo2 O26 1.804968 1_455
Mo2 O2 1.837138 1_455
Mo2 O14 1.870674 1_465
Mo2 O15 2.414124 1_555
Mo3 O11 1.743592 1_555
Mo3 O27 1.804968 1_655
Mo3 O3 1.837138 1_655
Mo3 O15 1.870674 1_645
Mo3 O14 2.414124 1_555
Mo4 O6 1.757812 1_555
Mo4 O36 1.767601 1_555
Mo4 O32 1.841692 1_555
Mo4 O28 1.854718 1_555
Mo5 O7 1.757812 1_555
Mo5 O37 1.767601 1_555
Mo5 O33 1.841692 1_555
Mo5 O29 1.854718 1_555
Mo6 O4 1.757812 1_555
Mo6 O38 1.767601 1_555
Mo6 O34 1.841692 1_555
Mo6 O30 1.854718 1_545
Mo7 O5 1.757812 1_555
Mo7 O39 1.767601 1_555
Mo7 O35 1.841692 1_555
Mo7 O31 1.854718 1_565
O0 U3 2.381169 1_554
O1 U2 2.381169 1_556
O2 U1 2.381169 1_555
O3 U0 2.381169 1_555
O12 U2 2.439886 1_455
O13 U3 2.439886 1_655
O14 U0 2.439886 1_655
O15 U1 2.439886 1_455
O16 U2 1.839229 1_455
O17 U3 1.839229 1_655
O18 U0 1.839229 1_655
O19 U1 1.839229 1_455
O20 U0 1.840274 1_555
O21 U1 1.840274 1_555
O22 U2 1.840274 1_555
O23 U3 1.840274 1_555
O24 U0 2.334439 1_555
O25 U1 2.334439 1_555
O26 U2 2.334439 1_555
O27 U3 2.334439 1_555
O28 U0 2.322539 1_555
O29 U1 2.322539 1_555
O30 U2 2.322539 1_555
O31 U3 2.322539 1_555
O32 U2 2.319718 1_455
O33 U3 2.319718 1_655
O34 U0 2.319718 1_655
O35 U1 2.319718 1_455
