# generated using pymatgen
data_ThInCu2
_symmetry_space_group_name_H-M   'P 1'
_cell_length_a   4.80760681
_cell_length_b   4.80760681
_cell_length_c   4.80760681
_cell_angle_alpha   60.00000000
_cell_angle_beta   60.00000000
_cell_angle_gamma   60.00000000
_symmetry_Int_Tables_number   1
_chemical_formula_structural   ThInCu2
_chemical_formula_sum   'Th1 In1 Cu2'
_cell_volume   78.57272739
_cell_formula_units_Z   1
loop_
 _symmetry_equiv_pos_site_id
 _symmetry_equiv_pos_as_xyz
  1  'x, y, z'
loop_
 _atom_site_type_symbol
 _atom_site_label
 _atom_site_symmetry_multiplicity
 _atom_site_fract_x
 _atom_site_fract_y
 _atom_site_fract_z
 _atom_site_occupancy
  Th  Th0  1  0.00000000  0.00000000  -0.00000000  1
  In  In0  1  0.50000000  0.50000000  0.50000000  1
  Cu  Cu0  1  0.75000000  0.75000000  0.75000000  1
  Cu  Cu1  1  0.25000000  0.25000000  0.25000000  1
loop_
_geom_bond_atom_site_label_1
_geom_bond_atom_site_label_2
_geom_bond_distance
_geom_bond_site_symmetry_2
Cu0 In0 2.944046 1_655
Cu0 Th0 2.944046 1_656
Cu0 Th0 2.944046 1_566
Cu0 In0 2.944046 1_565
Cu0 In0 2.944046 1_556
Cu0 In0 2.944046 1_555
Cu0 Th0 2.944046 1_665
Cu0 Th0 2.944046 1_666
Cu1 Th0 2.944046 1_565
Cu1 In0 2.944046 1_455
Cu1 In0 2.944046 1_545
Cu1 Th0 2.944046 1_655
Cu1 Th0 2.944046 1_555
Cu1 In0 2.944046 1_555
Cu1 Th0 2.944046 1_556
Cu1 In0 2.944046 1_554
