# generated using pymatgen
data_NbAgO3
_symmetry_space_group_name_H-M   'P 1'
_cell_length_a   5.66224500
_cell_length_b   5.76734800
_cell_length_c   15.76576500
_cell_angle_alpha   90.00000000
_cell_angle_beta   90.00000000
_cell_angle_gamma   90.00000000
_symmetry_Int_Tables_number   1
_chemical_formula_structural   NbAgO3
_chemical_formula_sum   'Nb8 Ag8 O24'
_cell_volume   514.84898768
_cell_formula_units_Z   8
loop_
 _symmetry_equiv_pos_site_id
 _symmetry_equiv_pos_as_xyz
  1  'x, y, z'
loop_
 _atom_site_type_symbol
 _atom_site_label
 _atom_site_symmetry_multiplicity
 _atom_site_fract_x
 _atom_site_fract_y
 _atom_site_fract_z
 _atom_site_occupancy
  Nb  Nb0  1  0.24468800  0.23347600  0.62482300  1
  Nb  Nb1  1  0.24468800  0.23347600  0.37517700  1
  Nb  Nb2  1  0.75531200  0.73347600  0.37517700  1
  Nb  Nb3  1  0.75531200  0.73347600  0.62482300  1
  Nb  Nb4  1  0.75638200  0.79977200  0.12521700  1
  Nb  Nb5  1  0.75638200  0.79977200  0.87478300  1
  Nb  Nb6  1  0.24361800  0.29977200  0.87478300  1
  Nb  Nb7  1  0.24361800  0.29977200  0.12521700  1
  Ag  Ag0  1  0.25641900  0.76252100  0.74966400  1
  Ag  Ag1  1  0.25641900  0.76252100  0.25033600  1
  Ag  Ag2  1  0.74358100  0.26252100  0.25033600  1
  Ag  Ag3  1  0.74358100  0.26252100  0.74966400  1
  Ag  Ag4  1  0.25926400  0.74180900  0.50000000  1
  Ag  Ag5  1  0.74073600  0.24180900  0.50000000  1
  Ag  Ag6  1  0.25922800  0.78969700  0.00000000  1
  Ag  Ag7  1  0.74077200  0.28969700  0.00000000  1
  O  O0  1  0.31599800  0.26585000  0.74984900  1
  O  O1  1  0.31599800  0.26585000  0.25015100  1
  O  O2  1  0.68400200  0.76585000  0.25015100  1
  O  O3  1  0.68400200  0.76585000  0.74984900  1
  O  O4  1  0.18445000  0.28641300  0.50000000  1
  O  O5  1  0.81555000  0.78641300  0.50000000  1
  O  O6  1  0.47005400  0.99424500  0.60752000  1
  O  O7  1  0.47005400  0.99424500  0.39248000  1
  O  O8  1  0.52994600  0.49424500  0.39248000  1
  O  O9  1  0.52994600  0.49424500  0.60752000  1
  O  O10  1  0.97060200  0.04836200  0.64217700  1
  O  O11  1  0.97060200  0.04836200  0.35782300  1
  O  O12  1  0.02939800  0.54836200  0.35782300  1
  O  O13  1  0.02939800  0.54836200  0.64217700  1
  O  O14  1  0.80078700  0.74069500  0.00000000  1
  O  O15  1  0.19921300  0.24069500  0.00000000  1
  O  O16  1  0.95957300  0.47136700  0.14054000  1
  O  O17  1  0.95957300  0.47136700  0.85946000  1
  O  O18  1  0.04042700  0.97136700  0.85946000  1
  O  O19  1  0.04042700  0.97136700  0.14054000  1
  O  O20  1  0.54316300  0.04880900  0.10993800  1
  O  O21  1  0.54316300  0.04880900  0.89006200  1
  O  O22  1  0.45683700  0.54880900  0.89006200  1
  O  O23  1  0.45683700  0.54880900  0.10993800  1
loop_
_geom_bond_atom_site_label_1
_geom_bond_atom_site_label_2
_geom_bond_distance
_geom_bond_site_symmetry_2
Nb0 O6 1.899063 1_545
Nb0 O10 1.903467 1_455
Nb0 O4 2.020470 1_555
Nb0 O0 2.020706 1_555
Nb0 O13 2.204301 1_555
Nb0 O9 2.223768 1_555
Nb1 O7 1.899063 1_545
Nb1 O11 1.903467 1_455
Nb1 O4 2.020470 1_555
Nb1 O1 2.020706 1_555
Nb1 O12 2.204301 1_555
Nb1 O8 2.223768 1_555
Nb2 O8 1.899063 1_555
Nb2 O12 1.903467 1_655
Nb2 O5 2.020470 1_555
Nb2 O2 2.020706 1_555
Nb2 O11 2.204301 1_565
Nb2 O7 2.223768 1_555
Nb3 O9 1.899063 1_555
Nb3 O13 1.903467 1_655
Nb3 O5 2.020470 1_555
Nb3 O3 2.020706 1_555
Nb3 O10 2.204301 1_565
Nb3 O6 2.223768 1_555
Nb4 O20 1.891693 1_565
Nb4 O19 1.903811 1_655
Nb4 O14 2.019045 1_555
Nb4 O2 2.021355 1_555
Nb4 O16 2.229212 1_555
Nb4 O23 2.242702 1_555
Nb5 O21 1.891693 1_565
Nb5 O18 1.903811 1_655
Nb5 O14 2.019045 1_556
Nb5 O3 2.021355 1_555
Nb5 O17 2.229212 1_555
Nb5 O22 2.242702 1_555
Nb6 O22 1.891693 1_555
Nb6 O17 1.903811 1_455
Nb6 O15 2.019045 1_556
Nb6 O0 2.021355 1_555
Nb6 O18 2.229212 1_545
Nb6 O21 2.242702 1_555
Nb7 O23 1.891693 1_555
Nb7 O16 1.903811 1_455
Nb7 O15 2.019045 1_555
Nb7 O1 2.021355 1_555
Nb7 O19 2.229212 1_545
Nb7 O20 2.242702 1_555
Ag0 O3 2.421158 1_555
Ag0 O18 2.437815 1_555
Ag0 O13 2.459602 1_555
Ag1 O2 2.421158 1_555
Ag1 O19 2.437815 1_555
Ag1 O12 2.459602 1_555
Ag2 O1 2.421158 1_555
Ag2 O16 2.437815 1_555
Ag2 O11 2.459602 1_555
Ag3 O0 2.421158 1_555
Ag3 O17 2.437815 1_555
Ag3 O10 2.459602 1_555
Ag4 O5 2.525553 1_455
Ag4 O6 2.533305 1_555
Ag4 O7 2.533305 1_555
Ag4 O4 2.660370 1_555
Ag4 O9 2.694649 1_555
Ag4 O8 2.694649 1_555
Ag4 O12 2.821921 1_555
Ag4 O13 2.821921 1_555
Ag5 O4 2.525553 1_655
Ag5 O9 2.533305 1_555
Ag5 O8 2.533305 1_555
Ag5 O5 2.660370 1_545
Ag5 O6 2.694649 1_545
Ag5 O7 2.694649 1_545
Ag5 O10 2.821921 1_555
Ag5 O11 2.821921 1_555
Ag6 O23 2.487218 1_555
Ag6 O22 2.487218 1_554
Ag6 O14 2.611144 1_455
Ag6 O15 2.623167 1_565
Ag6 O18 2.746287 1_554
Ag6 O19 2.746287 1_555
Ag6 O21 2.796803 1_564
Ag6 O20 2.796803 1_565
Ag7 O21 2.487218 1_554
Ag7 O20 2.487218 1_555
Ag7 O15 2.611144 1_655
Ag7 O14 2.623167 1_555
Ag7 O17 2.746287 1_554
Ag7 O16 2.746287 1_555
Ag7 O22 2.796803 1_554
Ag7 O23 2.796803 1_555
