# generated using pymatgen
data_Nb3VS6
_symmetry_space_group_name_H-M   'P 1'
_cell_length_a   5.81984435
_cell_length_b   5.81984490
_cell_length_c   12.23902056
_cell_angle_alpha   90.00000000
_cell_angle_beta   90.00000000
_cell_angle_gamma   120.00001306
_symmetry_Int_Tables_number   1
_chemical_formula_structural   Nb3VS6
_chemical_formula_sum   'Nb6 V2 S12'
_cell_volume   359.00460529
_cell_formula_units_Z   2
loop_
 _symmetry_equiv_pos_site_id
 _symmetry_equiv_pos_as_xyz
  1  'x, y, z'
loop_
 _atom_site_type_symbol
 _atom_site_label
 _atom_site_symmetry_multiplicity
 _atom_site_fract_x
 _atom_site_fract_y
 _atom_site_fract_z
 _atom_site_occupancy
  Nb  Nb0  1  0.33333300  0.66666700  0.50226462  1
  Nb  Nb1  1  0.66666700  0.33333300  0.00219698  1
  Nb  Nb2  1  0.66666700  0.33333300  0.49780302  1
  Nb  Nb3  1  0.33333300  0.66666700  0.99773638  1
  Nb  Nb4  1  0.00000000  0.00000000  0.50003229  1
  Nb  Nb5  1  0.00000000  0.00000000  0.99996771  1
  V  V0  1  0.66666700  0.33333300  0.75000000  1
  V  V1  1  0.33333300  0.66666700  0.25000000  1
  S  S0  1  0.66566726  0.66857516  0.37158153  1
  S  S1  1  0.33142484  0.99709210  0.37158153  1
  S  S2  1  0.00290790  0.33433274  0.37158153  1
  S  S3  1  0.99710795  0.66569635  0.87152543  1
  S  S4  1  0.33430265  0.00289205  0.62847457  1
  S  S5  1  0.33430365  0.33141160  0.87152543  1
  S  S6  1  0.66858840  0.00289205  0.87152543  1
  S  S7  1  0.33142484  0.33433274  0.12841847  1
  S  S8  1  0.66566726  0.99709210  0.12841847  1
  S  S9  1  0.66858840  0.66569635  0.62847457  1
  S  S10  1  0.99710795  0.33141160  0.62847457  1
  S  S11  1  0.00290790  0.66857516  0.12841847  1
loop_
_geom_bond_atom_site_label_1
_geom_bond_atom_site_label_2
_geom_bond_distance
_geom_bond_site_symmetry_2
Nb0 S10 2.490787 1_455
Nb0 S4 2.490788 1_565
Nb0 S9 2.490790 1_555
Nb0 S1 2.505530 1_555
Nb0 S2 2.505532 1_555
Nb0 S0 2.505535 1_555
Nb1 S8 2.490879 1_545
Nb1 S11 2.490881 1_655
Nb1 S7 2.490884 1_555
Nb1 S6 2.505541 1_554
Nb1 S3 2.505543 1_554
Nb1 S5 2.505545 1_554
Nb2 S2 2.490879 1_655
Nb2 S1 2.490881 1_545
Nb2 S0 2.490884 1_555
Nb2 S10 2.505541 1_555
Nb2 S4 2.505545 1_555
Nb2 S9 2.505545 1_555
Nb3 S3 2.490793 1_455
Nb3 S6 2.490795 1_565
Nb3 S5 2.490798 1_555
Nb3 S11 2.505522 1_556
Nb3 S8 2.505524 1_556
Nb3 S7 2.505527 1_556
Nb4 S4 2.494807 1_555
Nb4 S9 2.494811 1_445
Nb4 S10 2.494812 1_455
Nb4 S0 2.494973 1_445
Nb4 S1 2.494973 1_545
Nb4 S2 2.494973 1_555
Nb5 S5 2.494811 1_555
Nb5 S6 2.494812 1_455
Nb5 S3 2.494812 1_445
Nb5 S7 2.494973 1_556
Nb5 S8 2.494973 1_446
Nb5 S11 2.494973 1_546
S0 V1 2.435935 1_555
S1 V1 2.435930 1_555
S2 V1 2.435932 1_555
S3 V0 2.435616 1_555
S4 V0 2.435619 1_555
S5 V0 2.435619 1_555
S6 V0 2.435615 1_555
S7 V1 2.435935 1_555
S8 V1 2.435932 1_555
S9 V0 2.435619 1_555
S10 V0 2.435614 1_555
S11 V1 2.435930 1_555
