# generated using pymatgen
data_Li5CrFe4(P2O7)5
_symmetry_space_group_name_H-M   'P 1'
_cell_length_a   4.88741771
_cell_length_b   7.01490655
_cell_length_c   41.04140217
_cell_angle_alpha   90.03579504
_cell_angle_beta   90.01856901
_cell_angle_gamma   109.11834730
_symmetry_Int_Tables_number   1
_chemical_formula_structural   Li5CrFe4(P2O7)5
_chemical_formula_sum   'Li10 Cr2 Fe8 P20 O70'
_cell_volume   1329.48527694
_cell_formula_units_Z   2
loop_
 _symmetry_equiv_pos_site_id
 _symmetry_equiv_pos_as_xyz
  1  'x, y, z'
loop_
 _atom_site_type_symbol
 _atom_site_label
 _atom_site_symmetry_multiplicity
 _atom_site_fract_x
 _atom_site_fract_y
 _atom_site_fract_z
 _atom_site_occupancy
  Li  Li0  1  0.81323493  0.81534740  0.02311600  1
  Li  Li1  1  0.81325768  0.81595401  0.22318151  1
  Li  Li2  1  0.81325619  0.81596061  0.42318326  1
  Li  Li3  1  0.81349774  0.81601681  0.62318727  1
  Li  Li4  1  0.81345819  0.81535610  0.82312090  1
  Li  Li5  1  0.18670987  0.18398093  0.12316864  1
  Li  Li6  1  0.18668393  0.18397375  0.32318280  1
  Li  Li7  1  0.18670585  0.18400513  0.52318926  1
  Li  Li8  1  0.18787020  0.18513434  0.72318388  1
  Li  Li9  1  0.18791011  0.18510473  0.92317122  1
  Cr  Cr0  1  0.78448624  0.77195704  0.74975789  1
  Cr  Cr1  1  0.78451967  0.77191690  0.94974493  1
  Fe  Fe0  1  0.21758369  0.23265423  0.04969471  1
  Fe  Fe1  1  0.21769652  0.23235674  0.24976112  1
  Fe  Fe2  1  0.21766552  0.23236342  0.44975937  1
  Fe  Fe3  1  0.21779880  0.23305771  0.64990079  1
  Fe  Fe4  1  0.21762408  0.23337687  0.84984423  1
  Fe  Fe5  1  0.78242776  0.76768469  0.14976218  1
  Fe  Fe6  1  0.78237814  0.76763771  0.34975933  1
  Fe  Fe7  1  0.78238874  0.76767093  0.54977500  1
  P  P0  1  0.60280443  0.98097453  0.08615399  1
  P  P1  1  0.60268796  0.98093707  0.28616655  1
  P  P2  1  0.60268215  0.98092205  0.48617398  1
  P  P3  1  0.60212196  0.97974740  0.68614528  1
  P  P4  1  0.60221883  0.97981188  0.88612236  1
  P  P5  1  0.39730036  0.01901649  0.18616362  1
  P  P6  1  0.39729305  0.01900893  0.38616663  1
  P  P7  1  0.39721907  0.01906918  0.58619566  1
  P  P8  1  0.39692394  0.01826851  0.78614055  1
  P  P9  1  0.39701336  0.01821449  0.98610354  1
  P  P10  1  0.78868362  0.41474098  0.00617476  1
  P  P11  1  0.78954994  0.41475220  0.20643953  1
  P  P12  1  0.78953521  0.41473747  0.40644339  1
  P  P13  1  0.78947045  0.41469719  0.60645115  1
  P  P14  1  0.78858868  0.41467666  0.80618895  1
  P  P15  1  0.21049890  0.58539485  0.10643431  1
  P  P16  1  0.21041818  0.58531286  0.30643104  1
  P  P17  1  0.21044265  0.58533605  0.50643661  1
  P  P18  1  0.21084055  0.58614174  0.70679764  1
  P  P19  1  0.21089645  0.58617493  0.90678986  1
  O  O0  1  0.81301292  0.01879312  0.05732222  1
  O  O1  1  0.81278831  0.01885553  0.25735464  1
  O  O2  1  0.81280145  0.01885941  0.45735408  1
  O  O3  1  0.81338709  0.01895866  0.65742655  1
  O  O4  1  0.81356129  0.01886660  0.85739539  1
  O  O5  1  0.18702442  0.98099625  0.15734398  1
  O  O6  1  0.18703269  0.98097971  0.35734567  1
  O  O7  1  0.18699297  0.98098939  0.55737048  1
  O  O8  1  0.18573680  0.98045842  0.75735306  1
  O  O9  1  0.18576142  0.98045241  0.95733221  1
  O  O10  1  0.13194843  0.38383140  0.08819367  1
  O  O11  1  0.13180795  0.38381295  0.28821426  1
  O  O12  1  0.13181768  0.38380110  0.48821454  1
  O  O13  1  0.13145331  0.38435934  0.68848059  1
  O  O14  1  0.13155682  0.38437794  0.88846107  1
  O  O15  1  0.86808136  0.61609437  0.18823306  1
  O  O16  1  0.86808124  0.61609272  0.38823274  1
  O  O17  1  0.86806573  0.61605455  0.58824570  1
  O  O18  1  0.86767427  0.61563079  0.78796531  1
  O  O19  1  0.86769823  0.61565654  0.98795434  1
  O  O20  1  0.24446001  0.00651660  0.01907742  1
  O  O21  1  0.24338500  0.00749007  0.21906691  1
  O  O22  1  0.24337215  0.00749051  0.41906654  1
  O  O23  1  0.24350209  0.00778067  0.61910874  1
  O  O24  1  0.24455194  0.00676921  0.81911535  1
  O  O25  1  0.75669576  0.99261777  0.11905500  1
  O  O26  1  0.75666213  0.99255477  0.31907742  1
  O  O27  1  0.75667324  0.99255683  0.51907836  1
  O  O28  1  0.75597812  0.99093801  0.71912750  1
  O  O29  1  0.75599427  0.99096781  0.91910846  1
  O  O30  1  0.05452016  0.35792501  0.01473755  1
  O  O31  1  0.05553882  0.35800969  0.21480524  1
  O  O32  1  0.05553378  0.35801033  0.41480564  1
  O  O33  1  0.05542497  0.35796328  0.61484831  1
  O  O34  1  0.05438055  0.35789639  0.81477881  1
  O  O35  1  0.94441195  0.64189533  0.11478594  1
  O  O36  1  0.94439241  0.64194434  0.31478946  1
  O  O37  1  0.94439832  0.64194474  0.51479471  1
  O  O38  1  0.94383927  0.64251824  0.71483633  1
  O  O39  1  0.94385635  0.64245207  0.91482905  1
  O  O40  1  0.60326287  0.41948199  0.03615297  1
  O  O41  1  0.60374524  0.41965261  0.23633257  1
  O  O42  1  0.60375111  0.41965166  0.43633275  1
  O  O43  1  0.60356750  0.41959334  0.63634150  1
  O  O44  1  0.60304847  0.41942118  0.83616156  1
  O  O45  1  0.39633071  0.58041390  0.13632213  1
  O  O46  1  0.39631857  0.58042930  0.33632671  1
  O  O47  1  0.39635330  0.58043545  0.53633018  1
  O  O48  1  0.39781865  0.58088737  0.73656512  1
  O  O49  1  0.39779012  0.58084864  0.93655745  1
  O  O50  1  0.40247276  0.74860899  0.08041292  1
  O  O51  1  0.40239401  0.74856600  0.28041795  1
  O  O52  1  0.40239586  0.74857232  0.48042022  1
  O  O53  1  0.40224621  0.74803696  0.68042675  1
  O  O54  1  0.40230688  0.74805543  0.88042187  1
  O  O55  1  0.59739285  0.25130226  0.18041605  1
  O  O56  1  0.59739764  0.25129749  0.38041706  1
  O  O57  1  0.59747648  0.25131693  0.58041804  1
  O  O58  1  0.59636103  0.25029928  0.78026516  1
  O  O59  1  0.59629594  0.25027931  0.98026327  1
  O  O60  1  0.40431359  0.11065651  0.08603047  1
  O  O61  1  0.40420970  0.11056415  0.28607749  1
  O  O62  1  0.40421615  0.11057606  0.48607707  1
  O  O63  1  0.40537051  0.11069615  0.68618603  1
  O  O64  1  0.40545946  0.11076231  0.88614303  1
  O  O65  1  0.59579521  0.88944065  0.18608368  1
  O  O66  1  0.59580229  0.88942970  0.38608614  1
  O  O67  1  0.59573163  0.88945882  0.58610444  1
  O  O68  1  0.59605626  0.88884067  0.78593857  1
  O  O69  1  0.59611981  0.88881619  0.98592086  1
loop_
_geom_bond_atom_site_label_1
_geom_bond_atom_site_label_2
_geom_bond_distance
_geom_bond_site_symmetry_2
Li0 O0 2.001533 1_565
Li0 O69 2.019927 1_554
Li0 O19 2.087485 1_554
Li0 O20 2.101634 1_665
Li1 O1 1.998144 1_565
Li1 O65 2.017999 1_555
Li1 O15 2.082909 1_555
Li1 O21 2.098431 1_665
Li2 O2 1.998047 1_565
Li2 O66 2.017899 1_555
Li2 O16 2.083011 1_555
Li2 O22 2.098380 1_665
Li3 O3 1.999840 1_565
Li3 O67 2.018307 1_555
Li3 O17 2.082793 1_555
Li3 O23 2.098335 1_665
Li4 O4 2.003450 1_565
Li4 O68 2.020431 1_555
Li4 O18 2.087065 1_555
Li4 O24 2.101548 1_665
Li5 O5 1.999693 1_545
Li5 O60 2.019218 1_555
Li5 O10 2.084593 1_555
Li5 O25 2.097366 1_445
Li6 O6 1.999420 1_545
Li6 O61 2.018223 1_555
Li6 O11 2.084550 1_555
Li6 O26 2.097491 1_445
Li7 O7 1.999986 1_545
Li7 O62 2.018448 1_555
Li7 O12 2.084529 1_555
Li7 O27 2.097615 1_445
Li8 O8 2.005215 1_545
Li8 O63 2.017919 1_555
Li8 O13 2.076623 1_555
Li8 O28 2.110693 1_445
Li9 O9 2.004844 1_545
Li9 O64 2.018714 1_555
Li9 O14 2.076949 1_555
Li9 O29 2.110673 1_445
Cr0 O38 1.986833 1_555
Cr0 O48 2.000066 1_555
Cr0 O28 2.025326 1_555
Cr0 O18 2.029913 1_555
Cr0 O8 2.049981 1_655
Cr0 O68 2.054103 1_555
Cr1 O39 1.986729 1_555
Cr1 O49 2.000223 1_555
Cr1 O29 2.025891 1_555
Cr1 O19 2.029679 1_555
Cr1 O9 2.049997 1_655
Cr1 O69 2.053936 1_555
Fe0 O30 1.981235 1_555
Fe0 O40 1.990729 1_555
Fe0 O10 2.021252 1_555
Fe0 O20 2.060778 1_555
Fe0 O60 2.074004 1_555
Fe0 O0 2.077563 1_455
Fe1 O31 1.980322 1_555
Fe1 O41 1.991901 1_555
Fe1 O11 2.021413 1_555
Fe1 O21 2.053847 1_555
Fe1 O61 2.072021 1_555
Fe1 O1 2.077498 1_455
Fe2 O32 1.980164 1_555
Fe2 O42 1.991992 1_555
Fe2 O12 2.021325 1_555
Fe2 O22 2.053875 1_555
Fe2 O62 2.072145 1_555
Fe2 O2 2.077359 1_455
Fe3 O33 1.980758 1_555
Fe3 O43 1.990538 1_555
Fe3 O13 2.025679 1_555
Fe3 O23 2.058599 1_555
Fe3 O63 2.076308 1_555
Fe3 O3 2.077065 1_455
Fe4 O34 1.981911 1_555
Fe4 O44 1.989537 1_555
Fe4 O14 2.025105 1_555
Fe4 O24 2.066254 1_555
Fe4 O4 2.077192 1_455
Fe4 O64 2.078442 1_555
Fe5 O35 1.980589 1_555
Fe5 O45 1.991350 1_555
Fe5 O15 2.022929 1_555
Fe5 O25 2.055766 1_555
Fe5 O65 2.072022 1_555
Fe5 O5 2.075318 1_655
Fe6 O36 1.980093 1_555
Fe6 O46 1.990979 1_555
Fe6 O16 2.022912 1_555
Fe6 O26 2.055017 1_555
Fe6 O66 2.072160 1_555
Fe6 O6 2.075636 1_655
Fe7 O37 1.980522 1_555
Fe7 O47 1.991098 1_555
Fe7 O17 2.023075 1_555
Fe7 O27 2.055215 1_555
Fe7 O67 2.072450 1_555
Fe7 O7 2.075448 1_655
O0 P0 1.532553 1_545
O1 P1 1.531567 1_545
O2 P2 1.531871 1_545
O3 P3 1.531726 1_545
O4 P4 1.532265 1_545
O5 P5 1.531535 1_565
O6 P6 1.531527 1_565
O7 P7 1.531542 1_565
O8 P8 1.533325 1_565
O9 P9 1.533026 1_565
O10 P15 1.532967 1_555
O11 P16 1.532100 1_555
O12 P17 1.532409 1_555
O13 P18 1.535581 1_555
O14 P19 1.535914 1_555
O15 P11 1.531967 1_555
O16 P12 1.532124 1_555
O17 P13 1.532020 1_555
O18 P14 1.529890 1_555
O19 P10 1.529615 1_556
O20 P9 1.534523 1_554
O21 P5 1.535233 1_555
O22 P6 1.535130 1_555
O23 P7 1.535308 1_555
O24 P8 1.534288 1_555
O25 P0 1.534489 1_555
O26 P1 1.535056 1_555
O27 P2 1.534847 1_555
O28 P3 1.537686 1_555
O29 P4 1.537667 1_555
O30 P10 1.519701 1_455
O31 P11 1.518273 1_455
O32 P12 1.518227 1_455
O33 P13 1.518375 1_455
O34 P14 1.519617 1_455
O35 P15 1.517752 1_655
O36 P16 1.518031 1_655
O37 P17 1.518027 1_655
O38 P18 1.518651 1_655
O39 P19 1.518457 1_655
O40 P10 1.535098 1_555
O41 P11 1.533663 1_555
O42 P12 1.533502 1_555
O43 P13 1.533856 1_555
O44 P14 1.535268 1_555
O45 P15 1.533257 1_555
O46 P16 1.533567 1_555
O47 P17 1.533554 1_555
O48 P18 1.533104 1_555
O49 P19 1.532969 1_555
O50 P0 1.620212 1_555
O50 P15 1.621797 1_555
O51 P1 1.620237 1_555
O51 P16 1.621718 1_555
O52 P2 1.620137 1_555
O52 P17 1.621707 1_555
O53 P3 1.615753 1_555
O53 P18 1.625587 1_555
O54 P4 1.615955 1_555
O54 P19 1.625463 1_555
O55 P5 1.619866 1_555
O55 P11 1.621677 1_555
O56 P6 1.619910 1_555
O56 P12 1.621684 1_555
O57 P7 1.620053 1_555
O57 P13 1.621407 1_555
O58 P8 1.618321 1_555
O58 P14 1.622485 1_555
O59 P9 1.618093 1_555
O59 P10 1.622733 1_556
O60 P0 1.531922 1_545
O61 P1 1.531559 1_545
O62 P2 1.531661 1_545
O63 P3 1.532030 1_545
O64 P4 1.532071 1_545
O65 P5 1.531336 1_565
O66 P6 1.531413 1_565
O67 P7 1.531603 1_565
O68 P8 1.533104 1_565
O69 P9 1.532829 1_565
