# generated using pymatgen
data_Cu3TePbO8
_symmetry_space_group_name_H-M   'P 1'
_cell_length_a   13.16431722
_cell_length_b   12.55970653
_cell_length_c   5.69028898
_cell_angle_alpha   83.23952166
_cell_angle_beta   71.34079035
_cell_angle_gamma   25.41968799
_symmetry_Int_Tables_number   1
_chemical_formula_structural   Cu3TePbO8
_chemical_formula_sum   'Cu6 Te2 Pb2 O16'
_cell_volume   347.04659535
_cell_formula_units_Z   2
loop_
 _symmetry_equiv_pos_site_id
 _symmetry_equiv_pos_as_xyz
  1  'x, y, z'
loop_
 _atom_site_type_symbol
 _atom_site_label
 _atom_site_symmetry_multiplicity
 _atom_site_fract_x
 _atom_site_fract_y
 _atom_site_fract_z
 _atom_site_occupancy
  Cu  Cu0  1  0.95385400  0.95385400  0.54614600  1
  Cu  Cu1  1  0.70385400  0.70385400  0.29614600  1
  Cu  Cu2  1  0.95458200  0.95458200  0.04541800  1
  Cu  Cu3  1  0.20458200  0.20458200  0.29541800  1
  Cu  Cu4  1  0.51230700  0.51230700  0.48769300  1
  Cu  Cu5  1  0.76230700  0.76230700  0.73769300  1
  Te  Te0  1  0.51187600  0.51187600  0.98812400  1
  Te  Te1  1  0.26187600  0.26187600  0.73812400  1
  Pb  Pb0  1  0.11316100  0.11316100  0.88683900  1
  Pb  Pb1  1  0.36316100  0.36316100  0.13683900  1
  O  O0  1  0.95361100  0.85710400  0.31525500  1
  O  O1  1  0.85710400  0.95361100  0.87403100  1
  O  O2  1  0.37596900  0.93474500  0.39289600  1
  O  O3  1  0.93474500  0.37596900  0.29638900  1
  O  O4  1  0.54709500  0.58222000  0.69438600  1
  O  O5  1  0.58222000  0.54709500  0.17629900  1
  O  O6  1  0.07370100  0.55561400  0.66778000  1
  O  O7  1  0.55561400  0.07370100  0.70290500  1
  O  O8  1  0.09402500  0.92027600  0.19753800  1
  O  O9  1  0.92027600  0.09402500  0.78816200  1
  O  O10  1  0.46183800  0.05246200  0.32972400  1
  O  O11  1  0.05246200  0.46183800  0.15597500  1
  O  O12  1  0.45977200  0.45723700  0.78722700  1
  O  O13  1  0.45723700  0.45977200  0.29576400  1
  O  O14  1  0.95423600  0.46277300  0.79276300  1
  O  O15  1  0.46277300  0.95423600  0.79022800  1
loop_
_geom_bond_atom_site_label_1
_geom_bond_atom_site_label_2
_geom_bond_distance
_geom_bond_site_symmetry_2
Cu0 O0 1.894297 1_555
Cu0 O1 1.894301 1_555
Cu0 O8 1.991695 1_655
Cu0 O9 1.991699 1_565
Cu0 O13 2.491946 1_655
Cu0 O12 2.491946 1_565
Cu1 O3 1.894306 1_555
Cu1 O2 1.894307 1_555
Cu1 O11 1.991689 1_655
Cu1 O10 1.991689 1_565
Cu1 O14 2.491946 1_554
Cu1 O15 2.491946 1_555
Cu2 O1 1.851966 1_554
Cu2 O0 1.851970 1_555
Cu2 O9 1.950589 1_564
Cu2 O8 1.950593 1_655
Cu2 O12 2.504769 1_654
Cu2 O13 2.504769 1_565
Cu3 O2 1.851975 1_545
Cu3 O3 1.851977 1_455
Cu3 O10 1.950582 1_555
Cu3 O11 1.950585 1_555
Cu3 O14 2.504769 1_455
Cu3 O15 2.504769 1_544
Cu4 O5 1.917883 1_555
Cu4 O4 1.917883 1_555
Cu4 O13 1.921988 1_555
Cu4 O12 1.921988 1_555
Cu5 O7 1.917883 1_565
Cu5 O6 1.917883 1_655
Cu5 O15 1.921988 1_555
Cu5 O14 1.921988 1_555
O0 Pb1 2.479363 1_655
O1 Pb1 2.479363 1_566
O2 Pb0 2.479360 1_565
O3 Pb0 2.479356 1_654
O4 Te0 1.919810 1_555
O4 Pb0 2.684293 1_565
O5 Te0 1.919810 1_554
O5 Pb0 2.684293 1_654
O6 Te1 1.919810 1_555
O6 Pb1 2.684293 1_555
O7 Te1 1.919810 1_555
O7 Pb1 2.684293 1_556
O8 Te0 2.065390 1_554
O9 Te0 2.065390 1_555
O10 Te1 2.065393 1_555
O11 Te1 2.065388 1_554
O12 Te0 1.945494 1_555
O12 Pb1 2.741061 1_556
O13 Te0 1.945494 1_554
O13 Pb1 2.741061 1_555
O14 Te1 1.945494 1_655
O14 Pb0 2.741061 1_655
O15 Te1 1.945494 1_565
O15 Pb0 2.741061 1_565
