# generated using pymatgen
data_Mg4Si7
_symmetry_space_group_name_H-M   'P 1'
_cell_length_a   3.91434300
_cell_length_b   7.06820885
_cell_length_c   14.47659855
_cell_angle_alpha   97.78652282
_cell_angle_beta   90.71007098
_cell_angle_gamma   90.29837968
_symmetry_Int_Tables_number   1
_chemical_formula_structural   Mg4Si7
_chemical_formula_sum   'Mg8 Si14'
_cell_volume   396.79670169
_cell_formula_units_Z   2
loop_
 _symmetry_equiv_pos_site_id
 _symmetry_equiv_pos_as_xyz
  1  'x, y, z'
loop_
 _atom_site_type_symbol
 _atom_site_label
 _atom_site_symmetry_multiplicity
 _atom_site_fract_x
 _atom_site_fract_y
 _atom_site_fract_z
 _atom_site_occupancy
  Mg  Mg0  1  0.94184400  0.11722800  0.93566700  1
  Mg  Mg1  1  0.91666000  0.27596200  0.50356300  1
  Mg  Mg2  1  0.40347200  0.04934000  0.34563000  1
  Mg  Mg3  1  0.42818400  0.49403300  0.66060200  1
  Mg  Mg4  1  0.94635400  0.54958300  0.84215400  1
  Mg  Mg5  1  0.46567000  0.72987300  0.17152100  1
  Mg  Mg6  1  0.42097700  0.57274100  0.42617100  1
  Mg  Mg7  1  0.42187900  0.99182100  0.58501100  1
  Si  Si0  1  0.43905700  0.41415300  0.97102100  1
  Si  Si1  1  0.46446500  0.75627400  0.95561000  1
  Si  Si2  1  0.96873900  0.86115700  0.05900400  1
  Si  Si3  1  0.94514400  0.44168300  0.08205900  1
  Si  Si4  1  0.92481100  0.66653900  0.56542300  1
  Si  Si5  1  0.91633800  0.88979200  0.45447500  1
  Si  Si6  1  0.36686300  0.35705300  0.20922400  1
  Si  Si7  1  0.43380500  0.87792900  0.80924800  1
  Si  Si8  1  0.93028100  0.21826600  0.69828300  1
  Si  Si9  1  0.46611800  0.09365200  0.08996900  1
  Si  Si10  1  0.88307900  0.34354500  0.31380300  1
  Si  Si11  1  0.43388100  0.23751800  0.80904900  1
  Si  Si12  1  0.92675000  0.86093700  0.71221600  1
  Si  Si13  1  0.95190600  0.70459100  0.30388600  1
loop_
_geom_bond_atom_site_label_1
_geom_bond_atom_site_label_2
_geom_bond_distance
_geom_bond_site_symmetry_2
Mg0 Si2 2.710731 1_546
Mg0 Si0 2.845392 1_655
Mg0 Si11 2.878368 1_655
Mg0 Si0 2.883900 1_555
Mg0 Si11 2.895833 1_555
Mg0 Si3 2.903930 1_556
Mg0 Si9 2.947175 1_556
Mg0 Si7 3.033297 1_545
Mg0 Si7 3.033324 1_645
Mg0 Si9 3.036408 1_656
Mg1 Si5 2.725745 1_545
Mg1 Si4 2.784387 1_555
Mg1 Si10 2.852927 1_555
Mg1 Si8 2.902283 1_555
Mg2 Si5 2.814975 1_445
Mg2 Si5 2.865564 1_545
Mg2 Si10 2.881222 1_555
Mg2 Si13 2.992823 1_445
Mg2 Si10 2.994403 1_455
Mg2 Si6 3.132171 1_555
Mg3 Si4 2.767884 1_555
Mg3 Si4 2.771385 1_455
Mg3 Si8 2.858358 1_455
Mg3 Si8 2.874198 1_555
Mg3 Si11 2.993507 1_555
Mg3 Si7 3.226450 1_555
Mg4 Si1 2.800955 1_555
Mg4 Si1 2.860321 1_655
Mg4 Si8 2.915402 1_555
Mg4 Si11 2.918362 1_655
Mg4 Si0 2.920632 1_655
Mg4 Si11 2.960175 1_555
Mg4 Si0 2.982561 1_555
Mg4 Si12 3.083393 1_555
Mg4 Si7 3.087030 1_655
Mg4 Si7 3.156376 1_555
Mg5 Si13 2.707803 1_555
Mg5 Si2 2.765456 1_455
Mg5 Si6 2.788541 1_555
Mg5 Si2 2.803924 1_555
Mg5 Si13 2.816488 1_455
Mg5 Si3 2.955388 1_555
Mg5 Si9 2.971156 1_565
Mg5 Si3 3.025661 1_455
Mg6 Si13 2.785310 1_455
Mg6 Si4 2.813995 1_555
Mg6 Si10 2.816349 1_555
Mg6 Si4 2.832611 1_455
Mg6 Si5 2.938691 1_555
Mg6 Si13 2.973130 1_555
Mg6 Si10 2.978138 1_455
Mg6 Si5 2.984825 1_455
Mg7 Si5 2.744117 1_455
Mg7 Si5 2.751930 1_555
Mg7 Si8 2.890103 1_465
Mg7 Si8 2.895829 1_565
Mg7 Si12 2.921403 1_455
Mg7 Si12 2.922827 1_555
Mg7 Si4 2.985859 1_455
Mg7 Si4 3.021001 1_555
Si0 Si1 2.459980 1_555
Si0 Si11 2.502512 1_555
Si0 Si3 2.521067 1_456
Si0 Si3 2.525554 1_556
Si1 Si7 2.394091 1_555
Si1 Si2 2.509405 1_556
Si1 Si2 2.518250 1_456
Si2 Si9 2.537196 1_665
Si2 Si9 2.574523 1_565
Si3 Si6 2.589427 1_655
Si4 Si5 2.399351 1_555
Si6 Si9 2.398094 1_555
Si10 Si6 2.448588 1_655
Si10 Si6 2.519826 1_555
Si10 Si13 2.588186 1_555
Si11 Si8 2.517020 1_455
Si11 Si8 2.527091 1_555
Si11 Si7 2.542041 1_545
Si12 Si4 2.369018 1_555
Si12 Si7 2.394714 1_555
Si12 Si7 2.410326 1_655
Si12 Si8 2.560793 1_565
Si13 Si5 2.391987 1_555
