# generated using pymatgen
data_Na3Dy(PO4)2
_symmetry_space_group_name_H-M   'P 1'
_cell_length_a   5.32622258
_cell_length_b   13.94879042
_cell_length_c   18.58534962
_cell_angle_alpha   90.00000000
_cell_angle_beta   90.00000000
_cell_angle_gamma   90.00000000
_symmetry_Int_Tables_number   1
_chemical_formula_structural   Na3Dy(PO4)2
_chemical_formula_sum   'Na24 Dy8 P16 O64'
_cell_volume   1380.78670183
_cell_formula_units_Z   8
loop_
 _symmetry_equiv_pos_site_id
 _symmetry_equiv_pos_as_xyz
  1  'x, y, z'
loop_
 _atom_site_type_symbol
 _atom_site_label
 _atom_site_symmetry_multiplicity
 _atom_site_fract_x
 _atom_site_fract_y
 _atom_site_fract_z
 _atom_site_occupancy
  Na  Na0  1  0.99182815  0.21686058  0.99239473  1
  Na  Na1  1  0.00817185  0.78313942  0.49239473  1
  Na  Na2  1  0.00817185  0.71686058  0.99239473  1
  Na  Na3  1  0.99182815  0.28313942  0.49239473  1
  Na  Na4  1  0.99383124  0.95187169  0.64905344  1
  Na  Na5  1  0.00616876  0.04812831  0.14905344  1
  Na  Na6  1  0.00616876  0.45187169  0.64905344  1
  Na  Na7  1  0.99383124  0.54812831  0.14905344  1
  Na  Na8  1  0.99774742  0.86155052  0.82778246  1
  Na  Na9  1  0.00225258  0.13844948  0.32778246  1
  Na  Na10  1  0.00225258  0.36155052  0.82778246  1
  Na  Na11  1  0.99774742  0.63844948  0.32778246  1
  Na  Na12  1  0.48046723  0.79732777  0.72889887  1
  Na  Na13  1  0.51953277  0.20267223  0.22889887  1
  Na  Na14  1  0.51953277  0.29732777  0.72889887  1
  Na  Na15  1  0.48046723  0.70267223  0.22889887  1
  Na  Na16  1  0.53834586  0.96862761  0.88783190  1
  Na  Na17  1  0.46165414  0.03137239  0.38783190  1
  Na  Na18  1  0.46165414  0.46862761  0.88783190  1
  Na  Na19  1  0.53834586  0.53137239  0.38783190  1
  Na  Na20  1  0.50079588  0.88794212  0.54943704  1
  Na  Na21  1  0.49920412  0.11205788  0.04943704  1
  Na  Na22  1  0.49920412  0.38794212  0.54943704  1
  Na  Na23  1  0.50079588  0.61205788  0.04943704  1
  Dy  Dy0  1  0.92794889  0.61116334  0.80422770  1
  Dy  Dy1  1  0.07205111  0.38883666  0.30422770  1
  Dy  Dy2  1  0.07205111  0.11116334  0.80422770  1
  Dy  Dy3  1  0.92794889  0.88883666  0.30422770  1
  Dy  Dy4  1  0.55714908  0.63844522  0.57301157  1
  Dy  Dy5  1  0.44285092  0.36155478  0.07301157  1
  Dy  Dy6  1  0.44285092  0.13844522  0.57301157  1
  Dy  Dy7  1  0.55714908  0.86155478  0.07301157  1
  P  P0  1  0.96906853  0.47540422  0.98122110  1
  P  P1  1  0.03093147  0.52459578  0.48122110  1
  P  P2  1  0.03093147  0.97540422  0.98122110  1
  P  P3  1  0.96906853  0.02459578  0.48122110  1
  P  P4  1  0.99201927  0.22241028  0.65277382  1
  P  P5  1  0.00798073  0.77758972  0.15277382  1
  P  P6  1  0.00798073  0.72241028  0.65277382  1
  P  P7  1  0.99201927  0.27758972  0.15277382  1
  P  P8  1  0.47992561  0.52678234  0.72481560  1
  P  P9  1  0.52007439  0.47321766  0.22481560  1
  P  P10  1  0.52007439  0.02678234  0.72481560  1
  P  P11  1  0.47992561  0.97321766  0.22481560  1
  P  P12  1  0.46173207  0.72641506  0.89607001  1
  P  P13  1  0.53826793  0.27358494  0.39607001  1
  P  P14  1  0.53826793  0.22641506  0.89607001  1
  P  P15  1  0.46173207  0.77358494  0.39607001  1
  O  O0  1  0.57358293  0.80834709  0.85035344  1
  O  O1  1  0.42641707  0.19165291  0.35035344  1
  O  O2  1  0.42641707  0.30834709  0.85035344  1
  O  O3  1  0.57358293  0.69165291  0.35035344  1
  O  O4  1  0.69777252  0.47268744  0.76383957  1
  O  O5  1  0.30222748  0.52731256  0.26383957  1
  O  O6  1  0.30222748  0.97268744  0.76383957  1
  O  O7  1  0.69777252  0.02731256  0.26383957  1
  O  O8  1  0.87846514  0.88128382  0.99405166  1
  O  O9  1  0.12153486  0.11871618  0.49405166  1
  O  O10  1  0.12153486  0.38128382  0.99405166  1
  O  O11  1  0.87846514  0.61871618  0.49405166  1
  O  O12  1  0.79246385  0.77561093  0.61176147  1
  O  O13  1  0.20753615  0.22438907  0.11176147  1
  O  O14  1  0.20753615  0.27561093  0.61176147  1
  O  O15  1  0.79246385  0.72438907  0.11176147  1
  O  O16  1  0.68604165  0.45883915  0.00091054  1
  O  O17  1  0.31395835  0.54116085  0.50091054  1
  O  O18  1  0.31395835  0.95883915  0.00091054  1
  O  O19  1  0.68604165  0.04116085  0.50091054  1
  O  O20  1  0.91950026  0.44293525  0.52724136  1
  O  O21  1  0.08049974  0.55706475  0.02724136  1
  O  O22  1  0.08049974  0.94293525  0.52724136  1
  O  O23  1  0.91950026  0.05706475  0.02724136  1
  O  O24  1  0.77314065  0.00004452  0.76147083  1
  O  O25  1  0.22685935  0.99995548  0.26147083  1
  O  O26  1  0.22685935  0.50004452  0.76147083  1
  O  O27  1  0.77314065  0.49995548  0.26147083  1
  O  O28  1  0.61504786  0.63245914  0.88458267  1
  O  O29  1  0.38495214  0.36754086  0.38458267  1
  O  O30  1  0.38495214  0.13245914  0.88458267  1
  O  O31  1  0.61504786  0.86754086  0.38458267  1
  O  O32  1  0.53562820  0.63495386  0.73063763  1
  O  O33  1  0.46437180  0.36504614  0.23063763  1
  O  O34  1  0.46437180  0.13495386  0.73063763  1
  O  O35  1  0.53562820  0.86504614  0.23063763  1
  O  O36  1  0.95372436  0.61410086  0.64776418  1
  O  O37  1  0.04627564  0.38589914  0.14776418  1
  O  O38  1  0.04627564  0.11410086  0.64776418  1
  O  O39  1  0.95372436  0.88589914  0.14776418  1
  O  O40  1  0.81925710  0.20835894  0.87415218  1
  O  O41  1  0.18074290  0.79164106  0.37415218  1
  O  O42  1  0.18074290  0.70835894  0.87415218  1
  O  O43  1  0.81925710  0.29164106  0.37415218  1
  O  O44  1  0.99199767  0.25359563  0.73329147  1
  O  O45  1  0.00800233  0.74640437  0.23329147  1
  O  O46  1  0.00800233  0.75359563  0.73329147  1
  O  O47  1  0.99199767  0.24640437  0.23329147  1
  O  O48  1  0.52633402  0.99752030  0.64388701  1
  O  O49  1  0.47366598  0.00247970  0.14388701  1
  O  O50  1  0.47366598  0.49752030  0.64388701  1
  O  O51  1  0.52633402  0.50247970  0.14388701  1
  O  O52  1  0.00804915  0.99840965  0.89928353  1
  O  O53  1  0.99195085  0.00159035  0.39928353  1
  O  O54  1  0.99195085  0.49840965  0.89928353  1
  O  O55  1  0.00804915  0.50159035  0.39928353  1
  O  O56  1  0.26316335  0.74910730  0.61774891  1
  O  O57  1  0.73683665  0.25089270  0.11774891  1
  O  O58  1  0.73683665  0.24910730  0.61774891  1
  O  O59  1  0.26316335  0.75089270  0.11774891  1
  O  O60  1  0.46909233  0.74952338  0.97810531  1
  O  O61  1  0.53090767  0.25047662  0.47810531  1
  O  O62  1  0.53090767  0.24952338  0.97810531  1
  O  O63  1  0.46909233  0.75047662  0.47810531  1
loop_
_geom_bond_atom_site_label_1
_geom_bond_atom_site_label_2
_geom_bond_distance
_geom_bond_site_symmetry_2
Na0 O23 2.352891 1_556
Na0 O40 2.385007 1_555
Na0 O10 2.395492 1_655
Na0 O13 2.500528 1_656
Na0 O62 2.510968 1_555
Na0 O57 2.738181 1_556
Na0 O62 2.919285 1_655
Na1 O22 2.352891 1_555
Na1 O41 2.385007 1_555
Na1 O11 2.395492 1_455
Na1 O12 2.500528 1_455
Na1 O63 2.510968 1_555
Na1 O56 2.738181 1_555
Na1 O63 2.919285 1_455
Na2 O21 2.352891 1_556
Na2 O42 2.385007 1_555
Na2 O8 2.395492 1_455
Na2 O15 2.500528 1_456
Na2 O60 2.510968 1_555
Na2 O59 2.738181 1_556
Na2 O60 2.919285 1_455
Na3 O20 2.352891 1_555
Na3 O43 2.385007 1_555
Na3 O9 2.395492 1_655
Na3 O14 2.500528 1_655
Na3 O61 2.510968 1_555
Na3 O58 2.738181 1_555
Na3 O61 2.919285 1_655
Na4 O38 2.280202 1_665
Na4 O22 2.313863 1_655
Na4 O24 2.489667 1_565
Na4 O48 2.571912 1_555
Na4 O6 2.708051 1_655
Na4 O12 2.770472 1_555
Na4 O48 2.908411 1_655
Na5 O39 2.280202 1_445
Na5 O23 2.313863 1_455
Na5 O25 2.489667 1_545
Na5 O49 2.571912 1_555
Na5 O7 2.708051 1_455
Na5 O13 2.770472 1_555
Na5 O49 2.908411 1_455
Na6 O36 2.280202 1_455
Na6 O20 2.313863 1_455
Na6 O26 2.489667 1_555
Na6 O50 2.571912 1_555
Na6 O4 2.708051 1_455
Na6 O14 2.770472 1_555
Na6 O50 2.908411 1_455
Na7 O37 2.280202 1_655
Na7 O21 2.313863 1_655
Na7 O27 2.489667 1_555
Na7 O51 2.571912 1_555
Na7 O5 2.708051 1_655
Na7 O15 2.770472 1_555
Na7 O51 2.908411 1_655
Na8 O46 2.314000 1_655
Na8 O52 2.326643 1_655
Na8 O0 2.414680 1_555
Na8 O42 2.501751 1_655
Na8 O6 2.538799 1_655
Na8 O24 2.584949 1_565
Na9 O47 2.314000 1_455
Na9 O53 2.326643 1_455
Na9 O1 2.414680 1_555
Na9 O43 2.501751 1_455
Na9 O7 2.538799 1_455
Na9 O25 2.584949 1_545
Na10 O44 2.314000 1_455
Na10 O54 2.326643 1_455
Na10 O2 2.414680 1_555
Na10 O40 2.501751 1_455
Na10 O4 2.538799 1_455
Na10 O26 2.584949 1_555
Na11 O45 2.314000 1_655
Na11 O55 2.326643 1_655
Na11 O3 2.414680 1_555
Na11 O41 2.501751 1_655
Na11 O5 2.538799 1_655
Na11 O27 2.584949 1_555
Na12 O32 2.284124 1_555
Na12 O0 2.316223 1_555
Na12 O56 2.461580 1_555
Na12 O46 2.590620 1_555
Na12 O6 2.702988 1_555
Na12 O12 2.755489 1_555
Na12 O46 2.876383 1_655
Na13 O33 2.284124 1_555
Na13 O1 2.316223 1_555
Na13 O57 2.461580 1_555
Na13 O47 2.590620 1_555
Na13 O7 2.702988 1_555
Na13 O13 2.755489 1_555
Na13 O47 2.876383 1_455
Na14 O34 2.284124 1_555
Na14 O2 2.316223 1_555
Na14 O58 2.461580 1_555
Na14 O44 2.590620 1_555
Na14 O4 2.702988 1_555
Na14 O14 2.755489 1_555
Na14 O44 2.876383 1_455
Na15 O35 2.284124 1_555
Na15 O3 2.316223 1_555
Na15 O59 2.461580 1_555
Na15 O45 2.590620 1_555
Na15 O5 2.702988 1_555
Na15 O15 2.755489 1_555
Na15 O45 2.876383 1_655
Na16 O0 2.349223 1_555
Na16 O18 2.421517 1_556
Na16 O30 2.427659 1_565
Na16 O52 2.544916 1_655
Na16 O6 2.625883 1_555
Na16 O24 2.696526 1_565
Na16 O52 2.862787 1_555
Na16 O8 2.943342 1_555
Na17 O1 2.349223 1_555
Na17 O19 2.421517 1_555
Na17 O31 2.427659 1_545
Na17 O53 2.544916 1_455
Na17 O7 2.625883 1_555
Na17 O25 2.696526 1_545
Na17 O53 2.862787 1_555
Na17 O9 2.943342 1_555
Na18 O2 2.349223 1_555
Na18 O16 2.421517 1_556
Na18 O28 2.427659 1_555
Na18 O54 2.544916 1_455
Na18 O4 2.625883 1_555
Na18 O26 2.696526 1_555
Na18 O54 2.862787 1_555
Na18 O10 2.943342 1_555
Na19 O3 2.349223 1_555
Na19 O17 2.421517 1_555
Na19 O29 2.427659 1_555
Na19 O55 2.544916 1_655
Na19 O5 2.625883 1_555
Na19 O27 2.696526 1_555
Na19 O55 2.862787 1_555
Na19 O11 2.943342 1_555
Na20 O48 2.331553 1_555
Na20 O63 2.337259 1_555
Na20 O22 2.402058 1_555
Na20 O12 2.492019 1_555
Na20 O19 2.520830 1_565
Na20 O56 2.638972 1_555
Na21 O49 2.331553 1_555
Na21 O62 2.337259 1_554
Na21 O23 2.402058 1_555
Na21 O13 2.492019 1_555
Na21 O18 2.520830 1_545
Na21 O57 2.638972 1_555
Na22 O50 2.331553 1_555
Na22 O61 2.337259 1_555
Na22 O20 2.402058 1_555
Na22 O14 2.492019 1_555
Na22 O17 2.520830 1_555
Na22 O58 2.638972 1_555
Na23 O51 2.331553 1_555
Na23 O60 2.337259 1_554
Na23 O21 2.402058 1_555
Na23 O15 2.492019 1_555
Na23 O16 2.520830 1_555
Na23 O59 2.638972 1_555
Dy0 O28 2.257443 1_555
Dy0 O42 2.310815 1_655
Dy0 O26 2.359778 1_655
Dy0 O54 2.389743 1_555
Dy0 O4 2.407782 1_555
Dy0 O46 2.422214 1_655
Dy0 O32 2.519344 1_555
Dy1 O29 2.257443 1_555
Dy1 O43 2.310815 1_455
Dy1 O27 2.359778 1_455
Dy1 O55 2.389743 1_555
Dy1 O5 2.407782 1_555
Dy1 O47 2.422214 1_455
Dy1 O33 2.519344 1_555
Dy2 O30 2.257443 1_555
Dy2 O40 2.310815 1_455
Dy2 O24 2.359778 1_455
Dy2 O52 2.389743 1_545
Dy2 O6 2.407782 1_545
Dy2 O44 2.422214 1_455
Dy2 O34 2.519344 1_555
Dy3 O31 2.257443 1_555
Dy3 O41 2.310815 1_655
Dy3 O25 2.359778 1_655
Dy3 O53 2.389743 1_565
Dy3 O7 2.407782 1_565
Dy3 O45 2.422214 1_655
Dy3 O35 2.519344 1_555
Dy4 O11 2.271162 1_555
Dy4 O17 2.305402 1_555
Dy4 O56 2.350716 1_555
Dy4 O12 2.397961 1_555
Dy4 O63 2.402755 1_555
Dy4 O50 2.407686 1_555
Dy4 O36 2.550895 1_555
Dy5 O10 2.271162 1_554
Dy5 O16 2.305402 1_555
Dy5 O57 2.350716 1_555
Dy5 O13 2.397961 1_555
Dy5 O62 2.402755 1_554
Dy5 O51 2.407686 1_555
Dy5 O37 2.550895 1_555
Dy6 O9 2.271162 1_555
Dy6 O19 2.305402 1_555
Dy6 O58 2.350716 1_555
Dy6 O14 2.397961 1_555
Dy6 O61 2.402755 1_555
Dy6 O48 2.407686 1_545
Dy6 O38 2.550895 1_555
Dy7 O8 2.271162 1_554
Dy7 O18 2.305402 1_555
Dy7 O59 2.350716 1_555
Dy7 O15 2.397961 1_555
Dy7 O60 2.402755 1_554
Dy7 O49 2.407686 1_565
Dy7 O39 2.550895 1_555
O0 P12 1.543678 1_555
O1 P13 1.543678 1_555
O2 P14 1.543678 1_555
O3 P15 1.543678 1_555
O4 P8 1.562587 1_555
O5 P9 1.562587 1_555
O6 P10 1.562587 1_565
O7 P11 1.562587 1_545
O8 P2 1.562030 1_655
O9 P3 1.562030 1_455
O10 P0 1.562030 1_455
O11 P1 1.562030 1_655
O12 P6 1.565035 1_655
O13 P7 1.565035 1_455
O14 P4 1.565035 1_455
O15 P5 1.565035 1_655
O16 P0 1.568358 1_554
O17 P1 1.568358 1_555
O18 P2 1.568358 1_554
O19 P3 1.568358 1_555
O20 P1 1.543135 1_655
O21 P0 1.543135 1_454
O22 P3 1.543135 1_465
O23 P2 1.543135 1_644
O24 P10 1.555635 1_555
O25 P11 1.555635 1_555
O26 P8 1.555635 1_555
O27 P9 1.555635 1_555
O28 P12 1.558847 1_555
O29 P13 1.558847 1_555
O30 P14 1.558847 1_555
O31 P15 1.558847 1_555
O32 P8 1.541556 1_555
O33 P9 1.541556 1_555
O34 P10 1.541556 1_555
O35 P11 1.541556 1_555
O36 P6 1.540990 1_655
O37 P7 1.540990 1_455
O38 P4 1.540990 1_455
O39 P5 1.540990 1_655
O40 P14 1.571373 1_555
O41 P15 1.571373 1_555
O42 P12 1.571373 1_555
O43 P13 1.571373 1_555
O44 P4 1.558391 1_555
O45 P5 1.558391 1_555
O46 P6 1.558391 1_555
O47 P7 1.558391 1_555
O48 P10 1.558842 1_565
O49 P11 1.558842 1_545
O50 P8 1.558842 1_555
O51 P9 1.558842 1_555
O52 P2 1.561046 1_555
O53 P3 1.561046 1_555
O54 P0 1.561046 1_555
O55 P1 1.561046 1_555
O56 P6 1.552329 1_555
O57 P7 1.552329 1_555
O58 P4 1.552329 1_555
O59 P5 1.552329 1_555
O60 P12 1.558848 1_555
O61 P13 1.558848 1_555
O62 P14 1.558848 1_555
O63 P15 1.558848 1_555
