# generated using pymatgen
data_Pr7C3Br10
_symmetry_space_group_name_H-M   'P 1'
_cell_length_a   9.17957387
_cell_length_b   11.11696329
_cell_length_c   13.47866267
_cell_angle_alpha   86.20884270
_cell_angle_beta   107.73145564
_cell_angle_gamma   113.31379155
_symmetry_Int_Tables_number   1
_chemical_formula_structural   Pr7C3Br10
_chemical_formula_sum   'Pr14 C6 Br20'
_cell_volume   1200.83906144
_cell_formula_units_Z   2
loop_
 _symmetry_equiv_pos_site_id
 _symmetry_equiv_pos_as_xyz
  1  'x, y, z'
loop_
 _atom_site_type_symbol
 _atom_site_label
 _atom_site_symmetry_multiplicity
 _atom_site_fract_x
 _atom_site_fract_y
 _atom_site_fract_z
 _atom_site_occupancy
  Pr  Pr0  1  0.59317188  0.21898141  0.57834522  1
  Pr  Pr1  1  0.40682812  0.78101859  0.42165478  1
  Pr  Pr2  1  0.94100357  0.38271643  0.82055134  1
  Pr  Pr3  1  0.05899643  0.61728357  0.17944866  1
  Pr  Pr4  1  0.68702108  0.45204350  0.92106219  1
  Pr  Pr5  1  0.31297892  0.54795650  0.07893781  1
  Pr  Pr6  1  0.07164233  0.75614565  0.89874683  1
  Pr  Pr7  1  0.92835767  0.24385435  0.10125317  1
  Pr  Pr8  1  0.30487496  0.41660013  0.36329961  1
  Pr  Pr9  1  0.69512504  0.58339987  0.63670039  1
  Pr  Pr10  1  0.68028669  0.70847753  0.31176113  1
  Pr  Pr11  1  0.31971331  0.29152247  0.68823887  1
  Pr  Pr12  1  0.46870758  0.93594736  0.16938614  1
  Pr  Pr13  1  0.53129242  0.06405264  0.83061386  1
  C  C0  1  0.60468612  0.26948596  0.76702990  1
  C  C1  1  0.39531388  0.73051404  0.23297010  1
  C  C2  1  0.98156648  0.43943624  0.02270463  1
  C  C3  1  0.01843352  0.56056376  0.97729537  1
  C  C4  1  0.64220796  0.39043278  0.72147637  1
  C  C5  1  0.35779204  0.60956722  0.27852363  1
  Br  Br0  1  0.67147860  0.45438643  0.43437272  1
  Br  Br1  1  0.32852140  0.54561357  0.56562728  1
  Br  Br2  1  0.05947996  0.63638461  0.70201720  1
  Br  Br3  1  0.94052004  0.36361539  0.29798280  1
  Br  Br4  1  0.94358298  0.25350041  0.62558943  1
  Br  Br5  1  0.05641702  0.74649959  0.37441057  1
  Br  Br6  1  0.71631369  0.72080494  0.82911342  1
  Br  Br7  1  0.28368631  0.27919506  0.17088658  1
  Br  Br8  1  0.31853388  0.42081065  0.87806292  1
  Br  Br9  1  0.68146612  0.57918935  0.12193708  1
  Br  Br10  1  0.55815155  0.18999768  0.03524915  1
  Br  Br11  1  0.44184845  0.81000232  0.96475085  1
  Br  Br12  1  0.51839696  0.06486843  0.36627706  1
  Br  Br13  1  0.48160304  0.93513157  0.63372294  1
  Br  Br14  1  0.89049311  0.10382312  0.90684402  1
  Br  Br15  1  0.10950689  0.89617688  0.09315598  1
  Br  Br16  1  0.17769755  0.02509010  0.77437641  1
  Br  Br17  1  0.82230245  0.97490990  0.22562359  1
  Br  Br18  1  0.22817162  0.15501528  0.48321920  1
  Br  Br19  1  0.77182838  0.84498472  0.51678080  1
loop_
_geom_bond_atom_site_label_1
_geom_bond_atom_site_label_2
_geom_bond_distance
_geom_bond_site_symmetry_2
C0 C4 1.398768 1_555
C0 Pr13 2.297629 1_555
C0 Pr0 2.602399 1_555
C0 Pr11 2.609905 1_555
C0 Pr2 2.706203 1_555
C0 Pr4 2.718037 1_555
C1 C5 1.398768 1_555
C1 Pr12 2.297629 1_555
C1 Pr1 2.602399 1_555
C1 Pr10 2.609905 1_555
C1 Pr3 2.706203 1_555
C1 Pr5 2.718037 1_555
C2 C3 1.399594 1_654
C2 Pr7 2.292799 1_555
C2 Pr5 2.663903 1_655
C2 Pr4 2.688005 1_554
C2 Pr2 2.717336 1_554
C2 Pr3 2.720860 1_655
C3 Pr6 2.292799 1_555
C3 Pr4 2.663903 1_455
C3 Pr5 2.688005 1_556
C3 Pr3 2.717336 1_556
C3 Pr2 2.720860 1_455
C4 Pr9 2.309261 1_555
C4 Pr0 2.614500 1_555
C4 Pr11 2.618068 1_555
C4 Pr4 2.687345 1_555
C4 Pr2 2.693279 1_555
C5 Pr8 2.309261 1_555
C5 Pr1 2.614500 1_555
C5 Pr10 2.618068 1_555
C5 Pr5 2.687345 1_555
C5 Pr3 2.693279 1_555
Br0 Pr8 3.064274 1_555
Br0 Pr9 3.074330 1_555
Br0 Pr0 3.133719 1_555
Br0 Pr10 3.162292 1_555
Br1 Pr9 3.064274 1_555
Br1 Pr8 3.074330 1_555
Br1 Pr1 3.133719 1_555
Br1 Pr11 3.162292 1_555
Br2 Pr6 2.997527 1_555
Br2 Pr9 3.004024 1_455
Br2 Pr2 3.118152 1_455
Br3 Pr7 2.997527 1_555
Br3 Pr8 3.004024 1_655
Br3 Pr3 3.118152 1_655
Br4 Pr0 2.950772 1_555
Br4 Pr2 3.087643 1_555
Br4 Pr11 3.151044 1_655
Br5 Pr1 2.950772 1_555
Br5 Pr3 3.087643 1_555
Br5 Pr10 3.151044 1_455
Br6 Pr6 2.973899 1_655
Br6 Pr9 3.013090 1_555
Br6 Pr4 3.100434 1_555
Br7 Pr7 2.973899 1_455
Br7 Pr8 3.013090 1_555
Br7 Pr5 3.100434 1_555
Br8 Pr11 3.021212 1_555
Br8 Pr4 3.130654 1_555
Br8 Pr5 3.158866 1_556
Br8 Pr2 3.167932 1_455
Br9 Pr10 3.021212 1_555
Br9 Pr5 3.130654 1_555
Br9 Pr4 3.158866 1_554
Br9 Pr3 3.167932 1_655
Br10 Pr7 3.052379 1_555
Br10 Pr13 3.074424 1_554
Br10 Pr4 3.169070 1_554
Br10 Pr12 3.211374 1_545
Br11 Pr6 3.052379 1_555
Br11 Pr12 3.074424 1_556
Br11 Pr5 3.169070 1_556
Br11 Pr13 3.211374 1_565
Br12 Pr12 2.924576 1_545
Br12 Pr1 3.026487 1_545
Br12 Pr0 3.177821 1_555
Br13 Pr13 2.924576 1_565
Br13 Pr0 3.026487 1_565
Br13 Pr1 3.177821 1_555
Br14 Pr13 2.994323 1_555
Br14 Pr7 2.994484 1_556
Br14 Pr2 3.145522 1_555
Br15 Pr12 2.994323 1_555
Br15 Pr6 2.994484 1_554
Br15 Pr3 3.145522 1_555
Br16 Pr13 2.954602 1_555
Br16 Pr11 3.038297 1_555
Br16 Pr6 3.274818 1_545
Br17 Pr12 2.954602 1_555
Br17 Pr10 3.038297 1_555
Br17 Pr7 3.274818 1_565
Br18 Pr11 2.962458 1_555
Br18 Pr0 2.998956 1_555
Br18 Pr8 3.164796 1_555
Br19 Pr10 2.962458 1_555
Br19 Pr1 2.998956 1_555
Br19 Pr9 3.164796 1_555
