# generated using pymatgen
data_K3CoPCO7
_symmetry_space_group_name_H-M   'P 1'
_cell_length_a   8.98166747
_cell_length_b   8.97978585
_cell_length_c   9.57230549
_cell_angle_alpha   89.90814116
_cell_angle_beta   89.94149868
_cell_angle_gamma   101.87634642
_symmetry_Int_Tables_number   1
_chemical_formula_structural   K3CoPCO7
_chemical_formula_sum   'K12 Co4 P4 C4 O28'
_cell_volume   755.51152212
_cell_formula_units_Z   4
loop_
 _symmetry_equiv_pos_site_id
 _symmetry_equiv_pos_as_xyz
  1  'x, y, z'
loop_
 _atom_site_type_symbol
 _atom_site_label
 _atom_site_symmetry_multiplicity
 _atom_site_fract_x
 _atom_site_fract_y
 _atom_site_fract_z
 _atom_site_occupancy
  K  K0  1  0.50251100  0.25535600  0.06955100  1
  K  K1  1  0.00387300  0.75071100  0.07030800  1
  K  K2  1  0.49760100  0.74462800  0.93042000  1
  K  K3  1  0.99592000  0.24951100  0.92985400  1
  K  K4  1  0.13429800  0.12363400  0.29143700  1
  K  K5  1  0.63291200  0.62257100  0.29380100  1
  K  K6  1  0.37418200  0.88400200  0.29148600  1
  K  K7  1  0.87228700  0.38398300  0.29440000  1
  K  K8  1  0.62585200  0.11610500  0.70827700  1
  K  K9  1  0.12767100  0.61602100  0.70590300  1
  K  K10  1  0.86562300  0.87674300  0.70865100  1
  K  K11  1  0.36707900  0.37711700  0.70621600  1
  Co  Co0  1  0.25378600  0.50435700  0.35141300  1
  Co  Co1  1  0.74634000  0.49580200  0.64860600  1
  Co  Co2  1  0.75445300  0.00437800  0.34983900  1
  Co  Co3  1  0.24549800  0.99542000  0.65018500  1
  P  P0  1  0.49527100  0.24374100  0.41936000  1
  P  P1  1  0.99432900  0.74625700  0.41974900  1
  P  P2  1  0.50470900  0.75610700  0.58054400  1
  P  P3  1  0.00564200  0.25381900  0.58024300  1
  C  C0  1  0.74690900  0.99760000  0.08263000  1
  C  C1  1  0.24694300  0.49749400  0.08422100  1
  C  C2  1  0.25306300  0.00237200  0.91737800  1
  C  C3  1  0.75316100  0.50255000  0.91574300  1
  O  O0  1  0.25612000  0.00528000  0.05198500  1
  O  O1  1  0.75549200  0.50492400  0.05022800  1
  O  O2  1  0.74383800  0.99485600  0.94801700  1
  O  O3  1  0.24457600  0.49501000  0.94972600  1
  O  O4  1  0.84362900  0.10036700  0.15161400  1
  O  O5  1  0.34991400  0.59362000  0.15381300  1
  O  O6  1  0.15639000  0.89950100  0.84848400  1
  O  O7  1  0.65071300  0.40593200  0.84609500  1
  O  O8  1  0.65324700  0.89743500  0.15804100  1
  O  O9  1  0.14648200  0.40387800  0.15941700  1
  O  O10  1  0.34672400  0.10246800  0.84190800  1
  O  O11  1  0.85314100  0.59678000  0.84063600  1
  O  O12  1  0.37392600  0.12003300  0.49469300  1
  O  O13  1  0.86969700  0.62399900  0.49302500  1
  O  O14  1  0.62614600  0.87989600  0.50551600  1
  O  O15  1  0.13021700  0.37555600  0.50633000  1
  O  O16  1  0.40447200  0.65590600  0.46999100  1
  O  O17  1  0.90639100  0.15463500  0.46859800  1
  O  O18  1  0.59565400  0.34416100  0.52972800  1
  O  O19  1  0.09306300  0.84518000  0.53195600  1
  O  O20  1  0.41308400  0.34391300  0.32539200  1
  O  O21  1  0.91514000  0.84735900  0.32393000  1
  O  O22  1  0.59556600  0.16356900  0.32366100  1
  O  O23  1  0.09562000  0.66492000  0.32630100  1
  O  O24  1  0.40431000  0.83612000  0.67631500  1
  O  O25  1  0.90488200  0.33583200  0.67369500  1
  O  O26  1  0.58675700  0.65570700  0.67447400  1
  O  O27  1  0.08489300  0.15288300  0.67621600  1
loop_
_geom_bond_atom_site_label_1
_geom_bond_atom_site_label_2
_geom_bond_distance
_geom_bond_site_symmetry_2
K0 O7 2.723873 1_554
K0 O20 2.745940 1_555
K0 O22 2.752421 1_555
K0 O10 2.795741 1_554
K0 O0 2.815136 1_555
K0 O1 2.849796 1_555
K1 O6 2.720660 1_554
K1 O23 2.745282 1_555
K1 O21 2.751332 1_455
K1 O11 2.796863 1_454
K1 O1 2.803695 1_455
K1 O0 2.873250 1_565
K2 O5 2.723155 1_556
K2 O26 2.747132 1_555
K2 O24 2.752201 1_555
K2 O8 2.794787 1_556
K2 O2 2.815163 1_555
K2 O3 2.850316 1_555
K3 O4 2.720598 1_556
K3 O25 2.746048 1_555
K3 O27 2.752163 1_655
K3 O9 2.797010 1_656
K3 O3 2.803510 1_655
K3 O2 2.872724 1_545
K4 O17 2.715233 1_455
K4 O9 2.796087 1_555
K4 O0 2.839333 1_555
K4 O21 2.848235 1_445
K4 O20 2.872849 1_555
K4 O4 2.904183 1_455
K4 O12 2.907874 1_555
K4 O15 3.065804 1_555
K5 O16 2.718668 1_555
K5 O8 2.760062 1_555
K5 O5 2.839016 1_555
K5 O13 2.856052 1_555
K5 O20 2.866016 1_555
K5 O1 2.871543 1_555
K5 O21 2.912149 1_555
K5 O14 3.085905 1_555
K6 O16 2.721785 1_555
K6 O8 2.792338 1_555
K6 O0 2.835253 1_565
K6 O23 2.865551 1_555
K6 O12 2.879441 1_565
K6 O22 2.880983 1_565
K6 O5 2.891593 1_555
K6 O14 3.060029 1_555
K7 O17 2.713948 1_555
K7 O9 2.752841 1_655
K7 O22 2.853992 1_555
K7 O4 2.857040 1_555
K7 O1 2.865063 1_555
K7 O13 2.880009 1_555
K7 O23 2.898627 1_655
K7 O15 3.093424 1_655
K7 O18 3.316003 1_555
K8 O18 2.721560 1_555
K8 O10 2.793394 1_555
K8 O2 2.836673 1_545
K8 O25 2.871308 1_555
K8 O14 2.877785 1_545
K8 O24 2.884225 1_545
K8 O7 2.887231 1_555
K8 O12 3.056655 1_555
K9 O19 2.712374 1_555
K9 O11 2.755084 1_455
K9 O24 2.852305 1_555
K9 O6 2.854981 1_555
K9 O3 2.863064 1_555
K9 O15 2.888978 1_555
K9 O25 2.891549 1_455
K10 O19 2.710513 1_655
K10 O11 2.793296 1_555
K10 O2 2.837531 1_555
K10 O27 2.847807 1_665
K10 O26 2.877086 1_555
K10 O14 2.905440 1_555
K10 O6 2.905523 1_655
K10 O13 3.075982 1_555
K11 O18 2.720474 1_555
K11 O10 2.758037 1_555
K11 O7 2.843647 1_555
K11 O15 2.860630 1_555
K11 O26 2.865034 1_555
K11 O3 2.871728 1_555
K11 O27 2.909195 1_555
K11 O12 3.083190 1_555
Co0 O16 2.054769 1_555
Co0 O15 2.057019 1_555
Co0 O5 2.161625 1_555
Co0 O9 2.184409 1_555
Co0 O23 2.235478 1_555
Co0 O20 2.243607 1_555
Co1 O18 2.056797 1_555
Co1 O13 2.058362 1_555
Co1 O7 2.160826 1_555
Co1 O11 2.184531 1_555
Co1 O25 2.233926 1_555
Co1 O26 2.241676 1_555
Co2 O17 2.055565 1_555
Co2 O14 2.063775 1_545
Co2 O4 2.166190 1_555
Co2 O8 2.183798 1_545
Co2 O21 2.229465 1_545
Co2 O22 2.232049 1_555
Co3 O19 2.055045 1_555
Co3 O12 2.063486 1_565
Co3 O6 2.166433 1_555
Co3 O10 2.183588 1_565
Co3 O27 2.232078 1_565
Co3 O24 2.232233 1_555
C0 O2 1.289047 1_554
C0 O4 1.309756 1_565
C0 O8 1.312642 1_555
C1 O3 1.287778 1_554
C1 O5 1.311001 1_555
C1 O9 1.312817 1_555
C2 O0 1.289012 1_556
C2 O6 1.309634 1_545
C2 O10 1.312605 1_555
C3 O1 1.287662 1_556
C3 O7 1.310885 1_555
C3 O11 1.312722 1_555
O12 P0 1.561848 1_555
O13 P1 1.562186 1_555
O14 P2 1.561376 1_555
O15 P3 1.562044 1_555
O16 P2 1.552933 1_555
O17 P3 1.551852 1_655
O18 P0 1.553238 1_555
O19 P1 1.552389 1_455
O20 P0 1.560511 1_555
O21 P1 1.560713 1_555
O22 P0 1.560863 1_555
O23 P1 1.560520 1_455
O24 P2 1.561066 1_555
O25 P3 1.560895 1_655
O26 P2 1.560942 1_555
O27 P3 1.560896 1_555
