# generated using pymatgen
data_YbZnGa
_symmetry_space_group_name_H-M   'P 1'
_cell_length_a   5.69253567
_cell_length_b   5.69253567
_cell_length_c   7.19117634
_cell_angle_alpha   51.46530431
_cell_angle_beta   51.46530431
_cell_angle_gamma   46.70268445
_symmetry_Int_Tables_number   1
_chemical_formula_structural   YbZnGa
_chemical_formula_sum   'Yb2 Zn2 Ga2'
_cell_volume   124.57759237
_cell_formula_units_Z   2
loop_
 _symmetry_equiv_pos_site_id
 _symmetry_equiv_pos_as_xyz
  1  'x, y, z'
loop_
 _atom_site_type_symbol
 _atom_site_label
 _atom_site_symmetry_multiplicity
 _atom_site_fract_x
 _atom_site_fract_y
 _atom_site_fract_z
 _atom_site_occupancy
  Yb  Yb0  1  0.53593500  0.53593500  0.71141600  1
  Yb  Yb1  1  0.46406500  0.46406500  0.28858400  1
  Zn  Zn0  1  0.16540000  0.16540000  0.28598600  1
  Zn  Zn1  1  0.83460000  0.83460000  0.71401400  1
  Ga  Ga0  1  0.83505200  0.83505200  0.11697500  1
  Ga  Ga1  1  0.16494800  0.16494800  0.88302500  1
loop_
_geom_bond_atom_site_label_1
_geom_bond_atom_site_label_2
_geom_bond_distance
_geom_bond_site_symmetry_2
Yb0 Zn1 3.076821 1_455
Yb0 Zn1 3.076821 1_545
Yb0 Zn1 3.134515 1_555
Yb0 Zn0 3.217844 1_556
Yb0 Zn0 3.265475 1_565
Yb0 Zn0 3.265475 1_655
Yb1 Zn0 3.076821 1_565
Yb1 Zn0 3.076821 1_655
Yb1 Zn0 3.134515 1_555
Yb1 Zn1 3.217844 1_554
Yb1 Zn1 3.265475 1_545
Yb1 Zn1 3.265475 1_455
Zn0 Zn1 2.643116 1_445
Ga0 Zn0 2.605351 1_565
Ga0 Zn0 2.605351 1_655
Ga0 Ga1 2.616815 1_664
Ga0 Zn1 2.900972 1_554
Ga0 Yb0 3.113652 1_654
Ga0 Yb0 3.113652 1_564
Ga0 Yb0 3.148057 1_555
Ga0 Yb1 3.172608 1_555
Ga0 Yb1 3.269708 1_565
Ga0 Yb1 3.269708 1_655
Ga1 Zn1 2.605351 1_455
Ga1 Zn1 2.605351 1_545
Ga1 Zn0 2.900972 1_556
Ga1 Yb1 3.113652 1_546
Ga1 Yb1 3.113652 1_456
Ga1 Yb1 3.148057 1_555
Ga1 Yb0 3.172608 1_555
Ga1 Yb0 3.269708 1_455
Ga1 Yb0 3.269708 1_545
