# generated using pymatgen
data_AgH7CN8O7
_symmetry_space_group_name_H-M   'P 1'
_cell_length_a   22.49511900
_cell_length_b   6.52003500
_cell_length_c   7.38262579
_cell_angle_alpha   88.02067914
_cell_angle_beta   90.00000000
_cell_angle_gamma   90.00000000
_symmetry_Int_Tables_number   1
_chemical_formula_structural   AgH7CN8O7
_chemical_formula_sum   'Ag4 H28 C4 N32 O28'
_cell_volume   1082.15602440
_cell_formula_units_Z   4
loop_
 _symmetry_equiv_pos_site_id
 _symmetry_equiv_pos_as_xyz
  1  'x, y, z'
loop_
 _atom_site_type_symbol
 _atom_site_label
 _atom_site_symmetry_multiplicity
 _atom_site_fract_x
 _atom_site_fract_y
 _atom_site_fract_z
 _atom_site_occupancy
  Ag  Ag0  1  0.71783200  0.74911800  0.58113700  1
  Ag  Ag1  1  0.21783200  0.75088200  0.41886300  1
  Ag  Ag2  1  0.28216800  0.25088200  0.41886300  1
  Ag  Ag3  1  0.78216800  0.24911800  0.58113700  1
  H  H0  1  0.68485700  0.90778000  0.93233800  1
  H  H1  1  0.18485700  0.59222000  0.06766200  1
  H  H2  1  0.31514300  0.09222000  0.06766200  1
  H  H3  1  0.81514300  0.40778000  0.93233800  1
  H  H4  1  0.69365500  0.65866000  0.96424300  1
  H  H5  1  0.19365500  0.84134000  0.03575700  1
  H  H6  1  0.30634500  0.34134000  0.03575700  1
  H  H7  1  0.80634500  0.15866000  0.96424300  1
  H  H8  1  0.59360500  0.73271400  0.99616500  1
  H  H9  1  0.09360500  0.76728600  0.00383500  1
  H  H10  1  0.40639500  0.26728600  0.00383500  1
  H  H11  1  0.90639500  0.23271400  0.99616500  1
  H  H12  1  0.41869500  0.73602900  0.09558400  1
  H  H13  1  0.91869500  0.76397100  0.90441600  1
  H  H14  1  0.58130500  0.26397100  0.90441600  1
  H  H15  1  0.08130500  0.23602900  0.09558400  1
  H  H16  1  0.50040600  0.72625400  0.61239100  1
  H  H17  1  0.00040600  0.77374600  0.38760900  1
  H  H18  1  0.49959400  0.27374600  0.38760900  1
  H  H19  1  0.99959400  0.22625400  0.61239100  1
  H  H20  1  0.48230400  0.77295800  0.17305000  1
  H  H21  1  0.98230400  0.72704200  0.82695000  1
  H  H22  1  0.51769600  0.22704200  0.82695000  1
  H  H23  1  0.01769600  0.27295800  0.17305000  1
  H  H24  1  0.50162800  0.73300900  0.85280200  1
  H  H25  1  0.00162800  0.76699100  0.14719800  1
  H  H26  1  0.49837200  0.26699100  0.14719800  1
  H  H27  1  0.99837200  0.23300900  0.85280200  1
  C  C0  1  0.58247700  0.74314300  0.71772500  1
  C  C1  1  0.08247700  0.75685700  0.28227500  1
  C  C2  1  0.41752300  0.25685700  0.28227500  1
  C  C3  1  0.91752300  0.24314300  0.71772500  1
  N  N0  1  0.61438400  0.73842600  0.87296400  1
  N  N1  1  0.11438400  0.76157400  0.12703600  1
  N  N2  1  0.38561600  0.26157400  0.12703600  1
  N  N3  1  0.88561600  0.23842600  0.87296400  1
  N  N4  1  0.85316600  0.75549900  0.54931700  1
  N  N5  1  0.35316600  0.74450100  0.45068300  1
  N  N6  1  0.14683400  0.24450100  0.45068300  1
  N  N7  1  0.64683400  0.25549900  0.54931700  1
  N  N8  1  0.52382500  0.72817900  0.73012300  1
  N  N9  1  0.02382500  0.77182100  0.26987700  1
  N  N10  1  0.47617500  0.27182100  0.26987700  1
  N  N11  1  0.97617500  0.22817900  0.73012300  1
  N  N12  1  0.61572800  0.76273600  0.56252700  1
  N  N13  1  0.11572800  0.73726400  0.43747300  1
  N  N14  1  0.38427200  0.23726400  0.43747300  1
  N  N15  1  0.88427200  0.26273600  0.56252700  1
  N  N16  1  0.67614100  0.76844500  0.87731100  1
  N  N17  1  0.17614100  0.73155500  0.12268900  1
  N  N18  1  0.32385900  0.23155500  0.12268900  1
  N  N19  1  0.82385900  0.26844500  0.87731100  1
  N  N20  1  0.80996700  0.72672000  0.25693700  1
  N  N21  1  0.30996700  0.77328000  0.74306300  1
  N  N22  1  0.19003300  0.27328000  0.74306300  1
  N  N23  1  0.69003300  0.22672000  0.25693700  1
  N  N24  1  0.58910300  0.76611000  0.39868900  1
  N  N25  1  0.08910300  0.73389000  0.60131100  1
  N  N26  1  0.41089700  0.23389000  0.60131100  1
  N  N27  1  0.91089700  0.26611000  0.39868900  1
  N  N28  1  0.80253500  0.72369000  0.44687600  1
  N  N29  1  0.30253500  0.77631000  0.55312400  1
  N  N30  1  0.19746500  0.27631000  0.55312400  1
  N  N31  1  0.69746500  0.22369000  0.44687600  1
  O  O0  1  0.53378900  0.74116500  0.38114800  1
  O  O1  1  0.03378900  0.75883500  0.61885200  1
  O  O2  1  0.46621100  0.25883500  0.61885200  1
  O  O3  1  0.96621100  0.24116500  0.38114800  1
  O  O4  1  0.62274000  0.79384300  0.26551800  1
  O  O5  1  0.12274000  0.70615700  0.73448200  1
  O  O6  1  0.37726000  0.20615700  0.73448200  1
  O  O7  1  0.87726000  0.29384300  0.26551800  1
  O  O8  1  0.90410300  0.74863800  0.48684600  1
  O  O9  1  0.40410300  0.75136200  0.51315400  1
  O  O10  1  0.09589700  0.25136200  0.51315400  1
  O  O11  1  0.59589700  0.24863800  0.48684600  1
  O  O12  1  0.77054800  0.62990100  0.17812100  1
  O  O13  1  0.27054800  0.87009900  0.82187900  1
  O  O14  1  0.22945200  0.37009900  0.82187900  1
  O  O15  1  0.72945200  0.12990100  0.17812100  1
  O  O16  1  0.84154000  0.77859200  0.71403400  1
  O  O17  1  0.34154000  0.72140800  0.28596600  1
  O  O18  1  0.15846000  0.22140800  0.28596600  1
  O  O19  1  0.65846000  0.27859200  0.71403400  1
  O  O20  1  0.85027400  0.82627200  0.18232400  1
  O  O21  1  0.35027400  0.67372800  0.81767600  1
  O  O22  1  0.14972600  0.17372800  0.81767600  1
  O  O23  1  0.64972600  0.32627200  0.18232400  1
  O  O24  1  0.45960000  0.76797500  0.05991900  1
  O  O25  1  0.95960000  0.73202500  0.94008100  1
  O  O26  1  0.54040000  0.23202500  0.94008100  1
  O  O27  1  0.04040000  0.26797500  0.05991900  1
loop_
_geom_bond_atom_site_label_1
_geom_bond_atom_site_label_2
_geom_bond_distance
_geom_bond_site_symmetry_2
Ag0 N28 2.156821 1_555
Ag0 N12 2.302477 1_555
Ag0 N16 2.386510 1_555
Ag1 N29 2.156821 1_555
Ag1 N13 2.302477 1_555
Ag1 N17 2.386510 1_555
Ag2 N30 2.156821 1_555
Ag2 N14 2.302477 1_555
Ag2 N18 2.386510 1_555
Ag3 N31 2.156821 1_555
Ag3 N15 2.302477 1_555
Ag3 N19 2.386510 1_555
H0 N16 1.026784 1_555
H1 N17 1.026784 1_555
H2 N18 1.026784 1_555
H3 N19 1.026784 1_555
H4 N16 1.023596 1_555
H5 N17 1.023596 1_555
H6 N18 1.023596 1_555
H7 N19 1.023596 1_555
H8 N0 1.022159 1_555
H9 N1 1.022159 1_555
H10 N2 1.022159 1_555
H11 N3 1.022159 1_555
H12 O24 0.977560 1_555
H13 O25 0.977560 1_555
H14 O26 0.977560 1_555
H15 O27 0.977560 1_555
H16 N8 1.016810 1_555
H17 N9 1.016810 1_555
H18 N10 1.016810 1_555
H19 N11 1.016810 1_555
H20 O24 0.980479 1_555
H21 O25 0.980479 1_555
H22 O26 0.980479 1_555
H23 O27 0.980479 1_555
H24 N8 1.035648 1_555
H25 N9 1.035648 1_555
H26 N10 1.035648 1_555
H27 N11 1.035648 1_555
C0 N8 1.325916 1_555
C0 N0 1.351724 1_555
C0 N12 1.370575 1_555
C1 N9 1.325916 1_555
C1 N1 1.351724 1_555
C1 N13 1.370575 1_555
C2 N10 1.325916 1_555
C2 N2 1.351724 1_555
C2 N14 1.370575 1_555
C3 N11 1.325916 1_555
C3 N3 1.351724 1_555
C3 N15 1.370575 1_555
N0 N16 1.403472 1_555
N1 N17 1.403472 1_555
N4 O8 1.236554 1_555
N4 O16 1.257966 1_555
N5 O9 1.236554 1_555
N5 O17 1.257966 1_555
N6 O10 1.236554 1_555
N6 O18 1.257966 1_555
N7 O11 1.236554 1_555
N7 O19 1.257966 1_555
N12 N24 1.349218 1_555
N13 N25 1.349218 1_555
N14 N26 1.349218 1_555
N15 N27 1.349218 1_555
N18 N2 1.403472 1_555
N19 N3 1.403472 1_555
N20 O20 1.233758 1_555
N20 O12 1.244483 1_555
N20 N28 1.411640 1_555
N21 O21 1.233758 1_555
N21 O13 1.244483 1_555
N21 N29 1.411640 1_555
N22 O22 1.233758 1_555
N22 O14 1.244483 1_555
N22 N30 1.411640 1_555
N23 O23 1.233758 1_555
N23 O15 1.244483 1_555
N23 N31 1.411640 1_555
N24 O4 1.248819 1_555
N24 O0 1.262120 1_555
N25 O5 1.248819 1_555
N25 O1 1.262120 1_555
N26 O6 1.248819 1_555
N26 O2 1.262120 1_555
N27 O7 1.248819 1_555
N27 O3 1.262120 1_555
N28 N4 1.386730 1_555
N29 N5 1.386730 1_555
N30 N6 1.386730 1_555
N31 N7 1.386730 1_555
