# generated using pymatgen
data_CoH7C3NO6
_symmetry_space_group_name_H-M   'P 1'
_cell_length_a   12.72558261
_cell_length_b   12.72558261
_cell_length_c   8.33185200
_cell_angle_alpha   90.00000000
_cell_angle_beta   90.00000000
_cell_angle_gamma   120.00000320
_symmetry_Int_Tables_number   1
_chemical_formula_structural   CoH7C3NO6
_chemical_formula_sum   'Co6 H42 C18 N6 O36'
_cell_volume   1168.49676429
_cell_formula_units_Z   6
loop_
 _symmetry_equiv_pos_site_id
 _symmetry_equiv_pos_as_xyz
  1  'x, y, z'
loop_
 _atom_site_type_symbol
 _atom_site_label
 _atom_site_symmetry_multiplicity
 _atom_site_fract_x
 _atom_site_fract_y
 _atom_site_fract_z
 _atom_site_occupancy
  Co  Co0  1  0.00379500  0.33564200  0.58691900  1
  Co  Co1  1  0.33184700  0.99620500  0.58691900  1
  Co  Co2  1  0.66435800  0.66815300  0.58691900  1
  Co  Co3  1  0.99620500  0.66435800  0.08691900  1
  Co  Co4  1  0.66815300  0.00379500  0.08691900  1
  Co  Co5  1  0.33564200  0.33184700  0.08691900  1
  H  H0  1  0.13289000  0.27419200  0.32555900  1
  H  H1  1  0.14130100  0.86711000  0.32555900  1
  H  H2  1  0.72580800  0.85869900  0.32555900  1
  H  H3  1  0.86711000  0.72580800  0.82555900  1
  H  H4  1  0.85869900  0.13289000  0.82555900  1
  H  H5  1  0.27419200  0.14130100  0.82555900  1
  H  H6  1  0.05676100  0.51091700  0.30739200  1
  H  H7  1  0.45415600  0.94323900  0.30739200  1
  H  H8  1  0.48908300  0.54584400  0.30739200  1
  H  H9  1  0.94323900  0.48908300  0.80739200  1
  H  H10  1  0.54584400  0.05676100  0.80739200  1
  H  H11  1  0.51091700  0.45415600  0.80739200  1
  H  H12  1  0.78725500  0.17613100  0.37167000  1
  H  H13  1  0.38887600  0.21274500  0.37167000  1
  H  H14  1  0.82386900  0.61112400  0.37167000  1
  H  H15  1  0.21274500  0.82386900  0.87167000  1
  H  H16  1  0.61112400  0.78725500  0.87167000  1
  H  H17  1  0.17613100  0.38887600  0.87167000  1
  H  H18  1  0.27116300  0.57852000  0.49646700  1
  H  H19  1  0.30735700  0.72883700  0.49646700  1
  H  H20  1  0.42148000  0.69264300  0.49646700  1
  H  H21  1  0.72883700  0.42148000  0.99646700  1
  H  H22  1  0.69264300  0.27116300  0.99646700  1
  H  H23  1  0.57852000  0.30735700  0.99646700  1
  H  H24  1  0.33333300  0.66666700  0.65815500  1
  H  H25  1  0.66666700  0.33333300  0.15815500  1
  H  H26  1  0.75497200  0.35977400  0.49685800  1
  H  H27  1  0.60480200  0.24502800  0.49685800  1
  H  H28  1  0.64022600  0.39519800  0.49685800  1
  H  H29  1  0.24502800  0.64022600  0.99685800  1
  H  H30  1  0.39519800  0.75497200  0.99685800  1
  H  H31  1  0.35977400  0.60480200  0.99685800  1
  H  H32  1  0.66666700  0.33333300  0.65868900  1
  H  H33  1  0.33333300  0.66666700  0.15868900  1
  H  H34  1  0.93895100  0.02742800  0.16970100  1
  H  H35  1  0.08847700  0.06104900  0.16970100  1
  H  H36  1  0.97257200  0.91152300  0.16970100  1
  H  H37  1  0.06104900  0.97257200  0.66970100  1
  H  H38  1  0.91152300  0.93895100  0.66970100  1
  H  H39  1  0.02742800  0.08847700  0.66970100  1
  H  H40  1  0.00000000  0.00000000  0.00725200  1
  H  H41  1  0.00000000  0.00000000  0.50725200  1
  C  C0  1  0.18929900  0.37384200  0.33243400  1
  C  C1  1  0.18454300  0.81070100  0.33243400  1
  C  C2  1  0.62615800  0.81545700  0.33243400  1
  C  C3  1  0.81070100  0.62615800  0.83243400  1
  C  C4  1  0.81545700  0.18929900  0.83243400  1
  C  C5  1  0.37384200  0.18454300  0.83243400  1
  C  C6  1  0.95852000  0.47374400  0.32538200  1
  C  C7  1  0.51522400  0.04148000  0.32538200  1
  C  C8  1  0.52625600  0.48477600  0.32538200  1
  C  C9  1  0.04148000  0.52625600  0.82538200  1
  C  C10  1  0.48477600  0.95852000  0.82538200  1
  C  C11  1  0.47374400  0.51522400  0.82538200  1
  C  C12  1  0.85111000  0.14264800  0.35012400  1
  C  C13  1  0.29153800  0.14889000  0.35012400  1
  C  C14  1  0.85735200  0.70846200  0.35012400  1
  C  C15  1  0.14889000  0.85735200  0.85012400  1
  C  C16  1  0.70846200  0.85111000  0.85012400  1
  C  C17  1  0.14264800  0.29153800  0.85012400  1
  N  N0  1  0.33333300  0.66666700  0.53548400  1
  N  N1  1  0.66666700  0.33333300  0.03548400  1
  N  N2  1  0.66666700  0.33333300  0.53592000  1
  N  N3  1  0.33333300  0.66666700  0.03592000  1
  N  N4  1  0.00000000  0.00000000  0.13004700  1
  N  N5  1  0.00000000  0.00000000  0.63004700  1
  O  O0  1  0.16197600  0.42675500  0.44142600  1
  O  O1  1  0.26477900  0.83802400  0.44142600  1
  O  O2  1  0.57324500  0.73522100  0.44142600  1
  O  O3  1  0.83802400  0.57324500  0.94142600  1
  O  O4  1  0.73522100  0.16197600  0.94142600  1
  O  O5  1  0.42675500  0.26477900  0.94142600  1
  O  O6  1  0.27580800  0.42840800  0.23437900  1
  O  O7  1  0.15260000  0.72419200  0.23437900  1
  O  O8  1  0.57159200  0.84740000  0.23437900  1
  O  O9  1  0.72419200  0.57159200  0.73437900  1
  O  O10  1  0.84740000  0.27580800  0.73437900  1
  O  O11  1  0.42840800  0.15260000  0.73437900  1
  O  O12  1  0.90817900  0.39901700  0.44070400  1
  O  O13  1  0.49083800  0.09182100  0.44070400  1
  O  O14  1  0.60098300  0.50916200  0.44070400  1
  O  O15  1  0.09182100  0.60098300  0.94070400  1
  O  O16  1  0.50916200  0.90817900  0.94070400  1
  O  O17  1  0.39901700  0.49083800  0.94070400  1
  O  O18  1  0.90281500  0.50819900  0.23258000  1
  O  O19  1  0.60538400  0.09718500  0.23258000  1
  O  O20  1  0.49180100  0.39461600  0.23258000  1
  O  O21  1  0.09718500  0.49180100  0.73258000  1
  O  O22  1  0.39461600  0.90281500  0.73258000  1
  O  O23  1  0.50819900  0.60538400  0.73258000  1
  O  O24  1  0.94208200  0.17825400  0.44159300  1
  O  O25  1  0.23617200  0.05791800  0.44159300  1
  O  O26  1  0.82174600  0.76382800  0.44159300  1
  O  O27  1  0.05791800  0.82174600  0.94159300  1
  O  O28  1  0.76382800  0.94208200  0.94159300  1
  O  O29  1  0.17825400  0.23617200  0.94159300  1
  O  O30  1  0.82801000  0.07010700  0.23245600  1
  O  O31  1  0.24209700  0.17199000  0.23245600  1
  O  O32  1  0.92989300  0.75790300  0.23245600  1
  O  O33  1  0.17199000  0.92989300  0.73245600  1
  O  O34  1  0.75790300  0.82801000  0.73245600  1
  O  O35  1  0.07010700  0.24209700  0.73245600  1
loop_
_geom_bond_atom_site_label_1
_geom_bond_atom_site_label_2
_geom_bond_distance
_geom_bond_site_symmetry_2
Co0 O21 2.114855 1_555
Co0 O24 2.126355 1_455
Co0 O0 2.128817 1_555
Co0 O10 2.129514 1_455
Co0 O12 2.143913 1_455
Co0 O35 2.145718 1_555
Co1 O22 2.114856 1_555
Co1 O25 2.126355 1_565
Co1 O1 2.128817 1_555
Co1 O11 2.129514 1_565
Co1 O13 2.143913 1_565
Co1 O33 2.145718 1_555
Co2 O23 2.114855 1_555
Co2 O26 2.126355 1_555
Co2 O2 2.128817 1_555
Co2 O9 2.129514 1_555
Co2 O14 2.143913 1_555
Co2 O34 2.145718 1_555
Co3 O18 2.114855 1_555
Co3 O27 2.126355 1_654
Co3 O3 2.128817 1_554
Co3 O7 2.129514 1_655
Co3 O15 2.143913 1_654
Co3 O32 2.145718 1_555
Co4 O19 2.114856 1_555
Co4 O28 2.126355 1_544
Co4 O4 2.128817 1_554
Co4 O8 2.129514 1_545
Co4 O16 2.143913 1_544
Co4 O30 2.145718 1_555
Co5 O20 2.114855 1_555
Co5 O29 2.126355 1_554
Co5 O5 2.128817 1_554
Co5 O6 2.129514 1_555
Co5 O17 2.143913 1_554
Co5 O31 2.145718 1_555
H18 N0 1.049956 1_555
H19 N0 1.049947 1_555
H20 N0 1.049959 1_555
H21 N1 1.049956 1_556
H22 N1 1.049947 1_556
H23 N1 1.049959 1_556
H24 N0 1.022077 1_555
H25 N1 1.022077 1_555
H26 N2 1.050621 1_555
H27 N2 1.050624 1_555
H28 N2 1.050633 1_555
H29 N3 1.050621 1_556
H30 N3 1.050624 1_556
H31 N3 1.050633 1_556
H32 N2 1.022893 1_555
H33 N3 1.022893 1_555
H34 N4 1.051521 1_655
H35 N4 1.051521 1_555
H36 N4 1.051521 1_665
H37 N5 1.051521 1_565
H38 N5 1.051521 1_665
H39 N5 1.051521 1_555
H40 N4 1.023110 1_555
H41 N5 1.023110 1_555
C0 H0 1.102890 1_555
C0 O6 1.263774 1_555
C0 O0 1.277918 1_555
C1 H1 1.102901 1_555
C1 O7 1.263774 1_555
C1 O1 1.277918 1_555
C2 H2 1.102890 1_555
C2 O8 1.263774 1_555
C2 O2 1.277918 1_555
C3 H3 1.102890 1_555
C3 O9 1.263774 1_555
C3 O3 1.277918 1_555
C4 H4 1.102901 1_555
C4 O10 1.263774 1_555
C4 O4 1.277918 1_555
C5 H5 1.102890 1_555
C5 O11 1.263774 1_555
C5 O5 1.277918 1_555
C6 H6 1.103533 1_655
C6 O18 1.266266 1_555
C6 O12 1.276213 1_555
C7 H7 1.103532 1_545
C7 O19 1.266266 1_555
C7 O13 1.276213 1_555
C8 H8 1.103533 1_555
C8 O20 1.266266 1_555
C8 O14 1.276213 1_555
C9 H9 1.103533 1_455
C9 O21 1.266266 1_555
C9 O15 1.276213 1_555
C10 H10 1.103532 1_565
C10 O22 1.266266 1_555
C10 O16 1.276213 1_555
C11 H11 1.103533 1_555
C11 O23 1.266266 1_555
C11 O17 1.276213 1_555
C12 H12 1.104683 1_555
C12 O24 1.265609 1_555
C12 O30 1.276081 1_555
C13 H13 1.104683 1_555
C13 O25 1.265609 1_555
C13 O31 1.276081 1_555
C14 H14 1.104683 1_555
C14 O26 1.265609 1_555
C14 O32 1.276081 1_555
C15 H15 1.104683 1_555
C15 O27 1.265609 1_555
C15 O33 1.276081 1_555
C16 H16 1.104683 1_555
C16 O28 1.265609 1_555
C16 O34 1.276081 1_555
C17 H17 1.104683 1_555
C17 O29 1.265609 1_555
C17 O35 1.276081 1_555
