# generated using pymatgen
data_Nd(ErS2)3
_symmetry_space_group_name_H-M   'P 1'
_cell_length_a   3.95095033
_cell_length_b   10.98713116
_cell_length_c   11.25400647
_cell_angle_alpha   71.16184793
_cell_angle_beta   90.00000000
_cell_angle_gamma   90.00000000
_symmetry_Int_Tables_number   1
_chemical_formula_structural   Nd(ErS2)3
_chemical_formula_sum   'Nd2 Er6 S12'
_cell_volume   462.36354430
_cell_formula_units_Z   2
loop_
 _symmetry_equiv_pos_site_id
 _symmetry_equiv_pos_as_xyz
  1  'x, y, z'
loop_
 _atom_site_type_symbol
 _atom_site_label
 _atom_site_symmetry_multiplicity
 _atom_site_fract_x
 _atom_site_fract_y
 _atom_site_fract_z
 _atom_site_occupancy
  Nd  Nd0  1  0.75000000  0.54856737  0.80515535  1
  Nd  Nd1  1  0.25000000  0.45143263  0.19484465  1
  Er  Er0  1  0.75000000  0.17950376  0.99809452  1
  Er  Er1  1  0.25000000  0.82049624  0.00190548  1
  Er  Er2  1  0.75000000  0.94045274  0.66710540  1
  Er  Er3  1  0.25000000  0.05954726  0.33289460  1
  Er  Er4  1  0.75000000  0.66154758  0.41311402  1
  Er  Er5  1  0.25000000  0.33845242  0.58688598  1
  S  S0  1  0.75000000  0.97771987  0.88781318  1
  S  S1  1  0.25000000  0.02228013  0.11218682  1
  S  S2  1  0.75000000  0.30276256  0.74865173  1
  S  S3  1  0.25000000  0.69723744  0.25134827  1
  S  S4  1  0.75000000  0.89502445  0.44080481  1
  S  S5  1  0.25000000  0.10497555  0.55919519  1
  S  S6  1  0.75000000  0.41824786  0.40686876  1
  S  S7  1  0.25000000  0.58175214  0.59313124  1
  S  S8  1  0.75000000  0.23488108  0.22757818  1
  S  S9  1  0.25000000  0.76511892  0.77242182  1
  S  S10  1  0.75000000  0.61893859  0.03645148  1
  S  S11  1  0.25000000  0.38106141  0.96354852  1
loop_
_geom_bond_atom_site_label_1
_geom_bond_atom_site_label_2
_geom_bond_distance
_geom_bond_site_symmetry_2
Nd0 S11 2.889380 1_655
Nd0 S11 2.889380 1_555
Nd0 S10 2.945024 1_556
Nd0 S2 2.967681 1_555
Nd0 S9 3.022111 1_555
Nd0 S9 3.022111 1_655
Nd0 S7 3.027735 1_555
Nd0 S7 3.027735 1_655
Nd1 S10 2.889380 1_455
Nd1 S10 2.889380 1_555
Nd1 S11 2.945024 1_554
Nd1 S3 2.967681 1_555
Nd1 S8 3.022111 1_555
Nd1 S8 3.022111 1_455
Nd1 S6 3.027735 1_455
Nd1 S6 3.027735 1_555
Er0 S1 2.665109 1_556
Er0 S1 2.665109 1_656
Er0 S2 2.694336 1_555
Er0 S8 2.838106 1_556
Er0 S0 2.869232 1_545
Er0 S11 2.898592 1_555
Er0 S11 2.898592 1_655
Er1 S0 2.665109 1_454
Er1 S0 2.665109 1_554
Er1 S3 2.694336 1_555
Er1 S9 2.838106 1_554
Er1 S1 2.869232 1_565
Er1 S10 2.898592 1_555
Er1 S10 2.898592 1_455
Er2 S0 2.644606 1_555
Er2 S5 2.688345 1_565
Er2 S5 2.688345 1_665
Er2 S9 2.746607 1_655
Er2 S9 2.746607 1_555
Er2 S4 2.748849 1_555
Er3 S1 2.644606 1_555
Er3 S4 2.688345 1_445
Er3 S4 2.688345 1_545
Er3 S8 2.746607 1_555
Er3 S8 2.746607 1_455
Er3 S5 2.748849 1_555
Er4 S3 2.628596 1_555
Er4 S3 2.628596 1_655
Er4 S4 2.682132 1_555
Er4 S6 2.696681 1_555
Er4 S7 2.761964 1_555
Er4 S7 2.761964 1_655
Er5 S2 2.628596 1_555
Er5 S2 2.628596 1_455
Er5 S5 2.682132 1_555
Er5 S7 2.696681 1_555
Er5 S6 2.761964 1_455
Er5 S6 2.761964 1_555
