# generated using pymatgen
data_Ta9(CoS3)2
_symmetry_space_group_name_H-M   'P 1'
_cell_length_a   3.33179515
_cell_length_b   10.16080066
_cell_length_c   10.15891196
_cell_angle_alpha   120.00486130
_cell_angle_beta   90.00000000
_cell_angle_gamma   90.00000000
_symmetry_Int_Tables_number   1
_chemical_formula_structural   Ta9(CoS3)2
_chemical_formula_sum   'Ta9 Co2 S6'
_cell_volume   297.82611384
_cell_formula_units_Z   1
loop_
 _symmetry_equiv_pos_site_id
 _symmetry_equiv_pos_as_xyz
  1  'x, y, z'
loop_
 _atom_site_type_symbol
 _atom_site_label
 _atom_site_symmetry_multiplicity
 _atom_site_fract_x
 _atom_site_fract_y
 _atom_site_fract_z
 _atom_site_occupancy
  Ta  Ta0  1  0.00000000  0.45673662  0.99998183  1
  Ta  Ta1  1  0.00000000  0.54322818  0.54329904  1
  Ta  Ta2  1  0.00000000  -0.00002161  0.45672429  1
  Ta  Ta3  1  0.50000000  0.20181667  0.73670051  1
  Ta  Ta4  1  0.50000000  0.53485658  0.79809757  1
  Ta  Ta5  1  0.50000000  0.26324976  0.46507157  1
  Ta  Ta6  1  0.50000000  0.46511062  0.26330912  1
  Ta  Ta7  1  0.50000000  0.73675252  0.20187794  1
  Ta  Ta8  1  0.50000000  0.79820923  0.53494208  1
  Co  Co0  1  0.00000000  0.33325487  0.66656494  1
  Co  Co1  1  0.00000000  0.66670606  0.33343748  1
  S  S0  1  0.50000000  0.27369615  0.00002224  1
  S  S1  1  0.50000000  0.72636757  0.72634506  1
  S  S2  1  0.50000000  -0.00002461  0.27362633  1
  S  S3  1  0.00000000  0.70482761  -0.00001484  1
  S  S4  1  0.00000000  0.29509741  0.29507718  1
  S  S5  1  0.00000000  0.00003837  0.70493866  1
loop_
_geom_bond_atom_site_label_1
_geom_bond_atom_site_label_2
_geom_bond_distance
_geom_bond_site_symmetry_2
Co0 Ta5 2.452542 1_455
Co0 Ta5 2.452542 1_555
Co0 Ta3 2.453197 1_455
Co0 Ta3 2.453197 1_555
Co0 Ta4 2.453411 1_455
Co0 Ta4 2.453411 1_555
Co0 Ta2 2.965104 1_555
Co0 Ta1 2.965129 1_555
Co0 Ta0 2.965909 1_555
Co1 Ta8 2.452636 1_555
Co1 Ta8 2.452636 1_455
Co1 Ta6 2.453378 1_555
Co1 Ta6 2.453378 1_455
Co1 Ta7 2.453441 1_555
Co1 Ta7 2.453441 1_455
Co1 Ta2 2.965456 1_565
Co1 Ta1 2.965571 1_555
Co1 Ta0 2.966288 1_554
S0 Ta6 2.394562 1_555
S0 Ta3 2.394858 1_554
S0 Ta0 2.496993 1_554
S0 Ta0 2.496993 1_654
S1 Ta8 2.394435 1_555
S1 Ta4 2.395102 1_555
S1 Ta1 2.497005 1_655
S1 Ta1 2.497005 1_555
S2 Ta7 2.394742 1_545
S2 Ta5 2.394812 1_555
S2 Ta2 2.497006 1_655
S2 Ta2 2.497006 1_555
S3 Ta0 2.520786 1_554
S3 Ta7 2.534102 1_455
S3 Ta7 2.534102 1_555
S3 Ta4 2.534109 1_454
S3 Ta4 2.534109 1_554
S4 Ta1 2.521250 1_555
S4 Ta6 2.533991 1_455
S4 Ta6 2.533991 1_555
S4 Ta5 2.534016 1_555
S4 Ta5 2.534016 1_455
S5 Ta2 2.521283 1_555
S5 Ta8 2.533992 1_545
S5 Ta8 2.533992 1_445
S5 Ta3 2.533995 1_555
S5 Ta3 2.533995 1_455
