# generated using pymatgen
data_Ca2Ti9O13
_symmetry_space_group_name_H-M   'P 1'
_cell_length_a   5.20303588
_cell_length_b   5.20303588
_cell_length_c   16.71736802
_cell_angle_alpha   81.19934654
_cell_angle_beta   81.19934654
_cell_angle_gamma   34.06772738
_symmetry_Int_Tables_number   1
_chemical_formula_structural   Ca2Ti9O13
_chemical_formula_sum   'Ca2 Ti9 O13'
_cell_volume   250.24808591
_cell_formula_units_Z   1
loop_
 _symmetry_equiv_pos_site_id
 _symmetry_equiv_pos_as_xyz
  1  'x, y, z'
loop_
 _atom_site_type_symbol
 _atom_site_label
 _atom_site_symmetry_multiplicity
 _atom_site_fract_x
 _atom_site_fract_y
 _atom_site_fract_z
 _atom_site_occupancy
  Ca  Ca0  1  0.78536800  0.78536800  0.22858200  1
  Ca  Ca1  1  0.21463200  0.21463200  0.77141800  1
  Ti  Ti0  1  0.50000000  0.50000000  0.50000000  1
  Ti  Ti1  1  0.34284400  0.34284400  0.03546200  1
  Ti  Ti2  1  0.65715600  0.65715600  0.96453800  1
  Ti  Ti3  1  0.23847700  0.23847700  0.42645300  1
  Ti  Ti4  1  0.76152300  0.76152300  0.57354700  1
  Ti  Ti5  1  0.07006800  0.07006800  0.11481900  1
  Ti  Ti6  1  0.92993200  0.92993200  0.88518100  1
  Ti  Ti7  1  0.00978400  0.00978400  0.34066900  1
  Ti  Ti8  1  0.99021600  0.99021600  0.65933100  1
  O  O0  1  0.00000000  0.00000000  0.00000000  1
  O  O1  1  0.10523000  0.10523000  0.23025700  1
  O  O2  1  0.89477000  0.89477000  0.76974300  1
  O  O3  1  0.71466400  0.71466400  0.08706000  1
  O  O4  1  0.28533600  0.28533600  0.91294000  1
  O  O5  1  0.42635300  0.42635300  0.14141200  1
  O  O6  1  0.57364700  0.57364700  0.85858800  1
  O  O7  1  0.37599000  0.37599000  0.31822800  1
  O  O8  1  0.62401000  0.62401000  0.68177200  1
  O  O9  1  0.63129900  0.63129900  0.37787300  1
  O  O10  1  0.36870100  0.36870100  0.62212700  1
  O  O11  1  0.87913500  0.87913500  0.45262300  1
  O  O12  1  0.12086500  0.12086500  0.54737700  1
loop_
_geom_bond_atom_site_label_1
_geom_bond_atom_site_label_2
_geom_bond_distance
_geom_bond_site_symmetry_2
Ca0 O1 2.349493 1_565
Ca0 O1 2.349493 1_655
Ca0 O5 2.400029 1_655
Ca0 O5 2.400029 1_565
Ca0 O7 2.411312 1_565
Ca0 O7 2.411312 1_655
Ca0 O3 2.573885 1_555
Ca0 O9 2.711871 1_555
Ca1 O2 2.349493 1_455
Ca1 O2 2.349493 1_545
Ca1 O6 2.400029 1_455
Ca1 O6 2.400029 1_545
Ca1 O8 2.411312 1_455
Ca1 O8 2.411312 1_545
Ca1 O4 2.573885 1_555
Ca1 O10 2.711871 1_555
O0 Ti5 2.144444 1_555
O0 Ti6 2.144444 1_444
O0 Ti2 2.196090 1_454
O0 Ti2 2.196090 1_544
O0 Ti1 2.196090 1_545
O0 Ti1 2.196090 1_455
O1 Ti7 1.935931 1_555
O1 Ti5 2.015605 1_555
O2 Ti8 1.935931 1_555
O2 Ti6 2.015605 1_555
O3 Ti1 2.083635 1_655
O3 Ti1 2.083635 1_565
O3 Ti5 2.096311 1_655
O3 Ti5 2.096311 1_565
O3 Ti2 2.213090 1_554
O4 Ti2 2.083635 1_545
O4 Ti2 2.083635 1_455
O4 Ti6 2.096311 1_545
O4 Ti6 2.096311 1_455
O4 Ti1 2.213090 1_556
O5 Ti1 2.073284 1_555
O5 Ti5 2.088513 1_655
O5 Ti5 2.088513 1_565
O6 Ti2 2.073284 1_555
O6 Ti6 2.088513 1_545
O6 Ti6 2.088513 1_455
O7 Ti3 2.086406 1_555
O7 Ti7 2.096595 1_565
O7 Ti7 2.096595 1_655
O8 Ti4 2.086406 1_555
O8 Ti8 2.096595 1_545
O8 Ti8 2.096595 1_455
O9 Ti3 2.096888 1_565
O9 Ti3 2.096888 1_655
O9 Ti7 2.100543 1_565
O9 Ti7 2.100543 1_655
O9 Ti0 2.240832 1_555
O10 Ti4 2.096888 1_545
O10 Ti4 2.096888 1_455
O10 Ti8 2.100543 1_455
O10 Ti8 2.100543 1_545
O10 Ti0 2.240832 1_555
O11 Ti7 2.100939 1_665
O11 Ti3 2.160782 1_565
O11 Ti3 2.160782 1_655
O11 Ti4 2.167687 1_555
O11 Ti0 2.168252 1_565
O11 Ti0 2.168252 1_655
O12 Ti8 2.100939 1_445
O12 Ti4 2.160782 1_545
O12 Ti4 2.160782 1_455
O12 Ti3 2.167687 1_555
O12 Ti0 2.168252 1_545
O12 Ti0 2.168252 1_455
