# generated using pymatgen
data_Mn2CdN2
_symmetry_space_group_name_H-M   'P 1'
_cell_length_a   5.56616200
_cell_length_b   5.65354400
_cell_length_c   31.51865800
_cell_angle_alpha   90.00000000
_cell_angle_beta   90.00000000
_cell_angle_gamma   90.00000000
_symmetry_Int_Tables_number   1
_chemical_formula_structural   Mn2CdN2
_chemical_formula_sum   'Mn32 Cd16 N32'
_cell_volume   991.84620606
_cell_formula_units_Z   16
loop_
 _symmetry_equiv_pos_site_id
 _symmetry_equiv_pos_as_xyz
  1  'x, y, z'
loop_
 _atom_site_type_symbol
 _atom_site_label
 _atom_site_symmetry_multiplicity
 _atom_site_fract_x
 _atom_site_fract_y
 _atom_site_fract_z
 _atom_site_occupancy
  Mn  Mn0_0  1  0.37500000  0.37336300  0.02751800  1
  Mn  Mn0_1  1  0.37500000  0.37336300  0.52751800  1
  Mn  Mn0_2  1  0.37500000  0.87336300  0.02751800  1
  Mn  Mn0_3  1  0.37500000  0.87336300  0.52751800  1
  Mn  Mn0_4  1  0.87500000  0.37336300  0.02751800  1
  Mn  Mn0_5  1  0.87500000  0.37336300  0.52751800  1
  Mn  Mn0_6  1  0.87500000  0.87336300  0.02751800  1
  Mn  Mn0_7  1  0.87500000  0.87336300  0.52751800  1
  Mn  Mn1_0  1  0.37500000  0.37336300  0.22248200  1
  Mn  Mn1_1  1  0.37500000  0.37336300  0.72248200  1
  Mn  Mn1_2  1  0.37500000  0.87336300  0.22248200  1
  Mn  Mn1_3  1  0.37500000  0.87336300  0.72248200  1
  Mn  Mn1_4  1  0.87500000  0.37336300  0.22248200  1
  Mn  Mn1_5  1  0.87500000  0.37336300  0.72248200  1
  Mn  Mn1_6  1  0.87500000  0.87336300  0.22248200  1
  Mn  Mn1_7  1  0.87500000  0.87336300  0.72248200  1
  Mn  Mn2_0  1  0.12500000  0.12663700  0.47248200  1
  Mn  Mn2_1  1  0.12500000  0.12663700  0.97248200  1
  Mn  Mn2_2  1  0.12500000  0.62663700  0.47248200  1
  Mn  Mn2_3  1  0.12500000  0.62663700  0.97248200  1
  Mn  Mn2_4  1  0.62500000  0.12663700  0.47248200  1
  Mn  Mn2_5  1  0.62500000  0.12663700  0.97248200  1
  Mn  Mn2_6  1  0.62500000  0.62663700  0.47248200  1
  Mn  Mn2_7  1  0.62500000  0.62663700  0.97248200  1
  Mn  Mn3_0  1  0.12500000  0.12663700  0.27751800  1
  Mn  Mn3_1  1  0.12500000  0.12663700  0.77751800  1
  Mn  Mn3_2  1  0.12500000  0.62663700  0.27751800  1
  Mn  Mn3_3  1  0.12500000  0.62663700  0.77751800  1
  Mn  Mn3_4  1  0.62500000  0.12663700  0.27751800  1
  Mn  Mn3_5  1  0.62500000  0.12663700  0.77751800  1
  Mn  Mn3_6  1  0.62500000  0.62663700  0.27751800  1
  Mn  Mn3_7  1  0.62500000  0.62663700  0.77751800  1
  Cd  Cd0_0  1  0.37500000  0.14087600  0.37500000  1
  Cd  Cd0_1  1  0.37500000  0.14087600  0.87500000  1
  Cd  Cd0_2  1  0.37500000  0.64087600  0.37500000  1
  Cd  Cd0_3  1  0.37500000  0.64087600  0.87500000  1
  Cd  Cd0_4  1  0.87500000  0.14087600  0.37500000  1
  Cd  Cd0_5  1  0.87500000  0.14087600  0.87500000  1
  Cd  Cd0_6  1  0.87500000  0.64087600  0.37500000  1
  Cd  Cd0_7  1  0.87500000  0.64087600  0.87500000  1
  Cd  Cd1_0  1  0.12500000  0.35912400  0.12500000  1
  Cd  Cd1_1  1  0.12500000  0.35912400  0.62500000  1
  Cd  Cd1_2  1  0.12500000  0.85912400  0.12500000  1
  Cd  Cd1_3  1  0.12500000  0.85912400  0.62500000  1
  Cd  Cd1_4  1  0.62500000  0.35912400  0.12500000  1
  Cd  Cd1_5  1  0.62500000  0.35912400  0.62500000  1
  Cd  Cd1_6  1  0.62500000  0.85912400  0.12500000  1
  Cd  Cd1_7  1  0.62500000  0.85912400  0.62500000  1
  N  N0_0  1  0.37500000  0.37755500  0.28575150  1
  N  N0_1  1  0.37500000  0.37755500  0.78575150  1
  N  N0_2  1  0.37500000  0.87755500  0.28575150  1
  N  N0_3  1  0.37500000  0.87755500  0.78575150  1
  N  N0_4  1  0.87500000  0.37755500  0.28575150  1
  N  N0_5  1  0.87500000  0.37755500  0.78575150  1
  N  N0_6  1  0.87500000  0.87755500  0.28575150  1
  N  N0_7  1  0.87500000  0.87755500  0.78575150  1
  N  N1_0  1  0.37500000  0.37755500  0.46424850  1
  N  N1_1  1  0.37500000  0.37755500  0.96424850  1
  N  N1_2  1  0.37500000  0.87755500  0.46424850  1
  N  N1_3  1  0.37500000  0.87755500  0.96424850  1
  N  N1_4  1  0.87500000  0.37755500  0.46424850  1
  N  N1_5  1  0.87500000  0.37755500  0.96424850  1
  N  N1_6  1  0.87500000  0.87755500  0.46424850  1
  N  N1_7  1  0.87500000  0.87755500  0.96424850  1
  N  N2_0  1  0.12500000  0.12244500  0.21424850  1
  N  N2_1  1  0.12500000  0.12244500  0.71424850  1
  N  N2_2  1  0.12500000  0.62244500  0.21424850  1
  N  N2_3  1  0.12500000  0.62244500  0.71424850  1
  N  N2_4  1  0.62500000  0.12244500  0.21424850  1
  N  N2_5  1  0.62500000  0.12244500  0.71424850  1
  N  N2_6  1  0.62500000  0.62244500  0.21424850  1
  N  N2_7  1  0.62500000  0.62244500  0.71424850  1
  N  N3_0  1  0.12500000  0.12244500  0.03575150  1
  N  N3_1  1  0.12500000  0.12244500  0.53575150  1
  N  N3_2  1  0.12500000  0.62244500  0.03575150  1
  N  N3_3  1  0.12500000  0.62244500  0.53575150  1
  N  N3_4  1  0.62500000  0.12244500  0.03575150  1
  N  N3_5  1  0.62500000  0.12244500  0.53575150  1
  N  N3_6  1  0.62500000  0.62244500  0.03575150  1
  N  N3_7  1  0.62500000  0.62244500  0.53575150  1
loop_
_geom_bond_atom_site_label_1
_geom_bond_atom_site_label_2
_geom_bond_distance
_geom_bond_site_symmetry_2
Mn0_0 N1_1 1.994311 1_554
Mn0_0 N3_6 1.996684 1_555
Mn0_0 N3_2 1.996684 1_555
Mn0_0 N3_4 2.004018 1_555
Mn0_0 N3_0 2.004018 1_555
Mn0_1 N1_0 1.994311 1_555
Mn0_1 N3_7 1.996684 1_555
Mn0_1 N3_3 1.996684 1_555
Mn0_1 N3_5 2.004018 1_555
Mn0_1 N3_1 2.004018 1_555
Mn0_2 N1_3 1.994311 1_554
Mn0_2 N3_4 1.996684 1_565
Mn0_2 N3_0 1.996684 1_565
Mn0_2 N3_6 2.004018 1_555
Mn0_2 N3_2 2.004018 1_555
Mn0_3 N1_2 1.994311 1_555
Mn0_3 N3_5 1.996684 1_565
Mn0_3 N3_1 1.996684 1_565
Mn0_3 N3_7 2.004018 1_555
Mn0_3 N3_3 2.004018 1_555
Mn0_4 N1_5 1.994311 1_554
Mn0_4 N3_2 1.996684 1_655
Mn0_4 N3_6 1.996684 1_555
Mn0_4 N3_0 2.004018 1_655
Mn0_4 N3_4 2.004018 1_555
Mn0_5 N1_4 1.994311 1_555
Mn0_5 N3_3 1.996684 1_655
Mn0_5 N3_7 1.996684 1_555
Mn0_5 N3_1 2.004018 1_655
Mn0_5 N3_5 2.004018 1_555
Mn0_6 N1_7 1.994311 1_554
Mn0_6 N3_0 1.996684 1_665
Mn0_6 N3_4 1.996684 1_565
Mn0_6 N3_2 2.004018 1_655
Mn0_6 N3_6 2.004018 1_555
Mn0_7 N1_6 1.994311 1_555
Mn0_7 N3_1 1.996684 1_665
Mn0_7 N3_5 1.996684 1_565
Mn0_7 N3_3 2.004018 1_655
Mn0_7 N3_7 2.004018 1_555
Mn1_0 N0_0 1.994311 1_555
Mn1_0 N2_6 1.996684 1_555
Mn1_0 N2_2 1.996684 1_555
Mn1_0 N2_4 2.004018 1_555
Mn1_0 N2_0 2.004018 1_555
Mn1_1 N0_1 1.994311 1_555
Mn1_1 N2_7 1.996684 1_555
Mn1_1 N2_3 1.996684 1_555
Mn1_1 N2_5 2.004018 1_555
Mn1_1 N2_1 2.004018 1_555
Mn1_2 N0_2 1.994311 1_555
Mn1_2 N2_4 1.996684 1_565
Mn1_2 N2_0 1.996684 1_565
Mn1_2 N2_6 2.004018 1_555
Mn1_2 N2_2 2.004018 1_555
Mn1_3 N0_3 1.994311 1_555
Mn1_3 N2_5 1.996684 1_565
Mn1_3 N2_1 1.996684 1_565
Mn1_3 N2_7 2.004018 1_555
Mn1_3 N2_3 2.004018 1_555
Mn1_4 N0_4 1.994311 1_555
Mn1_4 N2_2 1.996684 1_655
Mn1_4 N2_6 1.996684 1_555
Mn1_4 N2_0 2.004018 1_655
Mn1_4 N2_4 2.004018 1_555
Mn1_5 N0_5 1.994311 1_555
Mn1_5 N2_3 1.996684 1_655
Mn1_5 N2_7 1.996684 1_555
Mn1_5 N2_1 2.004018 1_655
Mn1_5 N2_5 2.004018 1_555
Mn1_6 N0_6 1.994311 1_555
Mn1_6 N2_0 1.996684 1_665
Mn1_6 N2_4 1.996684 1_565
Mn1_6 N2_2 2.004018 1_655
Mn1_6 N2_6 2.004018 1_555
Mn1_7 N0_7 1.994311 1_555
Mn1_7 N2_1 1.996684 1_665
Mn1_7 N2_5 1.996684 1_565
Mn1_7 N2_3 2.004018 1_655
Mn1_7 N2_7 2.004018 1_555
Mn2_0 N3_1 1.994311 1_555
Mn2_0 N1_6 1.996684 1_445
Mn2_0 N1_2 1.996684 1_545
Mn2_0 N1_0 2.004018 1_555
Mn2_0 N1_4 2.004018 1_455
Mn2_1 N3_0 1.994311 1_556
Mn2_1 N1_7 1.996684 1_445
Mn2_1 N1_3 1.996684 1_545
Mn2_1 N1_5 2.004018 1_455
Mn2_1 N1_1 2.004018 1_555
Mn2_2 N3_3 1.994311 1_555
Mn2_2 N1_4 1.996684 1_455
Mn2_2 N1_0 1.996684 1_555
Mn2_2 N1_2 2.004018 1_555
Mn2_2 N1_6 2.004018 1_455
Mn2_3 N3_2 1.994311 1_556
Mn2_3 N1_5 1.996684 1_455
Mn2_3 N1_1 1.996684 1_555
Mn2_3 N1_7 2.004018 1_455
Mn2_3 N1_3 2.004018 1_555
Mn2_4 N3_5 1.994311 1_555
Mn2_4 N1_2 1.996684 1_545
Mn2_4 N1_6 1.996684 1_545
Mn2_4 N1_0 2.004018 1_555
Mn2_4 N1_4 2.004018 1_555
Mn2_5 N3_4 1.994311 1_556
Mn2_5 N1_3 1.996684 1_545
Mn2_5 N1_7 1.996684 1_545
Mn2_5 N1_1 2.004018 1_555
Mn2_5 N1_5 2.004018 1_555
Mn2_6 N3_7 1.994311 1_555
Mn2_6 N1_0 1.996684 1_555
Mn2_6 N1_4 1.996684 1_555
Mn2_6 N1_2 2.004018 1_555
Mn2_6 N1_6 2.004018 1_555
Mn2_7 N3_6 1.994311 1_556
Mn2_7 N1_1 1.996684 1_555
Mn2_7 N1_5 1.996684 1_555
Mn2_7 N1_3 2.004018 1_555
Mn2_7 N1_7 2.004018 1_555
Mn3_0 N2_0 1.994311 1_555
Mn3_0 N0_6 1.996684 1_445
Mn3_0 N0_2 1.996684 1_545
Mn3_0 N0_4 2.004018 1_455
Mn3_0 N0_0 2.004018 1_555
Mn3_1 N2_1 1.994311 1_555
Mn3_1 N0_7 1.996684 1_445
Mn3_1 N0_3 1.996684 1_545
Mn3_1 N0_5 2.004018 1_455
Mn3_1 N0_1 2.004018 1_555
Mn3_2 N2_2 1.994311 1_555
Mn3_2 N0_4 1.996684 1_455
Mn3_2 N0_0 1.996684 1_555
Mn3_2 N0_6 2.004018 1_455
Mn3_2 N0_2 2.004018 1_555
Mn3_3 N2_3 1.994311 1_555
Mn3_3 N0_5 1.996684 1_455
Mn3_3 N0_1 1.996684 1_555
Mn3_3 N0_7 2.004018 1_455
Mn3_3 N0_3 2.004018 1_555
Mn3_4 N2_4 1.994311 1_555
Mn3_4 N0_2 1.996684 1_545
Mn3_4 N0_6 1.996684 1_545
Mn3_4 N0_0 2.004018 1_555
Mn3_4 N0_4 2.004018 1_555
Mn3_5 N2_5 1.994311 1_555
Mn3_5 N0_3 1.996684 1_545
Mn3_5 N0_7 1.996684 1_545
Mn3_5 N0_1 2.004018 1_555
Mn3_5 N0_5 2.004018 1_555
Mn3_6 N2_6 1.994311 1_555
Mn3_6 N0_0 1.996684 1_555
Mn3_6 N0_4 1.996684 1_555
Mn3_6 N0_2 2.004018 1_555
Mn3_6 N0_6 2.004018 1_555
Mn3_7 N2_7 1.994311 1_555
Mn3_7 N0_1 1.996684 1_555
Mn3_7 N0_5 1.996684 1_555
Mn3_7 N0_3 2.004018 1_555
Mn3_7 N0_7 2.004018 1_555
Cd0_0 Cd0_4 2.783081 1_555
Cd0_0 Cd0_4 2.783081 1_455
Cd0_0 Cd0_2 2.826772 1_545
Cd0_0 Cd0_2 2.826772 1_555
Cd0_1 Cd0_5 2.783081 1_555
Cd0_1 Cd0_5 2.783081 1_455
Cd0_1 Cd0_3 2.826772 1_555
Cd0_1 Cd0_3 2.826772 1_545
Cd0_2 Cd0_6 2.783081 1_555
Cd0_2 Cd0_6 2.783081 1_455
Cd0_3 Cd0_7 2.783081 1_555
Cd0_3 Cd0_7 2.783081 1_455
Cd0_4 Cd0_6 2.826772 1_545
Cd0_4 Cd0_6 2.826772 1_555
Cd0_5 Cd0_7 2.826772 1_545
Cd0_5 Cd0_7 2.826772 1_555
Cd1_0 Cd1_4 2.783081 1_555
Cd1_0 Cd1_4 2.783081 1_455
Cd1_0 Cd1_2 2.826772 1_545
Cd1_0 Cd1_2 2.826772 1_555
Cd1_1 Cd1_5 2.783081 1_555
Cd1_1 Cd1_5 2.783081 1_455
Cd1_1 Cd1_3 2.826772 1_555
Cd1_1 Cd1_3 2.826772 1_545
Cd1_2 Cd1_6 2.783081 1_555
Cd1_2 Cd1_6 2.783081 1_455
Cd1_3 Cd1_7 2.783081 1_555
Cd1_3 Cd1_7 2.783081 1_455
Cd1_4 Cd1_6 2.826772 1_545
Cd1_4 Cd1_6 2.826772 1_555
Cd1_5 Cd1_7 2.826772 1_555
Cd1_5 Cd1_7 2.826772 1_545
