# generated using pymatgen
data_LiV3O6
_symmetry_space_group_name_H-M   'P 1'
_cell_length_a   4.97170536
_cell_length_b   8.90626152
_cell_length_c   5.49967960
_cell_angle_alpha   106.91329863
_cell_angle_beta   116.13582824
_cell_angle_gamma   90.20003731
_symmetry_Int_Tables_number   1
_chemical_formula_structural   LiV3O6
_chemical_formula_sum   'Li2 V6 O12'
_cell_volume   206.69485136
_cell_formula_units_Z   2
loop_
 _symmetry_equiv_pos_site_id
 _symmetry_equiv_pos_as_xyz
  1  'x, y, z'
loop_
 _atom_site_type_symbol
 _atom_site_label
 _atom_site_symmetry_multiplicity
 _atom_site_fract_x
 _atom_site_fract_y
 _atom_site_fract_z
 _atom_site_occupancy
  Li  Li0  1  0.43088400  0.14347900  0.84959200  1
  Li  Li1  1  0.93097400  0.64350300  0.84964800  1
  V  V0  1  0.70591600  0.90676900  0.40301700  1
  V  V1  1  0.99778300  0.00220600  0.00261300  1
  V  V2  1  0.24509800  0.74213100  0.49369700  1
  V  V3  1  0.20580100  0.40676100  0.40296900  1
  V  V4  1  0.49777500  0.50212200  0.00254200  1
  V  V5  1  0.74508500  0.24211000  0.49368600  1
  O  O0  1  0.44138200  0.36125500  0.22253000  1
  O  O1  1  0.94142300  0.86124700  0.22258300  1
  O  O2  1  0.44829500  0.04232200  0.22225100  1
  O  O3  1  0.94831800  0.54233800  0.22219100  1
  O  O4  1  0.91303900  0.20322000  0.22112900  1
  O  O5  1  0.41317500  0.70320300  0.22127300  1
  O  O6  1  0.53187200  0.30786100  0.69636500  1
  O  O7  1  0.03195400  0.80790400  0.69645400  1
  O  O8  1  0.05936100  0.43383300  0.69312400  1
  O  O9  1  0.55941500  0.93385600  0.69322400  1
  O  O10  1  0.97742100  0.10735100  0.69712300  1
  O  O11  1  0.47743200  0.60732900  0.69719600  1
loop_
_geom_bond_atom_site_label_1
_geom_bond_atom_site_label_2
_geom_bond_distance
_geom_bond_site_symmetry_2
Li0 O10 2.015396 1_455
Li0 O6 2.047213 1_555
Li0 O9 2.047370 1_545
Li0 O4 2.290807 1_556
Li0 O0 2.358332 1_556
Li0 O2 2.436852 1_556
Li1 O11 2.015789 1_555
Li1 O7 2.047205 1_655
Li1 O8 2.047594 1_655
Li1 O5 2.291144 1_656
Li1 O1 2.358248 1_556
Li1 O3 2.436412 1_556
O0 V3 1.820469 1_555
O0 V4 2.072671 1_555
O0 V5 2.139612 1_555
O1 V0 1.820133 1_555
O1 V1 2.073161 1_565
O1 V2 2.139253 1_655
O2 V0 1.916682 1_545
O2 V1 1.990786 1_455
O2 V5 2.016780 1_555
O3 V3 1.916573 1_655
O3 V4 1.990921 1_555
O3 V2 2.016853 1_655
O4 V5 1.966419 1_555
O4 V1 2.006581 1_555
O4 V3 2.012269 1_655
O5 V2 1.966213 1_555
O5 V4 2.007179 1_555
O5 V0 2.012429 1_555
O6 V5 1.837006 1_555
O6 V4 2.101420 1_556
O6 V3 2.130721 1_555
O7 V2 1.837074 1_555
O7 V1 2.101737 1_466
O7 V0 2.130575 1_455
O8 V3 1.983824 1_555
O8 V5 1.985415 1_455
O8 V4 2.034065 1_556
O9 V0 1.984294 1_555
O9 V2 1.985516 1_555
O9 V1 2.033889 1_566
O10 V5 1.918063 1_555
O10 V0 2.002011 1_545
O10 V1 2.115695 1_556
O11 V2 1.918535 1_555
O11 V3 2.002294 1_555
O11 V4 2.115382 1_556
