# generated using pymatgen
data_SmBi
_symmetry_space_group_name_H-M   'P 1'
_cell_length_a   8.39152600
_cell_length_b   8.39152600
_cell_length_c   6.91625400
_cell_angle_alpha   90.00000000
_cell_angle_beta   90.00000000
_cell_angle_gamma   90.00000000
_symmetry_Int_Tables_number   1
_chemical_formula_structural   SmBi
_chemical_formula_sum   'Sm8 Bi8'
_cell_volume   487.02675884
_cell_formula_units_Z   8
loop_
 _symmetry_equiv_pos_site_id
 _symmetry_equiv_pos_as_xyz
  1  'x, y, z'
loop_
 _atom_site_type_symbol
 _atom_site_label
 _atom_site_symmetry_multiplicity
 _atom_site_fract_x
 _atom_site_fract_y
 _atom_site_fract_z
 _atom_site_occupancy
  Sm  Sm0_0  1  0.00000000  0.00000000  0.00000000  1
  Sm  Sm0_1  1  0.00000000  0.00000000  0.50000000  1
  Sm  Sm0_2  1  0.00000000  0.50000000  0.00000000  1
  Sm  Sm0_3  1  0.00000000  0.50000000  0.50000000  1
  Sm  Sm0_4  1  0.50000000  0.00000000  0.00000000  1
  Sm  Sm0_5  1  0.50000000  0.00000000  0.50000000  1
  Sm  Sm0_6  1  0.50000000  0.50000000  0.00000000  1
  Sm  Sm0_7  1  0.50000000  0.50000000  0.50000000  1
  Bi  Bi0_0  1  0.25000000  0.25000000  0.25000000  1
  Bi  Bi0_1  1  0.25000000  0.25000000  0.75000000  1
  Bi  Bi0_2  1  0.25000000  0.75000000  0.25000000  1
  Bi  Bi0_3  1  0.25000000  0.75000000  0.75000000  1
  Bi  Bi0_4  1  0.75000000  0.25000000  0.25000000  1
  Bi  Bi0_5  1  0.75000000  0.25000000  0.75000000  1
  Bi  Bi0_6  1  0.75000000  0.75000000  0.25000000  1
  Bi  Bi0_7  1  0.75000000  0.75000000  0.75000000  1
loop_
_geom_bond_atom_site_label_1
_geom_bond_atom_site_label_2
_geom_bond_distance
_geom_bond_site_symmetry_2
Sm0_0 Sm0_1 3.458127 1_554
Sm0_0 Sm0_1 3.458127 1_555
Sm0_2 Sm0_3 3.458127 1_554
Sm0_2 Sm0_3 3.458127 1_555
Sm0_4 Sm0_5 3.458127 1_554
Sm0_4 Sm0_5 3.458127 1_555
Sm0_6 Sm0_7 3.458127 1_555
Sm0_6 Sm0_7 3.458127 1_554
Bi0_0 Sm0_7 3.433930 1_555
Bi0_0 Sm0_2 3.433930 1_555
Bi0_0 Sm0_1 3.433930 1_555
Bi0_0 Sm0_5 3.433930 1_555
Bi0_0 Sm0_6 3.433930 1_555
Bi0_0 Sm0_3 3.433930 1_555
Bi0_0 Sm0_0 3.433930 1_555
Bi0_0 Sm0_4 3.433930 1_555
Bi0_0 Bi0_1 3.458127 1_555
Bi0_0 Bi0_1 3.458127 1_554
Bi0_1 Sm0_3 3.433930 1_555
Bi0_1 Sm0_7 3.433930 1_555
Bi0_1 Sm0_5 3.433930 1_555
Bi0_1 Sm0_1 3.433930 1_555
Bi0_1 Sm0_0 3.433930 1_556
Bi0_1 Sm0_6 3.433930 1_556
Bi0_1 Sm0_4 3.433930 1_556
Bi0_1 Sm0_2 3.433930 1_556
Bi0_2 Sm0_4 3.433930 1_565
Bi0_2 Sm0_7 3.433930 1_555
Bi0_2 Sm0_1 3.433930 1_565
Bi0_2 Sm0_5 3.433930 1_565
Bi0_2 Sm0_2 3.433930 1_555
Bi0_2 Sm0_6 3.433930 1_555
Bi0_2 Sm0_0 3.433930 1_565
Bi0_2 Sm0_3 3.433930 1_555
Bi0_2 Bi0_3 3.458127 1_555
Bi0_2 Bi0_3 3.458127 1_554
Bi0_3 Sm0_5 3.433930 1_565
Bi0_3 Sm0_3 3.433930 1_555
Bi0_3 Sm0_7 3.433930 1_555
Bi0_3 Sm0_1 3.433930 1_565
Bi0_3 Sm0_6 3.433930 1_556
Bi0_3 Sm0_0 3.433930 1_566
Bi0_3 Sm0_4 3.433930 1_566
Bi0_3 Sm0_2 3.433930 1_556
Bi0_4 Sm0_7 3.433930 1_555
Bi0_4 Sm0_0 3.433930 1_655
Bi0_4 Sm0_1 3.433930 1_655
Bi0_4 Sm0_2 3.433930 1_655
Bi0_4 Sm0_5 3.433930 1_555
Bi0_4 Sm0_6 3.433930 1_555
Bi0_4 Sm0_3 3.433930 1_655
Bi0_4 Sm0_4 3.433930 1_555
Bi0_4 Bi0_5 3.458127 1_555
Bi0_4 Bi0_5 3.458127 1_554
Bi0_5 Sm0_3 3.433930 1_655
Bi0_5 Sm0_7 3.433930 1_555
Bi0_5 Sm0_1 3.433930 1_655
Bi0_5 Sm0_5 3.433930 1_555
Bi0_5 Sm0_6 3.433930 1_556
Bi0_5 Sm0_0 3.433930 1_656
Bi0_5 Sm0_4 3.433930 1_556
Bi0_5 Sm0_2 3.433930 1_656
Bi0_6 Sm0_4 3.433930 1_565
Bi0_6 Sm0_7 3.433930 1_555
Bi0_6 Sm0_5 3.433930 1_565
Bi0_6 Sm0_1 3.433930 1_665
Bi0_6 Sm0_2 3.433930 1_655
Bi0_6 Sm0_6 3.433930 1_555
Bi0_6 Sm0_3 3.433930 1_655
Bi0_6 Sm0_0 3.433930 1_665
Bi0_6 Bi0_7 3.458127 1_555
Bi0_6 Bi0_7 3.458127 1_554
Bi0_7 Sm0_5 3.433930 1_565
Bi0_7 Sm0_3 3.433930 1_655
Bi0_7 Sm0_7 3.433930 1_555
Bi0_7 Sm0_1 3.433930 1_665
Bi0_7 Sm0_6 3.433930 1_556
Bi0_7 Sm0_4 3.433930 1_566
Bi0_7 Sm0_0 3.433930 1_666
Bi0_7 Sm0_2 3.433930 1_656
