# generated using pymatgen
data_Li2Ni3SnO8
_symmetry_space_group_name_H-M   'P 1'
_cell_length_a   5.91806937
_cell_length_b   6.05972186
_cell_length_c   8.19343241
_cell_angle_alpha   88.00598483
_cell_angle_beta   90.21905497
_cell_angle_gamma   90.85961459
_symmetry_Int_Tables_number   1
_chemical_formula_structural   Li2Ni3SnO8
_chemical_formula_sum   'Li4 Ni6 Sn2 O16'
_cell_volume   293.61910397
_cell_formula_units_Z   2
loop_
 _symmetry_equiv_pos_site_id
 _symmetry_equiv_pos_as_xyz
  1  'x, y, z'
loop_
 _atom_site_type_symbol
 _atom_site_label
 _atom_site_symmetry_multiplicity
 _atom_site_fract_x
 _atom_site_fract_y
 _atom_site_fract_z
 _atom_site_occupancy
  Li  Li0  1  0.98777000  0.24292800  0.11661600  1
  Li  Li1  1  0.48948700  0.74335900  0.61627600  1
  Li  Li2  1  0.01243200  0.75693900  0.88332600  1
  Li  Li3  1  0.51052000  0.25681600  0.38380400  1
  Ni  Ni0  1  0.50014600  0.00017700  0.00004600  1
  Ni  Ni1  1  0.75095500  0.74983300  0.24989100  1
  Ni  Ni2  1  0.24901200  0.25022700  0.75017300  1
  Ni  Ni3  1  0.99981500  0.49977300  0.49998700  1
  Ni  Ni4  1  0.25098900  0.75008900  0.25002100  1
  Ni  Ni5  1  0.74886300  0.24986000  0.74982700  1
  Sn  Sn0  1  0.00029800  0.99963200  0.50045900  1
  Sn  Sn1  1  0.49993300  0.50025900  0.99961800  1
  O  O0  1  0.97642500  0.52772600  0.26815800  1
  O  O1  1  0.47556900  0.02909200  0.76797500  1
  O  O2  1  0.02212100  0.47098400  0.73209700  1
  O  O3  1  0.52565100  0.97222900  0.23187600  1
  O  O4  1  0.22391500  0.73672000  0.48054000  1
  O  O5  1  0.72295800  0.23703500  0.98040200  1
  O  O6  1  0.75790900  0.75412100  0.48169200  1
  O  O7  1  0.25660700  0.25480700  0.98186400  1
  O  O8  1  0.99374500  0.96106100  0.24759200  1
  O  O9  1  0.49016500  0.46290800  0.74747200  1
  O  O10  1  0.00786500  0.03728200  0.75248900  1
  O  O11  1  0.50810900  0.53881700  0.25249700  1
  O  O12  1  0.24197100  0.24605300  0.51823300  1
  O  O13  1  0.74351800  0.74525000  0.01830600  1
  O  O14  1  0.77599600  0.26256500  0.51939800  1
  O  O15  1  0.27725600  0.76345800  0.01936400  1
loop_
_geom_bond_atom_site_label_1
_geom_bond_atom_site_label_2
_geom_bond_distance
_geom_bond_site_symmetry_2
Li0 O5 1.921100 1_554
Li0 O7 1.939049 1_654
Li0 O8 1.986010 1_545
Li0 O0 2.162824 1_555
Li1 O4 1.922626 1_555
Li1 O6 1.936221 1_555
Li1 O9 1.979069 1_555
Li1 O1 2.168977 1_565
Li2 O15 1.920429 1_556
Li2 O13 1.940486 1_456
Li2 O10 1.977440 1_565
Li2 O2 2.166606 1_555
Li3 O14 1.921345 1_555
Li3 O12 1.936114 1_555
Li3 O11 1.987587 1_555
Li3 O3 2.164812 1_545
Ni0 O3 1.906749 1_545
Ni0 O1 1.908629 1_554
Ni0 O15 1.936929 1_545
Ni0 O5 1.937391 1_554
Ni0 O7 2.128234 1_554
Ni0 O13 2.128901 1_545
Ni1 O13 1.898978 1_555
Ni1 O6 1.900607 1_555
Ni1 O11 1.908980 1_555
Ni1 O8 1.909604 1_555
Ni1 O0 1.911201 1_555
Ni1 O3 1.911648 1_555
Ni2 O7 1.899863 1_555
Ni2 O12 1.901722 1_555
Ni2 O9 1.908224 1_555
Ni2 O10 1.909291 1_555
Ni2 O2 1.911290 1_555
Ni2 O1 1.911393 1_555
Ni3 O0 1.905823 1_555
Ni3 O2 1.907957 1_655
Ni3 O4 1.942800 1_655
Ni3 O14 1.942815 1_555
Ni3 O12 2.118588 1_655
Ni3 O6 2.120382 1_555
Ni4 O4 1.894956 1_555
Ni4 O15 1.895669 1_555
Ni4 O8 2.002210 1_455
Ni4 O11 2.002821 1_555
Ni4 O3 2.097266 1_555
Ni4 O0 2.097667 1_455
Ni5 O14 1.894229 1_555
Ni5 O5 1.894799 1_555
Ni5 O10 2.016513 1_655
Ni5 O9 2.017020 1_555
Ni5 O1 2.085849 1_555
Ni5 O2 2.086865 1_655
O4 Sn0 2.097423 1_555
O5 Sn1 2.096027 1_555
O6 Sn0 2.060315 1_655
O7 Sn1 2.063075 1_555
O8 Sn0 2.093204 1_655
O9 Sn1 2.086604 1_555
O10 Sn0 2.085669 1_545
O11 Sn1 2.093438 1_554
O12 Sn0 2.060587 1_545
O13 Sn1 2.062864 1_554
O14 Sn0 2.099288 1_645
O15 Sn1 2.095046 1_554
