# generated using pymatgen
data_K
_symmetry_space_group_name_H-M   'P 1'
_cell_length_a   4.93472800
_cell_length_b   15.45205726
_cell_length_c   8.04843895
_cell_angle_alpha   90.00000000
_cell_angle_beta   90.00000000
_cell_angle_gamma   90.00000000
_symmetry_Int_Tables_number   1
_chemical_formula_structural   K
_chemical_formula_sum   K8
_cell_volume   613.70714921
_cell_formula_units_Z   8
loop_
 _symmetry_equiv_pos_site_id
 _symmetry_equiv_pos_as_xyz
  1  'x, y, z'
loop_
 _atom_site_type_symbol
 _atom_site_label
 _atom_site_symmetry_multiplicity
 _atom_site_fract_x
 _atom_site_fract_y
 _atom_site_fract_z
 _atom_site_occupancy
  K  K0  1  0.75000000  0.50209859  0.74988086  1
  K  K1  1  0.75000000  0.00209859  0.75011914  1
  K  K2  1  0.25000000  0.49790141  0.25011914  1
  K  K3  1  0.25000000  0.99790141  0.24988086  1
  K  K4  1  0.75000000  0.24716669  0.10588806  1
  K  K5  1  0.75000000  0.74716669  0.39411194  1
  K  K6  1  0.25000000  0.75283331  0.89411194  1
  K  K7  1  0.25000000  0.25283331  0.60588806  1
loop_
_geom_bond_atom_site_label_1
_geom_bond_atom_site_label_2
_geom_bond_distance
_geom_bond_site_symmetry_2
K0 K7 4.718715 1_555
K0 K7 4.718715 1_655
K0 K2 4.719216 1_555
K0 K2 4.719216 1_655
K0 K2 4.722486 1_656
K0 K2 4.722486 1_556
K0 K6 4.737736 1_555
K0 K6 4.737736 1_655
K0 K5 4.747512 1_555
K1 K6 4.718715 1_545
K1 K6 4.718715 1_645
K1 K3 4.719216 1_546
K1 K3 4.719216 1_646
K1 K3 4.722486 1_545
K1 K3 4.722486 1_645
K1 K7 4.737736 1_555
K1 K7 4.737736 1_655
K1 K4 4.747512 1_556
K2 K5 4.718715 1_455
K2 K5 4.718715 1_555
K2 K4 4.737736 1_455
K2 K4 4.737736 1_555
K2 K7 4.747512 1_555
K3 K4 4.718715 1_465
K3 K4 4.718715 1_565
K3 K5 4.737736 1_455
K3 K5 4.737736 1_555
K3 K6 4.747512 1_554
K4 K7 4.721217 1_654
K4 K7 4.721217 1_554
K4 K7 4.721217 1_555
K4 K7 4.721217 1_655
K5 K6 4.721217 1_554
K5 K6 4.721217 1_654
K5 K6 4.721217 1_655
K5 K6 4.721217 1_555
