# generated using pymatgen
data_Pr3AsBr3
_symmetry_space_group_name_H-M   'P 1'
_cell_length_a   10.43752170
_cell_length_b   10.43726403
_cell_length_c   10.43717862
_cell_angle_alpha   109.46982178
_cell_angle_beta   109.47101650
_cell_angle_gamma   109.47151551
_symmetry_Int_Tables_number   1
_chemical_formula_structural   Pr3AsBr3
_chemical_formula_sum   'Pr12 As4 Br12'
_cell_volume   875.29066613
_cell_formula_units_Z   4
loop_
 _symmetry_equiv_pos_site_id
 _symmetry_equiv_pos_as_xyz
  1  'x, y, z'
loop_
 _atom_site_type_symbol
 _atom_site_label
 _atom_site_symmetry_multiplicity
 _atom_site_fract_x
 _atom_site_fract_y
 _atom_site_fract_z
 _atom_site_occupancy
  Pr  Pr0  1  0.47816393  0.48908097  0.23908148  1
  Pr  Pr1  1  0.75001798  0.23910091  0.26091676  1
  Pr  Pr2  1  0.75002853  0.01090939  0.48912934  1
  Pr  Pr3  1  0.23907509  0.47815396  0.48909761  1
  Pr  Pr4  1  0.26089349  0.74999240  0.23909726  1
  Pr  Pr5  1  0.02181645  0.26089834  0.01090152  1
  Pr  Pr6  1  0.01090908  0.02184396  0.26092825  1
  Pr  Pr7  1  0.48910620  0.74998631  0.01086308  1
  Pr  Pr8  1  0.48909158  0.23909753  0.47817601  1
  Pr  Pr9  1  0.01089026  0.48908687  0.74998263  1
  Pr  Pr10  1  0.26090916  0.01091382  0.02182716  1
  Pr  Pr11  1  0.23908165  0.26089802  0.74998008  1
  As  As0  1  0.24998318  0.24999654  0.25000475  1
  As  As1  1  0.50003784  0.99997452  0.25000593  1
  As  As2  1  0.99997509  0.24999236  0.50001387  1
  As  As3  1  0.24998890  0.50000845  0.99996488  1
  Br  Br0  1  0.24997871  0.75589394  0.74410099  1
  Br  Br1  1  0.51178370  0.50583863  0.75587559  1
  Br  Br2  1  0.98819633  0.74413640  0.99416651  1
  Br  Br3  1  0.74410120  0.25001513  0.75589050  1
  Br  Br4  1  0.99415374  0.98820061  0.74409579  1
  Br  Br5  1  0.25002010  0.99411639  0.50588772  1
  Br  Br6  1  0.75590311  0.51179133  0.50586049  1
  Br  Br7  1  0.50588991  0.24999349  0.99410037  1
  Br  Br8  1  0.75592400  0.74414967  0.25001964  1
  Br  Br9  1  0.74410723  0.99413407  0.98822554  1
  Br  Br10  1  0.99412276  0.50589118  0.25001857  1
  Br  Br11  1  0.50584879  0.75590580  0.51178566  1
loop_
_geom_bond_atom_site_label_1
_geom_bond_atom_site_label_2
_geom_bond_distance
_geom_bond_site_symmetry_2
As0 Pr6 2.884342 1_555
As0 Pr3 2.884404 1_555
As0 Pr5 2.884471 1_555
As0 Pr8 2.884519 1_555
As0 Pr0 2.884563 1_555
As0 Pr10 2.884570 1_555
As1 Pr2 2.884518 1_565
As1 Pr1 2.884601 1_565
As1 Pr7 2.884635 1_555
As1 Pr4 2.884724 1_555
As1 Pr8 2.884908 1_565
As1 Pr10 2.884943 1_565
As2 Pr2 2.884291 1_555
As2 Pr9 2.884328 1_655
As2 Pr1 2.884405 1_555
As2 Pr11 2.884429 1_655
As2 Pr6 2.884469 1_655
As2 Pr3 2.884511 1_655
As3 Pr9 2.884393 1_555
As3 Pr11 2.884566 1_555
As3 Pr7 2.884602 1_556
As3 Pr4 2.884703 1_556
As3 Pr5 2.884761 1_556
As3 Pr0 2.884765 1_556
Br0 Pr9 3.093406 1_555
Br0 Pr7 3.093480 1_556
Br0 Pr10 3.151803 1_566
Br0 Pr3 3.151961 1_555
Br1 Pr11 3.093271 1_555
Br1 Pr3 3.093562 1_555
Br1 Pr8 3.151401 1_555
Br1 Pr7 3.151749 1_556
Br2 Pr4 3.093426 1_656
Br2 Pr10 3.093709 1_666
Br2 Pr6 3.151459 1_666
Br2 Pr9 3.152455 1_655
Br3 Pr9 3.093370 1_655
Br3 Pr2 3.093493 1_555
Br3 Pr8 3.151735 1_555
Br3 Pr5 3.151959 1_656
Br4 Pr11 3.093226 1_665
Br4 Pr5 3.093776 1_666
Br4 Pr10 3.151562 1_666
Br4 Pr2 3.151677 1_565
Br5 Pr8 3.093326 1_565
Br5 Pr6 3.093539 1_565
Br5 Pr4 3.151601 1_555
Br5 Pr11 3.151780 1_565
Br6 Pr1 3.093279 1_555
Br6 Pr8 3.093662 1_555
Br6 Pr9 3.151767 1_655
Br6 Pr0 3.151769 1_555
Br7 Pr10 3.093475 1_556
Br7 Pr0 3.093538 1_556
Br7 Pr11 3.151891 1_555
Br7 Pr1 3.151898 1_556
Br8 Pr2 3.093313 1_565
Br8 Pr7 3.093587 1_555
Br8 Pr6 3.151516 1_665
Br8 Pr0 3.152245 1_555
Br9 Pr1 3.093254 1_566
Br9 Pr6 3.093527 1_666
Br9 Pr7 3.151555 1_556
Br9 Pr5 3.151680 1_666
Br10 Pr3 3.093375 1_655
Br10 Pr5 3.093569 1_655
Br10 Pr1 3.151629 1_555
Br10 Pr4 3.151637 1_655
Br11 Pr4 3.093146 1_555
Br11 Pr0 3.093808 1_555
Br11 Pr2 3.151873 1_565
Br11 Pr3 3.151930 1_555
