# generated using pymatgen
data_TbSm
_symmetry_space_group_name_H-M   'P 1'
_cell_length_a   7.33873967
_cell_length_b   7.33873967
_cell_length_c   11.71399200
_cell_angle_alpha   90.00000000
_cell_angle_beta   90.00000000
_cell_angle_gamma   120.00001360
_symmetry_Int_Tables_number   1
_chemical_formula_structural   TbSm
_chemical_formula_sum   'Tb8 Sm8'
_cell_volume   546.35945009
_cell_formula_units_Z   8
loop_
 _symmetry_equiv_pos_site_id
 _symmetry_equiv_pos_as_xyz
  1  'x, y, z'
loop_
 _atom_site_type_symbol
 _atom_site_label
 _atom_site_symmetry_multiplicity
 _atom_site_fract_x
 _atom_site_fract_y
 _atom_site_fract_z
 _atom_site_occupancy
  Tb  Tb0_0  1  0.33333349  0.16666650  0.00000000  1
  Tb  Tb0_1  1  0.33333349  0.16666650  0.50000000  1
  Tb  Tb0_2  1  0.33333349  0.66666651  0.00000000  1
  Tb  Tb0_3  1  0.33333349  0.66666651  0.50000000  1
  Tb  Tb0_4  1  0.83333349  0.16666651  0.00000000  1
  Tb  Tb0_5  1  0.83333349  0.16666651  0.50000000  1
  Tb  Tb0_6  1  0.83333349  0.66666651  0.00000000  1
  Tb  Tb0_7  1  0.83333349  0.66666651  0.50000000  1
  Sm  Sm0_0  1  0.00000001  1.00000000  0.25000000  1
  Sm  Sm0_1  1  0.00000001  1.00000000  0.75000000  1
  Sm  Sm0_2  1  0.00000001  0.49999999  0.25000000  1
  Sm  Sm0_3  1  0.00000001  0.49999999  0.75000000  1
  Sm  Sm0_4  1  0.50000000  1.00000000  0.25000000  1
  Sm  Sm0_5  1  0.50000000  1.00000000  0.75000000  1
  Sm  Sm0_6  1  0.50000000  0.49999999  0.25000000  1
  Sm  Sm0_7  1  0.50000000  0.49999999  0.75000000  1
loop_
_geom_bond_atom_site_label_1
_geom_bond_atom_site_label_2
_geom_bond_distance
_geom_bond_site_symmetry_2
Tb0_0 Tb0_6 3.669369 1_555
Tb0_0 Tb0_6 3.669369 1_445
Tb0_0 Tb0_2 3.669370 1_555
Tb0_0 Tb0_4 3.669370 1_455
Tb0_0 Tb0_2 3.669370 1_545
Tb0_0 Tb0_4 3.669370 1_555
Tb0_1 Tb0_7 3.669369 1_445
Tb0_1 Tb0_7 3.669369 1_555
Tb0_1 Tb0_5 3.669370 1_455
Tb0_1 Tb0_5 3.669370 1_555
Tb0_1 Tb0_3 3.669370 1_555
Tb0_1 Tb0_3 3.669370 1_545
Tb0_2 Tb0_4 3.669369 1_455
Tb0_2 Tb0_4 3.669369 1_565
Tb0_2 Tb0_6 3.669370 1_455
Tb0_2 Tb0_6 3.669370 1_555
Tb0_3 Tb0_5 3.669369 1_565
Tb0_3 Tb0_5 3.669369 1_455
Tb0_3 Tb0_7 3.669370 1_455
Tb0_3 Tb0_7 3.669370 1_555
Tb0_4 Tb0_6 3.669370 1_545
Tb0_4 Tb0_6 3.669370 1_555
Tb0_5 Tb0_7 3.669370 1_545
Tb0_5 Tb0_7 3.669370 1_555
Sm0_0 Tb0_5 3.614441 1_465
Sm0_0 Tb0_4 3.614441 1_465
Sm0_0 Tb0_7 3.614443 1_455
Sm0_0 Tb0_0 3.614443 1_565
Sm0_0 Tb0_1 3.614443 1_565
Sm0_0 Tb0_6 3.614443 1_455
Sm0_0 Sm0_6 3.669369 1_565
Sm0_0 Sm0_6 3.669369 1_455
Sm0_0 Sm0_4 3.669370 1_555
Sm0_0 Sm0_4 3.669370 1_455
Sm0_0 Sm0_2 3.669370 1_555
Sm0_0 Sm0_2 3.669370 1_565
Sm0_1 Tb0_5 3.614441 1_465
Sm0_1 Tb0_4 3.614441 1_466
Sm0_1 Tb0_7 3.614443 1_455
Sm0_1 Tb0_0 3.614443 1_566
Sm0_1 Tb0_1 3.614443 1_565
Sm0_1 Tb0_6 3.614443 1_456
Sm0_1 Sm0_7 3.669369 1_565
Sm0_1 Sm0_7 3.669369 1_455
Sm0_1 Sm0_5 3.669370 1_555
Sm0_1 Sm0_3 3.669370 1_555
Sm0_1 Sm0_5 3.669370 1_455
Sm0_1 Sm0_3 3.669370 1_565
Sm0_2 Tb0_7 3.614441 1_455
Sm0_2 Tb0_6 3.614441 1_455
Sm0_2 Tb0_5 3.614443 1_455
Sm0_2 Tb0_2 3.614443 1_555
Sm0_2 Tb0_4 3.614443 1_455
Sm0_2 Tb0_3 3.614443 1_555
Sm0_2 Sm0_4 3.669369 1_555
Sm0_2 Sm0_4 3.669369 1_445
Sm0_2 Sm0_6 3.669370 1_555
Sm0_2 Sm0_6 3.669370 1_455
Sm0_3 Tb0_7 3.614441 1_455
Sm0_3 Tb0_6 3.614441 1_456
Sm0_3 Tb0_5 3.614443 1_455
Sm0_3 Tb0_4 3.614443 1_456
Sm0_3 Tb0_2 3.614443 1_556
Sm0_3 Tb0_3 3.614443 1_555
Sm0_3 Sm0_5 3.669369 1_445
Sm0_3 Sm0_5 3.669369 1_555
Sm0_3 Sm0_7 3.669370 1_555
Sm0_3 Sm0_7 3.669370 1_455
Sm0_4 Tb0_0 3.614441 1_565
Sm0_4 Tb0_1 3.614441 1_565
Sm0_4 Tb0_4 3.614443 1_565
Sm0_4 Tb0_2 3.614443 1_555
Sm0_4 Tb0_5 3.614443 1_565
Sm0_4 Tb0_3 3.614443 1_555
Sm0_4 Sm0_6 3.669370 1_555
Sm0_4 Sm0_6 3.669370 1_565
Sm0_5 Tb0_0 3.614441 1_566
Sm0_5 Tb0_1 3.614441 1_565
Sm0_5 Tb0_5 3.614443 1_565
Sm0_5 Tb0_4 3.614443 1_566
Sm0_5 Tb0_2 3.614443 1_556
Sm0_5 Tb0_3 3.614443 1_555
Sm0_5 Sm0_7 3.669370 1_555
Sm0_5 Sm0_7 3.669370 1_565
Sm0_6 Tb0_3 3.614441 1_555
Sm0_6 Tb0_2 3.614441 1_555
Sm0_6 Tb0_7 3.614443 1_555
Sm0_6 Tb0_1 3.614443 1_555
Sm0_6 Tb0_0 3.614443 1_555
Sm0_6 Tb0_6 3.614443 1_555
Sm0_7 Tb0_3 3.614441 1_555
Sm0_7 Tb0_2 3.614441 1_556
Sm0_7 Tb0_7 3.614443 1_555
Sm0_7 Tb0_1 3.614443 1_555
Sm0_7 Tb0_6 3.614443 1_556
Sm0_7 Tb0_0 3.614443 1_556
