# generated using pymatgen
data_Cu2SiS3
_symmetry_space_group_name_H-M   'P 1'
_cell_length_a   12.27414608
_cell_length_b   11.73281754
_cell_length_c   6.35271905
_cell_angle_alpha   79.42359793
_cell_angle_beta   69.99405749
_cell_angle_gamma   30.58234458
_symmetry_Int_Tables_number   1
_chemical_formula_structural   Cu2SiS3
_chemical_formula_sum   'Cu8 Si4 S12'
_cell_volume   425.42213030
_cell_formula_units_Z   4
loop_
 _symmetry_equiv_pos_site_id
 _symmetry_equiv_pos_as_xyz
  1  'x, y, z'
loop_
 _atom_site_type_symbol
 _atom_site_label
 _atom_site_symmetry_multiplicity
 _atom_site_fract_x
 _atom_site_fract_y
 _atom_site_fract_z
 _atom_site_occupancy
  Cu  Cu0  1  0.58794200  0.24813500  0.24120800  1
  Cu  Cu1  1  0.92069200  0.57930800  0.92069200  1
  Cu  Cu2  1  0.24120800  0.92271400  0.58794200  1
  Cu  Cu3  1  0.00186500  0.66205800  0.32728600  1
  Cu  Cu4  1  0.32728600  0.00879200  0.00186500  1
  Cu  Cu5  1  0.67069200  0.32930800  0.67069200  1
  Cu  Cu6  1  0.41556400  0.08443600  0.41556400  1
  Cu  Cu7  1  0.16556400  0.83443600  0.16556400  1
  Si  Si0  1  0.76419200  0.40181100  0.06848100  1
  Si  Si1  1  0.06848100  0.76551500  0.76419200  1
  Si  Si2  1  0.48448500  0.18151900  0.84818900  1
  Si  Si3  1  0.84818900  0.48580800  0.48448500  1
  S  S0  1  0.71085400  0.61798500  0.86438900  1
  S  S1  1  0.04657900  0.94173100  0.54939800  1
  S  S2  1  0.38407000  0.28399200  0.19662200  1
  S  S3  1  0.19662200  0.13531600  0.38407000  1
  S  S4  1  0.54939800  0.46229200  0.04657900  1
  S  S5  1  0.86438900  0.80677200  0.71085400  1
  S  S6  1  0.30826900  0.20342100  0.78770800  1
  S  S7  1  0.63201500  0.53914600  0.44322800  1
  S  S8  1  0.96600800  0.86593000  0.11468400  1
  S  S9  1  0.44322800  0.38561100  0.63201500  1
  S  S10  1  0.78770800  0.70060200  0.30826900  1
  S  S11  1  0.11468400  0.05337800  0.96600800  1
loop_
_geom_bond_atom_site_label_1
_geom_bond_atom_site_label_2
_geom_bond_distance
_geom_bond_site_symmetry_2
Cu0 S2 2.268832 1_555
Cu0 S8 2.287064 1_545
Cu0 S4 2.297625 1_555
Cu0 S9 2.332404 1_555
Cu1 S6 2.299707 1_655
Cu1 S10 2.299707 1_556
Cu1 S0 2.350711 1_555
Cu1 S5 2.350711 1_555
Cu2 S3 2.268841 1_565
Cu2 S11 2.287067 1_565
Cu2 S1 2.297616 1_555
Cu2 S7 2.332401 1_555
Cu3 S8 2.268835 1_455
Cu3 S2 2.287064 1_555
Cu3 S10 2.297628 1_455
Cu3 S5 2.332398 1_455
Cu4 S11 2.268844 1_554
Cu4 S3 2.287061 1_555
Cu4 S6 2.297619 1_554
Cu4 S0 2.332402 1_544
Cu5 S4 2.299707 1_556
Cu5 S1 2.299707 1_645
Cu5 S7 2.350711 1_555
Cu5 S9 2.350711 1_555
Cu6 S2 2.275957 1_555
Cu6 S3 2.275957 1_555
Cu6 S6 2.277728 1_555
Cu6 S10 2.277728 1_545
Cu7 S11 2.275957 1_564
Cu7 S8 2.275957 1_455
Cu7 S1 2.277728 1_555
Cu7 S4 2.277728 1_555
S0 Si0 2.248822 1_556
S0 Si3 2.271646 1_555
S1 Si1 2.113569 1_555
S2 Si2 2.103086 1_554
S3 Si3 2.103089 1_455
S4 Si0 2.113560 1_555
S5 Si1 2.248813 1_655
S5 Si2 2.271648 1_565
S6 Si2 2.113572 1_555
S7 Si3 2.248825 1_555
S7 Si0 2.271651 1_555
S8 Si1 2.103092 1_654
S9 Si2 2.248816 1_555
S9 Si1 2.271648 1_555
S10 Si3 2.113563 1_555
S11 Si0 2.103090 1_456
