# generated using pymatgen
data_LaZn(FeO3)2
_symmetry_space_group_name_H-M   'P 1'
_cell_length_a   5.34674100
_cell_length_b   5.51198100
_cell_length_c   7.74564100
_cell_angle_alpha   90.00000000
_cell_angle_beta   90.00000000
_cell_angle_gamma   90.00000000
_symmetry_Int_Tables_number   1
_chemical_formula_structural   LaZn(FeO3)2
_chemical_formula_sum   'La2 Zn2 Fe4 O12'
_cell_volume   228.27283005
_cell_formula_units_Z   2
loop_
 _symmetry_equiv_pos_site_id
 _symmetry_equiv_pos_as_xyz
  1  'x, y, z'
loop_
 _atom_site_type_symbol
 _atom_site_label
 _atom_site_symmetry_multiplicity
 _atom_site_fract_x
 _atom_site_fract_y
 _atom_site_fract_z
 _atom_site_occupancy
  La  La0  1  0.00863500  0.72090400  0.00000000  1
  La  La1  1  0.50863500  0.27909600  0.50000000  1
  Zn  Zn0  1  0.48101300  0.22864700  0.00000000  1
  Zn  Zn1  1  0.98101300  0.77135300  0.50000000  1
  Fe  Fe0  1  0.99960200  0.24625800  0.24954300  1
  Fe  Fe1  1  0.49960200  0.75374200  0.74954300  1
  Fe  Fe2  1  0.99960200  0.24625800  0.75045700  1
  Fe  Fe3  1  0.49960200  0.75374200  0.25045700  1
  O  O0  1  0.36498500  0.73060700  0.50000000  1
  O  O1  1  0.80443500  0.54935900  0.69210800  1
  O  O2  1  0.80443500  0.54935900  0.30789200  1
  O  O3  1  0.30443500  0.45064100  0.80789200  1
  O  O4  1  0.30443500  0.45064100  0.19210800  1
  O  O5  1  0.86498500  0.26939300  0.00000000  1
  O  O6  1  0.07566900  0.21865900  0.50000000  1
  O  O7  1  0.73080600  0.01758100  0.30345800  1
  O  O8  1  0.73080600  0.01758100  0.69654200  1
  O  O9  1  0.23080600  0.98241900  0.19654200  1
  O  O10  1  0.23080600  0.98241900  0.80345800  1
  O  O11  1  0.57566900  0.78134100  0.00000000  1
loop_
_geom_bond_atom_site_label_1
_geom_bond_atom_site_label_2
_geom_bond_distance
_geom_bond_site_symmetry_2
La0 O11 2.338803 1_455
La0 O10 2.409655 1_554
La0 O9 2.409655 1_555
La0 O5 2.604543 1_455
La0 O4 2.633373 1_555
La0 O3 2.633373 1_554
La0 O2 2.788096 1_455
La0 O1 2.788096 1_454
La1 O6 2.338803 1_555
La1 O7 2.409655 1_555
La1 O8 2.409655 1_555
La1 O0 2.604543 1_555
La1 O1 2.633373 1_555
La1 O2 2.633373 1_555
La1 O3 2.788096 1_555
La1 O4 2.788096 1_555
Fe0 O9 1.952335 1_645
Fe0 O7 1.956695 1_555
Fe0 O6 1.987954 1_655
Fe0 O2 2.020980 1_555
Fe0 O4 2.030638 1_655
Fe0 O5 2.066472 1_555
Fe1 O8 1.952335 1_565
Fe1 O10 1.956695 1_555
Fe1 O11 1.987954 1_556
Fe1 O3 2.020980 1_555
Fe1 O1 2.030638 1_555
Fe1 O0 2.066472 1_555
Fe2 O10 1.952335 1_645
Fe2 O8 1.956695 1_555
Fe2 O6 1.987954 1_655
Fe2 O1 2.020980 1_555
Fe2 O3 2.030638 1_655
Fe2 O5 2.066472 1_556
Fe3 O7 1.952335 1_565
Fe3 O9 1.956695 1_555
Fe3 O11 1.987954 1_555
Fe3 O4 2.020980 1_555
Fe3 O2 2.030638 1_555
Fe3 O0 2.066472 1_555
O0 Zn1 2.065247 1_455
O1 Zn1 2.145405 1_555
O2 Zn1 2.145405 1_555
O3 Zn0 2.145405 1_556
O4 Zn0 2.145405 1_555
O5 Zn0 2.065247 1_555
O6 Zn1 2.516950 1_445
O7 Zn1 2.439102 1_545
O8 Zn1 2.439102 1_545
O9 Zn0 2.439102 1_565
O10 Zn0 2.439102 1_566
O11 Zn0 2.516950 1_565
