# generated using pymatgen
data_Be4B25
_symmetry_space_group_name_H-M   'P 1'
_cell_length_a   9.20515000
_cell_length_b   5.13878000
_cell_length_c   10.28765948
_cell_angle_alpha   60.24995777
_cell_angle_beta   90.00000000
_cell_angle_gamma   90.00000000
_symmetry_Int_Tables_number   1
_chemical_formula_structural   Be4B25
_chemical_formula_sum   'Be8 B50'
_cell_volume   422.49977421
_cell_formula_units_Z   2
loop_
 _symmetry_equiv_pos_site_id
 _symmetry_equiv_pos_as_xyz
  1  'x, y, z'
loop_
 _atom_site_type_symbol
 _atom_site_label
 _atom_site_symmetry_multiplicity
 _atom_site_fract_x
 _atom_site_fract_y
 _atom_site_fract_z
 _atom_site_occupancy
  Be  Be0  1  0.68980500  0.09525700  0.36112800  1
  Be  Be1  1  0.31019500  0.09525700  0.86112800  1
  Be  Be2  1  0.15120800  0.24733000  0.69109900  1
  Be  Be3  1  0.84879200  0.24733000  0.19109900  1
  Be  Be4  1  0.31019500  0.90474300  0.63887200  1
  Be  Be5  1  0.68980500  0.90474300  0.13887200  1
  Be  Be6  1  0.84879200  0.75267000  0.30890100  1
  Be  Be7  1  0.15120800  0.75267000  0.80890100  1
  B  B0  1  0.66903600  0.57649600  0.57183400  1
  B  B1  1  0.33096400  0.57649600  0.07183400  1
  B  B2  1  0.16140500  0.24200600  0.41769700  1
  B  B3  1  0.83859500  0.24200600  0.91769700  1
  B  B4  1  0.33096400  0.42350400  0.42816600  1
  B  B5  1  0.66903600  0.42350400  0.92816600  1
  B  B6  1  0.83859500  0.75799400  0.58230300  1
  B  B7  1  0.16140500  0.75799400  0.08230300  1
  B  B8  1  0.08120300  0.98255100  0.16763500  1
  B  B9  1  0.61391500  0.82675700  0.83505800  1
  B  B10  1  0.91879700  0.98255100  0.66763500  1
  B  B11  1  0.38608500  0.82675700  0.33505800  1
  B  B12  1  0.91879700  0.01744900  0.83236500  1
  B  B13  1  0.38608500  0.17324300  0.16494200  1
  B  B14  1  0.08120300  0.01744900  0.33236500  1
  B  B15  1  0.61391500  0.17324300  0.66494200  1
  B  B16  1  0.65266100  0.69075900  0.35810400  1
  B  B17  1  0.34733900  0.69075900  0.85810400  1
  B  B18  1  0.10747700  0.00795100  0.60887900  1
  B  B19  1  0.89252300  0.00795100  0.10887900  1
  B  B20  1  0.34733900  0.30924100  0.64189600  1
  B  B21  1  0.65266100  0.30924100  0.14189600  1
  B  B22  1  0.89252300  0.99204900  0.39112100  1
  B  B23  1  0.10747700  0.99204900  0.89112100  1
  B  B24  1  0.50152000  0.49247300  0.66780800  1
  B  B25  1  0.49848000  0.49247300  0.16780800  1
  B  B26  1  0.98372100  0.33018500  0.33328700  1
  B  B27  1  0.01627900  0.33018500  0.83328700  1
  B  B28  1  0.49848000  0.50752700  0.33219200  1
  B  B29  1  0.50152000  0.50752700  0.83219200  1
  B  B30  1  0.01627900  0.66981500  0.66671300  1
  B  B31  1  0.98372100  0.66981500  0.16671300  1
  B  B32  1  0.16615900  0.15976500  0.99086300  1
  B  B33  1  0.66598200  0.66936900  0.01953200  1
  B  B34  1  0.83384100  0.15976500  0.49086300  1
  B  B35  1  0.33401800  0.66936900  0.51953200  1
  B  B36  1  0.83384100  0.84023500  0.00913700  1
  B  B37  1  0.33401800  0.33063100  0.98046800  1
  B  B38  1  0.16615900  0.84023500  0.50913700  1
  B  B39  1  0.66598200  0.33063100  0.48046800  1
  B  B40  1  0.50827500  0.85145900  0.48292800  1
  B  B41  1  0.49172500  0.85145900  0.98292800  1
  B  B42  1  0.99997100  0.33007800  0.50360700  1
  B  B43  1  0.00002900  0.33007800  0.00360700  1
  B  B44  1  0.49172500  0.14854100  0.51707200  1
  B  B45  1  0.50827500  0.14854100  0.01707200  1
  B  B46  1  0.00002900  0.66992200  0.49639300  1
  B  B47  1  0.99997100  0.66992200  0.99639300  1
  B  B48  1  0.54736300  0.00000000  0.25000000  1
  B  B49  1  0.45263700  0.00000000  0.75000000  1
loop_
_geom_bond_atom_site_label_1
_geom_bond_atom_site_label_2
_geom_bond_distance
_geom_bond_site_symmetry_2
B0 B24 1.765218 1_555
B0 B6 1.848601 1_555
B0 B15 1.870612 1_555
B0 B39 1.912893 1_555
B0 B40 1.934004 1_555
B0 B16 1.980110 1_555
B0 Be0 2.471230 1_565
B1 B25 1.765218 1_555
B1 B7 1.848601 1_555
B1 B13 1.870612 1_555
B1 B37 1.912893 1_554
B1 B41 1.934004 1_554
B1 B17 1.980110 1_554
B1 Be1 2.471230 1_564
B2 B38 1.794985 1_545
B2 B26 1.801142 1_455
B2 B4 1.848601 1_555
B2 B42 1.895045 1_455
B3 B36 1.794985 1_546
B3 B5 1.848601 1_555
B3 B43 1.895045 1_656
B4 B44 1.934004 1_555
B4 Be4 2.471230 1_545
B5 B9 1.870612 1_555
B5 Be5 2.471230 1_546
B7 B8 1.911189 1_555
B10 B34 1.761960 1_565
B10 B12 1.790457 1_565
B10 B18 1.822274 1_665
B10 B30 1.844761 1_655
B10 B42 1.898526 1_565
B10 B6 1.911189 1_555
B11 B35 1.721107 1_555
B11 B48 1.728914 1_565
B11 B13 1.772166 1_565
B11 B4 1.870612 1_555
B11 B40 1.946032 1_555
B11 B28 1.952019 1_555
B12 B36 1.761960 1_546
B12 B23 1.822274 1_645
B12 B27 1.844761 1_655
B12 B47 1.898526 1_545
B12 B3 1.911189 1_555
B13 B37 1.721107 1_554
B13 B48 1.728914 1_555
B13 B45 1.946032 1_555
B13 B25 1.952019 1_555
B14 B38 1.761960 1_545
B14 B8 1.790457 1_545
B14 B22 1.822274 1_445
B14 B26 1.844761 1_455
B14 B46 1.898526 1_545
B14 B2 1.911189 1_555
B15 B39 1.721107 1_555
B15 B49 1.728914 1_555
B15 B9 1.772166 1_545
B15 B44 1.946032 1_555
B15 B24 1.952019 1_555
B16 B39 1.646966 1_555
B16 B48 1.716892 1_565
B16 B28 1.794729 1_555
B16 Be6 1.859339 1_555
B16 Be5 1.987845 1_555
B16 Be0 2.121966 1_565
B17 B37 1.646966 1_555
B17 B49 1.716892 1_565
B17 B29 1.794729 1_555
B17 Be7 1.859339 1_555
B17 Be4 1.987845 1_555
B17 Be1 2.121966 1_565
B18 B38 1.721964 1_545
B18 B30 1.746999 1_545
B18 B42 1.764425 1_455
B18 B2 1.792683 1_555
B18 Be2 1.850222 1_555
B18 Be7 1.854268 1_545
B18 Be4 1.922557 1_545
B19 B36 1.721964 1_545
B19 B31 1.746999 1_545
B19 B43 1.764425 1_655
B19 B3 1.792683 1_554
B19 B8 1.822274 1_645
B19 Be3 1.850222 1_555
B19 Be6 1.854268 1_545
B19 Be5 1.922557 1_545
B20 B35 1.646966 1_555
B20 B49 1.716892 1_555
B20 B24 1.794729 1_555
B20 Be2 1.859339 1_555
B20 B4 1.980110 1_555
B20 Be1 1.987845 1_555
B20 Be4 2.121966 1_545
B21 B33 1.646966 1_555
B21 B48 1.716892 1_555
B21 B25 1.794729 1_555
B21 Be3 1.859339 1_555
B21 B5 1.980110 1_554
B21 Be0 1.987845 1_555
B21 Be5 2.121966 1_545
B22 B34 1.721964 1_565
B22 B26 1.746999 1_565
B22 B46 1.764425 1_655
B22 B6 1.792683 1_555
B22 Be6 1.850222 1_555
B22 Be3 1.854268 1_565
B22 Be0 1.922557 1_565
B23 B32 1.721964 1_565
B23 B27 1.746999 1_565
B23 B47 1.764425 1_455
B23 B7 1.792683 1_556
B23 Be7 1.850222 1_555
B23 Be2 1.854268 1_565
B23 Be1 1.922557 1_565
B24 B29 1.730817 1_555
B24 B40 1.882118 1_555
B24 B35 2.038250 1_555
B25 B28 1.730817 1_555
B25 B41 1.882118 1_554
B25 B33 2.038250 1_555
B26 B31 1.736216 1_555
B26 B42 1.758296 1_555
B26 B34 1.972162 1_555
B26 Be3 2.117022 1_555
B26 Be6 2.403862 1_555
B27 B30 1.736216 1_555
B27 B43 1.758296 1_556
B27 B3 1.801142 1_455
B27 B32 1.972162 1_555
B27 Be2 2.117022 1_555
B27 Be7 2.403862 1_555
B28 B4 1.765218 1_555
B28 B44 1.882118 1_555
B28 B39 2.038250 1_555
B29 B5 1.765218 1_555
B29 B45 1.882118 1_556
B29 B9 1.952019 1_555
B29 B37 2.038250 1_555
B30 B46 1.758296 1_555
B30 B6 1.801142 1_455
B30 B38 1.972162 1_555
B30 Be7 2.117022 1_555
B30 Be2 2.403862 1_555
B31 B47 1.758296 1_554
B31 B7 1.801142 1_655
B31 B8 1.844761 1_655
B31 B36 1.972162 1_555
B31 Be6 2.117022 1_555
B31 Be3 2.403862 1_555
B32 B37 1.754067 1_555
B32 B8 1.761960 1_546
B32 B7 1.794985 1_546
B32 B43 1.798792 1_556
B32 Be1 2.021943 1_555
B33 B9 1.721107 1_554
B33 B36 1.754067 1_555
B33 B41 1.800193 1_554
B33 B5 1.912893 1_554
B33 Be5 2.119465 1_555
B34 B39 1.754067 1_555
B34 B6 1.794985 1_545
B34 B42 1.798792 1_555
B34 Be0 2.021943 1_555
B35 B38 1.754067 1_555
B35 B40 1.800193 1_555
B35 B4 1.912893 1_555
B35 Be4 2.119465 1_555
B36 B47 1.798792 1_554
B36 Be5 2.021943 1_555
B37 B45 1.800193 1_556
B37 Be1 2.119465 1_555
B38 B46 1.798792 1_555
B38 Be4 2.021943 1_555
B39 B44 1.800193 1_555
B39 Be0 2.119465 1_555
B40 B44 1.734766 1_565
B40 Be0 2.091408 1_565
B41 B45 1.734766 1_566
B41 B9 1.946032 1_555
B41 Be1 2.091408 1_565
B42 B46 1.710771 1_655
B42 Be2 2.241743 1_655
B43 B47 1.710771 1_454
B43 B8 1.898526 1_545
B43 Be3 2.241743 1_455
B44 Be4 2.091408 1_545
B45 B5 1.934004 1_554
B45 Be5 2.091408 1_545
B46 B6 1.895045 1_455
B46 Be6 2.241743 1_455
B47 B7 1.895045 1_656
B47 Be7 2.241743 1_655
B48 Be0 1.954806 1_555
B48 Be5 1.954806 1_545
B49 B9 1.728914 1_545
B49 Be1 1.954806 1_555
B49 Be4 1.954806 1_545
