# generated using pymatgen
data_Mn3Al2(GeO4)3
_symmetry_space_group_name_H-M   'P 1'
_cell_length_a   10.42918367
_cell_length_b   10.42918367
_cell_length_c   10.42918367
_cell_angle_alpha   109.47122063
_cell_angle_beta   109.47122063
_cell_angle_gamma   109.47122063
_symmetry_Int_Tables_number   1
_chemical_formula_structural   Mn3Al2(GeO4)3
_chemical_formula_sum   'Mn12 Al8 Ge12 O48'
_cell_volume   873.23082376
_cell_formula_units_Z   4
loop_
 _symmetry_equiv_pos_site_id
 _symmetry_equiv_pos_as_xyz
  1  'x, y, z'
loop_
 _atom_site_type_symbol
 _atom_site_label
 _atom_site_symmetry_multiplicity
 _atom_site_fract_x
 _atom_site_fract_y
 _atom_site_fract_z
 _atom_site_occupancy
  Mn  Mn0  1  0.25000000  0.37500000  0.12500000  1
  Mn  Mn1  1  0.75000000  0.62500000  0.87500000  1
  Mn  Mn2  1  0.75000000  0.12500000  0.37500000  1
  Mn  Mn3  1  0.12500000  0.25000000  0.37500000  1
  Mn  Mn4  1  0.37500000  0.75000000  0.12500000  1
  Mn  Mn5  1  0.25000000  0.87500000  0.62500000  1
  Mn  Mn6  1  0.87500000  0.75000000  0.62500000  1
  Mn  Mn7  1  0.62500000  0.25000000  0.87500000  1
  Mn  Mn8  1  0.37500000  0.12500000  0.25000000  1
  Mn  Mn9  1  0.62500000  0.87500000  0.75000000  1
  Mn  Mn10  1  0.12500000  0.37500000  0.75000000  1
  Mn  Mn11  1  0.87500000  0.62500000  0.25000000  1
  Al  Al0  1  0.00000000  0.00000000  0.00000000  1
  Al  Al1  1  0.50000000  0.00000000  0.50000000  1
  Al  Al2  1  0.00000000  0.50000000  0.50000000  1
  Al  Al3  1  0.50000000  0.00000000  0.00000000  1
  Al  Al4  1  0.50000000  0.50000000  0.00000000  1
  Al  Al5  1  0.50000000  0.50000000  0.50000000  1
  Al  Al6  1  0.00000000  0.00000000  0.50000000  1
  Al  Al7  1  0.00000000  0.50000000  0.00000000  1
  Ge  Ge0  1  0.25000000  0.62500000  0.37500000  1
  Ge  Ge1  1  0.75000000  0.37500000  0.62500000  1
  Ge  Ge2  1  0.75000000  0.87500000  0.12500000  1
  Ge  Ge3  1  0.37500000  0.25000000  0.62500000  1
  Ge  Ge4  1  0.62500000  0.75000000  0.37500000  1
  Ge  Ge5  1  0.25000000  0.12500000  0.87500000  1
  Ge  Ge6  1  0.12500000  0.75000000  0.87500000  1
  Ge  Ge7  1  0.87500000  0.25000000  0.12500000  1
  Ge  Ge8  1  0.62500000  0.37500000  0.25000000  1
  Ge  Ge9  1  0.37500000  0.62500000  0.75000000  1
  Ge  Ge10  1  0.87500000  0.12500000  0.75000000  1
  Ge  Ge11  1  0.12500000  0.87500000  0.25000000  1
  O  O0  1  0.48022500  0.37954800  0.30212700  1
  O  O1  1  0.51977500  0.62045200  0.69787300  1
  O  O2  1  0.57742000  0.17809800  0.19787300  1
  O  O3  1  0.92258000  0.12045200  0.60067800  1
  O  O4  1  0.30212700  0.48022500  0.37954800  1
  O  O5  1  0.32190200  0.92258000  0.30212700  1
  O  O6  1  0.42258000  0.82190200  0.80212700  1
  O  O7  1  0.07742000  0.87954800  0.39932200  1
  O  O8  1  0.69787300  0.51977500  0.62045200  1
  O  O9  1  0.67809800  0.07742000  0.69787300  1
  O  O10  1  0.01977500  0.32190200  0.89932200  1
  O  O11  1  0.19787300  0.57742000  0.17809800  1
  O  O12  1  0.12045200  0.01977500  0.19787300  1
  O  O13  1  0.98022500  0.67809800  0.10067800  1
  O  O14  1  0.80212700  0.42258000  0.82190200  1
  O  O15  1  0.87954800  0.98022500  0.80212700  1
  O  O16  1  0.60067800  0.92258000  0.12045200  1
  O  O17  1  0.17809800  0.48022500  0.60067800  1
  O  O18  1  0.39932200  0.07742000  0.87954800  1
  O  O19  1  0.82190200  0.51977500  0.39932200  1
  O  O20  1  0.89932200  0.01977500  0.32190200  1
  O  O21  1  0.37954800  0.57742000  0.89932200  1
  O  O22  1  0.10067800  0.98022500  0.67809800  1
  O  O23  1  0.62045200  0.42258000  0.10067800  1
  O  O24  1  0.37954800  0.30212700  0.48022500  1
  O  O25  1  0.57742000  0.89932200  0.37954800  1
  O  O26  1  0.62045200  0.69787300  0.51977500  1
  O  O27  1  0.42258000  0.10067800  0.62045200  1
  O  O28  1  0.12045200  0.60067800  0.92258000  1
  O  O29  1  0.01977500  0.19787300  0.12045200  1
  O  O30  1  0.87954800  0.39932200  0.07742000  1
  O  O31  1  0.98022500  0.80212700  0.87954800  1
  O  O32  1  0.32190200  0.89932200  0.01977500  1
  O  O33  1  0.92258000  0.30212700  0.32190200  1
  O  O34  1  0.67809800  0.10067800  0.98022500  1
  O  O35  1  0.07742000  0.69787300  0.67809800  1
  O  O36  1  0.17809800  0.19787300  0.57742000  1
  O  O37  1  0.48022500  0.60067800  0.17809800  1
  O  O38  1  0.82190200  0.80212700  0.42258000  1
  O  O39  1  0.51977500  0.39932200  0.82190200  1
  O  O40  1  0.30212700  0.32190200  0.92258000  1
  O  O41  1  0.69787300  0.67809800  0.07742000  1
  O  O42  1  0.19787300  0.12045200  0.01977500  1
  O  O43  1  0.80212700  0.87954800  0.98022500  1
  O  O44  1  0.89932200  0.37954800  0.57742000  1
  O  O45  1  0.10067800  0.62045200  0.42258000  1
  O  O46  1  0.60067800  0.17809800  0.48022500  1
  O  O47  1  0.39932200  0.82190200  0.51977500  1
loop_
_geom_bond_atom_site_label_1
_geom_bond_atom_site_label_2
_geom_bond_distance
_geom_bond_site_symmetry_2
Mn0 O40 2.290261 1_554
Mn0 O11 2.290261 1_555
Mn0 O42 2.290270 1_555
Mn0 O4 2.290270 1_555
Mn0 O0 2.467490 1_555
Mn0 O29 2.467490 1_555
Mn0 O37 2.467496 1_555
Mn0 O10 2.467496 1_554
Mn1 O14 2.290261 1_555
Mn1 O41 2.290261 1_556
Mn1 O8 2.290270 1_555
Mn1 O43 2.290270 1_555
Mn1 O31 2.467490 1_555
Mn1 O1 2.467490 1_555
Mn1 O39 2.467496 1_555
Mn1 O13 2.467496 1_556
Mn2 O20 2.290261 1_555
Mn2 O46 2.290261 1_555
Mn2 O44 2.290267 1_555
Mn2 O16 2.290267 1_545
Mn2 O33 2.467496 1_555
Mn2 O2 2.467496 1_555
Mn2 O3 2.467502 1_555
Mn2 O25 2.467502 1_545
Mn3 O33 2.290261 1_455
Mn3 O36 2.290261 1_555
Mn3 O24 2.290270 1_555
Mn3 O29 2.290270 1_555
Mn3 O4 2.467490 1_555
Mn3 O12 2.467490 1_555
Mn3 O20 2.467496 1_455
Mn3 O17 2.467496 1_555
Mn4 O37 2.290261 1_555
Mn4 O32 2.290261 1_555
Mn4 O25 2.290267 1_555
Mn4 O28 2.290267 1_554
Mn4 O5 2.467496 1_555
Mn4 O11 2.467496 1_555
Mn4 O16 2.467502 1_555
Mn4 O21 2.467502 1_554
Mn5 O22 2.290261 1_555
Mn5 O47 2.290261 1_555
Mn5 O45 2.290267 1_555
Mn5 O18 2.290267 1_565
Mn5 O6 2.467496 1_555
Mn5 O35 2.467496 1_555
Mn5 O7 2.467502 1_555
Mn5 O27 2.467502 1_565
Mn6 O38 2.290261 1_555
Mn6 O35 2.290261 1_655
Mn6 O31 2.290270 1_555
Mn6 O26 2.290270 1_555
Mn6 O8 2.467490 1_555
Mn6 O15 2.467490 1_555
Mn6 O19 2.467496 1_555
Mn6 O22 2.467496 1_655
Mn7 O34 2.290261 1_555
Mn7 O39 2.290261 1_555
Mn7 O27 2.290267 1_555
Mn7 O30 2.290267 1_556
Mn7 O14 2.467496 1_555
Mn7 O9 2.467496 1_555
Mn7 O23 2.467502 1_556
Mn7 O18 2.467502 1_555
Mn8 O5 2.290261 1_545
Mn8 O2 2.290261 1_555
Mn8 O0 2.290270 1_555
Mn8 O12 2.290270 1_555
Mn8 O24 2.467490 1_555
Mn8 O42 2.467490 1_555
Mn8 O46 2.467496 1_555
Mn8 O32 2.467496 1_545
Mn9 O6 2.290261 1_555
Mn9 O9 2.290261 1_565
Mn9 O1 2.290270 1_555
Mn9 O15 2.290270 1_555
Mn9 O43 2.467490 1_555
Mn9 O26 2.467490 1_555
Mn9 O47 2.467496 1_555
Mn9 O34 2.467496 1_565
Mn10 O10 2.290261 1_555
Mn10 O17 2.290261 1_555
Mn10 O3 2.290267 1_455
Mn10 O21 2.290267 1_555
Mn10 O40 2.467496 1_555
Mn10 O36 2.467496 1_555
Mn10 O44 2.467502 1_455
Mn10 O28 2.467502 1_555
Mn11 O19 2.290261 1_555
Mn11 O13 2.290261 1_555
Mn11 O23 2.290267 1_555
Mn11 O7 2.290267 1_655
Mn11 O38 2.467496 1_555
Mn11 O41 2.467496 1_555
Mn11 O30 2.467502 1_555
Mn11 O45 2.467502 1_655
Al0 O31 1.922125 1_444
Al0 O15 1.922125 1_444
Al0 O42 1.922125 1_555
Al0 O12 1.922125 1_555
Al0 O43 1.922125 1_444
Al0 O29 1.922125 1_555
Al1 O27 1.922121 1_555
Al1 O25 1.922121 1_545
Al1 O9 1.922127 1_555
Al1 O47 1.922127 1_545
Al1 O46 1.922127 1_555
Al1 O5 1.922127 1_545
Al2 O45 1.922121 1_555
Al2 O44 1.922121 1_455
Al2 O35 1.922127 1_555
Al2 O33 1.922127 1_455
Al2 O19 1.922127 1_455
Al2 O17 1.922127 1_555
Al3 O18 1.922121 1_554
Al3 O16 1.922121 1_545
Al3 O6 1.922127 1_544
Al3 O34 1.922127 1_554
Al3 O2 1.922127 1_555
Al3 O32 1.922127 1_545
Al4 O23 1.922121 1_555
Al4 O21 1.922121 1_554
Al4 O39 1.922127 1_554
Al4 O41 1.922127 1_555
Al4 O40 1.922127 1_554
Al4 O37 1.922127 1_555
Al5 O26 1.922125 1_555
Al5 O1 1.922125 1_555
Al5 O8 1.922125 1_555
Al5 O0 1.922125 1_555
Al5 O24 1.922125 1_555
Al5 O4 1.922125 1_555
Al6 O7 1.922121 1_545
Al6 O3 1.922121 1_455
Al6 O22 1.922127 1_545
Al6 O38 1.922127 1_445
Al6 O36 1.922127 1_555
Al6 O20 1.922127 1_455
Al7 O30 1.922121 1_455
Al7 O28 1.922121 1_554
Al7 O13 1.922127 1_455
Al7 O11 1.922127 1_555
Al7 O14 1.922127 1_454
Al7 O10 1.922127 1_554
Ge0 O45 1.776320 1_555
Ge0 O11 1.776322 1_555
Ge0 O47 1.776322 1_555
Ge0 O4 1.776324 1_555
Ge1 O44 1.776320 1_555
Ge1 O46 1.776322 1_555
Ge1 O14 1.776322 1_555
Ge1 O8 1.776324 1_555
Ge2 O16 1.776320 1_555
Ge2 O20 1.776322 1_565
Ge2 O41 1.776322 1_555
Ge2 O43 1.776324 1_554
Ge3 O27 1.776320 1_555
Ge3 O39 1.776322 1_555
Ge3 O36 1.776322 1_555
Ge3 O24 1.776324 1_555
Ge4 O25 1.776320 1_555
Ge4 O37 1.776322 1_555
Ge4 O38 1.776322 1_555
Ge4 O26 1.776324 1_555
Ge5 O18 1.776320 1_555
Ge5 O22 1.776322 1_545
Ge5 O40 1.776322 1_555
Ge5 O42 1.776324 1_556
Ge6 O28 1.776320 1_555
Ge6 O32 1.776322 1_556
Ge6 O35 1.776322 1_555
Ge6 O31 1.776324 1_455
Ge7 O30 1.776320 1_555
Ge7 O34 1.776322 1_554
Ge7 O33 1.776322 1_555
Ge7 O29 1.776324 1_655
Ge8 O23 1.776320 1_555
Ge8 O2 1.776322 1_555
Ge8 O19 1.776322 1_555
Ge8 O0 1.776324 1_555
Ge9 O21 1.776320 1_555
Ge9 O17 1.776322 1_555
Ge9 O6 1.776322 1_555
Ge9 O1 1.776324 1_555
Ge10 O3 1.776320 1_555
Ge10 O9 1.776322 1_555
Ge10 O10 1.776322 1_655
Ge10 O15 1.776324 1_545
Ge11 O7 1.776320 1_555
Ge11 O5 1.776322 1_555
Ge11 O13 1.776322 1_455
Ge11 O12 1.776324 1_565
