# generated using pymatgen
data_Fe25Mo4
_symmetry_space_group_name_H-M   'P 1'
_cell_length_a   7.66143576
_cell_length_b   7.66143576
_cell_length_c   7.66143576
_cell_angle_alpha   109.47122063
_cell_angle_beta   109.47122063
_cell_angle_gamma   109.47122063
_symmetry_Int_Tables_number   1
_chemical_formula_structural   Fe25Mo4
_chemical_formula_sum   'Fe25 Mo4'
_cell_volume   346.18528443
_cell_formula_units_Z   1
loop_
 _symmetry_equiv_pos_site_id
 _symmetry_equiv_pos_as_xyz
  1  'x, y, z'
loop_
 _atom_site_type_symbol
 _atom_site_label
 _atom_site_symmetry_multiplicity
 _atom_site_fract_x
 _atom_site_fract_y
 _atom_site_fract_z
 _atom_site_occupancy
  Fe  Fe0  1  0.00000000  0.00000000  0.00000000  1
  Fe  Fe1  1  0.40457500  0.67895100  0.00000000  1
  Fe  Fe2  1  0.72562300  0.32104900  0.32104900  1
  Fe  Fe3  1  0.40457500  0.00000000  0.67895100  1
  Fe  Fe4  1  0.67895100  0.40457500  0.00000000  1
  Fe  Fe5  1  0.00000000  0.40457500  0.67895100  1
  Fe  Fe6  1  0.32104900  0.72562300  0.32104900  1
  Fe  Fe7  1  0.32104900  0.32104900  0.72562300  1
  Fe  Fe8  1  0.00000000  0.67895100  0.40457500  1
  Fe  Fe9  1  0.67895100  0.00000000  0.40457500  1
  Fe  Fe10  1  0.59542500  0.59542500  0.27437700  1
  Fe  Fe11  1  0.27437700  0.59542500  0.59542500  1
  Fe  Fe12  1  0.59542500  0.27437700  0.59542500  1
  Fe  Fe13  1  0.37556400  0.18905000  0.00000000  1
  Fe  Fe14  1  0.18651400  0.81095000  0.81095000  1
  Fe  Fe15  1  0.37556400  0.00000000  0.18905000  1
  Fe  Fe16  1  0.18905000  0.37556400  0.00000000  1
  Fe  Fe17  1  0.00000000  0.37556400  0.18905000  1
  Fe  Fe18  1  0.81095000  0.18651400  0.81095000  1
  Fe  Fe19  1  0.81095000  0.81095000  0.18651400  1
  Fe  Fe20  1  0.00000000  0.18905000  0.37556400  1
  Fe  Fe21  1  0.18905000  0.00000000  0.37556400  1
  Fe  Fe22  1  0.62443600  0.62443600  0.81348600  1
  Fe  Fe23  1  0.81348600  0.62443600  0.62443600  1
  Fe  Fe24  1  0.62443600  0.81348600  0.62443600  1
  Mo  Mo0  1  0.63376700  0.00000000  0.00000000  1
  Mo  Mo1  1  0.00000000  0.63376700  0.00000000  1
  Mo  Mo2  1  0.00000000  0.00000000  0.63376700  1
  Mo  Mo3  1  0.36623300  0.36623300  0.36623300  1
loop_
_geom_bond_atom_site_label_1
_geom_bond_atom_site_label_2
_geom_bond_distance
_geom_bond_site_symmetry_2
Fe0 Fe19 2.756570 1_445
Fe0 Fe18 2.756570 1_454
Fe0 Fe14 2.756570 1_544
Fe0 Fe24 2.756570 1_444
Fe0 Fe22 2.756570 1_444
Fe0 Fe23 2.756570 1_444
Fe0 Fe17 2.756570 1_555
Fe0 Fe15 2.756570 1_555
Fe0 Fe13 2.756570 1_555
Fe0 Fe16 2.756570 1_555
Fe0 Fe20 2.756570 1_555
Fe0 Fe21 2.756570 1_555
Fe0 Mo3 2.805871 1_555
Fe0 Mo2 2.805871 1_554
Fe0 Mo1 2.805871 1_545
Fe0 Mo0 2.805871 1_455
Fe1 Fe16 2.360208 1_555
Fe1 Mo0 2.500809 1_565
Fe1 Fe15 2.530093 1_565
Fe1 Fe14 2.530093 1_554
Fe1 Fe7 2.537296 1_554
Fe1 Fe10 2.537299 1_555
Fe1 Fe19 2.594143 1_555
Fe1 Fe22 2.594143 1_554
Fe1 Fe9 2.683845 1_565
Fe1 Fe5 2.683845 1_554
Fe1 Fe6 2.683846 1_555
Fe1 Fe11 2.683846 1_554
Fe1 Mo1 3.002028 1_555
Fe2 Fe23 2.360205 1_555
Fe2 Mo0 2.500812 1_555
Fe2 Fe5 2.537296 1_655
Fe2 Fe8 2.537296 1_655
Fe2 Fe20 2.594150 1_655
Fe2 Fe4 2.683846 1_555
Fe2 Fe9 2.683846 1_555
Fe2 Mo3 3.002021 1_555
Fe3 Mo0 2.500809 1_556
Fe3 Fe6 2.537296 1_545
Fe3 Fe8 2.683845 1_545
Fe3 Fe4 2.683845 1_556
Fe3 Fe7 2.683846 1_555
Fe3 Mo2 3.002028 1_555
Fe4 Mo1 2.500809 1_655
Fe4 Fe7 2.537296 1_554
Fe4 Fe8 2.683845 1_655
Fe4 Mo0 3.002028 1_555
Fe5 Mo1 2.500809 1_556
Fe5 Fe9 2.683845 1_455
Fe5 Fe7 2.683846 1_555
Fe5 Mo2 3.002028 1_555
Fe6 Mo1 2.500812 1_555
Fe6 Fe9 2.537296 1_565
Fe6 Fe8 2.683846 1_555
Fe6 Mo3 3.002021 1_555
Fe7 Mo2 2.500812 1_555
Fe7 Mo3 3.002021 1_555
Fe8 Mo2 2.500809 1_565
Fe8 Mo1 3.002028 1_555
Fe9 Mo2 2.500809 1_655
Fe9 Mo0 3.002028 1_555
Fe10 Fe19 2.360214 1_555
Fe10 Mo3 2.500803 1_555
Fe10 Fe24 2.530087 1_555
Fe10 Fe23 2.530087 1_555
Fe10 Fe4 2.537299 1_555
Fe10 Fe16 2.594144 1_555
Fe10 Fe13 2.594144 1_555
Fe10 Fe2 2.683838 1_555
Fe10 Fe6 2.683838 1_555
Fe10 Fe9 2.683846 1_565
Fe10 Fe8 2.683846 1_655
Fe10 Mo2 3.002027 1_665
Fe11 Fe14 2.360214 1_555
Fe11 Mo3 2.500803 1_555
Fe11 Fe24 2.530087 1_555
Fe11 Fe22 2.530087 1_555
Fe11 Fe8 2.537299 1_555
Fe11 Fe5 2.537299 1_555
Fe11 Fe20 2.594144 1_555
Fe11 Fe17 2.594144 1_555
Fe11 Fe7 2.683838 1_555
Fe11 Fe6 2.683838 1_555
Fe11 Fe3 2.683846 1_565
Fe11 Mo0 3.002027 1_566
Fe12 Fe18 2.360214 1_555
Fe12 Mo3 2.500803 1_555
Fe12 Fe22 2.530087 1_555
Fe12 Fe23 2.530087 1_555
Fe12 Fe3 2.537299 1_555
Fe12 Fe9 2.537299 1_555
Fe12 Fe21 2.594144 1_555
Fe12 Fe15 2.594144 1_555
Fe12 Fe7 2.683838 1_555
Fe12 Fe2 2.683838 1_555
Fe12 Fe5 2.683846 1_655
Fe12 Fe4 2.683846 1_556
Fe12 Mo1 3.002027 1_656
Fe13 Fe16 2.333490 1_555
Fe13 Fe4 2.360208 1_555
Fe13 Fe14 2.365218 1_544
Fe13 Fe15 2.365218 1_555
Fe13 Fe2 2.530088 1_555
Fe13 Fe3 2.530093 1_554
Fe13 Fe7 2.594150 1_554
Fe13 Mo3 2.716600 1_555
Fe13 Mo2 2.716600 1_554
Fe13 Mo0 2.814479 1_555
Fe14 Fe23 2.333490 1_455
Fe14 Fe15 2.365218 1_566
Fe14 Fe3 2.530093 1_565
Fe14 Fe8 2.594143 1_555
Fe14 Fe5 2.594143 1_555
Fe14 Mo2 2.716600 1_565
Fe14 Mo1 2.716600 1_556
Fe14 Mo0 2.814479 1_566
Fe15 Fe21 2.333490 1_555
Fe15 Fe9 2.360208 1_555
Fe15 Fe2 2.530088 1_555
Fe15 Fe6 2.594150 1_545
Fe15 Mo3 2.716600 1_555
Fe15 Mo1 2.716600 1_545
Fe15 Mo0 2.814479 1_555
Fe16 Fe18 2.365218 1_454
Fe16 Fe17 2.365218 1_555
Fe16 Fe6 2.530088 1_555
Fe16 Fe5 2.530093 1_554
Fe16 Fe7 2.594150 1_554
Fe16 Mo3 2.716600 1_555
Fe16 Mo2 2.716600 1_554
Fe16 Mo1 2.814479 1_555
Fe17 Fe20 2.333490 1_555
Fe17 Fe8 2.360208 1_555
Fe17 Fe18 2.365218 1_454
Fe17 Fe6 2.530088 1_555
Fe17 Fe4 2.530093 1_455
Fe17 Fe2 2.594150 1_455
Fe17 Mo3 2.716600 1_555
Fe17 Mo0 2.716600 1_455
Fe17 Mo1 2.814479 1_555
Fe18 Fe24 2.333490 1_545
Fe18 Fe5 2.530093 1_655
Fe18 Fe4 2.530093 1_556
Fe18 Fe3 2.594143 1_555
Fe18 Fe9 2.594143 1_555
Fe18 Mo0 2.716600 1_556
Fe18 Mo2 2.716600 1_655
Fe18 Mo1 2.814479 1_656
Fe19 Fe22 2.333490 1_554
Fe19 Fe20 2.365218 1_665
Fe19 Fe21 2.365218 1_665
Fe19 Fe8 2.530093 1_655
Fe19 Fe9 2.530093 1_565
Fe19 Fe4 2.594143 1_555
Fe19 Mo1 2.716600 1_655
Fe19 Mo0 2.716600 1_565
Fe19 Mo2 2.814479 1_665
Fe20 Fe5 2.360208 1_555
Fe20 Fe21 2.365218 1_555
Fe20 Fe7 2.530088 1_555
Fe20 Fe9 2.530093 1_455
Fe20 Mo3 2.716600 1_555
Fe20 Mo0 2.716600 1_455
Fe20 Mo2 2.814479 1_555
Fe21 Fe3 2.360208 1_555
Fe21 Fe7 2.530088 1_555
Fe21 Fe8 2.530093 1_545
Fe21 Fe6 2.594150 1_545
Fe21 Mo3 2.716600 1_555
Fe21 Mo1 2.716600 1_545
Fe21 Mo2 2.814479 1_555
Fe22 Fe7 2.360205 1_555
Fe22 Fe23 2.365218 1_555
Fe22 Fe24 2.365218 1_555
Fe22 Fe4 2.594143 1_556
Fe22 Mo1 2.716600 1_656
Fe22 Mo0 2.716600 1_566
Fe22 Mo3 2.814479 1_555
Fe23 Fe24 2.365218 1_555
Fe23 Fe8 2.594143 1_655
Fe23 Fe5 2.594143 1_655
Fe23 Mo1 2.716600 1_656
Fe23 Mo2 2.716600 1_665
Fe23 Mo3 2.814479 1_555
Fe24 Fe6 2.360205 1_555
Fe24 Fe3 2.594143 1_565
Fe24 Fe9 2.594143 1_565
Fe24 Mo2 2.716600 1_665
Fe24 Mo0 2.716600 1_566
Fe24 Mo3 2.814479 1_555
