# generated using pymatgen
data_Li4MnCo2O7
_symmetry_space_group_name_H-M   'P 1'
_cell_length_a   10.32646798
_cell_length_b   10.32646798
_cell_length_c   5.17769542
_cell_angle_alpha   84.76987110
_cell_angle_beta   84.76987110
_cell_angle_gamma   151.20290037
_symmetry_Int_Tables_number   1
_chemical_formula_structural   Li4MnCo2O7
_chemical_formula_sum   'Li8 Mn2 Co4 O14'
_cell_volume   247.45042006
_cell_formula_units_Z   2
loop_
 _symmetry_equiv_pos_site_id
 _symmetry_equiv_pos_as_xyz
  1  'x, y, z'
loop_
 _atom_site_type_symbol
 _atom_site_label
 _atom_site_symmetry_multiplicity
 _atom_site_fract_x
 _atom_site_fract_y
 _atom_site_fract_z
 _atom_site_occupancy
  Li  Li0  1  0.78472900  0.21527100  0.50000000  1
  Li  Li1  1  0.21527100  0.78472900  0.50000000  1
  Li  Li2  1  0.64087800  0.35912200  0.50000000  1
  Li  Li3  1  0.06729200  0.93270800  0.50000000  1
  Li  Li4  1  0.50000000  0.50000000  0.50000000  1
  Li  Li5  1  0.93270800  0.06729200  0.50000000  1
  Li  Li6  1  0.35912200  0.64087800  0.50000000  1
  Li  Li7  1  0.00000000  0.00000000  0.00000000  1
  Mn  Mn0  1  0.85938200  0.14061800  0.00000000  1
  Mn  Mn1  1  0.14061800  0.85938200  0.00000000  1
  Co  Co0  1  0.28521500  0.71478500  0.00000000  1
  Co  Co1  1  0.71478500  0.28521500  0.00000000  1
  Co  Co2  1  0.56943400  0.43056600  0.00000000  1
  Co  Co3  1  0.43056600  0.56943400  0.00000000  1
  O  O0  1  0.55777000  0.98858000  0.22920000  1
  O  O1  1  0.98858000  0.55777000  0.22920000  1
  O  O2  1  0.39709200  0.11114100  0.20851600  1
  O  O3  1  0.84244400  0.68754100  0.23869700  1
  O  O4  1  0.28267100  0.28267100  0.22743100  1
  O  O5  1  0.68754100  0.84244400  0.23869700  1
  O  O6  1  0.11114100  0.39709200  0.20851600  1
  O  O7  1  0.01142000  0.44223000  0.77080000  1
  O  O8  1  0.44223000  0.01142000  0.77080000  1
  O  O9  1  0.88885900  0.60290800  0.79148400  1
  O  O10  1  0.31245900  0.15755600  0.76130300  1
  O  O11  1  0.71732900  0.71732900  0.77256900  1
  O  O12  1  0.15755600  0.31245900  0.76130300  1
  O  O13  1  0.60290800  0.88885900  0.79148400  1
loop_
_geom_bond_atom_site_label_1
_geom_bond_atom_site_label_2
_geom_bond_distance
_geom_bond_site_symmetry_2
Li0 O1 2.101217 1_555
Li0 O8 2.101217 1_555
Li0 O7 2.126131 1_655
Li0 O0 2.126131 1_545
Li0 O6 2.151371 1_655
Li0 O13 2.151371 1_545
Li1 O7 2.101217 1_555
Li1 O0 2.101217 1_555
Li1 O8 2.126131 1_565
Li1 O1 2.126131 1_455
Li1 O2 2.151371 1_565
Li1 O9 2.151371 1_455
Li2 O10 1.985564 1_555
Li2 O3 1.985564 1_555
Li2 O8 2.171318 1_555
Li2 O1 2.171318 1_555
Li2 O9 2.295945 1_555
Li2 O2 2.295945 1_555
Li3 O11 2.099792 1_455
Li3 O4 2.099792 1_565
Li3 O10 2.127349 1_565
Li3 O3 2.127349 1_455
Li3 O9 2.197503 1_455
Li3 O2 2.197503 1_565
Li4 O11 2.095785 1_555
Li4 O4 2.095785 1_555
Li4 O10 2.175575 1_555
Li4 O12 2.175575 1_555
Li4 O5 2.175575 1_555
Li4 O3 2.175575 1_555
Li5 O11 2.099792 1_545
Li5 O4 2.099792 1_655
Li5 O12 2.127349 1_655
Li5 O5 2.127349 1_545
Li5 O13 2.197503 1_545
Li5 O6 2.197503 1_655
Li6 O12 1.985564 1_555
Li6 O5 1.985564 1_555
Li6 O0 2.171318 1_555
Li6 O7 2.171318 1_555
Li6 O6 2.295945 1_555
Li6 O13 2.295945 1_555
Li7 O12 2.071473 1_554
Li7 O10 2.071473 1_554
Li7 O3 2.071473 1_445
Li7 O5 2.071473 1_445
Li7 O4 2.178863 1_555
Li7 O11 2.178863 1_444
Mn0 O5 1.867397 1_545
Mn0 O12 1.867397 1_654
Mn0 O6 1.975860 1_655
Mn0 O13 1.975860 1_544
Mn0 O7 1.997487 1_654
Mn0 O0 1.997487 1_545
Mn1 O3 1.867397 1_455
Mn1 O10 1.867397 1_564
Mn1 O2 1.975860 1_565
Mn1 O9 1.975860 1_454
Mn1 O8 1.997487 1_564
Mn1 O1 1.997487 1_455
Co0 O1 1.924050 1_455
Co0 O8 1.924050 1_564
Co0 O6 1.955550 1_555
Co0 O13 1.955550 1_554
Co0 O7 2.144144 1_554
Co0 O0 2.144144 1_555
Co1 O0 1.924050 1_545
Co1 O7 1.924050 1_654
Co1 O2 1.955550 1_555
Co1 O9 1.955550 1_554
Co1 O1 2.144144 1_555
Co1 O8 2.144144 1_554
Co2 O11 1.896852 1_554
Co2 O4 1.896852 1_555
Co2 O9 1.981140 1_554
Co2 O2 1.981140 1_555
Co2 O3 2.153696 1_555
Co2 O10 2.153696 1_554
Co3 O11 1.896852 1_554
Co3 O4 1.896852 1_555
Co3 O13 1.981140 1_554
Co3 O6 1.981140 1_555
Co3 O12 2.153696 1_554
Co3 O5 2.153696 1_555
