# generated using pymatgen
data_ScCuGe
_symmetry_space_group_name_H-M   'P 1'
_cell_length_a   6.64945169
_cell_length_b   6.64945169
_cell_length_c   3.91417700
_cell_angle_alpha   90.00000000
_cell_angle_beta   90.00000000
_cell_angle_gamma   119.99999696
_symmetry_Int_Tables_number   1
_chemical_formula_structural   ScCuGe
_chemical_formula_sum   'Sc3 Cu3 Ge3'
_cell_volume   149.87968664
_cell_formula_units_Z   3
loop_
 _symmetry_equiv_pos_site_id
 _symmetry_equiv_pos_as_xyz
  1  'x, y, z'
loop_
 _atom_site_type_symbol
 _atom_site_label
 _atom_site_symmetry_multiplicity
 _atom_site_fract_x
 _atom_site_fract_y
 _atom_site_fract_z
 _atom_site_occupancy
  Sc  Sc0  1  0.59154600  0.00000000  0.00000000  1
  Sc  Sc1  1  0.00000000  0.59154600  0.00000000  1
  Sc  Sc2  1  0.40845400  0.40845400  0.00000000  1
  Cu  Cu0  1  0.33333300  0.66666700  0.50000000  1
  Cu  Cu1  1  0.66666700  0.33333300  0.50000000  1
  Cu  Cu2  1  0.00000000  0.00000000  0.00000000  1
  Ge  Ge0  1  0.26479000  0.00000000  0.50000000  1
  Ge  Ge1  1  0.00000000  0.26479000  0.50000000  1
  Ge  Ge2  1  0.73521000  0.73521000  0.50000000  1
loop_
_geom_bond_atom_site_label_1
_geom_bond_atom_site_label_2
_geom_bond_distance
_geom_bond_site_symmetry_2
Cu0 Ge0 2.476032 1_565
Cu0 Ge1 2.476036 1_555
Cu0 Ge2 2.476038 1_555
Cu0 Sc1 2.808084 1_555
Cu0 Sc1 2.808084 1_556
Cu0 Sc0 2.808086 1_565
Cu0 Sc0 2.808086 1_566
Cu0 Sc2 2.808089 1_556
Cu0 Sc2 2.808089 1_555
Cu1 Ge1 2.476032 1_655
Cu1 Ge0 2.476036 1_555
Cu1 Ge2 2.476038 1_555
Cu1 Sc0 2.808084 1_555
Cu1 Sc0 2.808084 1_556
Cu1 Sc1 2.808086 1_655
Cu1 Sc1 2.808086 1_656
Cu1 Sc2 2.808089 1_556
Cu1 Sc2 2.808089 1_555
Cu2 Ge1 2.632544 1_555
Cu2 Ge1 2.632544 1_554
Cu2 Ge0 2.632544 1_555
Cu2 Ge0 2.632544 1_554
Cu2 Ge2 2.632544 1_445
Cu2 Ge2 2.632544 1_444
Cu2 Sc1 2.715995 1_545
Cu2 Sc0 2.715995 1_455
Cu2 Sc2 2.715995 1_555
Ge0 Sc0 2.924214 1_555
Ge0 Sc0 2.924214 1_556
Ge0 Sc2 3.086235 1_556
Ge0 Sc2 3.086235 1_555
Ge0 Sc1 3.086235 1_545
Ge0 Sc1 3.086235 1_546
Ge1 Sc1 2.924214 1_555
Ge1 Sc1 2.924214 1_556
Ge1 Sc2 3.086235 1_556
Ge1 Sc2 3.086235 1_555
Ge1 Sc0 3.086235 1_455
Ge1 Sc0 3.086235 1_456
Ge2 Sc2 2.924215 1_556
Ge2 Sc2 2.924215 1_555
Ge2 Sc1 3.086235 1_655
Ge2 Sc0 3.086235 1_565
Ge2 Sc0 3.086235 1_566
Ge2 Sc1 3.086235 1_656
