# generated using pymatgen
data_ErWBrO4
_symmetry_space_group_name_H-M   'P 1'
_cell_length_a   6.93117509
_cell_length_b   7.18731653
_cell_length_c   10.79880739
_cell_angle_alpha   102.28807926
_cell_angle_beta   108.46692813
_cell_angle_gamma   95.15689788
_symmetry_Int_Tables_number   1
_chemical_formula_structural   ErWBrO4
_chemical_formula_sum   'Er4 W4 Br4 O16'
_cell_volume   491.33435405
_cell_formula_units_Z   4
loop_
 _symmetry_equiv_pos_site_id
 _symmetry_equiv_pos_as_xyz
  1  'x, y, z'
loop_
 _atom_site_type_symbol
 _atom_site_label
 _atom_site_symmetry_multiplicity
 _atom_site_fract_x
 _atom_site_fract_y
 _atom_site_fract_z
 _atom_site_occupancy
  Er  Er0  1  0.66846540  0.09977786  0.73214333  1
  Er  Er1  1  0.33153460  0.90022214  0.26785667  1
  Er  Er2  1  0.37632189  0.66551540  0.76481654  1
  Er  Er3  1  0.62367811  0.33448460  0.23518346  1
  W  W0  1  0.72488155  0.81630413  0.13254052  1
  W  W1  1  0.27511845  0.18369587  0.86745948  1
  W  W2  1  0.76723186  0.58422744  0.62551539  1
  W  W3  1  0.23276814  0.41577256  0.37448461  1
  Br  Br0  1  0.26495385  0.01505675  0.52126973  1
  Br  Br1  1  0.73504615  0.98494325  0.47873027  1
  Br  Br2  1  0.18681559  0.72413007  0.98274309  1
  Br  Br3  1  0.81318441  0.27586993  0.01725691  1
  O  O0  1  0.65084320  0.73554782  0.95478852  1
  O  O1  1  0.34915680  0.26445218  0.04521148  1
  O  O2  1  0.99578503  0.89244357  0.20346412  1
  O  O3  1  0.00421497  0.10755643  0.79653588  1
  O  O4  1  0.65268572  0.62484877  0.19842682  1
  O  O5  1  0.34731428  0.37515123  0.80157318  1
  O  O6  1  0.40931249  0.99092712  0.81445027  1
  O  O7  1  0.59068751  0.00907288  0.18554973  1
  O  O8  1  0.03595076  0.65219529  0.66650172  1
  O  O9  1  0.96404924  0.34780471  0.33349828  1
  O  O10  1  0.72948153  0.39058029  0.69825976  1
  O  O11  1  0.27051847  0.60941971  0.30174024  1
  O  O12  1  0.65888291  0.49909174  0.44543059  1
  O  O13  1  0.34111709  0.50090826  0.55456941  1
  O  O14  1  0.65758396  0.77979160  0.70466366  1
  O  O15  1  0.34241604  0.22020840  0.29533634  1
loop_
_geom_bond_atom_site_label_1
_geom_bond_atom_site_label_2
_geom_bond_distance
_geom_bond_site_symmetry_2
Er0 O3 2.199350 1_655
Er0 O10 2.223932 1_555
Er0 O14 2.246590 1_545
Er0 O6 2.383967 1_545
Er1 O2 2.199350 1_455
Er1 O11 2.223932 1_555
Er1 O15 2.246590 1_565
Er1 O7 2.383967 1_565
Er2 O5 2.209302 1_555
Er2 O0 2.235571 1_555
Er2 O8 2.243079 1_555
Er2 O13 2.251180 1_555
Er2 O6 2.258838 1_555
Er2 O14 2.374555 1_555
Er3 O4 2.209302 1_555
Er3 O1 2.235571 1_555
Er3 O9 2.243079 1_555
Er3 O12 2.251180 1_555
Er3 O7 2.258838 1_555
Er3 O15 2.374555 1_555
Br0 Er1 2.879245 1_545
Br0 Er0 2.906435 1_555
Br1 Er0 2.879245 1_565
Br1 Er1 2.906435 1_555
Br2 Er1 2.871259 1_556
Br2 Er2 3.012764 1_555
Br3 Er0 2.871259 1_554
Br3 Er3 3.012764 1_555
O0 W0 1.770011 1_556
O1 W1 1.770011 1_554
O2 W0 1.771317 1_555
O3 W1 1.771317 1_555
O4 W0 1.780069 1_555
O5 W1 1.780069 1_555
O6 W1 1.828598 1_565
O7 W0 1.828598 1_545
O8 W2 1.767976 1_455
O9 W3 1.767976 1_655
O10 W2 1.775613 1_555
O11 W3 1.775613 1_555
O12 W2 1.790511 1_555
O13 W3 1.790511 1_555
O14 W2 1.837374 1_555
O15 W3 1.837374 1_555
