# generated using pymatgen
data_Ag3Mo3AsO13
_symmetry_space_group_name_H-M   'P 1'
_cell_length_a   8.18517688
_cell_length_b   8.36960279
_cell_length_c   9.86523911
_cell_angle_alpha   113.87091995
_cell_angle_beta   99.02783312
_cell_angle_gamma   105.65107877
_symmetry_Int_Tables_number   1
_chemical_formula_structural   Ag3Mo3AsO13
_chemical_formula_sum   'Ag6 Mo6 As2 O26'
_cell_volume   567.28750810
_cell_formula_units_Z   2
loop_
 _symmetry_equiv_pos_site_id
 _symmetry_equiv_pos_as_xyz
  1  'x, y, z'
loop_
 _atom_site_type_symbol
 _atom_site_label
 _atom_site_symmetry_multiplicity
 _atom_site_fract_x
 _atom_site_fract_y
 _atom_site_fract_z
 _atom_site_occupancy
  Ag  Ag0  1  0.39146900  0.65401800  0.41994100  1
  Ag  Ag1  1  0.60853100  0.34598200  0.58005900  1
  Ag  Ag2  1  0.08965800  0.34905100  0.55829900  1
  Ag  Ag3  1  0.91034200  0.65094900  0.44170100  1
  Ag  Ag4  1  0.25641200  0.52973900  0.03525200  1
  Ag  Ag5  1  0.74358800  0.47026100  0.96474800  1
  Mo  Mo0  1  0.30198200  0.08893800  0.75595900  1
  Mo  Mo1  1  0.69801800  0.91106200  0.24404100  1
  Mo  Mo2  1  0.11666100  0.94338200  0.23233300  1
  Mo  Mo3  1  0.88333900  0.05661800  0.76766700  1
  Mo  Mo4  1  0.48695100  0.21025900  0.14170900  1
  Mo  Mo5  1  0.51304900  0.78974100  0.85829100  1
  As  As0  1  0.94684000  0.27668600  0.16865500  1
  As  As1  1  0.05316000  0.72331400  0.83134500  1
  O  O0  1  0.21798600  0.78824600  0.24288600  1
  O  O1  1  0.78201400  0.21175400  0.75711400  1
  O  O2  1  0.46146100  0.26208000  0.73676900  1
  O  O3  1  0.53853900  0.73792000  0.26323100  1
  O  O4  1  0.40936100  0.31620100  0.03077000  1
  O  O5  1  0.59063900  0.68379900  0.96923000  1
  O  O6  1  0.08085800  0.46058200  0.34581400  1
  O  O7  1  0.91914200  0.53941800  0.65418600  1
  O  O8  1  0.91464700  0.06675000  0.17673400  1
  O  O9  1  0.08535300  0.93325000  0.82326600  1
  O  O10  1  0.74800700  0.31533900  0.13055100  1
  O  O11  1  0.25199300  0.68466100  0.86944900  1
  O  O12  1  0.03010700  0.26832200  0.01800300  1
  O  O13  1  0.96989300  0.73167800  0.98199700  1
  O  O14  1  0.44156500  0.00830400  0.87692500  1
  O  O15  1  0.55843500  0.99169600  0.12307500  1
  O  O16  1  0.26240700  0.06636100  0.13684200  1
  O  O17  1  0.73759300  0.93363900  0.86315800  1
  O  O18  1  0.55803000  0.37587900  0.34075800  1
  O  O19  1  0.44197000  0.62412100  0.65924200  1
  O  O20  1  0.76497500  0.11135900  0.42442200  1
  O  O21  1  0.23502500  0.88864100  0.57557800  1
  O  O22  1  0.11294000  0.18728100  0.74755400  1
  O  O23  1  0.88706000  0.81271900  0.25244600  1
  O  O24  1  0.21013900  0.13951100  0.42021200  1
  O  O25  1  0.78986100  0.86048900  0.57978800  1
loop_
_geom_bond_atom_site_label_1
_geom_bond_atom_site_label_2
_geom_bond_distance
_geom_bond_site_symmetry_2
Ag0 O3 2.310606 1_555
Ag0 O6 2.420152 1_555
Ag0 O19 2.456489 1_555
Ag0 O21 2.717870 1_555
Ag1 O2 2.310606 1_555
Ag1 O7 2.420152 1_555
Ag1 O18 2.456489 1_555
Ag1 O20 2.717870 1_555
Ag2 O24 2.307617 1_555
Ag2 O7 2.403278 1_455
Ag2 O20 2.585359 1_455
Ag2 O6 2.615966 1_555
Ag2 O22 2.725596 1_555
Ag3 O25 2.307617 1_555
Ag3 O6 2.403278 1_655
Ag3 O21 2.585359 1_655
Ag3 O7 2.615966 1_555
Ag3 O23 2.725596 1_555
Ag4 O12 2.379138 1_555
Ag4 O4 2.433943 1_555
Ag4 O0 2.440963 1_555
Ag4 O11 2.466036 1_554
Ag4 O3 2.540540 1_555
Ag5 O13 2.379138 1_555
Ag5 O5 2.433943 1_555
Ag5 O1 2.440963 1_555
Ag5 O10 2.466036 1_556
Ag5 O2 2.540540 1_555
Mo0 O21 1.749599 1_545
Mo0 O2 1.765995 1_555
Mo0 O22 1.944422 1_555
Mo0 O14 1.955726 1_555
Mo0 O9 2.259645 1_545
Mo0 O4 2.432481 1_556
Mo1 O20 1.749599 1_565
Mo1 O3 1.765995 1_555
Mo1 O23 1.944422 1_555
Mo1 O15 1.955726 1_555
Mo1 O8 2.259645 1_565
Mo1 O5 2.432481 1_554
Mo2 O0 1.745833 1_555
Mo2 O24 1.769230 1_565
Mo2 O16 1.960857 1_565
Mo2 O23 1.987693 1_455
Mo2 O13 2.249571 1_454
Mo2 O8 2.279489 1_465
Mo3 O1 1.745833 1_555
Mo3 O25 1.769230 1_545
Mo3 O17 1.960857 1_545
Mo3 O22 1.987693 1_655
Mo3 O12 2.249571 1_656
Mo3 O9 2.279489 1_645
Mo4 O18 1.766134 1_555
Mo4 O4 1.805129 1_555
Mo4 O16 1.887319 1_555
Mo4 O15 2.015323 1_545
Mo4 O10 2.118884 1_555
Mo4 O14 2.366761 1_554
Mo5 O19 1.766134 1_555
Mo5 O5 1.805129 1_555
Mo5 O17 1.887319 1_555
Mo5 O14 2.015323 1_565
Mo5 O11 2.118884 1_555
Mo5 O15 2.366761 1_556
As0 O6 1.713766 1_655
As0 O12 1.713969 1_655
As0 O8 1.741620 1_555
As0 O10 1.756467 1_555
As1 O7 1.713766 1_455
As1 O13 1.713969 1_455
As1 O9 1.741620 1_555
As1 O11 1.756467 1_555
