# generated using pymatgen
data_Ti2SN2
_symmetry_space_group_name_H-M   'P 1'
_cell_length_a   3.39585400
_cell_length_b   3.39588566
_cell_length_c   6.14855700
_cell_angle_alpha   90.00003243
_cell_angle_beta   89.99975320
_cell_angle_gamma   120.00039657
_symmetry_Int_Tables_number   1
_chemical_formula_structural   Ti2SN2
_chemical_formula_sum   'Ti2 S1 N2'
_cell_volume   61.40506129
_cell_formula_units_Z   1
loop_
 _symmetry_equiv_pos_site_id
 _symmetry_equiv_pos_as_xyz
  1  'x, y, z'
loop_
 _atom_site_type_symbol
 _atom_site_label
 _atom_site_symmetry_multiplicity
 _atom_site_fract_x
 _atom_site_fract_y
 _atom_site_fract_z
 _atom_site_occupancy
  Ti  Ti0  1  0.66666000  0.33333100  0.69867800  1
  Ti  Ti1  1  0.33334000  0.66666900  0.30132200  1
  S  S0  1  0.00000000  0.00000000  0.00000000  1
  N  N0  1  0.66666500  0.33333300  0.36413700  1
  N  N1  1  0.33333500  0.66666700  0.63586300  1
loop_
_geom_bond_atom_site_label_1
_geom_bond_atom_site_label_2
_geom_bond_distance
_geom_bond_site_symmetry_2
S0 Ti0 2.697458 1_554
S0 Ti1 2.697458 1_445
S0 Ti0 2.697499 1_444
S0 Ti1 2.697499 1_555
S0 Ti0 2.697507 1_454
S0 Ti1 2.697507 1_545
N0 Ti1 1.998274 1_555
N0 Ti1 1.998280 1_545
N0 Ti1 1.998291 1_655
N0 Ti0 2.056944 1_555
N1 Ti0 1.998274 1_555
N1 Ti0 1.998280 1_565
N1 Ti0 1.998291 1_455
N1 Ti1 2.056944 1_555
