# generated using pymatgen
data_CrIr
_symmetry_space_group_name_H-M   'P 1'
_cell_length_a   5.33506630
_cell_length_b   5.33506630
_cell_length_c   8.39948630
_cell_angle_alpha   90.00000000
_cell_angle_beta   90.00000000
_cell_angle_gamma   119.99998184
_symmetry_Int_Tables_number   1
_chemical_formula_structural   CrIr
_chemical_formula_sum   'Cr8 Ir8'
_cell_volume   207.04420442
_cell_formula_units_Z   8
loop_
 _symmetry_equiv_pos_site_id
 _symmetry_equiv_pos_as_xyz
  1  'x, y, z'
loop_
 _atom_site_type_symbol
 _atom_site_label
 _atom_site_symmetry_multiplicity
 _atom_site_fract_x
 _atom_site_fract_y
 _atom_site_fract_z
 _atom_site_occupancy
  Cr  Cr0_0  1  0.33333350  0.16666650  0.00000000  1
  Cr  Cr0_1  1  0.33333350  0.16666650  0.50000000  1
  Cr  Cr0_2  1  0.33333350  0.66666650  0.00000000  1
  Cr  Cr0_3  1  0.33333350  0.66666650  0.50000000  1
  Cr  Cr0_4  1  0.83333350  0.16666650  0.00000000  1
  Cr  Cr0_5  1  0.83333350  0.16666650  0.50000000  1
  Cr  Cr0_6  1  0.83333350  0.66666650  0.00000000  1
  Cr  Cr0_7  1  0.83333350  0.66666650  0.50000000  1
  Ir  Ir0_0  1  0.16666650  0.33333350  0.25000000  1
  Ir  Ir0_1  1  0.16666650  0.33333350  0.75000000  1
  Ir  Ir0_2  1  0.16666650  0.83333350  0.25000000  1
  Ir  Ir0_3  1  0.16666650  0.83333350  0.75000000  1
  Ir  Ir0_4  1  0.66666650  0.33333350  0.25000000  1
  Ir  Ir0_5  1  0.66666650  0.33333350  0.75000000  1
  Ir  Ir0_6  1  0.66666650  0.83333350  0.25000000  1
  Ir  Ir0_7  1  0.66666650  0.83333350  0.75000000  1
loop_
_geom_bond_atom_site_label_1
_geom_bond_atom_site_label_2
_geom_bond_distance
_geom_bond_site_symmetry_2
Cr0_0 Ir0_2 2.604106 1_545
Cr0_0 Ir0_3 2.604106 1_544
Cr0_0 Ir0_5 2.604106 1_554
Cr0_0 Ir0_4 2.604106 1_555
Cr0_0 Ir0_1 2.604108 1_554
Cr0_0 Ir0_0 2.604108 1_555
Cr0_0 Cr0_4 2.667533 1_455
Cr0_0 Cr0_2 2.667533 1_555
Cr0_0 Cr0_2 2.667533 1_545
Cr0_0 Cr0_4 2.667533 1_555
Cr0_0 Cr0_6 2.667534 1_555
Cr0_0 Cr0_6 2.667534 1_445
Cr0_1 Ir0_2 2.604106 1_545
Cr0_1 Ir0_5 2.604106 1_555
Cr0_1 Ir0_4 2.604106 1_555
Cr0_1 Ir0_3 2.604106 1_545
Cr0_1 Ir0_1 2.604108 1_555
Cr0_1 Ir0_0 2.604108 1_555
Cr0_1 Cr0_3 2.667533 1_555
Cr0_1 Cr0_5 2.667533 1_455
Cr0_1 Cr0_5 2.667533 1_555
Cr0_1 Cr0_3 2.667533 1_545
Cr0_1 Cr0_7 2.667534 1_555
Cr0_1 Cr0_7 2.667534 1_445
Cr0_2 Ir0_6 2.604106 1_555
Cr0_2 Ir0_7 2.604106 1_554
Cr0_2 Ir0_1 2.604106 1_554
Cr0_2 Ir0_0 2.604106 1_555
Cr0_2 Ir0_2 2.604108 1_555
Cr0_2 Ir0_3 2.604108 1_554
Cr0_2 Cr0_6 2.667533 1_455
Cr0_2 Cr0_6 2.667533 1_555
Cr0_2 Cr0_4 2.667534 1_455
Cr0_2 Cr0_4 2.667534 1_565
Cr0_3 Ir0_6 2.604106 1_555
Cr0_3 Ir0_1 2.604106 1_555
Cr0_3 Ir0_0 2.604106 1_555
Cr0_3 Ir0_7 2.604106 1_555
Cr0_3 Ir0_2 2.604108 1_555
Cr0_3 Ir0_3 2.604108 1_555
Cr0_3 Cr0_7 2.667533 1_455
Cr0_3 Cr0_7 2.667533 1_555
Cr0_3 Cr0_5 2.667534 1_455
Cr0_3 Cr0_5 2.667534 1_565
Cr0_4 Ir0_0 2.604106 1_655
Cr0_4 Ir0_1 2.604106 1_654
Cr0_4 Ir0_7 2.604106 1_544
Cr0_4 Ir0_6 2.604106 1_545
Cr0_4 Ir0_4 2.604108 1_555
Cr0_4 Ir0_5 2.604108 1_554
Cr0_4 Cr0_6 2.667533 1_555
Cr0_4 Cr0_6 2.667533 1_545
Cr0_5 Ir0_0 2.604106 1_655
Cr0_5 Ir0_1 2.604106 1_655
Cr0_5 Ir0_6 2.604106 1_545
Cr0_5 Ir0_7 2.604106 1_545
Cr0_5 Ir0_4 2.604108 1_555
Cr0_5 Ir0_5 2.604108 1_555
Cr0_5 Cr0_7 2.667533 1_555
Cr0_5 Cr0_7 2.667533 1_545
Cr0_6 Ir0_5 2.604106 1_554
Cr0_6 Ir0_4 2.604106 1_555
Cr0_6 Ir0_2 2.604106 1_655
Cr0_6 Ir0_3 2.604106 1_654
Cr0_6 Ir0_6 2.604108 1_555
Cr0_6 Ir0_7 2.604108 1_554
Cr0_7 Ir0_4 2.604106 1_555
Cr0_7 Ir0_5 2.604106 1_555
Cr0_7 Ir0_3 2.604106 1_655
Cr0_7 Ir0_2 2.604106 1_655
Cr0_7 Ir0_6 2.604108 1_555
Cr0_7 Ir0_7 2.604108 1_555
Ir0_0 Ir0_2 2.667533 1_555
Ir0_0 Ir0_4 2.667533 1_455
Ir0_0 Ir0_4 2.667533 1_555
Ir0_0 Ir0_2 2.667533 1_545
Ir0_0 Ir0_6 2.667534 1_555
Ir0_0 Ir0_6 2.667534 1_445
Ir0_1 Ir0_5 2.667533 1_455
Ir0_1 Ir0_3 2.667533 1_555
Ir0_1 Ir0_5 2.667533 1_555
Ir0_1 Ir0_3 2.667533 1_545
Ir0_1 Ir0_7 2.667534 1_555
Ir0_1 Ir0_7 2.667534 1_445
Ir0_2 Ir0_6 2.667533 1_555
Ir0_2 Ir0_6 2.667533 1_455
Ir0_2 Ir0_4 2.667534 1_565
Ir0_2 Ir0_4 2.667534 1_455
Ir0_3 Ir0_7 2.667533 1_555
Ir0_3 Ir0_7 2.667533 1_455
Ir0_3 Ir0_5 2.667534 1_565
Ir0_3 Ir0_5 2.667534 1_455
Ir0_4 Ir0_6 2.667533 1_555
Ir0_4 Ir0_6 2.667533 1_545
Ir0_5 Ir0_7 2.667533 1_555
Ir0_5 Ir0_7 2.667533 1_545
