# generated using pymatgen
data_Li7Mn5O12
_symmetry_space_group_name_H-M   'P 1'
_cell_length_a   5.99756805
_cell_length_b   6.01109304
_cell_length_c   12.90869673
_cell_angle_alpha   102.84203006
_cell_angle_beta   102.99162621
_cell_angle_gamma   91.85182678
_symmetry_Int_Tables_number   1
_chemical_formula_structural   Li7Mn5O12
_chemical_formula_sum   'Li14 Mn10 O24'
_cell_volume   440.46686196
_cell_formula_units_Z   2
loop_
 _symmetry_equiv_pos_site_id
 _symmetry_equiv_pos_as_xyz
  1  'x, y, z'
loop_
 _atom_site_type_symbol
 _atom_site_label
 _atom_site_symmetry_multiplicity
 _atom_site_fract_x
 _atom_site_fract_y
 _atom_site_fract_z
 _atom_site_occupancy
  Li  Li0  1  0.33299500  0.33338200  0.16645300  1
  Li  Li1  1  0.83368900  0.83324600  0.66685300  1
  Li  Li2  1  0.33337600  0.83338300  0.16653000  1
  Li  Li3  1  0.83298100  0.33370800  0.66710000  1
  Li  Li4  1  0.83329700  0.33327500  0.16658500  1
  Li  Li5  1  0.33395600  0.83302300  0.66688200  1
  Li  Li6  1  0.14502300  0.18961500  0.33416500  1
  Li  Li7  1  0.64346700  0.68455500  0.82538400  1
  Li  Li8  1  0.52133000  0.47633200  0.99909500  1
  Li  Li9  1  0.02389000  0.98108000  0.50828000  1
  Li  Li10  1  0.50077900  0.00385200  0.00336400  1
  Li  Li11  1  0.00387200  0.50884100  0.50621000  1
  Li  Li12  1  0.16593200  0.66234200  0.32977000  1
  Li  Li13  1  0.66245600  0.15733600  0.82725400  1
  Mn  Mn0  1  0.33326700  0.33346500  0.66663900  1
  Mn  Mn1  1  0.83340700  0.83345400  0.16669000  1
  Mn  Mn2  1  0.98889900  0.00464200  0.00018600  1
  Mn  Mn3  1  0.49016400  0.50775800  0.50040500  1
  Mn  Mn4  1  0.67767000  0.66231900  0.33305300  1
  Mn  Mn5  1  0.17636400  0.15884500  0.83272800  1
  Mn  Mn6  1  0.99904500  0.49877700  0.00090100  1
  Mn  Mn7  1  0.49669900  0.00125300  0.50174900  1
  Mn  Mn8  1  0.66772000  0.16805800  0.33241100  1
  Mn  Mn9  1  0.17002400  0.66551600  0.83170800  1
  O  O0  1  0.70437800  0.25792300  0.49170500  1
  O  O1  1  0.20695900  0.75915100  0.99477200  1
  O  O2  1  0.45957400  0.90786000  0.33853200  1
  O  O3  1  0.96211400  0.40885200  0.84161600  1
  O  O4  1  0.06551900  0.06607000  0.16057500  1
  O  O5  1  0.56469400  0.56576700  0.65934800  1
  O  O6  1  0.60120600  0.60097000  0.17264600  1
  O  O7  1  0.10209400  0.10088900  0.67387500  1
  O  O8  1  0.88395200  0.42250000  0.33366000  1
  O  O9  1  0.38282800  0.91767000  0.83483000  1
  O  O10  1  0.28374400  0.74902000  0.49855700  1
  O  O11  1  0.78260500  0.24434400  0.99956000  1
  O  O12  1  0.05577100  0.60361500  0.15775100  1
  O  O13  1  0.56009300  0.10379900  0.65962000  1
  O  O14  1  0.61097300  0.06318100  0.17553900  1
  O  O15  1  0.10672500  0.56302800  0.67387300  1
  O  O16  1  0.91228900  0.88985000  0.32466400  1
  O  O17  1  0.43267600  0.41514600  0.82625900  1
  O  O18  1  0.75455200  0.77709400  0.00858700  1
  O  O19  1  0.23387000  0.25149600  0.50718100  1
  O  O20  1  0.76142700  0.75014100  0.48989800  1
  O  O21  1  0.23715400  0.22446700  0.99909900  1
  O  O22  1  0.42946900  0.44257800  0.33416300  1
  O  O23  1  0.90502700  0.91652800  0.84328800  1
loop_
_geom_bond_atom_site_label_1
_geom_bond_atom_site_label_2
_geom_bond_distance
_geom_bond_site_symmetry_2
Li0 O21 2.052964 1_554
Li0 O22 2.057440 1_555
Li0 O4 2.210348 1_555
Li0 O6 2.213387 1_555
Li0 O12 2.363777 1_555
Li0 O14 2.367085 1_555
Li1 O23 2.159184 1_555
Li1 O20 2.165377 1_555
Li1 O7 2.211359 1_665
Li1 O5 2.211371 1_555
Li1 O15 2.344947 1_655
Li1 O13 2.348895 1_565
Li2 O14 2.094381 1_565
Li2 O12 2.095108 1_555
Li2 O1 2.114790 1_554
Li2 O2 2.117491 1_555
Li2 O6 2.162253 1_555
Li2 O4 2.163466 1_565
Li3 O13 2.078791 1_555
Li3 O15 2.083009 1_655
Li3 O3 2.149287 1_555
Li3 O0 2.159235 1_555
Li3 O5 2.163253 1_555
Li3 O7 2.169848 1_655
Li4 O11 2.051652 1_554
Li4 O8 2.052333 1_555
Li4 O14 2.107148 1_555
Li4 O12 2.108263 1_655
Li4 O4 2.159502 1_655
Li4 O6 2.161210 1_555
Li5 O9 2.063800 1_555
Li5 O10 2.067657 1_555
Li5 O15 2.115876 1_555
Li5 O13 2.116567 1_565
Li5 O5 2.154097 1_555
Li5 O7 2.161278 1_565
Li6 O19 2.119724 1_555
Li6 O8 2.133677 1_455
Li6 O4 2.134739 1_555
Li6 O16 2.207383 1_445
Li6 O22 2.248319 1_555
Li6 O2 2.575230 1_545
Li7 O23 2.002760 1_555
Li7 O17 2.025645 1_555
Li7 O5 2.041920 1_555
Li7 O9 2.138540 1_555
Li7 O18 2.242535 1_556
Li7 O3 2.573289 1_555
Li8 O17 2.117771 1_555
Li8 O11 2.130945 1_555
Li8 O6 2.134939 1_556
Li8 O18 2.213847 1_556
Li8 O21 2.242836 1_555
Li8 O1 2.578814 1_555
Li9 O20 2.001427 1_455
Li9 O19 2.028406 1_565
Li9 O7 2.037423 1_565
Li9 O10 2.130990 1_555
Li9 O16 2.247655 1_455
Li9 O0 2.582116 1_465
Li10 O9 2.070070 1_544
Li10 O18 2.075531 1_545
Li10 O21 2.095330 1_554
Li10 O14 2.115587 1_555
Li10 O11 2.204585 1_554
Li10 O1 2.225613 1_544
Li11 O15 2.060150 1_555
Li11 O20 2.096899 1_455
Li11 O19 2.105876 1_555
Li11 O8 2.118878 1_455
Li11 O10 2.212015 1_555
Li11 O0 2.254907 1_455
Li12 O10 2.073008 1_555
Li12 O16 2.078031 1_455
Li12 O22 2.091530 1_555
Li12 O12 2.113948 1_555
Li12 O8 2.203175 1_455
Li12 O2 2.227270 1_555
Li13 O13 2.059962 1_555
Li13 O23 2.094898 1_545
Li13 O17 2.107115 1_555
Li13 O11 2.116118 1_555
Li13 O9 2.208596 1_545
Li13 O3 2.258351 1_555
Mn0 O19 1.952843 1_555
Mn0 O17 1.954778 1_555
Mn0 O7 1.968895 1_555
Mn0 O5 1.969059 1_555
Mn0 O15 1.969751 1_555
Mn0 O13 1.971296 1_555
Mn1 O16 1.935406 1_555
Mn1 O18 1.937018 1_555
Mn1 O14 1.953752 1_565
Mn1 O12 1.953996 1_655
Mn1 O6 1.966835 1_555
Mn1 O4 1.967750 1_665
Mn2 O23 1.919233 1_544
Mn2 O11 1.929479 1_554
Mn2 O21 1.963071 1_654
Mn2 O4 1.963553 1_655
Mn2 O18 1.966814 1_545
Mn2 O1 2.003218 1_644
Mn3 O10 1.937683 1_555
Mn3 O5 1.946947 1_555
Mn3 O0 2.008277 1_555
Mn3 O22 2.038870 1_555
Mn3 O19 2.170402 1_555
Mn3 O20 2.195889 1_555
Mn4 O20 1.918525 1_555
Mn4 O8 1.929966 1_555
Mn4 O22 1.962600 1_555
Mn4 O6 1.963811 1_555
Mn4 O16 1.967836 1_555
Mn4 O2 2.003607 1_555
Mn5 O9 1.937571 1_545
Mn5 O7 1.945869 1_555
Mn5 O3 2.009287 1_455
Mn5 O21 2.040323 1_555
Mn5 O17 2.169227 1_555
Mn5 O23 2.196213 1_445
Mn6 O12 1.929155 1_655
Mn6 O3 1.965318 1_554
Mn6 O11 1.968334 1_554
Mn6 O1 1.996026 1_654
Mn6 O21 2.215602 1_654
Mn6 O18 2.260340 1_555
Mn7 O10 1.937842 1_545
Mn7 O13 1.937952 1_555
Mn7 O0 1.996503 1_555
Mn7 O2 2.014708 1_545
Mn7 O19 2.215519 1_555
Mn7 O20 2.232529 1_545
Mn8 O14 1.929433 1_555
Mn8 O0 1.965631 1_555
Mn8 O8 1.967957 1_555
Mn8 O2 1.996019 1_545
Mn8 O22 2.217143 1_555
Mn8 O16 2.260179 1_545
Mn9 O9 1.937185 1_555
Mn9 O15 1.937519 1_555
Mn9 O3 1.996664 1_455
Mn9 O1 2.013030 1_555
Mn9 O17 2.215273 1_555
Mn9 O23 2.233054 1_455
