# generated using pymatgen
data_Ho6Ti4Al43
_symmetry_space_group_name_H-M   'P 1'
_cell_length_a   10.96912071
_cell_length_b   10.96912078
_cell_length_c   17.74277224
_cell_angle_alpha   90.00000000
_cell_angle_beta   90.00000000
_cell_angle_gamma   120.00000263
_symmetry_Int_Tables_number   1
_chemical_formula_structural   Ho6Ti4Al43
_chemical_formula_sum   'Ho12 Ti8 Al86'
_cell_volume   1848.82468952
_cell_formula_units_Z   2
loop_
 _symmetry_equiv_pos_site_id
 _symmetry_equiv_pos_as_xyz
  1  'x, y, z'
loop_
 _atom_site_type_symbol
 _atom_site_label
 _atom_site_symmetry_multiplicity
 _atom_site_fract_x
 _atom_site_fract_y
 _atom_site_fract_z
 _atom_site_occupancy
  Ho  Ho0  1  0.52993923  0.99999994  0.59653885  1
  Ho  Ho1  1  0.47006077  0.00000006  0.40346115  1
  Ho  Ho2  1  1.00000000  0.52994023  0.59653902  1
  Ho  Ho3  1  0.47006077  0.00000006  0.09653885  1
  Ho  Ho4  1  1.00000000  0.52994023  0.90346098  1
  Ho  Ho5  1  0.00000000  0.47005977  0.40346098  1
  Ho  Ho6  1  0.52993923  0.99999994  0.90346115  1
  Ho  Ho7  1  0.00000000  0.47005977  0.09653902  1
  Ho  Ho8  1  0.47006077  0.47006071  0.59653885  1
  Ho  Ho9  1  0.52993923  0.52993929  0.40346115  1
  Ho  Ho10  1  0.52993923  0.52993929  0.09653885  1
  Ho  Ho11  1  0.47006077  0.47006071  0.90346115  1
  Ti  Ti0  1  -0.00000000  -0.00000000  0.50000000  1
  Ti  Ti1  1  -0.00000000  -0.00000000  -0.00000000  1
  Ti  Ti2  1  0.72703961  0.99999996  0.75000000  1
  Ti  Ti3  1  0.27296039  0.00000004  0.25000000  1
  Ti  Ti4  1  1.00000000  0.72704021  0.75000000  1
  Ti  Ti5  1  0.00000000  0.27295979  0.25000000  1
  Ti  Ti6  1  0.27296039  0.27296035  0.75000000  1
  Ti  Ti7  1  0.72703961  0.72703965  0.25000000  1
  Al  Al0  1  0.15180408  0.59740892  0.75000000  1
  Al  Al1  1  0.84819592  0.40259108  0.25000000  1
  Al  Al2  1  0.40259130  0.55439543  0.75000000  1
  Al  Al3  1  0.59740870  0.15180413  0.75000000  1
  Al  Al4  1  0.59740870  0.44560457  0.25000000  1
  Al  Al5  1  0.40259130  0.84819587  0.25000000  1
  Al  Al6  1  0.44560453  0.84819581  0.75000000  1
  Al  Al7  1  0.55439547  0.40259128  0.75000000  1
  Al  Al8  1  0.55439547  0.15180419  0.25000000  1
  Al  Al9  1  0.44560453  0.59740872  0.25000000  1
  Al  Al10  1  0.84819592  0.44560484  0.75000000  1
  Al  Al11  1  0.15180408  0.55439516  0.25000000  1
  Al  Al12  1  0.15601086  0.00000011  0.11662950  1
  Al  Al13  1  0.84398914  0.99999989  0.88337050  1
  Al  Al14  1  1.00000000  0.15601078  0.11662959  1
  Al  Al15  1  0.84398914  0.99999989  0.61662950  1
  Al  Al16  1  1.00000000  0.15601078  0.38337041  1
  Al  Al17  1  0.00000000  0.84398922  0.88337041  1
  Al  Al18  1  0.15601086  0.00000011  0.38337050  1
  Al  Al19  1  0.00000000  0.84398922  0.61662959  1
  Al  Al20  1  0.84398914  0.84398925  0.11662950  1
  Al  Al21  1  0.15601086  0.15601075  0.88337050  1
  Al  Al22  1  0.15601086  0.15601075  0.61662950  1
  Al  Al23  1  0.84398914  0.84398925  0.38337050  1
  Al  Al24  1  0.24763577  0.49527229  0.50000001  1
  Al  Al25  1  0.75236423  0.50472771  0.49999999  1
  Al  Al26  1  0.50472772  0.75236436  0.50000000  1
  Al  Al27  1  0.75236423  0.50472771  0.00000001  1
  Al  Al28  1  0.49527228  0.24763564  -0.00000000  1
  Al  Al29  1  0.49527228  0.24763564  0.50000000  1
  Al  Al30  1  0.24763577  0.49527229  0.99999999  1
  Al  Al31  1  0.50472772  0.75236436  -0.00000000  1
  Al  Al32  1  0.24763577  0.75236448  0.49999999  1
  Al  Al33  1  0.75236423  0.24763552  0.50000001  1
  Al  Al34  1  0.75236423  0.24763552  0.99999999  1
  Al  Al35  1  0.24763577  0.75236448  0.00000001  1
  Al  Al36  1  0.14666023  0.99999988  0.75000000  1
  Al  Al37  1  0.85333877  0.00000012  0.25000000  1
  Al  Al38  1  1.00000000  0.14666019  0.75000000  1
  Al  Al39  1  0.00000000  0.85333881  0.25000000  1
  Al  Al40  1  0.85333877  0.85333865  0.75000000  1
  Al  Al41  1  0.14666023  0.14666035  0.25000000  1
  Al  Al42  1  0.33333316  0.66666717  0.62563404  1
  Al  Al43  1  0.66666684  0.33333283  0.37436596  1
  Al  Al44  1  0.66666684  0.33333283  0.12563404  1
  Al  Al45  1  0.66666684  0.33333301  0.87436596  1
  Al  Al46  1  0.33333316  0.66666717  0.87436596  1
  Al  Al47  1  0.33333316  0.66666699  0.12563404  1
  Al  Al48  1  0.33333316  0.66666699  0.37436596  1
  Al  Al49  1  0.66666684  0.33333301  0.62563404  1
  Al  Al50  1  0.25276092  0.00000010  0.52927333  1
  Al  Al51  1  0.74723908  0.99999990  0.47072667  1
  Al  Al52  1  1.00000000  0.25276079  0.52927328  1
  Al  Al53  1  0.74723908  0.99999990  0.02927333  1
  Al  Al54  1  1.00000000  0.25276079  0.97072672  1
  Al  Al55  1  0.00000000  0.74723921  0.47072672  1
  Al  Al56  1  0.25276092  0.00000010  0.97072667  1
  Al  Al57  1  0.00000000  0.74723921  0.02927328  1
  Al  Al58  1  0.74723908  0.74723917  0.52927333  1
  Al  Al59  1  0.25276092  0.25276083  0.47072667  1
  Al  Al60  1  0.25276092  0.25276083  0.02927333  1
  Al  Al61  1  0.74723908  0.74723917  0.97072667  1
  Al  Al62  1  0.15884340  0.39330941  0.66355399  1
  Al  Al63  1  0.84115660  0.60669059  0.33644601  1
  Al  Al64  1  0.60669045  0.76553398  0.66355398  1
  Al  Al65  1  0.84115660  0.60669059  0.16355399  1
  Al  Al66  1  0.39330955  0.15884353  0.83644602  1
  Al  Al67  1  0.39330955  0.23446602  0.33644602  1
  Al  Al68  1  0.15884340  0.39330941  0.83644601  1
  Al  Al69  1  0.60669045  0.84115647  0.16355398  1
  Al  Al70  1  0.23446587  0.84115655  0.66355408  1
  Al  Al71  1  0.39330955  0.23446602  0.16355398  1
  Al  Al72  1  0.76553413  0.60669068  0.83644592  1
  Al  Al73  1  0.76553413  0.15884345  0.33644592  1
  Al  Al74  1  0.60669045  0.76553398  0.83644602  1
  Al  Al75  1  0.23446587  0.39330932  0.16355408  1
  Al  Al76  1  0.60669045  0.84115647  0.33644602  1
  Al  Al77  1  0.39330955  0.15884353  0.66355398  1
  Al  Al78  1  0.76553413  0.15884345  0.16355408  1
  Al  Al79  1  0.23446587  0.39330932  0.33644592  1
  Al  Al80  1  0.23446587  0.84115655  0.83644592  1
  Al  Al81  1  0.76553413  0.60669068  0.66355408  1
  Al  Al82  1  0.84115660  0.23446601  0.83644601  1
  Al  Al83  1  0.15884340  0.76553399  0.16355399  1
  Al  Al84  1  0.15884340  0.76553399  0.33644601  1
  Al  Al85  1  0.84115660  0.23446601  0.66355399  1
loop_
_geom_bond_atom_site_label_1
_geom_bond_atom_site_label_2
_geom_bond_distance
_geom_bond_site_symmetry_2
Ho0 Ti2 3.476795 1_555
Ho0 Ho1 3.488131 1_565
Ho1 Ti3 3.476795 1_555
Ho2 Ti4 3.476790 1_555
Ho2 Ho5 3.488141 1_655
Ho3 Ti3 3.476795 1_555
Ho3 Ho6 3.488131 1_544
Ho4 Ti4 3.476790 1_555
Ho4 Ho7 3.488141 1_656
Ho5 Ti5 3.476790 1_555
Ho6 Ti2 3.476795 1_555
Ho7 Ti5 3.476790 1_555
Ho8 Ti6 3.476795 1_555
Ho8 Ho9 3.488131 1_555
Ho9 Ti7 3.476795 1_555
Ho10 Ti7 3.476795 1_555
Ho10 Ho11 3.488131 1_554
Ho11 Ti6 3.476795 1_555
Al0 Ti4 2.676270 1_455
Al0 Al62 2.746550 1_555
Al0 Al68 2.746550 1_555
Al0 Al42 2.810413 1_555
Al0 Al46 2.810413 1_555
Al0 Al80 2.810518 1_555
Al0 Al70 2.810518 1_555
Al0 Al10 2.884137 1_455
Al0 Al6 3.014642 1_555
Al0 Al2 3.014645 1_555
Al0 Ho2 3.082513 1_455
Al0 Ho4 3.082513 1_455
Al1 Ti5 2.676270 1_655
Al1 Al65 2.746550 1_555
Al1 Al63 2.746550 1_555
Al1 Al43 2.810413 1_555
Al1 Al44 2.810413 1_555
Al1 Al73 2.810518 1_555
Al1 Al78 2.810518 1_555
Al1 Al11 2.884137 1_655
Al1 Al8 3.014642 1_555
Al1 Al4 3.014645 1_555
Al1 Ho7 3.082513 1_655
Al1 Ho5 3.082513 1_655
Al2 Ti6 2.676267 1_555
Al2 Al74 2.746547 1_555
Al2 Al64 2.746547 1_555
Al2 Al42 2.810418 1_555
Al2 Al46 2.810418 1_555
Al2 Al68 2.810521 1_555
Al2 Al62 2.810521 1_555
Al2 Al7 2.884139 1_555
Al2 Al6 3.014643 1_555
Al2 Ho11 3.082516 1_555
Al2 Ho8 3.082516 1_555
Al3 Ti2 2.676267 1_545
Al3 Al77 2.746548 1_555
Al3 Al66 2.746548 1_555
Al3 Al45 2.810412 1_555
Al3 Al49 2.810412 1_555
Al3 Al85 2.810521 1_555
Al3 Al82 2.810521 1_555
Al3 Al6 2.884138 1_545
Al3 Al7 3.014643 1_555
Al3 Ho0 3.082516 1_545
Al3 Ho6 3.082516 1_545
Al4 Ti7 2.676267 1_555
Al4 Al71 2.746547 1_555
Al4 Al67 2.746547 1_555
Al4 Al44 2.810418 1_555
Al4 Al43 2.810418 1_555
Al4 Al65 2.810521 1_555
Al4 Al63 2.810521 1_555
Al4 Al9 2.884139 1_555
Al4 Al8 3.014643 1_555
Al4 Ho10 3.082516 1_555
Al4 Ho9 3.082516 1_555
Al5 Ti3 2.676267 1_565
Al5 Al76 2.746548 1_555
Al5 Al69 2.746548 1_555
Al5 Al83 2.810521 1_555
Al5 Al84 2.810521 1_555
Al5 Al8 2.884138 1_565
Al5 Al9 3.014643 1_555
Al5 Ho3 3.082516 1_565
Al5 Ho1 3.082516 1_565
Al6 Ti2 2.676267 1_555
Al6 Al70 2.746548 1_555
Al6 Al80 2.746548 1_555
Al6 Al74 2.810520 1_555
Al6 Al64 2.810520 1_555
Al6 Ho6 3.082515 1_555
Al6 Ho0 3.082515 1_555
Al7 Ti6 2.676267 1_555
Al7 Al72 2.746548 1_555
Al7 Al81 2.746548 1_555
Al7 Al77 2.810520 1_555
Al7 Ho8 3.082515 1_555
Al7 Ho11 3.082515 1_555
Al8 Ti3 2.676267 1_555
Al8 Ho3 3.082515 1_555
Al8 Ho1 3.082515 1_555
Al9 Ti7 2.676267 1_555
Al9 Ho9 3.082515 1_555
Al9 Ho10 3.082515 1_555
Al10 Ti4 2.676270 1_555
Al10 Al85 2.746550 1_555
Al10 Al82 2.746550 1_555
Al10 Al45 2.810414 1_555
Al10 Al49 2.810414 1_555
Al10 Al81 2.810518 1_555
Al10 Al72 2.810518 1_555
Al10 Al7 3.014642 1_555
Al10 Al3 3.014645 1_555
Al10 Ho2 3.082513 1_555
Al10 Ho4 3.082513 1_555
Al11 Ti5 2.676270 1_555
Al11 Al83 2.746550 1_555
Al11 Al84 2.746550 1_555
Al11 Al48 2.810414 1_555
Al11 Al47 2.810414 1_555
Al11 Al75 2.810518 1_555
Al11 Al79 2.810518 1_555
Al11 Al9 3.014642 1_555
Al11 Al5 3.014645 1_555
Al11 Ho7 3.082513 1_555
Al11 Ho5 3.082513 1_555
Al12 Ti1 2.685271 1_555
Al12 Ti3 2.691716 1_555
Al12 Al71 2.718207 1_555
Al12 Al83 2.718208 1_545
Al12 Al56 2.797812 1_554
Al12 Al60 2.876331 1_555
Al12 Al57 2.876333 1_545
Al12 Al41 2.891923 1_555
Al12 Al39 2.891926 1_545
Al12 Al14 2.964060 1_455
Al12 Al20 2.964062 1_445
Al12 Ho3 3.463245 1_555
Al13 Ti1 2.685271 1_666
Al13 Ti2 2.691716 1_555
Al13 Al74 2.718207 1_555
Al13 Al82 2.718208 1_565
Al13 Al53 2.797812 1_556
Al13 Al61 2.876331 1_555
Al13 Al54 2.876333 1_565
Al13 Al38 2.891923 1_565
Al13 Al40 2.891926 1_555
Al13 Al17 2.964060 1_655
Al13 Al21 2.964062 1_665
Al13 Ho6 3.463245 1_555
Al14 Ti1 2.685272 1_655
Al14 Ti5 2.691711 1_655
Al14 Al75 2.718206 1_655
Al14 Al78 2.718206 1_555
Al14 Al54 2.797813 1_554
Al14 Al53 2.876334 1_545
Al14 Al60 2.876334 1_655
Al14 Al41 2.891921 1_655
Al14 Al37 2.891924 1_555
Al14 Al20 2.964060 1_545
Al14 Ho7 3.463235 1_655
Al15 Ti0 2.685271 1_665
Al15 Ti2 2.691716 1_555
Al15 Al64 2.718207 1_555
Al15 Al85 2.718208 1_565
Al15 Al51 2.797812 1_555
Al15 Al58 2.876331 1_555
Al15 Al52 2.876333 1_565
Al15 Al38 2.891923 1_565
Al15 Al40 2.891926 1_555
Al15 Al19 2.964060 1_655
Al15 Al22 2.964062 1_665
Al15 Ho0 3.463245 1_555
Al16 Ti0 2.685272 1_655
Al16 Ti5 2.691711 1_655
Al16 Al79 2.718206 1_655
Al16 Al73 2.718206 1_555
Al16 Al52 2.797813 1_555
Al16 Al51 2.876334 1_545
Al16 Al59 2.876334 1_655
Al16 Al41 2.891921 1_655
Al16 Al37 2.891924 1_555
Al16 Al23 2.964060 1_545
Al16 Al18 2.964060 1_655
Al16 Ho5 3.463235 1_655
Al17 Ti1 2.685272 1_566
Al17 Ti4 2.691711 1_455
Al17 Al72 2.718206 1_455
Al17 Al80 2.718206 1_555
Al17 Al57 2.797813 1_556
Al17 Al56 2.876334 1_565
Al17 Al61 2.876334 1_455
Al17 Al36 2.891921 1_555
Al17 Al40 2.891924 1_455
Al17 Al21 2.964060 1_565
Al17 Ho4 3.463235 1_455
Al18 Ti0 2.685271 1_555
Al18 Ti3 2.691716 1_555
Al18 Al67 2.718207 1_555
Al18 Al84 2.718208 1_545
Al18 Al50 2.797812 1_555
Al18 Al59 2.876331 1_555
Al18 Al55 2.876333 1_545
Al18 Al41 2.891923 1_555
Al18 Al39 2.891926 1_545
Al18 Al23 2.964062 1_445
Al18 Ho1 3.463245 1_555
Al19 Ti0 2.685272 1_565
Al19 Ti4 2.691711 1_455
Al19 Al81 2.718206 1_455
Al19 Al70 2.718206 1_555
Al19 Al55 2.797813 1_555
Al19 Al50 2.876334 1_565
Al19 Al58 2.876334 1_455
Al19 Al36 2.891921 1_555
Al19 Al40 2.891924 1_455
Al19 Al22 2.964060 1_565
Al19 Ho2 3.463235 1_455
Al20 Ti1 2.685271 1_665
Al20 Ti7 2.691716 1_555
Al20 Al69 2.718207 1_555
Al20 Al65 2.718208 1_555
Al20 Al61 2.797812 1_554
Al20 Al53 2.876331 1_555
Al20 Al57 2.876333 1_655
Al20 Al37 2.891926 1_565
Al20 Al39 2.891926 1_655
Al20 Ho10 3.463245 1_555
Al21 Ti1 2.685271 1_556
Al21 Ti6 2.691716 1_555
Al21 Al66 2.718207 1_555
Al21 Al68 2.718208 1_555
Al21 Al60 2.797812 1_556
Al21 Al56 2.876331 1_555
Al21 Al54 2.876333 1_455
Al21 Al36 2.891923 1_545
Al21 Al38 2.891924 1_455
Al21 Ho11 3.463245 1_555
Al22 Ti0 2.685271 1_555
Al22 Ti6 2.691716 1_555
Al22 Al77 2.718207 1_555
Al22 Al62 2.718208 1_555
Al22 Al59 2.797812 1_555
Al22 Al50 2.876331 1_555
Al22 Al52 2.876333 1_455
Al22 Al36 2.891923 1_545
Al22 Al38 2.891924 1_455
Al22 Ho8 3.463245 1_555
Al23 Ti0 2.685271 1_665
Al23 Ti7 2.691716 1_555
Al23 Al76 2.718207 1_555
Al23 Al63 2.718208 1_555
Al23 Al58 2.797812 1_555
Al23 Al51 2.876331 1_555
Al23 Al55 2.876333 1_655
Al23 Al37 2.891926 1_565
Al23 Al39 2.891926 1_655
Al23 Ho9 3.463245 1_555
Al24 Al52 2.738390 1_455
Al24 Al59 2.738395 1_555
Al24 Al48 2.760400 1_555
Al24 Al42 2.760401 1_555
Al24 Al26 2.820073 1_555
Al24 Al32 2.820075 1_555
Al24 Al62 3.087270 1_555
Al24 Al79 3.087273 1_555
Al24 Ho5 3.104467 1_555
Al24 Ho8 3.104476 1_555
Al24 Ho9 3.389695 1_555
Al24 Ho2 3.389696 1_455
Al25 Al55 2.738390 1_655
Al25 Al58 2.738395 1_555
Al25 Al49 2.760400 1_555
Al25 Al43 2.760401 1_555
Al25 Al29 2.820073 1_555
Al25 Al33 2.820075 1_555
Al25 Al63 3.087270 1_555
Al25 Al81 3.087273 1_555
Al25 Ho2 3.104467 1_555
Al25 Ho9 3.104476 1_555
Al25 Ho8 3.389695 1_555
Al25 Ho5 3.389696 1_655
Al26 Al51 2.738388 1_555
Al26 Al58 2.738394 1_555
Al26 Al48 2.760399 1_555
Al26 Al42 2.760399 1_555
Al26 Al32 2.820073 1_555
Al26 Al76 3.087269 1_555
Al26 Al64 3.087271 1_555
Al26 Ho0 3.104468 1_555
Al26 Ho9 3.104477 1_555
Al26 Ho1 3.389688 1_565
Al26 Ho8 3.389697 1_555
Al27 Al57 2.738390 1_655
Al27 Al61 2.738395 1_554
Al27 Al45 2.760400 1_554
Al27 Al44 2.760401 1_555
Al27 Al28 2.820073 1_555
Al27 Al34 2.820075 1_554
Al27 Al65 3.087270 1_555
Al27 Al72 3.087273 1_554
Al27 Ho4 3.104467 1_554
Al27 Ho10 3.104476 1_555
Al27 Ho11 3.389695 1_554
Al27 Ho7 3.389696 1_655
Al28 Al56 2.738388 1_554
Al28 Al60 2.738394 1_555
Al28 Al45 2.760399 1_554
Al28 Al44 2.760399 1_555
Al28 Al34 2.820073 1_554
Al28 Al66 3.087269 1_554
Al28 Al71 3.087271 1_555
Al28 Ho3 3.104468 1_555
Al28 Ho11 3.104477 1_554
Al28 Ho6 3.389688 1_544
Al28 Ho10 3.389697 1_555
Al29 Al50 2.738388 1_555
Al29 Al59 2.738394 1_555
Al29 Al49 2.760399 1_555
Al29 Al43 2.760399 1_555
Al29 Al33 2.820073 1_555
Al29 Al77 3.087269 1_555
Al29 Al67 3.087271 1_555
Al29 Ho1 3.104468 1_555
Al29 Ho8 3.104477 1_555
Al29 Ho0 3.389688 1_545
Al29 Ho9 3.389697 1_555
Al30 Al54 2.738390 1_455
Al30 Al60 2.738395 1_556
Al30 Al47 2.760400 1_556
Al30 Al46 2.760401 1_555
Al30 Al31 2.820073 1_556
Al30 Al35 2.820075 1_556
Al30 Al68 3.087270 1_555
Al30 Al75 3.087273 1_556
Al30 Ho7 3.104467 1_556
Al30 Ho11 3.104476 1_555
Al30 Ho10 3.389695 1_556
Al30 Ho4 3.389696 1_455
Al31 Al53 2.738388 1_555
Al31 Al61 2.738394 1_554
Al31 Al47 2.760399 1_555
Al31 Al46 2.760399 1_554
Al31 Al35 2.820073 1_555
Al31 Al69 3.087269 1_555
Al31 Al74 3.087271 1_554
Al31 Ho6 3.104468 1_554
Al31 Ho10 3.104477 1_555
Al31 Ho3 3.389688 1_565
Al31 Ho11 3.389697 1_554
Al32 Al50 2.738384 1_565
Al32 Al55 2.738385 1_555
Al32 Al42 2.760400 1_555
Al32 Al48 2.760401 1_555
Al32 Al84 3.087268 1_555
Al32 Al70 3.087269 1_555
Al32 Ho2 3.104471 1_455
Al32 Ho1 3.104471 1_565
Al32 Ho0 3.389692 1_555
Al32 Ho5 3.389701 1_555
Al33 Al51 2.738384 1_545
Al33 Al52 2.738385 1_555
Al33 Al43 2.760400 1_555
Al33 Al49 2.760401 1_555
Al33 Al85 3.087268 1_555
Al33 Al73 3.087269 1_555
Al33 Ho5 3.104471 1_655
Al33 Ho0 3.104471 1_545
Al33 Ho1 3.389692 1_555
Al33 Ho2 3.389701 1_555
Al34 Al53 2.738384 1_546
Al34 Al54 2.738385 1_555
Al34 Al44 2.760400 1_556
Al34 Al45 2.760401 1_555
Al34 Al82 3.087268 1_555
Al34 Al78 3.087269 1_556
Al34 Ho7 3.104471 1_656
Al34 Ho6 3.104471 1_545
Al34 Ho3 3.389692 1_556
Al34 Ho4 3.389701 1_555
Al35 Al56 2.738384 1_564
Al35 Al57 2.738385 1_555
Al35 Al46 2.760400 1_554
Al35 Al47 2.760401 1_555
Al35 Al83 3.087268 1_555
Al35 Al80 3.087269 1_554
Al35 Ho4 3.104471 1_454
Al35 Ho3 3.104471 1_565
Al35 Ho6 3.389692 1_554
Al35 Ho7 3.389701 1_555
Al36 Ti4 2.595394 1_455
Al36 Ti6 2.595401 1_565
Al36 Al38 2.786409 1_465
Al36 Al40 2.786418 1_455
Al36 Al70 2.827401 1_555
Al36 Al80 2.827401 1_555
Al36 Al77 2.827405 1_565
Al36 Al66 2.827405 1_565
Al37 Ti5 2.595394 1_655
Al37 Ti7 2.595402 1_545
Al37 Al41 2.786418 1_655
Al37 Al39 2.786428 1_645
Al37 Al73 2.827394 1_555
Al37 Al78 2.827394 1_555
Al37 Al69 2.827398 1_545
Al37 Al76 2.827398 1_545
Al38 Ti2 2.595401 1_545
Al38 Ti6 2.595401 1_655
Al38 Al40 2.786419 1_545
Al38 Al68 2.827404 1_655
Al38 Al62 2.827404 1_655
Al38 Al85 2.827404 1_555
Al38 Al82 2.827404 1_555
Al39 Ti3 2.595401 1_565
Al39 Ti7 2.595401 1_455
Al39 Al41 2.786419 1_565
Al39 Al63 2.827397 1_455
Al39 Al65 2.827397 1_455
Al39 Al83 2.827397 1_555
Al39 Al84 2.827397 1_555
Al40 Ti4 2.595395 1_555
Al40 Ti2 2.595402 1_555
Al40 Al72 2.827394 1_555
Al40 Al81 2.827394 1_555
Al40 Al64 2.827398 1_555
Al40 Al74 2.827398 1_555
Al41 Ti5 2.595394 1_555
Al41 Ti3 2.595402 1_555
Al41 Al75 2.827401 1_555
Al41 Al79 2.827401 1_555
Al41 Al71 2.827405 1_555
Al41 Al67 2.827405 1_555
Al42 Al70 2.714381 1_555
Al42 Al64 2.714387 1_555
Al42 Al62 2.714390 1_555
Al42 Al6 2.810411 1_555
Al42 Ho0 3.225076 1_555
Al42 Ho2 3.225079 1_455
Al42 Ho8 3.225088 1_555
Al43 Al73 2.714381 1_555
Al43 Al67 2.714387 1_555
Al43 Al63 2.714390 1_555
Al43 Al8 2.810411 1_555
Al43 Ho1 3.225076 1_555
Al43 Ho5 3.225079 1_655
Al43 Ho9 3.225088 1_555
Al44 Al78 2.714381 1_555
Al44 Al71 2.714387 1_555
Al44 Al65 2.714390 1_555
Al44 Al8 2.810411 1_555
Al44 Ho3 3.225076 1_555
Al44 Ho7 3.225079 1_655
Al44 Ho10 3.225088 1_555
Al45 Al82 2.714382 1_555
Al45 Al66 2.714385 1_555
Al45 Al72 2.714390 1_555
Al45 Al7 2.810417 1_555
Al45 Ho6 3.225078 1_545
Al45 Ho4 3.225080 1_555
Al45 Ho11 3.225085 1_555
Al46 Al80 2.714381 1_555
Al46 Al74 2.714387 1_555
Al46 Al68 2.714390 1_555
Al46 Al6 2.810411 1_555
Al46 Ho6 3.225076 1_555
Al46 Ho4 3.225079 1_455
Al46 Ho11 3.225088 1_555
Al47 Al83 2.714382 1_555
Al47 Al69 2.714385 1_555
Al47 Al75 2.714390 1_555
Al47 Al5 2.810412 1_555
Al47 Al9 2.810417 1_555
Al47 Ho3 3.225078 1_565
Al47 Ho7 3.225080 1_555
Al47 Ho10 3.225085 1_555
Al48 Al84 2.714382 1_555
Al48 Al76 2.714385 1_555
Al48 Al79 2.714390 1_555
Al48 Al5 2.810412 1_555
Al48 Al9 2.810417 1_555
Al48 Ho1 3.225078 1_565
Al48 Ho5 3.225080 1_555
Al48 Ho9 3.225085 1_555
Al49 Al85 2.714382 1_555
Al49 Al77 2.714385 1_555
Al49 Al81 2.714390 1_555
Al49 Al7 2.810417 1_555
Al49 Ho0 3.225078 1_545
Al49 Ho2 3.225080 1_555
Al49 Ho8 3.225085 1_555
Al50 Ti0 2.820794 1_555
Al50 Al77 2.898765 1_555
Al50 Al70 2.898766 1_545
Al50 Al59 2.960772 1_555
Al50 Al55 2.960773 1_545
Al50 Ho1 3.265649 1_555
Al50 Ho0 3.266258 1_545
Al51 Ti0 2.820794 1_665
Al51 Al76 2.898765 1_555
Al51 Al73 2.898766 1_565
Al51 Al58 2.960772 1_555
Al51 Al52 2.960773 1_565
Al51 Ho0 3.265649 1_555
Al51 Ho1 3.266258 1_565
Al52 Ti0 2.820793 1_655
Al52 Al62 2.898766 1_655
Al52 Al85 2.898766 1_555
Al52 Al59 2.960773 1_655
Al52 Ho5 3.265644 1_655
Al52 Ho2 3.266270 1_555
Al53 Ti1 2.820794 1_665
Al53 Al69 2.898765 1_555
Al53 Al78 2.898766 1_565
Al53 Al61 2.960772 1_554
Al53 Al54 2.960773 1_564
Al53 Ho6 3.265649 1_554
Al53 Ho3 3.266258 1_565
Al54 Ti1 2.820793 1_656
Al54 Al68 2.898766 1_655
Al54 Al82 2.898766 1_555
Al54 Al60 2.960773 1_656
Al54 Ho7 3.265644 1_656
Al54 Ho4 3.266270 1_555
Al55 Ti0 2.820793 1_565
Al55 Al63 2.898766 1_455
Al55 Al84 2.898766 1_555
Al55 Al58 2.960773 1_455
Al55 Ho2 3.265644 1_455
Al55 Ho5 3.266270 1_555
Al56 Ti1 2.820794 1_556
Al56 Al66 2.898765 1_555
Al56 Al80 2.898766 1_545
Al56 Al60 2.960772 1_556
Al56 Al57 2.960773 1_546
Al56 Ho3 3.265649 1_556
Al56 Ho6 3.266258 1_545
Al57 Ti1 2.820793 1_565
Al57 Al65 2.898766 1_455
Al57 Al83 2.898766 1_555
Al57 Al61 2.960773 1_454
Al57 Ho4 3.265644 1_454
Al57 Ho7 3.266270 1_555
Al58 Ti0 2.820794 1_665
Al58 Al64 2.898765 1_555
Al58 Al81 2.898766 1_555
Al58 Ho9 3.265649 1_555
Al58 Ho8 3.266257 1_555
Al59 Ti0 2.820794 1_555
Al59 Al67 2.898765 1_555
Al59 Al79 2.898766 1_555
Al59 Ho8 3.265649 1_555
Al59 Ho9 3.266257 1_555
Al60 Ti1 2.820794 1_555
Al60 Al71 2.898765 1_555
Al60 Al75 2.898766 1_555
Al60 Ho11 3.265649 1_554
Al60 Ho10 3.266257 1_555
Al61 Ti1 2.820794 1_666
Al61 Al74 2.898765 1_555
Al61 Al72 2.898766 1_555
Al61 Ho10 3.265649 1_556
Al61 Ho11 3.266257 1_555
Al62 Ti6 2.704558 1_555
Al62 Al85 3.017877 1_455
Al62 Ho2 3.050762 1_455
Al62 Al68 3.067584 1_555
Al62 Ho8 3.301885 1_555
Al63 Ti7 2.704558 1_555
Al63 Al84 3.017877 1_655
Al63 Ho5 3.050762 1_655
Al63 Al65 3.067584 1_555
Al63 Ho9 3.301885 1_555
Al64 Ti2 2.704558 1_555
Al64 Al81 3.017879 1_555
Al64 Ho8 3.050755 1_555
Al64 Al74 3.067584 1_555
Al64 Ho0 3.301884 1_555
Al65 Ti7 2.704558 1_555
Al65 Al83 3.017877 1_655
Al65 Ho7 3.050762 1_655
Al65 Ho10 3.301885 1_555
Al66 Ti6 2.704558 1_555
Al66 Al7 2.810520 1_555
Al66 Al80 3.017879 1_545
Al66 Ho6 3.050755 1_545
Al66 Al77 3.067584 1_555
Al66 Ho11 3.301884 1_555
Al67 Ti3 2.704558 1_555
Al67 Al8 2.810520 1_555
Al67 Al79 3.017879 1_555
Al67 Ho9 3.050755 1_555
Al67 Al71 3.067584 1_555
Al67 Ho1 3.301884 1_555
Al68 Ti6 2.704558 1_555
Al68 Al82 3.017877 1_455
Al68 Ho4 3.050762 1_455
Al68 Ho11 3.301885 1_555
Al69 Ti7 2.704558 1_555
Al69 Al9 2.810520 1_555
Al69 Al78 3.017879 1_565
Al69 Ho3 3.050755 1_565
Al69 Al76 3.067584 1_555
Al69 Ho10 3.301884 1_555
Al70 Ti4 2.704556 1_455
Al70 Al77 3.017879 1_565
Al70 Ho0 3.050756 1_555
Al70 Al80 3.067581 1_555
Al70 Ho2 3.301877 1_455
Al71 Ti3 2.704558 1_555
Al71 Al8 2.810520 1_555
Al71 Al75 3.017879 1_555
Al71 Ho10 3.050755 1_555
Al71 Ho3 3.301884 1_555
Al72 Ti4 2.704556 1_555
Al72 Al74 3.017879 1_555
Al72 Ho11 3.050756 1_555
Al72 Al81 3.067581 1_555
Al72 Ho4 3.301877 1_555
Al73 Ti5 2.704556 1_655
Al73 Al8 2.746548 1_555
Al73 Al76 3.017879 1_545
Al73 Ho1 3.050756 1_555
Al73 Al78 3.067581 1_555
Al73 Ho5 3.301877 1_655
Al74 Ti2 2.704558 1_555
Al74 Ho11 3.050755 1_555
Al74 Ho6 3.301884 1_555
Al75 Ti5 2.704556 1_555
Al75 Al9 2.746548 1_555
Al75 Ho10 3.050756 1_555
Al75 Al79 3.067581 1_555
Al75 Ho7 3.301877 1_555
Al76 Ti7 2.704558 1_555
Al76 Al9 2.810520 1_555
Al76 Ho1 3.050755 1_565
Al76 Ho9 3.301884 1_555
Al77 Ti6 2.704558 1_555
Al77 Ho0 3.050755 1_545
Al77 Ho8 3.301884 1_555
Al78 Ti5 2.704556 1_655
Al78 Al8 2.746548 1_555
Al78 Ho3 3.050756 1_555
Al78 Ho7 3.301877 1_655
Al79 Ti5 2.704556 1_555
Al79 Al9 2.746548 1_555
Al79 Ho9 3.050756 1_555
Al79 Ho5 3.301877 1_555
Al80 Ti4 2.704556 1_455
Al80 Ho6 3.050756 1_555
Al80 Ho4 3.301877 1_455
Al81 Ti4 2.704556 1_555
Al81 Ho8 3.050756 1_555
Al81 Ho2 3.301877 1_555
Al82 Ti2 2.704558 1_545
Al82 Ho4 3.050762 1_555
Al82 Al85 3.067584 1_555
Al82 Ho6 3.301885 1_545
Al83 Ti3 2.704558 1_565
Al83 Ho7 3.050762 1_555
Al83 Al84 3.067584 1_555
Al83 Ho3 3.301885 1_565
Al84 Ti3 2.704558 1_565
Al84 Ho5 3.050762 1_555
Al84 Ho1 3.301885 1_565
Al85 Ti2 2.704558 1_545
Al85 Ho2 3.050762 1_555
Al85 Ho0 3.301885 1_545
