# generated using pymatgen
data_Mg2Mn3WS8
_symmetry_space_group_name_H-M   'P 1'
_cell_length_a   7.32021110
_cell_length_b   7.31842562
_cell_length_c   7.32536813
_cell_angle_alpha   60.02223706
_cell_angle_beta   60.02677302
_cell_angle_gamma   60.03323257
_symmetry_Int_Tables_number   1
_chemical_formula_structural   Mg2Mn3WS8
_chemical_formula_sum   'Mg2 Mn3 W1 S8'
_cell_volume   277.66780160
_cell_formula_units_Z   1
loop_
 _symmetry_equiv_pos_site_id
 _symmetry_equiv_pos_as_xyz
  1  'x, y, z'
loop_
 _atom_site_type_symbol
 _atom_site_label
 _atom_site_symmetry_multiplicity
 _atom_site_fract_x
 _atom_site_fract_y
 _atom_site_fract_z
 _atom_site_occupancy
  Mg  Mg0  1  0.86963500  0.86954400  0.86976200  1
  Mg  Mg1  1  0.13032900  0.13051300  0.13023500  1
  Mn  Mn0  1  0.49998400  0.49995500  0.00005300  1
  Mn  Mn1  1  0.00003600  0.50008600  0.49988400  1
  Mn  Mn2  1  0.50014400  0.99991900  0.49992600  1
  W  W0  1  0.49987800  0.50000700  0.50009700  1
  S  S0  1  0.73410600  0.73404300  0.73406700  1
  S  S1  1  0.26522600  0.26523900  0.72137600  1
  S  S2  1  0.26528600  0.72117100  0.26530200  1
  S  S3  1  0.72121800  0.26538000  0.26531400  1
  S  S4  1  0.73464200  0.27885600  0.73473700  1
  S  S5  1  0.27877600  0.73459400  0.73478200  1
  S  S6  1  0.26600500  0.26600300  0.26585100  1
  S  S7  1  0.73474100  0.73468400  0.27861400  1
loop_
_geom_bond_atom_site_label_1
_geom_bond_atom_site_label_2
_geom_bond_distance
_geom_bond_site_symmetry_2
Mg0 S0 2.430836 1_555
Mg0 S7 2.446172 1_556
Mg0 S5 2.446432 1_655
Mg0 S4 2.446744 1_565
Mg1 S6 2.431176 1_555
Mg1 S1 2.446220 1_554
Mg1 S3 2.446252 1_455
Mg1 S2 2.446924 1_545
Mn0 S6 2.433542 1_555
Mn0 S0 2.435014 1_554
Mn0 S4 2.525164 1_554
Mn0 S2 2.525376 1_555
Mn0 S5 2.525573 1_554
Mn0 S3 2.525660 1_555
Mn1 S6 2.435637 1_555
Mn1 S0 2.435726 1_455
Mn1 S2 2.523300 1_555
Mn1 S4 2.524770 1_455
Mn1 S7 2.525817 1_455
Mn1 S1 2.526311 1_555
Mn2 S0 2.435562 1_555
Mn2 S6 2.436241 1_565
Mn2 S3 2.524298 1_565
Mn2 S5 2.524984 1_555
Mn2 S7 2.525494 1_555
Mn2 S1 2.526597 1_565
S1 W0 2.431675 1_555
S2 W0 2.433009 1_555
S3 W0 2.432921 1_555
S4 W0 2.433103 1_555
S5 W0 2.432256 1_555
S7 W0 2.432255 1_555
