# generated using pymatgen
data_Na2Mo2O7
_symmetry_space_group_name_H-M   'P 1'
_cell_length_a   6.89852031
_cell_length_b   6.89852031
_cell_length_c   14.69544149
_cell_angle_alpha   90.00000000
_cell_angle_beta   90.00000000
_cell_angle_gamma   117.32646387
_symmetry_Int_Tables_number   1
_chemical_formula_structural   Na2Mo2O7
_chemical_formula_sum   'Na8 Mo8 O28'
_cell_volume   621.30617738
_cell_formula_units_Z   4
loop_
 _symmetry_equiv_pos_site_id
 _symmetry_equiv_pos_as_xyz
  1  'x, y, z'
loop_
 _atom_site_type_symbol
 _atom_site_label
 _atom_site_symmetry_multiplicity
 _atom_site_fract_x
 _atom_site_fract_y
 _atom_site_fract_z
 _atom_site_occupancy
  Na  Na0  1  0.31946272  0.68053728  0.34493379  1
  Na  Na1  1  0.18053728  0.81946272  0.84493379  1
  Na  Na2  1  0.68053728  0.31946272  0.65506621  1
  Na  Na3  1  0.81946272  0.18053728  0.15506621  1
  Na  Na4  1  0.24660976  0.24660976  0.00000000  1
  Na  Na5  1  0.25339024  0.25339024  0.50000000  1
  Na  Na6  1  0.75339024  0.75339024  0.00000000  1
  Na  Na7  1  0.74660976  0.74660976  0.50000000  1
  Mo  Mo0  1  0.24657102  0.75342898  0.08413160  1
  Mo  Mo1  1  0.25342898  0.74657102  0.58413160  1
  Mo  Mo2  1  0.75342898  0.24657102  0.91586840  1
  Mo  Mo3  1  0.74657102  0.25342898  0.41586840  1
  Mo  Mo4  1  0.33106356  0.16893644  0.25000000  1
  Mo  Mo5  1  0.16893644  0.33106356  0.75000000  1
  Mo  Mo6  1  0.66893644  0.83106356  0.75000000  1
  Mo  Mo7  1  0.83106356  0.66893644  0.25000000  1
  O  O0  1  0.36118298  0.63881702  0.50123012  1
  O  O1  1  0.13881702  0.86118298  0.00123012  1
  O  O2  1  0.63881702  0.36118298  0.49876988  1
  O  O3  1  0.86118298  0.13881702  0.99876988  1
  O  O4  1  0.37692736  0.62307264  0.02903224  1
  O  O5  1  0.12307264  0.87692736  0.52903224  1
  O  O6  1  0.62307264  0.37692736  0.97096776  1
  O  O7  1  0.87692736  0.12307264  0.47096776  1
  O  O8  1  0.12130787  0.87869213  0.28212065  1
  O  O9  1  0.37869213  0.62130787  0.78212065  1
  O  O10  1  0.87869213  0.12130787  0.71787935  1
  O  O11  1  0.62130787  0.37869213  0.21787935  1
  O  O12  1  0.70931953  0.69012777  0.66180725  1
  O  O13  1  0.79068047  0.80987223  0.16180725  1
  O  O14  1  0.69012777  0.70931953  0.33819275  1
  O  O15  1  0.80987223  0.79068047  0.83819275  1
  O  O16  1  0.93299422  0.47011700  0.34537884  1
  O  O17  1  0.56700578  0.02988300  0.84537884  1
  O  O18  1  0.47011700  0.93299422  0.65462116  1
  O  O19  1  0.02988300  0.56700578  0.15462116  1
  O  O20  1  0.06700578  0.52988300  0.65462116  1
  O  O21  1  0.43299422  0.97011700  0.15462116  1
  O  O22  1  0.52988300  0.06700578  0.34537884  1
  O  O23  1  0.97011700  0.43299422  0.84537884  1
  O  O24  1  0.19012777  0.20931953  0.16180725  1
  O  O25  1  0.30987223  0.29068047  0.66180725  1
  O  O26  1  0.20931953  0.19012777  0.83819275  1
  O  O27  1  0.29068047  0.30987223  0.33819275  1
loop_
_geom_bond_atom_site_label_1
_geom_bond_atom_site_label_2
_geom_bond_distance
_geom_bond_site_symmetry_2
Na0 O0 2.348874 1_555
Na0 O22 2.379472 1_565
Na0 O16 2.379472 1_455
Na0 O27 2.474177 1_555
Na0 O14 2.474177 1_555
Na0 O8 2.510959 1_555
Na1 O1 2.348874 1_556
Na1 O17 2.379472 1_565
Na1 O23 2.379472 1_455
Na1 O26 2.474177 1_565
Na1 O15 2.474177 1_455
Na1 O9 2.510959 1_555
Na2 O2 2.348874 1_555
Na2 O20 2.379472 1_655
Na2 O18 2.379472 1_545
Na2 O25 2.474177 1_555
Na2 O12 2.474177 1_555
Na2 O10 2.510959 1_555
Na3 O3 2.348874 1_554
Na3 O19 2.379472 1_655
Na3 O21 2.379472 1_545
Na3 O24 2.474177 1_655
Na3 O13 2.474177 1_545
Na3 O11 2.510959 1_555
Na4 O4 2.364584 1_555
Na4 O6 2.364584 1_554
Na4 O24 2.404172 1_555
Na4 O26 2.404172 1_554
Na4 O3 2.409901 1_454
Na4 O1 2.409901 1_545
Na5 O5 2.364584 1_545
Na5 O7 2.364584 1_455
Na5 O27 2.404172 1_555
Na5 O25 2.404172 1_555
Na5 O2 2.409901 1_555
Na5 O0 2.409901 1_555
Na6 O4 2.364584 1_555
Na6 O6 2.364584 1_554
Na6 O15 2.404172 1_554
Na6 O13 2.404172 1_555
Na6 O1 2.409901 1_655
Na6 O3 2.409901 1_564
Na7 O5 2.364584 1_655
Na7 O7 2.364584 1_565
Na7 O14 2.404172 1_555
Na7 O12 2.404172 1_555
Na7 O0 2.409901 1_555
Na7 O2 2.409901 1_555
Mo0 O4 1.736506 1_555
Mo0 O1 1.759723 1_555
Mo0 O19 1.787861 1_555
Mo0 O21 1.787861 1_555
Mo1 O5 1.736506 1_555
Mo1 O0 1.759723 1_555
Mo1 O18 1.787861 1_555
Mo1 O20 1.787861 1_555
Mo2 O6 1.736506 1_555
Mo2 O3 1.759723 1_555
Mo2 O23 1.787861 1_555
Mo2 O17 1.787861 1_555
Mo3 O7 1.736506 1_555
Mo3 O2 1.759723 1_555
Mo3 O16 1.787861 1_555
Mo3 O22 1.787861 1_555
Mo4 O24 1.717920 1_555
Mo4 O27 1.717920 1_555
Mo4 O8 1.914580 1_545
Mo4 O11 1.914580 1_555
Mo4 O21 2.285974 1_545
Mo4 O22 2.285974 1_555
Mo5 O25 1.717920 1_555
Mo5 O26 1.717920 1_555
Mo5 O10 1.914580 1_455
Mo5 O9 1.914580 1_555
Mo5 O23 2.285974 1_455
Mo5 O20 2.285974 1_555
Mo6 O12 1.717920 1_555
Mo6 O15 1.717920 1_555
Mo6 O9 1.914580 1_555
Mo6 O10 1.914580 1_565
Mo6 O17 2.285974 1_565
Mo6 O18 2.285974 1_555
Mo7 O13 1.717920 1_555
Mo7 O14 1.717920 1_555
Mo7 O11 1.914580 1_555
Mo7 O8 1.914580 1_655
Mo7 O19 2.285974 1_655
Mo7 O16 2.285974 1_555
