# generated using pymatgen
data_SrCaDyBiO6
_symmetry_space_group_name_H-M   'P 1'
_cell_length_a   5.93157725
_cell_length_b   5.98810257
_cell_length_c   5.98810257
_cell_angle_alpha   60.42597339
_cell_angle_beta   59.83602147
_cell_angle_gamma   59.83602147
_symmetry_Int_Tables_number   1
_chemical_formula_structural   SrCaDyBiO6
_chemical_formula_sum   'Sr1 Ca1 Dy1 Bi1 O6'
_cell_volume   150.49580261
_cell_formula_units_Z   1
loop_
 _symmetry_equiv_pos_site_id
 _symmetry_equiv_pos_as_xyz
  1  'x, y, z'
loop_
 _atom_site_type_symbol
 _atom_site_label
 _atom_site_symmetry_multiplicity
 _atom_site_fract_x
 _atom_site_fract_y
 _atom_site_fract_z
 _atom_site_occupancy
  Sr  Sr0  1  0.73090955  0.74906745  0.74906745  1
  Ca  Ca0  1  0.28341619  0.25013762  0.25013762  1
  Dy  Dy0  1  0.50055560  0.50024988  0.50024988  1
  Bi  Bi0  1  0.00020792  0.00024661  0.00024661  1
  O  O0  1  0.13643288  0.75788097  0.75788097  1
  O  O1  1  0.88959087  0.24011555  0.24011555  1
  O  O2  1  0.29852376  0.67831455  0.18918094  1
  O  O3  1  0.68091973  0.30447133  0.83033510  1
  O  O4  1  0.68091973  0.83033510  0.30447133  1
  O  O5  1  0.29852376  0.18918094  0.67831455  1
loop_
_geom_bond_atom_site_label_1
_geom_bond_atom_site_label_2
_geom_bond_distance
_geom_bond_site_symmetry_2
Ca0 O1 2.397801 1_455
Ca0 O5 2.447328 1_555
Ca0 O2 2.447328 1_555
Ca0 O4 2.447770 1_545
Ca0 O3 2.447770 1_554
Dy0 O4 2.236779 1_555
Dy0 O3 2.236779 1_555
Dy0 O5 2.245295 1_555
Dy0 O2 2.245295 1_555
Dy0 O0 2.253236 1_555
Dy0 O1 2.312646 1_555
Bi0 O2 2.135009 1_545
Bi0 O5 2.135009 1_554
Bi0 O4 2.140171 1_445
Bi0 O3 2.140171 1_454
Bi0 O0 2.141872 1_544
Bi0 O1 2.167730 1_455
O0 Sr0 2.459550 1_455
O2 Sr0 2.626796 1_554
O3 Sr0 2.604223 1_555
O4 Sr0 2.604223 1_555
O5 Sr0 2.626796 1_545
