# generated using pymatgen
data_Lu5(In2Pt)2
_symmetry_space_group_name_H-M   'P 1'
_cell_length_a   3.57656606
_cell_length_b   7.88922936
_cell_length_c   17.82684905
_cell_angle_alpha   90.00000000
_cell_angle_beta   90.00000000
_cell_angle_gamma   90.00000000
_symmetry_Int_Tables_number   1
_chemical_formula_structural   Lu5(In2Pt)2
_chemical_formula_sum   'Lu10 In8 Pt4'
_cell_volume   503.00861163
_cell_formula_units_Z   2
loop_
 _symmetry_equiv_pos_site_id
 _symmetry_equiv_pos_as_xyz
  1  'x, y, z'
loop_
 _atom_site_type_symbol
 _atom_site_label
 _atom_site_symmetry_multiplicity
 _atom_site_fract_x
 _atom_site_fract_y
 _atom_site_fract_z
 _atom_site_occupancy
  Lu  Lu0  1  0.00000000  0.11500456  0.41530382  1
  Lu  Lu1  1  0.00000000  0.88499544  0.58469618  1
  Lu  Lu2  1  -0.00000000  0.38499544  0.91530382  1
  Lu  Lu3  1  0.00000000  0.61500456  0.08469618  1
  Lu  Lu4  1  0.00000000  0.24502586  0.22109525  1
  Lu  Lu5  1  0.00000000  0.75497414  0.77890475  1
  Lu  Lu6  1  0.00000000  0.25497414  0.72109525  1
  Lu  Lu7  1  0.00000000  0.74502586  0.27890475  1
  Lu  Lu8  1  0.00000000  0.00000000  -0.00000000  1
  Lu  Lu9  1  0.00000000  0.50000000  0.50000000  1
  In  In0  1  0.50000000  0.42509342  0.35235915  1
  In  In1  1  0.50000000  0.57490658  0.64764085  1
  In  In2  1  0.50000000  0.07490658  0.85235915  1
  In  In3  1  0.50000000  0.92509342  0.14764085  1
  In  In4  1  0.50000000  0.29028077  0.06633808  1
  In  In5  1  0.50000000  0.70971923  0.93366192  1
  In  In6  1  0.50000000  0.20971923  0.56633808  1
  In  In7  1  0.50000000  0.79028077  0.43366192  1
  Pt  Pt0  1  0.50000000  0.02795125  0.30392802  1
  Pt  Pt1  1  0.50000000  0.97204875  0.69607198  1
  Pt  Pt2  1  0.50000000  0.47204875  0.80392802  1
  Pt  Pt3  1  0.50000000  0.52795125  0.19607198  1
loop_
_geom_bond_atom_site_label_1
_geom_bond_atom_site_label_2
_geom_bond_distance
_geom_bond_site_symmetry_2
Lu0 Pt0 2.758941 1_455
Lu0 Pt0 2.758941 1_555
Lu1 Pt1 2.758941 1_455
Lu1 Pt1 2.758941 1_555
Lu2 Pt2 2.758941 1_455
Lu2 Pt2 2.758941 1_555
Lu3 Pt3 2.758941 1_455
Lu3 Pt3 2.758941 1_555
Lu4 Pt0 2.882928 1_455
Lu4 Pt0 2.882928 1_555
Lu4 Pt3 2.894660 1_455
Lu4 Pt3 2.894660 1_555
Lu5 Pt1 2.882928 1_455
Lu5 Pt1 2.882928 1_555
Lu5 Pt2 2.894660 1_455
Lu5 Pt2 2.894660 1_555
Lu6 Pt2 2.882928 1_555
Lu6 Pt2 2.882928 1_455
Lu6 Pt1 2.894660 1_445
Lu6 Pt1 2.894660 1_545
Lu7 Pt3 2.882928 1_455
Lu7 Pt3 2.882928 1_555
Lu7 Pt0 2.894660 1_565
Lu7 Pt0 2.894660 1_465
In0 Pt3 2.901875 1_555
In0 In7 3.225075 1_555
In0 Lu0 3.231372 1_555
In0 Lu0 3.231372 1_655
In0 Lu9 3.236426 1_655
In0 Lu9 3.236426 1_555
In0 Pt0 3.249926 1_555
In0 Lu4 3.269824 1_655
In0 Lu4 3.269824 1_555
In0 Lu7 3.359066 1_655
In0 Lu7 3.359066 1_555
In1 Pt2 2.901875 1_555
In1 In6 3.225075 1_555
In1 Lu1 3.231372 1_655
In1 Lu1 3.231372 1_555
In1 Lu9 3.236426 1_555
In1 Lu9 3.236426 1_655
In1 Pt1 3.249926 1_555
In1 Lu5 3.269824 1_655
In1 Lu5 3.269824 1_555
In1 Lu6 3.359066 1_655
In1 Lu6 3.359066 1_555
In2 Pt1 2.901875 1_545
In2 In5 3.225075 1_545
In2 Lu2 3.231372 1_555
In2 Lu2 3.231372 1_655
In2 Lu8 3.236426 1_556
In2 Lu8 3.236426 1_656
In2 Pt2 3.249926 1_555
In2 Lu6 3.269824 1_555
In2 Lu6 3.269824 1_655
In2 Lu5 3.359066 1_645
In2 Lu5 3.359066 1_545
In3 Pt0 2.901875 1_565
In3 In4 3.225075 1_565
In3 Lu3 3.231372 1_555
In3 Lu3 3.231372 1_655
In3 Lu8 3.236426 1_665
In3 Lu8 3.236426 1_565
In3 Pt3 3.249926 1_555
In3 Lu7 3.269824 1_555
In3 Lu7 3.269824 1_655
In3 Lu4 3.359066 1_565
In3 Lu4 3.359066 1_665
In4 Pt3 2.977341 1_555
In4 Lu8 3.137039 1_555
In4 Lu8 3.137039 1_655
In4 Lu3 3.141335 1_555
In4 Lu3 3.141335 1_655
In4 Lu4 3.307050 1_555
In4 Lu4 3.307050 1_655
In4 Lu2 3.317479 1_554
In4 Lu2 3.317479 1_654
In5 Pt2 2.977341 1_555
In5 Lu8 3.137039 1_566
In5 Lu8 3.137039 1_666
In5 Lu2 3.141335 1_555
In5 Lu2 3.141335 1_655
In5 Lu5 3.307050 1_555
In5 Lu5 3.307050 1_655
In5 Lu3 3.317479 1_656
In5 Lu3 3.317479 1_556
In6 Pt1 2.977341 1_545
In6 Lu9 3.137039 1_555
In6 Lu9 3.137039 1_655
In6 Lu1 3.141335 1_645
In6 Lu1 3.141335 1_545
In6 Lu6 3.307050 1_655
In6 Lu6 3.307050 1_555
In6 Lu0 3.317479 1_655
In6 Lu0 3.317479 1_555
In7 Pt0 2.977341 1_565
In7 Lu9 3.137039 1_555
In7 Lu9 3.137039 1_655
In7 Lu0 3.141335 1_565
In7 Lu0 3.141335 1_665
In7 Lu7 3.307050 1_655
In7 Lu7 3.307050 1_555
In7 Lu1 3.317479 1_555
In7 Lu1 3.317479 1_655
