# generated using pymatgen
data_Nb2CuS4
_symmetry_space_group_name_H-M   'P 1'
_cell_length_a   3.37588700
_cell_length_b   10.04539800
_cell_length_c   13.51835100
_cell_angle_alpha   90.00000000
_cell_angle_beta   90.00000000
_cell_angle_gamma   90.00000000
_symmetry_Int_Tables_number   1
_chemical_formula_structural   Nb2CuS4
_chemical_formula_sum   'Nb8 Cu4 S16'
_cell_volume   458.43605646
_cell_formula_units_Z   4
loop_
 _symmetry_equiv_pos_site_id
 _symmetry_equiv_pos_as_xyz
  1  'x, y, z'
loop_
 _atom_site_type_symbol
 _atom_site_label
 _atom_site_symmetry_multiplicity
 _atom_site_fract_x
 _atom_site_fract_y
 _atom_site_fract_z
 _atom_site_occupancy
  Nb  Nb0  1  0.25000000  0.64238000  0.89921200  1
  Nb  Nb1  1  0.75000000  0.35762000  0.10078800  1
  Nb  Nb2  1  0.75000000  0.85762000  0.39921200  1
  Nb  Nb3  1  0.25000000  0.14238000  0.60078800  1
  Nb  Nb4  1  0.25000000  0.98054300  0.08620400  1
  Nb  Nb5  1  0.75000000  0.01945700  0.91379600  1
  Nb  Nb6  1  0.75000000  0.51945700  0.58620400  1
  Nb  Nb7  1  0.25000000  0.48054300  0.41379600  1
  Cu  Cu0  1  0.25000000  0.79227500  0.67188400  1
  Cu  Cu1  1  0.75000000  0.20772500  0.32811600  1
  Cu  Cu2  1  0.75000000  0.70772500  0.17188400  1
  Cu  Cu3  1  0.25000000  0.29227500  0.82811600  1
  S  S0  1  0.25000000  0.88184300  0.82656300  1
  S  S1  1  0.75000000  0.11815700  0.17343700  1
  S  S2  1  0.75000000  0.61815700  0.32656300  1
  S  S3  1  0.25000000  0.38184300  0.67343700  1
  S  S4  1  0.25000000  0.86128100  0.25808700  1
  S  S5  1  0.75000000  0.13871900  0.74191300  1
  S  S6  1  0.75000000  0.63871900  0.75808700  1
  S  S7  1  0.25000000  0.36128100  0.24191300  1
  S  S8  1  0.25000000  0.54896100  0.08200000  1
  S  S9  1  0.75000000  0.45103900  0.91800000  1
  S  S10  1  0.75000000  0.95103900  0.58200000  1
  S  S11  1  0.25000000  0.04896100  0.41800000  1
  S  S12  1  0.25000000  0.69473800  0.51222200  1
  S  S13  1  0.75000000  0.30526200  0.48777800  1
  S  S14  1  0.75000000  0.80526200  0.01222200  1
  S  S15  1  0.25000000  0.19473800  0.98777800  1
loop_
_geom_bond_atom_site_label_1
_geom_bond_atom_site_label_2
_geom_bond_distance
_geom_bond_site_symmetry_2
Nb0 S6 2.547571 1_455
Nb0 S6 2.547571 1_555
Nb0 S9 2.570626 1_455
Nb0 S9 2.570626 1_555
Nb0 S0 2.598258 1_555
Nb0 S8 2.643190 1_556
Nb0 S14 2.803613 1_456
Nb0 S14 2.803613 1_556
Nb1 S7 2.547571 1_555
Nb1 S7 2.547571 1_655
Nb1 S8 2.570626 1_655
Nb1 S8 2.570626 1_555
Nb1 S1 2.598258 1_555
Nb1 S9 2.643190 1_554
Nb1 S15 2.803613 1_554
Nb1 S15 2.803613 1_654
Nb2 S4 2.547571 1_555
Nb2 S4 2.547571 1_655
Nb2 S11 2.570626 1_565
Nb2 S11 2.570626 1_665
Nb2 S2 2.598258 1_555
Nb2 S10 2.643190 1_555
Nb2 S12 2.803613 1_555
Nb2 S12 2.803613 1_655
Nb3 S5 2.547571 1_555
Nb3 S5 2.547571 1_455
Nb3 S10 2.570626 1_545
Nb3 S10 2.570626 1_445
Nb3 S3 2.598258 1_555
Nb3 S11 2.643190 1_555
Nb3 S13 2.803613 1_555
Nb3 S13 2.803613 1_455
Nb4 S1 2.480075 1_565
Nb4 S1 2.480075 1_465
Nb4 S15 2.529839 1_564
Nb4 S4 2.614247 1_555
Nb4 S14 2.636225 1_455
Nb4 S14 2.636225 1_555
Nb5 S0 2.480075 1_645
Nb5 S0 2.480075 1_545
Nb5 S14 2.529839 1_546
Nb5 S5 2.614247 1_555
Nb5 S15 2.636225 1_655
Nb5 S15 2.636225 1_555
Nb6 S3 2.480075 1_555
Nb6 S3 2.480075 1_655
Nb6 S13 2.529839 1_555
Nb6 S6 2.614247 1_555
Nb6 S12 2.636225 1_555
Nb6 S12 2.636225 1_655
Nb7 S2 2.480075 1_555
Nb7 S2 2.480075 1_455
Nb7 S12 2.529839 1_555
Nb7 S7 2.614247 1_555
Nb7 S13 2.636225 1_455
Nb7 S13 2.636225 1_555
Cu0 S0 2.276367 1_555
Cu0 S12 2.370349 1_555
Cu0 S6 2.566424 1_555
Cu0 S6 2.566424 1_455
Cu0 S10 2.620901 1_555
Cu0 S10 2.620901 1_455
Cu1 S1 2.276367 1_555
Cu1 S13 2.370349 1_555
Cu1 S7 2.566424 1_655
Cu1 S7 2.566424 1_555
Cu1 S11 2.620901 1_555
Cu1 S11 2.620901 1_655
Cu2 S2 2.276367 1_555
Cu2 S14 2.370349 1_555
Cu2 S4 2.566424 1_655
Cu2 S4 2.566424 1_555
Cu2 S8 2.620901 1_555
Cu2 S8 2.620901 1_655
Cu3 S3 2.276367 1_555
Cu3 S15 2.370349 1_555
Cu3 S5 2.566424 1_455
Cu3 S5 2.566424 1_555
Cu3 S9 2.620901 1_555
Cu3 S9 2.620901 1_455
