# generated using pymatgen
data_Cs2Mn3S4
_symmetry_space_group_name_H-M   'P 1'
_cell_length_a   7.62955074
_cell_length_b   7.62955074
_cell_length_c   5.98650600
_cell_angle_alpha   90.00000000
_cell_angle_beta   90.00000000
_cell_angle_gamma   133.75803107
_symmetry_Int_Tables_number   1
_chemical_formula_structural   Cs2Mn3S4
_chemical_formula_sum   'Cs2 Mn3 S4'
_cell_volume   251.69184332
_cell_formula_units_Z   1
loop_
 _symmetry_equiv_pos_site_id
 _symmetry_equiv_pos_as_xyz
  1  'x, y, z'
loop_
 _atom_site_type_symbol
 _atom_site_label
 _atom_site_symmetry_multiplicity
 _atom_site_fract_x
 _atom_site_fract_y
 _atom_site_fract_z
 _atom_site_occupancy
  Cs  Cs0  1  0.50000000  0.00000000  0.24651700  1
  Cs  Cs1  1  0.00000000  0.50000000  0.75348300  1
  Mn  Mn0  1  0.50000000  0.50000000  0.50000000  1
  Mn  Mn1  1  0.00000000  0.00000000  0.50000000  1
  Mn  Mn2  1  0.50000000  0.50000000  0.00000000  1
  S  S0  1  0.16670900  0.35177300  0.26012200  1
  S  S1  1  0.64822700  0.83329100  0.73987800  1
  S  S2  1  0.83329100  0.64822700  0.26012200  1
  S  S3  1  0.35177300  0.16670900  0.73987800  1
loop_
_geom_bond_atom_site_label_1
_geom_bond_atom_site_label_2
_geom_bond_distance
_geom_bond_site_symmetry_2
Cs0 S2 3.679240 1_555
Cs0 S0 3.679240 1_545
Cs0 S3 3.689117 1_555
Cs0 S1 3.689117 1_545
Cs0 S3 3.753058 1_554
Cs0 S1 3.753058 1_544
Cs0 S2 3.768335 1_445
Cs0 S0 3.768335 1_655
Cs1 S3 3.679240 1_455
Cs1 S1 3.679240 1_555
Cs1 S0 3.689117 1_555
Cs1 S2 3.689117 1_455
Cs1 S0 3.753058 1_556
Cs1 S2 3.753058 1_456
Cs1 S3 3.768335 1_565
Cs1 S1 3.768335 1_445
Mn0 S3 2.414430 1_555
Mn0 S1 2.414430 1_555
Mn0 S0 2.414430 1_555
Mn0 S2 2.414430 1_555
Mn1 S3 2.482186 1_555
Mn1 S1 2.482186 1_445
Mn1 S2 2.482186 1_445
Mn1 S0 2.482186 1_555
Mn2 S0 2.488419 1_555
Mn2 S2 2.488419 1_555
Mn2 S3 2.488419 1_554
Mn2 S1 2.488419 1_554
