# generated using pymatgen
data_MgSi2
_symmetry_space_group_name_H-M   'P 1'
_cell_length_a   3.48313000
_cell_length_b   6.91800700
_cell_length_c   9.01534007
_cell_angle_alpha   69.09834266
_cell_angle_beta   90.00000000
_cell_angle_gamma   90.00000000
_symmetry_Int_Tables_number   1
_chemical_formula_structural   MgSi2
_chemical_formula_sum   'Mg4 Si8'
_cell_volume   202.94106737
_cell_formula_units_Z   4
loop_
 _symmetry_equiv_pos_site_id
 _symmetry_equiv_pos_as_xyz
  1  'x, y, z'
loop_
 _atom_site_type_symbol
 _atom_site_label
 _atom_site_symmetry_multiplicity
 _atom_site_fract_x
 _atom_site_fract_y
 _atom_site_fract_z
 _atom_site_occupancy
  Mg  Mg0  1  0.50000000  0.05546200  0.72899700  1
  Mg  Mg1  1  0.00000000  0.32919200  0.15110200  1
  Mg  Mg2  1  0.00000000  0.67080800  0.84889800  1
  Mg  Mg3  1  0.50000000  0.94453800  0.27100300  1
  Si  Si0  1  0.00000000  0.00000000  0.50000000  1
  Si  Si1  1  0.50000000  0.70504700  0.09576100  1
  Si  Si2  1  0.50000000  0.29495300  0.90423900  1
  Si  Si3  1  0.50000000  0.71553700  0.59716300  1
  Si  Si4  1  0.00000000  0.56794800  0.34442200  1
  Si  Si5  1  0.00000000  0.43205200  0.65557800  1
  Si  Si6  1  0.00000000  0.00000000  0.00000000  1
  Si  Si7  1  0.50000000  0.28446300  0.40283700  1
loop_
_geom_bond_atom_site_label_1
_geom_bond_atom_site_label_2
_geom_bond_distance
_geom_bond_site_symmetry_2
Mg0 Si2 2.666204 1_555
Mg0 Si7 2.798594 1_555
Mg0 Si0 2.829764 1_555
Mg0 Si0 2.829764 1_655
Mg0 Si6 2.912136 1_556
Mg0 Si6 2.912136 1_656
Mg0 Si3 2.989468 1_545
Mg0 Si5 3.004676 1_555
Mg0 Si5 3.004676 1_655
Mg0 Mg2 3.038124 1_645
Mg0 Mg2 3.038124 1_545
Mg1 Si7 2.788950 1_555
Mg1 Si7 2.788950 1_455
Mg1 Si4 2.796373 1_555
Mg1 Mg2 2.900638 1_554
Mg1 Si2 2.901446 1_554
Mg1 Si2 2.901446 1_454
Mg1 Si1 3.019470 1_555
Mg1 Si1 3.019470 1_455
Mg1 Mg3 3.038124 1_545
Mg1 Mg3 3.038124 1_445
Mg1 Si6 3.042302 1_555
Mg1 Si0 3.157355 1_555
Mg2 Si3 2.788950 1_555
Mg2 Si3 2.788950 1_455
Mg2 Si5 2.796373 1_555
Mg2 Si1 2.901446 1_556
Mg2 Si1 2.901446 1_456
Mg2 Si2 3.019470 1_455
Mg2 Si2 3.019470 1_555
Mg2 Si6 3.042302 1_566
Mg2 Si0 3.157355 1_565
Mg3 Si1 2.666204 1_555
Mg3 Si3 2.798594 1_555
Mg3 Si0 2.829764 1_565
Mg3 Si0 2.829764 1_665
Mg3 Si6 2.912136 1_665
Mg3 Si6 2.912136 1_565
Mg3 Si7 2.989468 1_565
Mg3 Si4 3.004676 1_555
Mg3 Si4 3.004676 1_655
Si0 Si3 2.538318 1_445
Si0 Si7 2.538318 1_555
Si0 Si3 2.538318 1_545
Si0 Si7 2.538318 1_455
Si1 Si6 2.585538 1_565
Si1 Si6 2.585538 1_665
Si1 Si4 2.727820 1_655
Si1 Si4 2.727820 1_555
Si2 Si6 2.585538 1_656
Si2 Si6 2.585538 1_556
Si2 Si5 2.727820 1_555
Si2 Si5 2.727820 1_655
Si3 Si5 2.533686 1_555
Si3 Si5 2.533686 1_655
Si4 Si7 2.533686 1_455
Si4 Si7 2.533686 1_555
Si4 Si5 2.621282 1_555
