# generated using pymatgen
data_AlBiO3
_symmetry_space_group_name_H-M   'P 1'
_cell_length_a   6.32377269
_cell_length_b   6.32377269
_cell_length_c   11.83357800
_cell_angle_alpha   90.00000000
_cell_angle_beta   90.00000000
_cell_angle_gamma   120.00000725
_symmetry_Int_Tables_number   1
_chemical_formula_structural   AlBiO3
_chemical_formula_sum   'Al6 Bi6 O18'
_cell_volume   409.82569071
_cell_formula_units_Z   6
loop_
 _symmetry_equiv_pos_site_id
 _symmetry_equiv_pos_as_xyz
  1  'x, y, z'
loop_
 _atom_site_type_symbol
 _atom_site_label
 _atom_site_symmetry_multiplicity
 _atom_site_fract_x
 _atom_site_fract_y
 _atom_site_fract_z
 _atom_site_occupancy
  Al  Al0  1  0.66666700  0.33333300  0.24787500  1
  Al  Al1  1  0.33333300  0.66666700  0.74787500  1
  Al  Al2  1  0.66666700  0.33333300  0.74787500  1
  Al  Al3  1  0.33333300  0.66666700  0.24787500  1
  Al  Al4  1  0.00000000  0.00000000  0.74200800  1
  Al  Al5  1  0.00000000  0.00000000  0.24200800  1
  Bi  Bi0  1  0.67499600  0.00000000  0.50055700  1
  Bi  Bi1  1  0.67499600  0.67499600  0.00055700  1
  Bi  Bi2  1  0.00000000  0.32500400  0.00055700  1
  Bi  Bi3  1  0.00000000  0.67499600  0.50055700  1
  Bi  Bi4  1  0.32500400  0.32500400  0.50055700  1
  Bi  Bi5  1  0.32500400  0.00000000  0.00055700  1
  O  O0  1  0.66666700  0.33333300  0.07748000  1
  O  O1  1  0.33333300  0.66666700  0.57748000  1
  O  O2  1  0.66666700  0.33333300  0.57748000  1
  O  O3  1  0.33333300  0.66666700  0.07748000  1
  O  O4  1  0.00000000  0.00000000  0.89737200  1
  O  O5  1  0.00000000  0.00000000  0.39737200  1
  O  O6  1  0.45999000  0.00000000  0.81409800  1
  O  O7  1  0.45999000  0.45999000  0.31409800  1
  O  O8  1  0.00000000  0.54001000  0.31409800  1
  O  O9  1  0.00000000  0.45999000  0.81409800  1
  O  O10  1  0.54001000  0.54001000  0.81409800  1
  O  O11  1  0.54001000  0.00000000  0.31409800  1
  O  O12  1  0.25337100  0.00000000  0.18031500  1
  O  O13  1  0.25337100  0.25337100  0.68031500  1
  O  O14  1  0.00000000  0.74662900  0.68031500  1
  O  O15  1  0.00000000  0.25337100  0.18031500  1
  O  O16  1  0.74662900  0.74662900  0.18031500  1
  O  O17  1  0.74662900  0.00000000  0.68031500  1
loop_
_geom_bond_atom_site_label_1
_geom_bond_atom_site_label_2
_geom_bond_distance
_geom_bond_site_symmetry_2
Al0 O11 2.002656 1_555
Al0 O8 2.002657 1_655
Al0 O7 2.002662 1_555
Al0 O0 2.016383 1_555
Al1 O6 2.002656 1_565
Al1 O9 2.002657 1_555
Al1 O10 2.002662 1_555
Al1 O1 2.016383 1_555
Al2 O9 2.002656 1_655
Al2 O6 2.002657 1_555
Al2 O10 2.002662 1_555
Al2 O2 2.016383 1_555
Al3 O8 2.002656 1_555
Al3 O11 2.002657 1_565
Al3 O7 2.002662 1_555
Al3 O3 2.016383 1_555
Al4 O13 1.760741 1_555
Al4 O14 1.760741 1_545
Al4 O17 1.760741 1_455
Al4 O4 1.838512 1_555
Al5 O16 1.760741 1_445
Al5 O15 1.760741 1_555
Al5 O12 1.760741 1_555
Al5 O5 1.838512 1_555
Bi0 O17 2.174879 1_555
Bi0 O2 2.320719 1_555
Bi0 O1 2.320721 1_545
Bi0 O11 2.365842 1_555
Bi0 O5 2.390610 1_655
Bi1 O16 2.174879 1_555
Bi1 O3 2.320724 1_555
Bi1 O0 2.320724 1_555
Bi1 O10 2.365842 1_554
Bi1 O4 2.390610 1_664
Bi2 O15 2.174879 1_555
Bi2 O0 2.320719 1_455
Bi2 O3 2.320721 1_555
Bi2 O9 2.365842 1_554
Bi2 O4 2.390610 1_554
Bi3 O14 2.174879 1_555
Bi3 O1 2.320719 1_555
Bi3 O2 2.320721 1_455
Bi3 O8 2.365842 1_555
Bi3 O5 2.390610 1_565
Bi4 O13 2.174879 1_555
Bi4 O2 2.320724 1_555
Bi4 O1 2.320724 1_555
Bi4 O7 2.365842 1_555
Bi4 O5 2.390610 1_555
Bi5 O12 2.174879 1_555
Bi5 O3 2.320719 1_545
Bi5 O0 2.320721 1_555
Bi5 O6 2.365842 1_554
Bi5 O4 2.390610 1_554
