# generated using pymatgen
data_LaSn2Rh
_symmetry_space_group_name_H-M   'P 1'
_cell_length_a   4.65634552
_cell_length_b   8.93532635
_cell_length_c   9.70490949
_cell_angle_alpha   89.99846775
_cell_angle_beta   89.99937219
_cell_angle_gamma   105.13028959
_symmetry_Int_Tables_number   1
_chemical_formula_structural   LaSn2Rh
_chemical_formula_sum   'La4 Sn8 Rh4'
_cell_volume   389.78494490
_cell_formula_units_Z   4
loop_
 _symmetry_equiv_pos_site_id
 _symmetry_equiv_pos_as_xyz
  1  'x, y, z'
loop_
 _atom_site_type_symbol
 _atom_site_label
 _atom_site_symmetry_multiplicity
 _atom_site_fract_x
 _atom_site_fract_y
 _atom_site_fract_z
 _atom_site_occupancy
  La  La0  1  0.49999902  0.00000421  0.49999625  1
  La  La1  1  0.50000227  0.99999906  0.00000629  1
  La  La2  1  0.70451778  0.40917716  0.24993255  1
  La  La3  1  0.29552053  0.59085166  0.75000548  1
  Sn  Sn0  1  0.09144249  0.18237113  0.75002335  1
  Sn  Sn1  1  0.07354640  0.14721816  0.24998385  1
  Sn  Sn2  1  0.90854933  0.81762656  0.24998473  1
  Sn  Sn3  1  0.92645365  0.85278629  0.75002616  1
  Sn  Sn4  1  0.30216720  0.60413654  0.41046308  1
  Sn  Sn5  1  0.69782571  0.39585606  0.58954891  1
  Sn  Sn6  1  0.69783655  0.39586929  0.91048801  1
  Sn  Sn7  1  0.30215474  0.60412208  0.08952074  1
  Rh  Rh0  1  0.85340407  0.70622688  0.50384248  1
  Rh  Rh1  1  0.14661894  0.29382507  0.00386601  1
  Rh  Rh2  1  0.85337020  0.70616237  0.99615680  1
  Rh  Rh3  1  0.14658913  0.29376647  0.49615433  1
loop_
_geom_bond_atom_site_label_1
_geom_bond_atom_site_label_2
_geom_bond_distance
_geom_bond_site_symmetry_2
La0 Rh3 3.439533 1_655
La0 Rh0 3.439620 1_445
La0 Rh3 3.442989 1_555
La0 Rh0 3.443093 1_545
La0 Sn5 3.523352 1_555
La0 Sn4 3.523437 1_545
La0 Sn1 3.593822 1_655
La0 Sn3 3.593937 1_445
La0 Sn1 3.594994 1_555
La0 Sn3 3.595133 1_545
La0 Sn2 3.712158 1_545
La0 Sn0 3.712220 1_555
La0 Sn2 3.712781 1_445
La0 Sn0 3.712838 1_655
La1 Rh1 3.439925 1_665
La1 Rh2 3.440023 1_454
La1 Rh1 3.443413 1_565
La1 Rh2 3.443448 1_554
La1 Sn6 3.523371 1_564
La1 Sn7 3.523419 1_555
La1 Sn1 3.593679 1_665
La1 Sn3 3.593700 1_454
La1 Sn3 3.594792 1_554
La1 Sn1 3.594817 1_565
La1 Sn2 3.711882 1_555
La1 Sn0 3.711946 1_564
La1 Sn0 3.712464 1_664
La1 Sn2 3.712473 1_455
La2 Sn1 3.243578 1_555
La2 Sn1 3.245166 1_655
La2 Sn7 3.266660 1_655
La2 Sn7 3.266726 1_555
La2 Sn4 3.267347 1_555
La2 Sn4 3.267364 1_655
La2 Sn6 3.296281 1_554
La2 Sn5 3.297945 1_555
La2 Rh1 3.480022 1_655
La2 Rh1 3.480816 1_555
La2 Rh3 3.481193 1_655
La2 Rh3 3.481918 1_555
La2 Sn2 3.523114 1_555
La2 Rh2 3.553519 1_554
La2 Rh0 3.554932 1_555
La3 Sn3 3.243344 1_555
La3 Sn3 3.245107 1_455
La3 Sn5 3.267076 1_555
La3 Sn6 3.267126 1_555
La3 Sn6 3.267247 1_455
La3 Sn5 3.267273 1_455
La3 Sn7 3.296956 1_556
La3 Sn4 3.297217 1_555
La3 Rh2 3.480574 1_455
La3 Rh0 3.480799 1_455
La3 Rh2 3.481190 1_555
La3 Rh0 3.481354 1_555
La3 Sn0 3.523383 1_555
La3 Rh1 3.554347 1_556
La3 Rh3 3.554757 1_555
Sn0 Sn3 2.842861 1_445
Sn0 Sn5 3.350318 1_555
Sn0 Sn6 3.350426 1_555
Sn0 Sn5 3.353875 1_455
Sn0 Sn6 3.353909 1_455
Sn1 Sn2 2.842919 1_445
Sn2 Sn4 3.350348 1_555
Sn2 Sn7 3.350444 1_555
Sn2 Sn4 3.353928 1_655
Sn2 Sn7 3.353944 1_655
Sn4 Sn7 3.114716 1_555
Sn4 Sn5 3.415863 1_555
Sn4 Sn5 3.415956 1_455
Sn5 Sn6 3.114685 1_555
Sn6 Sn7 3.415535 1_556
Sn6 Sn7 3.415620 1_656
Rh0 Sn2 2.644394 1_555
Rh0 Sn4 2.648562 1_655
Rh0 Sn4 2.649416 1_555
Rh0 Sn3 2.703057 1_555
Rh0 Sn5 2.803342 1_555
Rh1 Sn0 2.644483 1_554
Rh1 Sn6 2.648408 1_454
Rh1 Sn6 2.649259 1_554
Rh1 Sn1 2.702616 1_555
Rh1 Sn7 2.802634 1_555
Rh2 Sn2 2.644382 1_556
Rh2 Sn7 2.648351 1_656
Rh2 Sn7 2.649200 1_556
Rh2 Sn3 2.702794 1_555
Rh2 Sn6 2.802642 1_555
Rh3 Sn0 2.644482 1_555
Rh3 Sn5 2.648610 1_455
Rh3 Sn5 2.649465 1_555
Rh3 Sn1 2.702899 1_555
Rh3 Sn4 2.803293 1_555
