# generated using pymatgen
data_TmSiIr
_symmetry_space_group_name_H-M   'P 1'
_cell_length_a   4.17521004
_cell_length_b   6.73360636
_cell_length_c   7.39098368
_cell_angle_alpha   89.99969000
_cell_angle_beta   90.00000000
_cell_angle_gamma   90.00000000
_symmetry_Int_Tables_number   1
_chemical_formula_structural   TmSiIr
_chemical_formula_sum   'Tm4 Si4 Ir4'
_cell_volume   207.79174770
_cell_formula_units_Z   4
loop_
 _symmetry_equiv_pos_site_id
 _symmetry_equiv_pos_as_xyz
  1  'x, y, z'
loop_
 _atom_site_type_symbol
 _atom_site_label
 _atom_site_symmetry_multiplicity
 _atom_site_fract_x
 _atom_site_fract_y
 _atom_site_fract_z
 _atom_site_occupancy
  Tm  Tm0  1  0.25000000  0.50401220  0.18796644  1
  Tm  Tm1  1  0.75000000  0.49598780  0.81203356  1
  Tm  Tm2  1  0.75000000  0.99599190  0.68801188  1
  Tm  Tm3  1  0.25000000  0.00400810  0.31198812  1
  Si  Si0  1  0.25000000  0.79656189  0.88770438  1
  Si  Si1  1  0.75000000  0.20343811  0.11229562  1
  Si  Si2  1  0.75000000  0.70345410  0.38768749  1
  Si  Si3  1  0.25000000  0.29654590  0.61231251  1
  Ir  Ir0  1  0.25000000  0.65789136  0.56516499  1
  Ir  Ir1  1  0.75000000  0.34210864  0.43483501  1
  Ir  Ir2  1  0.75000000  0.84216403  0.06512364  1
  Ir  Ir3  1  0.25000000  0.15783597  0.93487636  1
loop_
_geom_bond_atom_site_label_1
_geom_bond_atom_site_label_2
_geom_bond_distance
_geom_bond_site_symmetry_2
Si0 Tm2 2.887864 1_455
Si0 Tm2 2.887864 1_555
Si0 Tm1 2.960957 1_455
Si0 Tm1 2.960957 1_555
Si0 Tm0 2.967407 1_556
Si1 Tm3 2.887864 1_655
Si1 Tm3 2.887864 1_555
Si1 Tm0 2.960957 1_655
Si1 Tm0 2.960957 1_555
Si1 Tm1 2.967407 1_554
Si2 Tm0 2.888017 1_555
Si2 Tm0 2.888017 1_655
Si2 Tm3 2.960900 1_565
Si2 Tm3 2.960900 1_665
Si2 Tm2 2.967715 1_555
Si3 Tm1 2.888017 1_555
Si3 Tm1 2.888017 1_455
Si3 Tm2 2.960900 1_445
Si3 Tm2 2.960900 1_545
Si3 Tm3 2.967715 1_555
Ir0 Si3 2.457983 1_555
Ir0 Si2 2.484524 1_455
Ir0 Si2 2.484524 1_555
Ir0 Si0 2.560238 1_555
Ir0 Tm0 2.974201 1_555
Ir0 Tm1 2.979223 1_455
Ir0 Tm1 2.979223 1_555
Ir0 Tm3 2.988846 1_565
Ir0 Tm2 3.219562 1_555
Ir0 Tm2 3.219562 1_455
Ir1 Si2 2.457983 1_555
Ir1 Si3 2.484524 1_655
Ir1 Si3 2.484524 1_555
Ir1 Si1 2.560238 1_555
Ir1 Tm1 2.974201 1_555
Ir1 Tm0 2.979223 1_555
Ir1 Tm0 2.979223 1_655
Ir1 Tm2 2.988846 1_545
Ir1 Tm3 3.219562 1_555
Ir1 Tm3 3.219562 1_655
Ir2 Si1 2.457536 1_565
Ir2 Si0 2.484332 1_654
Ir2 Si0 2.484332 1_554
Ir2 Si2 2.560494 1_555
Ir2 Tm2 2.973469 1_554
Ir2 Tm3 2.979065 1_665
Ir2 Tm3 2.979065 1_565
Ir2 Tm1 2.988773 1_554
Ir2 Tm0 3.219791 1_555
Ir2 Tm0 3.219791 1_655
Ir3 Si0 2.457536 1_545
Ir3 Si1 2.484332 1_556
Ir3 Si1 2.484332 1_456
Ir3 Si3 2.560494 1_555
Ir3 Tm3 2.973469 1_556
Ir3 Tm2 2.979065 1_445
Ir3 Tm2 2.979065 1_545
Ir3 Tm0 2.988773 1_556
Ir3 Tm1 3.219791 1_555
Ir3 Tm1 3.219791 1_455
