# generated using pymatgen
data_NaN3
_symmetry_space_group_name_H-M   'P 1'
_cell_length_a   3.69600553
_cell_length_b   3.71087059
_cell_length_c   6.69936289
_cell_angle_alpha   54.91589391
_cell_angle_beta   57.12844785
_cell_angle_gamma   60.00800331
_symmetry_Int_Tables_number   1
_chemical_formula_structural   NaN3
_chemical_formula_sum   'Na1 N3'
_cell_volume   60.74491607
_cell_formula_units_Z   1
loop_
 _symmetry_equiv_pos_site_id
 _symmetry_equiv_pos_as_xyz
  1  'x, y, z'
loop_
 _atom_site_type_symbol
 _atom_site_label
 _atom_site_symmetry_multiplicity
 _atom_site_fract_x
 _atom_site_fract_y
 _atom_site_fract_z
 _atom_site_occupancy
  Na  Na0  1  0.88899600  0.11216600  0.00000800  1
  N  N0  1  0.86970500  0.12994100  0.49990900  1
  N  N1  1  0.70631500  0.00006600  0.73053400  1
  N  N2  1  0.03498400  0.25782700  0.26954800  1
loop_
_geom_bond_atom_site_label_1
_geom_bond_atom_site_label_2
_geom_bond_distance
_geom_bond_site_symmetry_2
N0 N2 1.185165 1_655
N0 N1 1.185860 1_555
N1 Na0 2.498926 1_456
N1 Na0 2.520975 1_556
N1 Na0 2.613888 1_546
N2 Na0 2.513026 1_455
N2 Na0 2.523755 1_465
N2 Na0 2.597140 1_555
