# generated using pymatgen
data_MnPO3
_symmetry_space_group_name_H-M   'P 1'
_cell_length_a   8.30972900
_cell_length_b   8.18527100
_cell_length_c   10.52884739
_cell_angle_alpha   55.12171106
_cell_angle_beta   90.00000000
_cell_angle_gamma   90.00000000
_symmetry_Int_Tables_number   1
_chemical_formula_structural   MnPO3
_chemical_formula_sum   'Mn8 P8 O24'
_cell_volume   587.50260121
_cell_formula_units_Z   8
loop_
 _symmetry_equiv_pos_site_id
 _symmetry_equiv_pos_as_xyz
  1  'x, y, z'
loop_
 _atom_site_type_symbol
 _atom_site_label
 _atom_site_symmetry_multiplicity
 _atom_site_fract_x
 _atom_site_fract_y
 _atom_site_fract_z
 _atom_site_occupancy
  Mn  Mn0  1  0.28995700  0.47392100  0.51293300  1
  Mn  Mn1  1  0.71004300  0.52607900  0.48706700  1
  Mn  Mn2  1  0.78995700  0.52607900  0.98706700  1
  Mn  Mn3  1  0.21004300  0.47392100  0.01293300  1
  Mn  Mn4  1  0.86805700  0.81849100  0.12536500  1
  Mn  Mn5  1  0.13194300  0.18150900  0.87463500  1
  Mn  Mn6  1  0.36805700  0.18150900  0.37463500  1
  Mn  Mn7  1  0.63194300  0.81849100  0.62536500  1
  P  P0  1  0.35307400  0.94953200  0.76533500  1
  P  P1  1  0.64692600  0.05046800  0.23466500  1
  P  P2  1  0.85307400  0.05046800  0.73466500  1
  P  P3  1  0.14692600  0.94953200  0.26533500  1
  P  P4  1  0.99230600  0.59702400  0.68326800  1
  P  P5  1  0.00769400  0.40297600  0.31673200  1
  P  P6  1  0.49230600  0.40297600  0.81673200  1
  P  P7  1  0.50769400  0.59702400  0.18326800  1
  O  O0  1  0.08353400  0.45717800  0.65130400  1
  O  O1  1  0.91646600  0.54282200  0.34869600  1
  O  O2  1  0.58353400  0.54282200  0.84869600  1
  O  O3  1  0.41646600  0.45717800  0.15130400  1
  O  O4  1  0.41028300  0.97201700  0.61456800  1
  O  O5  1  0.58971700  0.02798300  0.38543200  1
  O  O6  1  0.91028300  0.02798300  0.88543200  1
  O  O7  1  0.08971700  0.97201700  0.11456800  1
  O  O8  1  0.78799200  0.84781200  0.77385800  1
  O  O9  1  0.21200800  0.15218800  0.22614200  1
  O  O10  1  0.28799200  0.15218800  0.72614200  1
  O  O11  1  0.71200800  0.84781200  0.27385800  1
  O  O12  1  0.22897800  0.78341100  0.85660000  1
  O  O13  1  0.77102200  0.21658900  0.14340000  1
  O  O14  1  0.72897800  0.21658900  0.64340000  1
  O  O15  1  0.27102200  0.78341100  0.35660000  1
  O  O16  1  0.48435700  0.51607400  0.63521300  1
  O  O17  1  0.51564300  0.48392600  0.36478700  1
  O  O18  1  0.98435700  0.48392600  0.86478700  1
  O  O19  1  0.01564300  0.51607400  0.13521300  1
  O  O20  1  0.32175000  0.35260700  0.89354600  1
  O  O21  1  0.67825000  0.64739300  0.10645400  1
  O  O22  1  0.82175000  0.64739300  0.60645400  1
  O  O23  1  0.17825000  0.35260700  0.39354600  1
loop_
_geom_bond_atom_site_label_1
_geom_bond_atom_site_label_2
_geom_bond_distance
_geom_bond_site_symmetry_2
Mn0 O15 2.093482 1_555
Mn0 O23 2.203468 1_555
Mn0 O0 2.203469 1_555
Mn0 O16 2.212287 1_555
Mn0 O10 2.283351 1_555
Mn0 O17 2.410539 1_555
Mn1 O14 2.093482 1_555
Mn1 O22 2.203468 1_555
Mn1 O1 2.203469 1_555
Mn1 O17 2.212287 1_555
Mn1 O11 2.283351 1_555
Mn1 O16 2.410539 1_555
Mn2 O13 2.093482 1_556
Mn2 O21 2.203468 1_556
Mn2 O2 2.203469 1_555
Mn2 O18 2.212287 1_555
Mn2 O8 2.283351 1_555
Mn2 O19 2.410539 1_656
Mn3 O12 2.093482 1_554
Mn3 O20 2.203468 1_554
Mn3 O3 2.203469 1_555
Mn3 O19 2.212287 1_555
Mn3 O9 2.283351 1_555
Mn3 O18 2.410539 1_454
Mn4 O6 2.119216 1_564
Mn4 O11 2.147707 1_555
Mn4 O1 2.171257 1_555
Mn4 O21 2.192627 1_555
Mn4 O7 2.195778 1_655
Mn4 O19 2.710848 1_655
Mn5 O7 2.119216 1_546
Mn5 O10 2.147707 1_555
Mn5 O0 2.171257 1_555
Mn5 O20 2.192627 1_555
Mn5 O6 2.195778 1_455
Mn5 O18 2.710848 1_455
Mn6 O4 2.119216 1_545
Mn6 O9 2.147707 1_555
Mn6 O3 2.171257 1_555
Mn6 O23 2.192627 1_555
Mn6 O5 2.195778 1_555
Mn6 O17 2.710848 1_555
Mn7 O5 2.119216 1_565
Mn7 O8 2.147707 1_555
Mn7 O2 2.171257 1_555
Mn7 O22 2.192627 1_555
Mn7 O4 2.195778 1_555
Mn7 O16 2.710848 1_555
O0 P4 1.561670 1_455
O1 P5 1.561670 1_655
O2 P6 1.561670 1_555
O3 P7 1.561670 1_555
O4 P0 1.563838 1_555
O5 P1 1.563838 1_555
O6 P2 1.563838 1_555
O7 P3 1.563838 1_555
O8 P2 1.559329 1_565
O9 P3 1.559329 1_545
O10 P0 1.559329 1_545
O11 P1 1.559329 1_565
O12 P0 1.530140 1_555
O13 P1 1.530140 1_555
O14 P2 1.530140 1_555
O15 P3 1.530140 1_555
O16 P6 1.578144 1_555
O17 P7 1.578144 1_555
O18 P4 1.578144 1_555
O19 P5 1.578144 1_555
O20 P6 1.565694 1_555
O21 P7 1.565694 1_555
O22 P4 1.565694 1_555
O23 P5 1.565694 1_555
