# generated using pymatgen
data_NaCa6Ti(Si2O9)2
_symmetry_space_group_name_H-M   'P 1'
_cell_length_a   5.70757700
_cell_length_b   7.60241813
_cell_length_c   9.81435611
_cell_angle_alpha   101.56228114
_cell_angle_beta   100.40040257
_cell_angle_gamma   89.72569222
_symmetry_Int_Tables_number   1
_chemical_formula_structural   NaCa6Ti(Si2O9)2
_chemical_formula_sum   'Na1 Ca6 Ti1 Si4 O18'
_cell_volume   410.14409592
_cell_formula_units_Z   1
loop_
 _symmetry_equiv_pos_site_id
 _symmetry_equiv_pos_as_xyz
  1  'x, y, z'
loop_
 _atom_site_type_symbol
 _atom_site_label
 _atom_site_symmetry_multiplicity
 _atom_site_fract_x
 _atom_site_fract_y
 _atom_site_fract_z
 _atom_site_occupancy
  Na  Na0  1  0.00000000  0.00000000  0.00000000  1
  Ca  Ca0  1  0.80400200  0.09717400  0.37524900  1
  Ca  Ca1  1  0.19599800  0.90282600  0.62475100  1
  Ca  Ca2  1  0.50487600  0.29888300  0.01262700  1
  Ca  Ca3  1  0.49512400  0.70111700  0.98737300  1
  Ca  Ca4  1  0.21286000  0.41193900  0.64164800  1
  Ca  Ca5  1  0.78714000  0.58806100  0.35835200  1
  Ti  Ti0  1  0.00000000  0.50000000  0.00000000  1
  Si  Si0  1  0.25566100  0.85300300  0.27943300  1
  Si  Si1  1  0.74433900  0.14699700  0.72056700  1
  Si  Si2  1  0.24615700  0.27729100  0.27290900  1
  Si  Si3  1  0.75384300  0.72270900  0.72709100  1
  O  O0  1  0.16260500  0.32549900  0.11485100  1
  O  O1  1  0.83739500  0.67450100  0.88514900  1
  O  O2  1  0.53394100  0.31319400  0.31658500  1
  O  O3  1  0.46605900  0.68680600  0.68341500  1
  O  O4  1  0.19716100  0.71221800  0.12519500  1
  O  O5  1  0.80283900  0.28778200  0.87480500  1
  O  O6  1  0.07478000  0.82874900  0.38670700  1
  O  O7  1  0.92522000  0.17125100  0.61329300  1
  O  O8  1  0.60144300  0.00962200  0.05121600  1
  O  O9  1  0.39855700  0.99037800  0.94878400  1
  O  O10  1  0.17425800  0.05425200  0.23857400  1
  O  O11  1  0.82574200  0.94574800  0.76142600  1
  O  O12  1  0.75450700  0.53575800  0.11089100  1
  O  O13  1  0.24549300  0.46424200  0.88910900  1
  O  O14  1  0.46170400  0.14722700  0.65722100  1
  O  O15  1  0.53829600  0.85277300  0.34277900  1
  O  O16  1  0.08327200  0.36286200  0.38790900  1
  O  O17  1  0.91672800  0.63713800  0.61209100  1
loop_
_geom_bond_atom_site_label_1
_geom_bond_atom_site_label_2
_geom_bond_distance
_geom_bond_site_symmetry_2
Na0 O10 2.327596 1_555
Na0 O11 2.327596 1_444
Na0 O9 2.414375 1_544
Na0 O8 2.414375 1_455
Na0 O0 2.604146 1_555
Na0 O1 2.604146 1_444
Na0 O4 2.849125 1_545
Na0 O5 2.849125 1_454
Ca0 O7 2.268614 1_555
Ca0 O2 2.332129 1_555
Ca0 O15 2.338564 1_545
Ca0 O16 2.548476 1_655
Ca0 O6 2.562145 1_645
Ca0 O10 2.685715 1_655
Ca1 O6 2.268614 1_555
Ca1 O3 2.332129 1_555
Ca1 O14 2.338564 1_565
Ca1 O17 2.548476 1_455
Ca1 O7 2.562145 1_465
Ca1 O11 2.685715 1_455
Ca2 O12 2.243952 1_555
Ca2 O13 2.277446 1_554
Ca2 O0 2.342276 1_555
Ca2 O5 2.347840 1_554
Ca2 O8 2.351610 1_555
Ca2 O9 2.355612 1_544
Ca2 O2 2.937677 1_555
Ca3 O13 2.243952 1_555
Ca3 O12 2.277446 1_556
Ca3 O1 2.342276 1_555
Ca3 O4 2.347840 1_556
Ca3 O9 2.351610 1_555
Ca3 O8 2.355612 1_566
Ca3 O3 2.937677 1_555
Ca4 O13 2.354040 1_555
Ca4 O7 2.404289 1_455
Ca4 O16 2.419286 1_555
Ca4 O17 2.422066 1_455
Ca4 O3 2.468766 1_555
Ca4 O14 2.471460 1_555
Ca5 O12 2.354040 1_555
Ca5 O6 2.404289 1_655
Ca5 O17 2.419286 1_555
Ca5 O16 2.422066 1_655
Ca5 O2 2.468766 1_555
Ca5 O15 2.471460 1_555
O0 Si2 1.651427 1_555
O0 Ti0 2.025285 1_555
O1 Si3 1.651427 1_555
O1 Ti0 2.025285 1_656
O2 Si2 1.630765 1_555
O3 Si3 1.630765 1_555
O4 Si0 1.649222 1_555
O4 Ti0 2.025467 1_555
O5 Si1 1.649222 1_555
O5 Ti0 2.025467 1_656
O6 Si0 1.637179 1_555
O7 Si1 1.637179 1_555
O8 O9 1.376709 1_544
O10 Si2 1.698476 1_555
O10 Si0 1.699816 1_545
O11 Si3 1.698476 1_555
O11 Si1 1.699816 1_565
O12 Ti0 1.910487 1_655
O13 Ti0 1.910487 1_556
O14 Si1 1.620837 1_555
O15 Si0 1.620837 1_555
O16 Si2 1.624835 1_555
O17 Si3 1.624835 1_555
