# generated using pymatgen
data_Li3Mn3TeO8
_symmetry_space_group_name_H-M   'P 1'
_cell_length_a   6.16043025
_cell_length_b   6.32672860
_cell_length_c   8.68432247
_cell_angle_alpha   89.94342336
_cell_angle_beta   91.99874854
_cell_angle_gamma   90.03279939
_symmetry_Int_Tables_number   1
_chemical_formula_structural   Li3Mn3TeO8
_chemical_formula_sum   'Li6 Mn6 Te2 O16'
_cell_volume   338.26853809
_cell_formula_units_Z   2
loop_
 _symmetry_equiv_pos_site_id
 _symmetry_equiv_pos_as_xyz
  1  'x, y, z'
loop_
 _atom_site_type_symbol
 _atom_site_label
 _atom_site_symmetry_multiplicity
 _atom_site_fract_x
 _atom_site_fract_y
 _atom_site_fract_z
 _atom_site_occupancy
  Li  Li0  1  0.75017000  0.25019700  0.75004100  1
  Li  Li1  1  0.24989400  0.75010000  0.25008600  1
  Li  Li2  1  0.74984400  0.75008400  0.75005300  1
  Li  Li3  1  0.24991800  0.25017800  0.25001100  1
  Li  Li4  1  0.99951000  0.50790400  0.49989400  1
  Li  Li5  1  0.50044600  0.99228200  0.00005400  1
  Mn  Mn0  1  0.25001700  0.75004100  0.74999400  1
  Mn  Mn1  1  0.75036500  0.24981200  0.25041500  1
  Mn  Mn2  1  0.24982600  0.25000400  0.74975400  1
  Mn  Mn3  1  0.75000700  0.74978900  0.24984600  1
  Mn  Mn4  1  0.00335200  0.49955900  0.99985600  1
  Mn  Mn5  1  0.49696900  0.00039600  0.50027000  1
  Te  Te0  1  0.49958000  0.49834900  0.49981900  1
  Te  Te1  1  0.00036400  0.00182200  0.00016100  1
  O  O0  1  0.53736600  0.97377200  0.25465300  1
  O  O1  1  0.03703900  0.52581500  0.75421500  1
  O  O2  1  0.46266800  0.97378200  0.74565300  1
  O  O3  1  0.96261300  0.52624700  0.24525300  1
  O  O4  1  0.77547500  0.78121200  0.00804300  1
  O  O5  1  0.27502300  0.28008000  0.49381300  1
  O  O6  1  0.27358400  0.71819000  0.50758200  1
  O  O7  1  0.77653800  0.21998600  0.99403600  1
  O  O8  1  0.48808600  0.50046700  0.27488400  1
  O  O9  1  0.98949500  0.99923300  0.77507100  1
  O  O10  1  0.22504700  0.21984600  0.00612000  1
  O  O11  1  0.72455500  0.71880800  0.49185800  1
  O  O12  1  0.72356000  0.28006300  0.50609000  1
  O  O13  1  0.22632000  0.78184000  0.99240900  1
  O  O14  1  0.51039100  0.50065900  0.72491400  1
  O  O15  1  0.01196500  0.99948000  0.22515200  1
loop_
_geom_bond_atom_site_label_1
_geom_bond_atom_site_label_2
_geom_bond_distance
_geom_bond_site_symmetry_2
Li0 O12 2.127404 1_555
Li0 O7 2.127913 1_555
Li0 O14 2.172568 1_555
Li0 O9 2.172932 1_545
Li0 O1 2.481384 1_655
Li0 O2 2.487682 1_545
Li1 O15 2.159735 1_555
Li1 O8 2.161910 1_555
Li1 O6 2.244756 1_555
Li1 O13 2.246201 1_554
Li1 O3 2.265329 1_455
Li1 O0 2.265552 1_555
Li2 O9 2.164989 1_555
Li2 O14 2.165515 1_555
Li2 O4 2.249350 1_556
Li2 O11 2.251128 1_555
Li2 O2 2.265464 1_555
Li2 O1 2.267839 1_655
Li3 O5 2.126122 1_555
Li3 O10 2.127082 1_555
Li3 O8 2.163978 1_555
Li3 O15 2.164970 1_545
Li3 O3 2.486622 1_455
Li3 O0 2.488756 1_545
Li4 O6 2.148246 1_655
Li4 O11 2.156054 1_555
Li4 O1 2.215644 1_655
Li4 O3 2.218066 1_555
Li4 O5 2.229423 1_655
Li4 O12 2.230270 1_555
Li5 O13 2.149107 1_554
Li5 O4 2.157061 1_555
Li5 O2 2.216638 1_554
Li5 O0 2.217768 1_555
Li5 O10 2.227816 1_565
Li5 O7 2.230301 1_564
Mn0 O2 1.929397 1_555
Mn0 O1 1.932971 1_555
Mn0 O6 2.125012 1_555
Mn0 O13 2.125089 1_555
Mn0 O9 2.266440 1_455
Mn0 O14 2.266631 1_555
Mn1 O3 2.184431 1_555
Mn1 O0 2.184896 1_545
Mn1 O12 2.240617 1_555
Mn1 O7 2.246044 1_554
Mn1 O15 2.276384 1_645
Mn1 O8 2.279956 1_555
Mn2 O1 2.184287 1_555
Mn2 O2 2.186448 1_545
Mn2 O5 2.241379 1_555
Mn2 O10 2.244826 1_556
Mn2 O9 2.271238 1_445
Mn2 O14 2.271252 1_555
Mn3 O3 1.929537 1_555
Mn3 O0 1.931815 1_555
Mn3 O4 2.120335 1_555
Mn3 O11 2.121869 1_555
Mn3 O8 2.271532 1_555
Mn3 O15 2.272960 1_655
Mn4 O1 2.156723 1_555
Mn4 O3 2.161291 1_456
Mn4 O10 2.235468 1_556
Mn4 O7 2.252984 1_455
Mn4 O13 2.254674 1_555
Mn4 O4 2.271819 1_456
Mn5 O2 2.155171 1_545
Mn5 O0 2.162835 1_545
Mn5 O5 2.236271 1_555
Mn5 O12 2.252601 1_555
Mn5 O6 2.255809 1_545
Mn5 O11 2.270492 1_545
O4 Te1 1.968846 1_665
O5 Te0 1.953539 1_555
O6 Te0 1.971380 1_555
O7 Te1 1.950934 1_656
O8 Te0 1.952254 1_555
O9 Te1 1.953650 1_666
O10 Te1 1.952992 1_555
O11 Te0 1.968583 1_555
O12 Te0 1.952153 1_555
O13 Te1 1.971829 1_566
O14 Te0 1.953678 1_555
O15 Te1 1.952750 1_565
