# generated using pymatgen
data_Sr2CoSbO6
_symmetry_space_group_name_H-M   'P 1'
_cell_length_a   5.73634232
_cell_length_b   7.79245215
_cell_length_c   5.73636631
_cell_angle_alpha   90.00971476
_cell_angle_beta   90.00291057
_cell_angle_gamma   89.98097500
_symmetry_Int_Tables_number   1
_chemical_formula_structural   Sr2CoSbO6
_chemical_formula_sum   'Sr4 Co2 Sb2 O12'
_cell_volume   256.41654823
_cell_formula_units_Z   2
loop_
 _symmetry_equiv_pos_site_id
 _symmetry_equiv_pos_as_xyz
  1  'x, y, z'
loop_
 _atom_site_type_symbol
 _atom_site_label
 _atom_site_symmetry_multiplicity
 _atom_site_fract_x
 _atom_site_fract_y
 _atom_site_fract_z
 _atom_site_occupancy
  Sr  Sr0  1  0.50001000  0.75003800  0.00002000  1
  Sr  Sr1  1  0.00004100  0.24996200  0.50000600  1
  Sr  Sr2  1  0.49999000  0.24996200  0.99998000  1
  Sr  Sr3  1  0.99995900  0.75003900  0.49999400  1
  Co  Co0  1  0.50000000  0.00000000  0.50000000  1
  Co  Co1  1  0.00000000  0.50000000  0.00000000  1
  Sb  Sb0  1  0.00000000  0.00000000  0.00000000  1
  Sb  Sb1  1  0.50000000  0.50000000  0.50000000  1
  O  O0  1  0.25541500  0.50000500  0.74458500  1
  O  O1  1  0.75543200  0.00006000  0.24456600  1
  O  O2  1  0.74458500  0.49999400  0.25541500  1
  O  O3  1  0.24456800  0.99994100  0.75543400  1
  O  O4  1  0.25540000  0.50000100  0.25540000  1
  O  O5  1  0.75541800  0.00002000  0.75542000  1
  O  O6  1  0.74460000  0.49999900  0.74460000  1
  O  O7  1  0.24458200  0.99997900  0.24458000  1
  O  O8  1  0.00000400  0.74127700  0.99999600  1
  O  O9  1  0.50009100  0.24129800  0.49995500  1
  O  O10  1  0.99999600  0.25872300  0.00000400  1
  O  O11  1  0.49990900  0.75870200  0.50004500  1
loop_
_geom_bond_atom_site_label_1
_geom_bond_atom_site_label_2
_geom_bond_distance
_geom_bond_site_symmetry_2
Co0 O9 1.880303 1_555
Co0 O11 1.880303 1_545
Co0 O5 2.072016 1_555
Co0 O7 2.072016 1_545
Co0 O3 2.072235 1_545
Co0 O1 2.072235 1_555
Co1 O8 1.880139 1_554
Co1 O10 1.880139 1_455
Co1 O6 2.071862 1_454
Co1 O4 2.071862 1_555
Co1 O0 2.072089 1_554
Co1 O2 2.072089 1_455
O0 Sb1 1.984229 1_555
O0 Sr2 2.812481 1_555
O0 Sr3 2.812638 1_455
O0 Sr1 2.812752 1_555
O0 Sr0 2.812905 1_556
O1 Sb0 1.984083 1_655
O1 Sr2 2.811870 1_554
O1 Sr1 2.812253 1_655
O1 Sr3 2.812323 1_545
O1 Sr0 2.812688 1_545
O2 Sb1 1.984229 1_555
O2 Sr0 2.812486 1_555
O2 Sr1 2.812627 1_655
O2 Sr3 2.812763 1_555
O2 Sr2 2.812899 1_554
O3 Sb0 1.984083 1_566
O3 Sr0 2.811875 1_556
O3 Sr3 2.812253 1_455
O3 Sr1 2.812323 1_565
O3 Sr2 2.812682 1_565
O4 Sb1 1.984250 1_555
O4 Sr2 2.812307 1_554
O4 Sr3 2.812368 1_455
O4 Sr1 2.813167 1_555
O4 Sr0 2.813223 1_555
O5 Sb0 1.984096 1_656
O5 Sr2 2.811714 1_555
O5 Sr3 2.811871 1_545
O5 Sr1 2.812849 1_655
O5 Sr0 2.812988 1_546
O6 Sb1 1.984250 1_555
O6 Sr0 2.812307 1_556
O6 Sr1 2.812363 1_655
O6 Sr3 2.813172 1_555
O6 Sr2 2.813223 1_555
O7 Sb0 1.984096 1_565
O7 Sr0 2.811709 1_555
O7 Sr1 2.811882 1_565
O7 Sr3 2.812838 1_455
O7 Sr2 2.812993 1_564
O8 Sb0 2.016087 1_566
O8 Sr0 2.868926 1_456
O8 Sr3 2.868973 1_456
O8 Sr3 2.869019 1_455
O8 Sr0 2.869041 1_556
O9 Sb1 2.015923 1_555
O9 Sr1 2.868701 1_655
O9 Sr2 2.868846 1_554
O9 Sr2 2.869110 1_555
O9 Sr1 2.869230 1_555
O10 Sb0 2.016087 1_655
O10 Sr2 2.868926 1_654
O10 Sr1 2.868973 1_654
O10 Sr1 2.869019 1_655
O10 Sr2 2.869041 1_554
O11 Sb1 2.015923 1_555
O11 Sr3 2.868701 1_455
O11 Sr0 2.868846 1_556
O11 Sr0 2.869110 1_555
O11 Sr3 2.869230 1_555
