# generated using pymatgen
data_Na2Al2(GeO4)3
_symmetry_space_group_name_H-M   'P 1'
_cell_length_a   13.27507296
_cell_length_b   10.03237813
_cell_length_c   10.00720633
_cell_angle_alpha   82.97273949
_cell_angle_beta   48.59501587
_cell_angle_gamma   48.43224464
_symmetry_Int_Tables_number   1
_chemical_formula_structural   Na2Al2(GeO4)3
_chemical_formula_sum   'Na4 Al4 Ge6 O24'
_cell_volume   617.61445308
_cell_formula_units_Z   2
loop_
 _symmetry_equiv_pos_site_id
 _symmetry_equiv_pos_as_xyz
  1  'x, y, z'
loop_
 _atom_site_type_symbol
 _atom_site_label
 _atom_site_symmetry_multiplicity
 _atom_site_fract_x
 _atom_site_fract_y
 _atom_site_fract_z
 _atom_site_occupancy
  Na  Na0  1  0.81334000  0.62607300  0.12446300  1
  Na  Na1  1  0.43612400  0.12446300  0.62607300  1
  Na  Na2  1  0.12553700  0.81387600  0.43666000  1
  Na  Na3  1  0.62392700  0.43666000  0.81387600  1
  Al  Al0  1  0.56241000  0.50591000  0.24304900  1
  Al  Al1  1  0.68863100  0.24304900  0.50591000  1
  Al  Al2  1  0.74409000  0.68759000  0.56136900  1
  Al  Al3  1  0.00695100  0.56136900  0.68759000  1
  Ge  Ge0  1  0.56694500  0.73742800  0.00232100  1
  Ge  Ge1  1  0.69330600  0.00232100  0.73742800  1
  Ge  Ge2  1  0.24767900  0.55669400  0.68305500  1
  Ge  Ge3  1  0.51257200  0.68305500  0.55669400  1
  Ge  Ge4  1  0.25210500  0.24789500  0.24789500  1
  Ge  Ge5  1  0.00210500  0.99789500  0.99789500  1
  O  O0  1  0.49754600  0.62684700  0.12645700  1
  O  O1  1  0.74915000  0.12645700  0.62684700  1
  O  O2  1  0.12354300  0.50085000  0.75245400  1
  O  O3  1  0.62315300  0.75245400  0.50085000  1
  O  O4  1  0.25268100  0.64009900  0.12795000  1
  O  O5  1  0.97927000  0.12795000  0.64009900  1
  O  O6  1  0.12205000  0.27073000  0.99731900  1
  O  O7  1  0.60990100  0.99731900  0.27073000  1
  O  O8  1  0.02368300  0.44819500  0.32298300  1
  O  O9  1  0.04782900  0.79530600  0.92640900  1
  O  O10  1  0.20514000  0.32298300  0.44819500  1
  O  O11  1  0.23045700  0.92640900  0.79530600  1
  O  O12  1  0.32359100  0.01954300  0.20217100  1
  O  O13  1  0.80180500  0.22631700  0.04486000  1
  O  O14  1  0.45469400  0.20217100  0.01954300  1
  O  O15  1  0.92701700  0.04486000  0.22631700  1
  O  O16  1  0.66105700  0.91960700  0.63913900  1
  O  O17  1  0.47066800  0.32981900  0.61005100  1
  O  O18  1  0.78019700  0.63913900  0.91960700  1
  O  O19  1  0.58946100  0.61005100  0.32981900  1
  O  O20  1  0.63994900  0.66053900  0.77933200  1
  O  O21  1  0.33039300  0.58894300  0.46980300  1
  O  O22  1  0.92018100  0.77933200  0.66053900  1
  O  O23  1  0.61086100  0.46980300  0.58894300  1
loop_
_geom_bond_atom_site_label_1
_geom_bond_atom_site_label_2
_geom_bond_distance
_geom_bond_site_symmetry_2
Na0 O18 2.337564 1_554
Na0 O19 2.357144 1_555
Na0 O6 2.438840 1_654
Na0 O7 2.462728 1_555
Na0 O2 2.529042 1_654
Na0 O3 2.551608 1_555
Na1 O16 2.337564 1_545
Na1 O17 2.357134 1_555
Na1 O7 2.438840 1_545
Na1 O6 2.462728 1_555
Na1 O3 2.529042 1_545
Na1 O2 2.551608 1_555
Na2 O21 2.337564 1_555
Na2 O22 2.357136 1_455
Na2 O4 2.438840 1_555
Na2 O5 2.462728 1_465
Na2 O0 2.529042 1_555
Na2 O1 2.551608 1_465
Na3 O23 2.337564 1_555
Na3 O20 2.357144 1_555
Na3 O5 2.438840 1_555
Na3 O4 2.462728 1_556
Na3 O1 2.529042 1_555
Na3 O0 2.551608 1_556
Al0 O13 1.759487 1_555
Al0 O19 1.762620 1_555
Al0 O21 1.772728 1_555
Al0 O0 1.780737 1_555
Al1 O15 1.759487 1_555
Al1 O17 1.762632 1_555
Al1 O23 1.772728 1_555
Al1 O1 1.780737 1_555
Al2 O8 1.759485 1_655
Al2 O20 1.762627 1_555
Al2 O16 1.772728 1_555
Al2 O3 1.780737 1_555
Al3 O10 1.759481 1_555
Al3 O22 1.762627 1_455
Al3 O18 1.772728 1_455
Al3 O2 1.780737 1_555
Ge0 O18 1.751419 1_554
Ge0 O20 1.755665 1_554
Ge0 O0 1.768594 1_555
Ge0 O12 1.775438 1_565
Ge1 O16 1.751419 1_545
Ge1 O22 1.755673 1_545
Ge1 O1 1.768594 1_555
Ge1 O14 1.775438 1_556
Ge2 O21 1.751419 1_555
Ge2 O17 1.755667 1_555
Ge2 O2 1.768594 1_555
Ge2 O9 1.775443 1_555
Ge3 O23 1.751419 1_555
Ge3 O19 1.755675 1_555
Ge3 O3 1.768594 1_555
Ge3 O11 1.775439 1_555
Ge4 O8 1.751320 1_555
Ge4 O10 1.751329 1_555
Ge4 O14 1.776330 1_555
Ge4 O12 1.776336 1_555
Ge5 O15 1.751319 1_466
Ge5 O13 1.751325 1_466
Ge5 O9 1.776326 1_555
Ge5 O11 1.776336 1_555
