# generated using pymatgen
data_MgNi2P
_symmetry_space_group_name_H-M   'P 1'
_cell_length_a   4.98215792
_cell_length_b   6.28754186
_cell_length_c   6.39196480
_cell_angle_alpha   90.00000000
_cell_angle_beta   90.00000000
_cell_angle_gamma   90.00000000
_symmetry_Int_Tables_number   1
_chemical_formula_structural   MgNi2P
_chemical_formula_sum   'Mg4 Ni8 P4'
_cell_volume   200.23166257
_cell_formula_units_Z   4
loop_
 _symmetry_equiv_pos_site_id
 _symmetry_equiv_pos_as_xyz
  1  'x, y, z'
loop_
 _atom_site_type_symbol
 _atom_site_label
 _atom_site_symmetry_multiplicity
 _atom_site_fract_x
 _atom_site_fract_y
 _atom_site_fract_z
 _atom_site_occupancy
  Mg  Mg0  1  0.12713310  0.75000000  0.48108832  1
  Mg  Mg1  1  0.62713310  0.25000000  0.01891168  1
  Mg  Mg2  1  0.87286690  0.25000000  0.51891168  1
  Mg  Mg3  1  0.37286690  0.75000000  0.98108832  1
  Ni  Ni0  1  0.59930875  0.94650909  0.32577244  1
  Ni  Ni1  1  0.59930875  0.55349091  0.32577244  1
  Ni  Ni2  1  0.90069125  0.94650909  0.82577244  1
  Ni  Ni3  1  0.40069125  0.05349091  0.67422756  1
  Ni  Ni4  1  0.09930875  0.05349091  0.17422756  1
  Ni  Ni5  1  0.40069125  0.44650909  0.67422756  1
  Ni  Ni6  1  0.90069125  0.55349091  0.82577244  1
  Ni  Ni7  1  0.09930875  0.44650909  0.17422756  1
  P  P0  1  0.12339354  0.25000000  0.87365521  1
  P  P1  1  0.37660646  0.25000000  0.37365521  1
  P  P2  1  0.87660646  0.75000000  0.12634479  1
  P  P3  1  0.62339354  0.75000000  0.62634479  1
loop_
_geom_bond_atom_site_label_1
_geom_bond_atom_site_label_2
_geom_bond_distance
_geom_bond_site_symmetry_2
Mg0 P2 2.588340 1_455
Mg0 P3 2.641034 1_555
Mg0 Ni5 2.650072 1_555
Mg0 Ni3 2.650072 1_565
Mg0 P3 2.675950 1_455
Mg0 Ni7 2.740027 1_555
Mg0 Ni4 2.740027 1_565
Mg0 Ni6 2.766496 1_455
Mg0 Ni2 2.766496 1_455
Mg0 Ni0 2.836590 1_555
Mg0 Ni1 2.836590 1_555
Mg0 Ni1 3.070432 1_455
Mg0 Ni0 3.070432 1_455
Mg1 P1 2.588340 1_555
Mg1 P0 2.641034 1_654
Mg1 Ni6 2.650072 1_554
Mg1 Ni2 2.650072 1_544
Mg1 P0 2.675950 1_554
Mg1 Ni1 2.740027 1_555
Mg1 Ni0 2.740027 1_545
Mg1 Ni5 2.766496 1_554
Mg1 Ni3 2.766496 1_554
Mg1 Ni7 2.836590 1_655
Mg1 Ni4 2.836590 1_655
Mg1 Ni4 3.070432 1_555
Mg1 Ni7 3.070432 1_555
Mg2 P0 2.588340 1_655
Mg2 P1 2.641034 1_555
Mg2 Ni0 2.650072 1_545
Mg2 Ni1 2.650072 1_555
Mg2 P1 2.675950 1_655
Mg2 Ni6 2.740027 1_555
Mg2 Ni2 2.740027 1_545
Mg2 Ni7 2.766496 1_655
Mg2 Ni4 2.766496 1_655
Mg2 Ni5 2.836590 1_555
Mg2 Ni3 2.836590 1_555
Mg2 Ni5 3.070432 1_655
Mg2 Ni3 3.070432 1_655
Mg3 P3 2.588340 1_555
Mg3 P2 2.641034 1_456
Mg3 Ni4 2.650072 1_566
Mg3 Ni7 2.650072 1_556
Mg3 P2 2.675950 1_556
Mg3 Ni5 2.740027 1_555
Mg3 Ni3 2.740027 1_565
Mg3 Ni1 2.766496 1_556
Mg3 Ni0 2.766496 1_556
Mg3 Ni6 2.836590 1_455
Mg3 Ni2 2.836590 1_455
Mg3 Ni2 3.070432 1_555
Mg3 Ni6 3.070432 1_555
Ni0 P1 2.228457 1_565
Ni0 P2 2.249491 1_555
Ni0 P3 2.287400 1_555
Ni0 Ni1 2.471118 1_555
Ni0 Ni3 2.528355 1_565
Ni0 Ni4 2.756131 1_565
Ni0 Ni4 2.756131 1_665
Ni1 P1 2.228457 1_555
Ni1 P2 2.249491 1_555
Ni1 P3 2.287400 1_555
Ni1 Ni5 2.528355 1_555
Ni1 Ni7 2.756131 1_555
Ni1 Ni7 2.756131 1_655
Ni2 P0 2.228457 1_665
Ni2 P3 2.249491 1_555
Ni2 P2 2.287400 1_556
Ni2 Ni6 2.471118 1_555
Ni2 Ni4 2.528355 1_666
Ni2 Ni3 2.756131 1_665
Ni2 Ni3 2.756131 1_565
Ni3 P3 2.228457 1_545
Ni3 P0 2.249491 1_555
Ni3 P1 2.287400 1_555
Ni3 Ni5 2.471118 1_555
Ni4 P2 2.228457 1_445
Ni4 P1 2.249491 1_555
Ni4 P0 2.287400 1_554
Ni4 Ni7 2.471118 1_555
Ni5 P3 2.228457 1_555
Ni5 P0 2.249491 1_555
Ni5 P1 2.287400 1_555
Ni5 Ni6 2.756131 1_455
Ni5 Ni6 2.756131 1_555
Ni6 P0 2.228457 1_655
Ni6 P3 2.249491 1_555
Ni6 P2 2.287400 1_556
Ni6 Ni7 2.528355 1_656
Ni7 P2 2.228457 1_455
Ni7 P1 2.249491 1_555
Ni7 P0 2.287400 1_554
