# generated using pymatgen
data_RbMg15
_symmetry_space_group_name_H-M   'P 1'
_cell_length_a   6.62856776
_cell_length_b   6.62856776
_cell_length_c   10.62030400
_cell_angle_alpha   90.00000000
_cell_angle_beta   90.00000000
_cell_angle_gamma   119.99999759
_symmetry_Int_Tables_number   1
_chemical_formula_structural   RbMg15
_chemical_formula_sum   'Rb1 Mg15'
_cell_volume   404.11687947
_cell_formula_units_Z   1
loop_
 _symmetry_equiv_pos_site_id
 _symmetry_equiv_pos_as_xyz
  1  'x, y, z'
loop_
 _atom_site_type_symbol
 _atom_site_label
 _atom_site_symmetry_multiplicity
 _atom_site_fract_x
 _atom_site_fract_y
 _atom_site_fract_z
 _atom_site_occupancy
  Rb  Rb0  1  0.00000000  0.00000000  0.50000000  1
  Mg  Mg0  1  0.00000000  0.00000000  0.00000000  1
  Mg  Mg1  1  0.00757600  0.50378800  0.50000000  1
  Mg  Mg2  1  0.99747000  0.49873500  0.00000000  1
  Mg  Mg3  1  0.49621200  0.50378800  0.50000000  1
  Mg  Mg4  1  0.50126500  0.49873500  0.00000000  1
  Mg  Mg5  1  0.49621200  0.99242400  0.50000000  1
  Mg  Mg6  1  0.50126500  0.00253000  0.00000000  1
  Mg  Mg7  1  0.17224700  0.34449300  0.23507500  1
  Mg  Mg8  1  0.17224700  0.34449300  0.76492500  1
  Mg  Mg9  1  0.17224700  0.82775300  0.23507500  1
  Mg  Mg10  1  0.17224700  0.82775300  0.76492500  1
  Mg  Mg11  1  0.65550700  0.82775300  0.23507500  1
  Mg  Mg12  1  0.65550700  0.82775300  0.76492500  1
  Mg  Mg13  1  0.66666700  0.33333300  0.25329000  1
  Mg  Mg14  1  0.66666700  0.33333300  0.74671000  1
loop_
_geom_bond_atom_site_label_1
_geom_bond_atom_site_label_2
_geom_bond_distance
_geom_bond_site_symmetry_2
Mg0 Mg7 3.184904 1_555
Mg0 Mg8 3.184904 1_554
Mg0 Mg11 3.184904 1_445
Mg0 Mg12 3.184904 1_444
Mg0 Mg9 3.184908 1_545
Mg0 Mg10 3.184908 1_544
Mg0 Mg2 3.314316 1_455
Mg0 Mg6 3.314316 1_455
Mg0 Mg2 3.314316 1_445
Mg0 Mg6 3.314316 1_555
Mg0 Mg4 3.314316 1_555
Mg0 Mg4 3.314316 1_445
Mg1 Mg3 3.238957 1_555
Mg1 Mg5 3.238957 1_555
Mg1 Mg13 3.270309 1_455
Mg1 Mg14 3.270309 1_455
Mg1 Rb0 3.314569 1_565
Mg1 Rb0 3.314569 1_555
Mg1 Mg10 3.372706 1_555
Mg1 Mg9 3.372706 1_555
Mg1 Mg8 3.372709 1_555
Mg1 Mg7 3.372709 1_555
Mg1 Mg3 3.389611 1_455
Mg1 Mg5 3.389611 1_445
Mg2 Mg9 3.131260 1_655
Mg2 Mg7 3.131263 1_655
Mg2 Mg8 3.131263 1_654
Mg2 Mg4 3.289128 1_555
Mg2 Mg6 3.289129 1_555
Mg2 Mg4 3.339439 1_655
Mg2 Mg6 3.339439 1_665
Mg3 Mg5 3.238957 1_555
Mg3 Rb0 3.314569 1_555
Mg3 Rb0 3.314569 1_665
Mg3 Mg7 3.372706 1_555
Mg3 Mg8 3.372706 1_555
Mg3 Mg5 3.389611 1_545
Mg4 Mg7 3.131260 1_555
Mg4 Mg8 3.131260 1_554
Mg4 Mg6 3.289128 1_555
Mg4 Mg6 3.339439 1_565
Mg5 Rb0 3.314569 1_565
Mg5 Rb0 3.314569 1_665
Mg5 Mg9 3.372706 1_555
Mg6 Mg9 3.131260 1_545
Mg7 Mg9 3.203322 1_555
Mg7 Mg9 3.425246 1_545
Mg7 Rb0 3.439043 1_555
Mg8 Rb0 3.439043 1_555
Mg9 Rb0 3.439046 1_565
Mg10 Mg2 3.131260 1_456
Mg10 Mg6 3.131260 1_566
Mg10 Mg12 3.203322 1_555
Mg10 Mg8 3.203322 1_555
Mg10 Mg14 3.320543 1_565
Mg10 Mg14 3.320543 1_455
Mg10 Mg5 3.372706 1_555
Mg10 Mg8 3.425246 1_565
Mg10 Mg12 3.425246 1_455
Mg10 Rb0 3.439046 1_565
Mg11 Mg4 3.131260 1_555
Mg11 Mg6 3.131263 1_565
Mg11 Mg9 3.203322 1_555
Mg11 Mg7 3.203322 1_555
Mg11 Mg13 3.320543 1_555
Mg11 Mg13 3.320543 1_565
Mg11 Mg3 3.372706 1_555
Mg11 Mg5 3.372709 1_555
Mg11 Mg9 3.425246 1_655
Mg11 Mg7 3.425246 1_665
Mg11 Rb0 3.439043 1_665
Mg12 Mg4 3.131260 1_556
Mg12 Mg6 3.131263 1_566
Mg12 Mg8 3.203322 1_555
Mg12 Mg14 3.320543 1_555
Mg12 Mg14 3.320543 1_565
Mg12 Mg3 3.372706 1_555
Mg12 Mg5 3.372709 1_555
Mg12 Mg8 3.425246 1_665
Mg12 Rb0 3.439043 1_665
Mg13 Mg5 3.270309 1_545
Mg13 Mg3 3.270313 1_555
Mg13 Mg2 3.292766 1_555
Mg13 Mg6 3.292766 1_555
Mg13 Mg4 3.292769 1_555
Mg13 Mg7 3.320543 1_555
Mg13 Mg7 3.320543 1_655
Mg13 Mg9 3.320543 1_545
Mg13 Mg9 3.320543 1_655
Mg14 Mg5 3.270309 1_545
Mg14 Mg3 3.270313 1_555
Mg14 Mg2 3.292766 1_556
Mg14 Mg6 3.292766 1_556
Mg14 Mg4 3.292769 1_556
Mg14 Mg8 3.320543 1_555
Mg14 Mg8 3.320543 1_655
