# generated using pymatgen
data_Sc3Si3Ir
_symmetry_space_group_name_H-M   'P 1'
_cell_length_a   4.04971400
_cell_length_b   10.19723300
_cell_length_c   11.65464600
_cell_angle_alpha   90.00000000
_cell_angle_beta   90.00000000
_cell_angle_gamma   90.00000000
_symmetry_Int_Tables_number   1
_chemical_formula_structural   Sc3Si3Ir
_chemical_formula_sum   'Sc12 Si12 Ir4'
_cell_volume   481.28883051
_cell_formula_units_Z   4
loop_
 _symmetry_equiv_pos_site_id
 _symmetry_equiv_pos_as_xyz
  1  'x, y, z'
loop_
 _atom_site_type_symbol
 _atom_site_label
 _atom_site_symmetry_multiplicity
 _atom_site_fract_x
 _atom_site_fract_y
 _atom_site_fract_z
 _atom_site_occupancy
  Sc  Sc0  1  0.25000000  0.87709600  0.01977800  1
  Sc  Sc1  1  0.25000000  0.62290400  0.51977800  1
  Sc  Sc2  1  0.75000000  0.12290400  0.98022200  1
  Sc  Sc3  1  0.75000000  0.37709600  0.48022200  1
  Sc  Sc4  1  0.25000000  0.91985500  0.60209600  1
  Sc  Sc5  1  0.25000000  0.58014500  0.10209600  1
  Sc  Sc6  1  0.75000000  0.08014500  0.39790400  1
  Sc  Sc7  1  0.75000000  0.41985500  0.89790400  1
  Sc  Sc8  1  0.25000000  0.65875900  0.79950600  1
  Sc  Sc9  1  0.25000000  0.84124100  0.29950600  1
  Sc  Sc10  1  0.75000000  0.34124100  0.20049400  1
  Sc  Sc11  1  0.75000000  0.15875900  0.70049400  1
  Si  Si0  1  0.25000000  0.01380900  0.82159700  1
  Si  Si1  1  0.25000000  0.48619100  0.32159700  1
  Si  Si2  1  0.75000000  0.98619100  0.17840300  1
  Si  Si3  1  0.75000000  0.51380900  0.67840300  1
  Si  Si4  1  0.25000000  0.24922200  0.84219700  1
  Si  Si5  1  0.25000000  0.25077800  0.34219700  1
  Si  Si6  1  0.75000000  0.75077800  0.15780300  1
  Si  Si7  1  0.75000000  0.74922200  0.65780300  1
  Si  Si8  1  0.25000000  0.19267000  0.54541200  1
  Si  Si9  1  0.25000000  0.30733000  0.04541200  1
  Si  Si10  1  0.75000000  0.80733000  0.45458800  1
  Si  Si11  1  0.75000000  0.69267000  0.95458800  1
  Ir  Ir0  1  0.25000000  0.38940500  0.67651100  1
  Ir  Ir1  1  0.25000000  0.11059500  0.17651100  1
  Ir  Ir2  1  0.75000000  0.61059500  0.32348900  1
  Ir  Ir3  1  0.75000000  0.88940500  0.82348900  1
loop_
_geom_bond_atom_site_label_1
_geom_bond_atom_site_label_2
_geom_bond_distance
_geom_bond_site_symmetry_2
Sc0 Si0 2.697842 1_564
Sc0 Si11 2.866021 1_454
Sc0 Si11 2.866021 1_554
Sc0 Si6 2.889106 1_555
Sc0 Si6 2.889106 1_455
Sc0 Si2 2.958950 1_555
Sc0 Si2 2.958950 1_455
Sc1 Si1 2.697842 1_555
Sc1 Si10 2.866021 1_455
Sc1 Si10 2.866021 1_555
Sc1 Si7 2.889106 1_455
Sc1 Si7 2.889106 1_555
Sc1 Si3 2.958950 1_455
Sc1 Si3 2.958950 1_555
Sc2 Si2 2.697842 1_546
Sc2 Si9 2.866021 1_656
Sc2 Si9 2.866021 1_556
Sc2 Si4 2.889106 1_655
Sc2 Si4 2.889106 1_555
Sc2 Si0 2.958950 1_655
Sc2 Si0 2.958950 1_555
Sc3 Si3 2.697842 1_555
Sc3 Si8 2.866021 1_555
Sc3 Si8 2.866021 1_655
Sc3 Si5 2.889106 1_555
Sc3 Si5 2.889106 1_655
Sc3 Si1 2.958950 1_555
Sc3 Si1 2.958950 1_655
Sc4 Si0 2.731725 1_565
Sc4 Si7 2.747565 1_455
Sc4 Si7 2.747565 1_555
Sc4 Si8 2.859323 1_565
Sc4 Si10 2.893469 1_455
Sc4 Si10 2.893469 1_555
Sc5 Si1 2.731725 1_555
Sc5 Si6 2.747565 1_455
Sc5 Si6 2.747565 1_555
Sc5 Si9 2.859323 1_555
Sc5 Si11 2.893469 1_554
Sc5 Si11 2.893469 1_454
Sc6 Si2 2.731725 1_545
Sc6 Si5 2.747565 1_555
Sc6 Si5 2.747565 1_655
Sc6 Si10 2.859323 1_545
Sc6 Si8 2.893469 1_655
Sc6 Si8 2.893469 1_555
Sc7 Si3 2.731725 1_555
Sc7 Si4 2.747565 1_655
Sc7 Si4 2.747565 1_555
Sc7 Si11 2.859323 1_555
Sc7 Si9 2.893469 1_656
Sc7 Si9 2.893469 1_556
Sc8 Si11 2.736131 1_455
Sc8 Si11 2.736131 1_555
Sc8 Si7 2.771001 1_455
Sc8 Si7 2.771001 1_555
Sc8 Si3 2.876956 1_455
Sc8 Si3 2.876956 1_555
Sc9 Si10 2.736131 1_455
Sc9 Si10 2.736131 1_555
Sc9 Si6 2.771001 1_455
Sc9 Si6 2.771001 1_555
Sc9 Si2 2.876956 1_555
Sc9 Si2 2.876956 1_455
Sc10 Si9 2.736131 1_655
Sc10 Si9 2.736131 1_555
Sc10 Si5 2.771001 1_555
Sc10 Si5 2.771001 1_655
Sc10 Si1 2.876956 1_655
Sc10 Si1 2.876956 1_555
Sc11 Si8 2.736131 1_655
Sc11 Si8 2.736131 1_555
Sc11 Si4 2.771001 1_655
Sc11 Si4 2.771001 1_555
Sc11 Si0 2.876956 1_655
Sc11 Si0 2.876956 1_555
Si0 Si4 2.412537 1_555
Si1 Si5 2.412537 1_555
Si2 Si6 2.412537 1_555
Si3 Si7 2.412537 1_555
Si4 Si9 2.441397 1_556
Si5 Si8 2.441397 1_555
Si10 Si7 2.441397 1_555
Si11 Si6 2.441397 1_556
Ir0 Si3 2.389523 1_455
Ir0 Si3 2.389523 1_555
Ir0 Si4 2.402544 1_555
Ir0 Si8 2.521738 1_555
Ir0 Sc1 3.001014 1_555
Ir0 Sc3 3.057658 1_555
Ir0 Sc3 3.057658 1_455
Ir0 Sc8 3.098223 1_555
Ir0 Sc11 3.116063 1_555
Ir0 Sc11 3.116063 1_455
Ir1 Si2 2.389523 1_545
Ir1 Si2 2.389523 1_445
Ir1 Si5 2.402544 1_555
Ir1 Si9 2.521738 1_555
Ir1 Sc0 3.001014 1_545
Ir1 Sc2 3.057658 1_554
Ir1 Sc2 3.057658 1_454
Ir1 Sc9 3.098223 1_545
Ir1 Sc10 3.116063 1_455
Ir1 Sc10 3.116063 1_555
Ir2 Si1 2.389523 1_555
Ir2 Si1 2.389523 1_655
Ir2 Si6 2.402544 1_555
Ir2 Si10 2.521738 1_555
Ir2 Sc3 3.001014 1_555
Ir2 Sc1 3.057658 1_555
Ir2 Sc1 3.057658 1_655
Ir2 Sc10 3.098223 1_555
Ir2 Sc9 3.116063 1_555
Ir2 Sc9 3.116063 1_655
Ir3 Si0 2.389523 1_665
Ir3 Si0 2.389523 1_565
Ir3 Si7 2.402544 1_555
Ir3 Si11 2.521738 1_555
Ir3 Sc2 3.001014 1_565
Ir3 Sc0 3.057658 1_556
Ir3 Sc0 3.057658 1_656
Ir3 Sc11 3.098223 1_565
Ir3 Sc8 3.116063 1_655
Ir3 Sc8 3.116063 1_555
