# generated using pymatgen
data_Dy3Ga5
_symmetry_space_group_name_H-M   'P 1'
_cell_length_a   6.10228865
_cell_length_b   9.61058364
_cell_length_c   11.36588589
_cell_angle_alpha   89.99997011
_cell_angle_beta   89.99889669
_cell_angle_gamma   89.99999709
_symmetry_Int_Tables_number   1
_chemical_formula_structural   Dy3Ga5
_chemical_formula_sum   'Dy12 Ga20'
_cell_volume   666.57005721
_cell_formula_units_Z   4
loop_
 _symmetry_equiv_pos_site_id
 _symmetry_equiv_pos_as_xyz
  1  'x, y, z'
loop_
 _atom_site_type_symbol
 _atom_site_label
 _atom_site_symmetry_multiplicity
 _atom_site_fract_x
 _atom_site_fract_y
 _atom_site_fract_z
 _atom_site_occupancy
  Dy  Dy0  1  0.65104722  0.74999977  0.42227803  1
  Dy  Dy1  1  0.84904984  0.75000002  0.92232162  1
  Dy  Dy2  1  0.34889670  0.24999989  0.57772470  1
  Dy  Dy3  1  0.15102112  0.25000010  0.07767515  1
  Dy  Dy4  1  0.61068222  0.98859239  0.14852457  1
  Dy  Dy5  1  0.88932354  0.51145790  0.64862223  1
  Dy  Dy6  1  0.38934411  0.48859137  0.85147573  1
  Dy  Dy7  1  0.11066262  0.01145928  0.35138517  1
  Dy  Dy8  1  0.38934414  0.01140851  0.85147583  1
  Dy  Dy9  1  0.11066249  0.48854066  0.35138516  1
  Dy  Dy10  1  0.61068242  0.51140755  0.14852472  1
  Dy  Dy11  1  0.88932344  0.98854215  0.64862202  1
  Ga  Ga0  1  0.62838796  0.44608289  0.41051968  1
  Ga  Ga1  1  0.87166325  0.05394355  0.91047848  1
  Ga  Ga2  1  0.37160591  0.94607032  0.58946470  1
  Ga  Ga3  1  0.12833825  0.55393641  0.08951740  1
  Ga  Ga4  1  0.37160603  0.55392961  0.58946460  1
  Ga  Ga5  1  0.12833815  0.94606331  0.08951722  1
  Ga  Ga6  1  0.62838795  0.05391729  0.41051972  1
  Ga  Ga7  1  0.87166309  0.44605631  0.91047862  1
  Ga  Ga8  1  0.31993052  0.74999973  0.24804883  1
  Ga  Ga9  1  0.18001642  0.74999994  0.74793375  1
  Ga  Ga10  1  0.68006138  0.25000000  0.75193641  1
  Ga  Ga11  1  0.81997927  0.25000018  0.25206218  1
  Ga  Ga12  1  0.13012908  0.75000001  0.49440928  1
  Ga  Ga13  1  0.36990917  0.74999995  0.99446830  1
  Ga  Ga14  1  0.86988861  0.25000003  0.50559686  1
  Ga  Ga15  1  0.63007563  0.25000001  0.00556877  1
  Ga  Ga16  1  0.90512259  0.74999985  0.19639474  1
  Ga  Ga17  1  0.59493083  0.74999988  0.69631778  1
  Ga  Ga18  1  0.09489669  0.24999996  0.80358712  1
  Ga  Ga19  1  0.40503234  0.25000017  0.30369464  1
loop_
_geom_bond_atom_site_label_1
_geom_bond_atom_site_label_2
_geom_bond_distance
_geom_bond_site_symmetry_2
Dy0 Ga8 2.829191 1_555
Dy0 Ga0 2.927142 1_555
Dy0 Ga6 2.927148 1_565
Dy0 Ga16 2.999178 1_555
Dy0 Ga12 3.036289 1_655
Dy0 Ga17 3.133466 1_555
Dy0 Ga4 3.173217 1_555
Dy0 Ga2 3.173221 1_555
Dy0 Ga12 3.282797 1_555
Dy1 Ga9 2.829745 1_655
Dy1 Ga1 2.927429 1_565
Dy1 Ga7 2.927430 1_555
Dy1 Ga17 3.000540 1_555
Dy1 Ga13 3.036651 1_555
Dy1 Ga16 3.133827 1_556
Dy1 Ga5 3.172778 1_656
Dy1 Ga3 3.172780 1_656
Dy1 Ga13 3.282524 1_655
Dy2 Ga10 2.829261 1_555
Dy2 Ga2 2.927269 1_545
Dy2 Ga4 2.927270 1_555
Dy2 Ga18 2.998738 1_555
Dy2 Ga14 3.035845 1_455
Dy2 Ga19 3.133369 1_555
Dy2 Ga6 3.173578 1_555
Dy2 Ga0 3.173580 1_555
Dy2 Ga14 3.283223 1_555
Dy3 Ga11 2.830066 1_455
Dy3 Ga3 2.927379 1_555
Dy3 Ga5 2.927383 1_545
Dy3 Ga19 3.000353 1_555
Dy3 Ga15 3.036021 1_555
Dy3 Ga18 3.134030 1_554
Dy3 Ga7 3.172971 1_454
Dy3 Ga1 3.172975 1_454
Dy3 Ga15 3.282918 1_455
Dy4 Ga16 2.963499 1_555
Dy4 Ga15 2.994258 1_565
Dy4 Ga6 3.045188 1_565
Dy4 Ga5 3.046400 1_555
Dy4 Ga11 3.054126 1_565
Dy4 Ga8 3.112133 1_555
Dy4 Ga1 3.201704 1_564
Dy4 Ga13 3.237701 1_554
Dy4 Ga5 3.255048 1_655
Dy4 Ga19 3.316140 1_565
Dy5 Ga17 2.962570 1_555
Dy5 Ga14 2.995106 1_555
Dy5 Ga7 3.043783 1_555
Dy5 Ga4 3.046315 1_655
Dy5 Ga10 3.053436 1_555
Dy5 Ga9 3.110718 1_655
Dy5 Ga0 3.202206 1_555
Dy5 Ga12 3.238380 1_655
Dy5 Ga4 3.255721 1_555
Dy5 Ga18 3.315113 1_655
Dy6 Ga18 2.963555 1_555
Dy6 Ga13 2.994504 1_555
Dy6 Ga4 3.045398 1_555
Dy6 Ga7 3.046249 1_555
Dy6 Ga9 3.054229 1_555
Dy6 Ga10 3.112067 1_555
Dy6 Ga3 3.201726 1_556
Dy6 Ga15 3.237803 1_556
Dy6 Ga7 3.255193 1_455
Dy6 Ga17 3.315925 1_555
Dy7 Ga19 2.962466 1_555
Dy7 Ga12 2.995116 1_545
Dy7 Ga5 3.043904 1_545
Dy7 Ga6 3.046193 1_455
Dy7 Ga8 3.053561 1_545
Dy7 Ga11 3.110723 1_455
Dy7 Ga2 3.202034 1_545
Dy7 Ga14 3.238277 1_455
Dy7 Ga6 3.255697 1_555
Dy7 Ga16 3.315203 1_445
Dy8 Ga18 2.963556 1_555
Dy8 Ga13 2.994502 1_545
Dy8 Ga2 3.045399 1_545
Dy8 Ga1 3.046249 1_555
Dy8 Ga9 3.054230 1_545
Dy8 Ga10 3.112068 1_555
Dy8 Ga5 3.201723 1_546
Dy8 Ga15 3.237805 1_556
Dy8 Ga1 3.255192 1_455
Dy8 Ga17 3.315927 1_545
Dy9 Ga19 2.962464 1_555
Dy9 Ga12 2.995118 1_555
Dy9 Ga3 3.043901 1_555
Dy9 Ga0 3.046192 1_455
Dy9 Ga8 3.053557 1_555
Dy9 Ga11 3.110720 1_455
Dy9 Ga4 3.202034 1_555
Dy9 Ga14 3.238274 1_455
Dy9 Ga0 3.255697 1_555
Dy9 Ga16 3.315199 1_455
Dy10 Ga16 2.963496 1_555
Dy10 Ga15 2.994260 1_555
Dy10 Ga0 3.045184 1_555
Dy10 Ga3 3.046400 1_555
Dy10 Ga11 3.054121 1_555
Dy10 Ga8 3.112131 1_555
Dy10 Ga7 3.201704 1_554
Dy10 Ga13 3.237701 1_554
Dy10 Ga3 3.255047 1_655
Dy10 Ga19 3.316135 1_555
Dy11 Ga17 2.962572 1_555
Dy11 Ga14 2.995104 1_565
Dy11 Ga1 3.043784 1_565
Dy11 Ga2 3.046314 1_655
Dy11 Ga10 3.053437 1_565
Dy11 Ga9 3.110719 1_655
Dy11 Ga6 3.202203 1_565
Dy11 Ga12 3.238380 1_655
Dy11 Ga2 3.255721 1_555
Dy11 Ga18 3.315115 1_665
Ga0 Ga19 2.623584 1_555
Ga0 Ga14 2.625048 1_555
Ga0 Ga4 2.768776 1_555
Ga0 Ga11 2.856866 1_555
Ga1 Ga18 2.623339 1_655
Ga1 Ga15 2.625202 1_556
Ga1 Ga5 2.769354 1_646
Ga1 Ga10 2.857359 1_555
Ga2 Ga6 2.768777 1_565
Ga2 Ga9 2.856865 1_555
Ga3 Ga7 2.769356 1_454
Ga3 Ga8 2.857304 1_555
Ga4 Ga9 2.856867 1_555
Ga5 Ga8 2.857306 1_555
Ga10 Ga18 2.598635 1_655
Ga10 Ga7 2.857360 1_555
Ga10 Ga15 2.898843 1_556
Ga10 Ga14 3.030013 1_555
Ga11 Ga19 2.599230 1_555
Ga11 Ga6 2.856866 1_555
Ga11 Ga14 2.897702 1_555
Ga11 Ga15 3.031848 1_555
Ga12 Ga4 2.624778 1_555
Ga12 Ga2 2.624779 1_555
Ga12 Ga9 2.897572 1_555
Ga12 Ga8 3.030172 1_555
Ga13 Ga5 2.624999 1_556
Ga13 Ga3 2.625001 1_556
Ga13 Ga8 2.898253 1_556
Ga13 Ga9 3.032255 1_555
Ga14 Ga6 2.625048 1_555
Ga15 Ga7 2.625199 1_554
Ga16 Ga8 2.598481 1_655
Ga16 Ga5 2.623258 1_655
Ga16 Ga3 2.623258 1_655
Ga17 Ga9 2.598994 1_555
Ga17 Ga4 2.623549 1_555
Ga17 Ga2 2.623549 1_555
Ga18 Ga7 2.623341 1_455
Ga19 Ga6 2.623585 1_555
