# generated using pymatgen
data_Zn4GeN4
_symmetry_space_group_name_H-M   'P 1'
_cell_length_a   5.30069400
_cell_length_b   11.08911200
_cell_length_c   8.04628900
_cell_angle_alpha   90.00000000
_cell_angle_beta   90.00000000
_cell_angle_gamma   90.00000000
_symmetry_Int_Tables_number   1
_chemical_formula_structural   Zn4GeN4
_chemical_formula_sum   'Zn16 Ge4 N16'
_cell_volume   472.96078248
_cell_formula_units_Z   4
loop_
 _symmetry_equiv_pos_site_id
 _symmetry_equiv_pos_as_xyz
  1  'x, y, z'
loop_
 _atom_site_type_symbol
 _atom_site_label
 _atom_site_symmetry_multiplicity
 _atom_site_fract_x
 _atom_site_fract_y
 _atom_site_fract_z
 _atom_site_occupancy
  Zn  Zn0  1  0.21242800  0.36542500  0.62689200  1
  Zn  Zn1  1  0.28757200  0.63457500  0.62689200  1
  Zn  Zn2  1  0.21242800  0.13457500  0.87310800  1
  Zn  Zn3  1  0.28757200  0.86542500  0.87310800  1
  Zn  Zn4  1  0.78757200  0.63457500  0.37310800  1
  Zn  Zn5  1  0.71242800  0.36542500  0.37310800  1
  Zn  Zn6  1  0.78757200  0.86542500  0.12689200  1
  Zn  Zn7  1  0.71242800  0.13457500  0.12689200  1
  Zn  Zn8  1  0.75000000  0.50000000  0.05348700  1
  Zn  Zn9  1  0.75000000  0.00000000  0.44651300  1
  Zn  Zn10  1  0.25000000  0.50000000  0.94651300  1
  Zn  Zn11  1  0.25000000  0.00000000  0.55348700  1
  Zn  Zn12  1  0.75742500  0.25000000  0.75000000  1
  Zn  Zn13  1  0.74257500  0.75000000  0.75000000  1
  Zn  Zn14  1  0.24257500  0.75000000  0.25000000  1
  Zn  Zn15  1  0.25742500  0.25000000  0.25000000  1
  Ge  Ge0  1  0.75000000  0.50000000  0.70579600  1
  Ge  Ge1  1  0.75000000  0.00000000  0.79420400  1
  Ge  Ge2  1  0.25000000  0.50000000  0.29420400  1
  Ge  Ge3  1  0.25000000  0.00000000  0.20579600  1
  N  N0  1  0.58042000  0.37086600  0.60379300  1
  N  N1  1  0.91958000  0.62913400  0.60379300  1
  N  N2  1  0.58042000  0.12913400  0.89620700  1
  N  N3  1  0.91958000  0.87086600  0.89620700  1
  N  N4  1  0.41958000  0.62913400  0.39620700  1
  N  N5  1  0.08042000  0.37086600  0.39620700  1
  N  N6  1  0.41958000  0.87086600  0.10379300  1
  N  N7  1  0.08042000  0.12913400  0.10379300  1
  N  N8  1  0.98244500  0.09491000  0.66814900  1
  N  N9  1  0.51755500  0.90509000  0.66814900  1
  N  N10  1  0.98244500  0.40509000  0.83185100  1
  N  N11  1  0.51755500  0.59491000  0.83185100  1
  N  N12  1  0.01755500  0.90509000  0.33185100  1
  N  N13  1  0.48244500  0.09491000  0.33185100  1
  N  N14  1  0.01755500  0.59491000  0.16814900  1
  N  N15  1  0.48244500  0.40509000  0.16814900  1
loop_
_geom_bond_atom_site_label_1
_geom_bond_atom_site_label_2
_geom_bond_distance
_geom_bond_site_symmetry_2
Ge0 N1 1.879415 1_555
Ge0 N0 1.879415 1_555
Ge0 N10 1.911691 1_555
Ge0 N11 1.911691 1_555
Ge1 N3 1.879415 1_545
Ge1 N2 1.879415 1_555
Ge1 N8 1.911691 1_555
Ge1 N9 1.911691 1_545
Ge2 N4 1.879415 1_555
Ge2 N5 1.879415 1_555
Ge2 N15 1.911691 1_555
Ge2 N14 1.911691 1_555
Ge3 N6 1.879415 1_545
Ge3 N7 1.879415 1_555
Ge3 N13 1.911691 1_555
Ge3 N12 1.911691 1_545
N0 Zn0 1.960376 1_555
N0 Zn5 1.984588 1_555
N0 Zn12 2.015113 1_555
N1 Zn1 1.960376 1_655
N1 Zn4 1.984588 1_555
N1 Zn13 2.015113 1_555
N2 Zn2 1.960376 1_555
N2 Zn7 1.984588 1_556
N2 Zn12 2.015113 1_555
N3 Zn3 1.960376 1_655
N3 Zn6 1.984588 1_556
N3 Zn13 2.015113 1_555
N4 Zn4 1.960376 1_555
N4 Zn1 1.984588 1_555
N4 Zn14 2.015113 1_555
N5 Zn5 1.960376 1_455
N5 Zn0 1.984588 1_555
N5 Zn15 2.015113 1_555
N6 Zn6 1.960376 1_555
N6 Zn3 1.984588 1_554
N6 Zn14 2.015113 1_555
N7 Zn7 1.960376 1_455
N7 Zn2 1.984588 1_554
N7 Zn15 2.015113 1_555
N8 Zn11 1.992550 1_655
N8 Zn2 2.097457 1_655
N8 Zn12 2.194124 1_555
N8 Zn9 2.409592 1_555
N9 Zn11 1.992550 1_565
N9 Zn3 2.097457 1_555
N9 Zn13 2.194124 1_555
N9 Zn9 2.409592 1_565
N10 Zn10 1.992550 1_655
N10 Zn0 2.097457 1_655
N10 Zn12 2.194124 1_555
N10 Zn8 2.409592 1_556
N11 Zn10 1.992550 1_555
N11 Zn1 2.097457 1_555
N11 Zn13 2.194124 1_555
N11 Zn8 2.409592 1_556
N12 Zn9 1.992550 1_465
N12 Zn6 2.097457 1_455
N12 Zn14 2.194124 1_555
N12 Zn11 2.409592 1_565
N13 Zn9 1.992550 1_555
N13 Zn7 2.097457 1_555
N13 Zn15 2.194124 1_555
N13 Zn11 2.409592 1_555
N14 Zn8 1.992550 1_455
N14 Zn4 2.097457 1_455
N14 Zn14 2.194124 1_555
N14 Zn10 2.409592 1_554
N15 Zn8 1.992550 1_555
N15 Zn5 2.097457 1_555
N15 Zn15 2.194124 1_555
N15 Zn10 2.409592 1_554
