# generated using pymatgen
data_LiCu2(RhO2)4
_symmetry_space_group_name_H-M   'P 1'
_cell_length_a   6.27664283
_cell_length_b   6.27371450
_cell_length_c   6.27435126
_cell_angle_alpha   90.04165630
_cell_angle_beta   119.95293771
_cell_angle_gamma   119.96579063
_symmetry_Int_Tables_number   1
_chemical_formula_structural   LiCu2(RhO2)4
_chemical_formula_sum   'Li1 Cu2 Rh4 O8'
_cell_volume   174.85627757
_cell_formula_units_Z   1
loop_
 _symmetry_equiv_pos_site_id
 _symmetry_equiv_pos_as_xyz
  1  'x, y, z'
loop_
 _atom_site_type_symbol
 _atom_site_label
 _atom_site_symmetry_multiplicity
 _atom_site_fract_x
 _atom_site_fract_y
 _atom_site_fract_z
 _atom_site_occupancy
  Li  Li0  1  0.49992500  0.24998900  0.74993100  1
  Cu  Cu0  1  0.00033700  0.00064100  0.00029200  1
  Cu  Cu1  1  0.50038000  0.74974700  0.25034300  1
  Rh  Rh0  1  0.76358700  0.38179500  0.14549100  1
  Rh  Rh1  1  0.76369800  0.38183200  0.61803900  1
  Rh  Rh2  1  0.23627300  0.38194000  0.61816000  1
  Rh  Rh3  1  0.23625800  0.85431500  0.61812800  1
  O  O0  1  0.22618600  0.61288300  0.38615600  1
  O  O1  1  0.77361800  0.15990300  0.38653700  1
  O  O2  1  0.72961200  0.13475400  0.86467600  1
  O  O3  1  0.77361400  0.61366400  0.38691800  1
  O  O4  1  0.22630000  0.61331900  0.84004900  1
  O  O5  1  0.27025200  0.13525600  0.86521200  1
  O  O6  1  0.27028000  0.13500100  0.40508900  1
  O  O7  1  0.72968100  0.59496000  0.86498200  1
loop_
_geom_bond_atom_site_label_1
_geom_bond_atom_site_label_2
_geom_bond_distance
_geom_bond_site_symmetry_2
Li0 O6 1.767539 1_555
Li0 O5 1.767723 1_555
Li0 O2 1.767728 1_555
Li0 O7 1.767792 1_555
Li0 Rh2 2.027470 1_555
Li0 Rh0 2.027503 1_556
Li0 Rh1 2.027594 1_555
Li0 Rh3 2.027619 1_545
Cu0 O2 2.074813 1_454
Cu0 O6 2.074856 1_555
Cu0 O5 2.075405 1_554
Cu0 O7 2.078902 1_444
Cu1 O3 2.097758 1_555
Cu1 O0 2.101100 1_555
Cu1 O1 2.101834 1_565
Cu1 O4 2.103037 1_554
O0 Rh2 2.055455 1_555
O0 Rh3 2.055699 1_555
O0 Rh0 2.055763 1_455
O1 Rh0 2.055426 1_555
O1 Rh1 2.055780 1_555
O1 Rh2 2.055991 1_655
O2 Rh0 2.200597 1_556
O2 Rh1 2.201384 1_555
O2 Rh3 2.201714 1_545
O3 Rh0 2.055433 1_555
O3 Rh1 2.055467 1_555
O3 Rh3 2.055935 1_655
O4 Rh2 2.055282 1_555
O4 Rh3 2.055296 1_555
O4 Rh1 2.055735 1_455
O5 Rh3 2.201255 1_545
O5 Rh2 2.201477 1_555
O5 Rh0 2.201614 1_556
O6 Rh2 2.201180 1_555
O6 Rh3 2.201374 1_545
O6 Rh1 2.201971 1_555
O7 Rh0 2.201161 1_556
O7 Rh1 2.201505 1_555
O7 Rh2 2.201953 1_555
