# generated using pymatgen
data_Tm3Co2Si3
_symmetry_space_group_name_H-M   'P 1'
_cell_length_a   5.51877262
_cell_length_b   5.51877262
_cell_length_c   13.45410500
_cell_angle_alpha   90.00000000
_cell_angle_beta   90.00000000
_cell_angle_gamma   136.86541934
_symmetry_Int_Tables_number   1
_chemical_formula_structural   Tm3Co2Si3
_chemical_formula_sum   'Tm6 Co4 Si6'
_cell_volume   280.16540118
_cell_formula_units_Z   2
loop_
 _symmetry_equiv_pos_site_id
 _symmetry_equiv_pos_as_xyz
  1  'x, y, z'
loop_
 _atom_site_type_symbol
 _atom_site_label
 _atom_site_symmetry_multiplicity
 _atom_site_fract_x
 _atom_site_fract_y
 _atom_site_fract_z
 _atom_site_occupancy
  Tm  Tm0  1  0.63803400  0.36196600  0.25000000  1
  Tm  Tm1  1  0.36196600  0.63803400  0.75000000  1
  Tm  Tm2  1  0.91964900  0.08035100  0.11209600  1
  Tm  Tm3  1  0.08035100  0.91964900  0.88790400  1
  Tm  Tm4  1  0.08035100  0.91964900  0.61209600  1
  Tm  Tm5  1  0.91964900  0.08035100  0.38790400  1
  Co  Co0  1  0.78692300  0.21307700  0.58198500  1
  Co  Co1  1  0.21307700  0.78692300  0.41801500  1
  Co  Co2  1  0.21307700  0.78692300  0.08198500  1
  Co  Co3  1  0.78692300  0.21307700  0.91801500  1
  Si  Si0  1  0.33181900  0.66818100  0.25000000  1
  Si  Si1  1  0.66818100  0.33181900  0.75000000  1
  Si  Si2  1  0.61855900  0.38144100  0.03938300  1
  Si  Si3  1  0.38144100  0.61855900  0.96061700  1
  Si  Si4  1  0.38144100  0.61855900  0.53938300  1
  Si  Si5  1  0.61855900  0.38144100  0.46061700  1
loop_
_geom_bond_atom_site_label_1
_geom_bond_atom_site_label_2
_geom_bond_distance
_geom_bond_site_symmetry_2
Co0 Si4 2.320627 1_655
Co0 Si4 2.320627 1_545
Co0 Si5 2.377623 1_555
Co0 Si1 2.568159 1_555
Co0 Tm5 2.945239 1_555
Co0 Tm4 2.962391 1_545
Co0 Tm4 2.962391 1_655
Co0 Tm4 3.039093 1_645
Co0 Tm1 3.133475 1_655
Co0 Tm1 3.133475 1_545
Co1 Si5 2.320627 1_455
Co1 Si5 2.320627 1_565
Co1 Si4 2.377623 1_555
Co1 Si0 2.568159 1_555
Co1 Tm4 2.945239 1_555
Co1 Tm5 2.962391 1_455
Co1 Tm5 2.962391 1_565
Co1 Tm5 3.039093 1_465
Co1 Tm0 3.133475 1_455
Co1 Tm0 3.133475 1_565
Co2 Si2 2.320627 1_455
Co2 Si2 2.320627 1_565
Co2 Si3 2.377623 1_554
Co2 Si0 2.568159 1_555
Co2 Tm3 2.945239 1_554
Co2 Tm2 2.962391 1_565
Co2 Tm2 2.962391 1_455
Co2 Tm2 3.039093 1_465
Co2 Tm0 3.133475 1_455
Co2 Tm0 3.133475 1_565
Co3 Si3 2.320627 1_655
Co3 Si3 2.320627 1_545
Co3 Si2 2.377623 1_556
Co3 Si1 2.568159 1_555
Co3 Tm2 2.945239 1_556
Co3 Tm3 2.962391 1_655
Co3 Tm3 2.962391 1_545
Co3 Tm3 3.039093 1_645
Co3 Tm1 3.133475 1_655
Co3 Tm1 3.133475 1_545
Si0 Tm0 2.841168 1_455
Si0 Tm0 2.841168 1_565
Si0 Tm2 2.893217 1_565
Si0 Tm2 2.893217 1_455
Si0 Tm5 2.893217 1_455
Si0 Tm5 2.893217 1_565
Si0 Tm0 3.143226 1_555
Si1 Tm1 2.841168 1_545
Si1 Tm1 2.841168 1_655
Si1 Tm3 2.893217 1_545
Si1 Tm4 2.893217 1_545
Si1 Tm4 2.893217 1_655
Si1 Tm3 2.893217 1_655
Si1 Tm1 3.143226 1_555
Si2 Si3 2.654654 1_554
Si2 Tm0 2.840706 1_555
Si2 Tm3 2.902207 1_544
Si2 Tm3 2.902207 1_654
Si2 Tm2 3.039957 1_455
Si2 Tm2 3.039957 1_565
Si2 Tm2 3.241755 1_555
Si3 Tm1 2.840706 1_555
Si3 Tm2 2.902207 1_456
Si3 Tm2 2.902207 1_566
Si3 Tm3 3.039957 1_545
Si3 Tm3 3.039957 1_655
Si3 Tm3 3.241755 1_555
Si4 Si5 2.654654 1_555
Si4 Tm1 2.840706 1_555
Si4 Tm5 2.902207 1_455
Si4 Tm5 2.902207 1_565
Si4 Tm4 3.039957 1_545
Si4 Tm4 3.039957 1_655
Si4 Tm4 3.241755 1_555
Si5 Tm0 2.840706 1_555
Si5 Tm4 2.902207 1_545
Si5 Tm4 2.902207 1_655
Si5 Tm5 3.039957 1_455
Si5 Tm5 3.039957 1_565
Si5 Tm5 3.241755 1_555
