# generated using pymatgen
data_Li9Mn2Co5O16
_symmetry_space_group_name_H-M   'P 1'
_cell_length_a   5.19267729
_cell_length_b   10.23960521
_cell_length_c   5.92136836
_cell_angle_alpha   103.84531795
_cell_angle_beta   70.43869620
_cell_angle_gamma   84.40939344
_symmetry_Int_Tables_number   1
_chemical_formula_structural   Li9Mn2Co5O16
_chemical_formula_sum   'Li9 Mn2 Co5 O16'
_cell_volume   282.57779771
_cell_formula_units_Z   1
loop_
 _symmetry_equiv_pos_site_id
 _symmetry_equiv_pos_as_xyz
  1  'x, y, z'
loop_
 _atom_site_type_symbol
 _atom_site_label
 _atom_site_symmetry_multiplicity
 _atom_site_fract_x
 _atom_site_fract_y
 _atom_site_fract_z
 _atom_site_occupancy
  Li  Li0  1  0.50220400  0.12485200  0.93500900  1
  Li  Li1  1  0.49779600  0.37514800  0.31499100  1
  Li  Li2  1  0.50385600  0.63176800  0.69674600  1
  Li  Li3  1  0.50600000  0.86731500  0.05616300  1
  Li  Li4  1  0.49985000  0.12480800  0.44271700  1
  Li  Li5  1  0.50015000  0.37519200  0.80728300  1
  Li  Li6  1  0.49400000  0.63268500  0.19383700  1
  Li  Li7  1  0.49614400  0.86823200  0.55325400  1
  Li  Li8  1  0.00000000  0.75000000  0.62500000  1
  Mn  Mn0  1  0.99738100  0.99726400  0.99335100  1
  Mn  Mn1  1  0.00261900  0.50273600  0.25664900  1
  Co  Co0  1  0.99735000  0.24982000  0.37340800  1
  Co  Co1  1  0.99943600  0.50303200  0.75163100  1
  Co  Co2  1  0.00000000  0.75000000  0.12500000  1
  Co  Co3  1  0.00056400  0.99696800  0.49836900  1
  Co  Co4  1  0.00265000  0.25018000  0.87659200  1
  O  O0  1  0.23449900  0.06898800  0.73967500  1
  O  O1  1  0.23044400  0.31704900  0.11429200  1
  O  O2  1  0.21529700  0.55238400  0.46108200  1
  O  O3  1  0.23108300  0.81954500  0.86729600  1
  O  O4  1  0.20687500  0.06448200  0.21896300  1
  O  O5  1  0.22385800  0.31745200  0.61618500  1
  O  O6  1  0.23501500  0.56766500  0.99394900  1
  O  O7  1  0.22713300  0.82624000  0.35459700  1
  O  O8  1  0.76955600  0.18295100  0.13570800  1
  O  O9  1  0.76550100  0.43101200  0.51032500  1
  O  O10  1  0.77286700  0.67376000  0.89540300  1
  O  O11  1  0.76498500  0.93233500  0.25605100  1
  O  O12  1  0.77614200  0.18254800  0.63381500  1
  O  O13  1  0.79312500  0.43551800  0.03103700  1
  O  O14  1  0.76891700  0.68045500  0.38270400  1
  O  O15  1  0.78470300  0.94761600  0.78891800  1
loop_
_geom_bond_atom_site_label_1
_geom_bond_atom_site_label_2
_geom_bond_distance
_geom_bond_site_symmetry_2
Li0 O15 2.018408 1_545
Li0 O1 2.108859 1_556
Li0 O0 2.124236 1_555
Li0 O4 2.125207 1_556
Li0 O12 2.126606 1_555
Li0 O8 2.149622 1_556
Li1 O2 2.018408 1_555
Li1 O8 2.108859 1_555
Li1 O9 2.124236 1_555
Li1 O13 2.125207 1_555
Li1 O5 2.126606 1_555
Li1 O1 2.149622 1_555
Li2 O3 2.074924 1_555
Li2 O14 2.112914 1_555
Li2 O10 2.120187 1_555
Li2 O6 2.136122 1_555
Li2 O9 2.157703 1_555
Li2 O2 2.438811 1_555
Li3 O7 2.038974 1_555
Li3 O10 2.105494 1_554
Li3 O3 2.114520 1_554
Li3 O11 2.125073 1_555
Li3 O15 2.143767 1_554
Li3 O4 2.207438 1_565
Li4 O0 2.080689 1_555
Li4 O11 2.100274 1_545
Li4 O5 2.119859 1_555
Li4 O8 2.143885 1_555
Li4 O12 2.149541 1_555
Li4 O4 2.364863 1_555
Li5 O9 2.080689 1_555
Li5 O6 2.100274 1_555
Li5 O12 2.119859 1_555
Li5 O1 2.143885 1_556
Li5 O5 2.149541 1_555
Li5 O13 2.364863 1_556
Li6 O10 2.038974 1_554
Li6 O7 2.105494 1_555
Li6 O14 2.114520 1_555
Li6 O6 2.125073 1_554
Li6 O2 2.143767 1_555
Li6 O13 2.207438 1_555
Li7 O14 2.074924 1_555
Li7 O3 2.112914 1_555
Li7 O7 2.120187 1_555
Li7 O11 2.136122 1_555
Li7 O0 2.157703 1_565
Li7 O15 2.438811 1_555
Li8 O10 2.019224 1_455
Li8 O7 2.019224 1_555
Li8 O15 2.044295 1_455
Li8 O2 2.044295 1_555
Li8 O3 2.199028 1_555
Li8 O14 2.199028 1_455
Mn0 O15 1.911414 1_555
Mn0 O3 1.911665 1_655
Mn0 O11 1.926730 1_556
Mn0 O0 1.943565 1_665
Mn0 O8 1.962692 1_566
Mn0 O4 2.029975 1_666
Mn1 O2 1.911414 1_555
Mn1 O14 1.911665 1_455
Mn1 O6 1.926730 1_554
Mn1 O9 1.943565 1_455
Mn1 O1 1.962692 1_555
Mn1 O13 2.029975 1_455
Co0 O12 1.909988 1_555
Co0 O1 1.928039 1_655
Co0 O4 1.929367 1_655
Co0 O9 1.933976 1_555
Co0 O8 2.158816 1_555
Co0 O5 2.178091 1_655
Co1 O10 1.838844 1_555
Co1 O2 1.925318 1_655
Co1 O5 1.955900 1_655
Co1 O13 1.966647 1_556
Co1 O6 2.207227 1_655
Co1 O9 2.212151 1_555
Co2 O3 1.932860 1_554
Co2 O14 1.932860 1_455
Co2 O11 1.950846 1_455
Co2 O6 1.950846 1_554
Co2 O7 2.143356 1_555
Co2 O10 2.143356 1_454
Co3 O7 1.838844 1_555
Co3 O15 1.925318 1_455
Co3 O12 1.955900 1_465
Co3 O4 1.966647 1_565
Co3 O11 2.207227 1_455
Co3 O0 2.212151 1_565
Co4 O5 1.909988 1_555
Co4 O8 1.928039 1_456
Co4 O13 1.929367 1_456
Co4 O0 1.933976 1_555
Co4 O1 2.158816 1_556
Co4 O12 2.178091 1_455
