# generated using pymatgen
data_TmGa2Ni
_symmetry_space_group_name_H-M   'P 1'
_cell_length_a   4.07422523
_cell_length_b   5.33488399
_cell_length_c   6.55813478
_cell_angle_alpha   89.99999379
_cell_angle_beta   89.99999924
_cell_angle_gamma   112.67872242
_symmetry_Int_Tables_number   1
_chemical_formula_structural   TmGa2Ni
_chemical_formula_sum   'Tm2 Ga4 Ni2'
_cell_volume   131.52311544
_cell_formula_units_Z   2
loop_
 _symmetry_equiv_pos_site_id
 _symmetry_equiv_pos_as_xyz
  1  'x, y, z'
loop_
 _atom_site_type_symbol
 _atom_site_label
 _atom_site_symmetry_multiplicity
 _atom_site_fract_x
 _atom_site_fract_y
 _atom_site_fract_z
 _atom_site_occupancy
  Tm  Tm0  1  0.42689855  0.85298097  0.25000002  1
  Tm  Tm1  1  0.57301396  0.14690330  0.74999998  1
  Ga  Ga0  1  0.14312825  0.28439509  0.05391209  1
  Ga  Ga1  1  0.85690320  0.71562018  0.94605120  1
  Ga  Ga2  1  0.85690323  0.71562024  0.55394883  1
  Ga  Ga3  1  0.14312823  0.28439503  0.44608791  1
  Ni  Ni0  1  0.71098602  0.41904687  0.25000003  1
  Ni  Ni1  1  0.28903855  0.58103832  0.74999994  1
loop_
_geom_bond_atom_site_label_1
_geom_bond_atom_site_label_2
_geom_bond_distance
_geom_bond_site_symmetry_2
Ga0 Ni1 2.470800 1_554
Ga0 Ni0 2.498163 1_555
Ga0 Ni0 2.498982 1_455
Ga0 Ga3 2.571942 1_555
Ga0 Ga1 2.887716 1_444
Ga0 Tm1 2.927235 1_554
Ga0 Tm1 2.931198 1_454
Ga0 Ga1 3.015097 1_554
Ga0 Ga1 3.036688 1_454
Ga0 Tm0 3.080133 1_555
Ga0 Tm0 3.207345 1_445
Ga0 Tm0 3.215494 1_545
Ga1 Ni0 2.470790 1_556
Ga1 Ni1 2.498088 1_555
Ga1 Ni1 2.498627 1_655
Ga1 Ga2 2.571460 1_555
Ga1 Tm0 2.927399 1_556
Ga1 Tm0 2.931064 1_656
Ga1 Tm1 3.080617 1_555
Ga1 Tm1 3.206686 1_665
Ga1 Tm1 3.215108 1_565
Ga2 Ni0 2.470790 1_555
Ga2 Ni1 2.498088 1_555
Ga2 Ni1 2.498627 1_655
Ga2 Ga3 2.887716 1_665
Ga2 Tm0 2.927399 1_555
Ga2 Tm0 2.931063 1_655
Ga2 Ga3 3.015098 1_555
Ga2 Ga3 3.036689 1_655
Ga2 Tm1 3.080617 1_555
Ga2 Tm1 3.206686 1_665
Ga2 Tm1 3.215108 1_565
Ga3 Ni1 2.470800 1_555
Ga3 Ni0 2.498163 1_555
Ga3 Ni0 2.498982 1_455
Ga3 Tm1 2.927235 1_555
Ga3 Tm1 2.931198 1_455
Ga3 Tm0 3.080132 1_555
Ga3 Tm0 3.207345 1_445
Ga3 Tm0 3.215494 1_545
Ni0 Tm0 2.786410 1_545
Ni0 Tm0 2.942775 1_655
Ni0 Tm0 2.960579 1_555
Ni1 Tm1 2.785421 1_565
Ni1 Tm1 2.943522 1_455
Ni1 Tm1 2.961262 1_555
