# generated using pymatgen
data_Ba2AlGa3
_symmetry_space_group_name_H-M   'P 1'
_cell_length_a   6.18451267
_cell_length_b   6.18451267
_cell_length_c   7.85807746
_cell_angle_alpha   50.90996608
_cell_angle_beta   50.90996608
_cell_angle_gamma   47.12890295
_symmetry_Int_Tables_number   1
_chemical_formula_structural   Ba2AlGa3
_chemical_formula_sum   'Ba2 Al1 Ga3'
_cell_volume   159.87534404
_cell_formula_units_Z   1
loop_
 _symmetry_equiv_pos_site_id
 _symmetry_equiv_pos_as_xyz
  1  'x, y, z'
loop_
 _atom_site_type_symbol
 _atom_site_label
 _atom_site_symmetry_multiplicity
 _atom_site_fract_x
 _atom_site_fract_y
 _atom_site_fract_z
 _atom_site_occupancy
  Ba  Ba0  1  0.25007900  0.25007900  0.19071700  1
  Ba  Ba1  1  0.74938100  0.74938100  0.80944100  1
  Al  Al0  1  0.42306800  0.42306800  0.41715900  1
  Ga  Ga0  1  0.57614900  0.57614900  0.58266600  1
  Ga  Ga1  1  0.92388200  0.92388200  0.23668900  1
  Ga  Ga2  1  0.07744100  0.07744100  0.76332700  1
loop_
_geom_bond_atom_site_label_1
_geom_bond_atom_site_label_2
_geom_bond_distance
_geom_bond_site_symmetry_2
Ba0 Ga1 3.332530 1_455
Ba0 Ga1 3.332530 1_545
Ba0 Ga0 3.336426 1_455
Ba0 Ga0 3.336426 1_545
Ba0 Ga2 3.458421 1_555
Ba0 Ga1 3.459729 1_445
Ba0 Ga0 3.492107 1_554
Ba0 Ga2 3.744077 1_654
Ba0 Ga2 3.744077 1_564
Ba0 Ba1 3.888736 1_454
Ba0 Ba1 3.888736 1_544
Ba1 Ga2 3.319076 1_565
Ba1 Ga2 3.319076 1_655
Ba1 Ga0 3.442128 1_555
Ba1 Ga1 3.452543 1_555
Ba1 Ga2 3.480086 1_665
Ba1 Ga0 3.732400 1_565
Ba1 Ga0 3.732400 1_655
Ba1 Ga1 3.735979 1_456
Ba1 Ga1 3.735979 1_546
Al0 Ga0 2.794491 1_555
Al0 Ga2 2.844213 1_555
Al0 Ga1 2.847141 1_545
Al0 Ga1 2.847141 1_455
Al0 Ba1 3.337903 1_545
Al0 Ba1 3.337903 1_455
Al0 Ba0 3.437193 1_555
Al0 Ba1 3.490759 1_554
Al0 Ba0 3.734770 1_655
Al0 Ba0 3.734770 1_565
Ga0 Ga2 2.856085 1_565
Ga0 Ga2 2.856085 1_655
Ga0 Ga1 2.861444 1_555
Ga1 Ga2 2.820924 1_664
