# generated using pymatgen
data_ScAlGe
_symmetry_space_group_name_H-M   'P 1'
_cell_length_a   5.34805957
_cell_length_b   5.34805957
_cell_length_c   5.51323538
_cell_angle_alpha   90.00000000
_cell_angle_beta   90.00000000
_cell_angle_gamma   137.07189333
_symmetry_Int_Tables_number   1
_chemical_formula_structural   ScAlGe
_chemical_formula_sum   'Sc2 Al2 Ge2'
_cell_volume   107.39825423
_cell_formula_units_Z   2
loop_
 _symmetry_equiv_pos_site_id
 _symmetry_equiv_pos_as_xyz
  1  'x, y, z'
loop_
 _atom_site_type_symbol
 _atom_site_label
 _atom_site_symmetry_multiplicity
 _atom_site_fract_x
 _atom_site_fract_y
 _atom_site_fract_z
 _atom_site_occupancy
  Sc  Sc0  1  0.68782887  0.31217113  0.25000000  1
  Sc  Sc1  1  0.31217113  0.68782887  0.75000000  1
  Al  Al0  1  0.00000000  0.00000000  0.50000000  1
  Al  Al1  1  0.00000000  0.00000000  0.00000000  1
  Ge  Ge0  1  0.38544488  0.61455512  0.25000000  1
  Ge  Ge1  1  0.61455512  0.38544488  0.75000000  1
loop_
_geom_bond_atom_site_label_1
_geom_bond_atom_site_label_2
_geom_bond_distance
_geom_bond_site_symmetry_2
Al0 Ge1 2.651359 1_445
Al0 Ge0 2.651359 1_445
Al0 Ge1 2.651359 1_555
Al0 Ge0 2.651359 1_555
Al0 Sc0 3.037299 1_445
Al0 Sc0 3.037299 1_555
Al0 Sc1 3.037299 1_555
Al0 Sc1 3.037299 1_445
Al1 Ge0 2.651359 1_555
Al1 Ge1 2.651359 1_444
Al1 Ge0 2.651359 1_445
Al1 Ge1 2.651359 1_554
Al1 Sc0 3.037299 1_445
Al1 Sc1 3.037299 1_444
Al1 Sc0 3.037299 1_555
Al1 Sc1 3.037299 1_554
Ge0 Sc0 2.774753 1_455
Ge0 Sc0 2.774753 1_565
Ge0 Sc1 2.851482 1_554
Ge0 Sc1 2.851482 1_555
Ge0 Sc0 3.010025 1_555
Ge1 Sc1 2.774753 1_545
Ge1 Sc1 2.774753 1_655
Ge1 Sc0 2.851482 1_556
Ge1 Sc0 2.851482 1_555
Ge1 Sc1 3.010025 1_555
