# generated using pymatgen
data_Eu3Hf
_symmetry_space_group_name_H-M   'P 1'
_cell_length_a   6.30575368
_cell_length_b   6.30575368
_cell_length_c   6.30575368
_cell_angle_alpha   131.64760612
_cell_angle_beta   131.64760612
_cell_angle_gamma   70.78616738
_symmetry_Int_Tables_number   1
_chemical_formula_structural   Eu3Hf
_chemical_formula_sum   'Eu3 Hf1'
_cell_volume   137.13086855
_cell_formula_units_Z   1
loop_
 _symmetry_equiv_pos_site_id
 _symmetry_equiv_pos_as_xyz
  1  'x, y, z'
loop_
 _atom_site_type_symbol
 _atom_site_label
 _atom_site_symmetry_multiplicity
 _atom_site_fract_x
 _atom_site_fract_y
 _atom_site_fract_z
 _atom_site_occupancy
  Eu  Eu0  1  0.25000000  0.75000000  0.50000000  1
  Eu  Eu1  1  0.50000000  0.50000000  0.00000000  1
  Eu  Eu2  1  0.75000000  0.25000000  0.50000000  1
  Hf  Hf0  1  0.00000000  0.00000000  0.00000000  1
loop_
_geom_bond_atom_site_label_1
_geom_bond_atom_site_label_2
_geom_bond_distance
_geom_bond_site_symmetry_2
Eu0 Eu1 3.643521 1_566
Eu0 Eu1 3.643521 1_556
Eu0 Eu1 3.643521 1_455
Eu0 Hf0 3.643521 1_565
Eu0 Hf0 3.643521 1_566
Eu0 Hf0 3.643521 1_666
Eu0 Eu1 3.643521 1_555
Eu0 Hf0 3.643521 1_555
Eu0 Eu2 3.652184 1_454
Eu0 Eu2 3.652184 1_465
Eu0 Eu2 3.652184 1_555
Eu0 Eu2 3.652184 1_566
Eu1 Eu2 3.643521 1_555
Eu1 Eu2 3.643521 1_565
Eu1 Eu2 3.643521 1_554
Eu1 Eu2 3.643521 1_454
Eu1 Hf0 3.652184 1_565
Eu1 Hf0 3.652184 1_666
Eu1 Hf0 3.652184 1_554
Eu1 Hf0 3.652184 1_655
Eu2 Hf0 3.643521 1_656
Eu2 Hf0 3.643521 1_655
Eu2 Hf0 3.643521 1_666
Eu2 Hf0 3.643521 1_555
