# generated using pymatgen
data_Li2TiVO4
_symmetry_space_group_name_H-M   'P 1'
_cell_length_a   5.19182430
_cell_length_b   7.81332324
_cell_length_c   7.81371379
_cell_angle_alpha   72.49105561
_cell_angle_beta   104.05655866
_cell_angle_gamma   91.87707215
_symmetry_Int_Tables_number   1
_chemical_formula_structural   Li2TiVO4
_chemical_formula_sum   'Li8 Ti4 V4 O16'
_cell_volume   292.95141839
_cell_formula_units_Z   4
loop_
 _symmetry_equiv_pos_site_id
 _symmetry_equiv_pos_as_xyz
  1  'x, y, z'
loop_
 _atom_site_type_symbol
 _atom_site_label
 _atom_site_symmetry_multiplicity
 _atom_site_fract_x
 _atom_site_fract_y
 _atom_site_fract_z
 _atom_site_occupancy
  Li  Li0  1  0.30995500  0.37614500  0.43647800  1
  Li  Li1  1  0.55814400  0.87597900  0.18856300  1
  Li  Li2  1  0.06058400  0.87755900  0.68724100  1
  Li  Li3  1  0.81452700  0.37300400  0.93891800  1
  Li  Li4  1  0.87790800  0.24866700  0.62674200  1
  Li  Li5  1  0.12632500  0.74929600  0.37596900  1
  Li  Li6  1  0.62368900  0.75199400  0.87354100  1
  Li  Li7  1  0.37574400  0.24869200  0.12309700  1
  Ti  Ti0  1  0.68338500  0.62685000  0.56612800  1
  Ti  Ti1  1  0.94365500  0.11862100  0.31219600  1
  Ti  Ti2  1  0.43860400  0.12488700  0.81188900  1
  Ti  Ti3  1  0.18602700  0.62792500  0.05877500  1
  V  V0  1  0.50000800  0.00357300  0.49946000  1
  V  V1  1  0.74910000  0.49873100  0.25200400  1
  V  V2  1  0.24965400  0.50142100  0.74922000  1
  V  V3  1  0.99592800  0.99727500  0.00222100  1
  O  O0  1  0.39598500  0.74338400  0.61919500  1
  O  O1  1  0.65232200  0.24825900  0.36640900  1
  O  O2  1  0.15053000  0.23891600  0.87029000  1
  O  O3  1  0.89263300  0.73316100  0.12525400  1
  O  O4  1  0.97203000  0.50966400  0.49799600  1
  O  O5  1  0.23300500  0.00780900  0.25331800  1
  O  O6  1  0.72963800  0.00755900  0.75426300  1
  O  O7  1  0.48408500  0.50898500  0.01068200  1
  O  O8  1  0.55997900  0.37580200  0.68917200  1
  O  O9  1  0.81170500  0.87806200  0.43768800  1
  O  O10  1  0.30859000  0.87575700  0.93727400  1
  O  O11  1  0.05587100  0.37635200  0.18828000  1
  O  O12  1  0.44189400  0.62329200  0.31158000  1
  O  O13  1  0.68975100  0.12296000  0.06292100  1
  O  O14  1  0.18998300  0.12449000  0.56131600  1
  O  O15  1  0.93876100  0.62493200  0.81191900  1
loop_
_geom_bond_atom_site_label_1
_geom_bond_atom_site_label_2
_geom_bond_distance
_geom_bond_site_symmetry_2
Li0 O12 2.062691 1_555
Li0 O11 2.063198 1_555
Li0 O14 2.065549 1_555
Li0 O8 2.082214 1_555
Li0 O4 2.286648 1_455
Li0 O1 2.318618 1_555
Li1 O12 2.061073 1_555
Li1 O13 2.062549 1_565
Li1 O9 2.072528 1_555
Li1 O10 2.073682 1_554
Li1 O5 2.238065 1_565
Li1 O3 2.319936 1_555
Li2 O14 2.058106 1_565
Li2 O10 2.058564 1_555
Li2 O9 2.060022 1_455
Li2 O15 2.075015 1_455
Li2 O6 2.264887 1_465
Li2 O0 2.306240 1_555
Li3 O11 2.051765 1_656
Li3 O13 2.063565 1_556
Li3 O8 2.068483 1_555
Li3 O15 2.080324 1_555
Li3 O7 2.309054 1_556
Li3 O2 2.310956 1_655
Li4 O2 2.059625 1_655
Li4 O6 2.069408 1_555
Li4 O4 2.085302 1_555
Li4 O1 2.087088 1_555
Li4 O14 2.152130 1_655
Li4 O8 2.177015 1_555
Li5 O0 2.057434 1_555
Li5 O4 2.062770 1_455
Li5 O3 2.075984 1_455
Li5 O5 2.079614 1_565
Li5 O9 2.166843 1_455
Li5 O12 2.170436 1_555
Li6 O6 2.053226 1_565
Li6 O0 2.070212 1_555
Li6 O7 2.083648 1_556
Li6 O3 2.084460 1_556
Li6 O10 2.156041 1_555
Li6 O15 2.160994 1_555
Li7 O2 2.058652 1_554
Li7 O5 2.061412 1_555
Li7 O7 2.077079 1_555
Li7 O1 2.084882 1_555
Li7 O13 2.144565 1_555
Li7 O11 2.199407 1_555
O0 Ti0 1.960651 1_555
O0 V2 2.075725 1_555
O0 V0 2.080603 1_565
O1 V1 1.995646 1_555
O1 Ti1 2.040343 1_555
O1 V0 2.113187 1_555
O2 Ti2 1.975446 1_555
O2 V2 2.089588 1_555
O2 V3 2.098365 1_446
O3 Ti3 1.997400 1_655
O3 V1 2.017121 1_555
O3 V3 2.110571 1_555
O4 V1 2.013225 1_555
O4 Ti0 2.034272 1_555
O4 V2 2.119115 1_655
O5 Ti1 1.969428 1_455
O5 V3 2.070914 1_445
O5 V0 2.071561 1_555
O6 Ti2 1.998960 1_555
O6 V0 2.065936 1_555
O6 V3 2.069804 1_546
O7 Ti3 1.996574 1_555
O7 V1 2.027600 1_555
O7 V2 2.125736 1_554
O8 Ti2 2.059485 1_555
O8 Ti0 2.065080 1_555
O8 V2 2.127724 1_555
O9 Ti1 2.023995 1_565
O9 Ti0 2.087455 1_555
O9 V0 2.140484 1_565
O10 Ti3 2.040198 1_556
O10 Ti2 2.071752 1_565
O10 V3 2.141287 1_456
O11 Ti1 2.087106 1_455
O11 Ti3 2.095852 1_555
O11 V1 2.114329 1_455
O12 Ti0 2.085271 1_555
O12 Ti3 2.086491 1_555
O12 V1 2.107780 1_555
O13 Ti1 2.061216 1_555
O13 Ti2 2.070989 1_554
O13 V3 2.113042 1_545
O14 Ti1 2.065753 1_455
O14 Ti2 2.067683 1_555
O14 V0 2.114062 1_555
O15 Ti3 2.047300 1_656
O15 Ti0 2.047848 1_555
O15 V2 2.132432 1_655
