# generated using pymatgen
data_Ni(SN)4
_symmetry_space_group_name_H-M   'P 1'
_cell_length_a   14.73688500
_cell_length_b   8.53147400
_cell_length_c   12.98009092
_cell_angle_alpha   89.15131759
_cell_angle_beta   90.00000000
_cell_angle_gamma   90.00000000
_symmetry_Int_Tables_number   1
_chemical_formula_structural   Ni(SN)4
_chemical_formula_sum   'Ni8 S32 N32'
_cell_volume   1631.77342426
_cell_formula_units_Z   8
loop_
 _symmetry_equiv_pos_site_id
 _symmetry_equiv_pos_as_xyz
  1  'x, y, z'
loop_
 _atom_site_type_symbol
 _atom_site_label
 _atom_site_symmetry_multiplicity
 _atom_site_fract_x
 _atom_site_fract_y
 _atom_site_fract_z
 _atom_site_occupancy
  Ni  Ni0  1  0.37611400  0.30247400  0.86230300  1
  Ni  Ni1  1  0.87611400  0.19752600  0.13769700  1
  Ni  Ni2  1  0.62388600  0.69752600  0.13769700  1
  Ni  Ni3  1  0.12388600  0.80247400  0.86230300  1
  Ni  Ni4  1  0.37306000  0.87188900  0.36378300  1
  Ni  Ni5  1  0.87306000  0.62811100  0.63621700  1
  Ni  Ni6  1  0.62694000  0.12811100  0.63621700  1
  Ni  Ni7  1  0.12694000  0.37188900  0.36378300  1
  S  S0  1  0.39163800  0.53804500  0.90619200  1
  S  S1  1  0.89163800  0.96195500  0.09380800  1
  S  S2  1  0.60836200  0.46195500  0.09380800  1
  S  S3  1  0.10836200  0.03804500  0.90619200  1
  S  S4  1  0.37085200  0.53951000  0.69962600  1
  S  S5  1  0.87085200  0.96049000  0.30037400  1
  S  S6  1  0.62914800  0.46049000  0.30037400  1
  S  S7  1  0.12914800  0.03951000  0.69962600  1
  S  S8  1  0.36991400  0.24528800  0.02152000  1
  S  S9  1  0.86991400  0.25471200  0.97848000  1
  S  S10  1  0.63008600  0.75471200  0.97848000  1
  S  S11  1  0.13008600  0.74528800  0.02152000  1
  S  S12  1  0.37241000  0.97242300  0.91860900  1
  S  S13  1  0.87241000  0.52757700  0.08139100  1
  S  S14  1  0.62759000  0.02757700  0.08139100  1
  S  S15  1  0.12759000  0.47242300  0.91860900  1
  S  S16  1  0.36344200  0.92304200  0.52244300  1
  S  S17  1  0.86344200  0.57695800  0.47755700  1
  S  S18  1  0.63655800  0.07695800  0.47755700  1
  S  S19  1  0.13655800  0.42304200  0.52244300  1
  S  S20  1  0.37754900  0.20043100  0.42053700  1
  S  S21  1  0.87754900  0.29956900  0.57946300  1
  S  S22  1  0.62245100  0.79956900  0.57946300  1
  S  S23  1  0.12245100  0.70043200  0.42053700  1
  S  S24  1  0.38472900  0.63166000  0.40558100  1
  S  S25  1  0.88472900  0.86834000  0.59441900  1
  S  S26  1  0.61527100  0.36834000  0.59441900  1
  S  S27  1  0.11527100  0.13166000  0.40558100  1
  S  S28  1  0.36493800  0.64449400  0.19919100  1
  S  S29  1  0.86493800  0.85550600  0.80080900  1
  S  S30  1  0.63506200  0.35550600  0.80080900  1
  S  S31  1  0.13506200  0.14449400  0.19919100  1
  N  N0  1  0.36621100  0.36329400  0.72606000  1
  N  N1  1  0.86621100  0.13670600  0.27394000  1
  N  N2  1  0.63378900  0.63670600  0.27394000  1
  N  N3  1  0.13378900  0.86329400  0.72606000  1
  N  N4  1  0.38788600  0.64451400  0.80090100  1
  N  N5  1  0.88788600  0.85548600  0.19909900  1
  N  N6  1  0.61211400  0.35548600  0.19909900  1
  N  N7  1  0.11211400  0.14451400  0.80090100  1
  N  N8  1  0.37614300  0.09353300  0.82944500  1
  N  N9  1  0.87614300  0.40646700  0.17055500  1
  N  N10  1  0.62385700  0.90646700  0.17055500  1
  N  N11  1  0.12385700  0.59353300  0.82944500  1
  N  N12  1  0.36657600  0.05584800  0.03013700  1
  N  N13  1  0.86657600  0.44415200  0.96986300  1
  N  N14  1  0.63342400  0.94415200  0.96986300  1
  N  N15  1  0.13342400  0.55584800  0.03013700  1
  N  N16  1  0.38061400  0.08276500  0.33135300  1
  N  N17  1  0.88061400  0.41723500  0.66864700  1
  N  N18  1  0.61938600  0.91723500  0.66864700  1
  N  N19  1  0.11938600  0.58276500  0.33135300  1
  N  N20  1  0.36588000  0.11242800  0.53159900  1
  N  N21  1  0.86588000  0.38757200  0.46840100  1
  N  N22  1  0.63412000  0.88757200  0.46840100  1
  N  N23  1  0.13412000  0.61242800  0.53159900  1
  N  N24  1  0.36212200  0.81871200  0.22783000  1
  N  N25  1  0.86212200  0.68128800  0.77217000  1
  N  N26  1  0.63787800  0.18128800  0.77217000  1
  N  N27  1  0.13787800  0.31871200  0.22783000  1
  N  N28  1  0.38017200  0.53156300  0.29953900  1
  N  N29  1  0.88017200  0.96843700  0.70046100  1
  N  N30  1  0.61982800  0.46843700  0.70046100  1
  N  N31  1  0.11982800  0.03156300  0.29953900  1
loop_
_geom_bond_atom_site_label_1
_geom_bond_atom_site_label_2
_geom_bond_distance
_geom_bond_site_symmetry_2
Ni0 S0 2.109493 1_555
Ni0 S8 2.118385 1_556
Ni1 S1 2.109493 1_545
Ni1 S9 2.118385 1_554
Ni2 S2 2.109493 1_555
Ni2 S10 2.118385 1_554
Ni3 S3 2.109493 1_565
Ni3 S11 2.118385 1_556
Ni4 S16 2.116219 1_555
Ni4 S24 2.119308 1_555
Ni5 S17 2.116219 1_555
Ni5 S25 2.119308 1_555
Ni6 S18 2.116219 1_555
Ni6 S26 2.119308 1_555
Ni7 S19 2.116219 1_555
Ni7 S27 2.119308 1_555
N0 S4 1.538598 1_555
N0 Ni0 1.841401 1_555
N1 S5 1.538598 1_545
N1 Ni1 1.841401 1_555
N2 S6 1.538598 1_555
N2 Ni2 1.841401 1_555
N3 S7 1.538598 1_565
N3 Ni3 1.841401 1_555
N4 S4 1.621263 1_555
N4 S0 1.630703 1_555
N5 S5 1.621263 1_555
N5 S1 1.630703 1_555
N6 S6 1.621263 1_555
N6 S2 1.630703 1_555
N7 S7 1.621263 1_555
N7 S3 1.630703 1_555
N8 S12 1.540998 1_545
N8 Ni0 1.839021 1_555
N9 S13 1.540998 1_555
N9 Ni1 1.839021 1_555
N10 S14 1.540998 1_565
N10 Ni2 1.839021 1_555
N11 S15 1.540998 1_555
N11 Ni3 1.839021 1_555
N12 S8 1.619162 1_555
N12 S12 1.624856 1_544
N13 S9 1.619162 1_555
N13 S13 1.624856 1_556
N14 S10 1.619162 1_555
N14 S14 1.624856 1_566
N15 S11 1.619162 1_555
N15 S15 1.624856 1_554
N16 S20 1.544113 1_555
N16 Ni4 1.844953 1_545
N17 S21 1.544113 1_555
N17 Ni5 1.844953 1_555
N18 S22 1.544113 1_555
N18 Ni6 1.844953 1_565
N19 S23 1.544119 1_555
N19 Ni7 1.844953 1_555
N20 S16 1.622259 1_545
N20 S20 1.624623 1_555
N21 S17 1.622259 1_555
N21 S21 1.624623 1_555
N22 S18 1.622259 1_565
N22 S22 1.624623 1_555
N23 S19 1.622259 1_555
N23 S23 1.624626 1_555
N24 S28 1.538010 1_555
N24 Ni4 1.835654 1_555
N25 S29 1.538010 1_555
N25 Ni5 1.835654 1_555
N26 S30 1.538010 1_555
N26 Ni6 1.835654 1_555
N27 S31 1.538010 1_555
N27 Ni7 1.835654 1_555
N28 S28 1.624214 1_555
N28 S24 1.631924 1_555
N29 S29 1.624214 1_555
N29 S25 1.631924 1_555
N30 S30 1.624214 1_555
N30 S26 1.631924 1_555
N31 S31 1.624214 1_555
N31 S27 1.631924 1_555
