# generated using pymatgen
data_K5Na3Nb6(WO12)2
_symmetry_space_group_name_H-M   'P 1'
_cell_length_a   8.05916058
_cell_length_b   8.05916058
_cell_length_c   8.07839800
_cell_angle_alpha   90.00000000
_cell_angle_beta   90.00000000
_cell_angle_gamma   90.36932182
_symmetry_Int_Tables_number   1
_chemical_formula_structural   K5Na3Nb6(WO12)2
_chemical_formula_sum   'K5 Na3 Nb6 W2 O24'
_cell_volume   524.68160933
_cell_formula_units_Z   1
loop_
 _symmetry_equiv_pos_site_id
 _symmetry_equiv_pos_as_xyz
  1  'x, y, z'
loop_
 _atom_site_type_symbol
 _atom_site_label
 _atom_site_symmetry_multiplicity
 _atom_site_fract_x
 _atom_site_fract_y
 _atom_site_fract_z
 _atom_site_occupancy
  K  K0  1  0.24954800  0.24954800  0.00000000  1
  K  K1  1  0.74883000  0.25106300  0.00000000  1
  K  K2  1  0.25106300  0.74883000  0.00000000  1
  K  K3  1  0.74957800  0.74957800  0.00000000  1
  K  K4  1  0.75041400  0.75041400  0.50000000  1
  Na  Na0  1  0.25066800  0.25066800  0.50000000  1
  Na  Na1  1  0.74890800  0.25124000  0.50000000  1
  Na  Na2  1  0.25124000  0.74890800  0.50000000  1
  Nb  Nb0  1  0.49907700  0.00063300  0.74811900  1
  Nb  Nb1  1  0.49907700  0.00063300  0.25188100  1
  Nb  Nb2  1  0.00063300  0.49907700  0.74811900  1
  Nb  Nb3  1  0.00063300  0.49907700  0.25188100  1
  Nb  Nb4  1  0.49929500  0.49929500  0.74799000  1
  Nb  Nb5  1  0.49929500  0.49929500  0.25201000  1
  W  W0  1  0.00044300  0.00044300  0.74837900  1
  W  W1  1  0.00044300  0.00044300  0.25162100  1
  O  O0  1  0.99806100  0.24798400  0.74572300  1
  O  O1  1  0.99806100  0.24798400  0.25427700  1
  O  O2  1  0.49921900  0.25022900  0.74627700  1
  O  O3  1  0.49921900  0.25022900  0.25372300  1
  O  O4  1  0.00394900  0.75223300  0.74833800  1
  O  O5  1  0.00394900  0.75223300  0.25166200  1
  O  O6  1  0.49874800  0.74979600  0.74765100  1
  O  O7  1  0.49874800  0.74979600  0.25234900  1
  O  O8  1  0.24798400  0.99806100  0.74572300  1
  O  O9  1  0.24798400  0.99806100  0.25427700  1
  O  O10  1  0.75223300  0.00394900  0.74833800  1
  O  O11  1  0.75223300  0.00394900  0.25166200  1
  O  O12  1  0.25022900  0.49921900  0.74627700  1
  O  O13  1  0.25022900  0.49921900  0.25372300  1
  O  O14  1  0.74979600  0.49874800  0.74765100  1
  O  O15  1  0.74979600  0.49874800  0.25234900  1
  O  O16  1  0.99832500  0.99832500  0.00000000  1
  O  O17  1  0.00400100  0.00400100  0.50000000  1
  O  O18  1  0.49952400  0.99994300  0.00000000  1
  O  O19  1  0.49867300  0.00204900  0.50000000  1
  O  O20  1  0.99994300  0.49952400  0.00000000  1
  O  O21  1  0.00204900  0.49867300  0.50000000  1
  O  O22  1  0.49956700  0.49956700  0.00000000  1
  O  O23  1  0.49833600  0.49833600  0.50000000  1
loop_
_geom_bond_atom_site_label_1
_geom_bond_atom_site_label_2
_geom_bond_distance
_geom_bond_site_symmetry_2
K0 O22 2.840361 1_555
K0 O16 2.854039 1_445
K0 O20 2.856117 1_455
K0 O18 2.856117 1_545
K0 O3 2.872239 1_555
K0 O13 2.872239 1_555
K0 O2 2.872239 1_554
K0 O12 2.872239 1_554
K0 O1 2.885685 1_455
K0 O9 2.885685 1_545
K0 O0 2.885685 1_454
K0 O8 2.885685 1_544
K1 O20 2.837766 1_555
K1 O18 2.842584 1_545
K1 O22 2.845749 1_555
K1 O10 2.846199 1_554
K1 O11 2.846199 1_555
K1 O15 2.853103 1_555
K1 O14 2.853103 1_554
K1 O16 2.871337 1_545
K1 O3 2.871898 1_555
K1 O2 2.871898 1_554
K1 O0 2.873193 1_554
K1 O1 2.873193 1_555
K2 O18 2.837766 1_555
K2 O20 2.842584 1_455
K2 O22 2.845749 1_555
K2 O4 2.846199 1_554
K2 O5 2.846199 1_555
K2 O7 2.853103 1_555
K2 O6 2.853103 1_554
K2 O16 2.871337 1_455
K2 O13 2.871898 1_555
K2 O12 2.871898 1_554
K2 O8 2.873193 1_554
K2 O9 2.873193 1_555
K3 O16 2.825911 1_555
K3 O22 2.840270 1_555
K3 O20 2.860908 1_555
K3 O18 2.860908 1_555
K3 O6 2.870926 1_554
K3 O14 2.870926 1_554
K3 O15 2.870926 1_555
K3 O7 2.870926 1_555
K3 O11 2.887153 1_565
K3 O5 2.887153 1_655
K3 O10 2.887153 1_564
K3 O4 2.887153 1_654
K4 O14 2.848868 1_555
K4 O6 2.848868 1_555
K4 O15 2.848868 1_555
K4 O7 2.848868 1_555
K4 O11 2.863486 1_565
K4 O5 2.863486 1_655
K4 O4 2.863486 1_655
K4 O10 2.863486 1_565
K4 O23 2.863753 1_555
K4 O21 2.877813 1_655
K4 O19 2.877813 1_565
K4 O17 2.880896 1_665
Na0 O17 2.802281 1_555
Na0 O23 2.813653 1_555
Na0 O12 2.823255 1_555
Na0 O2 2.823255 1_555
Na0 O13 2.823255 1_555
Na0 O3 2.823255 1_555
Na0 O19 2.839213 1_555
Na0 O21 2.839213 1_555
Na0 O0 2.843378 1_455
Na0 O9 2.843378 1_545
Na0 O8 2.843378 1_545
Na0 O1 2.843378 1_455
Na1 O0 2.823775 1_555
Na1 O1 2.823775 1_555
Na1 O14 2.825105 1_555
Na1 O15 2.825105 1_555
Na1 O10 2.828077 1_555
Na1 O11 2.828077 1_555
Na1 O2 2.829725 1_555
Na1 O3 2.829725 1_555
Na1 O19 2.836891 1_555
Na1 O21 2.843593 1_655
Na1 O23 2.845248 1_555
Na1 O17 2.872191 1_655
Na2 O9 2.823775 1_555
Na2 O8 2.823775 1_555
Na2 O6 2.825105 1_555
Na2 O7 2.825105 1_555
Na2 O4 2.828077 1_555
Na2 O5 2.828077 1_555
Na2 O12 2.829725 1_555
Na2 O13 2.829725 1_555
Na2 O21 2.836891 1_555
Na2 O19 2.843593 1_565
Na2 O23 2.845248 1_555
Na2 O17 2.872191 1_565
Nb0 O19 2.004439 1_555
Nb0 O2 2.011582 1_555
Nb0 O6 2.021524 1_545
Nb0 O8 2.023664 1_545
Nb0 O18 2.034806 1_546
Nb0 O10 2.040228 1_555
Nb1 O19 2.004439 1_555
Nb1 O3 2.011582 1_555
Nb1 O7 2.021524 1_545
Nb1 O9 2.023664 1_545
Nb1 O18 2.034806 1_545
Nb1 O11 2.040228 1_555
Nb2 O21 2.004439 1_555
Nb2 O12 2.011582 1_555
Nb2 O14 2.021524 1_455
Nb2 O0 2.023664 1_455
Nb2 O20 2.034806 1_456
Nb2 O4 2.040228 1_555
Nb3 O21 2.004439 1_555
Nb3 O13 2.011582 1_555
Nb3 O15 2.021524 1_455
Nb3 O1 2.023664 1_455
Nb3 O20 2.034806 1_455
Nb3 O5 2.040228 1_555
Nb4 O23 2.003392 1_555
Nb4 O12 2.007307 1_555
Nb4 O2 2.007307 1_555
Nb4 O14 2.018863 1_555
Nb4 O6 2.018863 1_555
Nb4 O22 2.035839 1_556
Nb5 O23 2.003392 1_555
Nb5 O13 2.007307 1_555
Nb5 O3 2.007307 1_555
Nb5 O15 2.018863 1_555
Nb5 O7 2.018863 1_555
Nb5 O22 2.035839 1_555
O0 W0 1.995304 1_655
O1 W1 1.995304 1_655
O4 W0 2.000746 1_565
O5 W1 2.000746 1_565
O8 W0 1.995304 1_565
O9 W1 1.995304 1_565
O10 W0 2.000746 1_655
O11 W1 2.000746 1_655
O16 W1 2.032837 1_665
O16 W0 2.032837 1_664
O17 W1 2.006912 1_555
O17 W0 2.006912 1_555
