# generated using pymatgen
data_Hf3AlMo8
_symmetry_space_group_name_H-M   'P 1'
_cell_length_a   9.22939956
_cell_length_b   9.22939956
_cell_length_c   9.22939971
_cell_angle_alpha   33.57731806
_cell_angle_beta   33.57731806
_cell_angle_gamma   33.57731784
_symmetry_Int_Tables_number   1
_chemical_formula_structural   Hf3AlMo8
_chemical_formula_sum   'Hf3 Al1 Mo8'
_cell_volume   214.20265955
_cell_formula_units_Z   1
loop_
 _symmetry_equiv_pos_site_id
 _symmetry_equiv_pos_as_xyz
  1  'x, y, z'
loop_
 _atom_site_type_symbol
 _atom_site_label
 _atom_site_symmetry_multiplicity
 _atom_site_fract_x
 _atom_site_fract_y
 _atom_site_fract_z
 _atom_site_occupancy
  Hf  Hf0  1  0.37480900  0.37480900  0.37480900  1
  Hf  Hf1  1  0.99917200  0.99917200  0.99917200  1
  Hf  Hf2  1  0.50067800  0.50067800  0.50067800  1
  Al  Al0  1  0.87482200  0.87482200  0.87482200  1
  Mo  Mo0  1  0.43708000  0.93567700  0.43708000  1
  Mo  Mo1  1  0.93794200  0.43969400  0.93794200  1
  Mo  Mo2  1  0.43708000  0.43708000  0.93567700  1
  Mo  Mo3  1  0.93794200  0.93794200  0.43969400  1
  Mo  Mo4  1  0.18697200  0.18697200  0.18697200  1
  Mo  Mo5  1  0.68813200  0.68813200  0.68813200  1
  Mo  Mo6  1  0.93567700  0.43708000  0.43708000  1
  Mo  Mo7  1  0.43969400  0.93794200  0.93794200  1
loop_
_geom_bond_atom_site_label_1
_geom_bond_atom_site_label_2
_geom_bond_distance
_geom_bond_site_symmetry_2
Hf0 Mo5 3.122248 1_545
Hf0 Mo5 3.122248 1_455
Hf0 Mo5 3.122248 1_554
Hf0 Mo7 3.142124 1_554
Hf0 Mo1 3.142124 1_554
Hf0 Mo3 3.142124 1_545
Hf0 Mo3 3.142124 1_455
Hf0 Mo1 3.142124 1_455
Hf0 Mo7 3.142124 1_545
Hf0 Mo0 3.142391 1_545
Hf0 Mo6 3.142391 1_455
Hf0 Mo2 3.142391 1_554
Hf0 Hf1 3.270316 1_445
Hf0 Hf1 3.270316 1_544
Hf0 Hf1 3.270316 1_454
Hf0 Hf2 3.285533 1_555
Hf1 Mo0 3.126237 1_556
Hf1 Mo6 3.126237 1_556
Hf1 Mo2 3.126237 1_655
Hf1 Mo2 3.126237 1_565
Hf1 Mo6 3.126237 1_565
Hf1 Mo0 3.126237 1_655
Hf1 Mo5 3.132769 1_565
Hf1 Mo5 3.132769 1_655
Hf1 Mo5 3.132769 1_556
Hf1 Mo1 3.169264 1_565
Hf1 Mo7 3.169264 1_655
Hf1 Mo3 3.169264 1_556
Hf2 Mo6 3.086784 1_555
Hf2 Mo0 3.086784 1_555
Hf2 Mo2 3.086784 1_555
Hf2 Mo4 3.120591 1_565
Hf2 Mo4 3.120591 1_655
Hf2 Mo4 3.120592 1_556
Hf2 Mo7 3.120693 1_545
Hf2 Mo1 3.120693 1_455
Hf2 Mo3 3.120693 1_545
Hf2 Mo3 3.120693 1_455
Hf2 Mo1 3.120693 1_554
Hf2 Mo7 3.120693 1_554
Al0 Mo7 3.094446 1_555
Al0 Mo1 3.094446 1_555
Al0 Mo3 3.094446 1_555
Al0 Mo0 3.115794 1_655
Al0 Mo6 3.115794 1_565
Al0 Mo2 3.115794 1_565
Al0 Mo2 3.115794 1_655
Al0 Mo6 3.115794 1_556
Al0 Mo0 3.115794 1_556
Al0 Mo4 3.127516 1_566
Al0 Mo4 3.127516 1_656
Al0 Mo4 3.127516 1_665
Al0 Hf1 3.245882 1_555
Al0 Hf2 3.257363 1_556
Al0 Hf2 3.257363 1_565
Al0 Hf2 3.257363 1_655
Mo0 Mo6 2.658361 1_555
Mo0 Mo2 2.658361 1_555
Mo0 Mo4 2.659530 1_565
Mo0 Mo6 2.673321 1_465
Mo0 Mo2 2.673321 1_564
Mo0 Mo5 2.694701 1_555
Mo1 Mo4 2.634833 1_656
Mo1 Mo7 2.656500 1_555
Mo1 Mo3 2.656500 1_555
Mo1 Mo5 2.669984 1_555
Mo1 Mo7 2.675182 1_645
Mo1 Mo3 2.675182 1_546
Mo2 Mo6 2.658361 1_555
Mo2 Mo4 2.659530 1_556
Mo2 Mo6 2.673321 1_456
Mo2 Mo5 2.694700 1_555
Mo3 Mo4 2.634833 1_665
Mo3 Mo7 2.656500 1_555
Mo3 Mo5 2.669984 1_555
Mo3 Mo7 2.675182 1_654
Mo4 Mo7 2.634833 1_544
Mo4 Mo6 2.659530 1_455
Mo5 Mo7 2.669984 1_555
Mo5 Mo6 2.694701 1_555
