# generated using pymatgen
data_Mg2Ti3O8
_symmetry_space_group_name_H-M   'P 1'
_cell_length_a   6.03937922
_cell_length_b   6.03937922
_cell_length_c   4.97367093
_cell_angle_alpha   71.16114056
_cell_angle_beta   71.16114056
_cell_angle_gamma   59.43342823
_symmetry_Int_Tables_number   1
_chemical_formula_structural   Mg2Ti3O8
_chemical_formula_sum   'Mg2 Ti3 O8'
_cell_volume   145.00329201
_cell_formula_units_Z   1
loop_
 _symmetry_equiv_pos_site_id
 _symmetry_equiv_pos_as_xyz
  1  'x, y, z'
loop_
 _atom_site_type_symbol
 _atom_site_label
 _atom_site_symmetry_multiplicity
 _atom_site_fract_x
 _atom_site_fract_y
 _atom_site_fract_z
 _atom_site_occupancy
  Mg  Mg0  1  0.72334900  0.72334900  0.34465200  1
  Mg  Mg1  1  0.27665100  0.27665100  0.65534800  1
  Ti  Ti0  1  0.00000000  0.00000000  0.50000000  1
  Ti  Ti1  1  0.73223500  0.26776500  0.00000000  1
  Ti  Ti2  1  0.26776500  0.73223500  0.00000000  1
  O  O0  1  0.39399100  0.39399100  0.92554900  1
  O  O1  1  0.60600900  0.60600900  0.07445100  1
  O  O2  1  0.89162400  0.89162400  0.92095600  1
  O  O3  1  0.10837600  0.10837600  0.07904400  1
  O  O4  1  0.34050100  0.88956900  0.59183200  1
  O  O5  1  0.88956900  0.34050100  0.59183200  1
  O  O6  1  0.11043100  0.65949900  0.40816800  1
  O  O7  1  0.65949900  0.11043100  0.40816800  1
loop_
_geom_bond_atom_site_label_1
_geom_bond_atom_site_label_2
_geom_bond_distance
_geom_bond_site_symmetry_2
Mg0 O5 2.113238 1_555
Mg0 O4 2.113238 1_555
Mg0 O1 2.133382 1_555
Mg0 O2 2.188772 1_554
Mg0 O6 2.279234 1_655
Mg0 O7 2.279234 1_565
Mg1 O6 2.113238 1_555
Mg1 O7 2.113238 1_555
Mg1 O0 2.133382 1_555
Mg1 O3 2.188772 1_556
Mg1 O5 2.279234 1_455
Mg1 O4 2.279234 1_545
O0 Ti2 1.900940 1_556
O0 Ti1 1.900940 1_556
O1 Ti1 1.900940 1_555
O1 Ti2 1.900940 1_555
O2 Ti0 1.976378 1_665
O2 Ti1 2.085642 1_566
O2 Ti2 2.085642 1_656
O3 Ti0 1.976378 1_555
O3 Ti2 2.085642 1_545
O3 Ti1 2.085642 1_455
O4 Ti2 1.954472 1_556
O4 Ti0 1.974132 1_565
O5 Ti1 1.954472 1_556
O5 Ti0 1.974132 1_655
O6 Ti2 1.954472 1_555
O6 Ti0 1.974132 1_565
O7 Ti1 1.954472 1_555
O7 Ti0 1.974132 1_655
