# generated using pymatgen
data_Y7Co6Sn23
_symmetry_space_group_name_H-M   'P 1'
_cell_length_a   10.10568171
_cell_length_b   10.10568171
_cell_length_c   10.92846600
_cell_angle_alpha   90.00000000
_cell_angle_beta   90.00000000
_cell_angle_gamma   119.99999810
_symmetry_Int_Tables_number   1
_chemical_formula_structural   Y7Co6Sn23
_chemical_formula_sum   'Y7 Co6 Sn23'
_cell_volume   966.54276993
_cell_formula_units_Z   1
loop_
 _symmetry_equiv_pos_site_id
 _symmetry_equiv_pos_as_xyz
  1  'x, y, z'
loop_
 _atom_site_type_symbol
 _atom_site_label
 _atom_site_symmetry_multiplicity
 _atom_site_fract_x
 _atom_site_fract_y
 _atom_site_fract_z
 _atom_site_occupancy
  Y  Y0  1  0.00000000  0.00000000  0.00000000  1
  Y  Y1  1  0.95140000  0.47570000  0.70891000  1
  Y  Y2  1  0.52430000  0.04860000  0.70891000  1
  Y  Y3  1  0.52430000  0.47570000  0.70891000  1
  Y  Y4  1  0.04860000  0.52430000  0.29109000  1
  Y  Y5  1  0.47570000  0.95140000  0.29109000  1
  Y  Y6  1  0.47570000  0.52430000  0.29109000  1
  Co  Co0  1  0.38875300  0.19437700  0.85140700  1
  Co  Co1  1  0.80562300  0.61124700  0.85140700  1
  Co  Co2  1  0.80562300  0.19437700  0.85140700  1
  Co  Co3  1  0.61124700  0.80562300  0.14859300  1
  Co  Co4  1  0.19437700  0.38875300  0.14859300  1
  Co  Co5  1  0.19437700  0.80562300  0.14859300  1
  Sn  Sn0  1  0.66666700  0.33333300  0.20393200  1
  Sn  Sn1  1  0.33333300  0.66666700  0.79606800  1
  Sn  Sn2  1  0.45640300  0.22820200  0.44511400  1
  Sn  Sn3  1  0.77179800  0.54359700  0.44511400  1
  Sn  Sn4  1  0.77179800  0.22820200  0.44511400  1
  Sn  Sn5  1  0.54359700  0.77179800  0.55488600  1
  Sn  Sn6  1  0.22820200  0.45640300  0.55488600  1
  Sn  Sn7  1  0.22820200  0.77179800  0.55488600  1
  Sn  Sn8  1  0.22869500  0.11434800  0.68151900  1
  Sn  Sn9  1  0.88565200  0.77130500  0.68151900  1
  Sn  Sn10  1  0.88565200  0.11434800  0.68151900  1
  Sn  Sn11  1  0.77130500  0.88565200  0.31848100  1
  Sn  Sn12  1  0.11434800  0.22869500  0.31848100  1
  Sn  Sn13  1  0.11434800  0.88565200  0.31848100  1
  Sn  Sn14  1  0.00000000  0.00000000  0.50000000  1
  Sn  Sn15  1  0.34848000  0.00000000  0.00000000  1
  Sn  Sn16  1  0.65152000  0.65152000  0.00000000  1
  Sn  Sn17  1  0.00000000  0.34848000  0.00000000  1
  Sn  Sn18  1  0.34848000  0.34848000  0.00000000  1
  Sn  Sn19  1  0.00000000  0.65152000  0.00000000  1
  Sn  Sn20  1  0.65152000  0.00000000  0.00000000  1
  Sn  Sn21  1  0.66666700  0.33333300  0.89306900  1
  Sn  Sn22  1  0.33333300  0.66666700  0.10693100  1
loop_
_geom_bond_atom_site_label_1
_geom_bond_atom_site_label_2
_geom_bond_distance
_geom_bond_site_symmetry_2
Co0 Sn8 2.325777 1_555
Co0 Sn18 2.421096 1_556
Co0 Sn15 2.421104 1_556
Co0 Sn21 2.474489 1_555
Co0 Y3 2.913690 1_555
Co0 Y2 2.913698 1_555
Co1 Sn9 2.325777 1_555
Co1 Sn16 2.421096 1_556
Co1 Sn19 2.421104 1_656
Co1 Sn21 2.474489 1_555
Co1 Y3 2.913690 1_555
Co1 Y1 2.913698 1_555
Co2 Sn10 2.325777 1_555
Co2 Sn20 2.421101 1_556
Co2 Sn17 2.421101 1_656
Co2 Sn21 2.474472 1_555
Co2 Y2 2.913691 1_555
Co2 Y1 2.913691 1_555
Co3 Sn11 2.325777 1_555
Co3 Sn16 2.421096 1_555
Co3 Sn20 2.421104 1_565
Co3 Sn22 2.474489 1_555
Co3 Y6 2.913690 1_555
Co3 Y5 2.913698 1_555
Co4 Sn12 2.325777 1_555
Co4 Sn18 2.421096 1_555
Co4 Sn17 2.421104 1_555
Co4 Sn22 2.474489 1_555
Co4 Y6 2.913690 1_555
Co4 Y4 2.913698 1_555
Co5 Sn13 2.325777 1_555
Co5 Sn19 2.421101 1_555
Co5 Sn15 2.421101 1_565
Co5 Sn22 2.474472 1_555
Co5 Y5 2.913691 1_555
Co5 Y4 2.913691 1_555
Sn0 Sn4 3.214558 1_555
Sn0 Sn2 3.214568 1_555
Sn0 Sn3 3.214568 1_555
Sn0 Sn21 3.397256 1_554
Sn0 Y4 3.475656 1_655
Sn0 Y5 3.475656 1_545
Sn0 Y6 3.475665 1_555
Sn1 Sn7 3.214558 1_555
Sn1 Sn6 3.214568 1_555
Sn1 Sn5 3.214568 1_555
Sn1 Sn22 3.397256 1_556
Sn1 Y1 3.475656 1_455
Sn1 Y2 3.475656 1_565
Sn1 Y3 3.475665 1_555
Sn2 Sn4 3.187281 1_555
Sn2 Sn3 3.187282 1_555
Sn2 Sn8 3.262844 1_555
Sn2 Y6 3.352837 1_555
Sn2 Y5 3.352846 1_545
Sn2 Y3 3.649844 1_555
Sn2 Y2 3.649850 1_555
Sn3 Sn4 3.187281 1_555
Sn3 Sn9 3.262844 1_555
Sn3 Y6 3.352837 1_555
Sn3 Y4 3.352846 1_655
Sn3 Y3 3.649844 1_555
Sn3 Y1 3.649850 1_555
Sn4 Y5 3.352841 1_545
Sn4 Y4 3.352841 1_655
Sn4 Y2 3.649846 1_555
Sn4 Y1 3.649846 1_555
Sn5 Sn7 3.187281 1_555
Sn5 Sn6 3.187282 1_555
Sn5 Y3 3.352837 1_555
Sn5 Y2 3.352846 1_565
Sn5 Y6 3.649844 1_555
Sn5 Y5 3.649850 1_555
Sn6 Sn7 3.187281 1_555
Sn6 Y3 3.352837 1_555
Sn6 Y1 3.352846 1_455
Sn6 Y6 3.649844 1_555
Sn6 Y4 3.649850 1_555
Sn7 Y1 3.352841 1_455
Sn7 Y2 3.352841 1_565
Sn7 Y4 3.649846 1_555
Sn7 Y5 3.649846 1_555
Sn8 Y3 3.382273 1_555
Sn8 Y2 3.382279 1_555
Sn9 Y3 3.382273 1_555
Sn9 Y1 3.382279 1_555
Sn10 Sn14 2.818005 1_655
Sn10 Sn4 3.262844 1_555
Sn10 Y2 3.382269 1_555
Sn10 Y1 3.382269 1_555
Sn11 Sn14 2.817998 1_665
Sn11 Sn5 3.262844 1_555
Sn11 Y6 3.382273 1_555
Sn11 Y5 3.382279 1_555
Sn12 Sn14 2.817998 1_555
Sn12 Sn6 3.262844 1_555
Sn12 Y6 3.382273 1_555
Sn12 Y4 3.382279 1_555
Sn13 Sn14 2.818005 1_565
Sn13 Sn7 3.262844 1_555
Sn13 Y4 3.382269 1_555
Sn13 Y5 3.382269 1_555
Sn14 Sn8 2.817998 1_555
Sn14 Sn9 2.817998 1_445
Sn15 Y0 3.521628 1_555
Sn15 Y5 3.556030 1_545
Sn15 Y2 3.556030 1_554
Sn16 Y0 3.521628 1_665
Sn16 Y3 3.556030 1_554
Sn16 Y6 3.556030 1_555
Sn17 Y0 3.521628 1_555
Sn17 Y1 3.556030 1_454
Sn17 Y4 3.556030 1_555
Sn18 Y0 3.521628 1_555
Sn18 Y3 3.556030 1_554
Sn18 Y6 3.556030 1_555
Sn19 Y0 3.521628 1_565
Sn19 Y4 3.556030 1_555
Sn19 Y1 3.556030 1_454
Sn20 Y0 3.521628 1_655
Sn20 Y2 3.556030 1_554
Sn20 Y5 3.556030 1_545
Sn21 Y1 3.203143 1_555
Sn21 Y2 3.203143 1_555
Sn21 Y3 3.203150 1_555
Sn22 Y5 3.203143 1_555
Sn22 Y4 3.203143 1_555
Sn22 Y6 3.203150 1_555
