# generated using pymatgen
data_Na3TbTi2Nb2O12
_symmetry_space_group_name_H-M   'P 1'
_cell_length_a   5.48577200
_cell_length_b   5.63527400
_cell_length_c   15.47528000
_cell_angle_alpha   90.00000000
_cell_angle_beta   90.00000000
_cell_angle_gamma   90.00000000
_symmetry_Int_Tables_number   1
_chemical_formula_structural   Na3TbTi2Nb2O12
_chemical_formula_sum   'Na6 Tb2 Ti4 Nb4 O24'
_cell_volume   478.40014915
_cell_formula_units_Z   2
loop_
 _symmetry_equiv_pos_site_id
 _symmetry_equiv_pos_as_xyz
  1  'x, y, z'
loop_
 _atom_site_type_symbol
 _atom_site_label
 _atom_site_symmetry_multiplicity
 _atom_site_fract_x
 _atom_site_fract_y
 _atom_site_fract_z
 _atom_site_occupancy
  Na  Na0  1  0.00461600  0.97912100  0.37074800  1
  Na  Na1  1  0.00461600  0.97912100  0.87925200  1
  Na  Na2  1  0.49538400  0.47912100  0.87925200  1
  Na  Na3  1  0.49538400  0.47912100  0.37074800  1
  Na  Na4  1  0.51327500  0.52685300  0.62500000  1
  Na  Na5  1  0.98672500  0.02685300  0.62500000  1
  Tb  Tb0  1  0.50904200  0.56338700  0.12500000  1
  Tb  Tb1  1  0.99095800  0.06338700  0.12500000  1
  Ti  Ti0  1  0.00891300  0.52659700  0.99836300  1
  Ti  Ti1  1  0.00891300  0.52659700  0.25163700  1
  Ti  Ti2  1  0.49108700  0.02659700  0.25163700  1
  Ti  Ti3  1  0.49108700  0.02659700  0.99836300  1
  Nb  Nb0  1  0.00366500  0.51470600  0.49797100  1
  Nb  Nb1  1  0.00366500  0.51470600  0.75202900  1
  Nb  Nb2  1  0.49633500  0.01470600  0.75202900  1
  Nb  Nb3  1  0.49633500  0.01470600  0.49797100  1
  O  O0  1  0.09208000  0.46415200  0.12500000  1
  O  O1  1  0.08120700  0.47971800  0.62500000  1
  O  O2  1  0.21522700  0.21047400  0.47668300  1
  O  O3  1  0.20453400  0.19588200  0.26043700  1
  O  O4  1  0.21522700  0.21047400  0.77331700  1
  O  O5  1  0.20453400  0.19588200  0.98956300  1
  O  O6  1  0.29546600  0.69588200  0.26043700  1
  O  O7  1  0.28477300  0.71047400  0.47668300  1
  O  O8  1  0.28477300  0.71047400  0.77331700  1
  O  O9  1  0.29546600  0.69588200  0.98956300  1
  O  O10  1  0.40792000  0.96415200  0.12500000  1
  O  O11  1  0.41879300  0.97971800  0.62500000  1
  O  O12  1  0.57611600  0.00758300  0.87977400  1
  O  O13  1  0.57611600  0.00758300  0.37022600  1
  O  O14  1  0.70517700  0.27991700  0.03164100  1
  O  O15  1  0.70517700  0.27991700  0.21835900  1
  O  O16  1  0.72169100  0.26866300  0.51926900  1
  O  O17  1  0.72169100  0.26866300  0.73073100  1
  O  O18  1  0.79482300  0.77991700  0.03164100  1
  O  O19  1  0.79482300  0.77991700  0.21835900  1
  O  O20  1  0.77830900  0.76866300  0.51926900  1
  O  O21  1  0.77830900  0.76866300  0.73073100  1
  O  O22  1  0.92388400  0.50758300  0.37022600  1
  O  O23  1  0.92388400  0.50758300  0.87977400  1
loop_
_geom_bond_atom_site_label_1
_geom_bond_atom_site_label_2
_geom_bond_distance
_geom_bond_site_symmetry_2
Na0 O13 2.356133 1_465
Na0 O3 2.368335 1_565
Na0 O2 2.392100 1_565
Na0 O22 2.693912 1_455
Na0 O7 2.709507 1_555
Na0 O6 2.829759 1_555
Na0 O19 2.854134 1_455
Na0 O20 2.868880 1_455
Na1 O12 2.356133 1_465
Na1 O5 2.368335 1_565
Na1 O4 2.392100 1_565
Na1 O23 2.693912 1_455
Na1 O8 2.709507 1_555
Na1 O9 2.829759 1_555
Na1 O18 2.854134 1_456
Na1 O21 2.868880 1_455
Na2 O23 2.356133 1_555
Na2 O9 2.368335 1_555
Na2 O8 2.392100 1_555
Na2 O12 2.693912 1_555
Na2 O4 2.709507 1_555
Na2 O5 2.829759 1_555
Na2 O14 2.854134 1_556
Na2 O17 2.868880 1_555
Na3 O22 2.356133 1_555
Na3 O6 2.368335 1_555
Na3 O7 2.392100 1_555
Na3 O13 2.693912 1_555
Na3 O2 2.709507 1_555
Na3 O3 2.829759 1_555
Na3 O15 2.854134 1_555
Na3 O16 2.868880 1_555
Na4 O1 2.385063 1_555
Na4 O16 2.470088 1_555
Na4 O17 2.470088 1_555
Na4 O20 2.578359 1_555
Na4 O21 2.578359 1_555
Na4 O11 2.604120 1_555
Na4 O7 2.812501 1_555
Na4 O8 2.812501 1_555
Na5 O11 2.385063 1_645
Na5 O21 2.470088 1_545
Na5 O20 2.470088 1_545
Na5 O16 2.578359 1_555
Na5 O17 2.578359 1_555
Na5 O1 2.604120 1_655
Na5 O2 2.812501 1_655
Na5 O4 2.812501 1_655
Nb0 O20 1.919647 1_455
Nb0 O7 1.924487 1_555
Nb0 O1 2.020947 1_555
Nb0 O22 2.025154 1_455
Nb0 O2 2.096366 1_555
Nb0 O16 2.103283 1_455
Nb1 O21 1.919647 1_455
Nb1 O8 1.924487 1_555
Nb1 O1 2.020947 1_555
Nb1 O23 2.025154 1_455
Nb1 O4 2.096366 1_555
Nb1 O17 2.103283 1_455
Nb2 O17 1.919647 1_555
Nb2 O4 1.924487 1_555
Nb2 O11 2.020947 1_545
Nb2 O12 2.025154 1_555
Nb2 O8 2.096366 1_545
Nb2 O21 2.103283 1_545
Nb3 O16 1.919647 1_555
Nb3 O2 1.924487 1_555
Nb3 O11 2.020947 1_545
Nb3 O13 2.025154 1_555
Nb3 O7 2.096366 1_545
Nb3 O20 2.103283 1_545
O0 Ti0 2.042688 1_554
O0 Ti1 2.042688 1_555
O0 Tb1 2.325552 1_455
O0 Tb0 2.354725 1_555
O3 Ti2 1.843820 1_555
O3 Ti1 2.154860 1_555
O3 Tb1 2.514577 1_455
O5 Ti3 1.843820 1_555
O5 Ti0 2.154860 1_555
O5 Tb1 2.514577 1_456
O6 Ti1 1.843820 1_555
O6 Ti2 2.154860 1_565
O6 Tb0 2.514577 1_555
O9 Ti0 1.843820 1_555
O9 Ti3 2.154860 1_565
O9 Tb0 2.514577 1_556
O10 Ti3 2.042688 1_564
O10 Ti2 2.042688 1_565
O10 Tb0 2.325552 1_555
O10 Tb1 2.354725 1_465
O12 Ti3 1.896578 1_555
O13 Ti2 1.896578 1_555
O14 Ti3 1.918952 1_554
O14 Ti0 2.230230 1_654
O14 Tb0 2.407650 1_555
O14 Tb1 2.456420 1_555
O15 Ti2 1.918952 1_555
O15 Ti1 2.230230 1_655
O15 Tb0 2.407650 1_555
O15 Tb1 2.456420 1_555
O18 Ti0 1.918952 1_654
O18 Ti3 2.230230 1_564
O18 Tb1 2.407650 1_565
O18 Tb0 2.456420 1_555
O19 Ti1 1.918952 1_655
O19 Ti2 2.230230 1_565
O19 Tb1 2.407650 1_565
O19 Tb0 2.456420 1_555
O22 Ti1 1.896578 1_655
O23 Ti0 1.896578 1_655
