# generated using pymatgen
data_Cr8Co3NiS16
_symmetry_space_group_name_H-M   'P 1'
_cell_length_a   11.87914624
_cell_length_b   11.87914624
_cell_length_c   11.87914643
_cell_angle_alpha   33.89832817
_cell_angle_beta   33.89832817
_cell_angle_gamma   33.89833229
_symmetry_Int_Tables_number   1
_chemical_formula_structural   Cr8Co3NiS16
_chemical_formula_sum   'Cr8 Co3 Ni1 S16'
_cell_volume   464.70480468
_cell_formula_units_Z   1
loop_
 _symmetry_equiv_pos_site_id
 _symmetry_equiv_pos_as_xyz
  1  'x, y, z'
loop_
 _atom_site_type_symbol
 _atom_site_label
 _atom_site_symmetry_multiplicity
 _atom_site_fract_x
 _atom_site_fract_y
 _atom_site_fract_z
 _atom_site_occupancy
  Cr  Cr0  1  0.00116700  0.00116700  0.00116700  1
  Cr  Cr1  1  0.50052400  0.50052400  0.50052400  1
  Cr  Cr2  1  0.75131800  0.24860700  0.24860700  1
  Cr  Cr3  1  0.25071700  0.74961400  0.74961400  1
  Cr  Cr4  1  0.24860700  0.75131800  0.24860700  1
  Cr  Cr5  1  0.74961400  0.25071700  0.74961400  1
  Cr  Cr6  1  0.24860700  0.24860700  0.75131800  1
  Cr  Cr7  1  0.74961400  0.74961400  0.25071700  1
  Co  Co0  1  0.18775400  0.18775400  0.18775400  1
  Co  Co1  1  0.81189100  0.81189100  0.81189100  1
  Co  Co2  1  0.31209300  0.31209300  0.31209300  1
  Ni  Ni0  1  0.68771500  0.68771500  0.68771500  1
  S  S0  1  0.12167700  0.12167700  0.12167700  1
  S  S1  1  0.62181800  0.62181800  0.62181800  1
  S  S2  1  0.36323600  0.88249200  0.88249200  1
  S  S3  1  0.86227600  0.38332900  0.38332900  1
  S  S4  1  0.88249200  0.36323600  0.88249200  1
  S  S5  1  0.38332900  0.86227600  0.38332900  1
  S  S6  1  0.88249200  0.88249200  0.36323600  1
  S  S7  1  0.38332900  0.38332900  0.86227600  1
  S  S8  1  0.37780800  0.37780800  0.37780800  1
  S  S9  1  0.87791500  0.87791500  0.87791500  1
  S  S10  1  0.13969500  0.61602700  0.61602700  1
  S  S11  1  0.63654900  0.11785500  0.11785500  1
  S  S12  1  0.61602700  0.13969500  0.61602700  1
  S  S13  1  0.11785500  0.63654900  0.11785500  1
  S  S14  1  0.61602700  0.61602700  0.13969500  1
  S  S15  1  0.11785500  0.11785500  0.63654900  1
loop_
_geom_bond_atom_site_label_1
_geom_bond_atom_site_label_2
_geom_bond_distance
_geom_bond_site_symmetry_2
Cr0 S6 2.375261 1_445
Cr0 S2 2.375261 1_544
Cr0 S4 2.375261 1_454
Cr0 S15 2.420624 1_554
Cr0 S13 2.420624 1_545
Cr0 S11 2.420624 1_455
Cr1 S7 2.386975 1_555
Cr1 S3 2.386975 1_555
Cr1 S5 2.386975 1_555
Cr1 S14 2.395183 1_555
Cr1 S12 2.395183 1_555
Cr1 S10 2.395183 1_555
Cr2 S4 2.374513 1_554
Cr2 S6 2.374513 1_545
Cr2 S0 2.377501 1_655
Cr2 S8 2.387237 1_555
Cr2 S12 2.395787 1_555
Cr2 S14 2.395787 1_555
Cr3 S1 2.376844 1_555
Cr3 S5 2.378955 1_555
Cr3 S7 2.378956 1_555
Cr3 S9 2.388451 1_455
Cr3 S13 2.394744 1_556
Cr3 S15 2.394744 1_565
Cr4 S2 2.374513 1_554
Cr4 S6 2.374513 1_455
Cr4 S0 2.377501 1_565
Cr4 S8 2.387237 1_555
Cr4 S10 2.395787 1_555
Cr4 S14 2.395787 1_555
Cr5 S1 2.376844 1_555
Cr5 S3 2.378955 1_555
Cr5 S7 2.378956 1_555
Cr5 S9 2.388451 1_545
Cr5 S11 2.394744 1_556
Cr5 S15 2.394744 1_655
Cr6 S2 2.374513 1_545
Cr6 S4 2.374513 1_455
Cr6 S0 2.377501 1_556
Cr6 S8 2.387237 1_555
Cr6 S12 2.395787 1_555
Cr6 S10 2.395787 1_555
Cr7 S1 2.376844 1_555
Cr7 S3 2.378955 1_555
Cr7 S5 2.378955 1_555
Cr7 S9 2.388451 1_554
Cr7 S11 2.394744 1_565
Cr7 S13 2.394744 1_655
Co0 S7 2.209282 1_554
Co0 S3 2.209282 1_455
Co0 S5 2.209282 1_545
Co0 S0 2.217388 1_555
Co1 S14 2.212751 1_556
Co1 S12 2.212751 1_565
Co1 S10 2.212751 1_655
Co1 S9 2.215609 1_555
Co2 S15 2.194288 1_555
Co2 S13 2.194288 1_555
Co2 S11 2.194288 1_555
Co2 S8 2.205240 1_555
Ni0 S6 2.200288 1_555
Ni0 S4 2.200288 1_555
Ni0 S2 2.200288 1_555
Ni0 S1 2.211347 1_555
