# generated using pymatgen
data_Li9Co7O16
_symmetry_space_group_name_H-M   'P 1'
_cell_length_a   2.93391200
_cell_length_b   8.17014578
_cell_length_c   11.76433385
_cell_angle_alpha   89.07527410
_cell_angle_beta   90.00000000
_cell_angle_gamma   90.00000000
_symmetry_Int_Tables_number   1
_chemical_formula_structural   Li9Co7O16
_chemical_formula_sum   'Li9 Co7 O16'
_cell_volume   281.96010524
_cell_formula_units_Z   1
loop_
 _symmetry_equiv_pos_site_id
 _symmetry_equiv_pos_as_xyz
  1  'x, y, z'
loop_
 _atom_site_type_symbol
 _atom_site_label
 _atom_site_symmetry_multiplicity
 _atom_site_fract_x
 _atom_site_fract_y
 _atom_site_fract_z
 _atom_site_occupancy
  Li  Li0  1  0.50000000  0.24823200  0.11725700  1
  Li  Li1  1  0.50000000  0.75000000  0.37500000  1
  Li  Li2  1  0.50000000  0.25176800  0.63274300  1
  Li  Li3  1  0.00000000  0.48666800  0.99734900  1
  Li  Li4  1  0.00000000  0.00072700  0.25132900  1
  Li  Li5  1  0.00000000  0.49927300  0.49867100  1
  Li  Li6  1  0.50000000  0.75000000  0.87500000  1
  Li  Li7  1  0.00000000  0.01333200  0.75265100  1
  Li  Li8  1  0.50000000  0.25000000  0.87500000  1
  Co  Co0  1  0.00000000  0.00703300  0.99658200  1
  Co  Co1  1  0.00000000  0.49296700  0.75341800  1
  Co  Co2  1  0.00000000  0.50233700  0.24984900  1
  Co  Co3  1  0.00000000  0.99766300  0.50015100  1
  Co  Co4  1  0.50000000  0.74879600  0.12123900  1
  Co  Co5  1  0.50000000  0.25000000  0.37500000  1
  Co  Co6  1  0.50000000  0.75120400  0.62876100  1
  O  O0  1  0.50000000  0.99304500  0.10949700  1
  O  O1  1  0.50000000  0.49507700  0.37096400  1
  O  O2  1  0.50000000  0.99082400  0.62308100  1
  O  O3  1  0.00000000  0.22558400  0.00186500  1
  O  O4  1  0.00000000  0.74415600  0.24277400  1
  O  O5  1  0.00000000  0.24099700  0.49315300  1
  O  O6  1  0.50000000  0.50026700  0.85806500  1
  O  O7  1  0.00000000  0.73519000  0.74438400  1
  O  O8  1  0.50000000  0.50917600  0.12691900  1
  O  O9  1  0.50000000  0.00492300  0.37903600  1
  O  O10  1  0.50000000  0.50695500  0.64050300  1
  O  O11  1  0.00000000  0.76481000  0.00561600  1
  O  O12  1  0.00000000  0.25900300  0.25684700  1
  O  O13  1  0.00000000  0.75584400  0.50722600  1
  O  O14  1  0.50000000  0.99973300  0.89193500  1
  O  O15  1  0.00000000  0.27441600  0.74813500  1
loop_
_geom_bond_atom_site_label_1
_geom_bond_atom_site_label_2
_geom_bond_distance
_geom_bond_site_symmetry_2
Li0 O3 2.009264 1_655
Li0 O3 2.009264 1_555
Li0 O0 2.088384 1_545
Li0 O8 2.136810 1_555
Li0 O12 2.204798 1_655
Li0 O12 2.204798 1_555
Li1 O9 2.084065 1_565
Li1 O1 2.084065 1_555
Li1 O13 2.139246 1_555
Li1 O13 2.139246 1_655
Li1 O4 2.139246 1_555
Li1 O4 2.139246 1_655
Li2 O15 2.009264 1_555
Li2 O15 2.009264 1_655
Li2 O10 2.088384 1_555
Li2 O2 2.136810 1_545
Li2 O5 2.204798 1_655
Li2 O5 2.204798 1_555
Li3 O8 2.125636 1_456
Li3 O8 2.125636 1_556
Li3 O3 2.132899 1_556
Li3 O6 2.200769 1_455
Li3 O6 2.200769 1_555
Li3 O11 2.276109 1_556
Li4 O4 2.100259 1_545
Li4 O9 2.100468 1_455
Li4 O9 2.100468 1_555
Li4 O12 2.112198 1_555
Li4 O0 2.223369 1_445
Li4 O0 2.223369 1_545
Li5 O13 2.100259 1_555
Li5 O1 2.100468 1_555
Li5 O1 2.100468 1_455
Li5 O5 2.112198 1_555
Li5 O10 2.223369 1_455
Li5 O10 2.223369 1_555
Li6 O14 2.053256 1_555
Li6 O6 2.053256 1_555
Li6 O7 2.129266 1_655
Li6 O7 2.129266 1_555
Li6 O11 2.129266 1_556
Li6 O11 2.129266 1_656
Li7 O2 2.125636 1_445
Li7 O2 2.125636 1_545
Li7 O15 2.132899 1_555
Li7 O14 2.200769 1_445
Li7 O14 2.200769 1_545
Li7 O7 2.276109 1_545
Li8 O6 2.051198 1_555
Li8 O14 2.051198 1_545
Li8 O15 2.099916 1_555
Li8 O15 2.099916 1_655
Li8 O3 2.099916 1_556
Li8 O3 2.099916 1_656
Co0 O3 1.787677 1_556
Co0 O14 1.916638 1_545
Co0 O14 1.916638 1_445
Co0 O11 1.980135 1_546
Co0 O0 1.981082 1_546
Co0 O0 1.981082 1_446
Co1 O15 1.787677 1_555
Co1 O6 1.916638 1_455
Co1 O6 1.916638 1_555
Co1 O7 1.980135 1_555
Co1 O10 1.981082 1_555
Co1 O10 1.981082 1_455
Co2 O4 1.976106 1_555
Co2 O12 1.988450 1_555
Co2 O1 2.045217 1_455
Co2 O1 2.045217 1_555
Co2 O8 2.060082 1_555
Co2 O8 2.060082 1_455
Co3 O13 1.976106 1_555
Co3 O5 1.988450 1_565
Co3 O9 2.045217 1_565
Co3 O9 2.045217 1_465
Co3 O2 2.060082 1_555
Co3 O2 2.060082 1_455
Co4 O8 1.957792 1_555
Co4 O0 1.998100 1_555
Co4 O11 2.003385 1_555
Co4 O11 2.003385 1_655
Co4 O4 2.048393 1_555
Co4 O4 2.048393 1_655
Co5 O1 2.002111 1_555
Co5 O9 2.002111 1_555
Co5 O5 2.021422 1_555
Co5 O12 2.021422 1_655
Co5 O5 2.021422 1_655
Co5 O12 2.021422 1_555
Co6 O2 1.957792 1_555
Co6 O10 1.998100 1_555
Co6 O7 2.003385 1_555
Co6 O7 2.003385 1_655
Co6 O13 2.048393 1_655
Co6 O13 2.048393 1_555
