# generated using pymatgen
data_TaCo4Mo
_symmetry_space_group_name_H-M   'P 1'
_cell_length_a   4.72112372
_cell_length_b   4.72112372
_cell_length_c   7.70091100
_cell_angle_alpha   90.00000000
_cell_angle_beta   90.00000000
_cell_angle_gamma   119.99999614
_symmetry_Int_Tables_number   1
_chemical_formula_structural   TaCo4Mo
_chemical_formula_sum   'Ta2 Co8 Mo2'
_cell_volume   148.64952190
_cell_formula_units_Z   2
loop_
 _symmetry_equiv_pos_site_id
 _symmetry_equiv_pos_as_xyz
  1  'x, y, z'
loop_
 _atom_site_type_symbol
 _atom_site_label
 _atom_site_symmetry_multiplicity
 _atom_site_fract_x
 _atom_site_fract_y
 _atom_site_fract_z
 _atom_site_occupancy
  Ta  Ta0  1  0.66666700  0.33333300  0.92436100  1
  Ta  Ta1  1  0.33333300  0.66666700  0.07563900  1
  Co  Co0  1  0.00000000  0.00000000  0.50000000  1
  Co  Co1  1  0.00000000  0.00000000  0.00000000  1
  Co  Co2  1  0.83095000  0.16905000  0.25050300  1
  Co  Co3  1  0.83095000  0.66190100  0.25050300  1
  Co  Co4  1  0.33809900  0.16905000  0.25050300  1
  Co  Co5  1  0.16905000  0.83095000  0.74949700  1
  Co  Co6  1  0.16905000  0.33809900  0.74949700  1
  Co  Co7  1  0.66190100  0.83095000  0.74949700  1
  Mo  Mo0  1  0.33333300  0.66666700  0.44419700  1
  Mo  Mo1  1  0.66666700  0.33333300  0.55580300  1
loop_
_geom_bond_atom_site_label_1
_geom_bond_atom_site_label_2
_geom_bond_distance
_geom_bond_site_symmetry_2
Co0 Co6 2.366962 1_555
Co0 Co7 2.366962 1_445
Co0 Co3 2.366962 1_445
Co0 Co4 2.366962 1_555
Co0 Co5 2.366965 1_545
Co0 Co2 2.366965 1_455
Co0 Mo1 2.759407 1_455
Co0 Mo0 2.759407 1_545
Co0 Mo1 2.759411 1_555
Co0 Mo1 2.759411 1_445
Co0 Mo0 2.759411 1_445
Co0 Mo0 2.759411 1_555
Co1 Co3 2.373255 1_445
Co1 Co4 2.373255 1_555
Co1 Co6 2.373255 1_554
Co1 Co7 2.373255 1_444
Co1 Co2 2.373258 1_455
Co1 Co5 2.373258 1_544
Co1 Ta1 2.787283 1_545
Co1 Ta0 2.787283 1_454
Co1 Ta1 2.787287 1_555
Co1 Ta1 2.787287 1_445
Co1 Ta0 2.787287 1_554
Co1 Ta0 2.787287 1_444
Co2 Co4 2.326811 1_555
Co2 Co3 2.326811 1_555
Co2 Co4 2.394313 1_655
Co2 Co3 2.394313 1_545
Co2 Mo1 2.707819 1_555
Co2 Ta1 2.717719 1_545
Co2 Ta1 2.717719 1_655
Co2 Mo0 2.792412 1_655
Co2 Mo0 2.792412 1_545
Co2 Ta0 2.848290 1_554
Co3 Co4 2.326811 1_555
Co3 Co4 2.394313 1_665
Co3 Mo1 2.707823 1_555
Co3 Ta1 2.717719 1_555
Co3 Ta1 2.717719 1_655
Co3 Mo0 2.792412 1_555
Co3 Mo0 2.792412 1_655
Co3 Ta0 2.848294 1_554
Co4 Mo1 2.707823 1_555
Co4 Ta1 2.717719 1_555
Co4 Ta1 2.717719 1_545
Co4 Mo0 2.792412 1_555
Co4 Mo0 2.792412 1_545
Co4 Ta0 2.848294 1_554
Co5 Co7 2.326811 1_555
Co5 Co6 2.326811 1_555
Co5 Co6 2.394313 1_565
Co5 Co7 2.394313 1_455
Co5 Mo0 2.707819 1_555
Co5 Ta0 2.717719 1_455
Co5 Ta0 2.717719 1_565
Co5 Mo1 2.792412 1_455
Co5 Mo1 2.792412 1_565
Co5 Ta1 2.848290 1_556
Co6 Co7 2.326811 1_555
Co6 Co7 2.394313 1_445
Co6 Mo0 2.707823 1_555
Co6 Ta0 2.717719 1_555
Co6 Ta0 2.717719 1_455
Co6 Mo1 2.792412 1_555
Co6 Mo1 2.792412 1_455
Co6 Ta1 2.848294 1_556
Co7 Mo0 2.707823 1_555
Co7 Ta0 2.717719 1_555
Co7 Ta0 2.717719 1_565
Co7 Mo1 2.792412 1_555
Co7 Mo1 2.792412 1_565
Co7 Ta1 2.848294 1_556
Mo0 Ta1 2.838232 1_555
Mo0 Mo1 2.858031 1_455
Mo0 Mo1 2.858031 1_565
Mo0 Mo1 2.858039 1_555
Mo1 Ta0 2.838232 1_555
