# generated using pymatgen
data_Pr3In5
_symmetry_space_group_name_H-M   'P 1'
_cell_length_a   6.61203208
_cell_length_b   6.61203291
_cell_length_c   10.58414554
_cell_angle_alpha   89.99786997
_cell_angle_beta   89.99787244
_cell_angle_gamma   101.59069507
_symmetry_Int_Tables_number   1
_chemical_formula_structural   Pr3In5
_chemical_formula_sum   'Pr6 In10'
_cell_volume   453.29198093
_cell_formula_units_Z   2
loop_
 _symmetry_equiv_pos_site_id
 _symmetry_equiv_pos_as_xyz
  1  'x, y, z'
loop_
 _atom_site_type_symbol
 _atom_site_label
 _atom_site_symmetry_multiplicity
 _atom_site_fract_x
 _atom_site_fract_y
 _atom_site_fract_z
 _atom_site_occupancy
  Pr  Pr0  1  0.63403767  0.63403781  0.25008871  1
  Pr  Pr1  1  0.36596233  0.36596219  0.74991129  1
  Pr  Pr2  1  0.79756659  0.20243327  0.49999998  1
  Pr  Pr3  1  0.79758222  0.20241768  -0.00000004  1
  Pr  Pr4  1  0.20243341  0.79756673  0.50000002  1
  Pr  Pr5  1  0.20241778  0.79758232  0.00000004  1
  In  In0  1  0.01524064  0.01524067  0.25003113  1
  In  In1  1  0.98475936  0.98475933  0.74996887  1
  In  In2  1  0.30944865  0.30944867  0.05127706  1
  In  In3  1  0.69055035  0.69055033  0.94872394  1
  In  In4  1  0.30939222  0.30939226  0.44873747  1
  In  In5  1  0.69060678  0.69060674  0.55126253  1
  In  In6  1  0.08058735  0.50048704  0.25004545  1
  In  In7  1  0.49951297  0.91941264  0.74995456  1
  In  In8  1  0.91941265  0.49951296  0.74995455  1
  In  In9  1  0.50048703  0.08058736  0.25004544  1
loop_
_geom_bond_atom_site_label_1
_geom_bond_atom_site_label_2
_geom_bond_distance
_geom_bond_site_symmetry_2
In0 Pr0 3.186410 1_445
In0 In4 3.235631 1_555
In0 In2 3.236130 1_555
In0 Pr2 3.364375 1_455
In0 Pr4 3.364375 1_545
In0 Pr5 3.364806 1_545
In0 Pr3 3.364806 1_455
In1 Pr1 3.186410 1_665
In1 In5 3.235637 1_555
In1 In3 3.236143 1_555
In1 Pr4 3.364375 1_655
In1 Pr2 3.364375 1_565
In1 Pr3 3.364806 1_566
In1 Pr5 3.364806 1_656
In2 In9 3.013212 1_555
In2 In6 3.013212 1_555
In2 Pr1 3.224462 1_554
In2 Pr5 3.359726 1_545
In2 Pr3 3.359726 1_455
In2 In3 3.365350 1_554
In2 Pr0 3.433645 1_555
In2 Pr3 3.482848 1_555
In2 Pr5 3.482848 1_555
In3 In7 3.013219 1_555
In3 In8 3.013219 1_555
In3 Pr0 3.224450 1_556
In3 Pr3 3.359731 1_566
In3 Pr5 3.359731 1_656
In3 Pr1 3.433645 1_555
In3 Pr5 3.482843 1_556
In3 Pr3 3.482843 1_556
In4 In6 3.012635 1_555
In4 In9 3.012636 1_555
In4 Pr1 3.222576 1_555
In4 Pr4 3.359388 1_545
In4 Pr2 3.359388 1_455
In4 In5 3.366268 1_555
In4 Pr0 3.432766 1_555
In4 Pr2 3.482929 1_555
In4 Pr4 3.482929 1_555
In5 In8 3.012636 1_555
In5 In7 3.012636 1_555
In5 Pr0 3.222575 1_555
In5 Pr2 3.359394 1_565
In5 Pr4 3.359394 1_655
In5 Pr1 3.432759 1_555
In5 Pr4 3.482925 1_555
In5 Pr2 3.482926 1_555
In6 Pr0 3.247355 1_455
In6 Pr4 3.297140 1_555
In6 Pr5 3.297790 1_555
In6 Pr0 3.587853 1_555
In6 Pr2 3.591935 1_455
In6 Pr3 3.592858 1_455
In7 Pr1 3.247354 1_565
In7 Pr4 3.297139 1_555
In7 Pr5 3.297790 1_556
In7 Pr1 3.587854 1_555
In7 Pr2 3.591935 1_565
In7 Pr3 3.592857 1_566
In8 Pr1 3.247355 1_655
In8 Pr2 3.297140 1_555
In8 Pr3 3.297790 1_556
In8 Pr1 3.587853 1_555
In8 Pr4 3.591935 1_655
In8 Pr5 3.592858 1_656
In9 Pr0 3.247354 1_545
In9 Pr2 3.297139 1_555
In9 Pr3 3.297790 1_555
In9 Pr0 3.587854 1_555
In9 Pr4 3.591935 1_545
In9 Pr5 3.592857 1_545
