# generated using pymatgen
data_ZnGe7N10
_symmetry_space_group_name_H-M   'P 1'
_cell_length_a   6.99471680
_cell_length_b   7.38023500
_cell_length_c   10.28923946
_cell_angle_alpha   90.00000000
_cell_angle_beta   102.74391229
_cell_angle_gamma   90.00000000
_symmetry_Int_Tables_number   1
_chemical_formula_structural   ZnGe7N10
_chemical_formula_sum   'Zn2 Ge14 N20'
_cell_volume   518.07317841
_cell_formula_units_Z   2
loop_
 _symmetry_equiv_pos_site_id
 _symmetry_equiv_pos_as_xyz
  1  'x, y, z'
loop_
 _atom_site_type_symbol
 _atom_site_label
 _atom_site_symmetry_multiplicity
 _atom_site_fract_x
 _atom_site_fract_y
 _atom_site_fract_z
 _atom_site_occupancy
  Zn  Zn0  1  0.89655100  0.91214700  0.63593400  1
  Zn  Zn1  1  0.89655100  0.08785300  0.13593400  1
  Ge  Ge0  1  0.55700300  0.98160000  0.82893000  1
  Ge  Ge1  1  0.55700300  0.01840000  0.32893000  1
  Ge  Ge2  1  0.34855300  0.01636600  0.03091000  1
  Ge  Ge3  1  0.34855300  0.98363400  0.53091000  1
  Ge  Ge4  1  0.11575000  0.39714900  0.07357200  1
  Ge  Ge5  1  0.11575000  0.60285100  0.57357200  1
  Ge  Ge6  1  0.65994600  0.36690900  0.99189500  1
  Ge  Ge7  1  0.65994600  0.63309100  0.49189500  1
  Ge  Ge8  1  0.84949500  0.61957200  0.80974600  1
  Ge  Ge9  1  0.84949500  0.38042800  0.30974600  1
  Ge  Ge10  1  0.30289000  0.63146800  0.88229500  1
  Ge  Ge11  1  0.30289000  0.36853200  0.38229500  1
  Ge  Ge12  1  0.48807800  0.36854000  0.68776700  1
  Ge  Ge13  1  0.48807800  0.63146000  0.18776700  1
  N  N0  1  0.76722200  0.85914800  0.79455800  1
  N  N1  1  0.76722200  0.14085200  0.29455800  1
  N  N2  1  0.58603600  0.12417000  0.98824500  1
  N  N3  1  0.58603600  0.87583000  0.48824500  1
  N  N4  1  0.33576500  0.87597300  0.87651400  1
  N  N5  1  0.33576500  0.12402700  0.37651400  1
  N  N6  1  0.13261400  0.14703300  0.05026100  1
  N  N7  1  0.13261400  0.85296700  0.55026100  1
  N  N8  1  0.29364200  0.51689100  0.72275800  1
  N  N9  1  0.29364200  0.48310900  0.22275800  1
  N  N10  1  0.45062500  0.12379800  0.68132700  1
  N  N11  1  0.45062500  0.87620200  0.18132700  1
  N  N12  1  0.88051300  0.39111400  0.12951200  1
  N  N13  1  0.88051300  0.60888600  0.62951200  1
  N  N14  1  0.07753900  0.57816800  0.94010700  1
  N  N15  1  0.07753900  0.42183200  0.44010700  1
  N  N16  1  0.70494800  0.41406600  0.82428900  1
  N  N17  1  0.70494800  0.58593400  0.32428900  1
  N  N18  1  0.49513100  0.54371400  0.02068300  1
  N  N19  1  0.49513100  0.45628600  0.52068300  1
loop_
_geom_bond_atom_site_label_1
_geom_bond_atom_site_label_2
_geom_bond_distance
_geom_bond_site_symmetry_2
Ge0 N0 1.825751 1_555
Ge0 N10 1.860905 1_565
Ge0 N4 1.891145 1_555
Ge0 N2 1.920566 1_565
Ge1 N1 1.825751 1_555
Ge1 N11 1.860905 1_545
Ge1 N5 1.891145 1_555
Ge1 N3 1.920566 1_545
Ge2 N6 1.839486 1_555
Ge2 N11 1.867516 1_545
Ge2 N4 1.882176 1_544
Ge2 N2 1.976559 1_554
Ge3 N7 1.839486 1_555
Ge3 N10 1.867516 1_565
Ge3 N5 1.882176 1_565
Ge3 N3 1.976559 1_555
Ge4 N12 1.859706 1_455
Ge4 N9 1.861274 1_555
Ge4 N6 1.868509 1_555
Ge4 N14 1.892122 1_554
Ge5 N13 1.859706 1_455
Ge5 N8 1.861274 1_555
Ge5 N7 1.868509 1_555
Ge5 N15 1.892122 1_555
Ge6 N18 1.808338 1_556
Ge6 N16 1.853035 1_555
Ge6 N12 1.858314 1_556
Ge6 N2 1.862654 1_555
Ge7 N19 1.808338 1_555
Ge7 N17 1.853035 1_555
Ge7 N13 1.858314 1_555
Ge7 N3 1.862654 1_555
Ge8 N16 1.847084 1_555
Ge8 N0 1.855314 1_555
Ge8 N14 1.868935 1_655
Ge8 N13 1.915689 1_555
Ge9 N17 1.847084 1_555
Ge9 N1 1.855314 1_555
Ge9 N15 1.868935 1_655
Ge9 N12 1.915689 1_555
Ge10 N4 1.821726 1_555
Ge10 N8 1.834926 1_555
Ge10 N14 1.845768 1_555
Ge10 N18 1.846716 1_556
Ge11 N5 1.821726 1_555
Ge11 N9 1.834926 1_555
Ge11 N15 1.845768 1_555
Ge11 N19 1.846716 1_555
Ge12 N10 1.824257 1_555
Ge12 N8 1.842294 1_555
Ge12 N19 1.847906 1_555
Ge12 N16 1.856638 1_555
Ge13 N11 1.824257 1_555
Ge13 N9 1.842294 1_555
Ge13 N18 1.847906 1_555
Ge13 N17 1.856638 1_555
N0 Zn0 2.070396 1_555
N1 Zn1 2.070396 1_555
N2 Zn1 2.375357 1_556
N3 Zn0 2.375357 1_555
N6 Zn1 2.082410 1_455
N7 Zn0 2.082410 1_455
N12 Zn1 2.241192 1_555
N13 Zn0 2.241192 1_555
