# generated using pymatgen
data_La2SbS5Br
_symmetry_space_group_name_H-M   'P 1'
_cell_length_a   5.51588700
_cell_length_b   8.99205700
_cell_length_c   18.07430600
_cell_angle_alpha   90.00000000
_cell_angle_beta   90.00000000
_cell_angle_gamma   90.00000000
_symmetry_Int_Tables_number   1
_chemical_formula_structural   La2SbS5Br
_chemical_formula_sum   'La8 Sb4 S20 Br4'
_cell_volume   896.47058152
_cell_formula_units_Z   4
loop_
 _symmetry_equiv_pos_site_id
 _symmetry_equiv_pos_as_xyz
  1  'x, y, z'
loop_
 _atom_site_type_symbol
 _atom_site_label
 _atom_site_symmetry_multiplicity
 _atom_site_fract_x
 _atom_site_fract_y
 _atom_site_fract_z
 _atom_site_occupancy
  La  La0  1  0.25000000  0.27441700  0.47031900  1
  La  La1  1  0.25000000  0.77441700  0.02968100  1
  La  La2  1  0.75000000  0.72558300  0.52968100  1
  La  La3  1  0.75000000  0.22558300  0.97031900  1
  La  La4  1  0.25000000  0.34458700  0.19982600  1
  La  La5  1  0.25000000  0.84458700  0.30017400  1
  La  La6  1  0.75000000  0.65541300  0.80017400  1
  La  La7  1  0.75000000  0.15541300  0.69982600  1
  Sb  Sb0  1  0.75000000  0.51382400  0.33093700  1
  Sb  Sb1  1  0.75000000  0.01382400  0.16906300  1
  Sb  Sb2  1  0.25000000  0.48617600  0.66906300  1
  Sb  Sb3  1  0.25000000  0.98617600  0.83093700  1
  S  S0  1  0.06122500  0.15486500  0.32673300  1
  S  S1  1  0.43877500  0.65486500  0.17326700  1
  S  S2  1  0.56122500  0.84513500  0.67326700  1
  S  S3  1  0.93877500  0.34513500  0.82673300  1
  S  S4  1  0.93877500  0.84513500  0.67326700  1
  S  S5  1  0.56122500  0.34513500  0.82673300  1
  S  S6  1  0.43877500  0.15486500  0.32673300  1
  S  S7  1  0.06122500  0.65486500  0.17326700  1
  S  S8  1  0.75000000  0.42647700  0.45728200  1
  S  S9  1  0.75000000  0.92647700  0.04271800  1
  S  S10  1  0.25000000  0.57352300  0.54271800  1
  S  S11  1  0.25000000  0.07352300  0.95728200  1
  S  S12  1  0.25000000  0.52033200  0.34638800  1
  S  S13  1  0.25000000  0.02033200  0.15361200  1
  S  S14  1  0.75000000  0.47966800  0.65361200  1
  S  S15  1  0.75000000  0.97966800  0.84638800  1
  S  S16  1  0.75000000  0.78180700  0.35777600  1
  S  S17  1  0.75000000  0.28180700  0.14222400  1
  S  S18  1  0.25000000  0.21819300  0.64222400  1
  S  S19  1  0.25000000  0.71819300  0.85777600  1
  Br  Br0  1  0.25000000  0.40368100  0.02801400  1
  Br  Br1  1  0.25000000  0.90368100  0.47198600  1
  Br  Br2  1  0.75000000  0.59631900  0.97198600  1
  Br  Br3  1  0.75000000  0.09631900  0.52801400  1
loop_
_geom_bond_atom_site_label_1
_geom_bond_atom_site_label_2
_geom_bond_distance
_geom_bond_site_symmetry_2
La0 S10 2.991014 1_555
La0 S6 2.995838 1_555
La0 S0 2.995838 1_555
La0 S8 3.087292 1_455
La0 S8 3.087292 1_555
La0 S12 3.147573 1_555
La0 S18 3.147927 1_555
La1 S11 2.991014 1_564
La1 S1 2.995838 1_555
La1 S7 2.995838 1_555
La1 S9 3.087292 1_555
La1 S9 3.087292 1_455
La1 S13 3.147573 1_565
La1 S19 3.147927 1_554
La2 S8 2.991014 1_555
La2 S4 2.995838 1_555
La2 S2 2.995838 1_555
La2 S10 3.087292 1_655
La2 S10 3.087292 1_555
La2 S14 3.147573 1_555
La2 S16 3.147927 1_555
La3 S9 2.991014 1_546
La3 S3 2.995838 1_555
La3 S5 2.995838 1_555
La3 S11 3.087292 1_555
La3 S11 3.087292 1_655
La3 S15 3.147573 1_545
La3 S17 3.147927 1_556
La4 S17 3.001476 1_455
La4 S17 3.001476 1_555
La4 S1 3.016450 1_555
La4 S7 3.016450 1_555
La4 S13 3.033006 1_555
La4 S6 3.042359 1_555
La4 S0 3.042359 1_555
La4 S12 3.084576 1_555
La5 S16 3.001476 1_455
La5 S16 3.001476 1_555
La5 S6 3.016450 1_565
La5 S0 3.016450 1_565
La5 S12 3.033006 1_555
La5 S1 3.042359 1_555
La5 S7 3.042359 1_555
La5 S13 3.084576 1_565
La6 S19 3.001476 1_555
La6 S19 3.001476 1_655
La6 S3 3.016450 1_555
La6 S5 3.016450 1_555
La6 S15 3.033006 1_555
La6 S4 3.042359 1_555
La6 S2 3.042359 1_555
La6 S14 3.084576 1_555
La7 S18 3.001476 1_555
La7 S18 3.001476 1_655
La7 S4 3.016450 1_545
La7 S2 3.016450 1_545
La7 S14 3.033006 1_555
La7 S3 3.042359 1_555
La7 S5 3.042359 1_555
La7 S15 3.084576 1_545
S0 S6 2.082523 1_555
S1 S7 2.082523 1_555
S2 S4 2.082523 1_555
S3 S5 2.082523 1_555
S8 Sb0 2.414895 1_555
S9 Sb1 2.414895 1_565
S10 Sb2 2.414895 1_555
S11 Sb3 2.414895 1_545
S12 Sb0 2.772664 1_455
S12 Sb0 2.772664 1_555
S13 Sb1 2.772664 1_455
S13 Sb1 2.772664 1_555
S14 Sb2 2.772664 1_555
S14 Sb2 2.772664 1_655
S15 Sb3 2.772664 1_555
S15 Sb3 2.772664 1_655
S16 Sb0 2.458060 1_555
S17 Sb1 2.458060 1_555
S18 Sb2 2.458060 1_555
S19 Sb3 2.458060 1_555
Br0 La4 3.150518 1_555
Br0 La1 3.333815 1_555
Br0 La3 3.355350 1_454
Br0 La3 3.355350 1_554
Br1 La5 3.150518 1_555
Br1 La0 3.333815 1_565
Br1 La2 3.355350 1_555
Br1 La2 3.355350 1_455
Br2 La6 3.150518 1_555
Br2 La3 3.333815 1_555
Br2 La1 3.355350 1_556
Br2 La1 3.355350 1_656
Br3 La7 3.150518 1_555
Br3 La2 3.333815 1_545
Br3 La0 3.355350 1_555
Br3 La0 3.355350 1_655
