# generated using pymatgen
data_TbAlFe2
_symmetry_space_group_name_H-M   'P 1'
_cell_length_a   5.30592070
_cell_length_b   5.30515300
_cell_length_c   16.32217501
_cell_angle_alpha   90.00000000
_cell_angle_beta   90.00446792
_cell_angle_gamma   60.00479237
_symmetry_Int_Tables_number   1
_chemical_formula_structural   TbAlFe2
_chemical_formula_sum   'Tb6 Al6 Fe12'
_cell_volume   397.91315712
_cell_formula_units_Z   6
loop_
 _symmetry_equiv_pos_site_id
 _symmetry_equiv_pos_as_xyz
  1  'x, y, z'
loop_
 _atom_site_type_symbol
 _atom_site_label
 _atom_site_symmetry_multiplicity
 _atom_site_fract_x
 _atom_site_fract_y
 _atom_site_fract_z
 _atom_site_occupancy
  Tb  Tb0  1  0.33334200  0.33332900  0.03124400  1
  Tb  Tb1  1  0.66665800  0.66667100  0.96875600  1
  Tb  Tb2  1  0.66674300  0.66662800  0.53329000  1
  Tb  Tb3  1  0.33325700  0.33337200  0.46671000  1
  Tb  Tb4  1  0.33330300  0.33334800  0.26085700  1
  Tb  Tb5  1  0.66669700  0.66665200  0.73914300  1
  Al  Al0  1  0.83561900  0.32882500  0.13479100  1
  Al  Al1  1  0.32884000  0.83558000  0.13480200  1
  Al  Al2  1  0.83561900  0.83555500  0.13479100  1
  Al  Al3  1  0.16438100  0.67117500  0.86520900  1
  Al  Al4  1  0.67116000  0.16442000  0.86519800  1
  Al  Al5  1  0.16438100  0.16444500  0.86520900  1
  Fe  Fe0  1  0.33341900  0.33329000  0.73898900  1
  Fe  Fe1  1  0.66658100  0.66671000  0.26101100  1
  Fe  Fe2  1  0.99998000  0.00001000  0.73794000  1
  Fe  Fe3  1  0.00002000  0.99999000  0.26206000  1
  Fe  Fe4  1  0.00000000  0.00000000  0.50000000  1
  Fe  Fe5  1  0.00000000  0.00000000  0.00000000  1
  Fe  Fe6  1  0.16562100  0.66840700  0.62540300  1
  Fe  Fe7  1  0.66856300  0.16571900  0.62539600  1
  Fe  Fe8  1  0.16562100  0.16597300  0.62540300  1
  Fe  Fe9  1  0.83437900  0.33159300  0.37459700  1
  Fe  Fe10  1  0.33143700  0.83428100  0.37460400  1
  Fe  Fe11  1  0.83437900  0.83402700  0.37459700  1
loop_
_geom_bond_atom_site_label_1
_geom_bond_atom_site_label_2
_geom_bond_distance
_geom_bond_site_symmetry_2
Tb0 Tb1 3.228431 1_554
Tb0 Tb1 3.228432 1_544
Tb0 Tb1 3.228835 1_454
Tb0 Tb4 3.747784 1_555
Tb1 Tb5 3.747784 1_555
Tb2 Tb3 3.249993 1_655
Tb2 Tb3 3.250424 1_555
Tb2 Tb3 3.250433 1_565
Tb2 Tb5 3.359969 1_555
Tb3 Tb4 3.359969 1_555
Al0 Fe3 2.568590 1_645
Al0 Fe1 2.579682 1_555
Al0 Al2 2.616873 1_545
Al0 Al1 2.617055 1_645
Al0 Fe5 2.668943 1_655
Al0 Al2 2.688280 1_555
Al0 Al1 2.688866 1_555
Al0 Tb1 3.123069 1_554
Al0 Tb0 3.145645 1_655
Al0 Tb0 3.145652 1_555
Al0 Tb4 3.357118 1_655
Al0 Tb4 3.357834 1_555
Al1 Fe3 2.568698 1_555
Al1 Fe1 2.579108 1_555
Al1 Al2 2.617058 1_455
Al1 Fe5 2.669085 1_565
Al1 Al2 2.688863 1_555
Al1 Tb1 3.123454 1_554
Al1 Tb0 3.145423 1_565
Al1 Tb0 3.145423 1_555
Al1 Tb4 3.357057 1_565
Al1 Tb4 3.357061 1_555
Al2 Fe3 2.568593 1_655
Al2 Fe1 2.579677 1_555
Al2 Fe5 2.668945 1_665
Al2 Tb1 3.123066 1_554
Al2 Tb0 3.145643 1_655
Al2 Tb0 3.145654 1_565
Al2 Tb4 3.357118 1_655
Al2 Tb4 3.357834 1_565
Al3 Fe2 2.568590 1_465
Al3 Fe0 2.579682 1_555
Al3 Al5 2.616873 1_565
Al3 Al4 2.617055 1_465
Al3 Fe5 2.668943 1_566
Al3 Al5 2.688280 1_555
Al3 Al4 2.688866 1_555
Al3 Tb0 3.123069 1_556
Al3 Tb1 3.145645 1_455
Al3 Tb1 3.145652 1_555
Al3 Tb5 3.357118 1_455
Al3 Tb5 3.357834 1_555
Al4 Fe2 2.568698 1_555
Al4 Fe0 2.579108 1_555
Al4 Al5 2.617058 1_655
Al4 Fe5 2.669085 1_656
Al4 Al5 2.688863 1_555
Al4 Tb0 3.123454 1_556
Al4 Tb1 3.145423 1_545
Al4 Tb1 3.145423 1_555
Al4 Tb5 3.357057 1_545
Al4 Tb5 3.357061 1_555
Al5 Fe2 2.568593 1_455
Al5 Fe0 2.579677 1_555
Al5 Fe5 2.668945 1_556
Al5 Tb0 3.123066 1_556
Al5 Tb1 3.145643 1_455
Al5 Tb1 3.145654 1_545
Al5 Tb5 3.357118 1_455
Al5 Tb5 3.357834 1_545
Fe0 Fe8 2.409918 1_555
Fe0 Fe6 2.409924 1_555
Fe0 Fe7 2.410394 1_555
Fe0 Tb5 3.062949 1_545
Fe0 Tb5 3.062958 1_555
Fe0 Tb5 3.063778 1_455
Fe1 Fe11 2.409918 1_555
Fe1 Fe9 2.409924 1_555
Fe1 Fe10 2.410394 1_555
Fe1 Tb4 3.062949 1_565
Fe1 Tb4 3.062958 1_555
Fe1 Tb4 3.063778 1_655
Fe2 Fe7 2.386068 1_555
Fe2 Fe6 2.386543 1_645
Fe2 Fe8 2.386546 1_655
Fe2 Tb5 3.063025 1_545
Fe2 Tb5 3.063030 1_555
Fe2 Tb5 3.063815 1_645
Fe3 Fe9 2.386543 1_465
Fe3 Tb4 3.063025 1_565
Fe3 Tb4 3.063030 1_555
Fe3 Tb4 3.063815 1_465
Fe4 Fe7 2.551345 1_455
Fe4 Fe6 2.551568 1_545
Fe4 Fe9 2.551568 1_455
Fe4 Fe8 2.551571 1_555
Fe4 Tb2 3.110750 1_455
Fe4 Tb3 3.110750 1_545
Fe4 Tb3 3.110754 1_555
Fe4 Tb2 3.110754 1_445
Fe4 Tb2 3.111634 1_545
Fe4 Tb3 3.111634 1_455
Fe5 Tb0 3.105238 1_555
Fe5 Tb1 3.105238 1_444
Fe5 Tb0 3.105239 1_545
Fe5 Tb1 3.105239 1_454
Fe5 Tb1 3.105685 1_544
Fe5 Tb0 3.105685 1_455
Fe6 Fe7 2.638024 1_465
Fe6 Fe8 2.639664 1_565
Fe6 Fe8 2.665489 1_555
Fe6 Fe7 2.667897 1_555
Fe6 Tb3 3.013171 1_555
Fe6 Tb2 3.048206 1_455
Fe6 Tb2 3.050559 1_555
Fe6 Tb5 3.237278 1_455
Fe6 Tb5 3.238769 1_555
Fe7 Fe8 2.638024 1_655
Fe7 Fe8 2.667897 1_555
Fe7 Tb3 3.013644 1_555
Fe7 Tb2 3.048987 1_555
Fe7 Tb2 3.048997 1_545
Fe7 Tb5 3.237776 1_545
Fe7 Tb5 3.237776 1_555
Fe8 Tb3 3.013171 1_555
Fe8 Tb2 3.048201 1_455
Fe8 Tb2 3.050564 1_545
Fe8 Tb5 3.237278 1_455
Fe8 Tb5 3.238769 1_545
Fe9 Tb2 3.013171 1_555
Fe9 Tb3 3.048206 1_655
Fe9 Tb3 3.050559 1_555
Fe9 Tb4 3.237278 1_655
Fe9 Tb4 3.238769 1_555
Fe10 Fe3 2.386068 1_555
Fe10 Fe4 2.551345 1_565
Fe10 Fe11 2.638024 1_455
Fe10 Fe9 2.638024 1_465
Fe10 Fe11 2.667897 1_555
Fe10 Fe9 2.667897 1_555
Fe10 Tb2 3.013644 1_555
Fe10 Tb3 3.048987 1_555
Fe10 Tb3 3.048997 1_565
Fe10 Tb4 3.237776 1_565
Fe10 Tb4 3.237776 1_555
Fe11 Fe3 2.386546 1_655
Fe11 Fe4 2.551571 1_665
Fe11 Fe9 2.639664 1_565
Fe11 Fe9 2.665489 1_555
Fe11 Tb2 3.013171 1_555
Fe11 Tb3 3.048201 1_655
Fe11 Tb3 3.050564 1_565
Fe11 Tb4 3.237278 1_655
Fe11 Tb4 3.238769 1_565
