# generated using pymatgen
data_Fe2Pb3N4
_symmetry_space_group_name_H-M   'P 1'
_cell_length_a   8.78454484
_cell_length_b   7.91966252
_cell_length_c   5.33988738
_cell_angle_alpha   89.99999903
_cell_angle_beta   71.21664724
_cell_angle_gamma   116.79325873
_symmetry_Int_Tables_number   1
_chemical_formula_structural   Fe2Pb3N4
_chemical_formula_sum   'Fe4 Pb6 N8'
_cell_volume   309.28879298
_cell_formula_units_Z   2
loop_
 _symmetry_equiv_pos_site_id
 _symmetry_equiv_pos_as_xyz
  1  'x, y, z'
loop_
 _atom_site_type_symbol
 _atom_site_label
 _atom_site_symmetry_multiplicity
 _atom_site_fract_x
 _atom_site_fract_y
 _atom_site_fract_z
 _atom_site_occupancy
  Fe  Fe0  1  0.55608000  0.16203200  0.54099300  1
  Fe  Fe1  1  0.44392000  0.60595400  0.95900700  1
  Fe  Fe2  1  0.44392000  0.83796800  0.45900700  1
  Fe  Fe3  1  0.55608000  0.39404600  0.04099300  1
  Pb  Pb0  1  0.24593800  0.94438600  0.11961400  1
  Pb  Pb1  1  0.75406200  0.69844900  0.38038600  1
  Pb  Pb2  1  0.75406200  0.05561400  0.88038600  1
  Pb  Pb3  1  0.24593800  0.30155100  0.61961400  1
  Pb  Pb4  1  0.00000000  0.62567800  0.75000000  1
  Pb  Pb5  1  0.00000000  0.37432200  0.25000000  1
  N  N0  1  0.31932700  0.96217700  0.62651800  1
  N  N1  1  0.68067300  0.64285000  0.87348200  1
  N  N2  1  0.68067300  0.03782300  0.37348200  1
  N  N3  1  0.31932700  0.35715000  0.12651800  1
  N  N4  1  0.59985400  0.23339100  0.83943200  1
  N  N5  1  0.40014600  0.63353800  0.66056800  1
  N  N6  1  0.40014600  0.76660900  0.16056800  1
  N  N7  1  0.59985400  0.36646200  0.33943200  1
loop_
_geom_bond_atom_site_label_1
_geom_bond_atom_site_label_2
_geom_bond_distance
_geom_bond_site_symmetry_2
Fe0 N7 1.760604 1_555
Fe0 N4 1.790426 1_555
Fe0 N2 1.818202 1_555
Fe0 N0 1.860058 1_545
Fe1 N6 1.760598 1_556
Fe1 N5 1.790424 1_555
Fe1 N3 1.818215 1_556
Fe1 N1 1.860064 1_555
Fe2 N5 1.760604 1_555
Fe2 N6 1.790426 1_555
Fe2 N0 1.818202 1_555
Fe2 N2 1.860058 1_565
Fe3 N4 1.760598 1_554
Fe3 N7 1.790424 1_555
Fe3 N1 1.818215 1_554
Fe3 N3 1.860064 1_555
N0 Pb0 2.488676 1_556
N0 Pb4 2.734024 1_555
N1 Pb1 2.488677 1_555
N1 Pb4 2.734024 1_655
N2 Pb2 2.488676 1_554
N2 Pb5 2.734024 1_655
N3 Pb3 2.488677 1_555
N3 Pb5 2.734024 1_555
N4 Pb2 2.403211 1_555
N4 Pb0 2.780678 1_546
N5 Pb3 2.403225 1_555
N5 Pb1 2.780678 1_555
N6 Pb0 2.403211 1_555
N6 Pb2 2.780678 1_564
N7 Pb1 2.403225 1_555
N7 Pb3 2.780678 1_555
