# generated using pymatgen
data_LiCeSn
_symmetry_space_group_name_H-M   'P 1'
_cell_length_a   9.55322205
_cell_length_b   9.55322205
_cell_length_c   7.52898200
_cell_angle_alpha   90.00000000
_cell_angle_beta   90.00000000
_cell_angle_gamma   120.00000036
_symmetry_Int_Tables_number   1
_chemical_formula_structural   LiCeSn
_chemical_formula_sum   'Li8 Ce8 Sn8'
_cell_volume   595.06805117
_cell_formula_units_Z   8
loop_
 _symmetry_equiv_pos_site_id
 _symmetry_equiv_pos_as_xyz
  1  'x, y, z'
loop_
 _atom_site_type_symbol
 _atom_site_label
 _atom_site_symmetry_multiplicity
 _atom_site_fract_x
 _atom_site_fract_y
 _atom_site_fract_z
 _atom_site_occupancy
  Li  Li0  1  0.33370900  0.16685500  0.71293700  1
  Li  Li1  1  0.83314500  0.16685500  0.71293700  1
  Li  Li2  1  0.16685500  0.83314500  0.21293700  1
  Li  Li3  1  0.66629100  0.83314500  0.21293700  1
  Li  Li4  1  0.83314500  0.66629100  0.71293700  1
  Li  Li5  1  0.16685500  0.33370900  0.21293700  1
  Li  Li6  1  0.66666700  0.33333300  0.32989300  1
  Li  Li7  1  0.33333300  0.66666700  0.82989300  1
  Ce  Ce0  1  0.00000000  0.00000000  0.50263200  1
  Ce  Ce1  1  0.00000000  0.00000000  0.00263200  1
  Ce  Ce2  1  0.02389400  0.51194700  0.50476400  1
  Ce  Ce3  1  0.48805300  0.51194700  0.50476400  1
  Ce  Ce4  1  0.51194700  0.48805300  0.00476400  1
  Ce  Ce5  1  0.97610600  0.48805300  0.00476400  1
  Ce  Ce6  1  0.48805300  0.97610600  0.50476400  1
  Ce  Ce7  1  0.51194700  0.02389400  0.00476400  1
  Sn  Sn0  1  0.33351600  0.16675800  0.27121600  1
  Sn  Sn1  1  0.83324200  0.16675800  0.27121600  1
  Sn  Sn2  1  0.16675800  0.83324200  0.77121600  1
  Sn  Sn3  1  0.66648400  0.83324200  0.77121600  1
  Sn  Sn4  1  0.83324200  0.66648400  0.27121600  1
  Sn  Sn5  1  0.16675800  0.33351600  0.77121600  1
  Sn  Sn6  1  0.66666700  0.33333300  0.72973300  1
  Sn  Sn7  1  0.33333300  0.66666700  0.22973300  1
loop_
_geom_bond_atom_site_label_1
_geom_bond_atom_site_label_2
_geom_bond_distance
_geom_bond_site_symmetry_2
Li0 Sn6 2.757573 1_555
Li0 Sn5 2.794743 1_555
Li0 Sn2 2.794751 1_545
Li0 Sn0 3.325710 1_555
Li1 Sn6 2.757557 1_555
Li1 Sn5 2.794751 1_655
Li1 Sn3 2.794751 1_545
Li1 Sn1 3.325710 1_555
Li2 Sn7 2.757557 1_555
Li2 Sn4 2.794751 1_455
Li2 Sn0 2.794751 1_565
Li2 Sn2 3.325710 1_554
Li3 Sn7 2.757573 1_555
Li3 Sn4 2.794743 1_555
Li3 Sn1 2.794751 1_565
Li3 Sn3 3.325710 1_554
Li4 Sn6 2.757573 1_555
Li4 Sn3 2.794743 1_555
Li4 Sn2 2.794751 1_655
Li4 Sn4 3.325710 1_555
Li5 Sn7 2.757573 1_555
Li5 Sn0 2.794743 1_555
Li5 Sn1 2.794751 1_455
Li5 Sn5 3.325710 1_554
Li6 Sn1 2.791441 1_555
Li6 Sn4 2.791449 1_555
Li6 Sn0 2.791449 1_555
Li6 Sn6 3.010388 1_555
Li7 Sn2 2.791441 1_555
Li7 Sn3 2.791449 1_555
Li7 Sn5 2.791449 1_555
Li7 Sn7 3.010388 1_556
Ce0 Li0 3.182702 1_555
Ce0 Li4 3.182702 1_445
Ce0 Li1 3.182709 1_455
Ce0 Sn0 3.263339 1_555
Ce0 Sn4 3.263339 1_445
Ce0 Sn1 3.263339 1_455
Ce0 Sn5 3.420939 1_555
Ce0 Sn3 3.420939 1_445
Ce0 Sn2 3.420939 1_545
Ce1 Li5 3.182702 1_555
Ce1 Li3 3.182702 1_445
Ce1 Li2 3.182709 1_545
Ce1 Sn5 3.263339 1_554
Ce1 Sn3 3.263339 1_444
Ce1 Sn2 3.263339 1_544
Ce1 Sn0 3.420939 1_555
Ce1 Sn4 3.420939 1_445
Ce1 Sn1 3.420939 1_455
Ce2 Li6 3.235455 1_455
Ce2 Li1 3.261616 1_455
Ce2 Li4 3.261623 1_455
Ce2 Sn7 3.292702 1_555
Ce2 Sn2 3.334557 1_555
Ce2 Sn5 3.334557 1_555
Ce2 Sn1 3.358215 1_455
Ce2 Sn4 3.358215 1_455
Ce2 Sn6 3.406413 1_455
Ce2 Li2 3.452182 1_555
Ce2 Li5 3.452189 1_555
Ce2 Li7 3.542067 1_555
Ce3 Li6 3.235463 1_555
Ce3 Li0 3.261616 1_555
Ce3 Li4 3.261616 1_555
Ce3 Sn7 3.292708 1_555
Ce3 Sn5 3.334557 1_555
Ce3 Sn3 3.334557 1_555
Ce3 Sn0 3.358215 1_555
Ce3 Sn4 3.358215 1_555
Ce3 Sn6 3.406420 1_555
Ce3 Li5 3.452183 1_555
Ce3 Li3 3.452183 1_555
Ce3 Li7 3.542073 1_555
Ce4 Li7 3.235463 1_554
Ce4 Li5 3.261616 1_555
Ce4 Li3 3.261616 1_555
Ce4 Sn6 3.292708 1_554
Ce4 Sn0 3.334557 1_555
Ce4 Sn4 3.334557 1_555
Ce4 Sn5 3.358215 1_554
Ce4 Sn3 3.358215 1_554
Ce4 Sn7 3.406420 1_555
Ce4 Li0 3.452183 1_554
Ce4 Li4 3.452183 1_554
Ce4 Li6 3.542073 1_555
Ce5 Li7 3.235455 1_654
Ce5 Li2 3.261616 1_655
Ce5 Li5 3.261623 1_655
Ce5 Sn6 3.292702 1_554
Ce5 Sn1 3.334557 1_555
Ce5 Sn4 3.334557 1_555
Ce5 Sn2 3.358215 1_654
Ce5 Sn5 3.358215 1_654
Ce5 Sn7 3.406413 1_655
Ce5 Li1 3.452182 1_554
Ce5 Li4 3.452189 1_554
Ce5 Li6 3.542067 1_555
Ce6 Li6 3.235455 1_565
Ce6 Li1 3.261616 1_565
Ce6 Li0 3.261623 1_565
Ce6 Sn7 3.292702 1_555
Ce6 Sn2 3.334557 1_555
Ce6 Sn3 3.334557 1_555
Ce6 Sn1 3.358215 1_565
Ce6 Sn0 3.358215 1_565
Ce6 Sn6 3.406413 1_565
Ce6 Li2 3.452182 1_555
Ce6 Li3 3.452189 1_555
Ce6 Li7 3.542067 1_555
Ce7 Li7 3.235455 1_544
Ce7 Li2 3.261616 1_545
Ce7 Li3 3.261623 1_545
Ce7 Sn6 3.292702 1_554
Ce7 Sn1 3.334557 1_555
Ce7 Sn0 3.334557 1_555
Ce7 Sn2 3.358215 1_544
Ce7 Sn3 3.358215 1_544
Ce7 Sn7 3.406413 1_545
Ce7 Li1 3.452182 1_554
Ce7 Li0 3.452189 1_554
Ce7 Li6 3.542067 1_555
