# generated using pymatgen
data_Mg(BH4)2
_symmetry_space_group_name_H-M   'P 1'
_cell_length_a   7.53817521
_cell_length_b   7.53817521
_cell_length_c   7.75206903
_cell_angle_alpha   116.08686984
_cell_angle_beta   116.08686984
_cell_angle_gamma   95.48462439
_symmetry_Int_Tables_number   1
_chemical_formula_structural   Mg(BH4)2
_chemical_formula_sum   'Mg2 B4 H16'
_cell_volume   331.74696972
_cell_formula_units_Z   2
loop_
 _symmetry_equiv_pos_site_id
 _symmetry_equiv_pos_as_xyz
  1  'x, y, z'
loop_
 _atom_site_type_symbol
 _atom_site_label
 _atom_site_symmetry_multiplicity
 _atom_site_fract_x
 _atom_site_fract_y
 _atom_site_fract_z
 _atom_site_occupancy
  Mg  Mg0  1  0.25000000  0.75000000  0.50000000  1
  Mg  Mg1  1  0.00000000  0.00000000  -0.00000000  1
  B  B0  1  0.15468492  0.37950726  0.23750346  1
  B  B1  1  0.08281854  0.85799620  0.23750346  1
  B  B2  1  0.14200380  0.91718146  0.76249654  1
  B  B3  1  0.62049274  0.84531508  0.76249654  1
  H  H0  1  0.99256982  0.28720119  0.04945085  1
  H  H1  1  0.05688003  0.76224966  0.04945085  1
  H  H2  1  0.23775034  0.94311997  0.95054915  1
  H  H3  1  0.71279881  0.00743018  0.95054915  1
  H  H4  1  0.10312079  0.44591786  0.37632160  1
  H  H5  1  0.27320080  0.93040374  0.37632160  1
  H  H6  1  0.06959626  0.72679920  0.62367840  1
  H  H7  1  0.55408214  0.89687921  0.62367840  1
  H  H8  1  0.25507110  0.27037141  0.27672531  1
  H  H9  1  0.02165421  0.00635390  0.27672531  1
  H  H10  1  0.99364610  0.97834579  0.72327469  1
  H  H11  1  0.72962859  0.74492890  0.72327469  1
  H  H12  1  0.26741880  0.51479606  0.24720269  1
  H  H13  1  0.97978289  0.73240664  0.24720269  1
  H  H14  1  0.26759336  0.02021711  0.75279731  1
  H  H15  1  0.48520394  0.73258120  0.75279731  1
loop_
_geom_bond_atom_site_label_1
_geom_bond_atom_site_label_2
_geom_bond_distance
_geom_bond_site_symmetry_2
B0 H8 1.215951 1_555
B0 H12 1.215969 1_555
B0 H0 1.217099 1_455
B0 H4 1.221078 1_555
B1 H9 1.215951 1_565
B1 H13 1.215973 1_455
B1 H1 1.217095 1_555
B1 H5 1.221078 1_555
B2 H10 1.215951 1_455
B2 H14 1.215973 1_565
B2 H2 1.217095 1_555
B2 H6 1.221078 1_555
B3 H11 1.215951 1_555
B3 H15 1.215969 1_555
B3 H3 1.217099 1_565
B3 H7 1.221078 1_555
H0 Mg1 2.036998 1_655
H1 Mg1 2.036997 1_565
H2 Mg1 2.036997 1_566
H3 Mg1 2.036998 1_656
H4 Mg0 2.011932 1_555
H5 Mg0 2.011932 1_555
H6 Mg0 2.011932 1_555
H7 Mg0 2.011932 1_555
H8 Mg1 2.056934 1_555
H9 Mg1 2.056934 1_555
H10 Mg1 2.056934 1_666
H11 Mg1 2.056934 1_666
H12 Mg0 2.053357 1_555
H13 Mg0 2.053361 1_655
H14 Mg0 2.053361 1_545
H15 Mg0 2.053357 1_555
