# generated using pymatgen
data_Li5V3P8O29
_symmetry_space_group_name_H-M   'P 1'
_cell_length_a   9.79589792
_cell_length_b   9.79847463
_cell_length_c   14.11378863
_cell_angle_alpha   90.13070532
_cell_angle_beta   90.51409744
_cell_angle_gamma   60.09985809
_symmetry_Int_Tables_number   1
_chemical_formula_structural   Li5V3P8O29
_chemical_formula_sum   'Li10 V6 P16 O58'
_cell_volume   1174.34098380
_cell_formula_units_Z   2
loop_
 _symmetry_equiv_pos_site_id
 _symmetry_equiv_pos_as_xyz
  1  'x, y, z'
loop_
 _atom_site_type_symbol
 _atom_site_label
 _atom_site_symmetry_multiplicity
 _atom_site_fract_x
 _atom_site_fract_y
 _atom_site_fract_z
 _atom_site_occupancy
  Li  Li0  1  0.67782626  0.66440155  0.39372172  1
  Li  Li1  1  0.77007162  0.31903847  0.05761679  1
  Li  Li2  1  0.31780330  0.90907163  0.05972012  1
  Li  Li3  1  0.66897500  0.23166427  0.44221929  1
  Li  Li4  1  0.31877100  0.77064753  0.56223905  1
  Li  Li5  1  0.68484188  0.08555168  0.93425679  1
  Li  Li6  1  0.22666635  0.67952254  0.94530011  1
  Li  Li7  1  0.23232369  0.10261434  0.44586609  1
  Li  Li8  1  0.09363235  0.23073177  0.93475000  1
  Li  Li9  1  0.97001512  0.98221156  0.50305643  1
  V  V0  1  0.56874410  0.43116425  0.25219548  1
  V  V1  1  0.43256872  0.56569417  0.74792928  1
  V  V2  1  0.57165156  0.99459734  0.74935510  1
  V  V3  1  0.43197671  0.00380114  0.24771578  1
  V  V4  1  0.00510293  0.56964361  0.25152611  1
  V  V5  1  0.99738454  0.43644566  0.74396195  1
  P  P0  1  0.91864494  0.76709715  0.84099969  1
  P  P1  1  0.77925472  0.91214162  0.33687595  1
  P  P2  1  0.91598459  0.30907554  0.34055949  1
  P  P3  1  0.66890527  0.66323637  0.13117533  1
  P  P4  1  0.66248922  0.66646014  0.62958205  1
  P  P5  1  0.77086845  0.32001495  0.83933701  1
  P  P6  1  0.68425778  0.22601233  0.65816444  1
  P  P7  1  0.32075737  0.90973027  0.84162655  1
  P  P8  1  0.68116432  0.08735846  0.15369843  1
  P  P9  1  0.32141920  0.77434354  0.34391756  1
  P  P10  1  0.23129732  0.68239570  0.16274880  1
  P  P11  1  0.33277636  0.33178859  0.37312595  1
  P  P12  1  0.33707560  0.33133003  0.86932594  1
  P  P13  1  0.08062423  0.69539359  0.65530270  1
  P  P14  1  0.22788716  0.08740712  0.66030545  1
  P  P15  1  0.08218694  0.23512841  0.15569330  1
  O  O0  1  0.01131309  0.79588022  0.57032047  1
  O  O1  1  0.92107190  0.74026547  0.33639685  1
  O  O2  1  0.74316283  0.01300694  0.06091203  1
  O  O3  1  0.74986921  0.91143616  0.84066395  1
  O  O4  1  0.90974072  0.61575032  0.82051581  1
  O  O5  1  0.81541022  0.66053121  0.18234740  1
  O  O6  1  0.90437791  0.47280517  0.33328626  1
  O  O7  1  0.99881969  0.24730754  0.06363607  1
  O  O8  1  0.91806400  0.33741331  0.84001517  1
  O  O9  1  0.66934777  0.80847247  0.67160088  1
  O  O10  1  0.62809842  0.89963140  0.33123701  1
  O  O11  1  0.80381643  0.51437906  0.66893299  1
  O  O12  1  0.67683054  0.65668483  0.02604717  1
  O  O13  1  0.64258229  0.67220807  0.52352289  1
  O  O14  1  0.67107152  0.51095748  0.17116692  1
  O  O15  1  0.47955332  0.90080465  0.82525710  1
  O  O16  1  0.51562798  0.81396602  0.16740036  1
  O  O17  1  0.74405590  0.33765129  0.34233817  1
  O  O18  1  0.79270810  0.20978938  0.74894503  1
  O  O19  1  0.76423050  0.21762460  0.56698016  1
  O  O20  1  0.75498507  0.24540537  0.92845467  1
  O  O21  1  0.61957311  0.48037979  0.81970446  1
  O  O22  1  0.50561516  0.67360351  0.67060228  1
  O  O23  1  0.66627814  0.25187138  0.16337281  1
  O  O24  1  0.48598409  0.62796509  0.32889613  1
  O  O25  1  0.34198915  0.92217526  0.33662778  1
  O  O26  1  0.79794147  0.98580272  0.23897689  1
  O  O27  1  0.79157910  0.00535707  0.41707292  1
  O  O28  1  0.22097682  0.00403362  0.57168179  1
  O  O29  1  0.65377774  0.08746749  0.66840331  1
  O  O30  1  0.52758075  0.38427049  0.67222918  1
  O  O31  1  0.33994939  0.74204970  0.84161193  1
  O  O32  1  0.48546844  0.32833451  0.33628048  1
  O  O33  1  0.38165546  0.52208701  0.18018247  1
  O  O34  1  0.23990722  0.75939345  0.07326013  1
  O  O35  1  0.23946182  0.77935631  0.43315171  1
  O  O36  1  0.21240333  0.79196372  0.25258694  1
  O  O37  1  0.25650200  0.66250021  0.66598863  1
  O  O38  1  0.49087513  0.18278801  0.83506596  1
  O  O39  1  0.52069151  0.09890773  0.17940084  1
  O  O40  1  0.33689321  0.48139678  0.82149588  1
  O  O41  1  0.33523184  0.35241480  0.97437388  1
  O  O42  1  0.32316963  0.33709339  0.47828146  1
  O  O43  1  0.18606007  0.48037082  0.32385133  1
  O  O44  1  0.38080054  0.09055596  0.67210575  1
  O  O45  1  0.32470845  0.18747275  0.33208571  1
  O  O46  1  0.08478609  0.66145531  0.16701226  1
  O  O47  1  0.99818334  0.79625357  0.74887828  1
  O  O48  1  0.01172360  0.75781169  0.92665315  1
  O  O49  1  0.08124428  0.53969069  0.66314483  1
  O  O50  1  0.18941641  0.32857980  0.82988601  1
  O  O51  1  0.09276520  0.38356013  0.17890068  1
  O  O52  1  0.24752701  0.08556413  0.15877520  1
  O  O53  1  0.24163749  0.99712240  0.93095013  1
  O  O54  1  0.20897278  0.99601719  0.75124009  1
  O  O55  1  0.08480340  0.25518645  0.66668124  1
  O  O56  1  0.01112868  0.20428282  0.41995119  1
  O  O57  1  0.98425718  0.21769298  0.24083921  1
loop_
_geom_bond_atom_site_label_1
_geom_bond_atom_site_label_2
_geom_bond_distance
_geom_bond_site_symmetry_2
Li0 O13 1.861613 1_555
Li0 O6 2.247240 1_555
Li0 O24 2.265564 1_555
Li0 O10 2.282487 1_555
Li1 O7 1.987218 1_555
Li1 O20 1.990243 1_554
Li1 O23 2.096112 1_555
Li1 O14 2.289360 1_555
Li2 O34 1.972153 1_555
Li2 O53 1.986240 1_554
Li2 O52 2.058746 1_565
Li2 O16 2.255363 1_555
Li3 O19 1.958023 1_555
Li3 O27 1.958174 1_555
Li3 O17 2.096065 1_555
Li3 O32 2.150555 1_555
Li4 O35 1.959448 1_555
Li4 O28 1.995457 1_565
Li4 O37 2.075261 1_555
Li4 O22 2.194211 1_555
Li5 O2 1.899928 1_556
Li5 O3 1.995664 1_545
Li5 O20 2.001696 1_555
Li5 O38 2.152076 1_555
Li6 O48 1.863264 1_555
Li6 O34 1.995369 1_556
Li6 O31 2.111758 1_555
Li6 O40 2.432367 1_555
Li7 O56 1.912230 1_555
Li7 O28 2.053545 1_555
Li7 O25 2.186482 1_545
Li7 O45 2.207166 1_555
Li8 O8 2.002766 1_455
Li8 O53 2.009144 1_545
Li8 O7 2.019059 1_456
Li8 O50 2.217740 1_555
Li9 O0 1.913889 1_655
Li9 O27 2.036520 1_565
Li9 O19 2.363404 1_565
O0 P13 1.480995 1_555
O1 P1 1.560072 1_555
O1 V4 1.882548 1_655
O2 P8 1.477624 1_555
O3 P0 1.549961 1_555
O3 V2 1.979580 1_555
O4 P0 1.554650 1_555
O4 V5 1.869598 1_555
O5 P3 1.589192 1_555
O5 V4 1.876408 1_655
O6 P2 1.554327 1_555
O6 V4 2.040673 1_655
O7 P15 1.501264 1_655
O8 P5 1.533976 1_555
O8 V5 2.039568 1_555
O9 P4 1.543122 1_555
O9 V2 1.927653 1_555
O10 P1 1.546825 1_555
O10 V3 2.032776 1_565
O11 P4 1.542358 1_555
O11 V5 1.955510 1_555
O12 P3 1.486050 1_555
O13 P4 1.505356 1_555
O14 P3 1.586651 1_555
O14 V0 1.931307 1_555
O15 P7 1.533454 1_555
O15 V2 1.911705 1_555
O16 P3 1.580067 1_555
O16 V3 1.975803 1_565
O17 P2 1.564009 1_555
O17 V0 1.950576 1_555
O18 P6 1.613585 1_555
O18 P5 1.614963 1_555
O19 P6 1.493369 1_555
O20 P5 1.503928 1_555
O21 P5 1.554099 1_555
O21 V1 1.877397 1_555
O22 P4 1.615594 1_555
O22 V1 1.895967 1_555
O23 P8 1.550282 1_555
O23 V0 1.977062 1_555
O24 P9 1.549334 1_555
O24 V0 1.998819 1_555
O25 P9 1.562518 1_555
O25 V3 1.928427 1_565
O26 P8 1.610382 1_565
O26 P1 1.613826 1_555
O27 P1 1.494237 1_545
O28 P14 1.511772 1_555
O29 P6 1.535803 1_555
O29 V2 1.879307 1_545
O30 P6 1.559132 1_555
O30 V1 1.878174 1_555
O31 P7 1.557845 1_555
O31 V1 2.001374 1_555
O32 P11 1.572345 1_555
O32 V0 1.982763 1_555
O33 P10 1.544657 1_555
O33 V0 1.878404 1_555
O34 P10 1.497082 1_555
O35 P9 1.487176 1_555
O36 P10 1.610739 1_555
O36 P9 1.619971 1_555
O37 P13 1.592761 1_555
O37 V1 1.884166 1_555
O38 P12 1.563889 1_555
O38 V2 2.010492 1_545
O39 P8 1.564671 1_555
O39 V3 1.838441 1_555
O40 P12 1.618565 1_555
O40 V1 1.852538 1_555
O41 P12 1.495509 1_555
O42 P11 1.487116 1_555
O43 P11 1.602941 1_555
O43 V4 1.837145 1_555
O44 P14 1.521198 1_555
O44 V2 1.945144 1_545
O45 P11 1.564681 1_555
O45 V3 1.971882 1_555
O46 P10 1.549434 1_555
O46 V4 1.887613 1_555
O47 P13 1.609541 1_655
O47 P0 1.618939 1_555
O48 P0 1.482929 1_455
O49 P13 1.526898 1_555
O49 V5 1.962122 1_455
O50 P12 1.557933 1_555
O50 V5 2.027092 1_455
O51 P15 1.542980 1_555
O51 V4 1.886498 1_555
O52 P15 1.550954 1_555
O52 V3 2.000750 1_555
O53 P7 1.508061 1_555
O54 P7 1.611878 1_555
O54 P14 1.630443 1_565
O55 P14 1.542608 1_555
O55 V5 1.889180 1_455
O56 P2 1.486927 1_455
O57 P15 1.605814 1_655
O57 P2 1.626041 1_555
