# generated using pymatgen
data_Na3LiMg4(Si2O5)6
_symmetry_space_group_name_H-M   'P 1'
_cell_length_a   10.31262999
_cell_length_b   10.31268048
_cell_length_c   14.34838362
_cell_angle_alpha   90.00023443
_cell_angle_beta   90.00013848
_cell_angle_gamma   59.88682488
_symmetry_Int_Tables_number   1
_chemical_formula_structural   Na3LiMg4(Si2O5)6
_chemical_formula_sum   'Na6 Li2 Mg8 Si24 O60'
_cell_volume   1320.01296546
_cell_formula_units_Z   2
loop_
 _symmetry_equiv_pos_site_id
 _symmetry_equiv_pos_as_xyz
  1  'x, y, z'
loop_
 _atom_site_type_symbol
 _atom_site_label
 _atom_site_symmetry_multiplicity
 _atom_site_fract_x
 _atom_site_fract_y
 _atom_site_fract_z
 _atom_site_occupancy
  Na  Na0  1  0.33329204  0.33116113  0.49999120  1
  Na  Na1  1  0.66884119  0.66674976  0.99999341  1
  Na  Na2  1  0.66670220  0.66883851  0.49999134  1
  Na  Na3  1  0.33115234  0.33324877  0.99999315  1
  Na  Na4  1  0.00000207  0.00000096  0.25000513  1
  Na  Na5  1  0.00000122  0.00000013  0.75000573  1
  Li  Li0  1  0.49999727  0.00000182  0.25007197  1
  Li  Li1  1  0.00001207  0.49999286  0.75007191  1
  Mg  Mg0  1  0.33841036  0.32293524  0.24994636  1
  Mg  Mg1  1  0.32294087  0.33840821  0.74994724  1
  Mg  Mg2  1  0.67706321  0.66159079  0.74994719  1
  Mg  Mg3  1  0.66159223  0.67706153  0.24995007  1
  Mg  Mg4  1  0.00000576  0.49999549  0.24967027  1
  Mg  Mg5  1  0.50000237  0.50000485  0.25013417  1
  Mg  Mg6  1  0.49999857  0.99999910  0.74966828  1
  Mg  Mg7  1  0.50000322  0.50000468  0.75013589  1
  Si  Si0  1  0.35309235  0.88524442  0.38795360  1
  Si  Si1  1  0.88537964  0.76482297  0.38878960  1
  Si  Si2  1  0.76347628  0.35003131  0.38867929  1
  Si  Si3  1  0.34951447  0.88652782  0.61131689  1
  Si  Si4  1  0.88546033  0.76139532  0.61211582  1
  Si  Si5  1  0.76457236  0.35029657  0.61118612  1
  Si  Si6  1  0.23517372  0.11462216  0.88878980  1
  Si  Si7  1  0.64996762  0.23652887  0.88867830  1
  Si  Si8  1  0.11475921  0.64690299  0.88795226  1
  Si  Si9  1  0.23860330  0.11454095  0.11211705  1
  Si  Si10  1  0.64970348  0.23543331  0.11118549  1
  Si  Si11  1  0.11347524  0.65048190  0.11131519  1
  Si  Si12  1  0.65048740  0.11347119  0.61131752  1
  Si  Si13  1  0.11454521  0.23860222  0.61211740  1
  Si  Si14  1  0.23543372  0.64970202  0.61118570  1
  Si  Si15  1  0.64690915  0.11475421  0.38795322  1
  Si  Si16  1  0.11462627  0.23517285  0.38879136  1
  Si  Si17  1  0.23653000  0.64996648  0.38867893  1
  Si  Si18  1  0.76139725  0.88546154  0.11211664  1
  Si  Si19  1  0.35029641  0.76457225  0.11118531  1
  Si  Si20  1  0.88652801  0.34951887  0.11131643  1
  Si  Si21  1  0.76482690  0.88537888  0.88878873  1
  Si  Si22  1  0.35003138  0.76347626  0.88867932  1
  Si  Si23  1  0.88524385  0.35309633  0.88795342  1
  O  O0  1  0.39727394  0.86540986  0.50036801  1
  O  O1  1  0.86574249  0.73712446  0.49971478  1
  O  O2  1  0.73633304  0.39890325  0.49993498  1
  O  O3  1  0.26287327  0.13425155  0.99971638  1
  O  O4  1  0.60109222  0.26366830  -0.00006506  1
  O  O5  1  0.13458972  0.60272064  0.00036820  1
  O  O6  1  0.60272668  0.13458810  0.50036829  1
  O  O7  1  0.13425844  0.26287351  0.49971630  1
  O  O8  1  0.26367049  0.60109449  0.49993459  1
  O  O9  1  0.73712682  0.86574848  0.99971533  1
  O  O10  1  0.39890462  0.73633604  -0.00006439  1
  O  O11  1  0.86541128  0.39727882  0.00036917  1
  O  O12  1  0.50098765  0.83980830  0.33071924  1
  O  O13  1  0.84521578  0.65845727  0.32913048  1
  O  O14  1  0.65875173  0.49649286  0.32840032  1
  O  O15  1  0.49601540  0.84447705  0.67169616  1
  O  O16  1  0.84012080  0.65898409  0.66922556  1
  O  O17  1  0.65791595  0.49700275  0.67084221  1
  O  O18  1  0.34154304  0.15478953  0.82913700  1
  O  O19  1  0.50351627  0.34125419  0.82839331  1
  O  O20  1  0.16020355  0.49900852  0.83071600  1
  O  O21  1  0.34101629  0.15988613  0.16922146  1
  O  O22  1  0.50300598  0.34209169  0.17084657  1
  O  O23  1  0.15552719  0.50398329  0.17169820  1
  O  O24  1  0.50398999  0.15551781  0.67169931  1
  O  O25  1  0.15989672  0.34100719  0.66922539  1
  O  O26  1  0.34209552  0.50300140  0.67084293  1
  O  O27  1  0.49901600  0.16019025  0.33071735  1
  O  O28  1  0.15480014  0.34153405  0.32913410  1
  O  O29  1  0.34125770  0.50351220  0.32839765  1
  O  O30  1  0.65898388  0.84011859  0.16922278  1
  O  O31  1  0.49700135  0.65791897  0.17084340  1
  O  O32  1  0.84448375  0.49601344  0.17169977  1
  O  O33  1  0.65845882  0.84521207  0.82913366  1
  O  O34  1  0.49649153  0.65875554  0.82839848  1
  O  O35  1  0.83981025  0.50098729  0.83071656  1
  O  O36  1  0.27211578  0.78489760  0.36597314  1
  O  O37  1  0.78337756  0.94376728  0.36535499  1
  O  O38  1  0.94269750  0.27449469  0.36492774  1
  O  O39  1  0.27433833  0.78232814  0.63495026  1
  O  O40  1  0.78541905  0.94274732  0.63473276  1
  O  O41  1  0.94334605  0.27336594  0.63410597  1
  O  O42  1  0.05623030  0.21662741  0.86535400  1
  O  O43  1  0.72550741  0.05730782  0.86492843  1
  O  O44  1  0.21510447  0.72788497  0.86597435  1
  O  O45  1  0.05725244  0.21458702  0.13473381  1
  O  O46  1  0.72663735  0.05665907  0.13410547  1
  O  O47  1  0.21767397  0.72566319  0.13494964  1
  O  O48  1  0.72566530  0.21767328  0.63494962  1
  O  O49  1  0.21458574  0.05725146  0.63473420  1
  O  O50  1  0.05665943  0.72663343  0.63410422  1
  O  O51  1  0.72788852  0.21510144  0.36597436  1
  O  O52  1  0.21662571  0.05623026  0.36535358  1
  O  O53  1  0.05730932  0.72550319  0.36492859  1
  O  O54  1  0.94275056  0.78541423  0.13473284  1
  O  O55  1  0.27336267  0.94334472  0.13410703  1
  O  O56  1  0.78233077  0.27433833  0.13494887  1
  O  O57  1  0.94377190  0.78337062  0.86535400  1
  O  O58  1  0.27449304  0.94269458  0.86492671  1
  O  O59  1  0.78489801  0.27211653  0.86597424  1
loop_
_geom_bond_atom_site_label_1
_geom_bond_atom_site_label_2
_geom_bond_distance
_geom_bond_site_symmetry_2
Na0 O7 2.481808 1_555
Na0 O6 2.485573 1_555
Na0 O8 2.501836 1_555
Na1 O9 2.481452 1_555
Na1 O11 2.485837 1_556
Na1 O10 2.501952 1_556
Na2 O1 2.481862 1_555
Na2 O0 2.485522 1_555
Na2 O2 2.501829 1_555
Na3 O3 2.481390 1_555
Na3 O5 2.485824 1_556
Na3 O4 2.502002 1_556
Na4 O45 3.048338 1_555
Na4 O54 3.048347 1_445
Na4 O51 3.052554 1_455
Na4 O36 3.052556 1_545
Na4 O52 3.060374 1_555
Na4 O37 3.060425 1_445
Na4 O47 3.065277 1_545
Na4 O56 3.065285 1_455
Na4 O55 3.066135 1_545
Na4 O46 3.066173 1_455
Na4 O38 3.066414 1_455
Na4 O53 3.066458 1_545
Na5 O40 3.048315 1_445
Na5 O49 3.048323 1_555
Na5 O59 3.052575 1_455
Na5 O44 3.052576 1_545
Na5 O42 3.060408 1_555
Na5 O57 3.060440 1_445
Na5 O39 3.065270 1_545
Na5 O48 3.065274 1_455
Na5 O41 3.066211 1_455
Na5 O50 3.066213 1_545
Na5 O58 3.066373 1_545
Na5 O43 3.066402 1_455
Li0 O21 2.009952 1_555
Li0 O30 2.009957 1_545
Li0 O27 2.012778 1_555
Li0 O12 2.012806 1_545
Li1 O25 2.009937 1_555
Li1 O16 2.009990 1_455
Li1 O20 2.012775 1_555
Li1 O35 2.012829 1_455
Mg0 O27 2.028272 1_555
Mg0 O21 2.030840 1_555
Mg0 O22 2.131866 1_555
Mg0 O28 2.132773 1_555
Mg0 O23 2.184079 1_555
Mg0 O29 2.188769 1_555
Mg1 O20 2.028196 1_555
Mg1 O25 2.030796 1_555
Mg1 O26 2.131878 1_555
Mg1 O18 2.132859 1_555
Mg1 O24 2.184112 1_555
Mg1 O19 2.188704 1_555
Mg2 O35 2.028259 1_555
Mg2 O16 2.030881 1_555
Mg2 O17 2.131793 1_555
Mg2 O33 2.132841 1_555
Mg2 O15 2.184113 1_555
Mg2 O34 2.188666 1_555
Mg3 O12 2.028257 1_555
Mg3 O30 2.030924 1_555
Mg3 O31 2.131801 1_555
Mg3 O13 2.132809 1_555
Mg3 O32 2.184129 1_555
Mg3 O14 2.188665 1_555
Mg4 O32 1.972733 1_455
Mg4 O23 1.972770 1_555
Mg4 O13 1.975095 1_455
Mg4 O28 1.975145 1_555
Mg5 O29 1.970518 1_555
Mg5 O14 1.970556 1_555
Mg5 O22 1.973984 1_555
Mg5 O31 1.974036 1_555
Mg6 O24 1.972746 1_565
Mg6 O15 1.972756 1_555
Mg6 O33 1.975122 1_555
Mg6 O18 1.975140 1_565
Mg7 O19 1.970503 1_555
Mg7 O34 1.970546 1_555
Mg7 O26 1.974005 1_555
Mg7 O17 1.974037 1_555
O0 Si3 1.648225 1_555
O0 Si0 1.660595 1_555
O1 Si1 1.647372 1_555
O1 Si4 1.660151 1_555
O2 Si5 1.654598 1_555
O2 Si2 1.655024 1_555
O3 Si6 1.647374 1_555
O3 Si9 1.660132 1_556
O4 Si10 1.654597 1_555
O4 Si7 1.655045 1_554
O5 Si11 1.648202 1_555
O5 Si8 1.660621 1_554
O6 Si12 1.648232 1_555
O6 Si15 1.660607 1_555
O7 Si16 1.647360 1_555
O7 Si13 1.660146 1_555
O8 Si14 1.654596 1_555
O8 Si17 1.655026 1_555
O9 Si21 1.647381 1_555
O9 Si18 1.660144 1_556
O10 Si19 1.654579 1_555
O10 Si22 1.655035 1_554
O11 Si20 1.648206 1_555
O11 Si23 1.660615 1_554
O12 Si0 1.582108 1_555
O13 Si1 1.601068 1_555
O14 Si2 1.599681 1_555
O15 Si3 1.601169 1_555
O16 Si4 1.581463 1_555
O17 Si5 1.600520 1_555
O18 Si6 1.601074 1_555
O19 Si7 1.599661 1_555
O20 Si8 1.582102 1_555
O21 Si9 1.581467 1_555
O22 Si10 1.600507 1_555
O23 Si11 1.601186 1_555
O24 Si12 1.601170 1_555
O25 Si13 1.581469 1_555
O26 Si14 1.600510 1_555
O27 Si15 1.582100 1_555
O28 Si16 1.601084 1_555
O29 Si17 1.599656 1_555
O30 Si18 1.581473 1_555
O31 Si19 1.600520 1_555
O32 Si20 1.601166 1_555
O33 Si21 1.601073 1_555
O34 Si22 1.599673 1_555
O35 Si23 1.582103 1_555
O36 Si17 1.639970 1_555
O36 Si0 1.653742 1_555
O37 Si1 1.636227 1_555
O37 Si15 1.644688 1_565
O38 Si2 1.641427 1_555
O38 Si16 1.644352 1_655
O39 Si14 1.642724 1_555
O39 Si3 1.645198 1_555
O40 Si12 1.640322 1_565
O40 Si4 1.652678 1_555
O41 Si5 1.633667 1_555
O41 Si13 1.646206 1_655
O42 Si6 1.636218 1_555
O42 Si23 1.644687 1_455
O43 Si7 1.641425 1_555
O43 Si21 1.644362 1_545
O44 Si22 1.639955 1_555
O44 Si8 1.653768 1_555
O45 Si20 1.640329 1_455
O45 Si9 1.652664 1_555
O46 Si10 1.633680 1_555
O46 Si18 1.646210 1_545
O47 Si19 1.642715 1_555
O47 Si11 1.645230 1_555
O48 Si5 1.642713 1_555
O48 Si12 1.645228 1_555
O49 Si3 1.640316 1_545
O49 Si13 1.652668 1_555
O50 Si14 1.633669 1_555
O50 Si4 1.646210 1_455
O51 Si2 1.639966 1_555
O51 Si15 1.653767 1_555
O52 Si16 1.636218 1_555
O52 Si0 1.644682 1_545
O53 Si17 1.641418 1_555
O53 Si1 1.644361 1_455
O54 Si11 1.640332 1_655
O54 Si18 1.652684 1_555
O55 Si19 1.633666 1_555
O55 Si9 1.646205 1_565
O56 Si10 1.642730 1_555
O56 Si20 1.645207 1_555
O57 Si21 1.636230 1_555
O57 Si8 1.644686 1_655
O58 Si22 1.641412 1_555
O58 Si6 1.644355 1_565
O59 Si7 1.639964 1_555
O59 Si23 1.653756 1_555
