# generated using pymatgen
data_NaZr2SN2Cl
_symmetry_space_group_name_H-M   'P 1'
_cell_length_a   10.32778627
_cell_length_b   10.32778627
_cell_length_c   10.32778574
_cell_angle_alpha   20.56244595
_cell_angle_beta   20.56244595
_cell_angle_gamma   20.56244736
_symmetry_Int_Tables_number   1
_chemical_formula_structural   NaZr2SN2Cl
_chemical_formula_sum   'Na1 Zr2 S1 N2 Cl1'
_cell_volume   118.95035739
_cell_formula_units_Z   1
loop_
 _symmetry_equiv_pos_site_id
 _symmetry_equiv_pos_as_xyz
  1  'x, y, z'
loop_
 _atom_site_type_symbol
 _atom_site_label
 _atom_site_symmetry_multiplicity
 _atom_site_fract_x
 _atom_site_fract_y
 _atom_site_fract_z
 _atom_site_occupancy
  Na  Na0  1  0.00448100  0.00448100  0.00448100  1
  Zr  Zr0  1  0.20539600  0.20539600  0.20539600  1
  Zr  Zr1  1  0.78550000  0.78550000  0.78550000  1
  S  S0  1  0.39567400  0.39567400  0.39567400  1
  N  N0  1  0.13723000  0.13723000  0.13723000  1
  N  N1  1  0.86277600  0.86277600  0.86277600  1
  Cl  Cl0  1  0.60894300  0.60894300  0.60894300  1
loop_
_geom_bond_atom_site_label_1
_geom_bond_atom_site_label_2
_geom_bond_distance
_geom_bond_site_symmetry_2
Na0 S0 2.758183 1_545
Na0 S0 2.758183 1_455
Na0 S0 2.758183 1_554
S0 Zr1 2.732011 1_545
S0 Zr1 2.732011 1_455
S0 Zr1 2.732011 1_554
N0 Zr0 2.066673 1_555
N0 Zr1 2.200326 1_445
N0 Zr1 2.200326 1_454
N0 Zr1 2.200326 1_544
N1 Zr0 2.147002 1_665
N1 Zr0 2.147002 1_566
N1 Zr0 2.147002 1_656
N1 Zr1 2.342872 1_555
Cl0 Na0 2.843782 1_566
Cl0 Na0 2.843782 1_656
Cl0 Na0 2.843782 1_665
Cl0 Zr0 3.010306 1_655
Cl0 Zr0 3.010306 1_565
Cl0 Zr0 3.010306 1_556
