# generated using pymatgen
data_Ca3(CdGa2)2
_symmetry_space_group_name_H-M   'P 1'
_cell_length_a   5.98700734
_cell_length_b   5.98700734
_cell_length_c   16.78966979
_cell_angle_alpha   76.39922223
_cell_angle_beta   76.39922223
_cell_angle_gamma   46.24442554
_symmetry_Int_Tables_number   1
_chemical_formula_structural   Ca3(CdGa2)2
_chemical_formula_sum   'Ca6 Cd4 Ga8'
_cell_volume   420.23754060
_cell_formula_units_Z   2
loop_
 _symmetry_equiv_pos_site_id
 _symmetry_equiv_pos_as_xyz
  1  'x, y, z'
loop_
 _atom_site_type_symbol
 _atom_site_label
 _atom_site_symmetry_multiplicity
 _atom_site_fract_x
 _atom_site_fract_y
 _atom_site_fract_z
 _atom_site_occupancy
  Ca  Ca0  1  0.27465100  0.27465100  0.23998800  1
  Ca  Ca1  1  0.61056500  0.61056500  0.57027900  1
  Ca  Ca2  1  0.94508100  0.94508100  0.90028400  1
  Ca  Ca3  1  0.05574300  0.05574300  0.09729300  1
  Ca  Ca4  1  0.38959700  0.38959700  0.42939600  1
  Ca  Ca5  1  0.72328900  0.72328900  0.76158100  1
  Cd  Cd0  1  0.75419700  0.75419700  0.09870800  1
  Cd  Cd1  1  0.09200900  0.09200900  0.42860000  1
  Cd  Cd2  1  0.42730700  0.42730700  0.75987700  1
  Cd  Cd3  1  0.38044300  0.38044300  0.03561800  1
  Ga  Ga0  1  0.71111300  0.71111300  0.36755100  1
  Ga  Ga1  1  0.04625100  0.04625100  0.69963800  1
  Ga  Ga2  1  0.56904500  0.56904500  0.24588200  1
  Ga  Ga3  1  0.90593100  0.90593100  0.57725400  1
  Ga  Ga4  1  0.23607400  0.23607400  0.90575800  1
  Ga  Ga5  1  0.95522100  0.95522100  0.29615400  1
  Ga  Ga6  1  0.29027900  0.29027900  0.62840400  1
  Ga  Ga7  1  0.63321200  0.63321200  0.95773500  1
loop_
_geom_bond_atom_site_label_1
_geom_bond_atom_site_label_2
_geom_bond_distance
_geom_bond_site_symmetry_2
Ca0 Ga0 3.136520 1_545
Ca0 Ga0 3.136520 1_455
Ca0 Ga2 3.247941 1_455
Ca0 Ga2 3.247941 1_545
Ca0 Ga2 3.268610 1_555
Ca0 Cd1 3.288814 1_555
Ca0 Cd3 3.329685 1_555
Ca0 Ga5 3.365955 1_455
Ca0 Ga5 3.365955 1_545
Ca0 Cd0 3.387926 1_545
Ca0 Cd0 3.387926 1_455
Ca0 Ga5 3.400951 1_445
Ca1 Ga1 3.155880 1_655
Ca1 Ga1 3.155880 1_565
Ca1 Ga3 3.237949 1_455
Ca1 Ga3 3.237949 1_545
Ca1 Ga3 3.284506 1_555
Ca1 Ga0 3.299106 1_555
Ca1 Cd2 3.304646 1_555
Ca1 Ga6 3.374035 1_565
Ca1 Ga6 3.374035 1_655
Ca1 Cd1 3.387659 1_655
Ca1 Cd1 3.387659 1_565
Ca1 Ga6 3.410589 1_555
Ca2 Cd3 3.220247 1_656
Ca2 Cd3 3.220247 1_566
Ca2 Ga4 3.229177 1_665
Ca2 Ga1 3.266583 1_665
Ca2 Ga4 3.274932 1_565
Ca2 Ga4 3.274932 1_655
Ca2 Ga7 3.321302 1_555
Ca2 Cd2 3.370316 1_655
Ca2 Cd2 3.370316 1_565
Ca2 Ga7 3.431018 1_655
Ca2 Ga7 3.431018 1_565
Ca2 Cd0 3.454862 1_556
Ca3 Cd0 3.214122 1_545
Ca3 Cd0 3.214122 1_455
Ca3 Ga5 3.237739 1_445
Ca3 Ga7 3.274645 1_454
Ca3 Ga7 3.274645 1_544
Ca3 Cd0 3.314670 1_445
Ca3 Ga4 3.319515 1_554
Ca3 Cd3 3.368761 1_545
Ca3 Cd3 3.368761 1_455
Ca3 Ga2 3.458273 1_545
Ca3 Ga2 3.458273 1_455
Ca3 Cd3 3.458901 1_555
Ca4 Ga5 3.198053 1_455
Ca4 Ga5 3.198053 1_545
Ca4 Ga2 3.206981 1_555
Ca4 Cd1 3.237409 1_655
Ca4 Cd1 3.237409 1_565
Ca4 Ga6 3.239061 1_555
Ca4 Cd1 3.280522 1_555
Ca4 Ga0 3.393008 1_545
Ca4 Ga0 3.393008 1_455
Ca4 Ga0 3.425464 1_555
Ca4 Ga3 3.457012 1_455
Ca4 Ga3 3.457012 1_545
Ca5 Ga7 3.187405 1_555
Ca5 Ga6 3.198099 1_565
Ca5 Ga6 3.198099 1_655
Ca5 Ga3 3.231071 1_555
Ca5 Cd2 3.246995 1_565
Ca5 Cd2 3.246995 1_655
Ca5 Cd2 3.266826 1_555
Ca5 Ga1 3.383307 1_655
Ca5 Ga1 3.383307 1_565
Ca5 Ga4 3.403131 1_655
Ca5 Ga4 3.403131 1_565
Ca5 Ga1 3.440754 1_665
Cd0 Ga2 2.772466 1_555
Cd0 Cd3 2.798069 1_565
Cd0 Cd3 2.798069 1_655
Cd0 Ga7 2.998304 1_554
Cd1 Ga0 2.758779 1_545
Cd1 Ga0 2.758779 1_455
Cd1 Ga3 2.795130 1_445
Cd1 Ga5 2.987802 1_445
Cd2 Ga1 2.754738 1_565
Cd2 Ga1 2.754738 1_655
Cd2 Ga4 2.792144 1_555
Cd2 Ga6 2.975389 1_555
Cd3 Ga7 2.756182 1_554
Cd3 Ga4 3.008963 1_554
Ga0 Ga5 2.648626 1_555
Ga0 Ga2 2.873130 1_555
Ga1 Ga6 2.647306 1_555
Ga1 Ga3 2.869422 1_445
Ga2 Ga5 2.696292 1_545
Ga2 Ga5 2.696292 1_455
Ga3 Ga6 2.706968 1_565
Ga3 Ga6 2.706968 1_655
Ga4 Ga7 2.658310 1_545
Ga4 Ga7 2.658310 1_455
