# generated using pymatgen
data_Tb3GaCoS7
_symmetry_space_group_name_H-M   'P 1'
_cell_length_a   9.58914957
_cell_length_b   9.58914957
_cell_length_c   6.12250200
_cell_angle_alpha   90.00000000
_cell_angle_beta   90.00000000
_cell_angle_gamma   119.99999701
_symmetry_Int_Tables_number   1
_chemical_formula_structural   Tb3GaCoS7
_chemical_formula_sum   'Tb6 Ga2 Co2 S14'
_cell_volume   487.55067899
_cell_formula_units_Z   2
loop_
 _symmetry_equiv_pos_site_id
 _symmetry_equiv_pos_as_xyz
  1  'x, y, z'
loop_
 _atom_site_type_symbol
 _atom_site_label
 _atom_site_symmetry_multiplicity
 _atom_site_fract_x
 _atom_site_fract_y
 _atom_site_fract_z
 _atom_site_occupancy
  Tb  Tb0  1  0.15372200  0.37318500  0.82081800  1
  Tb  Tb1  1  0.21946200  0.84627800  0.82081800  1
  Tb  Tb2  1  0.62681500  0.78053800  0.82081800  1
  Tb  Tb3  1  0.84627800  0.62681500  0.32081800  1
  Tb  Tb4  1  0.78053800  0.15372200  0.32081800  1
  Tb  Tb5  1  0.37318500  0.21946200  0.32081800  1
  Ga  Ga0  1  0.66666700  0.33333300  0.89356200  1
  Ga  Ga1  1  0.33333300  0.66666700  0.39356200  1
  Co  Co0  1  0.00000000  0.00000000  0.49299800  1
  Co  Co1  1  0.00000000  0.00000000  0.99299800  1
  S  S0  1  0.87143500  0.09466800  0.73555300  1
  S  S1  1  0.22323400  0.12856500  0.73555300  1
  S  S2  1  0.90533200  0.77676600  0.73555300  1
  S  S3  1  0.12856500  0.90533200  0.23555300  1
  S  S4  1  0.77676600  0.87143500  0.23555300  1
  S  S5  1  0.09466800  0.22323400  0.23555300  1
  S  S6  1  0.43235100  0.51857900  0.55022800  1
  S  S7  1  0.08622800  0.56764900  0.55022800  1
  S  S8  1  0.48142100  0.91377200  0.55022800  1
  S  S9  1  0.56764900  0.48142100  0.05022800  1
  S  S10  1  0.91377200  0.43235100  0.05022800  1
  S  S11  1  0.51857900  0.08622800  0.05022800  1
  S  S12  1  0.66666700  0.33333300  0.52626700  1
  S  S13  1  0.33333300  0.66666700  0.02626700  1
loop_
_geom_bond_atom_site_label_1
_geom_bond_atom_site_label_2
_geom_bond_distance
_geom_bond_site_symmetry_2
Ga0 S12 2.248764 1_555
Ga0 S10 2.277363 1_556
Ga0 S11 2.277364 1_556
Ga0 S9 2.277371 1_556
Ga1 S13 2.248764 1_555
Ga1 S7 2.277363 1_555
Ga1 S8 2.277364 1_555
Ga1 S6 2.277371 1_555
Co0 S0 2.380849 1_455
Co0 S1 2.380855 1_555
Co0 S2 2.380856 1_445
Co0 S3 2.438753 1_545
Co0 S4 2.438759 1_445
Co0 S5 2.438760 1_555
Co1 S3 2.380849 1_546
Co1 S4 2.380855 1_446
Co1 S5 2.380856 1_556
Co1 S0 2.438753 1_455
Co1 S1 2.438759 1_555
Co1 S2 2.438760 1_445
S0 Tb0 2.739204 1_655
S0 Tb2 2.789732 1_545
S0 Tb4 2.832243 1_555
S1 Tb1 2.739194 1_545
S1 Tb0 2.789744 1_555
S1 Tb5 2.832243 1_555
S2 Tb2 2.739213 1_555
S2 Tb1 2.789726 1_655
S2 Tb3 2.832243 1_555
S3 Tb3 2.739204 1_455
S3 Tb5 2.789732 1_565
S3 Tb1 2.832243 1_554
S4 Tb4 2.739194 1_565
S4 Tb3 2.789744 1_555
S4 Tb2 2.832243 1_554
S5 Tb5 2.739213 1_555
S5 Tb4 2.789726 1_455
S5 Tb0 2.832243 1_554
S6 Tb2 2.801371 1_555
S6 Tb0 2.846394 1_555
S6 Tb5 2.982345 1_555
S7 Tb0 2.801365 1_555
S7 Tb1 2.846395 1_555
S7 Tb3 2.982336 1_455
S8 Tb1 2.801373 1_555
S8 Tb2 2.846388 1_555
S8 Tb4 2.982342 1_565
S9 Tb5 2.801371 1_555
S9 Tb3 2.846394 1_555
S9 Tb2 2.982345 1_554
S10 Tb3 2.801365 1_555
S10 Tb4 2.846395 1_555
S10 Tb0 2.982336 1_654
S11 Tb4 2.801373 1_555
S11 Tb5 2.846388 1_555
S11 Tb1 2.982342 1_544
S12 Tb4 2.760713 1_555
S12 Tb5 2.760713 1_555
S12 Tb3 2.760713 1_555
S13 Tb1 2.760713 1_554
S13 Tb2 2.760713 1_554
S13 Tb0 2.760713 1_554
