# generated using pymatgen
data_Ca(TiS2)2
_symmetry_space_group_name_H-M   'P 1'
_cell_length_a   7.59299605
_cell_length_b   7.59299605
_cell_length_c   7.59299605
_cell_angle_alpha   60.00000000
_cell_angle_beta   60.00000000
_cell_angle_gamma   60.00000000
_symmetry_Int_Tables_number   1
_chemical_formula_structural   Ca(TiS2)2
_chemical_formula_sum   'Ca2 Ti4 S8'
_cell_volume   309.54552139
_cell_formula_units_Z   2
loop_
 _symmetry_equiv_pos_site_id
 _symmetry_equiv_pos_as_xyz
  1  'x, y, z'
loop_
 _atom_site_type_symbol
 _atom_site_label
 _atom_site_symmetry_multiplicity
 _atom_site_fract_x
 _atom_site_fract_y
 _atom_site_fract_z
 _atom_site_occupancy
  Ca  Ca0  1  0.50000000  0.50000000  0.50000000  1
  Ca  Ca1  1  0.75000000  0.75000000  0.75000000  1
  Ti  Ti0  1  0.12500000  0.12500000  0.12500000  1
  Ti  Ti1  1  0.62500000  0.12500000  0.12500000  1
  Ti  Ti2  1  0.12500000  0.62500000  0.12500000  1
  Ti  Ti3  1  0.12500000  0.12500000  0.62500000  1
  S  S0  1  0.35887700  0.35887700  0.35887700  1
  S  S1  1  0.32663000  0.89112300  0.89112300  1
  S  S2  1  0.89112300  0.89112300  0.32663000  1
  S  S3  1  0.89112300  0.32663000  0.89112300  1
  S  S4  1  0.35887700  0.35887700  0.92337000  1
  S  S5  1  0.35887700  0.92337000  0.35887700  1
  S  S6  1  0.89112300  0.89112300  0.89112300  1
  S  S7  1  0.92337000  0.35887700  0.35887700  1
loop_
_geom_bond_atom_site_label_1
_geom_bond_atom_site_label_2
_geom_bond_distance
_geom_bond_site_symmetry_2
Ca0 S0 2.624742 1_555
Ca0 S4 2.624748 1_555
Ca0 S5 2.624748 1_555
Ca0 S7 2.624748 1_555
Ca1 S6 2.624742 1_555
Ca1 S2 2.624748 1_555
Ca1 S3 2.624748 1_555
Ca1 S1 2.624748 1_555
S0 Ti3 2.523306 1_555
S0 Ti1 2.523306 1_555
S0 Ti2 2.523306 1_555
S1 Ti3 2.523301 1_565
S1 Ti2 2.523301 1_556
S1 Ti0 2.523307 1_566
S2 Ti2 2.523301 1_655
S2 Ti1 2.523301 1_565
S2 Ti0 2.523307 1_665
S3 Ti1 2.523301 1_556
S3 Ti3 2.523301 1_655
S3 Ti0 2.523307 1_656
S4 Ti2 2.523301 1_556
S4 Ti1 2.523301 1_556
S4 Ti0 2.523307 1_556
S5 Ti1 2.523301 1_565
S5 Ti3 2.523301 1_565
S5 Ti0 2.523307 1_565
S6 Ti1 2.523306 1_566
S6 Ti3 2.523306 1_665
S6 Ti2 2.523306 1_656
S7 Ti2 2.523301 1_655
S7 Ti3 2.523301 1_655
S7 Ti0 2.523307 1_655
