# generated using pymatgen
data_Er2AgHg
_symmetry_space_group_name_H-M   'P 1'
_cell_length_a   5.11352227
_cell_length_b   5.11352227
_cell_length_c   5.11352227
_cell_angle_alpha   60.00000000
_cell_angle_beta   60.00000000
_cell_angle_gamma   60.00000000
_symmetry_Int_Tables_number   1
_chemical_formula_structural   Er2AgHg
_chemical_formula_sum   'Er2 Ag1 Hg1'
_cell_volume   94.54649996
_cell_formula_units_Z   1
loop_
 _symmetry_equiv_pos_site_id
 _symmetry_equiv_pos_as_xyz
  1  'x, y, z'
loop_
 _atom_site_type_symbol
 _atom_site_label
 _atom_site_symmetry_multiplicity
 _atom_site_fract_x
 _atom_site_fract_y
 _atom_site_fract_z
 _atom_site_occupancy
  Er  Er0  1  0.25000000  0.25000000  0.25000000  1
  Er  Er1  1  0.75000000  0.75000000  0.75000000  1
  Ag  Ag0  1  0.50000000  0.50000000  0.50000000  1
  Hg  Hg0  1  0.00000000  0.00000000  -0.00000000  1
loop_
_geom_bond_atom_site_label_1
_geom_bond_atom_site_label_2
_geom_bond_distance
_geom_bond_site_symmetry_2
Er0 Hg0 3.131380 1_655
Er0 Hg0 3.131380 1_556
Er0 Hg0 3.131380 1_555
Er0 Hg0 3.131380 1_565
Er1 Hg0 3.131380 1_566
Er1 Hg0 3.131380 1_665
Er1 Hg0 3.131380 1_666
Er1 Hg0 3.131380 1_656
Ag0 Er0 3.131380 1_556
Ag0 Er0 3.131380 1_555
Ag0 Er1 3.131380 1_545
Ag0 Er1 3.131380 1_555
Ag0 Er0 3.131380 1_655
Ag0 Er1 3.131380 1_455
Ag0 Er1 3.131380 1_554
Ag0 Er0 3.131380 1_565
