# generated using pymatgen
data_Na5(ZnSn5)2
_symmetry_space_group_name_H-M   'P 1'
_cell_length_a   10.92221496
_cell_length_b   13.18698366
_cell_length_c   13.21190286
_cell_angle_alpha   90.00000000
_cell_angle_beta   90.00000000
_cell_angle_gamma   90.00000000
_symmetry_Int_Tables_number   1
_chemical_formula_structural   Na5(ZnSn5)2
_chemical_formula_sum   'Na20 Zn8 Sn40'
_cell_volume   1902.92450842
_cell_formula_units_Z   4
loop_
 _symmetry_equiv_pos_site_id
 _symmetry_equiv_pos_as_xyz
  1  'x, y, z'
loop_
 _atom_site_type_symbol
 _atom_site_label
 _atom_site_symmetry_multiplicity
 _atom_site_fract_x
 _atom_site_fract_y
 _atom_site_fract_z
 _atom_site_occupancy
  Na  Na0  1  0.54992720  0.84482193  0.60664652  1
  Na  Na1  1  0.45007280  0.15517807  0.39335348  1
  Na  Na2  1  0.95007280  0.65517807  0.10664652  1
  Na  Na3  1  0.54992720  0.15517807  0.89335348  1
  Na  Na4  1  0.04992720  0.34482193  0.89335348  1
  Na  Na5  1  0.45007280  0.84482193  0.10664652  1
  Na  Na6  1  0.95007280  0.34482193  0.39335348  1
  Na  Na7  1  0.04992720  0.65517807  0.60664652  1
  Na  Na8  1  0.95676809  0.86131861  0.90084143  1
  Na  Na9  1  0.04323191  0.13868139  0.09915857  1
  Na  Na10  1  0.54323191  0.63868139  0.40084143  1
  Na  Na11  1  0.95676809  0.13868139  0.59915857  1
  Na  Na12  1  0.45676809  0.36131861  0.59915857  1
  Na  Na13  1  0.04323191  0.86131861  0.40084143  1
  Na  Na14  1  0.54323191  0.36131861  0.09915857  1
  Na  Na15  1  0.45676809  0.63868139  0.90084143  1
  Na  Na16  1  0.74805641  -0.00000000  0.75000000  1
  Na  Na17  1  0.25194359  -0.00000000  0.25000000  1
  Na  Na18  1  0.75194359  0.50000000  0.25000000  1
  Na  Na19  1  0.24805641  0.50000000  0.75000000  1
  Zn  Zn0  1  0.85959951  0.83742240  0.58649824  1
  Zn  Zn1  1  0.14040049  0.16257760  0.41350176  1
  Zn  Zn2  1  0.64040049  0.66257760  0.08649824  1
  Zn  Zn3  1  0.85959951  0.16257760  0.91350176  1
  Zn  Zn4  1  0.35959951  0.33742240  0.91350176  1
  Zn  Zn5  1  0.14040049  0.83742240  0.08649824  1
  Zn  Zn6  1  0.64040049  0.33742240  0.41350176  1
  Zn  Zn7  1  0.35959951  0.66257760  0.58649824  1
  Sn  Sn0  1  0.74867887  0.50535117  0.97812185  1
  Sn  Sn1  1  0.25132113  0.49464883  0.02187815  1
  Sn  Sn2  1  0.75132113  0.99464883  0.47812185  1
  Sn  Sn3  1  0.74867887  0.49464883  0.52187815  1
  Sn  Sn4  1  0.24867887  0.00535117  0.52187815  1
  Sn  Sn5  1  0.25132113  0.50535117  0.47812185  1
  Sn  Sn6  1  0.75132113  0.00535117  0.02187815  1
  Sn  Sn7  1  0.24867887  0.99464883  0.97812185  1
  Sn  Sn8  1  0.93048935  0.58012702  0.83361641  1
  Sn  Sn9  1  0.06951065  0.41987298  0.16638359  1
  Sn  Sn10  1  0.56951065  0.91987298  0.33361641  1
  Sn  Sn11  1  0.93048935  0.41987298  0.66638359  1
  Sn  Sn12  1  0.43048935  0.08012702  0.66638359  1
  Sn  Sn13  1  0.06951065  0.58012702  0.33361641  1
  Sn  Sn14  1  0.56951065  0.08012702  0.16638359  1
  Sn  Sn15  1  0.43048935  0.91987298  0.83361641  1
  Sn  Sn16  1  0.76116202  0.72878002  0.74539662  1
  Sn  Sn17  1  0.23883798  0.27121998  0.25460338  1
  Sn  Sn18  1  0.73883798  0.77121998  0.24539662  1
  Sn  Sn19  1  0.76116202  0.27121998  0.75460338  1
  Sn  Sn20  1  0.26116202  0.22878002  0.75460338  1
  Sn  Sn21  1  0.23883798  0.72878002  0.24539662  1
  Sn  Sn22  1  0.73883798  0.22878002  0.25460338  1
  Sn  Sn23  1  0.26116202  0.77121998  0.74539662  1
  Sn  Sn24  1  0.64567077  0.81982497  0.92815167  1
  Sn  Sn25  1  0.35432923  0.18017503  0.07184833  1
  Sn  Sn26  1  0.85432923  0.68017503  0.42815167  1
  Sn  Sn27  1  0.64567077  0.18017503  0.57184833  1
  Sn  Sn28  1  0.14567077  0.31982497  0.57184833  1
  Sn  Sn29  1  0.35432923  0.81982497  0.42815167  1
  Sn  Sn30  1  0.85432923  0.31982497  0.07184833  1
  Sn  Sn31  1  0.14567077  0.68017503  0.92815167  1
  Sn  Sn32  1  0.57577565  0.58530313  0.66754332  1
  Sn  Sn33  1  0.42422435  0.41469687  0.33245668  1
  Sn  Sn34  1  0.92422435  0.91469687  0.16754332  1
  Sn  Sn35  1  0.57577565  0.41469687  0.83245668  1
  Sn  Sn36  1  0.07577565  0.08530313  0.83245668  1
  Sn  Sn37  1  0.42422435  0.58530313  0.16754332  1
  Sn  Sn38  1  0.92422435  0.08530313  0.33245668  1
  Sn  Sn39  1  0.07577565  0.91469687  0.66754332  1
loop_
_geom_bond_atom_site_label_1
_geom_bond_atom_site_label_2
_geom_bond_distance
_geom_bond_site_symmetry_2
Na0 Zn7 3.188714 1_555
Na0 Sn29 3.199075 1_555
Na0 Sn16 3.320398 1_555
Na0 Zn0 3.394169 1_555
Na0 Sn2 3.409630 1_555
Na0 Sn15 3.416653 1_555
Na0 Sn12 3.457322 1_565
Na0 Sn32 3.526891 1_555
Na0 Na16 3.529524 1_565
Na0 Sn10 3.746663 1_555
Na0 Sn23 3.774907 1_555
Na0 Na10 3.845552 1_555
Na1 Zn6 3.188714 1_555
Na1 Sn27 3.199075 1_555
Na1 Sn17 3.320398 1_555
Na1 Zn1 3.394169 1_555
Na1 Sn4 3.409630 1_555
Na1 Sn14 3.416653 1_555
Na1 Sn10 3.457322 1_545
Na1 Sn33 3.526891 1_555
Na1 Na17 3.529524 1_555
Na1 Sn12 3.746663 1_555
Na1 Sn22 3.774907 1_555
Na1 Na12 3.845552 1_555
Na2 Zn5 3.188714 1_655
Na2 Sn31 3.199075 1_654
Na2 Sn18 3.320398 1_555
Na2 Zn2 3.394169 1_555
Na2 Sn0 3.409630 1_554
Na2 Sn13 3.416653 1_655
Na2 Sn9 3.457322 1_655
Na2 Sn34 3.526891 1_555
Na2 Sn8 3.746663 1_554
Na2 Sn21 3.774907 1_655
Na2 Na8 3.845552 1_554
Na3 Zn4 3.188714 1_555
Na3 Sn25 3.199075 1_556
Na3 Sn19 3.320398 1_555
Na3 Zn3 3.394169 1_555
Na3 Sn6 3.409630 1_556
Na3 Sn12 3.416653 1_555
Na3 Sn15 3.457322 1_545
Na3 Sn35 3.526891 1_555
Na3 Sn14 3.746663 1_556
Na3 Sn20 3.774907 1_555
Na4 Zn3 3.188714 1_455
Na4 Sn30 3.199075 1_456
Na4 Sn20 3.320398 1_555
Na4 Zn4 3.394169 1_555
Na4 Sn1 3.409630 1_556
Na4 Sn11 3.416653 1_455
Na4 Sn8 3.457322 1_455
Na4 Sn36 3.526891 1_555
Na4 Sn9 3.746663 1_556
Na4 Sn19 3.774907 1_455
Na4 Na9 3.845552 1_556
Na5 Zn2 3.188714 1_555
Na5 Sn24 3.199075 1_554
Na5 Sn21 3.320398 1_555
Na5 Zn5 3.394169 1_555
Na5 Sn7 3.409630 1_554
Na5 Sn10 3.416653 1_555
Na5 Sn14 3.457322 1_565
Na5 Sn37 3.526891 1_555
Na5 Sn15 3.746663 1_554
Na5 Sn18 3.774907 1_555
Na6 Zn1 3.188714 1_655
Na6 Sn28 3.199075 1_655
Na6 Sn22 3.320398 1_555
Na6 Zn6 3.394169 1_555
Na6 Sn3 3.409630 1_555
Na6 Sn9 3.416653 1_655
Na6 Sn13 3.457322 1_655
Na6 Sn38 3.526891 1_555
Na6 Sn11 3.746663 1_555
Na6 Sn17 3.774907 1_655
Na7 Zn0 3.188714 1_455
Na7 Sn26 3.199075 1_455
Na7 Sn23 3.320398 1_555
Na7 Zn7 3.394169 1_555
Na7 Sn5 3.409630 1_555
Na7 Sn8 3.416653 1_455
Na7 Sn11 3.457322 1_455
Na7 Sn39 3.526891 1_555
Na7 Sn13 3.746663 1_555
Na7 Sn16 3.774907 1_455
Na8 Sn31 3.176980 1_655
Na8 Zn5 3.184123 1_656
Na8 Sn6 3.346640 1_566
Na8 Sn36 3.351130 1_665
Na8 Sn39 3.418431 1_655
Na8 Sn16 3.440487 1_555
Na8 Sn24 3.460509 1_555
Na8 Sn34 3.610797 1_556
Na9 Sn30 3.176980 1_455
Na9 Zn3 3.184123 1_454
Na9 Sn7 3.346640 1_544
Na9 Sn34 3.351130 1_445
Na9 Sn38 3.418431 1_455
Na9 Sn17 3.440487 1_555
Na9 Sn25 3.460509 1_555
Na9 Sn36 3.610797 1_554
Na10 Sn29 3.176980 1_555
Na10 Zn7 3.184123 1_555
Na10 Sn3 3.346640 1_555
Na10 Sn33 3.351130 1_555
Na10 Sn37 3.418431 1_555
Na10 Sn18 3.440487 1_555
Na10 Sn26 3.460509 1_555
Na10 Na18 3.537326 1_555
Na10 Sn32 3.610797 1_555
Na11 Sn28 3.176980 1_655
Na11 Zn1 3.184123 1_655
Na11 Sn2 3.346640 1_545
Na11 Sn39 3.351130 1_645
Na11 Sn36 3.418431 1_655
Na11 Sn19 3.440487 1_555
Na11 Sn27 3.460509 1_555
Na11 Na16 3.537326 1_555
Na11 Sn38 3.610797 1_555
Na11 Na6 3.845552 1_555
Na12 Sn27 3.176980 1_555
Na12 Zn6 3.184123 1_555
Na12 Sn5 3.346640 1_555
Na12 Sn32 3.351130 1_555
Na12 Sn35 3.418431 1_555
Na12 Sn20 3.440487 1_555
Na12 Sn28 3.460509 1_555
Na12 Na19 3.537326 1_555
Na12 Sn33 3.610797 1_555
Na13 Sn26 3.176980 1_455
Na13 Zn0 3.184123 1_455
Na13 Sn4 3.346640 1_565
Na13 Sn38 3.351130 1_465
Na13 Sn34 3.418431 1_455
Na13 Sn21 3.440487 1_555
Na13 Sn29 3.460509 1_555
Na13 Na17 3.537326 1_565
Na13 Sn39 3.610797 1_555
Na13 Na7 3.845552 1_555
Na14 Sn25 3.176980 1_555
Na14 Zn4 3.184123 1_554
Na14 Sn0 3.346640 1_554
Na14 Sn37 3.351130 1_555
Na14 Sn33 3.418431 1_555
Na14 Sn22 3.440487 1_555
Na14 Sn30 3.460509 1_555
Na14 Na18 3.537326 1_555
Na14 Sn35 3.610797 1_554
Na14 Na3 3.845552 1_554
Na15 Sn24 3.176980 1_555
Na15 Zn2 3.184123 1_556
Na15 Sn1 3.346640 1_556
Na15 Sn35 3.351130 1_555
Na15 Sn32 3.418431 1_555
Na15 Sn23 3.440487 1_555
Na15 Sn31 3.460509 1_555
Na15 Na19 3.537326 1_555
Na15 Sn37 3.610797 1_556
Na15 Na5 3.845552 1_556
Na16 Zn0 3.278250 1_545
Na16 Zn3 3.278250 1_555
Na16 Sn24 3.526438 1_545
Na16 Sn27 3.526438 1_555
Na16 Na3 3.529524 1_555
Na16 Na8 3.537326 1_545
Na16 Sn19 3.579953 1_555
Na16 Sn16 3.579953 1_545
Na16 Sn2 3.592898 1_545
Na16 Sn6 3.592898 1_556
Na17 Zn1 3.278250 1_555
Na17 Zn5 3.278250 1_545
Na17 Sn29 3.526438 1_545
Na17 Sn25 3.526438 1_555
Na17 Na5 3.529524 1_545
Na17 Na9 3.537326 1_555
Na17 Sn17 3.579953 1_555
Na17 Sn21 3.579953 1_545
Na17 Sn7 3.592898 1_544
Na17 Sn4 3.592898 1_555
Na18 Zn2 3.278250 1_555
Na18 Zn6 3.278250 1_555
Na18 Sn26 3.526438 1_555
Na18 Sn30 3.526438 1_555
Na18 Na2 3.529524 1_555
Na18 Na6 3.529524 1_555
Na18 Sn18 3.579953 1_555
Na18 Sn22 3.579953 1_555
Na18 Sn0 3.592898 1_554
Na18 Sn3 3.592898 1_555
Na19 Zn7 3.278250 1_555
Na19 Zn4 3.278250 1_555
Na19 Sn28 3.526438 1_555
Na19 Sn31 3.526438 1_555
Na19 Na4 3.529524 1_555
Na19 Na7 3.529524 1_555
Na19 Sn23 3.579953 1_555
Na19 Sn20 3.579953 1_555
Na19 Sn5 3.592898 1_555
Na19 Sn1 3.592898 1_556
Sn0 Zn2 2.783452 1_556
Sn0 Sn8 2.925857 1_555
Sn0 Sn35 2.949449 1_555
Sn0 Sn30 2.974976 1_556
Sn1 Zn4 2.783452 1_554
Sn1 Sn9 2.925857 1_555
Sn1 Sn37 2.949449 1_555
Sn1 Sn31 2.974976 1_554
Sn2 Zn0 2.783452 1_555
Sn2 Sn38 2.949449 1_565
Sn2 Sn27 2.974976 1_565
Sn3 Zn6 2.783452 1_555
Sn3 Sn32 2.949449 1_555
Sn4 Zn1 2.783452 1_555
Sn5 Zn7 2.783452 1_555
Sn6 Zn3 2.783452 1_554
Sn7 Zn5 2.783452 1_556
Sn10 Sn2 2.925857 1_555
Sn10 Sn18 2.936259 1_555
Sn10 Sn29 2.970576 1_555
Sn10 Sn14 3.057389 1_565
Sn11 Sn3 2.925857 1_555
Sn11 Sn19 2.936259 1_555
Sn11 Sn28 2.970576 1_655
Sn11 Sn8 3.057389 1_555
Sn12 Sn4 2.925857 1_555
Sn12 Sn20 2.936259 1_555
Sn12 Sn27 2.970576 1_555
Sn12 Sn15 3.057389 1_545
Sn13 Sn5 2.925857 1_555
Sn13 Sn21 2.936259 1_555
Sn13 Sn26 2.970576 1_455
Sn13 Sn9 3.057389 1_555
Sn14 Sn6 2.925857 1_555
Sn14 Sn22 2.936259 1_555
Sn14 Sn25 2.970576 1_555
Sn15 Sn7 2.925857 1_555
Sn15 Sn23 2.936259 1_555
Sn15 Sn24 2.970576 1_555
Sn16 Zn0 2.759667 1_555
Sn16 Sn8 2.936259 1_555
Sn16 Sn32 2.955960 1_555
Sn16 Sn24 2.977021 1_555
Sn17 Zn1 2.759667 1_555
Sn17 Sn9 2.936259 1_555
Sn17 Sn33 2.955960 1_555
Sn17 Sn25 2.977021 1_555
Sn18 Zn2 2.759667 1_555
Sn18 Sn34 2.955960 1_555
Sn18 Sn26 2.977021 1_555
Sn19 Zn3 2.759667 1_555
Sn19 Sn35 2.955960 1_555
Sn19 Sn27 2.977021 1_555
Sn20 Zn4 2.759667 1_555
Sn20 Sn36 2.955960 1_555
Sn20 Sn28 2.977021 1_555
Sn21 Zn5 2.759667 1_555
Sn21 Sn37 2.955960 1_555
Sn21 Sn29 2.977021 1_555
Sn22 Zn6 2.759667 1_555
Sn22 Sn38 2.955960 1_555
Sn22 Sn30 2.977021 1_555
Sn23 Zn7 2.759667 1_555
Sn23 Sn39 2.955960 1_555
Sn23 Sn31 2.977021 1_555
Sn24 Zn2 2.946170 1_556
Sn24 Sn6 2.974976 1_566
Sn25 Zn4 2.946170 1_554
Sn25 Sn7 2.974976 1_544
Sn26 Zn0 2.946170 1_555
Sn26 Sn3 2.974976 1_555
Sn27 Zn6 2.946170 1_555
Sn28 Zn1 2.946170 1_555
Sn28 Sn5 2.974976 1_555
Sn29 Zn7 2.946170 1_555
Sn29 Sn4 2.974976 1_565
Sn30 Zn3 2.946170 1_554
Sn30 Sn9 2.970576 1_655
Sn31 Zn5 2.946170 1_556
Sn31 Sn8 2.970576 1_455
Sn32 Zn7 2.785645 1_555
Sn32 Sn35 3.131896 1_555
Sn33 Zn6 2.785645 1_555
Sn33 Sn5 2.949449 1_555
Sn33 Sn37 3.131896 1_555
Sn34 Zn5 2.785645 1_655
Sn34 Sn6 2.949449 1_565
Sn34 Sn38 3.131896 1_565
Sn35 Zn4 2.785645 1_555
Sn36 Zn3 2.785645 1_455
Sn36 Sn7 2.949449 1_545
Sn36 Sn39 3.131896 1_545
Sn37 Zn2 2.785645 1_555
Sn38 Zn1 2.785645 1_655
Sn39 Zn0 2.785645 1_455
Sn39 Sn4 2.949449 1_565
