# generated using pymatgen
data_Ti3(Ni10B3)2
_symmetry_space_group_name_H-M   'P 1'
_cell_length_a   7.37556264
_cell_length_b   7.37556159
_cell_length_c   7.37556191
_cell_angle_alpha   60.00427227
_cell_angle_beta   60.00426469
_cell_angle_gamma   60.00426213
_symmetry_Int_Tables_number   1
_chemical_formula_structural   Ti3(Ni10B3)2
_chemical_formula_sum   'Ti3 Ni20 B6'
_cell_volume   283.73464675
_cell_formula_units_Z   1
loop_
 _symmetry_equiv_pos_site_id
 _symmetry_equiv_pos_as_xyz
  1  'x, y, z'
loop_
 _atom_site_type_symbol
 _atom_site_label
 _atom_site_symmetry_multiplicity
 _atom_site_fract_x
 _atom_site_fract_y
 _atom_site_fract_z
 _atom_site_occupancy
  Ti  Ti0  1  -0.00000003  -0.00000003  0.00000012  1
  Ti  Ti1  1  0.74999185  0.74999419  0.74999518  1
  Ti  Ti2  1  0.25000803  0.25000581  0.25000482  1
  Ni  Ni0  1  0.61705211  0.61705612  0.14884494  1
  Ni  Ni1  1  0.61705150  0.14884479  0.61705639  1
  Ni  Ni2  1  0.14884778  0.61705255  0.61705362  1
  Ni  Ni3  1  0.61704290  0.61704561  0.61704508  1
  Ni  Ni4  1  0.38294776  0.38294365  0.85115568  1
  Ni  Ni5  1  0.38294818  0.85115601  0.38294342  1
  Ni  Ni6  1  0.85115282  0.38294719  0.38294626  1
  Ni  Ni7  1  0.38295674  0.38295416  0.38295458  1
  Ni  Ni8  1  0.00000706  0.00000668  0.34201776  1
  Ni  Ni9  1  0.65796917  0.00000071  0.34202837  1
  Ni  Ni10  1  -0.00000034  0.65797185  0.34202819  1
  Ni  Ni11  1  0.65796914  0.34202797  0.00000120  1
  Ni  Ni12  1  0.00000756  0.34201843  0.00000621  1
  Ni  Ni13  1  0.00000037  0.34202809  0.65797161  1
  Ni  Ni14  1  0.34203054  0.65797171  -0.00000103  1
  Ni  Ni15  1  0.34203060  -0.00000046  0.65797149  1
  Ni  Ni16  1  0.34202190  0.00000596  0.00000528  1
  Ni  Ni17  1  -0.00000661  -0.00000633  0.65798196  1
  Ni  Ni18  1  -0.00000704  0.65798115  -0.00000605  1
  Ni  Ni19  1  0.65797792  -0.00000574  -0.00000511  1
  B  B0  1  0.73160548  0.73160657  0.26840131  1
  B  B1  1  0.26839472  0.73159853  0.26839313  1
  B  B2  1  0.73159800  0.26839416  0.26839367  1
  B  B3  1  0.26839457  0.26839340  0.73159871  1
  B  B4  1  0.73160529  0.26840146  0.73160688  1
  B  B5  1  0.26840201  0.73160582  0.73160630  1
loop_
_geom_bond_atom_site_label_1
_geom_bond_atom_site_label_2
_geom_bond_distance
_geom_bond_site_symmetry_2
Ni0 Ti1 2.402051 1_554
Ni1 Ti1 2.402056 1_545
Ni2 Ti1 2.402088 1_455
Ni3 Ti1 2.401831 1_555
Ni4 Ti2 2.402047 1_556
Ni5 Ti2 2.402051 1_565
Ni6 Ti2 2.402084 1_655
Ni7 Ti2 2.401826 1_555
Ni8 Ti0 2.522623 1_555
Ni9 Ti0 2.522823 1_655
Ni10 Ti0 2.522812 1_565
Ni11 Ti0 2.522822 1_655
Ni12 Ti0 2.522629 1_555
Ni13 Ti0 2.522814 1_556
Ni14 Ti0 2.522822 1_565
Ni15 Ti0 2.522823 1_556
Ni16 Ti0 2.522645 1_555
Ni17 Ti0 2.522624 1_556
Ni18 Ti0 2.522629 1_565
Ni19 Ti0 2.522645 1_655
B0 Ni9 2.052677 1_565
B0 Ni10 2.052681 1_655
B0 Ni18 2.052854 1_655
B0 Ni19 2.052855 1_565
B0 Ni0 2.099714 1_555
B0 Ni3 2.099793 1_555
B0 Ni5 2.099878 1_555
B0 Ni6 2.099890 1_555
B1 Ni14 2.052677 1_555
B1 Ni10 2.052685 1_555
B1 Ni8 2.052856 1_565
B1 Ni16 2.052859 1_565
B1 Ni5 2.099721 1_555
B1 Ni7 2.099796 1_555
B1 Ni0 2.099878 1_555
B1 Ni2 2.099897 1_555
B2 Ni11 2.052680 1_555
B2 Ni9 2.052684 1_555
B2 Ni8 2.052859 1_655
B2 Ni12 2.052862 1_655
B2 Ni6 2.099716 1_555
B2 Ni7 2.099778 1_555
B2 Ni0 2.099906 1_555
B2 Ni1 2.099910 1_555
B3 Ni15 2.052676 1_555
B3 Ni13 2.052682 1_555
B3 Ni12 2.052853 1_556
B3 Ni16 2.052854 1_556
B3 Ni4 2.099716 1_555
B3 Ni7 2.099795 1_555
B3 Ni1 2.099876 1_555
B3 Ni2 2.099889 1_555
B4 Ni11 2.052676 1_556
B4 Ni13 2.052684 1_655
B4 Ni17 2.052856 1_655
B4 Ni19 2.052859 1_556
B4 Ni1 2.099719 1_555
B4 Ni3 2.099795 1_555
B4 Ni4 2.099879 1_555
B4 Ni6 2.099898 1_555
B5 Ni14 2.052679 1_556
B5 Ni15 2.052685 1_565
B5 Ni17 2.052859 1_565
B5 Ni18 2.052861 1_556
B5 Ni2 2.099714 1_555
B5 Ni3 2.099775 1_555
B5 Ni4 2.099907 1_555
B5 Ni5 2.099911 1_555
