# generated using pymatgen
data_CrB
_symmetry_space_group_name_H-M   'P 1'
_cell_length_a   2.90046917
_cell_length_b   2.90049441
_cell_length_c   8.06683755
_cell_angle_alpha   100.36195838
_cell_angle_beta   100.36187020
_cell_angle_gamma   89.99591205
_symmetry_Int_Tables_number   1
_chemical_formula_structural   CrB
_chemical_formula_sum   'Cr4 B4'
_cell_volume   65.63257254
_cell_formula_units_Z   4
loop_
 _symmetry_equiv_pos_site_id
 _symmetry_equiv_pos_as_xyz
  1  'x, y, z'
loop_
 _atom_site_type_symbol
 _atom_site_label
 _atom_site_symmetry_multiplicity
 _atom_site_fract_x
 _atom_site_fract_y
 _atom_site_fract_z
 _atom_site_occupancy
  Cr  Cr0  1  0.57260837  0.82259573  0.14517640  1
  Cr  Cr1  1  0.82260045  0.57261428  0.64518823  1
  Cr  Cr2  1  0.42742238  0.17743602  0.85488451  1
  Cr  Cr3  1  0.17734458  0.42733299  0.35470694  1
  B  B0  1  0.71727520  0.96724782  0.43458736  1
  B  B1  1  0.96727501  0.71730113  0.93463442  1
  B  B2  1  0.28271688  0.03274352  0.56540081  1
  B  B3  1  0.03275614  0.28272850  0.06542133  1
loop_
_geom_bond_atom_site_label_1
_geom_bond_atom_site_label_2
_geom_bond_distance
_geom_bond_site_symmetry_2
B0 B2 1.773309 1_565
B0 B2 1.773346 1_665
B0 Cr3 2.143438 1_655
B0 Cr3 2.143476 1_555
B0 Cr3 2.143500 1_565
B0 Cr3 2.143743 1_665
B0 Cr1 2.191460 1_555
B0 Cr1 2.191547 1_565
B0 Cr0 2.257845 1_555
B1 B3 1.773202 1_656
B1 B3 1.773235 1_666
B1 Cr2 2.143149 1_565
B1 Cr2 2.143186 1_555
B1 Cr2 2.143198 1_655
B1 Cr2 2.143442 1_665
B1 Cr0 2.191115 1_556
B1 Cr0 2.191187 1_656
B1 Cr1 2.258120 1_555
B2 Cr1 2.143233 1_455
B2 Cr1 2.143269 1_555
B2 Cr1 2.143284 1_545
B2 Cr1 2.143528 1_445
B2 Cr3 2.192009 1_555
B2 Cr3 2.192086 1_545
B2 Cr2 2.258412 1_555
B3 Cr0 2.143156 1_545
B3 Cr0 2.143191 1_555
B3 Cr0 2.143215 1_455
B3 Cr0 2.143460 1_445
B3 Cr2 2.191079 1_554
B3 Cr2 2.191162 1_454
B3 Cr3 2.256867 1_555
