# generated using pymatgen
data_TeO3
_symmetry_space_group_name_H-M   'P 1'
_cell_length_a   6.47442566
_cell_length_b   6.47442566
_cell_length_c   11.34696000
_cell_angle_alpha   90.00000000
_cell_angle_beta   90.00000000
_cell_angle_gamma   119.99999654
_symmetry_Int_Tables_number   1
_chemical_formula_structural   TeO3
_chemical_formula_sum   'Te6 O18'
_cell_volume   411.91980021
_cell_formula_units_Z   6
loop_
 _symmetry_equiv_pos_site_id
 _symmetry_equiv_pos_as_xyz
  1  'x, y, z'
loop_
 _atom_site_type_symbol
 _atom_site_label
 _atom_site_symmetry_multiplicity
 _atom_site_fract_x
 _atom_site_fract_y
 _atom_site_fract_z
 _atom_site_occupancy
  Te  Te0  1  0.66949000  0.00000000  0.50242100  1
  Te  Te1  1  0.66949000  0.66949000  0.00242100  1
  Te  Te2  1  0.00000000  0.33051000  0.00242100  1
  Te  Te3  1  0.00000000  0.66949000  0.50242100  1
  Te  Te4  1  0.33051000  0.33051000  0.50242100  1
  Te  Te5  1  0.33051000  0.00000000  0.00242100  1
  O  O0  1  0.66666700  0.33333300  0.02729100  1
  O  O1  1  0.33333300  0.66666700  0.52729100  1
  O  O2  1  0.66666700  0.33333300  0.52729100  1
  O  O3  1  0.33333300  0.66666700  0.02729100  1
  O  O4  1  0.00000000  0.00000000  0.95835100  1
  O  O5  1  0.00000000  0.00000000  0.45835100  1
  O  O6  1  0.38621600  0.00000000  0.84711000  1
  O  O7  1  0.38621600  0.38621600  0.34711000  1
  O  O8  1  0.00000000  0.61378400  0.34711000  1
  O  O9  1  0.00000000  0.38621600  0.84711000  1
  O  O10  1  0.61378400  0.61378400  0.84711000  1
  O  O11  1  0.61378400  0.00000000  0.34711000  1
  O  O12  1  0.26864400  0.00000000  0.15713600  1
  O  O13  1  0.26864400  0.26864400  0.65713600  1
  O  O14  1  0.00000000  0.73135600  0.65713600  1
  O  O15  1  0.00000000  0.26864400  0.15713600  1
  O  O16  1  0.73135600  0.73135600  0.15713600  1
  O  O17  1  0.73135600  0.00000000  0.65713600  1
loop_
_geom_bond_atom_site_label_1
_geom_bond_atom_site_label_2
_geom_bond_distance
_geom_bond_site_symmetry_2
O0 Te2 2.185631 1_655
O0 Te5 2.185634 1_555
O0 Te1 2.185637 1_555
O1 Te3 2.185631 1_555
O1 Te0 2.185634 1_565
O1 Te4 2.185637 1_555
O2 Te0 2.185631 1_555
O2 Te3 2.185634 1_655
O2 Te4 2.185637 1_555
O3 Te5 2.185631 1_565
O3 Te2 2.185634 1_555
O3 Te1 2.185637 1_555
O4 Te5 2.197515 1_556
O4 Te2 2.197515 1_556
O4 Te1 2.197515 1_446
O5 Te3 2.197515 1_545
O5 Te0 2.197515 1_455
O5 Te4 2.197515 1_555
O6 Te5 1.798835 1_556
O7 Te4 1.798835 1_555
O8 Te3 1.798835 1_555
O9 Te2 1.798835 1_556
O10 Te1 1.798835 1_556
O11 Te0 1.798835 1_555
O12 Te5 1.800660 1_555
O13 Te4 1.800660 1_555
O14 Te3 1.800660 1_555
O15 Te2 1.800660 1_555
O16 Te1 1.800660 1_555
O17 Te0 1.800660 1_555
