# generated using pymatgen
data_ZnCu2(BO3)2
_symmetry_space_group_name_H-M   'P 1'
_cell_length_a   14.93299500
_cell_length_b   3.37434700
_cell_length_c   9.35990798
_cell_angle_alpha   83.02729502
_cell_angle_beta   90.00000000
_cell_angle_gamma   90.00000000
_symmetry_Int_Tables_number   1
_chemical_formula_structural   ZnCu2(BO3)2
_chemical_formula_sum   'Zn4 Cu8 B8 O24'
_cell_volume   468.14921867
_cell_formula_units_Z   4
loop_
 _symmetry_equiv_pos_site_id
 _symmetry_equiv_pos_as_xyz
  1  'x, y, z'
loop_
 _atom_site_type_symbol
 _atom_site_label
 _atom_site_symmetry_multiplicity
 _atom_site_fract_x
 _atom_site_fract_y
 _atom_site_fract_z
 _atom_site_occupancy
  Zn  Zn0  1  0.13814200  0.26687600  0.86370800  1
  Zn  Zn1  1  0.86185800  0.73312400  0.13629200  1
  Zn  Zn2  1  0.63814200  0.73312400  0.63629200  1
  Zn  Zn3  1  0.36185800  0.26687600  0.36370800  1
  Cu  Cu0  1  0.25934600  0.84657200  0.62338700  1
  Cu  Cu1  1  0.74065400  0.15342800  0.37661300  1
  Cu  Cu2  1  0.75934600  0.15342800  0.87661300  1
  Cu  Cu3  1  0.24065400  0.84657200  0.12338700  1
  Cu  Cu4  1  0.04320300  0.79944000  0.63463600  1
  Cu  Cu5  1  0.95679700  0.20056000  0.36536400  1
  Cu  Cu6  1  0.54320300  0.20056000  0.86536400  1
  Cu  Cu7  1  0.45679700  0.79944000  0.13463600  1
  B  B0  1  0.42066200  0.66671400  0.66723100  1
  B  B1  1  0.57933800  0.33328600  0.33276900  1
  B  B2  1  0.92066200  0.33328600  0.83276900  1
  B  B3  1  0.07933800  0.66671400  0.16723100  1
  B  B4  1  0.84797700  0.68249700  0.59603500  1
  B  B5  1  0.15202300  0.31750300  0.40396500  1
  B  B6  1  0.34797700  0.31750300  0.90396500  1
  B  B7  1  0.65202300  0.68249700  0.09603500  1
  O  O0  1  0.00685400  0.39120100  0.79373000  1
  O  O1  1  0.99314600  0.60879900  0.20627000  1
  O  O2  1  0.50685400  0.60879900  0.70627000  1
  O  O3  1  0.49314600  0.39120100  0.29373000  1
  O  O4  1  0.38413100  0.86224700  0.54482700  1
  O  O5  1  0.61586900  0.13775300  0.45517300  1
  O  O6  1  0.88413100  0.13775300  0.95517300  1
  O  O7  1  0.11586900  0.86224700  0.04482700  1
  O  O8  1  0.92648900  0.81845300  0.53594400  1
  O  O9  1  0.07351100  0.18154700  0.46405600  1
  O  O10  1  0.42648900  0.18154700  0.96405600  1
  O  O11  1  0.57351100  0.81845300  0.03594400  1
  O  O12  1  0.15493700  0.80676000  0.73774300  1
  O  O13  1  0.84506300  0.19324000  0.26225700  1
  O  O14  1  0.65493700  0.19324000  0.76225700  1
  O  O15  1  0.34506300  0.80676000  0.23774300  1
  O  O16  1  0.76597300  0.73047900  0.53154800  1
  O  O17  1  0.23402700  0.26952100  0.46845200  1
  O  O18  1  0.26597300  0.26952100  0.96845200  1
  O  O19  1  0.73402700  0.73047900  0.03154800  1
  O  O20  1  0.34874300  0.52527400  0.76326800  1
  O  O21  1  0.65125700  0.47472600  0.23673200  1
  O  O22  1  0.84874300  0.47472600  0.73673200  1
  O  O23  1  0.15125700  0.52527400  0.26326800  1
loop_
_geom_bond_atom_site_label_1
_geom_bond_atom_site_label_2
_geom_bond_distance
_geom_bond_site_symmetry_2
Cu0 O12 1.886723 1_555
Cu0 O17 1.944299 1_565
Cu0 O4 2.001588 1_555
Cu0 O20 2.080172 1_555
Cu0 O17 2.592879 1_555
Cu1 O13 1.886723 1_555
Cu1 O16 1.944299 1_545
Cu1 O5 2.001588 1_555
Cu1 O21 2.080172 1_555
Cu1 O16 2.592879 1_555
Cu2 O14 1.886723 1_555
Cu2 O19 1.944299 1_546
Cu2 O6 2.001588 1_555
Cu2 O22 2.080172 1_555
Cu2 O19 2.592879 1_556
Cu3 O15 1.886723 1_555
Cu3 O18 1.944299 1_564
Cu3 O7 2.001588 1_555
Cu3 O23 2.080172 1_555
Cu3 O18 2.592879 1_554
Cu4 O12 1.929179 1_555
Cu4 O8 1.969950 1_455
Cu4 O0 1.977787 1_555
Cu4 O9 1.979052 1_565
Cu5 O13 1.929179 1_555
Cu5 O9 1.969950 1_655
Cu5 O1 1.977787 1_555
Cu5 O8 1.979052 1_545
Cu6 O14 1.929179 1_555
Cu6 O10 1.969950 1_555
Cu6 O2 1.977787 1_555
Cu6 O11 1.979052 1_546
Cu7 O15 1.929179 1_555
Cu7 O11 1.969950 1_555
Cu7 O3 1.977787 1_555
Cu7 O10 1.979052 1_564
B0 O2 1.345738 1_555
B0 O4 1.364549 1_555
B0 O20 1.443968 1_555
B1 O3 1.345738 1_555
B1 O5 1.364549 1_555
B1 O21 1.443968 1_555
B2 O0 1.345738 1_655
B2 O6 1.364549 1_555
B2 O22 1.443968 1_555
B3 O1 1.345738 1_455
B3 O7 1.364549 1_555
B3 O23 1.443968 1_555
B4 O8 1.355997 1_555
B4 O16 1.366152 1_555
B4 O22 1.414832 1_555
B5 O9 1.355997 1_555
B5 O17 1.366152 1_555
B5 O23 1.414832 1_555
B6 O10 1.355997 1_555
B6 O18 1.366152 1_555
B6 O20 1.414832 1_555
B7 O11 1.355997 1_555
B7 O19 1.366152 1_555
B7 O21 1.414832 1_555
O0 Zn0 2.093308 1_555
O1 Zn1 2.093308 1_555
O2 Zn2 2.093308 1_555
O3 Zn3 2.093308 1_555
O4 Zn3 2.070447 1_565
O5 Zn2 2.070447 1_545
O6 Zn1 2.070447 1_546
O7 Zn0 2.070447 1_564
O12 Zn0 2.061624 1_555
O12 Zn0 2.075565 1_565
O13 Zn1 2.061624 1_555
O13 Zn1 2.075565 1_545
O14 Zn2 2.061624 1_555
O14 Zn2 2.075565 1_545
O15 Zn3 2.061624 1_555
O15 Zn3 2.075565 1_565
O16 Zn2 2.146456 1_555
O17 Zn3 2.146456 1_555
O18 Zn0 2.146456 1_555
O19 Zn1 2.146456 1_555
