# generated using pymatgen
data_Na3(CO4)2
_symmetry_space_group_name_H-M   'P 1'
_cell_length_a   10.76193232
_cell_length_b   10.76193232
_cell_length_c   9.82985483
_cell_angle_alpha   65.71903022
_cell_angle_beta   65.71903022
_cell_angle_gamma   18.84797612
_symmetry_Int_Tables_number   1
_chemical_formula_structural   Na3(CO4)2
_chemical_formula_sum   'Na6 C4 O16'
_cell_volume   334.32072095
_cell_formula_units_Z   2
loop_
 _symmetry_equiv_pos_site_id
 _symmetry_equiv_pos_as_xyz
  1  'x, y, z'
loop_
 _atom_site_type_symbol
 _atom_site_label
 _atom_site_symmetry_multiplicity
 _atom_site_fract_x
 _atom_site_fract_y
 _atom_site_fract_z
 _atom_site_occupancy
  Na  Na0  1  0.19031000  0.80969000  0.75000000  1
  Na  Na1  1  0.80969000  0.19031000  0.25000000  1
  Na  Na2  1  0.09514200  0.25100100  0.64070500  1
  Na  Na3  1  0.74899900  0.90485800  0.85929500  1
  Na  Na4  1  0.90485800  0.74899900  0.35929500  1
  Na  Na5  1  0.25100100  0.09514200  0.14070500  1
  C  C0  1  0.80102700  0.40097200  0.44324500  1
  C  C1  1  0.59902800  0.19897300  0.05675500  1
  C  C2  1  0.19897300  0.59902800  0.55675500  1
  C  C3  1  0.40097200  0.80102700  0.94324500  1
  O  O0  1  0.71511300  0.62700400  0.35976000  1
  O  O1  1  0.37299600  0.28488700  0.14024000  1
  O  O2  1  0.28488700  0.37299600  0.64024000  1
  O  O3  1  0.62700400  0.71511300  0.85976000  1
  O  O4  1  0.90422100  0.25510400  0.35152400  1
  O  O5  1  0.74489600  0.09577900  0.14847600  1
  O  O6  1  0.09577900  0.74489600  0.64847600  1
  O  O7  1  0.25510400  0.90422100  0.85152400  1
  O  O8  1  0.76916000  0.38373700  0.58224500  1
  O  O9  1  0.61626300  0.23084000  0.91775500  1
  O  O10  1  0.23084000  0.61626300  0.41775500  1
  O  O11  1  0.38373700  0.76916000  0.08224500  1
  O  O12  1  0.64406200  0.76683000  0.44841200  1
  O  O13  1  0.23317000  0.35593800  0.05158800  1
  O  O14  1  0.35593800  0.23317000  0.55158800  1
  O  O15  1  0.76683000  0.64406200  0.94841200  1
loop_
_geom_bond_atom_site_label_1
_geom_bond_atom_site_label_2
_geom_bond_distance
_geom_bond_site_symmetry_2
Na0 O6 2.295030 1_555
Na0 O7 2.295030 1_555
Na0 O8 2.489589 1_465
Na0 O9 2.489589 1_465
Na0 O8 2.501541 1_555
Na0 O9 2.501541 1_555
Na1 O4 2.295030 1_555
Na1 O5 2.295030 1_555
Na1 O11 2.489589 1_645
Na1 O10 2.489589 1_645
Na1 O11 2.501541 1_555
Na1 O10 2.501541 1_555
Na2 O7 2.366247 1_545
Na2 O14 2.403825 1_555
Na2 O12 2.421829 1_455
Na2 O8 2.485096 1_455
Na2 O12 2.505248 1_545
Na2 O3 2.694509 1_455
Na2 O3 2.846379 1_545
Na3 O6 2.366247 1_655
Na3 O15 2.403825 1_555
Na3 O13 2.421829 1_566
Na3 O9 2.485096 1_565
Na3 O13 2.505248 1_656
Na3 O2 2.694509 1_565
Na3 O2 2.846379 1_655
Na4 O5 2.366247 1_565
Na4 O12 2.403825 1_555
Na4 O14 2.421829 1_655
Na4 O10 2.485096 1_655
Na4 O14 2.505248 1_565
Na4 O1 2.694509 1_655
Na4 O1 2.846379 1_565
Na5 O4 2.366247 1_455
Na5 O13 2.403825 1_555
Na5 O15 2.421829 1_544
Na5 O11 2.485096 1_545
Na5 O15 2.505248 1_454
Na5 O0 2.694509 1_545
Na5 O0 2.846379 1_455
C0 O8 1.243190 1_555
C0 O4 1.245515 1_555
C0 O0 1.473366 1_555
C1 O9 1.243190 1_554
C1 O5 1.245515 1_555
C1 O1 1.473366 1_555
C2 O10 1.243190 1_555
C2 O6 1.245515 1_555
C2 O2 1.473366 1_555
C3 O11 1.243190 1_556
C3 O7 1.245515 1_555
C3 O3 1.473366 1_555
O0 O12 1.400386 1_555
O1 O13 1.400386 1_555
O14 O2 1.400386 1_555
O15 O3 1.400386 1_555
