# generated using pymatgen
data_LiV3Zn2O8
_symmetry_space_group_name_H-M   'P 1'
_cell_length_a   5.98038182
_cell_length_b   5.96949257
_cell_length_c   10.35327057
_cell_angle_alpha   89.62288374
_cell_angle_beta   106.60960131
_cell_angle_gamma   60.07261570
_symmetry_Int_Tables_number   1
_chemical_formula_structural   LiV3Zn2O8
_chemical_formula_sum   'Li2 V6 Zn4 O16'
_cell_volume   301.96641593
_cell_formula_units_Z   2
loop_
 _symmetry_equiv_pos_site_id
 _symmetry_equiv_pos_as_xyz
  1  'x, y, z'
loop_
 _atom_site_type_symbol
 _atom_site_label
 _atom_site_symmetry_multiplicity
 _atom_site_fract_x
 _atom_site_fract_y
 _atom_site_fract_z
 _atom_site_occupancy
  Li  Li0  1  0.37499700  0.06250200  0.31249500  1
  Li  Li1  1  0.37499900  0.56250100  0.81249900  1
  V  V0  1  0.37346300  0.31345600  0.06225700  1
  V  V1  1  0.37658500  0.81153300  0.56276200  1
  V  V2  1  0.87500400  0.56249200  0.81250200  1
  V  V3  1  0.37499500  0.56251200  0.31248900  1
  V  V4  1  0.37501400  0.06248500  0.81250300  1
  V  V5  1  0.87499900  0.06249500  0.31249600  1
  Zn  Zn0  1  0.99444400  0.99338900  0.00304700  1
  Zn  Zn1  1  0.99411000  0.49381600  0.50282400  1
  Zn  Zn2  1  0.75587900  0.63119200  0.12217400  1
  Zn  Zn3  1  0.75554000  0.13161500  0.62195400  1
  O  O0  1  0.62214800  0.41803600  0.18688800  1
  O  O1  1  0.60358200  0.93752200  0.68729200  1
  O  O2  1  0.12785700  0.70695600  0.43812000  1
  O  O3  1  0.14641500  0.18746400  0.93771100  1
  O  O4  1  0.15870300  0.43388800  0.18547300  1
  O  O5  1  0.15896300  0.93732200  0.68762400  1
  O  O6  1  0.59129300  0.69112000  0.43952400  1
  O  O7  1  0.59101500  0.18768800  0.93737000  1
  O  O8  1  0.11302900  0.93483900  0.20687900  1
  O  O9  1  0.13722800  0.40938700  0.70673300  1
  O  O10  1  0.13113600  0.14935900  0.44021900  1
  O  O11  1  0.13646300  0.64727500  0.94200400  1
  O  O12  1  0.61887200  0.97564500  0.18478600  1
  O  O13  1  0.61353400  0.47772900  0.68299200  1
  O  O14  1  0.63696100  0.19016700  0.41812500  1
  O  O15  1  0.61277200  0.71561200  0.91826000  1
loop_
_geom_bond_atom_site_label_1
_geom_bond_atom_site_label_2
_geom_bond_distance
_geom_bond_site_symmetry_2
Li0 O4 2.108406 1_555
Li0 O6 2.108420 1_545
Li0 O8 2.110403 1_545
Li0 O14 2.110438 1_555
Li0 O12 2.121585 1_545
Li0 O10 2.121651 1_555
Li1 O7 2.114104 1_555
Li1 O5 2.114146 1_555
Li1 O11 2.114460 1_555
Li1 O13 2.114474 1_555
Li1 O15 2.115706 1_555
Li1 O9 2.115728 1_555
O0 Zn2 2.004529 1_555
O0 V0 2.026447 1_555
O0 V5 2.029643 1_555
O0 V3 2.112140 1_555
O1 Zn3 2.004407 1_565
O1 V1 2.025263 1_555
O1 V4 2.028249 1_565
O1 V2 2.111894 1_555
O2 Zn1 2.004481 1_455
O2 V1 2.026666 1_555
O2 V5 2.029706 1_465
O2 V3 2.112322 1_555
O3 Zn0 2.004376 1_446
O3 V0 2.025556 1_556
O3 V4 2.028351 1_555
O3 V2 2.111878 1_455
O4 V0 1.954793 1_555
O4 Zn2 1.968832 1_455
O4 V3 2.005954 1_555
O5 Zn3 1.971794 1_465
O5 V4 1.979958 1_565
O5 V1 1.981996 1_555
O6 V1 1.954775 1_555
O6 Zn1 1.968797 1_555
O6 V3 2.006003 1_555
O7 Zn0 1.971823 1_546
O7 V4 1.979873 1_555
O7 V0 1.981934 1_556
O8 V5 1.902961 1_465
O8 Zn0 1.991467 1_455
O8 V3 2.025884 1_555
O9 V4 1.910825 1_555
O9 Zn1 1.991479 1_455
O9 V2 2.014578 1_455
O10 V1 1.943999 1_545
O10 Zn1 1.989882 1_455
O10 V5 2.001861 1_455
O11 V0 1.915784 1_556
O11 Zn0 1.990664 1_456
O11 V2 2.024538 1_455
O12 V0 1.943865 1_565
O12 Zn2 1.989896 1_555
O12 V5 2.001705 1_565
O13 V1 1.915611 1_555
O13 Zn3 1.990641 1_555
O13 V2 2.024545 1_555
O14 V5 1.903097 1_555
O14 Zn3 1.991439 1_555
O14 V3 2.026044 1_555
O15 V4 1.910648 1_565
O15 Zn2 1.991526 1_556
O15 V2 2.014531 1_555
