# generated using pymatgen
data_Ca(SnO2)2
_symmetry_space_group_name_H-M   'P 1'
_cell_length_a   6.73862991
_cell_length_b   6.73862991
_cell_length_c   17.78461633
_cell_angle_alpha   85.74154519
_cell_angle_beta   85.74154519
_cell_angle_gamma   56.50914924
_symmetry_Int_Tables_number   1
_chemical_formula_structural   Ca(SnO2)2
_chemical_formula_sum   'Ca6 Sn12 O24'
_cell_volume   671.10664939
_cell_formula_units_Z   6
loop_
 _symmetry_equiv_pos_site_id
 _symmetry_equiv_pos_as_xyz
  1  'x, y, z'
loop_
 _atom_site_type_symbol
 _atom_site_label
 _atom_site_symmetry_multiplicity
 _atom_site_fract_x
 _atom_site_fract_y
 _atom_site_fract_z
 _atom_site_occupancy
  Ca  Ca0  1  0.83547300  0.83547300  0.95928600  1
  Ca  Ca1  1  0.16671400  0.16671400  0.66652000  1
  Ca  Ca2  1  0.33707500  0.33707500  0.83170300  1
  Ca  Ca3  1  0.83190900  0.83190900  0.33369500  1
  Ca  Ca4  1  0.00006800  0.00006800  0.49988400  1
  Ca  Ca5  1  0.66266000  0.66266000  0.16837100  1
  Sn  Sn0  1  0.83799500  0.33543800  0.83322200  1
  Sn  Sn1  1  0.50292900  0.50292900  0.62349200  1
  Sn  Sn2  1  0.49940800  0.49940800  0.99095100  1
  Sn  Sn3  1  0.33543800  0.83799500  0.83322200  1
  Sn  Sn4  1  0.49989900  0.00010100  0.50006300  1
  Sn  Sn5  1  0.16756900  0.16756900  0.28832000  1
  Sn  Sn6  1  0.00010100  0.49989900  0.50006300  1
  Sn  Sn7  1  0.16165500  0.66431200  0.16562400  1
  Sn  Sn8  1  0.83262300  0.83262300  0.71042500  1
  Sn  Sn9  1  0.66431200  0.16165500  0.16562400  1
  Sn  Sn10  1  0.49689100  0.49689100  0.37641600  1
  Sn  Sn11  1  0.16366500  0.16366500  0.04703000  1
  O  O0  1  0.67304600  0.20128200  0.90662700  1
  O  O1  1  0.52312200  0.52312200  0.77389600  1
  O  O2  1  0.20128200  0.67304600  0.90662700  1
  O  O3  1  0.65723300  0.65723300  0.89847900  1
  O  O4  1  0.34362500  0.85527800  0.57485500  1
  O  O5  1  0.02315000  0.02315000  0.76917700  1
  O  O6  1  0.18377100  0.18377100  0.44005700  1
  O  O7  1  0.47890000  0.99220900  0.75773100  1
  O  O8  1  0.85527800  0.34362500  0.57485500  1
  O  O9  1  0.15327100  0.15327100  0.89180300  1
  O  O10  1  0.31092500  0.31092500  0.56436100  1
  O  O11  1  0.99220900  0.47890000  0.75773100  1
  O  O12  1  0.00649300  0.52149700  0.24176400  1
  O  O13  1  0.68829800  0.68829800  0.43592900  1
  O  O14  1  0.14438500  0.65629800  0.42515600  1
  O  O15  1  0.52149700  0.00649300  0.24176400  1
  O  O16  1  0.84421200  0.84421200  0.09943000  1
  O  O17  1  0.81642200  0.81642200  0.55955700  1
  O  O18  1  0.96940000  0.96940000  0.23037500  1
  O  O19  1  0.65629800  0.14438500  0.42515600  1
  O  O20  1  0.34555300  0.34555300  0.10512100  1
  O  O21  1  0.82523300  0.31317800  0.10002500  1
  O  O22  1  0.47845800  0.47845800  0.22558000  1
  O  O23  1  0.31317800  0.82523300  0.10002500  1
loop_
_geom_bond_atom_site_label_1
_geom_bond_atom_site_label_2
_geom_bond_distance
_geom_bond_site_symmetry_2
Ca0 O0 2.232333 1_565
Ca0 O2 2.232333 1_655
Ca0 O3 2.456142 1_555
Ca0 O16 2.503288 1_556
Ca1 O10 2.389036 1_555
Ca1 O5 2.390256 1_555
Ca1 O11 2.435808 1_455
Ca1 O7 2.435808 1_545
Ca1 O8 2.437529 1_455
Ca1 O4 2.437529 1_545
Ca2 O9 2.347439 1_555
Ca2 O1 2.356323 1_555
Ca2 O0 2.391468 1_555
Ca2 O2 2.391468 1_555
Ca2 O11 2.420934 1_455
Ca2 O7 2.420934 1_545
Ca3 O18 2.352640 1_555
Ca3 O13 2.385331 1_555
Ca3 O15 2.437003 1_565
Ca3 O12 2.437003 1_655
Ca3 O19 2.439845 1_565
Ca3 O14 2.439845 1_655
Ca4 O17 2.342913 1_445
Ca4 O6 2.344544 1_555
Ca4 O14 2.420208 1_545
Ca4 O19 2.420208 1_455
Ca4 O4 2.421119 1_545
Ca4 O8 2.421119 1_455
Ca5 O22 2.332799 1_555
Ca5 O21 2.367248 1_555
Ca5 O23 2.367248 1_555
Ca5 O16 2.388104 1_555
Ca5 O15 2.410248 1_565
Ca5 O12 2.410248 1_655
O0 Sn0 2.115475 1_555
O0 Sn2 2.290560 1_555
O1 Sn0 2.094658 1_555
O1 Sn3 2.094658 1_555
O1 Sn1 2.705651 1_555
O2 Sn3 2.115475 1_555
O2 Sn2 2.290560 1_555
O3 Sn3 2.186695 1_555
O3 Sn0 2.186695 1_555
O3 Sn2 2.386540 1_555
O4 Sn1 2.134970 1_555
O4 Sn4 2.136357 1_565
O5 Sn0 2.128335 1_455
O5 Sn3 2.128335 1_545
O5 Sn8 2.570243 1_445
O6 Sn4 2.107245 1_555
O6 Sn6 2.107245 1_555
O6 Sn5 2.721556 1_555
O7 Sn3 2.127386 1_555
O7 Sn8 2.133900 1_555
O8 Sn1 2.134970 1_555
O8 Sn6 2.136357 1_655
O9 Sn0 2.089628 1_455
O9 Sn3 2.089628 1_545
O9 Sn11 2.773781 1_556
O10 Sn6 2.124185 1_555
O10 Sn4 2.124185 1_555
O10 Sn1 2.589515 1_555
O11 Sn0 2.127386 1_555
O11 Sn8 2.133900 1_555
O12 Sn5 2.129585 1_555
O12 Sn7 2.135355 1_555
O13 Sn4 2.127077 1_565
O13 Sn6 2.127077 1_655
O13 Sn10 2.586312 1_555
O14 Sn6 2.135599 1_555
O14 Sn10 2.136424 1_555
O15 Sn5 2.129585 1_555
O15 Sn9 2.135355 1_555
O16 Sn7 2.175207 1_655
O16 Sn9 2.175207 1_565
O17 Sn4 2.104294 1_565
O17 Sn6 2.104294 1_655
O17 Sn8 2.706137 1_555
O18 Sn7 2.102801 1_655
O18 Sn9 2.102801 1_565
O18 Sn5 2.646749 1_665
O19 Sn4 2.135599 1_555
O19 Sn10 2.136424 1_555
O20 Sn7 2.124849 1_555
O20 Sn9 2.124849 1_555
O20 Sn11 2.471023 1_555
O20 Sn2 2.614114 1_554
O21 Sn11 2.095333 1_655
O21 Sn9 2.106343 1_555
O21 Sn2 2.718222 1_554
O22 Sn9 2.109981 1_555
O22 Sn7 2.109981 1_555
O22 Sn10 2.709794 1_555
O23 Sn11 2.095333 1_565
O23 Sn7 2.106343 1_555
O23 Sn2 2.718222 1_554
