# generated using pymatgen
data_Mn(Ni3O4)2
_symmetry_space_group_name_H-M   'P 1'
_cell_length_a   5.89233324
_cell_length_b   5.89233555
_cell_length_c   5.89237318
_cell_angle_alpha   60.00125997
_cell_angle_beta   60.00127179
_cell_angle_gamma   60.00084230
_symmetry_Int_Tables_number   1
_chemical_formula_structural   Mn(Ni3O4)2
_chemical_formula_sum   'Mn1 Ni6 O8'
_cell_volume   144.66420709
_cell_formula_units_Z   1
loop_
 _symmetry_equiv_pos_site_id
 _symmetry_equiv_pos_as_xyz
  1  'x, y, z'
loop_
 _atom_site_type_symbol
 _atom_site_label
 _atom_site_symmetry_multiplicity
 _atom_site_fract_x
 _atom_site_fract_y
 _atom_site_fract_z
 _atom_site_occupancy
  Mn  Mn0  1  -0.00000000  0.00000000  0.00000000  1
  Ni  Ni0  1  -0.00000000  0.50000000  0.50000000  1
  Ni  Ni1  1  -0.00000000  0.50000000  0.00000000  1
  Ni  Ni2  1  0.50000000  0.00000000  0.50000000  1
  Ni  Ni3  1  0.50000000  0.50000000  0.00000000  1
  Ni  Ni4  1  -0.00000000  0.00000000  0.50000000  1
  Ni  Ni5  1  0.50000000  0.00000000  0.00000000  1
  O  O0  1  0.22819505  0.77180431  0.77180278  1
  O  O1  1  0.22819586  0.77180484  0.22819735  1
  O  O2  1  0.77180414  0.22819516  0.77180265  1
  O  O3  1  0.22819638  0.22819828  0.77180283  1
  O  O4  1  0.77180362  0.77180172  0.22819617  1
  O  O5  1  0.77180495  0.22819569  0.22819722  1
  O  O6  1  0.75000036  0.75000032  0.74999903  1
  O  O7  1  0.24999964  0.24999968  0.25000097  1
loop_
_geom_bond_atom_site_label_1
_geom_bond_atom_site_label_2
_geom_bond_distance
_geom_bond_site_symmetry_2
Mn0 O0 1.901584 1_544
Mn0 O5 1.901584 1_455
Mn0 O2 1.901585 1_454
Mn0 O1 1.901585 1_545
Mn0 O4 1.901597 1_445
Mn0 O3 1.901597 1_554
Ni0 O7 2.083273 1_555
Ni0 O6 2.083273 1_455
Ni0 O3 2.091183 1_555
Ni0 O4 2.091187 1_455
Ni0 O2 2.091196 1_455
Ni0 O1 2.091196 1_555
Ni1 O7 2.083277 1_555
Ni1 O6 2.083277 1_454
Ni1 O4 2.091170 1_455
Ni1 O3 2.091174 1_554
Ni1 O5 2.091183 1_455
Ni1 O0 2.091183 1_554
Ni2 O6 2.083272 1_545
Ni2 O7 2.083272 1_555
Ni2 O3 2.091191 1_555
Ni2 O4 2.091196 1_545
Ni2 O0 2.091196 1_545
Ni2 O5 2.091196 1_555
Ni3 O7 2.083284 1_555
Ni3 O6 2.083284 1_554
Ni3 O0 2.091193 1_554
Ni3 O5 2.091193 1_555
Ni3 O2 2.091193 1_554
Ni3 O1 2.091193 1_555
Ni4 O6 2.083279 1_445
Ni4 O7 2.083279 1_555
Ni4 O5 2.091172 1_455
Ni4 O0 2.091172 1_545
Ni4 O2 2.091173 1_455
Ni4 O1 2.091173 1_545
Ni5 O6 2.083278 1_544
Ni5 O7 2.083278 1_555
Ni5 O4 2.091177 1_545
Ni5 O3 2.091181 1_554
Ni5 O2 2.091182 1_554
Ni5 O1 2.091182 1_545
