# generated using pymatgen
data_Ca2SiO4
_symmetry_space_group_name_H-M   'P 1'
_cell_length_a   5.62538001
_cell_length_b   5.62538001
_cell_length_c   6.80806400
_cell_angle_alpha   90.00000000
_cell_angle_beta   90.00000000
_cell_angle_gamma   120.00000014
_symmetry_Int_Tables_number   1
_chemical_formula_structural   Ca2SiO4
_chemical_formula_sum   'Ca4 Si2 O8'
_cell_volume   186.57695127
_cell_formula_units_Z   2
loop_
 _symmetry_equiv_pos_site_id
 _symmetry_equiv_pos_as_xyz
  1  'x, y, z'
loop_
 _atom_site_type_symbol
 _atom_site_label
 _atom_site_symmetry_multiplicity
 _atom_site_fract_x
 _atom_site_fract_y
 _atom_site_fract_z
 _atom_site_occupancy
  Ca  Ca0  1  0.66666700  0.33333300  0.34389100  1
  Ca  Ca1  1  0.33333300  0.66666700  0.65610900  1
  Ca  Ca2  1  0.00000000  0.00000000  0.50000000  1
  Ca  Ca3  1  0.00000000  0.00000000  0.00000000  1
  Si  Si0  1  0.66666700  0.33333300  0.80231200  1
  Si  Si1  1  0.33333300  0.66666700  0.19768800  1
  O  O0  1  0.66666700  0.33333300  0.03773100  1
  O  O1  1  0.33333300  0.66666700  0.96226900  1
  O  O2  1  0.35440900  0.17720400  0.70777300  1
  O  O3  1  0.82279600  0.64559100  0.70777300  1
  O  O4  1  0.82279600  0.17720400  0.70777300  1
  O  O5  1  0.64559100  0.82279600  0.29222700  1
  O  O6  1  0.17720400  0.35440900  0.29222700  1
  O  O7  1  0.17720400  0.82279600  0.29222700  1
loop_
_geom_bond_atom_site_label_1
_geom_bond_atom_site_label_2
_geom_bond_distance
_geom_bond_site_symmetry_2
Ca0 O0 2.084357 1_555
Ca0 O6 2.836450 1_655
Ca0 O5 2.836450 1_545
Ca0 O7 2.836456 1_655
Ca0 O7 2.836456 1_545
Ca0 O5 2.836462 1_555
Ca0 O6 2.836462 1_555
Ca0 O2 2.907117 1_555
Ca0 O3 2.907117 1_555
Ca0 O4 2.907117 1_555
Ca1 O1 2.084357 1_555
Ca1 O2 2.836450 1_565
Ca1 O3 2.836450 1_455
Ca1 O4 2.836456 1_455
Ca1 O4 2.836456 1_565
Ca1 O2 2.836462 1_555
Ca1 O3 2.836462 1_555
Ca1 O5 2.907117 1_555
Ca1 O6 2.907117 1_555
Ca1 O7 2.907117 1_555
Ca2 O7 2.232033 1_545
Ca2 O4 2.232033 1_455
Ca2 O6 2.232036 1_555
Ca2 O3 2.232036 1_445
Ca2 O2 2.232036 1_555
Ca2 O5 2.232036 1_445
Ca3 O7 2.634232 1_545
Ca3 O4 2.634232 1_454
Ca3 O3 2.634235 1_444
Ca3 O5 2.634235 1_445
Ca3 O2 2.634235 1_554
Ca3 O6 2.634235 1_555
O0 Si0 1.602748 1_554
O1 Si1 1.602748 1_556
O2 Si0 1.651790 1_555
O3 Si0 1.651790 1_555
O4 Si0 1.651790 1_555
O5 Si1 1.651790 1_555
O6 Si1 1.651790 1_555
O7 Si1 1.651790 1_555
