# generated using pymatgen
data_KFe8P8H16N7(O4F)8
_symmetry_space_group_name_H-M   'P 1'
_cell_length_a   6.36460075
_cell_length_b   10.94173084
_cell_length_c   13.20351923
_cell_angle_alpha   90.77599153
_cell_angle_beta   90.74617144
_cell_angle_gamma   89.85832936
_symmetry_Int_Tables_number   1
_chemical_formula_structural   KFe8P8H16N7(O4F)8
_chemical_formula_sum   'K1 Fe8 P8 H16 N7 O32 F8'
_cell_volume   919.32503722
_cell_formula_units_Z   1
loop_
 _symmetry_equiv_pos_site_id
 _symmetry_equiv_pos_as_xyz
  1  'x, y, z'
loop_
 _atom_site_type_symbol
 _atom_site_label
 _atom_site_symmetry_multiplicity
 _atom_site_fract_x
 _atom_site_fract_y
 _atom_site_fract_z
 _atom_site_occupancy
  K  K0  1  0.73875400  0.11894400  0.61595000  1
  Fe  Fe0  1  0.02846900  0.40798600  0.62016400  1
  Fe  Fe1  1  0.98374000  0.92363000  0.38103200  1
  Fe  Fe2  1  0.52725700  0.90976800  0.87426200  1
  Fe  Fe3  1  0.47417100  0.41276400  0.12697300  1
  Fe  Fe4  1  0.27089500  0.16192000  0.74428400  1
  Fe  Fe5  1  0.73213900  0.66769400  0.25410500  1
  Fe  Fe6  1  0.77788500  0.65899200  0.75235000  1
  Fe  Fe7  1  0.22984100  0.16406100  0.24931000  1
  P  P0  1  0.52472500  0.41213100  0.68866500  1
  P  P1  1  0.48400100  0.91740500  0.31175600  1
  P  P2  1  0.02269000  0.91407300  0.80896800  1
  P  P3  1  0.97865300  0.41697100  0.18962000  1
  P  P4  1  0.32369200  0.18193800  0.99957700  1
  P  P5  1  0.67934000  0.68113900  0.99866300  1
  P  P6  1  0.82271200  0.68171300  0.49887700  1
  P  P7  1  0.17624700  0.16825500  0.49549500  1
  H  H0  1  0.89235900  0.43663200  0.87824100  1
  H  H1  1  0.10940500  0.93683600  0.12556000  1
  H  H2  1  0.35302700  0.92662900  0.62698500  1
  H  H3  1  0.60823900  0.44354100  0.36906900  1
  H  H4  1  0.96544100  0.29066700  0.89761000  1
  H  H5  1  0.03697500  0.79036700  0.10668300  1
  H  H6  1  0.45704300  0.78558300  0.60843000  1
  H  H7  1  0.53040200  0.29862900  0.39158300  1
  H  H8  1  0.70876300  0.32798400  0.88319300  1
  H  H9  1  0.29340900  0.82756400  0.12230600  1
  H  H10  1  0.19413500  0.80930700  0.60736500  1
  H  H11  1  0.78911500  0.33220700  0.37501700  1
  H  H12  1  0.83855700  0.37079800  0.99142600  1
  H  H13  1  0.16429400  0.86648500  0.01359400  1
  H  H14  1  0.33667400  0.86065900  0.50903800  1
  H  H15  1  0.66454900  0.37918700  0.48209500  1
  N  N0  1  0.85231300  0.35622300  0.91238900  1
  N  N1  1  0.15040000  0.85500600  0.09169800  1
  N  N2  1  0.33803800  0.84505300  0.58803500  1
  N  N3  1  0.64818600  0.36326200  0.40423800  1
  N  N4  1  0.17726800  0.56929300  0.44629500  1
  N  N5  1  0.32190600  0.57191100  0.94712200  1
  N  N6  1  0.67775900  0.07098100  0.05337300  1
  O  O0  1  0.32789800  0.43752400  0.62265500  1
  O  O1  1  0.67714500  0.94600700  0.38049700  1
  O  O2  1  0.82841600  0.94175900  0.87487900  1
  O  O3  1  0.17243300  0.44178800  0.12291500  1
  O  O4  1  0.21052900  0.17179300  0.89764400  1
  O  O5  1  0.79578800  0.67404300  0.09899500  1
  O  O6  1  0.71091800  0.66963000  0.59924100  1
  O  O7  1  0.30962300  0.18700700  0.40035100  1
  O  O8  1  0.06742200  0.02113500  0.73579900  1
  O  O9  1  0.92673300  0.52542000  0.26099100  1
  O  O10  1  0.57969600  0.51974200  0.76037600  1
  O  O11  1  0.42669600  0.02465600  0.24132900  1
  O  O12  1  0.45621800  0.29699300  0.01008400  1
  O  O13  1  0.54545900  0.79599600  0.98709800  1
  O  O14  1  0.95644500  0.79576500  0.49118600  1
  O  O15  1  0.03512700  0.28312400  0.51471000  1
  O  O16  1  0.48856200  0.29473500  0.75262500  1
  O  O17  1  0.52650600  0.80288800  0.24323600  1
  O  O18  1  0.98326700  0.79619500  0.74493800  1
  O  O19  1  0.01857700  0.30086000  0.25353600  1
  O  O20  1  0.31776100  0.14756200  0.59146900  1
  O  O21  1  0.68850100  0.64880800  0.40720700  1
  O  O22  1  0.80855400  0.64667400  0.90680700  1
  O  O23  1  0.19496100  0.14826500  0.09035600  1
  O  O24  1  0.51239000  0.06651200  0.98796700  1
  O  O25  1  0.49208300  0.56706700  0.00934200  1
  O  O26  1  0.00851900  0.56333200  0.50768100  1
  O  O27  1  0.02581000  0.05811500  0.48151400  1
  O  O28  1  0.71334700  0.38810600  0.61529700  1
  O  O29  1  0.29575200  0.89207100  0.38345600  1
  O  O30  1  0.21702700  0.89800100  0.88130100  1
  O  O31  1  0.78543300  0.39745400  0.11544500  1
  F  F0  1  0.49794700  0.03750800  0.76563200  1
  F  F1  1  0.50436900  0.54435000  0.22952000  1
  F  F2  1  0.00067600  0.53684400  0.72782800  1
  F  F3  1  0.00767000  0.04096900  0.26593800  1
  F  F4  1  0.03628200  0.27930300  0.72644600  1
  F  F5  1  0.95956100  0.78719700  0.27611500  1
  F  F6  1  0.54513700  0.78187600  0.76971200  1
  F  F7  1  0.46129600  0.28429500  0.22648700  1
loop_
_geom_bond_atom_site_label_1
_geom_bond_atom_site_label_2
_geom_bond_distance
_geom_bond_site_symmetry_2
K0 O27 2.641606 1_655
K0 O20 2.712569 1_555
K0 O8 2.823790 1_655
K0 O28 2.949258 1_555
K0 O15 2.952883 1_655
K0 O16 3.075316 1_555
Fe0 O0 1.933528 1_555
Fe0 O15 1.938225 1_555
Fe0 O28 2.018019 1_455
Fe0 O26 2.274515 1_555
Fe1 O1 1.965988 1_555
Fe1 O27 1.984186 1_665
Fe1 O29 2.014707 1_655
Fe1 O14 2.041029 1_555
Fe2 O2 1.949201 1_555
Fe2 O13 1.956459 1_555
Fe2 O30 1.982470 1_555
Fe2 O24 2.266589 1_565
Fe3 O3 1.945915 1_555
Fe3 O12 1.985638 1_555
Fe3 O31 1.995331 1_555
Fe3 O25 2.313512 1_555
Fe4 O16 2.011187 1_555
Fe4 O8 2.015932 1_555
Fe4 O20 2.047342 1_555
Fe4 O4 2.067269 1_555
Fe5 O17 1.978121 1_555
Fe5 O9 1.989205 1_555
Fe5 O21 2.057296 1_555
Fe5 O5 2.094953 1_555
Fe6 O10 1.985238 1_555
Fe6 O18 1.997252 1_555
Fe6 O22 2.052381 1_555
Fe6 O6 2.065351 1_555
Fe7 O11 1.974118 1_555
Fe7 O19 2.010297 1_555
Fe7 O7 2.063660 1_555
Fe7 O23 2.112379 1_555
H0 N0 1.028187 1_555
H1 N1 1.029896 1_555
H2 N2 1.028103 1_555
H3 N3 1.028935 1_555
H4 N0 1.033599 1_555
H5 N1 1.034673 1_555
H6 N2 1.032769 1_555
H7 N3 1.042198 1_555
H8 N0 1.033347 1_555
H9 N1 1.036480 1_555
H10 N2 1.033211 1_555
H11 N3 1.035763 1_555
H12 N0 1.058268 1_555
H12 O31 1.697571 1_556
H13 N1 1.045469 1_555
H14 N2 1.059124 1_555
H14 O29 1.714377 1_555
H15 N3 1.044229 1_555
N4 O26 1.356154 1_555
N5 O25 1.352240 1_556
N6 O24 1.353288 1_554
O0 P0 1.543549 1_555
O1 P1 1.548551 1_555
O2 P2 1.548232 1_655
O3 P3 1.551442 1_455
O4 P4 1.521033 1_555
O5 P5 1.512342 1_554
O6 P6 1.519723 1_555
O7 P7 1.541574 1_555
O8 P2 1.557604 1_545
O9 P3 1.543103 1_555
O10 P0 1.538997 1_555
O11 P1 1.547076 1_545
O12 P4 1.520855 1_554
O13 P5 1.524888 1_555
O14 P6 1.517576 1_555
O15 P7 1.562852 1_555
O16 P0 1.565898 1_555
O17 P1 1.560677 1_555
O18 P2 1.551706 1_655
O19 P3 1.553280 1_455
O20 P7 1.563748 1_555
O21 P6 1.512303 1_555
O22 P5 1.517082 1_555
O23 P4 1.510866 1_554
O24 P4 1.747280 1_555
O25 P5 1.736281 1_554
O26 P6 1.755771 1_455
O27 P7 1.548620 1_555
O28 P0 1.571800 1_555
O29 P1 1.564248 1_555
O30 P2 1.563847 1_555
O31 P3 1.575235 1_555
F0 Fe4 2.002722 1_555
F0 Fe2 2.022773 1_545
F0 K0 2.679959 1_555
F1 Fe3 1.971029 1_555
F1 Fe5 2.003463 1_555
F2 Fe6 1.972970 1_455
F2 Fe0 1.997750 1_555
F3 Fe7 1.971591 1_555
F3 Fe1 2.010159 1_445
F4 Fe4 1.980994 1_555
F4 Fe0 2.001393 1_555
F4 K0 2.944175 1_455
F5 Fe5 1.969115 1_555
F5 Fe1 2.027493 1_555
F6 Fe2 1.956456 1_555
F6 Fe6 2.011328 1_555
F7 Fe3 1.939706 1_555
F7 Fe7 2.005864 1_555
