# generated using pymatgen
data_Sr5Pb3F
_symmetry_space_group_name_H-M   'P 1'
_cell_length_a   10.13077082
_cell_length_b   10.13077126
_cell_length_c   10.13082543
_cell_angle_alpha   129.15461559
_cell_angle_beta   129.15461439
_cell_angle_gamma   74.77390008
_symmetry_Int_Tables_number   1
_chemical_formula_structural   Sr5Pb3F
_chemical_formula_sum   'Sr10 Pb6 F2'
_cell_volume   609.00378875
_cell_formula_units_Z   2
loop_
 _symmetry_equiv_pos_site_id
 _symmetry_equiv_pos_as_xyz
  1  'x, y, z'
loop_
 _atom_site_type_symbol
 _atom_site_label
 _atom_site_symmetry_multiplicity
 _atom_site_fract_x
 _atom_site_fract_y
 _atom_site_fract_z
 _atom_site_occupancy
  Sr  Sr0  1  0.50000000  0.50000000  -0.00000000  1
  Sr  Sr1  1  -0.00000000  0.00000000  -0.00000000  1
  Sr  Sr2  1  0.50725465  0.00725465  0.81886158  1
  Sr  Sr3  1  0.18836304  0.68836304  0.18109672  1
  Sr  Sr4  1  0.00719901  0.18849731  0.49999751  1
  Sr  Sr5  1  0.68849731  0.50719901  0.49999751  1
  Sr  Sr6  1  0.49274535  0.99274535  0.18113842  1
  Sr  Sr7  1  0.81163696  0.31163696  0.81890328  1
  Sr  Sr8  1  0.99280099  0.81150269  0.50000249  1
  Sr  Sr9  1  0.31150269  0.49280099  0.50000249  1
  Pb  Pb0  1  0.24999199  0.25000801  -0.00000000  1
  Pb  Pb1  1  0.75000801  0.74999199  0.00000000  1
  Pb  Pb2  1  0.87378224  0.37378224  0.24757054  1
  Pb  Pb3  1  0.12621776  0.62621776  0.75243046  1
  Pb  Pb4  1  0.37393712  0.12606288  0.50000000  1
  Pb  Pb5  1  0.62606288  0.87393712  0.50000000  1
  F  F0  1  0.25000400  0.75000400  0.49999645  1
  F  F1  1  0.74999600  0.24999600  0.50000355  1
loop_
_geom_bond_atom_site_label_1
_geom_bond_atom_site_label_2
_geom_bond_distance
_geom_bond_site_symmetry_2
Pb0 Sr5 3.630143 1_555
Pb0 Sr8 3.630143 1_444
Pb0 Sr7 3.630210 1_454
Pb0 Sr3 3.630210 1_555
Pb0 Sr9 3.630685 1_555
Pb0 Sr4 3.630685 1_554
Pb0 Sr2 3.630729 1_554
Pb0 Sr6 3.630729 1_545
Pb0 Sr0 4.024717 1_555
Pb0 Sr1 4.024717 1_555
Pb1 Sr9 3.630143 1_554
Pb1 Sr4 3.630143 1_665
Pb1 Sr3 3.630210 1_655
Pb1 Sr7 3.630210 1_554
Pb1 Sr5 3.630685 1_554
Pb1 Sr8 3.630685 1_555
Pb1 Sr6 3.630729 1_555
Pb1 Sr2 3.630729 1_564
Pb1 Sr0 4.024717 1_555
Pb1 Sr1 4.024717 1_665
Pb2 Pb3 3.104738 1_655
Pb2 Sr0 3.431872 1_555
Pb2 Sr1 3.431872 1_655
Pb2 Sr9 3.500236 1_655
Pb2 Sr8 3.500236 1_555
Pb2 Sr5 3.500623 1_555
Pb2 Sr4 3.500624 1_655
Pb2 Sr2 3.598552 1_554
Pb2 Sr7 3.599307 1_554
Pb3 Sr0 3.431869 1_556
Pb3 Sr1 3.431869 1_566
Pb3 Sr5 3.500233 1_455
Pb3 Sr4 3.500233 1_555
Pb3 Sr9 3.500632 1_555
Pb3 Sr8 3.500632 1_455
Pb3 Sr6 3.598553 1_556
Pb3 Sr3 3.599297 1_556
Pb4 Pb5 3.101829 1_545
Pb4 Sr1 3.432143 1_555
Pb4 Sr0 3.432143 1_556
Pb4 Sr7 3.500280 1_555
Pb4 Sr3 3.500280 1_545
Pb4 Sr6 3.500627 1_545
Pb4 Sr2 3.500627 1_555
Pb4 Sr4 3.601301 1_555
Pb4 Sr9 3.601301 1_555
Pb5 Sr1 3.432143 1_666
Pb5 Sr0 3.432143 1_555
Pb5 Sr3 3.500280 1_555
Pb5 Sr7 3.500280 1_565
Pb5 Sr2 3.500627 1_565
Pb5 Sr6 3.500627 1_555
Pb5 Sr8 3.601301 1_555
Pb5 Sr5 3.601301 1_555
F0 Sr2 2.514710 1_565
F0 Sr8 2.514975 1_455
F0 Sr9 2.514976 1_555
F0 Sr3 2.515314 1_555
F1 Sr6 2.514710 1_545
F1 Sr4 2.514975 1_655
F1 Sr5 2.514976 1_555
F1 Sr7 2.515314 1_555
