# generated using pymatgen
data_Mg30MnBiO32
_symmetry_space_group_name_H-M   'P 1'
_cell_length_a   8.64788900
_cell_length_b   8.64788900
_cell_length_c   8.65152100
_cell_angle_alpha   90.00000000
_cell_angle_beta   90.00000000
_cell_angle_gamma   90.00000000
_symmetry_Int_Tables_number   1
_chemical_formula_structural   Mg30MnBiO32
_chemical_formula_sum   'Mg30 Mn1 Bi1 O32'
_cell_volume   647.01251243
_cell_formula_units_Z   1
loop_
 _symmetry_equiv_pos_site_id
 _symmetry_equiv_pos_as_xyz
  1  'x, y, z'
loop_
 _atom_site_type_symbol
 _atom_site_label
 _atom_site_symmetry_multiplicity
 _atom_site_fract_x
 _atom_site_fract_y
 _atom_site_fract_z
 _atom_site_occupancy
  Mg  Mg0  1  0.00000000  0.50000000  0.00000000  1
  Mg  Mg1  1  0.50000000  0.00000000  0.00000000  1
  Mg  Mg2  1  0.00000000  0.00000000  0.50000000  1
  Mg  Mg3  1  0.00000000  0.50000000  0.50000000  1
  Mg  Mg4  1  0.50000000  0.00000000  0.50000000  1
  Mg  Mg5  1  0.50000000  0.50000000  0.50000000  1
  Mg  Mg6  1  0.24403000  0.24403000  0.00000000  1
  Mg  Mg7  1  0.24403000  0.75597000  0.00000000  1
  Mg  Mg8  1  0.75597000  0.24403000  0.00000000  1
  Mg  Mg9  1  0.75597000  0.75597000  0.00000000  1
  Mg  Mg10  1  0.24936200  0.24936200  0.50000000  1
  Mg  Mg11  1  0.24936200  0.75063800  0.50000000  1
  Mg  Mg12  1  0.75063800  0.24936200  0.50000000  1
  Mg  Mg13  1  0.75063800  0.75063800  0.50000000  1
  Mg  Mg14  1  0.00000000  0.25021400  0.25157600  1
  Mg  Mg15  1  0.00000000  0.74978600  0.25157600  1
  Mg  Mg16  1  0.50000000  0.24336400  0.25673000  1
  Mg  Mg17  1  0.50000000  0.75663600  0.25673000  1
  Mg  Mg18  1  0.00000000  0.25021400  0.74842400  1
  Mg  Mg19  1  0.00000000  0.74978600  0.74842400  1
  Mg  Mg20  1  0.50000000  0.24336400  0.74327000  1
  Mg  Mg21  1  0.50000000  0.75663600  0.74327000  1
  Mg  Mg22  1  0.25021400  0.00000000  0.25157600  1
  Mg  Mg23  1  0.24336400  0.50000000  0.25673000  1
  Mg  Mg24  1  0.74978600  0.00000000  0.25157600  1
  Mg  Mg25  1  0.75663600  0.50000000  0.25673000  1
  Mg  Mg26  1  0.25021400  0.00000000  0.74842400  1
  Mg  Mg27  1  0.24336400  0.50000000  0.74327000  1
  Mg  Mg28  1  0.74978600  0.00000000  0.74842400  1
  Mg  Mg29  1  0.75663600  0.50000000  0.74327000  1
  Mn  Mn0  1  0.00000000  0.00000000  0.00000000  1
  Bi  Bi0  1  0.50000000  0.50000000  0.00000000  1
  O  O0  1  0.00000000  0.00000000  0.25642300  1
  O  O1  1  0.00000000  0.50000000  0.25310200  1
  O  O2  1  0.50000000  0.00000000  0.25310200  1
  O  O3  1  0.50000000  0.50000000  0.26971100  1
  O  O4  1  0.00000000  0.00000000  0.74357700  1
  O  O5  1  0.00000000  0.50000000  0.74689800  1
  O  O6  1  0.50000000  0.00000000  0.74689800  1
  O  O7  1  0.50000000  0.50000000  0.73028900  1
  O  O8  1  0.25086100  0.25086100  0.24872000  1
  O  O9  1  0.25086100  0.74913900  0.24872000  1
  O  O10  1  0.74913900  0.25086100  0.24872000  1
  O  O11  1  0.74913900  0.74913900  0.24872000  1
  O  O12  1  0.25086100  0.25086100  0.75128000  1
  O  O13  1  0.25086100  0.74913900  0.75128000  1
  O  O14  1  0.74913900  0.25086100  0.75128000  1
  O  O15  1  0.74913900  0.74913900  0.75128000  1
  O  O16  1  0.00000000  0.25423800  0.00000000  1
  O  O17  1  0.00000000  0.74576200  0.00000000  1
  O  O18  1  0.50000000  0.23150400  0.00000000  1
  O  O19  1  0.50000000  0.76849600  0.00000000  1
  O  O20  1  0.00000000  0.25080700  0.50000000  1
  O  O21  1  0.00000000  0.74919300  0.50000000  1
  O  O22  1  0.50000000  0.24747600  0.50000000  1
  O  O23  1  0.50000000  0.75252400  0.50000000  1
  O  O24  1  0.25423800  0.00000000  0.00000000  1
  O  O25  1  0.23150400  0.50000000  0.00000000  1
  O  O26  1  0.74576200  0.00000000  0.00000000  1
  O  O27  1  0.76849600  0.50000000  0.00000000  1
  O  O28  1  0.25080700  0.00000000  0.50000000  1
  O  O29  1  0.24747600  0.50000000  0.50000000  1
  O  O30  1  0.74919300  0.00000000  0.50000000  1
  O  O31  1  0.75252400  0.50000000  0.50000000  1
loop_
_geom_bond_atom_site_label_1
_geom_bond_atom_site_label_2
_geom_bond_distance
_geom_bond_site_symmetry_2
Mg0 O25 2.002021 1_555
Mg0 O27 2.002021 1_455
Mg0 O17 2.125322 1_555
Mg0 O16 2.125322 1_555
Mg0 O1 2.189717 1_555
Mg0 O5 2.189717 1_554
Mg1 O18 2.002021 1_555
Mg1 O19 2.002021 1_545
Mg1 O26 2.125322 1_555
Mg1 O24 2.125322 1_555
Mg1 O2 2.189717 1_555
Mg1 O6 2.189717 1_554
Mg2 O4 2.107312 1_555
Mg2 O0 2.107312 1_555
Mg2 O30 2.168951 1_455
Mg2 O21 2.168951 1_545
Mg2 O20 2.168951 1_555
Mg2 O28 2.168951 1_555
Mg3 O5 2.136043 1_555
Mg3 O1 2.136043 1_555
Mg3 O29 2.140145 1_555
Mg3 O31 2.140145 1_455
Mg3 O21 2.154993 1_555
Mg3 O20 2.154993 1_555
Mg4 O6 2.136043 1_555
Mg4 O2 2.136043 1_555
Mg4 O22 2.140145 1_555
Mg4 O23 2.140145 1_545
Mg4 O28 2.154993 1_555
Mg4 O30 2.154993 1_555
Mg5 O7 1.992350 1_555
Mg5 O3 1.992350 1_555
Mg5 O29 2.183800 1_555
Mg5 O31 2.183800 1_555
Mg5 O22 2.183800 1_555
Mg5 O23 2.183800 1_555
Mg6 O24 2.112190 1_555
Mg6 O16 2.112190 1_555
Mg6 O12 2.153427 1_554
Mg6 O8 2.153427 1_555
Mg6 O25 2.216249 1_555
Mg6 O18 2.216249 1_555
Mg7 O24 2.112190 1_565
Mg7 O17 2.112190 1_555
Mg7 O13 2.153427 1_554
Mg7 O9 2.153427 1_555
Mg7 O19 2.216249 1_555
Mg7 O25 2.216249 1_555
Mg8 O16 2.112190 1_655
Mg8 O26 2.112190 1_555
Mg8 O14 2.153427 1_554
Mg8 O10 2.153427 1_555
Mg8 O27 2.216249 1_555
Mg8 O18 2.216249 1_555
Mg9 O26 2.112190 1_565
Mg9 O17 2.112190 1_655
Mg9 O15 2.153427 1_554
Mg9 O11 2.153427 1_555
Mg9 O19 2.216249 1_555
Mg9 O27 2.216249 1_555
Mg10 O20 2.156491 1_555
Mg10 O28 2.156491 1_555
Mg10 O22 2.167551 1_555
Mg10 O29 2.167551 1_555
Mg10 O8 2.174031 1_555
Mg10 O12 2.174031 1_555
Mg11 O21 2.156491 1_555
Mg11 O28 2.156491 1_565
Mg11 O29 2.167551 1_555
Mg11 O23 2.167551 1_555
Mg11 O9 2.174031 1_555
Mg11 O13 2.174031 1_555
Mg12 O30 2.156491 1_555
Mg12 O20 2.156491 1_655
Mg12 O22 2.167551 1_555
Mg12 O31 2.167551 1_555
Mg12 O10 2.174031 1_555
Mg12 O14 2.174031 1_555
Mg13 O21 2.156491 1_655
Mg13 O30 2.156491 1_565
Mg13 O31 2.167551 1_555
Mg13 O23 2.167551 1_555
Mg13 O11 2.174031 1_555
Mg13 O15 2.174031 1_555
Mg14 O20 2.149252 1_555
Mg14 O1 2.160162 1_555
Mg14 O0 2.164229 1_555
Mg14 O8 2.169566 1_555
Mg14 O10 2.169566 1_455
Mg14 O16 2.176793 1_555
Mg15 O21 2.149252 1_555
Mg15 O1 2.160162 1_555
Mg15 O0 2.164229 1_565
Mg15 O9 2.169566 1_555
Mg15 O11 2.169566 1_455
Mg15 O17 2.176793 1_555
Mg16 O2 2.104819 1_555
Mg16 O22 2.104956 1_555
Mg16 O10 2.156615 1_555
Mg16 O8 2.156615 1_555
Mg16 O3 2.222199 1_555
Mg16 O18 2.223472 1_555
Mg17 O2 2.104819 1_565
Mg17 O23 2.104956 1_555
Mg17 O9 2.156615 1_555
Mg17 O11 2.156615 1_555
Mg17 O3 2.222199 1_555
Mg17 O19 2.223472 1_555
Mg18 O20 2.149252 1_555
Mg18 O5 2.160162 1_555
Mg18 O4 2.164229 1_555
Mg18 O12 2.169566 1_555
Mg18 O14 2.169566 1_455
Mg18 O16 2.176793 1_556
Mg19 O21 2.149252 1_555
Mg19 O5 2.160162 1_555
Mg19 O4 2.164229 1_565
Mg19 O13 2.169566 1_555
Mg19 O15 2.169566 1_455
Mg19 O17 2.176793 1_556
Mg20 O6 2.104819 1_555
Mg20 O22 2.104956 1_555
Mg20 O12 2.156615 1_555
Mg20 O14 2.156615 1_555
Mg20 O7 2.222199 1_555
Mg20 O18 2.223472 1_556
Mg21 O6 2.104819 1_565
Mg21 O23 2.104956 1_555
Mg21 O13 2.156615 1_555
Mg21 O15 2.156615 1_555
Mg21 O7 2.222199 1_555
Mg21 O19 2.223472 1_556
Mg22 O28 2.149252 1_555
Mg22 O2 2.160162 1_555
Mg22 O0 2.164229 1_555
Mg22 O8 2.169566 1_555
Mg22 O9 2.169566 1_545
Mg22 O24 2.176793 1_555
Mg23 O1 2.104819 1_555
Mg23 O29 2.104956 1_555
Mg23 O9 2.156615 1_555
Mg23 O8 2.156615 1_555
Mg23 O3 2.222199 1_555
Mg23 O25 2.223472 1_555
Mg24 O30 2.149252 1_555
Mg24 O2 2.160162 1_555
Mg24 O0 2.164229 1_655
Mg24 O11 2.169566 1_545
Mg24 O10 2.169566 1_555
Mg24 O26 2.176793 1_555
Mg25 O1 2.104819 1_655
Mg25 O31 2.104956 1_555
Mg25 O10 2.156615 1_555
Mg25 O11 2.156615 1_555
Mg25 O3 2.222199 1_555
Mg25 O27 2.223472 1_555
Mg26 O28 2.149252 1_555
Mg26 O6 2.160162 1_555
Mg26 O4 2.164229 1_555
Mg26 O13 2.169566 1_545
Mg26 O12 2.169566 1_555
Mg26 O24 2.176793 1_556
Mg27 O5 2.104819 1_555
Mg27 O29 2.104956 1_555
Mg27 O13 2.156615 1_555
Mg27 O12 2.156615 1_555
Mg27 O7 2.222199 1_555
Mg27 O25 2.223472 1_556
Mg28 O30 2.149252 1_555
Mg28 O6 2.160162 1_555
Mg28 O4 2.164229 1_655
Mg28 O14 2.169566 1_555
Mg28 O15 2.169566 1_545
Mg28 O26 2.176793 1_556
Mg29 O5 2.104819 1_655
Mg29 O31 2.104956 1_555
Mg29 O14 2.156615 1_555
Mg29 O15 2.156615 1_555
Mg29 O7 2.222199 1_555
Mg29 O27 2.223472 1_556
Mn0 O24 2.198622 1_555
Mn0 O16 2.198622 1_555
Mn0 O26 2.198622 1_455
Mn0 O17 2.198622 1_545
Mn0 O0 2.218449 1_555
Mn0 O4 2.218449 1_554
Bi0 O27 2.321924 1_555
Bi0 O19 2.321924 1_555
Bi0 O25 2.321924 1_555
Bi0 O18 2.321924 1_555
Bi0 O3 2.333410 1_555
Bi0 O7 2.333410 1_554
