# generated using pymatgen
data_Cs5As5Se9
_symmetry_space_group_name_H-M   'P 1'
_cell_length_a   8.20983700
_cell_length_b   12.79168100
_cell_length_c   27.51568500
_cell_angle_alpha   90.00000000
_cell_angle_beta   90.00000000
_cell_angle_gamma   90.00000000
_symmetry_Int_Tables_number   1
_chemical_formula_structural   Cs5As5Se9
_chemical_formula_sum   'Cs20 As20 Se36'
_cell_volume   2889.63164037
_cell_formula_units_Z   4
loop_
 _symmetry_equiv_pos_site_id
 _symmetry_equiv_pos_as_xyz
  1  'x, y, z'
loop_
 _atom_site_type_symbol
 _atom_site_label
 _atom_site_symmetry_multiplicity
 _atom_site_fract_x
 _atom_site_fract_y
 _atom_site_fract_z
 _atom_site_occupancy
  Cs  Cs0  1  0.53250200  0.35796000  0.75000000  1
  Cs  Cs1  1  0.03250200  0.14204000  0.75000000  1
  Cs  Cs2  1  0.46749800  0.64204000  0.25000000  1
  Cs  Cs3  1  0.96749800  0.85796000  0.25000000  1
  Cs  Cs4  1  0.52159800  0.71770400  0.85118800  1
  Cs  Cs5  1  0.02159800  0.78229600  0.64881200  1
  Cs  Cs6  1  0.47840200  0.28229600  0.35118800  1
  Cs  Cs7  1  0.97840200  0.21770400  0.14881200  1
  Cs  Cs8  1  0.47840200  0.28229600  0.14881200  1
  Cs  Cs9  1  0.97840200  0.21770400  0.35118800  1
  Cs  Cs10  1  0.52159800  0.71770400  0.64881200  1
  Cs  Cs11  1  0.02159800  0.78229600  0.85118800  1
  Cs  Cs12  1  0.55377700  0.36296900  0.94566100  1
  Cs  Cs13  1  0.05377700  0.13703100  0.55433900  1
  Cs  Cs14  1  0.44622300  0.63703100  0.44566100  1
  Cs  Cs15  1  0.94622300  0.86296900  0.05433900  1
  Cs  Cs16  1  0.44622300  0.63703100  0.05433900  1
  Cs  Cs17  1  0.94622300  0.86296900  0.44566100  1
  Cs  Cs18  1  0.55377700  0.36296900  0.55433900  1
  Cs  Cs19  1  0.05377700  0.13703100  0.94566100  1
  As  As0  1  0.47666500  0.09482900  0.01141300  1
  As  As1  1  0.97666500  0.40517100  0.48858700  1
  As  As2  1  0.52333500  0.90517100  0.51141300  1
  As  As3  1  0.02333500  0.59482900  0.98858700  1
  As  As4  1  0.52333500  0.90517100  0.98858700  1
  As  As5  1  0.02333500  0.59482900  0.51141300  1
  As  As6  1  0.47666500  0.09482900  0.48858700  1
  As  As7  1  0.97666500  0.40517100  0.01141300  1
  As  As8  1  0.48172900  0.91685700  0.11890200  1
  As  As9  1  0.98172900  0.58314300  0.38109800  1
  As  As10  1  0.51827100  0.08314300  0.61890200  1
  As  As11  1  0.01827100  0.41685700  0.88109800  1
  As  As12  1  0.51827100  0.08314300  0.88109800  1
  As  As13  1  0.01827100  0.41685700  0.61890200  1
  As  As14  1  0.48172900  0.91685700  0.38109800  1
  As  As15  1  0.98172900  0.58314300  0.11890200  1
  As  As16  1  0.40476900  0.98279300  0.25000000  1
  As  As17  1  0.90476900  0.51720700  0.25000000  1
  As  As18  1  0.59523100  0.01720700  0.75000000  1
  As  As19  1  0.09523100  0.48279300  0.75000000  1
  Se  Se0  1  0.30586800  0.05243200  0.08215100  1
  Se  Se1  1  0.80586800  0.44756800  0.41784900  1
  Se  Se2  1  0.69413200  0.94756800  0.58215100  1
  Se  Se3  1  0.19413200  0.55243200  0.91784900  1
  Se  Se4  1  0.69413200  0.94756800  0.91784900  1
  Se  Se5  1  0.19413200  0.55243200  0.58215100  1
  Se  Se6  1  0.30586800  0.05243200  0.41784900  1
  Se  Se7  1  0.80586800  0.44756800  0.08215100  1
  Se  Se8  1  0.73318500  0.13820500  0.04421700  1
  Se  Se9  1  0.23318500  0.36179500  0.45578300  1
  Se  Se10  1  0.26681500  0.86179500  0.54421700  1
  Se  Se11  1  0.76681500  0.63820500  0.95578300  1
  Se  Se12  1  0.26681500  0.86179500  0.95578300  1
  Se  Se13  1  0.76681500  0.63820500  0.54421700  1
  Se  Se14  1  0.73318500  0.13820500  0.45578300  1
  Se  Se15  1  0.23318500  0.36179500  0.04421700  1
  Se  Se16  1  0.27806800  0.81492300  0.15427200  1
  Se  Se17  1  0.77806800  0.68507700  0.34572800  1
  Se  Se18  1  0.72193200  0.18507700  0.65427200  1
  Se  Se19  1  0.22193200  0.31492300  0.84572800  1
  Se  Se20  1  0.72193200  0.18507700  0.84572800  1
  Se  Se21  1  0.22193200  0.31492300  0.65427200  1
  Se  Se22  1  0.27806800  0.81492300  0.34572800  1
  Se  Se23  1  0.77806800  0.68507700  0.15427200  1
  Se  Se24  1  0.61605500  0.01227000  0.18718000  1
  Se  Se25  1  0.11605500  0.48773000  0.31282000  1
  Se  Se26  1  0.38394500  0.98773000  0.68718000  1
  Se  Se27  1  0.88394500  0.51227000  0.81282000  1
  Se  Se28  1  0.38394500  0.98773000  0.81282000  1
  Se  Se29  1  0.88394500  0.51227000  0.68718000  1
  Se  Se30  1  0.61605500  0.01227000  0.31282000  1
  Se  Se31  1  0.11605500  0.48773000  0.18718000  1
  Se  Se32  1  0.24360800  0.13492600  0.25000000  1
  Se  Se33  1  0.74360800  0.36507400  0.25000000  1
  Se  Se34  1  0.75639200  0.86507400  0.75000000  1
  Se  Se35  1  0.25639200  0.63492600  0.75000000  1
loop_
_geom_bond_atom_site_label_1
_geom_bond_atom_site_label_2
_geom_bond_distance
_geom_bond_site_symmetry_2
Cs0 Se19 3.707055 1_555
Cs0 Se21 3.707055 1_555
Cs0 Se20 3.774554 1_555
Cs0 Se18 3.774554 1_555
Cs0 Se29 3.899865 1_555
Cs0 Se27 3.899865 1_555
Cs0 Se35 4.205987 1_555
Cs1 Se20 3.707055 1_455
Cs1 Se18 3.707055 1_455
Cs1 Se19 3.774554 1_555
Cs1 Se21 3.774554 1_555
Cs1 Se26 3.899865 1_545
Cs1 Se28 3.899865 1_545
Cs1 Se34 4.205987 1_445
Cs2 Se17 3.707055 1_555
Cs2 Se23 3.707055 1_555
Cs2 Se22 3.774554 1_555
Cs2 Se16 3.774554 1_555
Cs2 Se31 3.899865 1_555
Cs2 Se25 3.899865 1_555
Cs2 Se33 4.205987 1_555
Cs3 Se22 3.707055 1_655
Cs3 Se16 3.707055 1_655
Cs3 Se23 3.774554 1_555
Cs3 Se17 3.774554 1_555
Cs3 Se24 3.899865 1_565
Cs3 Se30 3.899865 1_565
Cs3 Se32 4.205987 1_665
Cs4 Se11 3.656498 1_555
Cs4 Se35 3.689705 1_555
Cs4 Se4 3.743851 1_555
Cs4 Se28 3.784496 1_555
Cs4 Se34 3.875751 1_555
Cs4 Se3 3.880921 1_555
Cs4 Se12 4.006930 1_555
Cs4 Se27 4.107264 1_555
Cs5 Se10 3.656498 1_555
Cs5 Se34 3.689705 1_455
Cs5 Se5 3.743851 1_555
Cs5 Se29 3.784496 1_455
Cs5 Se35 3.875751 1_555
Cs5 Se2 3.880921 1_455
Cs5 Se13 4.006930 1_455
Cs5 Se26 4.107264 1_555
Cs6 Se9 3.656498 1_555
Cs6 Se33 3.689705 1_555
Cs6 Se6 3.743851 1_555
Cs6 Se30 3.784496 1_555
Cs6 Se32 3.875751 1_555
Cs6 Se1 3.880921 1_555
Cs6 Se14 4.006930 1_555
Cs6 Se25 4.107264 1_555
Cs7 Se8 3.656498 1_555
Cs7 Se32 3.689705 1_655
Cs7 Se7 3.743851 1_555
Cs7 Se31 3.784496 1_655
Cs7 Se33 3.875751 1_555
Cs7 Se0 3.880921 1_655
Cs7 Se15 4.006930 1_655
Cs7 Se24 4.107264 1_555
Cs8 Se15 3.656498 1_555
Cs8 Se33 3.689705 1_555
Cs8 Se0 3.743851 1_555
Cs8 Se24 3.784496 1_555
Cs8 Se32 3.875751 1_555
Cs8 Se7 3.880921 1_555
Cs8 Se8 4.006930 1_555
Cs8 Se31 4.107264 1_555
Cs9 Se14 3.656498 1_555
Cs9 Se32 3.689705 1_655
Cs9 Se1 3.743851 1_555
Cs9 Se25 3.784496 1_655
Cs9 Se33 3.875751 1_555
Cs9 Se6 3.880921 1_655
Cs9 Se9 4.006930 1_655
Cs9 Se30 4.107264 1_555
Cs10 Se13 3.656498 1_555
Cs10 Se35 3.689705 1_555
Cs10 Se2 3.743851 1_555
Cs10 Se26 3.784496 1_555
Cs10 Se34 3.875751 1_555
Cs10 Se5 3.880921 1_555
Cs10 Se10 4.006930 1_555
Cs10 Se29 4.107264 1_555
Cs11 Se12 3.656498 1_555
Cs11 Se34 3.689705 1_455
Cs11 Se3 3.743851 1_555
Cs11 Se27 3.784496 1_455
Cs11 Se35 3.875751 1_555
Cs11 Se4 3.880921 1_455
Cs11 Se11 4.006930 1_455
Cs11 Se28 4.107264 1_555
Cs12 Se15 3.779120 1_556
Cs12 Se20 3.826867 1_555
Cs12 Se3 3.895797 1_555
Cs12 Se19 3.919315 1_555
Cs12 Se11 3.941084 1_555
Cs12 Se8 4.217792 1_556
Cs13 Se14 3.779120 1_455
Cs13 Se21 3.826867 1_555
Cs13 Se2 3.895797 1_445
Cs13 Se18 3.919315 1_455
Cs13 Se10 3.941084 1_545
Cs13 Se9 4.217792 1_555
Cs14 Se13 3.779120 1_555
Cs14 Se22 3.826867 1_555
Cs14 Se1 3.895797 1_555
Cs14 Se17 3.919315 1_555
Cs14 Se9 3.941084 1_555
Cs14 Se10 4.217792 1_555
Cs15 Se12 3.779120 1_654
Cs15 Se23 3.826867 1_555
Cs15 Se0 3.895797 1_665
Cs15 Se16 3.919315 1_655
Cs15 Se8 3.941084 1_565
Cs15 Se11 4.217792 1_554
Cs16 Se11 3.779120 1_554
Cs16 Se16 3.826867 1_555
Cs16 Se7 3.895797 1_555
Cs16 Se23 3.919315 1_555
Cs16 Se15 3.941084 1_555
Cs16 Se12 4.217792 1_554
Cs17 Se10 3.779120 1_655
Cs17 Se17 3.826867 1_555
Cs17 Se6 3.895797 1_665
Cs17 Se22 3.919315 1_655
Cs17 Se14 3.941084 1_565
Cs17 Se13 4.217792 1_555
Cs18 Se9 3.779120 1_555
Cs18 Se18 3.826867 1_555
Cs18 Se5 3.895797 1_555
Cs18 Se21 3.919315 1_555
Cs18 Se13 3.941084 1_555
Cs18 Se14 4.217792 1_555
Cs19 Se8 3.779120 1_456
Cs19 Se19 3.826867 1_555
Cs19 Se4 3.895797 1_445
Cs19 Se20 3.919315 1_455
Cs19 Se12 3.941084 1_545
Cs19 Se15 4.217792 1_556
As0 Se8 2.357493 1_555
As0 Se0 2.459435 1_555
As0 As4 2.535148 1_544
As0 Cs12 3.929207 1_554
As0 Cs19 3.952006 1_554
As1 Se9 2.357493 1_655
As1 Se1 2.459435 1_555
As1 As5 2.535148 1_655
As1 Cs13 3.929207 1_655
As1 Cs18 3.952006 1_555
As2 Se10 2.357493 1_555
As2 Se2 2.459435 1_555
As2 As6 2.535148 1_565
As2 Cs14 3.929207 1_555
As2 Cs17 3.952006 1_555
As3 Se11 2.357493 1_455
As3 Se3 2.459435 1_555
As3 As7 2.535148 1_456
As3 Cs15 3.929207 1_456
As3 Cs16 3.952006 1_556
As4 Se12 2.357493 1_555
As4 Se4 2.459435 1_555
As4 Cs16 3.929207 1_556
As4 Cs15 3.952006 1_556
As5 Se13 2.357493 1_455
As5 Se5 2.459435 1_555
As5 Cs17 3.929207 1_455
As5 Cs14 3.952006 1_555
As6 Se14 2.357493 1_555
As6 Se6 2.459435 1_555
As6 Cs18 3.929207 1_555
As6 Cs13 3.952006 1_555
As7 Se15 2.357493 1_655
As7 Se7 2.459435 1_555
As7 Cs19 3.929207 1_654
As7 Cs12 3.952006 1_554
As8 Se16 2.333027 1_555
As8 Se0 2.472787 1_565
As8 Se24 2.497065 1_565
As8 Cs16 4.006661 1_555
As8 Cs15 4.263011 1_555
As9 Se17 2.333027 1_555
As9 Se1 2.472787 1_555
As9 Se25 2.497065 1_655
As9 Cs17 4.006661 1_555
As9 Cs14 4.263011 1_655
As10 Se18 2.333027 1_555
As10 Se2 2.472787 1_545
As10 Se26 2.497065 1_545
As10 Cs18 4.006661 1_555
As10 Cs13 4.263011 1_555
As11 Se19 2.333027 1_555
As11 Se3 2.472787 1_555
As11 Se27 2.497065 1_455
As11 Cs19 4.006661 1_555
As11 Cs12 4.263011 1_455
As12 Se20 2.333027 1_555
As12 Se4 2.472787 1_545
As12 Se28 2.497065 1_545
As12 Cs12 4.006661 1_555
As12 Cs19 4.263011 1_555
As13 Se21 2.333027 1_555
As13 Se5 2.472787 1_555
As13 Se29 2.497065 1_455
As13 Cs13 4.006661 1_555
As13 Cs18 4.263011 1_455
As14 Se22 2.333027 1_555
As14 Se6 2.472787 1_565
As14 Se30 2.497065 1_565
As14 Cs14 4.006661 1_555
As14 Cs17 4.263011 1_555
As15 Se23 2.333027 1_555
As15 Se7 2.472787 1_555
As15 Se31 2.497065 1_655
As15 Cs15 4.006661 1_555
As15 Cs16 4.263011 1_655
As16 Se32 2.353225 1_565
As16 Se24 2.477686 1_565
As16 Se30 2.477686 1_565
As16 Cs3 3.929045 1_455
As17 Se33 2.353225 1_555
As17 Se31 2.477686 1_655
As17 Se25 2.477686 1_655
As17 Cs2 3.929045 1_555
As18 Se34 2.353225 1_545
As18 Se26 2.477686 1_545
As18 Se28 2.477686 1_545
As18 Cs1 3.929045 1_655
As19 Se35 2.353225 1_555
As19 Se29 2.477686 1_455
As19 Se27 2.477686 1_455
As19 Cs0 3.929045 1_555
