# generated using pymatgen
data_Al2O3
_symmetry_space_group_name_H-M   'P 1'
_cell_length_a   6.19252509
_cell_length_b   7.44454642
_cell_length_c   21.28824006
_cell_angle_alpha   96.23991267
_cell_angle_beta   92.71464444
_cell_angle_gamma   114.60422980
_symmetry_Int_Tables_number   1
_chemical_formula_structural   Al2O3
_chemical_formula_sum   'Al32 O48'
_cell_volume   882.33795170
_cell_formula_units_Z   16
loop_
 _symmetry_equiv_pos_site_id
 _symmetry_equiv_pos_as_xyz
  1  'x, y, z'
loop_
 _atom_site_type_symbol
 _atom_site_label
 _atom_site_symmetry_multiplicity
 _atom_site_fract_x
 _atom_site_fract_y
 _atom_site_fract_z
 _atom_site_occupancy
  Al  Al0  1  0.42469800  0.90233000  0.18046000  1
  Al  Al1  1  0.24480600  0.38076900  0.56708500  1
  Al  Al2  1  0.19181100  0.47246800  0.94308400  1
  Al  Al3  1  0.53141300  0.52318900  0.77436100  1
  Al  Al4  1  0.84838900  0.24421700  0.20661500  1
  Al  Al5  1  0.93040000  0.52136500  0.60064900  1
  Al  Al6  1  0.41256600  0.89154000  0.41592400  1
  Al  Al7  1  0.62623100  0.66571300  0.10926500  1
  Al  Al8  1  0.61601900  0.87598800  0.90980800  1
  Al  Al9  1  0.23260600  0.08838600  0.29738300  1
  Al  Al10  1  0.23031700  0.90434800  0.58398700  1
  Al  Al11  1  0.22136700  0.06320700  0.95223100  1
  Al  Al12  1  0.59062800  0.75211800  0.62342600  1
  Al  Al13  1  0.38699300  0.08626000  0.83137200  1
  Al  Al14  1  0.37837700  0.35534400  0.19464800  1
  Al  Al15  1  0.33409700  0.16184100  0.48299100  1
  Al  Al16  1  0.72389700  0.60003400  0.50446700  1
  Al  Al17  1  0.96501300  0.73224800  0.86526000  1
  Al  Al18  1  0.90476700  0.67251600  0.23175400  1
  Al  Al19  1  0.10960900  0.10708600  0.09468000  1
  Al  Al20  1  0.73008700  0.52721200  0.98327100  1
  Al  Al21  1  0.95601300  0.88355000  0.40826800  1
  Al  Al22  1  0.95053600  0.69471200  0.71684100  1
  Al  Al23  1  0.67336100  0.39295100  0.38407600  1
  Al  Al24  1  0.64370400  0.20115200  0.69671300  1
  Al  Al25  1  0.74549100  0.05433700  0.51794000  1
  Al  Al26  1  0.01216700  0.41216300  0.79737300  1
  Al  Al27  1  0.62366000  0.18051400  0.06044600  1
  Al  Al28  1  0.73007400  0.03856500  0.32271000  1
  Al  Al29  1  0.18474100  0.41455600  0.40001000  1
  Al  Al30  1  0.79789700  0.95736400  0.78138300  1
  Al  Al31  1  0.04061700  0.52048900  0.09115500  1
  O  O0  1  0.03343000  0.55119600  0.00284900  1
  O  O1  1  0.97711900  0.49699900  0.17849400  1
  O  O2  1  0.88410600  0.28897900  0.36040100  1
  O  O3  1  0.81076100  0.43710700  0.67417100  1
  O  O4  1  0.18082000  0.89025600  0.22571000  1
  O  O5  1  0.02700400  0.67186100  0.53526200  1
  O  O6  1  0.29485400  0.89176200  0.89726200  1
  O  O7  1  0.35121400  0.70262400  0.11328600  1
  O  O8  1  0.23253100  0.64996000  0.39004500  1
  O  O9  1  0.26276400  0.53641800  0.76279100  1
  O  O10  1  0.95586400  0.25509300  0.07343100  1
  O  O11  1  0.93955400  0.92147800  0.32312600  1
  O  O12  1  0.03751700  0.80852600  0.64968600  1
  O  O13  1  0.13304100  0.25469900  0.24239400  1
  O  O14  1  0.23193900  0.13619700  0.56480300  1
  O  O15  1  0.19858500  0.24530700  0.90695700  1
  O  O16  1  0.67917800  0.00156500  0.23776500  1
  O  O17  1  0.91439300  0.87630100  0.93902400  1
  O  O18  1  0.71821400  0.83472600  0.54811600  1
  O  O19  1  0.50568900  0.62276100  0.96969700  1
  O  O20  1  0.60229400  0.50918900  0.57989300  1
  O  O21  1  0.35894100  0.31202200  0.35563700  1
  O  O22  1  0.61424100  0.61161700  0.18944400  1
  O  O23  1  0.24843500  0.37568900  0.47977500  1
  O  O24  1  0.63815200  0.68514000  0.84952100  1
  O  O25  1  0.57205600  0.24882400  0.94420300  1
  O  O26  1  0.47038600  0.24698700  0.76594100  1
  O  O27  1  0.61619300  0.32156100  0.24886600  1
  O  O28  1  0.75874900  0.64262600  0.42106200  1
  O  O29  1  0.62997800  0.32462700  0.46424300  1
  O  O30  1  0.86364100  0.56777500  0.78485600  1
  O  O31  1  0.30368400  0.09026900  0.03514800  1
  O  O32  1  0.59981200  0.10873200  0.13894300  1
  O  O33  1  0.68770600  0.46262300  0.06639900  1
  O  O34  1  0.89140300  0.86118300  0.09781600  1
  O  O35  1  0.43827000  0.99940200  0.34075000  1
  O  O36  1  0.67717400  0.74545000  0.71795500  1
  O  O37  1  0.42979400  0.96722700  0.50331500  1
  O  O38  1  0.64281900  0.02595000  0.84008800  1
  O  O39  1  0.51862400  0.98527400  0.63925700  1
  O  O40  1  0.68424800  0.12323900  0.97256600  1
  O  O41  1  0.74350400  0.98571500  0.43023400  1
  O  O42  1  0.86841700  0.17692500  0.74727000  1
  O  O43  1  0.91520600  0.28271600  0.56481700  1
  O  O44  1  0.01617500  0.50400100  0.88024700  1
  O  O45  1  0.75708600  0.51525200  0.29271000  1
  O  O46  1  0.27348800  0.59096000  0.61954800  1
  O  O47  1  0.07359800  0.93168100  0.79958700  1
loop_
_geom_bond_atom_site_label_1
_geom_bond_atom_site_label_2
_geom_bond_distance
_geom_bond_site_symmetry_2
Al0 O16 1.780428 1_565
Al0 O4 1.805649 1_555
Al0 O32 1.821162 1_565
Al0 O7 1.837173 1_555
Al1 O46 1.759913 1_555
Al1 O14 1.784198 1_555
Al1 O43 1.855657 1_455
Al1 O23 1.856340 1_555
Al1 O20 2.003215 1_555
Al2 O44 1.780593 1_555
Al2 O15 1.797914 1_555
Al2 O19 1.815982 1_555
Al2 O0 1.832735 1_556
Al3 O9 1.714897 1_555
Al3 O24 1.807611 1_555
Al3 O26 1.915544 1_555
Al3 O30 1.940209 1_555
Al3 O36 2.070111 1_555
Al4 O13 1.854390 1_655
Al4 O16 1.884401 1_555
Al4 O1 1.891068 1_555
Al4 O32 1.908781 1_555
Al4 O27 1.976707 1_555
Al5 O43 1.818392 1_555
Al5 O3 1.824374 1_555
Al5 O5 1.846753 1_655
Al5 O46 1.975163 1_655
Al5 O20 2.021034 1_555
Al5 O12 2.090060 1_655
Al6 O8 1.684556 1_555
Al6 O35 1.851538 1_555
Al6 O41 1.866058 1_555
Al6 O37 1.869017 1_555
Al7 O34 1.731665 1_555
Al7 O22 1.793777 1_555
Al7 O7 1.838909 1_555
Al7 O33 1.864347 1_555
Al8 O24 1.861974 1_555
Al8 O17 1.920426 1_555
Al8 O38 1.925108 1_565
Al8 O40 2.028759 1_565
Al8 O6 2.047319 1_555
Al8 O19 2.275644 1_555
Al9 O21 1.815613 1_555
Al9 O11 1.871391 1_445
Al9 O35 1.907157 1_545
Al9 O4 1.917556 1_545
Al9 O13 2.041032 1_555
Al10 O14 1.812508 1_565
Al10 O5 1.824317 1_555
Al10 O12 1.885816 1_555
Al10 O39 1.919921 1_555
Al10 O37 2.142092 1_555
Al11 O31 1.779933 1_556
Al11 O15 1.793605 1_555
Al11 O17 1.813985 1_445
Al11 O6 1.847938 1_545
Al11 O25 2.059715 1_555
Al12 O46 1.817755 1_555
Al12 O18 1.871483 1_555
Al12 O39 1.963853 1_555
Al12 O20 1.971173 1_555
Al12 O36 2.069053 1_555
Al13 O38 1.824356 1_555
Al13 O47 1.842591 1_545
Al13 O26 1.885339 1_555
Al13 O6 2.054022 1_545
Al14 O13 1.807371 1_555
Al14 O22 1.877858 1_555
Al14 O27 1.942869 1_555
Al15 O29 1.819481 1_555
Al15 O37 1.861276 1_545
Al15 O23 1.882555 1_555
Al15 O14 1.883086 1_555
Al16 O5 1.791733 1_655
Al16 O28 1.844283 1_555
Al16 O20 1.878614 1_555
Al16 O18 1.902280 1_555
Al16 O29 1.963005 1_555
Al17 O30 1.904116 1_555
Al17 O44 1.909445 1_655
Al17 O24 1.910849 1_555
Al17 O17 1.916939 1_555
Al17 O6 1.928442 1_655
Al17 O47 2.078458 1_655
Al18 O4 1.823502 1_655
Al18 O22 1.825400 1_555
Al18 O1 1.845845 1_555
Al18 O45 1.855268 1_555
Al19 O34 1.776760 1_445
Al19 O10 1.807264 1_455
Al19 O31 1.816929 1_555
Al20 O19 1.830343 1_555
Al20 O0 1.834277 1_656
Al20 O33 1.885636 1_556
Al20 O25 1.950362 1_555
Al21 O28 1.759714 1_555
Al21 O41 1.828474 1_555
Al21 O11 1.868976 1_555
Al22 O12 1.734374 1_655
Al22 O30 1.796341 1_555
Al22 O3 1.848438 1_555
Al22 O36 1.882312 1_555
Al22 O47 2.207642 1_655
Al23 O28 1.782806 1_555
Al23 O21 1.831059 1_555
Al23 O29 1.833512 1_555
Al23 O2 1.837091 1_555
Al23 O45 2.228967 1_555
Al24 O3 1.761577 1_555
Al24 O39 1.767830 1_545
Al24 O42 1.799053 1_555
Al24 O26 1.945696 1_555
Al25 O43 1.742108 1_555
Al25 O18 1.767129 1_545
Al25 O37 1.783853 1_545
Al25 O41 1.879483 1_545
Al26 O9 1.693148 1_555
Al26 O30 1.786085 1_455
Al26 O42 1.789642 1_455
Al26 O44 1.816622 1_555
Al27 O32 1.803222 1_555
Al27 O31 1.838301 1_555
Al27 O10 1.891656 1_555
Al27 O33 1.956497 1_555
Al27 O40 1.961837 1_554
Al28 O35 1.774580 1_545
Al28 O2 1.774993 1_555
Al28 O16 1.791845 1_555
Al28 O11 1.839773 1_545
Al28 O41 2.367744 1_545
Al29 O8 1.690757 1_555
Al29 O23 1.805848 1_555
Al29 O21 1.806677 1_555
Al29 O2 1.811506 1_455
Al30 O42 1.755983 1_565
Al30 O38 1.768618 1_565
Al30 O47 1.823955 1_655
Al30 O36 1.824879 1_555
Al31 O10 1.810289 1_455
Al31 O7 1.833994 1_555
Al31 O0 1.918893 1_555
Al31 O1 1.929985 1_455
Al31 O33 2.072909 1_455
O25 O40 1.531399 1_555
O27 O45 1.514692 1_555
