# generated using pymatgen
data_Mg9Si5
_symmetry_space_group_name_H-M   'P 1'
_cell_length_a   7.43669000
_cell_length_b   7.60255662
_cell_length_c   10.91676360
_cell_angle_alpha   92.34472244
_cell_angle_beta   95.09200115
_cell_angle_gamma   116.23596952
_symmetry_Int_Tables_number   1
_chemical_formula_structural   Mg9Si5
_chemical_formula_sum   'Mg18 Si10'
_cell_volume   549.21784015
_cell_formula_units_Z   2
loop_
 _symmetry_equiv_pos_site_id
 _symmetry_equiv_pos_as_xyz
  1  'x, y, z'
loop_
 _atom_site_type_symbol
 _atom_site_label
 _atom_site_symmetry_multiplicity
 _atom_site_fract_x
 _atom_site_fract_y
 _atom_site_fract_z
 _atom_site_occupancy
  Mg  Mg0  1  0.26577000  0.95702800  0.57964100  1
  Mg  Mg1  1  0.62020500  0.10681000  0.37166300  1
  Mg  Mg2  1  0.01159800  0.28294600  0.61249300  1
  Mg  Mg3  1  0.87012800  0.59148600  0.47945300  1
  Mg  Mg4  1  0.65171500  0.85448900  0.59489400  1
  Mg  Mg5  1  0.35439000  0.30935900  0.44341400  1
  Mg  Mg6  1  0.56474300  0.00637300  0.08833700  1
  Mg  Mg7  1  0.30682500  0.73963200  0.82868900  1
  Mg  Mg8  1  0.04182300  0.83456500  0.01943600  1
  Mg  Mg9  1  0.09221600  0.29865100  0.91367000  1
  Mg  Mg10  1  0.29996900  0.22800200  0.16613400  1
  Mg  Mg11  1  0.57863000  0.57276300  0.02493300  1
  Mg  Mg12  1  0.16010400  0.81498700  0.29303600  1
  Mg  Mg13  1  0.65592500  0.14459400  0.82560500  1
  Mg  Mg14  1  0.03242500  0.36426700  0.28418400  1
  Mg  Mg15  1  0.86932900  0.56145000  0.78806100  1
  Mg  Mg16  1  0.52841300  0.67862800  0.30323500  1
  Mg  Mg17  1  0.42829500  0.42508500  0.73449000  1
  Si  Si0  1  0.88522500  0.96420700  0.20540600  1
  Si  Si1  1  0.94244700  0.97896000  0.42966400  1
  Si  Si2  1  0.05484200  0.96314200  0.76916600  1
  Si  Si3  1  0.34658000  0.14049800  0.92802200  1
  Si  Si4  1  0.70693600  0.43054800  0.23382100  1
  Si  Si5  1  0.71482900  0.82443800  0.84370000  1
  Si  Si6  1  0.24142300  0.60518600  0.09609100  1
  Si  Si7  1  0.86990900  0.43097300  0.03678100  1
  Si  Si8  1  0.63988000  0.27751300  0.60447300  1
  Si  Si9  1  0.26541400  0.61339000  0.50125700  1
loop_
_geom_bond_atom_site_label_1
_geom_bond_atom_site_label_2
_geom_bond_distance
_geom_bond_site_symmetry_2
Mg0 Si9 2.714423 1_555
Mg0 Si2 2.715905 1_555
Mg0 Si8 2.751203 1_565
Mg0 Si1 2.857940 1_455
Mg1 Si8 2.767895 1_555
Mg1 Si4 2.794615 1_555
Mg1 Si1 2.988126 1_545
Mg2 Si8 2.739854 1_455
Mg2 Si9 2.795115 1_555
Mg2 Si1 2.824664 1_445
Mg2 Si2 3.142299 1_545
Mg3 Si8 2.749568 1_555
Mg3 Si4 2.828673 1_555
Mg3 Si1 2.836290 1_555
Mg3 Si9 2.857533 1_655
Mg4 Si9 2.706923 1_555
Mg4 Si5 2.751233 1_555
Mg4 Si1 2.801199 1_555
Mg4 Si2 3.155768 1_655
Mg5 Si8 2.735738 1_555
Mg5 Si9 2.736087 1_555
Mg5 Si1 2.966651 1_445
Mg6 Si0 2.754027 1_545
Mg6 Si3 2.799927 1_554
Mg6 Si6 2.943561 1_545
Mg6 Si7 3.128211 1_555
Mg7 Si5 2.796853 1_555
Mg7 Si3 3.070388 1_565
Mg7 Si2 3.083954 1_555
Mg7 Si6 3.139979 1_556
Mg8 Si3 2.733660 1_564
Mg8 Si7 2.776191 1_455
Mg8 Si0 2.778509 1_455
Mg8 Si6 2.851703 1_555
Mg8 Si5 2.931574 1_454
Mg8 Si2 2.934500 1_554
Mg9 Si3 2.649943 1_555
Mg9 Si7 2.702897 1_456
Mg9 Si6 2.751330 1_556
Mg9 Si2 2.835160 1_545
Mg10 Si4 2.732457 1_555
Mg10 Si3 2.746269 1_554
Mg10 Si0 2.924901 1_445
Mg10 Si6 3.197080 1_555
Mg11 Si5 2.748325 1_554
Mg11 Si6 2.798112 1_555
Mg11 Si7 2.810182 1_555
Mg11 Si4 2.829697 1_555
Mg11 Si3 3.045407 1_554
Mg12 Si0 2.858823 1_455
Mg12 Si6 2.887101 1_555
Mg12 Si1 2.908471 1_455
Mg12 Si9 3.026490 1_555
Mg13 Si3 2.634280 1_555
Mg13 Si8 2.667976 1_555
Mg13 Si5 2.668698 1_545
Mg13 Si7 2.908972 1_556
Mg14 Si4 2.698177 1_455
Mg14 Si0 2.804228 1_445
Mg14 Si9 2.864857 1_555
Mg14 Si6 2.888614 1_555
Mg14 Si7 3.014455 1_455
Mg15 Si8 2.714857 1_555
Mg15 Si2 2.765705 1_655
Mg15 Si5 2.782475 1_555
Mg15 Si7 2.928906 1_556
Mg16 Si6 2.822561 1_555
Mg16 Si4 2.858222 1_555
Mg16 Si0 2.914551 1_555
Mg16 Si9 2.953830 1_555
Mg16 Si1 3.061183 1_555
Mg17 Si8 2.752479 1_555
Mg17 Si5 2.951747 1_555
Mg17 Si3 2.992250 1_555
Si0 Si1 2.436722 1_555
Si2 Si3 2.467163 1_565
Si2 Si5 2.499135 1_455
Si4 Si7 2.560421 1_555
Si6 Si7 2.486698 1_455
