# generated using pymatgen
data_Eu2Si4IrPd3
_symmetry_space_group_name_H-M   'P 1'
_cell_length_a   4.21553600
_cell_length_b   4.21553600
_cell_length_c   10.16297300
_cell_angle_alpha   90.00000000
_cell_angle_beta   90.00000000
_cell_angle_gamma   90.00000000
_symmetry_Int_Tables_number   1
_chemical_formula_structural   Eu2Si4IrPd3
_chemical_formula_sum   'Eu2 Si4 Ir1 Pd3'
_cell_volume   180.60358910
_cell_formula_units_Z   1
loop_
 _symmetry_equiv_pos_site_id
 _symmetry_equiv_pos_as_xyz
  1  'x, y, z'
loop_
 _atom_site_type_symbol
 _atom_site_label
 _atom_site_symmetry_multiplicity
 _atom_site_fract_x
 _atom_site_fract_y
 _atom_site_fract_z
 _atom_site_occupancy
  Eu  Eu0  1  0.50000000  0.00000000  0.75002000  1
  Eu  Eu1  1  0.00000000  0.50000000  0.24998000  1
  Si  Si0  1  0.00000000  0.50000000  0.87312800  1
  Si  Si1  1  0.50000000  0.00000000  0.37076400  1
  Si  Si2  1  0.50000000  0.00000000  0.12687200  1
  Si  Si3  1  0.00000000  0.50000000  0.62923600  1
  Ir  Ir0  1  0.50000000  0.50000000  0.00000000  1
  Pd  Pd0  1  0.00000000  0.00000000  0.50000000  1
  Pd  Pd1  1  0.00000000  0.00000000  0.00000000  1
  Pd  Pd2  1  0.50000000  0.50000000  0.50000000  1
loop_
_geom_bond_atom_site_label_1
_geom_bond_atom_site_label_2
_geom_bond_distance
_geom_bond_site_symmetry_2
Eu0 Si3 3.223692 1_545
Eu0 Si3 3.223692 1_555
Eu0 Si3 3.223692 1_655
Eu0 Si3 3.223692 1_645
Eu0 Si0 3.232759 1_645
Eu0 Si0 3.232759 1_545
Eu0 Si0 3.232759 1_655
Eu0 Si0 3.232759 1_555
Eu0 Ir0 3.301065 1_556
Eu0 Pd1 3.301065 1_656
Eu0 Pd1 3.301065 1_556
Eu0 Ir0 3.301065 1_546
Eu0 Pd0 3.301378 1_555
Eu0 Pd2 3.301378 1_545
Eu0 Pd0 3.301378 1_655
Eu0 Pd2 3.301378 1_555
Eu1 Si1 3.223692 1_555
Eu1 Si1 3.223692 1_455
Eu1 Si1 3.223692 1_465
Eu1 Si1 3.223692 1_565
Eu1 Si2 3.232759 1_455
Eu1 Si2 3.232759 1_465
Eu1 Si2 3.232759 1_555
Eu1 Si2 3.232759 1_565
Eu1 Ir0 3.301065 1_455
Eu1 Pd1 3.301065 1_555
Eu1 Ir0 3.301065 1_555
Eu1 Pd1 3.301065 1_565
Eu1 Pd0 3.301378 1_555
Eu1 Pd2 3.301378 1_455
Eu1 Pd0 3.301378 1_565
Eu1 Pd2 3.301378 1_555
Si0 Si3 2.478668 1_555
Si1 Si2 2.478668 1_555
Ir0 Si2 2.470876 1_565
Ir0 Si2 2.470876 1_555
Ir0 Si0 2.470876 1_554
Ir0 Si0 2.470876 1_654
Pd0 Si3 2.483498 1_545
Pd0 Si3 2.483498 1_555
Pd0 Si1 2.483498 1_455
Pd0 Si1 2.483498 1_555
Pd1 Si2 2.470876 1_455
Pd1 Si2 2.470876 1_555
Pd1 Si0 2.470876 1_544
Pd1 Si0 2.470876 1_554
Pd2 Si1 2.483498 1_565
Pd2 Si3 2.483498 1_555
Pd2 Si1 2.483498 1_555
Pd2 Si3 2.483498 1_655
