# generated using pymatgen
data_SrZrSi2O7
_symmetry_space_group_name_H-M   'P 1'
_cell_length_a   8.20483600
_cell_length_b   7.85793400
_cell_length_c   10.19373061
_cell_angle_alpha   68.21524018
_cell_angle_beta   90.00000000
_cell_angle_gamma   90.00000000
_symmetry_Int_Tables_number   1
_chemical_formula_structural   SrZrSi2O7
_chemical_formula_sum   'Sr4 Zr4 Si8 O28'
_cell_volume   610.28528525
_cell_formula_units_Z   4
loop_
 _symmetry_equiv_pos_site_id
 _symmetry_equiv_pos_as_xyz
  1  'x, y, z'
loop_
 _atom_site_type_symbol
 _atom_site_label
 _atom_site_symmetry_multiplicity
 _atom_site_fract_x
 _atom_site_fract_y
 _atom_site_fract_z
 _atom_site_occupancy
  Sr  Sr0  1  0.51734300  0.71688500  0.29285300  1
  Sr  Sr1  1  0.01734300  0.28311500  0.20714700  1
  Sr  Sr2  1  0.48265700  0.28311500  0.70714700  1
  Sr  Sr3  1  0.98265700  0.71688500  0.79285300  1
  Zr  Zr0  1  0.98891000  0.74379900  0.24696100  1
  Zr  Zr1  1  0.48891000  0.25620100  0.25303900  1
  Zr  Zr2  1  0.01109000  0.25620100  0.75303900  1
  Zr  Zr3  1  0.51109000  0.74379900  0.74696100  1
  Si  Si0  1  0.71499400  0.32545100  0.95892000  1
  Si  Si1  1  0.21499400  0.67454900  0.54108000  1
  Si  Si2  1  0.28500600  0.67454900  0.04108000  1
  Si  Si3  1  0.78500600  0.32545100  0.45892000  1
  Si  Si4  1  0.74903600  0.93569000  0.95754000  1
  Si  Si5  1  0.24903600  0.06431000  0.54246000  1
  Si  Si6  1  0.25096400  0.06431000  0.04246000  1
  Si  Si7  1  0.75096400  0.93569000  0.45754000  1
  O  O0  1  0.90521200  0.37021800  0.90423000  1
  O  O1  1  0.40521200  0.62978200  0.59577000  1
  O  O2  1  0.09478800  0.62978200  0.09577000  1
  O  O3  1  0.59478800  0.37021800  0.40423000  1
  O  O4  1  0.70539100  0.30469500  0.12387800  1
  O  O5  1  0.20539100  0.69530500  0.37612200  1
  O  O6  1  0.29460900  0.69530500  0.87612200  1
  O  O7  1  0.79460900  0.30469500  0.62387800  1
  O  O8  1  0.59266600  0.47478500  0.84925600  1
  O  O9  1  0.09266600  0.52521500  0.65074400  1
  O  O10  1  0.40733400  0.52521500  0.15074400  1
  O  O11  1  0.90733400  0.47478500  0.34925600  1
  O  O12  1  0.63447400  0.82901600  0.88306300  1
  O  O13  1  0.13447400  0.17098400  0.61693700  1
  O  O14  1  0.36552600  0.17098400  0.11693700  1
  O  O15  1  0.86552600  0.82901600  0.38306300  1
  O  O16  1  0.84320400  0.13292300  0.43721800  1
  O  O17  1  0.34320400  0.86707700  0.06278200  1
  O  O18  1  0.15679600  0.86707700  0.56278200  1
  O  O19  1  0.65679600  0.13292300  0.93721800  1
  O  O20  1  0.72872000  0.81164200  0.62439500  1
  O  O21  1  0.22872000  0.18835800  0.87560500  1
  O  O22  1  0.27128000  0.18835800  0.37560500  1
  O  O23  1  0.77128000  0.81164200  0.12439500  1
  O  O24  1  0.57934200  0.98775300  0.36894700  1
  O  O25  1  0.07934200  0.01224700  0.13105300  1
  O  O26  1  0.42065800  0.01224700  0.63105300  1
  O  O27  1  0.92065800  0.98775300  0.86894700  1
loop_
_geom_bond_atom_site_label_1
_geom_bond_atom_site_label_2
_geom_bond_distance
_geom_bond_site_symmetry_2
O0 Si0 1.650694 1_555
O0 Zr2 2.226559 1_655
O0 Sr3 2.611097 1_555
O0 Sr1 3.046479 1_656
O1 Si1 1.650694 1_555
O1 Zr3 2.226559 1_555
O1 Sr2 2.611097 1_555
O1 Sr0 3.046479 1_555
O2 Si2 1.650694 1_555
O2 Zr0 2.226559 1_455
O2 Sr1 2.611097 1_555
O2 Sr3 3.046479 1_454
O3 Si3 1.650694 1_555
O3 Zr1 2.226559 1_555
O3 Sr0 2.611097 1_555
O3 Sr2 3.046479 1_555
O4 Si0 1.629973 1_554
O4 Zr1 2.158978 1_555
O4 Sr1 2.682076 1_655
O5 Si1 1.629973 1_555
O5 Zr0 2.158978 1_455
O5 Sr0 2.682076 1_555
O6 Si2 1.629973 1_556
O6 Zr3 2.158978 1_555
O6 Sr3 2.682076 1_455
O7 Si3 1.629973 1_555
O7 Zr2 2.158978 1_655
O7 Sr2 2.682076 1_555
O8 Si0 1.631067 1_555
O8 Zr3 2.089922 1_555
O8 Sr2 2.607884 1_555
O9 Si1 1.631067 1_555
O9 Zr2 2.089922 1_555
O9 Sr3 2.607884 1_455
O10 Si2 1.631067 1_555
O10 Zr1 2.089922 1_555
O10 Sr0 2.607884 1_555
O11 Si3 1.631067 1_555
O11 Zr0 2.089922 1_555
O11 Sr1 2.607884 1_655
O12 Si4 1.623240 1_555
O12 Zr3 2.021796 1_555
O13 Si5 1.623240 1_555
O13 Zr2 2.021796 1_555
O14 Si6 1.623240 1_555
O14 Zr1 2.021796 1_555
O15 Si7 1.623240 1_555
O15 Zr0 2.021796 1_555
O16 Si7 1.667151 1_545
O16 Si3 1.677543 1_555
O16 Sr1 2.623010 1_655
O17 Si6 1.667151 1_565
O17 Si2 1.677543 1_555
O17 Sr0 2.623010 1_555
O18 Si5 1.667151 1_565
O18 Si1 1.677543 1_555
O18 Sr3 2.623010 1_455
O19 Si4 1.667151 1_545
O19 Si0 1.677543 1_555
O19 Sr2 2.623010 1_555
O20 Si7 1.626606 1_555
O20 Zr3 2.130555 1_555
O20 Sr3 2.625875 1_555
O21 Si6 1.626606 1_556
O21 Zr2 2.130555 1_555
O21 Sr2 2.625875 1_555
O22 Si5 1.626606 1_555
O22 Zr1 2.130555 1_555
O22 Sr1 2.625875 1_555
O23 Si4 1.626606 1_554
O23 Zr0 2.130555 1_555
O23 Sr0 2.625875 1_555
O24 Si7 1.640594 1_555
O24 Zr1 2.132222 1_565
O24 Sr0 2.572208 1_555
O25 Si6 1.640594 1_555
O25 Zr0 2.132222 1_445
O25 Sr1 2.572208 1_555
O26 Si5 1.640594 1_555
O26 Zr3 2.132222 1_545
O26 Sr2 2.572208 1_555
O27 Si4 1.640594 1_555
O27 Zr2 2.132222 1_665
O27 Sr3 2.572208 1_555
