# generated using pymatgen
data_Li9Mn2Co5O16
_symmetry_space_group_name_H-M   'P 1'
_cell_length_a   5.90751500
_cell_length_b   6.49225290
_cell_length_c   7.82553014
_cell_angle_alpha   87.77598873
_cell_angle_beta   102.79393759
_cell_angle_gamma   103.62027557
_symmetry_Int_Tables_number   1
_chemical_formula_structural   Li9Mn2Co5O16
_chemical_formula_sum   'Li9 Mn2 Co5 O16'
_cell_volume   284.42266780
_cell_formula_units_Z   1
loop_
 _symmetry_equiv_pos_site_id
 _symmetry_equiv_pos_as_xyz
  1  'x, y, z'
loop_
 _atom_site_type_symbol
 _atom_site_label
 _atom_site_symmetry_multiplicity
 _atom_site_fract_x
 _atom_site_fract_y
 _atom_site_fract_z
 _atom_site_occupancy
  Li  Li0  1  0.86611700  0.87010500  0.61926200  1
  Li  Li1  1  0.87292200  0.37688500  0.12602100  1
  Li  Li2  1  0.13388300  0.12989500  0.38073800  1
  Li  Li3  1  0.12707800  0.62311500  0.87397900  1
  Li  Li4  1  0.37999500  0.37868400  0.12786800  1
  Li  Li5  1  0.37939800  0.86983400  0.61955500  1
  Li  Li6  1  0.62000500  0.62131600  0.87213200  1
  Li  Li7  1  0.62060200  0.13016600  0.38044500  1
  Li  Li8  1  0.50000000  0.50000000  0.50000000  1
  Mn  Mn0  1  0.00000000  0.00000000  0.00000000  1
  Mn  Mn1  1  0.00000000  0.50000000  0.50000000  1
  Co  Co0  1  0.26327700  0.25675300  0.74169000  1
  Co  Co1  1  0.24737400  0.75206400  0.25176700  1
  Co  Co2  1  0.50000000  0.00000000  0.00000000  1
  Co  Co3  1  0.73672300  0.74324700  0.25831000  1
  Co  Co4  1  0.75262600  0.24793600  0.74823300  1
  O  O0  1  0.70943300  0.95037700  0.81723800  1
  O  O1  1  0.70749300  0.45044900  0.31624400  1
  O  O2  1  0.94944300  0.20335600  0.55546500  1
  O  O3  1  0.95019800  0.70713200  0.07302700  1
  O  O4  1  0.17798000  0.46198900  0.32291800  1
  O  O5  1  0.18912300  0.95463200  0.83655700  1
  O  O6  1  0.44499200  0.70667300  0.06008600  1
  O  O7  1  0.45104200  0.18737000  0.58565000  1
  O  O8  1  0.05055700  0.79664400  0.44453500  1
  O  O9  1  0.04980200  0.29286800  0.92697300  1
  O  O10  1  0.29056700  0.04962300  0.18276200  1
  O  O11  1  0.29250700  0.54955100  0.68375600  1
  O  O12  1  0.55500800  0.29332700  0.93991400  1
  O  O13  1  0.54895800  0.81263000  0.41435000  1
  O  O14  1  0.82202000  0.53801100  0.67708200  1
  O  O15  1  0.81087700  0.04536800  0.16344300  1
loop_
_geom_bond_atom_site_label_1
_geom_bond_atom_site_label_2
_geom_bond_distance
_geom_bond_site_symmetry_2
Li0 O8 2.058987 1_655
Li0 O0 2.110343 1_555
Li0 O13 2.146528 1_555
Li0 O14 2.152454 1_555
Li0 O2 2.167008 1_565
Li0 O5 2.230683 1_655
Li1 O4 2.072298 1_655
Li1 O12 2.076684 1_554
Li1 O1 2.078072 1_555
Li1 O15 2.116493 1_555
Li1 O3 2.128657 1_555
Li1 O9 2.207016 1_654
Li2 O2 2.058987 1_455
Li2 O10 2.110343 1_555
Li2 O7 2.146528 1_555
Li2 O4 2.152454 1_555
Li2 O8 2.167008 1_545
Li2 O15 2.230683 1_455
Li3 O14 2.072298 1_455
Li3 O6 2.076684 1_556
Li3 O11 2.078072 1_555
Li3 O5 2.116493 1_555
Li3 O9 2.128657 1_555
Li3 O3 2.207016 1_456
Li4 O1 2.121054 1_555
Li4 O10 2.127286 1_555
Li4 O12 2.132134 1_554
Li4 O6 2.140220 1_555
Li4 O9 2.187426 1_554
Li4 O4 2.285026 1_555
Li5 O7 2.023799 1_565
Li5 O8 2.076742 1_555
Li5 O11 2.090472 1_555
Li5 O13 2.157289 1_555
Li5 O0 2.171326 1_555
Li5 O5 2.379016 1_555
Li6 O11 2.121054 1_555
Li6 O0 2.127286 1_555
Li6 O6 2.132134 1_556
Li6 O12 2.140220 1_555
Li6 O3 2.187426 1_556
Li6 O14 2.285026 1_555
Li7 O13 2.023799 1_545
Li7 O2 2.076742 1_555
Li7 O1 2.090472 1_555
Li7 O7 2.157289 1_555
Li7 O10 2.171326 1_555
Li7 O15 2.379016 1_555
Li8 O4 2.058646 1_555
Li8 O14 2.058646 1_555
Li8 O7 2.087166 1_555
Li8 O13 2.087166 1_555
Li8 O11 2.162425 1_555
Li8 O1 2.162425 1_555
Mn0 O9 1.937790 1_554
Mn0 O3 1.937790 1_445
Mn0 O10 1.945193 1_555
Mn0 O0 1.945193 1_444
Mn0 O5 1.946283 1_544
Mn0 O15 1.946283 1_455
Mn1 O8 1.925687 1_555
Mn1 O2 1.925687 1_455
Mn1 O11 1.957252 1_555
Mn1 O1 1.957252 1_455
Mn1 O14 1.969963 1_455
Mn1 O4 1.969963 1_555
Co0 O11 1.913645 1_555
Co0 O7 1.949937 1_555
Co0 O12 2.021040 1_555
Co0 O5 2.053447 1_545
Co0 O2 2.054523 1_455
Co0 O9 2.173285 1_555
Co1 O13 1.911143 1_555
Co1 O4 1.918535 1_555
Co1 O3 1.956146 1_455
Co1 O10 1.958717 1_565
Co1 O6 2.161402 1_555
Co1 O8 2.163429 1_555
Co2 O6 1.913105 1_545
Co2 O12 1.913105 1_554
Co2 O15 1.956933 1_555
Co2 O5 1.956933 1_544
Co2 O10 2.164995 1_555
Co2 O0 2.164995 1_544
Co3 O1 1.913645 1_555
Co3 O13 1.949937 1_555
Co3 O6 2.021040 1_555
Co3 O15 2.053447 1_565
Co3 O8 2.054523 1_655
Co3 O3 2.173285 1_555
Co4 O7 1.911143 1_555
Co4 O14 1.918535 1_555
Co4 O9 1.956146 1_655
Co4 O0 1.958717 1_545
Co4 O12 2.161402 1_555
Co4 O2 2.163429 1_555
