# generated using pymatgen
data_Eu11(ZnAs2)6
_symmetry_space_group_name_H-M   'P 1'
_cell_length_a   15.21337293
_cell_length_b   15.21337293
_cell_length_c   11.67101985
_cell_angle_alpha   70.46104094
_cell_angle_beta   70.46104094
_cell_angle_gamma   16.28558161
_symmetry_Int_Tables_number   1
_chemical_formula_structural   Eu11(ZnAs2)6
_chemical_formula_sum   'Eu11 Zn6 As12'
_cell_volume   712.94834964
_cell_formula_units_Z   1
loop_
 _symmetry_equiv_pos_site_id
 _symmetry_equiv_pos_as_xyz
  1  'x, y, z'
loop_
 _atom_site_type_symbol
 _atom_site_label
 _atom_site_symmetry_multiplicity
 _atom_site_fract_x
 _atom_site_fract_y
 _atom_site_fract_z
 _atom_site_occupancy
  Eu  Eu0  1  0.01671100  0.01671100  0.32242500  1
  Eu  Eu1  1  0.98328900  0.98328900  0.67757500  1
  Eu  Eu2  1  0.11269300  0.11269300  0.48779300  1
  Eu  Eu3  1  0.88730700  0.88730700  0.51220700  1
  Eu  Eu4  1  0.12625400  0.12625400  0.97924600  1
  Eu  Eu5  1  0.87374600  0.87374600  0.02075400  1
  Eu  Eu6  1  0.19885500  0.19885500  0.65225700  1
  Eu  Eu7  1  0.80114500  0.80114500  0.34774300  1
  Eu  Eu8  1  0.28210700  0.28210700  0.86374100  1
  Eu  Eu9  1  0.71789300  0.71789300  0.13625900  1
  Eu  Eu10  1  0.00000000  0.00000000  0.00000000  1
  Zn  Zn0  1  0.21898700  0.21898700  0.33062500  1
  Zn  Zn1  1  0.78101300  0.78101300  0.66937500  1
  Zn  Zn2  1  0.40089700  0.40089700  0.75144200  1
  Zn  Zn3  1  0.59910300  0.59910300  0.24855800  1
  Zn  Zn4  1  0.54752000  0.54752000  0.76420100  1
  Zn  Zn5  1  0.45248000  0.45248000  0.23579900  1
  As  As0  1  0.08636500  0.08636500  0.76225100  1
  As  As1  1  0.91363500  0.91363500  0.23774900  1
  As  As2  1  0.14484100  0.14484100  0.21679000  1
  As  As3  1  0.85515900  0.85515900  0.78321000  1
  As  As4  1  0.30688800  0.30688800  0.54644300  1
  As  As5  1  0.69311200  0.69311200  0.45355700  1
  As  As6  1  0.45506400  0.45506400  0.87911000  1
  As  As7  1  0.54493600  0.54493600  0.12089000  1
  As  As8  1  0.45756700  0.45756700  0.50980500  1
  As  As9  1  0.54243300  0.54243300  0.49019500  1
  As  As10  1  0.70760100  0.70760100  0.85422000  1
  As  As11  1  0.29239900  0.29239900  0.14578000  1
loop_
_geom_bond_atom_site_label_1
_geom_bond_atom_site_label_2
_geom_bond_distance
_geom_bond_site_symmetry_2
Eu0 Zn3 3.177964 1_545
Eu0 Zn3 3.177964 1_455
Eu0 Zn5 3.275655 1_545
Eu0 Zn5 3.275655 1_455
Eu1 Zn2 3.177964 1_655
Eu1 Zn2 3.177964 1_565
Eu1 Zn4 3.275655 1_655
Eu1 Zn4 3.275655 1_565
Eu2 Zn0 3.105890 1_555
Eu3 Zn1 3.105890 1_555
Eu8 Zn1 3.136997 1_455
Eu8 Zn1 3.136997 1_545
Eu9 Zn0 3.136997 1_565
Eu9 Zn0 3.136997 1_655
As0 Zn4 2.448417 1_545
As0 Zn4 2.448417 1_455
As0 Eu2 3.028692 1_555
As0 Eu10 3.096595 1_556
As0 Eu4 3.148545 1_555
As0 Eu6 3.191996 1_555
As0 Eu1 3.562118 1_445
As1 Zn5 2.448417 1_565
As1 Zn5 2.448417 1_655
As1 Eu3 3.028692 1_555
As1 Eu10 3.096595 1_665
As1 Eu5 3.148545 1_555
As1 Eu7 3.191996 1_555
As1 Eu0 3.562118 1_665
As2 Zn3 2.516642 1_455
As2 Zn3 2.516642 1_545
As2 Zn0 2.959306 1_555
As2 Eu2 2.978588 1_555
As2 Eu9 2.995114 1_455
As2 Eu9 2.995114 1_545
As2 Eu4 3.008035 1_554
As2 Eu0 3.633037 1_555
As3 Zn2 2.516642 1_655
As3 Zn2 2.516642 1_565
As3 Zn1 2.959306 1_555
As3 Eu3 2.978588 1_555
As3 Eu8 2.995114 1_565
As3 Eu8 2.995114 1_655
As3 Eu5 3.008035 1_556
As3 Eu1 3.633037 1_555
As4 Zn1 2.560003 1_455
As4 Zn1 2.560003 1_545
As4 Eu6 3.065616 1_555
As4 Eu3 3.164825 1_455
As4 Eu3 3.164825 1_545
As4 Eu7 3.212815 1_545
As4 Eu7 3.212815 1_455
As5 Zn0 2.560003 1_655
As5 Zn0 2.560003 1_565
As5 Eu7 3.065616 1_555
As5 Eu2 3.164825 1_565
As5 Eu2 3.164825 1_655
As5 Eu6 3.212815 1_565
As5 Eu6 3.212815 1_655
As6 Zn2 2.554329 1_555
As6 Zn4 2.651411 1_555
As6 Eu1 3.089876 1_545
As6 Eu1 3.089876 1_455
As6 Eu10 3.123491 1_566
As6 Eu10 3.123491 1_656
As6 Eu5 3.261786 1_546
As6 Eu5 3.261786 1_456
As7 Zn3 2.554329 1_555
As7 Zn5 2.651411 1_555
As7 Eu0 3.089876 1_565
As7 Eu0 3.089876 1_655
As7 Eu10 3.123491 1_655
As7 Eu10 3.123491 1_565
As7 Eu4 3.261786 1_564
As7 Eu4 3.261786 1_654
As8 As9 2.488181 1_555
As8 Zn2 2.759364 1_555
As8 Eu3 3.013706 1_545
As8 Eu3 3.013706 1_455
As8 Eu0 3.157042 1_655
As8 Eu0 3.157042 1_565
As8 Eu1 3.178446 1_545
As8 Eu1 3.178446 1_455
As9 Zn3 2.759364 1_555
As9 Eu2 3.013706 1_565
As9 Eu2 3.013706 1_655
As9 Eu1 3.157042 1_545
As9 Eu1 3.157042 1_455
As9 Eu0 3.178446 1_655
As9 Eu0 3.178446 1_565
As10 Zn1 2.513974 1_555
As10 Eu8 3.140098 1_655
As10 Eu8 3.140098 1_565
As10 Eu4 3.218699 1_565
As10 Eu4 3.218699 1_655
As10 Eu6 3.269289 1_655
As10 Eu6 3.269289 1_565
As10 Eu9 3.408925 1_556
As11 Zn0 2.513974 1_555
As11 Eu9 3.140098 1_545
As11 Eu9 3.140098 1_455
As11 Eu5 3.218699 1_545
As11 Eu5 3.218699 1_455
As11 Eu7 3.269289 1_455
As11 Eu7 3.269289 1_545
As11 Eu8 3.408925 1_554
