# generated using pymatgen
data_MgZnCo
_symmetry_space_group_name_H-M   'P 1'
_cell_length_a   4.96544044
_cell_length_b   4.96437093
_cell_length_c   4.96544044
_cell_angle_alpha   121.25849514
_cell_angle_beta   119.38533228
_cell_angle_gamma   89.45734416
_symmetry_Int_Tables_number   1
_chemical_formula_structural   MgZnCo
_chemical_formula_sum   'Mg2 Zn2 Co2'
_cell_volume   86.09034146
_cell_formula_units_Z   2
loop_
 _symmetry_equiv_pos_site_id
 _symmetry_equiv_pos_as_xyz
  1  'x, y, z'
loop_
 _atom_site_type_symbol
 _atom_site_label
 _atom_site_symmetry_multiplicity
 _atom_site_fract_x
 _atom_site_fract_y
 _atom_site_fract_z
 _atom_site_occupancy
  Mg  Mg0  1  0.36716276  0.11716172  0.24999896  1
  Mg  Mg1  1  0.63283724  0.88283828  0.75000104  1
  Zn  Zn0  1  0.50000000  0.50000000  0.00000000  1
  Zn  Zn1  1  -0.00000000  0.50000000  0.50000000  1
  Co  Co0  1  -0.00000000  0.50000000  0.00000000  1
  Co  Co1  1  -0.00000000  -0.00000000  0.50000000  1
loop_
_geom_bond_atom_site_label_1
_geom_bond_atom_site_label_2
_geom_bond_distance
_geom_bond_site_symmetry_2
Mg0 Zn0 2.860283 1_545
Mg0 Zn1 2.860283 1_544
Mg0 Zn1 2.860727 1_555
Mg0 Zn0 2.860727 1_556
Mg0 Zn1 2.977220 1_655
Mg0 Zn0 2.977220 1_555
Mg0 Mg1 3.001906 1_545
Mg0 Mg1 3.001906 1_444
Mg0 Mg1 3.072392 1_555
Mg0 Mg1 3.073294 1_544
Mg1 Zn1 2.860283 1_666
Mg1 Zn0 2.860283 1_566
Mg1 Zn0 2.860727 1_555
Mg1 Zn1 2.860727 1_655
Mg1 Zn0 2.977220 1_556
Mg1 Zn1 2.977220 1_555
Zn0 Zn1 2.505751 1_655
Zn0 Zn1 2.505751 1_554
Co0 Co1 2.435083 1_565
Co0 Co1 2.435083 1_554
Co0 Zn1 2.482720 1_555
Co0 Zn0 2.482720 1_555
Co0 Zn0 2.482720 1_455
Co0 Zn1 2.482720 1_554
Co0 Mg0 2.861735 1_565
Co0 Mg1 2.861735 1_444
Co0 Mg0 2.939164 1_555
Co0 Mg0 2.939164 1_454
Co0 Mg1 2.939164 1_454
Co0 Mg1 2.939164 1_555
Co1 Zn0 2.482185 1_556
Co1 Zn1 2.482185 1_555
Co1 Zn1 2.482185 1_545
Co1 Zn0 2.482185 1_445
Co1 Mg0 2.862420 1_555
Co1 Mg1 2.862420 1_445
Co1 Mg1 2.939400 1_444
Co1 Mg1 2.939400 1_545
Co1 Mg0 2.939400 1_455
Co1 Mg0 2.939400 1_556
