# generated using pymatgen
data_TiOs2
_symmetry_space_group_name_H-M   'P 1'
_cell_length_a   5.12980660
_cell_length_b   5.12980660
_cell_length_c   8.37397600
_cell_angle_alpha   90.00000000
_cell_angle_beta   90.00000000
_cell_angle_gamma   120.00000768
_symmetry_Int_Tables_number   1
_chemical_formula_structural   TiOs2
_chemical_formula_sum   'Ti4 Os8'
_cell_volume   190.83775247
_cell_formula_units_Z   4
loop_
 _symmetry_equiv_pos_site_id
 _symmetry_equiv_pos_as_xyz
  1  'x, y, z'
loop_
 _atom_site_type_symbol
 _atom_site_label
 _atom_site_symmetry_multiplicity
 _atom_site_fract_x
 _atom_site_fract_y
 _atom_site_fract_z
 _atom_site_occupancy
  Ti  Ti0  1  0.33333300  0.66666700  0.43086300  1
  Ti  Ti1  1  0.66666700  0.33333300  0.56913700  1
  Ti  Ti2  1  0.66666700  0.33333300  0.93086300  1
  Ti  Ti3  1  0.33333300  0.66666700  0.06913700  1
  Os  Os0  1  0.00000000  0.00000000  0.50000000  1
  Os  Os1  1  0.00000000  0.00000000  0.00000000  1
  Os  Os2  1  0.82648900  0.17351100  0.25000000  1
  Os  Os3  1  0.82648900  0.65297700  0.25000000  1
  Os  Os4  1  0.34702300  0.17351100  0.25000000  1
  Os  Os5  1  0.17351100  0.82648900  0.75000000  1
  Os  Os6  1  0.17351100  0.34702300  0.75000000  1
  Os  Os7  1  0.65297700  0.82648900  0.75000000  1
loop_
_geom_bond_atom_site_label_1
_geom_bond_atom_site_label_2
_geom_bond_distance
_geom_bond_site_symmetry_2
Ti0 Ti3 3.029085 1_555
Ti0 Ti1 3.179994 1_455
Ti0 Ti1 3.179994 1_565
Ti0 Ti1 3.180002 1_555
Ti1 Ti2 3.029085 1_555
Ti2 Ti3 3.179994 1_656
Ti2 Ti3 3.179994 1_546
Ti2 Ti3 3.180002 1_556
Os0 Os5 2.599891 1_545
Os0 Os2 2.599891 1_455
Os0 Os4 2.599894 1_555
Os0 Os6 2.599894 1_555
Os0 Os3 2.599894 1_445
Os0 Os7 2.599894 1_445
Os0 Ti0 3.017749 1_545
Os0 Ti1 3.017749 1_455
Os0 Ti0 3.017753 1_445
Os0 Ti1 3.017753 1_445
Os0 Ti1 3.017753 1_555
Os0 Ti0 3.017753 1_555
Os1 Os5 2.599891 1_544
Os1 Os2 2.599891 1_455
Os1 Os4 2.599894 1_555
Os1 Os6 2.599894 1_554
Os1 Os3 2.599894 1_445
Os1 Os7 2.599894 1_444
Os1 Ti3 3.017749 1_545
Os1 Ti2 3.017749 1_454
Os1 Ti3 3.017753 1_445
Os1 Ti3 3.017753 1_555
Os1 Ti2 3.017753 1_554
Os1 Ti2 3.017753 1_444
Os2 Os3 2.459568 1_555
Os2 Os4 2.459568 1_555
Os2 Os4 2.670239 1_655
Os2 Os3 2.670239 1_545
Os2 Ti0 2.979306 1_545
Os2 Ti3 2.979306 1_545
Os2 Ti0 2.979306 1_655
Os2 Ti3 2.979306 1_655
Os2 Ti1 3.026294 1_555
Os2 Ti2 3.026294 1_554
Os3 Os4 2.459568 1_555
Os3 Os4 2.670238 1_665
Os3 Ti0 2.979302 1_655
Os3 Ti3 2.979302 1_655
Os3 Ti0 2.979311 1_555
Os3 Ti3 2.979311 1_555
Os3 Ti1 3.026294 1_555
Os3 Ti2 3.026294 1_554
Os4 Ti0 2.979302 1_545
Os4 Ti3 2.979302 1_545
Os4 Ti0 2.979311 1_555
Os4 Ti3 2.979311 1_555
Os4 Ti2 3.026294 1_554
Os4 Ti1 3.026294 1_555
Os5 Os7 2.459568 1_555
Os5 Os6 2.459568 1_555
Os5 Os6 2.670239 1_565
Os5 Os7 2.670239 1_455
Os5 Ti2 2.979306 1_455
Os5 Ti1 2.979306 1_455
Os5 Ti2 2.979306 1_565
Os5 Ti1 2.979306 1_565
Os5 Ti3 3.026294 1_556
Os5 Ti0 3.026294 1_555
Os6 Os7 2.459568 1_555
Os6 Os7 2.670238 1_445
Os6 Ti1 2.979302 1_455
Os6 Ti2 2.979302 1_455
Os6 Ti1 2.979311 1_555
Os6 Ti2 2.979311 1_555
Os6 Ti3 3.026294 1_556
Os6 Ti0 3.026294 1_555
Os7 Ti2 2.979302 1_565
Os7 Ti1 2.979302 1_565
Os7 Ti1 2.979311 1_555
Os7 Ti2 2.979311 1_555
Os7 Ti3 3.026294 1_556
Os7 Ti0 3.026294 1_555
