# generated using pymatgen
data_Ba12In4S19
_symmetry_space_group_name_H-M   'P 1'
_cell_length_a   9.73612608
_cell_length_b   9.73612549
_cell_length_c   26.07158344
_cell_angle_alpha   90.00000000
_cell_angle_beta   79.23862366
_cell_angle_gamma   119.99999802
_symmetry_Int_Tables_number   1
_chemical_formula_structural   Ba12In4S19
_chemical_formula_sum   'Ba24 In8 S38'
_cell_volume   2089.94127659
_cell_formula_units_Z   2
loop_
 _symmetry_equiv_pos_site_id
 _symmetry_equiv_pos_as_xyz
  1  'x, y, z'
loop_
 _atom_site_type_symbol
 _atom_site_label
 _atom_site_symmetry_multiplicity
 _atom_site_fract_x
 _atom_site_fract_y
 _atom_site_fract_z
 _atom_site_occupancy
  Ba  Ba0  1  0.29992992  0.83467025  0.43702495  1
  Ba  Ba1  1  0.09771538  0.26304513  0.43702495  1
  Ba  Ba2  1  0.72830479  0.46525966  0.43702495  1
  Ba  Ba3  1  0.70007008  0.16532975  0.56297505  1
  Ba  Ba4  1  0.90228462  0.73695487  0.56297505  1
  Ba  Ba5  1  0.27169521  0.53474034  0.56297505  1
  Ba  Ba6  1  0.15942879  0.77789111  0.68730659  1
  Ba  Ba7  1  0.93115572  0.15326461  0.68730659  1
  Ba  Ba8  1  0.53480230  0.38153768  0.68730659  1
  Ba  Ba9  1  0.84057121  0.22210889  0.31269341  1
  Ba  Ba10  1  0.06884428  0.84673539  0.31269341  1
  Ba  Ba11  1  0.46519770  0.61846232  0.31269341  1
  Ba  Ba12  1  0.46268456  0.92223390  0.18715559  1
  Ba  Ba13  1  0.27239375  0.35015985  0.18715559  1
  Ba  Ba14  1  0.89061051  0.54045065  0.18715559  1
  Ba  Ba15  1  0.53731544  0.07776610  0.81284441  1
  Ba  Ba16  1  0.72760625  0.64984015  0.81284441  1
  Ba  Ba17  1  0.10938949  0.45954935  0.81284441  1
  Ba  Ba18  1  0.96876938  0.68763205  0.93821043  1
  Ba  Ba19  1  0.78065224  0.09302018  0.93821043  1
  Ba  Ba20  1  0.37415752  0.28113733  0.93821043  1
  Ba  Ba21  1  0.03123062  0.31236795  0.06178957  1
  Ba  Ba22  1  0.21934776  0.90697982  0.06178957  1
  Ba  Ba23  1  0.62584248  0.71886267  0.06178957  1
  In  In0  1  0.60643309  0.30321654  0.09035037  1
  In  In1  1  0.39356691  0.69678346  0.90964963  1
  In  In2  1  0.14217885  0.07108943  0.78673172  1
  In  In3  1  0.85782115  0.92891057  0.21326828  1
  In  In4  1  0.30650927  0.15325463  0.54023610  1
  In  In5  1  0.69349073  0.84674537  0.45976390  1
  In  In6  1  0.44405374  0.22202687  0.33391940  1
  In  In7  1  0.55594626  0.77797313  0.66608060  1
  S  S0  1  0.37934753  0.31219186  0.06169319  1
  S  S1  1  0.87115114  0.55895928  0.06169319  1
  S  S2  1  0.62611495  0.06715567  0.06169319  1
  S  S3  1  0.62065247  0.68780814  0.93830681  1
  S  S4  1  0.12884886  0.44104072  0.93830681  1
  S  S5  1  0.37388505  0.93284433  0.93830681  1
  S  S6  1  0.90359296  0.45179648  0.64461056  1
  S  S7  1  0.09640704  0.54820352  0.35538944  1
  S  S8  1  0.44653667  0.97751251  0.31386144  1
  S  S9  1  0.21711441  0.23960190  0.31386144  1
  S  S10  1  0.70862605  0.46902415  0.31386144  1
  S  S11  1  0.55346333  0.02248749  0.68613856  1
  S  S12  1  0.78288559  0.76039810  0.68613856  1
  S  S13  1  0.29137395  0.53097585  0.68613856  1
  S  S14  1  0.74700137  0.37350068  0.87949795  1
  S  S15  1  0.25299863  0.62649932  0.12050205  1
  S  S16  1  0.54224848  0.27112424  0.18662728  1
  S  S17  1  0.45775152  0.72887576  0.81337272  1
  S  S18  1  0.28456153  0.89575393  0.56086023  1
  S  S19  1  0.05033217  0.15457824  0.56086023  1
  S  S20  1  0.54338584  0.38880760  0.56086023  1
  S  S21  1  0.71543847  0.10424607  0.43913977  1
  S  S22  1  0.94966783  0.84542176  0.43913977  1
  S  S23  1  0.45661416  0.61119240  0.43913977  1
  S  S24  1  0.10930343  0.81011584  0.81357982  1
  S  S25  1  0.88723259  0.07711675  0.81357982  1
  S  S26  1  0.37630435  0.29918759  0.81357982  1
  S  S27  1  0.89069657  0.18988416  0.18642018  1
  S  S28  1  0.11276741  0.92288325  0.18642018  1
  S  S29  1  0.62369565  0.70081241  0.18642018  1
  S  S30  1  -0.00000000  -0.00000000  -0.00000000  1
  S  S31  1  0.84758976  0.42379488  0.72861537  1
  S  S32  1  0.15241024  0.57620512  0.27138463  1
  S  S33  1  0.20707317  0.10353659  0.68939024  1
  S  S34  1  0.79292683  0.89646341  0.31060976  1
  S  S35  1  -0.00000000  0.50000000  0.50000000  1
  S  S36  1  0.37501071  0.18750536  0.43748393  1
  S  S37  1  0.62498929  0.81249464  0.56251607  1
loop_
_geom_bond_atom_site_label_1
_geom_bond_atom_site_label_2
_geom_bond_distance
_geom_bond_site_symmetry_2
Ba0 S36 3.134890 1_565
Ba0 S23 3.227216 1_555
Ba0 S35 3.245716 1_555
Ba0 S8 3.253579 1_555
Ba0 S18 3.272370 1_555
Ba0 S22 3.454011 1_455
Ba0 S7 3.504804 1_555
Ba0 S21 3.566908 1_565
Ba1 S36 3.134890 1_555
Ba1 S21 3.227217 1_455
Ba1 S35 3.245716 1_555
Ba1 S9 3.253579 1_555
Ba1 S19 3.272370 1_555
Ba1 S23 3.454011 1_555
Ba1 S7 3.504804 1_555
Ba1 S22 3.566908 1_445
Ba2 S36 3.134890 1_555
Ba2 S22 3.227216 1_555
Ba2 S35 3.245716 1_655
Ba2 S10 3.253579 1_555
Ba2 S20 3.272370 1_555
Ba2 S21 3.454010 1_555
Ba2 S7 3.504804 1_655
Ba2 S23 3.566908 1_555
Ba3 S37 3.134890 1_545
Ba3 S20 3.227216 1_555
Ba3 S35 3.245716 1_655
Ba3 S11 3.253579 1_555
Ba3 S21 3.272370 1_555
Ba3 S19 3.454011 1_655
Ba3 S6 3.504804 1_555
Ba3 S18 3.566908 1_545
Ba4 S37 3.134890 1_555
Ba4 S18 3.227217 1_655
Ba4 S35 3.245716 1_655
Ba4 S12 3.253579 1_555
Ba4 S22 3.272370 1_555
Ba4 S20 3.454011 1_555
Ba4 S6 3.504804 1_555
Ba4 S19 3.566908 1_665
Ba5 S37 3.134890 1_555
Ba5 S19 3.227216 1_555
Ba5 S35 3.245716 1_555
Ba5 S13 3.253579 1_555
Ba5 S23 3.272370 1_555
Ba5 S18 3.454010 1_555
Ba5 S6 3.504804 1_455
Ba5 S20 3.566908 1_555
Ba6 S33 2.968005 1_565
Ba6 S13 3.240998 1_555
Ba6 S31 3.251942 1_455
Ba6 S6 3.263535 1_455
Ba6 S24 3.275354 1_555
Ba6 S18 3.281942 1_555
Ba6 S11 3.348162 1_565
Ba6 S12 3.589892 1_455
Ba7 S33 2.968005 1_655
Ba7 S11 3.240999 1_555
Ba7 S31 3.251942 1_555
Ba7 S6 3.263535 1_555
Ba7 S25 3.275354 1_555
Ba7 S19 3.281942 1_655
Ba7 S12 3.348162 1_545
Ba7 S13 3.589892 1_655
Ba8 S33 2.968005 1_555
Ba8 S12 3.240998 1_555
Ba8 S31 3.251942 1_555
Ba8 S6 3.263535 1_555
Ba8 S26 3.275354 1_555
Ba8 S20 3.281942 1_555
Ba8 S13 3.348162 1_555
Ba8 S11 3.589892 1_555
Ba9 S34 2.968005 1_545
Ba9 S10 3.240998 1_555
Ba9 S32 3.251942 1_655
Ba9 S7 3.263535 1_655
Ba9 S27 3.275354 1_555
Ba9 S21 3.281942 1_555
Ba9 S8 3.348162 1_545
Ba9 S9 3.589892 1_655
Ba10 S34 2.968005 1_455
Ba10 S8 3.240999 1_555
Ba10 S32 3.251942 1_555
Ba10 S7 3.263535 1_555
Ba10 S28 3.275354 1_555
Ba10 S22 3.281942 1_455
Ba10 S9 3.348162 1_565
Ba10 S10 3.589892 1_455
Ba11 S34 2.968005 1_555
Ba11 S9 3.240998 1_555
Ba11 S32 3.251942 1_555
Ba11 S7 3.263535 1_555
Ba11 S29 3.275354 1_555
Ba11 S23 3.281942 1_555
Ba11 S10 3.348162 1_555
Ba11 S8 3.589892 1_555
Ba12 S16 3.082768 1_565
Ba12 S29 3.236275 1_555
Ba12 S15 3.305258 1_555
Ba12 S2 3.321656 1_565
Ba12 S8 3.334313 1_555
Ba12 S28 3.413632 1_555
Ba12 S32 3.555766 1_555
Ba12 S27 3.642437 1_565
Ba13 S16 3.082768 1_555
Ba13 S27 3.236275 1_455
Ba13 S15 3.305258 1_555
Ba13 S0 3.321656 1_555
Ba13 S9 3.334313 1_555
Ba13 S29 3.413632 1_555
Ba13 S32 3.555766 1_555
Ba13 S28 3.642437 1_545
Ba14 S16 3.082768 1_555
Ba14 S28 3.236275 1_655
Ba14 S15 3.305259 1_655
Ba14 S1 3.321656 1_555
Ba14 S10 3.334313 1_555
Ba14 S27 3.413631 1_555
Ba14 S32 3.555766 1_655
Ba14 S29 3.642437 1_555
Ba15 S17 3.082768 1_545
Ba15 S26 3.236275 1_555
Ba15 S14 3.305258 1_555
Ba15 S5 3.321656 1_545
Ba15 S11 3.334313 1_555
Ba15 S25 3.413632 1_555
Ba15 S31 3.555766 1_555
Ba15 S24 3.642437 1_545
Ba16 S17 3.082768 1_555
Ba16 S24 3.236275 1_655
Ba16 S14 3.305258 1_555
Ba16 S3 3.321656 1_555
Ba16 S12 3.334313 1_555
Ba16 S26 3.413632 1_555
Ba16 S31 3.555766 1_555
Ba16 S25 3.642437 1_565
Ba17 S17 3.082768 1_555
Ba17 S25 3.236275 1_455
Ba17 S14 3.305259 1_455
Ba17 S4 3.321656 1_555
Ba17 S13 3.334313 1_555
Ba17 S24 3.413631 1_555
Ba17 S31 3.555766 1_455
Ba17 S26 3.642437 1_555
Ba18 S1 3.240975 1_556
Ba18 S24 3.249669 1_655
Ba18 S14 3.315067 1_555
Ba18 S30 3.345897 1_666
Ba18 S3 3.389700 1_555
Ba18 S5 3.441518 1_655
Ba18 S4 3.454918 1_655
Ba19 S2 3.240975 1_556
Ba19 S25 3.249669 1_555
Ba19 S14 3.315067 1_555
Ba19 S30 3.345897 1_656
Ba19 S4 3.389700 1_655
Ba19 S3 3.441518 1_545
Ba19 S5 3.454918 1_545
Ba20 S0 3.240975 1_556
Ba20 S26 3.249669 1_555
Ba20 S14 3.315067 1_555
Ba20 S30 3.345897 1_556
Ba20 S5 3.389699 1_545
Ba20 S4 3.441518 1_555
Ba20 S3 3.454918 1_555
Ba21 S4 3.240975 1_554
Ba21 S27 3.249669 1_455
Ba21 S15 3.315067 1_555
Ba21 S30 3.345897 1_555
Ba21 S0 3.389700 1_555
Ba21 S2 3.441518 1_455
Ba21 S1 3.454918 1_455
Ba22 S5 3.240975 1_554
Ba22 S28 3.249669 1_555
Ba22 S15 3.315067 1_555
Ba22 S30 3.345897 1_565
Ba22 S1 3.389700 1_455
Ba22 S0 3.441518 1_565
Ba22 S2 3.454918 1_565
Ba23 S3 3.240975 1_554
Ba23 S29 3.249669 1_555
Ba23 S15 3.315067 1_555
Ba23 S30 3.345897 1_665
Ba23 S2 3.389699 1_565
Ba23 S1 3.441518 1_555
Ba23 S0 3.454918 1_555
In0 S16 2.451056 1_555
In0 S2 2.502829 1_555
In0 S1 2.502829 1_555
In0 S0 2.502829 1_555
In1 S17 2.451056 1_555
In1 S5 2.502829 1_555
In1 S4 2.502829 1_555
In1 S3 2.502829 1_555
In2 S33 2.478158 1_555
In2 S24 2.480220 1_545
In2 S25 2.480220 1_455
In2 S26 2.480220 1_555
In3 S34 2.478158 1_555
In3 S27 2.480220 1_565
In3 S28 2.480220 1_655
In3 S29 2.480220 1_555
In4 S18 2.457947 1_545
In4 S20 2.457947 1_555
In4 S19 2.457947 1_555
In4 S36 2.615906 1_555
In5 S21 2.457947 1_565
In5 S23 2.457947 1_555
In5 S22 2.457947 1_555
In5 S37 2.615906 1_555
In6 S8 2.448315 1_545
In6 S10 2.448315 1_555
In6 S9 2.448315 1_555
In6 S36 2.636587 1_555
In7 S11 2.448315 1_565
In7 S13 2.448315 1_555
In7 S12 2.448315 1_555
In7 S37 2.636587 1_555
S31 S6 2.138628 1_555
S32 S7 2.138628 1_555
