# generated using pymatgen
data_NaYSiO4
_symmetry_space_group_name_H-M   'P 1'
_cell_length_a   5.19102900
_cell_length_b   6.48984100
_cell_length_c   11.27346200
_cell_angle_alpha   90.00000000
_cell_angle_beta   90.00000000
_cell_angle_gamma   90.00000000
_symmetry_Int_Tables_number   1
_chemical_formula_structural   NaYSiO4
_chemical_formula_sum   'Na4 Y4 Si4 O16'
_cell_volume   379.79112962
_cell_formula_units_Z   4
loop_
 _symmetry_equiv_pos_site_id
 _symmetry_equiv_pos_as_xyz
  1  'x, y, z'
loop_
 _atom_site_type_symbol
 _atom_site_label
 _atom_site_symmetry_multiplicity
 _atom_site_fract_x
 _atom_site_fract_y
 _atom_site_fract_z
 _atom_site_occupancy
  Na  Na0  1  0.50000000  0.50000000  0.00000000  1
  Na  Na1  1  0.50000000  0.00000000  0.00000000  1
  Na  Na2  1  0.00000000  0.00000000  0.50000000  1
  Na  Na3  1  0.00000000  0.50000000  0.50000000  1
  Y  Y0  1  0.49900100  0.25000000  0.28043800  1
  Y  Y1  1  0.50099900  0.75000000  0.71956200  1
  Y  Y2  1  0.00099900  0.25000000  0.78043800  1
  Y  Y3  1  0.99900100  0.75000000  0.21956200  1
  Si  Si0  1  0.56115800  0.75000000  0.39993600  1
  Si  Si1  1  0.93884200  0.75000000  0.89993600  1
  Si  Si2  1  0.43884200  0.25000000  0.60006400  1
  Si  Si3  1  0.06115800  0.25000000  0.10006400  1
  O  O0  1  0.74902600  0.25000000  0.11343300  1
  O  O1  1  0.25097400  0.75000000  0.88656700  1
  O  O2  1  0.75097400  0.25000000  0.61343300  1
  O  O3  1  0.24902600  0.75000000  0.38656700  1
  O  O4  1  0.83376400  0.75000000  0.03707100  1
  O  O5  1  0.16623600  0.25000000  0.96292900  1
  O  O6  1  0.66623600  0.75000000  0.53707100  1
  O  O7  1  0.33376400  0.25000000  0.46292900  1
  O  O8  1  0.70087500  0.55246500  0.32853600  1
  O  O9  1  0.29912500  0.05246500  0.67146400  1
  O  O10  1  0.79912500  0.55246500  0.82853600  1
  O  O11  1  0.20087500  0.05246500  0.17146400  1
  O  O12  1  0.20087500  0.44753500  0.17146400  1
  O  O13  1  0.79912500  0.94753500  0.82853600  1
  O  O14  1  0.29912500  0.44753500  0.67146400  1
  O  O15  1  0.70087500  0.94753500  0.32853600  1
loop_
_geom_bond_atom_site_label_1
_geom_bond_atom_site_label_2
_geom_bond_distance
_geom_bond_site_symmetry_2
Na0 O4 2.410158 1_555
Na0 O5 2.410158 1_554
Na0 O0 2.436953 1_555
Na0 O1 2.436953 1_554
Na0 O10 2.502694 1_554
Na0 O12 2.502694 1_555
Na1 O4 2.410158 1_545
Na1 O5 2.410158 1_554
Na1 O1 2.436953 1_544
Na1 O0 2.436953 1_555
Na1 O13 2.502694 1_544
Na1 O11 2.502694 1_555
Na2 O6 2.410158 1_445
Na2 O7 2.410158 1_555
Na2 O3 2.436953 1_545
Na2 O2 2.436953 1_455
Na2 O9 2.502694 1_555
Na2 O15 2.502694 1_445
Na3 O6 2.410158 1_455
Na3 O7 2.410158 1_555
Na3 O3 2.436953 1_555
Na3 O2 2.436953 1_455
Na3 O14 2.502694 1_555
Na3 O8 2.502694 1_455
O0 Si3 1.627281 1_655
O0 Y0 2.286736 1_555
O1 Si1 1.627281 1_455
O1 Y1 2.286736 1_555
O2 Si2 1.627281 1_555
O2 Y2 2.286736 1_655
O3 Si0 1.627281 1_555
O3 Y3 2.286736 1_455
O4 Si1 1.639391 1_554
O4 Y3 2.228955 1_555
O5 Si3 1.639391 1_556
O5 Y2 2.228955 1_555
O6 Si0 1.639391 1_555
O6 Y1 2.228955 1_555
O7 Si2 1.639391 1_555
O7 Y0 2.228955 1_555
O8 Si0 1.678505 1_555
O8 Y0 2.290273 1_555
O8 Y3 2.355356 1_555
O9 Si2 1.678505 1_555
O9 Y1 2.290273 1_545
O9 Y2 2.355356 1_555
O10 Si1 1.678505 1_555
O10 Y2 2.290273 1_655
O10 Y1 2.355356 1_555
O11 Si3 1.678505 1_555
O11 Y3 2.290273 1_445
O11 Y0 2.355356 1_555
O12 Si3 1.678505 1_555
O12 Y3 2.290273 1_455
O12 Y0 2.355356 1_555
O13 Si1 1.678505 1_555
O13 Y2 2.290273 1_665
O13 Y1 2.355356 1_555
O14 Si2 1.678505 1_555
O14 Y1 2.290273 1_555
O14 Y2 2.355356 1_555
O15 Si0 1.678505 1_555
O15 Y0 2.290273 1_565
O15 Y3 2.355356 1_555
