# generated using pymatgen
data_Eu(Ag2Sb)2
_symmetry_space_group_name_H-M   'P 1'
_cell_length_a   8.71918971
_cell_length_b   8.71918971
_cell_length_c   8.71919030
_cell_angle_alpha   31.41285191
_cell_angle_beta   31.41285191
_cell_angle_gamma   31.41285425
_symmetry_Int_Tables_number   1
_chemical_formula_structural   Eu(Ag2Sb)2
_chemical_formula_sum   'Eu1 Ag4 Sb2'
_cell_volume   159.84367636
_cell_formula_units_Z   1
loop_
 _symmetry_equiv_pos_site_id
 _symmetry_equiv_pos_as_xyz
  1  'x, y, z'
loop_
 _atom_site_type_symbol
 _atom_site_label
 _atom_site_symmetry_multiplicity
 _atom_site_fract_x
 _atom_site_fract_y
 _atom_site_fract_z
 _atom_site_occupancy
  Eu  Eu0  1  -0.00000000  -0.00000000  0.00000000  1
  Ag  Ag0  1  0.85576009  0.85576009  0.85576009  1
  Ag  Ag1  1  0.14423991  0.14423991  0.14423991  1
  Ag  Ag2  1  0.56490004  0.56490004  0.56490004  1
  Ag  Ag3  1  0.43509996  0.43509996  0.43509996  1
  Sb  Sb0  1  0.74192835  0.74192835  0.74192835  1
  Sb  Sb1  1  0.25807165  0.25807165  0.25807165  1
loop_
_geom_bond_atom_site_label_1
_geom_bond_atom_site_label_2
_geom_bond_distance
_geom_bond_site_symmetry_2
Eu0 Sb0 3.305349 1_454
Eu0 Sb1 3.305349 1_545
Eu0 Sb0 3.305349 1_544
Eu0 Sb1 3.305349 1_455
Eu0 Sb0 3.305349 1_445
Eu0 Sb1 3.305349 1_554
Ag0 Sb0 2.828353 1_555
Ag0 Ag2 2.922687 1_655
Ag0 Ag2 2.922687 1_565
Ag0 Ag2 2.922687 1_556
Ag0 Ag1 2.944558 1_566
Ag0 Ag1 2.944558 1_656
Ag0 Ag1 2.944558 1_665
Ag0 Sb1 3.219596 1_665
Ag0 Sb1 3.219596 1_656
Ag0 Sb1 3.219596 1_566
Ag0 Eu0 3.583899 1_666
Ag1 Sb1 2.828353 1_555
Ag1 Ag3 2.922687 1_455
Ag1 Ag3 2.922687 1_545
Ag1 Ag3 2.922687 1_554
Ag1 Sb0 3.219596 1_445
Ag1 Sb0 3.219596 1_544
Ag1 Sb0 3.219596 1_454
Ag1 Eu0 3.583899 1_555
Ag2 Sb1 2.803942 1_565
Ag2 Sb1 2.803942 1_655
Ag2 Sb1 2.803942 1_556
Ag2 Eu0 3.717805 1_665
Ag2 Eu0 3.717805 1_566
Ag2 Eu0 3.717805 1_656
Ag3 Sb0 2.803942 1_455
Ag3 Sb0 2.803942 1_545
Ag3 Sb0 2.803942 1_554
Ag3 Eu0 3.717805 1_556
Ag3 Eu0 3.717805 1_565
Ag3 Eu0 3.717805 1_655
