# generated using pymatgen
data_BaHoCo4O7
_symmetry_space_group_name_H-M   'P 1'
_cell_length_a   6.38258187
_cell_length_b   6.38258187
_cell_length_c   10.40487600
_cell_angle_alpha   90.00000000
_cell_angle_beta   90.00000000
_cell_angle_gamma   119.99999862
_symmetry_Int_Tables_number   1
_chemical_formula_structural   BaHoCo4O7
_chemical_formula_sum   'Ba2 Ho2 Co8 O14'
_cell_volume   367.07967176
_cell_formula_units_Z   2
loop_
 _symmetry_equiv_pos_site_id
 _symmetry_equiv_pos_as_xyz
  1  'x, y, z'
loop_
 _atom_site_type_symbol
 _atom_site_label
 _atom_site_symmetry_multiplicity
 _atom_site_fract_x
 _atom_site_fract_y
 _atom_site_fract_z
 _atom_site_occupancy
  Ba  Ba0  1  0.33333300  0.66666700  0.97725100  1
  Ba  Ba1  1  0.66666700  0.33333300  0.47725100  1
  Ho  Ho0  1  0.33333300  0.66666700  0.37351700  1
  Ho  Ho1  1  0.66666700  0.33333300  0.87351700  1
  Co  Co0  1  0.83047500  0.16952500  0.18370100  1
  Co  Co1  1  0.66094900  0.83047500  0.68370100  1
  Co  Co2  1  0.16952500  0.33905100  0.68370100  1
  Co  Co3  1  0.83047500  0.66094900  0.18370100  1
  Co  Co4  1  0.33905100  0.16952500  0.18370100  1
  Co  Co5  1  0.16952500  0.83047500  0.68370100  1
  Co  Co6  1  0.00000000  0.00000000  0.93885800  1
  Co  Co7  1  0.00000000  0.00000000  0.43885800  1
  O  O0  1  0.83219800  0.16780200  0.99914300  1
  O  O1  1  0.66439600  0.83219800  0.49914300  1
  O  O2  1  0.16780200  0.33560400  0.49914300  1
  O  O3  1  0.83219800  0.66439600  0.99914300  1
  O  O4  1  0.33560400  0.16780200  0.99914300  1
  O  O5  1  0.16780200  0.83219800  0.49914300  1
  O  O6  1  0.00000000  0.00000000  0.74038900  1
  O  O7  1  0.00000000  0.00000000  0.24038900  1
  O  O8  1  0.50798500  0.49201500  0.25648400  1
  O  O9  1  0.01596900  0.50798500  0.75648400  1
  O  O10  1  0.49201500  0.98403100  0.75648400  1
  O  O11  1  0.50798500  0.01596900  0.25648400  1
  O  O12  1  0.49201500  0.50798500  0.75648400  1
  O  O13  1  0.98403100  0.49201500  0.25648400  1
loop_
_geom_bond_atom_site_label_1
_geom_bond_atom_site_label_2
_geom_bond_distance
_geom_bond_site_symmetry_2
Ba0 O12 2.890286 1_555
Ba0 O10 2.890286 1_555
Ba0 O9 2.890286 1_555
Ba0 O4 3.199431 1_565
Ba0 O3 3.199431 1_455
Ba0 O0 3.199434 1_565
Ba0 O0 3.199434 1_455
Ba0 O3 3.199438 1_555
Ba0 O4 3.199438 1_555
Ba0 O11 3.488422 1_566
Ba0 O13 3.488422 1_456
Ba0 O8 3.488429 1_556
Ba1 O8 2.890286 1_555
Ba1 O11 2.890286 1_555
Ba1 O13 2.890286 1_555
Ba1 O2 3.199431 1_655
Ba1 O1 3.199431 1_545
Ba1 O5 3.199434 1_655
Ba1 O5 3.199434 1_545
Ba1 O1 3.199438 1_555
Ba1 O2 3.199438 1_555
Ba1 O10 3.488422 1_545
Ba1 O9 3.488422 1_655
Ba1 O12 3.488429 1_555
Ho0 O5 2.248832 1_555
Ho0 O1 2.248836 1_555
Ho0 O2 2.248836 1_555
Ho0 O11 2.282687 1_565
Ho0 O13 2.282687 1_455
Ho0 O8 2.282696 1_555
Ho1 O0 2.248832 1_555
Ho1 O3 2.248836 1_555
Ho1 O4 2.248836 1_555
Ho1 O10 2.282687 1_545
Ho1 O9 2.282687 1_655
Ho1 O12 2.282696 1_555
Co0 O0 1.920398 1_554
Co0 O11 1.937374 1_555
Co0 O13 1.937374 1_555
Co0 O7 1.964719 1_655
Co1 O1 1.920398 1_555
Co1 O10 1.937373 1_555
Co1 O12 1.937374 1_555
Co1 O6 1.964724 1_665
Co2 O2 1.920398 1_555
Co2 O9 1.937373 1_555
Co2 O12 1.937374 1_555
Co2 O6 1.964724 1_555
Co3 O3 1.920398 1_554
Co3 O13 1.937373 1_555
Co3 O8 1.937374 1_555
Co3 O7 1.964724 1_665
Co4 O4 1.920398 1_554
Co4 O11 1.937373 1_555
Co4 O8 1.937374 1_555
Co4 O7 1.964724 1_555
Co5 O5 1.920398 1_555
Co5 O9 1.937374 1_555
Co5 O10 1.937374 1_555
Co5 O6 1.964719 1_565
Co6 O0 1.958224 1_455
Co6 O4 1.958224 1_555
Co6 O3 1.958224 1_445
Co6 O6 2.065045 1_555
Co7 O5 1.958224 1_545
Co7 O2 1.958224 1_555
Co7 O1 1.958224 1_445
Co7 O7 2.065045 1_555
