# generated using pymatgen
data_RbBe3ZnF9
_symmetry_space_group_name_H-M   'P 1'
_cell_length_a   6.78528373
_cell_length_b   6.78528373
_cell_length_c   9.81390100
_cell_angle_alpha   90.00000000
_cell_angle_beta   90.00000000
_cell_angle_gamma   119.99999733
_symmetry_Int_Tables_number   1
_chemical_formula_structural   RbBe3ZnF9
_chemical_formula_sum   'Rb2 Be6 Zn2 F18'
_cell_volume   391.29864207
_cell_formula_units_Z   2
loop_
 _symmetry_equiv_pos_site_id
 _symmetry_equiv_pos_as_xyz
  1  'x, y, z'
loop_
 _atom_site_type_symbol
 _atom_site_label
 _atom_site_symmetry_multiplicity
 _atom_site_fract_x
 _atom_site_fract_y
 _atom_site_fract_z
 _atom_site_occupancy
  Rb  Rb0  1  0.33333300  0.66666700  0.50000000  1
  Rb  Rb1  1  0.33333300  0.66666700  0.00000000  1
  Be  Be0  1  0.87607200  0.26673300  0.25000000  1
  Be  Be1  1  0.87607200  0.60933900  0.75000000  1
  Be  Be2  1  0.39066100  0.26673300  0.75000000  1
  Be  Be3  1  0.73326700  0.12392800  0.75000000  1
  Be  Be4  1  0.73326700  0.60933900  0.25000000  1
  Be  Be5  1  0.39066100  0.12392800  0.25000000  1
  Zn  Zn0  1  0.00000000  0.00000000  0.50000000  1
  Zn  Zn1  1  0.00000000  0.00000000  0.00000000  1
  F  F0  1  0.75412800  0.00803300  0.61958100  1
  F  F1  1  0.25390500  0.24587200  0.61958100  1
  F  F2  1  0.99196700  0.74609500  0.61958100  1
  F  F3  1  0.99196700  0.24587200  0.38041900  1
  F  F4  1  0.90672600  0.51700300  0.25000000  1
  F  F5  1  0.61027700  0.09327400  0.25000000  1
  F  F6  1  0.48299700  0.38972300  0.25000000  1
  F  F7  1  0.48299700  0.09327400  0.75000000  1
  F  F8  1  0.61027700  0.51700300  0.75000000  1
  F  F9  1  0.90672600  0.38972300  0.75000000  1
  F  F10  1  0.99196700  0.24587200  0.11958100  1
  F  F11  1  0.25390500  0.00803300  0.38041900  1
  F  F12  1  0.75412800  0.74609500  0.38041900  1
  F  F13  1  0.75412800  0.74609500  0.11958100  1
  F  F14  1  0.25390500  0.00803300  0.11958100  1
  F  F15  1  0.75412800  0.00803300  0.88041900  1
  F  F16  1  0.25390500  0.24587200  0.88041900  1
  F  F17  1  0.99196700  0.74609500  0.88041900  1
loop_
_geom_bond_atom_site_label_1
_geom_bond_atom_site_label_2
_geom_bond_distance
_geom_bond_site_symmetry_2
Be0 F3 1.545294 1_555
Be0 F10 1.545294 1_555
Be0 F5 1.585935 1_555
Be0 F4 1.604299 1_555
Be1 F2 1.545294 1_555
Be1 F17 1.545294 1_555
Be1 F8 1.585935 1_555
Be1 F9 1.604299 1_555
Be2 F1 1.545294 1_555
Be2 F16 1.545294 1_555
Be2 F7 1.585935 1_555
Be2 F8 1.604299 1_555
Be3 F15 1.545294 1_555
Be3 F0 1.545294 1_555
Be3 F9 1.585935 1_555
Be3 F7 1.604299 1_555
Be4 F12 1.545294 1_555
Be4 F13 1.545294 1_555
Be4 F4 1.585935 1_555
Be4 F6 1.604299 1_555
Be5 F14 1.545294 1_555
Be5 F11 1.545294 1_555
Be5 F6 1.585935 1_555
Be5 F5 1.604299 1_555
F0 Zn0 2.062620 1_655
F0 Rb0 2.877695 1_545
F1 Zn0 2.062620 1_555
F1 Rb0 2.877697 1_555
F2 Zn0 2.062620 1_665
F2 Rb0 2.877691 1_655
F3 Zn0 2.062620 1_655
F3 Rb0 2.877695 1_655
F10 Zn1 2.062620 1_655
F10 Rb1 2.877695 1_655
F11 Zn0 2.062620 1_555
F11 Rb0 2.877691 1_545
F12 Zn0 2.062620 1_665
F12 Rb0 2.877697 1_555
F13 Zn1 2.062620 1_665
F13 Rb1 2.877697 1_555
F14 Zn1 2.062620 1_555
F14 Rb1 2.877691 1_545
F15 Zn1 2.062620 1_656
F15 Rb1 2.877695 1_546
F16 Zn1 2.062620 1_556
F16 Rb1 2.877697 1_556
F17 Zn1 2.062620 1_666
F17 Rb1 2.877691 1_656
