# generated using pymatgen
data_La3Sm(FeO3)4
_symmetry_space_group_name_H-M   'P 1'
_cell_length_a   7.91368500
_cell_length_b   5.55545300
_cell_length_c   5.66910472
_cell_angle_alpha   89.85675799
_cell_angle_beta   90.00000000
_cell_angle_gamma   90.00000000
_symmetry_Int_Tables_number   1
_chemical_formula_structural   La3Sm(FeO3)4
_chemical_formula_sum   'La3 Sm1 Fe4 O12'
_cell_volume   249.23633654
_cell_formula_units_Z   1
loop_
 _symmetry_equiv_pos_site_id
 _symmetry_equiv_pos_as_xyz
  1  'x, y, z'
loop_
 _atom_site_type_symbol
 _atom_site_label
 _atom_site_symmetry_multiplicity
 _atom_site_fract_x
 _atom_site_fract_y
 _atom_site_fract_z
 _atom_site_occupancy
  La  La0  1  0.00000000  0.00812300  0.95557100  1
  La  La1  1  0.50000000  0.50817800  0.54180000  1
  La  La2  1  0.50000000  0.99079500  0.04364000  1
  Sm  Sm0  1  0.00000000  0.49041100  0.44641200  1
  Fe  Fe0  1  0.24845100  0.50046000  0.99860600  1
  Fe  Fe1  1  0.75236500  0.99971000  0.50070700  1
  Fe  Fe2  1  0.75154900  0.50046000  0.99860600  1
  Fe  Fe3  1  0.24763500  0.99971000  0.50070700  1
  O  O0  1  0.20427300  0.20736900  0.20702900  1
  O  O1  1  0.79931200  0.30014800  0.69933800  1
  O  O2  1  0.70712900  0.79802900  0.79828700  1
  O  O3  1  0.29111500  0.70371600  0.29692300  1
  O  O4  1  0.29287100  0.79802900  0.79828700  1
  O  O5  1  0.70888500  0.70371600  0.29692300  1
  O  O6  1  0.79572700  0.20736900  0.20702900  1
  O  O7  1  0.20068800  0.30014800  0.69933800  1
  O  O8  1  0.00000000  0.58154500  0.03138400  1
  O  O9  1  0.00000000  0.90378300  0.52213000  1
  O  O10  1  0.50000000  0.41793300  0.97771500  1
  O  O11  1  0.50000000  0.08037000  0.47956600  1
loop_
_geom_bond_atom_site_label_1
_geom_bond_atom_site_label_2
_geom_bond_distance
_geom_bond_site_symmetry_2
La0 O8 2.407435 1_546
La0 O0 2.424568 1_556
La0 O6 2.424568 1_456
La0 O9 2.526077 1_545
La0 O7 2.693061 1_555
La0 O1 2.693061 1_455
La0 O4 2.744854 1_545
La0 O2 2.744854 1_445
La1 O11 2.403584 1_555
La1 O3 2.415011 1_555
La1 O5 2.415011 1_555
La1 O10 2.520362 1_555
La1 O2 2.721344 1_555
La1 O4 2.721344 1_555
La1 O1 2.781846 1_555
La1 O7 2.781846 1_555
La2 O10 2.401273 1_564
La2 O2 2.403289 1_554
La2 O4 2.403289 1_554
La2 O11 2.522134 1_565
La2 O5 2.706743 1_555
La2 O3 2.706743 1_555
La2 O6 2.790720 1_565
La2 O0 2.790720 1_565
Fe0 O8 2.025750 1_556
Fe0 O4 2.033883 1_555
Fe0 O0 2.039590 1_556
Fe0 O10 2.046290 1_555
Fe0 O3 2.063665 1_556
Fe0 O7 2.066174 1_555
Fe1 O9 2.034422 1_655
Fe1 O5 2.041210 1_555
Fe1 O1 2.049690 1_565
Fe1 O11 2.050231 1_565
Fe1 O6 2.052047 1_565
Fe1 O2 2.054282 1_555
Fe2 O8 2.025750 1_656
Fe2 O2 2.033883 1_555
Fe2 O6 2.039590 1_556
Fe2 O10 2.046290 1_555
Fe2 O5 2.063665 1_556
Fe2 O1 2.066174 1_555
Fe3 O9 2.034422 1_555
Fe3 O3 2.041210 1_555
Fe3 O7 2.049690 1_565
Fe3 O11 2.050231 1_565
Fe3 O0 2.052047 1_565
Fe3 O4 2.054282 1_555
O0 Sm0 2.634031 1_555
O1 Sm0 2.384943 1_655
O3 Sm0 2.724863 1_555
O5 Sm0 2.724863 1_655
O6 Sm0 2.634031 1_655
O7 Sm0 2.384943 1_555
O8 Sm0 2.405456 1_555
O9 Sm0 2.337297 1_555
