# generated using pymatgen
data_RbV3(SeO6)2
_symmetry_space_group_name_H-M   'P 1'
_cell_length_a   7.16851243
_cell_length_b   7.16851243
_cell_length_c   12.09522600
_cell_angle_alpha   90.00000000
_cell_angle_beta   90.00000000
_cell_angle_gamma   120.00000400
_symmetry_Int_Tables_number   1
_chemical_formula_structural   RbV3(SeO6)2
_chemical_formula_sum   'Rb2 V6 Se4 O24'
_cell_volume   538.27311341
_cell_formula_units_Z   2
loop_
 _symmetry_equiv_pos_site_id
 _symmetry_equiv_pos_as_xyz
  1  'x, y, z'
loop_
 _atom_site_type_symbol
 _atom_site_label
 _atom_site_symmetry_multiplicity
 _atom_site_fract_x
 _atom_site_fract_y
 _atom_site_fract_z
 _atom_site_occupancy
  Rb  Rb0  1  0.33333300  0.66666700  0.54151200  1
  Rb  Rb1  1  0.66666700  0.33333300  0.04151200  1
  V  V0  1  0.12654200  0.33294000  0.20834200  1
  V  V1  1  0.20639800  0.87345800  0.20834200  1
  V  V2  1  0.33294000  0.20639800  0.70834200  1
  V  V3  1  0.87345800  0.66706000  0.70834200  1
  V  V4  1  0.66706000  0.79360200  0.20834200  1
  V  V5  1  0.79360200  0.12654200  0.70834200  1
  Se  Se0  1  0.00000000  0.00000000  0.42346300  1
  Se  Se1  1  0.33333300  0.66666700  0.98994900  1
  Se  Se2  1  0.66666700  0.33333300  0.48994900  1
  Se  Se3  1  0.00000000  0.00000000  0.92346300  1
  O  O0  1  0.74921800  0.87520300  0.67810300  1
  O  O1  1  0.87401500  0.74921800  0.17810300  1
  O  O2  1  0.87520300  0.12598500  0.17810300  1
  O  O3  1  0.12479700  0.87401500  0.67810300  1
  O  O4  1  0.12598500  0.25078200  0.67810300  1
  O  O5  1  0.25078200  0.12479700  0.17810300  1
  O  O6  1  0.54134300  0.08283800  0.73233500  1
  O  O7  1  0.45850500  0.54134300  0.23233500  1
  O  O8  1  0.08283800  0.54149500  0.23233500  1
  O  O9  1  0.91716200  0.45850500  0.73233500  1
  O  O10  1  0.54149500  0.45865700  0.73233500  1
  O  O11  1  0.45865700  0.91716200  0.23233500  1
  O  O12  1  0.20086200  0.78824600  0.04953800  1
  O  O13  1  0.41261600  0.20086200  0.54953800  1
  O  O14  1  0.78824600  0.58738400  0.54953800  1
  O  O15  1  0.21175400  0.41261600  0.04953800  1
  O  O16  1  0.58738400  0.79913800  0.04953800  1
  O  O17  1  0.79913800  0.21175400  0.54953800  1
  O  O18  1  0.12292600  0.86881000  0.36227700  1
  O  O19  1  0.25411600  0.12292600  0.86227700  1
  O  O20  1  0.86881000  0.74588400  0.86227700  1
  O  O21  1  0.13119000  0.25411600  0.36227700  1
  O  O22  1  0.74588400  0.87707400  0.36227700  1
  O  O23  1  0.87707400  0.13119000  0.86227700  1
loop_
_geom_bond_atom_site_label_1
_geom_bond_atom_site_label_2
_geom_bond_distance
_geom_bond_site_symmetry_2
O0 V5 1.705277 1_565
O0 V3 2.117103 1_555
O0 Rb0 3.065201 1_555
O1 V4 1.705277 1_555
O1 V1 2.117103 1_655
O1 Rb1 3.065201 1_555
O2 V0 1.705277 1_655
O2 V4 2.117103 1_545
O2 Rb1 3.065196 1_555
O3 V3 1.705277 1_455
O3 V2 2.117103 1_565
O3 Rb0 3.065196 1_555
O4 V2 1.705277 1_555
O4 V5 2.117103 1_455
O4 Rb0 3.065201 1_555
O5 V1 1.705277 1_545
O5 V0 2.117103 1_555
O5 Rb1 3.065201 1_555
O6 V5 1.698783 1_555
O6 V2 2.103296 1_555
O7 V4 1.698783 1_555
O7 V0 2.103296 1_555
O8 V0 1.698783 1_555
O8 V1 2.103296 1_555
O9 V3 1.698783 1_555
O9 V5 2.103296 1_555
O10 V2 1.698783 1_555
O10 V3 2.103296 1_555
O11 V1 1.698783 1_555
O11 V4 2.103296 1_555
O12 Se1 1.734492 1_554
O12 V1 2.009931 1_555
O13 Se2 1.734498 1_555
O13 V2 2.009931 1_555
O14 Se2 1.734498 1_555
O14 V3 2.009931 1_555
O15 Se1 1.734498 1_554
O15 V0 2.009931 1_555
O16 Se1 1.734498 1_554
O16 V4 2.009931 1_555
O17 Se2 1.734492 1_555
O17 V5 2.009931 1_555
O18 Se0 1.742793 1_565
O18 V1 1.950849 1_555
O18 Rb0 3.355614 1_555
O19 Se3 1.742793 1_555
O19 V2 1.950849 1_555
O19 Rb1 3.355618 1_556
O20 Se3 1.742793 1_665
O20 V3 1.950849 1_555
O20 Rb1 3.355618 1_556
O21 Se0 1.742793 1_555
O21 V0 1.950849 1_555
O21 Rb0 3.355618 1_555
O22 Se0 1.742793 1_665
O22 V4 1.950849 1_555
O22 Rb0 3.355618 1_555
O23 Se3 1.742793 1_655
O23 V5 1.950849 1_555
O23 Rb1 3.355614 1_556
