# generated using pymatgen
data_Mg14MnCO16
_symmetry_space_group_name_H-M   'P 1'
_cell_length_a   4.24829000
_cell_length_b   8.53959700
_cell_length_c   8.54168900
_cell_angle_alpha   90.00000000
_cell_angle_beta   90.00000000
_cell_angle_gamma   90.00000000
_symmetry_Int_Tables_number   1
_chemical_formula_structural   Mg14MnCO16
_chemical_formula_sum   'Mg14 Mn1 C1 O16'
_cell_volume   309.88124066
_cell_formula_units_Z   1
loop_
 _symmetry_equiv_pos_site_id
 _symmetry_equiv_pos_as_xyz
  1  'x, y, z'
loop_
 _atom_site_type_symbol
 _atom_site_label
 _atom_site_symmetry_multiplicity
 _atom_site_fract_x
 _atom_site_fract_y
 _atom_site_fract_z
 _atom_site_occupancy
  Mg  Mg0  1  0.00000000  0.00000000  0.50000000  1
  Mg  Mg1  1  0.00000000  0.50000000  0.50000000  1
  Mg  Mg2  1  0.50000000  0.74476100  0.00000000  1
  Mg  Mg3  1  0.50000000  0.25523900  0.00000000  1
  Mg  Mg4  1  0.50000000  0.74883300  0.50000000  1
  Mg  Mg5  1  0.50000000  0.25116700  0.50000000  1
  Mg  Mg6  1  0.50000000  0.00000000  0.74781100  1
  Mg  Mg7  1  0.50000000  0.50000000  0.75385200  1
  Mg  Mg8  1  0.50000000  0.00000000  0.25218900  1
  Mg  Mg9  1  0.50000000  0.50000000  0.24614800  1
  Mg  Mg10  1  0.00000000  0.74693000  0.75133300  1
  Mg  Mg11  1  0.00000000  0.25307000  0.75133300  1
  Mg  Mg12  1  0.00000000  0.74693000  0.24866700  1
  Mg  Mg13  1  0.00000000  0.25307000  0.24866700  1
  Mn  Mn0  1  0.00000000  0.00000000  0.00000000  1
  C  C0  1  0.00000000  0.50000000  0.00000000  1
  O  O0  1  0.00000000  0.00000000  0.74299000  1
  O  O1  1  0.00000000  0.50000000  0.74866000  1
  O  O2  1  0.00000000  0.00000000  0.25701000  1
  O  O3  1  0.00000000  0.50000000  0.25134000  1
  O  O4  1  0.50000000  0.74948600  0.75156500  1
  O  O5  1  0.50000000  0.25051400  0.75156500  1
  O  O6  1  0.50000000  0.74948600  0.24843500  1
  O  O7  1  0.50000000  0.25051400  0.24843500  1
  O  O8  1  0.50000000  0.00000000  0.00000000  1
  O  O9  1  0.50000000  0.50000000  0.00000000  1
  O  O10  1  0.50000000  0.00000000  0.50000000  1
  O  O11  1  0.50000000  0.50000000  0.50000000  1
  O  O12  1  0.00000000  0.74672300  0.00000000  1
  O  O13  1  0.00000000  0.25327700  0.00000000  1
  O  O14  1  0.00000000  0.74773300  0.50000000  1
  O  O15  1  0.00000000  0.25226700  0.50000000  1
loop_
_geom_bond_atom_site_label_1
_geom_bond_atom_site_label_2
_geom_bond_distance
_geom_bond_site_symmetry_2
Mg0 O2 2.075545 1_555
Mg0 O0 2.075545 1_555
Mg0 O10 2.124145 1_555
Mg0 O10 2.124145 1_455
Mg0 O15 2.154259 1_555
Mg0 O14 2.154259 1_545
Mg1 O14 2.115540 1_555
Mg1 O15 2.115540 1_555
Mg1 O1 2.123976 1_555
Mg1 O3 2.123976 1_555
Mg1 O11 2.124145 1_455
Mg1 O11 2.124145 1_555
Mg2 O9 2.090160 1_555
Mg2 O4 2.122438 1_554
Mg2 O6 2.122438 1_555
Mg2 O12 2.124211 1_655
Mg2 O12 2.124211 1_555
Mg2 O8 2.179638 1_565
Mg3 O9 2.090160 1_555
Mg3 O5 2.122438 1_554
Mg3 O7 2.122438 1_555
Mg3 O13 2.124211 1_655
Mg3 O13 2.124211 1_555
Mg3 O8 2.179638 1_555
Mg4 O14 2.124166 1_555
Mg4 O14 2.124166 1_655
Mg4 O11 2.124934 1_555
Mg4 O10 2.144865 1_565
Mg4 O6 2.148797 1_555
Mg4 O4 2.148797 1_555
Mg5 O15 2.124166 1_655
Mg5 O15 2.124166 1_555
Mg5 O11 2.124934 1_555
Mg5 O10 2.144865 1_555
Mg5 O5 2.148797 1_555
Mg5 O7 2.148797 1_555
Mg6 O10 2.116724 1_555
Mg6 O0 2.124544 1_655
Mg6 O0 2.124544 1_555
Mg6 O5 2.139529 1_555
Mg6 O4 2.139529 1_545
Mg6 O8 2.154120 1_556
Mg7 O9 2.102520 1_556
Mg7 O1 2.124608 1_555
Mg7 O1 2.124608 1_655
Mg7 O4 2.130599 1_555
Mg7 O5 2.130599 1_555
Mg7 O11 2.168325 1_555
Mg8 O10 2.116724 1_555
Mg8 O2 2.124544 1_555
Mg8 O2 2.124544 1_655
Mg8 O7 2.139529 1_555
Mg8 O6 2.139529 1_545
Mg8 O8 2.154120 1_555
Mg9 O9 2.102520 1_555
Mg9 O3 2.124608 1_655
Mg9 O3 2.124608 1_555
Mg9 O6 2.130599 1_555
Mg9 O7 2.130599 1_555
Mg9 O11 2.168325 1_555
Mg10 O1 2.108806 1_555
Mg10 O12 2.124037 1_556
Mg10 O4 2.124258 1_555
Mg10 O4 2.124258 1_455
Mg10 O14 2.146819 1_555
Mg10 O0 2.162290 1_565
Mg11 O1 2.108806 1_555
Mg11 O13 2.124037 1_556
Mg11 O5 2.124258 1_555
Mg11 O5 2.124258 1_455
Mg11 O15 2.146819 1_555
Mg11 O0 2.162290 1_555
Mg12 O3 2.108806 1_555
Mg12 O12 2.124037 1_555
Mg12 O6 2.124258 1_455
Mg12 O6 2.124258 1_555
Mg12 O14 2.146819 1_555
Mg12 O2 2.162290 1_565
Mg13 O3 2.108806 1_555
Mg13 O13 2.124037 1_555
Mg13 O7 2.124258 1_455
Mg13 O7 2.124258 1_555
Mg13 O15 2.146819 1_555
Mg13 O2 2.162290 1_555
Mn0 O8 2.124145 1_455
Mn0 O8 2.124145 1_555
Mn0 O12 2.162884 1_545
Mn0 O13 2.162884 1_555
Mn0 O0 2.195299 1_554
Mn0 O2 2.195299 1_555
C0 O12 2.106915 1_555
C0 O13 2.106915 1_555
C0 O9 2.124145 1_455
C0 O9 2.124145 1_555
C0 O1 2.146868 1_554
C0 O3 2.146868 1_555
