# generated using pymatgen
data_Mg14CdMo
_symmetry_space_group_name_H-M   'P 1'
_cell_length_a   6.29615951
_cell_length_b   6.31895058
_cell_length_c   9.94344829
_cell_angle_alpha   90.00000000
_cell_angle_beta   90.00000000
_cell_angle_gamma   120.11982094
_symmetry_Int_Tables_number   1
_chemical_formula_structural   Mg14CdMo
_chemical_formula_sum   'Mg14 Cd1 Mo1'
_cell_volume   342.18636430
_cell_formula_units_Z   1
loop_
 _symmetry_equiv_pos_site_id
 _symmetry_equiv_pos_as_xyz
  1  'x, y, z'
loop_
 _atom_site_type_symbol
 _atom_site_label
 _atom_site_symmetry_multiplicity
 _atom_site_fract_x
 _atom_site_fract_y
 _atom_site_fract_z
 _atom_site_occupancy
  Mg  Mg0  1  0.16690988  0.33345444  0.62500000  1
  Mg  Mg1  1  0.16870723  0.83435312  0.62500000  1
  Mg  Mg2  1  0.66757853  0.33193477  0.12500000  1
  Mg  Mg3  1  0.66585135  0.33140661  0.62500000  1
  Mg  Mg4  1  0.66757853  0.83564276  0.12500000  1
  Mg  Mg5  1  0.66585135  0.83444374  0.62500000  1
  Mg  Mg6  1  0.32749245  0.17147083  0.36522216  1
  Mg  Mg7  1  0.32749245  0.17147083  0.88477784  1
  Mg  Mg8  1  0.32749245  0.65602262  0.36522216  1
  Mg  Mg9  1  0.32749245  0.65602262  0.88477784  1
  Mg  Mg10  1  0.84429694  0.17214897  0.36783480  1
  Mg  Mg11  1  0.84429694  0.17214897  0.88216520  1
  Mg  Mg12  1  0.83387996  0.66694048  0.37424972  1
  Mg  Mg13  1  0.83387996  0.66694048  0.87575028  1
  Cd  Cd0  1  0.16598555  0.83299227  0.12500000  1
  Mo  Mo0  1  0.16521398  0.33260649  0.12500000  1
loop_
_geom_bond_atom_site_label_1
_geom_bond_atom_site_label_2
_geom_bond_distance
_geom_bond_site_symmetry_2
Mg0 Mg11 3.102535 1_455
Mg0 Mg10 3.102535 1_455
Mg0 Mg6 3.127441 1_555
Mg0 Mg7 3.127441 1_555
Mg0 Mg8 3.127447 1_555
Mg0 Mg9 3.127447 1_555
Mg0 Mg5 3.147928 1_555
Mg0 Mg3 3.147928 1_555
Mg0 Mg5 3.148271 1_445
Mg0 Mg3 3.148271 1_455
Mg0 Mg1 3.159490 1_545
Mg0 Mg1 3.159490 1_555
Mg1 Mg12 3.088971 1_455
Mg1 Mg13 3.088971 1_455
Mg1 Mg3 3.129811 1_565
Mg1 Mg5 3.129811 1_555
Mg1 Mg3 3.166348 1_455
Mg1 Mg5 3.166348 1_455
Mg1 Mg8 3.173685 1_555
Mg1 Mg9 3.173685 1_555
Mg1 Mg6 3.173691 1_565
Mg1 Mg7 3.173691 1_565
Mg2 Mg7 3.023178 1_554
Mg2 Mg6 3.023178 1_555
Mg2 Mo0 3.131064 1_655
Mg2 Mg4 3.136045 1_545
Mg2 Mo0 3.165099 1_555
Mg2 Mg4 3.182906 1_555
Mg3 Mg5 3.140284 1_545
Mg3 Mg6 3.173540 1_555
Mg3 Mg7 3.173540 1_555
Mg3 Mg5 3.178667 1_555
Mg4 Mg9 3.023178 1_554
Mg4 Mg8 3.023178 1_555
Mg4 Mo0 3.131064 1_665
Mg4 Mo0 3.165099 1_555
Mg5 Mg8 3.173539 1_555
Mg5 Mg9 3.173539 1_555
Mg6 Mo0 2.971594 1_555
Mg7 Mo0 2.971594 1_556
Mg8 Mo0 2.971600 1_555
Mg9 Mo0 2.971600 1_556
Mg10 Mo0 2.980757 1_655
Mg10 Mg2 3.035669 1_555
Mg10 Mg4 3.035675 1_545
Mg10 Mg3 3.154135 1_555
Mg10 Mg5 3.154141 1_545
Mg10 Mg12 3.160628 1_545
Mg10 Mg12 3.160628 1_555
Mg11 Mo0 2.980757 1_656
Mg11 Mg2 3.035669 1_556
Mg11 Mg4 3.035675 1_546
Mg11 Mg3 3.154135 1_555
Mg11 Mg5 3.154141 1_545
Mg11 Mg13 3.160628 1_545
Mg11 Mg13 3.160628 1_555
Mg12 Mg4 3.081467 1_555
Mg12 Mg2 3.081474 1_555
Mg12 Mg5 3.095159 1_555
Mg12 Mg3 3.095165 1_555
Mg12 Mg6 3.144330 1_665
Mg12 Mg8 3.144331 1_655
Mg12 Mg6 3.155518 1_555
Mg12 Mg8 3.155519 1_555
Mg13 Mg4 3.081467 1_556
Mg13 Mg2 3.081474 1_556
Mg13 Mg5 3.095159 1_555
Mg13 Mg3 3.095165 1_555
Mg13 Mg7 3.144330 1_665
Mg13 Mg9 3.144331 1_655
Mg13 Mg7 3.155518 1_555
Mg13 Mg9 3.155519 1_555
Cd0 Mg9 3.021816 1_554
Cd0 Mg8 3.021816 1_555
Cd0 Mg7 3.021823 1_564
Cd0 Mg6 3.021823 1_565
Cd0 Mg13 3.068180 1_454
Cd0 Mg12 3.068180 1_455
Cd0 Mg2 3.146488 1_455
Cd0 Mg4 3.146488 1_455
Cd0 Mg2 3.149738 1_565
Cd0 Mg4 3.149738 1_555
Cd0 Mo0 3.159478 1_555
Cd0 Mo0 3.159478 1_565
