# generated using pymatgen
data_Zr2U
_symmetry_space_group_name_H-M   'P 1'
_cell_length_a   5.98307800
_cell_length_b   10.52037078
_cell_length_c   10.52037078
_cell_angle_alpha   119.99999232
_cell_angle_beta   90.00000000
_cell_angle_gamma   90.00000000
_symmetry_Int_Tables_number   1
_chemical_formula_structural   Zr2U
_chemical_formula_sum   'Zr16 U8'
_cell_volume   573.47887241
_cell_formula_units_Z   8
loop_
 _symmetry_equiv_pos_site_id
 _symmetry_equiv_pos_as_xyz
  1  'x, y, z'
loop_
 _atom_site_type_symbol
 _atom_site_label
 _atom_site_symmetry_multiplicity
 _atom_site_fract_x
 _atom_site_fract_y
 _atom_site_fract_z
 _atom_site_occupancy
  Zr  Zr0_0  1  0.25000000  0.33333350  0.16666650  1
  Zr  Zr0_1  1  0.25000000  0.33333350  0.66666650  1
  Zr  Zr0_2  1  0.25000000  0.83333350  0.16666650  1
  Zr  Zr0_3  1  0.25000000  0.83333350  0.66666650  1
  Zr  Zr0_4  1  0.75000000  0.33333350  0.16666650  1
  Zr  Zr0_5  1  0.75000000  0.33333350  0.66666650  1
  Zr  Zr0_6  1  0.75000000  0.83333350  0.16666650  1
  Zr  Zr0_7  1  0.75000000  0.83333350  0.66666650  1
  Zr  Zr1_0  1  0.25000000  0.16666650  0.33333350  1
  Zr  Zr1_1  1  0.25000000  0.16666650  0.83333350  1
  Zr  Zr1_2  1  0.25000000  0.66666650  0.33333350  1
  Zr  Zr1_3  1  0.25000000  0.66666650  0.83333350  1
  Zr  Zr1_4  1  0.75000000  0.16666650  0.33333350  1
  Zr  Zr1_5  1  0.75000000  0.16666650  0.83333350  1
  Zr  Zr1_6  1  0.75000000  0.66666650  0.33333350  1
  Zr  Zr1_7  1  0.75000000  0.66666650  0.83333350  1
  U  U0_0  1  0.00000000  0.00000000  0.00000000  1
  U  U0_1  1  0.00000000  0.00000000  0.50000000  1
  U  U0_2  1  0.00000000  0.50000000  0.00000000  1
  U  U0_3  1  0.00000000  0.50000000  0.50000000  1
  U  U0_4  1  0.50000000  0.00000000  0.00000000  1
  U  U0_5  1  0.50000000  0.00000000  0.50000000  1
  U  U0_6  1  0.50000000  0.50000000  0.00000000  1
  U  U0_7  1  0.50000000  0.50000000  0.50000000  1
loop_
_geom_bond_atom_site_label_1
_geom_bond_atom_site_label_2
_geom_bond_distance
_geom_bond_site_symmetry_2
Zr0_0 Zr0_4 2.991539 1_455
Zr0_0 Zr0_4 2.991539 1_555
Zr0_0 Zr1_1 3.036967 1_554
Zr0_0 Zr1_2 3.036967 1_555
Zr0_0 Zr1_0 3.036975 1_555
Zr0_1 Zr0_5 2.991539 1_555
Zr0_1 Zr0_5 2.991539 1_455
Zr0_1 Zr1_0 3.036967 1_555
Zr0_1 Zr1_3 3.036967 1_555
Zr0_1 Zr1_1 3.036975 1_555
Zr0_2 Zr0_6 2.991539 1_455
Zr0_2 Zr0_6 2.991539 1_555
Zr0_2 Zr1_0 3.036967 1_565
Zr0_2 Zr1_3 3.036967 1_554
Zr0_2 Zr1_2 3.036975 1_555
Zr0_3 Zr0_7 2.991539 1_555
Zr0_3 Zr0_7 2.991539 1_455
Zr0_3 Zr1_2 3.036967 1_555
Zr0_3 Zr1_1 3.036967 1_565
Zr0_3 Zr1_3 3.036975 1_555
Zr0_4 Zr1_5 3.036967 1_554
Zr0_4 Zr1_6 3.036967 1_555
Zr0_4 Zr1_4 3.036975 1_555
Zr0_5 Zr1_4 3.036967 1_555
Zr0_5 Zr1_7 3.036967 1_555
Zr0_5 Zr1_5 3.036975 1_555
Zr0_6 Zr1_4 3.036967 1_565
Zr0_6 Zr1_7 3.036967 1_554
Zr0_6 Zr1_6 3.036975 1_555
Zr0_7 Zr1_6 3.036967 1_555
Zr0_7 Zr1_5 3.036967 1_565
Zr0_7 Zr1_7 3.036975 1_555
Zr1_0 Zr1_4 2.991539 1_455
Zr1_0 Zr1_4 2.991539 1_555
Zr1_1 Zr1_5 2.991539 1_455
Zr1_1 Zr1_5 2.991539 1_555
Zr1_2 Zr1_6 2.991539 1_555
Zr1_2 Zr1_6 2.991539 1_455
Zr1_3 Zr1_7 2.991539 1_555
Zr1_3 Zr1_7 2.991539 1_455
U0_0 U0_4 2.991539 1_555
U0_0 U0_4 2.991539 1_455
U0_0 Zr1_1 3.385335 1_554
U0_0 Zr0_6 3.385335 1_445
U0_0 Zr1_5 3.385335 1_454
U0_0 Zr0_2 3.385335 1_545
U0_0 Zr1_4 3.385339 1_455
U0_0 Zr1_0 3.385339 1_555
U0_0 Zr0_0 3.385339 1_555
U0_0 Zr0_4 3.385339 1_455
U0_0 Zr1_3 3.385339 1_544
U0_0 Zr1_7 3.385339 1_444
U0_0 Zr0_3 3.385339 1_544
U0_0 Zr0_7 3.385339 1_444
U0_1 U0_5 2.991539 1_555
U0_1 U0_5 2.991539 1_455
U0_1 Zr0_3 3.385335 1_545
U0_1 Zr0_7 3.385335 1_445
U0_1 Zr1_0 3.385335 1_555
U0_1 Zr1_4 3.385335 1_455
U0_1 Zr1_2 3.385339 1_545
U0_1 Zr1_6 3.385339 1_445
U0_1 Zr0_1 3.385339 1_555
U0_1 Zr0_5 3.385339 1_455
U0_1 Zr0_6 3.385339 1_445
U0_1 Zr1_1 3.385339 1_555
U0_1 Zr0_2 3.385339 1_545
U0_1 Zr1_5 3.385339 1_455
U0_2 U0_6 2.991539 1_555
U0_2 U0_6 2.991539 1_455
U0_2 Zr0_0 3.385335 1_555
U0_2 Zr0_4 3.385335 1_455
U0_2 Zr1_7 3.385335 1_454
U0_2 Zr1_3 3.385335 1_554
U0_2 Zr1_2 3.385339 1_555
U0_2 Zr0_2 3.385339 1_555
U0_2 Zr1_6 3.385339 1_455
U0_2 Zr0_1 3.385339 1_554
U0_2 Zr0_5 3.385339 1_454
U0_2 Zr1_5 3.385339 1_454
U0_2 Zr0_6 3.385339 1_455
U0_2 Zr1_1 3.385339 1_554
U0_3 U0_7 2.991539 1_555
U0_3 U0_7 2.991539 1_455
U0_3 Zr0_5 3.385335 1_455
U0_3 Zr0_1 3.385335 1_555
U0_3 Zr1_2 3.385335 1_555
U0_3 Zr1_6 3.385335 1_455
U0_3 Zr1_3 3.385339 1_555
U0_3 Zr1_7 3.385339 1_455
U0_3 Zr0_7 3.385339 1_455
U0_3 Zr0_3 3.385339 1_555
U0_3 Zr0_4 3.385339 1_455
U0_3 Zr1_4 3.385339 1_455
U0_3 Zr0_0 3.385339 1_555
U0_3 Zr1_0 3.385339 1_555
U0_4 Zr1_5 3.385335 1_554
U0_4 Zr0_2 3.385335 1_545
U0_4 Zr1_1 3.385335 1_554
U0_4 Zr0_6 3.385335 1_545
U0_4 Zr0_4 3.385339 1_555
U0_4 Zr1_0 3.385339 1_555
U0_4 Zr0_0 3.385339 1_555
U0_4 Zr1_4 3.385339 1_555
U0_4 Zr1_3 3.385339 1_544
U0_4 Zr1_7 3.385339 1_544
U0_4 Zr0_3 3.385339 1_544
U0_4 Zr0_7 3.385339 1_544
U0_5 Zr0_3 3.385335 1_545
U0_5 Zr0_7 3.385335 1_545
U0_5 Zr1_0 3.385335 1_555
U0_5 Zr1_4 3.385335 1_555
U0_5 Zr1_2 3.385339 1_545
U0_5 Zr1_6 3.385339 1_545
U0_5 Zr0_5 3.385339 1_555
U0_5 Zr0_1 3.385339 1_555
U0_5 Zr0_6 3.385339 1_545
U0_5 Zr1_1 3.385339 1_555
U0_5 Zr0_2 3.385339 1_545
U0_5 Zr1_5 3.385339 1_555
U0_6 Zr0_0 3.385335 1_555
U0_6 Zr0_4 3.385335 1_555
U0_6 Zr1_3 3.385335 1_554
U0_6 Zr1_7 3.385335 1_554
U0_6 Zr1_2 3.385339 1_555
U0_6 Zr0_2 3.385339 1_555
U0_6 Zr0_1 3.385339 1_554
U0_6 Zr0_5 3.385339 1_554
U0_6 Zr1_6 3.385339 1_555
U0_6 Zr0_6 3.385339 1_555
U0_6 Zr1_1 3.385339 1_554
U0_6 Zr1_5 3.385339 1_554
U0_7 Zr0_5 3.385335 1_555
U0_7 Zr0_1 3.385335 1_555
U0_7 Zr1_2 3.385335 1_555
U0_7 Zr1_6 3.385335 1_555
U0_7 Zr1_7 3.385339 1_555
U0_7 Zr1_3 3.385339 1_555
U0_7 Zr0_7 3.385339 1_555
U0_7 Zr0_3 3.385339 1_555
U0_7 Zr0_4 3.385339 1_555
U0_7 Zr0_0 3.385339 1_555
U0_7 Zr1_0 3.385339 1_555
U0_7 Zr1_4 3.385339 1_555
