# generated using pymatgen
data_Li5Cr(SiO3)4
_symmetry_space_group_name_H-M   'P 1'
_cell_length_a   12.77519698
_cell_length_b   12.77492510
_cell_length_c   12.77524072
_cell_angle_alpha   111.02941400
_cell_angle_beta   111.02776917
_cell_angle_gamma   111.02418756
_symmetry_Int_Tables_number   1
_chemical_formula_structural   Li5Cr(SiO3)4
_chemical_formula_sum   'Li30 Cr6 Si24 O72'
_cell_volume   1505.46591722
_cell_formula_units_Z   6
loop_
 _symmetry_equiv_pos_site_id
 _symmetry_equiv_pos_as_xyz
  1  'x, y, z'
loop_
 _atom_site_type_symbol
 _atom_site_label
 _atom_site_symmetry_multiplicity
 _atom_site_fract_x
 _atom_site_fract_y
 _atom_site_fract_z
 _atom_site_occupancy
  Li  Li0  1  0.01923279  0.81680300  0.82943628  1
  Li  Li1  1  0.18321007  0.98073632  0.17055111  1
  Li  Li2  1  0.18091725  0.66548938  0.23252583  1
  Li  Li3  1  0.33452945  0.81936677  0.76783758  1
  Li  Li4  1  0.18422264  0.57955156  0.72324792  1
  Li  Li5  1  0.42049995  0.81577870  0.27662243  1
  Li  Li6  1  0.47084261  0.63860662  0.62782128  1
  Li  Li7  1  0.36153444  0.52915433  0.37228059  1
  Li  Li8  1  0.27660690  0.42044756  0.81584273  1
  Li  Li9  1  0.57951843  0.72337441  0.18418188  1
  Li  Li10  1  0.76625791  0.76616563  0.76606242  1
  Li  Li11  1  0.99994150  0.99996557  0.99994681  1
  Li  Li12  1  0.23344916  0.23360582  0.23367587  1
  Li  Li13  1  0.17048994  0.18323953  0.98070206  1
  Li  Li14  1  0.81677820  0.82946139  0.01919588  1
  Li  Li15  1  0.37249281  0.36170269  0.52924319  1
  Li  Li16  1  0.63808537  0.62732517  0.47071920  1
  Li  Li17  1  0.81890140  0.76749596  0.33498643  1
  Li  Li18  1  0.23238574  0.18095312  0.66502384  1
  Li  Li19  1  0.52908458  0.37198900  0.36118354  1
  Li  Li20  1  0.62753982  0.47076120  0.63832708  1
  Li  Li21  1  0.99988364  0.70552628  0.29446390  1
  Li  Li22  1  0.29452037  0.00014198  0.70554536  1
  Li  Li23  1  0.70546499  0.29443515  0.99983040  1
  Li  Li24  1  0.76780603  0.33496989  0.81917777  1
  Li  Li25  1  0.66556709  0.23231972  0.18073984  1
  Li  Li26  1  0.72323570  0.18416368  0.57960376  1
  Li  Li27  1  0.81574707  0.27669726  0.42045037  1
  Li  Li28  1  0.82951447  0.01927851  0.81681471  1
  Li  Li29  1  0.98065481  0.17051522  0.18319825  1
  Cr  Cr0  1  0.24206632  0.75801218  -0.00003390  1
  Cr  Cr1  1  0.25458350  0.74541961  0.50007628  1
  Cr  Cr2  1  -0.00002981  0.24203189  0.75797564  1
  Cr  Cr3  1  0.74548263  0.50002311  0.25459961  1
  Cr  Cr4  1  0.49999193  0.25453197  0.74539794  1
  Cr  Cr5  1  0.75795441  -0.00001792  0.24195292  1
  Si  Si0  1  0.02288846  0.75602585  0.56519525  1
  Si  Si1  1  0.24399701  0.97712218  0.43481810  1
  Si  Si2  1  0.19394124  0.46662101  0.47841631  1
  Si  Si3  1  0.53328357  0.80605290  0.52152529  1
  Si  Si4  1  0.70037964  0.97295461  0.96154826  1
  Si  Si5  1  0.02697016  0.29963566  0.03842700  1
  Si  Si6  1  0.47996307  0.74918353  0.93890762  1
  Si  Si7  1  0.25076811  0.52003291  0.06106876  1
  Si  Si8  1  0.74917984  0.93901171  0.48000176  1
  Si  Si9  1  0.06098925  0.25079519  0.52001354  1
  Si  Si10  1  0.46684373  0.47864311  0.19392027  1
  Si  Si11  1  0.52143284  0.53323226  0.80607531  1
  Si  Si12  1  0.97299290  0.96160566  0.70034187  1
  Si  Si13  1  0.03839957  0.02698798  0.29962483  1
  Si  Si14  1  0.43494698  0.24402852  0.97716970  1
  Si  Si15  1  0.75603666  0.56512280  0.02283362  1
  Si  Si16  1  0.29959556  0.03847635  0.02704153  1
  Si  Si17  1  0.96160887  0.70041756  0.97294480  1
  Si  Si18  1  0.80606314  0.52162939  0.53339560  1
  Si  Si19  1  0.47852365  0.19391672  0.46670026  1
  Si  Si20  1  0.52004414  0.06108543  0.25078675  1
  Si  Si21  1  0.93896256  0.47997141  0.74915803  1
  Si  Si22  1  0.56510658  0.02286218  0.75600808  1
  Si  Si23  1  0.97713790  0.43488243  0.24405332  1
  O  O0  1  0.06399986  0.91091136  0.66006082  1
  O  O1  1  0.08912654  0.93601342  0.33992912  1
  O  O2  1  0.21837337  0.87490080  0.93527180  1
  O  O3  1  0.12519819  0.78171366  0.06470157  1
  O  O4  1  0.22155256  0.83398077  0.40106709  1
  O  O5  1  0.16606084  0.77846709  0.59907062  1
  O  O6  1  0.08519450  0.59261015  0.31066206  1
  O  O7  1  0.40740487  0.91479353  0.68946599  1
  O  O8  1  0.41204575  0.90554716  0.18564908  1
  O  O9  1  0.09450147  0.58803985  0.81428650  1
  O  O10  1  0.25657816  0.65800885  0.10086912  1
  O  O11  1  0.34204210  0.74345716  0.89911958  1
  O  O12  1  0.27159184  0.63068809  0.57390643  1
  O  O13  1  0.36920602  0.72838600  0.42604789  1
  O  O14  1  0.61699580  0.95411616  0.66701463  1
  O  O15  1  0.04589105  0.38288097  0.33288880  1
  O  O16  1  0.17037936  0.44968788  0.11824214  1
  O  O17  1  0.55034404  0.82957404  0.88177003  1
  O  O18  1  0.15244864  0.41277330  0.56872182  1
  O  O19  1  0.58717169  0.84753002  0.43123520  1
  O  O20  1  0.18566699  0.41202406  0.90560487  1
  O  O21  1  0.58795347  0.81431603  0.09441888  1
  O  O22  1  0.74331064  0.89921805  0.34199294  1
  O  O23  1  0.10077938  0.25665261  0.65797786  1
  O  O24  1  0.41280995  0.56882654  0.15241454  1
  O  O25  1  0.43117153  0.58715090  0.84759239  1
  O  O26  1  0.78870555  0.93222628  0.91335546  1
  O  O27  1  0.06769414  0.21131142  0.08664611  1
  O  O28  1  0.29115247  0.43117609  0.44451791  1
  O  O29  1  0.56868703  0.70882126  0.55540672  1
  O  O30  1  0.11810558  0.17023822  0.44975722  1
  O  O31  1  0.82973927  0.88185793  0.55019115  1
  O  O32  1  0.06471036  0.12516950  0.78167889  1
  O  O33  1  0.87482389  0.93525831  0.21828088  1
  O  O34  1  0.43171735  0.44497976  0.29139142  1
  O  O35  1  0.55515655  0.56854632  0.70872144  1
  O  O36  1  0.93217426  0.91335840  0.78860024  1
  O  O37  1  0.08664922  0.06779881  0.21136866  1
  O  O38  1  0.63088289  0.57416836  0.27138295  1
  O  O39  1  0.42595473  0.36916401  0.72842036  1
  O  O40  1  0.66697383  0.61698720  0.95413468  1
  O  O41  1  0.38306690  0.33304647  0.04591707  1
  O  O42  1  0.21124902  0.08666210  0.06772032  1
  O  O43  1  0.91336490  0.78868709  0.93215973  1
  O  O44  1  0.70893191  0.55557173  0.56896450  1
  O  O45  1  0.44485152  0.29131679  0.43143223  1
  O  O46  1  0.40105826  0.22143577  0.83395442  1
  O  O47  1  0.77871768  0.59892059  0.16605719  1
  O  O48  1  0.91483711  0.68944155  0.40750100  1
  O  O49  1  0.31057360  0.08519213  0.59251444  1
  O  O50  1  0.34004724  0.08919980  0.93613406  1
  O  O51  1  0.91085875  0.66008098  0.06388606  1
  O  O52  1  0.68943084  0.40742369  0.91470679  1
  O  O53  1  0.59266246  0.31060206  0.08521469  1
  O  O54  1  0.95414303  0.66711021  0.61713130  1
  O  O55  1  0.33293492  0.04589372  0.38289588  1
  O  O56  1  0.72828484  0.42619568  0.36929392  1
  O  O57  1  0.57397505  0.27147151  0.63074817  1
  O  O58  1  0.44959325  0.11822623  0.17045243  1
  O  O59  1  0.88184865  0.55029703  0.82966014  1
  O  O60  1  0.84754292  0.43126236  0.58715331  1
  O  O61  1  0.56877585  0.15236623  0.41279846  1
  O  O62  1  0.59893934  0.16602324  0.77853663  1
  O  O63  1  0.83400951  0.40099056  0.22169510  1
  O  O64  1  0.89916106  0.34205450  0.74335841  1
  O  O65  1  0.65793624  0.10087729  0.25650067  1
  O  O66  1  0.65998718  0.06390712  0.91085153  1
  O  O67  1  0.93603167  0.34006195  0.08916389  1
  O  O68  1  0.78161627  0.06471487  0.12512251  1
  O  O69  1  0.93526351  0.21839029  0.87487823  1
  O  O70  1  0.81426537  0.09443860  0.58804857  1
  O  O71  1  0.90549586  0.18568593  0.41193185  1
loop_
_geom_bond_atom_site_label_1
_geom_bond_atom_site_label_2
_geom_bond_distance
_geom_bond_site_symmetry_2
Li0 O36 2.015048 1_455
Li0 O2 2.075490 1_555
Li0 O43 2.223478 1_455
Li0 O54 2.285333 1_455
Li1 O37 2.015070 1_565
Li1 O3 2.074468 1_555
Li1 O42 2.225073 1_565
Li1 O55 2.285572 1_565
Li2 O6 2.021076 1_555
Li2 O4 2.146753 1_555
Li2 O10 2.211329 1_555
Li2 O13 2.337450 1_555
Li2 O16 2.540446 1_555
Li3 O7 2.021357 1_555
Li3 O5 2.146659 1_555
Li3 O11 2.209298 1_555
Li3 O12 2.342733 1_555
Li3 O17 2.542232 1_555
Li4 O9 1.906187 1_555
Li4 O11 1.959848 1_555
Li4 O18 2.094520 1_555
Li5 O8 1.906001 1_555
Li5 O10 1.959170 1_555
Li5 O19 2.094477 1_555
Li6 O35 1.893705 1_555
Li6 O29 1.960558 1_555
Li6 O28 2.258171 1_555
Li6 O12 2.339034 1_555
Li7 O34 1.894011 1_555
Li7 O28 1.960546 1_555
Li7 O29 2.256010 1_555
Li7 O13 2.340365 1_555
Li8 O20 1.905579 1_555
Li8 O23 1.959375 1_555
Li8 O25 2.094477 1_555
Li9 O21 1.905611 1_555
Li9 O22 1.959275 1_555
Li9 O24 2.094300 1_555
Li10 O36 2.103599 1_555
Li10 O43 2.104591 1_555
Li10 O26 2.105879 1_555
Li10 O44 2.552551 1_555
Li10 O29 2.556065 1_555
Li10 O35 2.559866 1_555
Li11 O26 2.179440 1_555
Li11 O43 2.179754 1_555
Li11 O42 2.180083 1_666
Li11 O27 2.180493 1_666
Li11 O36 2.180578 1_555
Li11 O37 2.181171 1_666
Li12 O37 2.101883 1_555
Li12 O27 2.102908 1_555
Li12 O42 2.104604 1_555
Li12 O28 2.555355 1_555
Li12 O45 2.560872 1_555
Li12 O34 2.563999 1_555
Li13 O42 2.014710 1_556
Li13 O32 2.074218 1_555
Li13 O27 2.224896 1_556
Li13 O41 2.287916 1_556
Li14 O43 2.015021 1_554
Li14 O33 2.074990 1_555
Li14 O26 2.223551 1_554
Li14 O40 2.287585 1_554
Li15 O28 1.892901 1_555
Li15 O45 1.960454 1_555
Li15 O35 2.252248 1_555
Li15 O39 2.341423 1_555
Li16 O29 1.892799 1_555
Li16 O44 1.959710 1_555
Li16 O34 2.248171 1_555
Li16 O38 2.345318 1_555
Li17 O48 2.019808 1_555
Li17 O47 2.152873 1_555
Li17 O22 2.211806 1_555
Li17 O38 2.330647 1_555
Li17 O31 2.532030 1_555
Li18 O49 2.019868 1_555
Li18 O46 2.151816 1_555
Li18 O23 2.211459 1_555
Li18 O39 2.334747 1_555
Li18 O30 2.533431 1_555
Li19 O45 1.893828 1_555
Li19 O34 1.960788 1_555
Li19 O44 2.261467 1_555
Li19 O56 2.336925 1_555
Li20 O44 1.892665 1_555
Li20 O35 1.960536 1_555
Li20 O45 2.252509 1_555
Li20 O57 2.341964 1_555
Li21 O48 2.118197 1_555
Li21 O6 2.119395 1_655
Li21 O47 2.199606 1_555
Li21 O4 2.204772 1_655
Li21 O1 2.489108 1_655
Li21 O51 2.490433 1_555
Li22 O49 2.118096 1_555
Li22 O7 2.119145 1_545
Li22 O46 2.200921 1_555
Li22 O5 2.204953 1_545
Li22 O0 2.489498 1_545
Li22 O50 2.490151 1_555
Li23 O52 2.118222 1_555
Li23 O53 2.118763 1_556
Li23 O62 2.200950 1_555
Li23 O63 2.206832 1_556
Li23 O67 2.489303 1_556
Li23 O66 2.489655 1_555
Li24 O52 2.019854 1_555
Li24 O62 2.152400 1_555
Li24 O64 2.209700 1_555
Li24 O57 2.337524 1_555
Li24 O59 2.535229 1_555
Li25 O53 2.021226 1_555
Li25 O63 2.145511 1_555
Li25 O65 2.209643 1_555
Li25 O56 2.342635 1_555
Li25 O58 2.543843 1_555
Li26 O70 1.906051 1_555
Li26 O64 1.959796 1_555
Li26 O61 2.094222 1_555
Li27 O71 1.906165 1_555
Li27 O65 1.959727 1_555
Li27 O60 2.094050 1_555
Li28 O26 2.014804 1_545
Li28 O69 2.075198 1_555
Li28 O36 2.223382 1_545
Li28 O14 2.287517 1_545
Li29 O27 2.014782 1_655
Li29 O68 2.074451 1_555
Li29 O37 2.224654 1_655
Li29 O15 2.285215 1_655
Cr0 O2 2.008728 1_554
Cr0 O3 2.008846 1_555
Cr0 O9 2.013130 1_554
Cr0 O8 2.013149 1_555
Cr0 O11 2.122497 1_554
Cr0 O10 2.123322 1_555
Cr1 O5 2.010554 1_555
Cr1 O4 2.011090 1_555
Cr1 O12 2.039282 1_555
Cr1 O13 2.039797 1_555
Cr1 O7 2.041845 1_555
Cr1 O6 2.042037 1_555
Cr2 O32 2.008778 1_555
Cr2 O69 2.008859 1_455
Cr2 O70 2.013171 1_455
Cr2 O20 2.013457 1_555
Cr2 O23 2.122450 1_555
Cr2 O64 2.122638 1_455
Cr3 O47 2.010323 1_555
Cr3 O63 2.010581 1_555
Cr3 O56 2.039334 1_555
Cr3 O38 2.039874 1_555
Cr3 O53 2.042071 1_555
Cr3 O48 2.042119 1_555
Cr4 O62 2.010129 1_555
Cr4 O46 2.010501 1_555
Cr4 O57 2.039510 1_555
Cr4 O39 2.039791 1_555
Cr4 O49 2.042046 1_555
Cr4 O52 2.042062 1_555
Cr5 O68 2.008267 1_555
Cr5 O33 2.008634 1_545
Cr5 O21 2.013147 1_545
Cr5 O71 2.013261 1_555
Cr5 O22 2.122475 1_545
Cr5 O65 2.123379 1_555
O0 Si0 1.654151 1_555
O0 Si12 1.663238 1_455
O1 Si1 1.654130 1_555
O1 Si13 1.663189 1_565
O2 Si16 1.621965 1_566
O3 Si17 1.622082 1_454
O4 Si1 1.606602 1_555
O5 Si0 1.606730 1_555
O6 Si23 1.618766 1_455
O7 Si22 1.618779 1_565
O8 Si20 1.602028 1_565
O9 Si21 1.602301 1_455
O10 Si7 1.614540 1_555
O11 Si6 1.614420 1_555
O12 Si2 1.633973 1_555
O13 Si3 1.634104 1_555
O14 Si22 1.656883 1_565
O14 Si3 1.665836 1_555
O15 Si23 1.656856 1_455
O15 Si2 1.665974 1_555
O16 Si7 1.656184 1_555
O16 Si5 1.675542 1_555
O17 Si6 1.656022 1_555
O17 Si4 1.675355 1_555
O18 Si2 1.682840 1_555
O18 Si9 1.689246 1_555
O19 Si3 1.682852 1_555
O19 Si8 1.689410 1_555
O20 Si7 1.601415 1_556
O21 Si6 1.601747 1_554
O22 Si8 1.614645 1_555
O23 Si9 1.614184 1_555
O24 Si10 1.682663 1_555
O24 Si7 1.689425 1_555
O25 Si11 1.682865 1_555
O25 Si6 1.689220 1_555
O26 Si4 1.616453 1_555
O27 Si5 1.616581 1_555
O28 Si2 1.607353 1_555
O29 Si3 1.607256 1_555
O30 Si9 1.656184 1_555
O30 Si13 1.675343 1_555
O31 Si8 1.656230 1_555
O31 Si12 1.675432 1_555
O32 Si12 1.621720 1_445
O33 Si13 1.621889 1_665
O34 Si10 1.607403 1_555
O35 Si11 1.607399 1_555
O36 Si12 1.616546 1_555
O37 Si13 1.616491 1_555
O38 Si10 1.634084 1_555
O39 Si11 1.633992 1_555
O40 Si15 1.656943 1_556
O40 Si11 1.666083 1_555
O41 Si14 1.656978 1_554
O41 Si10 1.665968 1_555
O42 Si16 1.616376 1_555
O43 Si17 1.616415 1_555
O44 Si18 1.607346 1_555
O45 Si19 1.607356 1_555
O46 Si14 1.606585 1_555
O47 Si15 1.606555 1_555
O48 Si0 1.618486 1_655
O49 Si1 1.618552 1_545
O50 Si14 1.654071 1_555
O50 Si16 1.663204 1_556
O51 Si15 1.654099 1_555
O51 Si17 1.663176 1_554
O52 Si15 1.618642 1_556
O53 Si14 1.618727 1_554
O54 Si0 1.656821 1_655
O54 Si18 1.665916 1_555
O55 Si1 1.657002 1_545
O55 Si19 1.666062 1_555
O56 Si18 1.634088 1_555
O57 Si19 1.633913 1_555
O58 Si20 1.656010 1_555
O58 Si16 1.675319 1_555
O59 Si21 1.656178 1_555
O59 Si17 1.675330 1_555
O60 Si18 1.682841 1_555
O60 Si21 1.689459 1_555
O61 Si19 1.682825 1_555
O61 Si20 1.689206 1_555
O62 Si22 1.606298 1_555
O63 Si23 1.606494 1_555
O64 Si21 1.613914 1_555
O65 Si20 1.614162 1_555
O66 Si22 1.654117 1_555
O66 Si4 1.663200 1_545
O67 Si23 1.654128 1_555
O67 Si5 1.663484 1_655
O68 Si4 1.621939 1_544
O69 Si5 1.621656 1_656
O70 Si8 1.601211 1_545
O71 Si9 1.601938 1_655
