# generated using pymatgen
data_K3Na5VMo7O24
_symmetry_space_group_name_H-M   'P 1'
_cell_length_a   7.94024189
_cell_length_b   7.94024189
_cell_length_c   7.91727969
_cell_angle_alpha   89.93994670
_cell_angle_beta   89.93994670
_cell_angle_gamma   89.93554657
_symmetry_Int_Tables_number   1
_chemical_formula_structural   K3Na5VMo7O24
_chemical_formula_sum   'K3 Na5 V1 Mo7 O24'
_cell_volume   499.16336318
_cell_formula_units_Z   1
loop_
 _symmetry_equiv_pos_site_id
 _symmetry_equiv_pos_as_xyz
  1  'x, y, z'
loop_
 _atom_site_type_symbol
 _atom_site_label
 _atom_site_symmetry_multiplicity
 _atom_site_fract_x
 _atom_site_fract_y
 _atom_site_fract_z
 _atom_site_occupancy
  K  K0  1  0.74773400  0.25224400  0.74600100  1
  K  K1  1  0.25224400  0.74773400  0.74600100  1
  K  K2  1  0.25226800  0.25226800  0.74593000  1
  Na  Na0  1  0.74716800  0.74716800  0.74507400  1
  Na  Na1  1  0.74724800  0.74724800  0.25486500  1
  Na  Na2  1  0.74718000  0.25278700  0.25485100  1
  Na  Na3  1  0.25278700  0.74718000  0.25485100  1
  Na  Na4  1  0.25281700  0.25281700  0.25487200  1
  V  V0  1  0.50086700  0.50086700  0.49808300  1
  Mo  Mo0  1  0.99952000  0.99952000  0.00133800  1
  Mo  Mo1  1  0.99946000  0.99946000  0.49859200  1
  Mo  Mo2  1  0.99939400  0.50045000  0.00153000  1
  Mo  Mo3  1  0.99933300  0.50070600  0.49798200  1
  Mo  Mo4  1  0.50045000  0.99939400  0.00153000  1
  Mo  Mo5  1  0.50070600  0.99933300  0.49798200  1
  Mo  Mo6  1  0.50060400  0.50060400  0.00215400  1
  O  O0  1  0.74003200  0.99790900  0.00268400  1
  O  O1  1  0.74425600  0.99810400  0.49697700  1
  O  O2  1  0.74267600  0.50164800  0.00298500  1
  O  O3  1  0.75267500  0.50195500  0.49696400  1
  O  O4  1  0.26042900  0.99969200  0.00452400  1
  O  O5  1  0.25616900  0.99950600  0.49586200  1
  O  O6  1  0.25776500  0.50063800  0.00456600  1
  O  O7  1  0.24636600  0.50052100  0.49555100  1
  O  O8  1  0.99790900  0.74003200  0.00268400  1
  O  O9  1  0.99810400  0.74425600  0.49697700  1
  O  O10  1  0.99969200  0.26042900  0.00452400  1
  O  O11  1  0.99950600  0.25616900  0.49586200  1
  O  O12  1  0.50164800  0.74267600  0.00298500  1
  O  O13  1  0.50195500  0.75267500  0.49696400  1
  O  O14  1  0.50063800  0.25776500  0.00456600  1
  O  O15  1  0.50052100  0.24636600  0.49555100  1
  O  O16  1  0.99779000  0.99779000  0.73941600  1
  O  O17  1  0.99967300  0.99967300  0.25919000  1
  O  O18  1  0.99787600  0.50184400  0.74418800  1
  O  O19  1  0.99944400  0.50068900  0.25463100  1
  O  O20  1  0.50184400  0.99787600  0.74418800  1
  O  O21  1  0.50068900  0.99944400  0.25463100  1
  O  O22  1  0.50199700  0.50199700  0.74611900  1
  O  O23  1  0.50056500  0.50056500  0.25577500  1
loop_
_geom_bond_atom_site_label_1
_geom_bond_atom_site_label_2
_geom_bond_distance
_geom_bond_site_symmetry_2
K0 O22 2.780504 1_555
K0 O15 2.792071 1_555
K0 O3 2.795049 1_555
K0 O18 2.807446 1_555
K0 O20 2.810788 1_545
K0 O11 2.812698 1_555
K0 O1 2.822866 1_545
K0 O16 2.831616 1_545
K0 O14 2.834377 1_556
K0 O2 2.840962 1_556
K0 O0 2.864162 1_546
K0 O10 2.864471 1_556
K1 O22 2.780504 1_555
K1 O7 2.792071 1_555
K1 O13 2.795049 1_555
K1 O20 2.807446 1_555
K1 O18 2.810788 1_455
K1 O5 2.812698 1_555
K1 O9 2.822866 1_455
K1 O16 2.831616 1_455
K1 O6 2.834377 1_556
K1 O12 2.840962 1_556
K1 O8 2.864162 1_456
K1 O4 2.864471 1_556
K2 O15 2.794490 1_555
K2 O7 2.794490 1_555
K2 O22 2.805836 1_555
K2 O11 2.820793 1_455
K2 O5 2.820793 1_545
K2 O18 2.828149 1_455
K2 O20 2.828149 1_545
K2 O14 2.844829 1_556
K2 O6 2.844829 1_556
K2 O16 2.859732 1_445
K2 O4 2.865197 1_546
K2 O10 2.865197 1_456
Na0 O22 2.754622 1_555
Na0 O13 2.767537 1_555
Na0 O3 2.767537 1_555
Na0 O18 2.783627 1_555
Na0 O20 2.783627 1_555
Na0 O9 2.796541 1_555
Na0 O1 2.796541 1_555
Na0 O16 2.816156 1_555
Na0 O12 2.821881 1_556
Na0 O2 2.821881 1_556
Na0 O8 2.852180 1_556
Na0 O0 2.852180 1_556
Na1 O3 2.731572 1_555
Na1 O13 2.731572 1_555
Na1 O9 2.765908 1_555
Na1 O1 2.765908 1_555
Na1 O23 2.771608 1_555
Na1 O2 2.790988 1_555
Na1 O12 2.790988 1_555
Na1 O21 2.798913 1_555
Na1 O19 2.798913 1_555
Na1 O0 2.818267 1_555
Na1 O8 2.818267 1_555
Na1 O17 2.836382 1_555
Na2 O15 2.731720 1_555
Na2 O3 2.756614 1_555
Na2 O11 2.768418 1_555
Na2 O23 2.774274 1_555
Na2 O1 2.785087 1_545
Na2 O14 2.787151 1_555
Na2 O2 2.806076 1_555
Na2 O21 2.808212 1_545
Na2 O19 2.809915 1_555
Na2 O10 2.818401 1_555
Na2 O17 2.837393 1_545
Na2 O0 2.844968 1_545
Na3 O7 2.731720 1_555
Na3 O13 2.756614 1_555
Na3 O5 2.768418 1_555
Na3 O23 2.774274 1_555
Na3 O9 2.785087 1_455
Na3 O6 2.787151 1_555
Na3 O12 2.806076 1_555
Na3 O19 2.808212 1_455
Na3 O21 2.809915 1_555
Na3 O4 2.818401 1_555
Na3 O17 2.837393 1_455
Na3 O8 2.844968 1_455
Na4 O7 2.740344 1_555
Na4 O15 2.740344 1_555
Na4 O5 2.771027 1_545
Na4 O11 2.771027 1_455
Na4 O23 2.783595 1_555
Na4 O14 2.791551 1_555
Na4 O6 2.791551 1_555
Na4 O19 2.812877 1_455
Na4 O21 2.812877 1_545
Na4 O10 2.824835 1_455
Na4 O4 2.824835 1_545
Na4 O17 2.844357 1_445
Mo0 O17 2.041490 1_555
Mo0 O8 2.060468 1_555
Mo0 O0 2.060468 1_555
Mo0 O4 2.071863 1_655
Mo0 O10 2.071863 1_565
Mo0 O16 2.073830 1_554
Mo1 O17 1.895411 1_555
Mo1 O16 1.906735 1_555
Mo1 O9 2.026476 1_555
Mo1 O1 2.026476 1_555
Mo1 O11 2.038424 1_565
Mo1 O5 2.038424 1_655
Mo2 O8 1.902394 1_555
Mo2 O10 1.905946 1_555
Mo2 O19 2.003875 1_555
Mo2 O18 2.037515 1_554
Mo2 O2 2.038435 1_555
Mo2 O6 2.051696 1_655
Mo3 O19 1.926677 1_555
Mo3 O9 1.933868 1_555
Mo3 O11 1.941772 1_555
Mo3 O18 1.949334 1_555
Mo3 O3 1.958563 1_555
Mo3 O7 1.961575 1_655
Mo4 O0 1.902394 1_555
Mo4 O4 1.905946 1_555
Mo4 O21 2.003875 1_555
Mo4 O20 2.037515 1_554
Mo4 O12 2.038435 1_555
Mo4 O14 2.051696 1_565
Mo5 O21 1.926677 1_555
Mo5 O1 1.933868 1_555
Mo5 O5 1.941772 1_555
Mo5 O20 1.949334 1_555
Mo5 O13 1.958563 1_555
Mo5 O15 1.961575 1_565
Mo6 O2 1.922156 1_555
Mo6 O12 1.922156 1_555
Mo6 O14 1.928275 1_555
Mo6 O6 1.928275 1_555
Mo6 O23 2.007988 1_555
Mo6 O22 2.027138 1_554
O3 V0 1.999455 1_555
O7 V0 2.020925 1_555
O13 V0 1.999455 1_555
O15 V0 2.020925 1_555
O22 V0 1.963830 1_555
O23 V0 1.918428 1_555
