# generated using pymatgen
data_Np(MoO4)2
_symmetry_space_group_name_H-M   'P 1'
_cell_length_a   9.69393000
_cell_length_b   10.30995000
_cell_length_c   14.47792700
_cell_angle_alpha   90.00000000
_cell_angle_beta   90.00000000
_cell_angle_gamma   90.00000000
_symmetry_Int_Tables_number   1
_chemical_formula_structural   Np(MoO4)2
_chemical_formula_sum   'Np8 Mo16 O64'
_cell_volume   1446.98097480
_cell_formula_units_Z   8
loop_
 _symmetry_equiv_pos_site_id
 _symmetry_equiv_pos_as_xyz
  1  'x, y, z'
loop_
 _atom_site_type_symbol
 _atom_site_label
 _atom_site_symmetry_multiplicity
 _atom_site_fract_x
 _atom_site_fract_y
 _atom_site_fract_z
 _atom_site_occupancy
  Np  Np0  1  0.27714400  0.96617500  0.61039100  1
  Np  Np1  1  0.72285600  0.03382500  0.38960900  1
  Np  Np2  1  0.22285600  0.46617500  0.38960900  1
  Np  Np3  1  0.72285600  0.53382500  0.11039100  1
  Np  Np4  1  0.77714400  0.53382500  0.61039100  1
  Np  Np5  1  0.27714400  0.46617500  0.88960900  1
  Np  Np6  1  0.77714400  0.03382500  0.88960900  1
  Np  Np7  1  0.22285600  0.96617500  0.11039100  1
  Mo  Mo0  1  0.00127100  0.72416000  0.94057700  1
  Mo  Mo1  1  0.99872900  0.27584000  0.05942300  1
  Mo  Mo2  1  0.49872900  0.22416000  0.05942300  1
  Mo  Mo3  1  0.99872900  0.77584000  0.44057700  1
  Mo  Mo4  1  0.50127100  0.77584000  0.94057700  1
  Mo  Mo5  1  0.00127100  0.22416000  0.55942300  1
  Mo  Mo6  1  0.50127100  0.27584000  0.55942300  1
  Mo  Mo7  1  0.49872900  0.72416000  0.44057700  1
  Mo  Mo8  1  0.18136900  0.60491800  0.65178500  1
  Mo  Mo9  1  0.81863100  0.39508200  0.34821500  1
  Mo  Mo10  1  0.31863100  0.10491800  0.34821500  1
  Mo  Mo11  1  0.81863100  0.89508200  0.15178500  1
  Mo  Mo12  1  0.68136900  0.89508200  0.65178500  1
  Mo  Mo13  1  0.18136900  0.10491800  0.84821500  1
  Mo  Mo14  1  0.68136900  0.39508200  0.84821500  1
  Mo  Mo15  1  0.31863100  0.60491800  0.15178500  1
  O  O0  1  0.38756700  0.67316500  0.87531500  1
  O  O1  1  0.61243300  0.32683500  0.12468500  1
  O  O2  1  0.11243300  0.17316500  0.12468500  1
  O  O3  1  0.61243300  0.82683500  0.37531500  1
  O  O4  1  0.88756700  0.82683500  0.87531500  1
  O  O5  1  0.38756700  0.17316500  0.62468500  1
  O  O6  1  0.88756700  0.32683500  0.62468500  1
  O  O7  1  0.11243300  0.67316500  0.37531500  1
  O  O8  1  0.23762100  0.57065200  0.53676700  1
  O  O9  1  0.76237900  0.42934800  0.46323300  1
  O  O10  1  0.26237900  0.07065200  0.46323300  1
  O  O11  1  0.76237900  0.92934800  0.03676700  1
  O  O12  1  0.73762100  0.92934800  0.53676700  1
  O  O13  1  0.23762100  0.07065200  0.96323300  1
  O  O14  1  0.73762100  0.42934800  0.96323300  1
  O  O15  1  0.26237900  0.57065200  0.03676700  1
  O  O16  1  0.11947200  0.83138500  0.99731000  1
  O  O17  1  0.88052800  0.16861500  0.00269000  1
  O  O18  1  0.38052800  0.33138500  0.00269000  1
  O  O19  1  0.88052800  0.66861500  0.49731000  1
  O  O20  1  0.61947200  0.66861500  0.99731000  1
  O  O21  1  0.11947200  0.33138500  0.50269000  1
  O  O22  1  0.61947200  0.16861500  0.50269000  1
  O  O23  1  0.38052800  0.83138500  0.49731000  1
  O  O24  1  0.22958300  0.76923200  0.67754300  1
  O  O25  1  0.77041700  0.23076800  0.32245700  1
  O  O26  1  0.27041700  0.26923200  0.32245700  1
  O  O27  1  0.77041700  0.73076800  0.17754300  1
  O  O28  1  0.72958300  0.73076800  0.67754300  1
  O  O29  1  0.22958300  0.26923200  0.82245700  1
  O  O30  1  0.72958300  0.23076800  0.82245700  1
  O  O31  1  0.27041700  0.76923200  0.17754300  1
  O  O32  1  0.09436000  0.60818700  0.86871600  1
  O  O33  1  0.90564000  0.39181300  0.13128400  1
  O  O34  1  0.40564000  0.10818700  0.13128400  1
  O  O35  1  0.90564000  0.89181300  0.36871600  1
  O  O36  1  0.59436000  0.89181300  0.86871600  1
  O  O37  1  0.09436000  0.10818700  0.63128400  1
  O  O38  1  0.59436000  0.39181300  0.63128400  1
  O  O39  1  0.40564000  0.60818700  0.36871600  1
  O  O40  1  0.26464200  0.99756200  0.76803800  1
  O  O41  1  0.73535800  0.00243800  0.23196200  1
  O  O42  1  0.23535800  0.49756200  0.23196200  1
  O  O43  1  0.73535800  0.50243800  0.26803800  1
  O  O44  1  0.76464200  0.50243800  0.76803800  1
  O  O45  1  0.26464200  0.49756200  0.73196200  1
  O  O46  1  0.76464200  0.00243800  0.73196200  1
  O  O47  1  0.23535800  0.99756200  0.26803800  1
  O  O48  1  0.09358000  0.86227300  0.52678000  1
  O  O49  1  0.90642000  0.13772700  0.47322000  1
  O  O50  1  0.40642000  0.36227300  0.47322000  1
  O  O51  1  0.90642000  0.63772700  0.02678000  1
  O  O52  1  0.59358000  0.63772700  0.52678000  1
  O  O53  1  0.09358000  0.36227300  0.97322000  1
  O  O54  1  0.59358000  0.13772700  0.97322000  1
  O  O55  1  0.40642000  0.86227300  0.02678000  1
  O  O56  1  0.99807700  0.58202700  0.65591800  1
  O  O57  1  0.00192300  0.41797300  0.34408200  1
  O  O58  1  0.50192300  0.08202700  0.34408200  1
  O  O59  1  0.00192300  0.91797300  0.15591800  1
  O  O60  1  0.49807700  0.91797300  0.65591800  1
  O  O61  1  0.99807700  0.08202700  0.84408200  1
  O  O62  1  0.49807700  0.41797300  0.84408200  1
  O  O63  1  0.50192300  0.58202700  0.15591800  1
loop_
_geom_bond_atom_site_label_1
_geom_bond_atom_site_label_2
_geom_bond_distance
_geom_bond_site_symmetry_2
Np0 O60 2.295288 1_555
Np0 O24 2.297956 1_555
Np0 O40 2.308411 1_555
Np0 O37 2.318363 1_565
Np0 O23 2.369801 1_555
Np0 O10 2.391643 1_565
Np0 O5 2.396425 1_565
Np0 O48 2.404024 1_555
Np1 O58 2.295288 1_555
Np1 O25 2.297956 1_555
Np1 O41 2.308411 1_555
Np1 O35 2.318363 1_545
Np1 O22 2.369801 1_555
Np1 O12 2.391643 1_545
Np1 O3 2.396425 1_545
Np1 O49 2.404024 1_555
Np2 O57 2.295288 1_555
Np2 O26 2.297956 1_555
Np2 O42 2.308411 1_555
Np2 O39 2.318363 1_555
Np2 O21 2.369801 1_555
Np2 O8 2.391643 1_555
Np2 O7 2.396425 1_555
Np2 O50 2.404024 1_555
Np3 O63 2.295288 1_555
Np3 O27 2.297956 1_555
Np3 O43 2.308411 1_555
Np3 O33 2.318363 1_555
Np3 O20 2.369801 1_554
Np3 O14 2.391643 1_554
Np3 O1 2.396425 1_555
Np3 O51 2.404024 1_555
Np4 O56 2.295288 1_555
Np4 O28 2.297956 1_555
Np4 O44 2.308411 1_555
Np4 O38 2.318363 1_555
Np4 O19 2.369801 1_555
Np4 O9 2.391643 1_555
Np4 O6 2.396425 1_555
Np4 O52 2.404024 1_555
Np5 O62 2.295288 1_555
Np5 O29 2.297956 1_555
Np5 O45 2.308411 1_555
Np5 O32 2.318363 1_555
Np5 O18 2.369801 1_556
Np5 O15 2.391643 1_556
Np5 O0 2.396425 1_555
Np5 O53 2.404024 1_555
Np6 O61 2.295288 1_555
Np6 O30 2.297956 1_555
Np6 O46 2.308411 1_555
Np6 O36 2.318363 1_545
Np6 O17 2.369801 1_556
Np6 O11 2.391643 1_546
Np6 O4 2.396425 1_545
Np6 O54 2.404024 1_555
Np7 O59 2.295288 1_555
Np7 O31 2.297956 1_555
Np7 O47 2.308411 1_555
Np7 O34 2.318363 1_565
Np7 O16 2.369801 1_554
Np7 O13 2.391643 1_564
Np7 O2 2.396425 1_565
Np7 O55 2.404024 1_555
Mo0 O51 1.788055 1_456
Mo0 O16 1.791560 1_555
Mo0 O4 1.796738 1_455
Mo0 O32 1.823840 1_555
Mo1 O53 1.788055 1_654
Mo1 O17 1.791560 1_555
Mo1 O2 1.796738 1_655
Mo1 O33 1.823840 1_555
Mo2 O54 1.788055 1_554
Mo2 O18 1.791560 1_555
Mo2 O1 1.796738 1_555
Mo2 O34 1.823840 1_555
Mo3 O48 1.788055 1_655
Mo3 O19 1.791560 1_555
Mo3 O7 1.796738 1_655
Mo3 O35 1.823840 1_555
Mo4 O55 1.788055 1_556
Mo4 O20 1.791560 1_555
Mo4 O0 1.796738 1_555
Mo4 O36 1.823840 1_555
Mo5 O49 1.788055 1_455
Mo5 O21 1.791560 1_555
Mo5 O6 1.796738 1_455
Mo5 O37 1.823840 1_555
Mo6 O50 1.788055 1_555
Mo6 O22 1.791560 1_555
Mo6 O5 1.796738 1_555
Mo6 O38 1.823840 1_555
Mo7 O52 1.788055 1_555
Mo7 O23 1.791560 1_555
Mo7 O3 1.796738 1_555
Mo7 O39 1.823840 1_555
Mo8 O8 1.787492 1_555
Mo8 O56 1.793423 1_455
Mo8 O45 1.795598 1_555
Mo8 O24 1.796493 1_555
Mo9 O9 1.787492 1_555
Mo9 O57 1.793423 1_655
Mo9 O43 1.795598 1_555
Mo9 O25 1.796493 1_555
Mo10 O10 1.787492 1_555
Mo10 O58 1.793423 1_555
Mo10 O47 1.795598 1_545
Mo10 O26 1.796493 1_555
Mo11 O11 1.787492 1_555
Mo11 O59 1.793423 1_655
Mo11 O41 1.795598 1_565
Mo11 O27 1.796493 1_555
Mo12 O12 1.787492 1_555
Mo12 O60 1.793423 1_555
Mo12 O46 1.795598 1_565
Mo12 O28 1.796493 1_555
Mo13 O13 1.787492 1_555
Mo13 O61 1.793423 1_455
Mo13 O40 1.795598 1_545
Mo13 O29 1.796493 1_555
Mo14 O14 1.787492 1_555
Mo14 O62 1.793423 1_555
Mo14 O44 1.795598 1_555
Mo14 O30 1.796493 1_555
Mo15 O15 1.787492 1_555
Mo15 O63 1.793423 1_555
Mo15 O42 1.795598 1_555
Mo15 O31 1.796493 1_555
