# generated using pymatgen
data_MgMn9CdO10
_symmetry_space_group_name_H-M   'P 1'
_cell_length_a   6.41809726
_cell_length_b   8.93970062
_cell_length_c   6.31214947
_cell_angle_alpha   66.27777358
_cell_angle_beta   120.33367159
_cell_angle_gamma   109.86095160
_symmetry_Int_Tables_number   1
_chemical_formula_structural   MgMn9CdO10
_chemical_formula_sum   'Mg1 Mn9 Cd1 O10'
_cell_volume   281.86678019
_cell_formula_units_Z   1
loop_
 _symmetry_equiv_pos_site_id
 _symmetry_equiv_pos_as_xyz
  1  'x, y, z'
loop_
 _atom_site_type_symbol
 _atom_site_label
 _atom_site_symmetry_multiplicity
 _atom_site_fract_x
 _atom_site_fract_y
 _atom_site_fract_z
 _atom_site_occupancy
  Mg  Mg0  1  0.58358200  0.22105100  0.27701500  1
  Mn  Mn0  1  0.47068800  0.52564000  0.25722800  1
  Mn  Mn1  1  0.03129800  0.99782500  0.93709900  1
  Mn  Mn2  1  0.46223800  0.88295700  0.65667800  1
  Mn  Mn3  1  0.03035500  0.62604500  0.22821100  1
  Mn  Mn4  1  0.07739600  0.17097400  0.34888300  1
  Mn  Mn5  1  0.54923000  0.22263800  0.76410800  1
  Mn  Mn6  1  0.55391600  0.54812000  0.78624700  1
  Mn  Mn7  1  0.04431600  0.37924900  0.73088900  1
  Mn  Mn8  1  0.98362900  0.74346900  0.63432000  1
  Cd  Cd0  1  0.51906300  0.86126200  0.18985900  1
  O  O0  1  0.70986000  0.12339800  0.15172800  1
  O  O1  1  0.71258400  0.45732000  0.19547000  1
  O  O2  1  0.71509200  0.11867400  0.65134600  1
  O  O3  1  0.75198100  0.47504700  0.66537500  1
  O  O4  1  0.22215100  0.21440400  0.08985100  1
  O  O5  1  0.12193300  0.84029400  0.33632500  1
  O  O6  1  0.81134400  0.77303700  0.82515400  1
  O  O7  1  0.24342900  0.00741000  0.72323000  1
  O  O8  1  0.23704400  0.40120100  0.48990000  1
  O  O9  1  0.28791700  0.61310900  0.83489400  1
loop_
_geom_bond_atom_site_label_1
_geom_bond_atom_site_label_2
_geom_bond_distance
_geom_bond_site_symmetry_2
Mg0 O0 1.930804 1_555
Mg0 O1 1.944008 1_555
Mg0 O2 1.975732 1_555
Mg0 O4 1.993735 1_555
Mn0 O1 2.093430 1_555
Mn0 O9 2.209421 1_554
Mn0 O3 2.240638 1_555
Mn0 O8 2.328004 1_555
Mn1 O6 2.176646 1_455
Mn1 O2 2.182580 1_465
Mn1 O4 2.208261 1_566
Mn1 O5 2.211896 1_556
Mn1 O7 2.316790 1_565
Mn2 O5 2.144359 1_555
Mn2 O2 2.179379 1_565
Mn2 O6 2.316303 1_555
Mn2 O7 2.328095 1_565
Mn2 O9 2.364436 1_555
Mn3 O1 2.052356 1_455
Mn3 O5 2.088361 1_555
Mn3 O6 2.264564 1_454
Mn3 O8 2.335703 1_555
Mn4 O0 2.018162 1_455
Mn4 O4 2.113229 1_555
Mn4 O7 2.143001 1_555
Mn4 O8 2.279935 1_555
Mn5 O0 2.040454 1_556
Mn5 O2 2.115055 1_555
Mn5 O3 2.205868 1_555
Mn5 O7 2.223218 1_555
Mn5 O8 2.450678 1_555
Mn6 O6 2.136154 1_555
Mn6 O3 2.137688 1_555
Mn6 O1 2.141464 1_556
Mn6 O9 2.166421 1_555
Mn6 O8 2.383156 1_555
Mn7 O3 2.108990 1_455
Mn7 O4 2.110076 1_556
Mn7 O9 2.256718 1_555
Mn7 O8 2.319027 1_555
Mn7 O2 2.582289 1_455
Mn8 O6 2.131590 1_555
Mn8 O9 2.153341 1_655
Mn8 O5 2.220283 1_655
Mn8 O3 2.344943 1_555
Mn8 O7 2.471781 1_665
Cd0 O0 2.223306 1_565
Cd0 O7 2.592903 1_564
