# generated using pymatgen
data_KNaTi2(PO5)2
_symmetry_space_group_name_H-M   'P 1'
_cell_length_a   6.37466201
_cell_length_b   12.91110445
_cell_length_c   10.70559586
_cell_angle_alpha   90.00000000
_cell_angle_beta   90.00000000
_cell_angle_gamma   90.00000000
_symmetry_Int_Tables_number   1
_chemical_formula_structural   KNaTi2(PO5)2
_chemical_formula_sum   'K4 Na4 Ti8 P8 O40'
_cell_volume   881.11258063
_cell_formula_units_Z   4
loop_
 _symmetry_equiv_pos_site_id
 _symmetry_equiv_pos_as_xyz
  1  'x, y, z'
loop_
 _atom_site_type_symbol
 _atom_site_label
 _atom_site_symmetry_multiplicity
 _atom_site_fract_x
 _atom_site_fract_y
 _atom_site_fract_z
 _atom_site_occupancy
  K  K0  1  0.81924547  0.89927944  0.41958676  1
  K  K1  1  0.18075453  0.10072056  0.91958676  1
  K  K2  1  0.68075453  0.39927944  0.41958676  1
  K  K3  1  0.31924547  0.60072056  0.91958676  1
  Na  Na0  1  0.23266724  0.85062330  0.70017030  1
  Na  Na1  1  0.76733276  0.14937670  0.20017030  1
  Na  Na2  1  0.26733276  0.35062330  0.70017030  1
  Na  Na3  1  0.73266724  0.64937670  0.20017030  1
  Ti  Ti0  1  0.50707470  0.87201916  0.98679057  1
  Ti  Ti1  1  0.49292530  0.12798084  0.48679057  1
  Ti  Ti2  1  0.99292530  0.37201916  0.98679057  1
  Ti  Ti3  1  0.00707470  0.62798084  0.48679057  1
  Ti  Ti4  1  0.73982276  0.74568581  0.73397721  1
  Ti  Ti5  1  0.26017724  0.25431419  0.23397721  1
  Ti  Ti6  1  0.76017724  0.24568581  0.73397721  1
  Ti  Ti7  1  0.23982276  0.75431419  0.23397721  1
  P  P0  1  0.00131661  0.81590411  0.97564380  1
  P  P1  1  0.99868339  0.18409589  0.47564380  1
  P  P2  1  0.49868339  0.31590411  0.97564380  1
  P  P3  1  0.50131661  0.68409589  0.47564380  1
  P  P4  1  0.66110997  0.99611823  0.72417048  1
  P  P5  1  0.33889003  0.00388177  0.22417048  1
  P  P6  1  0.83889003  0.49611823  0.72417048  1
  P  P7  1  0.16110997  0.50388177  0.22417048  1
  O  O0  1  0.96987113  0.72509121  0.60202826  1
  O  O1  1  0.03012887  0.27490879  0.10202826  1
  O  O2  1  0.53012887  0.22509121  0.60202826  1
  O  O3  1  0.46987113  0.77490879  0.10202826  1
  O  O4  1  0.69468416  0.61620414  0.44663844  1
  O  O5  1  0.30531584  0.38379586  0.94663844  1
  O  O6  1  0.80531584  0.11620414  0.44663844  1
  O  O7  1  0.19468416  0.88379586  0.94663844  1
  O  O8  1  0.53786543  0.77583358  0.84554660  1
  O  O9  1  0.46213457  0.22416642  0.34554660  1
  O  O10  1  0.96213457  0.27583358  0.84554660  1
  O  O11  1  0.03786543  0.72416642  0.34554660  1
  O  O12  1  0.69935250  0.59421103  0.74537812  1
  O  O13  1  0.30064750  0.40578897  0.24537812  1
  O  O14  1  0.80064750  0.09421103  0.74537812  1
  O  O15  1  0.19935250  0.90578897  0.24537812  1
  O  O16  1  0.96804751  0.50705874  0.60074601  1
  O  O17  1  0.03195249  0.49294126  0.10074601  1
  O  O18  1  0.53195249  0.00705874  0.60074601  1
  O  O19  1  0.46804751  0.99294126  0.10074601  1
  O  O20  1  0.96830791  0.74487049  0.85945169  1
  O  O21  1  0.03169209  0.25512951  0.35945169  1
  O  O22  1  0.53169209  0.24487049  0.85945169  1
  O  O23  1  0.46830791  0.75512951  0.35945169  1
  O  O24  1  0.81028090  0.90123955  0.70712300  1
  O  O25  1  0.18971910  0.09876045  0.20712300  1
  O  O26  1  0.68971910  0.40123955  0.70712300  1
  O  O27  1  0.31028090  0.59876045  0.20712300  1
  O  O28  1  0.50668474  0.98265487  0.83273260  1
  O  O29  1  0.49331526  0.01734513  0.33273260  1
  O  O30  1  0.99331526  0.48265487  0.83273260  1
  O  O31  1  0.00668474  0.51734513  0.33273260  1
  O  O32  1  0.53495225  0.75609010  0.58986594  1
  O  O33  1  0.46504775  0.24390990  0.08986594  1
  O  O34  1  0.96504775  0.25609010  0.58986594  1
  O  O35  1  0.03495225  0.74390990  0.08986594  1
  O  O36  1  0.81282499  0.88777865  0.99915023  1
  O  O37  1  0.18717501  0.11222135  0.49915023  1
  O  O38  1  0.68717501  0.38777865  0.99915023  1
  O  O39  1  0.31282499  0.61222135  0.49915023  1
loop_
_geom_bond_atom_site_label_1
_geom_bond_atom_site_label_2
_geom_bond_distance
_geom_bond_site_symmetry_2
K0 O29 2.739537 1_565
K0 O11 2.771672 1_655
K0 O6 2.817070 1_565
K0 O23 2.980425 1_555
K0 O18 3.008615 1_565
K0 O15 3.058841 1_655
K0 O24 3.078881 1_555
K0 O0 3.129627 1_555
K0 O32 3.166269 1_555
K1 O28 2.739537 1_545
K1 O10 2.771672 1_455
K1 O7 2.817070 1_545
K1 O22 2.980425 1_555
K1 O19 3.008615 1_546
K1 O14 3.058841 1_455
K1 O25 3.078881 1_556
K1 O1 3.129627 1_556
K1 O33 3.166269 1_556
K2 O31 2.739537 1_655
K2 O9 2.771672 1_555
K2 O4 2.817070 1_555
K2 O21 2.980425 1_655
K2 O16 3.008615 1_555
K2 O13 3.058841 1_555
K2 O26 3.078881 1_555
K2 O2 3.129627 1_555
K2 O34 3.166269 1_555
K3 O30 2.739537 1_455
K3 O8 2.771672 1_555
K3 O5 2.817070 1_555
K3 O20 2.980425 1_455
K3 O17 3.008615 1_556
K3 O12 3.058841 1_555
K3 O27 3.078881 1_556
K3 O3 3.129627 1_556
K3 O35 3.166269 1_556
Na0 O0 2.556791 1_455
Na0 O32 2.568530 1_555
Na0 O8 2.672025 1_555
Na0 O7 2.684066 1_555
Na0 O20 2.758966 1_455
Na0 O24 2.771742 1_455
Na0 O28 2.823318 1_555
Na0 O18 2.975266 1_565
Na1 O1 2.556791 1_655
Na1 O33 2.568530 1_555
Na1 O9 2.672025 1_555
Na1 O6 2.684066 1_555
Na1 O21 2.758966 1_655
Na1 O25 2.771742 1_655
Na1 O29 2.823318 1_555
Na1 O19 2.975266 1_545
Na2 O2 2.556791 1_555
Na2 O34 2.568530 1_455
Na2 O10 2.672025 1_455
Na2 O5 2.684066 1_555
Na2 O22 2.758966 1_555
Na2 O26 2.771742 1_555
Na2 O30 2.823318 1_455
Na2 O16 2.975266 1_455
Na3 O3 2.556791 1_555
Na3 O35 2.568530 1_655
Na3 O11 2.672025 1_655
Na3 O4 2.684066 1_555
Na3 O23 2.758966 1_555
Na3 O27 2.771742 1_555
Na3 O31 2.823318 1_655
Na3 O17 2.975266 1_655
O0 Ti3 1.774895 1_655
O0 Ti4 2.053457 1_555
O1 Ti2 1.774895 1_454
O1 Ti5 2.053457 1_555
O2 Ti1 1.774895 1_555
O2 Ti6 2.053457 1_555
O3 Ti0 1.774895 1_554
O3 Ti7 2.053457 1_555
O4 P3 1.544088 1_555
O4 Ti3 2.042915 1_655
O5 P2 1.544088 1_555
O5 Ti2 2.042915 1_455
O6 P1 1.544088 1_555
O6 Ti1 2.042915 1_555
O7 P0 1.544088 1_555
O7 Ti0 2.042915 1_555
O8 Ti4 1.798767 1_555
O8 Ti0 1.966519 1_555
O9 Ti5 1.798767 1_555
O9 Ti1 1.966519 1_555
O10 Ti6 1.798767 1_555
O10 Ti2 1.966519 1_555
O11 Ti7 1.798767 1_555
O11 Ti3 1.966519 1_555
O12 P6 1.564210 1_555
O12 Ti4 1.976421 1_555
O13 P7 1.564210 1_555
O13 Ti5 1.976421 1_555
O14 P4 1.564210 1_545
O14 Ti6 1.976421 1_555
O15 P5 1.564210 1_565
O15 Ti7 1.976421 1_555
O16 P6 1.563251 1_555
O16 Ti3 1.996913 1_655
O17 P7 1.563251 1_555
O17 Ti2 1.996913 1_454
O18 P4 1.563251 1_545
O18 Ti1 1.996913 1_555
O19 P5 1.563251 1_565
O19 Ti0 1.996913 1_554
O20 P0 1.559709 1_655
O20 Ti4 1.981400 1_555
O21 P1 1.559709 1_455
O21 Ti5 1.981400 1_555
O22 P2 1.559709 1_555
O22 Ti6 1.981400 1_555
O23 P3 1.559709 1_555
O23 Ti7 1.981400 1_555
O24 P4 1.561455 1_555
O24 Ti4 2.077964 1_555
O25 P5 1.561455 1_555
O25 Ti5 2.077964 1_555
O26 P6 1.561455 1_555
O26 Ti6 2.077964 1_555
O27 P7 1.561455 1_555
O27 Ti7 2.077964 1_555
O28 P4 1.532983 1_555
O28 Ti0 2.181868 1_555
O29 P5 1.532983 1_555
O29 Ti1 2.181868 1_555
O30 P6 1.532983 1_555
O30 Ti2 2.181868 1_555
O31 P7 1.532983 1_555
O31 Ti3 2.181868 1_555
O32 P3 1.550893 1_555
O32 Ti4 2.025797 1_555
O33 P2 1.550893 1_554
O33 Ti5 2.025797 1_555
O34 P1 1.550893 1_555
O34 Ti6 2.025797 1_555
O35 P0 1.550893 1_554
O35 Ti7 2.025797 1_555
O36 P0 1.538911 1_655
O36 Ti0 1.964109 1_555
O37 P1 1.538911 1_455
O37 Ti1 1.964109 1_555
O38 P2 1.538911 1_555
O38 Ti2 1.964109 1_555
O39 P3 1.538911 1_555
O39 Ti3 1.964109 1_555
