# generated using pymatgen
data_Hf2Fe3Si
_symmetry_space_group_name_H-M   'P 1'
_cell_length_a   4.92804540
_cell_length_b   4.92804941
_cell_length_c   8.03670178
_cell_angle_alpha   89.99999702
_cell_angle_beta   89.99999953
_cell_angle_gamma   119.99941792
_symmetry_Int_Tables_number   1
_chemical_formula_structural   Hf2Fe3Si
_chemical_formula_sum   'Hf4 Fe6 Si2'
_cell_volume   169.02883000
_cell_formula_units_Z   2
loop_
 _symmetry_equiv_pos_site_id
 _symmetry_equiv_pos_as_xyz
  1  'x, y, z'
loop_
 _atom_site_type_symbol
 _atom_site_label
 _atom_site_symmetry_multiplicity
 _atom_site_fract_x
 _atom_site_fract_y
 _atom_site_fract_z
 _atom_site_occupancy
  Hf  Hf0  1  0.66666818  0.33333239  0.56381039  1
  Hf  Hf1  1  0.33333161  0.66666813  0.43619927  1
  Hf  Hf2  1  0.33333153  0.66666802  0.06380005  1
  Hf  Hf3  1  0.66666813  0.33333239  0.93619032  1
  Fe  Fe0  1  0.16979761  0.33958240  0.75000026  1
  Fe  Fe1  1  0.16980202  0.83019746  0.75000027  1
  Fe  Fe2  1  0.66041689  0.83019984  0.75000025  1
  Fe  Fe3  1  0.83019792  0.66041632  0.24999973  1
  Fe  Fe4  1  0.83019926  0.16980093  0.24999970  1
  Fe  Fe5  1  0.33958616  0.16980207  0.24999977  1
  Si  Si0  1  0.00000034  0.00000003  0.50000315  1
  Si  Si1  1  0.00000033  0.00000003  -0.00000315  1
loop_
_geom_bond_atom_site_label_1
_geom_bond_atom_site_label_2
_geom_bond_distance
_geom_bond_site_symmetry_2
Hf0 Si0 2.891035 1_655
Hf0 Si0 2.891072 1_555
Hf0 Si0 2.891073 1_665
Hf1 Si0 2.891024 1_565
Hf1 Si0 2.891071 1_555
Hf1 Si0 2.891071 1_665
Hf2 Si1 2.891023 1_565
Hf2 Si1 2.891069 1_555
Hf2 Si1 2.891070 1_665
Hf3 Si1 2.891034 1_656
Hf3 Si1 2.891071 1_556
Hf3 Si1 2.891072 1_666
Fe0 Fe1 2.417764 1_555
Fe0 Fe2 2.417812 1_555
Fe0 Si1 2.477317 1_556
Fe0 Si0 2.477320 1_555
Fe0 Fe2 2.510279 1_445
Fe0 Fe1 2.510285 1_545
Fe0 Hf2 2.882487 1_556
Fe0 Hf1 2.882496 1_555
Fe0 Hf0 2.882895 1_555
Fe0 Hf3 2.882895 1_555
Fe0 Hf0 2.882932 1_455
Fe0 Hf3 2.882933 1_455
Fe1 Fe2 2.417766 1_555
Fe1 Si1 2.477364 1_566
Fe1 Si0 2.477367 1_565
Fe1 Fe2 2.510279 1_455
Fe1 Hf2 2.882426 1_556
Fe1 Hf1 2.882434 1_555
Fe1 Hf0 2.882931 1_455
Fe1 Hf3 2.882932 1_455
Fe1 Hf0 2.882936 1_565
Fe1 Hf3 2.882937 1_565
Fe2 Si1 2.477319 1_666
Fe2 Si0 2.477322 1_665
Fe2 Hf2 2.882486 1_556
Fe2 Hf1 2.882494 1_555
Fe2 Hf0 2.882886 1_555
Fe2 Hf3 2.882887 1_555
Fe2 Hf0 2.882944 1_565
Fe2 Hf3 2.882946 1_565
Fe3 Fe4 2.417780 1_555
Fe3 Fe5 2.417785 1_555
Fe3 Si1 2.477361 1_665
Fe3 Si0 2.477365 1_665
Fe3 Fe4 2.510269 1_565
Fe3 Fe5 2.510305 1_665
Fe3 Hf3 2.882551 1_554
Fe3 Hf0 2.882560 1_555
Fe3 Hf1 2.882921 1_555
Fe3 Hf2 2.882922 1_555
Fe3 Hf1 2.882987 1_655
Fe3 Hf2 2.882987 1_655
Fe4 Fe5 2.417766 1_555
Fe4 Si1 2.477399 1_655
Fe4 Si0 2.477403 1_655
Fe4 Fe5 2.510279 1_655
Fe4 Hf3 2.882501 1_554
Fe4 Hf0 2.882510 1_555
Fe4 Hf2 2.882973 1_655
Fe4 Hf1 2.882973 1_655
Fe4 Hf1 2.882975 1_545
Fe4 Hf2 2.882976 1_545
Fe5 Si1 2.477366 1_555
Fe5 Si0 2.477369 1_555
Fe5 Hf3 2.882547 1_554
Fe5 Hf0 2.882555 1_555
Fe5 Hf1 2.882927 1_555
Fe5 Hf2 2.882928 1_555
Fe5 Hf1 2.882984 1_545
Fe5 Hf2 2.882985 1_545
