# generated using pymatgen
data_Hf5Ir3
_symmetry_space_group_name_H-M   'P 1'
_cell_length_a   7.86785619
_cell_length_b   7.86785619
_cell_length_c   16.90376892
_cell_angle_alpha   90.00000000
_cell_angle_beta   90.00000000
_cell_angle_gamma   120.00000415
_symmetry_Int_Tables_number   1
_chemical_formula_structural   Hf5Ir3
_chemical_formula_sum   'Hf30 Ir18'
_cell_volume   906.20611310
_cell_formula_units_Z   6
loop_
 _symmetry_equiv_pos_site_id
 _symmetry_equiv_pos_as_xyz
  1  'x, y, z'
loop_
 _atom_site_type_symbol
 _atom_site_label
 _atom_site_symmetry_multiplicity
 _atom_site_fract_x
 _atom_site_fract_y
 _atom_site_fract_z
 _atom_site_occupancy
  Hf  Hf0  1  0.76256376  0.77221538  0.65889648  1
  Hf  Hf1  1  0.00965362  0.23743624  0.32556348  1
  Hf  Hf2  1  0.23743624  0.22778462  0.15889648  1
  Hf  Hf3  1  0.99034638  0.22778462  0.00777052  1
  Hf  Hf4  1  0.22778462  0.99034638  0.99222948  1
  Hf  Hf5  1  0.99034638  0.76256376  0.82556348  1
  Hf  Hf6  1  0.77221538  0.76256376  0.34110352  1
  Hf  Hf7  1  0.00965362  0.77221538  0.50777052  1
  Hf  Hf8  1  0.77221538  0.00965362  0.49222948  1
  Hf  Hf9  1  0.22778462  0.23743624  0.84110352  1
  Hf  Hf10  1  0.23743624  0.00965362  0.67443652  1
  Hf  Hf11  1  0.76256376  0.99034638  0.17443652  1
  Hf  Hf12  1  0.34420126  0.65579874  0.75000000  1
  Hf  Hf13  1  0.31159848  0.65579874  0.41666700  1
  Hf  Hf14  1  0.65579874  0.34420126  0.25000000  1
  Hf  Hf15  1  0.68840152  0.34420126  0.91666700  1
  Hf  Hf16  1  0.34420126  0.68840152  0.08333300  1
  Hf  Hf17  1  0.65579874  0.31159848  0.58333300  1
  Hf  Hf18  1  0.62150774  0.37849226  0.75000000  1
  Hf  Hf19  1  0.75698353  0.37849226  0.41666700  1
  Hf  Hf20  1  0.37849226  0.62150774  0.25000000  1
  Hf  Hf21  1  0.24301647  0.62150774  0.91666700  1
  Hf  Hf22  1  0.62150774  0.24301647  0.08333300  1
  Hf  Hf23  1  0.37849226  0.75698353  0.58333300  1
  Hf  Hf24  1  0.75063662  0.75063662  0.00000000  1
  Hf  Hf25  1  0.00000000  0.24936338  0.66666700  1
  Hf  Hf26  1  0.24936338  0.24936338  0.50000000  1
  Hf  Hf27  1  0.24936338  0.00000000  0.33333300  1
  Hf  Hf28  1  -0.00000000  0.75063662  0.16666700  1
  Hf  Hf29  1  0.75063662  -0.00000000  0.83333300  1
  Ir  Ir0  1  0.58214596  0.60824340  0.85708472  1
  Ir  Ir1  1  0.02609843  0.41785404  0.52375172  1
  Ir  Ir2  1  0.41785404  0.39175660  0.35708472  1
  Ir  Ir3  1  0.97390157  0.39175660  0.80958228  1
  Ir  Ir4  1  0.39175660  0.97390157  0.19041772  1
  Ir  Ir5  1  0.97390157  0.58214596  0.02375172  1
  Ir  Ir6  1  0.60824340  0.58214596  0.14291528  1
  Ir  Ir7  1  0.02609843  0.60824340  0.30958228  1
  Ir  Ir8  1  0.60824340  0.02609843  0.69041772  1
  Ir  Ir9  1  0.39175660  0.41785404  0.64291528  1
  Ir  Ir10  1  0.41785404  0.02609843  0.47624828  1
  Ir  Ir11  1  0.58214596  0.97390157  0.97624828  1
  Ir  Ir12  1  0.37951623  0.37951623  0.00000000  1
  Ir  Ir13  1  -0.00000000  0.62048377  0.66666700  1
  Ir  Ir14  1  0.62048377  0.62048377  0.50000000  1
  Ir  Ir15  1  0.62048377  -0.00000000  0.33333300  1
  Ir  Ir16  1  0.00000000  0.37951623  0.16666700  1
  Ir  Ir17  1  0.37951623  0.00000000  0.83333300  1
loop_
_geom_bond_atom_site_label_1
_geom_bond_atom_site_label_2
_geom_bond_distance
_geom_bond_site_symmetry_2
Hf0 Ir13 2.676271 1_655
Hf0 Ir8 2.858935 1_565
Hf0 Ir9 2.867713 1_555
Hf0 Ir14 2.924825 1_555
Hf0 Hf18 3.124329 1_555
Hf0 Hf23 3.227248 1_555
Hf0 Hf25 3.253838 1_665
Hf0 Hf29 3.476108 1_565
Hf1 Ir15 2.676283 1_455
Hf1 Ir2 2.858913 1_555
Hf1 Ir7 2.867717 1_555
Hf1 Ir16 2.924828 1_555
Hf1 Hf19 3.124349 1_455
Hf1 Hf20 3.227244 1_555
Hf1 Hf27 3.253824 1_555
Hf1 Hf26 3.476100 1_555
Hf2 Ir16 2.676271 1_555
Hf2 Ir4 2.858935 1_545
Hf2 Ir6 2.867713 1_555
Hf2 Ir12 2.924825 1_555
Hf2 Hf20 3.124329 1_555
Hf2 Hf22 3.227248 1_555
Hf2 Hf28 3.253838 1_545
Hf2 Hf27 3.476108 1_555
Hf3 Ir12 2.676286 1_655
Hf3 Ir11 2.858919 1_544
Hf3 Ir5 2.867709 1_555
Hf3 Ir16 2.924822 1_655
Hf4 Ir12 2.676286 1_566
Hf4 Ir5 2.858919 1_456
Hf4 Ir11 2.867709 1_555
Hf4 Ir17 2.924822 1_565
Hf5 Ir17 2.676283 1_665
Hf5 Ir0 2.858913 1_555
Hf5 Ir3 2.867717 1_555
Hf5 Ir13 2.924828 1_655
Hf6 Ir15 2.676271 1_565
Hf6 Ir7 2.858935 1_655
Hf6 Ir2 2.867713 1_555
Hf6 Ir14 2.924825 1_555
Hf7 Ir14 2.676286 1_455
Hf7 Ir10 2.858919 1_565
Hf7 Ir1 2.867709 1_555
Hf7 Ir13 2.924822 1_555
Hf8 Ir14 2.676286 1_545
Hf8 Ir1 2.858919 1_655
Hf8 Ir10 2.867709 1_555
Hf8 Ir15 2.924822 1_555
Hf9 Ir17 2.676271 1_555
Hf9 Ir3 2.858935 1_455
Hf9 Ir0 2.867713 1_555
Hf9 Ir12 2.924825 1_556
Hf10 Ir13 2.676283 1_545
Hf10 Ir9 2.858913 1_555
Hf10 Ir8 2.867717 1_555
Hf10 Ir17 2.924828 1_555
Hf10 Hf23 3.124349 1_545
Hf10 Hf18 3.227244 1_555
Hf10 Hf25 3.253824 1_555
Hf10 Hf26 3.476100 1_555
Hf11 Ir16 2.676283 1_665
Hf11 Ir6 2.858913 1_555
Hf11 Ir4 2.867717 1_555
Hf11 Ir15 2.924828 1_565
Hf11 Hf22 3.124349 1_565
Hf11 Hf20 3.227244 1_555
Hf11 Hf28 3.253824 1_655
Hf11 Hf24 3.476100 1_555
Hf12 Ir9 2.760773 1_555
Hf12 Ir0 2.760773 1_555
Hf12 Ir8 2.786732 1_565
Hf12 Ir3 2.786732 1_455
Hf12 Hf21 2.903269 1_555
Hf12 Hf23 2.903269 1_555
Hf12 Ir17 2.939891 1_565
Hf12 Ir13 2.939891 1_555
Hf12 Hf29 3.299091 1_565
Hf12 Hf25 3.299091 1_555
Hf13 Ir1 2.760773 1_555
Hf13 Ir7 2.760773 1_555
Hf13 Ir2 2.786721 1_555
Hf13 Ir10 2.786729 1_565
Hf13 Hf23 2.903253 1_555
Hf13 Hf20 2.903269 1_555
Hf13 Ir14 2.939884 1_555
Hf13 Ir15 2.939896 1_565
Hf13 Hf26 3.299089 1_555
Hf13 Hf27 3.299103 1_565
Hf14 Ir2 2.760773 1_555
Hf14 Ir6 2.760773 1_555
Hf14 Ir7 2.786732 1_655
Hf14 Ir4 2.786732 1_545
Hf14 Hf19 2.903269 1_555
Hf14 Hf22 2.903269 1_555
Hf14 Ir15 2.939891 1_555
Hf14 Ir16 2.939891 1_655
Hf14 Hf27 3.299091 1_555
Hf14 Hf28 3.299091 1_655
Hf15 Ir5 2.760773 1_556
Hf15 Ir3 2.760773 1_555
Hf15 Ir0 2.786721 1_555
Hf15 Ir11 2.786729 1_545
Hf15 Hf22 2.903253 1_556
Hf15 Hf18 2.903269 1_555
Hf15 Ir12 2.939884 1_556
Hf15 Ir17 2.939896 1_555
Hf15 Hf24 3.299089 1_556
Hf15 Hf29 3.299103 1_555
Hf16 Ir11 2.760773 1_554
Hf16 Ir4 2.760773 1_555
Hf16 Ir6 2.786721 1_555
Hf16 Ir5 2.786729 1_455
Hf16 Hf21 2.903253 1_554
Hf16 Hf20 2.903269 1_555
Hf16 Ir12 2.939884 1_555
Hf16 Ir16 2.939896 1_555
Hf16 Hf24 3.299089 1_555
Hf16 Hf28 3.299103 1_555
Hf17 Ir10 2.760773 1_555
Hf17 Ir8 2.760773 1_555
Hf17 Ir9 2.786721 1_555
Hf17 Ir1 2.786729 1_655
Hf17 Hf19 2.903253 1_555
Hf17 Hf18 2.903269 1_555
Hf17 Ir14 2.939884 1_555
Hf17 Ir13 2.939896 1_655
Hf17 Hf26 3.299089 1_555
Hf17 Hf25 3.299103 1_655
Hf18 Ir0 2.683265 1_555
Hf18 Ir9 2.683265 1_555
Hf18 Ir8 2.902265 1_555
Hf18 Ir3 2.902265 1_555
Hf18 Ir13 2.967745 1_655
Hf18 Ir17 2.967745 1_555
Hf18 Hf9 3.124329 1_555
Hf18 Hf5 3.227244 1_555
Hf19 Ir7 2.683272 1_655
Hf19 Ir1 2.683276 1_655
Hf19 Ir10 2.902259 1_555
Hf19 Ir2 2.902265 1_555
Hf19 Ir14 2.967739 1_555
Hf19 Ir15 2.967754 1_555
Hf19 Hf7 3.124333 1_655
Hf19 Hf8 3.227234 1_555
Hf19 Hf6 3.227248 1_555
Hf20 Ir6 2.683265 1_555
Hf20 Ir2 2.683265 1_555
Hf20 Ir7 2.902265 1_555
Hf20 Ir4 2.902265 1_555
Hf20 Ir15 2.967745 1_565
Hf20 Ir16 2.967745 1_555
Hf20 Hf6 3.124329 1_555
Hf21 Ir3 2.683272 1_455
Hf21 Ir5 2.683276 1_456
Hf21 Ir11 2.902259 1_555
Hf21 Ir0 2.902265 1_555
Hf21 Ir12 2.967739 1_556
Hf21 Ir17 2.967754 1_565
Hf21 Hf3 3.124333 1_456
Hf21 Hf5 3.124349 1_455
Hf21 Hf4 3.227234 1_555
Hf21 Hf9 3.227248 1_555
Hf22 Ir4 2.683272 1_545
Hf22 Ir11 2.683276 1_544
Hf22 Ir5 2.902259 1_555
Hf22 Ir6 2.902265 1_555
Hf22 Ir12 2.967739 1_555
Hf22 Ir16 2.967754 1_655
Hf22 Hf4 3.124333 1_544
Hf22 Hf3 3.227234 1_555
Hf23 Ir8 2.683272 1_565
Hf23 Ir10 2.683276 1_565
Hf23 Ir1 2.902259 1_555
Hf23 Ir9 2.902265 1_555
Hf23 Ir14 2.967739 1_555
Hf23 Ir13 2.967754 1_555
Hf23 Hf8 3.124333 1_565
Hf23 Hf7 3.227234 1_555
Hf24 Ir5 2.707942 1_555
Hf24 Ir11 2.707942 1_554
Hf24 Ir0 2.713570 1_554
Hf24 Ir6 2.713570 1_555
Hf24 Ir12 2.919922 1_555
Hf24 Hf4 3.253838 1_654
Hf24 Hf3 3.253838 1_565
Hf24 Hf28 3.433140 1_655
Hf24 Hf29 3.433140 1_564
Hf24 Hf5 3.476100 1_554
Hf25 Ir8 2.707946 1_455
Hf25 Ir9 2.707949 1_555
Hf25 Ir1 2.713568 1_555
Hf25 Ir3 2.713572 1_455
Hf25 Ir13 2.919922 1_555
Hf25 Hf29 3.433126 1_455
Hf25 Hf26 3.433140 1_555
Hf25 Hf9 3.476108 1_555
Hf25 Hf8 3.476118 1_455
Hf26 Ir10 2.707942 1_555
Hf26 Ir1 2.707942 1_555
Hf26 Ir9 2.713570 1_555
Hf26 Ir2 2.713570 1_555
Hf26 Ir14 2.919922 1_555
Hf26 Hf8 3.253838 1_455
Hf26 Hf7 3.253838 1_545
Hf26 Hf27 3.433140 1_555
Hf27 Ir7 2.707946 1_545
Hf27 Ir2 2.707949 1_555
Hf27 Ir10 2.713568 1_555
Hf27 Ir4 2.713572 1_545
Hf27 Ir15 2.919922 1_555
Hf27 Hf6 3.253838 1_445
Hf27 Hf28 3.433126 1_545
Hf27 Hf7 3.476118 1_545
Hf28 Ir4 2.707946 1_555
Hf28 Ir6 2.707949 1_455
Hf28 Ir5 2.713568 1_455
Hf28 Ir7 2.713572 1_555
Hf28 Ir16 2.919922 1_555
Hf28 Hf6 3.476108 1_455
Hf28 Hf4 3.476118 1_554
Hf29 Ir3 2.707946 1_555
Hf29 Ir0 2.707949 1_545
Hf29 Ir11 2.713568 1_545
Hf29 Ir8 2.713572 1_555
Hf29 Ir17 2.919922 1_555
Hf29 Hf5 3.253824 1_545
Hf29 Hf9 3.253838 1_655
Hf29 Hf3 3.476118 1_556
Ir0 Ir12 2.957584 1_556
Ir1 Ir13 2.957587 1_555
Ir10 Ir15 2.957587 1_555
Ir11 Ir17 2.957587 1_565
Ir12 Ir6 2.957584 1_555
Ir13 Ir3 2.957582 1_455
Ir14 Ir9 2.957584 1_555
Ir14 Ir2 2.957584 1_555
Ir15 Ir4 2.957582 1_545
Ir16 Ir7 2.957582 1_555
Ir16 Ir5 2.957587 1_455
Ir17 Ir8 2.957582 1_555
