# generated using pymatgen
data_Zn3Cu2(SiO4)3
_symmetry_space_group_name_H-M   'P 1'
_cell_length_a   10.17377026
_cell_length_b   10.17377026
_cell_length_c   10.17377026
_cell_angle_alpha   109.47122063
_cell_angle_beta   109.47122063
_cell_angle_gamma   109.47122063
_symmetry_Int_Tables_number   1
_chemical_formula_structural   Zn3Cu2(SiO4)3
_chemical_formula_sum   'Zn12 Cu8 Si12 O48'
_cell_volume   810.63227060
_cell_formula_units_Z   4
loop_
 _symmetry_equiv_pos_site_id
 _symmetry_equiv_pos_as_xyz
  1  'x, y, z'
loop_
 _atom_site_type_symbol
 _atom_site_label
 _atom_site_symmetry_multiplicity
 _atom_site_fract_x
 _atom_site_fract_y
 _atom_site_fract_z
 _atom_site_occupancy
  Zn  Zn0  1  0.75000000  0.12500000  0.37500000  1
  Zn  Zn1  1  0.25000000  0.37500000  0.12500000  1
  Zn  Zn2  1  0.12500000  0.25000000  0.37500000  1
  Zn  Zn3  1  0.37500000  0.75000000  0.12500000  1
  Zn  Zn4  1  0.75000000  0.62500000  0.87500000  1
  Zn  Zn5  1  0.12500000  0.37500000  0.75000000  1
  Zn  Zn6  1  0.62500000  0.87500000  0.75000000  1
  Zn  Zn7  1  0.25000000  0.87500000  0.62500000  1
  Zn  Zn8  1  0.87500000  0.62500000  0.25000000  1
  Zn  Zn9  1  0.62500000  0.25000000  0.87500000  1
  Zn  Zn10  1  0.87500000  0.75000000  0.62500000  1
  Zn  Zn11  1  0.37500000  0.12500000  0.25000000  1
  Cu  Cu0  1  0.00000000  0.00000000  0.00000000  1
  Cu  Cu1  1  0.50000000  0.00000000  0.00000000  1
  Cu  Cu2  1  0.00000000  0.50000000  0.00000000  1
  Cu  Cu3  1  0.50000000  0.50000000  0.00000000  1
  Cu  Cu4  1  0.00000000  0.50000000  0.50000000  1
  Cu  Cu5  1  0.50000000  0.00000000  0.50000000  1
  Cu  Cu6  1  0.50000000  0.50000000  0.50000000  1
  Cu  Cu7  1  0.00000000  0.00000000  0.50000000  1
  Si  Si0  1  0.12500000  0.87500000  0.25000000  1
  Si  Si1  1  0.87500000  0.12500000  0.75000000  1
  Si  Si2  1  0.25000000  0.62500000  0.37500000  1
  Si  Si3  1  0.37500000  0.25000000  0.62500000  1
  Si  Si4  1  0.75000000  0.87500000  0.12500000  1
  Si  Si5  1  0.12500000  0.75000000  0.87500000  1
  Si  Si6  1  0.37500000  0.62500000  0.75000000  1
  Si  Si7  1  0.62500000  0.75000000  0.37500000  1
  Si  Si8  1  0.87500000  0.25000000  0.12500000  1
  Si  Si9  1  0.25000000  0.12500000  0.87500000  1
  Si  Si10  1  0.75000000  0.37500000  0.62500000  1
  Si  Si11  1  0.62500000  0.37500000  0.25000000  1
  O  O0  1  0.47997400  0.37562300  0.29030100  1
  O  O1  1  0.31032700  0.89564900  0.02002600  1
  O  O2  1  0.60435100  0.91467800  0.12437700  1
  O  O3  1  0.58532200  0.18967300  0.20969900  1
  O  O4  1  0.12437700  0.02002600  0.20969900  1
  O  O5  1  0.18967300  0.20969900  0.58532200  1
  O  O6  1  0.18967300  0.47997400  0.60435100  1
  O  O7  1  0.20969900  0.58532200  0.18967300  1
  O  O8  1  0.37562300  0.58532200  0.89564900  1
  O  O9  1  0.91467800  0.29030100  0.31032700  1
  O  O10  1  0.29030100  0.31032700  0.91467800  1
  O  O11  1  0.20969900  0.12437700  0.02002600  1
  O  O12  1  0.47997400  0.60435100  0.18967300  1
  O  O13  1  0.89564900  0.37562300  0.58532200  1
  O  O14  1  0.02002600  0.20969900  0.12437700  1
  O  O15  1  0.60435100  0.18967300  0.47997400  1
  O  O16  1  0.58532200  0.89564900  0.37562300  1
  O  O17  1  0.02002600  0.31032700  0.89564900  1
  O  O18  1  0.91467800  0.12437700  0.60435100  1
  O  O19  1  0.62437700  0.41467800  0.10435100  1
  O  O20  1  0.12437700  0.60435100  0.91467800  1
  O  O21  1  0.29030100  0.47997400  0.37562300  1
  O  O22  1  0.89564900  0.02002600  0.31032700  1
  O  O23  1  0.31032700  0.91467800  0.29030100  1
  O  O24  1  0.52002600  0.62437700  0.70969900  1
  O  O25  1  0.68967300  0.10435100  0.97997400  1
  O  O26  1  0.39564900  0.08532200  0.87562300  1
  O  O27  1  0.41467800  0.81032700  0.79030100  1
  O  O28  1  0.87562300  0.97997400  0.79030100  1
  O  O29  1  0.81032700  0.79030100  0.41467800  1
  O  O30  1  0.81032700  0.52002600  0.39564900  1
  O  O31  1  0.79030100  0.41467800  0.81032700  1
  O  O32  1  0.68967300  0.08532200  0.70969900  1
  O  O33  1  0.10435100  0.97997400  0.68967300  1
  O  O34  1  0.70969900  0.52002600  0.62437700  1
  O  O35  1  0.62437700  0.70969900  0.52002600  1
  O  O36  1  0.87562300  0.39564900  0.08532200  1
  O  O37  1  0.08532200  0.87562300  0.39564900  1
  O  O38  1  0.97997400  0.68967300  0.10435100  1
  O  O39  1  0.41467800  0.10435100  0.62437700  1
  O  O40  1  0.39564900  0.81032700  0.52002600  1
  O  O41  1  0.97997400  0.79030100  0.87562300  1
  O  O42  1  0.10435100  0.62437700  0.41467800  1
  O  O43  1  0.52002600  0.39564900  0.81032700  1
  O  O44  1  0.79030100  0.87562300  0.97997400  1
  O  O45  1  0.70969900  0.68967300  0.08532200  1
  O  O46  1  0.08532200  0.70969900  0.68967300  1
  O  O47  1  0.37562300  0.29030100  0.47997400  1
loop_
_geom_bond_atom_site_label_1
_geom_bond_atom_site_label_2
_geom_bond_distance
_geom_bond_site_symmetry_2
Cu0 O11 1.983139 1_555
Cu0 O4 1.983139 1_555
Cu0 O14 1.983139 1_555
Cu0 O44 1.983139 1_444
Cu0 O41 1.983139 1_444
Cu0 O28 1.983139 1_444
Cu1 O2 1.983139 1_545
Cu1 O3 1.983139 1_555
Cu1 O25 1.983139 1_554
Cu1 O26 1.983139 1_554
Cu1 O27 1.983139 1_544
Cu1 O1 1.983139 1_545
Cu2 O20 1.983139 1_554
Cu2 O7 1.983139 1_555
Cu2 O38 1.983139 1_455
Cu2 O36 1.983139 1_455
Cu2 O17 1.983139 1_554
Cu2 O31 1.983139 1_454
Cu3 O12 1.983139 1_555
Cu3 O45 1.983139 1_555
Cu3 O19 1.983139 1_555
Cu3 O10 1.983139 1_554
Cu3 O8 1.983139 1_554
Cu3 O43 1.983139 1_554
Cu4 O6 1.983139 1_555
Cu4 O46 1.983139 1_555
Cu4 O42 1.983139 1_555
Cu4 O13 1.983139 1_455
Cu4 O9 1.983139 1_455
Cu4 O30 1.983139 1_455
Cu5 O15 1.983139 1_555
Cu5 O32 1.983139 1_555
Cu5 O39 1.983139 1_555
Cu5 O16 1.983139 1_545
Cu5 O23 1.983139 1_545
Cu5 O40 1.983139 1_545
Cu6 O21 1.983139 1_555
Cu6 O0 1.983139 1_555
Cu6 O47 1.983139 1_555
Cu6 O24 1.983139 1_555
Cu6 O34 1.983139 1_555
Cu6 O35 1.983139 1_555
Cu7 O18 1.983139 1_455
Cu7 O5 1.983139 1_555
Cu7 O33 1.983139 1_545
Cu7 O37 1.983139 1_545
Cu7 O29 1.983139 1_445
Cu7 O22 1.983139 1_455
O0 Si11 1.659200 1_555
O0 Zn11 2.237360 1_555
O0 Zn1 2.379562 1_555
O1 Si5 1.659200 1_554
O1 Zn3 2.237360 1_555
O1 Zn11 2.379562 1_565
O2 Si4 1.659200 1_555
O2 Zn0 2.237360 1_565
O2 Zn3 2.379562 1_555
O3 Si11 1.659200 1_555
O3 Zn11 2.237360 1_555
O3 Zn0 2.379562 1_555
O4 Si0 1.659200 1_545
O4 Zn11 2.237360 1_555
O4 Zn2 2.379562 1_555
O5 Si3 1.659200 1_555
O5 Zn2 2.237360 1_555
O5 Zn5 2.379562 1_555
O6 Si6 1.659200 1_555
O6 Zn5 2.237360 1_555
O6 Zn2 2.379562 1_555
O7 Si2 1.659200 1_555
O7 Zn1 2.237360 1_555
O7 Zn3 2.379562 1_555
O8 Si6 1.659200 1_555
O8 Zn5 2.237360 1_555
O8 Zn3 2.379562 1_556
O9 Si8 1.659200 1_555
O9 Zn2 2.237360 1_655
O9 Zn0 2.379562 1_555
O10 Si9 1.659200 1_555
O10 Zn1 2.237360 1_556
O10 Zn5 2.379562 1_555
O11 Si9 1.659200 1_554
O11 Zn1 2.237360 1_555
O11 Zn11 2.379562 1_555
O12 Si7 1.659200 1_555
O12 Zn3 2.237360 1_555
O12 Zn1 2.379562 1_555
O13 Si10 1.659200 1_555
O13 Zn0 2.237360 1_555
O13 Zn5 2.379562 1_655
O14 Si8 1.659200 1_455
O14 Zn2 2.237360 1_555
O14 Zn1 2.379562 1_555
O15 Si10 1.659200 1_555
O15 Zn0 2.237360 1_555
O15 Zn11 2.379562 1_555
O16 Si7 1.659200 1_555
O16 Zn3 2.237360 1_555
O16 Zn0 2.379562 1_565
O17 Si1 1.659200 1_455
O17 Zn5 2.237360 1_555
O17 Zn1 2.379562 1_556
O18 Si1 1.659200 1_555
O18 Zn5 2.237360 1_655
O18 Zn0 2.379562 1_555
O19 Si11 1.659200 1_555
O19 Zn8 2.237360 1_555
O19 Zn9 2.379562 1_554
O20 Si5 1.659200 1_555
O20 Zn3 2.237360 1_556
O20 Zn5 2.379562 1_555
O21 Si2 1.659200 1_555
O21 Zn1 2.237360 1_555
O21 Zn2 2.379562 1_555
O22 Si4 1.659200 1_545
O22 Zn0 2.237360 1_555
O22 Zn2 2.379562 1_655
O23 Si0 1.659200 1_555
O23 Zn11 2.237360 1_565
O23 Zn3 2.379562 1_555
O24 Si6 1.659200 1_555
O24 Zn6 2.237360 1_555
O24 Zn4 2.379562 1_555
O25 Si8 1.659200 1_556
O25 Zn9 2.237360 1_555
O25 Zn6 2.379562 1_545
O26 Si9 1.659200 1_555
O26 Zn7 2.237360 1_545
O26 Zn9 2.379562 1_555
O27 Si6 1.659200 1_555
O27 Zn6 2.237360 1_555
O27 Zn7 2.379562 1_555
O28 Si1 1.659200 1_565
O28 Zn6 2.237360 1_555
O28 Zn10 2.379562 1_555
O29 Si7 1.659200 1_555
O29 Zn10 2.237360 1_555
O29 Zn8 2.379562 1_555
O30 Si11 1.659200 1_555
O30 Zn8 2.237360 1_555
O30 Zn10 2.379562 1_555
O31 Si10 1.659200 1_555
O31 Zn4 2.237360 1_555
O31 Zn9 2.379562 1_555
O32 Si1 1.659200 1_555
O32 Zn6 2.237360 1_545
O32 Zn9 2.379562 1_555
O33 Si9 1.659200 1_565
O33 Zn7 2.237360 1_555
O33 Zn10 2.379562 1_455
O34 Si10 1.659200 1_555
O34 Zn4 2.237360 1_555
O34 Zn10 2.379562 1_555
O35 Si7 1.659200 1_555
O35 Zn10 2.237360 1_555
O35 Zn6 2.379562 1_555
O36 Si8 1.659200 1_555
O36 Zn9 2.237360 1_554
O36 Zn8 2.379562 1_555
O37 Si0 1.659200 1_555
O37 Zn8 2.237360 1_455
O37 Zn7 2.379562 1_555
O38 Si0 1.659200 1_655
O38 Zn8 2.237360 1_555
O38 Zn4 2.379562 1_554
O39 Si3 1.659200 1_555
O39 Zn9 2.237360 1_555
O39 Zn7 2.379562 1_545
O40 Si2 1.659200 1_555
O40 Zn7 2.237360 1_555
O40 Zn6 2.379562 1_555
O41 Si5 1.659200 1_655
O41 Zn10 2.237360 1_555
O41 Zn4 2.379562 1_555
O42 Si2 1.659200 1_555
O42 Zn7 2.237360 1_555
O42 Zn8 2.379562 1_455
O43 Si3 1.659200 1_555
O43 Zn9 2.237360 1_555
O43 Zn4 2.379562 1_555
O44 Si4 1.659200 1_556
O44 Zn4 2.237360 1_555
O44 Zn6 2.379562 1_555
O45 Si4 1.659200 1_555
O45 Zn4 2.237360 1_554
O45 Zn8 2.379562 1_555
O46 Si5 1.659200 1_555
O46 Zn10 2.237360 1_455
O46 Zn7 2.379562 1_555
O47 Si3 1.659200 1_555
O47 Zn2 2.237360 1_555
O47 Zn11 2.379562 1_555
