# generated using pymatgen
data_Ti4C3N
_symmetry_space_group_name_H-M   'P 1'
_cell_length_a   10.10606240
_cell_length_b   10.10606240
_cell_length_c   10.10606284
_cell_angle_alpha   17.34007594
_cell_angle_beta   17.34007594
_cell_angle_gamma   17.34007798
_symmetry_Int_Tables_number   1
_chemical_formula_structural   Ti4C3N
_chemical_formula_sum   'Ti4 C3 N1'
_cell_volume   80.00830387
_cell_formula_units_Z   1
loop_
 _symmetry_equiv_pos_site_id
 _symmetry_equiv_pos_as_xyz
  1  'x, y, z'
loop_
 _atom_site_type_symbol
 _atom_site_label
 _atom_site_symmetry_multiplicity
 _atom_site_fract_x
 _atom_site_fract_y
 _atom_site_fract_z
 _atom_site_occupancy
  Ti  Ti0  1  0.87459126  0.87459126  0.87459126  1
  Ti  Ti1  1  0.12540874  0.12540874  0.12540874  1
  Ti  Ti2  1  0.37589046  0.37589046  0.37589046  1
  Ti  Ti3  1  0.62410954  0.62410954  0.62410954  1
  C  C0  1  0.25125095  0.25125095  0.25125095  1
  C  C1  1  0.50000000  0.50000000  0.50000000  1
  C  C2  1  0.74874905  0.74874905  0.74874905  1
  N  N0  1  0.00000000  0.00000000  0.00000000  1
loop_
_geom_bond_atom_site_label_1
_geom_bond_atom_site_label_2
_geom_bond_distance
_geom_bond_site_symmetry_2
C0 Ti3 2.118239 1_554
C0 Ti3 2.118239 1_455
C0 Ti3 2.118239 1_545
C0 Ti0 2.183493 1_445
C0 Ti0 2.183494 1_454
C0 Ti0 2.183494 1_544
C1 Ti0 2.147486 1_554
C1 Ti1 2.147486 1_556
C1 Ti0 2.147487 1_455
C1 Ti0 2.147487 1_545
C1 Ti1 2.147487 1_655
C1 Ti1 2.147487 1_565
C2 Ti2 2.118239 1_556
C2 Ti2 2.118239 1_565
C2 Ti2 2.118239 1_655
C2 Ti1 2.183493 1_665
C2 Ti1 2.183494 1_656
C2 Ti1 2.183494 1_566
N0 Ti2 2.169967 1_554
N0 Ti3 2.169967 1_445
N0 Ti2 2.169968 1_545
N0 Ti2 2.169968 1_455
N0 Ti3 2.169968 1_544
N0 Ti3 2.169968 1_454
