# generated using pymatgen
data_Sr2CaUO6
_symmetry_space_group_name_H-M   'P 1'
_cell_length_a   6.13709500
_cell_length_b   5.97358500
_cell_length_c   10.39855606
_cell_angle_alpha   55.15899814
_cell_angle_beta   90.00000000
_cell_angle_gamma   90.00000000
_symmetry_Int_Tables_number   1
_chemical_formula_structural   Sr2CaUO6
_chemical_formula_sum   'Sr4 Ca2 U2 O12'
_cell_volume   312.87930745
_cell_formula_units_Z   2
loop_
 _symmetry_equiv_pos_site_id
 _symmetry_equiv_pos_as_xyz
  1  'x, y, z'
loop_
 _atom_site_type_symbol
 _atom_site_label
 _atom_site_symmetry_multiplicity
 _atom_site_fract_x
 _atom_site_fract_y
 _atom_site_fract_z
 _atom_site_occupancy
  Sr  Sr0  1  0.54738300  0.73389700  0.75294100  1
  Sr  Sr1  1  0.04738300  0.26610300  0.74705900  1
  Sr  Sr2  1  0.95261700  0.73389700  0.25294100  1
  Sr  Sr3  1  0.45261700  0.26610300  0.24705900  1
  Ca  Ca0  1  0.50000000  0.50000000  0.50000000  1
  Ca  Ca1  1  0.00000000  0.50000000  0.00000000  1
  U  U0  1  0.50000000  0.00000000  0.00000000  1
  U  U1  1  0.00000000  0.00000000  0.50000000  1
  O  O0  1  0.54390000  0.87038400  0.23352100  1
  O  O1  1  0.04390000  0.12961600  0.26647900  1
  O  O2  1  0.45610000  0.12961600  0.76647900  1
  O  O3  1  0.95610000  0.87038400  0.73352100  1
  O  O4  1  0.81149100  0.66834800  0.54899100  1
  O  O5  1  0.31149100  0.33165200  0.95100900  1
  O  O6  1  0.18850900  0.33165200  0.45100900  1
  O  O7  1  0.68850900  0.66834800  0.04899100  1
  O  O8  1  0.22090600  0.75181400  0.06179400  1
  O  O9  1  0.72090600  0.24818600  0.43820600  1
  O  O10  1  0.77909400  0.24818600  0.93820600  1
  O  O11  1  0.27909400  0.75181400  0.56179400  1
loop_
_geom_bond_atom_site_label_1
_geom_bond_atom_site_label_2
_geom_bond_distance
_geom_bond_site_symmetry_2
Ca0 O4 2.347469 1_555
Ca0 O6 2.347469 1_555
Ca0 O9 2.370231 1_555
Ca0 O11 2.370231 1_555
Ca0 O2 2.375098 1_555
Ca0 O0 2.375098 1_555
Ca1 O5 2.347469 1_554
Ca1 O7 2.347469 1_455
Ca1 O8 2.370231 1_555
Ca1 O10 2.370231 1_454
Ca1 O1 2.375098 1_555
Ca1 O3 2.375098 1_454
O0 U0 2.102467 1_565
O0 Sr3 2.510323 1_565
O0 Sr2 2.609433 1_555
O1 U1 2.102467 1_555
O1 Sr2 2.510323 1_445
O1 Sr3 2.609433 1_555
O2 U0 2.102467 1_556
O2 Sr0 2.510323 1_545
O2 Sr1 2.609433 1_555
O3 U1 2.102467 1_665
O3 Sr1 2.510323 1_665
O3 Sr0 2.609433 1_555
O4 U1 2.090384 1_665
O4 Sr1 2.541030 1_655
O4 Sr0 2.868286 1_555
O4 Sr2 3.000542 1_555
O5 U0 2.090384 1_556
O5 Sr0 2.541030 1_555
O5 Sr1 2.868286 1_555
O5 Sr3 3.000542 1_556
O6 U1 2.090384 1_555
O6 Sr2 2.541030 1_455
O6 Sr3 2.868286 1_555
O6 Sr1 3.000542 1_555
O7 U0 2.090384 1_565
O7 Sr3 2.541030 1_555
O7 Sr2 2.868286 1_555
O7 Sr0 3.000542 1_554
O8 U0 2.110961 1_565
O8 Sr2 2.535776 1_455
O8 Sr3 2.786610 1_555
O8 Sr1 3.129701 1_564
O9 U1 2.110961 1_655
O9 Sr3 2.535776 1_555
O9 Sr2 2.786610 1_555
O9 Sr0 3.129701 1_545
O10 U0 2.110961 1_556
O10 Sr1 2.535776 1_655
O10 Sr0 2.786610 1_555
O10 Sr2 3.129701 1_546
O11 U1 2.110961 1_565
O11 Sr0 2.535776 1_555
O11 Sr1 2.786610 1_555
O11 Sr3 3.129701 1_565
