# generated using pymatgen
data_Li6NbO6
_symmetry_space_group_name_H-M   'P 1'
_cell_length_a   6.03135417
_cell_length_b   5.62239810
_cell_length_c   9.02824646
_cell_angle_alpha   89.09545028
_cell_angle_beta   91.68659720
_cell_angle_gamma   122.43676407
_symmetry_Int_Tables_number   1
_chemical_formula_structural   Li6NbO6
_chemical_formula_sum   'Li12 Nb2 O12'
_cell_volume   258.27705305
_cell_formula_units_Z   2
loop_
 _symmetry_equiv_pos_site_id
 _symmetry_equiv_pos_as_xyz
  1  'x, y, z'
loop_
 _atom_site_type_symbol
 _atom_site_label
 _atom_site_symmetry_multiplicity
 _atom_site_fract_x
 _atom_site_fract_y
 _atom_site_fract_z
 _atom_site_occupancy
  Li  Li0  1  0.85708200  0.83452200  0.68462000  1
  Li  Li1  1  0.14291800  0.16547800  0.31538000  1
  Li  Li2  1  0.54576600  0.70876700  0.12998500  1
  Li  Li3  1  0.47744000  0.83452200  0.81538000  1
  Li  Li4  1  0.45423400  0.29123300  0.87001500  1
  Li  Li5  1  0.52256000  0.16547800  0.18462000  1
  Li  Li6  1  0.87749500  0.39185700  0.87077200  1
  Li  Li7  1  0.66300100  0.70876700  0.37001500  1
  Li  Li8  1  0.12250500  0.60814300  0.12922800  1
  Li  Li9  1  0.33699900  0.29123300  0.62998500  1
  Li  Li10  1  0.01436300  0.39185700  0.62922800  1
  Li  Li11  1  0.98563700  0.60814300  0.37077200  1
  Nb  Nb0  1  0.00000000  0.00000000  0.00000000  1
  Nb  Nb1  1  0.50000000  0.00000000  0.50000000  1
  O  O0  1  0.72490800  0.66756800  0.88807300  1
  O  O1  1  0.27509200  0.33243200  0.11192700  1
  O  O2  1  0.74732700  0.12977900  0.04126400  1
  O  O3  1  0.44266000  0.66756800  0.61192700  1
  O  O4  1  0.25267300  0.87022100  0.95873600  1
  O  O5  1  0.55734000  0.33243200  0.38807300  1
  O  O6  1  0.09788400  0.22091200  0.80576100  1
  O  O7  1  0.88245200  0.12977900  0.45873600  1
  O  O8  1  0.90211600  0.77908800  0.19423900  1
  O  O9  1  0.11754800  0.87022100  0.54126400  1
  O  O10  1  0.62302700  0.22091200  0.69423900  1
  O  O11  1  0.37697300  0.77908800  0.30576100  1
loop_
_geom_bond_atom_site_label_1
_geom_bond_atom_site_label_2
_geom_bond_distance
_geom_bond_site_symmetry_2
Li0 O9 1.989104 1_655
Li0 O0 2.029674 1_555
Li0 O6 2.149850 1_665
Li0 O3 2.228326 1_555
Li0 O7 2.564580 1_565
Li1 O7 1.989104 1_455
Li1 O1 2.029674 1_555
Li1 O8 2.149850 1_445
Li1 O5 2.228326 1_555
Li1 O9 2.564580 1_545
Li2 O1 1.859699 1_555
Li2 O8 2.033344 1_555
Li2 O11 2.063456 1_555
Li2 O2 2.152471 1_565
Li2 O0 2.532680 1_554
Li3 O4 1.989104 1_555
Li3 O3 2.029674 1_555
Li3 O10 2.149850 1_565
Li3 O0 2.228326 1_555
Li3 O2 2.564580 1_566
Li4 O0 1.859699 1_555
Li4 O6 2.033344 1_555
Li4 O10 2.063456 1_555
Li4 O4 2.152471 1_545
Li4 O1 2.532680 1_556
Li5 O2 1.989104 1_555
Li5 O5 2.029674 1_555
Li5 O11 2.149850 1_545
Li5 O1 2.228326 1_555
Li5 O4 2.564580 1_544
Li6 O2 1.978738 1_556
Li6 O10 2.035051 1_555
Li6 O6 2.114087 1_655
Li6 O0 2.195642 1_555
Li6 O4 2.533331 1_655
Li7 O5 1.859699 1_555
Li7 O11 2.033338 1_555
Li7 O8 2.063460 1_555
Li7 O7 2.152471 1_565
Li7 O3 2.532680 1_555
Li8 O4 1.978738 1_554
Li8 O11 2.035051 1_555
Li8 O8 2.114087 1_455
Li8 O1 2.195642 1_555
Li8 O2 2.533331 1_455
Li9 O3 1.859699 1_555
Li9 O10 2.033338 1_555
Li9 O6 2.063460 1_555
Li9 O9 2.152471 1_545
Li9 O5 2.532680 1_555
Li10 O7 1.978738 1_455
Li10 O6 2.035045 1_555
Li10 O10 2.114097 1_455
Li10 O3 2.195637 1_555
Li10 O9 2.533333 1_555
Li11 O9 1.978738 1_655
Li11 O8 2.035045 1_555
Li11 O11 2.114097 1_655
Li11 O5 2.195637 1_555
Li11 O7 2.533333 1_555
Nb0 O0 1.975261 1_444
Nb0 O1 1.975261 1_555
Nb0 O8 2.042559 1_445
Nb0 O6 2.042559 1_554
Nb0 O4 2.056339 1_544
Nb0 O2 2.056339 1_455
Nb1 O3 1.975261 1_545
Nb1 O5 1.975261 1_555
Nb1 O11 2.042559 1_545
Nb1 O10 2.042559 1_555
Nb1 O9 2.056339 1_545
Nb1 O7 2.056339 1_555
