# generated using pymatgen
data_ErAlSi
_symmetry_space_group_name_H-M   'P 1'
_cell_length_a   4.07845000
_cell_length_b   4.07845000
_cell_length_c   7.78767813
_cell_angle_alpha   74.81996567
_cell_angle_beta   74.81996567
_cell_angle_gamma   90.00000000
_symmetry_Int_Tables_number   1
_chemical_formula_structural   ErAlSi
_chemical_formula_sum   'Er2 Al2 Si2'
_cell_volume   120.32891202
_cell_formula_units_Z   2
loop_
 _symmetry_equiv_pos_site_id
 _symmetry_equiv_pos_as_xyz
  1  'x, y, z'
loop_
 _atom_site_type_symbol
 _atom_site_label
 _atom_site_symmetry_multiplicity
 _atom_site_fract_x
 _atom_site_fract_y
 _atom_site_fract_z
 _atom_site_occupancy
  Er  Er0  1  0.87636800  0.62636800  0.24726500  1
  Er  Er1  1  0.12636800  0.37636800  0.74726500  1
  Al  Al0  1  0.54182500  0.79182500  0.91635000  1
  Al  Al1  1  0.29182500  0.04182500  0.41635000  1
  Si  Si0  1  0.45680800  0.20680800  0.08638500  1
  Si  Si1  1  0.70680800  0.95680800  0.58638500  1
loop_
_geom_bond_atom_site_label_1
_geom_bond_atom_site_label_2
_geom_bond_distance
_geom_bond_site_symmetry_2
Er0 Si0 3.109876 1_665
Er0 Si0 3.109876 1_565
Er0 Si0 3.109876 1_655
Er0 Si0 3.109876 1_555
Er0 Si1 3.190083 1_545
Er0 Si1 3.190084 1_555
Er1 Si1 3.109876 1_555
Er1 Si1 3.109876 1_545
Er1 Si1 3.109876 1_455
Er1 Si1 3.109876 1_445
Er1 Si0 3.190083 1_456
Er1 Si0 3.190084 1_556
Al0 Si0 2.381474 1_556
Al0 Si0 2.381478 1_566
Al0 Si1 2.386973 1_555
Al0 Er1 3.132570 1_555
Al0 Er1 3.132572 1_655
Al0 Er1 3.132572 1_565
Al0 Er1 3.132575 1_665
Al0 Er0 3.144666 1_456
Al0 Er0 3.144669 1_556
Al1 Si1 2.381474 1_445
Al1 Si1 2.381478 1_545
Al1 Si0 2.386973 1_555
Al1 Er0 3.132570 1_445
Al1 Er0 3.132572 1_455
Al1 Er0 3.132572 1_545
Al1 Er0 3.132575 1_555
Al1 Er1 3.144666 1_545
Al1 Er1 3.144669 1_555
