# generated using pymatgen
data_Ta
_symmetry_space_group_name_H-M   'P 1'
_cell_length_a   4.68865175
_cell_length_b   4.68865175
_cell_length_c   4.68865175
_cell_angle_alpha   70.52877937
_cell_angle_beta   70.52877937
_cell_angle_gamma   109.47122063
_symmetry_Int_Tables_number   1
_chemical_formula_structural   Ta
_chemical_formula_sum   Ta4
_cell_volume   79.34545214
_cell_formula_units_Z   4
loop_
 _symmetry_equiv_pos_site_id
 _symmetry_equiv_pos_as_xyz
  1  'x, y, z'
loop_
 _atom_site_type_symbol
 _atom_site_label
 _atom_site_symmetry_multiplicity
 _atom_site_fract_x
 _atom_site_fract_y
 _atom_site_fract_z
 _atom_site_occupancy
  Ta  Ta0  1  0.50000000  0.50000000  -0.00000000  1
  Ta  Ta1  1  0.50000000  -0.00000000  0.50000000  1
  Ta  Ta2  1  0.00000000  0.50000000  0.50000000  1
  Ta  Ta3  1  0.00000000  0.00000000  0.00000000  1
loop_
_geom_bond_atom_site_label_1
_geom_bond_atom_site_label_2
_geom_bond_distance
_geom_bond_site_symmetry_2
Ta0 Ta3 2.706994 1_665
Ta0 Ta2 2.706994 1_555
Ta0 Ta3 2.706994 1_555
Ta0 Ta2 2.706994 1_654
Ta0 Ta1 2.706994 1_555
Ta0 Ta1 2.706994 1_564
Ta1 Ta2 2.706994 1_655
Ta1 Ta2 2.706994 1_545
Ta1 Ta3 2.706994 1_556
Ta1 Ta3 2.706994 1_655
Ta2 Ta3 2.706994 1_556
Ta2 Ta3 2.706994 1_565
