# generated using pymatgen
data_SbS2O9
_symmetry_space_group_name_H-M   'P 1'
_cell_length_a   9.28682400
_cell_length_b   11.08085700
_cell_length_c   13.79618600
_cell_angle_alpha   90.00000000
_cell_angle_beta   90.00000000
_cell_angle_gamma   90.00000000
_symmetry_Int_Tables_number   1
_chemical_formula_structural   SbS2O9
_chemical_formula_sum   'Sb8 S16 O72'
_cell_volume   1419.70988508
_cell_formula_units_Z   8
loop_
 _symmetry_equiv_pos_site_id
 _symmetry_equiv_pos_as_xyz
  1  'x, y, z'
loop_
 _atom_site_type_symbol
 _atom_site_label
 _atom_site_symmetry_multiplicity
 _atom_site_fract_x
 _atom_site_fract_y
 _atom_site_fract_z
 _atom_site_occupancy
  Sb  Sb0  1  0.16508600  0.26199900  0.71804900  1
  Sb  Sb1  1  0.66508600  0.73800100  0.28195100  1
  Sb  Sb2  1  0.66508600  0.26199900  0.78195100  1
  Sb  Sb3  1  0.16508600  0.73800100  0.21804900  1
  Sb  Sb4  1  0.33833700  0.98388100  0.50820800  1
  Sb  Sb5  1  0.83833700  0.01611900  0.49179200  1
  Sb  Sb6  1  0.83833700  0.98388100  0.99179200  1
  Sb  Sb7  1  0.33833700  0.01611900  0.00820800  1
  S  S0  1  0.48886400  0.98977100  0.71932900  1
  S  S1  1  0.98886400  0.01022900  0.28067100  1
  S  S2  1  0.98886400  0.98977100  0.78067100  1
  S  S3  1  0.48886400  0.01022900  0.21932900  1
  S  S4  1  0.10412100  0.22546600  0.48811800  1
  S  S5  1  0.60412100  0.77453400  0.51188200  1
  S  S6  1  0.60412100  0.22546600  0.01188200  1
  S  S7  1  0.10412100  0.77453400  0.98811800  1
  S  S8  1  0.90833700  0.47060700  0.76937300  1
  S  S9  1  0.40833700  0.52939300  0.23062700  1
  S  S10  1  0.40833700  0.47060700  0.73062700  1
  S  S11  1  0.90833700  0.52939300  0.26937300  1
  S  S12  1  0.11268100  0.76062100  0.47018400  1
  S  S13  1  0.61268100  0.23937900  0.52981600  1
  S  S14  1  0.61268100  0.76062100  0.02981600  1
  S  S15  1  0.11268100  0.23937900  0.97018400  1
  O  O0  1  0.31601200  0.47724000  0.00381800  1
  O  O1  1  0.81601200  0.52276000  0.99618200  1
  O  O2  1  0.81601200  0.47724000  0.49618200  1
  O  O3  1  0.31601200  0.52276000  0.50381800  1
  O  O4  1  0.10777800  0.73295400  0.75379300  1
  O  O5  1  0.60777800  0.26704600  0.24620700  1
  O  O6  1  0.60777800  0.73295400  0.74620700  1
  O  O7  1  0.10777800  0.26704600  0.25379300  1
  O  O8  1  0.47844500  0.09771500  0.78292900  1
  O  O9  1  0.97844500  0.90228500  0.21707100  1
  O  O10  1  0.97844500  0.09771500  0.71707100  1
  O  O11  1  0.47844500  0.90228500  0.28292900  1
  O  O12  1  0.34765400  0.99228800  0.65734500  1
  O  O13  1  0.84765400  0.00771200  0.34265500  1
  O  O14  1  0.84765400  0.99228800  0.84265500  1
  O  O15  1  0.34765400  0.00771200  0.15734500  1
  O  O16  1  0.61388500  0.98984600  0.65637900  1
  O  O17  1  0.11388500  0.01015400  0.34362100  1
  O  O18  1  0.11388500  0.98984600  0.84362100  1
  O  O19  1  0.61388500  0.01015400  0.15637900  1
  O  O20  1  0.47720500  0.88067000  0.78330500  1
  O  O21  1  0.97720500  0.11933000  0.21669500  1
  O  O22  1  0.97720500  0.88067000  0.71669500  1
  O  O23  1  0.47720500  0.11933000  0.28330500  1
  O  O24  1  0.10332800  0.32053700  0.56653000  1
  O  O25  1  0.60332800  0.67946300  0.43347000  1
  O  O26  1  0.60332800  0.32053700  0.93347000  1
  O  O27  1  0.10332800  0.67946300  0.06653000  1
  O  O28  1  0.16596300  0.11316500  0.53742400  1
  O  O29  1  0.66596300  0.88683500  0.46257600  1
  O  O30  1  0.66596300  0.11316500  0.96257600  1
  O  O31  1  0.16596300  0.88683500  0.03742400  1
  O  O32  1  0.95300100  0.19702500  0.46057400  1
  O  O33  1  0.45300100  0.80297500  0.53942600  1
  O  O34  1  0.45300100  0.19702500  0.03942600  1
  O  O35  1  0.95300100  0.80297500  0.96057400  1
  O  O36  1  0.19033100  0.26611700  0.40524500  1
  O  O37  1  0.69033100  0.73388300  0.59475500  1
  O  O38  1  0.69033100  0.26611700  0.09475500  1
  O  O39  1  0.19033100  0.73388300  0.90524500  1
  O  O40  1  0.97229700  0.34069800  0.75623100  1
  O  O41  1  0.47229700  0.65930200  0.24376900  1
  O  O42  1  0.47229700  0.34069800  0.74376900  1
  O  O43  1  0.97229700  0.65930200  0.25623100  1
  O  O44  1  0.95430900  0.52004300  0.86390700  1
  O  O45  1  0.45430900  0.47995700  0.13609300  1
  O  O46  1  0.45430900  0.52004300  0.63609300  1
  O  O47  1  0.95430900  0.47995700  0.36390700  1
  O  O48  1  0.74775000  0.44145000  0.77254600  1
  O  O49  1  0.24775000  0.55855000  0.22745400  1
  O  O50  1  0.24775000  0.44145000  0.72745400  1
  O  O51  1  0.74775000  0.55855000  0.27254600  1
  O  O52  1  0.94397000  0.54700300  0.68832500  1
  O  O53  1  0.44397000  0.45299700  0.31167500  1
  O  O54  1  0.44397000  0.54700300  0.81167500  1
  O  O55  1  0.94397000  0.45299700  0.18832500  1
  O  O56  1  0.20427300  0.75681900  0.38061800  1
  O  O57  1  0.70427300  0.24318100  0.61938200  1
  O  O58  1  0.70427300  0.75681900  0.11938200  1
  O  O59  1  0.20427300  0.24318100  0.88061800  1
  O  O60  1  0.17000200  0.86634300  0.53276700  1
  O  O61  1  0.67000200  0.13365700  0.46723300  1
  O  O62  1  0.67000200  0.86634300  0.96723300  1
  O  O63  1  0.17000200  0.13365700  0.03276700  1
  O  O64  1  0.12772100  0.64695400  0.52560300  1
  O  O65  1  0.62772100  0.35304600  0.47439700  1
  O  O66  1  0.62772100  0.64695400  0.97439700  1
  O  O67  1  0.12772100  0.35304600  0.02560300  1
  O  O68  1  0.96124900  0.78804200  0.45058800  1
  O  O69  1  0.46124900  0.21195800  0.54941200  1
  O  O70  1  0.46124900  0.78804200  0.04941200  1
  O  O71  1  0.96124900  0.21195800  0.95058800  1
loop_
_geom_bond_atom_site_label_1
_geom_bond_atom_site_label_2
_geom_bond_distance
_geom_bond_site_symmetry_2
O8 S0 1.486588 1_545
O8 Sb2 2.513643 1_555
O9 S1 1.486588 1_565
O9 Sb3 2.513643 1_655
O10 S2 1.486588 1_545
O10 Sb0 2.513643 1_655
O11 S3 1.486588 1_565
O11 Sb1 2.513643 1_555
O12 S0 1.565822 1_555
O12 Sb4 2.061446 1_555
O13 S1 1.565822 1_555
O13 Sb5 2.061446 1_555
O14 S2 1.565822 1_555
O14 Sb6 2.061446 1_555
O15 S3 1.565822 1_555
O15 Sb7 2.061446 1_555
O16 S0 1.449922 1_555
O17 S1 1.449922 1_455
O18 S2 1.449922 1_455
O19 S3 1.449922 1_555
O20 S0 1.500756 1_555
O21 S1 1.500756 1_555
O22 S2 1.500756 1_555
O23 S3 1.500756 1_555
O24 S4 1.510004 1_555
O24 Sb0 2.262609 1_555
O25 S5 1.510004 1_555
O25 Sb1 2.262609 1_555
O26 S6 1.510004 1_556
O26 Sb2 2.262609 1_555
O27 S7 1.510004 1_554
O27 Sb3 2.262609 1_555
O28 S4 1.530055 1_555
O28 Sb4 2.185710 1_545
O29 S5 1.530055 1_555
O29 Sb5 2.185710 1_565
O30 S6 1.530055 1_556
O30 Sb6 2.185710 1_545
O31 S7 1.530055 1_554
O31 Sb7 2.185710 1_565
O32 S4 1.487724 1_655
O32 Sb5 2.310373 1_555
O33 S5 1.487724 1_555
O33 Sb4 2.310373 1_555
O34 S6 1.487724 1_555
O34 Sb7 2.310373 1_555
O35 S7 1.487724 1_655
O35 Sb6 2.310373 1_555
O36 S4 1.466662 1_555
O37 S5 1.466662 1_555
O38 S6 1.466662 1_555
O39 S7 1.466662 1_555
O40 S8 1.567757 1_555
O40 Sb0 2.059971 1_655
O41 S9 1.567757 1_555
O41 Sb1 2.059971 1_555
O42 S10 1.567757 1_555
O42 Sb2 2.059971 1_555
O43 S11 1.567757 1_555
O43 Sb3 2.059971 1_655
O44 S8 1.477603 1_555
O45 S9 1.477603 1_555
O46 S10 1.477603 1_555
O47 S11 1.477603 1_555
O48 S8 1.526566 1_555
O48 Sb2 2.135461 1_555
O49 S9 1.526566 1_555
O49 Sb3 2.135461 1_555
O50 S10 1.526566 1_555
O50 Sb0 2.135461 1_555
O51 S11 1.526566 1_555
O51 Sb1 2.135461 1_555
O52 S8 1.440969 1_555
O53 S9 1.440969 1_555
O54 S10 1.440969 1_555
O55 S11 1.440969 1_555
O56 S12 1.500724 1_555
O56 Sb3 2.281713 1_555
O57 S13 1.500724 1_555
O57 Sb2 2.281713 1_555
O58 S14 1.500724 1_555
O58 Sb1 2.281713 1_555
O59 S15 1.500724 1_555
O59 Sb0 2.281713 1_555
O60 S12 1.549592 1_555
O60 Sb4 2.062765 1_555
O61 S13 1.549592 1_555
O61 Sb5 2.062765 1_555
O62 S14 1.549592 1_556
O62 Sb6 2.062765 1_555
O63 S15 1.549592 1_554
O63 Sb7 2.062765 1_555
O64 S12 1.480030 1_555
O65 S13 1.480030 1_555
O66 S14 1.480030 1_556
O67 S15 1.480030 1_554
O68 S12 1.463952 1_655
O69 S13 1.463952 1_555
O70 S14 1.463952 1_555
O71 S15 1.463952 1_655
