# generated using pymatgen
data_NdMgPd
_symmetry_space_group_name_H-M   'P 1'
_cell_length_a   7.63287000
_cell_length_b   7.63287000
_cell_length_c   4.09958583
_cell_angle_alpha   90.00000000
_cell_angle_beta   90.00000000
_cell_angle_gamma   120.00000152
_symmetry_Int_Tables_number   1
_chemical_formula_structural   NdMgPd
_chemical_formula_sum   'Nd3 Mg3 Pd3'
_cell_volume   206.84562486
_cell_formula_units_Z   3
loop_
 _symmetry_equiv_pos_site_id
 _symmetry_equiv_pos_as_xyz
  1  'x, y, z'
loop_
 _atom_site_type_symbol
 _atom_site_label
 _atom_site_symmetry_multiplicity
 _atom_site_fract_x
 _atom_site_fract_y
 _atom_site_fract_z
 _atom_site_occupancy
  Nd  Nd0  1  0.58454916  0.00000000  0.00000000  1
  Nd  Nd1  1  0.00000000  0.58454916  0.00000000  1
  Nd  Nd2  1  0.41545084  0.41545084  -0.00000000  1
  Mg  Mg0  1  0.23792313  0.00000000  0.50000000  1
  Mg  Mg1  1  0.00000000  0.23792313  0.50000000  1
  Mg  Mg2  1  0.76207687  0.76207687  0.50000000  1
  Pd  Pd0  1  0.33333300  0.66666700  0.50000000  1
  Pd  Pd1  1  0.66666700  0.33333300  0.50000000  1
  Pd  Pd2  1  -0.00000000  -0.00000000  -0.00000000  1
loop_
_geom_bond_atom_site_label_1
_geom_bond_atom_site_label_2
_geom_bond_distance
_geom_bond_site_symmetry_2
Nd0 Pd1 3.077852 1_554
Nd0 Pd1 3.077852 1_555
Nd0 Pd0 3.077854 1_545
Nd0 Pd0 3.077854 1_544
Nd0 Pd2 3.171082 1_655
Nd1 Pd0 3.077852 1_555
Nd1 Pd0 3.077852 1_554
Nd1 Pd1 3.077854 1_454
Nd1 Pd1 3.077854 1_455
Nd1 Pd2 3.171082 1_565
Nd2 Pd1 3.077858 1_555
Nd2 Pd1 3.077858 1_554
Nd2 Pd0 3.077858 1_555
Nd2 Pd0 3.077858 1_554
Nd2 Pd2 3.171082 1_555
Mg0 Pd2 2.738547 1_555
Mg0 Pd2 2.738547 1_556
Mg0 Pd0 2.976009 1_545
Mg0 Pd1 2.976014 1_555
Mg1 Pd2 2.738547 1_555
Mg1 Pd2 2.738547 1_556
Mg1 Pd1 2.976009 1_455
Mg1 Pd0 2.976014 1_555
Mg2 Pd2 2.738547 1_666
Mg2 Pd2 2.738547 1_665
Mg2 Pd1 2.976016 1_555
Mg2 Pd0 2.976016 1_555
