# generated using pymatgen
data_Zn4Cu11(SnSe4)5
_symmetry_space_group_name_H-M   'P 1'
_cell_length_a   10.77569957
_cell_length_b   10.77569957
_cell_length_c   10.77569957
_cell_angle_alpha   106.77280490
_cell_angle_beta   106.77280490
_cell_angle_gamma   115.01435036
_symmetry_Int_Tables_number   1
_chemical_formula_structural   Zn4Cu11(SnSe4)5
_chemical_formula_sum   'Zn4 Cu11 Sn5 Se20'
_cell_volume   956.36843027
_cell_formula_units_Z   1
loop_
 _symmetry_equiv_pos_site_id
 _symmetry_equiv_pos_as_xyz
  1  'x, y, z'
loop_
 _atom_site_type_symbol
 _atom_site_label
 _atom_site_symmetry_multiplicity
 _atom_site_fract_x
 _atom_site_fract_y
 _atom_site_fract_z
 _atom_site_occupancy
  Zn  Zn0  1  0.19963200  0.39979600  0.59973000  1
  Zn  Zn1  1  0.40009800  0.80036800  0.20016400  1
  Zn  Zn2  1  0.60020400  0.19993400  0.79983600  1
  Zn  Zn3  1  0.80006600  0.59990200  0.40027000  1
  Cu  Cu0  1  0.84964700  0.95082600  0.29890500  1
  Cu  Cu1  1  0.25000000  0.75000000  0.50000000  1
  Cu  Cu2  1  0.65192100  0.55074200  0.70109500  1
  Cu  Cu3  1  0.04917400  0.34807900  0.89882100  1
  Cu  Cu4  1  0.44925800  0.15035300  0.10117900  1
  Cu  Cu5  1  0.75000000  0.25000000  0.50000000  1
  Cu  Cu6  1  0.14867000  0.05025100  0.70033400  1
  Cu  Cu7  1  0.55166400  0.85133000  0.90158200  1
  Cu  Cu8  1  0.94974900  0.65008200  0.09841800  1
  Cu  Cu9  1  0.34991800  0.44833600  0.29966600  1
  Cu  Cu10  1  0.00000000  0.00000000  0.00000000  1
  Sn  Sn0  1  0.70333100  0.90238900  0.60214900  1
  Sn  Sn1  1  0.09761100  0.69976000  0.80094200  1
  Sn  Sn2  1  0.50000000  0.50000000  0.00000000  1
  Sn  Sn3  1  0.89881800  0.29666900  0.19905800  1
  Sn  Sn4  1  0.30024000  0.10118200  0.39785100  1
  Se  Se0  1  0.59137000  0.28733500  0.60826300  1
  Se  Se1  1  0.79108800  0.68744100  0.20733800  1
  Se  Se2  1  0.99092900  0.08543000  0.81119700  1
  Se  Se3  1  0.19114500  0.48727400  0.40750800  1
  Se  Se4  1  0.39071500  0.88720100  0.00706200  1
  Se  Se5  1  0.27423300  0.17973200  0.18880300  1
  Se  Se6  1  0.48010300  0.58375000  0.79266200  1
  Se  Se7  1  0.67907200  0.98310700  0.39173700  1
  Se  Se8  1  0.88013900  0.38365300  0.99293800  1
  Se  Se9  1  0.07976600  0.78363700  0.59249200  1
  Se  Se10  1  0.31255900  0.51989700  0.10364700  1
  Se  Se11  1  0.51272600  0.92023400  0.70387100  1
  Se  Se12  1  0.71266500  0.32092800  0.30403500  1
  Se  Se13  1  0.91457000  0.72576700  0.90549900  1
  Se  Se14  1  0.11279900  0.11986100  0.50351400  1
  Se  Se15  1  0.41625000  0.20891200  0.89635300  1
  Se  Se16  1  0.61634700  0.60928500  0.49648600  1
  Se  Se17  1  0.82026800  0.00907100  0.09450100  1
  Se  Se18  1  0.01689300  0.40863000  0.69596500  1
  Se  Se19  1  0.21636300  0.80885500  0.29612900  1
loop_
_geom_bond_atom_site_label_1
_geom_bond_atom_site_label_2
_geom_bond_distance
_geom_bond_site_symmetry_2
Cu0 Se7 2.429243 1_555
Cu0 Se17 2.430849 1_565
Cu0 Se14 2.434242 1_665
Cu0 Se1 2.436537 1_555
Cu1 Se3 2.428725 1_555
Cu1 Se19 2.428725 1_555
Cu1 Se11 2.428725 1_555
Cu1 Se9 2.428725 1_555
Cu2 Se0 2.429243 1_555
Cu2 Se13 2.430849 1_555
Cu2 Se16 2.434242 1_555
Cu2 Se6 2.436537 1_555
Cu3 Se18 2.429243 1_555
Cu3 Se2 2.430849 1_455
Cu3 Se8 2.434242 1_455
Cu3 Se10 2.436537 1_556
Cu4 Se12 2.429243 1_555
Cu4 Se5 2.430849 1_555
Cu4 Se4 2.434242 1_545
Cu4 Se15 2.436537 1_554
Cu5 Se12 2.430294 1_555
Cu5 Se18 2.430294 1_655
Cu5 Se7 2.430294 1_545
Cu5 Se0 2.430294 1_555
Cu6 Se14 2.429070 1_555
Cu6 Se2 2.432193 1_455
Cu6 Se9 2.434487 1_545
Cu6 Se15 2.435174 1_555
Cu7 Se4 2.429063 1_556
Cu7 Se17 2.432190 1_566
Cu7 Se11 2.434496 1_555
Cu7 Se6 2.435175 1_555
Cu8 Se8 2.429060 1_554
Cu8 Se13 2.432190 1_554
Cu8 Se19 2.434490 1_655
Cu8 Se1 2.435185 1_555
Cu9 Se16 2.429063 1_555
Cu9 Se5 2.432190 1_555
Cu9 Se3 2.434496 1_555
Cu9 Se10 2.435175 1_555
Cu10 Se13 2.457314 1_444
Cu10 Se5 2.457314 1_555
Cu10 Se17 2.457314 1_455
Cu10 Se2 2.457314 1_454
Se0 Zn2 2.498408 1_555
Se0 Sn4 2.637064 1_555
Se1 Zn3 2.512818 1_555
Se1 Sn2 2.627355 1_555
Se2 Sn0 2.608846 1_545
Se3 Zn0 2.505553 1_555
Se3 Sn3 2.639831 1_455
Se4 Zn1 2.509540 1_555
Se4 Sn1 2.637305 1_554
Se5 Sn4 2.608846 1_555
Se6 Zn0 2.512818 1_555
Se6 Sn2 2.627355 1_556
Se7 Zn1 2.498408 1_555
Se7 Sn0 2.637064 1_555
Se8 Zn2 2.509540 1_555
Se8 Sn3 2.637305 1_556
Se9 Zn3 2.505553 1_455
Se9 Sn1 2.639831 1_555
Se10 Zn1 2.512818 1_555
Se10 Sn2 2.627355 1_555
Se11 Zn2 2.505553 1_565
Se11 Sn0 2.639831 1_555
Se12 Zn3 2.498408 1_555
Se12 Sn3 2.637064 1_555
Se13 Sn1 2.608846 1_655
Se14 Zn0 2.509540 1_555
Se14 Sn4 2.637305 1_555
Se15 Zn2 2.512818 1_555
Se15 Sn2 2.627355 1_556
Se16 Zn3 2.509540 1_555
Se16 Sn0 2.637305 1_555
Se17 Sn3 2.608846 1_555
Se18 Zn0 2.498408 1_555
Se18 Sn1 2.637064 1_555
Se19 Zn1 2.505553 1_555
Se19 Sn4 2.639831 1_565
