# generated using pymatgen
data_LiEu2RuO6
_symmetry_space_group_name_H-M   'P 1'
_cell_length_a   5.75581000
_cell_length_b   5.38360000
_cell_length_c   9.27605262
_cell_angle_alpha   55.27990650
_cell_angle_beta   90.00000000
_cell_angle_gamma   90.00000000
_symmetry_Int_Tables_number   1
_chemical_formula_structural   LiEu2RuO6
_chemical_formula_sum   'Li2 Eu4 Ru2 O12'
_cell_volume   236.25708954
_cell_formula_units_Z   2
loop_
 _symmetry_equiv_pos_site_id
 _symmetry_equiv_pos_as_xyz
  1  'x, y, z'
loop_
 _atom_site_type_symbol
 _atom_site_label
 _atom_site_symmetry_multiplicity
 _atom_site_fract_x
 _atom_site_fract_y
 _atom_site_fract_z
 _atom_site_occupancy
  Li  Li0  1  0.50000000  0.50000000  0.00000000  1
  Li  Li1  1  0.00000000  0.50000000  0.50000000  1
  Eu  Eu0  1  0.07219800  0.73144700  0.75123300  1
  Eu  Eu1  1  0.92780200  0.26855300  0.24876700  1
  Eu  Eu2  1  0.57219800  0.26855300  0.74876700  1
  Eu  Eu3  1  0.42780200  0.73144700  0.25123300  1
  Ru  Ru0  1  0.50000000  0.00000000  0.50000000  1
  Ru  Ru1  1  0.00000000  0.00000000  0.00000000  1
  O  O0  1  0.46827100  0.85484400  0.74475500  1
  O  O1  1  0.53172900  0.14515600  0.25524500  1
  O  O2  1  0.96827100  0.14515600  0.75524500  1
  O  O3  1  0.03172900  0.85484400  0.24475500  1
  O  O4  1  0.78903000  0.77049300  0.55277200  1
  O  O5  1  0.21097000  0.22950700  0.44722800  1
  O  O6  1  0.28903000  0.22950700  0.94722800  1
  O  O7  1  0.71097000  0.77049300  0.05277200  1
  O  O8  1  0.31471200  0.65258400  0.54884700  1
  O  O9  1  0.68528800  0.34741600  0.45115300  1
  O  O10  1  0.81471200  0.34741600  0.95115300  1
  O  O11  1  0.18528800  0.65258400  0.04884700  1
loop_
_geom_bond_atom_site_label_1
_geom_bond_atom_site_label_2
_geom_bond_distance
_geom_bond_site_symmetry_2
Li0 O1 2.033772 1_555
Li0 O0 2.033772 1_554
Li0 O11 2.141339 1_555
Li0 O10 2.141339 1_554
Li0 O6 2.155639 1_554
Li0 O7 2.155639 1_555
Li1 O2 2.033772 1_455
Li1 O3 2.033772 1_555
Li1 O8 2.141339 1_555
Li1 O9 2.141339 1_455
Li1 O5 2.155639 1_555
Li1 O4 2.155639 1_455
Eu0 O2 2.326853 1_465
Eu0 O10 2.354234 1_455
Eu0 O0 2.365711 1_555
Eu0 O4 2.376732 1_455
Eu0 O8 2.561458 1_555
Eu0 O6 2.562945 1_555
Eu0 O11 2.624911 1_556
Eu0 O5 2.677030 1_565
Eu1 O3 2.326853 1_645
Eu1 O11 2.354234 1_655
Eu1 O1 2.365711 1_555
Eu1 O5 2.376732 1_655
Eu1 O9 2.561458 1_555
Eu1 O7 2.562945 1_555
Eu1 O10 2.624911 1_554
Eu1 O4 2.677030 1_545
Eu2 O0 2.326853 1_545
Eu2 O8 2.354234 1_555
Eu2 O2 2.365711 1_555
Eu2 O6 2.376732 1_555
Eu2 O10 2.561458 1_555
Eu2 O4 2.562945 1_555
Eu2 O9 2.624911 1_555
Eu2 O7 2.677030 1_546
Eu3 O1 2.326853 1_565
Eu3 O9 2.354234 1_555
Eu3 O3 2.365711 1_555
Eu3 O7 2.376732 1_555
Eu3 O11 2.561458 1_555
Eu3 O5 2.562945 1_555
Eu3 O8 2.624911 1_555
Eu3 O6 2.677030 1_564
O0 Ru0 1.943583 1_565
O1 Ru0 1.943583 1_555
O2 Ru1 1.943583 1_656
O3 Ru1 1.943583 1_565
O4 Ru0 1.960830 1_565
O5 Ru0 1.960830 1_555
O6 Ru1 1.960830 1_556
O7 Ru1 1.960830 1_665
O8 Ru0 1.968633 1_565
O9 Ru0 1.968633 1_555
O10 Ru1 1.968633 1_656
O11 Ru1 1.968633 1_565
