# generated using pymatgen
data_U(Co5Si)2
_symmetry_space_group_name_H-M   'P 1'
_cell_length_a   4.83304400
_cell_length_b   6.30113354
_cell_length_c   6.15253672
_cell_angle_alpha   98.66338009
_cell_angle_beta   113.12686733
_cell_angle_gamma   67.44898291
_symmetry_Int_Tables_number   1
_chemical_formula_structural   U(Co5Si)2
_chemical_formula_sum   'U1 Co10 Si2'
_cell_volume   159.13483132
_cell_formula_units_Z   1
loop_
 _symmetry_equiv_pos_site_id
 _symmetry_equiv_pos_as_xyz
  1  'x, y, z'
loop_
 _atom_site_type_symbol
 _atom_site_label
 _atom_site_symmetry_multiplicity
 _atom_site_fract_x
 _atom_site_fract_y
 _atom_site_fract_z
 _atom_site_occupancy
  U  U0  1  0.00000000  0.00000000  0.00000000  1
  Co  Co0  1  0.65298200  0.34821400  0.65417900  1
  Co  Co1  1  0.34701800  0.65178600  0.34582100  1
  Co  Co2  1  0.99880400  0.34821400  0.34582100  1
  Co  Co3  1  0.00119600  0.65178600  0.65417900  1
  Co  Co4  1  0.72652900  0.77112600  0.22418300  1
  Co  Co5  1  0.27347100  0.22887400  0.77581700  1
  Co  Co6  1  0.50234600  0.77112600  0.77581700  1
  Co  Co7  1  0.49765400  0.22887400  0.22418300  1
  Co  Co8  1  0.50000000  0.00000000  0.50000000  1
  Co  Co9  1  0.00000000  0.00000000  0.50000000  1
  Si  Si0  1  0.50000000  0.50000000  0.00000000  1
  Si  Si1  1  0.00000000  0.50000000  0.00000000  1
loop_
_geom_bond_atom_site_label_1
_geom_bond_atom_site_label_2
_geom_bond_distance
_geom_bond_site_symmetry_2
Co0 Si0 2.463481 1_556
Co0 Si1 2.463483 1_656
Co0 Co1 2.482919 1_555
Co0 Co8 2.515372 1_555
Co0 Co9 2.515375 1_655
Co0 Co7 2.530139 1_555
Co0 Co6 2.555491 1_555
Co0 Co5 2.606829 1_555
Co0 Co5 2.606829 1_655
Co0 U0 2.816884 1_656
Co1 Si0 2.463481 1_555
Co1 Si1 2.463483 1_555
Co1 Co8 2.515372 1_565
Co1 Co9 2.515375 1_565
Co1 Co6 2.530139 1_555
Co1 Co7 2.555491 1_555
Co1 Co4 2.606829 1_455
Co1 Co4 2.606829 1_555
Co1 U0 2.816884 1_565
Co2 Si1 2.463481 1_655
Co2 Si0 2.463483 1_555
Co2 Co3 2.482919 1_655
Co2 Co8 2.515372 1_655
Co2 Co9 2.515375 1_655
Co2 Co5 2.530139 1_655
Co2 Co4 2.555491 1_555
Co2 Co7 2.606824 1_655
Co2 Co7 2.606833 1_555
Co2 U0 2.816884 1_655
Co3 Si1 2.463481 1_556
Co3 Si0 2.463483 1_556
Co3 Co8 2.515372 1_465
Co3 Co9 2.515375 1_565
Co3 Co4 2.530139 1_455
Co3 Co5 2.555491 1_555
Co3 Co6 2.606824 1_455
Co3 Co6 2.606833 1_555
Co3 U0 2.816884 1_566
Co4 Si1 2.357589 1_655
Co4 Si0 2.357592 1_555
Co4 Co9 2.381031 1_665
Co4 Co8 2.381034 1_565
Co4 Co6 2.536901 1_554
Co4 Co7 2.663791 1_565
Co4 U0 3.036853 1_665
Co4 U0 3.036857 1_565
Co5 Si1 2.357589 1_556
Co5 Si0 2.357592 1_556
Co5 Co9 2.381031 1_555
Co5 Co8 2.381034 1_555
Co5 Co7 2.536901 1_556
Co5 Co6 2.663791 1_545
Co5 U0 3.036853 1_556
Co5 U0 3.036857 1_656
Co6 Si1 2.357589 1_656
Co6 Si0 2.357592 1_556
Co6 Co8 2.381031 1_565
Co6 Co9 2.381034 1_565
Co6 U0 3.036853 1_666
Co6 U0 3.036857 1_566
Co7 Si1 2.357589 1_555
Co7 Si0 2.357592 1_555
Co7 Co8 2.381031 1_555
Co7 Co9 2.381034 1_655
Co7 U0 3.036853 1_555
Co7 U0 3.036857 1_655
Co8 Co9 2.416522 1_555
Co8 Co9 2.416522 1_655
Co8 U0 3.076268 1_555
Co8 U0 3.076268 1_656
Co9 U0 3.076268 1_556
Co9 U0 3.076268 1_555
Si0 Si1 2.416522 1_655
Si0 Si1 2.416522 1_555
Si0 U0 3.150567 1_565
Si0 U0 3.150567 1_655
Si1 U0 3.150567 1_555
Si1 U0 3.150567 1_565
