# generated using pymatgen
data_Sr3Co2(ClO2)2
_symmetry_space_group_name_H-M   'P 1'
_cell_length_a   4.17224134
_cell_length_b   11.62398863
_cell_length_c   7.96711616
_cell_angle_alpha   99.84828020
_cell_angle_beta   90.22777226
_cell_angle_gamma   79.65169936
_symmetry_Int_Tables_number   1
_chemical_formula_structural   Sr3Co2(ClO2)2
_chemical_formula_sum   'Sr6 Co4 Cl4 O8'
_cell_volume   374.36102532
_cell_formula_units_Z   2
loop_
 _symmetry_equiv_pos_site_id
 _symmetry_equiv_pos_as_xyz
  1  'x, y, z'
loop_
 _atom_site_type_symbol
 _atom_site_label
 _atom_site_symmetry_multiplicity
 _atom_site_fract_x
 _atom_site_fract_y
 _atom_site_fract_z
 _atom_site_occupancy
  Sr  Sr0  1  0.00314200  0.00081800  0.49397800  1
  Sr  Sr1  1  0.99519000  0.99912700  0.00645500  1
  Sr  Sr2  1  0.15093300  0.70448800  0.42949800  1
  Sr  Sr3  1  0.14622300  0.70140400  0.92221400  1
  Sr  Sr4  1  0.85095800  0.29873000  0.57824700  1
  Sr  Sr5  1  0.85236800  0.29496700  0.06919200  1
  Co  Co0  1  0.41390200  0.17175000  0.29271100  1
  Co  Co1  1  0.58507200  0.82838400  0.20721800  1
  Co  Co2  1  0.42476800  0.15021100  0.78617000  1
  Co  Co3  1  0.57423800  0.84928400  0.71299300  1
  Cl  Cl0  1  0.30304600  0.39525000  0.34653700  1
  Cl  Cl1  1  0.29637700  0.40792500  0.85594400  1
  Cl  Cl2  1  0.70478700  0.59352900  0.64417800  1
  Cl  Cl3  1  0.69868300  0.60428700  0.15389300  1
  O  O0  1  0.07762000  0.84526400  0.71182100  1
  O  O1  1  0.07891300  0.84333500  0.21055400  1
  O  O2  1  0.57872000  0.84764500  0.46282200  1
  O  O3  1  0.57429100  0.84637500  0.96060800  1
  O  O4  1  0.92180900  0.15640400  0.28978700  1
  O  O5  1  0.92251400  0.15454300  0.78792200  1
  O  O6  1  0.42341600  0.15380600  0.54006200  1
  O  O7  1  0.42302900  0.15247200  0.03719500  1
loop_
_geom_bond_atom_site_label_1
_geom_bond_atom_site_label_2
_geom_bond_distance
_geom_bond_site_symmetry_2
Co0 O7 2.009315 1_555
Co0 O6 2.016346 1_555
Co0 O4 2.092244 1_455
Co0 O4 2.094316 1_555
Co1 O2 2.010023 1_555
Co1 O3 2.010610 1_554
Co1 O1 2.087509 1_555
Co1 O1 2.098305 1_655
Co2 O6 1.968313 1_555
Co2 O7 1.995643 1_556
Co2 O5 2.086284 1_555
Co2 O5 2.087112 1_455
Co3 O3 1.978840 1_555
Co3 O2 1.990102 1_555
Co3 O0 2.080860 1_555
Co3 O0 2.092365 1_655
Cl0 Co0 2.517141 1_555
Cl0 Sr4 3.105820 1_555
Cl0 Sr5 3.106497 1_455
Cl0 Sr5 3.113437 1_555
Cl0 Sr4 3.117854 1_455
Cl0 Sr2 3.483053 1_555
Cl1 Co2 2.902787 1_555
Cl1 Sr5 3.103092 1_556
Cl1 Sr5 3.115178 1_456
Cl1 Sr4 3.132688 1_455
Cl1 Sr4 3.144012 1_555
Cl1 Sr3 3.305685 1_555
Cl2 Co3 2.880699 1_555
Cl2 Sr2 3.095359 1_555
Cl2 Sr2 3.113896 1_655
Cl2 Sr3 3.117445 1_655
Cl2 Sr3 3.154567 1_555
Cl2 Sr4 3.320603 1_555
Cl3 Co1 2.523909 1_555
Cl3 Sr2 3.099933 1_555
Cl3 Sr2 3.101641 1_655
Cl3 Sr3 3.108940 1_654
Cl3 Sr3 3.120666 1_554
Cl3 Sr5 3.484185 1_555
O0 Sr2 2.529269 1_555
O0 Sr3 2.543834 1_555
O0 Sr1 2.678901 1_456
O0 Sr0 2.691766 1_565
O1 Sr2 2.553932 1_555
O1 Sr3 2.572979 1_554
O1 Sr1 2.611733 1_455
O1 Sr0 2.633174 1_565
O2 Sr2 2.633880 1_555
O2 Sr2 2.639305 1_655
O2 Sr0 2.704835 1_565
O2 Sr0 2.710250 1_665
O3 Sr3 2.648061 1_655
O3 Sr3 2.650220 1_555
O3 Sr1 2.695041 1_556
O3 Sr1 2.714368 1_456
O4 Sr5 2.561955 1_555
O4 Sr4 2.575884 1_555
O4 Sr0 2.610369 1_655
O4 Sr1 2.631403 1_545
O5 Sr5 2.520719 1_556
O5 Sr4 2.542207 1_555
O5 Sr0 2.673836 1_655
O5 Sr1 2.694790 1_546
O6 Sr4 2.648082 1_555
O6 Sr4 2.649524 1_455
O6 Sr0 2.695141 1_555
O6 Sr0 2.717727 1_655
O7 Sr5 2.630766 1_455
O7 Sr5 2.633471 1_555
O7 Sr1 2.694906 1_545
O7 Sr1 2.722850 1_445
