# generated using pymatgen
data_SbPN2O4F
_symmetry_space_group_name_H-M   'P 1'
_cell_length_a   6.56639400
_cell_length_b   6.56639400
_cell_length_c   9.40770100
_cell_angle_alpha   110.42557371
_cell_angle_beta   110.42557371
_cell_angle_gamma   90.00000000
_symmetry_Int_Tables_number   1
_chemical_formula_structural   SbPN2O4F
_chemical_formula_sum   'Sb2 P2 N4 O8 F2'
_cell_volume   352.79013261
_cell_formula_units_Z   2
loop_
 _symmetry_equiv_pos_site_id
 _symmetry_equiv_pos_as_xyz
  1  'x, y, z'
loop_
 _atom_site_type_symbol
 _atom_site_label
 _atom_site_symmetry_multiplicity
 _atom_site_fract_x
 _atom_site_fract_y
 _atom_site_fract_z
 _atom_site_occupancy
  Sb  Sb0  1  0.19838700  0.19838700  0.39677500  1
  Sb  Sb1  1  0.80161300  0.80161300  0.60322500  1
  P  P0  1  0.25000000  0.75000000  0.50000000  1
  P  P1  1  0.75000000  0.25000000  0.50000000  1
  N  N0  1  0.20487500  0.34414500  0.00000000  1
  N  N1  1  0.79512500  0.65585500  0.00000000  1
  N  N2  1  0.65585500  0.20487500  0.00000000  1
  N  N3  1  0.34414500  0.79512500  0.00000000  1
  O  O0  1  0.24533200  0.51044100  0.38521000  1
  O  O1  1  0.75466800  0.48955900  0.61479000  1
  O  O2  1  0.13987800  0.87476900  0.38521000  1
  O  O3  1  0.87476900  0.24533200  0.38521000  1
  O  O4  1  0.86012200  0.12523100  0.61479000  1
  O  O5  1  0.12523100  0.75466800  0.61479000  1
  O  O6  1  0.51044100  0.13987800  0.38521000  1
  O  O7  1  0.48955900  0.86012200  0.61479000  1
  F  F0  1  0.08363600  0.08363600  0.16727200  1
  F  F1  1  0.91636400  0.91636400  0.83272800  1
loop_
_geom_bond_atom_site_label_1
_geom_bond_atom_site_label_2
_geom_bond_distance
_geom_bond_site_symmetry_2
O0 P0 1.559745 1_555
O0 Sb0 2.117679 1_555
O1 P1 1.559745 1_555
O1 Sb1 2.117679 1_555
O2 P0 1.559745 1_555
O2 Sb0 2.117671 1_565
O3 P1 1.559745 1_555
O3 Sb0 2.117672 1_655
O4 P1 1.559745 1_555
O4 Sb1 2.117671 1_545
O5 P0 1.559745 1_555
O5 Sb1 2.117672 1_455
O6 P1 1.559745 1_555
O6 Sb0 2.117678 1_555
O7 P0 1.559745 1_555
O7 Sb1 2.117678 1_555
F0 Sb0 1.877807 1_555
F1 Sb1 1.877807 1_555
