# generated using pymatgen
data_ZnCd3GeS6
_symmetry_space_group_name_H-M   'P 1'
_cell_length_a   7.15877870
_cell_length_b   7.15877870
_cell_length_c   12.49009964
_cell_angle_alpha   72.52376424
_cell_angle_beta   72.52376424
_cell_angle_gamma   59.40164077
_symmetry_Int_Tables_number   1
_chemical_formula_structural   ZnCd3GeS6
_chemical_formula_sum   'Zn2 Cd6 Ge2 S12'
_cell_volume   516.98920788
_cell_formula_units_Z   2
loop_
 _symmetry_equiv_pos_site_id
 _symmetry_equiv_pos_as_xyz
  1  'x, y, z'
loop_
 _atom_site_type_symbol
 _atom_site_label
 _atom_site_symmetry_multiplicity
 _atom_site_fract_x
 _atom_site_fract_y
 _atom_site_fract_z
 _atom_site_occupancy
  Zn  Zn0  1  0.22254400  0.45599500  0.49650700  1
  Zn  Zn1  1  0.45599500  0.22254400  0.99650700  1
  Cd  Cd0  1  0.83382500  0.43148500  0.15207900  1
  Cd  Cd1  1  0.43148500  0.83382500  0.65207900  1
  Cd  Cd2  1  0.91484700  0.08071300  0.49991300  1
  Cd  Cd3  1  0.08071300  0.91484700  0.99991300  1
  Cd  Cd4  1  0.69728200  0.93636900  0.30882800  1
  Cd  Cd5  1  0.93636900  0.69728200  0.80882800  1
  Ge  Ge0  1  0.29904300  0.83631800  0.24901600  1
  Ge  Ge1  1  0.83631800  0.29904300  0.74901600  1
  S  S0  1  0.10491600  0.54371800  0.99235400  1
  S  S1  1  0.54371800  0.10491600  0.49235400  1
  S  S2  1  0.11841000  0.16456600  0.29661700  1
  S  S3  1  0.16456600  0.11841000  0.79661700  1
  S  S4  1  0.70905500  0.17585700  0.10839900  1
  S  S5  1  0.17585700  0.70905500  0.60839900  1
  S  S6  1  0.41688200  0.88059200  0.06021600  1
  S  S7  1  0.88059200  0.41688200  0.56021600  1
  S  S8  1  0.59950100  0.62682400  0.32742200  1
  S  S9  1  0.62682400  0.59950100  0.82742200  1
  S  S10  1  0.11842200  0.63683700  0.31064900  1
  S  S11  1  0.63683700  0.11842200  0.81064900  1
loop_
_geom_bond_atom_site_label_1
_geom_bond_atom_site_label_2
_geom_bond_distance
_geom_bond_site_symmetry_2
Cd0 S0 2.586696 1_654
Cd0 S8 2.609706 1_555
Cd0 S4 2.645873 1_555
Cd0 S2 2.689772 1_655
Cd1 S1 2.586696 1_565
Cd1 S9 2.609706 1_555
Cd1 S5 2.645873 1_555
Cd1 S3 2.689772 1_565
Cd2 S2 2.585350 1_655
Cd2 S5 2.588543 1_645
Cd2 S1 2.601900 1_555
Cd2 S7 2.606898 1_555
Cd3 S3 2.585350 1_565
Cd3 S4 2.588543 1_466
Cd3 S0 2.601900 1_555
Cd3 S6 2.606898 1_556
Cd4 S8 2.574259 1_555
Cd4 S4 2.579902 1_565
Cd4 S1 2.591553 1_565
Cd4 S10 2.668033 1_655
Cd5 S9 2.574259 1_555
Cd5 S5 2.579902 1_655
Cd5 S0 2.591553 1_655
Cd5 S11 2.668033 1_565
Ge0 S2 2.198038 1_565
Ge0 S10 2.219345 1_555
Ge0 S8 2.221192 1_555
Ge0 S6 2.236371 1_555
Ge1 S3 2.198038 1_655
Ge1 S11 2.219345 1_555
Ge1 S9 2.221192 1_555
Ge1 S7 2.236371 1_555
S0 Zn1 2.393656 1_555
S1 Zn0 2.393656 1_555
S4 Zn1 2.443446 1_554
S5 Zn0 2.443446 1_555
S6 Zn1 2.469434 1_564
S7 Zn0 2.469434 1_655
S10 Zn0 2.423281 1_555
S11 Zn1 2.423281 1_555
