# generated using pymatgen
data_Nd3(MnSn)4
_symmetry_space_group_name_H-M   'P 1'
_cell_length_a   4.61948600
_cell_length_b   7.41265400
_cell_length_c   8.73400411
_cell_angle_alpha   115.10990676
_cell_angle_beta   105.33451652
_cell_angle_gamma   90.00000000
_symmetry_Int_Tables_number   1
_chemical_formula_structural   Nd3(MnSn)4
_chemical_formula_sum   'Nd3 Mn4 Sn4'
_cell_volume   259.00453223
_cell_formula_units_Z   1
loop_
 _symmetry_equiv_pos_site_id
 _symmetry_equiv_pos_as_xyz
  1  'x, y, z'
loop_
 _atom_site_type_symbol
 _atom_site_label
 _atom_site_symmetry_multiplicity
 _atom_site_fract_x
 _atom_site_fract_y
 _atom_site_fract_z
 _atom_site_occupancy
  Nd  Nd0  1  0.00000000  0.50000000  0.00000000  1
  Nd  Nd1  1  0.87234900  0.87234900  0.74469900  1
  Nd  Nd2  1  0.12765100  0.12765100  0.25530100  1
  Mn  Mn0  1  0.67208100  0.85845600  0.34416300  1
  Mn  Mn1  1  0.67208100  0.48570700  0.34416300  1
  Mn  Mn2  1  0.32791900  0.51429300  0.65583700  1
  Mn  Mn3  1  0.32791900  0.14154400  0.65583700  1
  Sn  Sn0  1  0.78389700  0.28389700  0.56779400  1
  Sn  Sn1  1  0.21610300  0.71610300  0.43220600  1
  Sn  Sn2  1  0.50000000  0.19894400  0.00000000  1
  Sn  Sn3  1  0.50000000  0.80105600  0.00000000  1
loop_
_geom_bond_atom_site_label_1
_geom_bond_atom_site_label_2
_geom_bond_distance
_geom_bond_site_symmetry_2
Nd0 Sn3 3.211706 1_455
Nd0 Sn3 3.211706 1_555
Nd0 Sn2 3.211706 1_455
Nd0 Sn2 3.211706 1_555
Nd0 Sn1 3.269119 1_555
Nd0 Sn0 3.269119 1_454
Nd1 Sn1 3.304795 1_555
Nd1 Sn1 3.304798 1_655
Nd1 Sn3 3.352399 1_556
Nd1 Sn3 3.352402 1_656
Nd1 Sn2 3.352402 1_566
Nd1 Sn2 3.352405 1_666
Nd2 Sn0 3.304795 1_555
Nd2 Sn0 3.304798 1_455
Nd2 Sn2 3.352399 1_555
Nd2 Sn2 3.352402 1_455
Nd2 Sn3 3.352402 1_545
Nd2 Sn3 3.352405 1_445
Mn0 Sn3 2.738468 1_555
Mn0 Sn1 2.772544 1_555
Mn0 Sn1 2.772548 1_655
Mn0 Sn0 2.875040 1_565
Mn0 Nd1 3.329707 1_555
Mn0 Nd2 3.345348 1_565
Mn0 Nd2 3.345355 1_665
Mn1 Sn2 2.738468 1_555
Mn1 Sn1 2.772544 1_555
Mn1 Sn1 2.772548 1_655
Mn1 Sn0 2.875040 1_555
Mn1 Nd1 3.329704 1_555
Mn1 Nd2 3.345343 1_555
Mn1 Nd2 3.345350 1_655
Mn2 Sn3 2.738468 1_556
Mn2 Sn0 2.772544 1_555
Mn2 Sn0 2.772548 1_455
Mn2 Sn1 2.875040 1_555
Mn2 Nd2 3.329704 1_555
Mn2 Nd1 3.345343 1_555
Mn2 Nd1 3.345350 1_455
Mn3 Sn2 2.738468 1_556
Mn3 Sn0 2.772544 1_555
Mn3 Sn0 2.772548 1_455
Mn3 Sn1 2.875040 1_545
Mn3 Nd2 3.329707 1_555
Mn3 Nd1 3.345348 1_545
Mn3 Nd1 3.345355 1_445
Sn2 Sn3 2.949406 1_545
