# generated using pymatgen
data_NaFe11O17
_symmetry_space_group_name_H-M   'P 1'
_cell_length_a   6.03295550
_cell_length_b   6.04828572
_cell_length_c   24.09568696
_cell_angle_alpha   89.72565107
_cell_angle_beta   90.10980197
_cell_angle_gamma   119.86123068
_symmetry_Int_Tables_number   1
_chemical_formula_structural   NaFe11O17
_chemical_formula_sum   'Na2 Fe22 O34'
_cell_volume   762.48782614
_cell_formula_units_Z   2
loop_
 _symmetry_equiv_pos_site_id
 _symmetry_equiv_pos_as_xyz
  1  'x, y, z'
loop_
 _atom_site_type_symbol
 _atom_site_label
 _atom_site_symmetry_multiplicity
 _atom_site_fract_x
 _atom_site_fract_y
 _atom_site_fract_z
 _atom_site_occupancy
  Na  Na0  1  0.33288100  0.66644400  0.74861400  1
  Na  Na1  1  0.66344900  0.33239500  0.24946100  1
  Fe  Fe0  1  0.16727900  0.83205800  0.60651500  1
  Fe  Fe1  1  0.16757700  0.83190700  0.89393300  1
  Fe  Fe2  1  0.33349500  0.66911400  0.17398800  1
  Fe  Fe3  1  0.33338600  0.66480600  0.02553900  1
  Fe  Fe4  1  0.99763400  0.99685600  0.00014600  1
  Fe  Fe5  1  0.99970500  0.99978500  0.50002000  1
  Fe  Fe6  1  0.33410100  0.66812700  0.32515100  1
  Fe  Fe7  1  0.33281400  0.66569100  0.47469200  1
  Fe  Fe8  1  0.16728500  0.33482700  0.60644100  1
  Fe  Fe9  1  0.16783500  0.33517200  0.89395800  1
  Fe  Fe10  1  0.34009700  0.17456300  0.10324100  1
  Fe  Fe11  1  0.33548300  0.16778000  0.39350400  1
  Fe  Fe12  1  0.66431700  0.83204700  0.60648400  1
  Fe  Fe13  1  0.66450400  0.83166900  0.89384000  1
  Fe  Fe14  1  0.83266700  0.66497600  0.39362600  1
  Fe  Fe15  1  0.83494400  0.66725600  0.10708400  1
  Fe  Fe16  1  0.66636800  0.33210200  0.67473200  1
  Fe  Fe17  1  0.66701500  0.33344300  0.82584900  1
  Fe  Fe18  1  0.66660500  0.33385400  0.52529700  1
  Fe  Fe19  1  0.66482700  0.33281400  0.97507300  1
  Fe  Fe20  1  0.83257300  0.16793200  0.39351900  1
  Fe  Fe21  1  0.83182400  0.16589700  0.10712600  1
  O  O0  1  0.14921500  0.83213000  0.04927500  1
  O  O1  1  0.98784400  0.49439400  0.35238800  1
  O  O2  1  0.01338100  0.50614300  0.64798200  1
  O  O3  1  0.98584100  0.49033300  0.14776400  1
  O  O4  1  0.15670200  0.84301200  0.44927800  1
  O  O5  1  0.01351600  0.50740300  0.85266700  1
  O  O6  1  0.15669800  0.31345800  0.44925100  1
  O  O7  1  0.33329700  0.66739200  0.24961800  1
  O  O8  1  0.01446900  0.00588500  0.14163500  1
  O  O9  1  0.00012800  0.00039600  0.35705800  1
  O  O10  1  0.99956200  0.99935700  0.64303400  1
  O  O11  1  0.00020900  0.00091900  0.85752200  1
  O  O12  1  0.33310200  0.66661200  0.55525000  1
  O  O13  1  0.33323300  0.66564500  0.94507600  1
  O  O14  1  0.15951000  0.31076600  0.05147800  1
  O  O15  1  0.31362900  0.15682900  0.55089400  1
  O  O16  1  0.31277700  0.15635600  0.94947000  1
  O  O17  1  0.51417700  0.50511200  0.14815700  1
  O  O18  1  0.50699800  0.49400300  0.35226200  1
  O  O19  1  0.49293700  0.50602600  0.64790600  1
  O  O20  1  0.49397100  0.50689300  0.85262100  1
  O  O21  1  0.68629700  0.84434400  0.05121500  1
  O  O22  1  0.68592100  0.84284800  0.44926700  1
  O  O23  1  0.50101900  0.01452400  0.14648900  1
  O  O24  1  0.50703900  0.01396200  0.35200300  1
  O  O25  1  0.49300900  0.98609800  0.64805400  1
  O  O26  1  0.66645900  0.33298300  0.44484800  1
  O  O27  1  0.49340500  0.98708600  0.85264800  1
  O  O28  1  0.66769500  0.33363800  0.75029800  1
  O  O29  1  0.66057000  0.32886900  0.05580300  1
  O  O30  1  0.84068100  0.68499400  0.94935300  1
  O  O31  1  0.84285900  0.68600700  0.55091200  1
  O  O32  1  0.84235700  0.15743500  0.94981200  1
  O  O33  1  0.84292500  0.15682700  0.55087800  1
loop_
_geom_bond_atom_site_label_1
_geom_bond_atom_site_label_2
_geom_bond_distance
_geom_bond_site_symmetry_2
Na0 O25 2.940508 1_555
Na0 O2 2.945954 1_555
Na0 O19 2.954117 1_555
Na0 O20 3.009615 1_555
Na0 O5 3.012236 1_555
Na0 O27 3.024864 1_555
Na1 O17 2.960516 1_555
Na1 O3 2.974205 1_555
Na1 O24 2.976298 1_555
Na1 O18 2.988808 1_555
Na1 O23 2.995513 1_555
Na1 O1 3.006021 1_555
Fe0 O10 1.963028 1_455
Fe0 O2 1.976942 1_555
Fe0 O25 1.977307 1_555
Fe0 O12 2.131069 1_555
Fe0 O31 2.164640 1_455
Fe0 O15 2.164841 1_565
Fe1 O11 1.962166 1_565
Fe1 O27 1.973795 1_555
Fe1 O5 1.975682 1_555
Fe1 O13 2.124343 1_555
Fe1 O30 2.171605 1_455
Fe1 O16 2.172065 1_565
Fe2 O7 1.822336 1_555
Fe2 O17 1.909124 1_555
Fe2 O3 1.926288 1_455
Fe2 O23 1.926589 1_565
Fe3 O0 1.927057 1_555
Fe3 O13 1.938793 1_554
Fe3 O21 1.947845 1_555
Fe3 O14 1.956842 1_555
Fe4 O0 2.030301 1_655
Fe4 O21 2.041013 1_555
Fe4 O32 2.045036 1_564
Fe4 O30 2.047313 1_554
Fe4 O16 2.051239 1_664
Fe4 O14 2.063933 1_665
Fe5 O6 2.045908 1_665
Fe5 O22 2.047697 1_555
Fe5 O31 2.048109 1_555
Fe5 O4 2.049629 1_655
Fe5 O15 2.050029 1_665
Fe5 O33 2.051530 1_565
Fe6 O7 1.820038 1_555
Fe6 O18 1.925773 1_555
Fe6 O1 1.926505 1_455
Fe6 O24 1.928628 1_565
Fe7 O12 1.941130 1_555
Fe7 O4 1.944224 1_555
Fe7 O22 1.946079 1_555
Fe7 O6 1.949175 1_555
Fe8 O10 1.964702 1_445
Fe8 O19 1.976581 1_555
Fe8 O2 1.977170 1_555
Fe8 O12 2.128653 1_555
Fe8 O33 2.164867 1_455
Fe8 O15 2.166746 1_555
Fe9 O11 1.964255 1_555
Fe9 O5 1.973342 1_555
Fe9 O20 1.976050 1_555
Fe9 O13 2.130908 1_555
Fe9 O16 2.155672 1_555
Fe9 O32 2.171839 1_455
Fe10 O8 1.938579 1_555
Fe10 O23 1.971718 1_555
Fe10 O29 2.029048 1_555
Fe10 O17 2.048618 1_555
Fe10 O14 2.073631 1_555
Fe10 O0 2.225224 1_545
Fe11 O9 1.962517 1_555
Fe11 O18 1.975707 1_555
Fe11 O24 1.976977 1_555
Fe11 O26 2.128763 1_555
Fe11 O4 2.167578 1_545
Fe11 O6 2.169639 1_555
Fe12 O10 1.963126 1_555
Fe12 O19 1.976956 1_555
Fe12 O25 1.977723 1_555
Fe12 O12 2.128244 1_555
Fe12 O33 2.165083 1_565
Fe12 O31 2.167431 1_555
Fe13 O11 1.961941 1_665
Fe13 O27 1.971710 1_555
Fe13 O20 1.976320 1_555
Fe13 O13 2.127397 1_555
Fe13 O30 2.151293 1_555
Fe13 O32 2.183363 1_565
Fe14 O9 1.964198 1_665
Fe14 O18 1.975383 1_555
Fe14 O1 1.975716 1_555
Fe14 O26 2.129976 1_555
Fe14 O4 2.164923 1_655
Fe14 O22 2.169209 1_555
Fe15 O17 1.947903 1_555
Fe15 O8 1.965931 1_665
Fe15 O3 1.972621 1_555
Fe15 O0 2.154889 1_655
Fe15 O29 2.167382 1_555
Fe15 O21 2.168350 1_555
Fe16 O28 1.820865 1_555
Fe16 O19 1.925117 1_555
Fe16 O2 1.926270 1_655
Fe16 O25 1.928046 1_545
Fe17 O28 1.820459 1_555
Fe17 O5 1.924992 1_655
Fe17 O20 1.925157 1_555
Fe17 O27 1.925403 1_545
Fe18 O26 1.938504 1_555
Fe18 O33 1.945049 1_555
Fe18 O15 1.946734 1_555
Fe18 O31 1.950118 1_555
Fe19 O16 1.942843 1_555
Fe19 O32 1.944935 1_555
Fe19 O29 1.945339 1_556
Fe19 O30 1.945870 1_555
Fe20 O9 1.962752 1_655
Fe20 O1 1.975213 1_555
Fe20 O24 1.976139 1_555
Fe20 O26 2.131519 1_555
Fe20 O6 2.165447 1_655
Fe20 O22 2.167975 1_545
Fe21 O3 1.967743 1_555
Fe21 O8 1.973050 1_655
Fe21 O23 1.974894 1_555
Fe21 O29 2.136803 1_555
Fe21 O21 2.165283 1_545
Fe21 O14 2.178962 1_655
