# generated using pymatgen
data_La14Au51
_symmetry_space_group_name_H-M   'P 1'
_cell_length_a   13.09070158
_cell_length_b   13.09070158
_cell_length_c   9.56131700
_cell_angle_alpha   90.00000000
_cell_angle_beta   90.00000000
_cell_angle_gamma   119.99999788
_symmetry_Int_Tables_number   1
_chemical_formula_structural   La14Au51
_chemical_formula_sum   'La14 Au51'
_cell_volume   1418.97323408
_cell_formula_units_Z   1
loop_
 _symmetry_equiv_pos_site_id
 _symmetry_equiv_pos_as_xyz
  1  'x, y, z'
loop_
 _atom_site_type_symbol
 _atom_site_label
 _atom_site_symmetry_multiplicity
 _atom_site_fract_x
 _atom_site_fract_y
 _atom_site_fract_z
 _atom_site_occupancy
  La  La0  1  0.46699700  0.32704700  0.50000000  1
  La  La1  1  0.86005000  0.53300300  0.50000000  1
  La  La2  1  0.67295300  0.13995000  0.50000000  1
  La  La3  1  0.53246800  0.67290500  0.50000000  1
  La  La4  1  0.14043700  0.46753200  0.50000000  1
  La  La5  1  0.32709500  0.85956300  0.50000000  1
  La  La6  1  0.11369100  0.72700800  0.00000000  1
  La  La7  1  0.61331700  0.88630900  0.00000000  1
  La  La8  1  0.27299200  0.38668300  0.00000000  1
  La  La9  1  0.88368800  0.27968100  0.00000000  1
  La  La10  1  0.39599400  0.11631200  0.00000000  1
  La  La11  1  0.72031900  0.60400600  0.00000000  1
  La  La12  1  0.00000000  0.00000000  0.69925800  1
  La  La13  1  0.00000000  0.00000000  0.30074200  1
  Au  Au0  1  0.49381900  0.37842600  0.84762700  1
  Au  Au1  1  0.88460700  0.50618100  0.84762700  1
  Au  Au2  1  0.62157400  0.11539300  0.84762700  1
  Au  Au3  1  0.50475600  0.62090700  0.84857500  1
  Au  Au4  1  0.11615200  0.49524400  0.84857500  1
  Au  Au5  1  0.37909300  0.88384800  0.84857500  1
  Au  Au6  1  0.50475600  0.62090700  0.15142500  1
  Au  Au7  1  0.11615200  0.49524400  0.15142500  1
  Au  Au8  1  0.37909300  0.88384800  0.15142500  1
  Au  Au9  1  0.49381900  0.37842600  0.15237300  1
  Au  Au10  1  0.88460700  0.50618100  0.15237300  1
  Au  Au11  1  0.62157400  0.11539300  0.15237300  1
  Au  Au12  1  0.66666700  0.33333300  0.00000000  1
  Au  Au13  1  0.33333300  0.66666700  0.00000000  1
  Au  Au14  1  0.10572100  0.66601000  0.66817600  1
  Au  Au15  1  0.56028900  0.89427900  0.66817600  1
  Au  Au16  1  0.33399000  0.43971100  0.66817600  1
  Au  Au17  1  0.89412100  0.33450400  0.66747400  1
  Au  Au18  1  0.44038300  0.10587900  0.66747400  1
  Au  Au19  1  0.66549600  0.55961700  0.66747400  1
  Au  Au20  1  0.89412100  0.33450400  0.33252600  1
  Au  Au21  1  0.44038300  0.10587900  0.33252600  1
  Au  Au22  1  0.66549600  0.55961700  0.33252600  1
  Au  Au23  1  0.10572100  0.66601000  0.33182400  1
  Au  Au24  1  0.56028900  0.89427900  0.33182400  1
  Au  Au25  1  0.33399000  0.43971100  0.33182400  1
  Au  Au26  1  0.19340700  0.92511500  0.76322200  1
  Au  Au27  1  0.73170800  0.80659300  0.76322200  1
  Au  Au28  1  0.07488500  0.26829200  0.76322200  1
  Au  Au29  1  0.80652200  0.07321100  0.76570900  1
  Au  Au30  1  0.26668900  0.19347800  0.76570900  1
  Au  Au31  1  0.92678900  0.73331100  0.76570900  1
  Au  Au32  1  0.80652200  0.07321100  0.23429100  1
  Au  Au33  1  0.26668900  0.19347800  0.23429100  1
  Au  Au34  1  0.92678900  0.73331100  0.23429100  1
  Au  Au35  1  0.19340700  0.92511500  0.23677800  1
  Au  Au36  1  0.73170800  0.80659300  0.23677800  1
  Au  Au37  1  0.07488500  0.26829200  0.23677800  1
  Au  Au38  1  0.66666700  0.33333300  0.69989100  1
  Au  Au39  1  0.33333300  0.66666700  0.69972900  1
  Au  Au40  1  0.33333300  0.66666700  0.30027100  1
  Au  Au41  1  0.66666700  0.33333300  0.30010900  1
  Au  Au42  1  0.06634100  0.82665500  0.50000000  1
  Au  Au43  1  0.76031400  0.93365900  0.50000000  1
  Au  Au44  1  0.17334500  0.23968600  0.50000000  1
  Au  Au45  1  0.93331700  0.17365700  0.50000000  1
  Au  Au46  1  0.24034000  0.06668300  0.50000000  1
  Au  Au47  1  0.82634300  0.75966000  0.50000000  1
  Au  Au48  1  0.13433100  0.02103700  0.00000000  1
  Au  Au49  1  0.88670500  0.86566900  0.00000000  1
  Au  Au50  1  0.97896300  0.11329500  0.00000000  1
loop_
_geom_bond_atom_site_label_1
_geom_bond_atom_site_label_2
_geom_bond_distance
_geom_bond_site_symmetry_2
La12 La13 3.810338 1_555
Au0 Au30 2.849038 1_555
Au0 Au19 2.883245 1_555
Au0 Au9 2.913773 1_556
Au0 Au38 2.966352 1_555
Au0 Au12 2.987718 1_556
Au0 Au3 3.105150 1_555
Au0 Au16 3.105434 1_555
Au0 La8 3.286834 1_556
Au0 La11 3.298248 1_556
Au0 La10 3.337950 1_556
Au0 La0 3.374457 1_555
Au1 Au31 2.849038 1_555
Au1 Au17 2.883245 1_555
Au1 Au10 2.913773 1_556
Au1 Au38 2.966344 1_555
Au1 Au12 2.987711 1_556
Au1 Au4 3.105163 1_655
Au1 Au14 3.105434 1_655
Au1 La6 3.286834 1_656
Au1 La9 3.298254 1_556
Au1 La11 3.337939 1_556
Au1 La1 3.374457 1_555
Au2 Au29 2.849038 1_555
Au2 Au38 2.966340 1_555
Au2 Au5 3.105156 1_545
Au2 La7 3.286834 1_546
Au2 La10 3.298242 1_556
Au2 La9 3.337948 1_556
Au2 La2 3.374457 1_555
Au3 Au6 2.895645 1_556
Au3 Au39 2.960445 1_555
Au3 La11 3.276038 1_556
Au3 La7 3.353970 1_556
Au3 La8 3.376359 1_556
Au3 La3 3.384642 1_555
Au4 Au7 2.895645 1_556
Au4 La9 3.276038 1_456
Au4 La8 3.353959 1_556
Au4 La6 3.376365 1_556
Au4 La4 3.384640 1_555
Au5 Au8 2.895645 1_556
Au5 La10 3.276038 1_566
Au5 La6 3.353969 1_556
Au5 La7 3.376354 1_556
Au5 La5 3.384642 1_555
Au6 Au9 3.105150 1_555
Au6 La11 3.276038 1_555
Au6 La7 3.353970 1_555
Au6 La8 3.376359 1_555
Au6 La3 3.384642 1_555
Au7 La9 3.276038 1_455
Au7 La8 3.353959 1_555
Au7 La6 3.376365 1_555
Au7 La4 3.384640 1_555
Au8 La10 3.276038 1_565
Au8 La6 3.353969 1_555
Au8 La7 3.376354 1_555
Au8 La5 3.384642 1_555
Au9 La8 3.286834 1_555
Au9 La11 3.298248 1_555
Au9 La10 3.337950 1_555
Au9 La0 3.374457 1_555
Au10 Au34 2.849038 1_555
Au10 Au20 2.883245 1_555
Au10 Au41 2.966344 1_555
Au10 Au12 2.987711 1_555
Au10 Au7 3.105163 1_655
Au10 Au23 3.105434 1_655
Au10 La6 3.286834 1_655
Au10 La9 3.298254 1_555
Au10 La11 3.337939 1_555
Au10 La1 3.374457 1_555
Au11 Au32 2.849038 1_555
Au11 Au21 2.883245 1_555
Au11 Au2 2.913773 1_554
Au11 Au41 2.966340 1_555
Au11 Au12 2.987707 1_555
Au11 Au8 3.105156 1_545
Au11 Au24 3.105434 1_545
Au11 La7 3.286834 1_545
Au11 La10 3.298242 1_555
Au11 La9 3.337948 1_555
Au11 La2 3.374457 1_555
Au12 Au41 2.869437 1_555
Au12 Au38 2.869437 1_554
Au12 Au2 2.987707 1_554
Au12 Au9 2.987718 1_555
Au12 La9 3.249561 1_555
Au12 La11 3.249561 1_555
Au12 La10 3.249561 1_555
Au13 Au40 2.870986 1_555
Au13 Au39 2.870986 1_554
Au13 Au8 2.972355 1_555
Au13 Au5 2.972355 1_554
Au13 Au4 2.972363 1_554
Au13 Au7 2.972363 1_555
Au13 Au6 2.972378 1_555
Au13 Au3 2.972378 1_554
Au13 La6 3.341004 1_555
Au13 La7 3.341013 1_555
Au13 La8 3.341017 1_555
Au14 Au4 2.880318 1_555
Au14 Au42 2.891001 1_555
Au14 Au39 2.990566 1_555
Au14 Au31 3.032500 1_455
Au14 Au26 3.123266 1_555
Au14 La5 3.171891 1_555
Au14 Au23 3.215968 1_555
Au14 La1 3.218752 1_455
Au14 La6 3.260529 1_556
Au14 La4 3.274698 1_555
Au15 Au5 2.880307 1_555
Au15 Au43 2.891001 1_555
Au15 Au39 2.990572 1_555
Au15 Au29 3.032500 1_565
Au15 Au2 3.105434 1_565
Au15 Au27 3.123266 1_555
Au15 La3 3.171891 1_555
Au15 Au24 3.215968 1_555
Au15 La2 3.218752 1_565
Au15 La7 3.260529 1_556
Au15 La5 3.274698 1_555
Au16 Au3 2.880312 1_555
Au16 Au44 2.891001 1_555
Au16 Au39 2.990579 1_555
Au16 Au30 3.032500 1_555
Au16 Au28 3.123266 1_555
Au16 La4 3.171891 1_555
Au16 Au25 3.215968 1_555
Au16 La0 3.218752 1_555
Au16 La8 3.260529 1_556
Au16 La3 3.274698 1_555
Au17 Au45 2.888129 1_555
Au17 Au38 2.986027 1_555
Au17 Au28 3.039724 1_655
Au17 Au4 3.123781 1_655
Au17 Au29 3.158270 1_555
Au17 La2 3.171624 1_555
Au17 Au20 3.202544 1_555
Au17 La4 3.221579 1_655
Au17 La9 3.247181 1_556
Au17 La1 3.267127 1_555
Au18 Au2 2.883245 1_555
Au18 Au46 2.888129 1_555
Au18 Au38 2.986034 1_555
Au18 Au26 3.039724 1_545
Au18 Au5 3.123784 1_545
Au18 Au30 3.158270 1_555
Au18 La0 3.171624 1_555
Au18 Au21 3.202544 1_555
Au18 La5 3.221579 1_545
Au18 La10 3.247179 1_556
Au18 La2 3.267127 1_555
Au19 Au47 2.888129 1_555
Au19 Au38 2.986040 1_555
Au19 Au27 3.039724 1_555
Au19 Au3 3.123774 1_555
Au19 Au31 3.158270 1_555
Au19 La1 3.171624 1_555
Au19 Au22 3.202544 1_555
Au19 La3 3.221579 1_555
Au19 La11 3.247181 1_556
Au19 La0 3.267127 1_555
Au20 Au45 2.888129 1_555
Au20 Au41 2.986027 1_555
Au20 Au37 3.039724 1_655
Au20 Au7 3.123781 1_655
Au20 Au32 3.158270 1_555
Au20 La2 3.171624 1_555
Au20 La4 3.221579 1_655
Au20 La9 3.247181 1_555
Au20 La1 3.267127 1_555
Au21 Au46 2.888129 1_555
Au21 Au41 2.986034 1_555
Au21 Au35 3.039724 1_545
Au21 Au8 3.123784 1_545
Au21 Au33 3.158270 1_555
Au21 La0 3.171624 1_555
Au21 La5 3.221579 1_545
Au21 La10 3.247179 1_555
Au21 La2 3.267127 1_555
Au22 Au9 2.883245 1_555
Au22 Au47 2.888129 1_555
Au22 Au41 2.986040 1_555
Au22 Au36 3.039724 1_555
Au22 Au6 3.123774 1_555
Au22 Au34 3.158270 1_555
Au22 La1 3.171624 1_555
Au22 La3 3.221579 1_555
Au22 La11 3.247181 1_555
Au22 La0 3.267127 1_555
Au23 Au7 2.880318 1_555
Au23 Au42 2.891001 1_555
Au23 Au40 2.990566 1_555
Au23 Au34 3.032500 1_455
Au23 Au35 3.123266 1_555
Au23 La5 3.171891 1_555
Au23 La1 3.218752 1_455
Au23 La6 3.260529 1_555
Au23 La4 3.274698 1_555
Au24 Au8 2.880307 1_555
Au24 Au43 2.891001 1_555
Au24 Au40 2.990572 1_555
Au24 Au32 3.032500 1_565
Au24 Au36 3.123266 1_555
Au24 La3 3.171891 1_555
Au24 La2 3.218752 1_565
Au24 La7 3.260529 1_555
Au24 La5 3.274698 1_555
Au25 Au6 2.880312 1_555
Au25 Au44 2.891001 1_555
Au25 Au40 2.990579 1_555
Au25 Au33 3.032500 1_555
Au25 Au9 3.105434 1_555
Au25 Au37 3.123266 1_555
Au25 La4 3.171891 1_555
Au25 La0 3.218752 1_555
Au25 La8 3.260529 1_555
Au25 La3 3.274698 1_555
Au26 Au5 2.859992 1_555
Au26 Au48 2.875966 1_566
Au26 Au42 2.935678 1_555
Au26 Au46 3.001223 1_565
Au26 Au31 3.118194 1_455
Au26 Au30 3.145205 1_565
Au26 La12 3.197990 1_565
Au26 La6 3.198985 1_556
Au26 La5 3.410999 1_555
Au26 La10 3.432963 1_566
Au27 Au3 2.859984 1_555
Au27 Au49 2.875958 1_556
Au27 Au43 2.935678 1_555
Au27 Au47 3.001223 1_555
Au27 Au29 3.118194 1_565
Au27 Au31 3.145205 1_555
Au27 La12 3.197990 1_665
Au27 La7 3.198985 1_556
Au27 La3 3.410999 1_555
Au27 La11 3.432967 1_556
Au28 Au4 2.859980 1_555
Au28 Au50 2.875959 1_456
Au28 Au44 2.935678 1_555
Au28 Au45 3.001223 1_455
Au28 Au30 3.118194 1_555
Au28 Au29 3.145205 1_455
Au28 La12 3.197990 1_555
Au28 La8 3.198985 1_556
Au28 La4 3.410999 1_555
Au28 La9 3.432957 1_456
Au29 Au45 2.959018 1_555
Au29 Au43 3.008730 1_545
Au29 Au50 3.033934 1_556
Au29 La12 3.188169 1_655
Au29 La9 3.257858 1_556
Au29 La7 3.348597 1_546
Au29 La2 3.435471 1_555
Au30 Au46 2.959018 1_555
Au30 Au44 3.008730 1_555
Au30 Au48 3.033936 1_556
Au30 La12 3.188170 1_555
Au30 La10 3.257867 1_556
Au30 La8 3.348597 1_556
Au30 La0 3.435472 1_555
Au31 Au47 2.959018 1_555
Au31 Au42 3.008730 1_655
Au31 Au49 3.033942 1_556
Au31 La12 3.188170 1_665
Au31 La11 3.257860 1_556
Au31 La6 3.348597 1_656
Au31 La1 3.435471 1_555
Au32 Au45 2.959018 1_555
Au32 Au43 3.008730 1_545
Au32 Au50 3.033934 1_555
Au32 Au36 3.118194 1_545
Au32 Au37 3.145205 1_655
Au32 La13 3.188169 1_655
Au32 La9 3.257858 1_555
Au32 La7 3.348597 1_545
Au32 La2 3.435471 1_555
Au33 Au9 2.849038 1_555
Au33 Au46 2.959018 1_555
Au33 Au44 3.008730 1_555
Au33 Au48 3.033936 1_555
Au33 Au37 3.118194 1_555
Au33 Au35 3.145205 1_545
Au33 La13 3.188170 1_555
Au33 La10 3.257867 1_555
Au33 La8 3.348597 1_555
Au33 La0 3.435472 1_555
Au34 Au47 2.959018 1_555
Au34 Au42 3.008730 1_655
Au34 Au49 3.033942 1_555
Au34 Au35 3.118194 1_655
Au34 Au36 3.145205 1_555
Au34 La13 3.188170 1_665
Au34 La11 3.257860 1_555
Au34 La6 3.348597 1_655
Au34 La1 3.435471 1_555
Au35 Au8 2.859992 1_555
Au35 Au48 2.875966 1_565
Au35 Au42 2.935678 1_555
Au35 Au46 3.001223 1_565
Au35 La13 3.197990 1_565
Au35 La6 3.198985 1_555
Au35 La5 3.410999 1_555
Au35 La10 3.432963 1_565
Au36 Au6 2.859984 1_555
Au36 Au49 2.875958 1_555
Au36 Au43 2.935678 1_555
Au36 Au47 3.001223 1_555
Au36 La13 3.197990 1_665
Au36 La7 3.198985 1_555
Au36 La3 3.410999 1_555
Au36 La11 3.432967 1_555
Au37 Au7 2.859980 1_555
Au37 Au50 2.875959 1_455
Au37 Au44 2.935678 1_555
Au37 Au45 3.001223 1_455
Au37 La13 3.197990 1_555
Au37 La8 3.198985 1_555
Au37 La4 3.410999 1_555
Au37 La9 3.432957 1_455
Au38 La2 3.205689 1_555
Au38 La1 3.205694 1_555
Au38 La0 3.205699 1_555
Au39 Au5 2.960422 1_555
Au39 Au4 2.960430 1_555
Au39 La5 3.199386 1_555
Au39 La4 3.199392 1_555
Au39 La3 3.199397 1_555
Au40 Au8 2.960422 1_555
Au40 Au7 2.960430 1_555
Au40 Au6 2.960445 1_555
Au40 La5 3.199386 1_555
Au40 La4 3.199392 1_555
Au40 La3 3.199397 1_555
Au41 Au9 2.966352 1_555
Au41 La2 3.205689 1_555
Au41 La1 3.205694 1_555
Au41 La0 3.205699 1_555
Au42 Au47 2.807908 1_455
Au42 Au46 2.811438 1_565
Au42 La5 3.219746 1_555
Au42 La12 3.391736 1_565
Au42 La13 3.391736 1_565
Au42 La1 3.418897 1_455
Au43 Au45 2.807908 1_565
Au43 Au47 2.811438 1_555
Au43 La3 3.219746 1_555
Au43 La12 3.391736 1_665
Au43 La13 3.391736 1_665
Au43 La2 3.418897 1_565
Au44 Au46 2.807908 1_555
Au44 Au45 2.811438 1_455
Au44 La4 3.219746 1_555
Au44 La12 3.391736 1_555
Au44 La13 3.391736 1_555
Au44 La0 3.418897 1_555
Au45 La2 3.210546 1_555
Au45 La12 3.397638 1_655
Au45 La13 3.397638 1_655
Au45 La4 3.423508 1_655
Au46 La0 3.210546 1_555
Au46 La12 3.397638 1_555
Au46 La13 3.397638 1_555
Au46 La5 3.423508 1_545
Au47 La1 3.210546 1_555
Au47 La12 3.397638 1_665
Au47 La13 3.397638 1_665
Au47 La3 3.423508 1_555
Au48 Au50 2.837534 1_455
Au48 Au49 2.837534 1_445
Au48 La10 3.002737 1_555
Au48 La13 3.309424 1_555
Au48 La12 3.309424 1_554
Au48 La6 3.721314 1_545
Au49 Au50 2.837534 1_565
Au49 La11 3.002733 1_555
Au49 La13 3.309427 1_665
Au49 La12 3.309427 1_664
Au49 La7 3.721301 1_555
Au50 La9 3.002713 1_555
Au50 La13 3.309431 1_655
Au50 La12 3.309431 1_654
Au50 La8 3.721308 1_655
