# generated using pymatgen
data_Li2TiCo3O8
_symmetry_space_group_name_H-M   'P 1'
_cell_length_a   8.10126600
_cell_length_b   8.45798567
_cell_length_c   8.53070590
_cell_angle_alpha   90.17889730
_cell_angle_beta   90.09718660
_cell_angle_gamma   90.06020878
_symmetry_Int_Tables_number   1
_chemical_formula_structural   Li2TiCo3O8
_chemical_formula_sum   'Li8 Ti4 Co12 O32'
_cell_volume   584.52329407
_cell_formula_units_Z   4
loop_
 _symmetry_equiv_pos_site_id
 _symmetry_equiv_pos_as_xyz
  1  'x, y, z'
loop_
 _atom_site_type_symbol
 _atom_site_label
 _atom_site_symmetry_multiplicity
 _atom_site_fract_x
 _atom_site_fract_y
 _atom_site_fract_z
 _atom_site_occupancy
  Li  Li0  1  0.00669900  0.00106000  0.99968000  1
  Li  Li1  1  0.74385200  0.75117700  0.75093000  1
  Li  Li2  1  0.25468900  0.75187600  0.24664000  1
  Li  Li3  1  0.99410800  0.49700900  0.50019600  1
  Li  Li4  1  0.49496500  0.50292800  0.99703700  1
  Li  Li5  1  0.75483600  0.24974800  0.25402400  1
  Li  Li6  1  0.24326100  0.24859500  0.75154200  1
  Li  Li7  1  0.50680000  0.99790400  0.50035700  1
  Ti  Ti0  1  0.12478500  0.86934000  0.62372500  1
  Ti  Ti1  1  0.87322000  0.63507600  0.11218100  1
  Ti  Ti2  1  0.37131400  0.36581000  0.38752700  1
  Ti  Ti3  1  0.62848700  0.12572200  0.87830300  1
  Co  Co0  1  0.87061500  0.87792300  0.37725100  1
  Co  Co1  1  0.61896400  0.87067600  0.12344000  1
  Co  Co2  1  0.37427500  0.87994900  0.87135200  1
  Co  Co3  1  0.62425400  0.62084600  0.37102800  1
  Co  Co4  1  0.38368700  0.63049500  0.62892400  1
  Co  Co5  1  0.13099400  0.62556300  0.87907300  1
  Co  Co6  1  0.62889300  0.37507900  0.62451000  1
  Co  Co7  1  0.88162200  0.37066400  0.87142100  1
  Co  Co8  1  0.12480700  0.37909100  0.12826600  1
  Co  Co9  1  0.87531900  0.12077800  0.62681800  1
  Co  Co10  1  0.12180000  0.12545600  0.37585200  1
  Co  Co11  1  0.37002900  0.12193900  0.11997200  1
  O  O0  1  0.88168900  0.89719600  0.61945200  1
  O  O1  1  0.11320400  0.88073800  0.39383900  1
  O  O2  1  0.38241700  0.88463900  0.09547000  1
  O  O3  1  0.86403600  0.86098100  0.13348000  1
  O  O4  1  0.60638200  0.89051600  0.88363600  1
  O  O5  1  0.63216900  0.85284100  0.35856400  1
  O  O6  1  0.36574100  0.87254300  0.64630300  1
  O  O7  1  0.14241100  0.86869200  0.85791700  1
  O  O8  1  0.84918400  0.63242800  0.36221400  1
  O  O9  1  0.63827300  0.63075100  0.12901300  1
  O  O10  1  0.36651600  0.65442000  0.86503400  1
  O  O11  1  0.39934500  0.61335500  0.38184300  1
  O  O12  1  0.13787900  0.64281600  0.63041200  1
  O  O13  1  0.61481000  0.60831700  0.61874000  1
  O  O14  1  0.88692700  0.61879600  0.88968300  1
  O  O15  1  0.11370400  0.61547400  0.11730300  1
  O  O16  1  0.61544100  0.39182900  0.38331000  1
  O  O17  1  0.38417100  0.38220900  0.60899200  1
  O  O18  1  0.11519900  0.39027500  0.88942500  1
  O  O19  1  0.63913800  0.35694100  0.86947900  1
  O  O20  1  0.90117300  0.38751200  0.11885200  1
  O  O21  1  0.86810400  0.34574200  0.63586400  1
  O  O22  1  0.13644700  0.36846800  0.36552500  1
  O  O23  1  0.34858100  0.36984100  0.13708400  1
  O  O24  1  0.64259600  0.13219200  0.64127700  1
  O  O25  1  0.86718200  0.12881000  0.85521900  1
  O  O26  1  0.13538700  0.13737900  0.14321400  1
  O  O27  1  0.10490600  0.11179800  0.61360700  1
  O  O28  1  0.36901500  0.14207600  0.36612100  1
  O  O29  1  0.88129300  0.11182800  0.40200400  1
  O  O30  1  0.61112200  0.11979800  0.10737900  1
  O  O31  1  0.38314500  0.10409400  0.87955600  1
loop_
_geom_bond_atom_site_label_1
_geom_bond_atom_site_label_2
_geom_bond_distance
_geom_bond_site_symmetry_2
Li0 O26 1.974804 1_556
Li0 O7 1.980742 1_545
Li0 O25 1.992448 1_455
Li0 O3 2.013041 1_446
Li1 O13 1.951759 1_555
Li1 O4 1.977249 1_555
Li1 O14 2.001141 1_555
Li1 O0 2.010024 1_555
Li2 O15 1.959049 1_555
Li2 O2 2.001452 1_555
Li2 O1 2.019276 1_555
Li2 O11 2.020650 1_555
Li3 O22 1.957258 1_655
Li3 O21 2.007205 1_555
Li3 O8 2.020494 1_555
Li3 O12 2.023720 1_655
Li4 O9 1.941535 1_556
Li4 O10 2.000128 1_555
Li4 O19 2.017883 1_555
Li4 O23 2.027594 1_556
Li5 O16 1.983579 1_555
Li5 O29 2.002801 1_555
Li5 O20 2.025573 1_555
Li5 O30 2.027885 1_555
Li6 O18 1.973274 1_555
Li6 O27 1.990954 1_555
Li6 O31 1.994389 1_555
Li6 O17 2.017334 1_555
Li7 O24 1.982382 1_565
Li7 O6 1.997683 1_555
Li7 O5 1.999390 1_555
Li7 O28 2.012830 1_565
Co0 O5 1.949313 1_555
Co0 O1 1.970240 1_655
Co0 O29 1.990721 1_565
Co0 O0 2.073841 1_555
Co0 O3 2.084611 1_555
Co0 O8 2.086986 1_555
Co1 O2 1.934503 1_555
Co1 O3 1.988883 1_555
Co1 O5 2.014578 1_555
Co1 O9 2.036163 1_555
Co1 O4 2.055456 1_554
Co1 O30 2.112962 1_565
Co2 O7 1.883981 1_555
Co2 O4 1.885111 1_555
Co2 O31 1.898169 1_565
Co2 O10 1.909080 1_555
Co2 O2 1.913196 1_556
Co2 O6 1.921777 1_555
Co3 O11 1.825582 1_555
Co3 O8 1.826434 1_555
Co3 O16 1.941426 1_555
Co3 O5 1.966405 1_555
Co3 O9 2.069825 1_555
Co3 O13 2.117652 1_555
Co4 O13 1.884081 1_555
Co4 O12 1.994250 1_555
Co4 O10 2.028720 1_555
Co4 O6 2.057451 1_555
Co4 O17 2.106351 1_555
Co4 O11 2.116332 1_555
Co5 O10 1.927293 1_555
Co5 O14 1.980251 1_455
Co5 O18 1.996277 1_555
Co5 O15 2.039374 1_556
Co5 O7 2.066835 1_555
Co5 O12 2.127543 1_555
Co6 O21 1.956266 1_555
Co6 O13 1.976901 1_555
Co6 O17 1.987739 1_555
Co6 O24 2.062846 1_555
Co6 O16 2.065619 1_555
Co6 O19 2.097368 1_555
Co7 O18 1.905251 1_655
Co7 O19 1.967770 1_555
Co7 O21 2.022608 1_555
Co7 O25 2.053031 1_555
Co7 O14 2.104374 1_555
Co7 O20 2.120765 1_556
Co8 O20 1.814844 1_455
Co8 O23 1.816064 1_555
Co8 O15 2.003909 1_555
Co8 O22 2.028298 1_555
Co8 O18 2.041328 1_554
Co8 O26 2.050640 1_555
Co9 O27 1.865160 1_655
Co9 O24 1.892136 1_555
Co9 O0 1.892662 1_545
Co9 O21 1.905028 1_555
Co9 O29 1.919773 1_555
Co9 O25 1.950622 1_555
Co10 O29 1.964822 1_455
Co10 O26 1.990667 1_555
Co10 O28 2.009408 1_555
Co10 O27 2.036692 1_555
Co10 O22 2.060857 1_555
Co10 O1 2.077082 1_545
Co11 O26 1.916094 1_555
Co11 O30 1.956392 1_555
Co11 O2 2.019902 1_545
Co11 O31 2.058926 1_554
Co11 O28 2.106221 1_555
Co11 O23 2.108746 1_555
O0 Ti0 1.983961 1_655
O1 Ti0 1.965845 1_555
O3 Ti1 1.920288 1_555
O4 Ti3 1.997892 1_565
O6 Ti0 1.961353 1_555
O7 Ti0 2.002703 1_555
O8 Ti1 2.142341 1_555
O9 Ti1 1.909340 1_555
O11 Ti2 2.106491 1_555
O12 Ti0 1.920002 1_555
O14 Ti1 1.906058 1_556
O15 Ti1 1.955866 1_455
O16 Ti2 1.990112 1_555
O17 Ti2 1.896584 1_555
O19 Ti3 1.959146 1_555
O20 Ti1 2.107274 1_555
O22 Ti2 1.911801 1_555
O23 Ti2 2.144448 1_555
O24 Ti3 2.026327 1_555
O25 Ti3 1.944221 1_555
O27 Ti0 2.059256 1_545
O28 Ti2 1.900630 1_555
O30 Ti3 1.960268 1_554
O31 Ti3 1.995839 1_555
