# generated using pymatgen
data_Gd3Se3N
_symmetry_space_group_name_H-M   'P 1'
_cell_length_a   4.00144105
_cell_length_b   12.65259632
_cell_length_c   13.22567041
_cell_angle_alpha   90.00000000
_cell_angle_beta   90.00000000
_cell_angle_gamma   90.00000000
_symmetry_Int_Tables_number   1
_chemical_formula_structural   Gd3Se3N
_chemical_formula_sum   'Gd12 Se12 N4'
_cell_volume   669.59741900
_cell_formula_units_Z   4
loop_
 _symmetry_equiv_pos_site_id
 _symmetry_equiv_pos_as_xyz
  1  'x, y, z'
loop_
 _atom_site_type_symbol
 _atom_site_label
 _atom_site_symmetry_multiplicity
 _atom_site_fract_x
 _atom_site_fract_y
 _atom_site_fract_z
 _atom_site_occupancy
  Gd  Gd0  1  0.25000000  0.06558900  0.36751457  1
  Gd  Gd1  1  0.25000000  0.56558900  0.13248543  1
  Gd  Gd2  1  0.75000000  0.93441100  0.63248543  1
  Gd  Gd3  1  0.75000000  0.43441100  0.86751457  1
  Gd  Gd4  1  0.25000000  0.70527548  0.35922383  1
  Gd  Gd5  1  0.25000000  0.20527548  0.14077617  1
  Gd  Gd6  1  0.75000000  0.29472452  0.64077617  1
  Gd  Gd7  1  0.75000000  0.79472452  0.85922383  1
  Gd  Gd8  1  0.25000000  0.54253084  0.65097343  1
  Gd  Gd9  1  0.25000000  0.04253084  0.84902657  1
  Gd  Gd10  1  0.75000000  0.45746916  0.34902657  1
  Gd  Gd11  1  0.75000000  0.95746916  0.15097343  1
  Se  Se0  1  0.25000000  0.87032182  0.99488720  1
  Se  Se1  1  0.25000000  0.37032182  0.50511280  1
  Se  Se2  1  0.75000000  0.12967818  0.00511280  1
  Se  Se3  1  0.75000000  0.62967818  0.49488720  1
  Se  Se4  1  0.25000000  0.09490676  0.60433627  1
  Se  Se5  1  0.25000000  0.59490676  0.89566373  1
  Se  Se6  1  0.75000000  0.90509324  0.39566373  1
  Se  Se7  1  0.75000000  0.40509324  0.10433627  1
  Se  Se8  1  0.25000000  0.77572667  0.68850269  1
  Se  Se9  1  0.25000000  0.27572667  0.81149731  1
  Se  Se10  1  0.75000000  0.22427333  0.31149731  1
  Se  Se11  1  0.75000000  0.72427333  0.18850269  1
  N  N0  1  0.25000000  0.03844908  0.20343365  1
  N  N1  1  0.25000000  0.53844908  0.29656635  1
  N  N2  1  0.75000000  0.96155092  0.79656635  1
  N  N3  1  0.75000000  0.46155092  0.70343365  1
loop_
_geom_bond_atom_site_label_1
_geom_bond_atom_site_label_2
_geom_bond_distance
_geom_bond_site_symmetry_2
Gd0 N0 2.197081 1_555
Gd0 Se6 2.874922 1_545
Gd0 Se6 2.874922 1_445
Gd0 Se10 2.929659 1_455
Gd0 Se10 2.929659 1_555
Gd0 Se4 3.154015 1_555
Gd1 N1 2.197081 1_555
Gd1 Se7 2.874922 1_555
Gd1 Se7 2.874922 1_455
Gd1 Se11 2.929659 1_555
Gd1 Se11 2.929659 1_455
Gd1 Se5 3.154015 1_554
Gd2 N2 2.197081 1_555
Gd2 Se4 2.874922 1_565
Gd2 Se4 2.874922 1_665
Gd2 Se8 2.929659 1_555
Gd2 Se8 2.929659 1_655
Gd2 Se6 3.154015 1_555
Gd3 N3 2.197081 1_555
Gd3 Se5 2.874922 1_655
Gd3 Se5 2.874922 1_555
Gd3 Se9 2.929659 1_655
Gd3 Se9 2.929659 1_555
Gd3 Se7 3.154015 1_556
Gd4 N1 2.267630 1_555
Gd4 Se3 2.852555 1_455
Gd4 Se3 2.852555 1_555
Gd4 Se11 3.026348 1_455
Gd4 Se11 3.026348 1_555
Gd4 Se6 3.259910 1_555
Gd4 Se6 3.259910 1_455
Gd5 N0 2.267630 1_555
Gd5 Se2 2.852555 1_555
Gd5 Se2 2.852555 1_455
Gd5 Se10 3.026348 1_455
Gd5 Se10 3.026348 1_555
Gd5 Se7 3.259910 1_555
Gd5 Se7 3.259910 1_455
Gd6 N3 2.267630 1_555
Gd6 Se1 2.852555 1_655
Gd6 Se1 2.852555 1_555
Gd6 Se9 3.026348 1_555
Gd6 Se9 3.026348 1_655
Gd6 Se4 3.259910 1_655
Gd6 Se4 3.259910 1_555
Gd7 N2 2.267630 1_555
Gd7 Se0 2.852555 1_555
Gd7 Se0 2.852555 1_655
Gd7 Se8 3.026348 1_655
Gd7 Se8 3.026348 1_555
Gd7 Se5 3.259910 1_655
Gd7 Se5 3.259910 1_555
Gd8 N3 2.352464 1_555
Gd8 N3 2.352464 1_455
Gd8 Se1 2.910157 1_555
Gd8 Se8 2.991990 1_555
Gd8 Se3 3.078996 1_455
Gd8 Se3 3.078996 1_555
Gd8 Se5 3.303348 1_555
Gd9 N2 2.352464 1_445
Gd9 N2 2.352464 1_545
Gd9 Se0 2.910157 1_545
Gd9 Se9 2.991990 1_555
Gd9 Se2 3.078996 1_456
Gd9 Se2 3.078996 1_556
Gd9 Se4 3.303348 1_555
Gd10 N1 2.352464 1_555
Gd10 N1 2.352464 1_655
Gd10 Se3 2.910157 1_555
Gd10 Se10 2.991990 1_555
Gd10 Se1 3.078996 1_655
Gd10 Se1 3.078996 1_555
Gd10 Se7 3.303348 1_555
Gd11 N0 2.352464 1_665
Gd11 N0 2.352464 1_565
Gd11 Se2 2.910157 1_565
Gd11 Se11 2.991990 1_555
Gd11 Se0 3.078996 1_554
Gd11 Se0 3.078996 1_654
Gd11 Se6 3.303348 1_555
