# generated using pymatgen
data_NaPrInSbO6
_symmetry_space_group_name_H-M   'P 1'
_cell_length_a   5.75989531
_cell_length_b   5.75989531
_cell_length_c   5.75989531
_cell_angle_alpha   60.00000000
_cell_angle_beta   60.00000000
_cell_angle_gamma   60.00000000
_symmetry_Int_Tables_number   1
_chemical_formula_structural   NaPrInSbO6
_chemical_formula_sum   'Na1 Pr1 In1 Sb1 O6'
_cell_volume   135.12284199
_cell_formula_units_Z   1
loop_
 _symmetry_equiv_pos_site_id
 _symmetry_equiv_pos_as_xyz
  1  'x, y, z'
loop_
 _atom_site_type_symbol
 _atom_site_label
 _atom_site_symmetry_multiplicity
 _atom_site_fract_x
 _atom_site_fract_y
 _atom_site_fract_z
 _atom_site_occupancy
  Na  Na0  1  0.25000000  0.25000000  0.25000000  1
  Pr  Pr0  1  0.75000000  0.75000000  0.75000000  1
  In  In0  1  0.00000000  0.00000000  -0.00000000  1
  Sb  Sb0  1  0.50000000  0.50000000  0.50000000  1
  O  O0  1  0.74164479  0.25835521  0.25835521  1
  O  O1  1  0.25835521  0.74164479  0.74164479  1
  O  O2  1  0.74164479  0.25835521  0.74164479  1
  O  O3  1  0.25835521  0.74164479  0.25835521  1
  O  O4  1  0.74164479  0.74164479  0.25835521  1
  O  O5  1  0.25835521  0.25835521  0.74164479  1
loop_
_geom_bond_atom_site_label_1
_geom_bond_atom_site_label_2
_geom_bond_distance
_geom_bond_site_symmetry_2
Na0 O5 2.880752 1_554
Na0 O0 2.880752 1_455
Na0 O3 2.880752 1_545
Na0 O1 2.880752 1_554
Na0 O2 2.880752 1_455
Na0 O2 2.880752 1_554
Na0 O1 2.880752 1_545
Na0 O4 2.880752 1_545
Na0 O3 2.880752 1_555
Na0 O0 2.880752 1_555
Na0 O4 2.880752 1_455
Na0 O5 2.880752 1_555
In0 O2 2.104490 1_454
In0 O4 2.104490 1_445
In0 O1 2.104490 1_544
In0 O3 2.104490 1_545
In0 O5 2.104490 1_554
In0 O0 2.104490 1_455
O0 Sb0 1.968371 1_555
O0 Pr0 2.880752 1_545
O0 Pr0 2.880752 1_554
O1 Sb0 1.968371 1_555
O1 Pr0 2.880752 1_555
O1 Pr0 2.880752 1_455
O2 Sb0 1.968371 1_555
O2 Pr0 2.880752 1_555
O2 Pr0 2.880752 1_545
O3 Sb0 1.968371 1_555
O3 Pr0 2.880752 1_554
O3 Pr0 2.880752 1_455
O4 Sb0 1.968371 1_555
O4 Pr0 2.880752 1_555
O4 Pr0 2.880752 1_554
O5 Sb0 1.968371 1_555
O5 Pr0 2.880752 1_455
O5 Pr0 2.880752 1_545
