# generated using pymatgen
data_LiLaBi2
_symmetry_space_group_name_H-M   'P 1'
_cell_length_a   4.56022299
_cell_length_b   4.56022299
_cell_length_c   11.00766460
_cell_angle_alpha   90.00000000
_cell_angle_beta   90.00000000
_cell_angle_gamma   90.00000000
_symmetry_Int_Tables_number   1
_chemical_formula_structural   LiLaBi2
_chemical_formula_sum   'Li2 La2 Bi4'
_cell_volume   228.91136112
_cell_formula_units_Z   2
loop_
 _symmetry_equiv_pos_site_id
 _symmetry_equiv_pos_as_xyz
  1  'x, y, z'
loop_
 _atom_site_type_symbol
 _atom_site_label
 _atom_site_symmetry_multiplicity
 _atom_site_fract_x
 _atom_site_fract_y
 _atom_site_fract_z
 _atom_site_occupancy
  Li  Li0  1  0.00000000  -0.00000000  0.00000000  1
  Li  Li1  1  0.50000000  0.50000000  0.00000000  1
  La  La0  1  -0.00000000  0.50000000  0.25801296  1
  La  La1  1  0.50000000  -0.00000000  0.74198704  1
  Bi  Bi0  1  0.00000000  0.50000000  0.84192060  1
  Bi  Bi1  1  0.50000000  -0.00000000  0.15807940  1
  Bi  Bi2  1  -0.00000000  -0.00000000  0.50000000  1
  Bi  Bi3  1  0.50000000  0.50000000  0.50000000  1
loop_
_geom_bond_atom_site_label_1
_geom_bond_atom_site_label_2
_geom_bond_distance
_geom_bond_site_symmetry_2
La0 Li1 3.642141 1_455
La0 Li0 3.642141 1_555
La0 Li1 3.642141 1_555
La0 Li0 3.642141 1_565
La1 Li1 3.642141 1_556
La1 Li0 3.642141 1_656
La1 Li0 3.642141 1_556
La1 Li1 3.642141 1_546
Bi0 Li0 2.868241 1_566
Bi0 Li1 2.868241 1_556
Bi0 Li1 2.868241 1_456
Bi0 Li0 2.868241 1_556
Bi0 La1 3.407036 1_455
Bi0 La1 3.407036 1_555
Bi0 La1 3.407036 1_565
Bi0 La1 3.407036 1_465
Bi1 Li0 2.868241 1_655
Bi1 Li1 2.868241 1_545
Bi1 Li1 2.868241 1_555
Bi1 Li0 2.868241 1_555
Bi1 La0 3.407036 1_655
Bi1 La0 3.407036 1_645
Bi1 La0 3.407036 1_555
Bi1 La0 3.407036 1_545
Bi2 Bi3 3.224565 1_545
Bi2 Bi3 3.224565 1_455
Bi2 Bi3 3.224565 1_445
Bi2 Bi3 3.224565 1_555
Bi2 La1 3.506319 1_555
Bi2 La0 3.506319 1_555
Bi2 La0 3.506319 1_545
Bi2 La1 3.506319 1_455
Bi3 La1 3.506319 1_565
Bi3 La1 3.506319 1_555
Bi3 La0 3.506319 1_655
Bi3 La0 3.506319 1_555
