# generated using pymatgen
data_KYbSiS4
_symmetry_space_group_name_H-M   'P 1'
_cell_length_a   5.65791400
_cell_length_b   6.90721600
_cell_length_c   9.16616028
_cell_angle_alpha   75.68695986
_cell_angle_beta   90.00000000
_cell_angle_gamma   90.00000000
_symmetry_Int_Tables_number   1
_chemical_formula_structural   KYbSiS4
_chemical_formula_sum   'K2 Yb2 Si2 S8'
_cell_volume   347.09826862
_cell_formula_units_Z   2
loop_
 _symmetry_equiv_pos_site_id
 _symmetry_equiv_pos_as_xyz
  1  'x, y, z'
loop_
 _atom_site_type_symbol
 _atom_site_label
 _atom_site_symmetry_multiplicity
 _atom_site_fract_x
 _atom_site_fract_y
 _atom_site_fract_z
 _atom_site_occupancy
  K  K0  1  0.25000000  0.74014100  0.04209300  1
  K  K1  1  0.75000000  0.25985900  0.95790700  1
  Yb  Yb0  1  0.25000000  0.74719200  0.55606700  1
  Yb  Yb1  1  0.75000000  0.25280800  0.44393300  1
  Si  Si0  1  0.75000000  0.75354500  0.32659000  1
  Si  Si1  1  0.25000000  0.24645500  0.67341000  1
  S  S0  1  0.75000000  0.56796000  0.17793800  1
  S  S1  1  0.25000000  0.43204000  0.82206200  1
  S  S2  1  0.25000000  0.39018600  0.44329700  1
  S  S3  1  0.75000000  0.60981400  0.55670300  1
  S  S4  1  0.00935600  0.99322500  0.27973000  1
  S  S5  1  0.50935600  0.00677500  0.72027000  1
  S  S6  1  0.49064400  0.99322500  0.27973000  1
  S  S7  1  0.99064400  0.00677500  0.72027000  1
loop_
_geom_bond_atom_site_label_1
_geom_bond_atom_site_label_2
_geom_bond_distance
_geom_bond_site_symmetry_2
K0 S0 3.199324 1_455
K0 S0 3.199324 1_555
K0 S1 3.273944 1_554
K0 S6 3.396618 1_555
K0 S4 3.396618 1_555
K0 S7 3.400113 1_464
K0 S5 3.400113 1_564
K1 S1 3.199324 1_655
K1 S1 3.199324 1_555
K1 S0 3.273944 1_556
K1 S7 3.396618 1_555
K1 S5 3.396618 1_555
K1 S4 3.400113 1_646
K1 S6 3.400113 1_546
S0 Si0 2.088877 1_555
S0 Yb1 2.838829 1_555
S1 Si1 2.088877 1_555
S1 Yb0 2.838829 1_555
S2 Si1 2.097425 1_555
S2 Yb0 2.899916 1_555
S2 Yb1 2.983405 1_555
S2 Yb1 2.983405 1_455
S3 Si0 2.097425 1_555
S3 Yb1 2.899916 1_555
S3 Yb0 2.983405 1_555
S3 Yb0 2.983405 1_655
S4 Si0 2.174157 1_455
S4 Yb1 2.994632 1_465
S4 Yb0 3.004877 1_555
S5 Si1 2.174157 1_555
S5 Yb0 2.994632 1_545
S5 Yb1 3.004877 1_555
S6 Si0 2.174157 1_555
S6 Yb1 2.994632 1_565
S6 Yb0 3.004877 1_555
S7 Si1 2.174157 1_655
S7 Yb0 2.994632 1_645
S7 Yb1 3.004877 1_555
