# generated using pymatgen
data_AsRhO4
_symmetry_space_group_name_H-M   'P 1'
_cell_length_a   4.53446383
_cell_length_b   4.53446383
_cell_length_c   3.05491500
_cell_angle_alpha   90.00000000
_cell_angle_beta   90.00000000
_cell_angle_gamma   91.42273233
_symmetry_Int_Tables_number   1
_chemical_formula_structural   AsRhO4
_chemical_formula_sum   'As1 Rh1 O4'
_cell_volume   62.79384974
_cell_formula_units_Z   1
loop_
 _symmetry_equiv_pos_site_id
 _symmetry_equiv_pos_as_xyz
  1  'x, y, z'
loop_
 _atom_site_type_symbol
 _atom_site_label
 _atom_site_symmetry_multiplicity
 _atom_site_fract_x
 _atom_site_fract_y
 _atom_site_fract_z
 _atom_site_occupancy
  As  As0  1  0.00000000  0.00000000  0.00000000  1
  Rh  Rh0  1  0.50000000  0.50000000  0.50000000  1
  O  O0  1  0.18480200  0.81519800  0.50000000  1
  O  O1  1  0.81519800  0.18480200  0.50000000  1
  O  O2  1  0.29166800  0.29166800  0.00000000  1
  O  O3  1  0.70833200  0.70833200  0.00000000  1
loop_
_geom_bond_atom_site_label_1
_geom_bond_atom_site_label_2
_geom_bond_distance
_geom_bond_site_symmetry_2
As0 O2 1.847014 1_555
As0 O3 1.847014 1_445
As0 O1 1.942269 1_455
As0 O1 1.942269 1_454
As0 O0 1.942269 1_544
As0 O0 1.942269 1_545
O0 Rh0 2.046209 1_555
O1 Rh0 2.046209 1_555
O2 Rh0 2.018323 1_555
O2 Rh0 2.018323 1_554
O3 Rh0 2.018323 1_554
O3 Rh0 2.018323 1_555
