# generated using pymatgen
data_Na2Cu(BrCl)2
_symmetry_space_group_name_H-M   'P 1'
_cell_length_a   5.31565800
_cell_length_b   5.31565800
_cell_length_c   5.99182000
_cell_angle_alpha   90.00000000
_cell_angle_beta   90.00000000
_cell_angle_gamma   90.00000000
_symmetry_Int_Tables_number   1
_chemical_formula_structural   Na2Cu(BrCl)2
_chemical_formula_sum   'Na2 Cu1 Br2 Cl2'
_cell_volume   169.30618396
_cell_formula_units_Z   1
loop_
 _symmetry_equiv_pos_site_id
 _symmetry_equiv_pos_as_xyz
  1  'x, y, z'
loop_
 _atom_site_type_symbol
 _atom_site_label
 _atom_site_symmetry_multiplicity
 _atom_site_fract_x
 _atom_site_fract_y
 _atom_site_fract_z
 _atom_site_occupancy
  Na  Na0  1  0.00000000  0.50000000  0.50000000  1
  Na  Na1  1  0.50000000  0.00000000  0.50000000  1
  Cu  Cu0  1  0.50000000  0.50000000  0.00000000  1
  Br  Br0  1  0.00000000  0.50000000  0.00000000  1
  Br  Br1  1  0.50000000  0.00000000  0.00000000  1
  Cl  Cl0  1  0.00000000  0.00000000  0.50000000  1
  Cl  Cl1  1  0.50000000  0.50000000  0.50000000  1
loop_
_geom_bond_atom_site_label_1
_geom_bond_atom_site_label_2
_geom_bond_distance
_geom_bond_site_symmetry_2
Br0 Cu0 2.657829 1_455
Br0 Cu0 2.657829 1_555
Br0 Na0 2.995910 1_554
Br0 Na0 2.995910 1_555
Br1 Cu0 2.657829 1_555
Br1 Cu0 2.657829 1_545
Br1 Na1 2.995910 1_555
Br1 Na1 2.995910 1_554
Cl0 Na0 2.657829 1_545
Cl0 Na1 2.657829 1_455
Cl0 Na0 2.657829 1_555
Cl0 Na1 2.657829 1_555
Cl1 Na0 2.657829 1_555
Cl1 Na0 2.657829 1_655
Cl1 Na1 2.657829 1_565
Cl1 Na1 2.657829 1_555
Cl1 Cu0 2.995910 1_556
Cl1 Cu0 2.995910 1_555
