# generated using pymatgen
data_K4Ba2SnSb4
_symmetry_space_group_name_H-M   'P 1'
_cell_length_a   11.25628686
_cell_length_b   11.25628686
_cell_length_c   8.38390947
_cell_angle_alpha   89.36848513
_cell_angle_beta   89.36848513
_cell_angle_gamma   119.44460780
_symmetry_Int_Tables_number   1
_chemical_formula_structural   K4Ba2SnSb4
_chemical_formula_sum   'K8 Ba4 Sn2 Sb8'
_cell_volume   924.84115504
_cell_formula_units_Z   2
loop_
 _symmetry_equiv_pos_site_id
 _symmetry_equiv_pos_as_xyz
  1  'x, y, z'
loop_
 _atom_site_type_symbol
 _atom_site_label
 _atom_site_symmetry_multiplicity
 _atom_site_fract_x
 _atom_site_fract_y
 _atom_site_fract_z
 _atom_site_occupancy
  K  K0  1  0.04269800  0.52070100  0.62241700  1
  K  K1  1  0.52070100  0.04269800  0.12241700  1
  K  K2  1  0.28760600  0.14220000  0.81921700  1
  K  K3  1  0.85960400  0.71015700  0.80735100  1
  K  K4  1  0.85720800  0.14852000  0.81319400  1
  K  K5  1  0.71015700  0.85960400  0.30735100  1
  K  K6  1  0.14220000  0.28760600  0.31921700  1
  K  K7  1  0.14852000  0.85720800  0.31319400  1
  Ba  Ba0  1  0.47698000  0.95616800  0.62350500  1
  Ba  Ba1  1  0.47579300  0.51969000  0.62400900  1
  Ba  Ba2  1  0.95616800  0.47698000  0.12350500  1
  Ba  Ba3  1  0.51969000  0.47579300  0.12400900  1
  Sn  Sn0  1  0.66955600  0.33530800  0.50166500  1
  Sn  Sn1  1  0.33530800  0.66955600  0.00166500  1
  Sb  Sb0  1  0.61297400  0.80171800  0.88614500  1
  Sb  Sb1  1  0.19764100  0.38890100  0.90439500  1
  Sb  Sb2  1  0.19188300  0.80447900  0.89648200  1
  Sb  Sb3  1  0.38890100  0.19764100  0.40439500  1
  Sb  Sb4  1  0.80171800  0.61297400  0.38614500  1
  Sb  Sb5  1  0.80447900  0.19188300  0.39648200  1
  Sb  Sb6  1  0.66312700  0.33664800  0.84725400  1
  Sb  Sb7  1  0.33664800  0.66312700  0.34725400  1
loop_
_geom_bond_atom_site_label_1
_geom_bond_atom_site_label_2
_geom_bond_distance
_geom_bond_site_symmetry_2
K0 Sb2 3.643637 1_555
K0 Sb7 3.657208 1_555
K0 Sb1 3.659124 1_555
K0 Sn0 3.813682 1_455
K0 Sb5 3.871239 1_455
K0 Sb4 3.899180 1_455
K1 Sb5 3.643637 1_555
K1 Sb6 3.657208 1_554
K1 Sb3 3.659124 1_555
K1 Sn1 3.813682 1_545
K1 Sb2 3.871239 1_544
K1 Sb0 3.899180 1_544
K2 Sb2 3.454726 1_545
K2 Sb1 3.469786 1_555
K2 Sb3 3.598609 1_555
K2 Sb6 3.694645 1_555
K3 Sb2 3.442361 1_655
K3 Sb0 3.463113 1_555
K3 Sb6 3.672926 1_555
K3 Sb4 3.677876 1_555
K4 Sb1 3.536441 1_655
K4 Sb0 3.539767 1_545
K4 Sb5 3.617907 1_555
K4 Sb6 3.726446 1_555
K5 Sb5 3.442361 1_565
K5 Sb4 3.463113 1_555
K5 Sb7 3.672926 1_555
K5 Sb0 3.677876 1_554
K6 Sb5 3.454726 1_455
K6 Sb3 3.469786 1_555
K6 Sb1 3.598609 1_554
K6 Sb7 3.694645 1_555
K7 Sb3 3.536441 1_565
K7 Sb4 3.539767 1_455
K7 Sb2 3.617907 1_554
K7 Sb7 3.726446 1_555
Ba0 Sb2 3.580009 1_555
Ba0 Sb0 3.580618 1_555
Ba0 Sb7 3.723724 1_555
Ba0 Sb3 3.784848 1_565
Ba0 Sb5 3.790762 1_565
Ba0 Sn0 3.836072 1_565
Ba1 Sb0 3.563916 1_555
Ba1 Sb1 3.567336 1_555
Ba1 Sb7 3.595484 1_555
Ba1 Sb3 3.766806 1_555
Ba1 Sb4 3.813671 1_555
Ba1 Sn0 3.816371 1_555
Ba1 Sb6 4.058121 1_555
Ba2 Sb5 3.580009 1_555
Ba2 Sb4 3.580618 1_555
Ba2 Sb6 3.723724 1_554
Ba2 Sb1 3.784848 1_654
Ba2 Sb2 3.790762 1_654
Ba2 Sn1 3.836072 1_655
Ba3 Sb4 3.563916 1_555
Ba3 Sb3 3.567336 1_555
Ba3 Sb6 3.595484 1_554
Ba3 Sb1 3.766806 1_554
Ba3 Sb0 3.813671 1_554
Ba3 Sn1 3.816371 1_555
Ba3 Sb7 4.058121 1_555
Sb0 Sn1 2.872273 1_556
Sb1 Sn1 2.884112 1_556
Sb2 Sn1 2.846588 1_556
Sb3 Sn0 2.884112 1_555
Sb4 Sn0 2.872273 1_555
Sb5 Sn0 2.846588 1_555
Sb6 Sn0 2.897884 1_555
Sb7 Sn1 2.897884 1_555
