# generated using pymatgen
data_HfMg6Cr
_symmetry_space_group_name_H-M   'P 1'
_cell_length_a   5.03879300
_cell_length_b   6.17899600
_cell_length_c   10.98179000
_cell_angle_alpha   90.00000000
_cell_angle_beta   90.00000000
_cell_angle_gamma   90.00000000
_symmetry_Int_Tables_number   1
_chemical_formula_structural   HfMg6Cr
_chemical_formula_sum   'Hf2 Mg12 Cr2'
_cell_volume   341.91453715
_cell_formula_units_Z   2
loop_
 _symmetry_equiv_pos_site_id
 _symmetry_equiv_pos_as_xyz
  1  'x, y, z'
loop_
 _atom_site_type_symbol
 _atom_site_label
 _atom_site_symmetry_multiplicity
 _atom_site_fract_x
 _atom_site_fract_y
 _atom_site_fract_z
 _atom_site_occupancy
  Hf  Hf0  1  0.50000000  0.50000000  0.16815800  1
  Hf  Hf1  1  0.50000000  0.00000000  0.66815800  1
  Mg  Mg0  1  0.50000000  0.25348600  0.41777800  1
  Mg  Mg1  1  0.50000000  0.74651400  0.41777800  1
  Mg  Mg2  1  0.00000000  0.75336500  0.08688800  1
  Mg  Mg3  1  0.00000000  0.24663500  0.08688800  1
  Mg  Mg4  1  0.00000000  0.00000000  0.32737700  1
  Mg  Mg5  1  0.00000000  0.50000000  0.33016400  1
  Mg  Mg6  1  0.50000000  0.75348600  0.91777800  1
  Mg  Mg7  1  0.50000000  0.24651400  0.91777800  1
  Mg  Mg8  1  0.00000000  0.25336500  0.58688800  1
  Mg  Mg9  1  0.00000000  0.74663500  0.58688800  1
  Mg  Mg10  1  0.00000000  0.50000000  0.82737700  1
  Mg  Mg11  1  0.00000000  0.00000000  0.83016400  1
  Cr  Cr0  1  0.50000000  0.00000000  0.16496400  1
  Cr  Cr1  1  0.50000000  0.50000000  0.66496400  1
loop_
_geom_bond_atom_site_label_1
_geom_bond_atom_site_label_2
_geom_bond_distance
_geom_bond_site_symmetry_2
Hf0 Mg5 3.084252 1_555
Hf0 Mg5 3.084252 1_655
Hf0 Mg2 3.097550 1_655
Hf0 Mg3 3.097550 1_555
Hf0 Mg2 3.097550 1_555
Hf0 Mg3 3.097550 1_655
Hf0 Mg0 3.136041 1_555
Hf0 Mg1 3.136041 1_555
Hf0 Mg6 3.164439 1_554
Hf0 Mg7 3.164439 1_554
Hf1 Mg11 3.084252 1_655
Hf1 Mg11 3.084252 1_555
Hf1 Mg8 3.097550 1_555
Hf1 Mg8 3.097550 1_655
Hf1 Mg9 3.097550 1_545
Hf1 Mg9 3.097550 1_645
Hf1 Mg7 3.136041 1_555
Hf1 Mg6 3.136041 1_545
Hf1 Mg0 3.164439 1_555
Hf1 Mg1 3.164439 1_545
Mg0 Mg1 3.046418 1_555
Mg0 Mg5 3.097301 1_555
Mg0 Mg5 3.097301 1_655
Mg0 Mg4 3.128291 1_655
Mg0 Mg4 3.128291 1_555
Mg0 Mg8 3.129903 1_555
Mg0 Mg8 3.129903 1_655
Mg0 Mg1 3.132578 1_545
Mg1 Mg5 3.097301 1_555
Mg1 Mg5 3.097301 1_655
Mg1 Mg4 3.128291 1_665
Mg1 Mg4 3.128291 1_565
Mg1 Mg9 3.129903 1_555
Mg1 Mg9 3.129903 1_655
Mg2 Mg3 3.047913 1_565
Mg2 Mg4 3.049151 1_565
Mg2 Mg5 3.096514 1_555
Mg2 Mg6 3.129903 1_454
Mg2 Mg6 3.129903 1_554
Mg2 Mg3 3.131083 1_555
Mg3 Mg4 3.049151 1_555
Mg3 Mg5 3.096514 1_555
Mg3 Mg7 3.129903 1_554
Mg3 Mg7 3.129903 1_454
Mg4 Mg5 3.089650 1_555
Mg4 Mg5 3.089650 1_545
Mg4 Mg8 3.251588 1_555
Mg4 Mg9 3.251588 1_545
Mg5 Mg9 3.204814 1_555
Mg5 Mg8 3.204814 1_555
Mg6 Mg7 3.046418 1_565
Mg6 Mg7 3.132578 1_555
Mg8 Mg9 3.047913 1_555
Mg8 Mg9 3.131083 1_545
Mg10 Mg9 3.049151 1_555
Mg10 Mg8 3.049151 1_555
Mg10 Mg11 3.089650 1_555
Mg10 Mg11 3.089650 1_565
Mg10 Mg6 3.128291 1_455
Mg10 Mg6 3.128291 1_555
Mg10 Mg7 3.128291 1_455
Mg10 Mg7 3.128291 1_555
Mg10 Mg2 3.251588 1_556
Mg10 Mg3 3.251588 1_556
Mg11 Mg8 3.096514 1_555
Mg11 Mg9 3.096514 1_545
Mg11 Mg7 3.097301 1_455
Mg11 Mg7 3.097301 1_555
Mg11 Mg6 3.097301 1_445
Mg11 Mg6 3.097301 1_545
Mg11 Mg3 3.204814 1_556
Mg11 Mg2 3.204814 1_546
Cr0 Mg3 3.066751 1_655
Cr0 Mg3 3.066751 1_555
Cr0 Mg2 3.066751 1_645
Cr0 Mg2 3.066751 1_545
Cr0 Mg4 3.086833 1_555
Cr0 Mg4 3.086833 1_655
Cr0 Hf0 3.089697 1_545
Cr0 Hf0 3.089697 1_555
Cr0 Mg7 3.112703 1_554
Cr0 Mg6 3.112703 1_544
Cr0 Mg0 3.187692 1_555
Cr0 Mg1 3.187692 1_545
Cr1 Mg9 3.066751 1_655
Cr1 Mg9 3.066751 1_555
Cr1 Mg8 3.066751 1_555
Cr1 Mg8 3.066751 1_655
Cr1 Mg10 3.086833 1_555
Cr1 Mg10 3.086833 1_655
Cr1 Hf1 3.089697 1_555
Cr1 Hf1 3.089697 1_565
Cr1 Mg1 3.112703 1_555
Cr1 Mg0 3.112703 1_555
Cr1 Mg6 3.187692 1_555
Cr1 Mg7 3.187692 1_555
