# generated using pymatgen
data_TmNiB4
_symmetry_space_group_name_H-M   'P 1'
_cell_length_a   3.39112400
_cell_length_b   5.87906200
_cell_length_c   11.39325200
_cell_angle_alpha   90.00000000
_cell_angle_beta   90.00000000
_cell_angle_gamma   90.00000000
_symmetry_Int_Tables_number   1
_chemical_formula_structural   TmNiB4
_chemical_formula_sum   'Tm4 Ni4 B16'
_cell_volume   227.14302963
_cell_formula_units_Z   4
loop_
 _symmetry_equiv_pos_site_id
 _symmetry_equiv_pos_as_xyz
  1  'x, y, z'
loop_
 _atom_site_type_symbol
 _atom_site_label
 _atom_site_symmetry_multiplicity
 _atom_site_fract_x
 _atom_site_fract_y
 _atom_site_fract_z
 _atom_site_occupancy
  Tm  Tm0  1  0.00000000  0.62717900  0.34965600  1
  Tm  Tm1  1  0.00000000  0.37282100  0.65034400  1
  Tm  Tm2  1  0.00000000  0.12717900  0.15034400  1
  Tm  Tm3  1  0.00000000  0.87282100  0.84965600  1
  Ni  Ni0  1  0.00000000  0.63387700  0.08834900  1
  Ni  Ni1  1  0.00000000  0.36612300  0.91165100  1
  Ni  Ni2  1  0.00000000  0.13387700  0.41165100  1
  Ni  Ni3  1  0.00000000  0.86612300  0.58834900  1
  B  B0  1  0.50000000  0.78502700  0.18499600  1
  B  B1  1  0.50000000  0.21497300  0.81500400  1
  B  B2  1  0.50000000  0.28502700  0.31500400  1
  B  B3  1  0.50000000  0.71497300  0.68499600  1
  B  B4  1  0.50000000  0.86260600  0.03287700  1
  B  B5  1  0.50000000  0.13739400  0.96712300  1
  B  B6  1  0.50000000  0.36260600  0.46712300  1
  B  B7  1  0.50000000  0.63739400  0.53287700  1
  B  B8  1  0.50000000  0.88655300  0.45218900  1
  B  B9  1  0.50000000  0.11344700  0.54781100  1
  B  B10  1  0.50000000  0.38655300  0.04781100  1
  B  B11  1  0.50000000  0.61344700  0.95218900  1
  B  B12  1  0.50000000  0.97860000  0.30801400  1
  B  B13  1  0.50000000  0.02140000  0.69198600  1
  B  B14  1  0.50000000  0.47860000  0.19198600  1
  B  B15  1  0.50000000  0.52140000  0.80801400  1
loop_
_geom_bond_atom_site_label_1
_geom_bond_atom_site_label_2
_geom_bond_distance
_geom_bond_site_symmetry_2
B0 B4 1.792138 1_555
B0 B14 1.803263 1_555
B0 B12 1.805414 1_555
B0 Ni0 2.208404 1_655
B0 Ni0 2.208404 1_555
B0 Tm2 2.660275 1_665
B0 Tm2 2.660275 1_565
B0 Tm0 2.693610 1_655
B0 Tm0 2.693610 1_555
B1 B5 1.792138 1_555
B1 B15 1.803263 1_555
B1 B13 1.805414 1_555
B1 Ni1 2.208404 1_555
B1 Ni1 2.208404 1_655
B1 Tm3 2.660275 1_645
B1 Tm3 2.660275 1_545
B1 Tm1 2.693610 1_655
B1 Tm1 2.693610 1_555
B2 B6 1.792138 1_555
B2 Ni2 2.208404 1_655
B2 Ni2 2.208404 1_555
B2 Tm0 2.660275 1_555
B2 Tm0 2.660275 1_655
B2 Tm2 2.693610 1_555
B2 Tm2 2.693610 1_655
B3 B7 1.792138 1_555
B3 Ni3 2.208404 1_655
B3 Ni3 2.208404 1_555
B3 Tm1 2.660275 1_655
B3 Tm1 2.660275 1_555
B3 Tm3 2.693610 1_655
B3 Tm3 2.693610 1_555
B4 B5 1.780746 1_564
B4 Ni0 2.254465 1_655
B4 Ni0 2.254465 1_555
B4 Tm2 2.661852 1_665
B4 Tm2 2.661852 1_565
B4 Tm3 2.690004 1_554
B4 Tm3 2.690004 1_654
B5 Ni1 2.254465 1_655
B5 Ni1 2.254465 1_555
B5 Tm3 2.661852 1_645
B5 Tm3 2.661852 1_545
B5 Tm2 2.690004 1_656
B5 Tm2 2.690004 1_556
B6 B9 1.729396 1_555
B6 B7 1.780746 1_555
B6 Ni2 2.254465 1_555
B6 Ni2 2.254465 1_655
B6 Tm0 2.661852 1_555
B6 Tm0 2.661852 1_655
B6 Tm1 2.690004 1_655
B6 Tm1 2.690004 1_555
B7 B8 1.729396 1_555
B7 Ni3 2.254465 1_555
B7 Ni3 2.254465 1_655
B7 Tm1 2.661852 1_655
B7 Tm1 2.661852 1_555
B7 Tm0 2.690004 1_555
B7 Tm0 2.690004 1_655
B8 B9 1.722279 1_565
B8 Ni2 2.280890 1_565
B8 Ni2 2.280890 1_665
B8 Ni3 2.301283 1_655
B8 Ni3 2.301283 1_555
B8 Tm0 2.562193 1_555
B8 Tm0 2.562193 1_655
B9 Ni3 2.280890 1_645
B9 Ni3 2.280890 1_545
B9 Ni2 2.301283 1_655
B9 Ni2 2.301283 1_555
B9 Tm1 2.562193 1_655
B9 Tm1 2.562193 1_555
B10 B11 1.722279 1_554
B10 B5 1.729396 1_554
B10 B14 1.729465 1_555
B10 Ni0 2.280890 1_655
B10 Ni0 2.280890 1_555
B10 Ni1 2.301283 1_654
B10 Ni1 2.301283 1_554
B10 Tm2 2.562193 1_655
B10 Tm2 2.562193 1_555
B11 B4 1.729396 1_556
B11 B15 1.729465 1_555
B11 Ni1 2.280890 1_655
B11 Ni1 2.280890 1_555
B11 Ni0 2.301283 1_656
B11 Ni0 2.301283 1_556
B11 Tm3 2.562193 1_655
B11 Tm3 2.562193 1_555
B12 B8 1.729465 1_555
B12 B2 1.803263 1_565
B12 Ni2 2.258868 1_565
B12 Ni2 2.258868 1_665
B12 Tm2 2.620096 1_565
B12 Tm2 2.620096 1_665
B12 Tm0 2.714495 1_555
B12 Tm0 2.714495 1_655
B13 B9 1.729465 1_555
B13 B3 1.803263 1_545
B13 Ni3 2.258868 1_645
B13 Ni3 2.258868 1_545
B13 Tm3 2.620096 1_545
B13 Tm3 2.620096 1_645
B13 Tm1 2.714495 1_655
B13 Tm1 2.714495 1_555
B14 B2 1.805414 1_555
B14 Ni0 2.258868 1_655
B14 Ni0 2.258868 1_555
B14 Tm0 2.620096 1_555
B14 Tm0 2.620096 1_655
B14 Tm2 2.714495 1_555
B14 Tm2 2.714495 1_655
B15 B3 1.805414 1_555
B15 Ni1 2.258868 1_655
B15 Ni1 2.258868 1_555
B15 Tm1 2.620096 1_655
B15 Tm1 2.620096 1_555
B15 Tm3 2.714495 1_555
B15 Tm3 2.714495 1_655
