# generated using pymatgen
data_InH4S2NO8
_symmetry_space_group_name_H-M   'P 1'
_cell_length_a   10.64915100
_cell_length_b   9.25664100
_cell_length_c   10.20100518
_cell_angle_alpha   83.04357574
_cell_angle_beta   90.00000000
_cell_angle_gamma   90.00000000
_symmetry_Int_Tables_number   1
_chemical_formula_structural   InH4S2NO8
_chemical_formula_sum   'In4 H16 S8 N4 O32'
_cell_volume   998.16540075
_cell_formula_units_Z   4
loop_
 _symmetry_equiv_pos_site_id
 _symmetry_equiv_pos_as_xyz
  1  'x, y, z'
loop_
 _atom_site_type_symbol
 _atom_site_label
 _atom_site_symmetry_multiplicity
 _atom_site_fract_x
 _atom_site_fract_y
 _atom_site_fract_z
 _atom_site_occupancy
  In  In0  1  0.24521000  0.62696600  0.22428600  1
  In  In1  1  0.74521000  0.37303400  0.77571400  1
  In  In2  1  0.99625900  0.87714800  0.87076100  1
  In  In3  1  0.49625900  0.12285200  0.12923900  1
  H  H0  1  0.18306900  0.25350900  0.40038800  1
  H  H1  1  0.68306900  0.74649100  0.59961200  1
  H  H2  1  0.18371600  0.58961800  0.57371100  1
  H  H3  1  0.68371600  0.41038200  0.42628900  1
  H  H4  1  0.17816000  0.91382100  0.69985600  1
  H  H5  1  0.67816000  0.08617900  0.30014400  1
  H  H6  1  0.40908100  0.27466100  0.12013800  1
  H  H7  1  0.90908100  0.72533900  0.87986200  1
  H  H8  1  0.20484400  0.98187800  0.36266100  1
  H  H9  1  0.70484400  0.01812200  0.63733900  1
  H  H10  1  0.65795000  0.69463600  0.01929000  1
  H  H11  1  0.15795000  0.30536400  0.98071000  1
  H  H12  1  0.85788300  0.66541600  0.44278400  1
  H  H13  1  0.35788300  0.33458400  0.55721600  1
  H  H14  1  0.14801600  0.53015100  0.33293200  1
  H  H15  1  0.64801600  0.46984900  0.66706800  1
  S  S0  1  0.23101400  0.98246200  0.04514700  1
  S  S1  1  0.73101400  0.01753800  0.95485300  1
  S  S2  1  0.66643000  0.45932700  0.03896500  1
  S  S3  1  0.16643000  0.54067300  0.96103500  1
  S  S4  1  0.38683400  0.88403100  0.41101300  1
  S  S5  1  0.88683400  0.11596900  0.58898700  1
  S  S6  1  0.48752600  0.39203500  0.40154800  1
  S  S7  1  0.98752600  0.60796500  0.59845200  1
  N  N0  1  0.45959200  0.74958800  0.83332200  1
  N  N1  1  0.95959200  0.25041200  0.16667800  1
  N  N2  1  0.90327700  0.75848000  0.19207700  1
  N  N3  1  0.40327700  0.24152000  0.80792300  1
  O  O0  1  0.06056600  0.55207000  0.04957100  1
  O  O1  1  0.56056600  0.44793000  0.95042900  1
  O  O2  1  0.34314400  0.73623000  0.38689900  1
  O  O3  1  0.84314400  0.26377000  0.61310100  1
  O  O4  1  0.15657700  0.99215200  0.91655900  1
  O  O5  1  0.65657700  0.00784800  0.08344100  1
  O  O6  1  0.36657500  0.98522800  0.00932400  1
  O  O7  1  0.86657500  0.01477200  0.99067600  1
  O  O8  1  0.16884500  0.64232000  0.84107900  1
  O  O9  1  0.66884500  0.35768000  0.15892100  1
  O  O10  1  0.66453000  0.61443700  0.09247800  1
  O  O11  1  0.16453000  0.38556300  0.90752200  1
  O  O12  1  0.42384600  0.47260400  0.29143000  1
  O  O13  1  0.92384600  0.52739600  0.70857000  1
  O  O14  1  0.41575600  0.41670500  0.53420300  1
  O  O15  1  0.91575600  0.58329500  0.46579700  1
  O  O16  1  0.01104700  0.76014600  0.59984500  1
  O  O17  1  0.51104700  0.23985400  0.40015500  1
  O  O18  1  0.19598300  0.10229900  0.11847400  1
  O  O19  1  0.69598300  0.89770100  0.88152600  1
  O  O20  1  0.44413000  0.95462500  0.28762000  1
  O  O21  1  0.94413000  0.04537500  0.71238000  1
  O  O22  1  0.26251800  0.97361800  0.43843900  1
  O  O23  1  0.76251800  0.02638200  0.56156100  1
  O  O24  1  0.19695400  0.83834900  0.12309100  1
  O  O25  1  0.69695400  0.16165100  0.87690900  1
  O  O26  1  0.11184800  0.52263200  0.57549100  1
  O  O27  1  0.61184800  0.47736800  0.42450900  1
  O  O28  1  0.28788100  0.54440800  0.03933100  1
  O  O29  1  0.78788100  0.45559200  0.96066900  1
  O  O30  1  0.46027100  0.88642000  0.52799400  1
  O  O31  1  0.96027100  0.11358000  0.47200600  1
loop_
_geom_bond_atom_site_label_1
_geom_bond_atom_site_label_2
_geom_bond_distance
_geom_bond_site_symmetry_2
In0 O24 2.160808 1_555
In0 O28 2.167834 1_555
In0 O2 2.295366 1_555
In0 O12 2.427464 1_555
In1 O25 2.160808 1_555
In1 O29 2.167834 1_555
In1 O3 2.295366 1_555
In1 O13 2.427464 1_555
In2 O4 2.094446 1_655
In2 O21 2.175771 1_565
In2 O7 2.324643 1_565
In3 O5 2.094446 1_555
In3 O20 2.175771 1_545
In3 O6 2.324643 1_545
H2 O26 0.983778 1_555
H3 O27 0.983778 1_555
H6 In3 1.677377 1_555
H7 In2 1.677377 1_555
H8 O22 0.983002 1_555
H9 O23 0.983002 1_555
H10 O10 0.989531 1_555
H11 O11 0.989531 1_555
H12 O15 0.984661 1_555
H13 O14 0.984661 1_555
H14 In0 1.691795 1_555
H15 In1 1.691795 1_555
O0 S3 1.456312 1_554
O1 S2 1.456312 1_556
O2 S4 1.493422 1_555
O3 S5 1.493422 1_555
O4 S0 1.525953 1_556
O5 S1 1.525953 1_554
O6 S0 1.488602 1_555
O7 S1 1.488602 1_555
O8 S3 1.450673 1_555
O9 S2 1.450673 1_555
O10 S2 1.596800 1_555
O11 S3 1.596800 1_555
O12 S6 1.440483 1_555
O13 S7 1.440483 1_555
O14 S6 1.594469 1_555
O15 S7 1.594469 1_555
O16 S7 1.432544 1_455
O17 S6 1.432544 1_555
O18 S0 1.459519 1_545
O19 S1 1.459519 1_565
O20 S4 1.477995 1_555
O21 S5 1.477995 1_555
O22 S4 1.604610 1_555
O23 S5 1.604610 1_555
O24 S0 1.512081 1_555
O25 S1 1.512081 1_555
O26 S7 1.573654 1_455
O27 S6 1.573654 1_555
O28 S3 1.522681 1_554
O29 S2 1.522681 1_556
O30 S4 1.429158 1_555
O31 S5 1.429158 1_555
