# generated using pymatgen
data_GdCoNi3B
_symmetry_space_group_name_H-M   'P 1'
_cell_length_a   5.00129100
_cell_length_b   5.00129120
_cell_length_c   6.93855300
_cell_angle_alpha   90.00000000
_cell_angle_beta   90.00000000
_cell_angle_gamma   120.00000529
_symmetry_Int_Tables_number   1
_chemical_formula_structural   GdCoNi3B
_chemical_formula_sum   'Gd2 Co2 Ni6 B2'
_cell_volume   150.30166281
_cell_formula_units_Z   2
loop_
 _symmetry_equiv_pos_site_id
 _symmetry_equiv_pos_as_xyz
  1  'x, y, z'
loop_
 _atom_site_type_symbol
 _atom_site_label
 _atom_site_symmetry_multiplicity
 _atom_site_fract_x
 _atom_site_fract_y
 _atom_site_fract_z
 _atom_site_occupancy
  Gd  Gd0  1  0.00000000  0.00000000  0.00000000  1
  Gd  Gd1  1  0.00000000  0.00000000  0.50000000  1
  Co  Co0  1  0.66666700  0.33333300  0.00000000  1
  Co  Co1  1  0.33333300  0.66666700  0.00000000  1
  Ni  Ni0  1  0.50000000  0.50000000  0.70714300  1
  Ni  Ni1  1  0.50000000  0.00000000  0.70714300  1
  Ni  Ni2  1  0.00000000  0.50000000  0.70714300  1
  Ni  Ni3  1  0.50000000  0.50000000  0.29285700  1
  Ni  Ni4  1  0.50000000  0.00000000  0.29285700  1
  Ni  Ni5  1  0.00000000  0.50000000  0.29285700  1
  B  B0  1  0.66666700  0.33333300  0.50000000  1
  B  B1  1  0.33333300  0.66666700  0.50000000  1
loop_
_geom_bond_atom_site_label_1
_geom_bond_atom_site_label_2
_geom_bond_distance
_geom_bond_site_symmetry_2
Gd1 Ni0 2.884264 1_555
Gd1 Ni3 2.884264 1_555
Gd1 Ni3 2.884264 1_445
Gd1 Ni0 2.884264 1_445
Gd1 Ni1 2.884264 1_555
Gd1 Ni4 2.884264 1_555
Gd1 Ni1 2.884264 1_455
Gd1 Ni4 2.884264 1_455
Gd1 Ni2 2.884264 1_545
Gd1 Ni5 2.884264 1_545
Gd1 Ni5 2.884264 1_555
Gd1 Ni2 2.884264 1_555
Co0 Ni5 2.492678 1_655
Co0 Ni2 2.492678 1_654
Co0 Ni4 2.492678 1_555
Co0 Ni1 2.492678 1_554
Co0 Ni3 2.492681 1_555
Co0 Ni0 2.492681 1_554
Co0 Gd0 2.887494 1_655
Co0 Gd0 2.887498 1_555
Co0 Gd0 2.887498 1_665
Co1 Ni5 2.492678 1_555
Co1 Ni2 2.492678 1_554
Co1 Ni4 2.492678 1_565
Co1 Ni1 2.492678 1_564
Co1 Ni3 2.492681 1_555
Co1 Ni0 2.492681 1_554
Co1 Gd0 2.887494 1_565
Co1 Gd0 2.887498 1_665
Co1 Gd0 2.887498 1_555
B0 Ni5 2.037194 1_655
B0 Ni2 2.037194 1_655
B0 Ni1 2.037194 1_555
B0 Ni4 2.037194 1_555
B0 Ni3 2.037197 1_555
B0 Ni0 2.037197 1_555
B0 Gd1 2.887494 1_655
B0 Gd1 2.887498 1_555
B0 Gd1 2.887498 1_665
B1 Ni5 2.037194 1_555
B1 Ni2 2.037194 1_555
B1 Ni1 2.037194 1_565
B1 Ni4 2.037194 1_565
B1 Ni3 2.037197 1_555
B1 Ni0 2.037197 1_555
B1 Gd1 2.887494 1_565
B1 Gd1 2.887498 1_665
B1 Gd1 2.887498 1_555
