# generated using pymatgen
data_VC3
_symmetry_space_group_name_H-M   'P 1'
_cell_length_a   6.14334400
_cell_length_b   6.21239517
_cell_length_c   8.02074873
_cell_angle_alpha   108.17580932
_cell_angle_beta   104.90491186
_cell_angle_gamma   88.25282637
_symmetry_Int_Tables_number   1
_chemical_formula_structural   VC3
_chemical_formula_sum   'V8 C24'
_cell_volume   280.63883989
_cell_formula_units_Z   8
loop_
 _symmetry_equiv_pos_site_id
 _symmetry_equiv_pos_as_xyz
  1  'x, y, z'
loop_
 _atom_site_type_symbol
 _atom_site_label
 _atom_site_symmetry_multiplicity
 _atom_site_fract_x
 _atom_site_fract_y
 _atom_site_fract_z
 _atom_site_occupancy
  V  V0  1  0.04842600  0.16976800  0.58175200  1
  V  V1  1  0.53482300  0.46543100  0.49382200  1
  V  V2  1  0.49537900  0.52672500  0.92663500  1
  V  V3  1  0.97190300  0.04166700  0.03794600  1
  V  V4  1  0.55159600  0.02318100  0.53645000  1
  V  V5  1  0.02177900  0.49669700  0.45461700  1
  V  V6  1  0.93162900  0.43392100  0.96619300  1
  V  V7  1  0.59129900  0.00309000  0.07555000  1
  C  C0  1  0.30178200  0.67423800  0.43005300  1
  C  C1  1  0.10667400  0.18806000  0.31953200  1
  C  C2  1  0.73484700  0.74323000  0.91740900  1
  C  C3  1  0.74370300  0.32847600  0.09028900  1
  C  C4  1  0.15526300  0.69664700  0.11191200  1
  C  C5  1  0.94897700  0.85144900  0.35779700  1
  C  C6  1  0.82135700  0.71331500  0.76169700  1
  C  C7  1  0.30522700  0.75891200  0.62530500  1
  C  C8  1  0.86674200  0.48516300  0.65916500  1
  C  C9  1  0.90357900  0.04000200  0.28584600  1
  C  C10  1  0.41855000  0.28773100  0.20604600  1
  C  C11  1  0.33346600  0.00967200  0.69936200  1
  C  C12  1  0.75043100  0.30418700  0.69508400  1
  C  C13  1  0.84135500  0.82291900  0.48669200  1
  C  C14  1  0.26697700  0.20436700  0.02473300  1
  C  C15  1  0.36775300  0.77316400  0.11062800  1
  C  C16  1  0.86120200  0.12486800  0.77239800  1
  C  C17  1  0.35829500  0.18641400  0.87025800  1
  C  C18  1  0.35103400  0.16578500  0.33193100  1
  C  C19  1  0.64919200  0.36247400  0.23885600  1
  C  C20  1  0.12474900  0.71298800  0.29083400  1
  C  C21  1  0.84482200  0.88564400  0.67834100  1
  C  C22  1  0.32182700  0.56755900  0.69159200  1
  C  C23  1  0.47535200  0.95225100  0.27126900  1
loop_
_geom_bond_atom_site_label_1
_geom_bond_atom_site_label_2
_geom_bond_distance
_geom_bond_site_symmetry_2
C0 C20 1.419384 1_555
C0 C7 1.483041 1_555
C0 V1 1.979374 1_555
C0 V5 2.154035 1_555
C0 V4 2.481489 1_565
C1 C18 1.483820 1_555
C1 C9 1.489045 1_455
C1 V5 2.013935 1_555
C1 V3 2.101446 1_455
C1 V0 2.259018 1_555
C2 C6 1.437859 1_555
C2 V7 2.050324 1_566
C2 V2 2.053663 1_555
C2 V3 2.194309 1_566
C2 V6 2.321847 1_555
C3 V6 1.948513 1_554
C3 V7 2.210458 1_555
C3 V3 2.236090 1_555
C3 V2 2.330444 1_554
C4 V6 2.009492 1_454
C4 V3 2.552901 1_465
C5 C9 1.449807 1_565
C5 V0 2.191693 1_665
C6 C8 1.459334 1_555
C7 V5 2.261711 1_555
C8 V1 2.110537 1_555
C8 V5 2.117854 1_655
C8 V0 2.221389 1_655
C9 V3 2.138277 1_555
C9 V7 2.167705 1_555
C9 V0 2.199617 1_655
C10 C19 1.436861 1_555
C10 C14 1.453646 1_555
C10 C18 1.573927 1_555
C10 V7 2.156618 1_555
C10 V1 2.160291 1_555
C11 C17 1.439244 1_555
C11 C7 1.481860 1_545
C11 V4 2.118069 1_555
C11 V0 2.138865 1_555
C12 C8 1.488141 1_555
C12 C16 1.502095 1_555
C12 V4 2.025663 1_555
C12 V6 2.081650 1_555
C12 V0 2.272514 1_655
C12 V1 2.278530 1_555
C12 V2 2.752943 1_555
C13 C5 1.417903 1_555
C13 C21 1.457792 1_555
C13 V4 2.190082 1_565
C13 V5 2.255301 1_655
C13 V0 2.342185 1_665
C14 C17 1.459396 1_554
C14 V3 2.143892 1_455
C14 V7 2.334026 1_555
C14 V6 2.497877 1_454
C15 C4 1.406394 1_555
C15 C23 1.430826 1_555
C15 V2 2.061309 1_554
C15 V7 2.138826 1_565
C16 C21 1.434754 1_545
C16 V6 2.032828 1_555
C16 V0 2.220218 1_655
C16 V4 2.252538 1_555
C16 V3 2.277354 1_556
C17 V2 2.167849 1_555
C17 V7 2.432142 1_556
C17 V0 2.566295 1_555
C18 C23 1.518711 1_545
C18 V1 2.071742 1_555
C18 V4 2.189562 1_555
C19 C3 1.411773 1_555
C19 V7 2.193437 1_555
C19 V1 2.231723 1_555
C19 V5 2.471386 1_655
C20 C5 1.465568 1_455
C20 C4 1.466720 1_555
C20 V5 2.347743 1_555
C20 V6 2.629299 1_454
C21 C6 1.455830 1_555
C21 V4 2.174494 1_565
C22 C7 1.437096 1_555
C22 V2 2.000756 1_555
C22 V5 2.220221 1_555
C22 V1 2.240589 1_555
C22 V0 2.799613 1_555
C23 V4 1.962869 1_565
C23 V7 1.992409 1_565
