# generated using pymatgen
data_LiOsN2
_symmetry_space_group_name_H-M   'P 1'
_cell_length_a   5.64538820
_cell_length_b   6.46234463
_cell_length_c   5.38474165
_cell_angle_alpha   90.00000000
_cell_angle_beta   90.00000000
_cell_angle_gamma   90.00000000
_symmetry_Int_Tables_number   1
_chemical_formula_structural   LiOsN2
_chemical_formula_sum   'Li4 Os4 N8'
_cell_volume   196.44853634
_cell_formula_units_Z   4
loop_
 _symmetry_equiv_pos_site_id
 _symmetry_equiv_pos_as_xyz
  1  'x, y, z'
loop_
 _atom_site_type_symbol
 _atom_site_label
 _atom_site_symmetry_multiplicity
 _atom_site_fract_x
 _atom_site_fract_y
 _atom_site_fract_z
 _atom_site_occupancy
  Li  Li0  1  0.57916817  0.37784851  0.00320955  1
  Li  Li1  1  0.42083183  0.62215149  0.50320955  1
  Li  Li2  1  0.92083183  0.87784851  0.50320955  1
  Li  Li3  1  0.07916817  0.12215149  0.00320955  1
  Os  Os0  1  0.57229561  0.87545610  0.00777395  1
  Os  Os1  1  0.42770439  0.12454390  0.50777395  1
  Os  Os2  1  0.92770439  0.37545610  0.50777395  1
  Os  Os3  1  0.07229561  0.62454390  0.00777395  1
  N  N0  1  0.60966793  0.35655878  0.40190789  1
  N  N1  1  0.39033207  0.64344122  0.90190789  1
  N  N2  1  0.89033207  0.85655878  0.90190789  1
  N  N3  1  0.10966793  0.14344122  0.40190789  1
  N  N4  1  0.56895695  0.89244841  0.35710961  1
  N  N5  1  0.43104305  0.10755159  0.85710961  1
  N  N6  1  0.93104305  0.39244841  0.85710961  1
  N  N7  1  0.06895695  0.60755159  0.35710961  1
loop_
_geom_bond_atom_site_label_1
_geom_bond_atom_site_label_2
_geom_bond_distance
_geom_bond_site_symmetry_2
Li0 N5 2.090293 1_554
Li0 N1 2.092817 1_554
Li0 N6 2.138663 1_554
Li0 N0 2.158171 1_555
Li1 N4 2.090293 1_555
Li1 N0 2.092817 1_555
Li1 N7 2.138663 1_555
Li1 N1 2.158171 1_555
Li2 N7 2.090293 1_655
Li2 N3 2.092817 1_665
Li2 N4 2.138663 1_555
Li2 N2 2.158171 1_555
Li3 N6 2.090293 1_454
Li3 N2 2.092817 1_444
Li3 N5 2.138663 1_554
Li3 N3 2.158171 1_555
N0 Os2 1.887720 1_555
N0 Os1 1.904811 1_555
N1 Os3 1.887720 1_556
N1 Os0 1.904811 1_556
N2 Os0 1.887720 1_556
N2 Os3 1.904811 1_656
N3 Os1 1.887720 1_555
N3 Os2 1.904811 1_455
N4 Os1 1.882477 1_565
N4 Os0 1.884379 1_555
N5 Os0 1.882477 1_546
N5 Os1 1.884379 1_555
N6 Os3 1.882477 1_656
N6 Os2 1.884379 1_555
N7 Os2 1.882477 1_455
N7 Os3 1.884379 1_555
