# generated using pymatgen
data_SrNd10Se12(Cl2O9)4
_symmetry_space_group_name_H-M   'P 1'
_cell_length_a   12.07199035
_cell_length_b   12.07199035
_cell_length_c   16.03222647
_cell_angle_alpha   89.94624649
_cell_angle_beta   89.94624649
_cell_angle_gamma   82.43692160
_symmetry_Int_Tables_number   1
_chemical_formula_structural   SrNd10Se12(Cl2O9)4
_chemical_formula_sum   'Sr2 Nd20 Se24 Cl16 O72'
_cell_volume   2316.09629855
_cell_formula_units_Z   2
loop_
 _symmetry_equiv_pos_site_id
 _symmetry_equiv_pos_as_xyz
  1  'x, y, z'
loop_
 _atom_site_type_symbol
 _atom_site_label
 _atom_site_symmetry_multiplicity
 _atom_site_fract_x
 _atom_site_fract_y
 _atom_site_fract_z
 _atom_site_occupancy
  Sr  Sr0  1  0.45057100  0.18742400  0.86956400  1
  Sr  Sr1  1  0.18742400  0.45057100  0.36956400  1
  Nd  Nd0  1  0.25035000  0.75052300  0.74992200  1
  Nd  Nd1  1  0.75052300  0.25035000  0.24992200  1
  Nd  Nd2  1  0.74755900  0.25077700  0.98659100  1
  Nd  Nd3  1  0.25077700  0.74755900  0.48659100  1
  Nd  Nd4  1  0.25050300  0.74925000  0.01309400  1
  Nd  Nd5  1  0.74925000  0.25050300  0.51309400  1
  Nd  Nd6  1  0.51255000  0.48569600  0.75131200  1
  Nd  Nd7  1  0.48569600  0.51255000  0.25131200  1
  Nd  Nd8  1  0.01287800  0.98662600  0.25009400  1
  Nd  Nd9  1  0.98662600  0.01287800  0.75009400  1
  Nd  Nd10  1  0.49876300  0.49783100  0.99946200  1
  Nd  Nd11  1  0.49783100  0.49876300  0.49946200  1
  Nd  Nd12  1  0.00047500  0.99977800  0.49999300  1
  Nd  Nd13  1  0.99977800  0.00047500  0.99999300  1
  Nd  Nd14  1  0.30534500  0.04569600  0.37004800  1
  Nd  Nd15  1  0.04569600  0.30534500  0.87004800  1
  Nd  Nd16  1  0.54395600  0.80547700  0.12939700  1
  Nd  Nd17  1  0.80547700  0.54395600  0.62939700  1
  Nd  Nd18  1  0.69374300  0.95703800  0.63131000  1
  Nd  Nd19  1  0.95703800  0.69374300  0.13131000  1
  Se  Se0  1  0.49737800  0.75347600  0.89910900  1
  Se  Se1  1  0.75347600  0.49737800  0.39910900  1
  Se  Se2  1  0.74619800  0.00309200  0.39941500  1
  Se  Se3  1  0.00309200  0.74619800  0.89941500  1
  Se  Se4  1  0.50423400  0.24836600  0.10179400  1
  Se  Se5  1  0.24836600  0.50423400  0.60179400  1
  Se  Se6  1  0.25327500  0.99723000  0.60046800  1
  Se  Se7  1  0.99723000  0.25327500  0.10046800  1
  Se  Se8  1  0.75299400  0.47292400  0.86002600  1
  Se  Se9  1  0.47292400  0.75299400  0.36002600  1
  Se  Se10  1  0.02698700  0.75036900  0.36116900  1
  Se  Se11  1  0.75036900  0.02698700  0.86116900  1
  Se  Se12  1  0.25008000  0.52760500  0.13833100  1
  Se  Se13  1  0.52760500  0.25008000  0.63833100  1
  Se  Se14  1  0.97276200  0.25180500  0.64004600  1
  Se  Se15  1  0.25180500  0.97276200  0.14004600  1
  Se  Se16  1  0.22286800  0.02195200  0.87231900  1
  Se  Se17  1  0.02195200  0.22286800  0.37231900  1
  Se  Se18  1  0.47950200  0.27706900  0.37218400  1
  Se  Se19  1  0.27706900  0.47950200  0.87218400  1
  Se  Se20  1  0.77695600  0.97811100  0.12768300  1
  Se  Se21  1  0.97811100  0.77695600  0.62768300  1
  Se  Se22  1  0.52232500  0.72308700  0.62761700  1
  Se  Se23  1  0.72308700  0.52232500  0.12761700  1
  Cl  Cl0  1  0.23937800  0.25449200  0.76466100  1
  Cl  Cl1  1  0.25449200  0.23937800  0.26466100  1
  Cl  Cl2  1  0.74921000  0.75132200  0.23243000  1
  Cl  Cl3  1  0.75132200  0.74921000  0.73243000  1
  Cl  Cl4  1  0.23875900  0.25381500  0.98180700  1
  Cl  Cl5  1  0.25381500  0.23875900  0.48180700  1
  Cl  Cl6  1  0.75064500  0.74989100  0.02158000  1
  Cl  Cl7  1  0.74989100  0.75064500  0.52158000  1
  Cl  Cl8  1  0.50507900  0.98883900  0.74217000  1
  Cl  Cl9  1  0.98883900  0.50507900  0.24217000  1
  Cl  Cl10  1  0.50032000  0.99887700  0.25037200  1
  Cl  Cl11  1  0.99887700  0.50032000  0.75037200  1
  Cl  Cl12  1  0.50568700  0.99001600  0.00796700  1
  Cl  Cl13  1  0.99001600  0.50568700  0.50796700  1
  Cl  Cl14  1  0.50052400  0.99941500  0.49936600  1
  Cl  Cl15  1  0.99941500  0.50052400  0.99936600  1
  O  O0  1  0.63587400  0.40953500  0.88719200  1
  O  O1  1  0.40953500  0.63587400  0.38719200  1
  O  O2  1  0.08793800  0.87038700  0.38688300  1
  O  O3  1  0.87038700  0.08793800  0.88688300  1
  O  O4  1  0.36635200  0.59270500  0.10873500  1
  O  O5  1  0.59270500  0.36635200  0.60873500  1
  O  O6  1  0.90984000  0.13411300  0.61252400  1
  O  O7  1  0.13411300  0.90984000  0.11252400  1
  O  O8  1  0.53156200  0.61362000  0.87212100  1
  O  O9  1  0.61362000  0.53156200  0.37212100  1
  O  O10  1  0.88590600  0.96941900  0.37187200  1
  O  O11  1  0.96941900  0.88590600  0.87187200  1
  O  O12  1  0.46880700  0.38787800  0.13030600  1
  O  O13  1  0.38787800  0.46880700  0.63030600  1
  O  O14  1  0.11309400  0.03086000  0.62802400  1
  O  O15  1  0.03086000  0.11309400  0.12802400  1
  O  O16  1  0.35758400  0.78477900  0.87515000  1
  O  O17  1  0.78477900  0.35758400  0.37515000  1
  O  O18  1  0.71553100  0.14263900  0.37511200  1
  O  O19  1  0.14263900  0.71553100  0.87511200  1
  O  O20  1  0.64371700  0.21456400  0.12651200  1
  O  O21  1  0.21456400  0.64371700  0.62651300  1
  O  O22  1  0.28421300  0.85765700  0.62482300  1
  O  O23  1  0.85765700  0.28421300  0.12482300  1
  O  O24  1  0.19848700  0.94211100  0.95881400  1
  O  O25  1  0.94211100  0.19848700  0.45881400  1
  O  O26  1  0.56008000  0.29929500  0.45882800  1
  O  O27  1  0.29929500  0.56008000  0.95882800  1
  O  O28  1  0.80182900  0.05809200  0.04119300  1
  O  O29  1  0.05809200  0.80182900  0.54119300  1
  O  O30  1  0.44263600  0.69840500  0.54112300  1
  O  O31  1  0.69840500  0.44263600  0.04112300  1
  O  O32  1  0.84641800  0.35318300  0.87825700  1
  O  O33  1  0.35318300  0.84641800  0.37825700  1
  O  O34  1  0.14593500  0.65934000  0.37877300  1
  O  O35  1  0.65934000  0.14593500  0.87877300  1
  O  O36  1  0.15477100  0.64756300  0.12099100  1
  O  O37  1  0.64756300  0.15477100  0.62099100  1
  O  O38  1  0.85258000  0.34482000  0.62251700  1
  O  O39  1  0.34482000  0.85258000  0.12251700  1
  O  O40  1  0.47195700  0.72273400  0.00457200  1
  O  O41  1  0.72273400  0.47195700  0.50457200  1
  O  O42  1  0.77731200  0.02777900  0.50485700  1
  O  O43  1  0.02777900  0.77731200  0.00485700  1
  O  O44  1  0.53143200  0.28133800  0.99768200  1
  O  O45  1  0.28133800  0.53143200  0.49768200  1
  O  O46  1  0.22221900  0.97136700  0.49515200  1
  O  O47  1  0.97136700  0.22221900  0.99515200  1
  O  O48  1  0.72168400  0.47927600  0.75400700  1
  O  O49  1  0.47927600  0.72168400  0.25400700  1
  O  O50  1  0.02044700  0.78025100  0.25412000  1
  O  O51  1  0.78025100  0.02044700  0.75412000  1
  O  O52  1  0.28096400  0.52260000  0.24285900  1
  O  O53  1  0.52260000  0.28096400  0.74285900  1
  O  O54  1  0.97786300  0.22103300  0.74606000  1
  O  O55  1  0.22103300  0.97786300  0.24606000  1
  O  O56  1  0.19404800  0.94508700  0.78674900  1
  O  O57  1  0.94508700  0.19404800  0.28674900  1
  O  O58  1  0.55679600  0.30408900  0.28583000  1
  O  O59  1  0.30408900  0.55679600  0.78583000  1
  O  O60  1  0.80625100  0.05464200  0.21343600  1
  O  O61  1  0.05464200  0.80625100  0.71343600  1
  O  O62  1  0.44501800  0.69407700  0.71312400  1
  O  O63  1  0.69407700  0.44501800  0.21312400  1
  O  O64  1  0.08894800  0.09925000  0.87447700  1
  O  O65  1  0.09925000  0.08894800  0.37447700  1
  O  O66  1  0.40551400  0.41141800  0.37514800  1
  O  O67  1  0.41141800  0.40551400  0.87514800  1
  O  O68  1  0.91082600  0.90014300  0.12535900  1
  O  O69  1  0.90014300  0.91082600  0.62535900  1
  O  O70  1  0.60036600  0.58943000  0.62551400  1
  O  O71  1  0.58943000  0.60036600  0.12551400  1
loop_
_geom_bond_atom_site_label_1
_geom_bond_atom_site_label_2
_geom_bond_distance
_geom_bond_site_symmetry_2
Nd0 O59 2.412561 1_555
Nd0 O56 2.430826 1_555
Nd0 O62 2.431386 1_555
Nd0 O21 2.432415 1_555
Nd0 O61 2.441317 1_555
Nd0 O22 2.448479 1_555
Nd0 O16 2.454580 1_555
Nd0 O19 2.456753 1_555
Nd1 O58 2.412561 1_555
Nd1 O57 2.430826 1_555
Nd1 O63 2.431386 1_555
Nd1 O20 2.432428 1_555
Nd1 O60 2.441317 1_555
Nd1 O23 2.448479 1_555
Nd1 O17 2.454580 1_555
Nd1 O18 2.456753 1_555
Nd2 O35 2.467054 1_555
Nd2 O31 2.474250 1_556
Nd2 O28 2.490448 1_556
Nd2 O32 2.519843 1_555
Nd2 O44 2.592472 1_555
Nd2 O20 2.632843 1_556
Nd2 O23 2.643720 1_556
Nd2 O47 2.681953 1_555
Nd2 O0 2.710812 1_555
Nd2 O3 2.802224 1_555
Nd3 O34 2.467054 1_555
Nd3 O30 2.474250 1_555
Nd3 O29 2.490448 1_555
Nd3 O33 2.519843 1_555
Nd3 O45 2.592472 1_555
Nd3 O21 2.632857 1_555
Nd3 O22 2.643720 1_555
Nd3 O46 2.681953 1_555
Nd3 O1 2.710812 1_555
Nd3 O2 2.802224 1_555
Nd4 O27 2.442873 1_554
Nd4 O24 2.486881 1_554
Nd4 O36 2.490084 1_555
Nd4 O39 2.512304 1_555
Nd4 O16 2.623879 1_554
Nd4 O19 2.627073 1_554
Nd4 O40 2.653730 1_555
Nd4 O43 2.668753 1_555
Nd4 O4 2.679787 1_555
Nd4 O7 2.749217 1_555
Nd5 O26 2.442873 1_555
Nd5 O25 2.486881 1_555
Nd5 O37 2.490084 1_555
Nd5 O38 2.512304 1_555
Nd5 O17 2.623879 1_555
Nd5 O18 2.627073 1_555
Nd5 O41 2.653730 1_555
Nd5 O42 2.668753 1_555
Nd5 O5 2.679787 1_555
Nd5 O6 2.749217 1_555
Nd6 O53 2.462352 1_555
Nd6 O13 2.481389 1_555
Nd6 O8 2.507711 1_555
Nd6 O48 2.516047 1_555
Nd6 O67 2.583032 1_555
Nd6 O59 2.608759 1_555
Nd6 O62 2.612618 1_555
Nd6 O70 2.664642 1_555
Nd6 O0 2.729367 1_555
Nd6 O5 2.805716 1_555
Nd7 O52 2.462352 1_555
Nd7 O12 2.481389 1_555
Nd7 O9 2.507711 1_555
Nd7 O49 2.516047 1_555
Nd7 O66 2.583032 1_555
Nd7 O58 2.608759 1_555
Nd7 O63 2.612618 1_555
Nd7 O71 2.664642 1_555
Nd7 O1 2.729367 1_555
Nd7 O4 2.805716 1_555
Nd8 O50 2.481766 1_555
Nd8 O55 2.501899 1_555
Nd8 O10 2.506359 1_455
Nd8 O15 2.507767 1_565
Nd8 O60 2.589271 1_465
Nd8 O57 2.597598 1_465
Nd8 O65 2.633841 1_565
Nd8 O68 2.637038 1_455
Nd8 O2 2.694953 1_555
Nd8 O7 2.739773 1_555
Nd9 O51 2.481766 1_555
Nd9 O54 2.501899 1_555
Nd9 O11 2.506359 1_545
Nd9 O14 2.507767 1_655
Nd9 O61 2.589271 1_645
Nd9 O56 2.597598 1_645
Nd9 O64 2.633841 1_655
Nd9 O69 2.637038 1_545
Nd9 O3 2.694953 1_555
Nd9 O6 2.739773 1_555
Nd10 O31 2.505598 1_556
Nd10 O27 2.512596 1_555
Nd10 O12 2.532346 1_556
Nd10 O8 2.533262 1_555
Nd10 O4 2.540187 1_556
Nd10 O67 2.577485 1_555
Nd10 O0 2.578608 1_555
Nd10 O44 2.591436 1_555
Nd10 O71 2.679486 1_556
Nd10 O40 2.692934 1_556
Nd11 O30 2.505598 1_555
Nd11 O26 2.512596 1_555
Nd11 O13 2.532346 1_555
Nd11 O9 2.533262 1_555
Nd11 O5 2.540187 1_555
Nd11 O66 2.577485 1_555
Nd11 O1 2.578608 1_555
Nd11 O45 2.591436 1_555
Nd11 O70 2.679486 1_555
Nd11 O41 2.692934 1_555
Nd12 O29 2.488139 1_555
Nd12 O25 2.497914 1_465
Nd12 O14 2.518601 1_565
Nd12 O10 2.531121 1_455
Nd12 O2 2.531938 1_555
Nd12 O6 2.572276 1_465
Nd12 O65 2.638045 1_565
Nd12 O69 2.644535 1_455
Nd12 O46 2.654691 1_555
Nd12 O42 2.671710 1_465
Nd13 O28 2.488139 1_556
Nd13 O24 2.497914 1_645
Nd13 O15 2.518601 1_656
Nd13 O11 2.531121 1_545
Nd13 O3 2.531938 1_555
Nd13 O7 2.572276 1_646
Nd13 O64 2.638045 1_655
Nd13 O68 2.644535 1_546
Nd13 O47 2.654691 1_555
Nd13 O43 2.671710 1_646
Nd14 O33 2.402493 1_545
Nd14 O55 2.425720 1_545
Nd14 O46 2.462689 1_545
Nd14 O65 2.474970 1_555
Nd15 O32 2.402493 1_455
Nd15 O54 2.425720 1_455
Nd15 O47 2.462689 1_455
Nd15 O64 2.474970 1_555
Nd16 O39 2.398981 1_555
Nd16 O49 2.413546 1_555
Nd16 O40 2.448193 1_555
Nd16 O71 2.465504 1_555
Nd17 O38 2.398981 1_555
Nd17 O48 2.413546 1_555
Nd17 O41 2.448193 1_555
Nd17 O70 2.465504 1_555
Nd18 O37 2.384368 1_565
Nd18 O51 2.402148 1_565
Nd18 O42 2.465116 1_565
Nd18 O69 2.482426 1_555
Nd19 O36 2.384368 1_655
Nd19 O50 2.402148 1_655
Nd19 O43 2.465116 1_655
Nd19 O68 2.482426 1_555
Se16 Sr0 3.604629 1_555
Se17 Sr1 3.604629 1_555
Cl0 Nd15 2.883593 1_555
Cl0 Sr0 3.073474 1_555
Cl1 Nd14 2.883593 1_555
Cl1 Sr1 3.073474 1_555
Cl2 Nd16 2.979070 1_555
Cl2 Nd19 2.990211 1_555
Cl3 Nd17 2.979070 1_555
Cl3 Nd18 2.990211 1_555
Cl4 Nd15 2.941661 1_555
Cl4 Sr0 3.142196 1_555
Cl5 Nd14 2.941661 1_555
Cl5 Sr1 3.142196 1_555
Cl6 Nd16 3.035994 1_555
Cl6 Nd19 3.053465 1_555
Cl7 Nd17 3.035994 1_555
Cl7 Nd18 3.053465 1_555
Cl8 Nd18 2.873508 1_555
Cl8 Sr0 3.153247 1_565
Cl9 Nd19 2.873508 1_555
Cl9 Sr1 3.153247 1_655
Cl10 Nd16 3.028681 1_555
Cl10 Nd14 3.030545 1_565
Cl11 Nd17 3.028681 1_555
Cl11 Nd15 3.030545 1_655
Cl12 Nd16 2.947702 1_555
Cl12 Sr0 3.258975 1_564
Cl13 Nd17 2.947702 1_555
Cl13 Sr1 3.258975 1_655
Cl14 Nd14 3.134115 1_565
Cl14 Nd18 3.141702 1_555
Cl15 Nd15 3.134115 1_655
Cl15 Nd19 3.141702 1_556
O0 Se8 1.748520 1_555
O1 Se9 1.748520 1_555
O2 Se10 1.758651 1_555
O3 Se11 1.758651 1_555
O4 Se12 1.761071 1_555
O5 Se13 1.761071 1_555
O6 Se14 1.753902 1_555
O7 Se15 1.753902 1_555
O8 Se0 1.739434 1_555
O9 Se1 1.739434 1_555
O10 Se2 1.738725 1_565
O11 Se3 1.738725 1_655
O12 Se4 1.743507 1_555
O13 Se5 1.743507 1_555
O14 Se6 1.744085 1_545
O15 Se7 1.744085 1_455
O16 Se0 1.723770 1_555
O17 Se1 1.723770 1_555
O18 Se2 1.720944 1_555
O19 Se3 1.720944 1_555
O20 Se4 1.725961 1_555
O21 Se5 1.725964 1_555
O22 Se6 1.721717 1_555
O23 Se7 1.721717 1_555
O24 Se16 1.734928 1_565
O25 Se17 1.734928 1_655
O26 Se18 1.737738 1_555
O27 Se19 1.737738 1_555
O28 Se20 1.737287 1_545
O29 Se21 1.737287 1_455
O30 Se22 1.736629 1_555
O31 Se23 1.736629 1_555
O32 Se8 1.737118 1_555
O33 Se9 1.737118 1_555
O34 Se10 1.712882 1_555
O34 Sr1 2.508512 1_555
O35 Se11 1.712882 1_555
O35 Sr0 2.508512 1_555
O36 Se12 1.749122 1_555
O37 Se13 1.749122 1_555
O38 Se14 1.736689 1_555
O39 Se15 1.736689 1_555
O40 Se0 1.765945 1_554
O41 Se1 1.765945 1_555
O42 Se2 1.766123 1_555
O43 Se3 1.766123 1_554
O44 Se4 1.756251 1_556
O44 Sr0 2.599356 1_555
O45 Se5 1.756251 1_555
O45 Sr1 2.599356 1_555
O46 Se6 1.766887 1_555
O47 Se7 1.766887 1_556
O48 Se8 1.741013 1_555
O49 Se9 1.741013 1_555
O50 Se10 1.753116 1_555
O51 Se11 1.753116 1_555
O52 Se12 1.716411 1_555
O52 Sr1 2.531501 1_555
O53 Se13 1.716411 1_555
O53 Sr0 2.531501 1_555
O54 Se14 1.738838 1_555
O55 Se15 1.738838 1_555
O56 Se16 1.718250 1_565
O57 Se17 1.718250 1_655
O58 Se18 1.723542 1_555
O59 Se19 1.723542 1_555
O60 Se20 1.719893 1_545
O61 Se21 1.719893 1_455
O62 Se22 1.719189 1_555
O63 Se23 1.719189 1_555
O64 Se16 1.757398 1_555
O65 Se17 1.757398 1_555
O66 Se18 1.746196 1_555
O66 Sr1 2.614525 1_555
O67 Se19 1.746196 1_555
O67 Sr0 2.614525 1_555
O68 Se20 1.760270 1_555
O69 Se21 1.760270 1_555
O70 Se22 1.758411 1_555
O71 Se23 1.758411 1_555
