# generated using pymatgen
data_K3YbSi2O7
_symmetry_space_group_name_H-M   'P 1'
_cell_length_a   10.05160674
_cell_length_b   10.05160674
_cell_length_c   14.59081300
_cell_angle_alpha   90.00000000
_cell_angle_beta   90.00000000
_cell_angle_gamma   120.00000487
_symmetry_Int_Tables_number   1
_chemical_formula_structural   K3YbSi2O7
_chemical_formula_sum   'K18 Yb6 Si12 O42'
_cell_volume   1276.67713289
_cell_formula_units_Z   6
loop_
 _symmetry_equiv_pos_site_id
 _symmetry_equiv_pos_as_xyz
  1  'x, y, z'
loop_
 _atom_site_type_symbol
 _atom_site_label
 _atom_site_symmetry_multiplicity
 _atom_site_fract_x
 _atom_site_fract_y
 _atom_site_fract_z
 _atom_site_occupancy
  K  K0  1  0.00000000  0.00000000  0.50000000  1
  K  K1  1  0.33496600  0.00000000  0.08572200  1
  K  K2  1  0.33496600  0.33496600  0.58572200  1
  K  K3  1  0.00000000  0.66503400  0.58572200  1
  K  K4  1  0.00000000  0.33496600  0.08572200  1
  K  K5  1  0.66503400  0.66503400  0.08572200  1
  K  K6  1  0.33496600  0.00000000  0.41427800  1
  K  K7  1  0.00000000  0.00000000  0.00000000  1
  K  K8  1  0.33333300  0.66666700  0.75000000  1
  K  K9  1  0.66666700  0.33333300  0.25000000  1
  K  K10  1  0.66666700  0.33333300  0.75000000  1
  K  K11  1  0.33333300  0.66666700  0.25000000  1
  K  K12  1  0.66503400  0.66503400  0.41427800  1
  K  K13  1  0.66503400  0.00000000  0.91427800  1
  K  K14  1  0.00000000  0.66503400  0.91427800  1
  K  K15  1  0.00000000  0.33496600  0.41427800  1
  K  K16  1  0.66503400  0.00000000  0.58572200  1
  K  K17  1  0.33496600  0.33496600  0.91427800  1
  Yb  Yb0  1  0.00000000  0.00000000  0.75000000  1
  Yb  Yb1  1  0.33333300  0.66666700  0.00000000  1
  Yb  Yb2  1  0.66666700  0.33333300  0.50000000  1
  Yb  Yb3  1  0.66666700  0.33333300  0.00000000  1
  Yb  Yb4  1  0.33333300  0.66666700  0.50000000  1
  Yb  Yb5  1  0.00000000  0.00000000  0.25000000  1
  Si  Si0  1  0.65967300  0.65967300  0.85679900  1
  Si  Si1  1  0.34032700  0.00000000  0.85679900  1
  Si  Si2  1  0.00000000  0.34032700  0.85679900  1
  Si  Si3  1  0.00000000  0.65967300  0.35679900  1
  Si  Si4  1  0.34032700  0.00000000  0.64320100  1
  Si  Si5  1  0.34032700  0.34032700  0.35679900  1
  Si  Si6  1  0.65967300  0.00000000  0.35679900  1
  Si  Si7  1  0.34032700  0.34032700  0.14320100  1
  Si  Si8  1  0.00000000  0.65967300  0.14320100  1
  Si  Si9  1  0.00000000  0.34032700  0.64320100  1
  Si  Si10  1  0.65967300  0.65967300  0.64320100  1
  Si  Si11  1  0.65967300  0.00000000  0.14320100  1
  O  O0  1  0.40375300  0.00000000  0.75000000  1
  O  O1  1  0.40375300  0.40375300  0.25000000  1
  O  O2  1  0.00000000  0.59624700  0.25000000  1
  O  O3  1  0.00000000  0.40375300  0.75000000  1
  O  O4  1  0.59624700  0.59624700  0.75000000  1
  O  O5  1  0.59624700  0.00000000  0.25000000  1
  O  O6  1  0.82168000  0.82168000  0.85599700  1
  O  O7  1  0.17832000  0.00000000  0.85599700  1
  O  O8  1  0.00000000  0.17832000  0.85599700  1
  O  O9  1  0.00000000  0.82168000  0.35599700  1
  O  O10  1  0.17832000  0.00000000  0.64400300  1
  O  O11  1  0.17832000  0.17832000  0.35599700  1
  O  O12  1  0.82168000  0.00000000  0.35599700  1
  O  O13  1  0.17832000  0.17832000  0.14400300  1
  O  O14  1  0.00000000  0.82168000  0.14400300  1
  O  O15  1  0.00000000  0.17832000  0.64400300  1
  O  O16  1  0.82168000  0.82168000  0.64400300  1
  O  O17  1  0.82168000  0.00000000  0.14400300  1
  O  O18  1  0.32345700  0.84721100  0.90736800  1
  O  O19  1  0.15278900  0.47624600  0.90736800  1
  O  O20  1  0.52375400  0.67654300  0.90736800  1
  O  O21  1  0.47624600  0.32345700  0.40736800  1
  O  O22  1  0.67654300  0.52375400  0.59263200  1
  O  O23  1  0.67654300  0.15278900  0.40736800  1
  O  O24  1  0.84721100  0.52375400  0.40736800  1
  O  O25  1  0.15278900  0.67654300  0.09263200  1
  O  O26  1  0.52375400  0.84721100  0.09263200  1
  O  O27  1  0.47624600  0.15278900  0.59263200  1
  O  O28  1  0.84721100  0.32345700  0.59263200  1
  O  O29  1  0.32345700  0.47624600  0.09263200  1
  O  O30  1  0.67654300  0.15278900  0.09263200  1
  O  O31  1  0.84721100  0.52375400  0.09263200  1
  O  O32  1  0.47624600  0.32345700  0.09263200  1
  O  O33  1  0.52375400  0.67654300  0.59263200  1
  O  O34  1  0.32345700  0.47624600  0.40736800  1
  O  O35  1  0.32345700  0.84721100  0.59263200  1
  O  O36  1  0.67654300  0.52375400  0.90736800  1
  O  O37  1  0.15278900  0.67654300  0.40736800  1
  O  O38  1  0.52375400  0.84721100  0.40736800  1
  O  O39  1  0.47624600  0.15278900  0.90736800  1
  O  O40  1  0.84721100  0.32345700  0.90736800  1
  O  O41  1  0.15278900  0.47624600  0.59263200  1
loop_
_geom_bond_atom_site_label_1
_geom_bond_atom_site_label_2
_geom_bond_distance
_geom_bond_site_symmetry_2
K0 O11 2.761778 1_555
K0 O16 2.761778 1_445
K0 O15 2.761778 1_555
K0 O10 2.761778 1_555
K0 O12 2.761778 1_455
K0 O9 2.761778 1_545
K1 O25 2.824968 1_545
K1 O32 2.824968 1_555
K1 O30 2.980614 1_555
K1 O26 2.980615 1_545
K1 O39 2.994402 1_554
K1 O18 2.994402 1_544
K1 O14 3.039282 1_545
K1 O13 3.039282 1_555
K2 O41 2.824968 1_555
K2 O27 2.824968 1_555
K2 O33 2.980614 1_555
K2 O22 2.980614 1_555
K2 O34 2.994402 1_555
K2 O21 2.994402 1_555
K2 O10 3.039282 1_555
K2 O15 3.039282 1_555
K3 O35 2.824968 1_555
K3 O22 2.824968 1_455
K3 O28 2.980614 1_455
K3 O41 2.980615 1_555
K3 O24 2.994402 1_455
K3 O37 2.994402 1_555
K3 O10 3.039282 1_565
K3 O16 3.039282 1_455
K4 O30 2.824968 1_455
K4 O29 2.824968 1_555
K4 O25 2.980614 1_555
K4 O31 2.980615 1_455
K4 O19 2.994402 1_554
K4 O40 2.994402 1_454
K4 O17 3.039282 1_455
K4 O13 3.039282 1_555
K5 O31 2.824968 1_555
K5 O26 2.824968 1_555
K5 O32 2.980614 1_555
K5 O29 2.980614 1_555
K5 O36 2.994402 1_554
K5 O20 2.994402 1_554
K5 O17 3.039282 1_565
K5 O14 3.039282 1_655
K6 O37 2.824968 1_545
K6 O21 2.824968 1_555
K6 O23 2.980614 1_555
K6 O38 2.980615 1_545
K6 O27 2.994402 1_555
K6 O35 2.994402 1_545
K6 O9 3.039282 1_545
K6 O11 3.039282 1_555
K7 O13 2.761778 1_555
K7 O6 2.761778 1_444
K7 O8 2.761778 1_554
K7 O7 2.761778 1_554
K7 O14 2.761778 1_545
K7 O17 2.761778 1_455
K8 O18 2.958978 1_555
K8 O35 2.958978 1_555
K8 O41 2.958981 1_555
K8 O19 2.958981 1_555
K8 O33 2.958984 1_555
K8 O20 2.958984 1_555
K8 O0 3.058672 1_565
K8 O3 3.058675 1_555
K8 O4 3.058682 1_555
K9 O23 2.958978 1_555
K9 O30 2.958978 1_555
K9 O24 2.958981 1_555
K9 O31 2.958981 1_555
K9 O21 2.958984 1_555
K9 O32 2.958984 1_555
K9 O5 3.058672 1_555
K9 O2 3.058675 1_655
K9 O1 3.058682 1_555
K10 O40 2.958978 1_555
K10 O28 2.958978 1_555
K10 O27 2.958981 1_555
K10 O39 2.958981 1_555
K10 O36 2.958984 1_555
K10 O22 2.958984 1_555
K10 O3 3.058672 1_655
K10 O0 3.058675 1_555
K10 O4 3.058682 1_555
K11 O37 2.958978 1_555
K11 O25 2.958978 1_555
K11 O26 2.958981 1_555
K11 O38 2.958981 1_555
K11 O29 2.958984 1_555
K11 O34 2.958984 1_555
K11 O2 3.058672 1_555
K11 O5 3.058675 1_565
K11 O1 3.058682 1_555
K12 O24 2.824968 1_555
K12 O38 2.824968 1_555
K12 O21 2.980614 1_555
K12 O34 2.980614 1_555
K12 O33 2.994402 1_555
K12 O22 2.994402 1_555
K12 O12 3.039282 1_565
K12 O9 3.039282 1_655
K13 O40 2.824968 1_555
K13 O20 2.824968 1_545
K13 O18 2.980614 1_545
K13 O39 2.980615 1_555
K13 O26 2.994402 1_546
K13 O30 2.994402 1_556
K13 O8 3.039282 1_655
K13 O6 3.039282 1_545
K14 O18 2.824968 1_555
K14 O36 2.824968 1_455
K14 O40 2.980614 1_455
K14 O19 2.980615 1_555
K14 O31 2.994402 1_456
K14 O25 2.994402 1_556
K14 O7 3.039282 1_565
K14 O6 3.039282 1_455
K15 O23 2.824968 1_455
K15 O34 2.824968 1_555
K15 O37 2.980614 1_555
K15 O24 2.980615 1_455
K15 O41 2.994402 1_555
K15 O28 2.994402 1_455
K15 O12 3.039282 1_455
K15 O11 3.039282 1_555
K16 O28 2.824968 1_555
K16 O33 2.824968 1_545
K16 O35 2.980614 1_545
K16 O27 2.980615 1_555
K16 O38 2.994402 1_545
K16 O23 2.994402 1_555
K16 O15 3.039282 1_655
K16 O16 3.039282 1_545
K17 O19 2.824968 1_555
K17 O39 2.824968 1_555
K17 O20 2.980614 1_555
K17 O36 2.980614 1_555
K17 O29 2.994402 1_556
K17 O32 2.994402 1_556
K17 O7 3.039282 1_555
K17 O8 3.039282 1_555
O0 Si1 1.683656 1_555
O0 Si4 1.683656 1_555
O1 Si7 1.683656 1_555
O1 Si5 1.683656 1_555
O2 Si8 1.683656 1_555
O2 Si3 1.683656 1_555
O3 Si9 1.683656 1_555
O3 Si2 1.683656 1_555
O4 Si10 1.683656 1_555
O4 Si0 1.683656 1_555
O5 Si6 1.683656 1_555
O5 Si11 1.683656 1_555
O6 Si0 1.628473 1_555
O6 Yb0 2.367409 1_665
O7 Si1 1.628473 1_555
O7 Yb0 2.367409 1_555
O8 Si2 1.628473 1_555
O8 Yb0 2.367409 1_555
O9 Si3 1.628473 1_555
O9 Yb5 2.367409 1_565
O10 Si4 1.628473 1_555
O10 Yb0 2.367409 1_555
O11 Si5 1.628473 1_555
O11 Yb5 2.367409 1_555
O12 Si6 1.628473 1_555
O12 Yb5 2.367409 1_655
O13 Si7 1.628473 1_555
O13 Yb5 2.367409 1_555
O14 Si8 1.628473 1_555
O14 Yb5 2.367409 1_565
O15 Si9 1.628473 1_555
O15 Yb0 2.367409 1_555
O16 Si10 1.628473 1_555
O16 Yb0 2.367409 1_665
O17 Si11 1.628473 1_555
O17 Yb5 2.367409 1_655
O18 Si1 1.634426 1_565
O18 Yb1 2.304367 1_556
O19 Si2 1.634426 1_555
O19 Yb1 2.304371 1_556
O20 Si0 1.634426 1_555
O20 Yb1 2.304375 1_556
O21 Si5 1.634426 1_555
O21 Yb2 2.304375 1_555
O22 Si10 1.634426 1_555
O22 Yb2 2.304375 1_555
O23 Si6 1.634426 1_555
O23 Yb2 2.304367 1_555
O24 Si3 1.634426 1_655
O24 Yb2 2.304371 1_555
O25 Si8 1.634426 1_555
O25 Yb1 2.304367 1_555
O26 Si11 1.634426 1_565
O26 Yb1 2.304371 1_555
O27 Si4 1.634426 1_555
O27 Yb2 2.304371 1_555
O28 Si9 1.634426 1_655
O28 Yb2 2.304367 1_555
O29 Si7 1.634426 1_555
O29 Yb1 2.304375 1_555
O30 Si11 1.634426 1_555
O30 Yb3 2.304367 1_555
O31 Si8 1.634426 1_655
O31 Yb3 2.304371 1_555
O32 Si7 1.634426 1_555
O32 Yb3 2.304375 1_555
O33 Si10 1.634426 1_555
O33 Yb4 2.304375 1_555
O34 Si5 1.634426 1_555
O34 Yb4 2.304375 1_555
O35 Si4 1.634426 1_565
O35 Yb4 2.304367 1_555
O36 Si0 1.634426 1_555
O36 Yb3 2.304375 1_556
O37 Si3 1.634426 1_555
O37 Yb4 2.304367 1_555
O38 Si6 1.634426 1_565
O38 Yb4 2.304371 1_555
O39 Si1 1.634426 1_555
O39 Yb3 2.304371 1_556
O40 Si2 1.634426 1_655
O40 Yb3 2.304367 1_556
O41 Si9 1.634426 1_555
O41 Yb4 2.304371 1_555
