# generated using pymatgen
data_LiCoAsO4
_symmetry_space_group_name_H-M   'P 1'
_cell_length_a   4.94429066
_cell_length_b   6.06249634
_cell_length_c   10.38571756
_cell_angle_alpha   90.31333375
_cell_angle_beta   90.64319614
_cell_angle_gamma   89.98191674
_symmetry_Int_Tables_number   1
_chemical_formula_structural   LiCoAsO4
_chemical_formula_sum   'Li4 Co4 As4 O16'
_cell_volume   311.28494493
_cell_formula_units_Z   4
loop_
 _symmetry_equiv_pos_site_id
 _symmetry_equiv_pos_as_xyz
  1  'x, y, z'
loop_
 _atom_site_type_symbol
 _atom_site_label
 _atom_site_symmetry_multiplicity
 _atom_site_fract_x
 _atom_site_fract_y
 _atom_site_fract_z
 _atom_site_occupancy
  Li  Li0  1  0.99968900  0.99767500  0.99766900  1
  Li  Li1  1  0.49569000  0.99942200  0.50251600  1
  Li  Li2  1  0.99965200  0.50074800  0.99813600  1
  Li  Li3  1  0.49563900  0.50213700  0.50201300  1
  Co  Co0  1  0.01321100  0.75075200  0.72530200  1
  Co  Co1  1  0.98526500  0.24960000  0.27524600  1
  Co  Co2  1  0.48819900  0.75057600  0.22555900  1
  Co  Co3  1  0.51315600  0.24933900  0.77315300  1
  As  As0  1  0.05869100  0.25348100  0.59429700  1
  As  As1  1  0.44104300  0.24966100  0.09422500  1
  As  As2  1  0.93584000  0.75028000  0.40986300  1
  As  As3  1  0.56597700  0.74661200  0.90206500  1
  O  O0  1  0.77406300  0.53044400  0.33199300  1
  O  O1  1  0.22083800  0.47698700  0.66700600  1
  O  O2  1  0.72362200  0.52149800  0.82966500  1
  O  O3  1  0.77411500  0.96829300  0.33165900  1
  O  O4  1  0.28237700  0.03018600  0.17045900  1
  O  O5  1  0.78868100  0.24961000  0.09925100  1
  O  O6  1  0.28256600  0.47087700  0.17019900  1
  O  O7  1  0.22467200  0.03649300  0.67063100  1
  O  O8  1  0.21824000  0.74901500  0.89944600  1
  O  O9  1  0.71167200  0.25106300  0.59761600  1
  O  O10  1  0.79371700  0.75199200  0.56171100  1
  O  O11  1  0.28033900  0.75043900  0.40908900  1
  O  O12  1  0.70862800  0.75089100  0.05412000  1
  O  O13  1  0.30275500  0.24812900  0.94040400  1
  O  O14  1  0.19456500  0.24913400  0.44096400  1
  O  O15  1  0.72709500  0.96466800  0.82574200  1
loop_
_geom_bond_atom_site_label_1
_geom_bond_atom_site_label_2
_geom_bond_distance
_geom_bond_site_symmetry_2
Li0 O8 2.118430 1_655
Li0 O5 2.130814 1_566
Li0 O12 2.164024 1_556
Li0 O13 2.221676 1_665
Li0 O15 2.233184 1_555
Li0 O4 2.269975 1_666
Li1 O11 2.077371 1_555
Li1 O9 2.098599 1_565
Li1 O10 2.188090 1_555
Li1 O14 2.214712 1_565
Li1 O7 2.223203 1_565
Li1 O3 2.265050 1_555
Li2 O8 2.127617 1_655
Li2 O5 2.133551 1_556
Li2 O12 2.171641 1_556
Li2 O2 2.211004 1_555
Li2 O13 2.227010 1_655
Li2 O6 2.264968 1_656
Li3 O11 2.079035 1_555
Li3 O9 2.106028 1_555
Li3 O10 2.195797 1_555
Li3 O1 2.204742 1_555
Li3 O14 2.222650 1_555
Li3 O0 2.258433 1_555
Co0 O10 2.005787 1_455
Co0 O1 2.043746 1_555
Co0 O8 2.063457 1_555
Co0 O7 2.107515 1_565
Co0 O15 2.188238 1_455
Co0 O2 2.282357 1_455
Co1 O14 1.998287 1_655
Co1 O5 2.060538 1_555
Co1 O0 2.082885 1_555
Co1 O3 2.089839 1_545
Co1 O4 2.265084 1_655
Co1 O6 2.281193 1_655
Co2 O6 2.053505 1_555
Co2 O4 2.057426 1_565
Co2 O12 2.098012 1_555
Co2 O11 2.175636 1_555
Co2 O3 2.214747 1_555
Co2 O0 2.231696 1_555
Co3 O2 2.031376 1_555
Co3 O13 2.034749 1_555
Co3 O9 2.080263 1_555
Co3 O15 2.095669 1_545
Co3 O7 2.187534 1_555
Co3 O1 2.277838 1_555
As0 O9 1.716565 1_455
As0 O14 1.735376 1_555
As0 O1 1.739222 1_555
As0 O7 1.740292 1_555
As1 O5 1.719030 1_555
As1 O13 1.730618 1_554
As1 O6 1.742642 1_555
As1 O4 1.743221 1_555
As2 O11 1.703413 1_655
As2 O10 1.733689 1_555
As2 O3 1.744263 1_555
As2 O0 1.744834 1_555
As3 O8 1.719281 1_555
As3 O12 1.722371 1_556
As3 O2 1.742624 1_555
As3 O15 1.742644 1_555
