# generated using pymatgen
data_Mg5Si6
_symmetry_space_group_name_H-M   'P 1'
_cell_length_a   12.65717502
_cell_length_b   12.65717502
_cell_length_c   8.17225109
_cell_angle_alpha   73.52548777
_cell_angle_beta   73.52548777
_cell_angle_gamma   18.95048425
_symmetry_Int_Tables_number   1
_chemical_formula_structural   Mg5Si6
_chemical_formula_sum   'Mg10 Si12'
_cell_volume   407.22098333
_cell_formula_units_Z   2
loop_
 _symmetry_equiv_pos_site_id
 _symmetry_equiv_pos_as_xyz
  1  'x, y, z'
loop_
 _atom_site_type_symbol
 _atom_site_label
 _atom_site_symmetry_multiplicity
 _atom_site_fract_x
 _atom_site_fract_y
 _atom_site_fract_z
 _atom_site_occupancy
  Mg  Mg0  1  0.25583200  0.25583200  0.93287600  1
  Mg  Mg1  1  0.96765800  0.96765800  0.43658500  1
  Mg  Mg2  1  0.55601400  0.55601400  0.31805100  1
  Mg  Mg3  1  0.46438400  0.46438400  0.71702300  1
  Mg  Mg4  1  0.85041600  0.85041600  0.72943500  1
  Mg  Mg5  1  0.65779600  0.65779600  0.41520300  1
  Mg  Mg6  1  0.59976700  0.59976700  0.87728600  1
  Mg  Mg7  1  0.46470800  0.46470800  0.12080300  1
  Mg  Mg8  1  0.78174700  0.78174700  0.19485100  1
  Mg  Mg9  1  0.72564600  0.72564600  0.67923200  1
  Si  Si0  1  0.23427100  0.23427100  0.41316000  1
  Si  Si1  1  0.29723700  0.29723700  0.59089800  1
  Si  Si2  1  0.01572400  0.01572400  0.85274900  1
  Si  Si3  1  0.04372500  0.04372500  0.11411400  1
  Si  Si4  1  0.13572000  0.13572000  0.16774300  1
  Si  Si5  1  0.35830900  0.35830900  0.99459100  1
  Si  Si6  1  0.87945000  0.87945000  0.28293600  1
  Si  Si7  1  0.06871300  0.06871300  0.53678000  1
  Si  Si8  1  0.14860300  0.14860300  0.65568200  1
  Si  Si9  1  0.39658100  0.39658100  0.45965700  1
  Si  Si10  1  0.91454000  0.91454000  0.96783200  1
  Si  Si11  1  0.68431600  0.68431600  0.04627800  1
loop_
_geom_bond_atom_site_label_1
_geom_bond_atom_site_label_2
_geom_bond_distance
_geom_bond_site_symmetry_2
Mg0 Si1 2.686620 1_555
Mg0 Si11 2.727177 1_456
Mg0 Si11 2.727177 1_546
Mg0 Si5 2.746565 1_555
Mg0 Si4 3.060793 1_556
Mg1 Si9 2.708197 1_565
Mg1 Si9 2.708197 1_655
Mg1 Si3 2.770221 1_665
Mg1 Si6 2.831567 1_555
Mg1 Si7 2.867969 1_665
Mg2 Si3 2.739967 1_655
Mg2 Si3 2.739967 1_565
Mg2 Si7 2.821915 1_565
Mg2 Si7 2.821915 1_655
Mg2 Mg5 2.872156 1_555
Mg2 Si4 2.899224 1_565
Mg2 Si4 2.899224 1_655
Mg3 Si2 2.834212 1_655
Mg3 Si2 2.834212 1_565
Mg3 Si10 2.936801 1_455
Mg3 Si10 2.936801 1_545
Mg3 Si5 2.950549 1_555
Mg3 Si9 3.055711 1_555
Mg4 Si10 2.855327 1_555
Mg4 Si1 2.872439 1_565
Mg4 Si1 2.872439 1_655
Mg4 Si9 3.011580 1_655
Mg4 Si9 3.011580 1_565
Mg4 Si5 3.053117 1_565
Mg4 Si5 3.053117 1_655
Mg5 Si0 2.823068 1_655
Mg5 Si0 2.823068 1_565
Mg5 Si8 2.827912 1_655
Mg5 Si8 2.827912 1_565
Mg5 Si11 2.894891 1_555
Mg5 Si7 3.000916 1_655
Mg5 Si7 3.000916 1_565
Mg5 Si4 3.062044 1_655
Mg5 Si4 3.062044 1_565
Mg5 Mg8 3.101068 1_555
Mg5 Mg9 3.102874 1_555
Mg6 Si8 2.799709 1_655
Mg6 Si8 2.799709 1_565
Mg6 Si11 2.835583 1_556
Mg6 Si3 2.913447 1_656
Mg6 Si3 2.913447 1_566
Mg6 Si2 3.004548 1_565
Mg6 Si2 3.004548 1_655
Mg7 Si9 2.802390 1_555
Mg7 Si3 2.859224 1_565
Mg7 Si3 2.859224 1_655
Mg7 Si10 2.893775 1_454
Mg7 Si10 2.893775 1_544
Mg7 Si6 3.001173 1_545
Mg7 Si6 3.001173 1_455
Mg7 Si2 3.026279 1_654
Mg7 Si2 3.026279 1_564
Mg7 Si5 3.114073 1_554
Mg8 Si6 2.734844 1_555
Mg8 Si0 2.777340 1_565
Mg8 Si0 2.777340 1_655
Mg8 Si5 2.979166 1_654
Mg8 Si5 2.979166 1_564
Mg8 Si11 3.015129 1_555
Mg9 Si1 2.704814 1_655
Mg9 Si1 2.704814 1_565
Mg9 Si11 2.877940 1_556
Mg9 Si8 2.879593 1_565
Mg9 Si8 2.879593 1_655
Mg9 Si0 2.974344 1_565
Mg9 Si0 2.974344 1_655
Si0 Si1 2.427914 1_555
Si0 Si8 2.462892 1_555
Si1 Si9 2.402808 1_555
Si2 Si3 2.431003 1_556
Si2 Si7 2.540406 1_555
Si3 Si4 2.459120 1_555
Si6 Si9 2.639221 1_655
Si6 Si9 2.639221 1_565
Si7 Si8 2.457211 1_555
Si10 Si2 2.429241 1_665
Si10 Si6 2.470116 1_556
Si10 Si5 2.486792 1_655
Si10 Si5 2.486792 1_565
Si11 Si4 2.471160 1_655
Si11 Si4 2.471160 1_565
