# generated using pymatgen
data_Mg4Si3
_symmetry_space_group_name_H-M   'P 1'
_cell_length_a   5.25131500
_cell_length_b   7.09394003
_cell_length_c   7.68182412
_cell_angle_alpha   98.39264661
_cell_angle_beta   103.02267891
_cell_angle_gamma   100.47716608
_symmetry_Int_Tables_number   1
_chemical_formula_structural   Mg4Si3
_chemical_formula_sum   'Mg8 Si6'
_cell_volume   268.88938160
_cell_formula_units_Z   2
loop_
 _symmetry_equiv_pos_site_id
 _symmetry_equiv_pos_as_xyz
  1  'x, y, z'
loop_
 _atom_site_type_symbol
 _atom_site_label
 _atom_site_symmetry_multiplicity
 _atom_site_fract_x
 _atom_site_fract_y
 _atom_site_fract_z
 _atom_site_occupancy
  Mg  Mg0  1  0.01491000  0.19098700  0.83752700  1
  Mg  Mg1  1  0.57089000  0.11829900  0.04310300  1
  Mg  Mg2  1  0.78767100  0.36148600  0.45867100  1
  Mg  Mg3  1  0.32908500  0.63450700  0.48940900  1
  Mg  Mg4  1  0.51882800  0.57875400  0.15394200  1
  Mg  Mg5  1  0.36801900  0.07715500  0.60048600  1
  Mg  Mg6  1  0.04436900  0.88107100  0.18794500  1
  Mg  Mg7  1  0.14726400  0.65415600  0.83352600  1
  Si  Si0  1  0.69140000  0.80817800  0.81912200  1
  Si  Si1  1  0.58860800  0.43145000  0.81660300  1
  Si  Si2  1  0.22077900  0.27300900  0.25637200  1
  Si  Si3  1  0.89574100  0.80968300  0.55286800  1
  Si  Si4  1  0.96503300  0.48115200  0.10445700  1
  Si  Si5  1  0.60755400  0.95020300  0.34609000  1
loop_
_geom_bond_atom_site_label_1
_geom_bond_atom_site_label_2
_geom_bond_distance
_geom_bond_site_symmetry_2
Mg0 Si4 2.777818 1_456
Mg0 Si0 2.895259 1_445
Mg0 Si1 3.042028 1_455
Mg0 Si2 3.084912 1_556
Mg0 Si3 3.087239 1_445
Mg0 Si1 3.231271 1_555
Mg1 Si5 2.750998 1_545
Mg1 Si0 2.844800 1_544
Mg1 Si4 2.898354 1_555
Mg1 Si2 2.972408 1_555
Mg1 Si1 3.016134 1_554
Mg2 Si5 2.836581 1_545
Mg2 Si2 2.936301 1_555
Mg2 Si3 3.072764 1_555
Mg2 Si2 3.131949 1_655
Mg2 Si1 3.159887 1_555
Mg3 Si0 2.760024 1_555
Mg3 Si2 2.788386 1_555
Mg3 Si3 2.883047 1_455
Mg3 Si3 2.908813 1_555
Mg3 Si5 2.936025 1_555
Mg3 Si4 3.056086 1_455
Mg3 Si1 3.236790 1_555
Mg4 Si4 2.651214 1_555
Mg4 Si5 2.728991 1_555
Mg4 Si2 2.755305 1_555
Mg4 Si1 2.778167 1_554
Mg4 Si4 2.788170 1_455
Mg5 Si5 2.686704 1_545
Mg5 Si1 2.696547 1_555
Mg5 Si3 2.749901 1_445
Mg5 Si2 3.171367 1_555
Mg5 Si0 3.189677 1_545
Mg6 Si2 2.698554 1_565
Mg6 Si4 2.748101 1_455
Mg6 Si5 2.853476 1_555
Mg6 Si5 2.910190 1_455
Mg6 Si0 2.930405 1_454
Mg6 Si3 3.159222 1_455
Mg7 Si3 2.747914 1_455
Mg7 Si0 2.793553 1_455
Mg7 Si4 2.823053 1_456
Mg7 Si0 2.900567 1_555
Mg7 Si1 3.033461 1_455
Mg7 Si1 3.048245 1_555
Si0 Si3 2.515196 1_555
Si0 Si1 2.624781 1_555
Si1 Si4 2.543697 1_556
Si2 Si4 2.421486 1_455
Si3 Si5 2.394698 1_555
