# generated using pymatgen
data_AlCr3O6
_symmetry_space_group_name_H-M   'P 1'
_cell_length_a   5.90849408
_cell_length_b   5.90849408
_cell_length_c   14.48203900
_cell_angle_alpha   90.00000000
_cell_angle_beta   90.00000000
_cell_angle_gamma   120.00000095
_symmetry_Int_Tables_number   1
_chemical_formula_structural   AlCr3O6
_chemical_formula_sum   'Al4 Cr12 O24'
_cell_volume   437.83850314
_cell_formula_units_Z   4
loop_
 _symmetry_equiv_pos_site_id
 _symmetry_equiv_pos_as_xyz
  1  'x, y, z'
loop_
 _atom_site_type_symbol
 _atom_site_label
 _atom_site_symmetry_multiplicity
 _atom_site_fract_x
 _atom_site_fract_y
 _atom_site_fract_z
 _atom_site_occupancy
  Al  Al0  1  0.33333300  0.66666700  0.45475700  1
  Al  Al1  1  0.00000000  0.00000000  0.12702700  1
  Al  Al2  1  0.00000000  0.00000000  0.87297300  1
  Al  Al3  1  0.66666700  0.33333300  0.54524300  1
  Cr  Cr0  1  0.50000000  0.50000000  0.00000000  1
  Cr  Cr1  1  0.16996500  0.83003500  0.66796800  1
  Cr  Cr2  1  0.83003500  0.16996500  0.33203200  1
  Cr  Cr3  1  0.50000000  0.00000000  0.00000000  1
  Cr  Cr4  1  0.16996500  0.33993000  0.66796800  1
  Cr  Cr5  1  0.83003500  0.66007000  0.33203200  1
  Cr  Cr6  1  0.33333300  0.66666700  0.82887800  1
  Cr  Cr7  1  0.00000000  0.00000000  0.50000000  1
  Cr  Cr8  1  0.66666700  0.33333300  0.17112200  1
  Cr  Cr9  1  0.00000000  0.50000000  0.00000000  1
  Cr  Cr10  1  0.66007000  0.83003500  0.66796800  1
  Cr  Cr11  1  0.33993000  0.16996500  0.33203200  1
  O  O0  1  0.66666700  0.33333300  0.93679700  1
  O  O1  1  0.33333300  0.66666700  0.58123200  1
  O  O2  1  0.00000000  0.00000000  0.25513600  1
  O  O3  1  0.66306300  0.83153200  0.91583100  1
  O  O4  1  0.32440600  0.16220300  0.58190000  1
  O  O5  1  0.96277300  0.48138600  0.25830500  1
  O  O6  1  0.16846800  0.83153200  0.91583100  1
  O  O7  1  0.83779700  0.16220300  0.58190000  1
  O  O8  1  0.51861400  0.48138600  0.25830500  1
  O  O9  1  0.16846800  0.33693700  0.91583100  1
  O  O10  1  0.83779700  0.67559400  0.58190000  1
  O  O11  1  0.51861400  0.03722700  0.25830500  1
  O  O12  1  0.03722700  0.51861400  0.74169500  1
  O  O13  1  0.67559400  0.83779700  0.41810000  1
  O  O14  1  0.33693700  0.16846800  0.08416900  1
  O  O15  1  0.00000000  0.00000000  0.74486400  1
  O  O16  1  0.66666700  0.33333300  0.41876800  1
  O  O17  1  0.33333300  0.66666700  0.06320300  1
  O  O18  1  0.48138600  0.51861400  0.74169500  1
  O  O19  1  0.16220300  0.83779700  0.41810000  1
  O  O20  1  0.83153200  0.16846800  0.08416900  1
  O  O21  1  0.48138600  0.96277300  0.74169500  1
  O  O22  1  0.16220300  0.32440600  0.41810000  1
  O  O23  1  0.83153200  0.66306300  0.08416900  1
loop_
_geom_bond_atom_site_label_1
_geom_bond_atom_site_label_2
_geom_bond_distance
_geom_bond_site_symmetry_2
Al0 O19 1.830004 1_555
Al0 O13 1.830009 1_555
Al0 O22 1.830009 1_555
Al0 O1 1.831616 1_555
Al1 O20 1.832389 1_455
Al1 O14 1.832394 1_555
Al1 O23 1.832394 1_445
Al1 O2 1.855280 1_555
Al2 O6 1.832389 1_545
Al2 O9 1.832394 1_555
Al2 O3 1.832394 1_445
Al2 O15 1.855280 1_555
Al3 O7 1.830004 1_555
Al3 O10 1.830009 1_555
Al3 O4 1.830009 1_555
Al3 O16 1.831616 1_555
Cr0 O17 1.935715 1_555
Cr0 O0 1.935715 1_554
Cr0 O23 2.088995 1_555
Cr0 O3 2.088995 1_554
Cr0 O14 2.088995 1_555
Cr0 O9 2.088995 1_554
Cr1 O12 1.922947 1_555
Cr1 O21 1.922947 1_555
Cr1 O15 2.065334 1_565
Cr1 O1 2.091171 1_555
Cr1 O4 2.108846 1_565
Cr1 O10 2.108846 1_455
Cr2 O11 1.922947 1_555
Cr2 O5 1.922947 1_555
Cr2 O2 2.065334 1_655
Cr2 O16 2.091171 1_555
Cr2 O22 2.108846 1_655
Cr2 O13 2.108846 1_545
Cr3 O17 1.935711 1_545
Cr3 O0 1.935711 1_554
Cr3 O14 2.088991 1_555
Cr3 O3 2.088991 1_544
Cr3 O20 2.088995 1_555
Cr3 O6 2.088995 1_544
Cr4 O18 1.922947 1_555
Cr4 O12 1.922951 1_555
Cr4 O15 2.065334 1_555
Cr4 O1 2.091175 1_555
Cr4 O7 2.108846 1_455
Cr4 O4 2.108846 1_555
Cr5 O8 1.922947 1_555
Cr5 O5 1.922951 1_555
Cr5 O2 2.065334 1_665
Cr5 O16 2.091175 1_555
Cr5 O19 2.108846 1_655
Cr5 O13 2.108846 1_555
Cr6 O21 1.972257 1_555
Cr6 O12 1.972257 1_555
Cr6 O18 1.972257 1_555
Cr6 O9 2.105318 1_555
Cr6 O3 2.105318 1_555
Cr6 O6 2.105318 1_555
Cr7 O4 2.040155 1_555
Cr7 O22 2.040155 1_555
Cr7 O10 2.040155 1_445
Cr7 O13 2.040155 1_445
Cr7 O19 2.040155 1_545
Cr7 O7 2.040155 1_455
Cr8 O5 1.972257 1_555
Cr8 O11 1.972257 1_555
Cr8 O8 1.972257 1_555
Cr8 O23 2.105318 1_555
Cr8 O14 2.105318 1_555
Cr8 O20 2.105318 1_555
Cr9 O17 1.935711 1_555
Cr9 O0 1.935711 1_454
Cr9 O9 2.088991 1_554
Cr9 O23 2.088991 1_455
Cr9 O6 2.088995 1_554
Cr9 O20 2.088995 1_455
Cr10 O18 1.922947 1_555
Cr10 O21 1.922951 1_555
Cr10 O15 2.065334 1_665
Cr10 O1 2.091175 1_555
Cr10 O7 2.108846 1_565
Cr10 O10 2.108846 1_555
Cr11 O8 1.922947 1_555
Cr11 O11 1.922951 1_555
Cr11 O2 2.065334 1_555
Cr11 O16 2.091175 1_555
Cr11 O19 2.108846 1_545
Cr11 O22 2.108846 1_555
