# generated using pymatgen
data_YTh9MgO20
_symmetry_space_group_name_H-M   'P 1'
_cell_length_a   7.98169796
_cell_length_b   20.03309750
_cell_length_c   10.62394932
_cell_angle_alpha   19.00824459
_cell_angle_beta   55.45471766
_cell_angle_gamma   59.91525983
_symmetry_Int_Tables_number   1
_chemical_formula_structural   YTh9MgO20
_chemical_formula_sum   'Y1 Th9 Mg1 O20'
_cell_volume   451.86985178
_cell_formula_units_Z   1
loop_
 _symmetry_equiv_pos_site_id
 _symmetry_equiv_pos_as_xyz
  1  'x, y, z'
loop_
 _atom_site_type_symbol
 _atom_site_label
 _atom_site_symmetry_multiplicity
 _atom_site_fract_x
 _atom_site_fract_y
 _atom_site_fract_z
 _atom_site_occupancy
  Y  Y0  1  0.96364992  0.98105091  0.08495471  1
  Th  Th0  1  0.00475354  0.19852189  0.99876811  1
  Th  Th1  1  0.50720241  0.00413167  0.98681987  1
  Th  Th2  1  0.00034996  0.42014874  0.95696141  1
  Th  Th3  1  0.49687543  0.19863931  0.00555807  1
  Th  Th4  1  0.00426810  0.58801149  0.01650388  1
  Th  Th5  1  0.51081186  0.41017040  0.97681754  1
  Th  Th6  1  0.00046747  0.79907730  0.99144114  1
  Th  Th7  1  0.49937082  0.59740497  0.00362534  1
  Th  Th8  1  0.51204848  0.79599948  0.99824138  1
  Mg  Mg0  1  0.18976099  0.08164344  0.60679930  1
  O  O0  1  0.12395702  0.15474160  0.23193886  1
  O  O1  1  0.12880655  0.34573300  0.25052590  1
  O  O2  1  0.63976678  0.15295164  0.23879332  1
  O  O3  1  0.37032999  0.05500186  0.73731230  1
  O  O4  1  0.12765311  0.54575345  0.25181748  1
  O  O5  1  0.63071475  0.35306372  0.23668470  1
  O  O6  1  0.38207450  0.24887789  0.74417345  1
  O  O7  1  0.12237483  0.76739582  0.21888148  1
  O  O8  1  0.88495402  0.05923517  0.72423423  1
  O  O9  1  0.12543604  0.94386626  0.26471975  1
  O  O10  1  0.62878022  0.54493145  0.25579762  1
  O  O11  1  0.37962598  0.46596743  0.71516123  1
  O  O12  1  0.87267740  0.24673415  0.75936705  1
  O  O13  1  0.38062652  0.64973942  0.74388490  1
  O  O14  1  0.63073352  0.75708032  0.23214293  1
  O  O15  1  0.62178965  0.94698896  0.25757778  1
  O  O16  1  0.88054707  0.46119083  0.72496304  1
  O  O17  1  0.37888445  0.83975674  0.76147128  1
  O  O18  1  0.87269840  0.64462826  0.76323900  1
  O  O19  1  0.87801023  0.84156243  0.76082296  1
loop_
_geom_bond_atom_site_label_1
_geom_bond_atom_site_label_2
_geom_bond_distance
_geom_bond_site_symmetry_2
Mg0 O1 2.048170 1_555
Mg0 O7 2.055432 1_546
Mg0 O8 2.066508 1_455
Mg0 O3 2.092955 1_555
O0 Th0 2.353517 1_554
O0 Th3 2.433810 1_555
O0 Th6 2.480571 1_545
O0 Th2 2.532933 1_554
O1 Th4 2.423701 1_555
O1 Th5 2.492275 1_554
O1 Th2 2.510573 1_554
O1 Y0 2.762948 1_446
O2 Th0 2.379511 1_654
O2 Th3 2.479596 1_555
O2 Th8 2.480591 1_545
O2 Th5 2.484023 1_554
O3 Th5 2.486086 1_554
O3 Th1 2.513668 1_555
O3 Th8 2.521853 1_545
O3 Y0 2.692642 1_446
O4 Th7 2.423285 1_555
O4 Th4 2.427091 1_555
O4 Th6 2.431275 1_554
O4 Th0 2.440136 1_555
O5 Th5 2.402756 1_554
O5 Th2 2.412762 1_654
O5 Th1 2.450435 1_555
O5 Th7 2.463940 1_555
O6 Th1 2.406820 1_555
O6 Th7 2.418910 1_555
O6 Th0 2.460001 1_555
O6 Th3 2.498061 1_556
O7 Th2 2.410738 1_555
O7 Th6 2.517058 1_554
O7 Th8 2.544634 1_554
O7 Y0 2.653581 1_455
O8 Th1 2.462964 1_555
O8 Th6 2.499088 1_645
O8 Th2 2.507210 1_654
O8 Y0 2.815594 1_546
O9 Y0 2.238794 1_455
O9 Th0 2.416684 1_564
O9 Th4 2.456190 1_556
O9 Th1 2.490880 1_564
O10 Th8 2.412843 1_554
O10 Th4 2.448132 1_655
O10 Th3 2.450169 1_556
O10 Th7 2.464492 1_555
O11 Th8 2.344120 1_554
O11 Th3 2.466067 1_556
O11 Th2 2.472533 1_555
O11 Th5 2.515012 1_555
O12 Y0 2.231882 1_546
O12 Th0 2.426495 1_655
O12 Th4 2.428888 1_655
O12 Th3 2.449725 1_556
O13 Th5 2.386523 1_555
O13 Th4 2.454799 1_556
O13 Th7 2.472125 1_556
O13 Th1 2.472560 1_564
O14 Th6 2.412136 1_654
O14 Th1 2.426969 1_564
O14 Th5 2.432711 1_555
O14 Th8 2.438429 1_554
O15 Y0 2.258190 1_555
O15 Th7 2.436573 1_556
O15 Th3 2.458122 1_565
O15 Th1 2.475617 1_564
O16 Th2 2.391242 1_655
O16 Th6 2.398641 1_654
O16 Th5 2.410492 1_555
O16 Th0 2.496019 1_655
O17 Th7 2.370933 1_556
O17 Th6 2.467760 1_555
O17 Th3 2.470230 1_565
O17 Th8 2.480733 1_555
O18 Y0 2.239047 1_555
O18 Th2 2.404235 1_655
O18 Th4 2.422527 1_656
O18 Th7 2.433794 1_556
O19 Th6 2.370939 1_655
O19 Th8 2.385618 1_555
O19 Th4 2.465155 1_656
O19 Th0 2.488846 1_664
