# generated using pymatgen
data_CeYFe17
_symmetry_space_group_name_H-M   'P 1'
_cell_length_a   6.42949932
_cell_length_b   6.42949932
_cell_length_c   6.42949933
_cell_angle_alpha   82.51620078
_cell_angle_beta   82.51620078
_cell_angle_gamma   82.51620453
_symmetry_Int_Tables_number   1
_chemical_formula_structural   CeYFe17
_chemical_formula_sum   'Ce1 Y1 Fe17'
_cell_volume   259.53621833
_cell_formula_units_Z   1
loop_
 _symmetry_equiv_pos_site_id
 _symmetry_equiv_pos_as_xyz
  1  'x, y, z'
loop_
 _atom_site_type_symbol
 _atom_site_label
 _atom_site_symmetry_multiplicity
 _atom_site_fract_x
 _atom_site_fract_y
 _atom_site_fract_z
 _atom_site_occupancy
  Ce  Ce0  1  0.65711700  0.65711700  0.65711700  1
  Y  Y0  1  0.34054700  0.34054700  0.34054700  1
  Fe  Fe0  1  0.34377300  0.84336000  0.34377300  1
  Fe  Fe1  1  0.34377300  0.34377300  0.84336000  1
  Fe  Fe2  1  0.84336000  0.34377300  0.34377300  1
  Fe  Fe3  1  0.65608100  0.15556500  0.65608100  1
  Fe  Fe4  1  0.65608100  0.65608100  0.15556500  1
  Fe  Fe5  1  0.15556500  0.65608100  0.65608100  1
  Fe  Fe6  1  0.70746400  0.29327300  0.00006300  1
  Fe  Fe7  1  0.00006300  0.70746400  0.29327300  1
  Fe  Fe8  1  0.29327300  0.00006300  0.70746400  1
  Fe  Fe9  1  0.00006300  0.29327300  0.70746400  1
  Fe  Fe10  1  0.70746400  0.00006300  0.29327300  1
  Fe  Fe11  1  0.29327300  0.70746400  0.00006300  1
  Fe  Fe12  1  0.00138800  0.00138800  0.49974800  1
  Fe  Fe13  1  0.49974800  0.00138800  0.00138800  1
  Fe  Fe14  1  0.00138800  0.49974800  0.00138800  1
  Fe  Fe15  1  0.90284700  0.90284700  0.90284700  1
  Fe  Fe16  1  0.09673200  0.09673200  0.09673200  1
loop_
_geom_bond_atom_site_label_1
_geom_bond_atom_site_label_2
_geom_bond_distance
_geom_bond_site_symmetry_2
Ce0 Fe7 3.013997 1_655
Ce0 Fe10 3.013997 1_565
Ce0 Fe6 3.013998 1_556
Ce0 Fe11 3.013998 1_556
Ce0 Fe8 3.013998 1_565
Ce0 Fe9 3.013998 1_655
Ce0 Fe1 3.058090 1_555
Ce0 Fe0 3.058091 1_555
Ce0 Fe2 3.058091 1_555
Ce0 Fe15 3.072316 1_555
Ce0 Fe5 3.203051 1_655
Ce0 Fe3 3.203051 1_565
Ce0 Fe4 3.203051 1_556
Ce0 Fe5 3.226478 1_555
Ce0 Fe3 3.226478 1_555
Ce0 Fe4 3.226478 1_555
Ce0 Fe12 3.306404 1_665
Ce0 Fe14 3.306404 1_656
Ce0 Fe13 3.306404 1_566
Fe0 Fe13 2.447806 1_565
Fe0 Fe12 2.447806 1_565
Fe0 Fe5 2.462308 1_555
Fe0 Fe4 2.462308 1_555
Fe0 Fe7 2.552689 1_555
Fe0 Fe11 2.552689 1_555
Fe0 Fe10 2.630422 1_565
Fe0 Fe8 2.630422 1_565
Fe0 Fe16 2.647388 1_565
Fe0 Y0 3.191408 1_565
Fe0 Y0 3.238384 1_555
Fe1 Fe13 2.447806 1_556
Fe1 Fe14 2.447806 1_556
Fe1 Fe3 2.462308 1_555
Fe1 Fe5 2.462308 1_555
Fe1 Fe9 2.552689 1_555
Fe1 Fe8 2.552689 1_555
Fe1 Fe6 2.630422 1_556
Fe1 Fe11 2.630422 1_556
Fe1 Fe16 2.647388 1_556
Fe1 Y0 3.191408 1_556
Fe1 Y0 3.238384 1_555
Fe2 Fe3 2.462308 1_555
Fe2 Fe4 2.462308 1_555
Fe2 Fe6 2.552689 1_555
Fe2 Fe7 2.630422 1_655
Fe2 Fe9 2.630422 1_655
Fe2 Y0 3.191408 1_655
Fe2 Y0 3.238384 1_555
Fe3 Fe9 2.561443 1_655
Fe3 Fe6 2.561443 1_556
Fe3 Fe8 2.621230 1_555
Fe3 Y0 3.075882 1_555
Fe4 Fe7 2.561443 1_655
Fe4 Fe6 2.621230 1_555
Fe4 Y0 3.075882 1_555
Fe5 Fe8 2.561443 1_565
Fe5 Fe9 2.621230 1_555
Fe5 Fe7 2.621230 1_555
Fe5 Y0 3.075882 1_555
Fe6 Fe9 2.481208 1_654
Fe6 Y0 3.015180 1_555
Fe7 Y0 3.015180 1_555
Fe8 Fe9 2.486390 1_555
Fe8 Y0 3.015179 1_555
Fe9 Y0 3.015179 1_555
Fe10 Fe13 2.439531 1_555
Fe10 Fe12 2.448335 1_655
Fe10 Fe7 2.481209 1_645
Fe10 Fe6 2.486390 1_555
Fe10 Fe2 2.552689 1_555
Fe10 Fe4 2.561443 1_545
Fe10 Fe3 2.621230 1_555
Fe10 Fe16 2.761143 1_655
Fe10 Fe15 2.766375 1_544
Fe10 Y0 3.015180 1_555
Fe11 Fe14 2.439531 1_555
Fe11 Fe13 2.448335 1_565
Fe11 Fe8 2.481208 1_564
Fe11 Fe7 2.486390 1_555
Fe11 Fe5 2.561443 1_554
Fe11 Fe4 2.621230 1_555
Fe11 Fe16 2.761143 1_565
Fe11 Fe15 2.766375 1_454
Fe11 Y0 3.015180 1_555
Fe12 Fe9 2.439531 1_555
Fe12 Fe8 2.439531 1_555
Fe12 Fe2 2.447806 1_455
Fe12 Fe7 2.448335 1_545
Fe12 Fe3 2.454990 1_455
Fe12 Fe5 2.454990 1_545
Fe12 Fe16 2.595416 1_555
Fe12 Fe15 2.601720 1_445
Fe12 Y0 3.260944 1_555
Fe13 Fe6 2.439531 1_555
Fe13 Fe8 2.448335 1_554
Fe13 Fe3 2.454990 1_554
Fe13 Fe4 2.454990 1_545
Fe13 Fe16 2.595416 1_555
Fe13 Fe15 2.601720 1_544
Fe13 Y0 3.260945 1_555
Fe14 Fe7 2.439531 1_555
Fe14 Fe2 2.447806 1_455
Fe14 Fe6 2.448335 1_455
Fe14 Fe9 2.448335 1_554
Fe14 Fe5 2.454990 1_554
Fe14 Fe4 2.454990 1_455
Fe14 Fe16 2.595416 1_555
Fe14 Fe15 2.601720 1_454
Fe14 Y0 3.260945 1_555
Fe15 Fe16 2.424108 1_666
Fe15 Fe4 2.643344 1_556
Fe15 Fe5 2.643344 1_655
Fe15 Fe3 2.643344 1_565
Fe15 Fe8 2.766375 1_665
Fe15 Fe9 2.766375 1_665
Fe15 Fe7 2.766375 1_656
Fe15 Fe6 2.766375 1_566
Fe16 Fe2 2.647388 1_455
Fe16 Fe7 2.761143 1_545
Fe16 Fe9 2.761143 1_554
Fe16 Fe8 2.761143 1_554
Fe16 Fe6 2.761143 1_455
Fe16 Y0 3.048374 1_555
