# generated using pymatgen
data_Li2MgTi3O8
_symmetry_space_group_name_H-M   'P 1'
_cell_length_a   5.97351154
_cell_length_b   5.97351154
_cell_length_c   5.97351170
_cell_angle_alpha   60.07297280
_cell_angle_beta   60.07297280
_cell_angle_gamma   60.07296156
_symmetry_Int_Tables_number   1
_chemical_formula_structural   Li2MgTi3O8
_chemical_formula_sum   'Li2 Mg1 Ti3 O8'
_cell_volume   150.97036456
_cell_formula_units_Z   1
loop_
 _symmetry_equiv_pos_site_id
 _symmetry_equiv_pos_as_xyz
  1  'x, y, z'
loop_
 _atom_site_type_symbol
 _atom_site_label
 _atom_site_symmetry_multiplicity
 _atom_site_fract_x
 _atom_site_fract_y
 _atom_site_fract_z
 _atom_site_occupancy
  Li  Li0  1  0.62593100  0.62593100  0.62593100  1
  Li  Li1  1  0.24545000  0.24545000  0.24545000  1
  Mg  Mg0  1  0.00657900  0.00657900  0.00657900  1
  Ti  Ti0  1  0.62358100  0.13051800  0.62358100  1
  Ti  Ti1  1  0.13051800  0.62358100  0.62358100  1
  Ti  Ti2  1  0.62358100  0.62358100  0.13051800  1
  O  O0  1  0.86735000  0.86735000  0.86735000  1
  O  O1  1  0.87244800  0.41299200  0.87244800  1
  O  O2  1  0.41299200  0.87244800  0.87244800  1
  O  O3  1  0.87244800  0.87244800  0.41299200  1
  O  O4  1  0.38423500  0.38423500  0.38423500  1
  O  O5  1  0.37588000  0.83312700  0.37588000  1
  O  O6  1  0.83312700  0.37588000  0.37588000  1
  O  O7  1  0.37588000  0.37588000  0.83312700  1
loop_
_geom_bond_atom_site_label_1
_geom_bond_atom_site_label_2
_geom_bond_distance
_geom_bond_site_symmetry_2
Li0 O2 2.093000 1_555
Li0 O1 2.093000 1_555
Li0 O3 2.093001 1_555
Li0 O6 2.128601 1_555
Li0 O5 2.128601 1_555
Li0 O7 2.128602 1_555
Li1 O6 2.014123 1_455
Li1 O5 2.014123 1_545
Li1 O7 2.014123 1_554
Li1 O4 2.029589 1_555
Mg0 O2 1.984075 1_544
Mg0 O1 1.984075 1_454
Mg0 O3 1.984075 1_445
Mg0 O0 2.036082 1_444
O0 Ti0 2.063889 1_565
O0 Ti1 2.063889 1_655
O0 Ti2 2.063889 1_556
O1 Ti2 1.987780 1_556
O1 Ti1 1.987780 1_655
O2 Ti2 1.987780 1_556
O2 Ti0 1.987780 1_565
O3 Ti0 1.987780 1_565
O3 Ti1 1.987780 1_655
O4 Ti1 2.025021 1_555
O4 Ti0 2.025021 1_555
O4 Ti2 2.025022 1_555
O5 Ti2 1.929513 1_555
O5 Ti1 1.929514 1_555
O6 Ti2 1.929513 1_555
O6 Ti0 1.929514 1_555
O7 Ti1 1.929513 1_555
O7 Ti0 1.929513 1_555
