# generated using pymatgen
data_Sm(BIr)2
_symmetry_space_group_name_H-M   'P 1'
_cell_length_a   7.11844918
_cell_length_b   6.13160971
_cell_length_c   5.53983067
_cell_angle_alpha   74.97304396
_cell_angle_beta   56.29578979
_cell_angle_gamma   48.73116625
_symmetry_Int_Tables_number   1
_chemical_formula_structural   Sm(BIr)2
_chemical_formula_sum   'Sm2 B4 Ir4'
_cell_volume   148.97484351
_cell_formula_units_Z   2
loop_
 _symmetry_equiv_pos_site_id
 _symmetry_equiv_pos_as_xyz
  1  'x, y, z'
loop_
 _atom_site_type_symbol
 _atom_site_label
 _atom_site_symmetry_multiplicity
 _atom_site_fract_x
 _atom_site_fract_y
 _atom_site_fract_z
 _atom_site_occupancy
  Sm  Sm0  1  0.50000000  0.50000000  0.50000000  1
  Sm  Sm1  1  0.75000000  0.75000000  0.75000000  1
  B  B0  1  0.17931755  0.82068245  0.17931755  1
  B  B1  1  0.07068245  0.42931755  0.07068245  1
  B  B2  1  0.82068245  0.17931755  0.82068245  1
  B  B3  1  0.42931755  0.07068245  0.42931755  1
  Ir  Ir0  1  0.87117199  0.87117199  0.12882801  1
  Ir  Ir1  1  0.12882801  0.12882801  0.87117199  1
  Ir  Ir2  1  0.37882801  0.37882801  0.12117199  1
  Ir  Ir3  1  0.12117199  0.12117199  0.37882801  1
loop_
_geom_bond_atom_site_label_1
_geom_bond_atom_site_label_2
_geom_bond_distance
_geom_bond_site_symmetry_2
B0 Ir2 2.080839 1_555
B0 Ir3 2.080839 1_565
B0 Ir1 2.173886 1_564
B0 Ir0 2.173886 1_455
B0 Sm0 3.000238 1_555
B0 Sm1 3.136314 1_554
B0 Sm1 3.136314 1_455
B1 Ir0 2.080839 1_455
B1 Ir1 2.080839 1_554
B1 Ir3 2.173886 1_555
B1 Ir2 2.173886 1_555
B1 Sm1 3.000238 1_454
B1 Sm0 3.136314 1_455
B1 Sm0 3.136314 1_554
B2 Ir2 2.080839 1_556
B2 Ir3 2.080839 1_655
B2 Ir1 2.173886 1_655
B2 Ir0 2.173886 1_546
B2 Sm0 3.000238 1_555
B2 Sm1 3.136314 1_555
B2 Sm1 3.136314 1_545
B3 Ir0 2.080839 1_545
B3 Ir1 2.080839 1_555
B3 Ir3 2.173886 1_555
B3 Ir2 2.173886 1_555
B3 Sm1 3.000238 1_545
B3 Sm0 3.136314 1_555
B3 Sm0 3.136314 1_545
Ir0 Sm1 3.059945 1_554
Ir0 Sm1 3.059945 1_555
Ir0 Sm0 3.273876 1_565
Ir0 Sm0 3.273876 1_654
Ir1 Sm1 3.059945 1_545
Ir1 Sm1 3.059945 1_455
Ir1 Sm0 3.273876 1_545
Ir1 Sm0 3.273876 1_456
Ir2 Sm0 3.059945 1_554
Ir2 Sm0 3.059945 1_555
Ir2 Sm1 3.273876 1_455
Ir2 Sm1 3.273876 1_544
Ir3 Sm0 3.059945 1_545
Ir3 Sm0 3.059945 1_455
Ir3 Sm1 3.273876 1_455
Ir3 Sm1 3.273876 1_544
