# generated using pymatgen
data_Er4Ga21Ni10
_symmetry_space_group_name_H-M   'P 1'
_cell_length_a   10.64446080
_cell_length_b   10.64446080
_cell_length_c   15.54388372
_cell_angle_alpha   55.50050878
_cell_angle_beta   55.50050878
_cell_angle_gamma   21.98945138
_symmetry_Int_Tables_number   1
_chemical_formula_structural   Er4Ga21Ni10
_chemical_formula_sum   'Er4 Ga21 Ni10'
_cell_volume   538.60977537
_cell_formula_units_Z   1
loop_
 _symmetry_equiv_pos_site_id
 _symmetry_equiv_pos_as_xyz
  1  'x, y, z'
loop_
 _atom_site_type_symbol
 _atom_site_label
 _atom_site_symmetry_multiplicity
 _atom_site_fract_x
 _atom_site_fract_y
 _atom_site_fract_z
 _atom_site_occupancy
  Er  Er0  1  0.77051800  0.77051800  0.32393400  1
  Er  Er1  1  0.22948200  0.22948200  0.67606600  1
  Er  Er2  1  0.12046800  0.12046800  0.16683600  1
  Er  Er3  1  0.87953200  0.87953200  0.83316400  1
  Ga  Ga0  1  0.39844700  0.39844700  0.49686100  1
  Ga  Ga1  1  0.60155300  0.60155300  0.50313900  1
  Ga  Ga2  1  0.38556600  0.38556600  0.20486400  1
  Ga  Ga3  1  0.61443400  0.61443400  0.79513600  1
  Ga  Ga4  1  0.24815000  0.24815000  0.20615500  1
  Ga  Ga5  1  0.75185000  0.75185000  0.79384500  1
  Ga  Ga6  1  0.00689900  0.00689900  0.40903900  1
  Ga  Ga7  1  0.99310100  0.99310100  0.59096100  1
  Ga  Ga8  1  0.62723700  0.62723700  0.30551500  1
  Ga  Ga9  1  0.37276300  0.37276300  0.69448500  1
  Ga  Ga10  1  0.93576800  0.93576800  0.29467100  1
  Ga  Ga11  1  0.06423200  0.06423200  0.70532900  1
  Ga  Ga12  1  0.54022900  0.54022900  0.13165300  1
  Ga  Ga13  1  0.45977100  0.45977100  0.86834700  1
  Ga  Ga14  1  0.88174800  0.88174800  0.05514600  1
  Ga  Ga15  1  0.11825200  0.11825200  0.94485400  1
  Ga  Ga16  1  0.50000000  0.50000000  0.00000000  1
  Ga  Ga17  1  0.29759700  0.29759700  0.00282200  1
  Ga  Ga18  1  0.70240300  0.70240300  0.99717800  1
  Ga  Ga19  1  0.79950000  0.79950000  0.50196300  1
  Ga  Ga20  1  0.20050000  0.20050000  0.49803700  1
  Ni  Ni0  1  0.97555600  0.97555600  0.10613600  1
  Ni  Ni1  1  0.02444400  0.02444400  0.89386400  1
  Ni  Ni2  1  0.34738300  0.34738300  0.38828200  1
  Ni  Ni3  1  0.65261700  0.65261700  0.61171800  1
  Ni  Ni4  1  0.74885400  0.74885400  0.11549400  1
  Ni  Ni5  1  0.25114600  0.25114600  0.88450600  1
  Ni  Ni6  1  0.13282000  0.13282000  0.39767300  1
  Ni  Ni7  1  0.86718000  0.86718000  0.60232700  1
  Ni  Ni8  1  0.50322400  0.50322400  0.31368700  1
  Ni  Ni9  1  0.49677600  0.49677600  0.68631300  1
loop_
_geom_bond_atom_site_label_1
_geom_bond_atom_site_label_2
_geom_bond_distance
_geom_bond_site_symmetry_2
Er0 Ga2 2.862225 1_655
Er0 Ga2 2.862225 1_565
Er0 Ga4 2.946010 1_655
Er0 Ga4 2.946010 1_565
Er0 Ga1 2.979459 1_555
Er0 Ga20 3.002743 1_655
Er0 Ga20 3.002743 1_565
Er0 Ni2 3.091299 1_565
Er0 Ni2 3.091299 1_655
Er0 Ni6 3.147958 1_565
Er0 Ni6 3.147958 1_655
Er0 Ga19 3.155741 1_555
Er0 Ga8 3.168144 1_555
Er0 Ga10 3.212524 1_555
Er0 Ga14 3.413483 1_555
Er1 Ga3 2.862225 1_455
Er1 Ga3 2.862225 1_545
Er1 Ga5 2.946010 1_545
Er1 Ga5 2.946010 1_455
Er1 Ga0 2.979459 1_555
Er1 Ga19 3.002743 1_545
Er1 Ga19 3.002743 1_455
Er1 Ni3 3.091299 1_455
Er1 Ni3 3.091299 1_545
Er1 Ni7 3.147958 1_545
Er1 Ni7 3.147958 1_455
Er1 Ga20 3.155741 1_555
Er1 Ga9 3.168144 1_555
Er1 Ga11 3.212524 1_555
Er1 Ga15 3.413483 1_555
Er2 Ga12 2.879310 1_545
Er2 Ga12 2.879310 1_455
Er2 Ga18 2.965957 1_454
Er2 Ga18 2.965957 1_544
Er2 Ni8 2.980110 1_545
Er2 Ni8 2.980110 1_455
Er2 Ga8 3.023218 1_455
Er2 Ga8 3.023218 1_545
Er2 Ga17 3.051502 1_555
Er2 Ga4 3.061921 1_555
Er2 Ni4 3.079924 1_545
Er2 Ni4 3.079924 1_455
Er2 Ga6 3.081458 1_555
Er2 Ga10 3.161698 1_445
Er2 Ga15 3.477389 1_554
Er3 Ga13 2.879310 1_565
Er3 Ga13 2.879310 1_655
Er3 Ga17 2.965957 1_656
Er3 Ga17 2.965957 1_566
Er3 Ni9 2.980110 1_565
Er3 Ni9 2.980110 1_655
Er3 Ga9 3.023218 1_565
Er3 Ga9 3.023218 1_655
Er3 Ga18 3.051502 1_555
Er3 Ga5 3.061921 1_555
Er3 Ni5 3.079924 1_655
Er3 Ni5 3.079924 1_565
Er3 Ga7 3.081458 1_555
Er3 Ga11 3.161698 1_665
Er3 Ga14 3.477389 1_556
Ga0 Ni8 2.388909 1_555
Ga0 Ni7 2.449408 1_455
Ga0 Ni7 2.449408 1_545
Ga0 Ni2 2.462853 1_555
Ga0 Ga6 2.747953 1_655
Ga0 Ga6 2.747953 1_565
Ga0 Ga9 2.796719 1_555
Ga0 Ga19 2.866040 1_545
Ga0 Ga19 2.866040 1_455
Ga1 Ni9 2.388909 1_555
Ga1 Ni6 2.449408 1_655
Ga1 Ni6 2.449408 1_565
Ga1 Ni3 2.462853 1_555
Ga1 Ga7 2.747953 1_455
Ga1 Ga7 2.747953 1_545
Ga1 Ga8 2.796719 1_555
Ga1 Ga20 2.866040 1_565
Ga1 Ga20 2.866040 1_655
Ga2 Ni2 2.477862 1_555
Ga2 Ni0 2.585085 1_455
Ga2 Ni0 2.585085 1_545
Ga3 Ni3 2.477862 1_555
Ga3 Ni1 2.585085 1_655
Ga3 Ni1 2.585085 1_565
Ga4 Ni4 2.466475 1_455
Ga4 Ni4 2.466475 1_545
Ga4 Ni6 2.528115 1_555
Ga4 Ga8 2.896223 1_545
Ga4 Ga8 2.896223 1_455
Ga5 Ni5 2.466475 1_565
Ga5 Ni5 2.466475 1_655
Ga5 Ni7 2.528115 1_555
Ga5 Ga9 2.896223 1_655
Ga5 Ga9 2.896223 1_565
Ga6 Ni6 2.533691 1_555
Ga6 Ni8 2.540726 1_545
Ga6 Ni8 2.540726 1_455
Ga6 Ga7 2.671798 1_445
Ga6 Ni7 2.725609 1_445
Ga6 Ga8 2.892269 1_455
Ga6 Ga8 2.892269 1_545
Ga7 Ni7 2.533691 1_555
Ga7 Ni9 2.540726 1_565
Ga7 Ni9 2.540726 1_655
Ga7 Ni6 2.725609 1_665
Ga7 Ga9 2.892269 1_565
Ga7 Ga9 2.892269 1_655
Ga8 Ni8 2.520487 1_555
Ga8 Ni6 2.525829 1_655
Ga8 Ni6 2.525829 1_565
Ga8 Ni4 2.553596 1_555
Ga9 Ni9 2.520487 1_555
Ga9 Ni7 2.525829 1_455
Ga9 Ni7 2.525829 1_545
Ga9 Ni5 2.553596 1_555
Ga10 Ni0 2.543155 1_555
Ga10 Ni2 2.559057 1_565
Ga10 Ni2 2.559057 1_655
Ga10 Ni8 2.583947 1_655
Ga10 Ni8 2.583947 1_565
Ga10 Ga19 2.811240 1_555
Ga10 Ga6 2.901638 1_665
Ga11 Ni1 2.543155 1_555
Ga11 Ni3 2.559057 1_455
Ga11 Ni3 2.559057 1_545
Ga11 Ni9 2.583947 1_545
Ga11 Ni9 2.583947 1_455
Ga11 Ga20 2.811240 1_555
Ga11 Ga7 2.901638 1_445
Ga12 Ni8 2.465584 1_555
Ga12 Ni0 2.593049 1_455
Ga12 Ni0 2.593049 1_545
Ga12 Ga16 2.622954 1_555
Ga12 Ga18 2.771362 1_554
Ga13 Ni9 2.465584 1_555
Ga13 Ni1 2.593049 1_655
Ga13 Ni1 2.593049 1_565
Ga13 Ga16 2.622954 1_556
Ga13 Ga17 2.771362 1_556
Ga14 Ni4 2.363615 1_555
Ga14 Ni0 2.502889 1_555
Ga14 Ni1 2.559403 1_664
Ga14 Ga16 2.918671 1_655
Ga14 Ga16 2.918671 1_565
Ga14 Ga17 3.086421 1_565
Ga14 Ga17 3.086421 1_655
Ga15 Ni5 2.363615 1_555
Ga15 Ni1 2.502889 1_555
Ga15 Ni0 2.559403 1_446
Ga15 Ga16 2.918671 1_546
Ga15 Ga16 2.918671 1_456
Ga15 Ga18 3.086421 1_545
Ga15 Ga18 3.086421 1_455
Ga16 Ni1 2.476176 1_564
Ga16 Ni1 2.476176 1_654
Ga16 Ni0 2.476176 1_455
Ga16 Ni0 2.476176 1_545
Ga16 Ga3 2.659219 1_554
Ga16 Ga2 2.659219 1_555
Ga17 Ni4 2.483441 1_455
Ga17 Ni4 2.483441 1_545
Ga17 Ni5 2.526809 1_554
Ga17 Ga4 2.699670 1_555
Ga17 Ga18 2.878892 1_454
Ga17 Ga18 2.878892 1_544
Ga18 Ni5 2.483441 1_565
Ga18 Ni5 2.483441 1_655
Ga18 Ni4 2.526809 1_556
Ga18 Ga5 2.699670 1_555
Ga19 Ni2 2.490900 1_655
Ga19 Ni2 2.490900 1_565
Ga19 Ni3 2.507932 1_555
Ga19 Ni7 2.642064 1_555
Ga19 Ga20 2.924232 1_565
Ga19 Ga20 2.924232 1_655
Ga20 Ni3 2.490900 1_455
Ga20 Ni3 2.490900 1_545
Ga20 Ni2 2.507932 1_555
Ga20 Ni6 2.642064 1_555
Ni2 Ni8 2.755615 1_555
Ni3 Ni9 2.755615 1_555
