# generated using pymatgen
data_V(FeS2)2
_symmetry_space_group_name_H-M   'P 1'
_cell_length_a   6.12379147
_cell_length_b   6.12379147
_cell_length_c   5.72705124
_cell_angle_alpha   65.65736306
_cell_angle_beta   65.65736306
_cell_angle_gamma   30.35463060
_symmetry_Int_Tables_number   1
_chemical_formula_structural   V(FeS2)2
_chemical_formula_sum   'V1 Fe2 S4'
_cell_volume   98.13721270
_cell_formula_units_Z   1
loop_
 _symmetry_equiv_pos_site_id
 _symmetry_equiv_pos_as_xyz
  1  'x, y, z'
loop_
 _atom_site_type_symbol
 _atom_site_label
 _atom_site_symmetry_multiplicity
 _atom_site_fract_x
 _atom_site_fract_y
 _atom_site_fract_z
 _atom_site_occupancy
  V  V0  1  0.26046100  0.26046100  0.68485800  1
  Fe  Fe0  1  0.00294100  0.00294100  0.99843600  1
  Fe  Fe1  1  0.73503200  0.73503200  0.31866400  1
  S  S0  1  0.63968600  0.63968600  0.02538600  1
  S  S1  1  0.36137800  0.36137800  0.98868700  1
  S  S2  1  0.10680800  0.10680800  0.55280900  1
  S  S3  1  0.89369500  0.89369500  0.43116000  1
loop_
_geom_bond_atom_site_label_1
_geom_bond_atom_site_label_2
_geom_bond_distance
_geom_bond_site_symmetry_2
Fe0 S3 2.252912 1_446
Fe0 S2 2.311767 1_555
Fe0 S0 2.328094 1_546
Fe0 S0 2.328094 1_456
Fe0 S1 2.335245 1_455
Fe0 S1 2.335245 1_545
Fe1 S2 2.220303 1_565
Fe1 S2 2.220303 1_655
Fe1 S3 2.228124 1_555
Fe1 S0 2.389193 1_555
Fe1 S1 2.441595 1_564
Fe1 S1 2.441595 1_654
S0 V0 2.456355 1_654
S0 V0 2.456355 1_564
S1 V0 2.494734 1_555
S2 V0 2.245858 1_555
S3 V0 2.281920 1_565
S3 V0 2.281920 1_655
