# generated using pymatgen
data_B12W
_symmetry_space_group_name_H-M   'P 1'
_cell_length_a   5.18761253
_cell_length_b   5.18761253
_cell_length_c   5.18761253
_cell_angle_alpha   60.00000000
_cell_angle_beta   60.00000000
_cell_angle_gamma   60.00000000
_symmetry_Int_Tables_number   1
_chemical_formula_structural   B12W
_chemical_formula_sum   'B12 W1'
_cell_volume   98.71601028
_cell_formula_units_Z   1
loop_
 _symmetry_equiv_pos_site_id
 _symmetry_equiv_pos_as_xyz
  1  'x, y, z'
loop_
 _atom_site_type_symbol
 _atom_site_label
 _atom_site_symmetry_multiplicity
 _atom_site_fract_x
 _atom_site_fract_y
 _atom_site_fract_z
 _atom_site_occupancy
  B  B0  1  0.50000000  0.84058700  0.50000000  1
  B  B1  1  0.84058700  0.50000000  0.50000000  1
  B  B2  1  0.50000000  0.84058700  0.15941300  1
  B  B3  1  0.15941300  0.50000000  0.84058700  1
  B  B4  1  0.84058700  0.50000000  0.15941300  1
  B  B5  1  0.50000000  0.50000000  0.84058700  1
  B  B6  1  0.15941300  0.84058700  0.50000000  1
  B  B7  1  0.50000000  0.15941300  0.84058700  1
  B  B8  1  0.50000000  0.50000000  0.15941300  1
  B  B9  1  0.84058700  0.15941300  0.50000000  1
  B  B10  1  0.15941300  0.50000000  0.50000000  1
  B  B11  1  0.50000000  0.15941300  0.50000000  1
  W  W0  1  0.00000000  0.00000000  0.00000000  1
loop_
_geom_bond_atom_site_label_1
_geom_bond_atom_site_label_2
_geom_bond_distance
_geom_bond_site_symmetry_2
B0 B11 1.653946 1_565
B0 B2 1.766833 1_555
B0 B5 1.766833 1_555
B0 B6 1.766833 1_555
B0 B1 1.766833 1_555
B0 W0 2.722447 1_566
B0 W0 2.722447 1_665
B1 B10 1.653946 1_655
B1 B5 1.766833 1_555
B1 B9 1.766833 1_555
B1 B4 1.766833 1_555
B1 W0 2.722447 1_656
B1 W0 2.722447 1_665
B2 B7 1.653946 1_564
B2 B6 1.766833 1_555
B2 B4 1.766833 1_555
B2 B8 1.766833 1_555
B2 W0 2.722447 1_565
B2 W0 2.722447 1_665
B3 B4 1.653946 1_456
B3 B5 1.766833 1_555
B3 B6 1.766833 1_555
B3 B7 1.766833 1_555
B3 W0 2.722447 1_556
B3 W0 2.722447 1_566
B4 B9 1.766833 1_555
B4 B8 1.766833 1_555
B4 W0 2.722447 1_655
B4 W0 2.722447 1_665
B5 B8 1.653946 1_556
B5 B7 1.766833 1_555
B5 W0 2.722447 1_566
B5 W0 2.722447 1_656
B6 B9 1.653946 1_465
B6 W0 2.722447 1_565
B6 W0 2.722447 1_566
B7 B9 1.766833 1_555
B7 W0 2.722447 1_556
B7 W0 2.722447 1_656
B8 W0 2.722447 1_655
B8 W0 2.722447 1_565
B9 W0 2.722447 1_655
B9 W0 2.722447 1_656
B10 B6 1.766833 1_555
B10 B3 1.766833 1_555
B10 B11 1.766833 1_555
B10 B8 1.766833 1_555
B10 W0 2.722447 1_565
B10 W0 2.722447 1_556
B11 B9 1.766833 1_555
B11 B7 1.766833 1_555
B11 B8 1.766833 1_555
B11 W0 2.722447 1_655
B11 W0 2.722447 1_556
