# generated using pymatgen
data_Lu3Ru
_symmetry_space_group_name_H-M   'P 1'
_cell_length_a   6.13557900
_cell_length_b   7.22038400
_cell_length_c   8.91286800
_cell_angle_alpha   90.00000000
_cell_angle_beta   90.00000000
_cell_angle_gamma   90.00000000
_symmetry_Int_Tables_number   1
_chemical_formula_structural   Lu3Ru
_chemical_formula_sum   'Lu12 Ru4'
_cell_volume   394.85107265
_cell_formula_units_Z   4
loop_
 _symmetry_equiv_pos_site_id
 _symmetry_equiv_pos_as_xyz
  1  'x, y, z'
loop_
 _atom_site_type_symbol
 _atom_site_label
 _atom_site_symmetry_multiplicity
 _atom_site_fract_x
 _atom_site_fract_y
 _atom_site_fract_z
 _atom_site_occupancy
  Lu  Lu0  1  0.33339800  0.67655000  0.06324100  1
  Lu  Lu1  1  0.16660200  0.17655000  0.43675900  1
  Lu  Lu2  1  0.66660200  0.32345000  0.56324100  1
  Lu  Lu3  1  0.83339800  0.82345000  0.93675900  1
  Lu  Lu4  1  0.66660200  0.32345000  0.93675900  1
  Lu  Lu5  1  0.83339800  0.82345000  0.56324100  1
  Lu  Lu6  1  0.33339800  0.67655000  0.43675900  1
  Lu  Lu7  1  0.16660200  0.17655000  0.06324100  1
  Lu  Lu8  1  0.86870300  0.54052800  0.25000000  1
  Lu  Lu9  1  0.63129700  0.04052800  0.25000000  1
  Lu  Lu10  1  0.13129700  0.45947200  0.75000000  1
  Lu  Lu11  1  0.36870300  0.95947200  0.75000000  1
  Ru  Ru0  1  0.03984600  0.88408500  0.25000000  1
  Ru  Ru1  1  0.46015400  0.38408500  0.25000000  1
  Ru  Ru2  1  0.96015400  0.11591500  0.75000000  1
  Ru  Ru3  1  0.53984600  0.61591500  0.75000000  1
loop_
_geom_bond_atom_site_label_1
_geom_bond_atom_site_label_2
_geom_bond_distance
_geom_bond_site_symmetry_2
Lu0 Ru1 2.799093 1_555
Lu0 Ru0 2.874057 1_555
Lu0 Ru3 3.096889 1_554
Lu0 Lu6 3.329117 1_555
Lu0 Lu10 3.433495 1_554
Lu0 Lu3 3.436162 1_454
Lu0 Lu3 3.436162 1_554
Lu0 Lu8 3.444492 1_455
Lu0 Lu4 3.456943 1_554
Lu0 Lu11 3.466201 1_554
Lu0 Lu9 3.608081 1_565
Lu0 Lu7 3.752441 1_565
Lu0 Lu7 3.752441 1_555
Lu0 Lu8 3.810861 1_555
Lu1 Ru0 2.799093 1_545
Lu1 Ru1 2.874057 1_555
Lu1 Ru2 3.096889 1_455
Lu1 Lu7 3.329117 1_555
Lu1 Lu11 3.433495 1_545
Lu1 Lu2 3.436162 1_555
Lu1 Lu2 3.436162 1_455
Lu1 Lu9 3.444492 1_555
Lu1 Lu5 3.456943 1_445
Lu1 Lu10 3.466201 1_555
Lu1 Lu8 3.608081 1_455
Lu1 Lu6 3.752441 1_545
Lu1 Lu6 3.752441 1_555
Lu1 Lu9 3.810861 1_455
Lu2 Ru3 2.799093 1_555
Lu2 Ru2 2.874057 1_555
Lu2 Ru1 3.096889 1_555
Lu2 Lu4 3.329117 1_555
Lu2 Lu8 3.433495 1_555
Lu2 Lu6 3.456943 1_555
Lu2 Lu9 3.466201 1_555
Lu2 Lu5 3.752441 1_555
Lu2 Lu5 3.752441 1_545
Lu3 Ru2 2.799093 1_565
Lu3 Ru3 2.874057 1_555
Lu3 Ru0 3.096889 1_656
Lu3 Lu5 3.329117 1_555
Lu3 Lu9 3.433495 1_566
Lu3 Lu7 3.456943 1_666
Lu3 Lu8 3.466201 1_556
Lu3 Lu4 3.752441 1_555
Lu3 Lu4 3.752441 1_565
Lu4 Ru3 2.799093 1_555
Lu4 Ru2 2.874057 1_555
Lu4 Ru1 3.096889 1_556
Lu4 Lu8 3.433495 1_556
Lu4 Lu7 3.436162 1_556
Lu4 Lu7 3.436162 1_656
Lu4 Lu9 3.466201 1_556
Lu5 Ru2 2.799093 1_565
Lu5 Ru3 2.874057 1_555
Lu5 Ru0 3.096889 1_655
Lu5 Lu9 3.433495 1_565
Lu5 Lu6 3.436162 1_655
Lu5 Lu6 3.436162 1_555
Lu5 Lu8 3.466201 1_555
Lu6 Ru1 2.799093 1_555
Lu6 Ru0 2.874057 1_555
Lu6 Ru3 3.096889 1_555
Lu6 Lu8 3.444492 1_455
Lu6 Lu9 3.608081 1_565
Lu6 Lu8 3.810861 1_555
Lu7 Ru0 2.799093 1_545
Lu7 Ru1 2.874057 1_555
Lu7 Ru2 3.096889 1_454
Lu7 Lu9 3.444492 1_555
Lu7 Lu8 3.608081 1_455
Lu7 Lu9 3.810861 1_455
Lu8 Ru0 2.693710 1_655
Lu8 Ru1 2.749439 1_555
Lu9 Ru1 2.693710 1_555
Lu9 Ru0 2.749439 1_645
Lu10 Ru2 2.693710 1_455
Lu10 Ru3 2.749439 1_555
Lu10 Lu6 3.433495 1_555
Lu10 Lu2 3.444492 1_455
Lu10 Lu4 3.444492 1_455
Lu10 Lu7 3.466201 1_556
Lu10 Lu3 3.608081 1_455
Lu10 Lu5 3.608081 1_455
Lu10 Lu2 3.810861 1_555
Lu10 Lu4 3.810861 1_555
Lu11 Ru3 2.693710 1_555
Lu11 Ru2 2.749439 1_465
Lu11 Lu7 3.433495 1_566
Lu11 Lu3 3.444492 1_555
Lu11 Lu5 3.444492 1_555
Lu11 Lu6 3.466201 1_555
Lu11 Lu4 3.608081 1_565
Lu11 Lu2 3.608081 1_565
Lu11 Lu3 3.810861 1_455
Lu11 Lu5 3.810861 1_455
