# generated using pymatgen
data_AlZnCo2
_symmetry_space_group_name_H-M   'P 1'
_cell_length_a   9.54656580
_cell_length_b   9.54656580
_cell_length_c   9.54656580
_cell_angle_alpha   120.17193143
_cell_angle_beta   119.48970903
_cell_angle_gamma   90.29428880
_symmetry_Int_Tables_number   1
_chemical_formula_structural   AlZnCo2
_chemical_formula_sum   'Al1 Zn1 Co2'
_cell_volume   616.75166042
_cell_formula_units_Z   1
loop_
 _symmetry_equiv_pos_site_id
 _symmetry_equiv_pos_as_xyz
  1  'x, y, z'
loop_
 _atom_site_type_symbol
 _atom_site_label
 _atom_site_symmetry_multiplicity
 _atom_site_fract_x
 _atom_site_fract_y
 _atom_site_fract_z
 _atom_site_occupancy
  Al  Al0  1  0.00000000  0.00000000  0.00000000  1
  Zn  Zn0  1  0.50000000  0.00000000  0.50000000  1
  Co  Co0  1  0.24191900  0.00000000  0.24191900  1
  Co  Co1  1  0.75808100  0.00000000  0.75808100  1
loop_
_geom_bond_atom_site_label_1
_geom_bond_atom_site_label_2
_geom_bond_distance
_geom_bond_site_symmetry_2
Al0 Co0 2.327286 1_555
Al0 Co1 2.327286 1_454
Co0 Zn0 2.482766 1_555
Co1 Zn0 2.482766 1_555
