# generated using pymatgen
data_Nd(Ga2Fe)4
_symmetry_space_group_name_H-M   'P 1'
_cell_length_a   6.71183773
_cell_length_b   6.71183773
_cell_length_c   6.71183773
_cell_angle_alpha   98.24778924
_cell_angle_beta   98.24778924
_cell_angle_gamma   135.48697779
_symmetry_Int_Tables_number   1
_chemical_formula_structural   Nd(Ga2Fe)4
_chemical_formula_sum   'Nd1 Ga8 Fe4'
_cell_volume   196.18319395
_cell_formula_units_Z   1
loop_
 _symmetry_equiv_pos_site_id
 _symmetry_equiv_pos_as_xyz
  1  'x, y, z'
loop_
 _atom_site_type_symbol
 _atom_site_label
 _atom_site_symmetry_multiplicity
 _atom_site_fract_x
 _atom_site_fract_y
 _atom_site_fract_z
 _atom_site_occupancy
  Nd  Nd0  1  0.00000000  0.00000000  0.00000000  1
  Ga  Ga0  1  0.34055500  0.00000000  0.34055500  1
  Ga  Ga1  1  0.65944500  0.00000000  0.65944500  1
  Ga  Ga2  1  0.00000000  0.34055500  0.34055500  1
  Ga  Ga3  1  0.00000000  0.65944500  0.65944500  1
  Ga  Ga4  1  0.27620600  0.50000000  0.77620600  1
  Ga  Ga5  1  0.72379400  0.50000000  0.22379400  1
  Ga  Ga6  1  0.50000000  0.27620600  0.77620600  1
  Ga  Ga7  1  0.50000000  0.72379400  0.22379400  1
  Fe  Fe0  1  0.50000000  0.50000000  0.50000000  1
  Fe  Fe1  1  0.00000000  0.00000000  0.50000000  1
  Fe  Fe2  1  0.00000000  0.50000000  0.00000000  1
  Fe  Fe3  1  0.50000000  0.00000000  0.00000000  1
loop_
_geom_bond_atom_site_label_1
_geom_bond_atom_site_label_2
_geom_bond_distance
_geom_bond_site_symmetry_2
Ga0 Ga5 2.741268 1_555
Ga0 Ga5 2.741268 1_445
Ga0 Ga1 2.801384 1_555
Ga0 Ga6 2.801682 1_555
Ga0 Ga7 2.801682 1_545
Ga0 Nd0 2.991706 1_555
Ga1 Ga4 2.741268 1_655
Ga1 Ga4 2.741268 1_545
Ga1 Ga6 2.801682 1_555
Ga1 Ga7 2.801682 1_545
Ga1 Nd0 2.991706 1_656
Ga2 Ga7 2.741268 1_555
Ga2 Ga7 2.741268 1_445
Ga2 Ga3 2.801384 1_555
Ga2 Ga4 2.801682 1_555
Ga2 Ga5 2.801682 1_455
Ga2 Nd0 2.991706 1_555
Ga3 Ga6 2.741268 1_565
Ga3 Ga6 2.741268 1_455
Ga3 Ga4 2.801682 1_555
Ga3 Ga5 2.801682 1_455
Ga3 Nd0 2.991706 1_566
Ga4 Ga6 2.780322 1_555
Ga4 Ga7 2.780322 1_556
Ga4 Nd0 3.213649 1_666
Ga4 Nd0 3.213649 1_556
Ga5 Ga7 2.780322 1_555
Ga5 Ga6 2.780322 1_554
Ga5 Nd0 3.213649 1_555
Ga5 Nd0 3.213649 1_665
Ga6 Nd0 3.213649 1_666
Ga6 Nd0 3.213649 1_556
Ga7 Nd0 3.213649 1_555
Ga7 Nd0 3.213649 1_665
Fe0 Fe1 2.542134 1_555
Fe0 Fe1 2.542134 1_665
Fe0 Ga5 2.547921 1_555
Fe0 Ga7 2.547921 1_555
Fe0 Ga6 2.547921 1_555
Fe0 Ga4 2.547921 1_555
Fe0 Ga3 2.659273 1_655
Fe0 Ga1 2.659273 1_565
Fe0 Ga2 2.659273 1_555
Fe0 Ga0 2.659273 1_555
Fe0 Nd0 3.355919 1_666
Fe0 Nd0 3.355919 1_555
Fe1 Ga7 2.547921 1_445
Fe1 Ga5 2.547921 1_445
Fe1 Ga4 2.547921 1_555
Fe1 Ga6 2.547921 1_555
Fe1 Ga2 2.659273 1_555
Fe1 Ga3 2.659273 1_545
Fe1 Ga1 2.659273 1_455
Fe1 Ga0 2.659273 1_555
Fe1 Nd0 3.355919 1_555
Fe1 Nd0 3.355919 1_556
Fe2 Fe3 2.542134 1_565
Fe2 Fe3 2.542134 1_455
Fe2 Ga6 2.547921 1_454
Fe2 Ga4 2.547921 1_554
Fe2 Ga7 2.547921 1_555
Fe2 Ga5 2.547921 1_455
Fe2 Ga1 2.659273 1_454
Fe2 Ga3 2.659273 1_554
Fe2 Ga2 2.659273 1_555
Fe2 Ga0 2.659273 1_565
Fe2 Nd0 3.355919 1_555
Fe2 Nd0 3.355919 1_565
Fe3 Ga6 2.547921 1_554
Fe3 Ga4 2.547921 1_544
Fe3 Ga5 2.547921 1_555
Fe3 Ga7 2.547921 1_545
Fe3 Ga2 2.659273 1_655
Fe3 Ga1 2.659273 1_554
Fe3 Ga3 2.659273 1_544
Fe3 Ga0 2.659273 1_555
Fe3 Nd0 3.355919 1_555
Fe3 Nd0 3.355919 1_655
