# generated using pymatgen
data_Mo3O7
_symmetry_space_group_name_H-M   'P 1'
_cell_length_a   5.70110000
_cell_length_b   11.49470200
_cell_length_c   11.05113300
_cell_angle_alpha   90.00000000
_cell_angle_beta   90.00000000
_cell_angle_gamma   90.00000000
_symmetry_Int_Tables_number   1
_chemical_formula_structural   Mo3O7
_chemical_formula_sum   'Mo12 O28'
_cell_volume   724.20777183
_cell_formula_units_Z   4
loop_
 _symmetry_equiv_pos_site_id
 _symmetry_equiv_pos_as_xyz
  1  'x, y, z'
loop_
 _atom_site_type_symbol
 _atom_site_label
 _atom_site_symmetry_multiplicity
 _atom_site_fract_x
 _atom_site_fract_y
 _atom_site_fract_z
 _atom_site_occupancy
  Mo  Mo0  1  0.28946000  0.02169300  0.31151600  1
  Mo  Mo1  1  0.78946000  0.97830700  0.18848400  1
  Mo  Mo2  1  0.71054000  0.52169300  0.68848400  1
  Mo  Mo3  1  0.21054000  0.47830700  0.81151600  1
  Mo  Mo4  1  0.29305900  0.75000000  0.23109700  1
  Mo  Mo5  1  0.79305900  0.25000000  0.26890300  1
  Mo  Mo6  1  0.70694100  0.25000000  0.76890300  1
  Mo  Mo7  1  0.20694100  0.75000000  0.73109700  1
  Mo  Mo8  1  0.78946000  0.52169300  0.18848400  1
  Mo  Mo9  1  0.28946000  0.47830700  0.31151600  1
  Mo  Mo10  1  0.21054000  0.02169300  0.81151600  1
  Mo  Mo11  1  0.71054000  0.97830700  0.68848400  1
  O  O0  1  0.93918000  0.10905500  0.73302100  1
  O  O1  1  0.43918000  0.89094500  0.76697900  1
  O  O2  1  0.06082000  0.60905500  0.26697900  1
  O  O3  1  0.56082000  0.39094500  0.23302100  1
  O  O4  1  0.06082000  0.89094500  0.26697900  1
  O  O5  1  0.56082000  0.10905500  0.23302100  1
  O  O6  1  0.93918000  0.39094500  0.73302100  1
  O  O7  1  0.43918000  0.60905500  0.76697900  1
  O  O8  1  0.47697700  0.10899700  0.72911800  1
  O  O9  1  0.97697700  0.89100300  0.77088200  1
  O  O10  1  0.52302300  0.60899700  0.27088200  1
  O  O11  1  0.02302300  0.39100300  0.22911800  1
  O  O12  1  0.52302300  0.89100300  0.27088200  1
  O  O13  1  0.02302300  0.10899700  0.22911800  1
  O  O14  1  0.47697700  0.39100300  0.72911800  1
  O  O15  1  0.97697700  0.60899700  0.77088200  1
  O  O16  1  0.20306300  0.75000000  0.57187800  1
  O  O17  1  0.70306300  0.25000000  0.92812200  1
  O  O18  1  0.79693700  0.25000000  0.42812200  1
  O  O19  1  0.29693700  0.75000000  0.07187800  1
  O  O20  1  0.22122400  0.44405700  0.96099400  1
  O  O21  1  0.72122400  0.55594300  0.53900600  1
  O  O22  1  0.77877600  0.94405700  0.03900600  1
  O  O23  1  0.27877600  0.05594300  0.46099400  1
  O  O24  1  0.77877600  0.55594300  0.03900600  1
  O  O25  1  0.27877600  0.44405700  0.46099400  1
  O  O26  1  0.22122400  0.05594300  0.96099400  1
  O  O27  1  0.72122400  0.94405700  0.53900600  1
loop_
_geom_bond_atom_site_label_1
_geom_bond_atom_site_label_2
_geom_bond_distance
_geom_bond_site_symmetry_2
Mo0 O23 1.699259 1_555
Mo0 O13 2.035576 1_555
Mo0 O5 2.038202 1_555
Mo0 O4 2.049413 1_545
Mo0 O12 2.057048 1_545
Mo1 O22 1.699259 1_555
Mo1 O12 2.035576 1_555
Mo1 O4 2.038202 1_655
Mo1 O5 2.049413 1_565
Mo1 O13 2.057048 1_665
Mo2 O21 1.699259 1_555
Mo2 O15 2.035576 1_555
Mo2 O7 2.038202 1_555
Mo2 O6 2.049413 1_555
Mo2 O14 2.057048 1_555
Mo3 O20 1.699259 1_555
Mo3 O14 2.035576 1_555
Mo3 O6 2.038202 1_455
Mo3 O7 2.049413 1_555
Mo3 O15 2.057048 1_455
Mo4 O19 1.759689 1_555
Mo4 O2 2.129567 1_555
Mo4 O4 2.129567 1_555
Mo4 O12 2.130518 1_555
Mo4 O10 2.130518 1_555
Mo5 O18 1.759689 1_555
Mo5 O5 2.129567 1_555
Mo5 O3 2.129567 1_555
Mo5 O13 2.130518 1_655
Mo5 O11 2.130518 1_655
Mo6 O17 1.759689 1_555
Mo6 O0 2.129567 1_555
Mo6 O6 2.129567 1_555
Mo6 O8 2.130518 1_555
Mo6 O14 2.130518 1_555
Mo7 O16 1.759689 1_555
Mo7 O7 2.129567 1_555
Mo7 O1 2.129567 1_555
Mo7 O15 2.130518 1_455
Mo7 O9 2.130518 1_455
Mo8 O24 1.699259 1_555
Mo8 O10 2.035576 1_555
Mo8 O2 2.038202 1_655
Mo8 O3 2.049413 1_555
Mo8 O11 2.057048 1_655
Mo9 O25 1.699259 1_555
Mo9 O11 2.035576 1_555
Mo9 O3 2.038202 1_555
Mo9 O2 2.049413 1_555
Mo9 O10 2.057048 1_555
Mo10 O26 1.699259 1_555
Mo10 O8 2.035576 1_555
Mo10 O0 2.038202 1_455
Mo10 O1 2.049413 1_545
Mo10 O9 2.057048 1_445
Mo11 O27 1.699259 1_555
Mo11 O9 2.035576 1_555
Mo11 O1 2.038202 1_555
Mo11 O0 2.049413 1_565
Mo11 O8 2.057048 1_565
