# generated using pymatgen
data_Y2TeO6
_symmetry_space_group_name_H-M   'P 1'
_cell_length_a   5.25786431
_cell_length_b   9.06488691
_cell_length_c   9.93819650
_cell_angle_alpha   90.00033857
_cell_angle_beta   89.99996102
_cell_angle_gamma   89.99999602
_symmetry_Int_Tables_number   1
_chemical_formula_structural   Y2TeO6
_chemical_formula_sum   'Y8 Te4 O24'
_cell_volume   473.67377854
_cell_formula_units_Z   4
loop_
 _symmetry_equiv_pos_site_id
 _symmetry_equiv_pos_as_xyz
  1  'x, y, z'
loop_
 _atom_site_type_symbol
 _atom_site_label
 _atom_site_symmetry_multiplicity
 _atom_site_fract_x
 _atom_site_fract_y
 _atom_site_fract_z
 _atom_site_occupancy
  Y  Y0  1  0.96207457  0.78279246  0.86463653  1
  Y  Y1  1  0.46207237  0.71721360  0.13535492  1
  Y  Y2  1  0.03792803  0.28279153  0.63536196  1
  Y  Y3  1  0.53792767  0.21721519  0.36464419  1
  Y  Y4  1  0.51989177  0.10370346  0.96170050  1
  Y  Y5  1  0.01989508  0.39629762  0.03830590  1
  Y  Y6  1  0.48010473  0.60370358  0.53829910  1
  Y  Y7  1  0.98010418  0.89630116  0.46169403  1
  Te  Te0  1  0.46173245  0.99499083  0.64787759  1
  Te  Te1  1  0.96173070  0.50501059  0.35211707  1
  Te  Te2  1  0.53826987  0.49498180  0.85212588  1
  Te  Te3  1  0.03826910  0.00501364  0.14788194  1
  O  O0  1  0.75776712  0.41498364  0.49445788  1
  O  O1  1  0.25776640  0.08501845  0.50553676  1
  O  O2  1  0.24223403  0.91498294  0.00554130  1
  O  O3  1  0.74223601  0.58501860  0.99446358  1
  O  O4  1  0.73251251  0.11380653  0.57001074  1
  O  O5  1  0.23251693  0.38619677  0.42999470  1
  O  O6  1  0.26748873  0.61380845  0.92999043  1
  O  O7  1  0.76748274  0.88619454  0.07000374  1
  O  O8  1  0.81690420  0.35993258  0.82129842  1
  O  O9  1  0.31689978  0.14006400  0.17871038  1
  O  O10  1  0.18309942  0.85993203  0.67869908  1
  O  O11  1  0.68309803  0.64006691  0.32128952  1
  O  O12  1  0.66832290  0.94863061  0.79816951  1
  O  O13  1  0.16834520  0.55136567  0.20183282  1
  O  O14  1  0.33168175  0.44863122  0.70183102  1
  O  O15  1  0.83165394  0.05136661  0.29816746  1
  O  O16  1  0.68694314  0.64032563  0.73876065  1
  O  O17  1  0.18692789  0.85966318  0.26123967  1
  O  O18  1  0.31305326  0.14032617  0.76124264  1
  O  O19  1  0.81307218  0.35966580  0.23875945  1
  O  O20  1  0.58605056  0.84522353  0.52910770  1
  O  O21  1  0.08603348  0.65477985  0.47089692  1
  O  O22  1  0.41394838  0.34522315  0.97088979  1
  O  O23  1  0.91396287  0.15477768  0.02910425  1
loop_
_geom_bond_atom_site_label_1
_geom_bond_atom_site_label_2
_geom_bond_distance
_geom_bond_site_symmetry_2
O0 Te1 1.953765 1_555
O0 Y6 2.290796 1_555
O0 Y2 2.359399 1_655
O0 Y3 2.492868 1_555
O1 Te0 1.953776 1_545
O1 Y7 2.290781 1_445
O1 Y3 2.359352 1_555
O1 Y2 2.492953 1_555
O2 Te3 1.953775 1_565
O2 Y4 2.290788 1_564
O2 Y0 2.359382 1_454
O2 Y1 2.492881 1_555
O3 Te2 1.953782 1_555
O3 Y5 2.290798 1_656
O3 Y1 2.359336 1_556
O3 Y0 2.492980 1_555
O4 Te0 1.945737 1_545
O4 Y2 2.312360 1_655
O4 Y3 2.468001 1_555
O4 Y7 2.596326 1_545
O5 Te1 1.945795 1_455
O5 Y3 2.312319 1_555
O5 Y2 2.468003 1_555
O5 Y6 2.596276 1_555
O6 Te2 1.945782 1_555
O6 Y0 2.312362 1_455
O6 Y1 2.467960 1_556
O6 Y5 2.596373 1_556
O7 Te3 1.945819 1_665
O7 Y1 2.312321 1_555
O7 Y0 2.467988 1_554
O7 Y4 2.596303 1_564
O8 Te2 1.933604 1_555
O8 Y2 2.292184 1_655
O8 Y5 2.428782 1_656
O9 Te3 1.933598 1_555
O9 Y3 2.292203 1_555
O9 Y4 2.428799 1_554
O10 Te0 1.933647 1_555
O10 Y0 2.292198 1_455
O10 Y7 2.428779 1_455
O11 Te1 1.933641 1_555
O11 Y1 2.292198 1_555
O11 Y6 2.428806 1_555
O12 Te0 1.894053 1_555
O12 Y0 2.254280 1_555
O12 Y4 2.286126 1_565
O13 Te1 1.894054 1_455
O13 Y1 2.254282 1_555
O13 Y5 2.286105 1_555
O14 Te2 1.894046 1_555
O14 Y2 2.254298 1_555
O14 Y6 2.286127 1_555
O15 Te3 1.894057 1_655
O15 Y3 2.254274 1_555
O15 Y7 2.286100 1_545
O16 Te2 1.901652 1_555
O16 Y6 2.293880 1_555
O16 Y0 2.307689 1_555
O17 Te3 1.901619 1_565
O17 Y7 2.293801 1_455
O17 Y1 2.307691 1_555
O18 Te0 1.901601 1_545
O18 Y4 2.293853 1_555
O18 Y2 2.307695 1_555
O19 Te1 1.901573 1_555
O19 Y5 2.293787 1_655
O19 Y3 2.307704 1_555
O20 Te0 1.914059 1_555
O20 Y7 2.226192 1_555
O20 Y6 2.260953 1_555
O21 Te1 1.914106 1_455
O21 Y6 2.226242 1_555
O21 Y7 2.260948 1_455
O22 Te2 1.913983 1_555
O22 Y5 2.226190 1_556
O22 Y4 2.260945 1_555
O23 Te3 1.914075 1_655
O23 Y4 2.226241 1_554
O23 Y5 2.260938 1_655
