# generated using pymatgen
data_Ba2InAgS4
_symmetry_space_group_name_H-M   'P 1'
_cell_length_a   7.39111500
_cell_length_b   8.47333582
_cell_length_c   14.80429301
_cell_angle_alpha   73.49835012
_cell_angle_beta   90.00000000
_cell_angle_gamma   90.00000000
_symmetry_Int_Tables_number   1
_chemical_formula_structural   Ba2InAgS4
_chemical_formula_sum   'Ba8 In4 Ag4 S16'
_cell_volume   888.96632644
_cell_formula_units_Z   4
loop_
 _symmetry_equiv_pos_site_id
 _symmetry_equiv_pos_as_xyz
  1  'x, y, z'
loop_
 _atom_site_type_symbol
 _atom_site_label
 _atom_site_symmetry_multiplicity
 _atom_site_fract_x
 _atom_site_fract_y
 _atom_site_fract_z
 _atom_site_occupancy
  Ba  Ba0  1  0.84384600  0.80275600  0.14248600  1
  Ba  Ba1  1  0.34384600  0.69724400  0.35751400  1
  Ba  Ba2  1  0.15615400  0.19724400  0.85751400  1
  Ba  Ba3  1  0.65615400  0.30275600  0.64248600  1
  Ba  Ba4  1  0.84238000  0.30853600  0.13619400  1
  Ba  Ba5  1  0.34238000  0.19146400  0.36380600  1
  Ba  Ba6  1  0.15762000  0.69146400  0.86380600  1
  Ba  Ba7  1  0.65762000  0.80853600  0.63619400  1
  In  In0  1  0.81910700  0.43579500  0.37723800  1
  In  In1  1  0.31910700  0.06420500  0.12276200  1
  In  In2  1  0.18089300  0.56420500  0.62276200  1
  In  In3  1  0.68089300  0.93579500  0.87723800  1
  Ag  Ag0  1  0.86619500  0.92294300  0.39927700  1
  Ag  Ag1  1  0.36619500  0.57705700  0.10072300  1
  Ag  Ag2  1  0.13380500  0.07705700  0.60072300  1
  Ag  Ag3  1  0.63380500  0.42294300  0.89927700  1
  S  S0  1  0.24291400  0.86708200  0.03099400  1
  S  S1  1  0.74291400  0.63291800  0.46900600  1
  S  S2  1  0.75708600  0.13291800  0.96900600  1
  S  S3  1  0.25708600  0.36708200  0.53099400  1
  S  S4  1  0.07474800  0.48847900  0.26709900  1
  S  S5  1  0.57474800  0.01152100  0.23290100  1
  S  S6  1  0.92525200  0.51152100  0.73290100  1
  S  S7  1  0.42525200  0.98847900  0.76709900  1
  S  S8  1  0.57639500  0.49740900  0.24615700  1
  S  S9  1  0.07639500  0.00259100  0.25384300  1
  S  S10  1  0.42360500  0.50259100  0.75384300  1
  S  S11  1  0.92360500  0.99740900  0.74615700  1
  S  S12  1  0.74897500  0.14615600  0.47106600  1
  S  S13  1  0.24897500  0.35384400  0.02893400  1
  S  S14  1  0.25102500  0.85384400  0.52893400  1
  S  S15  1  0.75102500  0.64615600  0.97106600  1
loop_
_geom_bond_atom_site_label_1
_geom_bond_atom_site_label_2
_geom_bond_distance
_geom_bond_site_symmetry_2
Ba0 S9 3.181975 1_665
Ba0 S5 3.197148 1_565
Ba0 S15 3.253391 1_554
Ba0 S4 3.258295 1_655
Ba0 S8 3.271307 1_555
Ba0 S2 3.279010 1_564
Ba0 S0 3.348171 1_655
Ba1 S8 3.181975 1_555
Ba1 S4 3.197148 1_555
Ba1 S14 3.253391 1_555
Ba1 S5 3.258295 1_565
Ba1 S9 3.271307 1_565
Ba1 S3 3.279010 1_555
Ba1 S1 3.348171 1_555
Ba2 S11 3.181975 1_445
Ba2 S7 3.197148 1_545
Ba2 S13 3.253391 1_556
Ba2 S6 3.258295 1_455
Ba2 S10 3.271307 1_555
Ba2 S0 3.279010 1_546
Ba2 S2 3.348171 1_455
Ba3 S10 3.181975 1_555
Ba3 S6 3.197148 1_555
Ba3 S12 3.253391 1_555
Ba3 S7 3.258295 1_545
Ba3 S11 3.271307 1_545
Ba3 S1 3.279010 1_555
Ba3 S3 3.348171 1_555
Ba4 S9 3.190703 1_655
Ba4 S5 3.201487 1_555
Ba4 S8 3.249041 1_555
Ba4 S15 3.262379 1_554
Ba4 S4 3.272415 1_655
Ba4 S2 3.290932 1_554
Ba4 S13 3.369525 1_655
Ba5 S8 3.190703 1_555
Ba5 S4 3.201487 1_555
Ba5 S9 3.249041 1_555
Ba5 S14 3.262379 1_545
Ba5 S5 3.272415 1_555
Ba5 S3 3.290932 1_555
Ba5 S12 3.369525 1_555
Ba6 S11 3.190703 1_455
Ba6 S7 3.201487 1_555
Ba6 S10 3.249041 1_555
Ba6 S13 3.262379 1_556
Ba6 S6 3.272415 1_455
Ba6 S0 3.290932 1_556
Ba6 S15 3.369525 1_455
Ba7 S10 3.190703 1_555
Ba7 S6 3.201487 1_555
Ba7 S11 3.249041 1_555
Ba7 S12 3.262379 1_565
Ba7 S7 3.272415 1_555
Ba7 S1 3.290932 1_555
Ba7 S14 3.369525 1_555
In0 S4 2.452451 1_655
In0 S1 2.498357 1_555
In0 S12 2.506927 1_555
In0 S8 2.584748 1_555
In1 S5 2.452451 1_555
In1 S0 2.498357 1_545
In1 S13 2.506927 1_555
In1 S9 2.584748 1_555
In2 S6 2.452451 1_455
In2 S3 2.498357 1_555
In2 S14 2.506927 1_555
In2 S10 2.584748 1_555
In3 S7 2.452451 1_555
In3 S2 2.498357 1_565
In3 S15 2.506927 1_555
In3 S11 2.584748 1_555
Ag0 S1 2.548322 1_555
Ag0 S12 2.568908 1_565
Ag0 S9 2.584440 1_665
Ag0 S5 3.196891 1_565
Ag1 S0 2.548322 1_555
Ag1 S13 2.568908 1_555
Ag1 S8 2.584440 1_555
Ag1 S4 3.196891 1_555
Ag2 S3 2.548322 1_555
Ag2 S14 2.568908 1_545
Ag2 S11 2.584440 1_445
Ag2 S7 3.196891 1_545
Ag3 S2 2.548322 1_555
Ag3 S15 2.568908 1_555
Ag3 S10 2.584440 1_555
Ag3 S6 3.196891 1_555
