# generated using pymatgen
data_Zn3Cr8FeS16
_symmetry_space_group_name_H-M   'P 1'
_cell_length_a   12.26538991
_cell_length_b   12.26538991
_cell_length_c   12.26538971
_cell_angle_alpha   33.58023814
_cell_angle_beta   33.58023814
_cell_angle_gamma   33.58024120
_symmetry_Int_Tables_number   1
_chemical_formula_structural   Zn3Cr8FeS16
_chemical_formula_sum   'Zn3 Cr8 Fe1 S16'
_cell_volume   502.82558837
_cell_formula_units_Z   1
loop_
 _symmetry_equiv_pos_site_id
 _symmetry_equiv_pos_as_xyz
  1  'x, y, z'
loop_
 _atom_site_type_symbol
 _atom_site_label
 _atom_site_symmetry_multiplicity
 _atom_site_fract_x
 _atom_site_fract_y
 _atom_site_fract_z
 _atom_site_occupancy
  Zn  Zn0  1  0.18748000  0.18748000  0.18748000  1
  Zn  Zn1  1  0.81247000  0.81247000  0.81247000  1
  Zn  Zn2  1  0.31255100  0.31255100  0.31255100  1
  Cr  Cr0  1  0.00059300  0.00059300  0.00059400  1
  Cr  Cr1  1  0.49992300  0.49992300  0.49992300  1
  Cr  Cr2  1  0.75135400  0.24887900  0.24887900  1
  Cr  Cr3  1  0.25118800  0.74959000  0.74959000  1
  Cr  Cr4  1  0.24887900  0.75135400  0.24887900  1
  Cr  Cr5  1  0.74959000  0.25118800  0.74959000  1
  Cr  Cr6  1  0.24887900  0.24887900  0.75135400  1
  Cr  Cr7  1  0.74959000  0.74959000  0.25118800  1
  Fe  Fe0  1  0.68750500  0.68750500  0.68750500  1
  S  S0  1  0.11977200  0.11977200  0.11977200  1
  S  S1  1  0.62090800  0.62090800  0.62090800  1
  S  S2  1  0.35487000  0.88709300  0.88709300  1
  S  S3  1  0.84894400  0.39063400  0.39063400  1
  S  S4  1  0.88709300  0.35487000  0.88709300  1
  S  S5  1  0.39063400  0.84894400  0.39063400  1
  S  S6  1  0.88709300  0.88709300  0.35487000  1
  S  S7  1  0.39063400  0.39063400  0.84894400  1
  S  S8  1  0.38032400  0.38032400  0.38032400  1
  S  S9  1  0.88028300  0.88028300  0.88028300  1
  S  S10  1  0.15141500  0.60910000  0.60910000  1
  S  S11  1  0.65172200  0.10905300  0.10905300  1
  S  S12  1  0.60910000  0.15141500  0.60910000  1
  S  S13  1  0.10905300  0.65172200  0.10905300  1
  S  S14  1  0.60910000  0.60910000  0.15141500  1
  S  S15  1  0.10905300  0.10905300  0.65172200  1
loop_
_geom_bond_atom_site_label_1
_geom_bond_atom_site_label_2
_geom_bond_distance
_geom_bond_site_symmetry_2
Cr0 S6 2.414191 1_445
Cr0 S4 2.414196 1_454
Cr0 S2 2.414196 1_544
Cr0 S11 2.414259 1_455
Cr0 S13 2.414259 1_545
Cr0 S15 2.414264 1_554
Cr1 S14 2.402304 1_555
Cr1 S12 2.402304 1_555
Cr1 S10 2.402304 1_555
Cr1 S7 2.406391 1_555
Cr1 S3 2.406391 1_555
Cr1 S5 2.406391 1_555
Cr2 S0 2.401439 1_655
Cr2 S8 2.406139 1_555
Cr2 S12 2.413364 1_555
Cr2 S14 2.413364 1_555
Cr2 S4 2.416051 1_554
Cr2 S6 2.416051 1_545
Cr3 S13 2.404244 1_556
Cr3 S15 2.404245 1_565
Cr3 S5 2.404266 1_555
Cr3 S7 2.404267 1_555
Cr3 S9 2.411410 1_455
Cr3 S1 2.417760 1_555
Cr4 S0 2.401439 1_565
Cr4 S8 2.406139 1_555
Cr4 S10 2.413364 1_555
Cr4 S14 2.413364 1_555
Cr4 S2 2.416051 1_554
Cr4 S6 2.416051 1_455
Cr5 S11 2.404244 1_556
Cr5 S15 2.404245 1_655
Cr5 S3 2.404266 1_555
Cr5 S7 2.404267 1_555
Cr5 S9 2.411410 1_545
Cr5 S1 2.417760 1_555
Cr6 S0 2.401439 1_556
Cr6 S8 2.406139 1_555
Cr6 S10 2.413364 1_555
Cr6 S12 2.413364 1_555
Cr6 S2 2.416051 1_545
Cr6 S4 2.416051 1_455
Cr7 S11 2.404245 1_565
Cr7 S13 2.404245 1_655
Cr7 S5 2.404267 1_555
Cr7 S3 2.404267 1_555
Cr7 S9 2.411410 1_554
Cr7 S1 2.417760 1_555
Fe0 S6 2.309360 1_555
Fe0 S2 2.309360 1_555
Fe0 S4 2.309360 1_555
Fe0 S1 2.310176 1_555
S0 Zn0 2.348715 1_555
S3 Zn0 2.350621 1_655
S5 Zn0 2.350621 1_565
S7 Zn0 2.350621 1_556
S8 Zn2 2.350970 1_555
S9 Zn1 2.352357 1_555
S10 Zn1 2.353120 1_455
S11 Zn2 2.354601 1_555
S12 Zn1 2.353120 1_545
S13 Zn2 2.354601 1_555
S14 Zn1 2.353120 1_554
S15 Zn2 2.354601 1_555
