# generated using pymatgen
data_PrU2S5
_symmetry_space_group_name_H-M   'P 1'
_cell_length_a   7.45256200
_cell_length_b   8.03171800
_cell_length_c   11.81657500
_cell_angle_alpha   90.00000000
_cell_angle_beta   90.00000000
_cell_angle_gamma   90.00000000
_symmetry_Int_Tables_number   1
_chemical_formula_structural   PrU2S5
_chemical_formula_sum   'Pr4 U8 S20'
_cell_volume   707.30326879
_cell_formula_units_Z   4
loop_
 _symmetry_equiv_pos_site_id
 _symmetry_equiv_pos_as_xyz
  1  'x, y, z'
loop_
 _atom_site_type_symbol
 _atom_site_label
 _atom_site_symmetry_multiplicity
 _atom_site_fract_x
 _atom_site_fract_y
 _atom_site_fract_z
 _atom_site_occupancy
  Pr  Pr0  1  0.02497400  0.49953000  0.82294400  1
  Pr  Pr1  1  0.97502600  0.99953000  0.17705600  1
  Pr  Pr2  1  0.52497400  0.99953000  0.67705600  1
  Pr  Pr3  1  0.47502600  0.49953000  0.32294400  1
  U  U0  1  0.57462900  0.24977800  0.99226800  1
  U  U1  1  0.92537100  0.24977800  0.49226800  1
  U  U2  1  0.42537100  0.74977800  0.00773200  1
  U  U3  1  0.07462900  0.74977800  0.50773200  1
  U  U4  1  0.48022000  0.00146300  0.31981300  1
  U  U5  1  0.51978000  0.50146300  0.68018700  1
  U  U6  1  0.98022000  0.50146300  0.18018700  1
  U  U7  1  0.01978000  0.00146300  0.81981300  1
  S  S0  1  0.34488400  0.04217800  0.09929800  1
  S  S1  1  0.17108500  0.45490400  0.59363600  1
  S  S2  1  0.65511600  0.54217800  0.90070200  1
  S  S3  1  0.82891500  0.95490400  0.40636400  1
  S  S4  1  0.67108500  0.95490400  0.90636400  1
  S  S5  1  0.84488400  0.54217800  0.40070200  1
  S  S6  1  0.32891500  0.45490400  0.09363600  1
  S  S7  1  0.15511600  0.04217800  0.59929800  1
  S  S8  1  0.69911900  0.25094300  0.21555700  1
  S  S9  1  0.80088100  0.25094300  0.71555700  1
  S  S10  1  0.30088100  0.75094300  0.78444300  1
  S  S11  1  0.19911900  0.75094300  0.28444300  1
  S  S12  1  0.33033600  0.24960200  0.81294000  1
  S  S13  1  0.16966400  0.24960200  0.31294000  1
  S  S14  1  0.66966400  0.74960200  0.18706000  1
  S  S15  1  0.83033600  0.74960200  0.68706000  1
  S  S16  1  0.95861000  0.25160200  0.99884700  1
  S  S17  1  0.54139000  0.25160200  0.49884700  1
  S  S18  1  0.04139000  0.75160200  0.00115300  1
  S  S19  1  0.45861000  0.75160200  0.50115300  1
loop_
_geom_bond_atom_site_label_1
_geom_bond_atom_site_label_2
_geom_bond_distance
_geom_bond_site_symmetry_2
Pr0 S9 2.895804 1_455
Pr0 S10 2.917616 1_555
Pr0 S16 2.920667 1_455
Pr0 S18 2.923753 1_556
Pr0 S2 2.925623 1_455
Pr0 S1 2.942158 1_555
Pr0 S15 2.952359 1_455
Pr0 S12 3.036837 1_555
Pr1 S11 2.895804 1_655
Pr1 S8 2.917616 1_565
Pr1 S18 2.920667 1_655
Pr1 S16 2.923753 1_564
Pr1 S0 2.925623 1_665
Pr1 S3 2.942158 1_555
Pr1 S13 2.952359 1_665
Pr1 S14 3.036837 1_555
Pr2 S10 2.895804 1_555
Pr2 S9 2.917616 1_565
Pr2 S19 2.920667 1_555
Pr2 S17 2.923753 1_565
Pr2 S7 2.925623 1_565
Pr2 S4 2.942158 1_555
Pr2 S12 2.952359 1_565
Pr2 S15 3.036837 1_555
Pr3 S8 2.895804 1_555
Pr3 S11 2.917616 1_555
Pr3 S17 2.920667 1_555
Pr3 S19 2.923753 1_555
Pr3 S5 2.925623 1_555
Pr3 S6 2.942158 1_555
Pr3 S14 2.952359 1_555
Pr3 S13 3.036837 1_555
S0 U2 2.654402 1_545
S0 U0 2.703941 1_554
S0 U4 2.813192 1_555
S1 U3 2.675108 1_555
S1 U1 2.739046 1_455
S1 U5 2.817609 1_555
S2 U0 2.654402 1_555
S2 U2 2.703941 1_556
S2 U5 2.813192 1_555
S3 U1 2.675108 1_565
S3 U3 2.739046 1_655
S3 U4 2.817609 1_565
S4 U0 2.675108 1_565
S4 U2 2.739046 1_556
S4 U7 2.817609 1_665
S5 U1 2.654402 1_555
S5 U3 2.703941 1_655
S5 U6 2.813192 1_555
S6 U2 2.675108 1_555
S6 U0 2.739046 1_554
S6 U6 2.817609 1_455
S7 U3 2.654402 1_545
S7 U1 2.703941 1_455
S7 U7 2.813192 1_555
S8 U0 2.796888 1_554
S8 U4 2.862526 1_555
S8 U6 2.934613 1_555
S9 U1 2.796888 1_555
S9 U7 2.862526 1_655
S9 U5 2.934613 1_555
S10 U2 2.796888 1_556
S10 U5 2.862526 1_555
S10 U7 2.934613 1_565
S11 U3 2.796888 1_555
S11 U6 2.862526 1_455
S11 U4 2.934613 1_565
S12 U0 2.793736 1_555
S12 U5 2.923372 1_555
S12 U7 3.055356 1_555
S13 U1 2.793736 1_455
S13 U6 2.923372 1_455
S13 U4 3.055356 1_555
S14 U2 2.793736 1_555
S14 U4 2.923372 1_565
S14 U6 3.055356 1_555
S15 U3 2.793736 1_655
S15 U7 2.923372 1_665
S15 U5 3.055356 1_555
S16 U0 2.862735 1_555
S16 U6 2.940222 1_556
S16 U7 2.952917 1_655
S17 U1 2.862735 1_555
S17 U5 2.940222 1_555
S17 U4 2.952917 1_555
S18 U2 2.862735 1_555
S18 U7 2.940222 1_564
S18 U6 2.952917 1_455
S19 U3 2.862735 1_555
S19 U4 2.940222 1_565
S19 U5 2.952917 1_555
