# generated using pymatgen
data_CuH2CS2N
_symmetry_space_group_name_H-M   'P 1'
_cell_length_a   5.96138500
_cell_length_b   6.81324500
_cell_length_c   9.61126800
_cell_angle_alpha   90.00000000
_cell_angle_beta   90.00000000
_cell_angle_gamma   90.00000000
_symmetry_Int_Tables_number   1
_chemical_formula_structural   CuH2CS2N
_chemical_formula_sum   'Cu4 H8 C4 S8 N4'
_cell_volume   390.37488016
_cell_formula_units_Z   4
loop_
 _symmetry_equiv_pos_site_id
 _symmetry_equiv_pos_as_xyz
  1  'x, y, z'
loop_
 _atom_site_type_symbol
 _atom_site_label
 _atom_site_symmetry_multiplicity
 _atom_site_fract_x
 _atom_site_fract_y
 _atom_site_fract_z
 _atom_site_occupancy
  Cu  Cu0  1  0.09368000  0.74005900  0.63009400  1
  Cu  Cu1  1  0.40632000  0.25994100  0.13009400  1
  Cu  Cu2  1  0.59368000  0.75994100  0.36990600  1
  Cu  Cu3  1  0.90632000  0.24005900  0.86990600  1
  H  H0  1  0.34250700  0.87055800  0.83970300  1
  H  H1  1  0.15749300  0.12944200  0.33970300  1
  H  H2  1  0.84250700  0.62944200  0.16029700  1
  H  H3  1  0.65749300  0.37055800  0.66029700  1
  H  H4  1  0.59910500  0.94574300  0.91111600  1
  H  H5  1  0.90089500  0.05425700  0.41111600  1
  H  H6  1  0.09910500  0.55425700  0.08888400  1
  H  H7  1  0.40089500  0.44574300  0.58888400  1
  C  C0  1  0.58656300  0.93826100  0.69751200  1
  C  C1  1  0.91343700  0.06173900  0.19751200  1
  C  C2  1  0.08656300  0.56173900  0.30248800  1
  C  C3  1  0.41343700  0.43826100  0.80248800  1
  S  S0  1  0.41377900  0.89183200  0.55769100  1
  S  S1  1  0.08622100  0.10816800  0.05769100  1
  S  S2  1  0.91377900  0.60816800  0.44230900  1
  S  S3  1  0.58622100  0.39183200  0.94230900  1
  S  S4  1  0.13947100  0.52239900  0.82128900  1
  S  S5  1  0.36052900  0.47760100  0.32128900  1
  S  S6  1  0.63947100  0.97760100  0.17871100  1
  S  S7  1  0.86052900  0.02239900  0.67871100  1
  N  N0  1  0.50343300  0.91846800  0.82512700  1
  N  N1  1  0.99656700  0.08153200  0.32512700  1
  N  N2  1  0.00343300  0.58153200  0.17487300  1
  N  N3  1  0.49656700  0.41846800  0.67487300  1
loop_
_geom_bond_atom_site_label_1
_geom_bond_atom_site_label_2
_geom_bond_distance
_geom_bond_site_symmetry_2
Cu0 S0 2.279233 1_555
Cu0 S2 2.283671 1_455
Cu0 S4 2.377097 1_555
Cu0 S7 2.418803 1_465
Cu1 S1 2.279233 1_555
Cu1 S3 2.283671 1_554
Cu1 S5 2.377097 1_555
Cu1 S6 2.418803 1_545
Cu2 S2 2.279233 1_555
Cu2 S0 2.283671 1_555
Cu2 S6 2.377097 1_555
Cu2 S5 2.418803 1_555
Cu3 S3 2.279233 1_555
Cu3 S1 2.283671 1_656
Cu3 S7 2.377097 1_555
Cu3 S4 2.418803 1_655
H0 N0 1.022993 1_555
H1 N1 1.022993 1_455
H2 N2 1.022993 1_655
H3 N3 1.022993 1_555
H4 N0 1.021205 1_555
H5 N1 1.021205 1_555
H6 N2 1.021205 1_555
H7 N3 1.021205 1_555
C0 N0 1.329729 1_555
C0 S0 1.722493 1_555
C0 S7 1.740307 1_565
C1 N1 1.329729 1_555
C1 S1 1.722493 1_655
C1 S6 1.740307 1_545
C2 N2 1.329729 1_555
C2 S2 1.722493 1_455
C2 S5 1.740307 1_555
C3 N3 1.329729 1_555
C3 S3 1.722493 1_555
C3 S4 1.740307 1_555
