# generated using pymatgen
data_K2CoP2(H3O4)2
_symmetry_space_group_name_H-M   'P 1'
_cell_length_a   5.36635308
_cell_length_b   6.95464740
_cell_length_c   13.80908309
_cell_angle_alpha   85.22461936
_cell_angle_beta   78.79720741
_cell_angle_gamma   67.28579546
_symmetry_Int_Tables_number   1
_chemical_formula_structural   K2CoP2(H3O4)2
_chemical_formula_sum   'K4 Co2 P4 H12 O16'
_cell_volume   466.32151239
_cell_formula_units_Z   2
loop_
 _symmetry_equiv_pos_site_id
 _symmetry_equiv_pos_as_xyz
  1  'x, y, z'
loop_
 _atom_site_type_symbol
 _atom_site_label
 _atom_site_symmetry_multiplicity
 _atom_site_fract_x
 _atom_site_fract_y
 _atom_site_fract_z
 _atom_site_occupancy
  K  K0  1  0.16520700  0.31203400  0.35736200  1
  K  K1  1  0.16518200  0.81202600  0.85741900  1
  K  K2  1  0.83482600  0.18797900  0.14264000  1
  K  K3  1  0.83482000  0.68792400  0.64258900  1
  Co  Co0  1  0.49999800  0.24999900  0.75000000  1
  Co  Co1  1  0.49999900  0.75000100  0.25000000  1
  P  P0  1  0.14551500  0.57871300  0.13048500  1
  P  P1  1  0.14550200  0.07872500  0.63045900  1
  P  P2  1  0.85447800  0.92128100  0.36950400  1
  P  P3  1  0.85449700  0.42128000  0.86954900  1
  H  H0  1  0.26257000  0.41546500  0.05975400  1
  H  H1  1  0.26252000  0.91540500  0.55979600  1
  H  H2  1  0.73742700  0.08453300  0.44024400  1
  H  H3  1  0.73747700  0.58459500  0.94020700  1
  H  H4  1  0.67762800  0.86592300  0.07789200  1
  H  H5  1  0.67774600  0.36588900  0.57787100  1
  H  H6  1  0.37814300  0.86579200  0.07791100  1
  H  H7  1  0.37825900  0.36575800  0.57787000  1
  H  H8  1  0.32237400  0.63407400  0.42210900  1
  H  H9  1  0.32224600  0.13411600  0.92213100  1
  H  H10  1  0.62186000  0.63420700  0.42209200  1
  H  H11  1  0.62174200  0.13425000  0.92213300  1
  O  O0  1  0.07343300  0.78321800  0.06991400  1
  O  O1  1  0.07343900  0.28332200  0.56987800  1
  O  O2  1  0.92658500  0.71678400  0.43008600  1
  O  O3  1  0.92655900  0.21667600  0.93012100  1
  O  O4  1  0.48228200  0.92486500  0.11002000  1
  O  O5  1  0.48237200  0.42489000  0.60994600  1
  O  O6  1  0.51772600  0.57512200  0.38998600  1
  O  O7  1  0.51761600  0.07514200  0.89004900  1
  O  O8  1  0.37034200  0.54190900  0.19226700  1
  O  O9  1  0.37017400  0.04181700  0.69228500  1
  O  O10  1  0.89576100  0.54192500  0.19226600  1
  O  O11  1  0.89590200  0.04191400  0.69229400  1
  O  O12  1  0.62969600  0.95809900  0.30770000  1
  O  O13  1  0.62978800  0.45817400  0.80774100  1
  O  O14  1  0.10421500  0.95808000  0.30771500  1
  O  O15  1  0.10409400  0.45809600  0.80771400  1
loop_
_geom_bond_atom_site_label_1
_geom_bond_atom_site_label_2
_geom_bond_distance
_geom_bond_site_symmetry_2
K0 O12 2.760601 1_545
K0 O14 2.761729 1_545
K0 O2 2.785535 1_455
K0 O1 2.882948 1_555
K0 O10 2.955204 1_455
K0 O8 2.956736 1_555
K1 O13 2.760629 1_555
K1 O15 2.762109 1_555
K1 O3 2.784826 1_465
K1 O0 2.882698 1_556
K1 O11 2.955144 1_465
K1 O9 2.956395 1_565
K2 O8 2.760497 1_555
K2 O10 2.761419 1_555
K2 O0 2.785610 1_645
K2 O3 2.882983 1_554
K2 O14 2.954850 1_645
K2 O12 2.956431 1_545
K3 O9 2.760936 1_565
K3 O11 2.762492 1_565
K3 O1 2.784582 1_655
K3 O2 2.882824 1_555
K3 O15 2.955010 1_655
K3 O13 2.956474 1_555
Co0 O11 2.098283 1_555
Co0 O15 2.098337 1_555
Co0 O9 2.098482 1_555
Co0 O13 2.098498 1_555
Co0 O7 2.195131 1_555
Co0 O5 2.195299 1_555
Co1 O12 2.097423 1_555
Co1 O8 2.097472 1_555
Co1 O10 2.097843 1_555
Co1 O14 2.097866 1_555
Co1 O4 2.194350 1_555
Co1 O6 2.194468 1_555
H0 P0 1.425847 1_555
H1 P1 1.425564 1_565
H2 P2 1.425949 1_545
H3 P3 1.425494 1_555
H4 O4 0.990706 1_555
H5 O5 0.990643 1_555
H6 O4 0.990763 1_555
H7 O5 0.990655 1_555
H8 O6 0.990716 1_555
H9 O7 0.990644 1_555
H10 O6 0.990773 1_555
H11 O7 0.990665 1_555
O0 P0 1.541054 1_555
O1 P1 1.541624 1_555
O2 P2 1.541088 1_555
O3 P3 1.541598 1_555
O8 P0 1.540826 1_555
O9 P1 1.540427 1_555
O10 P0 1.540713 1_655
O11 P1 1.540380 1_655
O12 P2 1.540818 1_555
O13 P3 1.540437 1_555
O14 P2 1.540714 1_455
O15 P3 1.540383 1_455
