# generated using pymatgen
data_Cu3Sb4(OF)6
_symmetry_space_group_name_H-M   'P 1'
_cell_length_a   7.07162570
_cell_length_b   7.07162570
_cell_length_c   7.07162570
_cell_angle_alpha   109.47122063
_cell_angle_beta   109.47122063
_cell_angle_gamma   109.47122063
_symmetry_Int_Tables_number   1
_chemical_formula_structural   Cu3Sb4(OF)6
_chemical_formula_sum   'Cu3 Sb4 O6 F6'
_cell_volume   272.22995113
_cell_formula_units_Z   1
loop_
 _symmetry_equiv_pos_site_id
 _symmetry_equiv_pos_as_xyz
  1  'x, y, z'
loop_
 _atom_site_type_symbol
 _atom_site_label
 _atom_site_symmetry_multiplicity
 _atom_site_fract_x
 _atom_site_fract_y
 _atom_site_fract_z
 _atom_site_occupancy
  Cu  Cu0  1  0.50000000  0.50000000  0.00000000  1
  Cu  Cu1  1  0.50000000  0.00000000  0.50000000  1
  Cu  Cu2  1  0.00000000  0.50000000  0.50000000  1
  Sb  Sb0  1  0.67272600  0.67272600  0.67272600  1
  Sb  Sb1  1  0.32727400  0.00000000  0.00000000  1
  Sb  Sb2  1  0.00000000  0.32727400  0.00000000  1
  Sb  Sb3  1  0.00000000  0.00000000  0.32727400  1
  O  O0  1  0.74664500  0.74664500  0.00000000  1
  O  O1  1  0.25335500  0.00000000  0.25335500  1
  O  O2  1  0.00000000  0.25335500  0.25335500  1
  O  O3  1  0.25335500  0.25335500  0.00000000  1
  O  O4  1  0.74664500  0.00000000  0.74664500  1
  O  O5  1  0.00000000  0.74664500  0.74664500  1
  F  F0  1  0.50000000  0.25000000  0.75000000  1
  F  F1  1  0.75000000  0.25000000  0.50000000  1
  F  F2  1  0.75000000  0.50000000  0.25000000  1
  F  F3  1  0.50000000  0.75000000  0.25000000  1
  F  F4  1  0.25000000  0.50000000  0.75000000  1
  F  F5  1  0.25000000  0.75000000  0.50000000  1
loop_
_geom_bond_atom_site_label_1
_geom_bond_atom_site_label_2
_geom_bond_distance
_geom_bond_site_symmetry_2
Cu0 O0 2.014007 1_555
Cu0 O3 2.014007 1_555
Cu0 F3 2.041402 1_555
Cu0 F2 2.041402 1_555
Cu0 F0 2.041402 1_554
Cu0 F4 2.041402 1_554
Cu1 O4 2.014007 1_555
Cu1 O1 2.014007 1_555
Cu1 F0 2.041402 1_555
Cu1 F5 2.041402 1_545
Cu1 F1 2.041402 1_555
Cu1 F3 2.041402 1_545
Cu2 O5 2.014007 1_555
Cu2 O2 2.014007 1_555
Cu2 F1 2.041402 1_455
Cu2 F4 2.041402 1_555
Cu2 F5 2.041402 1_555
Cu2 F2 2.041402 1_455
O0 Sb3 2.026708 1_665
O0 Sb0 2.026708 1_554
O1 Sb1 2.026708 1_555
O1 Sb3 2.026708 1_555
O2 Sb2 2.026708 1_555
O2 Sb3 2.026708 1_555
O3 Sb1 2.026708 1_555
O3 Sb2 2.026708 1_555
O4 Sb0 2.026708 1_545
O4 Sb2 2.026708 1_656
O5 Sb0 2.026708 1_455
O5 Sb1 2.026708 1_566
