# generated using pymatgen
data_Sr(AuO4)2
_symmetry_space_group_name_H-M   'P 1'
_cell_length_a   4.85784600
_cell_length_b   4.85784600
_cell_length_c   7.45003749
_cell_angle_alpha   109.02787728
_cell_angle_beta   109.02787728
_cell_angle_gamma   90.00000000
_symmetry_Int_Tables_number   1
_chemical_formula_structural   Sr(AuO4)2
_chemical_formula_sum   'Sr1 Au2 O8'
_cell_volume   156.00796072
_cell_formula_units_Z   1
loop_
 _symmetry_equiv_pos_site_id
 _symmetry_equiv_pos_as_xyz
  1  'x, y, z'
loop_
 _atom_site_type_symbol
 _atom_site_label
 _atom_site_symmetry_multiplicity
 _atom_site_fract_x
 _atom_site_fract_y
 _atom_site_fract_z
 _atom_site_occupancy
  Sr  Sr0  1  0.50000000  0.50000000  0.00000000  1
  Au  Au0  1  0.85666100  0.85666100  0.71332200  1
  Au  Au1  1  0.14333900  0.14333900  0.28667800  1
  O  O0  1  0.98447500  0.46110700  0.73814500  1
  O  O1  1  0.75367100  0.27703900  0.73814500  1
  O  O2  1  0.24632900  0.53889300  0.26185500  1
  O  O3  1  0.01552500  0.72296100  0.26185500  1
  O  O4  1  0.72296100  0.24632900  0.26185500  1
  O  O5  1  0.53889300  0.01552500  0.26185500  1
  O  O6  1  0.27703900  0.98447500  0.73814500  1
  O  O7  1  0.46110700  0.75367100  0.73814500  1
loop_
_geom_bond_atom_site_label_1
_geom_bond_atom_site_label_2
_geom_bond_distance
_geom_bond_site_symmetry_2
Au0 O7 2.066124 1_555
Au0 O0 2.066125 1_555
Au0 O1 2.066129 1_565
Au0 O6 2.066130 1_655
Au1 O2 2.066124 1_555
Au1 O5 2.066125 1_555
Au1 O4 2.066129 1_455
Au1 O3 2.066130 1_545
O0 O1 1.434106 1_555
O0 Sr0 2.585957 1_656
O1 Sr0 2.585959 1_556
O2 O3 1.434106 1_555
O2 Sr0 2.585960 1_555
O3 Sr0 2.585956 1_455
O4 O5 1.434106 1_555
O4 Sr0 2.585959 1_555
O5 Sr0 2.585957 1_545
O6 O7 1.434106 1_555
O6 Sr0 2.585956 1_566
O7 Sr0 2.585960 1_556
