# generated using pymatgen
data_W2N3
_symmetry_space_group_name_H-M   'P 1'
_cell_length_a   4.97982454
_cell_length_b   4.97982629
_cell_length_c   5.35252117
_cell_angle_alpha   80.90237471
_cell_angle_beta   99.09763814
_cell_angle_gamma   60.31292888
_symmetry_Int_Tables_number   1
_chemical_formula_structural   W2N3
_chemical_formula_sum   'W4 N6'
_cell_volume   109.45224339
_cell_formula_units_Z   2
loop_
 _symmetry_equiv_pos_site_id
 _symmetry_equiv_pos_as_xyz
  1  'x, y, z'
loop_
 _atom_site_type_symbol
 _atom_site_label
 _atom_site_symmetry_multiplicity
 _atom_site_fract_x
 _atom_site_fract_y
 _atom_site_fract_z
 _atom_site_occupancy
  W  W0  1  0.66029071  0.66930990  0.99092760  1
  W  W1  1  0.34415230  0.32251370  0.01571485  1
  W  W2  1  0.99735710  0.00637629  0.99092760  1
  W  W3  1  0.15850550  0.50816050  0.47860877  1
  N  N0  1  0.76048029  0.90618571  0.25013505  1
  N  N1  1  0.41165297  0.58801598  0.25286877  1
  N  N2  1  0.07865102  0.25501403  0.25286877  1
  N  N3  1  0.24710446  0.73587042  0.74943865  1
  N  N4  1  0.57034007  0.09632593  0.74707131  1
  N  N5  1  0.93079658  0.41956254  0.74943865  1
loop_
_geom_bond_atom_site_label_1
_geom_bond_atom_site_label_2
_geom_bond_distance
_geom_bond_site_symmetry_2
N0 W3 1.982014 1_655
N0 W1 2.065946 1_565
N0 W0 2.108768 1_554
N0 W2 2.108774 1_564
N1 W3 2.008373 1_555
N1 W1 2.075672 1_555
N1 W2 2.113444 1_464
N1 W0 2.128068 1_554
N2 W3 2.008367 1_555
N2 W1 2.075666 1_555
N2 W0 2.113444 1_454
N2 W2 2.128068 1_454
N3 W0 2.088593 1_555
N3 W1 2.090722 1_556
N3 W3 2.096441 1_555
N3 W2 2.105150 1_465
N4 W1 2.091107 1_556
N4 W0 2.102392 1_545
N4 W2 2.102397 1_555
N4 W3 2.108754 1_555
N5 W2 2.088594 1_555
N5 W1 2.090716 1_656
N5 W3 2.096435 1_655
N5 W0 2.105150 1_555
