# generated using pymatgen
data_Sc3NbO7
_symmetry_space_group_name_H-M   'P 1'
_cell_length_a   5.20799000
_cell_length_b   7.03953600
_cell_length_c   7.94809329
_cell_angle_alpha   64.77379002
_cell_angle_beta   90.00000000
_cell_angle_gamma   90.00000000
_symmetry_Int_Tables_number   1
_chemical_formula_structural   Sc3NbO7
_chemical_formula_sum   'Sc6 Nb2 O14'
_cell_volume   263.60228278
_cell_formula_units_Z   2
loop_
 _symmetry_equiv_pos_site_id
 _symmetry_equiv_pos_as_xyz
  1  'x, y, z'
loop_
 _atom_site_type_symbol
 _atom_site_label
 _atom_site_symmetry_multiplicity
 _atom_site_fract_x
 _atom_site_fract_y
 _atom_site_fract_z
 _atom_site_occupancy
  Sc  Sc0  1  0.00000000  0.00000000  0.00000000  1
  Sc  Sc1  1  0.00000000  0.50000000  0.00000000  1
  Sc  Sc2  1  0.45720400  0.59158300  0.22204900  1
  Sc  Sc3  1  0.54279600  0.09158300  0.22204900  1
  Sc  Sc4  1  0.45720400  0.90841700  0.77795100  1
  Sc  Sc5  1  0.54279600  0.40841700  0.77795100  1
  Nb  Nb0  1  0.01742600  0.75000000  0.50000000  1
  Nb  Nb1  1  0.98257400  0.25000000  0.50000000  1
  O  O0  1  0.20751000  0.75000000  0.00000000  1
  O  O1  1  0.68441500  0.84483400  0.14893300  1
  O  O2  1  0.79249000  0.25000000  0.00000000  1
  O  O3  1  0.23555600  0.03457500  0.53417000  1
  O  O4  1  0.79026800  0.38798400  0.26963500  1
  O  O5  1  0.31558500  0.34483400  0.14893300  1
  O  O6  1  0.79026800  0.11201600  0.73036500  1
  O  O7  1  0.23555600  0.46542500  0.46583000  1
  O  O8  1  0.76444400  0.53457500  0.53417000  1
  O  O9  1  0.20973200  0.88798400  0.26963500  1
  O  O10  1  0.68441500  0.65516600  0.85106700  1
  O  O11  1  0.20973200  0.61201600  0.73036500  1
  O  O12  1  0.76444400  0.96542500  0.46583000  1
  O  O13  1  0.31558500  0.15516600  0.85106700  1
loop_
_geom_bond_atom_site_label_1
_geom_bond_atom_site_label_2
_geom_bond_distance
_geom_bond_site_symmetry_2
Nb0 O8 1.938640 1_455
Nb0 O12 1.938640 1_455
Nb0 O9 1.945000 1_555
Nb0 O11 1.945000 1_555
Nb0 O7 2.416850 1_555
Nb0 O3 2.416850 1_565
Nb1 O7 1.938640 1_655
Nb1 O3 1.938640 1_655
Nb1 O4 1.945000 1_555
Nb1 O6 1.945000 1_555
Nb1 O12 2.416850 1_545
Nb1 O8 2.416850 1_555
O0 Sc1 2.065218 1_555
O0 Sc0 2.065218 1_565
O0 Sc2 2.090888 1_555
O0 Sc4 2.090888 1_554
O1 Sc2 2.008262 1_555
O1 Sc0 2.047807 1_665
O1 Sc3 2.181578 1_565
O2 Sc1 2.065218 1_655
O2 Sc0 2.065218 1_655
O2 Sc3 2.090888 1_555
O2 Sc5 2.090888 1_554
O3 Sc4 2.099697 1_545
O4 Sc2 2.178070 1_555
O4 Sc1 2.228729 1_655
O4 Sc3 2.613502 1_555
O5 Sc3 2.008262 1_555
O5 Sc1 2.047807 1_555
O5 Sc2 2.181578 1_555
O6 Sc4 2.178070 1_545
O6 Sc0 2.228729 1_656
O6 Sc5 2.613502 1_555
O7 Sc2 2.099697 1_555
O8 Sc5 2.099697 1_555
O9 Sc3 2.178070 1_565
O9 Sc0 2.228729 1_565
O9 Sc2 2.613502 1_555
O10 Sc4 2.008262 1_555
O10 Sc1 2.047807 1_656
O10 Sc5 2.181578 1_555
O11 Sc5 2.178070 1_555
O11 Sc1 2.228729 1_556
O11 Sc4 2.613502 1_555
O12 Sc3 2.099697 1_565
O13 Sc5 2.008262 1_555
O13 Sc0 2.047807 1_556
O13 Sc4 2.181578 1_545
