# generated using pymatgen
data_HfAlRh
_symmetry_space_group_name_H-M   'P 1'
_cell_length_a   5.30422139
_cell_length_b   5.30422139
_cell_length_c   8.21768200
_cell_angle_alpha   90.00000000
_cell_angle_beta   90.00000000
_cell_angle_gamma   119.35556133
_symmetry_Int_Tables_number   1
_chemical_formula_structural   HfAlRh
_chemical_formula_sum   'Hf4 Al4 Rh4'
_cell_volume   201.51482192
_cell_formula_units_Z   4
loop_
 _symmetry_equiv_pos_site_id
 _symmetry_equiv_pos_as_xyz
  1  'x, y, z'
loop_
 _atom_site_type_symbol
 _atom_site_label
 _atom_site_symmetry_multiplicity
 _atom_site_fract_x
 _atom_site_fract_y
 _atom_site_fract_z
 _atom_site_occupancy
  Hf  Hf0  1  0.33406400  0.66593600  0.21017100  1
  Hf  Hf1  1  0.66967400  0.33032600  0.32040600  1
  Hf  Hf2  1  0.66967400  0.33032600  0.67959400  1
  Hf  Hf3  1  0.33406400  0.66593600  0.78982900  1
  Al  Al0  1  0.99550500  0.00449500  0.25608600  1
  Al  Al1  1  0.99550500  0.00449500  0.74391400  1
  Al  Al2  1  0.82927500  0.65490800  0.00000000  1
  Al  Al3  1  0.34509200  0.17072500  0.00000000  1
  Rh  Rh0  1  0.83010700  0.16989300  0.00000000  1
  Rh  Rh1  1  0.16870200  0.33841000  0.50000000  1
  Rh  Rh2  1  0.66159000  0.83129800  0.50000000  1
  Rh  Rh3  1  0.16675800  0.83324200  0.50000000  1
loop_
_geom_bond_atom_site_label_1
_geom_bond_atom_site_label_2
_geom_bond_distance
_geom_bond_site_symmetry_2
Hf0 Rh2 2.822417 1_555
Hf0 Rh1 2.822417 1_555
Hf0 Rh3 2.831925 1_555
Hf0 Rh0 3.186755 1_455
Hf0 Rh0 3.186755 1_565
Hf0 Hf1 3.202789 1_565
Hf0 Hf1 3.202789 1_455
Hf0 Hf1 3.203978 1_555
Hf1 Hf2 2.951693 1_555
Hf1 Rh1 3.012482 1_655
Hf1 Rh2 3.012482 1_545
Hf1 Rh0 3.015123 1_555
Hf1 Rh3 3.057776 1_545
Hf1 Rh3 3.057776 1_655
Hf1 Rh2 3.058225 1_555
Hf1 Rh1 3.058225 1_555
Hf2 Rh1 3.012482 1_655
Hf2 Rh2 3.012482 1_545
Hf2 Rh0 3.015123 1_556
Hf2 Rh3 3.057776 1_655
Hf2 Rh3 3.057776 1_545
Hf2 Rh2 3.058225 1_555
Hf2 Rh1 3.058225 1_555
Hf2 Hf3 3.202789 1_545
Hf2 Hf3 3.202789 1_655
Hf2 Hf3 3.203978 1_555
Hf3 Rh2 2.822417 1_555
Hf3 Rh1 2.822417 1_555
Hf3 Rh3 2.831925 1_555
Hf3 Rh0 3.186755 1_456
Hf3 Rh0 3.186755 1_566
Al0 Rh2 2.530474 1_545
Al0 Rh1 2.530474 1_655
Al0 Rh3 2.544975 1_645
Al0 Rh0 2.592798 1_555
Al0 Al2 2.653571 1_545
Al0 Al3 2.653571 1_655
Al0 Hf1 3.030157 1_555
Al0 Hf1 3.161368 1_545
Al0 Hf1 3.161368 1_655
Al1 Rh2 2.530474 1_545
Al1 Rh1 2.530474 1_655
Al1 Rh3 2.544975 1_645
Al1 Rh0 2.592798 1_556
Al1 Al3 2.653571 1_656
Al1 Al2 2.653571 1_546
Al1 Hf2 3.030157 1_555
Al1 Hf2 3.161368 1_545
Al1 Hf2 3.161368 1_655
Al2 Rh0 2.574793 1_555
Al2 Al3 2.593189 1_555
Al2 Rh0 2.729434 1_565
Al2 Al3 2.762615 1_665
Al2 Hf2 3.030581 1_554
Al2 Hf1 3.030581 1_555
Al2 Hf0 3.162574 1_655
Al2 Hf3 3.162574 1_654
Al2 Hf3 3.168060 1_554
Al2 Hf0 3.168060 1_555
Al3 Rh0 2.574793 1_555
Al3 Rh0 2.729434 1_455
Al3 Hf2 3.030581 1_554
Al3 Hf1 3.030581 1_555
Al3 Hf3 3.162574 1_544
Al3 Hf0 3.162574 1_545
Al3 Hf3 3.168060 1_554
Al3 Hf0 3.168060 1_555
Rh1 Rh3 2.629769 1_555
Rh1 Rh2 2.639812 1_555
Rh1 Rh3 2.674483 1_545
Rh1 Rh2 2.715992 1_445
Rh2 Rh3 2.629769 1_555
Rh2 Rh3 2.674483 1_655
