# generated using pymatgen
data_Ba5NbIr4O15
_symmetry_space_group_name_H-M   'P 1'
_cell_length_a   10.12934900
_cell_length_b   11.79973505
_cell_length_c   13.16982334
_cell_angle_alpha   103.65576593
_cell_angle_beta   97.36368857
_cell_angle_gamma   106.62421076
_symmetry_Int_Tables_number   1
_chemical_formula_structural   Ba5NbIr4O15
_chemical_formula_sum   'Ba20 Nb4 Ir16 O60'
_cell_volume   1432.93087931
_cell_formula_units_Z   4
loop_
 _symmetry_equiv_pos_site_id
 _symmetry_equiv_pos_as_xyz
  1  'x, y, z'
loop_
 _atom_site_type_symbol
 _atom_site_label
 _atom_site_symmetry_multiplicity
 _atom_site_fract_x
 _atom_site_fract_y
 _atom_site_fract_z
 _atom_site_occupancy
  Ba  Ba0  1  0.51468000  0.31516800  0.45696200  1
  Ba  Ba1  1  0.31135100  0.91592200  0.05605100  1
  Ba  Ba2  1  0.11450900  0.51465300  0.65650600  1
  Ba  Ba3  1  0.91504300  0.11353700  0.25436800  1
  Ba  Ba4  1  0.71696100  0.71743200  0.85827700  1
  Ba  Ba5  1  0.88549100  0.48534700  0.34349400  1
  Ba  Ba6  1  0.68864900  0.08407800  0.94394900  1
  Ba  Ba7  1  0.48532000  0.68483200  0.54303800  1
  Ba  Ba8  1  0.28303900  0.28256800  0.14172300  1
  Ba  Ba9  1  0.08495700  0.88646300  0.74563200  1
  Ba  Ba10  1  0.45091600  0.03145800  0.64587500  1
  Ba  Ba11  1  0.25186700  0.63159600  0.24581200  1
  Ba  Ba12  1  0.05103600  0.22861700  0.84731800  1
  Ba  Ba13  1  0.85207400  0.83159900  0.44533100  1
  Ba  Ba14  1  0.65089900  0.43182500  0.04562400  1
  Ba  Ba15  1  0.94896400  0.77138300  0.15268200  1
  Ba  Ba16  1  0.74813300  0.36840400  0.75418800  1
  Ba  Ba17  1  0.54908400  0.96854200  0.35412500  1
  Ba  Ba18  1  0.34910100  0.56817500  0.95437600  1
  Ba  Ba19  1  0.14792600  0.16840100  0.55466900  1
  Nb  Nb0  1  0.59999700  0.20010000  0.20008300  1
  Nb  Nb1  1  0.19997300  0.39997300  0.40007000  1
  Nb  Nb2  1  0.80002700  0.60002700  0.59993000  1
  Nb  Nb3  1  0.40000300  0.79990000  0.79991700  1
  Ir  Ir0  1  0.16490000  0.74172900  0.50573400  1
  Ir  Ir1  1  0.96466100  0.34122000  0.10571800  1
  Ir  Ir2  1  0.76480200  0.94158900  0.70572900  1
  Ir  Ir3  1  0.56460600  0.54137200  0.30562300  1
  Ir  Ir4  1  0.36504600  0.14165900  0.90556900  1
  Ir  Ir5  1  0.23519800  0.05841100  0.29427100  1
  Ir  Ir6  1  0.03533900  0.65878000  0.89428200  1
  Ir  Ir7  1  0.83510000  0.25827100  0.49426600  1
  Ir  Ir8  1  0.63495400  0.85834100  0.09443100  1
  Ir  Ir9  1  0.43539400  0.45862800  0.69437700  1
  Ir  Ir10  1  0.20001000  0.89974100  0.40004100  1
  Ir  Ir11  1  0.00000000  0.50000000  0.00000000  1
  Ir  Ir12  1  0.79999000  0.10025900  0.59995900  1
  Ir  Ir13  1  0.60012300  0.70012300  0.19995700  1
  Ir  Ir14  1  0.39987700  0.29987700  0.80004300  1
  Ir  Ir15  1  0.00000000  0.00000000  0.00000000  1
  O  O0  1  0.34217200  0.82087100  0.45289000  1
  O  O1  1  0.14167700  0.42098800  0.05320700  1
  O  O2  1  0.94149800  0.02059200  0.65257800  1
  O  O3  1  0.74185900  0.62080100  0.25267900  1
  O  O4  1  0.54047800  0.21982000  0.85344000  1
  O  O5  1  0.05495400  0.72522300  0.35710100  1
  O  O6  1  0.85454200  0.32528600  0.95740400  1
  O  O7  1  0.65569300  0.92480400  0.55873100  1
  O  O8  1  0.45473000  0.52503200  0.15714400  1
  O  O9  1  0.25511400  0.12499600  0.75700900  1
  O  O10  1  0.15044200  0.91644200  0.54850000  1
  O  O11  1  0.95064200  0.51427600  0.14818700  1
  O  O12  1  0.75000600  0.11635600  0.74841300  1
  O  O13  1  0.55045800  0.71657500  0.34864200  1
  O  O14  1  0.35092900  0.31661400  0.94850200  1
  O  O15  1  0.05850200  0.97940800  0.34742200  1
  O  O16  1  0.85832300  0.57901200  0.94679300  1
  O  O17  1  0.65782800  0.17912900  0.54711000  1
  O  O18  1  0.45952200  0.78018000  0.14656000  1
  O  O19  1  0.25814100  0.37919900  0.74732100  1
  O  O20  1  0.34430700  0.07519600  0.44126900  1
  O  O21  1  0.14545800  0.67471400  0.04259600  1
  O  O22  1  0.94504600  0.27477700  0.64289900  1
  O  O23  1  0.74488600  0.87500400  0.24299100  1
  O  O24  1  0.54527000  0.47496800  0.84285600  1
  O  O25  1  0.24999400  0.88364400  0.25158700  1
  O  O26  1  0.04935800  0.48572400  0.85181300  1
  O  O27  1  0.84955800  0.08355800  0.45150000  1
  O  O28  1  0.64907100  0.68338600  0.05149800  1
  O  O29  1  0.44954200  0.28342500  0.65135800  1
  O  O30  1  0.42006400  0.12861500  0.24775000  1
  O  O31  1  0.22006500  0.72852300  0.84743900  1
  O  O32  1  0.01987300  0.32890700  0.44758400  1
  O  O33  1  0.82075900  0.92844900  0.04774300  1
  O  O34  1  0.61989400  0.52877100  0.64738200  1
  O  O35  1  0.11460900  0.02635800  0.14564500  1
  O  O36  1  0.91549600  0.62699700  0.74595300  1
  O  O37  1  0.71549600  0.22740500  0.34602900  1
  O  O38  1  0.51532700  0.82706200  0.94610100  1
  O  O39  1  0.31557800  0.42741300  0.54609500  1
  O  O40  1  0.21709600  0.23009600  0.34916200  1
  O  O41  1  0.01662500  0.83061800  0.95009100  1
  O  O42  1  0.81704900  0.43024600  0.54887600  1
  O  O43  1  0.61680100  0.03008100  0.14913300  1
  O  O44  1  0.41694700  0.63017300  0.74884900  1
  O  O45  1  0.98012700  0.67109300  0.55241600  1
  O  O46  1  0.77993500  0.27147700  0.15256100  1
  O  O47  1  0.57993600  0.87138500  0.75225000  1
  O  O48  1  0.38010600  0.47122900  0.35261800  1
  O  O49  1  0.17924100  0.07155100  0.95225700  1
  O  O50  1  0.28450400  0.77259500  0.65397100  1
  O  O51  1  0.08450400  0.37300300  0.25404700  1
  O  O52  1  0.88539100  0.97364200  0.85435500  1
  O  O53  1  0.68442200  0.57258700  0.45390500  1
  O  O54  1  0.48467300  0.17293800  0.05389900  1
  O  O55  1  0.18295100  0.56975400  0.45112400  1
  O  O56  1  0.98337500  0.16938200  0.04990900  1
  O  O57  1  0.78290400  0.76990400  0.65083800  1
  O  O58  1  0.58305300  0.36982700  0.25115100  1
  O  O59  1  0.38319900  0.96991900  0.85086700  1
loop_
_geom_bond_atom_site_label_1
_geom_bond_atom_site_label_2
_geom_bond_distance
_geom_bond_site_symmetry_2
Ba0 O29 2.806143 1_555
Ba0 O20 2.806266 1_555
Ba0 O17 2.806982 1_555
Ba0 O34 2.927620 1_555
Ba0 O42 2.929801 1_555
Ba0 O37 2.932111 1_555
Ba0 O39 2.932689 1_555
Ba0 O30 2.933921 1_555
Ba0 O40 2.933970 1_555
Ba0 O53 3.044888 1_555
Ba0 O48 3.047723 1_555
Ba0 O58 3.048519 1_555
Ba1 O25 2.810834 1_555
Ba1 O21 2.811554 1_555
Ba1 O18 2.838556 1_555
Ba1 O41 2.902153 1_554
Ba1 O35 2.902510 1_565
Ba1 O30 2.932470 1_565
Ba1 O31 2.933105 1_554
Ba1 O43 2.958632 1_565
Ba1 O38 2.958837 1_554
Ba1 O49 3.025570 1_564
Ba1 O54 3.047503 1_565
Ba1 O59 3.047859 1_554
Ba2 O26 2.808708 1_555
Ba2 O19 2.808729 1_555
Ba2 O22 2.809240 1_455
Ba2 O32 2.927033 1_555
Ba2 O39 2.928177 1_555
Ba2 O44 2.931716 1_555
Ba2 O42 2.932800 1_455
Ba2 O31 2.933495 1_555
Ba2 O36 2.934134 1_455
Ba2 O55 3.045109 1_555
Ba2 O50 3.048586 1_555
Ba2 O45 3.048589 1_455
Ba3 O23 2.806094 1_545
Ba3 O15 2.809571 1_645
Ba3 O27 2.836576 1_555
Ba3 O33 2.901911 1_545
Ba3 O35 2.903635 1_655
Ba3 O43 2.932076 1_555
Ba3 O40 2.934908 1_655
Ba3 O37 2.960012 1_555
Ba3 O32 2.961555 1_655
Ba3 O56 3.036192 1_555
Ba3 O46 3.051670 1_555
Ba3 O51 3.053029 1_655
Ba4 O28 2.807653 1_556
Ba4 O16 2.808273 1_555
Ba4 O24 2.835362 1_555
Ba4 O33 2.902998 1_556
Ba4 O41 2.904566 1_655
Ba4 O38 2.931470 1_555
Ba4 O36 2.935365 1_555
Ba4 O44 2.959493 1_555
Ba4 O34 2.960542 1_555
Ba4 O52 3.032864 1_555
Ba4 O47 3.052864 1_555
Ba4 O57 3.053326 1_555
Ba5 O11 2.808708 1_555
Ba5 O3 2.808729 1_555
Ba5 O5 2.809240 1_655
Ba5 O45 2.927033 1_555
Ba5 O53 2.928177 1_555
Ba5 O58 2.931716 1_555
Ba5 O55 2.932800 1_655
Ba5 O46 2.933495 1_555
Ba5 O51 2.934134 1_655
Ba5 O42 3.045109 1_555
Ba5 O37 3.048586 1_555
Ba5 O32 3.048589 1_655
Ba6 O12 2.810834 1_555
Ba6 O6 2.811554 1_555
Ba6 O4 2.838556 1_555
Ba6 O56 2.902153 1_556
Ba6 O52 2.902510 1_545
Ba6 O47 2.932470 1_545
Ba6 O46 2.933105 1_556
Ba6 O59 2.958632 1_545
Ba6 O54 2.958837 1_556
Ba6 O33 3.025570 1_546
Ba6 O38 3.047503 1_545
Ba6 O43 3.047859 1_556
Ba7 O13 2.806143 1_555
Ba7 O7 2.806266 1_555
Ba7 O0 2.806982 1_555
Ba7 O48 2.927620 1_555
Ba7 O55 2.929801 1_555
Ba7 O50 2.932111 1_555
Ba7 O53 2.932689 1_555
Ba7 O47 2.933921 1_555
Ba7 O57 2.933970 1_555
Ba7 O39 3.044888 1_555
Ba7 O34 3.047723 1_555
Ba7 O44 3.048519 1_555
Ba8 O14 2.807653 1_554
Ba8 O1 2.808273 1_555
Ba8 O8 2.835362 1_555
Ba8 O49 2.902998 1_554
Ba8 O56 2.904566 1_455
Ba8 O54 2.931470 1_555
Ba8 O51 2.935365 1_555
Ba8 O58 2.959493 1_555
Ba8 O48 2.960542 1_555
Ba8 O35 3.032864 1_555
Ba8 O30 3.052864 1_555
Ba8 O40 3.053326 1_555
Ba9 O9 2.806094 1_565
Ba9 O2 2.809571 1_465
Ba9 O10 2.836576 1_555
Ba9 O49 2.901911 1_565
Ba9 O52 2.903635 1_455
Ba9 O59 2.932076 1_555
Ba9 O57 2.934908 1_455
Ba9 O50 2.960012 1_555
Ba9 O45 2.961555 1_455
Ba9 O41 3.036192 1_555
Ba9 O31 3.051670 1_555
Ba9 O36 3.053029 1_455
Ba10 O9 2.920262 1_555
Ba10 O10 2.926463 1_545
Ba10 O4 2.928712 1_555
Ba10 O12 2.929422 1_555
Ba10 O0 2.929460 1_545
Ba10 O7 2.936900 1_545
Ba10 O29 2.961006 1_555
Ba10 O17 2.966507 1_555
Ba10 O20 2.987163 1_555
Ba10 O59 3.066193 1_545
Ba10 O47 3.070957 1_545
Ba10 O50 3.071903 1_545
Ba11 O13 2.925887 1_555
Ba11 O1 2.926862 1_555
Ba11 O8 2.927020 1_555
Ba11 O0 2.928809 1_555
Ba11 O5 2.931344 1_555
Ba11 O11 2.935384 1_455
Ba11 O25 2.962645 1_555
Ba11 O21 2.966579 1_555
Ba11 O18 2.980533 1_555
Ba11 O51 3.072440 1_555
Ba11 O48 3.072712 1_555
Ba11 O55 3.074901 1_555
Ba12 O9 2.927897 1_555
Ba12 O2 2.928080 1_455
Ba12 O14 2.930170 1_555
Ba12 O12 2.933468 1_455
Ba12 O1 2.934454 1_556
Ba12 O6 2.936406 1_455
Ba12 O19 2.995434 1_555
Ba12 O22 2.997187 1_455
Ba12 O56 3.025250 1_456
Ba12 O26 3.025337 1_555
Ba12 O49 3.026187 1_555
Ba12 O52 3.026352 1_445
Ba13 O5 2.923750 1_655
Ba13 O10 2.925126 1_655
Ba13 O3 2.928451 1_555
Ba13 O2 2.929123 1_565
Ba13 O13 2.934580 1_555
Ba13 O7 2.938483 1_555
Ba13 O15 2.956872 1_655
Ba13 O23 2.960269 1_555
Ba13 O27 2.962449 1_565
Ba13 O45 3.075100 1_555
Ba13 O57 3.077421 1_555
Ba13 O53 3.078930 1_555
Ba14 O14 2.921615 1_554
Ba14 O8 2.924199 1_555
Ba14 O3 2.926839 1_555
Ba14 O6 2.931508 1_554
Ba14 O4 2.932380 1_554
Ba14 O11 2.937277 1_555
Ba14 O28 2.956491 1_555
Ba14 O24 2.959096 1_554
Ba14 O16 2.967393 1_554
Ba14 O54 3.072439 1_555
Ba14 O58 3.075407 1_555
Ba14 O46 3.077838 1_555
Ba15 O23 2.927897 1_555
Ba15 O15 2.928080 1_655
Ba15 O28 2.930170 1_555
Ba15 O25 2.933468 1_655
Ba15 O16 2.934454 1_554
Ba15 O21 2.936406 1_655
Ba15 O3 2.995434 1_555
Ba15 O5 2.997187 1_655
Ba15 O41 3.025250 1_654
Ba15 O11 3.025337 1_555
Ba15 O33 3.026187 1_555
Ba15 O35 3.026352 1_665
Ba16 O29 2.925887 1_555
Ba16 O16 2.926862 1_555
Ba16 O24 2.927020 1_555
Ba16 O17 2.928809 1_555
Ba16 O22 2.931344 1_555
Ba16 O26 2.935384 1_655
Ba16 O12 2.962645 1_555
Ba16 O6 2.966579 1_555
Ba16 O4 2.980533 1_555
Ba16 O36 3.072440 1_555
Ba16 O34 3.072712 1_555
Ba16 O42 3.074901 1_555
Ba17 O23 2.920262 1_555
Ba17 O27 2.926463 1_565
Ba17 O18 2.928712 1_555
Ba17 O25 2.929422 1_555
Ba17 O17 2.929460 1_565
Ba17 O20 2.936900 1_565
Ba17 O13 2.961006 1_555
Ba17 O0 2.966507 1_555
Ba17 O7 2.987163 1_555
Ba17 O43 3.066193 1_565
Ba17 O30 3.070957 1_565
Ba17 O37 3.071903 1_565
Ba18 O28 2.921615 1_556
Ba18 O24 2.924199 1_555
Ba18 O19 2.926839 1_555
Ba18 O21 2.931508 1_556
Ba18 O18 2.932380 1_556
Ba18 O26 2.937277 1_555
Ba18 O14 2.956491 1_555
Ba18 O8 2.959096 1_556
Ba18 O1 2.967393 1_556
Ba18 O38 3.072439 1_555
Ba18 O44 3.075407 1_555
Ba18 O31 3.077838 1_555
Ba19 O22 2.923750 1_455
Ba19 O27 2.925126 1_455
Ba19 O19 2.928451 1_555
Ba19 O15 2.929123 1_545
Ba19 O29 2.934580 1_555
Ba19 O20 2.938483 1_555
Ba19 O2 2.956872 1_455
Ba19 O9 2.960269 1_555
Ba19 O10 2.962449 1_545
Ba19 O32 3.075100 1_555
Ba19 O40 3.077421 1_555
Ba19 O39 3.078930 1_555
Nb0 O37 2.020504 1_555
Nb0 O58 2.020644 1_555
Nb0 O46 2.021399 1_555
Nb0 O30 2.022654 1_555
Nb0 O54 2.022798 1_555
Nb0 O43 2.023121 1_555
Nb1 O39 2.021452 1_555
Nb1 O55 2.021546 1_555
Nb1 O32 2.021847 1_555
Nb1 O51 2.022146 1_555
Nb1 O48 2.022211 1_555
Nb1 O40 2.022819 1_555
Nb2 O53 2.021452 1_555
Nb2 O42 2.021546 1_555
Nb2 O45 2.021847 1_555
Nb2 O36 2.022146 1_555
Nb2 O34 2.022211 1_555
Nb2 O57 2.022819 1_555
Nb3 O50 2.020504 1_555
Nb3 O44 2.020644 1_555
Nb3 O31 2.021399 1_555
Nb3 O47 2.022654 1_555
Nb3 O38 2.022798 1_555
Nb3 O59 2.023121 1_555
Ir0 O50 2.053588 1_555
Ir0 O45 2.054259 1_455
Ir0 O55 2.055596 1_555
Ir0 O10 2.057758 1_555
Ir0 O5 2.060819 1_555
Ir0 O0 2.061190 1_555
Ir1 O11 2.037109 1_555
Ir1 O46 2.052699 1_555
Ir1 O51 2.053297 1_655
Ir1 O1 2.058828 1_655
Ir1 O56 2.058990 1_555
Ir1 O6 2.059833 1_554
Ir2 O7 2.038089 1_555
Ir2 O47 2.052868 1_555
Ir2 O57 2.053109 1_555
Ir2 O2 2.058403 1_565
Ir2 O52 2.059038 1_555
Ir2 O12 2.059666 1_565
Ir3 O58 2.052318 1_555
Ir3 O48 2.052817 1_555
Ir3 O53 2.054093 1_555
Ir3 O8 2.059358 1_555
Ir3 O13 2.062218 1_555
Ir3 O3 2.062735 1_555
Ir4 O4 2.038044 1_555
Ir4 O59 2.053604 1_545
Ir4 O54 2.053659 1_556
Ir4 O14 2.059240 1_555
Ir4 O9 2.059412 1_555
Ir4 O49 2.061699 1_555
Ir5 O20 2.038089 1_555
Ir5 O30 2.052868 1_555
Ir5 O40 2.053109 1_555
Ir5 O15 2.058403 1_545
Ir5 O35 2.059038 1_555
Ir5 O25 2.059666 1_545
Ir6 O26 2.037109 1_555
Ir6 O31 2.052699 1_555
Ir6 O36 2.053297 1_455
Ir6 O16 2.058828 1_455
Ir6 O41 2.058990 1_555
Ir6 O21 2.059833 1_556
Ir7 O37 2.053588 1_555
Ir7 O32 2.054259 1_655
Ir7 O42 2.055596 1_555
Ir7 O27 2.057758 1_555
Ir7 O22 2.060819 1_555
Ir7 O17 2.061190 1_555
Ir8 O18 2.038044 1_555
Ir8 O43 2.053604 1_565
Ir8 O38 2.053659 1_554
Ir8 O28 2.059240 1_555
Ir8 O23 2.059412 1_555
Ir8 O33 2.061699 1_555
Ir9 O44 2.052318 1_555
Ir9 O34 2.052817 1_555
Ir9 O39 2.054093 1_555
Ir9 O24 2.059358 1_555
Ir9 O29 2.062218 1_555
Ir9 O19 2.062735 1_555
Ir10 O5 2.055517 1_555
Ir10 O0 2.059101 1_555
Ir10 O10 2.059121 1_555
Ir10 O15 2.059727 1_555
Ir10 O25 2.061143 1_555
Ir10 O20 2.061976 1_565
Ir11 O11 2.056731 1_455
Ir11 O26 2.056731 1_554
Ir11 O16 2.058157 1_454
Ir11 O1 2.058157 1_555
Ir11 O21 2.059059 1_555
Ir11 O6 2.059059 1_454
Ir12 O22 2.055517 1_555
Ir12 O17 2.059101 1_555
Ir12 O27 2.059121 1_555
Ir12 O2 2.059727 1_555
Ir12 O12 2.061143 1_555
Ir12 O7 2.061976 1_545
Ir13 O28 2.056636 1_555
Ir13 O23 2.057429 1_555
Ir13 O3 2.059030 1_555
Ir13 O18 2.059606 1_555
Ir13 O8 2.061902 1_555
Ir13 O13 2.062534 1_555
Ir14 O14 2.056636 1_555
Ir14 O9 2.057429 1_555
Ir14 O19 2.059030 1_555
Ir14 O4 2.059606 1_555
Ir14 O24 2.061902 1_555
Ir14 O29 2.062534 1_555
Ir15 O56 2.013877 1_455
Ir15 O41 2.013877 1_544
Ir15 O35 2.016074 1_555
Ir15 O52 2.016074 1_444
Ir15 O49 2.017607 1_554
Ir15 O33 2.017607 1_445
