# generated using pymatgen
data_Sb(MoS)2
_symmetry_space_group_name_H-M   'P 1'
_cell_length_a   3.20347563
_cell_length_b   6.55778366
_cell_length_c   9.48259106
_cell_angle_alpha   105.60859122
_cell_angle_beta   90.00000000
_cell_angle_gamma   90.00000000
_symmetry_Int_Tables_number   1
_chemical_formula_structural   Sb(MoS)2
_chemical_formula_sum   'Sb2 Mo4 S4'
_cell_volume   191.86110421
_cell_formula_units_Z   2
loop_
 _symmetry_equiv_pos_site_id
 _symmetry_equiv_pos_as_xyz
  1  'x, y, z'
loop_
 _atom_site_type_symbol
 _atom_site_label
 _atom_site_symmetry_multiplicity
 _atom_site_fract_x
 _atom_site_fract_y
 _atom_site_fract_z
 _atom_site_occupancy
  Sb  Sb0  1  0.75000000  0.00157365  0.66118567  1
  Sb  Sb1  1  0.25000000  0.99842635  0.33881433  1
  Mo  Mo0  1  0.75000000  0.10383202  0.11369614  1
  Mo  Mo1  1  0.75000000  0.33927436  0.52033101  1
  Mo  Mo2  1  0.25000000  0.89616798  0.88630386  1
  Mo  Mo3  1  0.25000000  0.66072564  0.47966899  1
  S  S0  1  0.25000000  0.26334746  0.99371741  1
  S  S1  1  0.25000000  0.52594004  0.68868318  1
  S  S2  1  0.75000000  0.73665254  0.00628259  1
  S  S3  1  0.75000000  0.47405996  0.31131682  1
loop_
_geom_bond_atom_site_label_1
_geom_bond_atom_site_label_2
_geom_bond_distance
_geom_bond_site_symmetry_2
Mo0 S2 2.348524 1_545
Mo0 S0 2.365300 1_554
Mo0 S0 2.365300 1_654
Mo0 S3 2.637792 1_555
Mo0 Sb1 2.897303 1_645
Mo0 Sb1 2.897303 1_545
Mo1 S1 2.358167 1_555
Mo1 S1 2.358167 1_655
Mo1 S3 2.377459 1_555
Mo1 Sb0 2.877510 1_555
Mo1 Sb1 2.907584 1_645
Mo1 Sb1 2.907584 1_545
Mo2 S0 2.348524 1_565
Mo2 S2 2.365300 1_456
Mo2 S2 2.365300 1_556
Mo2 S1 2.637792 1_555
Mo2 Sb0 2.897303 1_465
Mo2 Sb0 2.897303 1_565
Mo3 S3 2.358167 1_555
Mo3 S3 2.358167 1_455
Mo3 S1 2.377459 1_555
Mo3 Sb1 2.877510 1_555
Mo3 Sb0 2.907584 1_565
Mo3 Sb0 2.907584 1_465
