# generated using pymatgen
data_Li7Co5O12
_symmetry_space_group_name_H-M   'P 1'
_cell_length_a   6.38379990
_cell_length_b   6.38379990
_cell_length_c   11.93181857
_cell_angle_alpha   75.50891198
_cell_angle_beta   75.50891198
_cell_angle_gamma   27.14708792
_symmetry_Int_Tables_number   1
_chemical_formula_structural   Li7Co5O12
_chemical_formula_sum   'Li7 Co5 O12'
_cell_volume   214.39025387
_cell_formula_units_Z   1
loop_
 _symmetry_equiv_pos_site_id
 _symmetry_equiv_pos_as_xyz
  1  'x, y, z'
loop_
 _atom_site_type_symbol
 _atom_site_label
 _atom_site_symmetry_multiplicity
 _atom_site_fract_x
 _atom_site_fract_y
 _atom_site_fract_z
 _atom_site_occupancy
  Li  Li0  1  0.00207800  0.00207800  0.25046300  1
  Li  Li1  1  0.66671200  0.66671200  0.08569200  1
  Li  Li2  1  0.33328800  0.33328800  0.91430800  1
  Li  Li3  1  0.99792200  0.99792200  0.74953700  1
  Li  Li4  1  0.66598400  0.66598400  0.57985600  1
  Li  Li5  1  0.33401600  0.33401600  0.42014400  1
  Li  Li6  1  0.00000000  0.00000000  0.50000000  1
  Co  Co0  1  0.33954200  0.33954200  0.65832200  1
  Co  Co1  1  0.66045800  0.66045800  0.34167800  1
  Co  Co2  1  0.33145300  0.33145300  0.16799400  1
  Co  Co3  1  0.00000000  0.00000000  0.00000000  1
  Co  Co4  1  0.66854700  0.66854700  0.83200600  1
  O  O0  1  0.84026200  0.84026200  0.04360500  1
  O  O1  1  0.50718000  0.50718000  0.87648600  1
  O  O2  1  0.17936100  0.17936100  0.70946400  1
  O  O3  1  0.83346300  0.83346300  0.55116300  1
  O  O4  1  0.51656600  0.51656600  0.36850600  1
  O  O5  1  0.17359800  0.17359800  0.21202600  1
  O  O6  1  0.16653700  0.16653700  0.44883700  1
  O  O7  1  0.82063900  0.82063900  0.29053600  1
  O  O8  1  0.49282000  0.49282000  0.12351400  1
  O  O9  1  0.15973800  0.15973800  0.95639500  1
  O  O10  1  0.82640200  0.82640200  0.78797400  1
  O  O11  1  0.48343400  0.48343400  0.63149400  1
loop_
_geom_bond_atom_site_label_1
_geom_bond_atom_site_label_2
_geom_bond_distance
_geom_bond_site_symmetry_2
Li0 O5 2.058935 1_555
Li0 O4 2.095521 1_545
Li0 O4 2.095521 1_455
Li0 O8 2.154514 1_455
Li0 O8 2.154514 1_545
Li0 O7 2.178318 1_445
Li1 O0 2.081997 1_555
Li1 O8 2.088047 1_555
Li1 O5 2.142562 1_565
Li1 O5 2.142562 1_655
Li1 O9 2.168183 1_654
Li1 O9 2.168183 1_564
Li2 O9 2.081997 1_555
Li2 O1 2.088047 1_555
Li2 O10 2.142562 1_545
Li2 O10 2.142562 1_455
Li2 O0 2.168183 1_546
Li2 O0 2.168183 1_456
Li3 O10 2.058935 1_555
Li3 O11 2.095521 1_655
Li3 O11 2.095521 1_565
Li3 O1 2.154514 1_565
Li3 O1 2.154514 1_655
Li3 O2 2.178318 1_665
Li4 O3 2.017756 1_555
Li4 O6 2.164052 1_565
Li4 O6 2.164052 1_655
Li4 O11 2.189522 1_555
Li4 O2 2.189975 1_565
Li4 O2 2.189975 1_655
Li5 O6 2.017756 1_555
Li5 O3 2.164052 1_455
Li5 O3 2.164052 1_545
Li5 O4 2.189522 1_555
Li5 O7 2.189975 1_545
Li5 O7 2.189975 1_455
Li6 O6 1.998774 1_555
Li6 O3 1.998774 1_445
Li6 O4 2.140688 1_455
Li6 O11 2.140688 1_545
Li6 O4 2.140688 1_545
Li6 O11 2.140688 1_455
Co0 O11 1.731297 1_555
Co0 O2 1.923531 1_555
Co0 O3 1.983655 1_545
Co0 O3 1.983655 1_455
Co0 O10 2.129455 1_545
Co0 O10 2.129455 1_455
Co1 O4 1.731297 1_555
Co1 O7 1.923531 1_555
Co1 O6 1.983655 1_655
Co1 O6 1.983655 1_565
Co1 O5 2.129455 1_565
Co1 O5 2.129455 1_655
Co2 O5 1.893231 1_555
Co2 O8 1.935292 1_555
Co2 O7 2.073540 1_545
Co2 O7 2.073540 1_455
Co2 O0 2.091873 1_455
Co2 O0 2.091873 1_545
Co3 O9 1.915722 1_554
Co3 O0 1.915722 1_445
Co3 O1 2.087335 1_544
Co3 O1 2.087335 1_454
Co3 O8 2.087335 1_545
Co3 O8 2.087335 1_455
Co4 O10 1.893231 1_555
Co4 O1 1.935292 1_555
Co4 O2 2.073540 1_565
Co4 O2 2.073540 1_655
Co4 O9 2.091873 1_655
Co4 O9 2.091873 1_565
