# generated using pymatgen
data_K3Mn2O8
_symmetry_space_group_name_H-M   'P 1'
_cell_length_a   5.87499200
_cell_length_b   7.96979076
_cell_length_c   9.93683793
_cell_angle_alpha   111.50373775
_cell_angle_beta   90.00000000
_cell_angle_gamma   90.00000000
_symmetry_Int_Tables_number   1
_chemical_formula_structural   K3Mn2O8
_chemical_formula_sum   'K6 Mn4 O16'
_cell_volume   432.88162016
_cell_formula_units_Z   2
loop_
 _symmetry_equiv_pos_site_id
 _symmetry_equiv_pos_as_xyz
  1  'x, y, z'
loop_
 _atom_site_type_symbol
 _atom_site_label
 _atom_site_symmetry_multiplicity
 _atom_site_fract_x
 _atom_site_fract_y
 _atom_site_fract_z
 _atom_site_occupancy
  K  K0  1  0.75000000  0.14753100  0.54158800  1
  K  K1  1  0.25000000  0.85246900  0.45841200  1
  K  K2  1  0.75000000  0.33201000  0.95368500  1
  K  K3  1  0.25000000  0.66799000  0.04631500  1
  K  K4  1  0.75000000  0.79553500  0.78714500  1
  K  K5  1  0.25000000  0.20446500  0.21285500  1
  Mn  Mn0  1  0.25000000  0.07509700  0.83548600  1
  Mn  Mn1  1  0.75000000  0.92490300  0.16451400  1
  Mn  Mn2  1  0.25000000  0.44730100  0.65044600  1
  Mn  Mn3  1  0.75000000  0.55269900  0.34955400  1
  O  O0  1  0.25000000  0.59721200  0.57676400  1
  O  O1  1  0.75000000  0.40278800  0.42323600  1
  O  O2  1  0.25000000  0.24662300  0.52448200  1
  O  O3  1  0.75000000  0.75337700  0.47551800  1
  O  O4  1  0.02418900  0.47163600  0.75071800  1
  O  O5  1  0.52418900  0.52836400  0.24928200  1
  O  O6  1  0.97581100  0.52836400  0.24928200  1
  O  O7  1  0.47581100  0.47163600  0.75071800  1
  O  O8  1  0.25000000  0.27985500  0.96470000  1
  O  O9  1  0.75000000  0.72014500  0.03530000  1
  O  O10  1  0.25000000  0.92566500  0.91464200  1
  O  O11  1  0.75000000  0.07433500  0.08535800  1
  O  O12  1  0.02042900  0.05016500  0.73229100  1
  O  O13  1  0.52042900  0.94983500  0.26770900  1
  O  O14  1  0.97957100  0.94983500  0.26770900  1
  O  O15  1  0.47957100  0.05016500  0.73229100  1
loop_
_geom_bond_atom_site_label_1
_geom_bond_atom_site_label_2
_geom_bond_distance
_geom_bond_site_symmetry_2
K0 O1 2.697337 1_555
K0 O12 2.792016 1_655
K0 O15 2.792016 1_555
K0 O14 2.926512 1_545
K0 O13 2.926512 1_545
K0 O3 2.964284 1_545
K0 O2 3.062660 1_555
K0 O2 3.062660 1_655
K0 O7 3.106477 1_555
K0 O4 3.106477 1_655
K1 O0 2.697337 1_555
K1 O13 2.792016 1_555
K1 O14 2.792016 1_455
K1 O15 2.926512 1_565
K1 O12 2.926512 1_565
K1 O2 2.964284 1_565
K1 O3 3.062660 1_455
K1 O3 3.062660 1_555
K1 O6 3.106477 1_455
K1 O5 3.106477 1_555
K2 O11 2.810546 1_556
K2 O9 2.896096 1_556
K2 O12 2.964250 1_655
K2 O15 2.964250 1_555
K2 O8 2.974390 1_555
K2 O8 2.974390 1_655
K2 O6 3.076808 1_556
K2 O5 3.076808 1_556
K2 O7 3.089696 1_555
K2 O4 3.089696 1_655
K3 O10 2.810546 1_554
K3 O8 2.896096 1_554
K3 O14 2.964250 1_455
K3 O13 2.964250 1_555
K3 O9 2.974390 1_555
K3 O9 2.974390 1_455
K3 O7 3.076808 1_554
K3 O4 3.076808 1_554
K3 O6 3.089696 1_455
K3 O5 3.089696 1_555
K4 O9 2.743675 1_556
K4 O12 2.783970 1_665
K4 O15 2.783970 1_565
K4 O4 2.950343 1_655
K4 O7 2.950343 1_555
K4 O11 2.981801 1_566
K4 O3 2.989813 1_555
K4 O10 3.216564 1_555
K4 O10 3.216564 1_655
K5 O8 2.743675 1_554
K5 O14 2.783970 1_445
K5 O13 2.783970 1_545
K5 O5 2.950343 1_555
K5 O6 2.950343 1_455
K5 O10 2.981801 1_544
K5 O2 2.989813 1_555
K5 O11 3.216564 1_555
K5 O11 3.216564 1_455
Mn0 O10 1.650385 1_545
Mn0 O15 1.661530 1_555
Mn0 O12 1.661530 1_555
Mn0 O8 1.665988 1_555
Mn1 O11 1.650385 1_565
Mn1 O14 1.661530 1_555
Mn1 O13 1.661530 1_555
Mn1 O9 1.665988 1_555
Mn2 O0 1.613947 1_555
Mn2 O7 1.627482 1_555
Mn2 O4 1.627482 1_555
Mn2 O2 1.630041 1_555
Mn3 O1 1.613947 1_555
Mn3 O6 1.627482 1_555
Mn3 O5 1.627482 1_555
Mn3 O3 1.630041 1_555
