# generated using pymatgen
data_FeAg(MoO4)2
_symmetry_space_group_name_H-M   'P 1'
_cell_length_a   5.87934100
_cell_length_b   5.02851600
_cell_length_c   10.11356036
_cell_angle_alpha   89.63398881
_cell_angle_beta   90.00000000
_cell_angle_gamma   90.00000000
_symmetry_Int_Tables_number   1
_chemical_formula_structural   FeAg(MoO4)2
_chemical_formula_sum   'Fe2 Ag2 Mo4 O16'
_cell_volume   298.99484138
_cell_formula_units_Z   2
loop_
 _symmetry_equiv_pos_site_id
 _symmetry_equiv_pos_as_xyz
  1  'x, y, z'
loop_
 _atom_site_type_symbol
 _atom_site_label
 _atom_site_symmetry_multiplicity
 _atom_site_fract_x
 _atom_site_fract_y
 _atom_site_fract_z
 _atom_site_occupancy
  Fe  Fe0  1  0.33328900  0.75000000  0.00000000  1
  Fe  Fe1  1  0.66671100  0.25000000  0.00000000  1
  Ag  Ag0  1  0.31705800  0.75000000  0.50000000  1
  Ag  Ag1  1  0.68294200  0.25000000  0.50000000  1
  Mo  Mo0  1  0.17966100  0.24948900  0.76806500  1
  Mo  Mo1  1  0.82033900  0.75051100  0.23193500  1
  Mo  Mo2  1  0.17966100  0.25051100  0.23193500  1
  Mo  Mo3  1  0.82033900  0.74948900  0.76806500  1
  O  O0  1  0.62925200  0.61949100  0.65247700  1
  O  O1  1  0.37074800  0.38050900  0.34752300  1
  O  O2  1  0.62925200  0.88050900  0.34752300  1
  O  O3  1  0.37074800  0.11949100  0.65247700  1
  O  O4  1  0.09506100  0.55947500  0.67435200  1
  O  O5  1  0.90493900  0.44052500  0.32564800  1
  O  O6  1  0.09506100  0.94052500  0.32564800  1
  O  O7  1  0.90493900  0.05947500  0.67435200  1
  O  O8  1  0.12256300  0.92827000  0.87771200  1
  O  O9  1  0.87743700  0.07173000  0.12228800  1
  O  O10  1  0.12256300  0.57173000  0.12228800  1
  O  O11  1  0.87743700  0.42827000  0.87771200  1
  O  O12  1  0.62348600  0.91085500  0.89282800  1
  O  O13  1  0.37651400  0.08914500  0.10717200  1
  O  O14  1  0.62348600  0.58914500  0.10717200  1
  O  O15  1  0.37651400  0.41085500  0.89282800  1
loop_
_geom_bond_atom_site_label_1
_geom_bond_atom_site_label_2
_geom_bond_distance
_geom_bond_site_symmetry_2
Fe0 O10 1.963153 1_555
Fe0 O8 1.963153 1_554
Fe0 O13 2.042399 1_565
Fe0 O15 2.042399 1_554
Fe0 O14 2.174599 1_555
Fe0 O12 2.174599 1_554
Fe1 O9 1.963153 1_555
Fe1 O11 1.963153 1_554
Fe1 O14 2.042399 1_555
Fe1 O12 2.042399 1_544
Fe1 O13 2.174599 1_555
Fe1 O15 2.174599 1_554
Ag0 O6 2.389377 1_555
Ag0 O4 2.389377 1_555
Ag0 O3 2.442623 1_565
Ag0 O1 2.442623 1_555
Ag0 O0 2.482907 1_555
Ag0 O2 2.482907 1_555
Ag1 O7 2.389377 1_555
Ag1 O5 2.389377 1_555
Ag1 O0 2.442623 1_555
Ag1 O2 2.442623 1_545
Ag1 O3 2.482907 1_555
Ag1 O1 2.482907 1_555
Mo0 O3 1.750952 1_555
Mo0 O4 1.885884 1_555
Mo0 O15 1.898192 1_555
Mo0 O8 1.982061 1_545
Mo0 O7 2.105141 1_455
Mo0 O11 2.282092 1_455
Mo1 O2 1.750952 1_555
Mo1 O5 1.885884 1_555
Mo1 O14 1.898192 1_555
Mo1 O9 1.982061 1_565
Mo1 O6 2.105141 1_655
Mo1 O10 2.282092 1_655
Mo2 O1 1.750952 1_555
Mo2 O6 1.885884 1_545
Mo2 O13 1.898192 1_555
Mo2 O10 1.982061 1_555
Mo2 O5 2.105141 1_455
Mo2 O9 2.282092 1_455
Mo3 O0 1.750952 1_555
Mo3 O7 1.885884 1_565
Mo3 O12 1.898192 1_555
Mo3 O11 1.982061 1_555
Mo3 O4 2.105141 1_655
Mo3 O8 2.282092 1_655
