# generated using pymatgen
data_YbGaCu4
_symmetry_space_group_name_H-M   'P 1'
_cell_length_a   5.02996835
_cell_length_b   5.02996835
_cell_length_c   4.02969728
_cell_angle_alpha   90.00000000
_cell_angle_beta   90.00000000
_cell_angle_gamma   120.00000203
_symmetry_Int_Tables_number   1
_chemical_formula_structural   YbGaCu4
_chemical_formula_sum   'Yb1 Ga1 Cu4'
_cell_volume   88.29447917
_cell_formula_units_Z   1
loop_
 _symmetry_equiv_pos_site_id
 _symmetry_equiv_pos_as_xyz
  1  'x, y, z'
loop_
 _atom_site_type_symbol
 _atom_site_label
 _atom_site_symmetry_multiplicity
 _atom_site_fract_x
 _atom_site_fract_y
 _atom_site_fract_z
 _atom_site_occupancy
  Yb  Yb0  1  0.33333300  0.66666700  0.00000000  1
  Ga  Ga0  1  0.66666700  0.33333300  0.00000000  1
  Cu  Cu0  1  0.00000000  0.00000000  0.00000000  1
  Cu  Cu1  1  0.33054491  0.16527246  0.50000000  1
  Cu  Cu2  1  0.83472754  0.16527246  0.50000000  1
  Cu  Cu3  1  0.83472754  0.66945509  0.50000000  1
loop_
_geom_bond_atom_site_label_1
_geom_bond_atom_site_label_2
_geom_bond_distance
_geom_bond_site_symmetry_2
Ga0 Yb0 2.904051 1_655
Ga0 Yb0 2.904051 1_545
Ga0 Yb0 2.904059 1_555
Cu0 Cu1 2.476463 1_555
Cu0 Cu1 2.476463 1_554
Cu0 Cu3 2.476463 1_445
Cu0 Cu3 2.476463 1_444
Cu0 Cu2 2.476463 1_455
Cu0 Cu2 2.476463 1_454
Cu0 Yb0 2.904051 1_545
Cu0 Ga0 2.904051 1_455
Cu0 Ga0 2.904055 1_555
Cu0 Yb0 2.904055 1_555
Cu0 Yb0 2.904055 1_445
Cu0 Ga0 2.904055 1_445
Cu1 Ga0 2.490667 1_555
Cu1 Ga0 2.490667 1_556
Cu1 Cu3 2.493946 1_445
Cu1 Cu2 2.493946 1_455
Cu1 Cu3 2.536023 1_555
Cu1 Cu2 2.536023 1_555
Cu1 Yb0 3.222560 1_545
Cu1 Yb0 3.222560 1_546
Cu1 Yb0 3.222564 1_556
Cu1 Yb0 3.222564 1_555
Cu2 Ga0 2.490665 1_556
Cu2 Ga0 2.490665 1_555
Cu2 Cu3 2.493946 1_545
Cu2 Cu3 2.536023 1_555
Cu2 Yb0 3.222562 1_655
Cu2 Yb0 3.222562 1_656
Cu2 Yb0 3.222562 1_545
Cu2 Yb0 3.222562 1_546
Cu3 Ga0 2.490667 1_556
Cu3 Ga0 2.490667 1_555
Cu3 Yb0 3.222560 1_655
Cu3 Yb0 3.222560 1_656
Cu3 Yb0 3.222564 1_556
Cu3 Yb0 3.222564 1_555
