# generated using pymatgen
data_TbSiPt2
_symmetry_space_group_name_H-M   'P 1'
_cell_length_a   5.53302783
_cell_length_b   6.91622294
_cell_length_c   7.32087111
_cell_angle_alpha   89.99976744
_cell_angle_beta   89.99942960
_cell_angle_gamma   89.99996840
_symmetry_Int_Tables_number   1
_chemical_formula_structural   TbSiPt2
_chemical_formula_sum   'Tb4 Si4 Pt8'
_cell_volume   280.15256265
_cell_formula_units_Z   4
loop_
 _symmetry_equiv_pos_site_id
 _symmetry_equiv_pos_as_xyz
  1  'x, y, z'
loop_
 _atom_site_type_symbol
 _atom_site_label
 _atom_site_symmetry_multiplicity
 _atom_site_fract_x
 _atom_site_fract_y
 _atom_site_fract_z
 _atom_site_occupancy
  Tb  Tb0  1  0.13790836  0.74999602  0.52643654  1
  Tb  Tb1  1  0.86209504  0.25000351  0.47357486  1
  Tb  Tb2  1  0.63791588  0.25000231  0.97356113  1
  Tb  Tb3  1  0.36208406  0.74999675  0.02642705  1
  Si  Si0  1  0.86276468  0.74999898  0.87781044  1
  Si  Si1  1  0.13723630  0.25000423  0.12218473  1
  Si  Si2  1  0.36276320  0.25000092  0.62219366  1
  Si  Si3  1  0.63723352  0.74999803  0.37781206  1
  Pt  Pt0  1  0.59102699  0.55108689  0.68021027  1
  Pt  Pt1  1  0.40897638  0.44891133  0.31979100  1
  Pt  Pt2  1  0.09101672  0.44890588  0.81979483  1
  Pt  Pt3  1  0.40897599  0.05108582  0.31978899  1
  Pt  Pt4  1  0.90897289  0.55108783  0.18019863  1
  Pt  Pt5  1  0.59102594  0.94891469  0.68021055  1
  Pt  Pt6  1  0.90897933  0.94892571  0.18020519  1
  Pt  Pt7  1  0.09102470  0.05108209  0.81979806  1
loop_
_geom_bond_atom_site_label_1
_geom_bond_atom_site_label_2
_geom_bond_distance
_geom_bond_site_symmetry_2
Si0 Tb3 2.969274 1_656
Si0 Tb3 2.976263 1_556
Si0 Tb0 2.989081 1_655
Si1 Tb2 2.969298 1_454
Si1 Tb2 2.976276 1_554
Si1 Tb1 2.989177 1_455
Si2 Tb1 2.969324 1_555
Si2 Tb1 2.976225 1_455
Si2 Tb2 2.989092 1_555
Si3 Tb0 2.969305 1_555
Si3 Tb0 2.976274 1_655
Si3 Tb3 2.989194 1_555
Pt0 Si2 2.472217 1_555
Pt0 Si0 2.499189 1_555
Pt0 Si3 2.618952 1_555
Pt0 Tb1 2.978942 1_555
Pt0 Tb2 3.002608 1_555
Pt0 Tb0 3.073363 1_555
Pt0 Tb3 3.149828 1_556
Pt1 Si3 2.472208 1_555
Pt1 Si1 2.499204 1_555
Pt1 Si2 2.618980 1_555
Pt1 Tb0 2.978986 1_555
Pt1 Tb3 3.002682 1_555
Pt1 Tb1 3.073386 1_555
Pt1 Tb2 3.149895 1_554
Pt2 Si0 2.472219 1_455
Pt2 Si2 2.499177 1_555
Pt2 Si1 2.618877 1_556
Pt2 Tb3 2.978981 1_556
Pt2 Tb0 3.002671 1_555
Pt2 Tb2 3.073229 1_455
Pt2 Tb1 3.149798 1_455
Pt3 Si3 2.472214 1_545
Pt3 Si1 2.499229 1_555
Pt3 Si2 2.619019 1_555
Pt3 Tb0 2.979010 1_545
Pt3 Tb3 3.002701 1_545
Pt3 Tb1 3.073429 1_555
Pt3 Tb2 3.149898 1_554
Pt4 Si1 2.472194 1_655
Pt4 Si3 2.499225 1_555
Pt4 Si0 2.618895 1_554
Pt4 Tb2 2.978946 1_554
Pt4 Tb1 3.002731 1_555
Pt4 Tb3 3.073306 1_655
Pt4 Tb0 3.149952 1_655
Pt5 Si2 2.472212 1_565
Pt5 Si0 2.499197 1_555
Pt5 Si3 2.618983 1_555
Pt5 Tb1 2.978965 1_565
Pt5 Tb2 3.002634 1_565
Pt5 Tb0 3.073394 1_555
Pt5 Tb3 3.149840 1_556
Pt6 Si1 2.472152 1_665
Pt6 Si3 2.499280 1_555
Pt6 Si0 2.619005 1_554
Pt6 Tb2 2.978935 1_564
Pt6 Tb1 3.002680 1_565
Pt6 Tb3 3.073359 1_655
Pt6 Tb0 3.149954 1_655
Pt7 Si0 2.472177 1_445
Pt7 Si2 2.499211 1_555
Pt7 Si1 2.618937 1_556
Pt7 Tb3 2.978910 1_546
Pt7 Tb0 3.002677 1_545
Pt7 Tb2 3.073310 1_455
Pt7 Tb1 3.149882 1_455
