# generated using pymatgen
data_SrCaMg30O32
_symmetry_space_group_name_H-M   'P 1'
_cell_length_a   8.64406300
_cell_length_b   8.64406300
_cell_length_c   8.63547500
_cell_angle_alpha   90.00000000
_cell_angle_beta   90.00000000
_cell_angle_gamma   90.00000000
_symmetry_Int_Tables_number   1
_chemical_formula_structural   SrCaMg30O32
_chemical_formula_sum   'Sr1 Ca1 Mg30 O32'
_cell_volume   645.24118207
_cell_formula_units_Z   1
loop_
 _symmetry_equiv_pos_site_id
 _symmetry_equiv_pos_as_xyz
  1  'x, y, z'
loop_
 _atom_site_type_symbol
 _atom_site_label
 _atom_site_symmetry_multiplicity
 _atom_site_fract_x
 _atom_site_fract_y
 _atom_site_fract_z
 _atom_site_occupancy
  Sr  Sr0  1  0.50000000  0.50000000  0.00000000  1
  Ca  Ca0  1  0.00000000  0.00000000  0.00000000  1
  Mg  Mg0  1  0.50000000  0.00000000  0.00000000  1
  Mg  Mg1  1  0.00000000  0.50000000  0.00000000  1
  Mg  Mg2  1  0.00000000  0.00000000  0.50000000  1
  Mg  Mg3  1  0.50000000  0.00000000  0.50000000  1
  Mg  Mg4  1  0.00000000  0.50000000  0.50000000  1
  Mg  Mg5  1  0.50000000  0.50000000  0.50000000  1
  Mg  Mg6  1  0.24802900  0.24802900  0.00000000  1
  Mg  Mg7  1  0.75197100  0.24802900  0.00000000  1
  Mg  Mg8  1  0.24802900  0.75197100  0.00000000  1
  Mg  Mg9  1  0.75197100  0.75197100  0.00000000  1
  Mg  Mg10  1  0.24981300  0.24981300  0.50000000  1
  Mg  Mg11  1  0.75018700  0.24981300  0.50000000  1
  Mg  Mg12  1  0.24981300  0.75018700  0.50000000  1
  Mg  Mg13  1  0.75018700  0.75018700  0.50000000  1
  Mg  Mg14  1  0.25265400  0.00000000  0.25341900  1
  Mg  Mg15  1  0.74734600  0.00000000  0.25341900  1
  Mg  Mg16  1  0.24508200  0.50000000  0.25526600  1
  Mg  Mg17  1  0.75491800  0.50000000  0.25526600  1
  Mg  Mg18  1  0.25265400  0.00000000  0.74658100  1
  Mg  Mg19  1  0.74734600  0.00000000  0.74658100  1
  Mg  Mg20  1  0.24508200  0.50000000  0.74473400  1
  Mg  Mg21  1  0.75491800  0.50000000  0.74473400  1
  Mg  Mg22  1  0.00000000  0.25265400  0.25341900  1
  Mg  Mg23  1  0.50000000  0.24508200  0.25526600  1
  Mg  Mg24  1  0.00000000  0.74734600  0.25341900  1
  Mg  Mg25  1  0.50000000  0.75491800  0.25526600  1
  Mg  Mg26  1  0.00000000  0.25265400  0.74658100  1
  Mg  Mg27  1  0.50000000  0.24508200  0.74473400  1
  Mg  Mg28  1  0.00000000  0.74734600  0.74658100  1
  Mg  Mg29  1  0.50000000  0.75491800  0.74473400  1
  O  O0  1  0.00000000  0.00000000  0.26255200  1
  O  O1  1  0.50000000  0.00000000  0.25592400  1
  O  O2  1  0.00000000  0.50000000  0.25592400  1
  O  O3  1  0.50000000  0.50000000  0.27025000  1
  O  O4  1  0.00000000  0.00000000  0.73744800  1
  O  O5  1  0.50000000  0.00000000  0.74407600  1
  O  O6  1  0.00000000  0.50000000  0.74407600  1
  O  O7  1  0.50000000  0.50000000  0.72975000  1
  O  O8  1  0.25012300  0.25012300  0.24983300  1
  O  O9  1  0.74987700  0.25012300  0.24983300  1
  O  O10  1  0.25012300  0.74987700  0.24983300  1
  O  O11  1  0.74987700  0.74987700  0.24983300  1
  O  O12  1  0.25012300  0.25012300  0.75016700  1
  O  O13  1  0.74987700  0.25012300  0.75016700  1
  O  O14  1  0.25012300  0.74987700  0.75016700  1
  O  O15  1  0.74987700  0.74987700  0.75016700  1
  O  O16  1  0.25937800  0.00000000  0.00000000  1
  O  O17  1  0.74062200  0.00000000  0.00000000  1
  O  O18  1  0.23122700  0.50000000  0.00000000  1
  O  O19  1  0.76877300  0.50000000  0.00000000  1
  O  O20  1  0.25131500  0.00000000  0.50000000  1
  O  O21  1  0.74868500  0.00000000  0.50000000  1
  O  O22  1  0.24665400  0.50000000  0.50000000  1
  O  O23  1  0.75334600  0.50000000  0.50000000  1
  O  O24  1  0.00000000  0.25937800  0.00000000  1
  O  O25  1  0.50000000  0.23122700  0.00000000  1
  O  O26  1  0.00000000  0.74062200  0.00000000  1
  O  O27  1  0.50000000  0.76877300  0.00000000  1
  O  O28  1  0.00000000  0.25131500  0.50000000  1
  O  O29  1  0.50000000  0.24665400  0.50000000  1
  O  O30  1  0.00000000  0.74868500  0.50000000  1
  O  O31  1  0.50000000  0.75334600  0.50000000  1
loop_
_geom_bond_atom_site_label_1
_geom_bond_atom_site_label_2
_geom_bond_distance
_geom_bond_site_symmetry_2
Ca0 O26 2.242080 1_545
Ca0 O24 2.242080 1_555
Ca0 O16 2.242080 1_555
Ca0 O17 2.242080 1_455
Ca0 O0 2.267261 1_555
Ca0 O4 2.267261 1_554
Mg0 O25 1.998741 1_555
Mg0 O27 1.998741 1_545
Mg0 O17 2.079952 1_555
Mg0 O16 2.079952 1_555
Mg0 O1 2.210025 1_555
Mg0 O5 2.210025 1_554
Mg1 O18 1.998741 1_555
Mg1 O19 1.998741 1_455
Mg1 O26 2.079952 1_555
Mg1 O24 2.079952 1_555
Mg1 O2 2.210025 1_555
Mg1 O6 2.210025 1_554
Mg2 O0 2.050476 1_555
Mg2 O4 2.050476 1_555
Mg2 O28 2.172383 1_555
Mg2 O20 2.172383 1_555
Mg2 O30 2.172383 1_545
Mg2 O21 2.172383 1_455
Mg3 O5 2.107712 1_555
Mg3 O1 2.107712 1_555
Mg3 O29 2.132093 1_555
Mg3 O31 2.132093 1_545
Mg3 O21 2.149649 1_555
Mg3 O20 2.149649 1_555
Mg4 O6 2.107712 1_555
Mg4 O2 2.107712 1_555
Mg4 O22 2.132093 1_555
Mg4 O23 2.132093 1_455
Mg4 O30 2.149649 1_555
Mg4 O28 2.149649 1_555
Mg5 O3 1.984000 1_555
Mg5 O7 1.984000 1_555
Mg5 O23 2.189939 1_555
Mg5 O31 2.189939 1_555
Mg5 O22 2.189939 1_555
Mg5 O29 2.189939 1_555
Mg6 O24 2.146222 1_555
Mg6 O16 2.146222 1_555
Mg6 O8 2.157578 1_555
Mg6 O12 2.157578 1_554
Mg6 O25 2.182890 1_555
Mg6 O18 2.182890 1_555
Mg7 O17 2.146222 1_555
Mg7 O24 2.146222 1_655
Mg7 O9 2.157578 1_555
Mg7 O13 2.157578 1_554
Mg7 O25 2.182890 1_555
Mg7 O19 2.182890 1_555
Mg8 O26 2.146222 1_555
Mg8 O16 2.146222 1_565
Mg8 O10 2.157578 1_555
Mg8 O14 2.157578 1_554
Mg8 O27 2.182890 1_555
Mg8 O18 2.182890 1_555
Mg9 O26 2.146222 1_655
Mg9 O17 2.146222 1_565
Mg9 O11 2.157578 1_555
Mg9 O15 2.157578 1_554
Mg9 O27 2.182890 1_555
Mg9 O19 2.182890 1_555
Mg10 O20 2.159438 1_555
Mg10 O28 2.159438 1_555
Mg10 O12 2.160314 1_555
Mg10 O8 2.160314 1_555
Mg10 O22 2.162805 1_555
Mg10 O29 2.162805 1_555
Mg11 O21 2.159438 1_555
Mg11 O28 2.159438 1_655
Mg11 O13 2.160314 1_555
Mg11 O9 2.160314 1_555
Mg11 O29 2.162805 1_555
Mg11 O23 2.162805 1_555
Mg12 O30 2.159438 1_555
Mg12 O20 2.159438 1_565
Mg12 O14 2.160314 1_555
Mg12 O10 2.160314 1_555
Mg12 O22 2.162805 1_555
Mg12 O31 2.162805 1_555
Mg13 O21 2.159438 1_565
Mg13 O30 2.159438 1_655
Mg13 O15 2.160314 1_555
Mg13 O11 2.160314 1_555
Mg13 O31 2.162805 1_555
Mg13 O23 2.162805 1_555
Mg14 O20 2.129376 1_555
Mg14 O1 2.138184 1_555
Mg14 O8 2.162411 1_555
Mg14 O10 2.162411 1_545
Mg14 O0 2.185381 1_555
Mg14 O16 2.189165 1_555
Mg15 O21 2.129376 1_555
Mg15 O1 2.138184 1_555
Mg15 O9 2.162411 1_555
Mg15 O11 2.162411 1_545
Mg15 O0 2.185381 1_655
Mg15 O17 2.189165 1_555
Mg16 O22 2.113438 1_555
Mg16 O2 2.118512 1_555
Mg16 O8 2.160901 1_555
Mg16 O10 2.160901 1_555
Mg16 O3 2.207323 1_555
Mg16 O18 2.207594 1_555
Mg17 O23 2.113438 1_555
Mg17 O2 2.118512 1_655
Mg17 O11 2.160901 1_555
Mg17 O9 2.160901 1_555
Mg17 O3 2.207323 1_555
Mg17 O19 2.207594 1_555
Mg18 O20 2.129376 1_555
Mg18 O5 2.138184 1_555
Mg18 O14 2.162411 1_545
Mg18 O12 2.162411 1_555
Mg18 O4 2.185381 1_555
Mg18 O16 2.189165 1_556
Mg19 O21 2.129376 1_555
Mg19 O5 2.138184 1_555
Mg19 O15 2.162411 1_545
Mg19 O13 2.162411 1_555
Mg19 O4 2.185381 1_655
Mg19 O17 2.189165 1_556
Mg20 O22 2.113438 1_555
Mg20 O6 2.118512 1_555
Mg20 O12 2.160901 1_555
Mg20 O14 2.160901 1_555
Mg20 O7 2.207323 1_555
Mg20 O18 2.207594 1_556
Mg21 O23 2.113438 1_555
Mg21 O6 2.118512 1_655
Mg21 O13 2.160901 1_555
Mg21 O15 2.160901 1_555
Mg21 O7 2.207323 1_555
Mg21 O19 2.207594 1_556
Mg22 O28 2.129376 1_555
Mg22 O2 2.138184 1_555
Mg22 O8 2.162411 1_555
Mg22 O9 2.162411 1_455
Mg22 O0 2.185381 1_555
Mg22 O24 2.189165 1_555
Mg23 O29 2.113438 1_555
Mg23 O1 2.118512 1_555
Mg23 O8 2.160901 1_555
Mg23 O9 2.160901 1_555
Mg23 O3 2.207323 1_555
Mg23 O25 2.207594 1_555
Mg24 O30 2.129376 1_555
Mg24 O2 2.138184 1_555
Mg24 O10 2.162411 1_555
Mg24 O11 2.162411 1_455
Mg24 O0 2.185381 1_565
Mg24 O26 2.189165 1_555
Mg25 O31 2.113438 1_555
Mg25 O1 2.118512 1_565
Mg25 O11 2.160901 1_555
Mg25 O10 2.160901 1_555
Mg25 O3 2.207323 1_555
Mg25 O27 2.207594 1_555
Mg26 O28 2.129376 1_555
Mg26 O6 2.138184 1_555
Mg26 O13 2.162411 1_455
Mg26 O12 2.162411 1_555
Mg26 O4 2.185381 1_555
Mg26 O24 2.189165 1_556
Mg27 O29 2.113438 1_555
Mg27 O5 2.118512 1_555
Mg27 O13 2.160901 1_555
Mg27 O12 2.160901 1_555
Mg27 O7 2.207323 1_555
Mg27 O25 2.207594 1_556
Mg28 O30 2.129376 1_555
Mg28 O6 2.138184 1_555
Mg28 O14 2.162411 1_555
Mg28 O15 2.162411 1_455
Mg28 O4 2.185381 1_565
Mg28 O26 2.189165 1_556
Mg29 O31 2.113438 1_555
Mg29 O5 2.118512 1_565
Mg29 O14 2.160901 1_555
Mg29 O15 2.160901 1_555
Mg29 O7 2.207323 1_555
Mg29 O27 2.207594 1_556
O3 Sr0 2.333737 1_555
O7 Sr0 2.333737 1_556
O18 Sr0 2.323291 1_555
O19 Sr0 2.323291 1_555
O25 Sr0 2.323291 1_555
O27 Sr0 2.323291 1_555
