# generated using pymatgen
data_NaMnO2
_symmetry_space_group_name_H-M   'P 1'
_cell_length_a   2.86494068
_cell_length_b   3.17517304
_cell_length_c   5.50705057
_cell_angle_alpha   78.05379200
_cell_angle_beta   74.91465192
_cell_angle_gamma   63.18536064
_symmetry_Int_Tables_number   1
_chemical_formula_structural   NaMnO2
_chemical_formula_sum   'Na1 Mn1 O2'
_cell_volume   42.93445886
_cell_formula_units_Z   1
loop_
 _symmetry_equiv_pos_site_id
 _symmetry_equiv_pos_as_xyz
  1  'x, y, z'
loop_
 _atom_site_type_symbol
 _atom_site_label
 _atom_site_symmetry_multiplicity
 _atom_site_fract_x
 _atom_site_fract_y
 _atom_site_fract_z
 _atom_site_occupancy
  Na  Na0  1  0.49999991  0.49999997  0.50000137  1
  Mn  Mn0  1  0.00000363  0.99999503  0.00000039  1
  O  O0  1  0.29452230  0.20360897  0.20715868  1
  O  O1  1  0.70547416  0.79640003  0.79284056  1
loop_
_geom_bond_atom_site_label_1
_geom_bond_atom_site_label_2
_geom_bond_distance
_geom_bond_site_symmetry_2
Na0 O1 2.335092 1_455
Na0 O0 2.335093 1_655
Na0 O1 2.335654 1_555
Na0 O0 2.335657 1_555
Na0 O1 2.398827 1_545
Na0 O0 2.398857 1_565
Mn0 O1 1.931308 1_454
Mn0 O0 1.931318 1_565
Mn0 O1 1.931504 1_554
Mn0 O0 1.931523 1_465
Mn0 O0 2.406118 1_555
Mn0 O1 2.406169 1_464
