# generated using pymatgen
data_CeBi3
_symmetry_space_group_name_H-M   'P 1'
_cell_length_a   6.53784796
_cell_length_b   6.53784796
_cell_length_c   6.53784796
_cell_angle_alpha   138.08778443
_cell_angle_beta   138.08778443
_cell_angle_gamma   60.76857926
_symmetry_Int_Tables_number   1
_chemical_formula_structural   CeBi3
_chemical_formula_sum   'Ce1 Bi3'
_cell_volume   123.34546777
_cell_formula_units_Z   1
loop_
 _symmetry_equiv_pos_site_id
 _symmetry_equiv_pos_as_xyz
  1  'x, y, z'
loop_
 _atom_site_type_symbol
 _atom_site_label
 _atom_site_symmetry_multiplicity
 _atom_site_fract_x
 _atom_site_fract_y
 _atom_site_fract_z
 _atom_site_occupancy
  Ce  Ce0  1  0.00000000  0.00000000  0.00000000  1
  Bi  Bi0  1  0.75000000  0.25000000  0.50000000  1
  Bi  Bi1  1  0.25000000  0.75000000  0.50000000  1
  Bi  Bi2  1  0.50000000  0.50000000  0.00000000  1
loop_
_geom_bond_atom_site_label_1
_geom_bond_atom_site_label_2
_geom_bond_distance
_geom_bond_site_symmetry_2
Bi0 Bi1 3.306825 1_645
Bi0 Bi1 3.306825 1_544
Bi0 Bi1 3.306825 1_555
Bi0 Bi1 3.306825 1_656
Bi0 Bi2 3.663282 1_555
Bi0 Ce0 3.663282 1_666
Bi0 Bi2 3.663282 1_545
Bi0 Ce0 3.663282 1_656
Bi0 Bi2 3.663282 1_556
Bi0 Ce0 3.663282 1_555
Bi0 Ce0 3.663282 1_655
Bi0 Bi2 3.663282 1_656
Bi1 Ce0 3.663282 1_565
Bi1 Bi2 3.663282 1_455
Bi1 Bi2 3.663282 1_555
Bi1 Ce0 3.663282 1_666
Bi1 Bi2 3.663282 1_566
Bi1 Ce0 3.663282 1_566
Bi1 Bi2 3.663282 1_556
Bi1 Ce0 3.663282 1_555
Bi2 Ce0 3.306825 1_666
Bi2 Ce0 3.306825 1_554
Bi2 Ce0 3.306825 1_565
Bi2 Ce0 3.306825 1_655
