# generated using pymatgen
data_GaCuSe2
_symmetry_space_group_name_H-M   'P 1'
_cell_length_a   3.77441600
_cell_length_b   3.77441600
_cell_length_c   5.26589100
_cell_angle_alpha   90.00000000
_cell_angle_beta   90.00000000
_cell_angle_gamma   90.00000000
_symmetry_Int_Tables_number   1
_chemical_formula_structural   GaCuSe2
_chemical_formula_sum   'Ga1 Cu1 Se2'
_cell_volume   75.01902136
_cell_formula_units_Z   1
loop_
 _symmetry_equiv_pos_site_id
 _symmetry_equiv_pos_as_xyz
  1  'x, y, z'
loop_
 _atom_site_type_symbol
 _atom_site_label
 _atom_site_symmetry_multiplicity
 _atom_site_fract_x
 _atom_site_fract_y
 _atom_site_fract_z
 _atom_site_occupancy
  Ga  Ga0  1  0.50000000  0.50000000  0.50000000  1
  Cu  Cu0  1  0.00000000  0.00000000  0.00000000  1
  Se  Se0  1  0.00000000  0.00000000  0.50000000  1
  Se  Se1  1  0.50000000  0.50000000  0.00000000  1
loop_
_geom_bond_atom_site_label_1
_geom_bond_atom_site_label_2
_geom_bond_distance
_geom_bond_site_symmetry_2
Ga0 Se1 2.632945 1_555
Ga0 Se1 2.632945 1_556
Ga0 Se0 2.668915 1_655
Ga0 Se0 2.668915 1_665
Ga0 Se0 2.668915 1_565
Ga0 Se0 2.668915 1_555
Cu0 Se0 2.632945 1_555
Cu0 Se0 2.632945 1_554
Cu0 Se1 2.668915 1_555
Cu0 Se1 2.668915 1_545
Cu0 Se1 2.668915 1_455
Cu0 Se1 2.668915 1_445
