# generated using pymatgen
data_Ce3Mg2InAu3
_symmetry_space_group_name_H-M   'P 1'
_cell_length_a   7.70162662
_cell_length_b   7.70162662
_cell_length_c   4.25713200
_cell_angle_alpha   90.00000000
_cell_angle_beta   90.00000000
_cell_angle_gamma   119.26638819
_symmetry_Int_Tables_number   1
_chemical_formula_structural   Ce3Mg2InAu3
_chemical_formula_sum   'Ce3 Mg2 In1 Au3'
_cell_volume   220.28041949
_cell_formula_units_Z   1
loop_
 _symmetry_equiv_pos_site_id
 _symmetry_equiv_pos_as_xyz
  1  'x, y, z'
loop_
 _atom_site_type_symbol
 _atom_site_label
 _atom_site_symmetry_multiplicity
 _atom_site_fract_x
 _atom_site_fract_y
 _atom_site_fract_z
 _atom_site_occupancy
  Ce  Ce0  1  0.58354800  0.58354800  0.00000000  1
  Ce  Ce1  1  0.41327600  0.99949100  0.00000000  1
  Ce  Ce2  1  0.99949100  0.41327600  0.00000000  1
  Mg  Mg0  1  0.75687900  0.00042300  0.50000000  1
  Mg  Mg1  1  0.00042300  0.75687900  0.50000000  1
  In  In0  1  0.24751400  0.24751400  0.50000000  1
  Au  Au0  1  0.33569800  0.67383300  0.50000000  1
  Au  Au1  1  0.67383300  0.33569800  0.50000000  1
  Au  Au2  1  0.98923800  0.98923800  0.00000000  1
loop_
_geom_bond_atom_site_label_1
_geom_bond_atom_site_label_2
_geom_bond_distance
_geom_bond_site_symmetry_2
Ce0 In0 3.373079 1_554
Ce0 In0 3.373079 1_555
Ce1 In0 3.491950 1_564
Ce1 In0 3.491950 1_565
Ce2 In0 3.491950 1_655
Ce2 In0 3.491950 1_654
In0 Mg0 3.296832 1_455
In0 Mg1 3.296832 1_545
Au0 Mg1 2.948119 1_555
Au0 Mg0 2.978476 1_565
Au0 In0 3.010209 1_555
Au0 Ce1 3.116592 1_555
Au0 Ce1 3.116592 1_556
Au0 Ce0 3.155274 1_556
Au0 Ce0 3.155274 1_555
Au0 Ce2 3.190920 1_455
Au0 Ce2 3.190920 1_456
Au1 Mg0 2.948119 1_555
Au1 Mg1 2.978476 1_655
Au1 In0 3.010209 1_555
Au1 Ce2 3.116592 1_555
Au1 Ce2 3.116592 1_556
Au1 Ce0 3.155274 1_556
Au1 Ce0 3.155274 1_555
Au1 Ce1 3.190920 1_545
Au1 Ce1 3.190920 1_546
Au2 Mg0 2.809164 1_564
Au2 Mg1 2.809164 1_654
Au2 Mg0 2.809164 1_565
Au2 Mg1 2.809164 1_655
Au2 In0 2.928406 1_664
Au2 In0 2.928406 1_665
Au2 Ce0 3.159054 1_555
Au2 Ce1 3.227914 1_655
Au2 Ce2 3.227914 1_565
