# generated using pymatgen
data_Lu2MgSe4
_symmetry_space_group_name_H-M   'P 1'
_cell_length_a   8.08602137
_cell_length_b   8.08602080
_cell_length_c   8.08602009
_cell_angle_alpha   59.99999457
_cell_angle_beta   59.99999684
_cell_angle_gamma   59.99999565
_symmetry_Int_Tables_number   1
_chemical_formula_structural   Lu2MgSe4
_chemical_formula_sum   'Lu4 Mg2 Se8'
_cell_volume   373.84322482
_cell_formula_units_Z   2
loop_
 _symmetry_equiv_pos_site_id
 _symmetry_equiv_pos_as_xyz
  1  'x, y, z'
loop_
 _atom_site_type_symbol
 _atom_site_label
 _atom_site_symmetry_multiplicity
 _atom_site_fract_x
 _atom_site_fract_y
 _atom_site_fract_z
 _atom_site_occupancy
  Lu  Lu0  1  0.50000000  0.50000000  0.50000000  1
  Lu  Lu1  1  0.50000000  0.00000000  0.50000000  1
  Lu  Lu2  1  0.00000000  0.50000000  0.50000000  1
  Lu  Lu3  1  0.50000000  0.50000000  -0.00000000  1
  Mg  Mg0  1  0.87500000  0.87500000  0.87500000  1
  Mg  Mg1  1  0.12500000  0.12500000  0.12500000  1
  Se  Se0  1  0.25589116  0.25589116  0.73232553  1
  Se  Se1  1  0.74410884  0.74410884  0.74410884  1
  Se  Se2  1  0.74410884  0.74410884  0.26767447  1
  Se  Se3  1  0.25589116  0.73232553  0.25589116  1
  Se  Se4  1  0.25589116  0.25589116  0.25589116  1
  Se  Se5  1  0.26767447  0.74410884  0.74410884  1
  Se  Se6  1  0.74410884  0.26767447  0.74410884  1
  Se  Se7  1  0.73232553  0.25589116  0.25589116  1
loop_
_geom_bond_atom_site_label_1
_geom_bond_atom_site_label_2
_geom_bond_distance
_geom_bond_site_symmetry_2
Lu0 Se7 2.793098 1_555
Lu0 Se5 2.793098 1_555
Lu0 Se6 2.793098 1_555
Lu0 Se3 2.793098 1_555
Lu0 Se2 2.793098 1_555
Lu0 Se0 2.793098 1_555
Lu1 Se0 2.793092 1_555
Lu1 Se2 2.793092 1_545
Lu1 Se5 2.793092 1_545
Lu1 Se7 2.793092 1_555
Lu1 Se4 2.793098 1_555
Lu1 Se1 2.793098 1_545
Lu2 Se2 2.793092 1_455
Lu2 Se0 2.793092 1_555
Lu2 Se6 2.793092 1_455
Lu2 Se3 2.793092 1_555
Lu2 Se4 2.793098 1_555
Lu2 Se1 2.793098 1_455
Lu3 Se5 2.793092 1_554
Lu3 Se7 2.793092 1_555
Lu3 Se6 2.793092 1_554
Lu3 Se3 2.793092 1_555
Lu3 Se1 2.793098 1_554
Lu3 Se4 2.793098 1_555
Mg0 Se1 2.592512 1_555
Mg0 Se2 2.592518 1_556
Mg0 Se6 2.592518 1_565
Mg0 Se5 2.592519 1_655
Mg1 Se4 2.592512 1_555
Mg1 Se0 2.592518 1_554
Mg1 Se3 2.592518 1_545
Mg1 Se7 2.592519 1_455
