# generated using pymatgen
data_MgFe8(OF)8
_symmetry_space_group_name_H-M   'P 1'
_cell_length_a   5.11451871
_cell_length_b   5.24153222
_cell_length_c   11.82402544
_cell_angle_alpha   90.15000693
_cell_angle_beta   91.59247604
_cell_angle_gamma   95.05610885
_symmetry_Int_Tables_number   1
_chemical_formula_structural   MgFe8(OF)8
_chemical_formula_sum   'Mg1 Fe8 O8 F8'
_cell_volume   315.61802772
_cell_formula_units_Z   1
loop_
 _symmetry_equiv_pos_site_id
 _symmetry_equiv_pos_as_xyz
  1  'x, y, z'
loop_
 _atom_site_type_symbol
 _atom_site_label
 _atom_site_symmetry_multiplicity
 _atom_site_fract_x
 _atom_site_fract_y
 _atom_site_fract_z
 _atom_site_occupancy
  Mg  Mg0  1  0.51846900  0.04976800  0.73229100  1
  Fe  Fe0  1  0.95319300  0.93387000  0.00312500  1
  Fe  Fe1  1  0.07422200  0.04681500  0.25094500  1
  Fe  Fe2  1  0.99895800  0.92268200  0.49635900  1
  Fe  Fe3  1  0.03682300  0.03141500  0.75462100  1
  Fe  Fe4  1  0.59628300  0.40790600  0.12769400  1
  Fe  Fe5  1  0.44662300  0.55129400  0.61638800  1
  Fe  Fe6  1  0.41284300  0.56154200  0.88884800  1
  Fe  Fe7  1  0.45583000  0.56952100  0.36938700  1
  O  O0  1  0.20495900  0.82197500  0.36897100  1
  O  O1  1  0.22440000  0.86754200  0.62725100  1
  O  O2  1  0.19783000  0.83797800  0.88595900  1
  O  O3  1  0.35085800  0.32114100  0.24703200  1
  O  O4  1  0.32011900  0.34649800  0.75875600  1
  O  O5  1  0.69036600  0.64580300  0.00297100  1
  O  O6  1  0.69719700  0.67554100  0.49413300  1
  O  O7  1  0.83837700  0.15223200  0.12476900  1
  F  F0  1  0.18982700  0.82459300  0.12664000  1
  F  F1  1  0.29877600  0.30764000  0.00656500  1
  F  F2  1  0.27906500  0.32722100  0.48370000  1
  F  F3  1  0.72027100  0.67326800  0.24664600  1
  F  F4  1  0.67989100  0.73041000  0.76107200  1
  F  F5  1  0.84693700  0.14434700  0.37371200  1
  F  F6  1  0.78939400  0.16113900  0.62518600  1
  F  F7  1  0.77570800  0.14341500  0.87698200  1
loop_
_geom_bond_atom_site_label_1
_geom_bond_atom_site_label_2
_geom_bond_distance
_geom_bond_site_symmetry_2
Mg0 O4 1.959409 1_555
Mg0 O1 2.086549 1_545
Fe0 O5 1.931035 1_555
Fe0 O7 1.969873 1_565
Fe0 O2 1.985179 1_654
Fe1 O3 1.927924 1_555
Fe1 O0 1.969559 1_545
Fe1 O7 2.001967 1_455
Fe2 O6 1.925067 1_555
Fe2 O1 1.941696 1_655
Fe2 O0 1.959471 1_655
Fe3 O1 2.035943 1_545
Fe3 O2 2.049898 1_545
Fe3 O4 2.098365 1_555
Fe4 O7 1.903909 1_555
Fe4 O3 1.942857 1_555
Fe4 O5 1.975993 1_555
Fe5 O6 2.029019 1_555
Fe5 O4 2.086191 1_555
Fe5 O1 2.096442 1_555
Fe6 O2 1.894455 1_555
Fe6 O4 1.928119 1_555
Fe6 O5 1.952060 1_556
Fe7 O0 1.922565 1_555
Fe7 O6 1.944724 1_555
Fe7 O3 1.974830 1_555
F0 Fe0 1.988480 1_455
F0 Fe1 2.006816 1_565
F1 Fe6 1.991686 1_554
F1 Fe4 2.092069 1_555
F1 Fe0 2.519741 1_445
F2 Fe7 2.032671 1_555
F2 Fe5 2.076899 1_555
F2 Fe2 2.459480 1_445
F3 Fe4 2.024766 1_555
F3 Fe7 2.052993 1_555
F3 Fe1 2.546162 1_665
F4 Mg0 1.957141 1_565
F4 Fe6 2.200028 1_555
F4 Fe5 2.216343 1_555
F4 Fe3 2.308315 1_665
F5 Fe1 1.978493 1_655
F5 Fe2 2.040310 1_545
F6 Mg0 1.955359 1_555
F6 Fe3 2.110806 1_655
F6 Fe2 2.312618 1_545
F7 Fe0 2.089029 1_546
F7 Fe3 2.112461 1_655
F7 Mg0 2.157659 1_555
