# generated using pymatgen
data_Rb3(SO4)2
_symmetry_space_group_name_H-M   'P 1'
_cell_length_a   11.91535278
_cell_length_b   11.91535278
_cell_length_c   16.58320031
_cell_angle_alpha   68.90431619
_cell_angle_beta   68.90431619
_cell_angle_gamma   59.86690348
_symmetry_Int_Tables_number   1
_chemical_formula_structural   Rb3(SO4)2
_chemical_formula_sum   'Rb24 S16 O64'
_cell_volume   1852.30805700
_cell_formula_units_Z   8
loop_
 _symmetry_equiv_pos_site_id
 _symmetry_equiv_pos_as_xyz
  1  'x, y, z'
loop_
 _atom_site_type_symbol
 _atom_site_label
 _atom_site_symmetry_multiplicity
 _atom_site_fract_x
 _atom_site_fract_y
 _atom_site_fract_z
 _atom_site_occupancy
  Rb  Rb0  1  0.75085300  0.24914700  0.25000000  1
  Rb  Rb1  1  0.24914700  0.75085300  0.75000000  1
  Rb  Rb2  1  0.74883200  0.74935500  0.75013300  1
  Rb  Rb3  1  0.25064500  0.25116800  0.74986700  1
  Rb  Rb4  1  0.25116800  0.25064500  0.24986700  1
  Rb  Rb5  1  0.74935500  0.74883200  0.25013300  1
  Rb  Rb6  1  0.75002900  0.24997100  0.75000000  1
  Rb  Rb7  1  0.24997100  0.75002900  0.25000000  1
  Rb  Rb8  1  0.86377000  0.34386100  0.93973800  1
  Rb  Rb9  1  0.65613900  0.13623000  0.56026200  1
  Rb  Rb10  1  0.13623000  0.65613900  0.06026200  1
  Rb  Rb11  1  0.34386100  0.86377000  0.43973800  1
  Rb  Rb12  1  0.64720800  0.63700500  0.05993200  1
  Rb  Rb13  1  0.36299500  0.35279200  0.44006800  1
  Rb  Rb14  1  0.35279200  0.36299500  0.94006800  1
  Rb  Rb15  1  0.63700500  0.64720800  0.55993200  1
  Rb  Rb16  1  0.15611400  0.14936500  0.06029200  1
  Rb  Rb17  1  0.85063500  0.84388600  0.43970800  1
  Rb  Rb18  1  0.84388600  0.85063500  0.93970800  1
  Rb  Rb19  1  0.14936500  0.15611400  0.56029200  1
  Rb  Rb20  1  0.64724100  0.14538500  0.06039100  1
  Rb  Rb21  1  0.85461500  0.35275900  0.43960900  1
  Rb  Rb22  1  0.35275900  0.85461500  0.93960900  1
  Rb  Rb23  1  0.14538500  0.64724100  0.56039100  1
  S  S0  1  0.95984800  0.96917300  0.13663000  1
  S  S1  1  0.03082700  0.04015200  0.36337000  1
  S  S2  1  0.04015200  0.03082700  0.86337000  1
  S  S3  1  0.96917300  0.95984800  0.63663000  1
  S  S4  1  0.95292900  0.45878400  0.13579000  1
  S  S5  1  0.54121600  0.04707100  0.36421000  1
  S  S6  1  0.04707100  0.54121600  0.86421000  1
  S  S7  1  0.45878400  0.95292900  0.63579000  1
  S  S8  1  0.43766700  0.45813300  0.13577800  1
  S  S9  1  0.54186700  0.56233300  0.36422200  1
  S  S10  1  0.56233300  0.54186700  0.86422200  1
  S  S11  1  0.45813300  0.43766700  0.63577800  1
  S  S12  1  0.53144400  0.06216800  0.86432600  1
  S  S13  1  0.93783200  0.46855600  0.63567400  1
  S  S14  1  0.46855600  0.93783200  0.13567400  1
  S  S15  1  0.06216800  0.53144400  0.36432600  1
  O  O0  1  0.93235700  0.94793600  0.23588300  1
  O  O1  1  0.05206400  0.06764300  0.26411700  1
  O  O2  1  0.06764300  0.05206400  0.76411700  1
  O  O3  1  0.94793600  0.93235700  0.73588300  1
  O  O4  1  0.90090000  0.11401600  0.09678500  1
  O  O5  1  0.88598400  0.09910000  0.40321500  1
  O  O6  1  0.09910000  0.88598400  0.90321500  1
  O  O7  1  0.11401600  0.90090000  0.59678500  1
  O  O8  1  0.10498900  0.90736600  0.10055400  1
  O  O9  1  0.09263400  0.89501100  0.39944600  1
  O  O10  1  0.89501100  0.09263400  0.89944600  1
  O  O11  1  0.90736600  0.10498900  0.60055400  1
  O  O12  1  0.89334600  0.90180500  0.12222300  1
  O  O13  1  0.09819500  0.10665400  0.37777700  1
  O  O14  1  0.10665400  0.09819500  0.87777700  1
  O  O15  1  0.90180500  0.89334600  0.62222300  1
  O  O16  1  0.91826000  0.43179000  0.23427400  1
  O  O17  1  0.56821000  0.08174000  0.26572600  1
  O  O18  1  0.08174000  0.56821000  0.76572600  1
  O  O19  1  0.43179000  0.91826000  0.73427400  1
  O  O20  1  0.10087700  0.39655900  0.10502800  1
  O  O21  1  0.60344100  0.89912300  0.39497200  1
  O  O22  1  0.89912300  0.60344100  0.89497200  1
  O  O23  1  0.39655900  0.10087700  0.60502800  1
  O  O24  1  0.89961800  0.60557800  0.09930500  1
  O  O25  1  0.39442200  0.10038200  0.40069500  1
  O  O26  1  0.10038200  0.39442200  0.90069500  1
  O  O27  1  0.60557800  0.89961800  0.59930500  1
  O  O28  1  0.89272100  0.40063700  0.10616300  1
  O  O29  1  0.59936300  0.10727900  0.39383700  1
  O  O30  1  0.10727900  0.59936300  0.89383700  1
  O  O31  1  0.40063700  0.89272100  0.60616300  1
  O  O32  1  0.39083600  0.42874400  0.23524700  1
  O  O33  1  0.57125600  0.60916400  0.26475300  1
  O  O34  1  0.60916400  0.57125600  0.76475300  1
  O  O35  1  0.42874400  0.39083600  0.73524700  1
  O  O36  1  0.38890300  0.40069900  0.09696400  1
  O  O37  1  0.59930100  0.61109700  0.40303600  1
  O  O38  1  0.61109700  0.59930100  0.90303600  1
  O  O39  1  0.40069900  0.38890300  0.59696400  1
  O  O40  1  0.38848000  0.60430900  0.10081200  1
  O  O41  1  0.39569100  0.61152000  0.39918800  1
  O  O42  1  0.61152000  0.39569100  0.89918800  1
  O  O43  1  0.60430900  0.38848000  0.60081200  1
  O  O44  1  0.58619700  0.39281900  0.11813300  1
  O  O45  1  0.60718100  0.41380300  0.38186700  1
  O  O46  1  0.41380300  0.60718100  0.88186700  1
  O  O47  1  0.39281900  0.58619700  0.61813300  1
  O  O48  1  0.55354900  0.10796100  0.76458100  1
  O  O49  1  0.89203900  0.44645100  0.73541900  1
  O  O50  1  0.44645100  0.89203900  0.23541900  1
  O  O51  1  0.10796100  0.55354900  0.26458100  1
  O  O52  1  0.59456100  0.11253900  0.89742600  1
  O  O53  1  0.88746100  0.40543900  0.60257400  1
  O  O54  1  0.40543900  0.88746100  0.10257400  1
  O  O55  1  0.11253900  0.59456100  0.39742600  1
  O  O56  1  0.38672400  0.11127100  0.90388500  1
  O  O57  1  0.88872900  0.61327600  0.59611500  1
  O  O58  1  0.61327600  0.88872900  0.09611500  1
  O  O59  1  0.11127100  0.38672400  0.40388500  1
  O  O60  1  0.59742800  0.91333200  0.88302900  1
  O  O61  1  0.08666800  0.40257200  0.61697100  1
  O  O62  1  0.40257200  0.08666800  0.11697100  1
  O  O63  1  0.91333200  0.59742800  0.38302900  1
loop_
_geom_bond_atom_site_label_1
_geom_bond_atom_site_label_2
_geom_bond_distance
_geom_bond_site_symmetry_2
O0 S0 1.508550 1_555
O0 Rb17 3.120314 1_555
O0 Rb0 3.171812 1_565
O0 Rb7 3.349340 1_655
O1 S1 1.508550 1_555
O1 Rb16 3.120314 1_555
O1 Rb0 3.171812 1_455
O1 Rb7 3.349340 1_545
O2 S2 1.508550 1_555
O2 Rb19 3.120314 1_555
O2 Rb1 3.171812 1_545
O2 Rb6 3.349340 1_455
O3 S3 1.508550 1_555
O3 Rb18 3.120314 1_555
O3 Rb1 3.171812 1_655
O3 Rb6 3.349340 1_565
O4 S0 1.484797 1_545
O4 Rb8 2.992874 1_554
O4 Rb0 3.004877 1_555
O4 Rb16 3.093358 1_655
O4 Rb20 3.107338 1_555
O5 S1 1.484797 1_655
O5 Rb9 2.992874 1_555
O5 Rb0 3.004877 1_555
O5 Rb17 3.093358 1_545
O5 Rb21 3.107338 1_555
O6 S2 1.484797 1_565
O6 Rb10 2.992874 1_556
O6 Rb1 3.004877 1_555
O6 Rb18 3.093358 1_455
O6 Rb22 3.107338 1_555
O7 S3 1.484797 1_455
O7 Rb11 2.992874 1_555
O7 Rb1 3.004877 1_555
O7 Rb19 3.093358 1_565
O7 Rb23 3.107338 1_555
O8 S0 1.478090 1_455
O8 Rb7 3.021021 1_555
O8 Rb16 3.035854 1_565
O8 Rb10 3.112521 1_555
O8 Rb22 3.147510 1_554
O9 S1 1.478090 1_565
O9 Rb7 3.021021 1_555
O9 Rb17 3.035854 1_455
O9 Rb11 3.112521 1_555
O9 Rb23 3.147510 1_555
O10 S2 1.478090 1_655
O10 Rb6 3.021021 1_555
O10 Rb18 3.035854 1_545
O10 Rb8 3.112521 1_555
O10 Rb20 3.147510 1_556
O11 S3 1.478090 1_545
O11 Rb6 3.021021 1_555
O11 Rb19 3.035854 1_655
O11 Rb9 3.112521 1_555
O11 Rb21 3.147510 1_555
O12 S0 1.497422 1_555
O12 Rb5 2.915855 1_555
O12 Rb10 3.085253 1_655
O12 Rb20 3.090500 1_565
O13 S1 1.497422 1_555
O13 Rb4 2.915855 1_555
O13 Rb11 3.085253 1_545
O13 Rb21 3.090500 1_455
O14 S2 1.497422 1_555
O14 Rb3 2.915855 1_555
O14 Rb8 3.085253 1_455
O14 Rb22 3.090500 1_545
O15 S3 1.497422 1_555
O15 Rb2 2.915855 1_555
O15 Rb9 3.085253 1_565
O15 Rb23 3.090500 1_655
O16 S4 1.486939 1_555
O16 Rb21 3.099444 1_555
O16 Rb5 3.330337 1_555
O16 Rb4 3.492966 1_655
O17 S5 1.486939 1_555
O17 Rb20 3.099444 1_555
O17 Rb4 3.330337 1_555
O17 Rb5 3.492966 1_545
O18 S6 1.486939 1_555
O18 Rb23 3.099444 1_555
O18 Rb3 3.330337 1_555
O18 Rb2 3.492966 1_455
O19 S7 1.486939 1_555
O19 Rb22 3.099444 1_555
O19 Rb2 3.330337 1_555
O19 Rb3 3.492966 1_565
O20 S4 1.493395 1_455
O20 Rb16 2.988988 1_555
O20 Rb4 2.993816 1_555
O20 Rb10 3.118538 1_555
O20 Rb14 3.213190 1_554
O21 S5 1.493395 1_565
O21 Rb17 2.988988 1_555
O21 Rb5 2.993816 1_555
O21 Rb11 3.118538 1_555
O21 Rb15 3.213190 1_555
O22 S6 1.493395 1_655
O22 Rb18 2.988988 1_555
O22 Rb2 2.993816 1_555
O22 Rb8 3.118538 1_555
O22 Rb12 3.213190 1_556
O23 S7 1.493395 1_545
O23 Rb19 2.988988 1_555
O23 Rb3 2.993816 1_555
O23 Rb9 3.118538 1_555
O23 Rb13 3.213190 1_555
O24 S4 1.492737 1_555
O24 Rb10 2.973419 1_655
O24 Rb5 3.025973 1_555
O24 Rb12 3.117493 1_555
O24 Rb18 3.118813 1_554
O25 S5 1.492737 1_555
O25 Rb11 2.973419 1_545
O25 Rb4 3.025973 1_555
O25 Rb13 3.117493 1_555
O25 Rb19 3.118813 1_555
O26 S6 1.492737 1_555
O26 Rb8 2.973419 1_455
O26 Rb3 3.025973 1_555
O26 Rb14 3.117493 1_555
O26 Rb16 3.118813 1_556
O27 S7 1.492737 1_555
O27 Rb9 2.973419 1_565
O27 Rb2 3.025973 1_555
O27 Rb15 3.117493 1_555
O27 Rb17 3.118813 1_555
O28 S4 1.494618 1_555
O28 Rb12 2.977531 1_555
O28 Rb0 2.977738 1_555
O28 Rb16 3.143096 1_655
O28 Rb8 3.233749 1_554
O29 S5 1.494618 1_555
O29 Rb13 2.977531 1_555
O29 Rb0 2.977738 1_555
O29 Rb17 3.143096 1_545
O29 Rb9 3.233749 1_555
O30 S6 1.494618 1_555
O30 Rb14 2.977531 1_555
O30 Rb1 2.977738 1_555
O30 Rb18 3.143096 1_455
O30 Rb10 3.233749 1_556
O31 S7 1.494618 1_555
O31 Rb15 2.977531 1_555
O31 Rb1 2.977738 1_555
O31 Rb19 3.143096 1_565
O31 Rb11 3.233749 1_555
O32 S8 1.507546 1_555
O32 Rb13 3.121448 1_555
O32 Rb4 3.196354 1_555
O32 Rb7 3.385208 1_555
O33 S9 1.507546 1_555
O33 Rb12 3.121448 1_555
O33 Rb5 3.196354 1_555
O33 Rb7 3.385208 1_555
O34 S10 1.507546 1_555
O34 Rb15 3.121448 1_555
O34 Rb2 3.196354 1_555
O34 Rb6 3.385208 1_555
O35 S11 1.507546 1_555
O35 Rb14 3.121448 1_555
O35 Rb3 3.196354 1_555
O35 Rb6 3.385208 1_555
O36 S8 1.485185 1_555
O36 Rb14 2.999653 1_554
O36 Rb4 3.001096 1_555
O36 Rb10 3.079568 1_555
O36 Rb20 3.111283 1_555
O37 S9 1.485185 1_555
O37 Rb15 2.999653 1_555
O37 Rb5 3.001096 1_555
O37 Rb11 3.079568 1_555
O37 Rb21 3.111283 1_555
O38 S10 1.485185 1_555
O38 Rb12 2.999653 1_556
O38 Rb2 3.001096 1_555
O38 Rb8 3.079568 1_555
O38 Rb22 3.111283 1_555
O39 S11 1.485185 1_555
O39 Rb13 2.999653 1_555
O39 Rb3 3.001096 1_555
O39 Rb9 3.079568 1_555
O39 Rb23 3.111283 1_555
O40 S8 1.485290 1_555
O40 Rb7 3.022449 1_555
O40 Rb10 3.026518 1_555
O40 Rb12 3.102665 1_555
O40 Rb22 3.166681 1_554
O41 S9 1.485290 1_555
O41 Rb7 3.022449 1_555
O41 Rb11 3.026518 1_555
O41 Rb13 3.102665 1_555
O41 Rb23 3.166681 1_555
O42 S10 1.485290 1_555
O42 Rb6 3.022449 1_555
O42 Rb8 3.026518 1_555
O42 Rb14 3.102665 1_555
O42 Rb20 3.166681 1_556
O43 S11 1.485290 1_555
O43 Rb6 3.022449 1_555
O43 Rb9 3.026518 1_555
O43 Rb15 3.102665 1_555
O43 Rb21 3.166681 1_555
O44 S8 1.493892 1_555
O44 Rb0 2.929716 1_555
O44 Rb20 3.084799 1_555
O44 Rb12 3.085882 1_555
O44 Rb8 3.506107 1_554
O45 S9 1.493892 1_555
O45 Rb0 2.929716 1_555
O45 Rb21 3.084799 1_555
O45 Rb13 3.085882 1_555
O45 Rb9 3.506107 1_555
O46 S10 1.493892 1_555
O46 Rb1 2.929716 1_555
O46 Rb22 3.084799 1_555
O46 Rb14 3.085882 1_555
O46 Rb10 3.506107 1_556
O47 S11 1.493892 1_555
O47 Rb1 2.929716 1_555
O47 Rb23 3.084799 1_555
O47 Rb15 3.085882 1_555
O47 Rb11 3.506107 1_555
O48 S12 1.511322 1_555
O48 Rb9 3.114224 1_555
O48 Rb3 3.185662 1_555
O48 Rb6 3.417291 1_555
O49 S13 1.511322 1_555
O49 Rb8 3.114224 1_555
O49 Rb2 3.185662 1_555
O49 Rb6 3.417291 1_555
O50 S14 1.511322 1_555
O50 Rb11 3.114224 1_555
O50 Rb5 3.185662 1_555
O50 Rb7 3.417291 1_555
O51 S15 1.511322 1_555
O51 Rb10 3.114224 1_555
O51 Rb4 3.185662 1_555
O51 Rb7 3.417291 1_555
O52 S12 1.488162 1_555
O52 Rb6 2.998973 1_555
O52 Rb14 3.020905 1_555
O52 Rb18 3.109996 1_545
O52 Rb20 3.174859 1_556
O53 S13 1.488162 1_555
O53 Rb6 2.998973 1_555
O53 Rb15 3.020905 1_555
O53 Rb19 3.109996 1_655
O53 Rb21 3.174859 1_555
O54 S14 1.488162 1_555
O54 Rb7 2.998973 1_555
O54 Rb12 3.020905 1_555
O54 Rb16 3.109996 1_565
O54 Rb22 3.174859 1_554
O55 S15 1.488162 1_555
O55 Rb7 2.998973 1_555
O55 Rb13 3.020905 1_555
O55 Rb17 3.109996 1_455
O55 Rb23 3.174859 1_555
O56 S12 1.481624 1_555
O56 Rb16 2.991432 1_556
O56 Rb3 3.022224 1_555
O56 Rb14 3.069710 1_555
O56 Rb22 3.103689 1_545
O57 S13 1.481624 1_555
O57 Rb17 2.991432 1_555
O57 Rb2 3.022224 1_555
O57 Rb15 3.069710 1_555
O57 Rb23 3.103689 1_655
O58 S14 1.481624 1_555
O58 Rb18 2.991432 1_554
O58 Rb5 3.022224 1_555
O58 Rb12 3.069710 1_555
O58 Rb20 3.103689 1_565
O59 S15 1.481624 1_555
O59 Rb19 2.991432 1_555
O59 Rb4 3.022224 1_555
O59 Rb13 3.069710 1_555
O59 Rb21 3.103689 1_455
O60 S12 1.496355 1_565
O60 Rb2 2.937286 1_555
O60 Rb18 3.056826 1_555
O60 Rb22 3.078176 1_555
O60 Rb12 3.483879 1_556
O61 S13 1.496355 1_455
O61 Rb3 2.937286 1_555
O61 Rb19 3.056826 1_555
O61 Rb23 3.078176 1_555
O61 Rb13 3.483879 1_555
O62 S14 1.496355 1_545
O62 Rb4 2.937286 1_555
O62 Rb16 3.056826 1_555
O62 Rb20 3.078176 1_555
O62 Rb14 3.483879 1_554
O63 S15 1.496355 1_655
O63 Rb5 2.937286 1_555
O63 Rb17 3.056826 1_555
O63 Rb21 3.078176 1_555
O63 Rb15 3.483879 1_555
