# generated using pymatgen
data_Li2CuP
_symmetry_space_group_name_H-M   'P 1'
_cell_length_a   3.98879378
_cell_length_b   3.98879306
_cell_length_c   7.71856519
_cell_angle_alpha   90.00000000
_cell_angle_beta   90.00000000
_cell_angle_gamma   120.00000599
_symmetry_Int_Tables_number   1
_chemical_formula_structural   Li2CuP
_chemical_formula_sum   'Li4 Cu2 P2'
_cell_volume   106.35312887
_cell_formula_units_Z   2
loop_
 _symmetry_equiv_pos_site_id
 _symmetry_equiv_pos_as_xyz
  1  'x, y, z'
loop_
 _atom_site_type_symbol
 _atom_site_label
 _atom_site_symmetry_multiplicity
 _atom_site_fract_x
 _atom_site_fract_y
 _atom_site_fract_z
 _atom_site_occupancy
  Li  Li0  1  0.66666700  0.33333300  0.91574459  1
  Li  Li1  1  0.33333300  0.66666700  0.41574459  1
  Li  Li2  1  0.66666700  0.33333300  0.58425541  1
  Li  Li3  1  0.33333300  0.66666700  0.08425541  1
  Cu  Cu0  1  -0.00000000  0.00000000  0.75000000  1
  Cu  Cu1  1  0.00000000  -0.00000000  0.25000000  1
  P  P0  1  0.66666700  0.33333300  0.25000000  1
  P  P1  1  0.33333300  0.66666700  0.75000000  1
loop_
_geom_bond_atom_site_label_1
_geom_bond_atom_site_label_2
_geom_bond_distance
_geom_bond_site_symmetry_2
Li0 P0 2.579972 1_556
Li0 P1 2.634410 1_545
Li0 P1 2.634410 1_655
Li0 P1 2.634416 1_555
Li1 P1 2.579972 1_555
Li1 P0 2.634410 1_565
Li1 P0 2.634410 1_455
Li1 P0 2.634416 1_555
Li2 P0 2.579972 1_555
Li2 P1 2.634410 1_545
Li2 P1 2.634410 1_655
Li2 P1 2.634416 1_555
Li3 P1 2.579972 1_554
Li3 P0 2.634410 1_565
Li3 P0 2.634410 1_455
Li3 P0 2.634416 1_555
Cu0 P1 2.302929 1_545
Cu0 P1 2.302932 1_555
Cu0 P1 2.302932 1_445
Cu0 Li2 2.634410 1_455
Cu0 Li0 2.634410 1_455
Cu0 Li0 2.634413 1_445
Cu0 Li2 2.634413 1_445
Cu0 Li2 2.634413 1_555
Cu0 Li0 2.634413 1_555
Cu1 P0 2.302929 1_455
Cu1 P0 2.302932 1_445
Cu1 P0 2.302932 1_555
Cu1 Li3 2.634410 1_545
Cu1 Li1 2.634410 1_545
Cu1 Li3 2.634413 1_555
Cu1 Li1 2.634413 1_555
Cu1 Li3 2.634413 1_445
Cu1 Li1 2.634413 1_445
