# generated using pymatgen
data_Sr3Fe2(ClO2)2
_symmetry_space_group_name_H-M   'P 1'
_cell_length_a   5.76884936
_cell_length_b   5.76908836
_cell_length_c   11.73453507
_cell_angle_alpha   89.99870971
_cell_angle_beta   75.77146639
_cell_angle_gamma   89.99737348
_symmetry_Int_Tables_number   1
_chemical_formula_structural   Sr3Fe2(ClO2)2
_chemical_formula_sum   'Sr6 Fe4 Cl4 O8'
_cell_volume   378.55660037
_cell_formula_units_Z   2
loop_
 _symmetry_equiv_pos_site_id
 _symmetry_equiv_pos_as_xyz
  1  'x, y, z'
loop_
 _atom_site_type_symbol
 _atom_site_label
 _atom_site_symmetry_multiplicity
 _atom_site_fract_x
 _atom_site_fract_y
 _atom_site_fract_z
 _atom_site_occupancy
  Sr  Sr0  1  0.50002600  0.50003600  0.99999900  1
  Sr  Sr1  1  0.99999300  0.99997800  0.99999900  1
  Sr  Sr2  1  0.15179600  0.99999700  0.69638800  1
  Sr  Sr3  1  0.65179300  0.49999600  0.69639000  1
  Sr  Sr4  1  0.34819700  0.49999200  0.30361200  1
  Sr  Sr5  1  0.84819900  0.00000400  0.30361200  1
  Fe  Fe0  1  0.42464900  0.00000600  0.15071500  1
  Fe  Fe1  1  0.07536200  0.50000600  0.84928100  1
  Fe  Fe2  1  0.92465600  0.49999600  0.15071300  1
  Fe  Fe3  1  0.57535800  0.00001200  0.84928000  1
  Cl  Cl0  1  0.29522100  0.99999100  0.40954200  1
  Cl  Cl1  1  0.79522100  0.50000600  0.40953600  1
  Cl  Cl2  1  0.20477100  0.49999600  0.59045700  1
  Cl  Cl3  1  0.70477500  0.99999400  0.59045900  1
  O  O0  1  0.82758000  0.24999700  0.84484200  1
  O  O1  1  0.32757900  0.74999800  0.84484300  1
  O  O2  1  0.32756900  0.25000200  0.84485900  1
  O  O3  1  0.82759000  0.74999500  0.84482900  1
  O  O4  1  0.67242600  0.24999600  0.15514100  1
  O  O5  1  0.17240600  0.74999500  0.15517800  1
  O  O6  1  0.17243700  0.24999900  0.15513000  1
  O  O7  1  0.67239600  0.75000700  0.15519300  1
loop_
_geom_bond_atom_site_label_1
_geom_bond_atom_site_label_2
_geom_bond_distance
_geom_bond_site_symmetry_2
Fe0 O7 2.040165 1_545
Fe0 O6 2.040201 1_555
Fe0 O4 2.040225 1_555
Fe0 O5 2.040409 1_545
Fe1 O3 2.040166 1_455
Fe1 O2 2.040213 1_555
Fe1 O1 2.040269 1_555
Fe1 O0 2.040353 1_455
Fe2 O6 2.040154 1_655
Fe2 O5 2.040242 1_655
Fe2 O7 2.040356 1_555
Fe2 O4 2.040372 1_555
Fe3 O2 2.040168 1_555
Fe3 O0 2.040261 1_555
Fe3 O3 2.040317 1_545
Fe3 O1 2.040356 1_545
Cl0 Fe0 2.944042 1_565
Cl0 Sr5 3.125885 1_465
Cl0 Sr5 3.126061 1_565
Cl0 Sr4 3.126075 1_565
Cl0 Sr4 3.126091 1_555
Cl0 Sr2 3.262746 1_555
Cl1 Fe2 2.943997 1_555
Cl1 Sr4 3.125853 1_555
Cl1 Sr5 3.126033 1_565
Cl1 Sr4 3.126040 1_655
Cl1 Sr5 3.126080 1_555
Cl1 Sr3 3.262837 1_555
Cl2 Fe1 2.944008 1_555
Cl2 Sr3 3.125906 1_555
Cl2 Sr3 3.126066 1_455
Cl2 Sr2 3.126069 1_545
Cl2 Sr2 3.126106 1_555
Cl2 Sr4 3.262734 1_555
Cl3 Fe3 2.943974 1_565
Cl3 Sr2 3.125872 1_655
Cl3 Sr3 3.126064 1_555
Cl3 Sr2 3.126064 1_555
Cl3 Sr3 3.126111 1_565
Cl3 Sr5 3.262757 1_565
O0 Sr2 2.647877 1_645
O0 Sr3 2.647883 1_555
O0 Sr1 2.697152 1_545
O0 Sr0 2.697219 1_555
O1 Sr3 2.647872 1_555
O1 Sr2 2.647897 1_555
O1 Sr0 2.697073 1_555
O1 Sr1 2.697129 1_455
O2 Sr3 2.648019 1_555
O2 Sr2 2.648119 1_545
O2 Sr1 2.697189 1_445
O2 Sr0 2.697274 1_555
O3 Sr2 2.647829 1_655
O3 Sr3 2.647893 1_555
O3 Sr0 2.697128 1_555
O3 Sr1 2.697220 1_555
O4 Sr5 2.647984 1_555
O4 Sr4 2.648002 1_555
O4 Sr0 2.697042 1_554
O4 Sr1 2.697105 1_544
O5 Sr4 2.647749 1_555
O5 Sr5 2.647764 1_465
O5 Sr1 2.697239 1_454
O5 Sr0 2.697305 1_554
O6 Sr4 2.648137 1_555
O6 Sr5 2.648140 1_455
O6 Sr1 2.697113 1_444
O6 Sr0 2.697216 1_554
O7 Sr4 2.647723 1_555
O7 Sr5 2.647729 1_565
O7 Sr0 2.697297 1_554
O7 Sr1 2.697409 1_554
