# generated using pymatgen
data_SrLaCuSe3
_symmetry_space_group_name_H-M   'P 1'
_cell_length_a   4.18878800
_cell_length_b   8.61806100
_cell_length_c   16.93551800
_cell_angle_alpha   90.00000000
_cell_angle_beta   90.00000000
_cell_angle_gamma   90.00000000
_symmetry_Int_Tables_number   1
_chemical_formula_structural   SrLaCuSe3
_chemical_formula_sum   'Sr4 La4 Cu4 Se12'
_cell_volume   611.35916792
_cell_formula_units_Z   4
loop_
 _symmetry_equiv_pos_site_id
 _symmetry_equiv_pos_as_xyz
  1  'x, y, z'
loop_
 _atom_site_type_symbol
 _atom_site_label
 _atom_site_symmetry_multiplicity
 _atom_site_fract_x
 _atom_site_fract_y
 _atom_site_fract_z
 _atom_site_occupancy
  Sr  Sr0  1  0.75000000  0.73849900  0.96515300  1
  Sr  Sr1  1  0.25000000  0.26150100  0.03484700  1
  Sr  Sr2  1  0.25000000  0.76150100  0.46515300  1
  Sr  Sr3  1  0.75000000  0.23849900  0.53484700  1
  La  La0  1  0.75000000  0.90649400  0.21340200  1
  La  La1  1  0.25000000  0.09350600  0.78659800  1
  La  La2  1  0.25000000  0.59350600  0.71340200  1
  La  La3  1  0.75000000  0.40649400  0.28659800  1
  Cu  Cu0  1  0.75000000  0.87751600  0.63471300  1
  Cu  Cu1  1  0.25000000  0.12248400  0.36528700  1
  Cu  Cu2  1  0.25000000  0.62248400  0.13471300  1
  Cu  Cu3  1  0.75000000  0.37751600  0.86528700  1
  Se  Se0  1  0.75000000  0.82055700  0.77927000  1
  Se  Se1  1  0.25000000  0.17944300  0.22073000  1
  Se  Se2  1  0.25000000  0.67944300  0.27927000  1
  Se  Se3  1  0.75000000  0.32055700  0.72073000  1
  Se  Se4  1  0.75000000  0.98631900  0.39296600  1
  Se  Se5  1  0.25000000  0.01368100  0.60703400  1
  Se  Se6  1  0.25000000  0.51368100  0.89296600  1
  Se  Se7  1  0.75000000  0.48631900  0.10703400  1
  Se  Se8  1  0.75000000  0.61429900  0.57859700  1
  Se  Se9  1  0.25000000  0.38570100  0.42140300  1
  Se  Se10  1  0.25000000  0.88570100  0.07859700  1
  Se  Se11  1  0.75000000  0.11429900  0.92140300  1
loop_
_geom_bond_atom_site_label_1
_geom_bond_atom_site_label_2
_geom_bond_distance
_geom_bond_site_symmetry_2
La0 Se2 3.075658 1_555
La0 Se2 3.075658 1_655
La0 Se10 3.103329 1_655
La0 Se10 3.103329 1_555
La0 Se4 3.117851 1_555
La0 Se1 3.152009 1_565
La0 Se1 3.152009 1_665
La1 Se3 3.075658 1_555
La1 Se3 3.075658 1_455
La1 Se11 3.103329 1_555
La1 Se11 3.103329 1_455
La1 Se5 3.117851 1_555
La1 Se0 3.152009 1_445
La1 Se0 3.152009 1_545
La2 Se0 3.075658 1_455
La2 Se0 3.075658 1_555
La2 Se8 3.103329 1_455
La2 Se8 3.103329 1_555
La2 Se6 3.117851 1_555
La2 Se3 3.152009 1_455
La2 Se3 3.152009 1_555
La3 Se1 3.075658 1_655
La3 Se1 3.075658 1_555
La3 Se9 3.103329 1_555
La3 Se9 3.103329 1_655
La3 Se7 3.117851 1_555
La3 Se2 3.152009 1_555
La3 Se2 3.152009 1_655
Cu0 Se5 2.446073 1_665
Cu0 Se5 2.446073 1_565
Cu0 Se8 2.459452 1_555
Cu0 Se0 2.496875 1_555
Cu1 Se4 2.446073 1_445
Cu1 Se4 2.446073 1_545
Cu1 Se9 2.459452 1_555
Cu1 Se1 2.496875 1_555
Cu2 Se7 2.446073 1_555
Cu2 Se7 2.446073 1_455
Cu2 Se10 2.459452 1_555
Cu2 Se2 2.496875 1_555
Cu3 Se6 2.446073 1_555
Cu3 Se6 2.446073 1_655
Cu3 Se11 2.459452 1_555
Cu3 Se3 2.496875 1_555
Se0 Sr0 3.226479 1_555
Se1 Sr1 3.226479 1_555
Se2 Sr2 3.226479 1_555
Se3 Sr3 3.226479 1_555
Se4 Sr2 3.104020 1_655
Se4 Sr2 3.104020 1_555
Se4 Sr3 3.239881 1_565
Se5 Sr3 3.104020 1_455
Se5 Sr3 3.104020 1_555
Se5 Sr2 3.239881 1_545
Se6 Sr0 3.104020 1_555
Se6 Sr0 3.104020 1_455
Se6 Sr1 3.239881 1_556
Se7 Sr1 3.104020 1_655
Se7 Sr1 3.104020 1_555
Se7 Sr0 3.239881 1_554
Se8 Sr2 3.112388 1_555
Se8 Sr2 3.112388 1_655
Se8 Sr3 3.322340 1_555
Se9 Sr3 3.112388 1_555
Se9 Sr3 3.112388 1_455
Se9 Sr2 3.322340 1_555
Se10 Sr0 3.112388 1_454
Se10 Sr0 3.112388 1_554
Se10 Sr1 3.322340 1_565
Se11 Sr1 3.112388 1_556
Se11 Sr1 3.112388 1_656
Se11 Sr0 3.322340 1_545
