# generated using pymatgen
data_KMg3AlSi3O11F
_symmetry_space_group_name_H-M   'P 1'
_cell_length_a   5.40597559
_cell_length_b   5.40597559
_cell_length_c   21.03317966
_cell_angle_alpha   82.75734089
_cell_angle_beta   82.75734089
_cell_angle_gamma   59.64033105
_symmetry_Int_Tables_number   1
_chemical_formula_structural   KMg3AlSi3O11F
_chemical_formula_sum   'K2 Mg6 Al2 Si6 O22 F2'
_cell_volume   524.76390769
_cell_formula_units_Z   2
loop_
 _symmetry_equiv_pos_site_id
 _symmetry_equiv_pos_as_xyz
  1  'x, y, z'
loop_
 _atom_site_type_symbol
 _atom_site_label
 _atom_site_symmetry_multiplicity
 _atom_site_fract_x
 _atom_site_fract_y
 _atom_site_fract_z
 _atom_site_occupancy
  K  K0  1  0.74263000  0.91170800  0.76870100  1
  K  K1  1  0.91170800  0.74263000  0.26870100  1
  Mg  Mg0  1  0.66754200  0.17070800  0.99865800  1
  Mg  Mg1  1  0.17070800  0.66754200  0.49865800  1
  Mg  Mg2  1  0.83466100  0.33529100  0.49938500  1
  Mg  Mg3  1  0.33529100  0.83466100  0.99938500  1
  Mg  Mg4  1  0.49112500  0.00297900  0.49965100  1
  Mg  Mg5  1  0.00297900  0.49112500  0.99965100  1
  Al  Al0  1  0.37062400  0.55073700  0.86650900  1
  Al  Al1  1  0.55073700  0.37062400  0.36650900  1
  Si  Si0  1  0.21701100  0.04269500  0.36392000  1
  Si  Si1  1  0.04269500  0.21701100  0.86392000  1
  Si  Si2  1  0.11945800  0.29115300  0.63274300  1
  Si  Si3  1  0.29115300  0.11945800  0.13274300  1
  Si  Si4  1  0.45272900  0.62566800  0.63268100  1
  Si  Si5  1  0.62566800  0.45272900  0.13268100  1
  O  O0  1  0.94912200  0.27834400  0.16146100  1
  O  O1  1  0.27834400  0.94912200  0.66146100  1
  O  O2  1  0.20801100  0.39146300  0.83479600  1
  O  O3  1  0.39146300  0.20801100  0.33479600  1
  O  O4  1  0.27615500  0.45084700  0.65974900  1
  O  O5  1  0.45084700  0.27615500  0.15974900  1
  O  O6  1  0.72706800  0.38304400  0.83629000  1
  O  O7  1  0.38304400  0.72706800  0.33629000  1
  O  O8  1  0.19176400  0.01813900  0.44426000  1
  O  O9  1  0.01813900  0.19176400  0.94426000  1
  O  O10  1  0.14190100  0.31739900  0.55455000  1
  O  O11  1  0.31739900  0.14190100  0.05455000  1
  O  O12  1  0.47554500  0.65736700  0.55448200  1
  O  O13  1  0.65736700  0.47554500  0.05448200  1
  O  O14  1  0.90431700  0.21638100  0.33492200  1
  O  O15  1  0.21638100  0.90431700  0.83492200  1
  O  O16  1  0.77668800  0.44735200  0.66112700  1
  O  O17  1  0.44735200  0.77668800  0.16112700  1
  O  O18  1  0.51949300  0.34497700  0.45186100  1
  O  O19  1  0.34497700  0.51949300  0.95186100  1
  O  O20  1  0.99280700  0.81285700  0.04373500  1
  O  O21  1  0.81285700  0.99280700  0.54373500  1
  F  F0  1  0.85004400  0.67386400  0.45301700  1
  F  F1  1  0.67386400  0.85004400  0.95301700  1
loop_
_geom_bond_atom_site_label_1
_geom_bond_atom_site_label_2
_geom_bond_distance
_geom_bond_site_symmetry_2
K0 O2 2.985876 1_655
K0 O15 3.022705 1_555
K0 O6 3.031010 1_565
K0 O15 3.046757 1_655
K0 O2 3.054664 1_565
K0 O6 3.063390 1_555
K1 O3 2.985876 1_565
K1 O14 3.022705 1_555
K1 O7 3.031010 1_655
K1 O14 3.046757 1_565
K1 O3 3.054664 1_655
K1 O7 3.063390 1_555
Mg0 O19 2.050851 1_555
Mg0 O20 2.062172 1_546
Mg0 O13 2.115974 1_556
Mg0 O9 2.133719 1_655
Mg0 O11 2.163314 1_556
Mg1 O18 2.050851 1_555
Mg1 O21 2.062172 1_455
Mg1 O12 2.115974 1_555
Mg1 O8 2.133719 1_565
Mg1 O10 2.163314 1_555
Mg2 O21 2.017266 1_545
Mg2 O18 2.056902 1_555
Mg2 O10 2.099897 1_655
Mg2 O8 2.145174 1_655
Mg2 O12 2.160569 1_555
Mg3 O20 2.017266 1_456
Mg3 O19 2.056902 1_555
Mg3 O11 2.099897 1_566
Mg3 O9 2.145174 1_565
Mg3 O13 2.160569 1_556
Mg4 O21 2.045715 1_545
Mg4 O18 2.056997 1_555
Mg4 O8 2.073724 1_555
Mg4 O12 2.102192 1_545
Mg4 O10 2.118507 1_555
Mg5 O20 2.045715 1_456
Mg5 O19 2.056997 1_555
Mg5 O9 2.073724 1_555
Mg5 O13 2.102192 1_456
Mg5 O11 2.118507 1_556
Al0 O15 1.731661 1_555
Al0 O6 1.734799 1_555
Al0 O2 1.736916 1_555
Al0 O19 1.776243 1_555
Al1 O14 1.731661 1_555
Al1 O7 1.734799 1_555
Al1 O3 1.736916 1_555
Al1 O18 1.776243 1_555
O0 Si3 1.662906 1_655
O0 Si5 1.664146 1_555
O1 Si2 1.662906 1_565
O1 Si4 1.664146 1_555
O2 Si1 1.622224 1_555
O3 Si0 1.622224 1_555
O4 Si4 1.663641 1_555
O4 Si2 1.664250 1_555
O5 Si5 1.663641 1_555
O5 Si3 1.664250 1_555
O6 Si1 1.620219 1_655
O7 Si0 1.620219 1_565
O8 Si0 1.671914 1_555
O9 Si1 1.671914 1_555
O10 Si2 1.627258 1_555
O11 Si3 1.627258 1_555
O12 Si4 1.627576 1_555
O13 Si5 1.627576 1_555
O14 Si0 1.619339 1_655
O15 Si1 1.619339 1_565
O16 Si4 1.663297 1_555
O16 Si2 1.664203 1_655
O17 Si5 1.663297 1_555
O17 Si3 1.664203 1_565
F0 Mg2 1.997860 1_555
F0 Mg1 2.068619 1_655
F0 Mg4 2.088757 1_565
F1 Mg3 1.997860 1_555
F1 Mg0 2.068619 1_565
F1 Mg5 2.088757 1_655
