# generated using pymatgen
data_SrY2O4
_symmetry_space_group_name_H-M   'P 1'
_cell_length_a   3.40909340
_cell_length_b   10.08264432
_cell_length_c   11.92202761
_cell_angle_alpha   90.00000000
_cell_angle_beta   90.00000000
_cell_angle_gamma   90.00000000
_symmetry_Int_Tables_number   1
_chemical_formula_structural   SrY2O4
_chemical_formula_sum   'Sr4 Y8 O16'
_cell_volume   409.79199476
_cell_formula_units_Z   4
loop_
 _symmetry_equiv_pos_site_id
 _symmetry_equiv_pos_as_xyz
  1  'x, y, z'
loop_
 _atom_site_type_symbol
 _atom_site_label
 _atom_site_symmetry_multiplicity
 _atom_site_fract_x
 _atom_site_fract_y
 _atom_site_fract_z
 _atom_site_occupancy
  Sr  Sr0  1  0.75000000  0.25322043  0.85028168  1
  Sr  Sr1  1  0.25000000  0.74677957  0.14971832  1
  Sr  Sr2  1  0.75000000  0.75322043  0.64971832  1
  Sr  Sr3  1  0.25000000  0.24677957  0.35028168  1
  Y  Y0  1  0.25000000  0.57767177  0.88970569  1
  Y  Y1  1  0.75000000  0.42232823  0.11029431  1
  Y  Y2  1  0.25000000  0.07767177  0.61029431  1
  Y  Y3  1  0.75000000  0.92232823  0.38970569  1
  Y  Y4  1  0.75000000  0.92395850  0.88777603  1
  Y  Y5  1  0.25000000  0.07604150  0.11222397  1
  Y  Y6  1  0.75000000  0.42395850  0.61222397  1
  Y  Y7  1  0.25000000  0.57604150  0.38777603  1
  O  O0  1  0.25000000  0.57544222  0.57710682  1
  O  O1  1  0.75000000  0.42455778  0.42289318  1
  O  O2  1  0.25000000  0.07544222  0.92289318  1
  O  O3  1  0.75000000  0.92455778  0.07710682  1
  O  O4  1  0.25000000  0.48413185  0.21620999  1
  O  O5  1  0.75000000  0.51586815  0.78379001  1
  O  O6  1  0.25000000  0.98413185  0.28379001  1
  O  O7  1  0.75000000  0.01586815  0.71620999  1
  O  O8  1  0.25000000  0.87468164  0.52019869  1
  O  O9  1  0.75000000  0.12531836  0.47980131  1
  O  O10  1  0.25000000  0.37468164  0.97980131  1
  O  O11  1  0.75000000  0.62531836  0.02019869  1
  O  O12  1  0.75000000  0.71066642  0.32537881  1
  O  O13  1  0.25000000  0.28933358  0.67462119  1
  O  O14  1  0.75000000  0.21066642  0.17462119  1
  O  O15  1  0.25000000  0.78933358  0.82537881  1
loop_
_geom_bond_atom_site_label_1
_geom_bond_atom_site_label_2
_geom_bond_distance
_geom_bond_site_symmetry_2
O0 Y7 2.257215 1_555
O0 Y6 2.326710 1_455
O0 Y6 2.326710 1_555
O0 Sr2 2.620656 1_455
O0 Sr2 2.620656 1_555
O1 Y6 2.257215 1_555
O1 Y7 2.326710 1_555
O1 Y7 2.326710 1_655
O1 Sr3 2.620656 1_555
O1 Sr3 2.620656 1_655
O2 Y5 2.257215 1_556
O2 Y4 2.326710 1_445
O2 Y4 2.326710 1_545
O2 Sr0 2.620656 1_455
O2 Sr0 2.620656 1_555
O3 Y4 2.257215 1_554
O3 Y5 2.326710 1_665
O3 Y5 2.326710 1_565
O3 Sr1 2.620656 1_655
O3 Sr1 2.620656 1_555
O4 Y1 2.210944 1_555
O4 Y1 2.210944 1_455
O4 Y7 2.245547 1_555
O4 Sr1 2.764285 1_555
O4 Sr3 2.877849 1_555
O5 Y0 2.210944 1_655
O5 Y0 2.210944 1_555
O5 Y6 2.245547 1_555
O5 Sr0 2.764285 1_555
O5 Sr2 2.877849 1_555
O6 Y3 2.210944 1_555
O6 Y3 2.210944 1_455
O6 Y5 2.245547 1_565
O6 Sr3 2.764285 1_565
O6 Sr1 2.877849 1_555
O7 Y2 2.210944 1_555
O7 Y2 2.210944 1_655
O7 Y4 2.245547 1_545
O7 Sr2 2.764285 1_545
O7 Sr0 2.877849 1_555
O8 Y2 2.311412 1_565
O8 Y3 2.357244 1_455
O8 Y3 2.357244 1_555
O8 Sr2 2.605687 1_455
O8 Sr2 2.605687 1_555
O9 Y3 2.311412 1_545
O9 Y2 2.357244 1_655
O9 Y2 2.357244 1_555
O9 Sr3 2.605687 1_555
O9 Sr3 2.605687 1_655
O10 Y0 2.311412 1_555
O10 Y1 2.357244 1_556
O10 Y1 2.357244 1_456
O10 Sr0 2.605687 1_455
O10 Sr0 2.605687 1_555
O11 Y1 2.311412 1_555
O11 Y0 2.357244 1_554
O11 Y0 2.357244 1_654
O11 Sr1 2.605687 1_655
O11 Sr1 2.605687 1_555
O12 Y3 2.267725 1_555
O12 Y7 2.302463 1_655
O12 Y7 2.302463 1_555
O12 Sr1 2.724675 1_655
O12 Sr1 2.724675 1_555
O13 Y2 2.267725 1_555
O13 Y6 2.302463 1_555
O13 Y6 2.302463 1_455
O13 Sr0 2.724675 1_555
O13 Sr0 2.724675 1_455
O14 Y1 2.267725 1_555
O14 Y5 2.302463 1_655
O14 Y5 2.302463 1_555
O14 Sr3 2.724675 1_555
O14 Sr3 2.724675 1_655
O15 Y0 2.267725 1_555
O15 Y4 2.302463 1_555
O15 Y4 2.302463 1_455
O15 Sr2 2.724675 1_555
O15 Sr2 2.724675 1_455
