# generated using pymatgen
data_Ba10Sm5(Cu5O11)3
_symmetry_space_group_name_H-M   'P 1'
_cell_length_a   5.55319700
_cell_length_b   13.17299729
_cell_length_c   14.09945506
_cell_angle_alpha   114.40700937
_cell_angle_beta   100.18799599
_cell_angle_gamma   90.49534314
_symmetry_Int_Tables_number   1
_chemical_formula_structural   Ba10Sm5(Cu5O11)3
_chemical_formula_sum   'Ba10 Sm5 Cu15 O33'
_cell_volume   920.57216580
_cell_formula_units_Z   1
loop_
 _symmetry_equiv_pos_site_id
 _symmetry_equiv_pos_as_xyz
  1  'x, y, z'
loop_
 _atom_site_type_symbol
 _atom_site_label
 _atom_site_symmetry_multiplicity
 _atom_site_fract_x
 _atom_site_fract_y
 _atom_site_fract_z
 _atom_site_occupancy
  Ba  Ba0  1  0.14511700  0.18899100  0.27207000  1
  Ba  Ba1  1  0.34318800  0.18987500  0.67334200  1
  Ba  Ba2  1  0.53640700  0.18205000  0.07281600  1
  Ba  Ba3  1  0.73277900  0.18958100  0.47848200  1
  Ba  Ba4  1  0.93038200  0.18907500  0.87909700  1
  Ba  Ba5  1  0.26722100  0.81041900  0.52151800  1
  Ba  Ba6  1  0.46359300  0.81795000  0.92718400  1
  Ba  Ba7  1  0.65681200  0.81012500  0.32665800  1
  Ba  Ba8  1  0.85488300  0.81100900  0.72793000  1
  Ba  Ba9  1  0.06961800  0.81092500  0.12090300  1
  Sm  Sm0  1  0.19971200  0.49984000  0.39995900  1
  Sm  Sm1  1  0.80028800  0.50016000  0.60004100  1
  Sm  Sm2  1  0.40036200  0.50146300  0.80074500  1
  Sm  Sm3  1  0.00000000  0.50000000  0.00000000  1
  Sm  Sm4  1  0.59963800  0.49853700  0.19925500  1
  Cu  Cu0  1  0.07063200  0.35362200  0.14145100  1
  Cu  Cu1  1  0.67286700  0.35558500  0.34238000  1
  Cu  Cu2  1  0.26972300  0.35618500  0.54193100  1
  Cu  Cu3  1  0.87291100  0.35609500  0.74310300  1
  Cu  Cu4  1  0.46926500  0.35546500  0.94185900  1
  Cu  Cu5  1  0.12708900  0.64390500  0.25689700  1
  Cu  Cu6  1  0.73027700  0.64381500  0.45806900  1
  Cu  Cu7  1  0.32713300  0.64441500  0.65762000  1
  Cu  Cu8  1  0.92936800  0.64637800  0.85854900  1
  Cu  Cu9  1  0.53073500  0.64453500  0.05814100  1
  Cu  Cu10  1  0.00000000  0.00000000  0.00000000  1
  Cu  Cu11  1  0.57854900  0.00002600  0.19389400  1
  Cu  Cu12  1  0.21266000  0.00002900  0.40453600  1
  Cu  Cu13  1  0.78734000  0.99997100  0.59546400  1
  Cu  Cu14  1  0.42145100  0.99997400  0.80610600  1
  O  O0  1  0.37614000  0.37382400  0.25023700  1
  O  O1  1  0.97533500  0.37503800  0.45012400  1
  O  O2  1  0.57430300  0.37257700  0.64900200  1
  O  O3  1  0.17555200  0.37534800  0.85001900  1
  O  O4  1  0.77282400  0.37341400  0.04866600  1
  O  O5  1  0.42569700  0.62742300  0.35099800  1
  O  O6  1  0.02466500  0.62496200  0.54987600  1
  O  O7  1  0.62386000  0.62617600  0.74976300  1
  O  O8  1  0.22717600  0.62658600  0.95133400  1
  O  O9  1  0.82444800  0.62465200  0.14998100  1
  O  O10  1  0.87545100  0.37625800  0.25046800  1
  O  O11  1  0.47557600  0.37569700  0.45038100  1
  O  O12  1  0.07537800  0.37567300  0.65012500  1
  O  O13  1  0.67460500  0.37564000  0.85031300  1
  O  O14  1  0.27500800  0.37624900  0.05043100  1
  O  O15  1  0.92462200  0.62432700  0.34987500  1
  O  O16  1  0.52442400  0.62430300  0.54961900  1
  O  O17  1  0.12454900  0.62374200  0.74953200  1
  O  O18  1  0.72499200  0.62375100  0.94956900  1
  O  O19  1  0.32539500  0.62436000  0.14968700  1
  O  O20  1  0.03173800  0.15834700  0.06335500  1
  O  O21  1  0.65165200  0.15167100  0.26743400  1
  O  O22  1  0.20698700  0.15181300  0.45347500  1
  O  O23  1  0.85362100  0.15179200  0.66793200  1
  O  O24  1  0.40880800  0.15158700  0.85385000  1
  O  O25  1  0.14637900  0.84820800  0.33206800  1
  O  O26  1  0.79301300  0.84818700  0.54652500  1
  O  O27  1  0.34834800  0.84832900  0.73256600  1
  O  O28  1  0.96826200  0.84165300  0.93664500  1
  O  O29  1  0.59119200  0.84841300  0.14615000  1
  O  O30  1  0.28848400  0.99996300  0.09859600  1
  O  O31  1  0.50000000  0.00000000  0.50000000  1
  O  O32  1  0.71151600  0.00003700  0.90140400  1
loop_
_geom_bond_atom_site_label_1
_geom_bond_atom_site_label_2
_geom_bond_distance
_geom_bond_site_symmetry_2
Ba0 O20 2.752758 1_555
Ba0 O22 2.761709 1_555
Ba0 O21 2.764423 1_455
Ba0 O21 2.867176 1_555
Ba0 O0 2.893791 1_555
Ba0 O30 2.916585 1_545
Ba0 O11 2.986139 1_555
Ba0 O10 2.990685 1_455
Ba0 O1 2.998385 1_455
Ba1 O23 2.742270 1_455
Ba1 O24 2.756895 1_555
Ba1 O22 2.883218 1_555
Ba1 O2 2.888306 1_555
Ba1 O23 2.891630 1_555
Ba1 O31 2.954018 1_555
Ba1 O13 2.975369 1_555
Ba1 O12 2.976929 1_555
Ba1 O3 2.978449 1_555
Ba2 O20 2.790634 1_555
Ba2 O20 2.791363 1_655
Ba2 O21 2.896549 1_555
Ba2 O24 2.896875 1_554
Ba2 O32 2.935664 1_554
Ba2 O30 2.936240 1_545
Ba2 O4 3.000746 1_555
Ba2 O0 3.005913 1_555
Ba2 O10 3.052274 1_555
Ba2 O14 3.052942 1_555
Ba3 O22 2.740916 1_655
Ba3 O21 2.756937 1_555
Ba3 O23 2.881610 1_555
Ba3 O2 2.891595 1_555
Ba3 O22 2.891877 1_555
Ba3 O31 2.951081 1_555
Ba3 O11 2.978426 1_555
Ba3 O12 2.978822 1_655
Ba3 O1 2.980507 1_555
Ba4 O20 2.754206 1_656
Ba4 O23 2.761570 1_555
Ba4 O24 2.764255 1_655
Ba4 O24 2.867924 1_555
Ba4 O4 2.890850 1_556
Ba4 O32 2.916741 1_555
Ba4 O13 2.983756 1_555
Ba4 O14 2.989664 1_656
Ba4 O3 3.002300 1_655
Ba5 O26 2.740916 1_455
Ba5 O27 2.756937 1_555
Ba5 O25 2.881610 1_555
Ba5 O5 2.891595 1_555
Ba5 O26 2.891877 1_555
Ba5 O31 2.951081 1_565
Ba5 O16 2.978426 1_555
Ba5 O15 2.978822 1_455
Ba5 O6 2.980507 1_555
Ba6 O28 2.790634 1_555
Ba6 O28 2.791363 1_455
Ba6 O27 2.896549 1_555
Ba6 O29 2.896875 1_556
Ba6 O30 2.935664 1_556
Ba6 O32 2.936240 1_565
Ba6 O8 3.000746 1_555
Ba6 O7 3.005913 1_555
Ba6 O17 3.052274 1_555
Ba6 O18 3.052942 1_555
Ba7 O25 2.742270 1_655
Ba7 O29 2.756895 1_555
Ba7 O26 2.883218 1_555
Ba7 O5 2.888306 1_555
Ba7 O25 2.891630 1_555
Ba7 O31 2.954018 1_565
Ba7 O19 2.975369 1_555
Ba7 O15 2.976929 1_555
Ba7 O9 2.978449 1_555
Ba8 O28 2.752758 1_555
Ba8 O26 2.761709 1_555
Ba8 O27 2.764423 1_655
Ba8 O27 2.867176 1_555
Ba8 O7 2.893791 1_555
Ba8 O32 2.916585 1_565
Ba8 O16 2.986139 1_555
Ba8 O17 2.990685 1_655
Ba8 O6 2.998385 1_655
Ba9 O28 2.754206 1_454
Ba9 O25 2.761570 1_555
Ba9 O29 2.764255 1_455
Ba9 O29 2.867924 1_555
Ba9 O8 2.890850 1_554
Ba9 O30 2.916741 1_555
Ba9 O19 2.983756 1_555
Ba9 O18 2.989664 1_454
Ba9 O9 3.002300 1_455
Cu0 O10 1.960228 1_455
Cu0 O14 1.961988 1_555
Cu0 O0 2.008983 1_555
Cu0 O4 2.009576 1_455
Cu0 O20 2.332713 1_555
Cu1 O10 1.954798 1_555
Cu1 O11 1.962421 1_555
Cu1 O1 1.990699 1_555
Cu1 O0 1.992048 1_555
Cu1 O21 2.439392 1_555
Cu2 O12 1.954812 1_555
Cu2 O11 1.957070 1_555
Cu2 O1 1.983400 1_455
Cu2 O2 2.001864 1_555
Cu2 O22 2.445391 1_555
Cu3 O13 1.958592 1_555
Cu3 O12 1.960874 1_655
Cu3 O3 1.985368 1_655
Cu3 O2 2.005787 1_555
Cu3 O23 2.444449 1_555
Cu4 O14 1.955745 1_556
Cu4 O13 1.958535 1_555
Cu4 O3 1.986503 1_555
Cu4 O4 1.991526 1_556
Cu4 O24 2.438905 1_555
Cu5 O19 1.958592 1_555
Cu5 O15 1.960874 1_455
Cu5 O9 1.985368 1_455
Cu5 O5 2.005787 1_555
Cu5 O25 2.444449 1_555
Cu6 O15 1.954812 1_555
Cu6 O16 1.957070 1_555
Cu6 O6 1.983400 1_655
Cu6 O5 2.001864 1_555
Cu6 O26 2.445391 1_555
Cu7 O17 1.954798 1_555
Cu7 O16 1.962421 1_555
Cu7 O6 1.990699 1_555
Cu7 O7 1.992048 1_555
Cu7 O27 2.439392 1_555
Cu8 O17 1.960228 1_655
Cu8 O18 1.961988 1_555
Cu8 O7 2.008983 1_555
Cu8 O8 2.009576 1_655
Cu8 O28 2.332713 1_555
Cu9 O18 1.955745 1_554
Cu9 O19 1.958535 1_555
Cu9 O9 1.986503 1_555
Cu9 O8 1.991526 1_554
Cu9 O29 2.438905 1_555
Cu10 O20 1.891579 1_555
Cu10 O28 1.891579 1_444
Cu10 O30 1.926576 1_545
Cu10 O32 1.926576 1_454
Cu11 O29 1.831647 1_545
Cu11 O21 1.831855 1_555
Cu11 O30 1.906159 1_545
Cu12 O22 1.828526 1_555
Cu12 O25 1.828845 1_545
Cu12 O31 1.896962 1_555
Cu13 O26 1.828526 1_555
Cu13 O23 1.828845 1_565
Cu13 O31 1.896962 1_565
Cu14 O24 1.831647 1_565
Cu14 O27 1.831855 1_555
Cu14 O32 1.906159 1_565
O0 Sm4 2.452004 1_555
O0 Sm0 2.456738 1_555
O1 Sm0 2.448047 1_655
O1 Sm1 2.450479 1_555
O2 Sm1 2.470794 1_555
O2 Sm2 2.480015 1_555
O3 Sm3 2.450658 1_556
O3 Sm2 2.454784 1_555
O4 Sm4 2.450984 1_555
O4 Sm3 2.461381 1_655
O5 Sm0 2.470794 1_555
O5 Sm4 2.480015 1_555
O6 Sm1 2.448047 1_455
O6 Sm0 2.450479 1_555
O7 Sm2 2.452004 1_555
O7 Sm1 2.456738 1_555
O8 Sm2 2.450984 1_555
O8 Sm3 2.461381 1_556
O9 Sm3 2.450658 1_655
O9 Sm4 2.454784 1_555
O10 Sm4 2.464667 1_555
O10 Sm0 2.471072 1_655
O11 Sm1 2.477081 1_555
O11 Sm0 2.478989 1_555
O12 Sm1 2.477939 1_455
O12 Sm2 2.489364 1_555
O13 Sm3 2.479010 1_656
O13 Sm2 2.485834 1_555
O14 Sm4 2.462919 1_555
O14 Sm3 2.472278 1_555
O15 Sm0 2.477939 1_655
O15 Sm4 2.489364 1_555
O16 Sm0 2.477081 1_555
O16 Sm1 2.478989 1_555
O17 Sm2 2.464667 1_555
O17 Sm1 2.471072 1_455
O18 Sm2 2.462919 1_555
O18 Sm3 2.472278 1_656
O19 Sm3 2.479010 1_555
O19 Sm4 2.485834 1_555
