# generated using pymatgen
data_V3Zn2N
_symmetry_space_group_name_H-M   'P 1'
_cell_length_a   6.57806100
_cell_length_b   6.57806100
_cell_length_c   6.57806100
_cell_angle_alpha   90.00000000
_cell_angle_beta   90.00000000
_cell_angle_gamma   90.00000000
_symmetry_Int_Tables_number   1
_chemical_formula_structural   V3Zn2N
_chemical_formula_sum   'V12 Zn8 N4'
_cell_volume   284.63853105
_cell_formula_units_Z   4
loop_
 _symmetry_equiv_pos_site_id
 _symmetry_equiv_pos_as_xyz
  1  'x, y, z'
loop_
 _atom_site_type_symbol
 _atom_site_label
 _atom_site_symmetry_multiplicity
 _atom_site_fract_x
 _atom_site_fract_y
 _atom_site_fract_z
 _atom_site_occupancy
  V  V0  1  0.78708200  0.96291800  0.37500000  1
  V  V1  1  0.71291800  0.03708200  0.87500000  1
  V  V2  1  0.21291800  0.46291800  0.12500000  1
  V  V3  1  0.28708200  0.53708200  0.62500000  1
  V  V4  1  0.96291800  0.37500000  0.78708200  1
  V  V5  1  0.03708200  0.87500000  0.71291800  1
  V  V6  1  0.46291800  0.12500000  0.21291800  1
  V  V7  1  0.53708200  0.62500000  0.28708200  1
  V  V8  1  0.37500000  0.78708200  0.96291800  1
  V  V9  1  0.87500000  0.71291800  0.03708200  1
  V  V10  1  0.12500000  0.21291800  0.46291800  1
  V  V11  1  0.62500000  0.28708200  0.53708200  1
  Zn  Zn0  1  0.17737500  0.82262500  0.32262500  1
  Zn  Zn1  1  0.32262500  0.17737500  0.82262500  1
  Zn  Zn2  1  0.82262500  0.32262500  0.17737500  1
  Zn  Zn3  1  0.67737500  0.67737500  0.67737500  1
  Zn  Zn4  1  0.57262500  0.42737500  0.92737500  1
  Zn  Zn5  1  0.42737500  0.92737500  0.57262500  1
  Zn  Zn6  1  0.92737500  0.57262500  0.42737500  1
  Zn  Zn7  1  0.07262500  0.07262500  0.07262500  1
  N  N0  1  0.87500000  0.12500000  0.62500000  1
  N  N1  1  0.62500000  0.87500000  0.12500000  1
  N  N2  1  0.12500000  0.62500000  0.87500000  1
  N  N3  1  0.37500000  0.37500000  0.37500000  1
loop_
_geom_bond_atom_site_label_1
_geom_bond_atom_site_label_2
_geom_bond_distance
_geom_bond_site_symmetry_2
V0 Zn5 2.709874 1_555
V0 Zn2 2.709874 1_565
V0 Zn6 2.749865 1_555
V0 Zn0 2.749865 1_655
V0 Zn3 2.829339 1_555
V0 Zn7 2.829339 1_665
V1 Zn3 2.709874 1_545
V1 Zn7 2.709874 1_656
V1 Zn1 2.749865 1_555
V1 Zn4 2.749865 1_555
V1 Zn5 2.829339 1_545
V1 Zn2 2.829339 1_556
V2 Zn0 2.709874 1_555
V2 Zn4 2.709874 1_554
V2 Zn7 2.749865 1_555
V2 Zn2 2.749865 1_455
V2 Zn6 2.829339 1_455
V2 Zn1 2.829339 1_554
V3 Zn1 2.709874 1_555
V3 Zn6 2.709874 1_455
V3 Zn3 2.749865 1_555
V3 Zn5 2.749865 1_555
V3 Zn4 2.829339 1_555
V3 Zn0 2.829339 1_555
V4 Zn6 2.709874 1_555
V4 Zn1 2.709874 1_655
V4 Zn4 2.749865 1_555
V4 Zn2 2.749865 1_556
V4 Zn3 2.829339 1_555
V4 Zn7 2.829339 1_656
V5 Zn3 2.709874 1_455
V5 Zn7 2.709874 1_566
V5 Zn0 2.749865 1_555
V5 Zn5 2.749865 1_555
V5 Zn1 2.829339 1_565
V5 Zn6 2.829339 1_455
V6 Zn2 2.709874 1_555
V6 Zn5 2.709874 1_545
V6 Zn7 2.749865 1_555
V6 Zn1 2.749865 1_554
V6 Zn4 2.829339 1_554
V6 Zn0 2.829339 1_545
V7 Zn0 2.709874 1_555
V7 Zn4 2.709874 1_554
V7 Zn3 2.749865 1_555
V7 Zn6 2.749865 1_555
V7 Zn5 2.829339 1_555
V7 Zn2 2.829339 1_555
V8 Zn4 2.709874 1_555
V8 Zn0 2.709874 1_556
V8 Zn5 2.749865 1_555
V8 Zn1 2.749865 1_565
V8 Zn3 2.829339 1_555
V8 Zn7 2.829339 1_566
V9 Zn3 2.709874 1_554
V9 Zn7 2.709874 1_665
V9 Zn2 2.749865 1_555
V9 Zn6 2.749865 1_555
V9 Zn0 2.829339 1_655
V9 Zn4 2.829339 1_554
V10 Zn1 2.709874 1_555
V10 Zn6 2.709874 1_455
V10 Zn7 2.749865 1_555
V10 Zn0 2.749865 1_545
V10 Zn5 2.829339 1_545
V10 Zn2 2.829339 1_455
V11 Zn2 2.709874 1_555
V11 Zn5 2.709874 1_545
V11 Zn3 2.749865 1_555
V11 Zn4 2.749865 1_555
V11 Zn6 2.829339 1_555
V11 Zn1 2.829339 1_555
Zn0 Zn5 2.425624 1_555
Zn0 Zn6 2.425624 1_455
Zn0 Zn7 2.425624 1_565
Zn1 Zn4 2.425624 1_555
Zn1 Zn5 2.425624 1_545
Zn1 Zn7 2.425624 1_556
Zn2 Zn6 2.425624 1_555
Zn2 Zn4 2.425624 1_554
Zn2 Zn7 2.425624 1_655
Zn3 Zn6 2.425624 1_555
Zn3 Zn5 2.425624 1_555
Zn3 Zn4 2.425624 1_555
N0 V4 2.043440 1_555
N0 V5 2.043440 1_645
N0 V11 2.043440 1_555
N0 V10 2.043440 1_655
N0 V0 2.043440 1_545
N0 V1 2.043440 1_555
N1 V0 2.043440 1_555
N1 V1 2.043440 1_564
N1 V6 2.043440 1_565
N1 V7 2.043440 1_555
N1 V9 2.043440 1_555
N1 V8 2.043440 1_554
N2 V8 2.043440 1_555
N2 V9 2.043440 1_456
N2 V2 2.043440 1_556
N2 V3 2.043440 1_555
N2 V5 2.043440 1_555
N2 V4 2.043440 1_455
N3 V11 2.043440 1_555
N3 V2 2.043440 1_555
N3 V7 2.043440 1_555
N3 V6 2.043440 1_555
N3 V10 2.043440 1_555
N3 V3 2.043440 1_555
