# generated using pymatgen
data_LiNi2OF3
_symmetry_space_group_name_H-M   'P 1'
_cell_length_a   5.04169500
_cell_length_b   5.97861500
_cell_length_c   10.21644400
_cell_angle_alpha   90.00000000
_cell_angle_beta   90.00000000
_cell_angle_gamma   90.00000000
_symmetry_Int_Tables_number   1
_chemical_formula_structural   LiNi2OF3
_chemical_formula_sum   'Li4 Ni8 O4 F12'
_cell_volume   307.94766505
_cell_formula_units_Z   4
loop_
 _symmetry_equiv_pos_site_id
 _symmetry_equiv_pos_as_xyz
  1  'x, y, z'
loop_
 _atom_site_type_symbol
 _atom_site_label
 _atom_site_symmetry_multiplicity
 _atom_site_fract_x
 _atom_site_fract_y
 _atom_site_fract_z
 _atom_site_occupancy
  Li  Li0  1  0.96744900  0.75000000  0.59260900  1
  Li  Li1  1  0.53255100  0.75000000  0.09260900  1
  Li  Li2  1  0.46744900  0.25000000  0.90739100  1
  Li  Li3  1  0.03255100  0.25000000  0.40739100  1
  Ni  Ni0  1  0.00000000  0.00000000  0.00000000  1
  Ni  Ni1  1  0.00000000  0.50000000  0.00000000  1
  Ni  Ni2  1  0.99372400  0.25000000  0.74144700  1
  Ni  Ni3  1  0.50627600  0.25000000  0.24144700  1
  Ni  Ni4  1  0.50000000  0.50000000  0.50000000  1
  Ni  Ni5  1  0.50000000  0.00000000  0.50000000  1
  Ni  Ni6  1  0.49372400  0.75000000  0.75855300  1
  Ni  Ni7  1  0.00627600  0.75000000  0.25855300  1
  O  O0  1  0.83013800  0.25000000  0.91394400  1
  O  O1  1  0.66986200  0.25000000  0.41394400  1
  O  O2  1  0.33013800  0.75000000  0.58605600  1
  O  O3  1  0.16986200  0.75000000  0.08605600  1
  F  F0  1  0.77809900  0.75000000  0.42548800  1
  F  F1  1  0.76069600  0.99120300  0.66967800  1
  F  F2  1  0.76069600  0.50879700  0.66967800  1
  F  F3  1  0.73930400  0.99120300  0.16967800  1
  F  F4  1  0.73930400  0.50879700  0.16967800  1
  F  F5  1  0.72190100  0.75000000  0.92548800  1
  F  F6  1  0.27809900  0.25000000  0.07451200  1
  F  F7  1  0.26069600  0.00879700  0.83032200  1
  F  F8  1  0.26069600  0.49120300  0.83032200  1
  F  F9  1  0.23930400  0.49120300  0.33032200  1
  F  F10  1  0.23930400  0.00879700  0.33032200  1
  F  F11  1  0.22190100  0.25000000  0.57451200  1
loop_
_geom_bond_atom_site_label_1
_geom_bond_atom_site_label_2
_geom_bond_distance
_geom_bond_site_symmetry_2
Li0 O2 1.829792 1_655
Li1 O3 1.829792 1_555
Li2 O0 1.829792 1_555
Li3 O1 1.829792 1_455
Ni0 O0 1.934003 1_454
Ni0 O3 1.934003 1_545
Ni1 O0 1.934003 1_454
Ni1 O3 1.934003 1_555
Ni2 O0 1.945748 1_555
Ni3 O1 1.945748 1_555
Ni4 O1 1.934003 1_555
Ni4 O2 1.934003 1_555
Ni5 O1 1.934003 1_555
Ni5 O2 1.934003 1_545
Ni6 O2 1.945748 1_555
Ni7 O3 1.945748 1_555
F0 Li0 1.956145 1_555
F0 Ni7 2.057204 1_655
F0 Ni4 2.186171 1_555
F0 Ni5 2.186171 1_565
F1 Li0 1.945779 1_555
F1 Ni2 2.076507 1_565
F1 Ni6 2.171559 1_555
F1 Ni5 2.176080 1_565
F2 Li0 1.945779 1_555
F2 Ni2 2.076507 1_555
F2 Ni6 2.171559 1_555
F2 Ni4 2.176080 1_555
F3 Li1 1.945779 1_555
F3 Ni3 2.076507 1_565
F3 Ni7 2.171559 1_655
F3 Ni0 2.176080 1_665
F4 Li1 1.945779 1_555
F4 Ni3 2.076507 1_555
F4 Ni7 2.171559 1_655
F4 Ni1 2.176080 1_655
F5 Li1 1.956145 1_556
F5 Ni6 2.057204 1_555
F5 Ni0 2.186171 1_666
F5 Ni1 2.186171 1_656
F6 Li2 1.956145 1_554
F6 Ni3 2.057204 1_555
F6 Ni0 2.186171 1_555
F6 Ni1 2.186171 1_555
F7 Li2 1.945779 1_555
F7 Ni6 2.076507 1_545
F7 Ni2 2.171559 1_455
F7 Ni0 2.176080 1_556
F8 Li2 1.945779 1_555
F8 Ni6 2.076507 1_555
F8 Ni2 2.171559 1_455
F8 Ni1 2.176080 1_556
F9 Li3 1.945779 1_555
F9 Ni7 2.076507 1_555
F9 Ni3 2.171559 1_555
F9 Ni4 2.176080 1_555
F10 Li3 1.945779 1_555
F10 Ni7 2.076507 1_545
F10 Ni3 2.171559 1_555
F10 Ni5 2.176080 1_555
F11 Li3 1.956145 1_555
F11 Ni2 2.057204 1_455
F11 Ni5 2.186171 1_555
F11 Ni4 2.186171 1_555
