# generated using pymatgen
data_Li5V3P8O29
_symmetry_space_group_name_H-M   'P 1'
_cell_length_a   9.78292000
_cell_length_b   9.78961380
_cell_length_c   14.16653862
_cell_angle_alpha   89.41664804
_cell_angle_beta   89.52222423
_cell_angle_gamma   60.23143928
_symmetry_Int_Tables_number   1
_chemical_formula_structural   Li5V3P8O29
_chemical_formula_sum   'Li10 V6 P16 O58'
_cell_volume   1177.63564385
_cell_formula_units_Z   2
loop_
 _symmetry_equiv_pos_site_id
 _symmetry_equiv_pos_as_xyz
  1  'x, y, z'
loop_
 _atom_site_type_symbol
 _atom_site_label
 _atom_site_symmetry_multiplicity
 _atom_site_fract_x
 _atom_site_fract_y
 _atom_site_fract_z
 _atom_site_occupancy
  Li  Li0  1  0.77839700  0.92249600  0.55586700  1
  Li  Li1  1  0.91287500  0.31153400  0.55508300  1
  Li  Li2  1  0.76422100  0.33072600  0.06240200  1
  Li  Li3  1  0.33051100  0.90370200  0.05965000  1
  Li  Li4  1  0.32185500  0.77039000  0.56178400  1
  Li  Li5  1  0.67344400  0.09428200  0.94521800  1
  Li  Li6  1  0.09071300  0.67953200  0.43865800  1
  Li  Li7  1  0.22798700  0.09305000  0.43899900  1
  Li  Li8  1  0.09582400  0.23127900  0.94009800  1
  Li  Li9  1  0.00157900  0.91789000  0.01944900  1
  V  V0  1  0.56250700  0.43613400  0.25330900  1
  V  V1  1  0.43340800  0.56145700  0.75369700  1
  V  V2  1  0.56601600  0.00047400  0.75009800  1
  V  V3  1  0.43597700  0.00016200  0.24968800  1
  V  V4  1  0.99375700  0.57083700  0.24251000  1
  V  V5  1  0.99911500  0.43623600  0.75105700  1
  P  P0  1  0.91336300  0.77726800  0.83938200  1
  P  P1  1  0.77119900  0.90973700  0.33877400  1
  P  P2  1  0.91098800  0.31719500  0.33978700  1
  P  P3  1  0.66416400  0.66512600  0.12888200  1
  P  P4  1  0.66366100  0.66912700  0.63304000  1
  P  P5  1  0.76971300  0.31592700  0.84304700  1
  P  P6  1  0.68734800  0.22815200  0.66103300  1
  P  P7  1  0.31257800  0.91205800  0.84088200  1
  P  P8  1  0.68904400  0.08877900  0.15722800  1
  P  P9  1  0.31967600  0.76910600  0.34543400  1
  P  P10  1  0.22454600  0.69414200  0.16370600  1
  P  P11  1  0.32340700  0.33854900  0.36583000  1
  P  P12  1  0.33795700  0.32630000  0.86974300  1
  P  P13  1  0.08643000  0.68295100  0.65675100  1
  P  P14  1  0.22884300  0.09100300  0.65925000  1
  P  P15  1  0.08876400  0.22829800  0.15851100  1
  O  O0  1  0.99965700  0.75103000  0.56598500  1
  O  O1  1  0.91861800  0.74103200  0.33421100  1
  O  O2  1  0.78033300  0.00866000  0.06934500  1
  O  O3  1  0.73916300  0.91978300  0.83629000  1
  O  O4  1  0.91416100  0.62097600  0.83118600  1
  O  O5  1  0.81190900  0.67067600  0.17396200  1
  O  O6  1  0.90669500  0.47567900  0.31821100  1
  O  O7  1  0.00127900  0.23281100  0.07034800  1
  O  O8  1  0.91939000  0.33408800  0.83758700  1
  O  O9  1  0.66584400  0.81808600  0.67742500  1
  O  O10  1  0.62079200  0.89786300  0.31948100  1
  O  O11  1  0.81223500  0.51816900  0.67201400  1
  O  O12  1  0.67518700  0.65721800  0.02416600  1
  O  O13  1  0.66263300  0.68224800  0.52828200  1
  O  O14  1  0.67457300  0.51164700  0.17198500  1
  O  O15  1  0.46984800  0.91431400  0.82448100  1
  O  O16  1  0.51170100  0.81161700  0.16641000  1
  O  O17  1  0.74687500  0.33868100  0.33818200  1
  O  O18  1  0.78757100  0.20162800  0.75788500  1
  O  O19  1  0.78443800  0.22274100  0.57876300  1
  O  O20  1  0.76756600  0.23632300  0.93426100  1
  O  O21  1  0.62203500  0.47659400  0.82755600  1
  O  O22  1  0.51214200  0.67124200  0.67234600  1
  O  O23  1  0.66367400  0.25665300  0.16138400  1
  O  O24  1  0.48105500  0.62432000  0.32673000  1
  O  O25  1  0.33258100  0.92074300  0.34099900  1
  O  O26  1  0.79387700  0.99923300  0.24957000  1
  O  O27  1  0.76533500  0.98691800  0.42902200  1
  O  O28  1  0.24358600  0.00149600  0.57061900  1
  O  O29  1  0.66367100  0.08048200  0.66172300  1
  O  O30  1  0.52796800  0.37907800  0.67256900  1
  O  O31  1  0.33967400  0.74630300  0.83798300  1
  O  O32  1  0.47139700  0.33968400  0.32153100  1
  O  O33  1  0.38151200  0.54096600  0.16701400  1
  O  O34  1  0.20408400  0.80465600  0.08374800  1
  O  O35  1  0.24411600  0.75785100  0.43604600  1
  O  O36  1  0.20148800  0.78809700  0.26119200  1
  O  O37  1  0.25011100  0.66690400  0.65908800  1
  O  O38  1  0.49138500  0.18301200  0.82240600  1
  O  O39  1  0.53377800  0.08650600  0.16858900  1
  O  O40  1  0.33240300  0.47743700  0.82550000  1
  O  O41  1  0.36208500  0.30720900  0.97365700  1
  O  O42  1  0.31348300  0.34638300  0.47051900  1
  O  O43  1  0.17716300  0.48840200  0.32173600  1
  O  O44  1  0.38061800  0.09957400  0.67781400  1
  O  O45  1  0.32509000  0.18692400  0.32754100  1
  O  O46  1  0.08325500  0.66210300  0.16475400  1
  O  O47  1  0.98703000  0.79914100  0.74091300  1
  O  O48  1  0.99618500  0.79793700  0.92007000  1
  O  O49  1  0.09877800  0.52096100  0.68000200  1
  O  O50  1  0.19028400  0.32047100  0.83514700  1
  O  O51  1  0.09200200  0.38397100  0.17141600  1
  O  O52  1  0.25700100  0.08526400  0.15856100  1
  O  O53  1  0.23295500  0.00014000  0.92976100  1
  O  O54  1  0.20532800  0.00387800  0.74991600  1
  O  O55  1  0.08209000  0.25641200  0.65848500  1
  O  O56  1  0.00285400  0.24247200  0.42819800  1
  O  O57  1  0.00564600  0.20522900  0.25049100  1
loop_
_geom_bond_atom_site_label_1
_geom_bond_atom_site_label_2
_geom_bond_distance
_geom_bond_site_symmetry_2
Li0 O27 1.882510 1_555
Li0 O0 1.978855 1_555
Li0 O29 2.048418 1_565
Li0 O9 2.504550 1_555
Li1 O19 1.875761 1_555
Li1 O56 1.967340 1_655
Li1 O55 2.077181 1_655
Li1 O11 2.422550 1_555
Li2 O7 2.025966 1_655
Li2 O23 2.030819 1_555
Li2 O20 2.038054 1_554
Li2 O14 2.192473 1_555
Li3 O34 1.939979 1_555
Li3 O53 2.070565 1_564
Li3 O52 2.098684 1_565
Li3 O16 2.161546 1_555
Li4 O35 1.971326 1_555
Li4 O28 2.001135 1_565
Li4 O37 2.020054 1_555
Li4 O22 2.254819 1_555
Li5 O2 2.004617 1_556
Li5 O20 2.017459 1_555
Li5 O3 2.158554 1_545
Li5 O38 2.332028 1_555
Li6 O0 1.979100 1_455
Li6 O35 1.995613 1_555
Li6 O1 2.098383 1_455
Li6 O43 2.329854 1_555
Li7 O56 1.953428 1_555
Li7 O25 2.032209 1_545
Li7 O28 2.034265 1_555
Li7 O45 2.247760 1_555
Li8 O53 1.982527 1_555
Li8 O7 2.053965 1_556
Li8 O8 2.094792 1_455
Li8 O50 2.139809 1_555
Li9 O48 1.860173 1_454
Li9 O34 1.952460 1_555
Li9 O2 2.012821 1_465
O0 P13 1.502378 1_655
O1 P1 1.564344 1_555
O1 V4 1.953453 1_555
O2 P8 1.506174 1_555
O3 P0 1.578508 1_555
O3 V2 1.915816 1_565
O4 P0 1.531764 1_555
O4 V5 1.945151 1_555
O5 P3 1.610588 1_555
O5 V4 1.829219 1_555
O6 P2 1.558264 1_555
O6 V4 1.869656 1_555
O7 P15 1.507818 1_555
O8 P5 1.561423 1_555
O8 V5 1.960744 1_555
O9 P4 1.603789 1_555
O9 V2 1.868384 1_565
O10 P1 1.559001 1_555
O10 V3 1.860414 1_565
O11 P4 1.570110 1_555
O11 V5 1.949198 1_555
O12 P3 1.486495 1_555
O13 P4 1.487990 1_555
O14 P3 1.571992 1_555
O14 V0 1.960124 1_555
O15 P7 1.565028 1_555
O15 V2 1.860188 1_565
O16 P3 1.562760 1_555
O16 V3 2.004874 1_565
O17 P2 1.512475 1_555
O17 V0 1.978164 1_555
O18 P5 1.602479 1_555
O18 P6 1.635136 1_555
O19 P6 1.481942 1_555
O20 P5 1.507574 1_555
O21 P5 1.533334 1_555
O21 V1 1.918956 1_555
O22 P4 1.569615 1_555
O22 V1 1.964319 1_555
O23 P8 1.537075 1_555
O23 V0 2.015176 1_555
O24 P9 1.533076 1_555
O24 V0 1.917875 1_555
O25 P9 1.551644 1_555
O25 V3 2.009867 1_565
O26 P1 1.606110 1_555
O26 P8 1.624145 1_565
O27 P1 1.477888 1_555
O28 P14 1.502998 1_555
O29 P6 1.573462 1_555
O29 V2 1.948516 1_555
O30 P6 1.534248 1_555
O30 V1 1.936068 1_555
O31 P7 1.509665 1_555
O31 V1 1.979685 1_555
O32 P11 1.578192 1_555
O32 V0 1.850080 1_555
O33 P10 1.523830 1_555
O33 V0 1.972075 1_555
O34 P10 1.502466 1_555
O35 P9 1.506155 1_555
O36 P9 1.612670 1_555
O36 P10 1.618270 1_555
O37 P13 1.529985 1_555
O37 V1 2.061860 1_555
O38 P12 1.606842 1_555
O38 V2 1.872137 1_555
O39 P8 1.537217 1_555
O39 V3 1.927392 1_555
O40 P12 1.576954 1_555
O40 V1 1.860347 1_555
O41 P12 1.487990 1_555
O42 P11 1.485718 1_555
O43 P11 1.581548 1_555
O43 V4 1.925508 1_455
O44 P14 1.552906 1_555
O44 V2 1.882260 1_555
O45 P11 1.577899 1_555
O45 V3 1.946178 1_555
O46 P10 1.561808 1_555
O46 V4 1.875873 1_455
O47 P13 1.603400 1_655
O47 P0 1.625283 1_555
O48 P0 1.478849 1_555
O49 P13 1.561318 1_555
O49 V5 1.849720 1_455
O50 P12 1.557170 1_555
O50 V5 2.026355 1_455
O51 P15 1.552625 1_555
O51 V4 1.886820 1_455
O52 P15 1.543068 1_555
O52 V3 1.998406 1_555
O53 P7 1.508121 1_545
O54 P14 1.611750 1_555
O54 P7 1.622335 1_545
O55 P14 1.541035 1_555
O55 V5 2.021896 1_455
O56 P2 1.502931 1_455
O57 P15 1.602744 1_555
O57 P2 1.630958 1_455
