# generated using pymatgen
data_Y(Al5Fe)2
_symmetry_space_group_name_H-M   'P 1'
_cell_length_a   6.71095511
_cell_length_b   6.71095511
_cell_length_c   8.88203443
_cell_angle_alpha   90.00000000
_cell_angle_beta   90.00000000
_cell_angle_gamma   97.41598479
_symmetry_Int_Tables_number   1
_chemical_formula_structural   Y(Al5Fe)2
_chemical_formula_sum   'Y2 Al20 Fe4'
_cell_volume   396.67337479
_cell_formula_units_Z   2
loop_
 _symmetry_equiv_pos_site_id
 _symmetry_equiv_pos_as_xyz
  1  'x, y, z'
loop_
 _atom_site_type_symbol
 _atom_site_label
 _atom_site_symmetry_multiplicity
 _atom_site_fract_x
 _atom_site_fract_y
 _atom_site_fract_z
 _atom_site_occupancy
  Y  Y0  1  0.12545513  0.87454487  0.25000000  1
  Y  Y1  1  0.87454487  0.12545513  0.75000000  1
  Al  Al0  1  0.58632530  0.86654763  0.25000000  1
  Al  Al1  1  0.41367470  0.13345237  0.75000000  1
  Al  Al2  1  0.86654763  0.58632530  0.75000000  1
  Al  Al3  1  0.13345237  0.41367470  0.25000000  1
  Al  Al4  1  0.47899753  0.21954508  0.25000000  1
  Al  Al5  1  0.52100247  0.78045492  0.75000000  1
  Al  Al6  1  0.21954508  0.47899753  0.75000000  1
  Al  Al7  1  0.78045492  0.52100247  0.25000000  1
  Al  Al8  1  0.15918997  0.84081003  0.90265846  1
  Al  Al9  1  0.84081003  0.15918997  0.40265846  1
  Al  Al10  1  0.84081003  0.15918997  0.09734154  1
  Al  Al11  1  0.15918997  0.84081003  0.59734154  1
  Al  Al12  1  0.37476117  0.62523883  0.45120596  1
  Al  Al13  1  0.62523883  0.37476117  0.95120596  1
  Al  Al14  1  0.62523883  0.37476117  0.54879404  1
  Al  Al15  1  0.37476117  0.62523883  0.04879404  1
  Al  Al16  1  0.22801614  0.22801614  0.50000000  1
  Al  Al17  1  0.77198386  0.77198386  0.00000000  1
  Al  Al18  1  0.77198386  0.77198386  0.50000000  1
  Al  Al19  1  0.22801614  0.22801614  0.00000000  1
  Fe  Fe0  1  0.50000000  0.00000000  0.50000000  1
  Fe  Fe1  1  0.50000000  0.00000000  0.00000000  1
  Fe  Fe2  1  0.00000000  0.50000000  0.50000000  1
  Fe  Fe3  1  0.00000000  0.50000000  0.00000000  1
loop_
_geom_bond_atom_site_label_1
_geom_bond_atom_site_label_2
_geom_bond_distance
_geom_bond_site_symmetry_2
Al0 Fe0 2.490441 1_565
Al0 Fe1 2.490441 1_565
Al0 Al4 2.563432 1_565
Al0 Al18 2.662684 1_555
Al0 Al17 2.662684 1_555
Al0 Al15 2.690460 1_555
Al0 Al12 2.690460 1_555
Al0 Al10 2.783223 1_565
Al0 Al9 2.783223 1_565
Al0 Al7 2.802611 1_555
Al0 Y0 3.100263 1_555
Al0 Y0 3.611541 1_655
Al1 Fe0 2.490441 1_555
Al1 Fe1 2.490441 1_556
Al1 Al5 2.563432 1_545
Al1 Al19 2.662684 1_556
Al1 Al16 2.662684 1_555
Al1 Al14 2.690460 1_555
Al1 Al13 2.690460 1_555
Al1 Al8 2.783223 1_545
Al1 Al11 2.783223 1_545
Al1 Al6 2.802611 1_555
Al1 Y1 3.100263 1_555
Al1 Y1 3.611541 1_455
Al2 Fe3 2.490441 1_656
Al2 Fe2 2.490441 1_655
Al2 Al6 2.563432 1_655
Al2 Al8 2.783223 1_655
Al2 Al5 2.802611 1_555
Al2 Y1 3.100263 1_555
Al2 Y1 3.611541 1_565
Al3 Fe2 2.490441 1_555
Al3 Fe3 2.490441 1_555
Al3 Al7 2.563432 1_455
Al3 Al9 2.783223 1_455
Al3 Al4 2.802611 1_555
Al3 Y0 3.100263 1_555
Al3 Y0 3.611541 1_545
Al4 Al7 2.670031 1_555
Al4 Fe1 2.678603 1_555
Al4 Fe0 2.678603 1_555
Al4 Al9 2.855198 1_555
Al4 Y0 3.093823 1_545
Al5 Al6 2.670031 1_555
Al5 Fe1 2.678603 1_566
Al5 Fe0 2.678603 1_565
Al5 Al8 2.855198 1_555
Al5 Y1 3.093823 1_565
Al6 Fe2 2.678603 1_555
Al6 Fe3 2.678603 1_556
Al6 Al8 2.855198 1_555
Al6 Y1 3.093823 1_455
Al7 Fe2 2.678603 1_655
Al7 Fe3 2.678603 1_655
Al7 Al9 2.855198 1_555
Al7 Y0 3.093823 1_655
Al8 Fe3 2.547385 1_556
Al8 Fe1 2.547385 1_566
Al8 Y0 3.103800 1_556
Al8 Y1 3.174669 1_465
Al9 Fe0 2.547385 1_555
Al9 Fe2 2.547385 1_655
Al9 Y1 3.103800 1_555
Al9 Y0 3.174669 1_645
Al10 Al13 2.531964 1_554
Al10 Fe1 2.547385 1_555
Al10 Fe3 2.547385 1_655
Al10 Al9 2.711835 1_555
Al10 Al19 2.720909 1_655
Al10 Al17 2.720909 1_545
Al10 Al3 2.783223 1_655
Al10 Al4 2.855198 1_555
Al10 Al7 2.855198 1_555
Al10 Y1 3.103800 1_554
Al10 Y0 3.174669 1_645
Al11 Al12 2.531964 1_555
Al11 Fe2 2.547385 1_555
Al11 Fe0 2.547385 1_565
Al11 Al8 2.711835 1_555
Al11 Al18 2.720909 1_455
Al11 Al16 2.720909 1_565
Al11 Al2 2.783223 1_455
Al11 Al5 2.855198 1_555
Al11 Al6 2.855198 1_555
Al11 Y0 3.103800 1_555
Al11 Y1 3.174669 1_465
Al12 Fe0 2.583372 1_565
Al12 Fe2 2.583372 1_555
Al12 Al14 2.670555 1_555
Al12 Al3 2.690460 1_555
Al12 Al16 2.754298 1_555
Al12 Al18 2.754298 1_555
Al12 Al6 2.971110 1_555
Al12 Al5 2.971110 1_555
Al12 Y0 3.084606 1_555
Al13 Fe3 2.583372 1_656
Al13 Fe1 2.583372 1_556
Al13 Al15 2.670555 1_556
Al13 Al2 2.690460 1_555
Al13 Al17 2.754298 1_556
Al13 Al19 2.754298 1_556
Al13 Al4 2.971110 1_556
Al13 Al7 2.971110 1_556
Al13 Y1 3.084606 1_555
Al14 Al9 2.531964 1_555
Al14 Fe2 2.583372 1_655
Al14 Fe0 2.583372 1_555
Al14 Al2 2.690460 1_555
Al14 Al18 2.754298 1_555
Al14 Al16 2.754298 1_555
Al14 Al4 2.971110 1_555
Al14 Al7 2.971110 1_555
Al14 Y1 3.084606 1_555
Al15 Al8 2.531964 1_554
Al15 Fe3 2.583372 1_555
Al15 Fe1 2.583372 1_565
Al15 Al3 2.690460 1_555
Al15 Al19 2.754298 1_555
Al15 Al17 2.754298 1_555
Al15 Al6 2.971110 1_554
Al15 Al5 2.971110 1_554
Al15 Y0 3.084606 1_555
Al16 Fe2 2.528667 1_555
Al16 Fe0 2.528667 1_555
Al16 Al3 2.662684 1_555
Al16 Al9 2.720909 1_455
Al16 Al6 2.792053 1_555
Al16 Al4 2.792053 1_555
Al16 Y1 3.257287 1_455
Al16 Y0 3.257287 1_545
Al17 Fe3 2.528667 1_655
Al17 Fe1 2.528667 1_565
Al17 Al2 2.662684 1_554
Al17 Al8 2.720909 1_654
Al17 Al5 2.792053 1_554
Al17 Al7 2.792053 1_555
Al17 Y0 3.257287 1_655
Al17 Y1 3.257287 1_564
Al18 Fe2 2.528667 1_655
Al18 Fe0 2.528667 1_565
Al18 Al2 2.662684 1_555
Al18 Al9 2.720909 1_565
Al18 Al7 2.792053 1_555
Al18 Al5 2.792053 1_555
Al18 Y1 3.257287 1_565
Al18 Y0 3.257287 1_655
Al19 Fe1 2.528667 1_555
Al19 Fe3 2.528667 1_555
Al19 Al3 2.662684 1_555
Al19 Al8 2.720909 1_544
Al19 Al6 2.792053 1_554
Al19 Al4 2.792053 1_555
Al19 Y1 3.257287 1_454
Al19 Y0 3.257287 1_545
Fe0 Y0 3.378040 1_545
Fe0 Y1 3.378040 1_555
Fe1 Y0 3.378040 1_545
Fe1 Y1 3.378040 1_554
Fe2 Y1 3.378040 1_455
Fe2 Y0 3.378040 1_555
Fe3 Y0 3.378040 1_555
Fe3 Y1 3.378040 1_454
