# generated using pymatgen
data_CuH6C2SeI
_symmetry_space_group_name_H-M   'P 1'
_cell_length_a   7.21480800
_cell_length_b   7.66609500
_cell_length_c   11.42732997
_cell_angle_alpha   87.81703555
_cell_angle_beta   90.00000000
_cell_angle_gamma   90.00000000
_symmetry_Int_Tables_number   1
_chemical_formula_structural   CuH6C2SeI
_chemical_formula_sum   'Cu4 H24 C8 Se4 I4'
_cell_volume   631.58012541
_cell_formula_units_Z   4
loop_
 _symmetry_equiv_pos_site_id
 _symmetry_equiv_pos_as_xyz
  1  'x, y, z'
loop_
 _atom_site_type_symbol
 _atom_site_label
 _atom_site_symmetry_multiplicity
 _atom_site_fract_x
 _atom_site_fract_y
 _atom_site_fract_z
 _atom_site_occupancy
  Cu  Cu0  1  0.04472300  0.49771000  0.38049700  1
  Cu  Cu1  1  0.54472300  0.50229000  0.11950300  1
  Cu  Cu2  1  0.95527700  0.50229000  0.61950300  1
  Cu  Cu3  1  0.45527700  0.49771000  0.88049700  1
  H  H0  1  0.47369000  0.83247800  0.36554200  1
  H  H1  1  0.97369000  0.16752200  0.13445800  1
  H  H2  1  0.52631000  0.16752200  0.63445800  1
  H  H3  1  0.02631000  0.83247800  0.86554200  1
  H  H4  1  0.24181700  0.91459900  0.33980800  1
  H  H5  1  0.74181700  0.08540100  0.16019200  1
  H  H6  1  0.75818300  0.08540100  0.66019200  1
  H  H7  1  0.25818300  0.91459900  0.83980800  1
  H  H8  1  0.41396700  0.92826900  0.22432200  1
  H  H9  1  0.91396700  0.07173100  0.27567800  1
  H  H10  1  0.58603300  0.07173100  0.77567800  1
  H  H11  1  0.08603300  0.92826900  0.72432200  1
  H  H12  1  0.08164100  0.60635600  0.06907000  1
  H  H13  1  0.58164100  0.39364400  0.43093000  1
  H  H14  1  0.91835900  0.39364400  0.93093000  1
  H  H15  1  0.41835900  0.60635600  0.56907000  1
  H  H16  1  0.00617600  0.77811400  0.16075900  1
  H  H17  1  0.50617600  0.22188600  0.33924100  1
  H  H18  1  0.99382400  0.22188600  0.83924100  1
  H  H19  1  0.49382400  0.77811400  0.66075900  1
  H  H20  1  0.20790900  0.80898800  0.06728500  1
  H  H21  1  0.70790900  0.19101200  0.43271500  1
  H  H22  1  0.79209100  0.19101200  0.93271500  1
  H  H23  1  0.29209100  0.80898800  0.56728500  1
  C  C0  1  0.36276400  0.85238300  0.30114700  1
  C  C1  1  0.86276400  0.14761700  0.19885300  1
  C  C2  1  0.63723600  0.14761700  0.69885300  1
  C  C3  1  0.13723600  0.85238300  0.80114700  1
  C  C4  1  0.12568000  0.71619300  0.12092500  1
  C  C5  1  0.62568000  0.28380700  0.37907500  1
  C  C6  1  0.87432000  0.28380700  0.87907500  1
  C  C7  1  0.37432000  0.71619300  0.62092500  1
  Se  Se0  1  0.28777300  0.62164600  0.24615700  1
  Se  Se1  1  0.78777300  0.37835400  0.25384300  1
  Se  Se2  1  0.71222700  0.37835400  0.75384300  1
  Se  Se3  1  0.21222700  0.62164600  0.74615700  1
  I  I0  1  0.14005300  0.24515500  0.52662000  1
  I  I1  1  0.64005300  0.75484500  0.97338000  1
  I  I2  1  0.85994700  0.75484500  0.47338000  1
  I  I3  1  0.35994700  0.24515500  0.02662000  1
loop_
_geom_bond_atom_site_label_1
_geom_bond_atom_site_label_2
_geom_bond_distance
_geom_bond_site_symmetry_2
Cu0 Se0 2.494641 1_555
Cu0 Se1 2.543535 1_455
Cu0 I0 2.600674 1_555
Cu0 I2 2.636077 1_455
Cu1 Se1 2.494641 1_555
Cu1 Se0 2.543535 1_555
Cu1 I1 2.600674 1_554
Cu1 I3 2.636077 1_555
Cu2 Se2 2.494641 1_555
Cu2 Se3 2.543535 1_655
Cu2 I2 2.600674 1_555
Cu2 I0 2.636077 1_655
Cu3 Se3 2.494641 1_555
Cu3 Se2 2.543535 1_555
Cu3 I3 2.600674 1_556
Cu3 I1 2.636077 1_555
C0 H0 1.093947 1_555
C0 H4 1.095520 1_555
C0 H8 1.098505 1_555
C0 Se0 1.975125 1_555
C1 H1 1.093947 1_555
C1 H5 1.095520 1_555
C1 H9 1.098505 1_555
C1 Se1 1.975125 1_555
C2 H2 1.093947 1_555
C2 H6 1.095520 1_555
C2 H10 1.098505 1_555
C2 Se2 1.975125 1_555
C3 H3 1.093947 1_555
C3 H7 1.095520 1_555
C3 H11 1.098505 1_555
C3 Se3 1.975125 1_555
C4 H16 1.091963 1_555
C4 H12 1.095033 1_555
C4 H20 1.095684 1_555
C4 Se0 1.965182 1_555
C5 H17 1.091963 1_555
C5 H13 1.095033 1_555
C5 H21 1.095684 1_555
C5 Se1 1.965182 1_555
C6 H18 1.091963 1_555
C6 H14 1.095033 1_555
C6 H22 1.095684 1_555
C6 Se2 1.965182 1_555
C7 H19 1.091963 1_555
C7 H15 1.095033 1_555
C7 H23 1.095684 1_555
C7 Se3 1.965182 1_555
