# generated using pymatgen
data_YbGa3Au
_symmetry_space_group_name_H-M   'P 1'
_cell_length_a   4.10558100
_cell_length_b   4.10558100
_cell_length_c   6.59765947
_cell_angle_alpha   71.87210710
_cell_angle_beta   71.87210710
_cell_angle_gamma   90.00000000
_symmetry_Int_Tables_number   1
_chemical_formula_structural   YbGa3Au
_chemical_formula_sum   'Yb1 Ga3 Au1'
_cell_volume   99.86431708
_cell_formula_units_Z   1
loop_
 _symmetry_equiv_pos_site_id
 _symmetry_equiv_pos_as_xyz
  1  'x, y, z'
loop_
 _atom_site_type_symbol
 _atom_site_label
 _atom_site_symmetry_multiplicity
 _atom_site_fract_x
 _atom_site_fract_y
 _atom_site_fract_z
 _atom_site_occupancy
  Yb  Yb0  1  0.00111700  0.00111700  0.99776500  1
  Ga  Ga0  1  0.74741000  0.24741000  0.50518000  1
  Ga  Ga1  1  0.24741000  0.74741000  0.50518000  1
  Ga  Ga2  1  0.60889800  0.60889800  0.78220400  1
  Au  Au0  1  0.39516400  0.39516400  0.20967200  1
loop_
_geom_bond_atom_site_label_1
_geom_bond_atom_site_label_2
_geom_bond_distance
_geom_bond_site_symmetry_2
Ga2 Yb0 3.171579 1_665
Ga2 Yb0 3.171582 1_655
Ga2 Yb0 3.171582 1_565
Ga2 Yb0 3.171584 1_555
Au0 Ga2 2.532589 1_554
Au0 Ga1 2.697992 1_555
Au0 Ga0 2.697992 1_555
Au0 Ga1 2.697992 1_545
Au0 Ga0 2.697992 1_455
Au0 Yb0 3.162924 1_664
Au0 Yb0 3.162926 1_564
Au0 Yb0 3.162926 1_654
Au0 Yb0 3.162929 1_554
