# generated using pymatgen
data_Mn2CuSb2Pt
_symmetry_space_group_name_H-M   'P 1'
_cell_length_a   7.58346957
_cell_length_b   7.58346957
_cell_length_c   7.58346950
_cell_angle_alpha   33.59855328
_cell_angle_beta   33.59855328
_cell_angle_gamma   33.59855043
_symmetry_Int_Tables_number   1
_chemical_formula_structural   Mn2CuSb2Pt
_chemical_formula_sum   'Mn2 Cu1 Sb2 Pt1'
_cell_volume   118.96199996
_cell_formula_units_Z   1
loop_
 _symmetry_equiv_pos_site_id
 _symmetry_equiv_pos_as_xyz
  1  'x, y, z'
loop_
 _atom_site_type_symbol
 _atom_site_label
 _atom_site_symmetry_multiplicity
 _atom_site_fract_x
 _atom_site_fract_y
 _atom_site_fract_z
 _atom_site_occupancy
  Mn  Mn0  1  0.75046800  0.75046800  0.75046800  1
  Mn  Mn1  1  0.24937300  0.24937300  0.24937300  1
  Cu  Cu0  1  0.12461300  0.12461300  0.12461300  1
  Sb  Sb0  1  0.00223700  0.00223700  0.00223700  1
  Sb  Sb1  1  0.49797100  0.49797100  0.49797100  1
  Pt  Pt0  1  0.62533800  0.62533800  0.62533800  1
loop_
_geom_bond_atom_site_label_1
_geom_bond_atom_site_label_2
_geom_bond_distance
_geom_bond_site_symmetry_2
Mn0 Pt0 2.683549 1_555
Mn0 Sb1 3.067671 1_565
Mn0 Sb1 3.067671 1_655
Mn0 Sb1 3.067671 1_556
Mn0 Sb0 3.076521 1_566
Mn0 Sb0 3.076521 1_656
Mn0 Sb0 3.076521 1_665
Mn1 Pt0 2.690923 1_455
Mn1 Pt0 2.690923 1_545
Mn1 Pt0 2.690923 1_554
Mn1 Sb1 3.115689 1_455
Mn1 Sb1 3.115689 1_545
Mn1 Sb1 3.115689 1_554
Mn1 Sb0 3.134080 1_565
Mn1 Sb0 3.134080 1_655
Mn1 Sb0 3.134080 1_556
Cu0 Sb0 2.624487 1_555
Cu0 Sb1 2.672444 1_545
Cu0 Sb1 2.672444 1_455
Cu0 Sb1 2.672444 1_554
Cu0 Mn1 2.675614 1_555
Cu0 Mn0 2.677913 1_454
Cu0 Mn0 2.677913 1_544
Cu0 Mn0 2.677913 1_445
Pt0 Sb0 2.697794 1_656
Pt0 Sb0 2.697794 1_566
Pt0 Sb0 2.697795 1_665
Pt0 Sb1 2.731524 1_555
