# generated using pymatgen
data_LaCoSi3
_symmetry_space_group_name_H-M   'P 1'
_cell_length_a   5.64866014
_cell_length_b   5.64866014
_cell_length_c   5.64866014
_cell_angle_alpha   136.73832699
_cell_angle_beta   136.73832699
_cell_angle_gamma   62.84091213
_symmetry_Int_Tables_number   1
_chemical_formula_structural   LaCoSi3
_chemical_formula_sum   'La1 Co1 Si3'
_cell_volume   83.59886111
_cell_formula_units_Z   1
loop_
 _symmetry_equiv_pos_site_id
 _symmetry_equiv_pos_as_xyz
  1  'x, y, z'
loop_
 _atom_site_type_symbol
 _atom_site_label
 _atom_site_symmetry_multiplicity
 _atom_site_fract_x
 _atom_site_fract_y
 _atom_site_fract_z
 _atom_site_occupancy
  La  La0  1  0.00495850  0.00495850  0.00000000  1
  Co  Co0  1  0.66192872  0.66192872  -0.00000000  1
  Si  Si0  1  0.42529671  0.42529671  -0.00000000  1
  Si  Si1  1  0.26140753  0.76140753  0.50000000  1
  Si  Si2  1  0.76140753  0.26140753  0.50000000  1
loop_
_geom_bond_atom_site_label_1
_geom_bond_atom_site_label_2
_geom_bond_distance
_geom_bond_site_symmetry_2
La0 Si0 3.043229 1_545
La0 Si0 3.043229 1_556
La0 Si0 3.043229 1_455
La0 Si0 3.043229 1_444
La0 Si1 3.138290 1_545
La0 Si1 3.138290 1_444
La0 Si2 3.138290 1_444
La0 Si2 3.138290 1_455
La0 Si2 3.232377 1_555
La0 Si2 3.232377 1_454
La0 Si1 3.232377 1_544
La0 Si1 3.232377 1_555
Co0 Si0 2.281306 1_555
Co0 Si1 2.292484 1_655
Co0 Si2 2.292484 1_565
Co0 Si1 2.292484 1_554
Co0 Si2 2.292484 1_554
Co0 La0 3.307059 1_665
Co0 La0 3.310819 1_554
Co0 La0 3.310819 1_565
Co0 La0 3.310819 1_655
Co0 La0 3.310819 1_666
Si0 Si2 2.613838 1_454
Si0 Si1 2.613838 1_544
Si0 Si2 2.613838 1_555
Si0 Si1 2.613838 1_555
