# generated using pymatgen
data_BaAl4O7
_symmetry_space_group_name_H-M   'P 1'
_cell_length_a   4.96090500
_cell_length_b   10.36095400
_cell_length_c   13.04735400
_cell_angle_alpha   90.00000000
_cell_angle_beta   90.00000000
_cell_angle_gamma   90.00000000
_symmetry_Int_Tables_number   1
_chemical_formula_structural   BaAl4O7
_chemical_formula_sum   'Ba4 Al16 O28'
_cell_volume   670.63019234
_cell_formula_units_Z   4
loop_
 _symmetry_equiv_pos_site_id
 _symmetry_equiv_pos_as_xyz
  1  'x, y, z'
loop_
 _atom_site_type_symbol
 _atom_site_label
 _atom_site_symmetry_multiplicity
 _atom_site_fract_x
 _atom_site_fract_y
 _atom_site_fract_z
 _atom_site_occupancy
  Ba  Ba0  1  0.02664100  0.26016100  0.00000000  1
  Ba  Ba1  1  0.97335900  0.76016100  0.00000000  1
  Ba  Ba2  1  0.48302800  0.58472900  0.50000000  1
  Ba  Ba3  1  0.51697200  0.08472900  0.50000000  1
  Al  Al0  1  0.95238000  0.07393400  0.74878200  1
  Al  Al1  1  0.95238000  0.07393400  0.25121800  1
  Al  Al2  1  0.04762000  0.57393400  0.25121800  1
  Al  Al3  1  0.04762000  0.57393400  0.74878200  1
  Al  Al4  1  0.44857300  0.26074500  0.75135300  1
  Al  Al5  1  0.44857300  0.26074500  0.24864700  1
  Al  Al6  1  0.55142700  0.76074500  0.24864700  1
  Al  Al7  1  0.55142700  0.76074500  0.75135300  1
  Al  Al8  1  0.95327300  0.32460900  0.61825700  1
  Al  Al9  1  0.95327300  0.32460900  0.38174300  1
  Al  Al10  1  0.04672700  0.82460900  0.38174300  1
  Al  Al11  1  0.04672700  0.82460900  0.61825700  1
  Al  Al12  1  0.45919100  0.01074500  0.88158600  1
  Al  Al13  1  0.45919100  0.01074500  0.11841400  1
  Al  Al14  1  0.54080900  0.51074500  0.11841400  1
  Al  Al15  1  0.54080900  0.51074500  0.88158600  1
  O  O0  1  0.54250500  0.07819700  0.00000000  1
  O  O1  1  0.45749500  0.57819700  0.00000000  1
  O  O2  1  0.03847400  0.25649900  0.50000000  1
  O  O3  1  0.96152600  0.75649900  0.50000000  1
  O  O4  1  0.10796500  0.02528500  0.86238300  1
  O  O5  1  0.10796500  0.02528500  0.13761700  1
  O  O6  1  0.89203500  0.52528500  0.13761700  1
  O  O7  1  0.89203500  0.52528500  0.86238300  1
  O  O8  1  0.60851000  0.10926500  0.78240200  1
  O  O9  1  0.60851000  0.10926500  0.21759800  1
  O  O10  1  0.39149000  0.60926500  0.21759800  1
  O  O11  1  0.39149000  0.60926500  0.78240200  1
  O  O12  1  0.60258900  0.30553900  0.63640900  1
  O  O13  1  0.60258900  0.30553900  0.36359100  1
  O  O14  1  0.39741100  0.80553900  0.36359100  1
  O  O15  1  0.39741100  0.80553900  0.63640900  1
  O  O16  1  0.95198000  0.98589800  0.63447200  1
  O  O17  1  0.95198000  0.98589800  0.36552800  1
  O  O18  1  0.04802000  0.48589800  0.36552800  1
  O  O19  1  0.04802000  0.48589800  0.63447200  1
  O  O20  1  0.43910800  0.34996000  0.86507600  1
  O  O21  1  0.43910800  0.34996000  0.13492400  1
  O  O22  1  0.56089200  0.84996000  0.13492400  1
  O  O23  1  0.56089200  0.84996000  0.86507600  1
  O  O24  1  0.10489600  0.22668500  0.71779600  1
  O  O25  1  0.10489600  0.22668500  0.28220400  1
  O  O26  1  0.89510400  0.72668500  0.28220400  1
  O  O27  1  0.89510400  0.72668500  0.71779600  1
loop_
_geom_bond_atom_site_label_1
_geom_bond_atom_site_label_2
_geom_bond_distance
_geom_bond_site_symmetry_2
Ba0 O21 2.855107 1_555
Ba0 O20 2.855107 1_554
Ba0 O5 3.051038 1_555
Ba0 O4 3.051038 1_554
Ba0 O0 3.053334 1_455
Ba0 O0 3.178631 1_555
Ba0 O7 3.348960 1_454
Ba0 O6 3.348960 1_455
Ba1 O22 2.855107 1_555
Ba1 O23 2.855107 1_554
Ba1 O6 3.051038 1_555
Ba1 O7 3.051038 1_554
Ba1 O1 3.053334 1_655
Ba1 O1 3.178631 1_555
Ba1 O5 3.348960 1_665
Ba1 O4 3.348960 1_664
Ba2 O14 2.929513 1_555
Ba2 O15 2.929513 1_555
Ba2 O18 2.963770 1_555
Ba2 O19 2.963770 1_555
Ba2 O3 2.966847 1_555
Ba2 O3 3.140149 1_455
Ba2 O12 3.447749 1_555
Ba2 O13 3.447749 1_555
Ba2 O18 3.461635 1_655
Ba2 O19 3.461635 1_655
Ba3 O12 2.929513 1_555
Ba3 O13 2.929513 1_555
Ba3 O17 2.963770 1_545
Ba3 O16 2.963770 1_545
Ba3 O2 2.966847 1_555
Ba3 O2 3.140149 1_655
Ba3 O15 3.447749 1_545
Ba3 O14 3.447749 1_545
Ba3 O17 3.461635 1_445
Ba3 O16 3.461635 1_445
Al0 O4 1.745480 1_655
Al0 O16 1.748256 1_545
Al0 O8 1.799037 1_555
Al0 O24 1.800190 1_655
Al1 O5 1.745480 1_655
Al1 O17 1.748256 1_545
Al1 O9 1.799037 1_555
Al1 O25 1.800190 1_655
Al2 O6 1.745480 1_455
Al2 O18 1.748256 1_555
Al2 O10 1.799037 1_555
Al2 O26 1.800190 1_455
Al3 O7 1.745480 1_455
Al3 O19 1.748256 1_555
Al3 O11 1.799037 1_555
Al3 O27 1.800190 1_455
Al4 O12 1.745946 1_555
Al4 O20 1.748785 1_555
Al4 O24 1.795294 1_555
Al4 O8 1.804690 1_555
Al5 O13 1.745946 1_555
Al5 O21 1.748785 1_555
Al5 O25 1.795294 1_555
Al5 O9 1.804690 1_555
Al6 O14 1.745946 1_555
Al6 O22 1.748785 1_555
Al6 O26 1.795294 1_555
Al6 O10 1.804690 1_555
Al7 O15 1.745946 1_555
Al7 O23 1.748785 1_555
Al7 O27 1.795294 1_555
Al7 O11 1.804690 1_555
Al8 O2 1.748517 1_655
Al8 O19 1.748797 1_655
Al8 O12 1.766839 1_555
Al8 O24 1.811587 1_655
Al9 O2 1.748517 1_655
Al9 O18 1.748797 1_655
Al9 O13 1.766839 1_555
Al9 O25 1.811587 1_655
Al10 O3 1.748517 1_455
Al10 O17 1.748797 1_455
Al10 O14 1.766839 1_555
Al10 O26 1.811587 1_455
Al11 O3 1.748517 1_455
Al11 O16 1.748797 1_455
Al11 O15 1.766839 1_555
Al11 O27 1.811587 1_455
Al12 O0 1.745347 1_556
Al12 O23 1.753889 1_545
Al12 O4 1.766755 1_555
Al12 O8 1.807025 1_555
Al13 O0 1.745347 1_555
Al13 O22 1.753889 1_545
Al13 O5 1.766755 1_555
Al13 O9 1.807025 1_555
Al14 O1 1.745347 1_555
Al14 O21 1.753889 1_555
Al14 O6 1.766755 1_555
Al14 O10 1.807025 1_555
Al15 O1 1.745347 1_556
Al15 O20 1.753889 1_555
Al15 O7 1.766755 1_555
Al15 O11 1.807025 1_555
