# generated using pymatgen
data_Na3AuS2
_symmetry_space_group_name_H-M   'P 1'
_cell_length_a   7.06164249
_cell_length_b   7.06164290
_cell_length_c   7.06164190
_cell_angle_alpha   64.69879928
_cell_angle_beta   64.69879368
_cell_angle_gamma   64.69879689
_symmetry_Int_Tables_number   1
_chemical_formula_structural   Na3AuS2
_chemical_formula_sum   'Na6 Au2 S4'
_cell_volume   274.61812239
_cell_formula_units_Z   2
loop_
 _symmetry_equiv_pos_site_id
 _symmetry_equiv_pos_as_xyz
  1  'x, y, z'
loop_
 _atom_site_type_symbol
 _atom_site_label
 _atom_site_symmetry_multiplicity
 _atom_site_fract_x
 _atom_site_fract_y
 _atom_site_fract_z
 _atom_site_occupancy
  Na  Na0  1  0.96612834  0.53387166  0.25000000  1
  Na  Na1  1  0.25000000  0.96612834  0.53387166  1
  Na  Na2  1  0.53387166  0.25000000  0.96612834  1
  Na  Na3  1  0.03387166  0.46612834  0.75000000  1
  Na  Na4  1  0.75000000  0.03387166  0.46612834  1
  Na  Na5  1  0.46612834  0.75000000  0.03387166  1
  Au  Au0  1  0.50000000  0.50000000  0.50000000  1
  Au  Au1  1  -0.00000000  0.00000000  -0.00000000  1
  S  S0  1  0.63845393  0.63845393  0.63845393  1
  S  S1  1  0.86154607  0.86154607  0.86154607  1
  S  S2  1  0.13845393  0.13845393  0.13845393  1
  S  S3  1  0.36154607  0.36154607  0.36154607  1
loop_
_geom_bond_atom_site_label_1
_geom_bond_atom_site_label_2
_geom_bond_distance
_geom_bond_site_symmetry_2
Na0 S3 2.838051 1_655
Na0 S2 2.838051 1_655
Na0 S0 2.875737 1_555
Na0 S1 2.875737 1_554
Na1 S2 2.838051 1_565
Na1 S3 2.838051 1_565
Na1 S1 2.875737 1_455
Na1 S0 2.875737 1_555
Na2 S3 2.838051 1_556
Na2 S2 2.838051 1_556
Na2 S1 2.875737 1_545
Na2 S0 2.875737 1_555
Na3 S0 2.838051 1_455
Na3 S1 2.838051 1_455
Na3 S3 2.875737 1_555
Na3 S2 2.875737 1_556
Na4 S1 2.838051 1_545
Na4 S0 2.838051 1_545
Na4 S2 2.875737 1_655
Na4 S3 2.875737 1_555
Na5 S0 2.838051 1_554
Na5 S1 2.838051 1_554
Na5 S2 2.875737 1_565
Na5 S3 2.875737 1_555
Au0 S0 2.306294 1_555
Au0 S3 2.306294 1_555
Au0 Na2 3.058384 1_555
Au0 Na5 3.058384 1_555
Au0 Na0 3.058384 1_555
Au0 Na3 3.058384 1_555
Au0 Na4 3.058385 1_555
Au0 Na1 3.058385 1_555
Au1 S1 2.306294 1_444
Au1 S2 2.306294 1_555
Au1 Na4 3.058384 1_455
Au1 Na1 3.058384 1_544
Au1 Na2 3.058384 1_454
Au1 Na5 3.058384 1_545
Au1 Na3 3.058385 1_554
Au1 Na0 3.058385 1_445
