# generated using pymatgen
data_CsSm2Ag3Te5
_symmetry_space_group_name_H-M   'P 1'
_cell_length_a   8.54537092
_cell_length_b   8.54537092
_cell_length_c   18.84223600
_cell_angle_alpha   90.00000000
_cell_angle_beta   90.00000000
_cell_angle_gamma   148.00575365
_symmetry_Int_Tables_number   1
_chemical_formula_structural   CsSm2Ag3Te5
_chemical_formula_sum   'Cs2 Sm4 Ag6 Te10'
_cell_volume   729.01116957
_cell_formula_units_Z   2
loop_
 _symmetry_equiv_pos_site_id
 _symmetry_equiv_pos_as_xyz
  1  'x, y, z'
loop_
 _atom_site_type_symbol
 _atom_site_label
 _atom_site_symmetry_multiplicity
 _atom_site_fract_x
 _atom_site_fract_y
 _atom_site_fract_z
 _atom_site_occupancy
  Cs  Cs0  1  0.55936800  0.44063200  0.25000000  1
  Cs  Cs1  1  0.44063200  0.55936800  0.75000000  1
  Sm  Sm0  1  0.69142700  0.30857300  0.90660700  1
  Sm  Sm1  1  0.30857300  0.69142700  0.09339300  1
  Sm  Sm2  1  0.69142700  0.30857300  0.59339300  1
  Sm  Sm3  1  0.30857300  0.69142700  0.40660700  1
  Ag  Ag0  1  0.84169700  0.15830300  0.25000000  1
  Ag  Ag1  1  0.15830300  0.84169700  0.75000000  1
  Ag  Ag2  1  0.08450000  0.91550000  0.46709900  1
  Ag  Ag3  1  0.91550000  0.08450000  0.53290100  1
  Ag  Ag4  1  0.08450000  0.91550000  0.03290100  1
  Ag  Ag5  1  0.91550000  0.08450000  0.96709900  1
  Te  Te0  1  0.06350100  0.93649900  0.88142100  1
  Te  Te1  1  0.93649900  0.06350100  0.11857900  1
  Te  Te2  1  0.06350100  0.93649900  0.61857900  1
  Te  Te3  1  0.93649900  0.06350100  0.38142100  1
  Te  Te4  1  0.67822500  0.32177500  0.42777600  1
  Te  Te5  1  0.32177500  0.67822500  0.57222400  1
  Te  Te6  1  0.67822500  0.32177500  0.07222400  1
  Te  Te7  1  0.32177500  0.67822500  0.92777600  1
  Te  Te8  1  0.24597000  0.75403000  0.25000000  1
  Te  Te9  1  0.75403000  0.24597000  0.75000000  1
loop_
_geom_bond_atom_site_label_1
_geom_bond_atom_site_label_2
_geom_bond_distance
_geom_bond_site_symmetry_2
Cs0 Te8 3.865798 1_545
Cs0 Te8 3.865798 1_655
Cs0 Te4 3.877303 1_555
Cs0 Te6 3.877303 1_555
Cs0 Te3 3.968971 1_565
Cs0 Te3 3.968971 1_455
Cs0 Te1 3.968971 1_565
Cs0 Te1 3.968971 1_455
Cs1 Te9 3.865798 1_565
Cs1 Te9 3.865798 1_455
Cs1 Te5 3.877303 1_555
Cs1 Te7 3.877303 1_555
Cs1 Te0 3.968971 1_655
Cs1 Te2 3.968971 1_545
Cs1 Te0 3.968971 1_545
Cs1 Te2 3.968971 1_655
Sm0 Te9 3.124930 1_555
Sm0 Te6 3.128123 1_556
Sm0 Te0 3.191922 1_655
Sm0 Te0 3.191922 1_545
Sm0 Te7 3.207973 1_655
Sm0 Te7 3.207973 1_545
Sm1 Te8 3.124930 1_555
Sm1 Te7 3.128123 1_554
Sm1 Te1 3.191922 1_455
Sm1 Te1 3.191922 1_565
Sm1 Te6 3.207973 1_565
Sm1 Te6 3.207973 1_455
Sm2 Te9 3.124930 1_555
Sm2 Te4 3.128123 1_555
Sm2 Te2 3.191922 1_655
Sm2 Te2 3.191922 1_545
Sm2 Te5 3.207973 1_655
Sm2 Te5 3.207973 1_545
Sm3 Te8 3.124930 1_555
Sm3 Te5 3.128123 1_555
Sm3 Te3 3.191922 1_455
Sm3 Te3 3.191922 1_565
Sm3 Te4 3.207973 1_565
Sm3 Te4 3.207973 1_455
Ag0 Te8 2.831860 1_545
Ag0 Te8 2.831860 1_655
Ag0 Te3 2.925351 1_555
Ag0 Te1 2.925351 1_555
Ag1 Te9 2.831860 1_455
Ag1 Te9 2.831860 1_565
Ag1 Te0 2.925351 1_555
Ag1 Te2 2.925351 1_555
Ag2 Te2 2.874996 1_555
Ag2 Te4 2.909646 1_565
Ag2 Te4 2.909646 1_455
Ag2 Te3 2.918620 1_465
Ag3 Te3 2.874996 1_555
Ag3 Te5 2.909646 1_655
Ag3 Te5 2.909646 1_545
Ag3 Te2 2.918620 1_645
Ag4 Te0 2.874996 1_554
Ag4 Te6 2.909646 1_565
Ag4 Te6 2.909646 1_455
Ag4 Te1 2.918620 1_465
Ag5 Te1 2.874996 1_556
Ag5 Te7 2.909646 1_655
Ag5 Te7 2.909646 1_545
Ag5 Te0 2.918620 1_645
