# generated using pymatgen
data_SrCo(GeO3)4
_symmetry_space_group_name_H-M   'P 1'
_cell_length_a   5.31846788
_cell_length_b   5.31846788
_cell_length_c   7.45963679
_cell_angle_alpha   90.00000000
_cell_angle_beta   90.00000000
_cell_angle_gamma   90.00000000
_symmetry_Int_Tables_number   1
_chemical_formula_structural   SrCo(GeO3)4
_chemical_formula_sum   'Sr1 Co1 Ge4 O12'
_cell_volume   211.00403661
_cell_formula_units_Z   1
loop_
 _symmetry_equiv_pos_site_id
 _symmetry_equiv_pos_as_xyz
  1  'x, y, z'
loop_
 _atom_site_type_symbol
 _atom_site_label
 _atom_site_symmetry_multiplicity
 _atom_site_fract_x
 _atom_site_fract_y
 _atom_site_fract_z
 _atom_site_occupancy
  Sr  Sr0  1  -0.00000000  0.00000000  -0.00000000  1
  Co  Co0  1  0.50000000  0.50000000  0.50000000  1
  Ge  Ge0  1  -0.00000000  0.50000000  0.74758861  1
  Ge  Ge1  1  0.00000000  0.50000000  0.25241139  1
  Ge  Ge2  1  0.50000000  0.00000000  0.74758861  1
  Ge  Ge3  1  0.50000000  -0.00000000  0.25241139  1
  O  O0  1  0.25797943  0.25797943  0.73626032  1
  O  O1  1  0.25797943  0.25797943  0.26373968  1
  O  O2  1  0.74202057  0.74202057  0.26373968  1
  O  O3  1  0.74202057  0.74202057  0.73626032  1
  O  O4  1  0.74202057  0.25797943  0.73626032  1
  O  O5  1  0.74202057  0.25797943  0.26373968  1
  O  O6  1  0.25797943  0.74202057  0.26373968  1
  O  O7  1  0.25797943  0.74202057  0.73626032  1
  O  O8  1  -0.00000000  0.50000000  0.50000000  1
  O  O9  1  -0.00000000  0.50000000  -0.00000000  1
  O  O10  1  0.50000000  0.00000000  0.50000000  1
  O  O11  1  0.50000000  -0.00000000  -0.00000000  1
loop_
_geom_bond_atom_site_label_1
_geom_bond_atom_site_label_2
_geom_bond_distance
_geom_bond_site_symmetry_2
Co0 O2 2.533726 1_555
Co0 O5 2.533726 1_555
Co0 O0 2.533726 1_555
Co0 O6 2.533726 1_555
Co0 O3 2.533726 1_555
Co0 O1 2.533726 1_555
Co0 O7 2.533726 1_555
Co0 O4 2.533726 1_555
Co0 O10 2.659234 1_555
Co0 O10 2.659234 1_565
Co0 O8 2.659234 1_555
Co0 O8 2.659234 1_655
Ge0 O8 1.846921 1_555
Ge0 O9 1.882897 1_556
Ge0 O7 1.883217 1_555
Ge0 O0 1.883217 1_555
Ge0 O3 1.883217 1_455
Ge0 O4 1.883217 1_455
Ge1 O8 1.846921 1_555
Ge1 O9 1.882897 1_555
Ge1 O5 1.883217 1_455
Ge1 O2 1.883217 1_455
Ge1 O6 1.883217 1_555
Ge1 O1 1.883217 1_555
Ge2 O10 1.846921 1_555
Ge2 O11 1.882897 1_556
Ge2 O3 1.883217 1_545
Ge2 O0 1.883217 1_555
Ge2 O7 1.883217 1_545
Ge2 O4 1.883217 1_555
Ge3 O10 1.846921 1_555
Ge3 O11 1.882897 1_555
Ge3 O6 1.883217 1_545
Ge3 O5 1.883217 1_555
Ge3 O2 1.883217 1_545
Ge3 O1 1.883217 1_555
O0 Sr0 2.763285 1_556
O1 Sr0 2.763285 1_555
O2 Sr0 2.763285 1_665
O3 Sr0 2.763285 1_666
O4 Sr0 2.763285 1_656
O5 Sr0 2.763285 1_655
O6 Sr0 2.763285 1_565
O7 Sr0 2.763285 1_566
O9 Sr0 2.659234 1_555
O9 Sr0 2.659234 1_565
O11 Sr0 2.659234 1_655
O11 Sr0 2.659234 1_555
