# generated using pymatgen
data_Rb2Cr(ICl)2
_symmetry_space_group_name_H-M   'P 1'
_cell_length_a   9.71964716
_cell_length_b   9.71964716
_cell_length_c   7.49351100
_cell_angle_alpha   90.00000000
_cell_angle_beta   90.00000000
_cell_angle_gamma   134.64671277
_symmetry_Int_Tables_number   1
_chemical_formula_structural   Rb2Cr(ICl)2
_chemical_formula_sum   'Rb4 Cr2 I4 Cl4'
_cell_volume   503.65456737
_cell_formula_units_Z   2
loop_
 _symmetry_equiv_pos_site_id
 _symmetry_equiv_pos_as_xyz
  1  'x, y, z'
loop_
 _atom_site_type_symbol
 _atom_site_label
 _atom_site_symmetry_multiplicity
 _atom_site_fract_x
 _atom_site_fract_y
 _atom_site_fract_z
 _atom_site_occupancy
  Rb  Rb0  1  0.12638800  0.87361200  0.50000000  1
  Rb  Rb1  1  0.87361200  0.12638800  0.50000000  1
  Rb  Rb2  1  0.37361200  0.62638800  0.00000000  1
  Rb  Rb3  1  0.62638800  0.37361200  0.00000000  1
  Cr  Cr0  1  0.50000000  0.50000000  0.50000000  1
  Cr  Cr1  1  0.00000000  0.00000000  0.00000000  1
  I  I0  1  0.34418000  0.65582000  0.50000000  1
  I  I1  1  0.65582000  0.34418000  0.50000000  1
  I  I2  1  0.15582000  0.84418000  0.00000000  1
  I  I3  1  0.84418000  0.15582000  0.00000000  1
  Cl  Cl0  1  0.72897300  0.72897300  0.72851600  1
  Cl  Cl1  1  0.27102700  0.27102700  0.27148400  1
  Cl  Cl2  1  0.77102700  0.77102700  0.22851600  1
  Cl  Cl3  1  0.22897300  0.22897300  0.77148400  1
loop_
_geom_bond_atom_site_label_1
_geom_bond_atom_site_label_2
_geom_bond_distance
_geom_bond_site_symmetry_2
Cr0 I1 2.794873 1_555
Cr0 I0 2.794873 1_555
Cr1 I2 2.794873 1_545
Cr1 I3 2.794873 1_455
I0 Rb2 3.783763 1_555
I0 Rb2 3.783763 1_556
I0 Rb1 3.784218 1_455
I0 Rb1 3.784218 1_565
I0 Rb0 3.906436 1_555
I1 Rb3 3.783763 1_555
I1 Rb3 3.783763 1_556
I1 Rb0 3.784218 1_545
I1 Rb0 3.784218 1_655
I1 Rb1 3.906436 1_555
I2 Rb0 3.783763 1_555
I2 Rb0 3.783763 1_554
I2 Rb3 3.784218 1_455
I2 Rb3 3.784218 1_565
I2 Rb2 3.906436 1_555
I3 Rb1 3.783763 1_555
I3 Rb1 3.783763 1_554
I3 Rb2 3.784218 1_655
I3 Rb2 3.784218 1_545
I3 Rb3 3.906436 1_555
Cl0 Cr0 2.424253 1_555
Cl0 Cr1 2.874787 1_666
Cl0 Rb0 3.492441 1_655
Cl0 Rb1 3.492441 1_565
Cl0 Rb2 3.496071 1_556
Cl0 Rb3 3.496071 1_556
Cl1 Cr0 2.424253 1_555
Cl1 Cr1 2.874787 1_555
Cl1 Rb1 3.492441 1_455
Cl1 Rb0 3.492441 1_545
Cl1 Rb3 3.496071 1_555
Cl1 Rb2 3.496071 1_555
Cl2 Cr1 2.424253 1_665
Cl2 Cr0 2.874787 1_555
Cl2 Rb2 3.492441 1_555
Cl2 Rb3 3.492441 1_555
Cl2 Rb1 3.496071 1_565
Cl2 Rb0 3.496071 1_655
Cl3 Cr1 2.424253 1_556
Cl3 Cr0 2.874787 1_555
Cl3 Rb2 3.492441 1_556
Cl3 Rb3 3.492441 1_556
Cl3 Rb1 3.496071 1_455
Cl3 Rb0 3.496071 1_545
