# generated using pymatgen
data_Li2Ti3O7
_symmetry_space_group_name_H-M   'P 1'
_cell_length_a   3.73641430
_cell_length_b   7.53048988
_cell_length_c   9.35590790
_cell_angle_alpha   82.51347793
_cell_angle_beta   90.00000000
_cell_angle_gamma   90.00000000
_symmetry_Int_Tables_number   1
_chemical_formula_structural   Li2Ti3O7
_chemical_formula_sum   'Li4 Ti6 O14'
_cell_volume   261.00341897
_cell_formula_units_Z   2
loop_
 _symmetry_equiv_pos_site_id
 _symmetry_equiv_pos_as_xyz
  1  'x, y, z'
loop_
 _atom_site_type_symbol
 _atom_site_label
 _atom_site_symmetry_multiplicity
 _atom_site_fract_x
 _atom_site_fract_y
 _atom_site_fract_z
 _atom_site_occupancy
  Li  Li0  1  0.25000000  0.40027401  0.82565553  1
  Li  Li1  1  0.75000000  0.59972599  0.17434447  1
  Li  Li2  1  0.25000000  0.57480940  0.40531992  1
  Li  Li3  1  0.75000000  0.42519060  0.59468008  1
  Ti  Ti0  1  0.25000000  0.83469555  0.96800215  1
  Ti  Ti1  1  0.75000000  0.16530445  0.03199785  1
  Ti  Ti2  1  0.25000000  0.73390584  0.65864385  1
  Ti  Ti3  1  0.75000000  0.26609416  0.34135615  1
  Ti  Ti4  1  0.25000000  0.94809885  0.27838162  1
  Ti  Ti5  1  0.75000000  0.05190115  0.72161838  1
  O  O0  1  0.25000000  0.74238479  0.16442285  1
  O  O1  1  0.75000000  0.25761521  0.83557715  1
  O  O2  1  0.25000000  0.82085249  0.44990653  1
  O  O3  1  0.75000000  0.17914751  0.55009347  1
  O  O4  1  0.25000000  0.50746575  0.62451506  1
  O  O5  1  0.75000000  0.49253425  0.37548494  1
  O  O6  1  0.25000000  0.64472269  0.87196184  1
  O  O7  1  0.75000000  0.35527731  0.12803816  1
  O  O8  1  0.25000000  0.99222225  0.75771792  1
  O  O9  1  0.75000000  0.00777775  0.24228208  1
  O  O10  1  0.25000000  0.19663121  0.33491074  1
  O  O11  1  0.75000000  0.80336879  0.66508926  1
  O  O12  1  0.25000000  0.09432514  0.04854716  1
  O  O13  1  0.75000000  0.90567486  0.95145284  1
loop_
_geom_bond_atom_site_label_1
_geom_bond_atom_site_label_2
_geom_bond_distance
_geom_bond_site_symmetry_2
Li0 O6 1.945283 1_555
Li0 O4 1.948617 1_555
Li0 O1 2.151030 1_555
Li0 O1 2.151030 1_455
Li1 O7 1.945283 1_555
Li1 O5 1.948617 1_555
Li1 O0 2.151030 1_555
Li1 O0 2.151030 1_655
Li2 O2 1.951507 1_555
Li2 O5 1.999262 1_455
Li2 O5 1.999262 1_555
Li2 O4 2.047395 1_555
Li2 O0 2.435359 1_555
Li3 O3 1.951507 1_555
Li3 O4 1.999262 1_655
Li3 O4 1.999262 1_555
Li3 O5 2.047395 1_555
Li3 O1 2.435359 1_555
O0 Ti0 1.878153 1_554
O0 Ti4 1.991721 1_555
O1 Ti1 1.878153 1_556
O1 Ti5 1.991721 1_555
O2 Ti4 1.758630 1_555
O2 Ti2 1.977225 1_555
O3 Ti5 1.758630 1_555
O3 Ti3 1.977225 1_555
O4 Ti2 1.775264 1_555
O5 Ti3 1.775264 1_555
O6 Ti0 1.785759 1_555
O6 Ti2 2.021116 1_555
O7 Ti1 1.785759 1_555
O7 Ti3 2.021116 1_555
O8 Ti5 1.940795 1_565
O8 Ti5 1.940795 1_465
O8 Ti0 2.160948 1_555
O8 Ti2 2.261206 1_555
O9 Ti4 1.940795 1_645
O9 Ti4 1.940795 1_545
O9 Ti1 2.160948 1_555
O9 Ti3 2.261206 1_555
O10 Ti3 1.943110 1_555
O10 Ti3 1.943110 1_455
O10 Ti4 2.010082 1_545
O11 Ti2 1.943110 1_655
O11 Ti2 1.943110 1_555
O11 Ti5 2.010082 1_565
O12 Ti1 1.943786 1_455
O12 Ti1 1.943786 1_555
O12 Ti0 2.185032 1_544
O12 Ti4 2.284591 1_545
O13 Ti0 1.943786 1_555
O13 Ti0 1.943786 1_655
O13 Ti1 2.185032 1_566
O13 Ti5 2.284591 1_565
