# generated using pymatgen
data_GdB2HO5
_symmetry_space_group_name_H-M   'P 1'
_cell_length_a   5.59737223
_cell_length_b   5.68354273
_cell_length_c   11.86717800
_cell_angle_alpha   90.00000000
_cell_angle_beta   90.00000000
_cell_angle_gamma   101.83636552
_symmetry_Int_Tables_number   1
_chemical_formula_structural   GdB2HO5
_chemical_formula_sum   'Gd4 B8 H4 O20'
_cell_volume   369.50213975
_cell_formula_units_Z   4
loop_
 _symmetry_equiv_pos_site_id
 _symmetry_equiv_pos_as_xyz
  1  'x, y, z'
loop_
 _atom_site_type_symbol
 _atom_site_label
 _atom_site_symmetry_multiplicity
 _atom_site_fract_x
 _atom_site_fract_y
 _atom_site_fract_z
 _atom_site_occupancy
  Gd  Gd0  1  0.31170200  0.20712900  0.57654800  1
  Gd  Gd1  1  0.18829800  0.29287100  0.07654800  1
  Gd  Gd2  1  0.65216500  0.76681100  0.45035000  1
  Gd  Gd3  1  0.84783500  0.73318900  0.95035000  1
  B  B0  1  0.39770900  0.11327400  0.86897000  1
  B  B1  1  0.10229100  0.38672600  0.36897000  1
  B  B2  1  0.62831100  0.90423900  0.14800100  1
  B  B3  1  0.87168900  0.59576100  0.64800100  1
  B  B4  1  0.38741500  0.13410200  0.28921700  1
  B  B5  1  0.11258500  0.36589800  0.78921700  1
  B  B6  1  0.64296600  0.89297300  0.72771800  1
  B  B7  1  0.85703400  0.60702700  0.22771800  1
  H  H0  1  0.42313900  0.46133300  0.90049900  1
  H  H1  1  0.07686100  0.03866700  0.40049900  1
  H  H2  1  0.37246500  0.81809400  0.02221200  1
  H  H3  1  0.12753500  0.68190600  0.52221200  1
  O  O0  1  0.47297200  0.07351500  0.18628600  1
  O  O1  1  0.02702800  0.42648500  0.68628600  1
  O  O2  1  0.57993400  0.97668600  0.83238800  1
  O  O3  1  0.92006600  0.52331400  0.33238800  1
  O  O4  1  0.47233700  0.72170000  0.06832800  1
  O  O5  1  0.02766300  0.77830000  0.56832800  1
  O  O6  1  0.52946700  0.35175300  0.92496800  1
  O  O7  1  0.97053300  0.14824700  0.42496800  1
  O  O8  1  0.41344800  0.04193200  0.39259500  1
  O  O9  1  0.08655200  0.45806800  0.89259500  1
  O  O10  1  0.56701600  0.94825800  0.62490000  1
  O  O11  1  0.93298400  0.55174200  0.12489900  1
  O  O12  1  0.26088000  0.19389200  0.77282400  1
  O  O13  1  0.23912000  0.30610800  0.27282400  1
  O  O14  1  0.69693200  0.76468100  0.24495400  1
  O  O15  1  0.80306800  0.73531900  0.74495400  1
  O  O16  1  0.27115000  0.51642100  0.45010100  1
  O  O17  1  0.22885000  0.98357900  0.95010100  1
  O  O18  1  0.66056800  0.47829500  0.58614200  1
  O  O19  1  0.83943200  0.02170500  0.08614200  1
loop_
_geom_bond_atom_site_label_1
_geom_bond_atom_site_label_2
_geom_bond_distance
_geom_bond_site_symmetry_2
Gd0 O18 2.228624 1_555
Gd0 O10 2.323541 1_545
Gd0 O12 2.345884 1_555
Gd0 O16 2.357337 1_555
Gd0 O8 2.488121 1_555
Gd0 H1 2.548154 1_555
Gd0 O1 2.569865 1_555
Gd0 O7 2.594680 1_455
Gd0 O5 2.624471 1_545
Gd1 O19 2.228624 1_455
Gd1 O11 2.323538 1_455
Gd1 O13 2.345884 1_555
Gd1 O17 2.357337 1_544
Gd1 O9 2.488121 1_554
Gd1 H0 2.548154 1_554
Gd1 O0 2.569865 1_555
Gd1 O6 2.594680 1_554
Gd1 O4 2.624471 1_555
Gd2 O18 2.306426 1_555
Gd2 O16 2.308353 1_555
Gd2 O8 2.357396 1_565
Gd2 O10 2.404799 1_555
Gd2 O14 2.450601 1_555
Gd2 O5 2.515098 1_655
Gd2 O7 2.526127 1_565
Gd2 O3 2.640998 1_555
Gd3 O19 2.306426 1_566
Gd3 O17 2.308353 1_655
Gd3 O9 2.357396 1_655
Gd3 O11 2.404789 1_556
Gd3 O15 2.450601 1_555
Gd3 O4 2.515098 1_556
Gd3 O6 2.526127 1_555
Gd3 O2 2.640998 1_555
B0 O17 1.441478 1_545
B0 O2 1.468436 1_545
B0 O12 1.497438 1_555
B0 O6 1.553243 1_555
B1 O16 1.441478 1_555
B1 O3 1.468436 1_455
B1 O13 1.497438 1_555
B1 O7 1.553243 1_455
B2 O19 1.434374 1_565
B2 O14 1.491790 1_555
B2 O0 1.493726 1_565
B2 O4 1.536533 1_555
B3 O18 1.434374 1_555
B3 O15 1.491790 1_555
B3 O1 1.493726 1_655
B3 O5 1.536533 1_655
B4 O8 1.353521 1_555
B4 O0 1.381170 1_555
B4 O13 1.419666 1_555
B5 O9 1.353521 1_555
B5 O1 1.381170 1_555
B5 O12 1.419666 1_555
B6 O10 1.350202 1_555
B6 O2 1.400935 1_555
B6 O15 1.406133 1_555
B7 O11 1.350213 1_555
B7 O3 1.400935 1_555
B7 O14 1.406133 1_555
H0 O6 0.989179 1_555
H1 O7 0.989179 1_455
H2 O4 1.018722 1_555
H2 O17 1.604151 1_554
H3 O5 1.018722 1_555
H3 O16 1.604151 1_555
