# generated using pymatgen
data_CeYNi4
_symmetry_space_group_name_H-M   'P 1'
_cell_length_a   5.07789219
_cell_length_b   5.07789219
_cell_length_c   5.07789219
_cell_angle_alpha   60.00000000
_cell_angle_beta   60.00000000
_cell_angle_gamma   60.00000000
_symmetry_Int_Tables_number   1
_chemical_formula_structural   CeYNi4
_chemical_formula_sum   'Ce1 Y1 Ni4'
_cell_volume   92.58389117
_cell_formula_units_Z   1
loop_
 _symmetry_equiv_pos_site_id
 _symmetry_equiv_pos_as_xyz
  1  'x, y, z'
loop_
 _atom_site_type_symbol
 _atom_site_label
 _atom_site_symmetry_multiplicity
 _atom_site_fract_x
 _atom_site_fract_y
 _atom_site_fract_z
 _atom_site_occupancy
  Ce  Ce0  1  0.25000000  0.25000000  0.25000000  1
  Y  Y0  1  0.00000000  0.00000000  0.00000000  1
  Ni  Ni0  1  0.62502800  0.62502800  0.12491500  1
  Ni  Ni1  1  0.62502800  0.12491500  0.62502800  1
  Ni  Ni2  1  0.12491500  0.62502800  0.62502800  1
  Ni  Ni3  1  0.62502800  0.62502800  0.62502800  1
loop_
_geom_bond_atom_site_label_1
_geom_bond_atom_site_label_2
_geom_bond_distance
_geom_bond_site_symmetry_2
Ce0 Ni0 2.977237 1_555
Ce0 Ni1 2.977237 1_555
Ce0 Ni2 2.977237 1_555
Ce0 Ni3 2.977239 1_455
Ce0 Ni3 2.977239 1_554
Ce0 Ni3 2.977239 1_545
Ce0 Ni0 2.977241 1_545
Ce0 Ni0 2.977241 1_455
Ce0 Ni2 2.977241 1_545
Ce0 Ni1 2.977241 1_554
Ce0 Ni2 2.977241 1_554
Ce0 Ni1 2.977241 1_455
Ce0 Y0 3.109561 1_565
Ce0 Y0 3.109561 1_555
Ce0 Y0 3.109561 1_655
Ce0 Y0 3.109561 1_556
Ni0 Ni3 2.538372 1_554
Ni0 Ni1 2.538372 1_564
Ni0 Ni2 2.538372 1_654
Ni0 Ni1 2.539520 1_555
Ni0 Ni2 2.539520 1_555
Ni0 Ni3 2.539520 1_555
Ni0 Y0 2.977115 1_655
Ni0 Y0 2.977115 1_565
Ni0 Y0 2.977120 1_665
Ni1 Ni3 2.538372 1_545
Ni1 Ni2 2.538372 1_645
Ni1 Ni2 2.539520 1_555
Ni1 Ni3 2.539520 1_555
Ni1 Y0 2.977115 1_655
Ni1 Y0 2.977115 1_556
Ni1 Y0 2.977120 1_656
Ni2 Ni3 2.538372 1_455
Ni2 Ni3 2.539520 1_555
Ni2 Y0 2.977115 1_556
Ni2 Y0 2.977115 1_565
Ni2 Y0 2.977120 1_566
Ni3 Y0 2.977118 1_656
Ni3 Y0 2.977118 1_566
Ni3 Y0 2.977118 1_665
