# generated using pymatgen
data_LaH6S3(NO3)3
_symmetry_space_group_name_H-M   'P 1'
_cell_length_a   10.02788958
_cell_length_b   10.02788958
_cell_length_c   5.89894100
_cell_angle_alpha   90.00000000
_cell_angle_beta   90.00000000
_cell_angle_gamma   119.99999722
_symmetry_Int_Tables_number   1
_chemical_formula_structural   LaH6S3(NO3)3
_chemical_formula_sum   'La2 H12 S6 N6 O18'
_cell_volume   513.71681649
_cell_formula_units_Z   2
loop_
 _symmetry_equiv_pos_site_id
 _symmetry_equiv_pos_as_xyz
  1  'x, y, z'
loop_
 _atom_site_type_symbol
 _atom_site_label
 _atom_site_symmetry_multiplicity
 _atom_site_fract_x
 _atom_site_fract_y
 _atom_site_fract_z
 _atom_site_occupancy
  La  La0  1  0.33333300  0.66666700  0.24672200  1
  La  La1  1  0.66666700  0.33333300  0.74672200  1
  H  H0  1  0.33374200  0.26522600  0.23917300  1
  H  H1  1  0.93148300  0.66625800  0.23917300  1
  H  H2  1  0.73477400  0.06851700  0.23917300  1
  H  H3  1  0.66625800  0.73477400  0.73917300  1
  H  H4  1  0.06851700  0.33374200  0.73917300  1
  H  H5  1  0.26522600  0.93148300  0.73917300  1
  H  H6  1  0.20278700  0.10764800  0.37328800  1
  H  H7  1  0.90486100  0.79721300  0.37328800  1
  H  H8  1  0.89235200  0.09513900  0.37328800  1
  H  H9  1  0.79721300  0.89235200  0.87328800  1
  H  H10  1  0.09513900  0.20278700  0.87328800  1
  H  H11  1  0.10764800  0.90486100  0.87328800  1
  S  S0  1  0.40028400  0.08576000  0.24822400  1
  S  S1  1  0.68547600  0.59971600  0.24822400  1
  S  S2  1  0.91424000  0.31452400  0.24822400  1
  S  S3  1  0.59971600  0.91424000  0.74822400  1
  S  S4  1  0.31452400  0.40028400  0.74822400  1
  S  S5  1  0.08576000  0.68547600  0.74822400  1
  N  N0  1  0.27411500  0.14725700  0.23479100  1
  N  N1  1  0.87314300  0.72588500  0.23479100  1
  N  N2  1  0.85274300  0.12685700  0.23479100  1
  N  N3  1  0.72588500  0.85274300  0.73479100  1
  N  N4  1  0.12685700  0.27411500  0.73479100  1
  N  N5  1  0.14725700  0.87314300  0.73479100  1
  O  O0  1  0.30624000  0.91835700  0.24820300  1
  O  O1  1  0.61211700  0.69376000  0.24820300  1
  O  O2  1  0.08164300  0.38788300  0.24820300  1
  O  O3  1  0.69376000  0.08164300  0.74820300  1
  O  O4  1  0.38788300  0.30624000  0.74820300  1
  O  O5  1  0.91835700  0.61211700  0.74820300  1
  O  O6  1  0.34712700  0.49465200  0.54346300  1
  O  O7  1  0.14752500  0.65287300  0.54346300  1
  O  O8  1  0.50534800  0.85247500  0.54346300  1
  O  O9  1  0.65287300  0.50534800  0.04346300  1
  O  O10  1  0.85247500  0.34712700  0.04346300  1
  O  O11  1  0.49465200  0.14752500  0.04346300  1
  O  O12  1  0.65208800  0.50648500  0.45595400  1
  O  O13  1  0.85439700  0.34791200  0.45595400  1
  O  O14  1  0.49351500  0.14560300  0.45595400  1
  O  O15  1  0.34791200  0.49351500  0.95595400  1
  O  O16  1  0.14560300  0.65208800  0.95595400  1
  O  O17  1  0.50648500  0.85439700  0.95595400  1
loop_
_geom_bond_atom_site_label_1
_geom_bond_atom_site_label_2
_geom_bond_distance
_geom_bond_site_symmetry_2
La0 O16 2.496414 1_554
La0 O17 2.496418 1_554
La0 O15 2.496422 1_554
La0 O7 2.509431 1_555
La0 O8 2.509435 1_555
La0 O6 2.509439 1_555
La0 O0 2.670163 1_555
La0 O2 2.670169 1_555
La0 O1 2.670173 1_555
La1 O13 2.496414 1_555
La1 O14 2.496418 1_555
La1 O12 2.496422 1_555
La1 O10 2.509431 1_556
La1 O11 2.509435 1_556
La1 O9 2.509439 1_556
La1 O3 2.670163 1_555
La1 O5 2.670169 1_555
La1 O4 2.670173 1_555
H0 N0 1.024837 1_555
H1 N1 1.024820 1_555
H2 N2 1.024837 1_555
H3 N3 1.024837 1_555
H4 N4 1.024820 1_555
H5 N5 1.024837 1_555
H6 N0 1.026030 1_555
H7 N1 1.026031 1_555
H8 N2 1.026025 1_555
H9 N3 1.026030 1_555
H10 N4 1.026031 1_555
H11 N5 1.026025 1_555
N0 S0 1.663601 1_555
N1 S1 1.663609 1_555
N2 S2 1.663611 1_555
N3 S3 1.663601 1_555
N4 S4 1.663609 1_555
N5 S5 1.663611 1_555
O0 S0 1.457491 1_565
O1 S1 1.457491 1_555
O2 S2 1.457491 1_455
O3 S3 1.457491 1_545
O4 S4 1.457491 1_555
O5 S5 1.457491 1_655
O6 S4 1.466958 1_555
O7 S5 1.466958 1_555
O8 S3 1.466958 1_555
O9 S1 1.466958 1_555
O10 S2 1.466958 1_555
O11 S0 1.466958 1_555
O12 S1 1.474690 1_555
O13 S2 1.474690 1_555
O14 S0 1.474690 1_555
O15 S4 1.474690 1_555
O16 S5 1.474690 1_555
O17 S3 1.474690 1_555
