# generated using pymatgen
data_LuGa4Ni
_symmetry_space_group_name_H-M   'P 1'
_cell_length_a   4.08262500
_cell_length_b   6.61474700
_cell_length_c   7.78634386
_cell_angle_alpha   90.00000000
_cell_angle_beta   105.19860381
_cell_angle_gamma   90.00000000
_symmetry_Int_Tables_number   1
_chemical_formula_structural   LuGa4Ni
_chemical_formula_sum   'Lu2 Ga8 Ni2'
_cell_volume   202.91956347
_cell_formula_units_Z   2
loop_
 _symmetry_equiv_pos_site_id
 _symmetry_equiv_pos_as_xyz
  1  'x, y, z'
loop_
 _atom_site_type_symbol
 _atom_site_label
 _atom_site_symmetry_multiplicity
 _atom_site_fract_x
 _atom_site_fract_y
 _atom_site_fract_z
 _atom_site_occupancy
  Lu  Lu0  1  0.87939200  0.25000000  0.75878400  1
  Lu  Lu1  1  0.12060800  0.75000000  0.24121600  1
  Ga  Ga0  1  0.50000000  0.00000000  0.00000000  1
  Ga  Ga1  1  0.50000000  0.50000000  0.00000000  1
  Ga  Ga2  1  0.06996000  0.25000000  0.13992000  1
  Ga  Ga3  1  0.93004000  0.75000000  0.86008000  1
  Ga  Ga4  1  0.68429300  0.05129100  0.36858500  1
  Ga  Ga5  1  0.31570700  0.94870900  0.63141500  1
  Ga  Ga6  1  0.68429300  0.44870900  0.36858500  1
  Ga  Ga7  1  0.31570700  0.55129100  0.63141500  1
  Ni  Ni0  1  0.22659400  0.25000000  0.45318800  1
  Ni  Ni1  1  0.77340600  0.75000000  0.54681200  1
loop_
_geom_bond_atom_site_label_1
_geom_bond_atom_site_label_2
_geom_bond_distance
_geom_bond_site_symmetry_2
Lu0 Ni0 3.072412 1_655
Lu0 Ni0 3.072412 1_555
Lu1 Ni1 3.072412 1_455
Lu1 Ni1 3.072412 1_555
Ga0 Ga4 2.790251 1_555
Ga0 Ga5 2.790251 1_544
Ga0 Ga3 2.829663 1_544
Ga0 Ga2 2.829663 1_555
Ga0 Ga3 2.829663 1_444
Ga0 Ga2 2.829663 1_655
Ga0 Lu1 3.191674 1_545
Ga0 Lu0 3.191674 1_554
Ga0 Lu1 3.191674 1_645
Ga0 Lu0 3.191674 1_454
Ga1 Ga6 2.790251 1_555
Ga1 Ga7 2.790251 1_554
Ga1 Ga3 2.829663 1_554
Ga1 Ga2 2.829663 1_555
Ga1 Ga3 2.829663 1_454
Ga1 Ga2 2.829663 1_655
Ga1 Lu1 3.191674 1_555
Ga1 Lu0 3.191674 1_554
Ga1 Lu1 3.191674 1_655
Ga1 Lu0 3.191674 1_454
Ga2 Ni0 2.353896 1_555
Ga2 Lu0 2.863856 1_454
Ga2 Ga6 2.974356 1_455
Ga2 Ga4 2.974356 1_455
Ga2 Ga6 2.974359 1_555
Ga2 Ga4 2.974359 1_555
Ga2 Lu1 3.393825 1_545
Ga2 Lu1 3.393825 1_555
Ga3 Ni1 2.353896 1_555
Ga3 Lu1 2.863856 1_656
Ga3 Ga5 2.974356 1_655
Ga3 Ga7 2.974356 1_655
Ga3 Ga5 2.974359 1_555
Ga3 Ga7 2.974359 1_555
Ga3 Lu0 3.393825 1_555
Ga3 Lu0 3.393825 1_565
Ga4 Ni1 2.401115 1_545
Ga4 Ni0 2.509730 1_655
Ga4 Ni0 2.509733 1_555
Ga4 Ga6 2.628820 1_555
Ga4 Ga5 2.920210 1_645
Ga4 Ga5 2.920215 1_545
Ga4 Lu1 3.009119 1_645
Ga4 Lu1 3.009122 1_545
Ga4 Lu0 3.213104 1_555
Ga5 Ni0 2.401115 1_565
Ga5 Ni1 2.509730 1_455
Ga5 Ni1 2.509733 1_555
Ga5 Ga7 2.628820 1_555
Ga5 Lu0 3.009119 1_465
Ga5 Lu0 3.009122 1_565
Ga5 Lu1 3.213104 1_555
Ga6 Ni1 2.401115 1_555
Ga6 Ni0 2.509730 1_655
Ga6 Ni0 2.509733 1_555
Ga6 Ga7 2.920210 1_655
Ga6 Ga7 2.920215 1_555
Ga6 Lu1 3.009119 1_655
Ga6 Lu1 3.009122 1_555
Ga6 Lu0 3.213104 1_555
Ga7 Ni0 2.401115 1_555
Ga7 Ni1 2.509730 1_455
Ga7 Ni1 2.509733 1_555
Ga7 Lu0 3.009119 1_455
Ga7 Lu0 3.009122 1_555
Ga7 Lu1 3.213104 1_555
