# generated using pymatgen
data_CeSe2
_symmetry_space_group_name_H-M   'P 1'
_cell_length_a   7.39251400
_cell_length_b   7.34325300
_cell_length_c   15.33813185
_cell_angle_alpha   66.98627707
_cell_angle_beta   90.00000000
_cell_angle_gamma   90.00000000
_symmetry_Int_Tables_number   1
_chemical_formula_structural   CeSe2
_chemical_formula_sum   'Ce4 Se8'
_cell_volume   766.36388219
_cell_formula_units_Z   4
loop_
 _symmetry_equiv_pos_site_id
 _symmetry_equiv_pos_as_xyz
  1  'x, y, z'
loop_
 _atom_site_type_symbol
 _atom_site_label
 _atom_site_symmetry_multiplicity
 _atom_site_fract_x
 _atom_site_fract_y
 _atom_site_fract_z
 _atom_site_occupancy
  Ce  Ce0  1  0.24082700  0.29204200  0.93755900  1
  Ce  Ce1  1  0.24082700  0.70795800  0.56244100  1
  Ce  Ce2  1  0.75917300  0.70795800  0.06244100  1
  Ce  Ce3  1  0.75917300  0.29204200  0.43755900  1
  Se  Se0  1  0.00000000  0.00000000  0.00000000  1
  Se  Se1  1  0.00000000  0.00000000  0.50000000  1
  Se  Se2  1  0.29710700  0.50000000  0.75000000  1
  Se  Se3  1  0.70289300  0.50000000  0.25000000  1
  Se  Se4  1  0.50000000  0.00000000  0.00000000  1
  Se  Se5  1  0.50000000  0.00000000  0.50000000  1
  Se  Se6  1  0.00000000  0.50000000  0.00000000  1
  Se  Se7  1  0.00000000  0.50000000  0.50000000  1
loop_
_geom_bond_atom_site_label_1
_geom_bond_atom_site_label_2
_geom_bond_distance
_geom_bond_site_symmetry_2
Ce0 Se0 2.660804 1_556
Ce0 Se2 2.710368 1_555
Ce0 Se6 2.749969 1_556
Ce0 Se4 2.753393 1_556
Ce1 Se1 2.660804 1_565
Ce1 Se2 2.710368 1_555
Ce1 Se7 2.749969 1_555
Ce1 Se5 2.753393 1_565
Ce2 Se0 2.660804 1_665
Ce2 Se3 2.710368 1_555
Ce2 Se6 2.749969 1_655
Ce2 Se4 2.753393 1_565
Ce3 Se1 2.660804 1_655
Ce3 Se3 2.710368 1_555
Ce3 Se7 2.749969 1_655
Ce3 Se5 2.753393 1_555
