# generated using pymatgen
data_Cd(Pt3O4)3
_symmetry_space_group_name_H-M   'P 1'
_cell_length_a   5.73561900
_cell_length_b   5.75309700
_cell_length_c   17.15928800
_cell_angle_alpha   90.00000000
_cell_angle_beta   90.00000000
_cell_angle_gamma   90.00000000
_symmetry_Int_Tables_number   1
_chemical_formula_structural   Cd(Pt3O4)3
_chemical_formula_sum   'Cd2 Pt18 O24'
_cell_volume   566.21484918
_cell_formula_units_Z   2
loop_
 _symmetry_equiv_pos_site_id
 _symmetry_equiv_pos_as_xyz
  1  'x, y, z'
loop_
 _atom_site_type_symbol
 _atom_site_label
 _atom_site_symmetry_multiplicity
 _atom_site_fract_x
 _atom_site_fract_y
 _atom_site_fract_z
 _atom_site_occupancy
  Cd  Cd0  1  0.50000000  0.50000000  0.33230600  1
  Cd  Cd1  1  0.50000000  0.50000000  0.66769400  1
  Pt  Pt0  1  0.50000000  0.00000000  0.41857600  1
  Pt  Pt1  1  0.50000000  0.00000000  0.75408300  1
  Pt  Pt2  1  0.50000000  0.00000000  0.08273900  1
  Pt  Pt3  1  0.75236600  0.50000000  0.16226000  1
  Pt  Pt4  1  0.75756400  0.50000000  0.50000000  1
  Pt  Pt5  1  0.75236600  0.50000000  0.83774000  1
  Pt  Pt6  1  0.00000000  0.75697500  0.33147400  1
  Pt  Pt7  1  0.00000000  0.75697500  0.66852600  1
  Pt  Pt8  1  0.00000000  0.75356500  0.00000000  1
  Pt  Pt9  1  0.50000000  0.00000000  0.24591700  1
  Pt  Pt10  1  0.50000000  0.00000000  0.58142400  1
  Pt  Pt11  1  0.50000000  0.00000000  0.91726100  1
  Pt  Pt12  1  0.24763400  0.50000000  0.16226000  1
  Pt  Pt13  1  0.24243600  0.50000000  0.50000000  1
  Pt  Pt14  1  0.24763400  0.50000000  0.83774000  1
  Pt  Pt15  1  0.00000000  0.24302500  0.33147400  1
  Pt  Pt16  1  0.00000000  0.24302500  0.66852600  1
  Pt  Pt17  1  0.00000000  0.24643500  0.00000000  1
  O  O0  1  0.74189400  0.74148500  0.41320100  1
  O  O1  1  0.73996000  0.73963200  0.74941600  1
  O  O2  1  0.75024800  0.75265500  0.08175500  1
  O  O3  1  0.26004000  0.26036800  0.25058400  1
  O  O4  1  0.25810600  0.25851500  0.58679900  1
  O  O5  1  0.24975200  0.24734500  0.91824500  1
  O  O6  1  0.26004000  0.73963200  0.25058400  1
  O  O7  1  0.25810600  0.74148500  0.58679900  1
  O  O8  1  0.24975200  0.75265500  0.91824500  1
  O  O9  1  0.74189400  0.25851500  0.41320100  1
  O  O10  1  0.73996000  0.26036800  0.74941600  1
  O  O11  1  0.75024800  0.24734500  0.08175500  1
  O  O12  1  0.25810600  0.25851500  0.41320100  1
  O  O13  1  0.26004000  0.26036800  0.74941600  1
  O  O14  1  0.24975200  0.24734500  0.08175500  1
  O  O15  1  0.73996000  0.73963200  0.25058400  1
  O  O16  1  0.74189400  0.74148500  0.58679900  1
  O  O17  1  0.75024800  0.75265500  0.91824500  1
  O  O18  1  0.73996000  0.26036800  0.25058400  1
  O  O19  1  0.74189400  0.25851500  0.58679900  1
  O  O20  1  0.75024800  0.24734500  0.91824500  1
  O  O21  1  0.25810600  0.74148500  0.41320100  1
  O  O22  1  0.26004000  0.73963200  0.74941600  1
  O  O23  1  0.24975200  0.75265500  0.08175500  1
loop_
_geom_bond_atom_site_label_1
_geom_bond_atom_site_label_2
_geom_bond_distance
_geom_bond_site_symmetry_2
Cd0 O3 2.400268 1_555
Cd0 O6 2.400268 1_555
Cd0 O18 2.400268 1_555
Cd0 O15 2.400268 1_555
Cd0 O9 2.404548 1_555
Cd0 O0 2.404548 1_555
Cd0 O21 2.404548 1_555
Cd0 O12 2.404548 1_555
Cd1 O22 2.400268 1_555
Cd1 O13 2.400268 1_555
Cd1 O10 2.400268 1_555
Cd1 O1 2.400268 1_555
Cd1 O19 2.404548 1_555
Cd1 O16 2.404548 1_555
Cd1 O7 2.404548 1_555
Cd1 O4 2.404548 1_555
O0 Pt0 2.036017 1_565
O0 Pt4 2.038758 1_555
O0 Pt6 2.041122 1_655
O1 Pt1 2.035790 1_565
O1 Pt7 2.039873 1_655
O1 Pt5 2.050036 1_555
O2 Pt8 2.005004 1_655
O2 Pt3 2.005303 1_555
O2 Pt2 2.021232 1_565
O3 Pt9 2.035790 1_555
O3 Pt15 2.039873 1_555
O3 Pt12 2.050036 1_555
O4 Pt10 2.036017 1_555
O4 Pt13 2.038758 1_555
O4 Pt16 2.041122 1_555
O5 Pt17 2.005004 1_556
O5 Pt14 2.005303 1_555
O5 Pt11 2.021232 1_555
O6 Pt9 2.035790 1_565
O6 Pt6 2.039873 1_555
O6 Pt12 2.050036 1_555
O7 Pt10 2.036017 1_565
O7 Pt13 2.038758 1_555
O7 Pt7 2.041122 1_555
O8 Pt8 2.005004 1_556
O8 Pt14 2.005303 1_555
O8 Pt11 2.021232 1_565
O9 Pt0 2.036017 1_555
O9 Pt4 2.038758 1_555
O9 Pt15 2.041122 1_655
O10 Pt1 2.035790 1_555
O10 Pt16 2.039873 1_655
O10 Pt5 2.050036 1_555
O11 Pt17 2.005004 1_655
O11 Pt3 2.005303 1_555
O11 Pt2 2.021232 1_555
O12 Pt0 2.036017 1_555
O12 Pt13 2.038758 1_555
O12 Pt15 2.041122 1_555
O13 Pt1 2.035790 1_555
O13 Pt16 2.039873 1_555
O13 Pt14 2.050036 1_555
O14 Pt17 2.005004 1_555
O14 Pt12 2.005303 1_555
O14 Pt2 2.021232 1_555
O15 Pt9 2.035790 1_565
O15 Pt6 2.039873 1_655
O15 Pt3 2.050036 1_555
O16 Pt10 2.036017 1_565
O16 Pt4 2.038758 1_555
O16 Pt7 2.041122 1_655
O17 Pt8 2.005004 1_656
O17 Pt5 2.005303 1_555
O17 Pt11 2.021232 1_565
O18 Pt9 2.035790 1_555
O18 Pt15 2.039873 1_655
O18 Pt3 2.050036 1_555
O19 Pt10 2.036017 1_555
O19 Pt4 2.038758 1_555
O19 Pt16 2.041122 1_655
O20 Pt17 2.005004 1_656
O20 Pt5 2.005303 1_555
O20 Pt11 2.021232 1_555
O21 Pt0 2.036017 1_565
O21 Pt13 2.038758 1_555
O21 Pt6 2.041122 1_555
O22 Pt1 2.035790 1_565
O22 Pt7 2.039873 1_555
O22 Pt14 2.050036 1_555
O23 Pt8 2.005004 1_555
O23 Pt12 2.005303 1_555
O23 Pt2 2.021232 1_565
