# generated using pymatgen
data_LaB3F12
_symmetry_space_group_name_H-M   'P 1'
_cell_length_a   11.17074306
_cell_length_b   11.17074306
_cell_length_c   11.34975000
_cell_angle_alpha   90.00000000
_cell_angle_beta   90.00000000
_cell_angle_gamma   119.99999444
_symmetry_Int_Tables_number   1
_chemical_formula_structural   LaB3F12
_chemical_formula_sum   'La6 B18 F72'
_cell_volume   1226.53819510
_cell_formula_units_Z   6
loop_
 _symmetry_equiv_pos_site_id
 _symmetry_equiv_pos_as_xyz
  1  'x, y, z'
loop_
 _atom_site_type_symbol
 _atom_site_label
 _atom_site_symmetry_multiplicity
 _atom_site_fract_x
 _atom_site_fract_y
 _atom_site_fract_z
 _atom_site_occupancy
  La  La0  1  0.67726100  0.01061400  0.25016000  1
  La  La1  1  0.33335300  0.32273900  0.25016000  1
  La  La2  1  0.98938600  0.66664700  0.25016000  1
  La  La3  1  0.33335300  0.01061400  0.75016000  1
  La  La4  1  0.67726100  0.66664700  0.75016000  1
  La  La5  1  0.98938600  0.32273900  0.75016000  1
  B  B0  1  0.37797500  0.02847800  0.40709500  1
  B  B1  1  0.65050300  0.62202500  0.40709500  1
  B  B2  1  0.97152200  0.34949700  0.40709500  1
  B  B3  1  0.65050300  0.02847800  0.90709500  1
  B  B4  1  0.37797500  0.34949700  0.90709500  1
  B  B5  1  0.97152200  0.62202500  0.90709500  1
  B  B6  1  0.28884400  0.30522100  0.59306700  1
  B  B7  1  0.01637700  0.71115600  0.59306700  1
  B  B8  1  0.69477900  0.98362300  0.59306700  1
  B  B9  1  0.01637700  0.30522100  0.09306700  1
  B  B10  1  0.28884400  0.98362300  0.09306700  1
  B  B11  1  0.69477900  0.71115600  0.09306700  1
  B  B12  1  0.33333300  0.66666700  0.80033800  1
  B  B13  1  0.33333300  0.66666700  0.30033800  1
  B  B14  1  0.00000000  0.00000000  0.35252700  1
  B  B15  1  0.00000000  0.00000000  0.85252700  1
  B  B16  1  0.66666700  0.33333300  0.64750000  1
  B  B17  1  0.66666700  0.33333300  0.14750000  1
  F  F0  1  0.68833400  0.97742300  0.46713900  1
  F  F1  1  0.28908900  0.31166600  0.46713900  1
  F  F2  1  0.02257700  0.71091100  0.46713900  1
  F  F3  1  0.28908900  0.97742300  0.96713900  1
  F  F4  1  0.68833400  0.71091100  0.96713900  1
  F  F5  1  0.02257700  0.31166600  0.96713900  1
  F  F6  1  0.97829700  0.35583400  0.53294800  1
  F  F7  1  0.37753700  0.02170300  0.53294800  1
  F  F8  1  0.64416600  0.62246300  0.53294800  1
  F  F9  1  0.37753700  0.35583400  0.03294800  1
  F  F10  1  0.97829700  0.62246300  0.03294800  1
  F  F11  1  0.64416600  0.02170300  0.03294800  1
  F  F12  1  0.84656400  0.23040300  0.37156900  1
  F  F13  1  0.38383900  0.15343600  0.37156900  1
  F  F14  1  0.76959700  0.61616100  0.37156900  1
  F  F15  1  0.38383900  0.23040300  0.87156900  1
  F  F16  1  0.84656400  0.61616100  0.87156900  1
  F  F17  1  0.76959700  0.15343600  0.87156900  1
  F  F18  1  0.81991900  0.10269000  0.62848500  1
  F  F19  1  0.28277100  0.18008100  0.62848500  1
  F  F20  1  0.89731000  0.71722900  0.62848500  1
  F  F21  1  0.28277100  0.10269000  0.12848500  1
  F  F22  1  0.81991900  0.71722900  0.12848500  1
  F  F23  1  0.89731000  0.18008100  0.12848500  1
  F  F24  1  0.45351600  0.78679800  0.25363600  1
  F  F25  1  0.33328100  0.54648400  0.25363600  1
  F  F26  1  0.21320200  0.66671900  0.25363600  1
  F  F27  1  0.33328100  0.78679800  0.75363600  1
  F  F28  1  0.45351600  0.66671900  0.75363600  1
  F  F29  1  0.21320200  0.54648400  0.75363600  1
  F  F30  1  0.88434500  0.00583700  0.30472500  1
  F  F31  1  0.12149200  0.11565500  0.30472500  1
  F  F32  1  0.99416300  0.87850800  0.30472500  1
  F  F33  1  0.12149200  0.00583700  0.80472500  1
  F  F34  1  0.88434500  0.87850800  0.80472500  1
  F  F35  1  0.99416300  0.11565500  0.80472500  1
  F  F36  1  0.78233800  0.32750700  0.69528700  1
  F  F37  1  0.54516900  0.21766200  0.69528700  1
  F  F38  1  0.67249300  0.45483100  0.69528700  1
  F  F39  1  0.54516900  0.32750700  0.19528700  1
  F  F40  1  0.78233800  0.45483100  0.19528700  1
  F  F41  1  0.67249300  0.21766200  0.19528700  1
  F  F42  1  0.26255600  0.91449200  0.36219000  1
  F  F43  1  0.65193500  0.73744400  0.36219000  1
  F  F44  1  0.08550800  0.34806500  0.36219000  1
  F  F45  1  0.65193500  0.91449200  0.86219000  1
  F  F46  1  0.26255600  0.34806500  0.86219000  1
  F  F47  1  0.08550800  0.73744400  0.86219000  1
  F  F48  1  0.40430500  0.41916400  0.63783500  1
  F  F49  1  0.01485800  0.59569500  0.63783500  1
  F  F50  1  0.58083600  0.98514200  0.63783500  1
  F  F51  1  0.01485800  0.41916400  0.13783500  1
  F  F52  1  0.40430500  0.98514200  0.13783500  1
  F  F53  1  0.58083600  0.59569500  0.13783500  1
  F  F54  1  0.00000000  0.00000000  0.47236200  1
  F  F55  1  0.00000000  0.00000000  0.97236200  1
  F  F56  1  0.66666700  0.33333300  0.52765300  1
  F  F57  1  0.66666700  0.33333300  0.02765300  1
  F  F58  1  0.50275600  0.03333000  0.36781100  1
  F  F59  1  0.53057400  0.49724400  0.36781100  1
  F  F60  1  0.96667000  0.46942600  0.36781100  1
  F  F61  1  0.53057400  0.03333000  0.86781100  1
  F  F62  1  0.50275600  0.46942600  0.86781100  1
  F  F63  1  0.96667000  0.49724400  0.86781100  1
  F  F64  1  0.16409600  0.30059300  0.63236200  1
  F  F65  1  0.13649700  0.83590400  0.63236200  1
  F  F66  1  0.69940700  0.86350300  0.63236200  1
  F  F67  1  0.13649700  0.30059300  0.13236200  1
  F  F68  1  0.16409600  0.86350300  0.13236200  1
  F  F69  1  0.69940700  0.83590400  0.13236200  1
  F  F70  1  0.33333300  0.66666700  0.42051500  1
  F  F71  1  0.33333300  0.66666700  0.92051500  1
loop_
_geom_bond_atom_site_label_1
_geom_bond_atom_site_label_2
_geom_bond_distance
_geom_bond_site_symmetry_2
B0 F42 1.379024 1_545
B0 F13 1.422637 1_555
B0 F7 1.430283 1_555
B0 F58 1.438447 1_555
B1 F43 1.379029 1_555
B1 F14 1.422637 1_555
B1 F8 1.430283 1_555
B1 F59 1.438447 1_555
B2 F44 1.379019 1_655
B2 F12 1.422637 1_555
B2 F6 1.430283 1_555
B2 F60 1.438447 1_555
B3 F45 1.379019 1_545
B3 F17 1.422637 1_555
B3 F11 1.430283 1_556
B3 F61 1.438447 1_555
B4 F46 1.379029 1_555
B4 F15 1.422637 1_555
B4 F9 1.430283 1_556
B4 F62 1.438447 1_555
B5 F47 1.379024 1_655
B5 F16 1.422637 1_555
B5 F10 1.430283 1_556
B5 F63 1.438447 1_555
B6 F48 1.378453 1_555
B6 F19 1.423202 1_555
B6 F1 1.430997 1_555
B6 F64 1.439255 1_555
B7 F49 1.378448 1_555
B7 F20 1.423202 1_455
B7 F2 1.430997 1_555
B7 F65 1.439255 1_555
B8 F50 1.378459 1_555
B8 F18 1.423202 1_565
B8 F0 1.430997 1_555
B8 F66 1.439255 1_555
B9 F51 1.378459 1_555
B9 F23 1.423202 1_455
B9 F5 1.430997 1_554
B9 F67 1.439255 1_555
B10 F52 1.378448 1_555
B10 F21 1.423202 1_565
B10 F3 1.430997 1_554
B10 F68 1.439255 1_555
B11 F53 1.378453 1_555
B11 F22 1.423202 1_555
B11 F4 1.430997 1_554
B11 F69 1.439255 1_555
B12 F71 1.363979 1_555
B12 F27 1.443113 1_555
B12 F28 1.443113 1_555
B12 F29 1.443113 1_555
B13 F70 1.363979 1_555
B13 F26 1.443113 1_555
B13 F25 1.443113 1_555
B13 F24 1.443113 1_555
B14 F54 1.360097 1_555
B14 F30 1.432474 1_455
B14 F32 1.432474 1_445
B14 F31 1.432474 1_555
B15 F55 1.360097 1_555
B15 F35 1.432474 1_455
B15 F33 1.432474 1_555
B15 F34 1.432474 1_445
B16 F56 1.360233 1_555
B16 F36 1.432514 1_555
B16 F37 1.432520 1_555
B16 F38 1.432524 1_555
B17 F57 1.360233 1_555
B17 F41 1.432514 1_555
B17 F40 1.432520 1_555
B17 F39 1.432524 1_555
F0 La0 2.502661 1_565
F1 La1 2.502661 1_555
F2 La2 2.502661 1_455
F3 La3 2.502661 1_565
F4 La4 2.502661 1_555
F5 La5 2.502661 1_455
F6 La5 2.505100 1_555
F7 La3 2.505100 1_555
F8 La4 2.505100 1_555
F9 La1 2.505100 1_555
F10 La2 2.505100 1_555
F11 La0 2.505100 1_555
F12 La0 2.619203 1_555
F13 La1 2.619203 1_555
F14 La2 2.619203 1_555
F15 La3 2.619203 1_555
F16 La4 2.619203 1_555
F17 La5 2.619203 1_555
F18 La5 2.622929 1_555
F19 La3 2.622929 1_555
F20 La4 2.622929 1_555
F21 La1 2.622929 1_555
F22 La2 2.622929 1_555
F23 La0 2.622929 1_555
F24 La0 2.500106 1_565
F25 La1 2.500111 1_555
F26 La2 2.500100 1_455
F27 La3 2.500100 1_565
F28 La4 2.500111 1_555
F29 La5 2.500106 1_455
F30 La0 2.420970 1_555
F31 La1 2.420970 1_555
F32 La2 2.420970 1_555
F33 La3 2.420970 1_555
F34 La4 2.420970 1_555
F35 La5 2.420970 1_555
F36 La5 2.421428 1_555
F37 La3 2.421428 1_555
F38 La4 2.421428 1_555
F39 La1 2.421428 1_555
F40 La2 2.421428 1_555
F41 La0 2.421428 1_555
F58 La0 2.478319 1_555
F59 La1 2.478319 1_555
F60 La2 2.478319 1_555
F61 La3 2.478319 1_555
F62 La4 2.478319 1_555
F63 La5 2.478319 1_555
F64 La5 2.477987 1_455
F65 La3 2.477988 1_565
F66 La4 2.477988 1_555
F67 La1 2.477988 1_555
F68 La2 2.477988 1_455
F69 La0 2.477987 1_565
