# generated using pymatgen
data_NbS2
_symmetry_space_group_name_H-M   'P 1'
_cell_length_a   3.37236738
_cell_length_b   3.37236738
_cell_length_c   17.42188182
_cell_angle_alpha   90.00000000
_cell_angle_beta   90.00000000
_cell_angle_gamma   120.00000195
_symmetry_Int_Tables_number   1
_chemical_formula_structural   NbS2
_chemical_formula_sum   'Nb2 S4'
_cell_volume   171.59137173
_cell_formula_units_Z   2
loop_
 _symmetry_equiv_pos_site_id
 _symmetry_equiv_pos_as_xyz
  1  'x, y, z'
loop_
 _atom_site_type_symbol
 _atom_site_label
 _atom_site_symmetry_multiplicity
 _atom_site_fract_x
 _atom_site_fract_y
 _atom_site_fract_z
 _atom_site_occupancy
  Nb  Nb0  1  0.33333300  0.66666700  0.75000000  1
  Nb  Nb1  1  0.66666700  0.33333300  0.25000000  1
  S  S0  1  0.00000000  -0.00000000  0.83961235  1
  S  S1  1  -0.00000000  -0.00000000  0.66038765  1
  S  S2  1  0.00000000  -0.00000000  0.33961235  1
  S  S3  1  -0.00000000  -0.00000000  0.16038765  1
loop_
_geom_bond_atom_site_label_1
_geom_bond_atom_site_label_2
_geom_bond_distance
_geom_bond_site_symmetry_2
Nb0 S0 2.495664 1_565
Nb0 S1 2.495664 1_565
Nb0 S0 2.495667 1_665
Nb0 S1 2.495667 1_665
Nb0 S0 2.495667 1_555
Nb0 S1 2.495667 1_555
Nb1 S2 2.495664 1_655
Nb1 S3 2.495664 1_655
Nb1 S3 2.495667 1_665
Nb1 S2 2.495667 1_555
Nb1 S3 2.495667 1_555
Nb1 S2 2.495667 1_665
