# generated using pymatgen
data_CsNbCl6
_symmetry_space_group_name_H-M   'P 1'
_cell_length_a   6.94159578
_cell_length_b   6.94159578
_cell_length_c   12.44516525
_cell_angle_alpha   79.27952170
_cell_angle_beta   79.27952170
_cell_angle_gamma   55.42367899
_symmetry_Int_Tables_number   1
_chemical_formula_structural   CsNbCl6
_chemical_formula_sum   'Cs2 Nb2 Cl12'
_cell_volume   482.73605657
_cell_formula_units_Z   2
loop_
 _symmetry_equiv_pos_site_id
 _symmetry_equiv_pos_as_xyz
  1  'x, y, z'
loop_
 _atom_site_type_symbol
 _atom_site_label
 _atom_site_symmetry_multiplicity
 _atom_site_fract_x
 _atom_site_fract_y
 _atom_site_fract_z
 _atom_site_occupancy
  Cs  Cs0  1  0.88490366  0.11509634  0.75000000  1
  Cs  Cs1  1  0.11509634  0.88490366  0.25000000  1
  Nb  Nb0  1  0.50000000  -0.00000000  0.50000000  1
  Nb  Nb1  1  -0.00000000  0.50000000  -0.00000000  1
  Cl  Cl0  1  0.46335227  0.69668520  0.60500036  1
  Cl  Cl1  1  0.53664773  0.30331480  0.39499964  1
  Cl  Cl2  1  0.30331480  0.53664773  0.89499964  1
  Cl  Cl3  1  0.69668520  0.46335227  0.10500036  1
  Cl  Cl4  1  0.36995945  0.20149924  0.65997438  1
  Cl  Cl5  1  0.63004055  0.79850076  0.34002562  1
  Cl  Cl6  1  0.79850076  0.63004055  0.84002562  1
  Cl  Cl7  1  0.20149924  0.36995945  0.15997438  1
  Cl  Cl8  1  0.79619013  0.89643951  0.03963830  1
  Cl  Cl9  1  0.20380987  0.10356049  0.96036170  1
  Cl  Cl10  1  0.10356049  0.20380987  0.46036170  1
  Cl  Cl11  1  0.89643951  0.79619013  0.53963830  1
loop_
_geom_bond_atom_site_label_1
_geom_bond_atom_site_label_2
_geom_bond_distance
_geom_bond_site_symmetry_2
Cl0 Nb0 2.380347 1_565
Cl0 Cs0 3.719215 1_465
Cl0 Cs0 3.736770 1_555
Cl1 Nb0 2.380347 1_555
Cl1 Cs1 3.719215 1_645
Cl1 Cs1 3.736770 1_555
Cl2 Nb1 2.380347 1_556
Cl2 Cs0 3.719215 1_465
Cl2 Cs0 3.736770 1_555
Cl3 Nb1 2.380347 1_655
Cl3 Cs1 3.719215 1_645
Cl3 Cs1 3.736770 1_555
Cl4 Nb0 2.381035 1_555
Cl4 Cs0 3.633026 1_555
Cl4 Cs0 3.686562 1_455
Cl5 Nb0 2.381035 1_565
Cl5 Cs1 3.633026 1_555
Cl5 Cs1 3.686562 1_655
Cl6 Nb1 2.381035 1_656
Cl6 Cs0 3.633026 1_555
Cl6 Cs0 3.686562 1_565
Cl7 Nb1 2.381035 1_555
Cl7 Cs1 3.633026 1_555
Cl7 Cs1 3.686562 1_545
Cl8 Nb1 2.375804 1_655
Cl8 Cs1 3.692931 1_655
Cl8 Cs0 3.725015 1_564
Cl9 Nb1 2.375804 1_556
Cl9 Cs0 3.692931 1_455
Cl9 Cs1 3.725015 1_546
Cl10 Nb0 2.375804 1_555
Cl10 Cs1 3.692931 1_545
Cl10 Cs0 3.725015 1_455
Cl11 Nb0 2.375804 1_565
Cl11 Cs0 3.692931 1_565
Cl11 Cs1 3.725015 1_655
