# generated using pymatgen
data_Sr3Er
_symmetry_space_group_name_H-M   'P 1'
_cell_length_a   8.10078200
_cell_length_b   8.10078200
_cell_length_c   6.57119200
_cell_angle_alpha   90.00000000
_cell_angle_beta   90.00000000
_cell_angle_gamma   119.99999998
_symmetry_Int_Tables_number   1
_chemical_formula_structural   Sr3Er
_chemical_formula_sum   'Sr6 Er2'
_cell_volume   373.44674497
_cell_formula_units_Z   2
loop_
 _symmetry_equiv_pos_site_id
 _symmetry_equiv_pos_as_xyz
  1  'x, y, z'
loop_
 _atom_site_type_symbol
 _atom_site_label
 _atom_site_symmetry_multiplicity
 _atom_site_fract_x
 _atom_site_fract_y
 _atom_site_fract_z
 _atom_site_occupancy
  Sr  Sr0  1  0.17173100  0.34346200  0.25000000  1
  Sr  Sr1  1  0.65653800  0.82826900  0.25000000  1
  Sr  Sr2  1  0.17173100  0.82826900  0.25000000  1
  Sr  Sr3  1  0.82826900  0.65653800  0.75000000  1
  Sr  Sr4  1  0.34346200  0.17173100  0.75000000  1
  Sr  Sr5  1  0.82826900  0.17173100  0.75000000  1
  Er  Er0  1  0.33333300  0.66666700  0.75000000  1
  Er  Er1  1  0.66666700  0.33333300  0.25000000  1
loop_
_geom_bond_atom_site_label_1
_geom_bond_atom_site_label_2
_geom_bond_distance
_geom_bond_site_symmetry_2
Sr0 Sr2 3.927316 1_555
Sr0 Sr1 3.927316 1_555
Sr0 Sr4 4.074442 1_554
Sr0 Sr4 4.074442 1_555
Sr0 Sr5 4.074442 1_455
Sr0 Sr5 4.074442 1_454
Sr0 Sr2 4.173466 1_545
Sr0 Sr1 4.173466 1_445
Sr1 Sr2 3.927316 1_555
Sr1 Sr3 4.074442 1_554
Sr1 Sr3 4.074442 1_555
Sr1 Sr5 4.074442 1_564
Sr1 Sr5 4.074442 1_565
Sr1 Sr2 4.173466 1_655
Sr2 Sr4 4.074442 1_565
Sr2 Sr3 4.074442 1_455
Sr2 Sr3 4.074442 1_454
Sr2 Sr4 4.074442 1_564
Sr3 Sr5 3.927316 1_555
Sr3 Sr4 3.927316 1_555
Sr3 Sr5 4.173466 1_565
Sr3 Sr4 4.173466 1_665
Sr4 Sr5 3.927316 1_555
Sr4 Sr5 4.173466 1_455
Er0 Sr2 3.992041 1_556
Er0 Sr2 3.992041 1_555
Er0 Sr0 3.992045 1_555
Er0 Sr0 3.992045 1_556
Er0 Sr1 3.992045 1_555
Er0 Sr1 3.992045 1_556
Er0 Sr3 4.051010 1_455
Er0 Sr4 4.051010 1_565
Er0 Sr5 4.051014 1_455
Er0 Sr5 4.051014 1_565
Er0 Sr4 4.051018 1_555
Er0 Sr3 4.051018 1_555
Er1 Sr5 3.992041 1_555
Er1 Sr5 3.992041 1_554
Er1 Sr3 3.992045 1_554
Er1 Sr3 3.992045 1_555
Er1 Sr4 3.992045 1_554
Er1 Sr4 3.992045 1_555
Er1 Sr1 4.051010 1_545
Er1 Sr0 4.051010 1_655
Er1 Sr2 4.051014 1_545
Er1 Sr2 4.051014 1_655
Er1 Sr0 4.051018 1_555
Er1 Sr1 4.051018 1_555
