# generated using pymatgen
data_BaSrPdF6
_symmetry_space_group_name_H-M   'P 1'
_cell_length_a   9.10617842
_cell_length_b   9.10617842
_cell_length_c   6.06589000
_cell_angle_alpha   90.00000000
_cell_angle_beta   90.00000000
_cell_angle_gamma   140.90602905
_symmetry_Int_Tables_number   1
_chemical_formula_structural   BaSrPdF6
_chemical_formula_sum   'Ba2 Sr2 Pd2 F12'
_cell_volume   317.18801816
_cell_formula_units_Z   2
loop_
 _symmetry_equiv_pos_site_id
 _symmetry_equiv_pos_as_xyz
  1  'x, y, z'
loop_
 _atom_site_type_symbol
 _atom_site_label
 _atom_site_symmetry_multiplicity
 _atom_site_fract_x
 _atom_site_fract_y
 _atom_site_fract_z
 _atom_site_occupancy
  Ba  Ba0  1  0.33613400  0.66386600  0.50000000  1
  Ba  Ba1  1  0.83613400  0.16386600  0.00000000  1
  Sr  Sr0  1  0.66029900  0.33970100  0.50000000  1
  Sr  Sr1  1  0.16029900  0.83970100  0.00000000  1
  Pd  Pd0  1  0.00414900  0.99585100  0.50000000  1
  Pd  Pd1  1  0.50414900  0.49585100  0.00000000  1
  F  F0  1  0.49725500  0.01102600  0.24722700  1
  F  F1  1  0.98897400  0.50274500  0.75277300  1
  F  F2  1  0.48897400  0.00274500  0.74722700  1
  F  F3  1  0.99725500  0.51102600  0.25277300  1
  F  F4  1  0.08119100  0.24301700  0.34108600  1
  F  F5  1  0.75698300  0.91880900  0.65891400  1
  F  F6  1  0.25698300  0.41880900  0.84108600  1
  F  F7  1  0.58119100  0.74301700  0.15891400  1
  F  F8  1  0.92008100  0.74506600  0.66119600  1
  F  F9  1  0.25493400  0.07991900  0.33880400  1
  F  F10  1  0.75493400  0.57991900  0.16119600  1
  F  F11  1  0.42008100  0.24506600  0.83880400  1
loop_
_geom_bond_atom_site_label_1
_geom_bond_atom_site_label_2
_geom_bond_distance
_geom_bond_site_symmetry_2
Ba0 F3 2.653695 1_455
Ba0 F2 2.653695 1_565
Ba0 F5 2.682437 1_555
Ba0 F4 2.682437 1_555
Ba0 F6 2.698768 1_555
Ba0 F7 2.698768 1_555
Ba0 F0 2.701457 1_565
Ba0 F1 2.701457 1_455
Ba1 F0 2.653695 1_555
Ba1 F1 2.653695 1_554
Ba1 F6 2.682437 1_654
Ba1 F7 2.682437 1_545
Ba1 F5 2.698768 1_544
Ba1 F4 2.698768 1_655
Ba1 F3 2.701457 1_555
Ba1 F2 2.701457 1_554
F0 Sr0 2.572086 1_555
F0 Sr1 2.582117 1_545
F1 Sr0 2.572086 1_555
F1 Sr1 2.582117 1_656
F2 Sr1 2.572086 1_546
F2 Sr0 2.582117 1_555
F3 Sr1 2.572086 1_655
F3 Sr0 2.582117 1_555
F4 Pd0 2.009033 1_545
F5 Pd0 2.009033 1_655
F6 Pd1 2.009033 1_556
F7 Pd1 2.009033 1_555
F8 Pd0 2.010897 1_655
F8 Sr0 2.573650 1_555
F8 Sr1 2.612511 1_656
F9 Pd0 2.010897 1_545
F9 Sr0 2.573650 1_555
F9 Sr1 2.612511 1_545
F10 Pd1 2.010897 1_555
F10 Sr1 2.573650 1_655
F10 Sr0 2.612511 1_555
F11 Pd1 2.010897 1_556
F11 Sr1 2.573650 1_546
F11 Sr0 2.612511 1_555
