# generated using pymatgen
data_Pr2Fe12P7
_symmetry_space_group_name_H-M   'P 1'
_cell_length_a   3.69475300
_cell_length_b   9.07442123
_cell_length_c   9.07423269
_cell_angle_alpha   120.07226796
_cell_angle_beta   90.00000000
_cell_angle_gamma   90.00000000
_symmetry_Int_Tables_number   1
_chemical_formula_structural   Pr2Fe12P7
_chemical_formula_sum   'Pr2 Fe12 P7'
_cell_volume   263.28624236
_cell_formula_units_Z   1
loop_
 _symmetry_equiv_pos_site_id
 _symmetry_equiv_pos_as_xyz
  1  'x, y, z'
loop_
 _atom_site_type_symbol
 _atom_site_label
 _atom_site_symmetry_multiplicity
 _atom_site_fract_x
 _atom_site_fract_y
 _atom_site_fract_z
 _atom_site_occupancy
  Pr  Pr0  1  0.00000000  0.66693400  0.33321300  1
  Pr  Pr1  1  0.50000000  0.33297900  0.66677600  1
  Fe  Fe0  1  0.00000000  0.36928600  0.94527600  1
  Fe  Fe1  1  0.00000000  0.05497400  0.42394700  1
  Fe  Fe2  1  0.00000000  0.57501400  0.62972500  1
  Fe  Fe3  1  0.00000000  0.87948700  0.72839900  1
  Fe  Fe4  1  0.00000000  0.27237700  0.15187000  1
  Fe  Fe5  1  0.00000000  0.84855100  0.12027700  1
  Fe  Fe6  1  0.50000000  0.95212600  0.56991700  1
  Fe  Fe7  1  0.50000000  0.42981400  0.38217100  1
  Fe  Fe8  1  0.50000000  0.61831000  0.04793400  1
  Fe  Fe9  1  0.50000000  0.11709200  0.90320400  1
  Fe  Fe10  1  0.50000000  0.09696400  0.21439000  1
  Fe  Fe11  1  0.50000000  0.78615700  0.88319500  1
  P  P0  1  0.00000000  0.10549100  0.69981700  1
  P  P1  1  0.00000000  0.29776500  0.40494300  1
  P  P2  1  0.00000000  0.59447600  0.89393600  1
  P  P3  1  0.50000000  0.71162600  0.60501000  1
  P  P4  1  0.50000000  0.39539600  0.10555700  1
  P  P5  1  0.50000000  0.89479800  0.28998100  1
  P  P6  1  0.00000000  0.00038000  0.00046000  1
loop_
_geom_bond_atom_site_label_1
_geom_bond_atom_site_label_2
_geom_bond_distance
_geom_bond_site_symmetry_2
Fe0 P4 2.288873 1_556
Fe0 P4 2.288873 1_456
Fe0 P2 2.312331 1_555
Fe0 P0 2.312545 1_555
Fe0 Pr1 3.012229 1_455
Fe0 Pr1 3.012229 1_555
Fe0 Pr0 3.187238 1_556
Fe1 P5 2.287457 1_445
Fe1 P5 2.287457 1_545
Fe1 P1 2.294458 1_555
Fe1 P0 2.307952 1_555
Fe1 Pr1 3.010215 1_555
Fe1 Pr1 3.010215 1_455
Fe1 Pr0 3.189279 1_545
Fe2 P3 2.297503 1_555
Fe2 P3 2.297503 1_455
Fe2 P1 2.312402 1_555
Fe2 P2 2.314069 1_555
Fe2 Pr1 3.014918 1_555
Fe2 Pr1 3.014918 1_455
Fe2 Pr0 3.191299 1_555
Fe3 P6 2.141021 1_566
Fe3 P0 2.192338 1_565
Fe3 P3 2.297274 1_555
Fe3 P3 2.297274 1_455
Fe3 Pr0 3.106112 1_555
Fe4 P6 2.140376 1_555
Fe4 P1 2.190095 1_555
Fe4 P4 2.303425 1_455
Fe4 P4 2.303425 1_555
Fe4 Pr0 3.101995 1_555
Fe5 P6 2.140460 1_565
Fe5 P2 2.188239 1_554
Fe5 P5 2.304918 1_555
Fe5 P5 2.304918 1_455
Fe5 Pr0 3.105004 1_555
Fe6 P0 2.257216 1_565
Fe6 P0 2.257216 1_665
Fe6 P5 2.323557 1_555
Fe6 P3 2.358125 1_555
Fe6 Pr0 3.025390 1_555
Fe6 Pr0 3.025390 1_655
Fe6 Pr1 3.110045 1_565
Fe7 P1 2.267045 1_555
Fe7 P1 2.267045 1_655
Fe7 P3 2.333708 1_555
Fe7 P4 2.369026 1_555
Fe7 Pr0 3.032837 1_555
Fe7 Pr0 3.032837 1_655
Fe7 Pr1 3.117074 1_555
Fe8 P2 2.260409 1_654
Fe8 P2 2.260409 1_554
Fe8 P4 2.329206 1_555
Fe8 P5 2.365660 1_555
Fe8 Pr0 3.027223 1_555
Fe8 Pr0 3.027223 1_655
Fe8 Pr1 3.113171 1_554
Fe9 P4 2.258796 1_556
Fe9 P6 2.500009 1_556
Fe9 P6 2.500009 1_656
Fe9 P0 2.575915 1_655
Fe9 P0 2.575915 1_555
Fe10 P5 2.257687 1_545
Fe10 P6 2.498859 1_555
Fe10 P6 2.498859 1_655
Fe10 P1 2.562284 1_555
Fe10 P1 2.562284 1_655
Fe11 P3 2.262432 1_555
Fe11 P6 2.500195 1_566
Fe11 P6 2.500195 1_666
Fe11 P2 2.572488 1_655
Fe11 P2 2.572488 1_555
P0 Pr1 2.895583 1_555
P0 Pr1 2.895583 1_455
P1 Pr1 2.898118 1_555
P1 Pr1 2.898118 1_455
P2 Pr1 2.896648 1_555
P2 Pr1 2.896648 1_455
P3 Pr0 2.942402 1_555
P3 Pr0 2.942402 1_655
P4 Pr0 2.941178 1_555
P4 Pr0 2.941178 1_655
P5 Pr0 2.941965 1_555
P5 Pr0 2.941965 1_655
