# generated using pymatgen
data_HoH9C5(NO4)2
_symmetry_space_group_name_H-M   'P 1'
_cell_length_a   9.81589899
_cell_length_b   9.81589899
_cell_length_c   8.60605600
_cell_angle_alpha   90.00000000
_cell_angle_beta   90.00000000
_cell_angle_gamma   139.71162462
_symmetry_Int_Tables_number   1
_chemical_formula_structural   HoH9C5(NO4)2
_chemical_formula_sum   'Ho2 H18 C10 N4 O16'
_cell_volume   536.19598424
_cell_formula_units_Z   2
loop_
 _symmetry_equiv_pos_site_id
 _symmetry_equiv_pos_as_xyz
  1  'x, y, z'
loop_
 _atom_site_type_symbol
 _atom_site_label
 _atom_site_symmetry_multiplicity
 _atom_site_fract_x
 _atom_site_fract_y
 _atom_site_fract_z
 _atom_site_occupancy
  Ho  Ho0  1  0.35767600  0.64232400  0.75000000  1
  Ho  Ho1  1  0.64232400  0.35767600  0.25000000  1
  H  H0  1  0.81425500  0.18574500  0.75000000  1
  H  H1  1  0.18574500  0.81425500  0.25000000  1
  H  H2  1  0.15460700  0.84539300  0.75000000  1
  H  H3  1  0.84539300  0.15460700  0.25000000  1
  H  H4  1  0.42385600  0.00202000  0.55766100  1
  H  H5  1  0.00202000  0.42385600  0.44233900  1
  H  H6  1  0.57614400  0.99798000  0.05766100  1
  H  H7  1  0.99798000  0.57614400  0.94233900  1
  H  H8  1  0.73339400  0.73339400  0.00000000  1
  H  H9  1  0.26660600  0.26660600  0.50000000  1
  H  H10  1  0.15822000  0.14534800  0.82864400  1
  H  H11  1  0.14534800  0.15822000  0.17135600  1
  H  H12  1  0.84178000  0.85465200  0.32864400  1
  H  H13  1  0.85465200  0.84178000  0.67135600  1
  H  H14  1  0.32635800  0.14101800  0.89622400  1
  H  H15  1  0.14101800  0.32635800  0.10377600  1
  H  H16  1  0.67364200  0.85898200  0.39622400  1
  H  H17  1  0.85898200  0.67364200  0.60377600  1
  C  C0  1  0.87448200  0.12551800  0.75000000  1
  C  C1  1  0.12551800  0.87448200  0.25000000  1
  C  C2  1  0.09511900  0.90488100  0.75000000  1
  C  C3  1  0.90488100  0.09511900  0.25000000  1
  C  C4  1  0.49411300  0.98163300  0.47480100  1
  C  C5  1  0.98163300  0.49411300  0.52519900  1
  C  C6  1  0.50588700  0.01836700  0.97480100  1
  C  C7  1  0.01836700  0.50588700  0.02519900  1
  C  C8  1  0.56925500  0.56925500  0.00000000  1
  C  C9  1  0.43074500  0.43074500  0.50000000  1
  N  N0  1  0.19818000  0.07435700  0.83264800  1
  N  N1  1  0.07435700  0.19818000  0.16735200  1
  N  N2  1  0.80182000  0.92564300  0.33264800  1
  N  N3  1  0.92564300  0.80182000  0.66735200  1
  O  O0  1  0.43097300  0.52995400  0.92627200  1
  O  O1  1  0.52995400  0.43097300  0.07372800  1
  O  O2  1  0.56902700  0.47004600  0.42627200  1
  O  O3  1  0.47004600  0.56902700  0.57372800  1
  O  O4  1  0.74167800  0.92846900  0.76490600  1
  O  O5  1  0.92846900  0.74167800  0.23509400  1
  O  O6  1  0.25832200  0.07153100  0.26490600  1
  O  O7  1  0.07153100  0.25832200  0.73509400  1
  O  O8  1  0.43223900  0.91626700  0.84812600  1
  O  O9  1  0.91626700  0.43223900  0.15187400  1
  O  O10  1  0.56776100  0.08373300  0.34812600  1
  O  O11  1  0.08373300  0.56776100  0.65187400  1
  O  O12  1  0.49585900  0.85870100  0.51433200  1
  O  O13  1  0.85870100  0.49585900  0.48566800  1
  O  O14  1  0.50414100  0.14129900  0.01433200  1
  O  O15  1  0.14129900  0.50414100  0.98566800  1
loop_
_geom_bond_atom_site_label_1
_geom_bond_atom_site_label_2
_geom_bond_distance
_geom_bond_site_symmetry_2
Ho0 O3 2.290479 1_555
Ho0 O0 2.290479 1_555
Ho0 O8 2.340304 1_555
Ho0 O11 2.340304 1_555
Ho0 O4 2.441656 1_555
Ho0 O7 2.441656 1_555
Ho0 O12 2.463595 1_555
Ho0 O15 2.463595 1_555
Ho1 O2 2.290479 1_555
Ho1 O1 2.290479 1_555
Ho1 O9 2.340304 1_555
Ho1 O10 2.340304 1_555
Ho1 O5 2.441656 1_555
Ho1 O6 2.441656 1_555
Ho1 O13 2.463595 1_555
Ho1 O14 2.463595 1_555
H10 N0 1.028408 1_555
H11 N1 1.028408 1_555
H12 N2 1.028408 1_555
H13 N3 1.028408 1_555
H14 N0 1.026914 1_555
H15 N1 1.026914 1_555
H16 N2 1.026914 1_555
H17 N3 1.026914 1_555
C0 H0 1.110038 1_555
C0 O4 1.268978 1_545
C0 O7 1.268978 1_655
C1 H1 1.110038 1_555
C1 O5 1.268978 1_455
C1 O6 1.268978 1_565
C2 H2 1.096417 1_555
C2 N0 1.315025 1_565
C2 N3 1.315025 1_455
C3 H3 1.096417 1_555
C3 N1 1.315025 1_655
C3 N2 1.315025 1_545
C4 H4 1.111169 1_565
C4 O12 1.266365 1_555
C4 O10 1.268930 1_565
C5 H5 1.111169 1_655
C5 O13 1.266365 1_555
C5 O11 1.268930 1_655
C6 H6 1.111169 1_546
C6 O14 1.266365 1_556
C6 O8 1.268930 1_545
C7 H7 1.111169 1_454
C7 O15 1.266365 1_554
C7 O9 1.268930 1_455
C8 H8 1.109723 1_555
C8 O0 1.262931 1_554
C8 O1 1.262931 1_555
C9 H9 1.109723 1_555
C9 O2 1.262931 1_555
C9 O3 1.262931 1_555
