# generated using pymatgen
data_BaZn(SeO3)2
_symmetry_space_group_name_H-M   'P 1'
_cell_length_a   16.77955100
_cell_length_b   5.65431000
_cell_length_c   8.69640656
_cell_angle_alpha   56.70191263
_cell_angle_beta   90.00000000
_cell_angle_gamma   90.00000000
_symmetry_Int_Tables_number   1
_chemical_formula_structural   BaZn(SeO3)2
_chemical_formula_sum   'Ba4 Zn4 Se8 O24'
_cell_volume   689.62897516
_cell_formula_units_Z   4
loop_
 _symmetry_equiv_pos_site_id
 _symmetry_equiv_pos_as_xyz
  1  'x, y, z'
loop_
 _atom_site_type_symbol
 _atom_site_label
 _atom_site_symmetry_multiplicity
 _atom_site_fract_x
 _atom_site_fract_y
 _atom_site_fract_z
 _atom_site_occupancy
  Ba  Ba0  1  0.78239500  0.51583600  0.85016400  1
  Ba  Ba1  1  0.71760500  0.51583600  0.35016400  1
  Ba  Ba2  1  0.21760500  0.48416400  0.14983600  1
  Ba  Ba3  1  0.28239500  0.48416400  0.64983600  1
  Zn  Zn0  1  0.57892900  0.75527700  0.59454000  1
  Zn  Zn1  1  0.92107100  0.75527700  0.09454000  1
  Zn  Zn2  1  0.42107100  0.24472300  0.40546000  1
  Zn  Zn3  1  0.07892900  0.24472300  0.90546000  1
  Se  Se0  1  0.86791100  0.04346400  0.33404800  1
  Se  Se1  1  0.63208900  0.04346400  0.83404800  1
  Se  Se2  1  0.13208900  0.95653600  0.66595200  1
  Se  Se3  1  0.36791100  0.95653600  0.16595200  1
  Se  Se4  1  0.43407900  0.79245400  0.82980500  1
  Se  Se5  1  0.06592100  0.79245400  0.32980500  1
  Se  Se6  1  0.56592100  0.20754600  0.17019500  1
  Se  Se7  1  0.93407900  0.20754600  0.67019500  1
  O  O0  1  0.85147200  0.40925500  0.18932000  1
  O  O1  1  0.64852800  0.40925500  0.68932000  1
  O  O2  1  0.14852800  0.59074500  0.81068000  1
  O  O3  1  0.35147200  0.59074500  0.31068000  1
  O  O4  1  0.78249500  0.94709600  0.45737900  1
  O  O5  1  0.71750500  0.94709600  0.95737900  1
  O  O6  1  0.21750500  0.05290400  0.54262100  1
  O  O7  1  0.28249500  0.05290400  0.04262100  1
  O  O8  1  0.84858500  0.94946000  0.17659900  1
  O  O9  1  0.65141500  0.94946000  0.67659900  1
  O  O10  1  0.15141500  0.05054000  0.82340100  1
  O  O11  1  0.34858500  0.05054000  0.32340100  1
  O  O12  1  0.41051900  0.14332400  0.66336300  1
  O  O13  1  0.08948100  0.14332400  0.16336300  1
  O  O14  1  0.58948100  0.85667600  0.33663700  1
  O  O15  1  0.91051900  0.85667600  0.83663700  1
  O  O16  1  0.34512000  0.62453900  0.89547000  1
  O  O17  1  0.15488000  0.62453900  0.39547000  1
  O  O18  1  0.65488000  0.37546100  0.10453000  1
  O  O19  1  0.84512000  0.37546100  0.60453000  1
  O  O20  1  0.46842800  0.69266900  0.68378200  1
  O  O21  1  0.03157200  0.69266900  0.18378200  1
  O  O22  1  0.53157200  0.30733100  0.31621800  1
  O  O23  1  0.96842800  0.30733100  0.81621800  1
loop_
_geom_bond_atom_site_label_1
_geom_bond_atom_site_label_2
_geom_bond_distance
_geom_bond_site_symmetry_2
Ba0 O15 2.846222 1_555
Ba0 O19 2.857001 1_555
Ba0 O18 2.858935 1_556
Ba0 O1 2.879378 1_555
Ba0 O0 2.907612 1_556
Ba0 O4 2.910051 1_555
Ba0 O9 3.009424 1_555
Ba0 O5 3.017325 1_545
Ba0 O8 3.092913 1_546
Ba0 O5 3.239976 1_555
Ba0 O23 3.406360 1_555
Ba1 O14 2.846222 1_555
Ba1 O18 2.857001 1_555
Ba1 O19 2.858935 1_555
Ba1 O0 2.879378 1_555
Ba1 O1 2.907612 1_555
Ba1 O5 2.910051 1_554
Ba1 O8 3.009424 1_555
Ba1 O4 3.017325 1_545
Ba1 O9 3.092913 1_545
Ba1 O4 3.239976 1_555
Ba1 O22 3.406360 1_555
Ba2 O13 2.846222 1_555
Ba2 O17 2.857001 1_555
Ba2 O16 2.858935 1_554
Ba2 O3 2.879378 1_555
Ba2 O2 2.907612 1_554
Ba2 O6 2.910051 1_555
Ba2 O11 3.009424 1_555
Ba2 O7 3.017325 1_565
Ba2 O10 3.092913 1_564
Ba2 O7 3.239976 1_555
Ba2 O21 3.406360 1_555
Ba3 O12 2.846222 1_555
Ba3 O16 2.857001 1_555
Ba3 O17 2.858935 1_555
Ba3 O2 2.879378 1_555
Ba3 O3 2.907612 1_555
Ba3 O7 2.910051 1_556
Ba3 O10 3.009424 1_555
Ba3 O6 3.017325 1_565
Ba3 O11 3.092913 1_565
Ba3 O6 3.239976 1_555
Ba3 O20 3.406360 1_555
O0 Se0 1.754928 1_555
O0 Zn1 2.024972 1_555
O1 Se1 1.754928 1_555
O1 Zn0 2.024972 1_555
O2 Se2 1.754928 1_555
O2 Zn3 2.024972 1_555
O3 Se3 1.754928 1_555
O3 Zn2 2.024972 1_555
O4 Se0 1.691077 1_565
O5 Se1 1.691077 1_565
O6 Se2 1.691077 1_545
O7 Se3 1.691077 1_545
O8 Se0 1.749744 1_565
O8 Zn1 2.013565 1_555
O9 Se1 1.749744 1_565
O9 Zn0 2.013565 1_555
O10 Se2 1.749744 1_545
O10 Zn3 2.013565 1_555
O11 Se3 1.749744 1_545
O11 Zn2 2.013565 1_555
O12 Se4 1.741934 1_545
O12 Zn2 1.994603 1_555
O13 Se5 1.741934 1_545
O13 Zn3 1.994603 1_554
O14 Se6 1.741934 1_565
O14 Zn0 1.994603 1_555
O15 Se7 1.741934 1_565
O15 Zn1 1.994603 1_556
O16 Se4 1.691261 1_555
O17 Se5 1.691261 1_555
O18 Se6 1.691261 1_555
O19 Se7 1.691261 1_555
O20 Se4 1.746369 1_555
O20 Zn0 1.965672 1_555
O21 Se5 1.746369 1_555
O21 Zn1 1.965672 1_455
O22 Se6 1.746369 1_555
O22 Zn2 1.965672 1_555
O23 Se7 1.746369 1_555
O23 Zn3 1.965672 1_655
