# generated using pymatgen
data_HoAlGa
_symmetry_space_group_name_H-M   'P 1'
_cell_length_a   8.82604051
_cell_length_b   8.82604051
_cell_length_c   7.07800770
_cell_angle_alpha   90.00000000
_cell_angle_beta   90.00000000
_cell_angle_gamma   120.00000531
_symmetry_Int_Tables_number   1
_chemical_formula_structural   HoAlGa
_chemical_formula_sum   'Ho8 Al8 Ga8'
_cell_volume   477.50010563
_cell_formula_units_Z   8
loop_
 _symmetry_equiv_pos_site_id
 _symmetry_equiv_pos_as_xyz
  1  'x, y, z'
loop_
 _atom_site_type_symbol
 _atom_site_label
 _atom_site_symmetry_multiplicity
 _atom_site_fract_x
 _atom_site_fract_y
 _atom_site_fract_z
 _atom_site_occupancy
  Ho  Ho0_0  1  0.33333350  0.16666650  0.00000000  1
  Ho  Ho0_1  1  0.33333350  0.16666650  0.50000000  1
  Ho  Ho0_2  1  0.33333350  0.66666650  0.00000000  1
  Ho  Ho0_3  1  0.33333350  0.66666650  0.50000000  1
  Ho  Ho0_4  1  0.83333350  0.16666650  0.00000000  1
  Ho  Ho0_5  1  0.83333350  0.16666650  0.50000000  1
  Ho  Ho0_6  1  0.83333350  0.66666650  0.00000000  1
  Ho  Ho0_7  1  0.83333350  0.66666650  0.50000000  1
  Al  Al0_0  1  0.00000000  0.00000000  0.25000000  1
  Al  Al0_1  1  0.00000000  0.00000000  0.75000000  1
  Al  Al0_2  1  0.00000000  0.50000000  0.25000000  1
  Al  Al0_3  1  0.00000000  0.50000000  0.75000000  1
  Al  Al0_4  1  0.50000000  0.00000000  0.25000000  1
  Al  Al0_5  1  0.50000000  0.00000000  0.75000000  1
  Al  Al0_6  1  0.50000000  0.50000000  0.25000000  1
  Al  Al0_7  1  0.50000000  0.50000000  0.75000000  1
  Ga  Ga0_0  1  0.16666650  0.33333350  0.25000000  1
  Ga  Ga0_1  1  0.16666650  0.33333350  0.75000000  1
  Ga  Ga0_2  1  0.16666650  0.83333350  0.25000000  1
  Ga  Ga0_3  1  0.16666650  0.83333350  0.75000000  1
  Ga  Ga0_4  1  0.66666650  0.33333350  0.25000000  1
  Ga  Ga0_5  1  0.66666650  0.33333350  0.75000000  1
  Ga  Ga0_6  1  0.66666650  0.83333350  0.25000000  1
  Ga  Ga0_7  1  0.66666650  0.83333350  0.75000000  1
loop_
_geom_bond_atom_site_label_1
_geom_bond_atom_site_label_2
_geom_bond_distance
_geom_bond_site_symmetry_2
Ho0_0 Ho0_1 3.539004 1_555
Ho0_0 Ho0_1 3.539004 1_554
Ho0_2 Ho0_3 3.539004 1_555
Ho0_2 Ho0_3 3.539004 1_554
Ho0_4 Ho0_5 3.539004 1_554
Ho0_4 Ho0_5 3.539004 1_555
Ho0_6 Ho0_7 3.539004 1_555
Ho0_6 Ho0_7 3.539004 1_554
Al0_0 Ga0_2 2.547856 1_545
Al0_0 Ga0_6 2.547860 1_445
Al0_0 Ga0_0 2.547860 1_555
Al0_0 Ho0_5 3.102049 1_455
Al0_0 Ho0_4 3.102049 1_455
Al0_0 Ho0_0 3.102052 1_555
Al0_0 Ho0_7 3.102052 1_445
Al0_0 Ho0_6 3.102052 1_445
Al0_0 Ho0_1 3.102052 1_555
Al0_1 Ga0_3 2.547856 1_545
Al0_1 Ga0_7 2.547860 1_445
Al0_1 Ga0_1 2.547860 1_555
Al0_1 Ho0_4 3.102049 1_456
Al0_1 Ho0_5 3.102049 1_455
Al0_1 Ho0_6 3.102052 1_446
Al0_1 Ho0_0 3.102052 1_556
Al0_1 Ho0_7 3.102052 1_445
Al0_1 Ho0_1 3.102052 1_555
Al0_2 Ga0_0 2.547856 1_555
Al0_2 Ga0_2 2.547860 1_555
Al0_2 Ga0_4 2.547860 1_455
Al0_2 Ho0_7 3.102049 1_455
Al0_2 Ho0_6 3.102049 1_455
Al0_2 Ho0_5 3.102052 1_455
Al0_2 Ho0_4 3.102052 1_455
Al0_2 Ho0_3 3.102052 1_555
Al0_2 Ho0_2 3.102052 1_555
Al0_3 Ga0_1 2.547856 1_555
Al0_3 Ga0_3 2.547860 1_555
Al0_3 Ga0_5 2.547860 1_455
Al0_3 Ho0_7 3.102049 1_455
Al0_3 Ho0_6 3.102049 1_456
Al0_3 Ho0_4 3.102052 1_456
Al0_3 Ho0_5 3.102052 1_455
Al0_3 Ho0_3 3.102052 1_555
Al0_3 Ho0_2 3.102052 1_556
Al0_4 Ga0_6 2.547856 1_545
Al0_4 Ga0_4 2.547860 1_555
Al0_4 Ga0_2 2.547860 1_545
Al0_4 Ho0_1 3.102049 1_555
Al0_4 Ho0_0 3.102049 1_555
Al0_4 Ho0_4 3.102052 1_555
Al0_4 Ho0_5 3.102052 1_555
Al0_4 Ho0_2 3.102052 1_545
Al0_4 Ho0_3 3.102052 1_545
Al0_5 Ga0_7 2.547856 1_545
Al0_5 Ga0_5 2.547860 1_555
Al0_5 Ga0_3 2.547860 1_545
Al0_5 Ho0_1 3.102049 1_555
Al0_5 Ho0_0 3.102049 1_556
Al0_5 Ho0_5 3.102052 1_555
Al0_5 Ho0_4 3.102052 1_556
Al0_5 Ho0_2 3.102052 1_546
Al0_5 Ho0_3 3.102052 1_545
Al0_6 Ga0_4 2.547856 1_555
Al0_6 Ga0_6 2.547860 1_555
Al0_6 Ga0_0 2.547860 1_555
Al0_6 Ho0_3 3.102049 1_555
Al0_6 Ho0_2 3.102049 1_555
Al0_6 Ho0_1 3.102052 1_555
Al0_6 Ho0_0 3.102052 1_555
Al0_6 Ho0_6 3.102052 1_555
Al0_6 Ho0_7 3.102052 1_555
Al0_7 Ga0_5 2.547856 1_555
Al0_7 Ga0_7 2.547860 1_555
Al0_7 Ga0_1 2.547860 1_555
Al0_7 Ho0_3 3.102049 1_555
Al0_7 Ho0_2 3.102049 1_556
Al0_7 Ho0_1 3.102052 1_555
Al0_7 Ho0_0 3.102052 1_556
Al0_7 Ho0_7 3.102052 1_555
Al0_7 Ho0_6 3.102052 1_556
Ga0_0 Ho0_2 3.102049 1_555
Ga0_0 Ho0_3 3.102049 1_555
Ga0_0 Ho0_5 3.102049 1_455
Ga0_0 Ho0_4 3.102049 1_455
Ga0_0 Ho0_0 3.102055 1_555
Ga0_0 Ho0_1 3.102055 1_555
Ga0_1 Ho0_2 3.102049 1_556
Ga0_1 Ho0_3 3.102049 1_555
Ga0_1 Ho0_4 3.102049 1_456
Ga0_1 Ho0_5 3.102049 1_455
Ga0_1 Ho0_1 3.102055 1_555
Ga0_1 Ho0_0 3.102055 1_556
Ga0_2 Ho0_7 3.102049 1_455
Ga0_2 Ho0_0 3.102049 1_565
Ga0_2 Ho0_1 3.102049 1_565
Ga0_2 Ho0_6 3.102049 1_455
Ga0_2 Ho0_3 3.102055 1_555
Ga0_2 Ho0_2 3.102055 1_555
Ga0_3 Ho0_6 3.102049 1_456
Ga0_3 Ho0_7 3.102049 1_455
Ga0_3 Ho0_0 3.102049 1_566
Ga0_3 Ho0_1 3.102049 1_565
Ga0_3 Ho0_2 3.102055 1_556
Ga0_3 Ho0_3 3.102055 1_555
Ga0_4 Ho0_1 3.102049 1_555
Ga0_4 Ho0_0 3.102049 1_555
Ga0_4 Ho0_6 3.102049 1_555
Ga0_4 Ho0_7 3.102049 1_555
Ga0_4 Ho0_4 3.102055 1_555
Ga0_4 Ho0_5 3.102055 1_555
Ga0_5 Ho0_1 3.102049 1_555
Ga0_5 Ho0_0 3.102049 1_556
Ga0_5 Ho0_7 3.102049 1_555
Ga0_5 Ho0_6 3.102049 1_556
Ga0_5 Ho0_4 3.102055 1_556
Ga0_5 Ho0_5 3.102055 1_555
Ga0_6 Ho0_2 3.102049 1_555
Ga0_6 Ho0_3 3.102049 1_555
Ga0_6 Ho0_4 3.102049 1_565
Ga0_6 Ho0_5 3.102049 1_565
Ga0_6 Ho0_7 3.102055 1_555
Ga0_6 Ho0_6 3.102055 1_555
Ga0_7 Ho0_2 3.102049 1_556
Ga0_7 Ho0_3 3.102049 1_555
Ga0_7 Ho0_4 3.102049 1_566
Ga0_7 Ho0_5 3.102049 1_565
Ga0_7 Ho0_7 3.102055 1_555
Ga0_7 Ho0_6 3.102055 1_556
