# generated using pymatgen
data_Li9Mn2Co5O16
_symmetry_space_group_name_H-M   'P 1'
_cell_length_a   9.90544170
_cell_length_b   9.90544170
_cell_length_c   10.28144739
_cell_angle_alpha   83.92675604
_cell_angle_beta   83.92675604
_cell_angle_gamma   16.86823836
_symmetry_Int_Tables_number   1
_chemical_formula_structural   Li9Mn2Co5O16
_chemical_formula_sum   'Li9 Mn2 Co5 O16'
_cell_volume   291.04400465
_cell_formula_units_Z   1
loop_
 _symmetry_equiv_pos_site_id
 _symmetry_equiv_pos_as_xyz
  1  'x, y, z'
loop_
 _atom_site_type_symbol
 _atom_site_label
 _atom_site_symmetry_multiplicity
 _atom_site_fract_x
 _atom_site_fract_y
 _atom_site_fract_z
 _atom_site_occupancy
  Li  Li0  1  0.61565100  0.61565100  0.56896600  1
  Li  Li1  1  0.38434900  0.38434900  0.43103400  1
  Li  Li2  1  0.12019700  0.12019700  0.30172300  1
  Li  Li3  1  0.87738400  0.87738400  0.16971400  1
  Li  Li4  1  0.61633400  0.61633400  0.05328100  1
  Li  Li5  1  0.38366600  0.38366600  0.94671900  1
  Li  Li6  1  0.12261600  0.12261600  0.83028600  1
  Li  Li7  1  0.87980300  0.87980300  0.69827700  1
  Li  Li8  1  0.00000000  0.00000000  0.00000000  1
  Mn  Mn0  1  0.25101300  0.25101300  0.62641900  1
  Mn  Mn1  1  0.74898700  0.74898700  0.37358100  1
  Co  Co0  1  0.00000000  0.00000000  0.50000000  1
  Co  Co1  1  0.49626800  0.49626800  0.23305600  1
  Co  Co2  1  0.24906900  0.24906900  0.11918100  1
  Co  Co3  1  0.75093100  0.75093100  0.88081900  1
  Co  Co4  1  0.50373200  0.50373200  0.76694400  1
  O  O0  1  0.69579400  0.69579400  0.70338700  1
  O  O1  1  0.44677000  0.44677000  0.58263900  1
  O  O2  1  0.19668000  0.19668000  0.46842500  1
  O  O3  1  0.94647200  0.94647200  0.35529800  1
  O  O4  1  0.69315800  0.69315800  0.23613100  1
  O  O5  1  0.43854700  0.43854700  0.10850000  1
  O  O6  1  0.19068400  0.19068400  0.96817600  1
  O  O7  1  0.94101400  0.94101400  0.83509900  1
  O  O8  1  0.55323000  0.55323000  0.41736100  1
  O  O9  1  0.30420600  0.30420600  0.29661300  1
  O  O10  1  0.05898600  0.05898600  0.16490100  1
  O  O11  1  0.80931600  0.80931600  0.03182400  1
  O  O12  1  0.56145300  0.56145300  0.89150000  1
  O  O13  1  0.30684200  0.30684200  0.76386900  1
  O  O14  1  0.05352800  0.05352800  0.64470200  1
  O  O15  1  0.80332000  0.80332000  0.53157500  1
loop_
_geom_bond_atom_site_label_1
_geom_bond_atom_site_label_2
_geom_bond_distance
_geom_bond_site_symmetry_2
Li0 O14 1.999100 1_565
Li0 O14 1.999100 1_655
Li0 O8 2.081776 1_555
Li0 O0 2.200210 1_555
Li0 O2 2.312925 1_655
Li0 O2 2.312925 1_565
Li1 O3 1.999100 1_545
Li1 O3 1.999100 1_455
Li1 O1 2.081776 1_555
Li1 O9 2.200210 1_555
Li1 O15 2.312925 1_545
Li1 O15 2.312925 1_455
Li2 O10 1.943892 1_555
Li2 O4 2.098477 1_455
Li2 O4 2.098477 1_545
Li2 O8 2.216476 1_545
Li2 O8 2.216476 1_455
Li2 O2 2.394478 1_555
Li3 O5 1.944771 1_565
Li3 O5 1.944771 1_655
Li3 O11 2.047859 1_555
Li3 O9 2.338649 1_655
Li3 O9 2.338649 1_565
Li3 O3 2.454866 1_555
Li4 O12 2.075100 1_554
Li4 O10 2.101166 1_655
Li4 O10 2.101166 1_565
Li4 O6 2.174068 1_654
Li4 O6 2.174068 1_564
Li4 O4 2.531046 1_555
Li5 O5 2.075100 1_556
Li5 O7 2.101166 1_455
Li5 O7 2.101166 1_545
Li5 O11 2.174068 1_456
Li5 O11 2.174068 1_546
Li5 O13 2.531046 1_555
Li6 O12 1.944771 1_545
Li6 O12 1.944771 1_455
Li6 O6 2.047859 1_555
Li6 O0 2.338649 1_545
Li6 O0 2.338649 1_455
Li6 O14 2.454866 1_555
Li7 O7 1.943892 1_555
Li7 O13 2.098477 1_655
Li7 O13 2.098477 1_565
Li7 O1 2.216476 1_565
Li7 O1 2.216476 1_655
Li7 O15 2.394478 1_555
Li8 O12 2.125582 1_544
Li8 O12 2.125582 1_454
Li8 O5 2.125582 1_545
Li8 O5 2.125582 1_455
Li8 O10 2.151707 1_555
Li8 O7 2.151707 1_444
Mn0 O13 1.877443 1_555
Mn0 O0 1.929969 1_455
Mn0 O0 1.929969 1_545
Mn0 O15 1.974476 1_455
Mn0 O15 1.974476 1_545
Mn0 O2 2.035278 1_555
Mn1 O4 1.877443 1_555
Mn1 O9 1.929969 1_655
Mn1 O9 1.929969 1_565
Mn1 O2 1.974476 1_565
Mn1 O2 1.974476 1_655
Mn1 O15 2.035278 1_555
Co0 O14 1.909857 1_555
Co0 O3 1.909857 1_445
Co0 O1 1.931634 1_455
Co0 O1 1.931634 1_545
Co0 O8 1.931634 1_455
Co0 O8 1.931634 1_545
Co1 O5 1.797029 1_555
Co1 O10 1.981960 1_655
Co1 O10 1.981960 1_565
Co1 O3 2.092913 1_545
Co1 O3 2.092913 1_455
Co1 O8 2.299837 1_555
Co2 O11 2.021024 1_455
Co2 O11 2.021024 1_545
Co2 O6 2.024716 1_554
Co2 O4 2.115479 1_545
Co2 O4 2.115479 1_455
Co2 O9 2.217440 1_555
Co3 O6 2.021024 1_565
Co3 O6 2.021024 1_655
Co3 O11 2.024716 1_556
Co3 O13 2.115479 1_565
Co3 O13 2.115479 1_655
Co3 O0 2.217440 1_555
Co4 O12 1.797029 1_555
Co4 O7 1.981960 1_545
Co4 O7 1.981960 1_455
Co4 O14 2.092913 1_565
Co4 O14 2.092913 1_655
Co4 O1 2.299837 1_555
