# generated using pymatgen
data_CsTm(WO4)2
_symmetry_space_group_name_H-M   'P 1'
_cell_length_a   7.63682268
_cell_length_b   7.63682268
_cell_length_c   7.53943402
_cell_angle_alpha   62.58830046
_cell_angle_beta   62.58830046
_cell_angle_gamma   88.48954715
_symmetry_Int_Tables_number   1
_chemical_formula_structural   CsTm(WO4)2
_chemical_formula_sum   'Cs2 Tm2 W4 O16'
_cell_volume   336.76492859
_cell_formula_units_Z   2
loop_
 _symmetry_equiv_pos_site_id
 _symmetry_equiv_pos_as_xyz
  1  'x, y, z'
loop_
 _atom_site_type_symbol
 _atom_site_label
 _atom_site_symmetry_multiplicity
 _atom_site_fract_x
 _atom_site_fract_y
 _atom_site_fract_z
 _atom_site_occupancy
  Cs  Cs0  1  0.19764900  0.80235100  0.75000000  1
  Cs  Cs1  1  0.80235100  0.19764900  0.25000000  1
  Tm  Tm0  1  0.77737700  0.22262300  0.75000000  1
  Tm  Tm1  1  0.22262300  0.77737700  0.25000000  1
  W  W0  1  0.69943500  0.68738700  0.78390500  1
  W  W1  1  0.30056500  0.31261300  0.21609500  1
  W  W2  1  0.31261300  0.30056500  0.71609500  1
  W  W3  1  0.68738700  0.69943500  0.28390500  1
  O  O0  1  0.62037100  0.75001200  0.56462800  1
  O  O1  1  0.37962900  0.24998800  0.43537200  1
  O  O2  1  0.24998800  0.37962900  0.93537200  1
  O  O3  1  0.75001200  0.62037100  0.06462800  1
  O  O4  1  0.36787300  0.05791500  0.87958500  1
  O  O5  1  0.63212700  0.94208500  0.12041500  1
  O  O6  1  0.94208500  0.63212700  0.62041500  1
  O  O7  1  0.05791500  0.36787300  0.37958500  1
  O  O8  1  0.59256900  0.37179500  0.96142100  1
  O  O9  1  0.40743100  0.62820500  0.03857900  1
  O  O10  1  0.62820500  0.40743100  0.53857900  1
  O  O11  1  0.37179500  0.59256900  0.46142100  1
  O  O12  1  0.77841900  0.95174600  0.70256300  1
  O  O13  1  0.22158100  0.04825400  0.29743700  1
  O  O14  1  0.04825400  0.22158100  0.79743700  1
  O  O15  1  0.95174600  0.77841900  0.20256300  1
loop_
_geom_bond_atom_site_label_1
_geom_bond_atom_site_label_2
_geom_bond_distance
_geom_bond_site_symmetry_2
Cs0 O13 2.957403 1_565
Cs0 O15 2.957403 1_456
Cs0 O2 2.970977 1_555
Cs0 O0 2.970977 1_555
Cs0 O3 2.998849 1_456
Cs0 O1 2.998849 1_565
Cs0 O9 3.082524 1_556
Cs0 O11 3.082524 1_555
Cs0 O4 3.084229 1_565
Cs0 O6 3.084229 1_455
Cs0 O12 3.487944 1_455
Cs0 O14 3.487944 1_565
Cs1 O12 2.957403 1_545
Cs1 O14 2.957403 1_654
Cs1 O1 2.970977 1_555
Cs1 O3 2.970977 1_555
Cs1 O0 2.998849 1_545
Cs1 O2 2.998849 1_654
Cs1 O8 3.082524 1_554
Cs1 O10 3.082524 1_555
Cs1 O5 3.084229 1_545
Cs1 O7 3.084229 1_655
Cs1 O15 3.487944 1_545
Cs1 O13 3.487944 1_655
O0 W0 1.871452 1_555
O0 W3 2.153040 1_555
O1 W1 1.871452 1_555
O1 W2 2.153040 1_555
O2 W2 1.871452 1_555
O2 W1 2.153040 1_556
O3 W3 1.871452 1_555
O3 W0 2.153040 1_554
O4 W2 1.861699 1_555
O4 Tm1 2.320242 1_546
O5 W3 1.861699 1_555
O5 Tm0 2.320242 1_564
O6 W0 1.861699 1_555
O6 Tm1 2.320242 1_655
O7 W1 1.861699 1_555
O7 Tm0 2.320242 1_455
O8 W1 2.043391 1_556
O8 W0 2.096162 1_555
O8 Tm0 2.312208 1_555
O9 W0 2.043391 1_554
O9 W1 2.096162 1_555
O9 Tm1 2.312208 1_555
O10 W3 2.043391 1_555
O10 W2 2.096162 1_555
O10 Tm0 2.312208 1_555
O11 W2 2.043391 1_555
O11 W3 2.096162 1_555
O11 Tm1 2.312208 1_555
O12 W0 1.843727 1_555
O12 Tm0 2.254990 1_565
O13 W1 1.843727 1_555
O13 Tm1 2.254990 1_545
O14 W2 1.843727 1_555
O14 Tm0 2.254990 1_455
O15 W3 1.843727 1_555
O15 Tm1 2.254990 1_655
