# generated using pymatgen
data_Fe3P2O11
_symmetry_space_group_name_H-M   'P 1'
_cell_length_a   7.87981500
_cell_length_b   9.63665400
_cell_length_c   9.69381400
_cell_angle_alpha   90.00000000
_cell_angle_beta   90.00000000
_cell_angle_gamma   90.00000000
_symmetry_Int_Tables_number   1
_chemical_formula_structural   Fe3P2O11
_chemical_formula_sum   'Fe12 P8 O44'
_cell_volume   736.10025794
_cell_formula_units_Z   4
loop_
 _symmetry_equiv_pos_site_id
 _symmetry_equiv_pos_as_xyz
  1  'x, y, z'
loop_
 _atom_site_type_symbol
 _atom_site_label
 _atom_site_symmetry_multiplicity
 _atom_site_fract_x
 _atom_site_fract_y
 _atom_site_fract_z
 _atom_site_occupancy
  Fe  Fe0  1  0.13628100  0.54411100  0.38140700  1
  Fe  Fe1  1  0.36371900  0.95588900  0.88140700  1
  Fe  Fe2  1  0.63628100  0.95588900  0.61859300  1
  Fe  Fe3  1  0.86371900  0.54411100  0.11859300  1
  Fe  Fe4  1  0.86371900  0.45588900  0.61859300  1
  Fe  Fe5  1  0.63628100  0.04411100  0.11859300  1
  Fe  Fe6  1  0.36371900  0.04411100  0.38140700  1
  Fe  Fe7  1  0.13628100  0.45588900  0.88140700  1
  Fe  Fe8  1  0.00000000  0.00000000  0.50000000  1
  Fe  Fe9  1  0.50000000  0.50000000  0.00000000  1
  Fe  Fe10  1  0.50000000  0.50000000  0.50000000  1
  Fe  Fe11  1  0.00000000  0.00000000  0.00000000  1
  P  P0  1  0.21547300  0.28860100  0.60668700  1
  P  P1  1  0.28452700  0.21139900  0.10668700  1
  P  P2  1  0.71547300  0.21139900  0.39331300  1
  P  P3  1  0.78452700  0.28860100  0.89331300  1
  P  P4  1  0.78452700  0.71139900  0.39331300  1
  P  P5  1  0.71547300  0.78860100  0.89331300  1
  P  P6  1  0.28452700  0.78860100  0.60668700  1
  P  P7  1  0.21547300  0.71139900  0.10668700  1
  O  O0  1  0.00000000  0.54162300  0.75000000  1
  O  O1  1  0.50000000  0.95837700  0.25000000  1
  O  O2  1  0.00000000  0.45837700  0.25000000  1
  O  O3  1  0.50000000  0.04162300  0.75000000  1
  O  O4  1  0.32535200  0.78824500  0.76268900  1
  O  O5  1  0.17464800  0.71175500  0.26268900  1
  O  O6  1  0.82535200  0.71175500  0.23731100  1
  O  O7  1  0.67464800  0.78824500  0.73731100  1
  O  O8  1  0.67464800  0.21175500  0.23731100  1
  O  O9  1  0.82535200  0.28824500  0.73731100  1
  O  O10  1  0.17464800  0.28824500  0.76268900  1
  O  O11  1  0.32535200  0.21175500  0.26268900  1
  O  O12  1  0.41615900  0.88375900  0.52934700  1
  O  O13  1  0.08384100  0.61624100  0.02934700  1
  O  O14  1  0.91615900  0.61624100  0.47065300  1
  O  O15  1  0.58384100  0.88375900  0.97065300  1
  O  O16  1  0.58384100  0.11624100  0.47065300  1
  O  O17  1  0.91615900  0.38375900  0.97065300  1
  O  O18  1  0.08384100  0.38375900  0.52934700  1
  O  O19  1  0.41615900  0.11624100  0.02934700  1
  O  O20  1  0.10355400  0.84553400  0.58835300  1
  O  O21  1  0.39644600  0.65446600  0.08835300  1
  O  O22  1  0.60355400  0.65446600  0.41164700  1
  O  O23  1  0.89644600  0.84553400  0.91164700  1
  O  O24  1  0.89644600  0.15446600  0.41164700  1
  O  O25  1  0.60355400  0.34553400  0.91164700  1
  O  O26  1  0.39644600  0.34553400  0.58835300  1
  O  O27  1  0.10355400  0.15446600  0.08835300  1
  O  O28  1  0.29087200  0.63903500  0.54694200  1
  O  O29  1  0.20912800  0.86096500  0.04694200  1
  O  O30  1  0.79087200  0.86096500  0.45305800  1
  O  O31  1  0.70912800  0.63903500  0.95305800  1
  O  O32  1  0.70912800  0.36096500  0.45305800  1
  O  O33  1  0.79087200  0.13903500  0.95305800  1
  O  O34  1  0.20912800  0.13903500  0.54694200  1
  O  O35  1  0.29087200  0.36096500  0.04694200  1
  O  O36  1  0.35641800  0.53095600  0.85029100  1
  O  O37  1  0.14358200  0.96904400  0.35029100  1
  O  O38  1  0.85641800  0.96904400  0.14970900  1
  O  O39  1  0.64358200  0.53095600  0.64970900  1
  O  O40  1  0.64358200  0.46904400  0.14970900  1
  O  O41  1  0.85641800  0.03095600  0.64970900  1
  O  O42  1  0.14358200  0.03095600  0.85029100  1
  O  O43  1  0.35641800  0.46904400  0.35029100  1
loop_
_geom_bond_atom_site_label_1
_geom_bond_atom_site_label_2
_geom_bond_distance
_geom_bond_site_symmetry_2
Fe0 O2 1.859688 1_555
Fe0 O43 1.903485 1_555
Fe0 O5 2.006424 1_555
Fe0 O14 2.059168 1_455
Fe0 O18 2.148306 1_555
Fe0 O28 2.212601 1_555
Fe1 O3 1.859688 1_565
Fe1 O42 1.903485 1_565
Fe1 O4 2.006424 1_555
Fe1 O15 2.059168 1_555
Fe1 O19 2.148306 1_566
Fe1 O29 2.212601 1_556
Fe2 O3 1.859688 1_565
Fe2 O41 1.903485 1_565
Fe2 O7 2.006424 1_555
Fe2 O12 2.059168 1_555
Fe2 O16 2.148306 1_565
Fe2 O30 2.212601 1_555
Fe3 O2 1.859688 1_655
Fe3 O40 1.903485 1_555
Fe3 O6 2.006424 1_555
Fe3 O13 2.059168 1_655
Fe3 O17 2.148306 1_554
Fe3 O31 2.212601 1_554
Fe4 O0 1.859688 1_655
Fe4 O39 1.903485 1_555
Fe4 O9 2.006424 1_555
Fe4 O18 2.059168 1_655
Fe4 O14 2.148306 1_555
Fe4 O32 2.212601 1_555
Fe5 O1 1.859688 1_545
Fe5 O38 1.903485 1_545
Fe5 O8 2.006424 1_555
Fe5 O19 2.059168 1_555
Fe5 O15 2.148306 1_544
Fe5 O33 2.212601 1_554
Fe6 O1 1.859688 1_545
Fe6 O37 1.903485 1_545
Fe6 O11 2.006424 1_555
Fe6 O16 2.059168 1_555
Fe6 O12 2.148306 1_545
Fe6 O34 2.212601 1_555
Fe7 O0 1.859688 1_555
Fe7 O36 1.903485 1_555
Fe7 O10 2.006424 1_555
Fe7 O17 2.059168 1_455
Fe7 O13 2.148306 1_556
Fe7 O35 2.212601 1_556
Fe8 O37 1.864185 1_545
Fe8 O41 1.864185 1_455
Fe8 O20 1.901348 1_545
Fe8 O24 1.901348 1_455
Fe8 O30 2.172040 1_445
Fe8 O34 2.172040 1_555
Fe9 O36 1.864185 1_554
Fe9 O40 1.864185 1_555
Fe9 O21 1.901348 1_555
Fe9 O25 1.901348 1_554
Fe9 O31 2.172040 1_554
Fe9 O35 2.172040 1_555
Fe10 O39 1.864185 1_555
Fe10 O43 1.864185 1_555
Fe10 O26 1.901348 1_555
Fe10 O22 1.901348 1_555
Fe10 O32 2.172040 1_555
Fe10 O28 2.172040 1_555
Fe11 O38 1.864185 1_445
Fe11 O42 1.864185 1_554
Fe11 O27 1.901348 1_555
Fe11 O23 1.901348 1_444
Fe11 O33 2.172040 1_454
Fe11 O29 2.172040 1_545
O4 P6 1.546096 1_555
O5 P7 1.546096 1_555
O6 P4 1.546096 1_555
O7 P5 1.546096 1_555
O8 P2 1.546096 1_555
O9 P3 1.546096 1_555
O10 P0 1.546096 1_555
O11 P1 1.546096 1_555
O12 P6 1.574432 1_555
O13 P7 1.574432 1_555
O14 P4 1.574432 1_555
O15 P5 1.574432 1_555
O16 P2 1.574432 1_555
O17 P3 1.574432 1_555
O18 P0 1.574432 1_555
O19 P1 1.574432 1_555
O20 P6 1.538236 1_555
O21 P7 1.538236 1_555
O22 P4 1.538236 1_555
O23 P5 1.538236 1_555
O24 P2 1.538236 1_555
O25 P3 1.538236 1_555
O26 P0 1.538236 1_555
O27 P1 1.538236 1_555
O28 P6 1.554128 1_555
O29 P7 1.554128 1_555
O30 P4 1.554128 1_555
O31 P5 1.554128 1_555
O32 P2 1.554128 1_555
O33 P3 1.554128 1_555
O34 P0 1.554128 1_555
O35 P1 1.554128 1_555
