# generated using pymatgen
data_Nd(AlAu)2
_symmetry_space_group_name_H-M   'P 1'
_cell_length_a   4.38715979
_cell_length_b   4.38715979
_cell_length_c   10.46801187
_cell_angle_alpha   90.00000000
_cell_angle_beta   90.00000000
_cell_angle_gamma   90.00000000
_symmetry_Int_Tables_number   1
_chemical_formula_structural   Nd(AlAu)2
_chemical_formula_sum   'Nd2 Al4 Au4'
_cell_volume   201.47961473
_cell_formula_units_Z   2
loop_
 _symmetry_equiv_pos_site_id
 _symmetry_equiv_pos_as_xyz
  1  'x, y, z'
loop_
 _atom_site_type_symbol
 _atom_site_label
 _atom_site_symmetry_multiplicity
 _atom_site_fract_x
 _atom_site_fract_y
 _atom_site_fract_z
 _atom_site_occupancy
  Nd  Nd0  1  -0.00000000  0.50000000  0.24867813  1
  Nd  Nd1  1  0.50000000  -0.00000000  0.75132187  1
  Al  Al0  1  -0.00000000  0.00000000  0.50000000  1
  Al  Al1  1  0.50000000  0.50000000  0.50000000  1
  Al  Al2  1  -0.00000000  0.50000000  0.86877232  1
  Al  Al3  1  0.50000000  -0.00000000  0.13122768  1
  Au  Au0  1  -0.00000000  0.00000000  -0.00000000  1
  Au  Au1  1  0.50000000  0.50000000  -0.00000000  1
  Au  Au2  1  0.00000000  0.50000000  0.62968166  1
  Au  Au3  1  0.50000000  0.00000000  0.37031834  1
loop_
_geom_bond_atom_site_label_1
_geom_bond_atom_site_label_2
_geom_bond_distance
_geom_bond_site_symmetry_2
Al0 Au3 2.579656 1_455
Al0 Au3 2.579656 1_555
Al0 Au2 2.579656 1_545
Al0 Au2 2.579656 1_555
Al0 Nd1 3.425363 1_555
Al0 Nd1 3.425363 1_455
Al0 Nd0 3.425363 1_555
Al0 Nd0 3.425363 1_545
Al1 Au3 2.579656 1_555
Al1 Au3 2.579656 1_565
Al1 Au2 2.579656 1_655
Al1 Au2 2.579656 1_555
Al1 Nd1 3.425363 1_555
Al1 Nd1 3.425363 1_565
Al1 Nd0 3.425363 1_555
Al1 Nd0 3.425363 1_655
Al2 Au2 2.502804 1_555
Al2 Au1 2.588209 1_456
Al2 Au0 2.588209 1_556
Al2 Au1 2.588209 1_556
Al2 Au0 2.588209 1_566
Al2 Nd1 3.336943 1_555
Al2 Nd1 3.336943 1_455
Al2 Nd1 3.336943 1_465
Al2 Nd1 3.336943 1_565
Al3 Au3 2.502804 1_555
Al3 Au0 2.588209 1_555
Al3 Au1 2.588209 1_555
Al3 Au0 2.588209 1_655
Al3 Au1 2.588209 1_545
Al3 Nd0 3.336943 1_655
Al3 Nd0 3.336943 1_555
Al3 Nd0 3.336943 1_545
Al3 Nd0 3.336943 1_645
Au0 Nd0 3.404154 1_555
Au0 Nd0 3.404154 1_545
Au0 Nd1 3.404154 1_454
Au0 Nd1 3.404154 1_554
Au1 Nd0 3.404154 1_555
Au1 Nd0 3.404154 1_655
Au1 Nd1 3.404154 1_564
Au1 Nd1 3.404154 1_554
Au2 Nd1 3.353350 1_555
Au2 Nd1 3.353350 1_465
Au2 Nd1 3.353350 1_455
Au2 Nd1 3.353350 1_565
Au3 Nd0 3.353350 1_655
Au3 Nd0 3.353350 1_645
Au3 Nd0 3.353350 1_555
Au3 Nd0 3.353350 1_545
