# generated using pymatgen
data_Mg16Al12Cl
_symmetry_space_group_name_H-M   'P 1'
_cell_length_a   8.93459000
_cell_length_b   9.07941163
_cell_length_c   9.08574032
_cell_angle_alpha   109.33100170
_cell_angle_beta   108.14767240
_cell_angle_gamma   107.50133835
_symmetry_Int_Tables_number   1
_chemical_formula_structural   Mg16Al12Cl
_chemical_formula_sum   'Mg16 Al12 Cl1'
_cell_volume   590.07671330
_cell_formula_units_Z   1
loop_
 _symmetry_equiv_pos_site_id
 _symmetry_equiv_pos_as_xyz
  1  'x, y, z'
loop_
 _atom_site_type_symbol
 _atom_site_label
 _atom_site_symmetry_multiplicity
 _atom_site_fract_x
 _atom_site_fract_y
 _atom_site_fract_z
 _atom_site_occupancy
  Mg  Mg0  1  0.99752000  0.99751400  0.99500800  1
  Mg  Mg1  1  0.00629300  0.00617700  0.34419000  1
  Mg  Mg2  1  0.65310100  0.65349500  0.67871300  1
  Mg  Mg3  1  0.69092800  0.69077000  0.29254700  1
  Mg  Mg4  1  0.33162900  0.59739300  0.99858300  1
  Mg  Mg5  1  0.40203300  0.70539500  0.39883000  1
  Mg  Mg6  1  0.99315800  0.30743500  0.59254200  1
  Mg  Mg7  1  0.99642300  0.34878700  0.98872400  1
  Mg  Mg8  1  0.28667500  0.67638500  0.67810500  1
  Mg  Mg9  1  0.59661700  0.00182100  0.31895600  1
  Mg  Mg10  1  0.00176800  0.59645700  0.31762700  1
  Mg  Mg11  1  0.67528700  0.28630000  0.67715200  1
  Mg  Mg12  1  0.34804800  0.99560400  0.98742000  1
  Mg  Mg13  1  0.30803600  0.99275700  0.59163400  1
  Mg  Mg14  1  0.70493200  0.40231800  0.39902600  1
  Mg  Mg15  1  0.59851300  0.33275200  0.99893400  1
  Al  Al0  1  0.35729000  0.35854500  0.15633100  1
  Al  Al1  1  0.15816100  0.15788500  0.80568000  1
  Al  Al2  1  0.17303400  0.36084500  0.34758000  1
  Al  Al3  1  0.65550100  0.84388500  0.02313900  1
  Al  Al4  1  0.80074900  0.98980700  0.63029500  1
  Al  Al5  1  0.81853400  0.19538900  0.18421700  1
  Al  Al6  1  0.62284000  0.00446800  0.81664500  1
  Al  Al7  1  0.00675800  0.62455500  0.81745100  1
  Al  Al8  1  0.19571800  0.81894400  0.18557500  1
  Al  Al9  1  0.99045400  0.80234900  0.63293400  1
  Al  Al10  1  0.84391200  0.65502300  0.02482100  1
  Al  Al11  1  0.36154300  0.17284200  0.34970900  1
  Cl  Cl0  1  0.42453700  0.42409500  0.76763200  1
loop_
_geom_bond_atom_site_label_1
_geom_bond_atom_site_label_2
_geom_bond_distance
_geom_bond_site_symmetry_2
Mg0 Mg1 3.123100 1_666
Mg0 Mg12 3.159074 1_655
Mg0 Mg2 3.201821 1_555
Mg0 Mg7 3.211593 1_565
Mg1 Mg6 2.976378 1_455
Mg1 Mg13 2.990106 1_545
Mg1 Mg3 3.129521 1_445
Mg2 Mg5 3.097773 1_555
Mg2 Mg8 3.340681 1_555
Mg3 Mg5 3.047366 1_555
Mg3 Mg4 3.111359 1_554
Mg3 Mg9 3.138804 1_565
Mg4 Mg7 3.115389 1_455
Mg4 Mg8 3.159346 1_555
Mg4 Mg5 3.228756 1_556
Mg5 Mg8 3.078717 1_555
Mg5 Mg9 3.171347 1_565
Mg6 Mg8 3.228830 1_655
Mg10 Mg7 3.063766 1_454
Mg10 Mg3 3.108617 1_455
Mg10 Mg8 3.139303 1_555
Mg10 Mg14 3.156082 1_455
Mg10 Mg5 3.171383 1_555
Mg10 Mg13 3.245979 1_555
Mg10 Mg15 3.289511 1_454
Mg11 Mg7 3.076687 1_555
Mg11 Mg14 3.094640 1_555
Mg11 Mg9 3.110458 1_555
Mg11 Mg15 3.130960 1_555
Mg11 Mg6 3.134258 1_555
Mg11 Mg13 3.202268 1_545
Mg11 Mg2 3.394467 1_555
Mg12 Mg8 3.048048 1_555
Mg12 Mg9 3.107056 1_566
Mg12 Mg15 3.148200 1_565
Mg13 Mg5 3.128853 1_555
Mg13 Mg8 3.187873 1_555
Mg14 Mg2 3.066651 1_555
Mg14 Mg3 3.099959 1_555
Mg14 Mg6 3.159384 1_555
Mg14 Mg9 3.222086 1_555
Mg14 Mg15 3.237719 1_554
Mg15 Mg3 3.104392 1_556
Al0 Al1 2.703968 1_554
Al0 Al2 2.740179 1_555
Al0 Al11 2.808822 1_555
Al0 Mg15 2.957492 1_554
Al0 Mg4 2.993612 1_554
Al0 Mg5 3.005354 1_555
Al0 Mg14 3.013070 1_555
Al0 Mg3 3.055895 1_555
Al0 Mg7 3.066373 1_454
Al0 Mg12 3.103268 1_544
Al0 Mg0 3.282154 1_444
Al1 Al4 2.711942 1_445
Al1 Al9 2.720382 1_445
Al1 Mg13 2.953372 1_545
Al1 Mg6 2.988904 1_455
Al1 Mg7 2.992231 1_455
Al1 Mg0 3.013044 1_445
Al1 Mg12 3.024070 1_545
Al2 Al5 2.687970 1_455
Al2 Mg5 2.963409 1_555
Al2 Mg8 2.985320 1_555
Al2 Mg10 3.014405 1_555
Al2 Mg7 3.096361 1_454
Al2 Mg1 3.100043 1_555
Al2 Mg6 3.200865 1_455
Al2 Mg0 3.219668 1_444
Al3 Al5 2.689375 1_565
Al3 Al6 2.730695 1_564
Al3 Mg9 2.887880 1_565
Al3 Mg4 2.967142 1_554
Al3 Mg2 3.022595 1_554
Al3 Mg1 3.030633 1_665
Al3 Mg0 3.083469 1_554
Al3 Mg3 3.171641 1_555
Al3 Mg8 3.223925 1_554
Al4 Al6 2.658121 1_565
Al4 Al9 2.739890 1_555
Al4 Mg9 2.906921 1_565
Al4 Mg3 2.959270 1_555
Al4 Mg6 3.070848 1_565
Al4 Mg5 3.160118 1_555
Al4 Mg11 3.168283 1_565
Al4 Mg2 3.175813 1_555
Al4 Mg0 3.196826 1_555
Al4 Mg7 3.206873 1_565
Al5 Al6 2.814639 1_554
Al5 Mg14 2.884876 1_555
Al5 Mg15 3.009463 1_554
Al5 Mg9 3.059291 1_555
Al5 Mg10 3.108969 1_655
Al5 Mg7 3.112189 1_554
Al5 Mg1 3.121800 1_655
Al5 Mg0 3.183735 1_544
Al5 Mg6 3.189631 1_555
Al6 Mg13 2.862876 1_545
Al6 Mg15 3.003346 1_555
Al6 Mg8 3.043040 1_545
Al6 Mg2 3.143819 1_545
Al6 Mg11 3.188973 1_555
Al6 Mg7 3.255129 1_555
Al6 Mg0 3.263763 1_545
Al6 Mg12 3.283085 1_545
Al6 Mg5 3.311274 1_545
Al7 Al9 2.686750 1_455
Al7 Al8 2.816784 1_556
Al7 Mg6 2.867103 1_455
Al7 Mg4 2.986270 1_555
Al7 Mg11 3.068181 1_455
Al7 Mg8 3.120592 1_555
Al7 Mg2 3.143198 1_455
Al7 Mg12 3.236687 1_555
Al7 Mg0 3.272676 1_455
Al7 Mg14 3.325489 1_455
Al7 Mg7 3.350995 1_455
Al8 Mg5 2.907852 1_555
Al8 Mg4 2.983131 1_554
Al8 Mg10 3.052414 1_555
Al8 Mg9 3.072801 1_565
Al8 Mg1 3.075538 1_565
Al8 Mg12 3.129168 1_554
Al8 Mg13 3.161545 1_555
Al8 Mg0 3.230742 1_454
Al9 Mg10 2.908672 1_655
Al9 Mg3 2.981961 1_555
Al9 Mg13 3.053375 1_655
Al9 Mg2 3.128494 1_555
Al9 Mg0 3.148039 1_555
Al9 Mg8 3.152087 1_655
Al9 Mg12 3.183791 1_655
Al9 Mg14 3.186810 1_555
Al10 Al8 2.667513 1_655
Al10 Al7 2.710716 1_654
Al10 Al3 2.740775 1_555
Al10 Mg10 2.898230 1_655
Al10 Mg15 2.964579 1_554
Al10 Mg1 3.026613 1_665
Al10 Mg2 3.068014 1_554
Al10 Mg3 3.115432 1_555
Al10 Mg0 3.138316 1_554
Al10 Mg11 3.233618 1_554
Al11 Al8 2.707682 1_545
Al11 Al2 2.735232 1_555
Al11 Mg14 2.938626 1_555
Al11 Mg11 2.968019 1_555
Al11 Mg9 2.990020 1_555
Al11 Mg1 3.054267 1_555
Al11 Mg12 3.093276 1_544
Al11 Mg13 3.208946 1_545
Al11 Mg0 3.233935 1_444
Cl0 Mg4 2.693076 1_555
Cl0 Mg15 2.723017 1_555
Cl0 Mg2 2.957134 1_555
Cl0 Mg11 3.067964 1_555
Cl0 Mg8 3.119667 1_555
