# generated using pymatgen
data_Sc13Os3Br16
_symmetry_space_group_name_H-M   'P 1'
_cell_length_a   9.02664900
_cell_length_b   10.75920200
_cell_length_c   19.32272500
_cell_angle_alpha   90.00000000
_cell_angle_beta   90.00000000
_cell_angle_gamma   90.00000000
_symmetry_Int_Tables_number   1
_chemical_formula_structural   Sc13Os3Br16
_chemical_formula_sum   'Sc26 Os6 Br32'
_cell_volume   1876.61416305
_cell_formula_units_Z   2
loop_
 _symmetry_equiv_pos_site_id
 _symmetry_equiv_pos_as_xyz
  1  'x, y, z'
loop_
 _atom_site_type_symbol
 _atom_site_label
 _atom_site_symmetry_multiplicity
 _atom_site_fract_x
 _atom_site_fract_y
 _atom_site_fract_z
 _atom_site_occupancy
  Sc  Sc0  1  0.82066300  0.60390100  0.39690000  1
  Sc  Sc1  1  0.82066300  0.39609900  0.60310000  1
  Sc  Sc2  1  0.67933700  0.10390100  0.10310000  1
  Sc  Sc3  1  0.67933700  0.89609900  0.89690000  1
  Sc  Sc4  1  0.17933700  0.39609900  0.60310000  1
  Sc  Sc5  1  0.17933700  0.60390100  0.39690000  1
  Sc  Sc6  1  0.32066300  0.89609900  0.89690000  1
  Sc  Sc7  1  0.32066300  0.10390100  0.10310000  1
  Sc  Sc8  1  0.81796200  0.32249400  0.43993900  1
  Sc  Sc9  1  0.81796200  0.67750600  0.56006100  1
  Sc  Sc10  1  0.68203800  0.82249400  0.06006100  1
  Sc  Sc11  1  0.68203800  0.17750600  0.93993900  1
  Sc  Sc12  1  0.18203800  0.67750600  0.56006100  1
  Sc  Sc13  1  0.18203800  0.32249400  0.43993900  1
  Sc  Sc14  1  0.31796200  0.17750600  0.93993900  1
  Sc  Sc15  1  0.31796200  0.82249400  0.06006100  1
  Sc  Sc16  1  0.50000000  0.29838900  0.52944500  1
  Sc  Sc17  1  0.50000000  0.70161100  0.47055500  1
  Sc  Sc18  1  0.00000000  0.79838900  0.97055500  1
  Sc  Sc19  1  0.00000000  0.20161100  0.02944500  1
  Sc  Sc20  1  0.50000000  0.44687100  0.38249200  1
  Sc  Sc21  1  0.50000000  0.55312900  0.61750800  1
  Sc  Sc22  1  0.00000000  0.94687100  0.11750800  1
  Sc  Sc23  1  0.00000000  0.05312900  0.88249200  1
  Sc  Sc24  1  0.00000000  0.00000000  0.50000000  1
  Sc  Sc25  1  0.50000000  0.50000000  0.00000000  1
  Os  Os0  1  0.66256900  0.50000000  0.50000000  1
  Os  Os1  1  0.83743100  0.00000000  0.00000000  1
  Os  Os2  1  0.33743100  0.50000000  0.50000000  1
  Os  Os3  1  0.16256900  0.00000000  0.00000000  1
  Os  Os4  1  0.00000000  0.50000000  0.50000000  1
  Os  Os5  1  0.50000000  0.00000000  0.00000000  1
  Br  Br0  1  0.00000000  0.13135700  0.38149400  1
  Br  Br1  1  0.00000000  0.86864300  0.61850600  1
  Br  Br2  1  0.50000000  0.63135700  0.11850600  1
  Br  Br3  1  0.50000000  0.36864300  0.88149400  1
  Br  Br4  1  0.76465200  0.40990700  0.30567500  1
  Br  Br5  1  0.76465200  0.59009300  0.69432500  1
  Br  Br6  1  0.73534800  0.90990700  0.19432500  1
  Br  Br7  1  0.73534800  0.09009300  0.80567500  1
  Br  Br8  1  0.23534800  0.59009300  0.69432500  1
  Br  Br9  1  0.23534800  0.40990700  0.30567500  1
  Br  Br10  1  0.26465200  0.09009300  0.80567500  1
  Br  Br11  1  0.26465200  0.90990700  0.19432500  1
  Br  Br12  1  0.77367200  0.14112000  0.55132900  1
  Br  Br13  1  0.77367200  0.85888000  0.44867100  1
  Br  Br14  1  0.72632800  0.64112000  0.94867100  1
  Br  Br15  1  0.72632800  0.35888000  0.05132900  1
  Br  Br16  1  0.22632800  0.85888000  0.44867100  1
  Br  Br17  1  0.22632800  0.14112000  0.55132900  1
  Br  Br18  1  0.27367200  0.35888000  0.05132900  1
  Br  Br19  1  0.27367200  0.64112000  0.94867100  1
  Br  Br20  1  0.00000000  0.71113000  0.30213500  1
  Br  Br21  1  0.00000000  0.28887000  0.69786500  1
  Br  Br22  1  0.50000000  0.21113000  0.19786500  1
  Br  Br23  1  0.50000000  0.78887000  0.80213500  1
  Br  Br24  1  0.50000000  0.18680300  0.40094000  1
  Br  Br25  1  0.50000000  0.81319700  0.59906000  1
  Br  Br26  1  0.00000000  0.68680300  0.09906000  1
  Br  Br27  1  0.00000000  0.31319700  0.90094000  1
  Br  Br28  1  0.50000000  0.31147800  0.67172600  1
  Br  Br29  1  0.50000000  0.68852200  0.32827400  1
  Br  Br30  1  0.00000000  0.81147800  0.82827400  1
  Br  Br31  1  0.00000000  0.18852200  0.17172600  1
loop_
_geom_bond_atom_site_label_1
_geom_bond_atom_site_label_2
_geom_bond_distance
_geom_bond_site_symmetry_2
Os0 Sc8 2.638520 1_555
Os0 Sc9 2.638520 1_555
Os0 Sc17 2.680008 1_555
Os0 Sc16 2.680008 1_555
Os0 Sc1 2.693498 1_555
Os0 Sc0 2.693498 1_555
Os0 Sc21 2.763274 1_555
Os0 Sc20 2.763274 1_555
Os1 Sc11 2.638520 1_554
Os1 Sc10 2.638520 1_545
Os1 Sc18 2.680008 1_644
Os1 Sc19 2.680008 1_655
Os1 Sc2 2.693498 1_555
Os1 Sc3 2.693498 1_544
Os1 Sc23 2.763274 1_654
Os1 Sc22 2.763274 1_645
Os2 Sc13 2.638520 1_555
Os2 Sc12 2.638520 1_555
Os2 Sc17 2.680008 1_555
Os2 Sc16 2.680008 1_555
Os2 Sc4 2.693498 1_555
Os2 Sc5 2.693498 1_555
Os2 Sc21 2.763274 1_555
Os2 Sc20 2.763274 1_555
Os3 Sc15 2.638520 1_545
Os3 Sc14 2.638520 1_554
Os3 Sc19 2.680008 1_555
Os3 Sc18 2.680008 1_544
Os3 Sc6 2.693498 1_544
Os3 Sc7 2.693498 1_555
Os3 Sc23 2.763274 1_554
Os3 Sc22 2.763274 1_545
Os4 Sc13 2.773872 1_555
Os4 Sc8 2.773872 1_455
Os4 Sc9 2.773872 1_455
Os4 Sc12 2.773872 1_555
Os4 Sc4 2.799819 1_555
Os4 Sc1 2.799819 1_455
Os4 Sc5 2.799819 1_555
Os4 Sc0 2.799819 1_455
Os5 Sc15 2.773872 1_545
Os5 Sc14 2.773872 1_554
Os5 Sc11 2.773872 1_554
Os5 Sc10 2.773872 1_545
Os5 Sc3 2.799819 1_544
Os5 Sc6 2.799819 1_544
Os5 Sc7 2.799819 1_555
Os5 Sc2 2.799819 1_555
Br0 Sc24 2.690885 1_555
Br0 Sc13 2.864360 1_555
Br0 Sc8 2.864360 1_455
Br1 Sc24 2.690885 1_565
Br1 Sc12 2.864360 1_555
Br1 Sc9 2.864360 1_455
Br2 Sc25 2.690885 1_555
Br2 Sc15 2.864360 1_555
Br2 Sc10 2.864360 1_555
Br3 Sc25 2.690885 1_556
Br3 Sc14 2.864360 1_555
Br3 Sc11 2.864360 1_555
Br4 Sc0 2.778359 1_555
Br4 Sc8 2.801201 1_555
Br4 Sc20 2.840475 1_555
Br5 Sc1 2.778359 1_555
Br5 Sc9 2.801201 1_555
Br5 Sc21 2.840475 1_555
Br6 Sc2 2.778359 1_565
Br6 Sc10 2.801201 1_555
Br6 Sc22 2.840475 1_655
Br7 Sc3 2.778359 1_545
Br7 Sc11 2.801201 1_555
Br7 Sc23 2.840475 1_655
Br8 Sc4 2.778359 1_555
Br8 Sc12 2.801201 1_555
Br8 Sc21 2.840475 1_555
Br9 Sc5 2.778359 1_555
Br9 Sc13 2.801201 1_555
Br9 Sc20 2.840475 1_555
Br10 Sc6 2.778359 1_545
Br10 Sc14 2.801201 1_555
Br10 Sc23 2.840475 1_555
Br11 Sc7 2.778359 1_565
Br11 Sc15 2.801201 1_555
Br11 Sc22 2.840475 1_555
Br12 Sc24 2.731819 1_655
Br12 Sc8 2.932677 1_555
Br12 Sc1 2.950715 1_555
Br12 Sc16 3.023997 1_555
Br13 Sc24 2.731819 1_665
Br13 Sc9 2.932677 1_555
Br13 Sc0 2.950715 1_555
Br13 Sc17 3.023997 1_555
Br14 Sc25 2.731819 1_556
Br14 Sc10 2.932677 1_556
Br14 Sc3 2.950715 1_555
Br14 Sc18 3.023997 1_655
Br15 Sc25 2.731819 1_555
Br15 Sc11 2.932677 1_554
Br15 Sc2 2.950715 1_555
Br15 Sc19 3.023997 1_655
Br16 Sc24 2.731819 1_565
Br16 Sc12 2.932677 1_555
Br16 Sc5 2.950715 1_555
Br16 Sc17 3.023997 1_555
Br17 Sc24 2.731819 1_555
Br17 Sc13 2.932677 1_555
Br17 Sc4 2.950715 1_555
Br17 Sc16 3.023997 1_555
Br18 Sc25 2.731819 1_555
Br18 Sc14 2.932677 1_554
Br18 Sc7 2.950715 1_555
Br18 Sc19 3.023997 1_555
Br19 Sc25 2.731819 1_556
Br19 Sc15 2.932677 1_556
Br19 Sc6 2.950715 1_555
Br19 Sc18 3.023997 1_555
Br20 Sc5 2.702696 1_555
Br20 Sc0 2.702696 1_455
Br21 Sc4 2.702696 1_555
Br21 Sc1 2.702696 1_455
Br22 Sc7 2.702696 1_555
Br22 Sc2 2.702696 1_555
Br23 Sc6 2.702696 1_555
Br23 Sc3 2.702696 1_555
Br24 Sc16 2.758080 1_555
Br24 Sc20 2.820739 1_555
Br24 Sc13 3.307099 1_555
Br24 Sc8 3.307099 1_555
Br25 Sc17 2.758080 1_555
Br25 Sc21 2.820739 1_555
Br25 Sc12 3.307099 1_555
Br25 Sc9 3.307099 1_555
Br26 Sc18 2.758080 1_554
Br26 Sc22 2.820739 1_555
Br26 Sc10 3.307099 1_455
Br26 Sc15 3.307099 1_555
Br27 Sc19 2.758080 1_556
Br27 Sc23 2.820739 1_555
Br27 Sc11 3.307099 1_455
Br27 Sc14 3.307099 1_555
Br28 Sc16 2.752861 1_555
Br28 Sc21 2.803106 1_555
Br28 Sc4 3.311422 1_555
Br28 Sc1 3.311422 1_555
Br29 Sc17 2.752861 1_555
Br29 Sc20 2.803106 1_555
Br29 Sc0 3.311422 1_555
Br29 Sc5 3.311422 1_555
Br30 Sc18 2.752861 1_555
Br30 Sc23 2.803106 1_565
Br30 Sc6 3.311422 1_555
Br30 Sc3 3.311422 1_455
Br31 Sc19 2.752861 1_555
Br31 Sc22 2.803106 1_545
Br31 Sc7 3.311422 1_555
Br31 Sc2 3.311422 1_455
