# generated using pymatgen
data_Cd5(NO8)2
_symmetry_space_group_name_H-M   'P 1'
_cell_length_a   9.83652778
_cell_length_b   9.83652778
_cell_length_c   5.72041081
_cell_angle_alpha   87.61252659
_cell_angle_beta   87.61252659
_cell_angle_gamma   45.21051630
_symmetry_Int_Tables_number   1
_chemical_formula_structural   Cd5(NO8)2
_chemical_formula_sum   'Cd5 N2 O16'
_cell_volume   392.41274672
_cell_formula_units_Z   1
loop_
 _symmetry_equiv_pos_site_id
 _symmetry_equiv_pos_as_xyz
  1  'x, y, z'
loop_
 _atom_site_type_symbol
 _atom_site_label
 _atom_site_symmetry_multiplicity
 _atom_site_fract_x
 _atom_site_fract_y
 _atom_site_fract_z
 _atom_site_occupancy
  Cd  Cd0  1  0.00000000  0.00000000  0.00000000  1
  Cd  Cd1  1  0.77486000  0.22514000  0.50000000  1
  Cd  Cd2  1  0.22514000  0.77486000  0.50000000  1
  Cd  Cd3  1  0.37312200  0.37312200  0.03129700  1
  Cd  Cd4  1  0.62687800  0.62687800  0.96870300  1
  N  N0  1  0.76123000  0.76123000  0.75413600  1
  N  N1  1  0.23877000  0.23877000  0.24586400  1
  O  O0  1  0.57915600  0.57915600  0.53428300  1
  O  O1  1  0.42084400  0.42084400  0.46571700  1
  O  O2  1  0.64472700  0.29952000  0.92062200  1
  O  O3  1  0.29952000  0.64472700  0.92062200  1
  O  O4  1  0.35527300  0.70048000  0.07937800  1
  O  O5  1  0.70048000  0.35527300  0.07937800  1
  O  O6  1  0.05162000  0.05162000  0.67554100  1
  O  O7  1  0.94838000  0.94838000  0.32445900  1
  O  O8  1  0.87185800  0.58007100  0.80136600  1
  O  O9  1  0.58007100  0.87185800  0.80136600  1
  O  O10  1  0.12814200  0.41992900  0.19863400  1
  O  O11  1  0.41992900  0.12814200  0.19863400  1
  O  O12  1  0.82470700  0.82470700  0.67135400  1
  O  O13  1  0.17529300  0.17529300  0.32864600  1
  O  O14  1  0.36235800  0.36235800  0.61349100  1
  O  O15  1  0.63764200  0.63764200  0.38650900  1
loop_
_geom_bond_atom_site_label_1
_geom_bond_atom_site_label_2
_geom_bond_distance
_geom_bond_site_symmetry_2
Cd0 O7 2.041265 1_445
Cd0 O6 2.041265 1_554
Cd0 O3 2.571496 1_544
Cd0 O2 2.571496 1_454
Cd0 O5 2.571496 1_455
Cd0 O4 2.571496 1_545
Cd1 O6 2.206968 1_655
Cd1 O7 2.206968 1_545
Cd1 O1 2.539815 1_555
Cd1 O0 2.539815 1_555
Cd1 O5 2.556125 1_555
Cd1 O2 2.556125 1_555
Cd2 O6 2.206968 1_565
Cd2 O7 2.206968 1_455
Cd2 O1 2.539815 1_555
Cd2 O0 2.539815 1_555
Cd2 O3 2.556125 1_555
Cd2 O4 2.556125 1_555
Cd3 O11 2.283954 1_555
Cd3 O10 2.283954 1_555
Cd3 O3 2.287925 1_554
Cd3 O2 2.287925 1_554
Cd3 O14 2.406780 1_554
Cd3 O1 2.668538 1_555
Cd4 O9 2.283954 1_555
Cd4 O8 2.283954 1_555
Cd4 O5 2.287925 1_556
Cd4 O4 2.287925 1_556
Cd4 O15 2.406780 1_556
Cd4 O0 2.668538 1_555
N0 O12 1.226392 1_555
N0 O9 1.297969 1_555
N0 O8 1.297969 1_555
N1 O13 1.226392 1_555
N1 O11 1.297969 1_555
N1 O10 1.297969 1_555
O0 O15 1.327336 1_555
O1 O14 1.327336 1_555
O2 O5 1.390330 1_556
O3 O4 1.390330 1_556
