# generated using pymatgen
data_NbCrN3
_symmetry_space_group_name_H-M   'P 1'
_cell_length_a   3.44150200
_cell_length_b   3.44150200
_cell_length_c   9.56080300
_cell_angle_alpha   90.00000000
_cell_angle_beta   90.00000000
_cell_angle_gamma   90.00000000
_symmetry_Int_Tables_number   1
_chemical_formula_structural   NbCrN3
_chemical_formula_sum   'Nb2 Cr2 N6'
_cell_volume   113.23753899
_cell_formula_units_Z   2
loop_
 _symmetry_equiv_pos_site_id
 _symmetry_equiv_pos_as_xyz
  1  'x, y, z'
loop_
 _atom_site_type_symbol
 _atom_site_label
 _atom_site_symmetry_multiplicity
 _atom_site_fract_x
 _atom_site_fract_y
 _atom_site_fract_z
 _atom_site_occupancy
  Nb  Nb0  1  0.00000000  0.50000000  0.62100700  1
  Nb  Nb1  1  0.50000000  0.00000000  0.37899300  1
  Cr  Cr0  1  0.00000000  0.50000000  0.08774500  1
  Cr  Cr1  1  0.50000000  0.00000000  0.91225500  1
  N  N0  1  0.00000000  0.50000000  0.27002700  1
  N  N1  1  0.50000000  0.00000000  0.72997300  1
  N  N2  1  0.50000000  0.50000000  0.00000000  1
  N  N3  1  0.00000000  0.00000000  0.00000000  1
  N  N4  1  0.00000000  0.00000000  0.50000000  1
  N  N5  1  0.50000000  0.50000000  0.50000000  1
loop_
_geom_bond_atom_site_label_1
_geom_bond_atom_site_label_2
_geom_bond_distance
_geom_bond_site_symmetry_2
Cr0 N0 1.742762 1_555
Cr0 N3 1.914356 1_565
Cr0 N2 1.914356 1_455
Cr0 N2 1.914356 1_555
Cr0 N3 1.914356 1_555
Cr1 N1 1.742762 1_555
Cr1 N2 1.914356 1_556
Cr1 N3 1.914356 1_556
Cr1 N2 1.914356 1_546
Cr1 N3 1.914356 1_656
N0 Nb1 2.647134 1_455
N0 Nb1 2.647134 1_555
N0 Nb1 2.647134 1_465
N0 Nb1 2.647134 1_565
N1 Nb0 2.647134 1_545
N1 Nb0 2.647134 1_645
N1 Nb0 2.647134 1_555
N1 Nb0 2.647134 1_655
N4 Nb0 2.073513 1_545
N4 Nb0 2.073513 1_555
N4 Nb1 2.073513 1_555
N4 Nb1 2.073513 1_455
N5 Nb0 2.073513 1_555
N5 Nb0 2.073513 1_655
N5 Nb1 2.073513 1_555
N5 Nb1 2.073513 1_565
