# generated using pymatgen
data_Zr9W4S
_symmetry_space_group_name_H-M   'P 1'
_cell_length_a   8.77559098
_cell_length_b   8.77559098
_cell_length_c   8.68615700
_cell_angle_alpha   90.00000000
_cell_angle_beta   90.00000000
_cell_angle_gamma   120.00000736
_symmetry_Int_Tables_number   1
_chemical_formula_structural   Zr9W4S
_chemical_formula_sum   'Zr18 W8 S2'
_cell_volume   579.30999305
_cell_formula_units_Z   2
loop_
 _symmetry_equiv_pos_site_id
 _symmetry_equiv_pos_as_xyz
  1  'x, y, z'
loop_
 _atom_site_type_symbol
 _atom_site_label
 _atom_site_symmetry_multiplicity
 _atom_site_fract_x
 _atom_site_fract_y
 _atom_site_fract_z
 _atom_site_occupancy
  Zr  Zr0  1  0.53907800  0.07815700  0.25000000  1
  Zr  Zr1  1  0.46092200  0.92184300  0.75000000  1
  Zr  Zr2  1  0.92184300  0.46092200  0.25000000  1
  Zr  Zr3  1  0.07815700  0.53907800  0.75000000  1
  Zr  Zr4  1  0.53907800  0.46092200  0.25000000  1
  Zr  Zr5  1  0.46092200  0.53907800  0.75000000  1
  Zr  Zr6  1  0.19686600  0.39373300  0.04972500  1
  Zr  Zr7  1  0.80313400  0.60626700  0.95027500  1
  Zr  Zr8  1  0.60626700  0.80313400  0.04972500  1
  Zr  Zr9  1  0.80313400  0.60626700  0.54972500  1
  Zr  Zr10  1  0.39373300  0.19686600  0.95027500  1
  Zr  Zr11  1  0.19686600  0.39373300  0.45027500  1
  Zr  Zr12  1  0.19686600  0.80313400  0.04972500  1
  Zr  Zr13  1  0.39373300  0.19686600  0.54972500  1
  Zr  Zr14  1  0.80313400  0.19686600  0.95027500  1
  Zr  Zr15  1  0.60626700  0.80313400  0.45027500  1
  Zr  Zr16  1  0.80313400  0.19686600  0.54972500  1
  Zr  Zr17  1  0.19686600  0.80313400  0.45027500  1
  W  W0  1  0.00000000  0.00000000  0.00000000  1
  W  W1  1  0.00000000  0.00000000  0.50000000  1
  W  W2  1  0.89132200  0.78264400  0.25000000  1
  W  W3  1  0.10867800  0.21735600  0.75000000  1
  W  W4  1  0.21735600  0.10867800  0.25000000  1
  W  W5  1  0.78264400  0.89132200  0.75000000  1
  W  W6  1  0.89132200  0.10867800  0.25000000  1
  W  W7  1  0.10867800  0.89132200  0.75000000  1
  S  S0  1  0.33333300  0.66666700  0.25000000  1
  S  S1  1  0.66666700  0.33333300  0.75000000  1
loop_
_geom_bond_atom_site_label_1
_geom_bond_atom_site_label_2
_geom_bond_distance
_geom_bond_site_symmetry_2
W0 W2 2.728423 1_445
W0 W4 2.728423 1_555
W0 W5 2.728423 1_444
W0 W3 2.728423 1_554
W0 W6 2.728423 1_455
W0 W7 2.728423 1_544
W0 Zr12 3.023329 1_545
W0 Zr14 3.023329 1_454
W0 Zr7 3.023337 1_444
W0 Zr8 3.023337 1_445
W0 Zr6 3.023337 1_555
W0 Zr10 3.023337 1_554
W1 W2 2.728423 1_445
W1 W4 2.728423 1_555
W1 W5 2.728423 1_445
W1 W3 2.728423 1_555
W1 W6 2.728423 1_455
W1 W7 2.728423 1_545
W1 Zr17 3.023329 1_545
W1 Zr16 3.023329 1_455
W1 Zr11 3.023337 1_555
W1 Zr15 3.023337 1_445
W1 Zr9 3.023337 1_445
W1 Zr13 3.023337 1_555
W2 W4 2.861141 1_665
W2 W6 2.861141 1_565
W2 Zr7 2.928274 1_554
W2 Zr9 2.928274 1_555
W2 Zr2 2.966304 1_555
W2 Zr4 2.966308 1_555
W2 Zr17 3.125060 1_655
W2 Zr12 3.125060 1_655
W2 Zr15 3.125068 1_555
W2 Zr8 3.125068 1_555
W3 W5 2.861141 1_445
W3 W7 2.861141 1_545
W3 Zr11 2.928274 1_555
W3 Zr6 2.928274 1_556
W3 Zr3 2.966304 1_555
W3 Zr5 2.966308 1_555
W3 Zr16 3.125060 1_455
W3 Zr14 3.125060 1_455
W3 Zr13 3.125068 1_555
W3 Zr10 3.125068 1_555
W4 W6 2.861141 1_455
W4 Zr10 2.928274 1_554
W4 Zr13 2.928274 1_555
W4 Zr0 2.966304 1_555
W4 Zr4 2.966308 1_555
W4 Zr17 3.125060 1_545
W4 Zr12 3.125060 1_545
W4 Zr11 3.125068 1_555
W4 Zr6 3.125068 1_555
W5 W7 2.861141 1_655
W5 Zr8 2.928274 1_556
W5 Zr15 2.928274 1_555
W5 Zr1 2.966304 1_555
W5 Zr5 2.966308 1_555
W5 Zr14 3.125060 1_565
W5 Zr16 3.125060 1_565
W5 Zr9 3.125068 1_555
W5 Zr7 3.125068 1_555
W6 Zr16 2.928270 1_555
W6 Zr14 2.928270 1_554
W6 Zr0 2.966312 1_555
W6 Zr2 2.966312 1_555
W6 Zr11 3.125063 1_655
W6 Zr6 3.125063 1_655
W6 Zr15 3.125063 1_545
W6 Zr8 3.125063 1_545
W7 Zr17 2.928270 1_555
W7 Zr12 2.928270 1_556
W7 Zr3 2.966312 1_555
W7 Zr1 2.966312 1_555
W7 Zr13 3.125063 1_565
W7 Zr10 3.125063 1_565
W7 Zr7 3.125063 1_455
W7 Zr9 3.125063 1_455
S0 Zr15 2.707187 1_555
S0 Zr8 2.707187 1_555
S0 Zr6 2.707187 1_555
S0 Zr11 2.707187 1_555
S0 Zr17 2.707187 1_555
S0 Zr12 2.707187 1_555
S0 Zr0 3.127276 1_565
S0 Zr2 3.127276 1_455
S0 Zr4 3.127277 1_555
S1 Zr13 2.707187 1_555
S1 Zr7 2.707187 1_555
S1 Zr10 2.707187 1_555
S1 Zr9 2.707187 1_555
S1 Zr14 2.707187 1_555
S1 Zr16 2.707187 1_555
S1 Zr3 3.127276 1_655
S1 Zr1 3.127276 1_545
S1 Zr5 3.127277 1_555
