# generated using pymatgen
data_Li4MnCo2O7
_symmetry_space_group_name_H-M   'P 1'
_cell_length_a   2.94979300
_cell_length_b   5.95850257
_cell_length_c   14.34439227
_cell_angle_alpha   82.99314470
_cell_angle_beta   84.36467811
_cell_angle_gamma   88.06389374
_symmetry_Int_Tables_number   1
_chemical_formula_structural   Li4MnCo2O7
_chemical_formula_sum   'Li8 Mn2 Co4 O14'
_cell_volume   248.96900206
_cell_formula_units_Z   2
loop_
 _symmetry_equiv_pos_site_id
 _symmetry_equiv_pos_as_xyz
  1  'x, y, z'
loop_
 _atom_site_type_symbol
 _atom_site_label
 _atom_site_symmetry_multiplicity
 _atom_site_fract_x
 _atom_site_fract_y
 _atom_site_fract_z
 _atom_site_occupancy
  Li  Li0  1  0.93395700  0.21084500  0.63541500  1
  Li  Li1  1  0.50000000  0.50000000  0.50000000  1
  Li  Li2  1  0.06604300  0.78915500  0.36458500  1
  Li  Li3  1  0.35533000  0.92660200  0.78698900  1
  Li  Li4  1  0.78776700  0.64225500  0.92774700  1
  Li  Li5  1  0.21223300  0.35774500  0.07225300  1
  Li  Li6  1  0.64467000  0.07339800  0.21301100  1
  Li  Li7  1  0.50000000  0.00000000  0.50000000  1
  Mn  Mn0  1  0.93437300  0.72091700  0.63790200  1
  Mn  Mn1  1  0.06562700  0.27908300  0.36209800  1
  Co  Co0  1  0.64354600  0.56847900  0.21333200  1
  Co  Co1  1  0.21932900  0.85455800  0.07155400  1
  Co  Co2  1  0.78067100  0.14544200  0.92844600  1
  Co  Co3  1  0.35645400  0.43152100  0.78666800  1
  O  O0  1  0.44005300  0.48805500  0.64961600  1
  O  O1  1  0.99187300  0.74344300  0.50977400  1
  O  O2  1  0.58052200  0.06652800  0.35620000  1
  O  O3  1  0.81542300  0.18951700  0.78974400  1
  O  O4  1  0.28655300  0.89899200  0.93417300  1
  O  O5  1  0.72383200  0.61473100  0.07784800  1
  O  O6  1  0.10630900  0.33564800  0.21973200  1
  O  O7  1  0.41947800  0.93347200  0.64380000  1
  O  O8  1  0.00812700  0.25655700  0.49022600  1
  O  O9  1  0.55994700  0.51194500  0.35038400  1
  O  O10  1  0.89369100  0.66435200  0.78026800  1
  O  O11  1  0.27616800  0.38526900  0.92215200  1
  O  O12  1  0.71344700  0.10100800  0.06582700  1
  O  O13  1  0.18457700  0.81048300  0.21025600  1
loop_
_geom_bond_atom_site_label_1
_geom_bond_atom_site_label_2
_geom_bond_distance
_geom_bond_site_symmetry_2
Li0 O8 2.058062 1_655
Li0 O7 2.150006 1_645
Li0 O0 2.180274 1_555
Li0 O3 2.195784 1_555
Li0 O7 2.265885 1_545
Li0 O0 2.303674 1_655
Li1 O8 2.057138 1_655
Li1 O1 2.057138 1_455
Li1 O1 2.112043 1_555
Li1 O8 2.112043 1_555
Li1 O0 2.128696 1_555
Li1 O9 2.128696 1_555
Li2 O1 2.058062 1_455
Li2 O2 2.150006 1_465
Li2 O9 2.180274 1_555
Li2 O13 2.195784 1_555
Li2 O2 2.265885 1_565
Li2 O9 2.303674 1_455
Li3 O7 2.039586 1_555
Li3 O4 2.087836 1_555
Li3 O3 2.113521 1_565
Li3 O10 2.124081 1_455
Li3 O10 2.193625 1_555
Li3 O3 2.196887 1_465
Li4 O11 2.070012 1_655
Li4 O4 2.095089 1_555
Li4 O10 2.096497 1_555
Li4 O5 2.129443 1_556
Li4 O4 2.174070 1_655
Li4 O11 2.199659 1_555
Li5 O5 2.070012 1_455
Li5 O12 2.095089 1_555
Li5 O6 2.096497 1_555
Li5 O11 2.129443 1_554
Li5 O12 2.174070 1_455
Li5 O5 2.199659 1_555
Li6 O2 2.039586 1_555
Li6 O12 2.087836 1_555
Li6 O13 2.113521 1_545
Li6 O6 2.124081 1_655
Li6 O6 2.193625 1_555
Li6 O13 2.196887 1_645
Li7 O2 2.044268 1_555
Li7 O7 2.044268 1_545
Li7 O1 2.073532 1_545
Li7 O8 2.073532 1_555
Li7 O8 2.159731 1_655
Li7 O1 2.159731 1_445
Mn0 O1 1.817927 1_555
Mn0 O7 1.946532 1_555
Mn0 O7 1.957352 1_655
Mn0 O0 2.007718 1_655
Mn0 O10 2.021155 1_555
Mn0 O0 2.027634 1_555
Mn1 O8 1.817927 1_555
Mn1 O2 1.946532 1_555
Mn1 O2 1.957352 1_455
Mn1 O9 2.007718 1_455
Mn1 O6 2.021155 1_555
Mn1 O9 2.027634 1_555
Co0 O6 1.913648 1_655
Co0 O5 1.921543 1_555
Co0 O13 1.943836 1_555
Co0 O9 1.946275 1_555
Co0 O6 2.129178 1_555
Co0 O13 2.180457 1_655
Co1 O4 1.947403 1_554
Co1 O13 1.967804 1_555
Co1 O5 2.028820 1_555
Co1 O12 2.058285 1_465
Co1 O5 2.066464 1_455
Co1 O12 2.092672 1_565
Co2 O12 1.947403 1_556
Co2 O3 1.967804 1_555
Co2 O11 2.028820 1_555
Co2 O4 2.058285 1_645
Co2 O11 2.066464 1_655
Co2 O4 2.092672 1_545
Co3 O10 1.913648 1_455
Co3 O11 1.921543 1_555
Co3 O3 1.943836 1_555
Co3 O0 1.946275 1_555
Co3 O10 2.129178 1_555
Co3 O3 2.180457 1_455
