# generated using pymatgen
data_SmTiGe
_symmetry_space_group_name_H-M   'P 1'
_cell_length_a   4.07691501
_cell_length_b   4.07687965
_cell_length_c   8.35428638
_cell_angle_alpha   104.12359931
_cell_angle_beta   104.12320459
_cell_angle_gamma   90.01622314
_symmetry_Int_Tables_number   1
_chemical_formula_structural   SmTiGe
_chemical_formula_sum   'Sm2 Ti2 Ge2'
_cell_volume   130.32511168
_cell_formula_units_Z   2
loop_
 _symmetry_equiv_pos_site_id
 _symmetry_equiv_pos_as_xyz
  1  'x, y, z'
loop_
 _atom_site_type_symbol
 _atom_site_label
 _atom_site_symmetry_multiplicity
 _atom_site_fract_x
 _atom_site_fract_y
 _atom_site_fract_z
 _atom_site_occupancy
  Sm  Sm0  1  0.67419398  0.67418539  0.34844650  1
  Sm  Sm1  1  0.32581257  0.32580778  0.65155231  1
  Ti  Ti0  1  0.99959684  0.49964664  -0.00003906  1
  Ti  Ti1  1  0.50037497  0.00038576  1.00004301  1
  Ge  Ge0  1  0.11911190  0.11908743  0.23838310  1
  Ge  Ge1  1  0.88090974  0.88088701  0.76161414  1
loop_
_geom_bond_atom_site_label_1
_geom_bond_atom_site_label_2
_geom_bond_distance
_geom_bond_site_symmetry_2
Ge0 Ti1 2.764049 1_454
Ge0 Ti0 2.765316 1_455
Ge0 Ti0 2.766448 1_445
Ge0 Ti1 2.766873 1_554
Ge0 Sm0 3.008592 1_445
Ge0 Sm0 3.009037 1_555
Ge0 Sm0 3.009558 1_545
Ge0 Sm0 3.009635 1_455
Ge0 Sm1 3.239638 1_555
Ge1 Ti0 2.764117 1_566
Ge1 Ti1 2.765288 1_565
Ge1 Ti1 2.766573 1_665
Ge1 Ti0 2.766850 1_556
Ge1 Sm1 3.008594 1_665
Ge1 Sm1 3.009028 1_555
Ge1 Sm1 3.009538 1_655
Ge1 Sm1 3.009648 1_565
Ge1 Sm0 3.239626 1_555
