# generated using pymatgen
data_Ba(ErS2)2
_symmetry_space_group_name_H-M   'P 1'
_cell_length_a   4.00804234
_cell_length_b   12.23980190
_cell_length_c   14.43128585
_cell_angle_alpha   90.00000000
_cell_angle_beta   90.00000000
_cell_angle_gamma   90.00000000
_symmetry_Int_Tables_number   1
_chemical_formula_structural   Ba(ErS2)2
_chemical_formula_sum   'Ba4 Er8 S16'
_cell_volume   707.96488728
_cell_formula_units_Z   4
loop_
 _symmetry_equiv_pos_site_id
 _symmetry_equiv_pos_as_xyz
  1  'x, y, z'
loop_
 _atom_site_type_symbol
 _atom_site_label
 _atom_site_symmetry_multiplicity
 _atom_site_fract_x
 _atom_site_fract_y
 _atom_site_fract_z
 _atom_site_occupancy
  Ba  Ba0  1  0.25000000  0.24202239  0.33770880  1
  Ba  Ba1  1  0.25000000  0.74202239  0.16229120  1
  Ba  Ba2  1  0.75000000  0.75797761  0.66229120  1
  Ba  Ba3  1  0.75000000  0.25797761  0.83770880  1
  Er  Er0  1  0.25000000  0.07859425  0.60133317  1
  Er  Er1  1  0.25000000  0.57859425  0.89866683  1
  Er  Er2  1  0.75000000  0.92140575  0.39866683  1
  Er  Er3  1  0.75000000  0.42140575  0.10133317  1
  Er  Er4  1  0.25000000  0.56612481  0.39139315  1
  Er  Er5  1  0.25000000  0.06612481  0.10860685  1
  Er  Er6  1  0.75000000  0.43387519  0.60860685  1
  Er  Er7  1  0.75000000  0.93387519  0.89139315  1
  S  S0  1  0.25000000  0.08043113  0.92385828  1
  S  S1  1  0.25000000  0.58043113  0.57614172  1
  S  S2  1  0.75000000  0.91956887  0.07614172  1
  S  S3  1  0.75000000  0.41956887  0.42385828  1
  S  S4  1  0.25000000  0.29309396  0.66003217  1
  S  S5  1  0.25000000  0.79309396  0.83996783  1
  S  S6  1  0.75000000  0.70690604  0.33996783  1
  S  S7  1  0.75000000  0.20690604  0.16003217  1
  S  S8  1  0.25000000  0.37771716  0.97726848  1
  S  S9  1  0.25000000  0.87771716  0.52273152  1
  S  S10  1  0.75000000  0.62228284  0.02273152  1
  S  S11  1  0.75000000  0.12228284  0.47726848  1
  S  S12  1  0.25000000  0.47707110  0.21681585  1
  S  S13  1  0.25000000  0.97707110  0.28318415  1
  S  S14  1  0.75000000  0.52292890  0.78318415  1
  S  S15  1  0.75000000  0.02292890  0.71681585  1
loop_
_geom_bond_atom_site_label_1
_geom_bond_atom_site_label_2
_geom_bond_distance
_geom_bond_site_symmetry_2
Ba0 S11 3.196928 1_555
Ba0 S11 3.196928 1_455
Ba0 S3 3.206911 1_455
Ba0 S3 3.206911 1_555
Ba0 S7 3.282600 1_555
Ba0 S7 3.282600 1_455
Ba0 S13 3.337047 1_545
Ba0 S12 3.364611 1_555
Ba1 S10 3.196928 1_455
Ba1 S10 3.196928 1_555
Ba1 S2 3.206911 1_555
Ba1 S2 3.206911 1_455
Ba1 S6 3.282600 1_455
Ba1 S6 3.282600 1_555
Ba1 S12 3.337047 1_555
Ba1 S13 3.364611 1_555
Ba2 S9 3.196928 1_555
Ba2 S9 3.196928 1_655
Ba2 S1 3.206911 1_655
Ba2 S1 3.206911 1_555
Ba2 S5 3.282600 1_655
Ba2 S5 3.282600 1_555
Ba2 S15 3.337047 1_565
Ba2 S14 3.364611 1_555
Ba3 S8 3.196928 1_655
Ba3 S8 3.196928 1_555
Ba3 S0 3.206911 1_555
Ba3 S0 3.206911 1_655
Ba3 S4 3.282600 1_555
Ba3 S4 3.282600 1_655
Ba3 S14 3.337047 1_555
Ba3 S15 3.364611 1_555
Er0 S15 2.694021 1_455
Er0 S15 2.694021 1_555
Er0 S9 2.707743 1_545
Er0 S11 2.740005 1_455
Er0 S11 2.740005 1_555
Er0 S4 2.758711 1_555
Er1 S14 2.694021 1_455
Er1 S14 2.694021 1_555
Er1 S8 2.707743 1_555
Er1 S10 2.740005 1_456
Er1 S10 2.740005 1_556
Er1 S5 2.758711 1_555
Er2 S13 2.694021 1_555
Er2 S13 2.694021 1_655
Er2 S11 2.707743 1_565
Er2 S9 2.740005 1_655
Er2 S9 2.740005 1_555
Er2 S6 2.758711 1_555
Er3 S12 2.694021 1_555
Er3 S12 2.694021 1_655
Er3 S10 2.707743 1_555
Er3 S8 2.740005 1_654
Er3 S8 2.740005 1_554
Er3 S7 2.758711 1_555
Er4 S1 2.671904 1_555
Er4 S3 2.730088 1_555
Er4 S3 2.730088 1_455
Er4 S12 2.745059 1_555
Er4 S6 2.745188 1_455
Er4 S6 2.745188 1_555
Er5 S0 2.671904 1_554
Er5 S2 2.730088 1_545
Er5 S2 2.730088 1_445
Er5 S13 2.745059 1_545
Er5 S7 2.745188 1_455
Er5 S7 2.745188 1_555
Er6 S3 2.671904 1_555
Er6 S1 2.730088 1_555
Er6 S1 2.730088 1_655
Er6 S14 2.745059 1_555
Er6 S4 2.745188 1_555
Er6 S4 2.745188 1_655
Er7 S2 2.671904 1_556
Er7 S0 2.730088 1_565
Er7 S0 2.730088 1_665
Er7 S15 2.745059 1_565
Er7 S5 2.745188 1_555
Er7 S5 2.745188 1_655
