# generated using pymatgen
data_Ce2Mn2Se2O3
_symmetry_space_group_name_H-M   'P 1'
_cell_length_a   9.90095385
_cell_length_b   9.90095385
_cell_length_c   9.90095385
_cell_angle_alpha   155.79627990
_cell_angle_beta   155.79627990
_cell_angle_gamma   34.49384829
_symmetry_Int_Tables_number   1
_chemical_formula_structural   Ce2Mn2Se2O3
_chemical_formula_sum   'Ce2 Mn2 Se2 O3'
_cell_volume   162.96779123
_cell_formula_units_Z   1
loop_
 _symmetry_equiv_pos_site_id
 _symmetry_equiv_pos_as_xyz
  1  'x, y, z'
loop_
 _atom_site_type_symbol
 _atom_site_label
 _atom_site_symmetry_multiplicity
 _atom_site_fract_x
 _atom_site_fract_y
 _atom_site_fract_z
 _atom_site_occupancy
  Ce  Ce0  1  0.31132400  0.31132400  0.00000000  1
  Ce  Ce1  1  0.68867600  0.68867600  0.00000000  1
  Mn  Mn0  1  0.50000000  0.00000000  0.50000000  1
  Mn  Mn1  1  0.00000000  0.50000000  0.50000000  1
  Se  Se0  1  0.89791600  0.89791600  0.00000000  1
  Se  Se1  1  0.10208400  0.10208400  0.00000000  1
  O  O0  1  0.25000000  0.75000000  0.50000000  1
  O  O1  1  0.75000000  0.25000000  0.50000000  1
  O  O2  1  0.50000000  0.50000000  0.00000000  1
loop_
_geom_bond_atom_site_label_1
_geom_bond_atom_site_label_2
_geom_bond_distance
_geom_bond_site_symmetry_2
Ce0 O1 2.377743 1_454
Ce0 O0 2.377743 1_544
Ce0 O1 2.377743 1_555
Ce0 O0 2.377743 1_555
Ce0 Se0 3.361409 1_444
Ce0 Se0 3.361409 1_455
Ce0 Se0 3.361409 1_545
Ce0 Se0 3.361409 1_556
Ce1 O1 2.377743 1_554
Ce1 O1 2.377743 1_565
Ce1 O0 2.377743 1_554
Ce1 O0 2.377743 1_655
Ce1 Se1 3.361409 1_666
Ce1 Se1 3.361409 1_655
Ce1 Se1 3.361409 1_565
Ce1 Se1 3.361409 1_554
Mn0 O2 2.075738 1_545
Mn0 O2 2.075738 1_556
Mn0 Se1 2.834743 1_555
Mn0 Se1 2.834743 1_656
Mn0 Se0 2.834743 1_445
Mn0 Se0 2.834743 1_546
Mn1 O2 2.075738 1_455
Mn1 O2 2.075738 1_556
Mn1 Se1 2.834743 1_555
Mn1 Se1 2.834743 1_566
Mn1 Se0 2.834743 1_445
Mn1 Se0 2.834743 1_456
