# generated using pymatgen
data_TePb3
_symmetry_space_group_name_H-M   'P 1'
_cell_length_a   7.06730691
_cell_length_b   7.06730691
_cell_length_c   5.96323700
_cell_angle_alpha   90.00000000
_cell_angle_beta   90.00000000
_cell_angle_gamma   119.99998975
_symmetry_Int_Tables_number   1
_chemical_formula_structural   TePb3
_chemical_formula_sum   'Te2 Pb6'
_cell_volume   257.94116051
_cell_formula_units_Z   2
loop_
 _symmetry_equiv_pos_site_id
 _symmetry_equiv_pos_as_xyz
  1  'x, y, z'
loop_
 _atom_site_type_symbol
 _atom_site_label
 _atom_site_symmetry_multiplicity
 _atom_site_fract_x
 _atom_site_fract_y
 _atom_site_fract_z
 _atom_site_occupancy
  Te  Te0  1  0.33333300  0.66666700  0.75000000  1
  Te  Te1  1  0.66666700  0.33333300  0.25000000  1
  Pb  Pb0  1  0.16741200  0.33482400  0.25000000  1
  Pb  Pb1  1  0.66517600  0.83258800  0.25000000  1
  Pb  Pb2  1  0.16741200  0.83258800  0.25000000  1
  Pb  Pb3  1  0.83258800  0.66517600  0.75000000  1
  Pb  Pb4  1  0.33482400  0.16741200  0.75000000  1
  Pb  Pb5  1  0.83258800  0.16741200  0.75000000  1
loop_
_geom_bond_atom_site_label_1
_geom_bond_atom_site_label_2
_geom_bond_distance
_geom_bond_site_symmetry_2
Pb0 Pb2 3.517851 1_555
Pb0 Pb1 3.517851 1_555
Pb0 Te1 3.533662 1_455
Pb0 Te1 3.533669 1_555
Pb0 Pb2 3.549456 1_545
Pb0 Pb1 3.549457 1_445
Pb0 Te0 3.607652 1_554
Pb0 Te0 3.607652 1_555
Pb0 Pb4 3.617954 1_555
Pb0 Pb4 3.617954 1_554
Pb0 Pb5 3.617955 1_454
Pb0 Pb5 3.617955 1_455
Pb1 Pb2 3.517851 1_555
Pb1 Te1 3.533662 1_565
Pb1 Te1 3.533669 1_555
Pb1 Pb2 3.549456 1_655
Pb1 Te0 3.607652 1_554
Pb1 Te0 3.607652 1_555
Pb1 Pb3 3.617954 1_555
Pb1 Pb3 3.617954 1_554
Pb1 Pb5 3.617955 1_564
Pb1 Pb5 3.617955 1_565
Pb2 Te1 3.533666 1_455
Pb2 Te1 3.533666 1_565
Pb2 Te0 3.607648 1_554
Pb2 Te0 3.607648 1_555
Pb2 Pb3 3.617955 1_455
Pb2 Pb3 3.617955 1_454
Pb2 Pb4 3.617955 1_564
Pb2 Pb4 3.617955 1_565
Pb3 Pb5 3.517851 1_555
Pb3 Pb4 3.517851 1_555
Pb3 Te0 3.533662 1_655
Pb3 Te0 3.533669 1_555
Pb3 Pb5 3.549456 1_565
Pb3 Pb4 3.549457 1_665
Pb3 Te1 3.607652 1_556
Pb3 Te1 3.607652 1_555
Pb4 Pb5 3.517851 1_555
Pb4 Te0 3.533662 1_545
Pb4 Te0 3.533669 1_555
Pb4 Pb5 3.549456 1_455
Pb4 Te1 3.607652 1_556
Pb4 Te1 3.607652 1_555
Pb5 Te0 3.533666 1_545
Pb5 Te0 3.533666 1_655
Pb5 Te1 3.607648 1_555
Pb5 Te1 3.607648 1_556
