# generated using pymatgen
data_Ce2NiGe6
_symmetry_space_group_name_H-M   'P 1'
_cell_length_a   4.07451700
_cell_length_b   4.11832800
_cell_length_c   11.09284216
_cell_angle_alpha   90.00000000
_cell_angle_beta   100.58273696
_cell_angle_gamma   90.00000000
_symmetry_Int_Tables_number   1
_chemical_formula_structural   Ce2NiGe6
_chemical_formula_sum   'Ce2 Ni1 Ge6'
_cell_volume   182.97397458
_cell_formula_units_Z   1
loop_
 _symmetry_equiv_pos_site_id
 _symmetry_equiv_pos_as_xyz
  1  'x, y, z'
loop_
 _atom_site_type_symbol
 _atom_site_label
 _atom_site_symmetry_multiplicity
 _atom_site_fract_x
 _atom_site_fract_y
 _atom_site_fract_z
 _atom_site_occupancy
  Ce  Ce0  1  0.77951700  0.50000000  0.55903500  1
  Ce  Ce1  1  0.11145000  0.50000000  0.22289900  1
  Ni  Ni0  1  0.55494800  0.00000000  0.10989600  1
  Ge  Ge0  1  0.49986300  0.50000000  0.99972600  1
  Ge  Ge1  1  0.38472700  0.50000000  0.76945300  1
  Ge  Ge2  1  0.99907200  0.00000000  0.99814300  1
  Ge  Ge3  1  0.88363300  0.00000000  0.76726700  1
  Ge  Ge4  1  0.66187000  0.00000000  0.32374000  1
  Ge  Ge5  1  0.23192100  0.00000000  0.46384100  1
loop_
_geom_bond_atom_site_label_1
_geom_bond_atom_site_label_2
_geom_bond_distance
_geom_bond_site_symmetry_2
Ce0 Ge3 3.065250 1_555
Ce0 Ge3 3.065250 1_565
Ce0 Ge1 3.068358 1_555
Ce0 Ge1 3.068364 1_655
Ce0 Ge5 3.077016 1_555
Ce0 Ge5 3.077016 1_565
Ce0 Ge5 3.077021 1_655
Ce0 Ge5 3.077021 1_665
Ce0 Ge4 3.289824 1_565
Ce0 Ge4 3.289824 1_555
Ce1 Ge4 3.098332 1_555
Ce1 Ge4 3.098332 1_565
Ce1 Ge4 3.098335 1_465
Ce1 Ge4 3.098335 1_455
Ce1 Ni0 3.147840 1_555
Ce1 Ni0 3.147840 1_565
Ce1 Ni0 3.147842 1_455
Ce1 Ni0 3.147842 1_465
Ce1 Ge0 3.173705 1_554
Ce1 Ge0 3.173708 1_454
Ce1 Ge2 3.201009 1_464
Ce1 Ge2 3.201009 1_454
Ce1 Ge5 3.338069 1_555
Ce1 Ge5 3.338069 1_565
Ge0 Ni0 2.383968 1_566
Ge0 Ni0 2.383968 1_556
Ge0 Ge1 2.510934 1_555
Ge0 Ge2 2.896700 1_455
Ge0 Ge2 2.896700 1_465
Ge0 Ge2 2.896702 1_565
Ge0 Ge2 2.896702 1_555
Ge1 Ge3 2.896745 1_555
Ge1 Ge3 2.896745 1_565
Ge1 Ge3 2.896750 1_455
Ge1 Ge3 2.896750 1_465
Ge2 Ni0 2.373886 1_656
Ge2 Ni0 2.373889 1_556
Ge2 Ge3 2.517509 1_555
Ge4 Ni0 2.331789 1_555
Ge4 Ge5 2.546415 1_555
Ge4 Ge5 2.546419 1_655
