# generated using pymatgen
data_ScSi7Rh3
_symmetry_space_group_name_H-M   'P 1'
_cell_length_a   7.92077233
_cell_length_b   7.92077233
_cell_length_c   7.92077284
_cell_angle_alpha   57.07655033
_cell_angle_beta   57.07655033
_cell_angle_gamma   57.07654803
_symmetry_Int_Tables_number   1
_chemical_formula_structural   ScSi7Rh3
_chemical_formula_sum   'Sc2 Si14 Rh6'
_cell_volume   327.71114296
_cell_formula_units_Z   2
loop_
 _symmetry_equiv_pos_site_id
 _symmetry_equiv_pos_as_xyz
  1  'x, y, z'
loop_
 _atom_site_type_symbol
 _atom_site_label
 _atom_site_symmetry_multiplicity
 _atom_site_fract_x
 _atom_site_fract_y
 _atom_site_fract_z
 _atom_site_occupancy
  Sc  Sc0  1  0.00000000  0.00000000  0.00000000  1
  Sc  Sc1  1  0.50000000  0.50000000  0.50000000  1
  Si  Si0  1  0.75000000  0.75000000  0.75000000  1
  Si  Si1  1  0.25000000  0.25000000  0.25000000  1
  Si  Si2  1  0.85152500  0.06639400  0.67232900  1
  Si  Si3  1  0.67232900  0.85152500  0.06639400  1
  Si  Si4  1  0.06639400  0.67232900  0.85152500  1
  Si  Si5  1  0.64847500  0.82767100  0.43360600  1
  Si  Si6  1  0.43360600  0.64847500  0.82767100  1
  Si  Si7  1  0.82767100  0.43360600  0.64847500  1
  Si  Si8  1  0.17232900  0.56639400  0.35152500  1
  Si  Si9  1  0.56639400  0.35152500  0.17232900  1
  Si  Si10  1  0.35152500  0.17232900  0.56639400  1
  Si  Si11  1  0.93360600  0.32767100  0.14847500  1
  Si  Si12  1  0.32767100  0.14847500  0.93360600  1
  Si  Si13  1  0.14847500  0.93360600  0.32767100  1
  Rh  Rh0  1  0.07203100  0.42796900  0.75000000  1
  Rh  Rh1  1  0.25000000  0.92796900  0.57203100  1
  Rh  Rh2  1  0.57203100  0.25000000  0.92796900  1
  Rh  Rh3  1  0.92796900  0.57203100  0.25000000  1
  Rh  Rh4  1  0.42796900  0.75000000  0.07203100  1
  Rh  Rh5  1  0.75000000  0.07203100  0.42796900  1
loop_
_geom_bond_atom_site_label_1
_geom_bond_atom_site_label_2
_geom_bond_distance
_geom_bond_site_symmetry_2
Sc0 Si12 3.091557 1_554
Sc0 Si3 3.091557 1_445
Sc0 Si11 3.091557 1_455
Sc0 Si4 3.091557 1_544
Sc0 Si13 3.091557 1_545
Sc0 Si2 3.091557 1_454
Sc0 Si6 3.170442 1_544
Sc0 Si9 3.170442 1_455
Sc0 Si8 3.170442 1_545
Sc0 Si7 3.170442 1_454
Sc0 Si5 3.170442 1_445
Sc0 Si10 3.170442 1_554
Sc1 Si10 3.091557 1_555
Sc1 Si5 3.091557 1_555
Sc1 Si8 3.091557 1_555
Sc1 Si7 3.091557 1_555
Sc1 Si9 3.091557 1_555
Sc1 Si6 3.091557 1_555
Sc1 Si2 3.170442 1_555
Sc1 Si13 3.170442 1_555
Sc1 Si4 3.170442 1_555
Sc1 Si11 3.170442 1_555
Sc1 Si3 3.170442 1_555
Sc1 Si12 3.170442 1_555
Rh0 Si0 2.437205 1_455
Rh0 Si12 2.438136 1_555
Rh0 Si10 2.438136 1_555
Rh0 Si4 2.440052 1_555
Rh0 Si7 2.440052 1_455
Rh0 Si11 2.500898 1_456
Rh0 Si8 2.500898 1_555
Rh0 Sc0 3.052084 1_556
Rh0 Sc1 3.052084 1_555
Rh1 Si1 2.437205 1_565
Rh1 Si6 2.438136 1_555
Rh1 Si4 2.438136 1_555
Rh1 Si10 2.440052 1_565
Rh1 Si13 2.440053 1_555
Rh1 Si2 2.500897 1_465
Rh1 Si5 2.500897 1_555
Rh1 Sc1 3.052083 1_555
Rh1 Sc0 3.052084 1_566
Rh2 Si1 2.437205 1_556
Rh2 Si2 2.438136 1_555
Rh2 Si7 2.438136 1_555
Rh2 Si12 2.440052 1_555
Rh2 Si9 2.440053 1_556
Rh2 Si6 2.500897 1_555
Rh2 Si3 2.500897 1_546
Rh2 Sc0 3.052083 1_656
Rh2 Sc1 3.052084 1_555
Rh3 Si1 2.437205 1_655
Rh3 Si3 2.438136 1_555
Rh3 Si5 2.438136 1_555
Rh3 Si8 2.440052 1_655
Rh3 Si11 2.440052 1_555
Rh3 Si4 2.500898 1_654
Rh3 Si7 2.500898 1_555
Rh3 Sc0 3.052084 1_665
Rh3 Sc1 3.052084 1_555
Rh4 Si0 2.437205 1_554
Rh4 Si13 2.438136 1_555
Rh4 Si8 2.438136 1_555
Rh4 Si3 2.440052 1_555
Rh4 Si6 2.440053 1_554
Rh4 Si9 2.500897 1_555
Rh4 Si12 2.500897 1_564
Rh4 Sc0 3.052083 1_565
Rh4 Sc1 3.052084 1_555
Rh5 Si0 2.437205 1_545
Rh5 Si9 2.438136 1_555
Rh5 Si11 2.438136 1_555
Rh5 Si5 2.440052 1_545
Rh5 Si2 2.440053 1_555
Rh5 Si13 2.500897 1_645
Rh5 Si10 2.500897 1_555
Rh5 Sc1 3.052083 1_555
Rh5 Sc0 3.052084 1_655
