# generated using pymatgen
data_CaNdGa3O7
_symmetry_space_group_name_H-M   'P 1'
_cell_length_a   7.98476684
_cell_length_b   7.98476684
_cell_length_c   5.28497500
_cell_angle_alpha   90.00000000
_cell_angle_beta   90.00000000
_cell_angle_gamma   90.55524351
_symmetry_Int_Tables_number   1
_chemical_formula_structural   CaNdGa3O7
_chemical_formula_sum   'Ca2 Nd2 Ga6 O14'
_cell_volume   336.93569473
_cell_formula_units_Z   2
loop_
 _symmetry_equiv_pos_site_id
 _symmetry_equiv_pos_as_xyz
  1  'x, y, z'
loop_
 _atom_site_type_symbol
 _atom_site_label
 _atom_site_symmetry_multiplicity
 _atom_site_fract_x
 _atom_site_fract_y
 _atom_site_fract_z
 _atom_site_occupancy
  Ca  Ca0  1  0.66025600  0.66025600  0.48234400  1
  Ca  Ca1  1  0.33974400  0.33974400  0.48234400  1
  Nd  Nd0  1  0.83706400  0.16293600  0.50976300  1
  Nd  Nd1  1  0.16293600  0.83706400  0.50976300  1
  Ga  Ga0  1  0.50000000  0.00000000  0.00489600  1
  Ga  Ga1  1  0.00000000  0.50000000  0.00489600  1
  Ga  Ga2  1  0.85419300  0.85419300  0.03498200  1
  Ga  Ga3  1  0.64257500  0.35742500  0.96182800  1
  Ga  Ga4  1  0.14580700  0.14580700  0.03498200  1
  Ga  Ga5  1  0.35742500  0.64257500  0.96182800  1
  O  O0  1  0.86604500  0.86604500  0.69155300  1
  O  O1  1  0.64451400  0.35548600  0.30488200  1
  O  O2  1  0.13395500  0.13395500  0.69155300  1
  O  O3  1  0.35548600  0.64451400  0.30488200  1
  O  O4  1  0.66246900  0.91351400  0.21616500  1
  O  O5  1  0.84356800  0.40398200  0.78907500  1
  O  O6  1  0.33753100  0.08648600  0.21616500  1
  O  O7  1  0.15643200  0.59601800  0.78907500  1
  O  O8  1  0.40398200  0.84356800  0.78907500  1
  O  O9  1  0.08648600  0.33753100  0.21616500  1
  O  O10  1  0.59601800  0.15643200  0.78907500  1
  O  O11  1  0.91351400  0.66246900  0.21616500  1
  O  O12  1  0.50000000  0.50000000  0.79240100  1
  O  O13  1  0.00000000  0.00000000  0.20614400  1
loop_
_geom_bond_atom_site_label_1
_geom_bond_atom_site_label_2
_geom_bond_distance
_geom_bond_site_symmetry_2
Ca0 O12 2.434790 1_555
Ca0 O4 2.463307 1_555
Ca0 O11 2.463307 1_555
Ca0 O0 2.563245 1_555
Ca0 O3 2.609885 1_555
Ca0 O1 2.609885 1_555
Ca0 O8 3.002603 1_555
Ca0 O5 3.002603 1_555
Ca1 O12 2.434790 1_555
Ca1 O6 2.463307 1_555
Ca1 O9 2.463307 1_555
Ca1 O2 2.563245 1_555
Ca1 O3 2.609885 1_555
Ca1 O1 2.609885 1_555
Ca1 O10 3.002603 1_555
Ca1 O7 3.002603 1_555
Nd0 O10 2.425748 1_555
Nd0 O5 2.425748 1_555
Nd0 O1 2.438413 1_555
Nd0 O13 2.448028 1_655
Nd0 O2 2.570409 1_655
Nd0 O0 2.570409 1_545
Nd0 O4 2.874669 1_545
Nd0 O9 2.874669 1_655
Nd1 O7 2.425748 1_555
Nd1 O8 2.425748 1_555
Nd1 O3 2.438413 1_555
Nd1 O13 2.448028 1_565
Nd1 O0 2.570409 1_455
Nd1 O2 2.570409 1_565
Nd1 O11 2.874669 1_455
Nd1 O6 2.874669 1_565
Ga0 O4 1.850369 1_545
Ga0 O6 1.850369 1_555
Ga0 O10 1.852137 1_554
Ga0 O8 1.852137 1_544
Ga1 O9 1.850369 1_555
Ga1 O11 1.850369 1_455
Ga1 O5 1.852137 1_454
Ga1 O7 1.852137 1_554
Ga2 O0 1.819894 1_554
Ga2 O11 1.870528 1_555
Ga2 O4 1.870528 1_555
Ga2 O13 1.871602 1_665
Ga3 O1 1.813165 1_556
Ga3 O12 1.849034 1_555
Ga3 O5 1.880383 1_555
Ga3 O10 1.880383 1_555
Ga4 O2 1.819894 1_554
Ga4 O6 1.870528 1_555
Ga4 O9 1.870528 1_555
Ga4 O13 1.871602 1_555
Ga5 O3 1.813165 1_556
Ga5 O12 1.849034 1_555
Ga5 O8 1.880383 1_555
Ga5 O7 1.880383 1_555
