# generated using pymatgen
data_V2Bi4O11
_symmetry_space_group_name_H-M   'P 1'
_cell_length_a   5.81577916
_cell_length_b   8.08842245
_cell_length_c   17.04325436
_cell_angle_alpha   88.90910923
_cell_angle_beta   89.60703872
_cell_angle_gamma   109.51888502
_symmetry_Int_Tables_number   1
_chemical_formula_structural   V2Bi4O11
_chemical_formula_sum   'V6 Bi12 O33'
_cell_volume   755.43766562
_cell_formula_units_Z   3
loop_
 _symmetry_equiv_pos_site_id
 _symmetry_equiv_pos_as_xyz
  1  'x, y, z'
loop_
 _atom_site_type_symbol
 _atom_site_label
 _atom_site_symmetry_multiplicity
 _atom_site_fract_x
 _atom_site_fract_y
 _atom_site_fract_z
 _atom_site_occupancy
  V  V0  1  0.66775500  0.99817900  0.06447200  1
  V  V1  1  0.32910900  0.00004600  0.93301600  1
  V  V2  1  0.30823700  0.99231900  0.23425800  1
  V  V3  1  0.69890900  0.01486300  0.76354500  1
  V  V4  1  0.87705000  0.02564900  0.43121000  1
  V  V5  1  0.19700400  0.03083100  0.56408100  1
  Bi  Bi0  1  0.63918800  0.68643400  0.24698000  1
  Bi  Bi1  1  0.01914100  0.64660400  0.75618300  1
  Bi  Bi2  1  0.39607800  0.35256000  0.08827300  1
  Bi  Bi3  1  0.96016300  0.33102700  0.92455400  1
  Bi  Bi4  1  0.98079600  0.36173300  0.25253500  1
  Bi  Bi5  1  0.34971900  0.31969500  0.75537900  1
  Bi  Bi6  1  0.12172700  0.68347500  0.40899500  1
  Bi  Bi7  1  0.53544500  0.66306200  0.58797300  1
  Bi  Bi8  1  0.49162600  0.37599200  0.42368500  1
  Bi  Bi9  1  0.85356000  0.33791400  0.58871400  1
  Bi  Bi10  1  0.03288800  0.66506400  0.07981200  1
  Bi  Bi11  1  0.59828600  0.64709500  0.91677200  1
  O  O0  1  0.33915500  0.99143600  0.04439600  1
  O  O1  1  0.65712600  0.00715700  0.95240200  1
  O  O2  1  0.27988100  0.51844400  0.32999200  1
  O  O3  1  0.20964700  0.48502200  0.67184700  1
  O  O4  1  0.80064200  0.20914700  0.40960500  1
  O  O5  1  0.45477900  0.23355800  0.54923400  1
  O  O6  1  0.71617900  0.80066000  0.07085400  1
  O  O7  1  0.08505800  0.81029200  0.92395700  1
  O  O8  1  0.56605500  0.00028000  0.17411800  1
  O  O9  1  0.43872100  0.00731900  0.82182800  1
  O  O10  1  0.36436900  0.91692600  0.32323800  1
  O  O11  1  0.65162200  0.09077700  0.67339400  1
  O  O12  1  0.27513300  0.19821000  0.23747400  1
  O  O13  1  0.95433400  0.17716300  0.80059100  1
  O  O14  1  0.78418900  0.85160200  0.36951900  1
  O  O15  1  0.14059000  0.05499300  0.65935300  1
  O  O16  1  0.74701600  0.47866600  0.83739900  1
  O  O17  1  0.73378700  0.49400400  0.16541400  1
  O  O18  1  0.29804500  0.52831000  0.49329600  1
  O  O19  1  0.81796500  0.53793600  0.32452600  1
  O  O20  1  0.72639500  0.49366000  0.67137600  1
  O  O21  1  0.04346800  0.83443000  0.20066100  1
  O  O22  1  0.72439200  0.80541500  0.76350900  1
  O  O23  1  0.78634800  0.54891000  0.50503700  1
  O  O24  1  0.73025300  0.48173700  0.00174200  1
  O  O25  1  0.26603800  0.51532200  0.00042800  1
  O  O26  1  0.91915600  0.18453200  0.06978800  1
  O  O27  1  0.27421200  0.19531900  0.92552900  1
  O  O28  1  0.24171700  0.52156100  0.16361600  1
  O  O29  1  0.25807400  0.50825900  0.83663700  1
  O  O30  1  0.19248600  0.08822100  0.43616800  1
  O  O31  1  0.84731500  0.95908000  0.53428400  1
  O  O32  1  0.27817200  0.84711200  0.55535000  1
loop_
_geom_bond_atom_site_label_1
_geom_bond_atom_site_label_2
_geom_bond_distance
_geom_bond_site_symmetry_2
Bi0 O19 2.250189 1_555
Bi0 O17 2.302578 1_555
Bi0 O21 2.375308 1_655
Bi0 O2 2.490670 1_555
Bi0 O14 2.497027 1_555
Bi0 O28 2.682872 1_555
Bi1 O16 2.174302 1_455
Bi1 O20 2.283108 1_455
Bi1 O3 2.453352 1_555
Bi1 O29 2.463745 1_555
Bi1 O22 2.465493 1_455
Bi2 O25 2.269892 1_555
Bi2 O28 2.279125 1_555
Bi2 O17 2.342229 1_555
Bi2 O24 2.364075 1_555
Bi2 O26 2.673742 1_455
Bi2 O12 2.790582 1_555
Bi3 O25 2.322010 1_656
Bi3 O29 2.350517 1_655
Bi3 O27 2.424961 1_655
Bi3 O13 2.467087 1_555
Bi3 O16 2.473058 1_555
Bi3 O24 2.476000 1_556
Bi3 O1 2.655126 1_555
Bi3 O26 2.697999 1_556
Bi4 O28 2.203072 1_655
Bi4 O2 2.235361 1_655
Bi4 O19 2.320767 1_555
Bi4 O12 2.503074 1_655
Bi4 O17 2.531557 1_555
Bi5 O29 2.267538 1_555
Bi5 O3 2.269355 1_555
Bi5 O13 2.319659 1_455
Bi5 O20 2.578587 1_555
Bi5 O16 2.659639 1_555
Bi5 O15 2.676249 1_555
Bi6 O19 2.299769 1_455
Bi6 O2 2.304924 1_555
Bi6 O18 2.345730 1_555
Bi6 O10 2.403974 1_555
Bi6 O23 2.477528 1_455
Bi7 O18 2.188573 1_555
Bi7 O3 2.401768 1_555
Bi7 O23 2.429289 1_555
Bi7 O20 2.468915 1_555
Bi7 O32 2.496471 1_555
Bi7 O31 2.617565 1_555
Bi8 O18 2.270919 1_555
Bi8 O23 2.306721 1_555
Bi8 O5 2.384667 1_555
Bi8 O30 2.399962 1_555
Bi8 O2 2.509790 1_555
Bi8 O19 2.526734 1_555
Bi8 O4 2.595318 1_555
Bi9 O20 2.189646 1_555
Bi9 O5 2.297586 1_555
Bi9 O23 2.336656 1_555
Bi9 O11 2.399188 1_555
Bi9 O3 2.483913 1_655
Bi10 O17 2.312740 1_455
Bi10 O24 2.330287 1_455
Bi10 O28 2.401034 1_555
Bi10 O6 2.442585 1_455
Bi10 O21 2.485049 1_555
Bi10 O25 2.504141 1_555
Bi10 O0 2.699666 1_555
Bi11 O24 2.258879 1_556
Bi11 O16 2.296885 1_555
Bi11 O25 2.330377 1_556
Bi11 O29 2.377377 1_555
Bi11 O7 2.699172 1_655
O0 V1 1.900244 1_564
O0 V0 1.926719 1_555
O1 V0 1.912244 1_546
O1 V1 1.920350 1_555
O4 V4 1.719911 1_555
O5 V5 1.826633 1_555
O6 V0 1.714055 1_555
O7 V1 1.717659 1_565
O8 V2 1.793003 1_545
O8 V0 1.958320 1_545
O9 V3 1.787615 1_555
O9 V1 1.988721 1_555
O10 V2 1.697894 1_555
O11 V3 1.701793 1_555
O12 V2 1.740973 1_545
O13 V3 1.752132 1_555
O14 V4 1.713198 1_565
O15 V5 1.682263 1_555
O21 V2 1.748071 1_555
O22 V3 1.749219 1_565
O26 V0 1.718206 1_545
O27 V1 1.715440 1_555
O30 V4 1.735519 1_455
O30 V5 2.222432 1_555
O31 V4 1.817545 1_565
O31 V5 1.991831 1_665
O32 V5 1.711540 1_565
