# generated using pymatgen
data_TbCdAu
_symmetry_space_group_name_H-M   'P 1'
_cell_length_a   7.69960491
_cell_length_b   7.69960491
_cell_length_c   3.97343422
_cell_angle_alpha   90.00000000
_cell_angle_beta   90.00000000
_cell_angle_gamma   120.00000406
_symmetry_Int_Tables_number   1
_chemical_formula_structural   TbCdAu
_chemical_formula_sum   'Tb3 Cd3 Au3'
_cell_volume   204.00157644
_cell_formula_units_Z   3
loop_
 _symmetry_equiv_pos_site_id
 _symmetry_equiv_pos_as_xyz
  1  'x, y, z'
loop_
 _atom_site_type_symbol
 _atom_site_label
 _atom_site_symmetry_multiplicity
 _atom_site_fract_x
 _atom_site_fract_y
 _atom_site_fract_z
 _atom_site_occupancy
  Tb  Tb0  1  0.59425040  0.00000000  0.00000000  1
  Tb  Tb1  1  0.00000000  0.59425040  0.00000000  1
  Tb  Tb2  1  0.40574960  0.40574960  -0.00000000  1
  Cd  Cd0  1  0.25836655  -0.00000000  0.50000000  1
  Cd  Cd1  1  -0.00000000  0.25836655  0.50000000  1
  Cd  Cd2  1  0.74163345  0.74163345  0.50000000  1
  Au  Au0  1  0.33333300  0.66666700  0.50000000  1
  Au  Au1  1  0.66666700  0.33333300  0.50000000  1
  Au  Au2  1  0.00000000  0.00000000  -0.00000000  1
loop_
_geom_bond_atom_site_label_1
_geom_bond_atom_site_label_2
_geom_bond_distance
_geom_bond_site_symmetry_2
Cd0 Tb0 3.261186 1_555
Cd0 Tb0 3.261186 1_556
Cd0 Tb1 3.383734 1_546
Cd0 Tb1 3.383734 1_545
Cd0 Tb2 3.383734 1_555
Cd0 Tb2 3.383734 1_556
Cd1 Tb1 3.261186 1_555
Cd1 Tb1 3.261186 1_556
Cd1 Tb0 3.383734 1_456
Cd1 Tb0 3.383734 1_455
Cd1 Tb2 3.383734 1_555
Cd1 Tb2 3.383734 1_556
Cd2 Tb2 3.261186 1_555
Cd2 Tb2 3.261186 1_556
Cd2 Tb1 3.383734 1_656
Cd2 Tb1 3.383734 1_655
Cd2 Tb0 3.383734 1_565
Cd2 Tb0 3.383734 1_566
Au0 Cd0 2.898568 1_565
Au0 Cd1 2.898573 1_555
Au0 Cd2 2.898575 1_555
Au0 Tb1 3.068221 1_555
Au0 Tb1 3.068221 1_556
Au0 Tb0 3.068223 1_565
Au0 Tb0 3.068223 1_566
Au0 Tb2 3.068227 1_556
Au0 Tb2 3.068227 1_555
Au1 Cd1 2.898568 1_655
Au1 Cd0 2.898573 1_555
Au1 Cd2 2.898575 1_555
Au1 Tb0 3.068221 1_555
Au1 Tb0 3.068221 1_556
Au1 Tb1 3.068223 1_656
Au1 Tb1 3.068223 1_655
Au1 Tb2 3.068227 1_556
Au1 Tb2 3.068227 1_555
Au2 Cd2 2.811484 1_445
Au2 Cd2 2.811484 1_444
Au2 Cd1 2.811484 1_555
Au2 Cd0 2.811484 1_554
Au2 Cd0 2.811484 1_555
Au2 Cd1 2.811484 1_554
Au2 Tb2 3.124111 1_555
Au2 Tb1 3.124112 1_545
Au2 Tb0 3.124112 1_455
