# generated using pymatgen
data_Zr2CoCu
_symmetry_space_group_name_H-M   'P 1'
_cell_length_a   11.54469960
_cell_length_b   11.54469960
_cell_length_c   11.54469960
_cell_angle_alpha   130.02596450
_cell_angle_beta   115.50426366
_cell_angle_gamma   85.77272491
_symmetry_Int_Tables_number   1
_chemical_formula_structural   Zr2CoCu
_chemical_formula_sum   'Zr2 Co1 Cu1'
_cell_volume   1016.42699793
_cell_formula_units_Z   1
loop_
 _symmetry_equiv_pos_site_id
 _symmetry_equiv_pos_as_xyz
  1  'x, y, z'
loop_
 _atom_site_type_symbol
 _atom_site_label
 _atom_site_symmetry_multiplicity
 _atom_site_fract_x
 _atom_site_fract_y
 _atom_site_fract_z
 _atom_site_occupancy
  Zr  Zr0  1  0.00000000  0.22587700  0.22587700  1
  Zr  Zr1  1  0.00000000  0.77412300  0.77412300  1
  Co  Co0  1  0.00000000  0.00000000  0.00000000  1
  Cu  Cu0  1  0.00000000  0.50000000  0.50000000  1
loop_
_geom_bond_atom_site_label_1
_geom_bond_atom_site_label_2
_geom_bond_distance
_geom_bond_site_symmetry_2
Co0 Zr0 2.203037 1_555
Co0 Zr1 2.203037 1_544
Cu0 Zr1 2.673593 1_555
Cu0 Zr0 2.673593 1_555
