# generated using pymatgen
data_ErAlB4
_symmetry_space_group_name_H-M   'P 1'
_cell_length_a   3.52515274
_cell_length_b   5.91872138
_cell_length_c   11.47575391
_cell_angle_alpha   90.00000000
_cell_angle_beta   90.00000000
_cell_angle_gamma   90.00000000
_symmetry_Int_Tables_number   1
_chemical_formula_structural   ErAlB4
_chemical_formula_sum   'Er4 Al4 B16'
_cell_volume   239.43468419
_cell_formula_units_Z   4
loop_
 _symmetry_equiv_pos_site_id
 _symmetry_equiv_pos_as_xyz
  1  'x, y, z'
loop_
 _atom_site_type_symbol
 _atom_site_label
 _atom_site_symmetry_multiplicity
 _atom_site_fract_x
 _atom_site_fract_y
 _atom_site_fract_z
 _atom_site_occupancy
  Er  Er0  1  0.50000000  0.37155716  0.15007147  1
  Er  Er1  1  0.50000000  0.62844284  0.84992853  1
  Er  Er2  1  0.50000000  0.12844284  0.65007147  1
  Er  Er3  1  0.50000000  0.87155716  0.34992853  1
  Al  Al0  1  0.50000000  0.36267352  0.40991692  1
  Al  Al1  1  0.50000000  0.63732648  0.59008308  1
  Al  Al2  1  0.50000000  0.13732648  0.90991692  1
  Al  Al3  1  0.50000000  0.86267352  0.09008308  1
  B  B0  1  -0.00000000  0.11409365  0.04704461  1
  B  B1  1  -0.00000000  0.88590635  0.95295539  1
  B  B2  1  -0.00000000  0.38590635  0.54704461  1
  B  B3  1  0.00000000  0.61409365  0.45295539  1
  B  B4  1  -0.00000000  0.13331659  0.46923775  1
  B  B5  1  0.00000000  0.86668341  0.53076225  1
  B  B6  1  0.00000000  0.36668341  0.96923775  1
  B  B7  1  0.00000000  0.63331659  0.03076225  1
  B  B8  1  0.00000000  0.02695546  0.19262359  1
  B  B9  1  0.00000000  0.97304454  0.80737641  1
  B  B10  1  -0.00000000  0.47304454  0.69262359  1
  B  B11  1  -0.00000000  0.52695546  0.30737641  1
  B  B12  1  -0.00000000  0.21069908  0.31254263  1
  B  B13  1  -0.00000000  0.78930092  0.68745737  1
  B  B14  1  0.00000000  0.28930092  0.81254263  1
  B  B15  1  0.00000000  0.71069908  0.18745737  1
loop_
_geom_bond_atom_site_label_1
_geom_bond_atom_site_label_2
_geom_bond_distance
_geom_bond_site_symmetry_2
Al0 B12 2.272542 1_555
Al0 B12 2.272542 1_655
Al0 B4 2.326565 1_555
Al0 B4 2.326565 1_655
Al0 B11 2.331697 1_655
Al0 B11 2.331697 1_555
Al0 B3 2.359027 1_555
Al0 B3 2.359027 1_655
Al0 B2 2.366841 1_555
Al0 B2 2.366841 1_655
Al1 B13 2.272542 1_555
Al1 B13 2.272542 1_655
Al1 B5 2.326565 1_555
Al1 B5 2.326565 1_655
Al1 B10 2.331697 1_555
Al1 B10 2.331697 1_655
Al1 B2 2.359027 1_555
Al1 B2 2.359027 1_655
Al1 B3 2.366841 1_555
Al1 B3 2.366841 1_655
Al2 B14 2.272542 1_555
Al2 B14 2.272542 1_655
Al2 B6 2.326565 1_655
Al2 B6 2.326565 1_555
Al2 B9 2.331697 1_645
Al2 B9 2.331697 1_545
Al2 B1 2.359027 1_645
Al2 B1 2.359027 1_545
Al2 B0 2.366841 1_656
Al2 B0 2.366841 1_556
Al3 B15 2.272542 1_655
Al3 B15 2.272542 1_555
Al3 B7 2.326565 1_555
Al3 B7 2.326565 1_655
Al3 B8 2.331697 1_565
Al3 B8 2.331697 1_665
Al3 B0 2.359027 1_565
Al3 B0 2.359027 1_665
Al3 B1 2.366841 1_554
Al3 B1 2.366841 1_654
B0 B1 1.729135 1_544
B0 B6 1.741352 1_554
B0 B8 1.748426 1_555
B0 Er0 2.612789 1_555
B0 Er0 2.612789 1_455
B1 B7 1.741352 1_556
B1 B9 1.748426 1_555
B1 Er1 2.612789 1_455
B1 Er1 2.612789 1_555
B2 B3 1.729135 1_555
B2 B4 1.741352 1_555
B2 Er2 2.612789 1_455
B2 Er2 2.612789 1_555
B3 B5 1.741352 1_555
B3 Er3 2.612789 1_455
B3 Er3 2.612789 1_555
B4 B5 1.728866 1_545
B4 Er3 2.716902 1_545
B4 Er3 2.716902 1_445
B4 Er2 2.722862 1_555
B4 Er2 2.722862 1_455
B5 Er2 2.716902 1_465
B5 Er2 2.716902 1_565
B5 Er3 2.722862 1_555
B5 Er3 2.722862 1_455
B6 B7 1.728866 1_556
B6 Er1 2.716902 1_555
B6 Er1 2.716902 1_455
B6 Er0 2.722862 1_456
B6 Er0 2.722862 1_556
B7 Er0 2.716902 1_555
B7 Er0 2.716902 1_455
B7 Er1 2.722862 1_554
B7 Er1 2.722862 1_454
B8 Er3 2.685396 1_545
B8 Er3 2.685396 1_445
B8 Er0 2.739544 1_555
B8 Er0 2.739544 1_455
B9 Er2 2.685396 1_465
B9 Er2 2.685396 1_565
B9 Er1 2.739544 1_555
B9 Er1 2.739544 1_455
B10 B2 1.748426 1_555
B10 B14 1.754006 1_555
B10 B13 1.872772 1_555
B10 Er1 2.685396 1_555
B10 Er1 2.685396 1_455
B10 Er2 2.739544 1_455
B10 Er2 2.739544 1_555
B11 B3 1.748426 1_555
B11 B15 1.754006 1_555
B11 B12 1.872772 1_555
B11 Er0 2.685396 1_555
B11 Er0 2.685396 1_455
B11 Er3 2.739544 1_455
B11 Er3 2.739544 1_555
B12 B8 1.754006 1_555
B12 B4 1.855606 1_555
B12 Er3 2.705539 1_445
B12 Er3 2.705539 1_545
B12 Er0 2.736677 1_455
B12 Er0 2.736677 1_555
B13 B9 1.754006 1_555
B13 B5 1.855606 1_555
B13 Er2 2.705539 1_465
B13 Er2 2.705539 1_565
B13 Er1 2.736677 1_555
B13 Er1 2.736677 1_455
B14 B6 1.855606 1_555
B14 B9 1.872772 1_545
B14 Er1 2.705539 1_455
B14 Er1 2.705539 1_555
B14 Er2 2.736677 1_555
B14 Er2 2.736677 1_455
B15 B7 1.855606 1_555
B15 B8 1.872772 1_565
B15 Er0 2.705539 1_455
B15 Er0 2.705539 1_555
B15 Er3 2.736677 1_555
B15 Er3 2.736677 1_455
