# generated using pymatgen
data_SmSiRu2C
_symmetry_space_group_name_H-M   'P 1'
_cell_length_a   5.89663145
_cell_length_b   5.89663145
_cell_length_c   7.21526900
_cell_angle_alpha   90.00000000
_cell_angle_beta   90.00000000
_cell_angle_gamma   141.50595347
_symmetry_Int_Tables_number   1
_chemical_formula_structural   SmSiRu2C
_chemical_formula_sum   'Sm2 Si2 Ru4 C2'
_cell_volume   156.15407597
_cell_formula_units_Z   2
loop_
 _symmetry_equiv_pos_site_id
 _symmetry_equiv_pos_as_xyz
  1  'x, y, z'
loop_
 _atom_site_type_symbol
 _atom_site_label
 _atom_site_symmetry_multiplicity
 _atom_site_fract_x
 _atom_site_fract_y
 _atom_site_fract_z
 _atom_site_occupancy
  Sm  Sm0  1  0.54749500  0.45250500  0.25000000  1
  Sm  Sm1  1  0.45250500  0.54749500  0.75000000  1
  Si  Si0  1  0.26896200  0.73103800  0.25000000  1
  Si  Si1  1  0.73103800  0.26896200  0.75000000  1
  Ru  Ru0  1  0.83538900  0.16461100  0.05834400  1
  Ru  Ru1  1  0.16461100  0.83538900  0.94165600  1
  Ru  Ru2  1  0.16461100  0.83538900  0.55834400  1
  Ru  Ru3  1  0.83538900  0.16461100  0.44165600  1
  C  C0  1  0.00000000  0.00000000  0.00000000  1
  C  C1  1  0.00000000  0.00000000  0.50000000  1
loop_
_geom_bond_atom_site_label_1
_geom_bond_atom_site_label_2
_geom_bond_distance
_geom_bond_site_symmetry_2
Si0 Sm0 3.101212 1_555
Si0 Sm0 3.139840 1_565
Si0 Sm0 3.139840 1_455
Si1 Sm1 3.101212 1_555
Si1 Sm1 3.139840 1_655
Si1 Sm1 3.139840 1_545
Ru0 Si0 2.497509 1_655
Ru0 Si0 2.497509 1_545
Ru0 Si1 2.509895 1_554
Ru1 Si1 2.497509 1_565
Ru1 Si1 2.497509 1_455
Ru1 Si0 2.509895 1_556
Ru2 Si1 2.497509 1_565
Ru2 Si1 2.497509 1_455
Ru2 Si0 2.509895 1_555
Ru3 Si0 2.497509 1_655
Ru3 Si0 2.497509 1_545
Ru3 Si1 2.509895 1_555
C0 Ru1 1.880518 1_544
C0 Ru0 1.880518 1_455
C0 Sm0 2.704008 1_555
C0 Sm1 2.704008 1_554
C0 Sm0 2.704008 1_445
C0 Sm1 2.704008 1_444
C1 Ru2 1.880518 1_545
C1 Ru3 1.880518 1_455
C1 Sm0 2.704008 1_555
C1 Sm1 2.704008 1_555
C1 Sm1 2.704008 1_445
C1 Sm0 2.704008 1_445
