# generated using pymatgen
data_Ba2MgNb6(NO7)2
_symmetry_space_group_name_H-M   'P 1'
_cell_length_a   9.11069723
_cell_length_b   10.65507294
_cell_length_c   3.98537704
_cell_angle_alpha   79.20548132
_cell_angle_beta   89.99816094
_cell_angle_gamma   88.66237015
_symmetry_Int_Tables_number   1
_chemical_formula_structural   Ba2MgNb6(NO7)2
_chemical_formula_sum   'Ba2 Mg1 Nb6 N2 O14'
_cell_volume   379.92798241
_cell_formula_units_Z   1
loop_
 _symmetry_equiv_pos_site_id
 _symmetry_equiv_pos_as_xyz
  1  'x, y, z'
loop_
 _atom_site_type_symbol
 _atom_site_label
 _atom_site_symmetry_multiplicity
 _atom_site_fract_x
 _atom_site_fract_y
 _atom_site_fract_z
 _atom_site_occupancy
  Ba  Ba0  1  0.24949600  0.95989600  0.01743500  1
  Ba  Ba1  1  0.75352000  0.02373800  0.98650400  1
  Mg  Mg0  1  0.93171500  0.44393100  0.77621900  1
  Nb  Nb0  1  0.05010900  0.25919800  0.36877500  1
  Nb  Nb1  1  0.26719000  0.47423000  0.76101200  1
  Nb  Nb2  1  0.43798000  0.25938800  0.36853500  1
  Nb  Nb3  1  0.56771100  0.73789400  0.62892600  1
  Nb  Nb4  1  0.72402000  0.52824400  0.23387300  1
  Nb  Nb5  1  0.94156100  0.73685400  0.62955900  1
  N  N0  1  0.75452500  0.57941200  0.70829300  1
  N  N1  1  0.89268300  0.40164000  0.29729200  1
  O  O0  1  0.08018000  0.86266500  0.56620600  1
  O  O1  1  0.08790200  0.29938800  0.84863900  1
  O  O2  1  0.08700100  0.57767700  0.70926000  1
  O  O3  1  0.25359300  0.42364600  0.28633600  1
  O  O4  1  0.25633700  0.15679900  0.41981300  1
  O  O5  1  0.40499100  0.59776200  0.69906000  1
  O  O6  1  0.40348900  0.29713500  0.84962400  1
  O  O7  1  0.43133800  0.87190400  0.56138500  1
  O  O8  1  0.57832300  0.13187200  0.43244800  1
  O  O9  1  0.58975800  0.71474700  0.14050000  1
  O  O10  1  0.57085800  0.41283800  0.29156400  1
  O  O11  1  0.75175400  0.84797900  0.57407500  1
  O  O12  1  0.91611700  0.71603400  0.13993100  1
  O  O13  1  0.93540100  0.11814800  0.43976800  1
loop_
_geom_bond_atom_site_label_1
_geom_bond_atom_site_label_2
_geom_bond_distance
_geom_bond_site_symmetry_2
Ba0 O0 2.731203 1_554
Ba0 O0 2.731628 1_555
Ba0 O7 2.736722 1_555
Ba0 O7 2.737280 1_554
Ba0 O4 2.865772 1_564
Ba0 O4 2.871153 1_565
Ba1 O11 2.711023 1_546
Ba1 O11 2.713572 1_545
Ba1 O8 2.777130 1_555
Ba1 O8 2.777565 1_556
Ba1 O13 2.786066 1_555
Ba1 O13 2.789202 1_556
Mg0 O2 2.013768 1_655
Mg0 O1 2.052149 1_655
Mg0 N1 2.073402 1_556
Mg0 N1 2.074212 1_555
Mg0 N0 2.123215 1_555
Nb0 O13 1.828923 1_455
Nb0 O1 2.067135 1_555
Nb0 O1 2.067206 1_554
Nb0 O4 2.140837 1_555
Nb0 O3 2.559497 1_555
Nb1 O5 1.823470 1_555
Nb1 O2 1.944956 1_555
Nb1 O3 2.066274 1_556
Nb1 O3 2.066316 1_555
Nb1 O6 2.206438 1_555
Nb1 O1 2.481737 1_555
Nb2 O8 1.826220 1_555
Nb2 O4 1.994004 1_555
Nb2 O10 2.034083 1_555
Nb2 O6 2.054151 1_555
Nb2 O6 2.054251 1_554
Nb2 O3 2.374974 1_555
Nb3 O7 1.851548 1_555
Nb3 O9 2.016756 1_556
Nb3 O9 2.016871 1_555
Nb3 O11 2.056918 1_555
Nb3 O5 2.110048 1_555
Nb4 O10 1.867161 1_555
Nb4 O9 2.278874 1_555
Nb4 O12 2.662643 1_555
Nb5 O0 1.846065 1_655
Nb5 O12 2.018306 1_556
Nb5 O12 2.018738 1_555
Nb5 O11 2.060972 1_555
Nb5 O2 2.103936 1_655
N0 Nb4 2.083567 1_556
N0 Nb4 2.083896 1_555
N0 Nb3 2.348223 1_555
N0 Nb5 2.398463 1_555
N1 Nb4 2.005095 1_555
N1 Nb0 2.044066 1_655
