# generated using pymatgen
data_CeSe2
_symmetry_space_group_name_H-M   'P 1'
_cell_length_a   11.78887668
_cell_length_b   13.67318747
_cell_length_c   13.67318747
_cell_angle_alpha   119.99999936
_cell_angle_beta   90.00000000
_cell_angle_gamma   90.00000000
_symmetry_Int_Tables_number   1
_chemical_formula_structural   CeSe2
_chemical_formula_sum   'Ce12 Se24'
_cell_volume   1908.72163321
_cell_formula_units_Z   12
loop_
 _symmetry_equiv_pos_site_id
 _symmetry_equiv_pos_as_xyz
  1  'x, y, z'
loop_
 _atom_site_type_symbol
 _atom_site_label
 _atom_site_symmetry_multiplicity
 _atom_site_fract_x
 _atom_site_fract_y
 _atom_site_fract_z
 _atom_site_occupancy
  Ce  Ce0  1  0.07639737  0.04917288  0.70706531  1
  Ce  Ce1  1  0.07639737  0.29293469  0.34210757  1
  Ce  Ce2  1  0.07639737  0.65789243  0.95082712  1
  Ce  Ce3  1  0.57639737  0.95082712  0.65789243  1
  Ce  Ce4  1  0.57639737  0.34210757  0.29293469  1
  Ce  Ce5  1  0.57639737  0.70706531  0.04917288  1
  Ce  Ce6  1  0.92360263  0.95082712  0.29293469  1
  Ce  Ce7  1  0.92360263  0.70706531  0.65789243  1
  Ce  Ce8  1  0.92360263  0.34210757  0.04917288  1
  Ce  Ce9  1  0.42360263  0.04917288  0.34210757  1
  Ce  Ce10  1  0.42360263  0.65789243  0.70706531  1
  Ce  Ce11  1  0.42360263  0.29293469  0.95082712  1
  Se  Se0  1  0.10041113  0.84537878  0.69481213  1
  Se  Se1  1  0.10041113  0.30518787  0.15056665  1
  Se  Se2  1  0.10041113  0.84943335  0.15462122  1
  Se  Se3  1  0.60041113  0.15462122  0.84943335  1
  Se  Se4  1  0.60041113  0.15056665  0.30518787  1
  Se  Se5  1  0.60041113  0.69481213  0.84537878  1
  Se  Se6  1  0.89958887  0.15462122  0.30518787  1
  Se  Se7  1  0.89958887  0.69481213  0.84943335  1
  Se  Se8  1  0.89958887  0.15056665  0.84537878  1
  Se  Se9  1  0.39958887  0.84537878  0.15056665  1
  Se  Se10  1  0.39958887  0.84943335  0.69481213  1
  Se  Se11  1  0.39958887  0.30518787  0.15462122  1
  Se  Se12  1  0.25000000  0.59951668  0.79975834  1
  Se  Se13  1  0.25000000  0.20024166  0.79975834  1
  Se  Se14  1  0.25000000  0.20024166  0.40048332  1
  Se  Se15  1  0.75000000  0.40048332  0.20024166  1
  Se  Se16  1  0.75000000  0.79975834  0.20024166  1
  Se  Se17  1  0.75000000  0.79975834  0.59951668  1
  Se  Se18  1  0.00000000  -0.00000000  0.50000000  1
  Se  Se19  1  0.00000000  0.50000000  0.50000000  1
  Se  Se20  1  0.00000000  0.50000000  0.00000000  1
  Se  Se21  1  0.50000000  -0.00000000  0.50000000  1
  Se  Se22  1  0.50000000  0.50000000  0.50000000  1
  Se  Se23  1  0.50000000  0.50000000  0.00000000  1
loop_
_geom_bond_atom_site_label_1
_geom_bond_atom_site_label_2
_geom_bond_distance
_geom_bond_site_symmetry_2
Ce0 Se8 2.687255 1_455
Ce0 Se18 2.715797 1_555
Ce0 Se0 2.721401 1_545
Ce0 Se13 2.728284 1_555
Ce1 Se6 2.687255 1_455
Ce1 Se19 2.715797 1_555
Ce1 Se1 2.721401 1_555
Ce1 Se14 2.728284 1_555
Ce2 Se7 2.687255 1_455
Ce2 Se20 2.715797 1_556
Ce2 Se2 2.721401 1_556
Ce2 Se12 2.728284 1_555
Ce3 Se10 2.687255 1_555
Ce3 Se21 2.715797 1_565
Ce3 Se3 2.721401 1_565
Ce3 Se17 2.728284 1_555
Ce4 Se11 2.687255 1_555
Ce4 Se22 2.715797 1_555
Ce4 Se4 2.721401 1_555
Ce4 Se15 2.728284 1_555
Ce5 Se9 2.687255 1_555
Ce5 Se23 2.715797 1_555
Ce5 Se5 2.721401 1_554
Ce5 Se16 2.728284 1_555
Ce6 Se2 2.687255 1_655
Ce6 Se18 2.715797 1_665
Ce6 Se6 2.721401 1_565
Ce6 Se16 2.728284 1_555
Ce7 Se0 2.687255 1_655
Ce7 Se19 2.715797 1_655
Ce7 Se7 2.721401 1_555
Ce7 Se17 2.728284 1_555
Ce8 Se1 2.687255 1_655
Ce8 Se20 2.715797 1_655
Ce8 Se8 2.721401 1_554
Ce8 Se15 2.728284 1_555
Ce9 Se4 2.687255 1_555
Ce9 Se21 2.715797 1_555
Ce9 Se9 2.721401 1_545
Ce9 Se14 2.728284 1_555
Ce10 Se5 2.687255 1_555
Ce10 Se22 2.715797 1_555
Ce10 Se10 2.721401 1_555
Ce10 Se12 2.728284 1_555
Ce11 Se3 2.687255 1_555
Ce11 Se23 2.715797 1_556
Ce11 Se11 2.721401 1_556
Ce11 Se13 2.728284 1_555
