# generated using pymatgen
data_Mg14CdC
_symmetry_space_group_name_H-M   'P 1'
_cell_length_a   6.37985358
_cell_length_b   8.03108423
_cell_length_c   8.63281435
_cell_angle_alpha   90.00000000
_cell_angle_beta   90.00000000
_cell_angle_gamma   129.00659523
_symmetry_Int_Tables_number   1
_chemical_formula_structural   Mg14CdC
_chemical_formula_sum   'Mg14 Cd1 C1'
_cell_volume   343.71572531
_cell_formula_units_Z   1
loop_
 _symmetry_equiv_pos_site_id
 _symmetry_equiv_pos_as_xyz
  1  'x, y, z'
loop_
 _atom_site_type_symbol
 _atom_site_label
 _atom_site_symmetry_multiplicity
 _atom_site_fract_x
 _atom_site_fract_y
 _atom_site_fract_z
 _atom_site_occupancy
  Mg  Mg0  1  0.26277997  0.38138949  0.62500000  1
  Mg  Mg1  1  0.23531331  0.86765615  0.62500000  1
  Mg  Mg2  1  0.78255010  0.39669035  0.12500000  1
  Mg  Mg3  1  0.73518476  0.36439007  0.62500000  1
  Mg  Mg4  1  0.78255010  0.88585875  0.12500000  1
  Mg  Mg5  1  0.73518476  0.87079369  0.62500000  1
  Mg  Mg6  1  0.26867479  0.06974674  0.31242510  1
  Mg  Mg7  1  0.26867479  0.06974674  0.93757490  1
  Mg  Mg8  1  0.26867479  0.69892905  0.31242510  1
  Mg  Mg9  1  0.26867479  0.69892905  0.93757490  1
  Mg  Mg10  1  0.82873218  0.16436659  0.37421248  1
  Mg  Mg11  1  0.82873218  0.16436659  0.87578752  1
  Mg  Mg12  1  0.72905743  0.61452921  0.36246255  1
  Mg  Mg13  1  0.72905743  0.61452921  0.88753745  1
  Cd  Cd0  1  0.25767901  0.37883900  0.12500000  1
  C  C0  1  0.01847959  0.75923930  0.12500000  1
loop_
_geom_bond_atom_site_label_1
_geom_bond_atom_site_label_2
_geom_bond_distance
_geom_bond_site_symmetry_2
Mg0 Mg10 3.052484 1_455
Mg0 Mg11 3.052484 1_455
Mg0 Mg5 3.101617 1_555
Mg0 Mg3 3.101618 1_555
Mg0 Mg13 3.237336 1_555
Mg0 Mg12 3.237336 1_555
Mg0 Mg5 3.281766 1_445
Mg0 Mg3 3.281766 1_455
Mg1 Mg8 3.086409 1_555
Mg1 Mg9 3.086409 1_555
Mg1 Mg6 3.086417 1_565
Mg1 Mg7 3.086417 1_565
Mg1 Mg3 3.173307 1_565
Mg1 Mg5 3.173307 1_555
Mg1 Mg3 3.206666 1_455
Mg1 Mg5 3.206666 1_455
Mg1 Mg13 3.381707 1_455
Mg1 Mg12 3.381707 1_455
Mg10 Mg3 2.971672 1_555
Mg10 Mg5 2.971683 1_545
Mg10 Mg2 2.981379 1_555
Mg10 Mg4 2.981390 1_545
Mg10 Mg8 3.195459 1_545
Mg10 Mg6 3.195460 1_555
Mg10 Mg8 3.380060 1_655
Mg10 Mg6 3.380060 1_655
Mg11 Mg3 2.971672 1_555
Mg11 Mg5 2.971683 1_545
Mg11 Mg2 2.981379 1_556
Mg11 Mg4 2.981390 1_546
Mg11 Mg9 3.195459 1_545
Mg11 Mg7 3.195460 1_555
Mg11 Mg9 3.380060 1_655
Mg11 Mg7 3.380060 1_655
Mg12 Mg5 3.045109 1_555
Mg12 Mg3 3.045120 1_555
Mg13 Mg5 3.045109 1_555
Mg13 Mg3 3.045120 1_555
Cd0 Mg6 3.000686 1_555
Cd0 Mg7 3.000686 1_554
Cd0 Mg9 3.000700 1_554
Cd0 Mg8 3.000700 1_555
Cd0 Mg11 3.025024 1_454
Cd0 Mg10 3.025024 1_455
Cd0 Mg12 3.108623 1_555
Cd0 Mg13 3.108623 1_554
Cd0 Mg4 3.123476 1_445
Cd0 Mg2 3.123476 1_455
Cd0 Mg4 3.260269 1_555
Cd0 Mg2 3.260269 1_555
C0 Mg2 2.286145 1_455
C0 Mg4 2.286145 1_455
C0 Mg12 2.502230 1_455
C0 Mg13 2.502230 1_454
C0 Mg9 2.524612 1_554
C0 Mg8 2.524612 1_555
C0 Mg7 2.524621 1_564
C0 Mg6 2.524621 1_565
