# generated using pymatgen
data_CrRh
_symmetry_space_group_name_H-M   'P 1'
_cell_length_a   5.34591508
_cell_length_b   5.34591508
_cell_length_c   8.43877200
_cell_angle_alpha   90.00000000
_cell_angle_beta   90.00000000
_cell_angle_gamma   119.99998861
_symmetry_Int_Tables_number   1
_chemical_formula_structural   CrRh
_chemical_formula_sum   'Cr8 Rh8'
_cell_volume   208.85940965
_cell_formula_units_Z   8
loop_
 _symmetry_equiv_pos_site_id
 _symmetry_equiv_pos_as_xyz
  1  'x, y, z'
loop_
 _atom_site_type_symbol
 _atom_site_label
 _atom_site_symmetry_multiplicity
 _atom_site_fract_x
 _atom_site_fract_y
 _atom_site_fract_z
 _atom_site_occupancy
  Cr  Cr0_0  1  0.33333350  0.16666650  0.25000000  1
  Cr  Cr0_1  1  0.33333350  0.16666650  0.75000000  1
  Cr  Cr0_2  1  0.33333350  0.66666650  0.25000000  1
  Cr  Cr0_3  1  0.33333350  0.66666650  0.75000000  1
  Cr  Cr0_4  1  0.83333350  0.16666650  0.25000000  1
  Cr  Cr0_5  1  0.83333350  0.16666650  0.75000000  1
  Cr  Cr0_6  1  0.83333350  0.66666650  0.25000000  1
  Cr  Cr0_7  1  0.83333350  0.66666650  0.75000000  1
  Rh  Rh0_0  1  0.16666650  0.33333350  0.00000000  1
  Rh  Rh0_1  1  0.16666650  0.33333350  0.50000000  1
  Rh  Rh0_2  1  0.16666650  0.83333350  0.00000000  1
  Rh  Rh0_3  1  0.16666650  0.83333350  0.50000000  1
  Rh  Rh0_4  1  0.66666650  0.33333350  0.00000000  1
  Rh  Rh0_5  1  0.66666650  0.33333350  0.50000000  1
  Rh  Rh0_6  1  0.66666650  0.83333350  0.00000000  1
  Rh  Rh0_7  1  0.66666650  0.83333350  0.50000000  1
loop_
_geom_bond_atom_site_label_1
_geom_bond_atom_site_label_2
_geom_bond_distance
_geom_bond_site_symmetry_2
Cr0_0 Rh0_2 2.613880 1_545
Cr0_0 Rh0_3 2.613880 1_545
Cr0_0 Rh0_4 2.613880 1_555
Cr0_0 Rh0_5 2.613880 1_555
Cr0_0 Rh0_1 2.613882 1_555
Cr0_0 Rh0_0 2.613882 1_555
Cr0_0 Cr0_2 2.672958 1_555
Cr0_0 Cr0_4 2.672958 1_555
Cr0_0 Cr0_2 2.672958 1_545
Cr0_0 Cr0_4 2.672958 1_455
Cr0_0 Cr0_6 2.672958 1_555
Cr0_0 Cr0_6 2.672958 1_445
Cr0_1 Rh0_2 2.613880 1_546
Cr0_1 Rh0_3 2.613880 1_545
Cr0_1 Rh0_4 2.613880 1_556
Cr0_1 Rh0_5 2.613880 1_555
Cr0_1 Rh0_0 2.613882 1_556
Cr0_1 Rh0_1 2.613882 1_555
Cr0_1 Cr0_3 2.672958 1_555
Cr0_1 Cr0_5 2.672958 1_555
Cr0_1 Cr0_5 2.672958 1_455
Cr0_1 Cr0_3 2.672958 1_545
Cr0_1 Cr0_7 2.672958 1_555
Cr0_1 Cr0_7 2.672958 1_445
Cr0_2 Rh0_1 2.613880 1_555
Cr0_2 Rh0_0 2.613880 1_555
Cr0_2 Rh0_7 2.613880 1_555
Cr0_2 Rh0_6 2.613880 1_555
Cr0_2 Rh0_3 2.613882 1_555
Cr0_2 Rh0_2 2.613882 1_555
Cr0_2 Cr0_6 2.672958 1_555
Cr0_2 Cr0_6 2.672958 1_455
Cr0_2 Cr0_4 2.672958 1_565
Cr0_2 Cr0_4 2.672958 1_455
Cr0_3 Rh0_1 2.613880 1_555
Cr0_3 Rh0_0 2.613880 1_556
Cr0_3 Rh0_7 2.613880 1_555
Cr0_3 Rh0_6 2.613880 1_556
Cr0_3 Rh0_3 2.613882 1_555
Cr0_3 Rh0_2 2.613882 1_556
Cr0_3 Cr0_7 2.672958 1_555
Cr0_3 Cr0_7 2.672958 1_455
Cr0_3 Cr0_5 2.672958 1_565
Cr0_3 Cr0_5 2.672958 1_455
Cr0_4 Rh0_7 2.613880 1_545
Cr0_4 Rh0_6 2.613880 1_545
Cr0_4 Rh0_0 2.613880 1_655
Cr0_4 Rh0_1 2.613880 1_655
Cr0_4 Rh0_5 2.613882 1_555
Cr0_4 Rh0_4 2.613882 1_555
Cr0_4 Cr0_6 2.672958 1_545
Cr0_4 Cr0_6 2.672958 1_555
Cr0_5 Rh0_7 2.613880 1_545
Cr0_5 Rh0_6 2.613880 1_546
Cr0_5 Rh0_1 2.613880 1_655
Cr0_5 Rh0_0 2.613880 1_656
Cr0_5 Rh0_4 2.613882 1_556
Cr0_5 Rh0_5 2.613882 1_555
Cr0_5 Cr0_7 2.672958 1_545
Cr0_5 Cr0_7 2.672958 1_555
Cr0_6 Rh0_5 2.613880 1_555
Cr0_6 Rh0_4 2.613880 1_555
Cr0_6 Rh0_3 2.613880 1_655
Cr0_6 Rh0_2 2.613880 1_655
Cr0_6 Rh0_7 2.613882 1_555
Cr0_6 Rh0_6 2.613882 1_555
Cr0_7 Rh0_4 2.613880 1_556
Cr0_7 Rh0_5 2.613880 1_555
Cr0_7 Rh0_3 2.613880 1_655
Cr0_7 Rh0_2 2.613880 1_656
Cr0_7 Rh0_7 2.613882 1_555
Cr0_7 Rh0_6 2.613882 1_556
Rh0_0 Rh0_2 2.672958 1_555
Rh0_0 Rh0_4 2.672958 1_455
Rh0_0 Rh0_2 2.672958 1_545
Rh0_0 Rh0_4 2.672958 1_555
Rh0_0 Rh0_6 2.672958 1_445
Rh0_0 Rh0_6 2.672958 1_555
Rh0_1 Rh0_3 2.672958 1_555
Rh0_1 Rh0_5 2.672958 1_555
Rh0_1 Rh0_5 2.672958 1_455
Rh0_1 Rh0_3 2.672958 1_545
Rh0_1 Rh0_7 2.672958 1_555
Rh0_1 Rh0_7 2.672958 1_445
Rh0_2 Rh0_6 2.672958 1_455
Rh0_2 Rh0_6 2.672958 1_555
Rh0_2 Rh0_4 2.672958 1_455
Rh0_2 Rh0_4 2.672958 1_565
Rh0_3 Rh0_7 2.672958 1_455
Rh0_3 Rh0_7 2.672958 1_555
Rh0_3 Rh0_5 2.672958 1_455
Rh0_3 Rh0_5 2.672958 1_565
Rh0_4 Rh0_6 2.672958 1_555
Rh0_4 Rh0_6 2.672958 1_545
Rh0_5 Rh0_7 2.672958 1_555
Rh0_5 Rh0_7 2.672958 1_545
