# generated using pymatgen
data_SrGeTeO6
_symmetry_space_group_name_H-M   'P 1'
_cell_length_a   5.14922778
_cell_length_b   5.14922778
_cell_length_c   5.49372000
_cell_angle_alpha   90.00000000
_cell_angle_beta   90.00000000
_cell_angle_gamma   119.99999713
_symmetry_Int_Tables_number   1
_chemical_formula_structural   SrGeTeO6
_chemical_formula_sum   'Sr1 Ge1 Te1 O6'
_cell_volume   126.14829113
_cell_formula_units_Z   1
loop_
 _symmetry_equiv_pos_site_id
 _symmetry_equiv_pos_as_xyz
  1  'x, y, z'
loop_
 _atom_site_type_symbol
 _atom_site_label
 _atom_site_symmetry_multiplicity
 _atom_site_fract_x
 _atom_site_fract_y
 _atom_site_fract_z
 _atom_site_occupancy
  Sr  Sr0  1  0.33333300  0.66666700  0.00000000  1
  Ge  Ge0  1  0.00000000  0.00000000  0.50000000  1
  Te  Te0  1  0.66666700  0.33333300  0.50000000  1
  O  O0  1  0.71590600  0.04554300  0.69943400  1
  O  O1  1  0.95445700  0.67036300  0.69943400  1
  O  O2  1  0.32963700  0.28409400  0.69943400  1
  O  O3  1  0.71590600  0.67036300  0.30056600  1
  O  O4  1  0.32963700  0.04554300  0.30056600  1
  O  O5  1  0.95445700  0.28409400  0.30056600  1
loop_
_geom_bond_atom_site_label_1
_geom_bond_atom_site_label_2
_geom_bond_distance
_geom_bond_site_symmetry_2
Ge0 O5 1.933505 1_455
Ge0 O0 1.933505 1_455
Ge0 O4 1.933505 1_555
Ge0 O1 1.933505 1_445
Ge0 O2 1.933505 1_555
Ge0 O3 1.933505 1_445
O0 Te0 1.958683 1_555
O0 Sr0 2.563227 1_546
O1 Te0 1.958686 1_555
O1 Sr0 2.563225 1_656
O2 Te0 1.958687 1_555
O2 Sr0 2.563229 1_556
O3 Te0 1.958687 1_555
O3 Sr0 2.563229 1_555
O4 Te0 1.958686 1_555
O4 Sr0 2.563225 1_545
O5 Te0 1.958683 1_555
O5 Sr0 2.563227 1_655
