# generated using pymatgen
data_NaMoP2O7
_symmetry_space_group_name_H-M   'P 1'
_cell_length_a   8.05210713
_cell_length_b   7.42246914
_cell_length_c   9.79571028
_cell_angle_alpha   67.96462077
_cell_angle_beta   90.00000000
_cell_angle_gamma   90.00000000
_symmetry_Int_Tables_number   1
_chemical_formula_structural   NaMoP2O7
_chemical_formula_sum   'Na4 Mo4 P8 O28'
_cell_volume   542.68934309
_cell_formula_units_Z   4
loop_
 _symmetry_equiv_pos_site_id
 _symmetry_equiv_pos_as_xyz
  1  'x, y, z'
loop_
 _atom_site_type_symbol
 _atom_site_label
 _atom_site_symmetry_multiplicity
 _atom_site_fract_x
 _atom_site_fract_y
 _atom_site_fract_z
 _atom_site_occupancy
  Na  Na0  1  0.98608696  0.71603306  0.78489422  1
  Na  Na1  1  0.48608696  0.28396694  0.71510578  1
  Na  Na2  1  0.01391304  0.28396694  0.21510578  1
  Na  Na3  1  0.51391304  0.71603306  0.28489422  1
  Mo  Mo0  1  0.50492951  0.74287103  0.74889670  1
  Mo  Mo1  1  0.00492951  0.25712897  0.75110330  1
  Mo  Mo2  1  0.49507049  0.25712897  0.25110330  1
  Mo  Mo3  1  0.99507049  0.74287103  0.24889670  1
  P  P0  1  0.71924803  0.32861962  0.95811341  1
  P  P1  1  0.21924803  0.67138038  0.54188659  1
  P  P2  1  0.28075197  0.67138038  0.04188659  1
  P  P3  1  0.78075197  0.32861962  0.45811341  1
  P  P4  1  0.75251377  0.92459892  0.96031126  1
  P  P5  1  0.25251377  0.07540108  0.53968874  1
  P  P6  1  0.24748623  0.07540108  0.03968874  1
  P  P7  1  0.74748623  0.92459892  0.46031126  1
  O  O0  1  0.66732240  0.12717560  0.94372671  1
  O  O1  1  0.16732240  0.87282440  0.55627329  1
  O  O2  1  0.33267760  0.87282440  0.05627329  1
  O  O3  1  0.83267760  0.12717560  0.44372671  1
  O  O4  1  0.39545228  0.62441285  0.60151779  1
  O  O5  1  0.89545228  0.37558715  0.89848221  1
  O  O6  1  0.60454772  0.37558715  0.39848221  1
  O  O7  1  0.10454772  0.62441285  0.10151779  1
  O  O8  1  0.72433940  0.80875250  0.62349326  1
  O  O9  1  0.22433940  0.19124750  0.87650674  1
  O  O10  1  0.27566060  0.19124750  0.37650674  1
  O  O11  1  0.77566060  0.80875250  0.12349326  1
  O  O12  1  0.41384739  0.02838145  0.62738456  1
  O  O13  1  0.91384739  0.97161855  0.87261544  1
  O  O14  1  0.58615261  0.97161855  0.37261544  1
  O  O15  1  0.08615261  0.02838145  0.12738456  1
  O  O16  1  0.91114516  0.46084585  0.36116869  1
  O  O17  1  0.41114516  0.53915415  0.13883131  1
  O  O18  1  0.08885484  0.53915415  0.63883131  1
  O  O19  1  0.58885484  0.46084585  0.86116869  1
  O  O20  1  0.21521268  0.69459647  0.38139182  1
  O  O21  1  0.71521268  0.30540353  0.11860818  1
  O  O22  1  0.78478732  0.30540353  0.61860818  1
  O  O23  1  0.28478732  0.69459647  0.88139182  1
  O  O24  1  0.87427594  0.83099674  0.39716100  1
  O  O25  1  0.37427594  0.16900326  0.10283900  1
  O  O26  1  0.12572406  0.16900326  0.60283900  1
  O  O27  1  0.62572406  0.83099674  0.89716100  1
loop_
_geom_bond_atom_site_label_1
_geom_bond_atom_site_label_2
_geom_bond_distance
_geom_bond_site_symmetry_2
Na0 O18 2.421792 1_655
Na0 O13 2.428749 1_555
Na0 O5 2.458936 1_555
Na0 O1 2.558075 1_655
Na0 O23 2.567258 1_655
Na0 O8 2.568836 1_555
Na1 O19 2.421792 1_555
Na1 O12 2.428749 1_555
Na1 O4 2.458936 1_555
Na1 O0 2.558075 1_555
Na1 O22 2.567258 1_555
Na1 O9 2.568836 1_555
Na2 O16 2.421792 1_455
Na2 O15 2.428749 1_555
Na2 O7 2.458936 1_555
Na2 O3 2.558075 1_455
Na2 O21 2.567258 1_455
Na2 O10 2.568836 1_555
Na3 O17 2.421792 1_555
Na3 O14 2.428749 1_555
Na3 O6 2.458936 1_555
Na3 O2 2.558075 1_555
Na3 O20 2.567258 1_555
Na3 O11 2.568836 1_555
Mo0 O27 2.048434 1_555
Mo0 O19 2.078635 1_555
Mo0 O8 2.102061 1_555
Mo0 O12 2.133755 1_565
Mo0 O4 2.141695 1_555
Mo0 O23 2.146177 1_555
Mo1 O26 2.048434 1_555
Mo1 O18 2.078635 1_555
Mo1 O9 2.102061 1_555
Mo1 O13 2.133755 1_445
Mo1 O5 2.141695 1_455
Mo1 O22 2.146177 1_455
Mo2 O25 2.048434 1_555
Mo2 O17 2.078635 1_555
Mo2 O10 2.102061 1_555
Mo2 O14 2.133755 1_545
Mo2 O6 2.141695 1_555
Mo2 O21 2.146177 1_555
Mo3 O24 2.048434 1_555
Mo3 O16 2.078635 1_555
Mo3 O11 2.102061 1_555
Mo3 O15 2.133755 1_665
Mo3 O7 2.141695 1_655
Mo3 O20 2.146177 1_655
O0 P4 1.604533 1_545
O0 P0 1.608866 1_555
O1 P5 1.604533 1_565
O1 P1 1.608866 1_555
O2 P6 1.604533 1_565
O2 P2 1.608866 1_555
O3 P7 1.604533 1_545
O3 P3 1.608866 1_555
O4 P1 1.524132 1_555
O5 P0 1.524132 1_555
O6 P3 1.524132 1_555
O7 P2 1.524132 1_555
O8 P7 1.515884 1_555
O9 P6 1.515884 1_556
O10 P5 1.515884 1_555
O11 P4 1.515884 1_554
O12 P5 1.523939 1_555
O13 P4 1.523939 1_555
O14 P7 1.523939 1_555
O15 P6 1.523939 1_555
O16 P3 1.506014 1_555
O17 P2 1.506014 1_555
O18 P1 1.506014 1_555
O19 P0 1.506014 1_555
O20 P1 1.516296 1_555
O21 P0 1.516296 1_554
O22 P3 1.516296 1_555
O23 P2 1.516296 1_556
O24 P7 1.493363 1_555
O25 P6 1.493363 1_555
O26 P5 1.493363 1_555
O27 P4 1.493363 1_555
