# generated using pymatgen
data_K4Al3(SiO4)3
_symmetry_space_group_name_H-M   'P 1'
_cell_length_a   9.36018000
_cell_length_b   9.36018000
_cell_length_c   9.36018000
_cell_angle_alpha   90.00000000
_cell_angle_beta   90.00000000
_cell_angle_gamma   90.00000000
_symmetry_Int_Tables_number   1
_chemical_formula_structural   K4Al3(SiO4)3
_chemical_formula_sum   'K8 Al6 Si6 O24'
_cell_volume   820.07316609
_cell_formula_units_Z   2
loop_
 _symmetry_equiv_pos_site_id
 _symmetry_equiv_pos_as_xyz
  1  'x, y, z'
loop_
 _atom_site_type_symbol
 _atom_site_label
 _atom_site_symmetry_multiplicity
 _atom_site_fract_x
 _atom_site_fract_y
 _atom_site_fract_z
 _atom_site_occupancy
  K  K0  1  0.31713000  0.68287000  0.31713000  1
  K  K1  1  0.68287000  0.31713000  0.31713000  1
  K  K2  1  0.31713000  0.31713000  0.68287000  1
  K  K3  1  0.68287000  0.68287000  0.68287000  1
  K  K4  1  0.81713000  0.81713000  0.18287000  1
  K  K5  1  0.18287000  0.81713000  0.81713000  1
  K  K6  1  0.81713000  0.18287000  0.81713000  1
  K  K7  1  0.18287000  0.18287000  0.18287000  1
  Al  Al0  1  0.50000000  0.00000000  0.25000000  1
  Al  Al1  1  0.00000000  0.75000000  0.50000000  1
  Al  Al2  1  0.25000000  0.50000000  0.00000000  1
  Al  Al3  1  0.00000000  0.25000000  0.50000000  1
  Al  Al4  1  0.75000000  0.50000000  0.00000000  1
  Al  Al5  1  0.50000000  0.00000000  0.75000000  1
  Si  Si0  1  0.00000000  0.50000000  0.25000000  1
  Si  Si1  1  0.50000000  0.75000000  0.00000000  1
  Si  Si2  1  0.25000000  0.00000000  0.50000000  1
  Si  Si3  1  0.50000000  0.25000000  0.00000000  1
  Si  Si4  1  0.75000000  0.00000000  0.50000000  1
  Si  Si5  1  0.00000000  0.50000000  0.75000000  1
  O  O0  1  0.34679800  0.97574200  0.35605900  1
  O  O1  1  0.02425800  0.64394100  0.34679800  1
  O  O2  1  0.35605900  0.65320200  0.02425800  1
  O  O3  1  0.65320200  0.02425800  0.35605900  1
  O  O4  1  0.97574200  0.35605900  0.34679800  1
  O  O5  1  0.64394100  0.34679800  0.02425800  1
  O  O6  1  0.34679800  0.02425800  0.64394100  1
  O  O7  1  0.02425800  0.35605900  0.65320200  1
  O  O8  1  0.35605900  0.34679800  0.97574200  1
  O  O9  1  0.65320200  0.97574200  0.64394100  1
  O  O10  1  0.97574200  0.64394100  0.65320200  1
  O  O11  1  0.64394100  0.65320200  0.97574200  1
  O  O12  1  0.84679800  0.85605900  0.47574200  1
  O  O13  1  0.52425800  0.84679800  0.14394100  1
  O  O14  1  0.85605900  0.52425800  0.15320200  1
  O  O15  1  0.15320200  0.85605900  0.52425800  1
  O  O16  1  0.47574200  0.84679800  0.85605900  1
  O  O17  1  0.14394100  0.52425800  0.84679800  1
  O  O18  1  0.84679800  0.14394100  0.52425800  1
  O  O19  1  0.52425800  0.15320200  0.85605900  1
  O  O20  1  0.85605900  0.47574200  0.84679800  1
  O  O21  1  0.15320200  0.14394100  0.47574200  1
  O  O22  1  0.47574200  0.15320200  0.14394100  1
  O  O23  1  0.14394100  0.47574200  0.15320200  1
loop_
_geom_bond_atom_site_label_1
_geom_bond_atom_site_label_2
_geom_bond_distance
_geom_bond_site_symmetry_2
K0 O0 2.779354 1_555
K0 O2 2.779354 1_555
K0 O1 2.779354 1_555
K0 O15 2.956526 1_555
K0 O13 2.956526 1_555
K0 O23 2.956526 1_555
K1 O4 2.779354 1_555
K1 O3 2.779354 1_555
K1 O5 2.779354 1_555
K1 O18 2.956526 1_555
K1 O22 2.956526 1_555
K1 O14 2.956526 1_555
K2 O7 2.779354 1_555
K2 O8 2.779354 1_555
K2 O6 2.779354 1_555
K2 O21 2.956526 1_555
K2 O19 2.956526 1_555
K2 O17 2.956526 1_555
K3 O10 2.779354 1_555
K3 O11 2.779354 1_555
K3 O9 2.779354 1_555
K3 O12 2.956526 1_555
K3 O20 2.956526 1_555
K3 O16 2.956526 1_555
K4 O13 2.779354 1_555
K4 O14 2.779354 1_555
K4 O12 2.779354 1_555
K4 O1 2.956526 1_655
K4 O3 2.956526 1_565
K4 O11 2.956526 1_554
K5 O16 2.779354 1_555
K5 O17 2.779354 1_555
K5 O15 2.779354 1_555
K5 O6 2.956526 1_565
K5 O2 2.956526 1_556
K5 O10 2.956526 1_455
K6 O19 2.779354 1_555
K6 O20 2.779354 1_555
K6 O18 2.779354 1_555
K6 O5 2.956526 1_556
K6 O7 2.956526 1_655
K6 O9 2.956526 1_545
K7 O22 2.779354 1_555
K7 O23 2.779354 1_555
K7 O21 2.779354 1_555
K7 O4 2.956526 1_455
K7 O0 2.956526 1_545
K7 O8 2.956526 1_554
Al0 O13 1.758813 1_545
Al0 O3 1.758813 1_555
Al0 O22 1.758813 1_555
Al0 O0 1.758813 1_545
Al1 O10 1.758813 1_455
Al1 O12 1.758813 1_455
Al1 O1 1.758813 1_555
Al1 O15 1.758813 1_555
Al2 O17 1.758813 1_554
Al2 O2 1.758813 1_555
Al2 O23 1.758813 1_555
Al2 O8 1.758813 1_554
Al3 O7 1.758813 1_555
Al3 O18 1.758813 1_455
Al3 O4 1.758813 1_455
Al3 O21 1.758813 1_555
Al4 O20 1.758813 1_554
Al4 O11 1.758813 1_554
Al4 O14 1.758813 1_555
Al4 O5 1.758813 1_555
Al5 O16 1.758813 1_545
Al5 O9 1.758813 1_545
Al5 O6 1.758813 1_555
Al5 O19 1.758813 1_555
O0 Si2 1.639430 1_565
O1 Si0 1.639430 1_555
O2 Si1 1.639430 1_555
O3 Si4 1.639430 1_555
O4 Si0 1.639430 1_655
O5 Si3 1.639430 1_555
O6 Si2 1.639430 1_555
O7 Si5 1.639430 1_555
O8 Si3 1.639430 1_556
O9 Si4 1.639430 1_565
O10 Si5 1.639430 1_655
O11 Si1 1.639430 1_556
O12 Si4 1.639430 1_565
O13 Si1 1.639430 1_555
O14 Si0 1.639430 1_655
O15 Si2 1.639430 1_565
O16 Si1 1.639430 1_556
O17 Si5 1.639430 1_555
O18 Si4 1.639430 1_555
O19 Si3 1.639430 1_556
O20 Si5 1.639430 1_655
O21 Si2 1.639430 1_555
O22 Si3 1.639430 1_555
O23 Si0 1.639430 1_555
