# generated using pymatgen
data_ZnBi2O5
_symmetry_space_group_name_H-M   'P 1'
_cell_length_a   5.62707000
_cell_length_b   10.24730000
_cell_length_c   16.41202400
_cell_angle_alpha   90.00000000
_cell_angle_beta   90.00000000
_cell_angle_gamma   90.00000000
_symmetry_Int_Tables_number   1
_chemical_formula_structural   ZnBi2O5
_chemical_formula_sum   'Zn8 Bi16 O40'
_cell_volume   946.35463153
_cell_formula_units_Z   8
loop_
 _symmetry_equiv_pos_site_id
 _symmetry_equiv_pos_as_xyz
  1  'x, y, z'
loop_
 _atom_site_type_symbol
 _atom_site_label
 _atom_site_symmetry_multiplicity
 _atom_site_fract_x
 _atom_site_fract_y
 _atom_site_fract_z
 _atom_site_occupancy
  Zn  Zn0  1  0.45939400  0.39004900  0.59604100  1
  Zn  Zn1  1  0.95939400  0.10995100  0.59604100  1
  Zn  Zn2  1  0.95939400  0.60995100  0.90395900  1
  Zn  Zn3  1  0.04060600  0.39004900  0.09604100  1
  Zn  Zn4  1  0.54060600  0.10995100  0.09604100  1
  Zn  Zn5  1  0.04060600  0.89004900  0.40395900  1
  Zn  Zn6  1  0.54060600  0.60995100  0.40395900  1
  Zn  Zn7  1  0.45939400  0.89004900  0.90395900  1
  Bi  Bi0  1  0.09672200  0.37293400  0.43769800  1
  Bi  Bi1  1  0.40327800  0.87293400  0.56230200  1
  Bi  Bi2  1  0.90327800  0.62706600  0.56230200  1
  Bi  Bi3  1  0.59672200  0.12706600  0.43769800  1
  Bi  Bi4  1  0.90327800  0.12706600  0.93769800  1
  Bi  Bi5  1  0.09672200  0.87293400  0.06230200  1
  Bi  Bi6  1  0.40327800  0.37293400  0.93769800  1
  Bi  Bi7  1  0.59672200  0.62706600  0.06230200  1
  Bi  Bi8  1  0.95844300  0.85777800  0.74717800  1
  Bi  Bi9  1  0.04155700  0.14222200  0.25282200  1
  Bi  Bi10  1  0.54155700  0.35777800  0.25282200  1
  Bi  Bi11  1  0.04155700  0.64222200  0.24717800  1
  Bi  Bi12  1  0.45844300  0.14222200  0.75282200  1
  Bi  Bi13  1  0.45844300  0.64222200  0.74717800  1
  Bi  Bi14  1  0.54155700  0.85777800  0.24717800  1
  Bi  Bi15  1  0.95844300  0.35777800  0.75282200  1
  O  O0  1  0.88714500  0.29344500  0.33701300  1
  O  O1  1  0.19574500  0.99299500  0.95577900  1
  O  O2  1  0.30425500  0.49299500  0.04422100  1
  O  O3  1  0.28728300  0.80234300  0.81350600  1
  O  O4  1  0.21271700  0.30234300  0.18649400  1
  O  O5  1  0.88714500  0.79344500  0.16298700  1
  O  O6  1  0.21271700  0.80234300  0.31350600  1
  O  O7  1  0.61285500  0.79344500  0.66298700  1
  O  O8  1  0.19574500  0.49299500  0.54422100  1
  O  O9  1  0.11285500  0.70655500  0.66298700  1
  O  O10  1  0.61285500  0.29344500  0.83701300  1
  O  O11  1  0.90566100  0.22023600  0.49877100  1
  O  O12  1  0.69574500  0.00700500  0.54422100  1
  O  O13  1  0.71271700  0.69765700  0.31350600  1
  O  O14  1  0.29235100  0.99739800  0.14104100  1
  O  O15  1  0.69574500  0.50700500  0.95577900  1
  O  O16  1  0.11285500  0.20655500  0.83701300  1
  O  O17  1  0.78728300  0.19765700  0.68649400  1
  O  O18  1  0.40566100  0.77976400  0.00122900  1
  O  O19  1  0.30425500  0.99299500  0.45577900  1
  O  O20  1  0.09433900  0.77976400  0.50122900  1
  O  O21  1  0.70764900  0.00260200  0.85895900  1
  O  O22  1  0.71271700  0.19765700  0.18649400  1
  O  O23  1  0.79235100  0.00260200  0.35895900  1
  O  O24  1  0.09433900  0.27976400  0.99877100  1
  O  O25  1  0.40566100  0.27976400  0.49877100  1
  O  O26  1  0.80425500  0.50700500  0.45577900  1
  O  O27  1  0.80425500  0.00700500  0.04422100  1
  O  O28  1  0.79235100  0.50260200  0.14104100  1
  O  O29  1  0.59433900  0.72023600  0.50122900  1
  O  O30  1  0.59433900  0.22023600  0.99877100  1
  O  O31  1  0.90566100  0.72023600  0.00122900  1
  O  O32  1  0.70764900  0.50260200  0.64104100  1
  O  O33  1  0.78728300  0.69765700  0.81350600  1
  O  O34  1  0.28728300  0.30234300  0.68649400  1
  O  O35  1  0.29235100  0.49739800  0.35895900  1
  O  O36  1  0.20764900  0.49739800  0.85895900  1
  O  O37  1  0.38714500  0.20655500  0.33701300  1
  O  O38  1  0.20764900  0.99739800  0.64104100  1
  O  O39  1  0.38714500  0.70655500  0.16298700  1
loop_
_geom_bond_atom_site_label_1
_geom_bond_atom_site_label_2
_geom_bond_distance
_geom_bond_site_symmetry_2
Bi0 O35 2.123311 1_555
Bi0 O11 2.146848 1_455
Bi0 O26 2.164255 1_455
Bi0 O0 2.187423 1_455
Bi0 O8 2.209192 1_555
Bi0 O25 2.222230 1_555
Bi1 O38 2.123311 1_555
Bi1 O29 2.146848 1_555
Bi1 O12 2.164255 1_565
Bi1 O7 2.187423 1_555
Bi1 O19 2.209192 1_555
Bi1 O20 2.222230 1_555
Bi2 O32 2.123311 1_555
Bi2 O20 2.146848 1_655
Bi2 O8 2.164255 1_655
Bi2 O9 2.187423 1_655
Bi2 O26 2.209192 1_555
Bi2 O29 2.222230 1_555
Bi3 O23 2.123311 1_555
Bi3 O25 2.146848 1_555
Bi3 O19 2.164255 1_545
Bi3 O37 2.187423 1_555
Bi3 O12 2.209192 1_555
Bi3 O11 2.222230 1_555
Bi4 O21 2.123311 1_555
Bi4 O24 2.146848 1_655
Bi4 O1 2.164255 1_645
Bi4 O16 2.187423 1_655
Bi4 O27 2.209192 1_556
Bi4 O30 2.222230 1_555
Bi5 O14 2.123311 1_555
Bi5 O31 2.146848 1_455
Bi5 O27 2.164255 1_465
Bi5 O5 2.187423 1_455
Bi5 O1 2.209192 1_554
Bi5 O18 2.222230 1_555
Bi6 O36 2.123311 1_555
Bi6 O30 2.146848 1_555
Bi6 O15 2.164255 1_555
Bi6 O10 2.187423 1_555
Bi6 O2 2.209192 1_556
Bi6 O24 2.222230 1_555
Bi7 O28 2.123311 1_555
Bi7 O18 2.146848 1_555
Bi7 O2 2.164255 1_555
Bi7 O39 2.187423 1_555
Bi7 O15 2.209192 1_554
Bi7 O31 2.222230 1_555
Bi8 O33 2.192001 1_555
Bi8 O3 2.220741 1_655
Bi8 O9 2.250673 1_655
Bi8 O7 2.474969 1_555
Bi8 O38 2.654755 1_655
Bi8 O21 2.749470 1_565
Bi9 O4 2.192001 1_555
Bi9 O22 2.220741 1_455
Bi9 O0 2.250673 1_455
Bi9 O37 2.474969 1_555
Bi9 O23 2.654755 1_455
Bi9 O14 2.749470 1_545
Bi10 O22 2.192001 1_555
Bi10 O4 2.220741 1_555
Bi10 O37 2.250673 1_555
Bi10 O0 2.474969 1_555
Bi10 O35 2.654755 1_555
Bi10 O28 2.749470 1_555
Bi11 O6 2.192001 1_555
Bi11 O13 2.220741 1_455
Bi11 O5 2.250673 1_455
Bi11 O39 2.474969 1_555
Bi11 O28 2.654755 1_455
Bi11 O35 2.749470 1_555
Bi12 O34 2.192001 1_555
Bi12 O17 2.220741 1_555
Bi12 O10 2.250673 1_555
Bi12 O16 2.474969 1_555
Bi12 O21 2.654755 1_555
Bi12 O38 2.749470 1_545
Bi13 O3 2.192001 1_555
Bi13 O33 2.220741 1_555
Bi13 O7 2.250673 1_555
Bi13 O9 2.474969 1_555
Bi13 O32 2.654755 1_555
Bi13 O36 2.749470 1_555
Bi14 O13 2.192001 1_555
Bi14 O6 2.220741 1_555
Bi14 O39 2.250673 1_555
Bi14 O5 2.474969 1_555
Bi14 O14 2.654755 1_555
Bi14 O23 2.749470 1_565
Bi15 O17 2.192001 1_555
Bi15 O34 2.220741 1_655
Bi15 O16 2.250673 1_655
Bi15 O10 2.474969 1_555
Bi15 O36 2.654755 1_655
Bi15 O32 2.749470 1_555
O1 Zn7 2.009263 1_555
O2 Zn3 2.009263 1_555
O3 Zn7 1.987334 1_555
O4 Zn3 1.987334 1_555
O6 Zn5 1.987334 1_555
O8 Zn0 2.009263 1_555
O11 Zn1 1.979163 1_555
O12 Zn1 2.009263 1_555
O13 Zn6 1.987334 1_555
O14 Zn4 1.956312 1_565
O15 Zn2 2.009263 1_555
O17 Zn1 1.987334 1_555
O18 Zn7 1.979163 1_554
O19 Zn5 2.009263 1_555
O20 Zn5 1.979163 1_555
O21 Zn7 1.956312 1_545
O22 Zn4 1.987334 1_555
O23 Zn5 1.956312 1_645
O24 Zn3 1.979163 1_556
O25 Zn0 1.979163 1_555
O26 Zn6 2.009263 1_555
O27 Zn4 2.009263 1_555
O28 Zn3 1.956312 1_655
O29 Zn6 1.979163 1_555
O30 Zn4 1.979163 1_556
O31 Zn2 1.979163 1_554
O32 Zn0 1.956312 1_555
O33 Zn2 1.987334 1_555
O34 Zn0 1.987334 1_555
O35 Zn6 1.956312 1_555
O36 Zn2 1.956312 1_455
O38 Zn1 1.956312 1_465
