# generated using pymatgen
data_Ho7Ru2C11
_symmetry_space_group_name_H-M   'P 1'
_cell_length_a   3.42713100
_cell_length_b   8.43591420
_cell_length_c   19.83429900
_cell_angle_alpha   90.00000000
_cell_angle_beta   90.00000000
_cell_angle_gamma   101.71989854
_symmetry_Int_Tables_number   1
_chemical_formula_structural   Ho7Ru2C11
_chemical_formula_sum   'Ho14 Ru4 C22'
_cell_volume   561.47441924
_cell_formula_units_Z   2
loop_
 _symmetry_equiv_pos_site_id
 _symmetry_equiv_pos_as_xyz
  1  'x, y, z'
loop_
 _atom_site_type_symbol
 _atom_site_label
 _atom_site_symmetry_multiplicity
 _atom_site_fract_x
 _atom_site_fract_y
 _atom_site_fract_z
 _atom_site_occupancy
  Ho  Ho0  1  0.89747000  0.79493900  0.25000000  1
  Ho  Ho1  1  0.10253000  0.20506100  0.75000000  1
  Ho  Ho2  1  0.27825500  0.55650900  0.65499600  1
  Ho  Ho3  1  0.72174500  0.44349100  0.34500400  1
  Ho  Ho4  1  0.72174500  0.44349100  0.15499600  1
  Ho  Ho5  1  0.27825500  0.55650900  0.84500400  1
  Ho  Ho6  1  0.33846200  0.67692400  0.01933100  1
  Ho  Ho7  1  0.66153800  0.32307600  0.98066900  1
  Ho  Ho8  1  0.66153800  0.32307600  0.51933100  1
  Ho  Ho9  1  0.33846200  0.67692400  0.48066900  1
  Ho  Ho10  1  0.52265300  0.04530600  0.12717700  1
  Ho  Ho11  1  0.47734700  0.95469400  0.87282300  1
  Ho  Ho12  1  0.47734700  0.95469400  0.62717700  1
  Ho  Ho13  1  0.52265300  0.04530600  0.37282300  1
  Ru  Ru0  1  0.08108100  0.16216200  0.25000000  1
  Ru  Ru1  1  0.91891900  0.83783800  0.75000000  1
  Ru  Ru2  1  0.00000000  0.00000000  0.00000000  1
  Ru  Ru3  1  0.00000000  0.00000000  0.50000000  1
  C  C0  1  0.27907200  0.55814300  0.25000000  1
  C  C1  1  0.72092800  0.44185700  0.75000000  1
  C  C2  1  0.50338600  0.00677100  0.25000000  1
  C  C3  1  0.49661400  0.99322900  0.75000000  1
  C  C4  1  0.07394000  0.14788100  0.57943000  1
  C  C5  1  0.92606000  0.85211900  0.42057000  1
  C  C6  1  0.92606000  0.85211900  0.07943000  1
  C  C7  1  0.07394000  0.14788100  0.92057000  1
  C  C8  1  0.13320200  0.26640400  0.62285700  1
  C  C9  1  0.86679800  0.73359600  0.37714300  1
  C  C10  1  0.86679800  0.73359600  0.12285700  1
  C  C11  1  0.13320200  0.26640400  0.87714300  1
  C  C12  1  0.20593200  0.41186400  0.06326500  1
  C  C13  1  0.79406800  0.58813600  0.93673500  1
  C  C14  1  0.79406800  0.58813600  0.56326500  1
  C  C15  1  0.20593200  0.41186400  0.43673500  1
  C  C16  1  0.19854500  0.39709100  0.25000000  1
  C  C17  1  0.80145500  0.60290900  0.75000000  1
  C  C18  1  0.12690600  0.25381200  0.08409900  1
  C  C19  1  0.87309400  0.74618800  0.91590100  1
  C  C20  1  0.87309400  0.74618800  0.58409900  1
  C  C21  1  0.12690600  0.25381200  0.41590100  1
loop_
_geom_bond_atom_site_label_1
_geom_bond_atom_site_label_2
_geom_bond_distance
_geom_bond_site_symmetry_2
C0 C16 1.330297 1_555
C0 Ho0 2.600390 1_455
C0 Ho0 2.600390 1_555
C0 Ho4 2.717332 1_555
C0 Ho3 2.717332 1_555
C0 Ho3 2.717336 1_455
C0 Ho4 2.717336 1_455
C1 C17 1.330297 1_555
C1 Ho1 2.600390 1_655
C1 Ho1 2.600390 1_555
C1 Ho2 2.717332 1_555
C1 Ho5 2.717332 1_555
C1 Ho5 2.717336 1_655
C1 Ho2 2.717336 1_655
C2 Ru0 2.140973 1_655
C2 Ru0 2.140976 1_555
C2 Ho0 2.449062 1_545
C2 Ho0 2.449062 1_445
C2 Ho10 2.456815 1_555
C2 Ho13 2.456815 1_555
C3 Ru1 2.140973 1_455
C3 Ru1 2.140976 1_555
C3 Ho1 2.449062 1_565
C3 Ho1 2.449062 1_665
C3 Ho11 2.456815 1_555
C3 Ho12 2.456815 1_555
C4 C8 1.303980 1_555
C4 Ru3 1.993509 1_555
C4 Ho12 2.525773 1_445
C4 Ho12 2.525775 1_545
C4 Ho8 2.539954 1_455
C4 Ho8 2.539957 1_555
C5 C9 1.303980 1_555
C5 Ru3 1.993509 1_665
C5 Ho13 2.525773 1_665
C5 Ho13 2.525775 1_565
C5 Ho9 2.539954 1_655
C5 Ho9 2.539957 1_555
C6 Ru2 1.993509 1_665
C6 Ho10 2.525773 1_665
C6 Ho10 2.525775 1_565
C6 Ho6 2.539954 1_655
C6 Ho6 2.539957 1_555
C7 Ru2 1.993509 1_556
C7 Ho11 2.525773 1_445
C7 Ho11 2.525775 1_545
C7 Ho7 2.539954 1_455
C7 Ho7 2.539957 1_555
C8 Ho2 2.479618 1_555
C8 Ho1 2.572193 1_555
C8 Ho8 2.715096 1_455
C8 Ho8 2.715096 1_555
C9 Ho3 2.479618 1_555
C9 Ho0 2.572193 1_555
C9 Ho9 2.715096 1_655
C9 Ho9 2.715096 1_555
C10 C6 1.303980 1_555
C10 Ho4 2.479618 1_555
C10 Ho0 2.572193 1_555
C10 Ho6 2.715096 1_655
C10 Ho6 2.715096 1_555
C11 C7 1.303980 1_555
C11 Ho5 2.479618 1_555
C11 Ho1 2.572193 1_555
C11 Ho7 2.715096 1_455
C11 Ho7 2.715096 1_555
C12 C18 1.369354 1_555
C12 Ho6 2.356447 1_555
C12 Ho7 2.481528 1_554
C12 Ho7 2.481528 1_454
C12 Ho4 2.512934 1_555
C12 Ho4 2.512936 1_455
C13 C19 1.369354 1_555
C13 Ho7 2.356447 1_555
C13 Ho6 2.481528 1_556
C13 Ho6 2.481528 1_656
C13 Ho5 2.512934 1_555
C13 Ho5 2.512936 1_655
C14 C20 1.369354 1_555
C14 Ho8 2.356447 1_555
C14 Ho9 2.481528 1_555
C14 Ho9 2.481528 1_655
C14 Ho2 2.512934 1_555
C14 Ho2 2.512936 1_655
C15 C21 1.369354 1_555
C15 Ho9 2.356447 1_555
C15 Ho8 2.481528 1_555
C15 Ho8 2.481528 1_455
C15 Ho3 2.512934 1_555
C15 Ho3 2.512936 1_455
C16 Ru0 1.940524 1_555
C16 Ho4 2.575641 1_455
C16 Ho3 2.575641 1_455
C16 Ho3 2.575641 1_555
C16 Ho4 2.575641 1_555
C17 Ru1 1.940524 1_555
C17 Ho5 2.575641 1_655
C17 Ho2 2.575641 1_655
C17 Ho2 2.575641 1_555
C17 Ho5 2.575641 1_555
C18 Ho10 2.575374 1_555
C18 Ho10 2.575375 1_455
C18 Ru2 2.679119 1_555
C18 Ho4 2.714481 1_555
C18 Ho4 2.714483 1_455
C18 Ho7 2.733519 1_454
C18 Ho7 2.733519 1_554
C19 Ho11 2.575374 1_555
C19 Ho11 2.575375 1_655
C19 Ru2 2.679119 1_666
C19 Ho5 2.714481 1_555
C19 Ho5 2.714483 1_655
C19 Ho6 2.733519 1_656
C19 Ho6 2.733519 1_556
C20 Ho12 2.575374 1_555
C20 Ho12 2.575375 1_655
C20 Ru3 2.679119 1_665
C20 Ho2 2.714481 1_555
C20 Ho2 2.714483 1_655
C20 Ho9 2.733519 1_655
C20 Ho9 2.733519 1_555
C21 Ho13 2.575374 1_555
C21 Ho13 2.575375 1_455
C21 Ru3 2.679119 1_555
C21 Ho3 2.714481 1_555
C21 Ho3 2.714483 1_455
C21 Ho8 2.733519 1_455
C21 Ho8 2.733519 1_555
