# generated using pymatgen
data_Ba2Mn5O10
_symmetry_space_group_name_H-M   'P 1'
_cell_length_a   6.76897201
_cell_length_b   6.76897201
_cell_length_c   9.98348509
_cell_angle_alpha   87.51791250
_cell_angle_beta   87.51791250
_cell_angle_gamma   28.04919432
_symmetry_Int_Tables_number   1
_chemical_formula_structural   Ba2Mn5O10
_chemical_formula_sum   'Ba2 Mn5 O10'
_cell_volume   214.88414469
_cell_formula_units_Z   1
loop_
 _symmetry_equiv_pos_site_id
 _symmetry_equiv_pos_as_xyz
  1  'x, y, z'
loop_
 _atom_site_type_symbol
 _atom_site_label
 _atom_site_symmetry_multiplicity
 _atom_site_fract_x
 _atom_site_fract_y
 _atom_site_fract_z
 _atom_site_occupancy
  Ba  Ba0  1  0.25454200  0.25454200  0.18741600  1
  Ba  Ba1  1  0.74545800  0.74545800  0.81258400  1
  Mn  Mn0  1  0.84942200  0.84942200  0.50508200  1
  Mn  Mn1  1  0.15057800  0.15057800  0.49491800  1
  Mn  Mn2  1  0.00000000  0.00000000  0.00000000  1
  Mn  Mn3  1  0.50469500  0.50469500  0.26139200  1
  Mn  Mn4  1  0.49530500  0.49530500  0.73860800  1
  O  O0  1  0.92675100  0.92675100  0.66461200  1
  O  O1  1  0.07324900  0.07324900  0.33538800  1
  O  O2  1  0.59056600  0.59056600  0.08840400  1
  O  O3  1  0.40943400  0.40943400  0.91159600  1
  O  O4  1  0.73284900  0.73284900  0.39341500  1
  O  O5  1  0.26715100  0.26715100  0.60658500  1
  O  O6  1  0.59437400  0.59437400  0.59247300  1
  O  O7  1  0.40562600  0.40562600  0.40752700  1
  O  O8  1  0.92177500  0.92177500  0.16565000  1
  O  O9  1  0.07822500  0.07822500  0.83435000  1
loop_
_geom_bond_atom_site_label_1
_geom_bond_atom_site_label_2
_geom_bond_distance
_geom_bond_site_symmetry_2
Ba0 O4 2.636148 1_545
Ba0 O4 2.636148 1_455
Ba0 O8 2.742280 1_455
Ba0 O8 2.742280 1_545
Ba0 O1 2.745597 1_555
Ba0 O2 2.914885 1_545
Ba0 O2 2.914885 1_455
Ba0 O7 3.025893 1_555
Ba0 O3 3.349817 1_554
Ba1 O5 2.636148 1_565
Ba1 O5 2.636148 1_655
Ba1 O9 2.742280 1_655
Ba1 O9 2.742280 1_565
Ba1 O0 2.745597 1_555
Ba1 O3 2.914885 1_655
Ba1 O3 2.914885 1_565
Ba1 O6 3.025893 1_555
Ba1 O2 3.349817 1_556
Mn0 O0 1.926806 1_555
Mn0 O4 1.933789 1_555
Mn0 O7 2.029821 1_565
Mn0 O7 2.029821 1_655
Mn0 O5 2.188067 1_655
Mn0 O5 2.188067 1_565
Mn1 O1 1.926806 1_555
Mn1 O5 1.933789 1_555
Mn1 O6 2.029821 1_545
Mn1 O6 2.029821 1_455
Mn1 O4 2.188067 1_455
Mn1 O4 2.188067 1_545
Mn2 O9 1.907584 1_554
Mn2 O8 1.907584 1_445
Mn2 O2 2.231257 1_545
Mn2 O2 2.231257 1_455
Mn2 O3 2.231257 1_454
Mn2 O3 2.231257 1_544
Mn3 O7 1.911065 1_555
Mn3 O2 2.020097 1_555
Mn3 O1 2.026504 1_655
Mn3 O1 2.026504 1_565
Mn3 O8 2.209879 1_545
Mn3 O8 2.209879 1_455
Mn4 O6 1.911065 1_555
Mn4 O3 2.020097 1_555
Mn4 O0 2.026504 1_545
Mn4 O0 2.026504 1_455
Mn4 O9 2.209879 1_655
Mn4 O9 2.209879 1_565
