# generated using pymatgen
data_Al2O3
_symmetry_space_group_name_H-M   'P 1'
_cell_length_a   10.40875611
_cell_length_b   10.31516624
_cell_length_c   10.48306928
_cell_angle_alpha   93.36424839
_cell_angle_beta   91.06723939
_cell_angle_gamma   90.97024258
_symmetry_Int_Tables_number   1
_chemical_formula_structural   Al2O3
_chemical_formula_sum   'Al40 O60'
_cell_volume   1123.22883170
_cell_formula_units_Z   20
loop_
 _symmetry_equiv_pos_site_id
 _symmetry_equiv_pos_as_xyz
  1  'x, y, z'
loop_
 _atom_site_type_symbol
 _atom_site_label
 _atom_site_symmetry_multiplicity
 _atom_site_fract_x
 _atom_site_fract_y
 _atom_site_fract_z
 _atom_site_occupancy
  Al  Al0  1  0.25405100  0.43915200  0.28441100  1
  Al  Al1  1  0.22729000  0.03562900  0.40334300  1
  Al  Al2  1  0.49244300  0.72354800  0.63806700  1
  Al  Al3  1  0.54743700  0.86545800  0.91623100  1
  Al  Al4  1  0.25608900  0.89766800  0.60369300  1
  Al  Al5  1  0.06726200  0.28714900  0.81239100  1
  Al  Al6  1  0.62897300  0.13857100  0.76122200  1
  Al  Al7  1  0.23600200  0.94132800  0.93179600  1
  Al  Al8  1  0.46374100  0.59448400  0.85730100  1
  Al  Al9  1  0.75544400  0.61373100  0.51107800  1
  Al  Al10  1  0.49648500  0.92485300  0.42782700  1
  Al  Al11  1  0.75861600  0.32786800  0.29966500  1
  Al  Al12  1  0.81603400  0.86231200  0.39680100  1
  Al  Al13  1  0.34370900  0.70253800  0.23559800  1
  Al  Al14  1  0.14927300  0.65686000  0.47598200  1
  Al  Al15  1  0.21825200  0.15533000  0.14749000  1
  Al  Al16  1  0.79747400  0.38589000  0.05436000  1
  Al  Al17  1  0.66211400  0.39566100  0.56985400  1
  Al  Al18  1  0.68709400  0.10205200  0.50614600  1
  Al  Al19  1  0.48964100  0.24767500  0.39314900  1
  Al  Al20  1  0.96537300  0.06951800  0.33209800  1
  Al  Al21  1  0.96571900  0.08081100  0.01466200  1
  Al  Al22  1  0.70639800  0.91108000  0.14138900  1
  Al  Al23  1  0.40620500  0.96709500  0.14337900  1
  Al  Al24  1  0.11023300  0.33684100  0.56274900  1
  Al  Al25  1  0.03502300  0.29075100  0.26146500  1
  Al  Al26  1  0.91091000  0.06417700  0.64338700  1
  Al  Al27  1  0.49753900  0.43837700  0.13756900  1
  Al  Al28  1  0.47748400  0.54228500  0.41614700  1
  Al  Al29  1  0.63909000  0.66476000  0.14532600  1
  Al  Al30  1  0.24685000  0.45674000  0.00212300  1
  Al  Al31  1  0.74048000  0.56573500  0.81801300  1
  Al  Al32  1  0.21323700  0.60973000  0.73128800  1
  Al  Al33  1  0.92737400  0.57876500  0.21410800  1
  Al  Al34  1  0.30124800  0.14073000  0.71481500  1
  Al  Al35  1  0.98267400  0.58701100  0.92857900  1
  Al  Al36  1  0.50324700  0.32885100  0.87149500  1
  Al  Al37  1  0.07113600  0.78583700  0.20982900  1
  Al  Al38  1  0.69120300  0.11956600  0.01389000  1
  Al  Al39  1  0.98491600  0.82010500  0.82464400  1
  O  O0  1  0.95842600  0.89961300  0.28266200  1
  O  O1  1  0.30343000  0.07022300  0.03347300  1
  O  O2  1  0.74218900  0.04280100  0.67104200  1
  O  O3  1  0.58382200  0.65316800  0.51038700  1
  O  O4  1  0.39598400  0.35498800  0.00294600  1
  O  O5  1  0.26534800  0.06851200  0.56502000  1
  O  O6  1  0.20981700  0.28802100  0.70866800  1
  O  O7  1  0.75411700  0.52683200  0.65234500  1
  O  O8  1  0.81800200  0.99196300  0.05299900  1
  O  O9  1  0.56194500  0.73510300  0.79728200  1
  O  O10  1  0.45590400  0.19790600  0.76032300  1
  O  O11  1  0.10362600  0.14875000  0.40156400  1
  O  O12  1  0.98414000  0.93568600  0.71051800  1
  O  O13  1  0.50160200  0.39822300  0.50135000  1
  O  O14  1  0.58094000  0.03485900  0.13390400  1
  O  O15  1  0.73165500  0.79217600  0.25254300  1
  O  O16  1  0.66290100  0.93540900  0.43998900  1
  O  O17  1  0.77169700  0.56313700  0.14495100  1
  O  O18  1  0.08967200  0.68090100  0.83336000  1
  O  O19  1  0.41371400  0.36057700  0.28166300  1
  O  O20  1  0.84099600  0.46885600  0.91459000  1
  O  O21  1  0.27223100  0.97675100  0.77226700  1
  O  O22  1  0.29996800  0.55997300  0.88402500  1
  O  O23  1  0.84303500  0.21786300  0.03186300  1
  O  O24  1  0.20119800  0.86880700  0.43017300  1
  O  O25  1  0.18695100  0.74374600  0.62409200  1
  O  O26  1  0.42966500  0.85984900  0.56937100  1
  O  O27  1  0.18198900  0.32323400  0.16090100  1
  O  O28  1  0.08935600  0.43352500  0.92021500  1
  O  O29  1  0.38363700  0.60747400  0.68334700  1
  O  O30  1  0.65692000  0.22017000  0.37799400  1
  O  O31  1  0.57548500  0.47074900  0.80503800  1
  O  O32  1  0.30787900  0.59885500  0.39102400  1
  O  O33  1  0.06682400  0.15961100  0.90813300  1
  O  O34  1  0.63469600  0.79293300  0.03602700  1
  O  O35  1  0.23021400  0.81175500  0.17264900  1
  O  O36  1  0.53249900  0.56932000  0.02647300  1
  O  O37  1  0.12621100  0.51148300  0.60050100  1
  O  O38  1  0.05131400  0.11402400  0.16841500  1
  O  O39  1  0.28351200  0.54608800  0.15381000  1
  O  O40  1  0.39032300  0.85958300  0.98243300  1
  O  O41  1  0.88805800  0.22042400  0.31605300  1
  O  O42  1  0.00404200  0.66184400  0.09116500  1
  O  O43  1  0.64559400  0.25049800  0.90962600  1
  O  O44  1  0.05103000  0.64933700  0.32687100  1
  O  O45  1  0.44873200  0.85006200  0.27292100  1
  O  O46  1  0.74734400  0.45843300  0.42230100  1
  O  O47  1  0.48488400  0.09616300  0.46571000  1
  O  O48  1  0.92767100  0.40804600  0.19602100  1
  O  O49  1  0.86034400  0.73530100  0.48747200  1
  O  O50  1  0.13118500  0.38346600  0.39085300  1
  O  O51  1  0.85466100  0.70018400  0.85319200  1
  O  O52  1  0.51705000  0.59241100  0.25780500  1
  O  O53  1  0.87359100  0.03360600  0.47229100  1
  O  O54  1  0.65383300  0.34889300  0.15662100  1
  O  O55  1  0.06384500  0.91628100  0.96197100  1
  O  O56  1  0.97982600  0.24179400  0.65622100  1
  O  O57  1  0.66886300  0.24515800  0.62795400  1
  O  O58  1  0.31846500  0.08321200  0.26811600  1
  O  O59  1  0.61244100  0.01457800  0.87897200  1
loop_
_geom_bond_atom_site_label_1
_geom_bond_atom_site_label_2
_geom_bond_distance
_geom_bond_site_symmetry_2
Al0 O50 1.820464 1_555
Al0 O39 1.834843 1_555
Al0 O27 1.849460 1_555
Al0 O19 1.861266 1_555
Al0 O32 2.001536 1_555
Al1 O5 1.745718 1_555
Al1 O11 1.752511 1_555
Al1 O24 1.777029 1_545
Al1 O58 1.807518 1_555
Al2 O29 1.726945 1_555
Al2 O26 1.747786 1_555
Al2 O3 1.783257 1_555
Al2 O9 1.803351 1_555
Al3 O59 1.738254 1_565
Al3 O34 1.747138 1_556
Al3 O9 1.789646 1_555
Al3 O40 1.789853 1_555
Al4 O25 1.758234 1_555
Al4 O5 1.832716 1_565
Al4 O26 1.891416 1_555
Al4 O24 1.901545 1_555
Al4 O21 1.905699 1_555
Al5 O33 1.700898 1_555
Al5 O28 1.840802 1_555
Al5 O6 1.856044 1_555
Al5 O56 1.888802 1_455
Al6 O2 1.797125 1_555
Al6 O59 1.837097 1_555
Al6 O57 1.876009 1_555
Al6 O43 1.885630 1_555
Al6 O10 1.912391 1_555
Al7 O21 1.778490 1_555
Al7 O1 1.780636 1_566
Al7 O55 1.841981 1_555
Al7 O40 1.907773 1_555
Al8 O22 1.766370 1_555
Al8 O31 1.809423 1_555
Al8 O9 1.904090 1_555
Al8 O36 1.933318 1_556
Al8 O29 2.003593 1_555
Al9 O49 1.681103 1_555
Al9 O7 1.775648 1_555
Al9 O46 1.804693 1_555
Al9 O3 1.838786 1_555
Al10 O16 1.735606 1_555
Al10 O47 1.794869 1_565
Al10 O26 1.809552 1_555
Al10 O45 1.813607 1_555
Al11 O30 1.768757 1_555
Al11 O41 1.771283 1_555
Al11 O46 1.813329 1_555
Al11 O54 1.862915 1_555
Al11 O48 2.255723 1_555
Al12 O49 1.727120 1_555
Al12 O16 1.828009 1_555
Al12 O15 1.839110 1_555
Al12 O0 1.969059 1_555
Al12 O53 1.972203 1_565
Al13 O35 1.789841 1_555
Al13 O39 1.874950 1_555
Al13 O45 1.876595 1_555
Al13 O32 2.037484 1_555
Al13 O52 2.164443 1_555
Al14 O25 1.780411 1_555
Al14 O44 1.848959 1_555
Al14 O32 1.975431 1_555
Al14 O37 2.059011 1_555
Al14 O24 2.322793 1_555
Al15 O1 1.711155 1_555
Al15 O27 1.776922 1_555
Al15 O38 1.802517 1_555
Al15 O58 1.824289 1_555
Al16 O20 1.800905 1_554
Al16 O23 1.807932 1_555
Al16 O54 1.902272 1_555
Al16 O48 1.992191 1_555
Al16 O17 2.034449 1_555
Al17 O57 1.702679 1_555
Al17 O13 1.807424 1_555
Al17 O7 1.812061 1_555
Al17 O46 1.936003 1_555
Al18 O16 1.827047 1_545
Al18 O30 1.891376 1_555
Al18 O57 1.908632 1_555
Al18 O2 1.946656 1_555
Al18 O53 2.106032 1_555
Al18 O47 2.138406 1_555
Al19 O30 1.777397 1_555
Al19 O47 1.778183 1_555
Al19 O13 1.869526 1_555
Al19 O19 1.871707 1_555
Al20 O11 1.766461 1_655
Al20 O41 1.779634 1_555
Al20 O0 1.798086 1_545
Al20 O53 1.820435 1_555
Al20 O38 2.022622 1_655
Al21 O33 1.771067 1_654
Al21 O38 1.838590 1_655
Al21 O8 1.839576 1_545
Al21 O23 1.923954 1_555
Al21 O55 2.048983 1_644
Al22 O8 1.732668 1_555
Al22 O34 1.744337 1_555
Al22 O15 1.760247 1_555
Al22 O14 1.845551 1_565
Al23 O45 1.919787 1_555
Al23 O1 1.933895 1_565
Al23 O14 1.943766 1_565
Al23 O40 1.966643 1_554
Al23 O58 1.968830 1_565
Al23 O35 2.448796 1_555
Al24 O37 1.825725 1_555
Al24 O50 1.907582 1_555
Al24 O6 1.927944 1_555
Al24 O56 1.970046 1_455
Al24 O11 2.496113 1_555
Al25 O41 1.799313 1_455
Al25 O48 1.815986 1_455
Al25 O50 1.876442 1_555
Al25 O27 1.909949 1_555
Al25 O38 2.027658 1_555
Al25 O11 2.249724 1_555
Al26 O12 1.719492 1_545
Al26 O2 1.797268 1_555
Al26 O53 1.835998 1_555
Al26 O56 1.952536 1_555
Al27 O36 1.870007 1_555
Al27 O54 1.897063 1_555
Al27 O4 1.902655 1_555
Al27 O19 1.963347 1_555
Al27 O52 1.974590 1_555
Al28 O13 1.796979 1_555
Al28 O3 1.814690 1_555
Al28 O52 1.819682 1_555
Al28 O32 1.887334 1_555
Al28 O19 2.356732 1_555
Al29 O17 1.747208 1_555
Al29 O34 1.800231 1_555
Al29 O36 1.876186 1_555
Al29 O15 1.913746 1_555
Al29 O52 1.920386 1_555
Al30 O22 1.769925 1_554
Al30 O39 1.821286 1_555
Al30 O28 1.841770 1_554
Al30 O4 1.888673 1_555
Al30 O27 2.324262 1_555
Al31 O7 1.768236 1_555
Al31 O20 1.798047 1_555
Al31 O51 1.827487 1_555
Al31 O31 1.961278 1_555
Al32 O18 1.824601 1_555
Al32 O29 1.852617 1_555
Al32 O25 1.852663 1_555
Al32 O37 1.867331 1_555
Al32 O22 1.923641 1_555
Al33 O48 1.760137 1_555
Al33 O17 1.763792 1_555
Al33 O42 1.782436 1_655
Al33 O44 1.842424 1_655
Al34 O5 1.729701 1_555
Al34 O10 1.753005 1_555
Al34 O6 1.810081 1_555
Al34 O21 1.850424 1_545
Al35 O18 1.814680 1_655
Al35 O42 1.837376 1_656
Al35 O20 1.895195 1_555
Al35 O28 1.947880 1_655
Al35 O51 1.970925 1_555
Al36 O43 1.750635 1_555
Al36 O10 1.787960 1_555
Al36 O4 1.800560 1_556
Al36 O31 1.815231 1_555
Al37 O35 1.728107 1_555
Al37 O0 1.819750 1_455
Al37 O42 1.849776 1_555
Al37 O44 1.932381 1_555
Al38 O43 1.849259 1_554
Al38 O23 1.863711 1_555
Al38 O59 1.895332 1_554
Al38 O8 1.935078 1_545
Al38 O14 1.952534 1_555
Al39 O12 1.737879 1_555
Al39 O18 1.823138 1_655
Al39 O51 1.860023 1_555
Al39 O55 1.868781 1_655
