# generated using pymatgen
data_Ho4CrSe7
_symmetry_space_group_name_H-M   'P 1'
_cell_length_a   6.80707694
_cell_length_b   6.80707694
_cell_length_c   11.92557896
_cell_angle_alpha   75.09566249
_cell_angle_beta   75.09566249
_cell_angle_gamma   33.87275473
_symmetry_Int_Tables_number   1
_chemical_formula_structural   Ho4CrSe7
_chemical_formula_sum   'Ho4 Cr1 Se7'
_cell_volume   296.64382802
_cell_formula_units_Z   1
loop_
 _symmetry_equiv_pos_site_id
 _symmetry_equiv_pos_as_xyz
  1  'x, y, z'
loop_
 _atom_site_type_symbol
 _atom_site_label
 _atom_site_symmetry_multiplicity
 _atom_site_fract_x
 _atom_site_fract_y
 _atom_site_fract_z
 _atom_site_occupancy
  Ho  Ho0  1  0.69377600  0.69377600  0.20700600  1
  Ho  Ho1  1  0.30670200  0.30670200  0.80164200  1
  Ho  Ho2  1  0.99856100  0.99856100  0.00733300  1
  Ho  Ho3  1  0.11329800  0.11329800  0.56325000  1
  Cr  Cr0  1  0.88444500  0.88444500  0.42514000  1
  Se  Se0  1  0.74716100  0.74716100  0.63480700  1
  Se  Se1  1  0.27227200  0.27227200  0.35196000  1
  Se  Se2  1  0.33577900  0.33577900  0.05095700  1
  Se  Se3  1  0.65996700  0.65996700  0.94864300  1
  Se  Se4  1  0.03081600  0.03081600  0.23012700  1
  Se  Se5  1  0.96461100  0.96461100  0.78498400  1
  Se  Se6  1  0.49261200  0.49261200  0.49415100  1
loop_
_geom_bond_atom_site_label_1
_geom_bond_atom_site_label_2
_geom_bond_distance
_geom_bond_site_symmetry_2
Ho0 Se4 2.863186 1_655
Ho0 Se4 2.863186 1_565
Ho0 Se1 2.985939 1_655
Ho0 Se1 2.985939 1_565
Ho0 Se2 2.994155 1_565
Ho0 Se2 2.994155 1_655
Ho0 Se3 3.227501 1_554
Ho1 Se5 2.825131 1_545
Ho1 Se5 2.825131 1_455
Ho1 Se3 2.975896 1_545
Ho1 Se3 2.975896 1_455
Ho1 Se0 3.053134 1_545
Ho1 Se0 3.053134 1_455
Ho1 Se2 3.096599 1_556
Ho2 Se4 2.799289 1_665
Ho2 Se5 2.803062 1_554
Ho2 Se3 2.837201 1_654
Ho2 Se3 2.837201 1_564
Ho2 Se2 2.846792 1_655
Ho2 Se2 2.846792 1_565
Ho3 Se6 2.788938 1_455
Ho3 Se6 2.788938 1_545
Ho3 Se1 2.798303 1_555
Ho3 Se5 2.826429 1_445
Ho3 Se0 2.915441 1_455
Ho3 Se0 2.915441 1_545
Cr0 Se4 2.580425 1_665
Cr0 Se0 2.654198 1_555
Cr0 Se6 2.686531 1_565
Cr0 Se6 2.686531 1_655
Cr0 Se1 2.741099 1_655
Cr0 Se1 2.741099 1_565
