# generated using pymatgen
data_Pr6InFe13
_symmetry_space_group_name_H-M   'P 1'
_cell_length_a   13.20647844
_cell_length_b   13.20647844
_cell_length_c   13.20647844
_cell_angle_alpha   144.21084647
_cell_angle_beta   144.21084647
_cell_angle_gamma   51.51211948
_symmetry_Int_Tables_number   1
_chemical_formula_structural   Pr6InFe13
_chemical_formula_sum   'Pr12 In2 Fe26'
_cell_volume   783.44548311
_cell_formula_units_Z   2
loop_
 _symmetry_equiv_pos_site_id
 _symmetry_equiv_pos_as_xyz
  1  'x, y, z'
loop_
 _atom_site_type_symbol
 _atom_site_label
 _atom_site_symmetry_multiplicity
 _atom_site_fract_x
 _atom_site_fract_y
 _atom_site_fract_z
 _atom_site_occupancy
  Pr  Pr0  1  0.60411600  0.60411600  0.00000000  1
  Pr  Pr1  1  0.10411600  0.10411600  0.00000000  1
  Pr  Pr2  1  0.39588400  0.39588400  0.00000000  1
  Pr  Pr3  1  0.89588400  0.89588400  0.00000000  1
  Pr  Pr4  1  0.47889700  0.97889700  0.82639800  1
  Pr  Pr5  1  0.15250000  0.65250000  0.17360200  1
  Pr  Pr6  1  0.97889700  0.15250000  0.50000000  1
  Pr  Pr7  1  0.65250000  0.47889700  0.50000000  1
  Pr  Pr8  1  0.52110300  0.02110300  0.17360200  1
  Pr  Pr9  1  0.84750000  0.34750000  0.82639800  1
  Pr  Pr10  1  0.02110300  0.84750000  0.50000000  1
  Pr  Pr11  1  0.34750000  0.52110300  0.50000000  1
  In  In0  1  0.25000000  0.25000000  0.00000000  1
  In  In1  1  0.75000000  0.75000000  0.00000000  1
  Fe  Fe0  1  0.50000000  0.00000000  0.50000000  1
  Fe  Fe1  1  0.00000000  0.50000000  0.50000000  1
  Fe  Fe2  1  0.56677000  0.71050200  0.27727100  1
  Fe  Fe3  1  0.43323000  0.28949800  0.72272900  1
  Fe  Fe4  1  0.06677000  0.78949800  0.85626800  1
  Fe  Fe5  1  0.93323000  0.21050200  0.14373200  1
  Fe  Fe6  1  0.28949800  0.56677000  0.85626800  1
  Fe  Fe7  1  0.71050200  0.43323000  0.14373200  1
  Fe  Fe8  1  0.21050200  0.06677000  0.27727100  1
  Fe  Fe9  1  0.78949800  0.93323000  0.72272900  1
  Fe  Fe10  1  0.62111900  0.12111900  0.85769300  1
  Fe  Fe11  1  0.26342600  0.76342600  0.14230700  1
  Fe  Fe12  1  0.12111900  0.26342600  0.50000000  1
  Fe  Fe13  1  0.76342600  0.62111900  0.50000000  1
  Fe  Fe14  1  0.37888100  0.87888100  0.14230700  1
  Fe  Fe15  1  0.73657400  0.23657400  0.85769300  1
  Fe  Fe16  1  0.87888100  0.73657400  0.50000000  1
  Fe  Fe17  1  0.23657400  0.37888100  0.50000000  1
  Fe  Fe18  1  0.79544500  0.29544500  0.27548100  1
  Fe  Fe19  1  0.01996400  0.51996400  0.72451900  1
  Fe  Fe20  1  0.29544500  0.01996400  0.50000000  1
  Fe  Fe21  1  0.51996400  0.79544500  0.50000000  1
  Fe  Fe22  1  0.20455500  0.70455500  0.72451900  1
  Fe  Fe23  1  0.98003600  0.48003600  0.27548100  1
  Fe  Fe24  1  0.70455500  0.98003600  0.50000000  1
  Fe  Fe25  1  0.48003600  0.20455500  0.50000000  1
loop_
_geom_bond_atom_site_label_1
_geom_bond_atom_site_label_2
_geom_bond_distance
_geom_bond_site_symmetry_2
Pr0 Pr9 3.586704 1_554
Pr0 Pr11 3.586712 1_554
Pr0 Pr10 3.586712 1_655
Pr0 Pr8 3.586717 1_565
Pr1 Pr9 3.586704 1_454
Pr1 Pr11 3.586712 1_555
Pr1 Pr10 3.586712 1_544
Pr1 Pr8 3.586717 1_555
Pr2 Pr5 3.586704 1_555
Pr2 Pr6 3.586712 1_454
Pr2 Pr7 3.586712 1_555
Pr2 Pr4 3.586717 1_544
Pr3 Pr5 3.586704 1_655
Pr3 Pr6 3.586712 1_565
Pr3 Pr7 3.586712 1_554
Pr3 Pr4 3.586717 1_554
Pr4 Pr8 3.706822 1_566
Pr4 Pr5 3.746233 1_555
Pr5 Pr9 3.706862 1_454
Pr6 Pr7 3.746222 1_555
Pr6 Pr8 4.097266 1_555
Pr6 Pr9 4.097284 1_555
Pr7 Pr8 4.097266 1_555
Pr7 Pr9 4.097284 1_555
Pr8 Pr9 3.746233 1_555
Pr10 Pr6 3.706848 1_465
Pr10 Pr11 3.746222 1_555
Pr10 Pr4 4.097266 1_555
Pr10 Pr5 4.097284 1_555
Pr11 Pr7 3.706848 1_555
Pr11 Pr4 4.097266 1_555
Pr11 Pr5 4.097284 1_555
In0 Pr4 3.415911 1_544
In0 Pr8 3.415911 1_555
In0 Pr6 3.415918 1_454
In0 Pr7 3.415918 1_555
In0 Pr10 3.415918 1_544
In0 Pr11 3.415918 1_555
In0 Pr9 3.415922 1_454
In0 Pr5 3.415922 1_555
In0 Pr2 3.470418 1_555
In0 Pr1 3.470418 1_555
In1 Pr4 3.415911 1_554
In1 Pr8 3.415911 1_565
In1 Pr7 3.415918 1_554
In1 Pr6 3.415918 1_565
In1 Pr10 3.415918 1_655
In1 Pr11 3.415918 1_554
In1 Pr9 3.415922 1_554
In1 Pr5 3.415922 1_655
In1 Pr3 3.470418 1_555
In1 Pr0 3.470418 1_555
Fe0 Fe9 2.411198 1_545
Fe0 Fe3 2.411198 1_555
Fe0 Fe2 2.411198 1_545
Fe0 Fe8 2.411198 1_555
Fe0 Fe14 2.469717 1_545
Fe0 Fe15 2.469717 1_555
Fe0 Fe10 2.469717 1_555
Fe0 Fe11 2.469717 1_545
Fe0 Fe24 2.545745 1_545
Fe0 Fe25 2.545745 1_555
Fe0 Fe20 2.545745 1_555
Fe0 Fe21 2.545745 1_545
Fe1 Fe4 2.411195 1_555
Fe1 Fe6 2.411195 1_555
Fe1 Fe7 2.411195 1_455
Fe1 Fe5 2.411195 1_455
Fe1 Fe17 2.469717 1_555
Fe1 Fe16 2.469717 1_455
Fe1 Fe12 2.469717 1_555
Fe1 Fe13 2.469717 1_455
Fe1 Fe23 2.545745 1_455
Fe1 Fe19 2.545745 1_555
Fe1 Fe22 2.545745 1_555
Fe1 Fe18 2.545745 1_455
Fe2 Fe6 2.534660 1_554
Fe2 Fe7 2.534664 1_555
Fe2 Fe9 2.556372 1_555
Fe2 Fe24 2.650669 1_555
Fe2 Fe21 2.650689 1_555
Fe2 Pr0 3.057245 1_555
Fe2 Pr2 3.057264 1_555
Fe3 Fe7 2.534660 1_556
Fe3 Fe6 2.534664 1_555
Fe3 Fe8 2.556372 1_555
Fe3 Pr2 3.057245 1_556
Fe3 Pr0 3.057264 1_556
Fe4 Fe8 2.534660 1_566
Fe4 Fe9 2.534664 1_455
Fe4 Fe6 2.556361 1_555
Fe4 Pr3 3.057257 1_456
Fe4 Pr1 3.057257 1_566
Fe5 Fe9 2.534660 1_544
Fe5 Fe8 2.534664 1_655
Fe5 Fe7 2.556361 1_555
Fe5 Pr1 3.057257 1_655
Fe5 Pr3 3.057257 1_545
Fe6 Pr0 3.057257 1_556
Fe6 Pr2 3.057257 1_556
Fe7 Pr0 3.057257 1_555
Fe7 Pr2 3.057257 1_555
Fe8 Pr1 3.057245 1_555
Fe8 Pr3 3.057264 1_445
Fe9 Pr3 3.057245 1_556
Fe9 Pr1 3.057264 1_666
Fe10 Fe5 2.492823 1_556
Fe10 Fe7 2.492823 1_556
Fe10 Fe18 2.534685 1_556
Fe10 Fe21 2.559293 1_545
Fe10 Fe20 2.559293 1_555
Fe10 Fe9 2.581831 1_545
Fe10 Fe3 2.581831 1_555
Fe10 Fe15 2.746546 1_555
Fe10 Pr4 3.016418 1_545
Fe10 Pr3 3.180886 1_546
Fe10 Pr2 3.180886 1_556
Fe11 Fe4 2.492823 1_554
Fe11 Fe6 2.492823 1_554
Fe11 Fe19 2.534685 1_554
Fe11 Fe21 2.559293 1_555
Fe11 Fe20 2.559293 1_565
Fe11 Fe2 2.581843 1_555
Fe11 Fe8 2.581843 1_565
Fe11 Fe14 2.746546 1_555
Fe11 Pr5 3.016394 1_555
Fe11 Pr2 3.180886 1_555
Fe11 Pr3 3.180886 1_455
Fe12 Fe3 2.492819 1_555
Fe12 Fe8 2.492833 1_555
Fe12 Fe20 2.534685 1_555
Fe12 Fe19 2.559293 1_555
Fe12 Fe18 2.559293 1_455
Fe12 Fe5 2.581839 1_455
Fe12 Fe6 2.581839 1_555
Fe12 Fe17 2.746546 1_555
Fe12 Pr6 3.016406 1_455
Fe12 Pr3 3.180886 1_445
Fe12 Pr2 3.180886 1_556
Fe13 Fe9 2.492819 1_555
Fe13 Fe2 2.492833 1_555
Fe13 Fe21 2.534685 1_555
Fe13 Fe19 2.559293 1_655
Fe13 Fe18 2.559293 1_555
Fe13 Fe4 2.581839 1_655
Fe13 Fe7 2.581839 1_555
Fe13 Fe16 2.746546 1_555
Fe13 Pr7 3.016406 1_555
Fe13 Pr3 3.180886 1_556
Fe13 Pr2 3.180886 1_555
Fe14 Fe6 2.492823 1_554
Fe14 Fe4 2.492823 1_554
Fe14 Fe22 2.534685 1_554
Fe14 Fe24 2.559293 1_555
Fe14 Fe25 2.559293 1_565
Fe14 Fe8 2.581831 1_565
Fe14 Fe2 2.581831 1_555
Fe14 Pr8 3.016418 1_565
Fe14 Pr0 3.180886 1_555
Fe14 Pr1 3.180886 1_565
Fe15 Fe5 2.492823 1_556
Fe15 Fe7 2.492823 1_556
Fe15 Fe23 2.534685 1_556
Fe15 Fe24 2.559293 1_545
Fe15 Fe25 2.559293 1_555
Fe15 Fe9 2.581843 1_545
Fe15 Fe3 2.581843 1_555
Fe15 Pr9 3.016394 1_555
Fe15 Pr1 3.180886 1_656
Fe15 Pr0 3.180886 1_556
Fe16 Fe2 2.492819 1_555
Fe16 Fe9 2.492833 1_555
Fe16 Fe24 2.534685 1_555
Fe16 Fe23 2.559293 1_555
Fe16 Fe22 2.559293 1_655
Fe16 Fe4 2.581839 1_655
Fe16 Fe7 2.581839 1_555
Fe16 Pr10 3.016406 1_655
Fe16 Pr0 3.180886 1_555
Fe16 Pr1 3.180886 1_666
Fe17 Fe8 2.492819 1_555
Fe17 Fe3 2.492833 1_555
Fe17 Fe25 2.534685 1_555
Fe17 Fe22 2.559293 1_555
Fe17 Fe23 2.559293 1_455
Fe17 Fe6 2.581839 1_555
Fe17 Fe5 2.581839 1_455
Fe17 Pr11 3.016406 1_555
Fe17 Pr1 3.180886 1_555
Fe17 Pr0 3.180886 1_556
Fe18 Fe19 2.576917 1_655
Fe18 Fe7 2.650676 1_555
Fe18 Fe5 2.650676 1_555
Fe18 Pr7 3.155815 1_555
Fe18 Pr6 3.155815 1_555
Fe18 Pr3 3.288112 1_545
Fe18 Pr2 3.288112 1_555
Fe18 Pr4 3.381180 1_544
Fe19 Fe4 2.650676 1_555
Fe19 Fe6 2.650676 1_555
Fe19 Pr7 3.155815 1_455
Fe19 Pr6 3.155815 1_455
Fe19 Pr3 3.288112 1_456
Fe19 Pr2 3.288112 1_556
Fe19 Pr5 3.381165 1_556
Fe20 Fe21 2.576917 1_545
Fe20 Fe3 2.650669 1_555
Fe20 Fe8 2.650689 1_555
Fe20 Pr5 3.155810 1_545
Fe20 Pr4 3.155826 1_545
Fe20 Pr3 3.288112 1_445
Fe20 Pr2 3.288112 1_556
Fe20 Pr6 3.381177 1_455
Fe21 Fe9 2.650669 1_555
Fe21 Pr5 3.155810 1_555
Fe21 Pr4 3.155826 1_555
Fe21 Pr3 3.288112 1_556
Fe21 Pr2 3.288112 1_555
Fe21 Pr7 3.381177 1_555
Fe22 Fe23 2.576917 1_455
Fe22 Fe6 2.650676 1_555
Fe22 Fe4 2.650676 1_555
Fe22 Pr11 3.155815 1_555
Fe22 Pr10 3.155815 1_555
Fe22 Pr0 3.288112 1_556
Fe22 Pr1 3.288112 1_566
Fe22 Pr8 3.381180 1_566
Fe23 Fe5 2.650676 1_555
Fe23 Fe7 2.650676 1_555
Fe23 Pr10 3.155815 1_655
Fe23 Pr11 3.155815 1_655
Fe23 Pr0 3.288112 1_555
Fe23 Pr1 3.288112 1_655
Fe23 Pr9 3.381165 1_554
Fe24 Fe25 2.576917 1_565
Fe24 Fe9 2.650689 1_555
Fe24 Pr9 3.155810 1_565
Fe24 Pr8 3.155826 1_565
Fe24 Pr0 3.288112 1_555
Fe24 Pr1 3.288112 1_666
Fe24 Pr10 3.381177 1_655
Fe25 Fe8 2.650669 1_555
Fe25 Fe3 2.650689 1_555
Fe25 Pr9 3.155810 1_555
Fe25 Pr8 3.155826 1_555
Fe25 Pr1 3.288112 1_555
Fe25 Pr0 3.288112 1_556
Fe25 Pr11 3.381177 1_555
