# generated using pymatgen
data_TbAlAu
_symmetry_space_group_name_H-M   'P 1'
_cell_length_a   4.46041694
_cell_length_b   7.21646831
_cell_length_c   7.74659838
_cell_angle_alpha   90.00000000
_cell_angle_beta   90.00000000
_cell_angle_gamma   90.00000000
_symmetry_Int_Tables_number   1
_chemical_formula_structural   TbAlAu
_chemical_formula_sum   'Tb4 Al4 Au4'
_cell_volume   249.35105270
_cell_formula_units_Z   4
loop_
 _symmetry_equiv_pos_site_id
 _symmetry_equiv_pos_as_xyz
  1  'x, y, z'
loop_
 _atom_site_type_symbol
 _atom_site_label
 _atom_site_symmetry_multiplicity
 _atom_site_fract_x
 _atom_site_fract_y
 _atom_site_fract_z
 _atom_site_occupancy
  Tb  Tb0  1  0.25000000  0.00782309  0.30141891  1
  Tb  Tb1  1  0.25000000  0.50782309  0.19858109  1
  Tb  Tb2  1  0.75000000  0.99218428  0.69857556  1
  Tb  Tb3  1  0.75000000  0.49218428  0.80142444  1
  Al  Al0  1  0.25000000  0.17401219  0.92221285  1
  Al  Al1  1  0.25000000  0.67401219  0.57778715  1
  Al  Al2  1  0.75000000  0.82597504  0.07781280  1
  Al  Al3  1  0.75000000  0.32597504  0.42218720  1
  Au  Au0  1  0.25000000  0.28703092  0.59373604  1
  Au  Au1  1  0.25000000  0.78703092  0.90626396  1
  Au  Au2  1  0.75000000  0.71297449  0.40625393  1
  Au  Au3  1  0.75000000  0.21297449  0.09374607  1
loop_
_geom_bond_atom_site_label_1
_geom_bond_atom_site_label_2
_geom_bond_distance
_geom_bond_site_symmetry_2
Al0 Au3 2.611244 1_456
Al0 Au3 2.611244 1_556
Al0 Au0 2.672092 1_555
Al0 Au1 2.795370 1_545
Al0 Tb2 3.113983 1_445
Al0 Tb2 3.113983 1_545
Al0 Tb0 3.172942 1_556
Al0 Tb1 3.222807 1_556
Al0 Tb3 3.334867 1_455
Al0 Tb3 3.334867 1_555
Al1 Au2 2.611244 1_455
Al1 Au2 2.611244 1_555
Al1 Au1 2.672092 1_555
Al1 Au0 2.795370 1_555
Al1 Tb3 3.113983 1_555
Al1 Tb3 3.113983 1_455
Al1 Tb1 3.172942 1_555
Al1 Tb0 3.222807 1_565
Al1 Tb2 3.334867 1_555
Al1 Tb2 3.334867 1_455
Al2 Au1 2.611291 1_654
Al2 Au1 2.611291 1_554
Al2 Au2 2.671788 1_555
Al2 Au3 2.795495 1_565
Al2 Tb0 3.113910 1_565
Al2 Tb0 3.113910 1_665
Al2 Tb2 3.173220 1_554
Al2 Tb3 3.222802 1_554
Al2 Tb1 3.334724 1_555
Al2 Tb1 3.334724 1_655
Al3 Au0 2.611291 1_555
Al3 Au0 2.611291 1_655
Al3 Au3 2.671788 1_555
Al3 Au2 2.795495 1_555
Al3 Tb1 3.113910 1_555
Al3 Tb1 3.113910 1_655
Al3 Tb3 3.173220 1_555
Al3 Tb2 3.222802 1_545
Al3 Tb0 3.334724 1_555
Al3 Tb0 3.334724 1_655
Au0 Tb0 3.031104 1_555
Au0 Tb3 3.123163 1_455
Au0 Tb3 3.123163 1_555
Au0 Tb2 3.187592 1_545
Au0 Tb2 3.187592 1_445
Au0 Tb1 3.450957 1_555
Au1 Tb1 3.031104 1_556
Au1 Tb2 3.123163 1_455
Au1 Tb2 3.123163 1_555
Au1 Tb3 3.187592 1_455
Au1 Tb3 3.187592 1_555
Au1 Tb0 3.450957 1_566
Au2 Tb2 3.031140 1_555
Au2 Tb1 3.123095 1_655
Au2 Tb1 3.123095 1_555
Au2 Tb0 3.187593 1_565
Au2 Tb0 3.187593 1_665
Au2 Tb3 3.451058 1_555
Au3 Tb3 3.031140 1_554
Au3 Tb0 3.123095 1_655
Au3 Tb0 3.123095 1_555
Au3 Tb1 3.187593 1_555
Au3 Tb1 3.187593 1_655
Au3 Tb2 3.451058 1_544
