# generated using pymatgen
data_Ho2Mg3Ge4
_symmetry_space_group_name_H-M   'P 1'
_cell_length_a   6.98748700
_cell_length_b   7.64075000
_cell_length_c   14.28211900
_cell_angle_alpha   90.00000000
_cell_angle_beta   90.00000000
_cell_angle_gamma   90.00000000
_symmetry_Int_Tables_number   1
_chemical_formula_structural   Ho2Mg3Ge4
_chemical_formula_sum   'Ho8 Mg12 Ge16'
_cell_volume   762.51721035
_cell_formula_units_Z   4
loop_
 _symmetry_equiv_pos_site_id
 _symmetry_equiv_pos_as_xyz
  1  'x, y, z'
loop_
 _atom_site_type_symbol
 _atom_site_label
 _atom_site_symmetry_multiplicity
 _atom_site_fract_x
 _atom_site_fract_y
 _atom_site_fract_z
 _atom_site_occupancy
  Ho  Ho0  1  0.00427400  0.18405600  0.09461000  1
  Ho  Ho1  1  0.99572600  0.81594400  0.90539000  1
  Ho  Ho2  1  0.49572600  0.68405600  0.90539000  1
  Ho  Ho3  1  0.99572600  0.81594400  0.59461000  1
  Ho  Ho4  1  0.50427400  0.31594400  0.09461000  1
  Ho  Ho5  1  0.00427400  0.18405600  0.40539000  1
  Ho  Ho6  1  0.50427400  0.31594400  0.40539000  1
  Ho  Ho7  1  0.49572600  0.68405600  0.59461000  1
  Mg  Mg0  1  0.15856400  0.50622400  0.75000000  1
  Mg  Mg1  1  0.84143600  0.49377600  0.25000000  1
  Mg  Mg2  1  0.34143600  0.00622400  0.25000000  1
  Mg  Mg3  1  0.65856400  0.99377600  0.75000000  1
  Mg  Mg4  1  0.32865700  0.17510300  0.62336700  1
  Mg  Mg5  1  0.67134300  0.82489700  0.37663300  1
  Mg  Mg6  1  0.17134300  0.67510300  0.37663300  1
  Mg  Mg7  1  0.67134300  0.82489700  0.12336700  1
  Mg  Mg8  1  0.82865700  0.32489700  0.62336700  1
  Mg  Mg9  1  0.32865700  0.17510300  0.87663300  1
  Mg  Mg10  1  0.82865700  0.32489700  0.87663300  1
  Mg  Mg11  1  0.17134300  0.67510300  0.12336700  1
  Ge  Ge0  1  0.28749900  0.86320600  0.75000000  1
  Ge  Ge1  1  0.71250100  0.13679400  0.25000000  1
  Ge  Ge2  1  0.21250100  0.36320600  0.25000000  1
  Ge  Ge3  1  0.78749900  0.63679400  0.75000000  1
  Ge  Ge4  1  0.03000600  0.10680200  0.75000000  1
  Ge  Ge5  1  0.96999400  0.89319800  0.25000000  1
  Ge  Ge6  1  0.46999400  0.60680200  0.25000000  1
  Ge  Ge7  1  0.53000600  0.39319800  0.75000000  1
  Ge  Ge8  1  0.16964100  0.46421400  0.53733100  1
  Ge  Ge9  1  0.83035900  0.53578600  0.46266900  1
  Ge  Ge10  1  0.33035900  0.96421400  0.46266900  1
  Ge  Ge11  1  0.83035900  0.53578600  0.03733100  1
  Ge  Ge12  1  0.66964100  0.03578600  0.53733100  1
  Ge  Ge13  1  0.16964100  0.46421400  0.96266900  1
  Ge  Ge14  1  0.66964100  0.03578600  0.96266900  1
  Ge  Ge15  1  0.33035900  0.96421400  0.03733100  1
loop_
_geom_bond_atom_site_label_1
_geom_bond_atom_site_label_2
_geom_bond_distance
_geom_bond_site_symmetry_2
Ge0 Ge4 2.588725 1_565
Ge0 Mg3 2.778126 1_555
Ge0 Mg0 2.872549 1_555
Ge0 Ho7 2.985965 1_555
Ge0 Ho2 2.985965 1_555
Ge0 Mg9 3.005494 1_565
Ge0 Mg4 3.005494 1_565
Ge0 Ho3 3.035166 1_455
Ge0 Ho1 3.035166 1_455
Ge1 Ge5 2.588725 1_545
Ge1 Mg2 2.778126 1_555
Ge1 Mg1 2.872549 1_555
Ge1 Ho4 2.985965 1_555
Ge1 Ho6 2.985965 1_555
Ge1 Mg5 3.005494 1_545
Ge1 Mg7 3.005494 1_545
Ge1 Ho0 3.035166 1_655
Ge1 Ho5 3.035166 1_655
Ge2 Ge6 2.588725 1_555
Ge2 Mg1 2.778126 1_455
Ge2 Mg2 2.872549 1_555
Ge2 Ho0 2.985965 1_555
Ge2 Ho5 2.985965 1_555
Ge2 Mg6 3.005494 1_555
Ge2 Mg11 3.005494 1_555
Ge2 Ho4 3.035166 1_555
Ge2 Ho6 3.035166 1_555
Ge3 Ge7 2.588725 1_555
Ge3 Mg0 2.778126 1_655
Ge3 Mg3 2.872549 1_555
Ge3 Ho3 2.985965 1_555
Ge3 Ho1 2.985965 1_555
Ge3 Mg10 3.005494 1_555
Ge3 Mg8 3.005494 1_555
Ge3 Ho7 3.035166 1_555
Ge3 Ho2 3.035166 1_555
Ge4 Mg3 2.735352 1_445
Ge4 Mg9 2.810366 1_555
Ge4 Mg4 2.810366 1_555
Ge4 Mg8 2.833257 1_455
Ge4 Mg10 2.833257 1_455
Ge4 Ho3 3.149858 1_445
Ge4 Ho1 3.149858 1_445
Ge4 Mg0 3.181341 1_555
Ge5 Mg2 2.735352 1_665
Ge5 Mg5 2.810366 1_555
Ge5 Mg7 2.810366 1_555
Ge5 Mg6 2.833257 1_655
Ge5 Mg11 2.833257 1_655
Ge5 Ho0 3.149858 1_665
Ge5 Ho5 3.149858 1_665
Ge5 Mg1 3.181341 1_555
Ge6 Mg1 2.735352 1_555
Ge6 Mg6 2.810366 1_555
Ge6 Mg11 2.810366 1_555
Ge6 Mg5 2.833257 1_555
Ge6 Mg7 2.833257 1_555
Ge6 Ho4 3.149858 1_555
Ge6 Ho6 3.149858 1_555
Ge6 Mg2 3.181341 1_565
Ge7 Mg0 2.735352 1_555
Ge7 Mg8 2.810366 1_555
Ge7 Mg10 2.810366 1_555
Ge7 Mg9 2.833257 1_555
Ge7 Mg4 2.833257 1_555
Ge7 Ho7 3.149858 1_555
Ge7 Ho2 3.149858 1_555
Ge7 Mg3 3.181341 1_545
Ge8 Ge9 2.656403 1_455
Ge8 Mg4 2.761209 1_555
Ge8 Mg6 2.804302 1_555
Ge8 Mg8 2.884425 1_455
Ge8 Ho7 2.946599 1_555
Ge8 Mg0 3.055258 1_555
Ge8 Ho3 3.060811 1_455
Ge8 Ho5 3.077072 1_555
Ge8 Ho6 3.209639 1_555
Ge9 Mg5 2.761209 1_555
Ge9 Mg8 2.804302 1_555
Ge9 Mg6 2.884425 1_655
Ge9 Ho6 2.946599 1_555
Ge9 Mg1 3.055258 1_555
Ge9 Ho5 3.060811 1_655
Ge9 Ho3 3.077072 1_555
Ge9 Ho7 3.209639 1_555
Ge10 Ge12 2.656403 1_565
Ge10 Mg6 2.761209 1_555
Ge10 Mg4 2.804302 1_565
Ge10 Mg5 2.884425 1_555
Ge10 Ho5 2.946599 1_565
Ge10 Mg2 3.055258 1_565
Ge10 Ho6 3.060811 1_565
Ge10 Ho7 3.077072 1_555
Ge10 Ho3 3.209639 1_455
Ge11 Ge13 2.656403 1_654
Ge11 Mg7 2.761209 1_555
Ge11 Mg10 2.804302 1_554
Ge11 Mg11 2.884425 1_655
Ge11 Ho4 2.946599 1_555
Ge11 Mg1 3.055258 1_555
Ge11 Ho0 3.060811 1_655
Ge11 Ho1 3.077072 1_554
Ge11 Ho2 3.209639 1_554
Ge12 Mg8 2.761209 1_555
Ge12 Mg5 2.804302 1_545
Ge12 Mg4 2.884425 1_555
Ge12 Ho3 2.946599 1_545
Ge12 Mg3 3.055258 1_545
Ge12 Ho7 3.060811 1_545
Ge12 Ho6 3.077072 1_555
Ge12 Ho5 3.209639 1_655
Ge13 Mg9 2.761209 1_555
Ge13 Mg11 2.804302 1_556
Ge13 Mg10 2.884425 1_455
Ge13 Ho2 2.946599 1_555
Ge13 Mg0 3.055258 1_555
Ge13 Ho1 3.060811 1_455
Ge13 Ho0 3.077072 1_556
Ge13 Ho4 3.209639 1_556
Ge14 Ge15 2.656403 1_546
Ge14 Mg10 2.761209 1_555
Ge14 Mg7 2.804302 1_546
Ge14 Mg9 2.884425 1_555
Ge14 Ho1 2.946599 1_545
Ge14 Mg3 3.055258 1_545
Ge14 Ho2 3.060811 1_545
Ge14 Ho4 3.077072 1_556
Ge14 Ho0 3.209639 1_656
Ge15 Mg11 2.761209 1_555
Ge15 Mg9 2.804302 1_564
Ge15 Mg7 2.884425 1_555
Ge15 Ho0 2.946599 1_565
Ge15 Mg2 3.055258 1_565
Ge15 Ho4 3.060811 1_565
Ge15 Ho2 3.077072 1_554
Ge15 Ho1 3.209639 1_454
