# generated using pymatgen
data_DyB4Rh7
_symmetry_space_group_name_H-M   'P 1'
_cell_length_a   5.81631800
_cell_length_b   11.06560385
_cell_length_c   19.21613159
_cell_angle_alpha   90.00000026
_cell_angle_beta   90.00000000
_cell_angle_gamma   90.00000000
_symmetry_Int_Tables_number   1
_chemical_formula_structural   DyB4Rh7
_chemical_formula_sum   'Dy8 B32 Rh56'
_cell_volume   1236.77080683
_cell_formula_units_Z   8
loop_
 _symmetry_equiv_pos_site_id
 _symmetry_equiv_pos_as_xyz
  1  'x, y, z'
loop_
 _atom_site_type_symbol
 _atom_site_label
 _atom_site_symmetry_multiplicity
 _atom_site_fract_x
 _atom_site_fract_y
 _atom_site_fract_z
 _atom_site_occupancy
  Dy  Dy0_0  1  0.00000000  0.49997750  0.00000000  1
  Dy  Dy0_1  1  0.00000000  0.49997750  0.50000000  1
  Dy  Dy0_2  1  0.00000000  0.99997750  0.00000000  1
  Dy  Dy0_3  1  0.00000000  0.99997750  0.50000000  1
  Dy  Dy0_4  1  0.50000000  0.49997750  0.00000000  1
  Dy  Dy0_5  1  0.50000000  0.49997750  0.50000000  1
  Dy  Dy0_6  1  0.50000000  0.99997750  0.00000000  1
  Dy  Dy0_7  1  0.50000000  0.99997750  0.50000000  1
  B  B0_0  1  0.00000000  0.49978250  0.16685900  1
  B  B0_1  1  0.00000000  0.49978250  0.66685900  1
  B  B0_2  1  0.00000000  0.99978250  0.16685900  1
  B  B0_3  1  0.00000000  0.99978250  0.66685900  1
  B  B0_4  1  0.50000000  0.49978250  0.16685900  1
  B  B0_5  1  0.50000000  0.49978250  0.66685900  1
  B  B0_6  1  0.50000000  0.99978250  0.16685900  1
  B  B0_7  1  0.50000000  0.99978250  0.66685900  1
  B  B1_0  1  0.00000000  0.25017150  0.41638900  1
  B  B1_1  1  0.00000000  0.25017150  0.91638900  1
  B  B1_2  1  0.00000000  0.75017150  0.41638900  1
  B  B1_3  1  0.00000000  0.75017150  0.91638900  1
  B  B1_4  1  0.50000000  0.25017150  0.41638900  1
  B  B1_5  1  0.50000000  0.25017150  0.91638900  1
  B  B1_6  1  0.50000000  0.75017150  0.41638900  1
  B  B1_7  1  0.50000000  0.75017150  0.91638900  1
  B  B2_0  1  0.00000000  0.25017150  0.08361100  1
  B  B2_1  1  0.00000000  0.25017150  0.58361100  1
  B  B2_2  1  0.00000000  0.75017150  0.08361100  1
  B  B2_3  1  0.00000000  0.75017150  0.58361100  1
  B  B2_4  1  0.50000000  0.25017150  0.08361100  1
  B  B2_5  1  0.50000000  0.25017150  0.58361100  1
  B  B2_6  1  0.50000000  0.75017150  0.08361100  1
  B  B2_7  1  0.50000000  0.75017150  0.58361100  1
  B  B3_0  1  0.00000000  0.49978250  0.33314100  1
  B  B3_1  1  0.00000000  0.49978250  0.83314100  1
  B  B3_2  1  0.00000000  0.99978250  0.33314100  1
  B  B3_3  1  0.00000000  0.99978250  0.83314100  1
  B  B3_4  1  0.50000000  0.49978250  0.33314100  1
  B  B3_5  1  0.50000000  0.49978250  0.83314100  1
  B  B3_6  1  0.50000000  0.99978250  0.33314100  1
  B  B3_7  1  0.50000000  0.99978250  0.83314100  1
  Rh  Rh0_0  1  0.25000000  0.25140150  0.00000000  1
  Rh  Rh0_1  1  0.25000000  0.25140150  0.50000000  1
  Rh  Rh0_2  1  0.25000000  0.75140150  0.00000000  1
  Rh  Rh0_3  1  0.25000000  0.75140150  0.50000000  1
  Rh  Rh0_4  1  0.75000000  0.25140150  0.00000000  1
  Rh  Rh0_5  1  0.75000000  0.25140150  0.50000000  1
  Rh  Rh0_6  1  0.75000000  0.75140150  0.00000000  1
  Rh  Rh0_7  1  0.75000000  0.75140150  0.50000000  1
  Rh  Rh1_0  1  0.25000000  0.00292400  0.25000000  1
  Rh  Rh1_1  1  0.25000000  0.00292400  0.75000000  1
  Rh  Rh1_2  1  0.25000000  0.50292400  0.25000000  1
  Rh  Rh1_3  1  0.25000000  0.50292400  0.75000000  1
  Rh  Rh1_4  1  0.75000000  0.00292400  0.25000000  1
  Rh  Rh1_5  1  0.75000000  0.00292400  0.75000000  1
  Rh  Rh1_6  1  0.75000000  0.50292400  0.25000000  1
  Rh  Rh1_7  1  0.75000000  0.50292400  0.75000000  1
  Rh  Rh2_0  1  0.25000000  0.12478350  0.12502700  1
  Rh  Rh2_1  1  0.25000000  0.12478350  0.62502700  1
  Rh  Rh2_2  1  0.25000000  0.62478350  0.12502700  1
  Rh  Rh2_3  1  0.25000000  0.62478350  0.62502700  1
  Rh  Rh2_4  1  0.75000000  0.12478350  0.12502700  1
  Rh  Rh2_5  1  0.75000000  0.12478350  0.62502700  1
  Rh  Rh2_6  1  0.75000000  0.62478350  0.12502700  1
  Rh  Rh2_7  1  0.75000000  0.62478350  0.62502700  1
  Rh  Rh3_0  1  0.25000000  0.37296600  0.37289150  1
  Rh  Rh3_1  1  0.25000000  0.37296600  0.87289150  1
  Rh  Rh3_2  1  0.25000000  0.87296600  0.37289150  1
  Rh  Rh3_3  1  0.25000000  0.87296600  0.87289150  1
  Rh  Rh3_4  1  0.75000000  0.37296600  0.37289150  1
  Rh  Rh3_5  1  0.75000000  0.37296600  0.87289150  1
  Rh  Rh3_6  1  0.75000000  0.87296600  0.37289150  1
  Rh  Rh3_7  1  0.75000000  0.87296600  0.87289150  1
  Rh  Rh4_0  1  0.25000000  0.37296600  0.12710850  1
  Rh  Rh4_1  1  0.25000000  0.37296600  0.62710850  1
  Rh  Rh4_2  1  0.25000000  0.87296600  0.12710850  1
  Rh  Rh4_3  1  0.25000000  0.87296600  0.62710850  1
  Rh  Rh4_4  1  0.75000000  0.37296600  0.12710850  1
  Rh  Rh4_5  1  0.75000000  0.37296600  0.62710850  1
  Rh  Rh4_6  1  0.75000000  0.87296600  0.12710850  1
  Rh  Rh4_7  1  0.75000000  0.87296600  0.62710850  1
  Rh  Rh5_0  1  0.25000000  0.12478350  0.37497300  1
  Rh  Rh5_1  1  0.25000000  0.12478350  0.87497300  1
  Rh  Rh5_2  1  0.25000000  0.62478350  0.37497300  1
  Rh  Rh5_3  1  0.25000000  0.62478350  0.87497300  1
  Rh  Rh5_4  1  0.75000000  0.12478350  0.37497300  1
  Rh  Rh5_5  1  0.75000000  0.12478350  0.87497300  1
  Rh  Rh5_6  1  0.75000000  0.62478350  0.37497300  1
  Rh  Rh5_7  1  0.75000000  0.62478350  0.87497300  1
  Rh  Rh6_0  1  0.00000000  0.25018900  0.25000000  1
  Rh  Rh6_1  1  0.00000000  0.25018900  0.75000000  1
  Rh  Rh6_2  1  0.00000000  0.75018900  0.25000000  1
  Rh  Rh6_3  1  0.00000000  0.75018900  0.75000000  1
  Rh  Rh6_4  1  0.50000000  0.25018900  0.25000000  1
  Rh  Rh6_5  1  0.50000000  0.25018900  0.75000000  1
  Rh  Rh6_6  1  0.50000000  0.75018900  0.25000000  1
  Rh  Rh6_7  1  0.50000000  0.75018900  0.75000000  1
loop_
_geom_bond_atom_site_label_1
_geom_bond_atom_site_label_2
_geom_bond_distance
_geom_bond_site_symmetry_2
Dy0_0 Dy0_4 2.908159 1_555
Dy0_0 Dy0_4 2.908159 1_455
Dy0_0 Rh0_4 3.111332 1_455
Dy0_0 Rh0_0 3.111332 1_555
Dy0_0 Rh2_2 3.129510 1_555
Dy0_0 Rh2_6 3.129510 1_455
Dy0_0 Rh5_7 3.129510 1_454
Dy0_0 Rh5_3 3.129510 1_554
Dy0_0 Rh0_6 3.139228 1_455
Dy0_0 Rh0_2 3.139228 1_555
Dy0_0 Rh3_5 3.171062 1_454
Dy0_0 Rh3_1 3.171062 1_554
Dy0_0 Rh4_4 3.171062 1_455
Dy0_0 Rh4_0 3.171062 1_555
Dy0_1 Dy0_5 2.908159 1_555
Dy0_1 Dy0_5 2.908159 1_455
Dy0_1 Rh0_1 3.111332 1_555
Dy0_1 Rh0_5 3.111332 1_455
Dy0_1 Rh2_3 3.129510 1_555
Dy0_1 Rh2_7 3.129510 1_455
Dy0_1 Rh5_6 3.129510 1_455
Dy0_1 Rh5_2 3.129510 1_555
Dy0_1 Rh0_7 3.139228 1_455
Dy0_1 Rh0_3 3.139228 1_555
Dy0_1 Rh3_4 3.171062 1_455
Dy0_1 Rh3_0 3.171062 1_555
Dy0_1 Rh4_5 3.171062 1_455
Dy0_1 Rh4_1 3.171062 1_555
Dy0_2 Dy0_6 2.908159 1_555
Dy0_2 Dy0_6 2.908159 1_455
Dy0_2 Rh0_6 3.111332 1_455
Dy0_2 Rh0_2 3.111332 1_555
Dy0_2 Rh2_4 3.129510 1_465
Dy0_2 Rh2_0 3.129510 1_565
Dy0_2 Rh5_5 3.129510 1_464
Dy0_2 Rh5_1 3.129510 1_564
Dy0_2 Rh0_0 3.139228 1_565
Dy0_2 Rh0_4 3.139228 1_465
Dy0_2 Rh3_7 3.171062 1_454
Dy0_2 Rh3_3 3.171062 1_554
Dy0_2 Rh4_6 3.171062 1_455
Dy0_2 Rh4_2 3.171062 1_555
Dy0_3 Dy0_7 2.908159 1_555
Dy0_3 Dy0_7 2.908159 1_455
Dy0_3 Rh0_3 3.111332 1_555
Dy0_3 Rh0_7 3.111332 1_455
Dy0_3 Rh2_1 3.129510 1_565
Dy0_3 Rh2_5 3.129510 1_465
Dy0_3 Rh5_4 3.129510 1_465
Dy0_3 Rh5_0 3.129510 1_565
Dy0_3 Rh0_5 3.139228 1_465
Dy0_3 Rh0_1 3.139228 1_565
Dy0_3 Rh3_2 3.171062 1_555
Dy0_3 Rh3_6 3.171062 1_455
Dy0_3 Rh4_7 3.171062 1_455
Dy0_3 Rh4_3 3.171062 1_555
Dy0_4 Rh0_0 3.111332 1_555
Dy0_4 Rh0_4 3.111332 1_555
Dy0_4 Rh2_2 3.129510 1_555
Dy0_4 Rh2_6 3.129510 1_555
Dy0_4 Rh5_7 3.129510 1_554
Dy0_4 Rh5_3 3.129510 1_554
Dy0_4 Rh0_2 3.139228 1_555
Dy0_4 Rh0_6 3.139228 1_555
Dy0_4 Rh3_1 3.171062 1_554
Dy0_4 Rh3_5 3.171062 1_554
Dy0_4 Rh4_0 3.171062 1_555
Dy0_4 Rh4_4 3.171062 1_555
Dy0_5 Rh0_1 3.111332 1_555
Dy0_5 Rh0_5 3.111332 1_555
Dy0_5 Rh2_3 3.129510 1_555
Dy0_5 Rh2_7 3.129510 1_555
Dy0_5 Rh5_2 3.129510 1_555
Dy0_5 Rh5_6 3.129510 1_555
Dy0_5 Rh0_3 3.139228 1_555
Dy0_5 Rh0_7 3.139228 1_555
Dy0_5 Rh3_0 3.171062 1_555
Dy0_5 Rh3_4 3.171062 1_555
Dy0_5 Rh4_5 3.171062 1_555
Dy0_5 Rh4_1 3.171062 1_555
Dy0_6 Rh0_2 3.111332 1_555
Dy0_6 Rh0_6 3.111332 1_555
Dy0_6 Rh2_0 3.129510 1_565
Dy0_6 Rh2_4 3.129510 1_565
Dy0_6 Rh5_1 3.129510 1_564
Dy0_6 Rh5_5 3.129510 1_564
Dy0_6 Rh0_0 3.139228 1_565
Dy0_6 Rh0_4 3.139228 1_565
Dy0_6 Rh3_3 3.171062 1_554
Dy0_6 Rh3_7 3.171062 1_554
Dy0_6 Rh4_6 3.171062 1_555
Dy0_6 Rh4_2 3.171062 1_555
Dy0_7 Rh0_3 3.111332 1_555
Dy0_7 Rh0_7 3.111332 1_555
Dy0_7 Rh2_1 3.129510 1_565
Dy0_7 Rh2_5 3.129510 1_565
Dy0_7 Rh5_0 3.129510 1_565
Dy0_7 Rh5_4 3.129510 1_565
Dy0_7 Rh0_1 3.139228 1_565
Dy0_7 Rh0_5 3.139228 1_565
Dy0_7 Rh3_2 3.171062 1_555
Dy0_7 Rh3_6 3.171062 1_555
Dy0_7 Rh4_3 3.171062 1_555
Dy0_7 Rh4_7 3.171062 1_555
B0_0 Rh4_4 2.160340 1_455
B0_0 Rh4_0 2.160340 1_555
B0_0 Rh1_6 2.160564 1_455
B0_0 Rh1_2 2.160564 1_555
B0_0 Rh2_6 2.161896 1_455
B0_0 Rh2_2 2.161896 1_555
B0_0 Dy0_0 3.206385 1_555
B0_1 Rh4_1 2.160340 1_555
B0_1 Rh4_5 2.160340 1_455
B0_1 Rh1_7 2.160564 1_455
B0_1 Rh1_3 2.160564 1_555
B0_1 Rh2_7 2.161896 1_455
B0_1 Rh2_3 2.161896 1_555
B0_1 Dy0_1 3.206385 1_555
B0_2 Rh4_6 2.160340 1_455
B0_2 Rh4_2 2.160340 1_555
B0_2 Rh1_4 2.160564 1_465
B0_2 Rh1_0 2.160564 1_565
B0_2 Rh2_4 2.161896 1_465
B0_2 Rh2_0 2.161896 1_565
B0_2 Dy0_2 3.206385 1_555
B0_3 Rh4_7 2.160340 1_455
B0_3 Rh4_3 2.160340 1_555
B0_3 Rh1_5 2.160564 1_465
B0_3 Rh1_1 2.160564 1_565
B0_3 Rh2_5 2.161896 1_465
B0_3 Rh2_1 2.161896 1_565
B0_3 Dy0_3 3.206385 1_555
B0_4 Rh4_0 2.160340 1_555
B0_4 Rh4_4 2.160340 1_555
B0_4 Rh1_2 2.160564 1_555
B0_4 Rh1_6 2.160564 1_555
B0_4 Rh2_2 2.161896 1_555
B0_4 Rh2_6 2.161896 1_555
B0_4 Dy0_4 3.206385 1_555
B0_5 Rh4_1 2.160340 1_555
B0_5 Rh4_5 2.160340 1_555
B0_5 Rh1_3 2.160564 1_555
B0_5 Rh1_7 2.160564 1_555
B0_5 Rh2_3 2.161896 1_555
B0_5 Rh2_7 2.161896 1_555
B0_5 Dy0_5 3.206385 1_555
B0_6 Rh4_2 2.160340 1_555
B0_6 Rh4_6 2.160340 1_555
B0_6 Rh1_0 2.160564 1_565
B0_6 Rh1_4 2.160564 1_565
B0_6 Rh2_0 2.161896 1_565
B0_6 Rh2_4 2.161896 1_565
B0_6 Dy0_6 3.206385 1_555
B0_7 Rh4_3 2.160340 1_555
B0_7 Rh4_7 2.160340 1_555
B0_7 Rh1_1 2.160564 1_565
B0_7 Rh1_5 2.160564 1_565
B0_7 Rh2_1 2.161896 1_565
B0_7 Rh2_5 2.161896 1_565
B0_7 Dy0_7 3.206385 1_555
B1_0 Rh3_4 2.158547 1_455
B1_0 Rh3_0 2.158547 1_555
B1_0 Rh5_0 2.161683 1_555
B1_0 Rh5_4 2.161683 1_455
B1_0 Rh0_5 2.167015 1_455
B1_0 Rh0_1 2.167015 1_555
B1_0 Dy0_1 3.197268 1_555
B1_0 Dy0_3 3.200981 1_545
B1_1 Rh3_5 2.158547 1_455
B1_1 Rh3_1 2.158547 1_555
B1_1 Rh5_5 2.161683 1_455
B1_1 Rh5_1 2.161683 1_555
B1_1 Rh0_4 2.167015 1_456
B1_1 Rh0_0 2.167015 1_556
B1_1 Dy0_0 3.197268 1_556
B1_1 Dy0_2 3.200981 1_546
B1_2 Rh3_6 2.158547 1_455
B1_2 Rh3_2 2.158547 1_555
B1_2 Rh5_2 2.161683 1_555
B1_2 Rh5_6 2.161683 1_455
B1_2 Rh0_7 2.167015 1_455
B1_2 Rh0_3 2.167015 1_555
B1_2 Dy0_3 3.197268 1_555
B1_2 Dy0_1 3.200981 1_555
B1_3 Rh3_7 2.158547 1_455
B1_3 Rh3_3 2.158547 1_555
B1_3 Rh5_7 2.161683 1_455
B1_3 Rh5_3 2.161683 1_555
B1_3 Rh0_6 2.167015 1_456
B1_3 Rh0_2 2.167015 1_556
B1_3 Dy0_2 3.197268 1_556
B1_3 Dy0_0 3.200981 1_556
B1_4 Rh3_0 2.158547 1_555
B1_4 Rh3_4 2.158547 1_555
B1_4 Rh5_0 2.161683 1_555
B1_4 Rh5_4 2.161683 1_555
B1_4 Rh0_1 2.167015 1_555
B1_4 Rh0_5 2.167015 1_555
B1_4 Dy0_5 3.197268 1_555
B1_4 Dy0_7 3.200981 1_545
B1_5 Rh3_1 2.158547 1_555
B1_5 Rh3_5 2.158547 1_555
B1_5 Rh5_1 2.161683 1_555
B1_5 Rh5_5 2.161683 1_555
B1_5 Rh0_0 2.167015 1_556
B1_5 Rh0_4 2.167015 1_556
B1_5 Dy0_4 3.197268 1_556
B1_5 Dy0_6 3.200981 1_546
B1_6 Rh3_2 2.158547 1_555
B1_6 Rh3_6 2.158547 1_555
B1_6 Rh5_2 2.161683 1_555
B1_6 Rh5_6 2.161683 1_555
B1_6 Rh0_3 2.167015 1_555
B1_6 Rh0_7 2.167015 1_555
B1_6 Dy0_7 3.197268 1_555
B1_6 Dy0_5 3.200981 1_555
B1_7 Rh3_3 2.158547 1_555
B1_7 Rh3_7 2.158547 1_555
B1_7 Rh5_3 2.161683 1_555
B1_7 Rh5_7 2.161683 1_555
B1_7 Rh0_2 2.167015 1_556
B1_7 Rh0_6 2.167015 1_556
B1_7 Dy0_6 3.197268 1_556
B1_7 Dy0_4 3.200981 1_556
B2_0 Rh4_4 2.158547 1_455
B2_0 Rh4_0 2.158547 1_555
B2_0 Rh2_4 2.161683 1_455
B2_0 Rh2_0 2.161683 1_555
B2_0 Rh0_4 2.167015 1_455
B2_0 Rh0_0 2.167015 1_555
B2_0 Dy0_0 3.197268 1_555
B2_0 Dy0_2 3.200981 1_545
B2_1 Rh4_1 2.158547 1_555
B2_1 Rh4_5 2.158547 1_455
B2_1 Rh2_5 2.161683 1_455
B2_1 Rh2_1 2.161683 1_555
B2_1 Rh0_5 2.167015 1_455
B2_1 Rh0_1 2.167015 1_555
B2_1 Dy0_1 3.197268 1_555
B2_1 Dy0_3 3.200981 1_545
B2_2 Rh4_6 2.158547 1_455
B2_2 Rh4_2 2.158547 1_555
B2_2 Rh2_6 2.161683 1_455
B2_2 Rh2_2 2.161683 1_555
B2_2 Rh0_6 2.167015 1_455
B2_2 Rh0_2 2.167015 1_555
B2_2 Dy0_2 3.197268 1_555
B2_2 Dy0_0 3.200981 1_555
B2_3 Rh4_7 2.158547 1_455
B2_3 Rh4_3 2.158547 1_555
B2_3 Rh2_7 2.161683 1_455
B2_3 Rh2_3 2.161683 1_555
B2_3 Rh0_7 2.167015 1_455
B2_3 Rh0_3 2.167015 1_555
B2_3 Dy0_3 3.197268 1_555
B2_3 Dy0_1 3.200981 1_555
B2_4 Rh4_0 2.158547 1_555
B2_4 Rh4_4 2.158547 1_555
B2_4 Rh2_0 2.161683 1_555
B2_4 Rh2_4 2.161683 1_555
B2_4 Rh0_0 2.167015 1_555
B2_4 Rh0_4 2.167015 1_555
B2_4 Dy0_4 3.197268 1_555
B2_4 Dy0_6 3.200981 1_545
B2_5 Rh4_1 2.158547 1_555
B2_5 Rh4_5 2.158547 1_555
B2_5 Rh2_1 2.161683 1_555
B2_5 Rh2_5 2.161683 1_555
B2_5 Rh0_1 2.167015 1_555
B2_5 Rh0_5 2.167015 1_555
B2_5 Dy0_5 3.197268 1_555
B2_5 Dy0_7 3.200981 1_545
B2_6 Rh4_6 2.158547 1_555
B2_6 Rh4_2 2.158547 1_555
B2_6 Rh2_2 2.161683 1_555
B2_6 Rh2_6 2.161683 1_555
B2_6 Rh0_2 2.167015 1_555
B2_6 Rh0_6 2.167015 1_555
B2_6 Dy0_6 3.197268 1_555
B2_6 Dy0_4 3.200981 1_555
B2_7 Rh4_3 2.158547 1_555
B2_7 Rh4_7 2.158547 1_555
B2_7 Rh2_3 2.161683 1_555
B2_7 Rh2_7 2.161683 1_555
B2_7 Rh0_3 2.167015 1_555
B2_7 Rh0_7 2.167015 1_555
B2_7 Dy0_7 3.197268 1_555
B2_7 Dy0_5 3.200981 1_555
B3_0 Rh3_4 2.160340 1_455
B3_0 Rh3_0 2.160340 1_555
B3_0 Rh1_6 2.160564 1_455
B3_0 Rh1_2 2.160564 1_555
B3_0 Rh5_6 2.161896 1_455
B3_0 Rh5_2 2.161896 1_555
B3_0 Dy0_1 3.206385 1_555
B3_1 Rh3_5 2.160340 1_455
B3_1 Rh3_1 2.160340 1_555
B3_1 Rh1_7 2.160564 1_455
B3_1 Rh1_3 2.160564 1_555
B3_1 Rh5_7 2.161896 1_455
B3_1 Rh5_3 2.161896 1_555
B3_1 Dy0_0 3.206385 1_556
B3_2 Rh3_6 2.160340 1_455
B3_2 Rh3_2 2.160340 1_555
B3_2 Rh1_4 2.160564 1_465
B3_2 Rh1_0 2.160564 1_565
B3_2 Rh5_4 2.161896 1_465
B3_2 Rh5_0 2.161896 1_565
B3_2 Dy0_3 3.206385 1_555
B3_3 Rh3_7 2.160340 1_455
B3_3 Rh3_3 2.160340 1_555
B3_3 Rh1_5 2.160564 1_465
B3_3 Rh1_1 2.160564 1_565
B3_3 Rh5_5 2.161896 1_465
B3_3 Rh5_1 2.161896 1_565
B3_3 Dy0_2 3.206385 1_556
B3_4 Rh3_0 2.160340 1_555
B3_4 Rh3_4 2.160340 1_555
B3_4 Rh1_2 2.160564 1_555
B3_4 Rh1_6 2.160564 1_555
B3_4 Rh5_2 2.161896 1_555
B3_4 Rh5_6 2.161896 1_555
B3_4 Dy0_5 3.206385 1_555
B3_5 Rh3_1 2.160340 1_555
B3_5 Rh3_5 2.160340 1_555
B3_5 Rh1_3 2.160564 1_555
B3_5 Rh1_7 2.160564 1_555
B3_5 Rh5_3 2.161896 1_555
B3_5 Rh5_7 2.161896 1_555
B3_5 Dy0_4 3.206385 1_556
B3_6 Rh3_2 2.160340 1_555
B3_6 Rh3_6 2.160340 1_555
B3_6 Rh1_0 2.160564 1_565
B3_6 Rh1_4 2.160564 1_565
B3_6 Rh5_0 2.161896 1_565
B3_6 Rh5_4 2.161896 1_565
B3_6 Dy0_7 3.206385 1_555
B3_7 Rh3_3 2.160340 1_555
B3_7 Rh3_7 2.160340 1_555
B3_7 Rh1_1 2.160564 1_565
B3_7 Rh1_5 2.160564 1_565
B3_7 Rh5_1 2.161896 1_565
B3_7 Rh5_5 2.161896 1_565
B3_7 Dy0_6 3.206385 1_556
Rh1_0 Rh6_0 3.098514 1_555
Rh1_0 Rh6_4 3.098514 1_555
Rh1_0 Rh6_2 3.152092 1_545
Rh1_0 Rh6_6 3.152092 1_545
Rh1_1 Rh6_1 3.098514 1_555
Rh1_1 Rh6_5 3.098514 1_555
Rh1_1 Rh6_3 3.152092 1_545
Rh1_1 Rh6_7 3.152092 1_545
Rh1_2 Rh6_2 3.098514 1_555
Rh1_2 Rh6_6 3.098514 1_555
Rh1_2 Rh6_0 3.152092 1_555
Rh1_2 Rh6_4 3.152092 1_555
Rh1_3 Rh6_7 3.098514 1_555
Rh1_3 Rh6_3 3.098514 1_555
Rh1_3 Rh6_5 3.152092 1_555
Rh1_3 Rh6_1 3.152092 1_555
Rh1_4 Rh6_0 3.098514 1_655
Rh1_4 Rh6_4 3.098514 1_555
Rh1_4 Rh6_2 3.152092 1_645
Rh1_4 Rh6_6 3.152092 1_545
Rh1_5 Rh6_1 3.098514 1_655
Rh1_5 Rh6_5 3.098514 1_555
Rh1_5 Rh6_3 3.152092 1_645
Rh1_5 Rh6_7 3.152092 1_545
Rh1_6 Rh6_2 3.098514 1_655
Rh1_6 Rh6_6 3.098514 1_555
Rh1_6 Rh6_0 3.152092 1_655
Rh1_6 Rh6_4 3.152092 1_555
Rh1_7 Rh6_3 3.098514 1_655
Rh1_7 Rh6_7 3.098514 1_555
Rh1_7 Rh6_1 3.152092 1_655
Rh1_7 Rh6_5 3.152092 1_555
Rh2_0 Rh6_4 3.131647 1_555
Rh2_0 Rh6_0 3.131647 1_555
Rh2_1 Rh6_1 3.131647 1_555
Rh2_1 Rh6_5 3.131647 1_555
Rh2_2 Rh6_2 3.131647 1_555
Rh2_2 Rh6_6 3.131647 1_555
Rh2_3 Rh6_3 3.131647 1_555
Rh2_3 Rh6_7 3.131647 1_555
Rh2_4 Rh6_0 3.131647 1_655
Rh2_4 Rh6_4 3.131647 1_555
Rh2_5 Rh6_1 3.131647 1_655
Rh2_5 Rh6_5 3.131647 1_555
Rh2_6 Rh6_2 3.131647 1_655
Rh2_6 Rh6_6 3.131647 1_555
Rh2_7 Rh6_3 3.131647 1_655
Rh2_7 Rh6_7 3.131647 1_555
Rh3_0 Rh6_0 3.088175 1_555
Rh3_0 Rh6_4 3.088175 1_555
Rh3_1 Rh6_1 3.088175 1_555
Rh3_1 Rh6_5 3.088175 1_555
Rh3_2 Rh6_2 3.088175 1_555
Rh3_2 Rh6_6 3.088175 1_555
Rh3_3 Rh6_7 3.088175 1_555
Rh3_3 Rh6_3 3.088175 1_555
Rh3_4 Rh6_0 3.088175 1_655
Rh3_4 Rh6_4 3.088175 1_555
Rh3_5 Rh6_1 3.088175 1_655
Rh3_5 Rh6_5 3.088175 1_555
Rh3_6 Rh6_2 3.088175 1_655
Rh3_6 Rh6_6 3.088175 1_555
Rh3_7 Rh6_3 3.088175 1_655
Rh3_7 Rh6_7 3.088175 1_555
Rh4_0 Rh6_4 3.088175 1_555
Rh4_0 Rh6_0 3.088175 1_555
Rh4_1 Rh6_1 3.088175 1_555
Rh4_1 Rh6_5 3.088175 1_555
Rh4_2 Rh6_2 3.088175 1_555
Rh4_2 Rh6_6 3.088175 1_555
Rh4_3 Rh6_7 3.088175 1_555
Rh4_3 Rh6_3 3.088175 1_555
Rh4_4 Rh6_0 3.088175 1_655
Rh4_4 Rh6_4 3.088175 1_555
Rh4_5 Rh6_1 3.088175 1_655
Rh4_5 Rh6_5 3.088175 1_555
Rh4_6 Rh6_2 3.088175 1_655
Rh4_6 Rh6_6 3.088175 1_555
Rh4_7 Rh6_3 3.088175 1_655
Rh4_7 Rh6_7 3.088175 1_555
Rh5_0 Rh6_0 3.131647 1_555
Rh5_0 Rh6_4 3.131647 1_555
Rh5_1 Rh6_1 3.131647 1_555
Rh5_1 Rh6_5 3.131647 1_555
Rh5_2 Rh6_2 3.131647 1_555
Rh5_2 Rh6_6 3.131647 1_555
Rh5_3 Rh6_7 3.131647 1_555
Rh5_3 Rh6_3 3.131647 1_555
Rh5_4 Rh6_0 3.131647 1_655
Rh5_4 Rh6_4 3.131647 1_555
Rh5_5 Rh6_1 3.131647 1_655
Rh5_5 Rh6_5 3.131647 1_555
Rh5_6 Rh6_2 3.131647 1_655
Rh5_6 Rh6_6 3.131647 1_555
Rh5_7 Rh6_3 3.131647 1_655
Rh5_7 Rh6_7 3.131647 1_555
Rh6_0 Rh6_4 2.908159 1_455
Rh6_0 Rh6_4 2.908159 1_555
Rh6_1 Rh6_5 2.908159 1_455
Rh6_1 Rh6_5 2.908159 1_555
Rh6_2 Rh6_6 2.908159 1_555
Rh6_2 Rh6_6 2.908159 1_455
Rh6_3 Rh6_7 2.908159 1_555
Rh6_3 Rh6_7 2.908159 1_455
