# generated using pymatgen
data_PrSc3(BO3)4
_symmetry_space_group_name_H-M   'P 1'
_cell_length_a   6.30886933
_cell_length_b   6.30886933
_cell_length_c   12.15966678
_cell_angle_alpha   80.55853292
_cell_angle_beta   80.55853292
_cell_angle_gamma   103.62072538
_symmetry_Int_Tables_number   1
_chemical_formula_structural   PrSc3(BO3)4
_chemical_formula_sum   'Pr2 Sc6 B8 O24'
_cell_volume   453.50755814
_cell_formula_units_Z   2
loop_
 _symmetry_equiv_pos_site_id
 _symmetry_equiv_pos_as_xyz
  1  'x, y, z'
loop_
 _atom_site_type_symbol
 _atom_site_label
 _atom_site_symmetry_multiplicity
 _atom_site_fract_x
 _atom_site_fract_y
 _atom_site_fract_z
 _atom_site_occupancy
  Pr  Pr0  1  0.03214000  0.96786000  0.75000000  1
  Pr  Pr1  1  0.96786000  0.03214000  0.25000000  1
  Sc  Sc0  1  0.29696900  0.79764900  0.47552400  1
  Sc  Sc1  1  0.20235100  0.70303100  0.02447600  1
  Sc  Sc2  1  0.70303100  0.20235100  0.52447600  1
  Sc  Sc3  1  0.79764900  0.29696900  0.97552400  1
  Sc  Sc4  1  0.57419800  0.42580200  0.75000000  1
  Sc  Sc5  1  0.42580200  0.57419800  0.25000000  1
  B  B0  1  0.27032400  0.22166100  0.99958700  1
  B  B1  1  0.77833900  0.72967600  0.50041300  1
  B  B2  1  0.72967600  0.77833900  0.00041300  1
  B  B3  1  0.22166100  0.27032400  0.49958700  1
  B  B4  1  0.50498700  0.89895100  0.77375900  1
  B  B5  1  0.10104900  0.49501300  0.72624100  1
  B  B6  1  0.49501300  0.10104900  0.22624100  1
  B  B7  1  0.89895100  0.50498700  0.27375900  1
  O  O0  1  0.11101700  0.56869300  0.20473700  1
  O  O1  1  0.43130700  0.88898300  0.29526300  1
  O  O2  1  0.88898300  0.43130700  0.79526300  1
  O  O3  1  0.56869300  0.11101700  0.70473700  1
  O  O4  1  0.99105300  0.81311600  0.43226800  1
  O  O5  1  0.18688400  0.00894700  0.06773200  1
  O  O6  1  0.00894700  0.18688400  0.56773200  1
  O  O7  1  0.81311600  0.99105300  0.93226800  1
  O  O8  1  0.64340600  0.76038800  0.76091600  1
  O  O9  1  0.23961200  0.35659400  0.73908400  1
  O  O10  1  0.35659400  0.23961200  0.23908400  1
  O  O11  1  0.76038800  0.64340600  0.26091600  1
  O  O12  1  0.13287200  0.36398600  0.00362600  1
  O  O13  1  0.63601400  0.86712800  0.49637400  1
  O  O14  1  0.86712800  0.63601400  0.99637400  1
  O  O15  1  0.36398600  0.13287200  0.50362600  1
  O  O16  1  0.83675700  0.30346300  0.35089400  1
  O  O17  1  0.69653700  0.16324300  0.14910600  1
  O  O18  1  0.16324300  0.69653700  0.64910600  1
  O  O19  1  0.30346300  0.83675700  0.85089400  1
  O  O20  1  0.29228400  0.48366800  0.43184700  1
  O  O21  1  0.51633200  0.70771600  0.06815300  1
  O  O22  1  0.70771600  0.51633200  0.56815300  1
  O  O23  1  0.48366800  0.29228400  0.93184700  1
loop_
_geom_bond_atom_site_label_1
_geom_bond_atom_site_label_2
_geom_bond_distance
_geom_bond_site_symmetry_2
B0 O23 1.386368 1_555
B0 O5 1.387080 1_556
B0 O12 1.388473 1_556
B1 O22 1.386368 1_555
B1 O4 1.387080 1_555
B1 O13 1.388473 1_555
B2 O21 1.386368 1_555
B2 O7 1.387080 1_554
B2 O14 1.388473 1_554
B3 O20 1.386368 1_555
B3 O6 1.387080 1_555
B3 O15 1.388473 1_555
B4 O19 1.379559 1_555
B4 O8 1.382303 1_555
B4 O3 1.386932 1_565
B5 O18 1.379559 1_555
B5 O9 1.382303 1_555
B5 O2 1.386932 1_455
B6 O17 1.379559 1_555
B6 O10 1.382303 1_555
B6 O1 1.386932 1_545
B7 O16 1.379559 1_555
B7 O11 1.382303 1_555
B7 O0 1.386932 1_655
O0 Sc5 2.140201 1_555
O0 Sc1 2.144983 1_555
O1 Sc5 2.140201 1_555
O1 Sc0 2.144983 1_555
O2 Sc4 2.140201 1_555
O2 Sc3 2.144983 1_555
O3 Sc4 2.140201 1_555
O3 Sc2 2.144983 1_555
O4 Sc0 2.101409 1_655
O4 Pr1 2.457582 1_565
O5 Sc1 2.101409 1_545
O5 Pr1 2.457582 1_455
O6 Sc2 2.101409 1_455
O6 Pr0 2.457582 1_545
O7 Sc3 2.101409 1_565
O7 Pr0 2.457582 1_655
O8 Sc4 2.083468 1_555
O8 Pr0 2.463694 1_655
O9 Sc4 2.083468 1_555
O9 Pr0 2.463694 1_545
O10 Sc5 2.083468 1_555
O10 Pr1 2.463694 1_455
O11 Sc5 2.083468 1_555
O11 Pr1 2.463694 1_565
O12 Sc1 2.145804 1_555
O12 Sc3 2.152112 1_454
O13 Sc0 2.145804 1_555
O13 Sc2 2.152112 1_565
O14 Sc3 2.145804 1_555
O14 Sc1 2.152112 1_656
O15 Sc2 2.145804 1_555
O15 Sc0 2.152112 1_545
O16 Sc2 2.072272 1_555
O16 Pr1 2.478344 1_555
O17 Sc3 2.072272 1_554
O17 Pr1 2.478344 1_555
O18 Sc0 2.072272 1_555
O18 Pr0 2.478344 1_555
O19 Sc1 2.072272 1_556
O19 Pr0 2.478344 1_555
O20 Sc0 2.128260 1_555
O20 Sc5 2.161746 1_555
O21 Sc1 2.128260 1_555
O21 Sc5 2.161746 1_555
O22 Sc2 2.128260 1_555
O22 Sc4 2.161746 1_555
O23 Sc3 2.128260 1_555
O23 Sc4 2.161746 1_555
