# generated using pymatgen
data_TiCrAgS4
_symmetry_space_group_name_H-M   'P 1'
_cell_length_a   6.47561500
_cell_length_b   7.69109295
_cell_length_c   12.85135469
_cell_angle_alpha   98.47946294
_cell_angle_beta   95.52817443
_cell_angle_gamma   89.94978950
_symmetry_Int_Tables_number   1
_chemical_formula_structural   TiCrAgS4
_chemical_formula_sum   'Ti4 Cr4 Ag4 S16'
_cell_volume   630.05728552
_cell_formula_units_Z   4
loop_
 _symmetry_equiv_pos_site_id
 _symmetry_equiv_pos_as_xyz
  1  'x, y, z'
loop_
 _atom_site_type_symbol
 _atom_site_label
 _atom_site_symmetry_multiplicity
 _atom_site_fract_x
 _atom_site_fract_y
 _atom_site_fract_z
 _atom_site_occupancy
  Ti  Ti0  1  0.85132000  0.29611400  0.71206200  1
  Ti  Ti1  1  0.15238900  0.71124100  0.29262200  1
  Ti  Ti2  1  0.22238600  0.90142500  0.00173100  1
  Ti  Ti3  1  0.63501700  0.43871100  0.28276500  1
  Cr  Cr0  1  0.75678400  0.10990800  0.99786300  1
  Cr  Cr1  1  0.35866500  0.55475800  0.71671800  1
  Cr  Cr2  1  0.61365000  0.94430800  0.28071300  1
  Cr  Cr3  1  0.36626600  0.05020800  0.71339600  1
  Ag  Ag0  1  0.89578900  0.80249000  0.69715800  1
  Ag  Ag1  1  0.12230200  0.19110300  0.30052600  1
  Ag  Ag2  1  0.74543200  0.62583600  0.99554800  1
  Ag  Ag3  1  0.25156100  0.37412300  0.99819000  1
  S  S0  1  0.87552900  0.32404300  0.88922800  1
  S  S1  1  0.14180100  0.68030800  0.11554000  1
  S  S2  1  0.90780500  0.86609500  0.89879500  1
  S  S3  1  0.08676600  0.14297400  0.09948100  1
  S  S4  1  0.76675000  0.21127000  0.35875300  1
  S  S5  1  0.24989100  0.78189700  0.64090100  1
  S  S6  1  0.80744700  0.71288400  0.33946700  1
  S  S7  1  0.19133800  0.28970700  0.65835500  1
  S  S8  1  0.67087800  0.04553900  0.63942300  1
  S  S9  1  0.32852800  0.95419200  0.37672900  1
  S  S10  1  0.67218100  0.52776800  0.65421700  1
  S  S11  1  0.32061300  0.47837500  0.35532200  1
  S  S12  1  0.59464100  0.92269900  0.10091600  1
  S  S13  1  0.42110000  0.07102100  0.89143700  1
  S  S14  1  0.62528900  0.37466800  0.10498000  1
  S  S15  1  0.36788300  0.61633400  0.88716600  1
loop_
_geom_bond_atom_site_label_1
_geom_bond_atom_site_label_2
_geom_bond_distance
_geom_bond_site_symmetry_2
Cr0 S2 2.371975 1_545
Cr0 S3 2.387791 1_656
Cr0 S12 2.400516 1_546
Cr0 S13 2.448063 1_555
Cr0 S0 2.477886 1_555
Cr0 S14 2.482482 1_556
Cr1 S15 2.166796 1_555
Cr1 S5 2.205657 1_555
Cr1 S10 2.252617 1_555
Cr1 S7 2.299700 1_555
Cr2 S12 2.283373 1_555
Cr2 S9 2.312659 1_555
Cr2 S4 2.325772 1_565
Cr2 S6 2.350097 1_555
Cr3 S5 2.234912 1_545
Cr3 S13 2.263297 1_555
Cr3 S8 2.268720 1_555
Cr3 S7 2.324375 1_555
Ag0 S5 2.467948 1_655
Ag0 S8 2.522324 1_565
Ag0 S10 2.524515 1_555
Ag0 S2 2.558832 1_555
Ag1 S4 2.486409 1_455
Ag1 S9 2.516449 1_545
Ag1 S11 2.529531 1_555
Ag1 S3 2.543429 1_555
Ag2 S2 2.645582 1_555
Ag2 S15 2.690153 1_555
Ag2 S0 2.692083 1_555
Ag2 S14 2.707290 1_556
Ag2 S12 2.709096 1_556
Ag2 S1 2.861878 1_656
Ag3 S3 2.635769 1_556
Ag3 S15 2.658353 1_555
Ag3 S14 2.664368 1_556
Ag3 S0 2.687796 1_455
Ag3 S1 2.735206 1_556
Ag3 S13 2.804361 1_555
S0 Ti0 2.245372 1_555
S1 Ti1 2.247355 1_555
S1 Ti2 2.487129 1_555
S2 Ti2 2.312869 1_656
S3 Ti2 2.306977 1_545
S4 Ti3 2.254318 1_555
S6 Ti1 2.368302 1_655
S6 Ti3 2.370348 1_555
S7 Ti0 2.368425 1_455
S8 Ti0 2.283436 1_555
S9 Ti1 2.265256 1_555
S10 Ti0 2.300758 1_555
S11 Ti1 2.301454 1_555
S11 Ti3 2.321306 1_555
S12 Ti2 2.609521 1_555
S13 Ti2 2.503189 1_546
S14 Ti3 2.259918 1_555
S15 Ti2 2.678578 1_556
