# generated using pymatgen
data_Dy2FeMoO7
_symmetry_space_group_name_H-M   'P 1'
_cell_length_a   7.25213793
_cell_length_b   7.25213793
_cell_length_c   7.29696648
_cell_angle_alpha   60.39594678
_cell_angle_beta   60.39594678
_cell_angle_gamma   59.80357535
_symmetry_Int_Tables_number   1
_chemical_formula_structural   Dy2FeMoO7
_chemical_formula_sum   'Dy4 Fe2 Mo2 O14'
_cell_volume   272.56897682
_cell_formula_units_Z   2
loop_
 _symmetry_equiv_pos_site_id
 _symmetry_equiv_pos_as_xyz
  1  'x, y, z'
loop_
 _atom_site_type_symbol
 _atom_site_label
 _atom_site_symmetry_multiplicity
 _atom_site_fract_x
 _atom_site_fract_y
 _atom_site_fract_z
 _atom_site_occupancy
  Dy  Dy0  1  0.00000000  0.50000000  0.00000000  1
  Dy  Dy1  1  0.00000000  0.00000000  0.50000000  1
  Dy  Dy2  1  0.50000000  0.00000000  0.00000000  1
  Dy  Dy3  1  0.50000000  0.50000000  0.50000000  1
  Fe  Fe0  1  0.00000000  0.50000000  0.50000000  1
  Fe  Fe1  1  0.50000000  0.00000000  0.50000000  1
  Mo  Mo0  1  0.50000000  0.50000000  0.00000000  1
  Mo  Mo1  1  0.00000000  0.00000000  0.00000000  1
  O  O0  1  0.11791600  0.11791600  0.11380500  1
  O  O1  1  0.88208400  0.88208400  0.88619500  1
  O  O2  1  0.39194200  0.82936600  0.83352300  1
  O  O3  1  0.82936600  0.39194200  0.83352300  1
  O  O4  1  0.83677800  0.83677800  0.38475200  1
  O  O5  1  0.60805800  0.17063400  0.16647700  1
  O  O6  1  0.17063400  0.60805800  0.16647700  1
  O  O7  1  0.16322200  0.16322200  0.61524800  1
  O  O8  1  0.87476700  0.39818900  0.39225800  1
  O  O9  1  0.39818900  0.87476700  0.39225800  1
  O  O10  1  0.39893000  0.39893000  0.87080600  1
  O  O11  1  0.12523300  0.60181100  0.60774200  1
  O  O12  1  0.60181100  0.12523300  0.60774200  1
  O  O13  1  0.60107000  0.60107000  0.12919400  1
loop_
_geom_bond_atom_site_label_1
_geom_bond_atom_site_label_2
_geom_bond_distance
_geom_bond_site_symmetry_2
Dy0 O1 2.267923 1_454
Dy0 O0 2.267923 1_555
Dy0 O8 2.362387 1_455
Dy0 O11 2.362387 1_554
Dy0 O13 2.377154 1_455
Dy0 O10 2.377154 1_554
Dy0 O6 2.649972 1_555
Dy0 O3 2.649972 1_454
Dy1 O1 2.318985 1_445
Dy1 O0 2.318985 1_555
Dy1 O8 2.367711 1_455
Dy1 O9 2.367711 1_545
Dy1 O11 2.367711 1_545
Dy1 O12 2.367711 1_455
Dy1 O7 2.624129 1_555
Dy1 O4 2.624129 1_445
Dy2 O1 2.267923 1_544
Dy2 O0 2.267923 1_555
Dy2 O9 2.362387 1_545
Dy2 O12 2.362387 1_554
Dy2 O13 2.377154 1_545
Dy2 O10 2.377154 1_554
Dy2 O5 2.649972 1_555
Dy2 O2 2.649972 1_544
Dy3 O9 2.234678 1_555
Dy3 O8 2.234678 1_555
Dy3 O12 2.234678 1_555
Dy3 O11 2.234678 1_555
Dy3 O13 2.239898 1_555
Dy3 O10 2.239898 1_555
Fe0 O11 1.985351 1_555
Fe0 O8 1.985351 1_455
Fe0 O4 2.029663 1_455
Fe0 O7 2.029663 1_555
Fe0 O3 2.045491 1_455
Fe0 O6 2.045491 1_555
Fe1 O12 1.985351 1_555
Fe1 O9 1.985351 1_545
Fe1 O4 2.029663 1_545
Fe1 O7 2.029663 1_555
Fe1 O2 2.045491 1_545
Fe1 O5 2.045491 1_555
Mo0 O13 1.966997 1_555
Mo0 O10 1.966997 1_554
Mo0 O3 1.996502 1_554
Mo0 O2 1.996502 1_554
Mo0 O6 1.996502 1_555
Mo0 O5 1.996502 1_555
Mo1 O0 2.071474 1_555
Mo1 O1 2.071474 1_444
Mo1 O7 2.350985 1_554
Mo1 O4 2.350985 1_445
Mo1 O3 2.371034 1_454
Mo1 O2 2.371034 1_544
Mo1 O5 2.371034 1_455
Mo1 O6 2.371034 1_545
