# generated using pymatgen
data_La(YC3)2
_symmetry_space_group_name_H-M   'P 1'
_cell_length_a   4.13942364
_cell_length_b   4.13942364
_cell_length_c   9.92200780
_cell_angle_alpha   82.38669414
_cell_angle_beta   82.38669414
_cell_angle_gamma   53.78603383
_symmetry_Int_Tables_number   1
_chemical_formula_structural   La(YC3)2
_chemical_formula_sum   'La1 Y2 C6'
_cell_volume   135.64643411
_cell_formula_units_Z   1
loop_
 _symmetry_equiv_pos_site_id
 _symmetry_equiv_pos_as_xyz
  1  'x, y, z'
loop_
 _atom_site_type_symbol
 _atom_site_label
 _atom_site_symmetry_multiplicity
 _atom_site_fract_x
 _atom_site_fract_y
 _atom_site_fract_z
 _atom_site_occupancy
  La  La0  1  0.00000000  0.00000000  0.00000000  1
  Y  Y0  1  0.33121600  0.33121600  0.66404600  1
  Y  Y1  1  0.66878400  0.66878400  0.33595400  1
  C  C0  1  0.73505800  0.73505800  0.85065500  1
  C  C1  1  0.07005300  0.07005300  0.53230000  1
  C  C2  1  0.40231400  0.40231400  0.21799300  1
  C  C3  1  0.26494200  0.26494200  0.14934500  1
  C  C4  1  0.59768600  0.59768600  0.78200700  1
  C  C5  1  0.92994700  0.92994700  0.46770000  1
loop_
_geom_bond_atom_site_label_1
_geom_bond_atom_site_label_2
_geom_bond_distance
_geom_bond_site_symmetry_2
C0 C4 1.303061 1_555
C0 La0 2.623677 1_666
C0 Y0 2.654706 1_565
C0 Y0 2.654706 1_655
C0 La0 2.819499 1_656
C0 La0 2.819499 1_566
C1 C5 1.295363 1_445
C1 Y0 2.485149 1_555
C1 Y1 2.722227 1_545
C1 Y1 2.722227 1_455
C1 Y0 2.763947 1_455
C1 Y0 2.763947 1_545
C2 C3 1.303061 1_555
C2 Y1 2.434135 1_555
C2 Y1 2.692425 1_545
C2 Y1 2.692425 1_455
C2 La0 2.870671 1_565
C2 La0 2.870671 1_655
C3 La0 2.623677 1_555
C3 Y1 2.654706 1_455
C3 Y1 2.654706 1_545
C3 La0 2.819499 1_655
C3 La0 2.819499 1_565
C4 Y0 2.434135 1_555
C4 Y0 2.692425 1_565
C4 Y0 2.692425 1_655
C4 La0 2.870671 1_566
C4 La0 2.870671 1_656
C5 Y1 2.485149 1_555
C5 Y0 2.722227 1_565
C5 Y0 2.722227 1_655
C5 Y1 2.763947 1_655
C5 Y1 2.763947 1_565
