# generated using pymatgen
data_CaW4O9
_symmetry_space_group_name_H-M   'P 1'
_cell_length_a   9.70694000
_cell_length_b   9.70694000
_cell_length_c   3.97775600
_cell_angle_alpha   90.00000000
_cell_angle_beta   90.00000000
_cell_angle_gamma   90.00000000
_symmetry_Int_Tables_number   1
_chemical_formula_structural   CaW4O9
_chemical_formula_sum   'Ca2 W8 O18'
_cell_volume   374.80280278
_cell_formula_units_Z   2
loop_
 _symmetry_equiv_pos_site_id
 _symmetry_equiv_pos_as_xyz
  1  'x, y, z'
loop_
 _atom_site_type_symbol
 _atom_site_label
 _atom_site_symmetry_multiplicity
 _atom_site_fract_x
 _atom_site_fract_y
 _atom_site_fract_z
 _atom_site_occupancy
  Ca  Ca0  1  0.00000000  0.50000000  0.08843200  1
  Ca  Ca1  1  0.50000000  0.00000000  0.91156800  1
  W  W0  1  0.09076800  0.78937000  0.54522500  1
  W  W1  1  0.21063000  0.09076800  0.45477500  1
  W  W2  1  0.71063000  0.59076800  0.54522500  1
  W  W3  1  0.59076800  0.28937000  0.45477500  1
  W  W4  1  0.90923200  0.21063000  0.54522500  1
  W  W5  1  0.28937000  0.40923200  0.54522500  1
  W  W6  1  0.40923200  0.71063000  0.45477500  1
  W  W7  1  0.78937000  0.90923200  0.45477500  1
  O  O0  1  0.00000000  0.00000000  0.50000000  1
  O  O1  1  0.50000000  0.50000000  0.50000000  1
  O  O2  1  0.74770600  0.92511900  0.96309400  1
  O  O3  1  0.42511900  0.75229400  0.96309400  1
  O  O4  1  0.57488100  0.24770600  0.96309400  1
  O  O5  1  0.25229400  0.07488100  0.96309400  1
  O  O6  1  0.75229400  0.57488100  0.03690600  1
  O  O7  1  0.07488100  0.74770600  0.03690600  1
  O  O8  1  0.92511900  0.25229400  0.03690600  1
  O  O9  1  0.24770600  0.42511900  0.03690600  1
  O  O10  1  0.11410100  0.27757700  0.52001100  1
  O  O11  1  0.77757700  0.38589900  0.52001100  1
  O  O12  1  0.22242300  0.61410100  0.52001100  1
  O  O13  1  0.88589900  0.72242300  0.52001100  1
  O  O14  1  0.61410100  0.77757700  0.47998900  1
  O  O15  1  0.72242300  0.11410100  0.47998900  1
  O  O16  1  0.27757700  0.88589900  0.47998900  1
  O  O17  1  0.38589900  0.22242300  0.47998900  1
loop_
_geom_bond_atom_site_label_1
_geom_bond_atom_site_label_2
_geom_bond_distance
_geom_bond_site_symmetry_2
Ca0 O9 2.520279 1_555
Ca0 O7 2.520279 1_555
Ca0 O6 2.520279 1_455
Ca0 O8 2.520279 1_455
Ca0 O13 2.972425 1_455
Ca0 O12 2.972425 1_555
Ca0 O11 2.972425 1_455
Ca0 O10 2.972425 1_555
Ca1 O4 2.520279 1_555
Ca1 O3 2.520279 1_545
Ca1 O2 2.520279 1_545
Ca1 O5 2.520279 1_555
Ca1 O17 2.972425 1_555
Ca1 O15 2.972425 1_555
Ca1 O14 2.972425 1_545
Ca1 O16 2.972425 1_545
O0 W0 2.233594 1_545
O0 W1 2.233594 1_555
O0 W7 2.233594 1_445
O0 W4 2.233594 1_455
O1 W3 2.233594 1_555
O1 W5 2.233594 1_555
O1 W6 2.233594 1_555
O1 W2 2.233594 1_555
O2 W7 2.003110 1_556
O2 W7 2.067778 1_555
O3 W6 2.003110 1_556
O3 W6 2.067778 1_555
O4 W3 2.003110 1_556
O4 W3 2.067778 1_555
O5 W1 2.003110 1_556
O5 W1 2.067778 1_555
O6 W2 2.003110 1_554
O6 W2 2.067778 1_555
O7 W0 2.003110 1_554
O7 W0 2.067778 1_555
O8 W4 2.003110 1_554
O8 W4 2.067778 1_555
O9 W5 2.003110 1_554
O9 W5 2.067778 1_555
O10 W1 2.057553 1_555
O10 W4 2.094540 1_455
O10 W5 2.130204 1_555
O11 W3 2.057553 1_555
O11 W2 2.094540 1_555
O11 W4 2.130204 1_555
O12 W6 2.057553 1_555
O12 W5 2.094540 1_555
O12 W0 2.130204 1_555
O13 W7 2.057553 1_555
O13 W0 2.094540 1_655
O13 W2 2.130204 1_555
O14 W2 2.057553 1_555
O14 W6 2.094540 1_555
O14 W7 2.130204 1_555
O15 W4 2.057553 1_555
O15 W7 2.094540 1_545
O15 W3 2.130204 1_555
O16 W0 2.057553 1_555
O16 W1 2.094540 1_565
O16 W6 2.130204 1_555
O17 W5 2.057553 1_555
O17 W3 2.094540 1_555
O17 W1 2.130204 1_555
