# generated using pymatgen
data_Ba3CCl4O3
_symmetry_space_group_name_H-M   'P 1'
_cell_length_a   8.51362400
_cell_length_b   9.65519900
_cell_length_c   12.58736300
_cell_angle_alpha   90.00000000
_cell_angle_beta   90.00000000
_cell_angle_gamma   90.00000000
_symmetry_Int_Tables_number   1
_chemical_formula_structural   Ba3CCl4O3
_chemical_formula_sum   'Ba12 C4 Cl16 O12'
_cell_volume   1034.69047686
_cell_formula_units_Z   4
loop_
 _symmetry_equiv_pos_site_id
 _symmetry_equiv_pos_as_xyz
  1  'x, y, z'
loop_
 _atom_site_type_symbol
 _atom_site_label
 _atom_site_symmetry_multiplicity
 _atom_site_fract_x
 _atom_site_fract_y
 _atom_site_fract_z
 _atom_site_occupancy
  Ba  Ba0  1  0.45538100  0.75000000  0.53380700  1
  Ba  Ba1  1  0.95538100  0.75000000  0.96619300  1
  Ba  Ba2  1  0.54461900  0.25000000  0.46619300  1
  Ba  Ba3  1  0.04461900  0.25000000  0.03380700  1
  Ba  Ba4  1  0.55200300  0.99135000  0.17994300  1
  Ba  Ba5  1  0.05200300  0.50865000  0.32005700  1
  Ba  Ba6  1  0.44799700  0.49135000  0.82005700  1
  Ba  Ba7  1  0.94799700  0.00865000  0.67994300  1
  Ba  Ba8  1  0.44799700  0.00865000  0.82005700  1
  Ba  Ba9  1  0.94799700  0.49135000  0.67994300  1
  Ba  Ba10  1  0.55200300  0.50865000  0.17994300  1
  Ba  Ba11  1  0.05200300  0.99135000  0.32005700  1
  C  C0  1  0.22125900  0.75000000  0.78733100  1
  C  C1  1  0.72125900  0.75000000  0.71266900  1
  C  C2  1  0.77874100  0.25000000  0.21266900  1
  C  C3  1  0.27874100  0.25000000  0.28733100  1
  Cl  Cl0  1  0.54611400  0.75000000  0.98619900  1
  Cl  Cl1  1  0.04611400  0.75000000  0.51380100  1
  Cl  Cl2  1  0.45388600  0.25000000  0.01380100  1
  Cl  Cl3  1  0.95388600  0.25000000  0.48619900  1
  Cl  Cl4  1  0.33944500  0.75000000  0.29502500  1
  Cl  Cl5  1  0.83944500  0.75000000  0.20497500  1
  Cl  Cl6  1  0.66055500  0.25000000  0.70497500  1
  Cl  Cl7  1  0.16055500  0.25000000  0.79502500  1
  Cl  Cl8  1  0.69772100  0.54081800  0.42276800  1
  Cl  Cl9  1  0.19772100  0.95918200  0.07723200  1
  Cl  Cl10  1  0.30227900  0.04081800  0.57723200  1
  Cl  Cl11  1  0.80227900  0.45918200  0.92276800  1
  Cl  Cl12  1  0.30227900  0.45918200  0.57723200  1
  Cl  Cl13  1  0.80227900  0.04081800  0.92276800  1
  Cl  Cl14  1  0.69772100  0.95918200  0.42276800  1
  Cl  Cl15  1  0.19772100  0.54081800  0.07723200  1
  O  O0  1  0.15639100  0.63244200  0.81263600  1
  O  O1  1  0.65639100  0.86755800  0.68736400  1
  O  O2  1  0.84360900  0.13244200  0.18736400  1
  O  O3  1  0.34360900  0.36755800  0.31263600  1
  O  O4  1  0.84360900  0.36755800  0.18736400  1
  O  O5  1  0.34360900  0.13244200  0.31263600  1
  O  O6  1  0.15639100  0.86755800  0.81263600  1
  O  O7  1  0.65639100  0.63244200  0.68736400  1
  O  O8  1  0.35803500  0.75000000  0.74173800  1
  O  O9  1  0.85803500  0.75000000  0.75826200  1
  O  O10  1  0.64196500  0.25000000  0.25826200  1
  O  O11  1  0.14196500  0.25000000  0.24173800  1
loop_
_geom_bond_atom_site_label_1
_geom_bond_atom_site_label_2
_geom_bond_distance
_geom_bond_site_symmetry_2
Ba0 O8 2.745383 1_555
Ba0 O7 2.820102 1_555
Ba0 O1 2.820102 1_555
Ba0 Cl10 3.143581 1_565
Ba0 Cl12 3.143581 1_555
Ba0 Cl4 3.163556 1_555
Ba0 Cl14 3.207718 1_555
Ba0 Cl8 3.207718 1_555
Ba0 Cl1 3.493433 1_555
Ba1 O9 2.745383 1_555
Ba1 O6 2.820102 1_655
Ba1 O0 2.820102 1_655
Ba1 Cl11 3.143581 1_555
Ba1 Cl13 3.143581 1_565
Ba1 Cl5 3.163556 1_556
Ba1 Cl15 3.207718 1_656
Ba1 Cl9 3.207718 1_656
Ba1 Cl0 3.493433 1_555
Ba2 O10 2.745383 1_555
Ba2 O5 2.820102 1_555
Ba2 O3 2.820102 1_555
Ba2 Cl14 3.143581 1_545
Ba2 Cl8 3.143581 1_555
Ba2 Cl6 3.163556 1_555
Ba2 Cl12 3.207718 1_555
Ba2 Cl10 3.207718 1_555
Ba2 Cl3 3.493433 1_555
Ba3 O11 2.745383 1_555
Ba3 O2 2.820102 1_455
Ba3 O4 2.820102 1_455
Ba3 Cl9 3.143581 1_545
Ba3 Cl15 3.143581 1_555
Ba3 Cl7 3.163556 1_554
Ba3 Cl11 3.207718 1_454
Ba3 Cl13 3.207718 1_454
Ba3 Cl2 3.493433 1_555
Ba4 O5 2.791644 1_565
Ba4 O10 2.791964 1_565
Ba4 O2 2.833360 1_565
Ba4 Cl4 3.286851 1_555
Ba4 Cl9 3.296295 1_555
Ba4 Cl14 3.313288 1_555
Ba4 Cl2 3.362717 1_565
Ba4 Cl0 3.373442 1_554
Ba4 Cl5 3.393840 1_555
Ba5 O4 2.791644 1_455
Ba5 O11 2.791964 1_555
Ba5 O3 2.833360 1_555
Ba5 Cl5 3.286851 1_455
Ba5 Cl8 3.296295 1_455
Ba5 Cl15 3.313288 1_555
Ba5 Cl3 3.362717 1_455
Ba5 Cl1 3.373442 1_555
Ba5 Cl4 3.393840 1_555
Ba6 O7 2.791644 1_555
Ba6 O8 2.791964 1_555
Ba6 O0 2.833360 1_555
Ba6 Cl6 3.286851 1_555
Ba6 Cl11 3.296295 1_555
Ba6 Cl12 3.313288 1_555
Ba6 Cl0 3.362717 1_555
Ba6 Cl2 3.373442 1_556
Ba6 Cl7 3.393840 1_555
Ba7 O6 2.791644 1_645
Ba7 O9 2.791964 1_545
Ba7 O1 2.833360 1_545
Ba7 Cl7 3.286851 1_655
Ba7 Cl10 3.296295 1_655
Ba7 Cl13 3.313288 1_555
Ba7 Cl1 3.362717 1_645
Ba7 Cl3 3.373442 1_555
Ba7 Cl6 3.393840 1_555
Ba8 O1 2.791644 1_545
Ba8 O8 2.791964 1_545
Ba8 O6 2.833360 1_545
Ba8 Cl6 3.286851 1_555
Ba8 Cl13 3.296295 1_555
Ba8 Cl10 3.313288 1_555
Ba8 Cl0 3.362717 1_545
Ba8 Cl2 3.373442 1_556
Ba8 Cl7 3.393840 1_555
Ba9 O0 2.791644 1_655
Ba9 O9 2.791964 1_555
Ba9 O7 2.833360 1_555
Ba9 Cl7 3.286851 1_655
Ba9 Cl12 3.296295 1_655
Ba9 Cl11 3.313288 1_555
Ba9 Cl1 3.362717 1_655
Ba9 Cl3 3.373442 1_555
Ba9 Cl6 3.393840 1_555
Ba10 O3 2.791644 1_555
Ba10 O10 2.791964 1_555
Ba10 O4 2.833360 1_555
Ba10 Cl4 3.286851 1_555
Ba10 Cl15 3.296295 1_555
Ba10 Cl8 3.313288 1_555
Ba10 Cl2 3.362717 1_555
Ba10 Cl0 3.373442 1_554
Ba10 Cl5 3.393840 1_555
Ba11 O2 2.791644 1_465
Ba11 O11 2.791964 1_565
Ba11 O5 2.833360 1_565
Ba11 Cl5 3.286851 1_455
Ba11 Cl14 3.296295 1_455
Ba11 Cl9 3.313288 1_555
Ba11 Cl3 3.362717 1_465
Ba11 Cl1 3.373442 1_555
Ba11 Cl4 3.393840 1_555
C0 O8 1.298200 1_555
C0 O6 1.301837 1_555
C0 O0 1.301837 1_555
C1 O9 1.298200 1_555
C1 O1 1.301837 1_555
C1 O7 1.301837 1_555
C2 O10 1.298200 1_555
C2 O4 1.301837 1_555
C2 O2 1.301837 1_555
C3 O11 1.298200 1_555
C3 O5 1.301837 1_555
C3 O3 1.301837 1_555
