# generated using pymatgen
data_TcN
_symmetry_space_group_name_H-M   'P 1'
_cell_length_a   4.01776561
_cell_length_b   4.01775747
_cell_length_c   4.01775747
_cell_angle_alpha   90.00000000
_cell_angle_beta   90.00000000
_cell_angle_gamma   90.00000000
_symmetry_Int_Tables_number   1
_chemical_formula_structural   TcN
_chemical_formula_sum   'Tc3 N3'
_cell_volume   64.85627949
_cell_formula_units_Z   3
loop_
 _symmetry_equiv_pos_site_id
 _symmetry_equiv_pos_as_xyz
  1  'x, y, z'
loop_
 _atom_site_type_symbol
 _atom_site_label
 _atom_site_symmetry_multiplicity
 _atom_site_fract_x
 _atom_site_fract_y
 _atom_site_fract_z
 _atom_site_occupancy
  Tc  Tc0  1  0.50000000  0.50000000  0.00000000  1
  Tc  Tc1  1  0.50000000  0.00000000  0.50000000  1
  Tc  Tc2  1  0.00000000  0.50000000  0.50000000  1
  N  N0  1  -0.00000000  0.00000000  0.50000000  1
  N  N1  1  -0.00000000  0.50000000  -0.00000000  1
  N  N2  1  0.50000000  0.00000000  0.00000000  1
loop_
_geom_bond_atom_site_label_1
_geom_bond_atom_site_label_2
_geom_bond_distance
_geom_bond_site_symmetry_2
N0 Tc2 2.008879 1_545
N0 Tc2 2.008879 1_555
N0 Tc1 2.008883 1_555
N0 Tc1 2.008883 1_455
N1 Tc2 2.008879 1_554
N1 Tc2 2.008879 1_555
N1 Tc0 2.008883 1_555
N1 Tc0 2.008883 1_455
N2 Tc1 2.008879 1_555
N2 Tc0 2.008879 1_545
N2 Tc1 2.008879 1_554
N2 Tc0 2.008879 1_555
