# generated using pymatgen
data_MgGa
_symmetry_space_group_name_H-M   'P 1'
_cell_length_a   6.50119400
_cell_length_b   9.66140000
_cell_length_c   10.26818400
_cell_angle_alpha   90.00000000
_cell_angle_beta   90.00000000
_cell_angle_gamma   90.00000000
_symmetry_Int_Tables_number   1
_chemical_formula_structural   MgGa
_chemical_formula_sum   'Mg16 Ga16'
_cell_volume   644.95116464
_cell_formula_units_Z   16
loop_
 _symmetry_equiv_pos_site_id
 _symmetry_equiv_pos_as_xyz
  1  'x, y, z'
loop_
 _atom_site_type_symbol
 _atom_site_label
 _atom_site_symmetry_multiplicity
 _atom_site_fract_x
 _atom_site_fract_y
 _atom_site_fract_z
 _atom_site_occupancy
  Mg  Mg0_0  1  0.25000000  0.29627050  0.00000000  1
  Mg  Mg0_1  1  0.25000000  0.29627050  0.50000000  1
  Mg  Mg0_2  1  0.25000000  0.79627050  0.00000000  1
  Mg  Mg0_3  1  0.25000000  0.79627050  0.50000000  1
  Mg  Mg0_4  1  0.75000000  0.29627050  0.00000000  1
  Mg  Mg0_5  1  0.75000000  0.29627050  0.50000000  1
  Mg  Mg0_6  1  0.75000000  0.79627050  0.00000000  1
  Mg  Mg0_7  1  0.75000000  0.79627050  0.50000000  1
  Mg  Mg1_0  1  0.00000000  0.20372950  0.25000000  1
  Mg  Mg1_1  1  0.00000000  0.20372950  0.75000000  1
  Mg  Mg1_2  1  0.00000000  0.70372950  0.25000000  1
  Mg  Mg1_3  1  0.00000000  0.70372950  0.75000000  1
  Mg  Mg1_4  1  0.50000000  0.20372950  0.25000000  1
  Mg  Mg1_5  1  0.50000000  0.20372950  0.75000000  1
  Mg  Mg1_6  1  0.50000000  0.70372950  0.25000000  1
  Mg  Mg1_7  1  0.50000000  0.70372950  0.75000000  1
  Ga  Ga0_0  1  0.00000000  0.04125200  0.00000000  1
  Ga  Ga0_1  1  0.00000000  0.04125200  0.50000000  1
  Ga  Ga0_2  1  0.00000000  0.54125200  0.00000000  1
  Ga  Ga0_3  1  0.00000000  0.54125200  0.50000000  1
  Ga  Ga0_4  1  0.50000000  0.04125200  0.00000000  1
  Ga  Ga0_5  1  0.50000000  0.04125200  0.50000000  1
  Ga  Ga0_6  1  0.50000000  0.54125200  0.00000000  1
  Ga  Ga0_7  1  0.50000000  0.54125200  0.50000000  1
  Ga  Ga1_0  1  0.25000000  0.45874800  0.25000000  1
  Ga  Ga1_1  1  0.25000000  0.45874800  0.75000000  1
  Ga  Ga1_2  1  0.25000000  0.95874800  0.25000000  1
  Ga  Ga1_3  1  0.25000000  0.95874800  0.75000000  1
  Ga  Ga1_4  1  0.75000000  0.45874800  0.25000000  1
  Ga  Ga1_5  1  0.75000000  0.45874800  0.75000000  1
  Ga  Ga1_6  1  0.75000000  0.95874800  0.25000000  1
  Ga  Ga1_7  1  0.75000000  0.95874800  0.75000000  1
loop_
_geom_bond_atom_site_label_1
_geom_bond_atom_site_label_2
_geom_bond_distance
_geom_bond_site_symmetry_2
Mg0_0 Mg1_1 3.167127 1_554
Mg0_0 Mg1_0 3.167127 1_555
Mg0_0 Mg1_5 3.167127 1_554
Mg0_0 Mg1_4 3.167127 1_555
Mg0_0 Mg0_4 3.250597 1_455
Mg0_0 Mg0_4 3.250597 1_555
Mg0_1 Mg1_1 3.167127 1_555
Mg0_1 Mg1_5 3.167127 1_555
Mg0_1 Mg1_0 3.167127 1_555
Mg0_1 Mg1_4 3.167127 1_555
Mg0_1 Mg0_5 3.250597 1_455
Mg0_1 Mg0_5 3.250597 1_555
Mg0_2 Mg1_3 3.167127 1_554
Mg0_2 Mg1_2 3.167127 1_555
Mg0_2 Mg1_7 3.167127 1_554
Mg0_2 Mg1_6 3.167127 1_555
Mg0_2 Mg0_6 3.250597 1_455
Mg0_2 Mg0_6 3.250597 1_555
Mg0_3 Mg1_7 3.167127 1_555
Mg0_3 Mg1_2 3.167127 1_555
Mg0_3 Mg1_6 3.167127 1_555
Mg0_3 Mg1_3 3.167127 1_555
Mg0_3 Mg0_7 3.250597 1_455
Mg0_3 Mg0_7 3.250597 1_555
Mg0_4 Mg1_1 3.167127 1_654
Mg0_4 Mg1_0 3.167127 1_655
Mg0_4 Mg1_4 3.167127 1_555
Mg0_4 Mg1_5 3.167127 1_554
Mg0_5 Mg1_1 3.167127 1_655
Mg0_5 Mg1_0 3.167127 1_655
Mg0_5 Mg1_4 3.167127 1_555
Mg0_5 Mg1_5 3.167127 1_555
Mg0_6 Mg1_2 3.167127 1_655
Mg0_6 Mg1_3 3.167127 1_654
Mg0_6 Mg1_6 3.167127 1_555
Mg0_6 Mg1_7 3.167127 1_554
Mg0_7 Mg1_2 3.167127 1_655
Mg0_7 Mg1_3 3.167127 1_655
Mg0_7 Mg1_7 3.167127 1_555
Mg0_7 Mg1_6 3.167127 1_555
Mg1_0 Mg1_4 3.250597 1_455
Mg1_0 Mg1_4 3.250597 1_555
Mg1_1 Mg1_5 3.250597 1_555
Mg1_1 Mg1_5 3.250597 1_455
Mg1_2 Mg1_6 3.250597 1_555
Mg1_2 Mg1_6 3.250597 1_455
Mg1_3 Mg1_7 3.250597 1_455
Mg1_3 Mg1_7 3.250597 1_555
Ga0_0 Mg0_2 2.871174 1_545
Ga0_0 Mg0_6 2.871174 1_445
Ga0_0 Mg0_4 2.951624 1_455
Ga0_0 Mg0_0 2.951624 1_555
Ga0_0 Mg1_1 3.008965 1_554
Ga0_0 Mg1_0 3.008965 1_555
Ga0_1 Mg0_3 2.871174 1_545
Ga0_1 Mg0_7 2.871174 1_445
Ga0_1 Mg0_5 2.951624 1_455
Ga0_1 Mg0_1 2.951624 1_555
Ga0_1 Mg1_1 3.008965 1_555
Ga0_1 Mg1_0 3.008965 1_555
Ga0_2 Mg0_4 2.871174 1_455
Ga0_2 Mg0_0 2.871174 1_555
Ga0_2 Mg0_6 2.951624 1_455
Ga0_2 Mg0_2 2.951624 1_555
Ga0_2 Mg1_3 3.008965 1_554
Ga0_2 Mg1_2 3.008965 1_555
Ga0_3 Mg0_5 2.871174 1_455
Ga0_3 Mg0_1 2.871174 1_555
Ga0_3 Mg0_7 2.951624 1_455
Ga0_3 Mg0_3 2.951624 1_555
Ga0_3 Mg1_3 3.008965 1_555
Ga0_3 Mg1_2 3.008965 1_555
Ga0_4 Mg0_2 2.871174 1_545
Ga0_4 Mg0_6 2.871174 1_545
Ga0_4 Mg0_4 2.951624 1_555
Ga0_4 Mg0_0 2.951624 1_555
Ga0_4 Mg1_4 3.008965 1_555
Ga0_4 Mg1_5 3.008965 1_554
Ga0_5 Mg0_3 2.871174 1_545
Ga0_5 Mg0_7 2.871174 1_545
Ga0_5 Mg0_1 2.951624 1_555
Ga0_5 Mg0_5 2.951624 1_555
Ga0_5 Mg1_4 3.008965 1_555
Ga0_5 Mg1_5 3.008965 1_555
Ga0_6 Mg0_0 2.871174 1_555
Ga0_6 Mg0_4 2.871174 1_555
Ga0_6 Mg0_2 2.951624 1_555
Ga0_6 Mg0_6 2.951624 1_555
Ga0_6 Mg1_7 3.008965 1_554
Ga0_6 Mg1_6 3.008965 1_555
Ga0_7 Mg0_1 2.871174 1_555
Ga0_7 Mg0_5 2.871174 1_555
Ga0_7 Mg0_7 2.951624 1_555
Ga0_7 Mg0_3 2.951624 1_555
Ga0_7 Mg1_7 3.008965 1_555
Ga0_7 Mg1_6 3.008965 1_555
Ga1_0 Mg1_6 2.871174 1_555
Ga1_0 Mg1_2 2.871174 1_555
Ga1_0 Mg1_0 2.951624 1_555
Ga1_0 Mg1_4 2.951624 1_555
Ga1_0 Mg0_1 3.008965 1_555
Ga1_0 Mg0_0 3.008965 1_555
Ga1_1 Mg1_3 2.871174 1_555
Ga1_1 Mg1_7 2.871174 1_555
Ga1_1 Mg1_1 2.951624 1_555
Ga1_1 Mg1_5 2.951624 1_555
Ga1_1 Mg0_0 3.008965 1_556
Ga1_1 Mg0_1 3.008965 1_555
Ga1_2 Mg1_0 2.871174 1_565
Ga1_2 Mg1_4 2.871174 1_565
Ga1_2 Mg1_2 2.951624 1_555
Ga1_2 Mg1_6 2.951624 1_555
Ga1_2 Mg0_2 3.008965 1_555
Ga1_2 Mg0_3 3.008965 1_555
Ga1_3 Mg1_1 2.871174 1_565
Ga1_3 Mg1_5 2.871174 1_565
Ga1_3 Mg1_7 2.951624 1_555
Ga1_3 Mg1_3 2.951624 1_555
Ga1_3 Mg0_2 3.008965 1_556
Ga1_3 Mg0_3 3.008965 1_555
Ga1_4 Mg1_2 2.871174 1_655
Ga1_4 Mg1_6 2.871174 1_555
Ga1_4 Mg1_0 2.951624 1_655
Ga1_4 Mg1_4 2.951624 1_555
Ga1_4 Mg0_4 3.008965 1_555
Ga1_4 Mg0_5 3.008965 1_555
Ga1_5 Mg1_3 2.871174 1_655
Ga1_5 Mg1_7 2.871174 1_555
Ga1_5 Mg1_1 2.951624 1_655
Ga1_5 Mg1_5 2.951624 1_555
Ga1_5 Mg0_4 3.008965 1_556
Ga1_5 Mg0_5 3.008965 1_555
Ga1_6 Mg1_0 2.871174 1_665
Ga1_6 Mg1_4 2.871174 1_565
Ga1_6 Mg1_2 2.951624 1_655
Ga1_6 Mg1_6 2.951624 1_555
Ga1_6 Mg0_6 3.008965 1_555
Ga1_6 Mg0_7 3.008965 1_555
Ga1_7 Mg1_1 2.871174 1_665
Ga1_7 Mg1_5 2.871174 1_565
Ga1_7 Mg1_3 2.951624 1_655
Ga1_7 Mg1_7 2.951624 1_555
Ga1_7 Mg0_6 3.008965 1_556
Ga1_7 Mg0_7 3.008965 1_555
