# generated using pymatgen
data_Li3Mn(CoO3)2
_symmetry_space_group_name_H-M   'P 1'
_cell_length_a   5.14228118
_cell_length_b   8.92206042
_cell_length_c   5.06437096
_cell_angle_alpha   90.03035723
_cell_angle_beta   79.84744767
_cell_angle_gamma   107.00439249
_symmetry_Int_Tables_number   1
_chemical_formula_structural   Li3Mn(CoO3)2
_chemical_formula_sum   'Li6 Mn2 Co4 O12'
_cell_volume   218.39352354
_cell_formula_units_Z   2
loop_
 _symmetry_equiv_pos_site_id
 _symmetry_equiv_pos_as_xyz
  1  'x, y, z'
loop_
 _atom_site_type_symbol
 _atom_site_label
 _atom_site_symmetry_multiplicity
 _atom_site_fract_x
 _atom_site_fract_y
 _atom_site_fract_z
 _atom_site_occupancy
  Li  Li0  1  0.49834000  0.58921000  0.74793000  1
  Li  Li1  1  0.50148700  0.07703400  0.25274000  1
  Li  Li2  1  0.50086900  0.41620600  0.25414600  1
  Li  Li3  1  0.49576400  0.90952500  0.74923000  1
  Li  Li4  1  0.50357500  0.75640500  0.24971500  1
  Li  Li5  1  0.49959500  0.25066200  0.74781700  1
  Mn  Mn0  1  0.99957100  0.83334700  0.50002500  1
  Mn  Mn1  1  0.00034700  0.33359700  0.99958500  1
  Co  Co0  1  0.99986200  0.50274700  0.49955900  1
  Co  Co1  1  0.00043900  0.16389400  0.50009000  1
  Co  Co2  1  0.00117500  0.99873600  0.99915300  1
  Co  Co3  1  0.99891300  0.66792400  0.00127700  1
  O  O0  1  0.23381400  0.87249000  0.14634400  1
  O  O1  1  0.23071600  0.37203200  0.64396000  1
  O  O2  1  0.76710700  0.79399500  0.85383400  1
  O  O3  1  0.77038700  0.29485700  0.35505600  1
  O  O4  1  0.22272400  0.52453100  0.13447000  1
  O  O5  1  0.22943300  0.03142400  0.61256500  1
  O  O6  1  0.77756100  0.14259500  0.86521900  1
  O  O7  1  0.76913000  0.63470100  0.38742600  1
  O  O8  1  0.21970600  0.21653900  0.13354100  1
  O  O9  1  0.22367300  0.71141200  0.61360000  1
  O  O10  1  0.78127900  0.45037000  0.86523200  1
  O  O11  1  0.77453200  0.95576600  0.38748600  1
loop_
_geom_bond_atom_site_label_1
_geom_bond_atom_site_label_2
_geom_bond_distance
_geom_bond_site_symmetry_2
Li0 O7 2.052065 1_555
Li0 O2 2.078322 1_555
Li0 O1 2.149523 1_555
Li0 O4 2.172229 1_556
Li0 O9 2.210585 1_555
Li0 O10 2.316011 1_555
Li1 O5 2.052446 1_555
Li1 O0 2.075238 1_545
Li1 O3 2.153415 1_555
Li1 O6 2.177719 1_554
Li1 O11 2.198827 1_545
Li1 O8 2.318889 1_555
Li2 O8 2.107295 1_555
Li2 O4 2.112331 1_555
Li2 O3 2.117102 1_555
Li2 O1 2.167090 1_555
Li2 O10 2.189473 1_554
Li2 O7 2.216481 1_555
Li3 O11 2.076161 1_555
Li3 O2 2.095811 1_555
Li3 O9 2.108273 1_555
Li3 O5 2.178007 1_565
Li3 O0 2.180283 1_556
Li3 O6 2.303343 1_565
Li4 O9 2.087261 1_555
Li4 O0 2.089972 1_555
Li4 O11 2.117515 1_555
Li4 O7 2.175784 1_555
Li4 O2 2.178431 1_554
Li4 O4 2.292304 1_555
Li5 O10 2.102268 1_555
Li5 O6 2.105369 1_555
Li5 O1 2.119829 1_555
Li5 O8 2.175617 1_556
Li5 O3 2.180413 1_555
Li5 O5 2.229347 1_555
Mn0 O2 1.939828 1_555
Mn0 O0 1.942984 1_655
Mn0 O9 1.951929 1_655
Mn0 O11 1.956881 1_555
Mn0 O5 1.964645 1_665
Mn0 O7 1.969596 1_555
Mn1 O3 1.941592 1_456
Mn1 O10 1.942905 1_455
Mn1 O1 1.943062 1_555
Mn1 O8 1.944987 1_556
Mn1 O4 1.952193 1_556
Mn1 O6 1.952255 1_455
Co0 O10 1.967536 1_555
Co0 O4 1.973027 1_655
Co0 O9 2.025861 1_655
Co0 O7 2.042434 1_555
Co0 O3 2.095511 1_555
Co0 O1 2.102593 1_655
Co1 O8 1.972617 1_555
Co1 O6 1.973539 1_455
Co1 O11 2.023269 1_445
Co1 O5 2.039410 1_555
Co1 O1 2.097182 1_555
Co1 O3 2.102376 1_455
Co2 O5 2.070290 1_565
Co2 O11 2.074719 1_456
Co2 O2 2.086172 1_455
Co2 O0 2.087798 1_556
Co2 O8 2.119723 1_566
Co2 O6 2.137490 1_465
Co3 O9 2.068723 1_654
Co3 O7 2.071127 1_555
Co3 O2 2.083881 1_554
Co3 O0 2.086136 1_655
Co3 O10 2.120054 1_554
Co3 O4 2.133574 1_655
