# generated using pymatgen
data_Zr2(PdRh)3
_symmetry_space_group_name_H-M   'P 1'
_cell_length_a   4.01242000
_cell_length_b   4.04601100
_cell_length_c   7.92622500
_cell_angle_alpha   90.00000000
_cell_angle_beta   90.00000000
_cell_angle_gamma   90.00000000
_symmetry_Int_Tables_number   1
_chemical_formula_structural   Zr2(PdRh)3
_chemical_formula_sum   'Zr2 Pd3 Rh3'
_cell_volume   128.67667851
_cell_formula_units_Z   1
loop_
 _symmetry_equiv_pos_site_id
 _symmetry_equiv_pos_as_xyz
  1  'x, y, z'
loop_
 _atom_site_type_symbol
 _atom_site_label
 _atom_site_symmetry_multiplicity
 _atom_site_fract_x
 _atom_site_fract_y
 _atom_site_fract_z
 _atom_site_occupancy
  Zr  Zr0  1  0.00000000  0.00000000  0.24658700  1
  Zr  Zr1  1  0.00000000  0.00000000  0.75341300  1
  Pd  Pd0  1  0.50000000  0.50000000  0.24940900  1
  Pd  Pd1  1  0.50000000  0.50000000  0.75059100  1
  Pd  Pd2  1  0.00000000  0.50000000  0.50000000  1
  Rh  Rh0  1  0.00000000  0.50000000  0.00000000  1
  Rh  Rh1  1  0.50000000  0.00000000  0.50000000  1
  Rh  Rh2  1  0.50000000  0.00000000  0.00000000  1
loop_
_geom_bond_atom_site_label_1
_geom_bond_atom_site_label_2
_geom_bond_distance
_geom_bond_site_symmetry_2
Pd0 Rh0 2.816541 1_655
Pd0 Rh0 2.816541 1_555
Pd0 Pd2 2.823124 1_655
Pd0 Pd2 2.823124 1_555
Pd0 Rh2 2.828529 1_555
Pd0 Rh2 2.828529 1_565
Pd0 Rh1 2.835084 1_565
Pd0 Rh1 2.835084 1_555
Pd0 Zr0 2.849198 1_665
Pd0 Zr0 2.849198 1_565
Pd0 Zr0 2.849198 1_555
Pd0 Zr0 2.849198 1_655
Pd1 Rh0 2.816541 1_556
Pd1 Rh0 2.816541 1_656
Pd1 Pd2 2.823124 1_655
Pd1 Pd2 2.823124 1_555
Pd1 Rh2 2.828529 1_556
Pd1 Rh2 2.828529 1_566
Pd1 Rh1 2.835084 1_565
Pd1 Rh1 2.835084 1_555
Pd1 Zr1 2.849198 1_565
Pd1 Zr1 2.849198 1_655
Pd1 Zr1 2.849198 1_665
Pd1 Zr1 2.849198 1_555
Pd2 Rh1 2.849110 1_465
Pd2 Rh1 2.849110 1_455
Pd2 Rh1 2.849110 1_565
Pd2 Rh1 2.849110 1_555
Pd2 Zr1 2.850800 1_555
Pd2 Zr0 2.850800 1_565
Pd2 Zr1 2.850800 1_565
Pd2 Zr0 2.850800 1_555
Rh0 Zr1 2.812941 1_564
Rh0 Zr0 2.812941 1_555
Rh0 Zr1 2.812941 1_554
Rh0 Zr0 2.812941 1_565
Rh0 Rh2 2.849110 1_555
Rh0 Rh2 2.849110 1_565
Rh0 Rh2 2.849110 1_465
Rh0 Rh2 2.849110 1_455
Rh1 Zr1 2.838906 1_555
Rh1 Zr0 2.838906 1_655
Rh1 Zr1 2.838906 1_655
Rh1 Zr0 2.838906 1_555
Rh2 Zr1 2.800886 1_554
Rh2 Zr1 2.800886 1_654
Rh2 Zr0 2.800886 1_655
Rh2 Zr0 2.800886 1_555
