# generated using pymatgen
data_Mg(WO2)2
_symmetry_space_group_name_H-M   'P 1'
_cell_length_a   5.58234400
_cell_length_b   6.48983700
_cell_length_c   10.48221800
_cell_angle_alpha   90.00000000
_cell_angle_beta   90.00000000
_cell_angle_gamma   90.00000000
_symmetry_Int_Tables_number   1
_chemical_formula_structural   Mg(WO2)2
_chemical_formula_sum   'Mg4 W8 O16'
_cell_volume   379.75506246
_cell_formula_units_Z   4
loop_
 _symmetry_equiv_pos_site_id
 _symmetry_equiv_pos_as_xyz
  1  'x, y, z'
loop_
 _atom_site_type_symbol
 _atom_site_label
 _atom_site_symmetry_multiplicity
 _atom_site_fract_x
 _atom_site_fract_y
 _atom_site_fract_z
 _atom_site_occupancy
  Mg  Mg0  1  0.35560800  0.00000000  0.50000000  1
  Mg  Mg1  1  0.64439200  0.50000000  0.00000000  1
  Mg  Mg2  1  0.04733100  0.00000000  0.00000000  1
  Mg  Mg3  1  0.95266900  0.50000000  0.50000000  1
  W  W0  1  0.01901100  0.50000000  0.22840500  1
  W  W1  1  0.01901100  0.50000000  0.77159500  1
  W  W2  1  0.98098900  0.00000000  0.27159500  1
  W  W3  1  0.98098900  0.00000000  0.72840500  1
  W  W4  1  0.50000000  0.25000000  0.25000000  1
  W  W5  1  0.50000000  0.75000000  0.75000000  1
  W  W6  1  0.50000000  0.75000000  0.25000000  1
  W  W7  1  0.50000000  0.25000000  0.75000000  1
  O  O0  1  0.37405900  0.50000000  0.13419300  1
  O  O1  1  0.37405900  0.50000000  0.86580700  1
  O  O2  1  0.62594100  0.00000000  0.36580700  1
  O  O3  1  0.62594100  0.00000000  0.63419300  1
  O  O4  1  0.70490700  0.50000000  0.34706200  1
  O  O5  1  0.70490700  0.50000000  0.65293800  1
  O  O6  1  0.29509300  0.00000000  0.15293800  1
  O  O7  1  0.29509300  0.00000000  0.84706200  1
  O  O8  1  0.16440500  0.25526100  0.36300000  1
  O  O9  1  0.16440500  0.74473900  0.63700000  1
  O  O10  1  0.83559500  0.75526100  0.13700000  1
  O  O11  1  0.83559500  0.24473900  0.86300000  1
  O  O12  1  0.83559500  0.24473900  0.13700000  1
  O  O13  1  0.83559500  0.75526100  0.86300000  1
  O  O14  1  0.16440500  0.74473900  0.36300000  1
  O  O15  1  0.16440500  0.25526100  0.63700000  1
loop_
_geom_bond_atom_site_label_1
_geom_bond_atom_site_label_2
_geom_bond_distance
_geom_bond_site_symmetry_2
Mg0 O3 2.063006 1_555
Mg0 O2 2.063006 1_555
Mg0 O14 2.438415 1_545
Mg0 O9 2.438415 1_545
Mg0 O8 2.438415 1_555
Mg0 O15 2.438415 1_555
Mg1 O0 2.063006 1_555
Mg1 O1 2.063006 1_554
Mg1 O12 2.438415 1_555
Mg1 O13 2.438415 1_554
Mg1 O10 2.438415 1_555
Mg1 O11 2.438415 1_554
Mg2 O6 2.117302 1_555
Mg2 O7 2.117302 1_554
Mg2 O13 2.445836 1_444
Mg2 O12 2.445836 1_455
Mg2 O11 2.445836 1_454
Mg2 O10 2.445836 1_445
Mg3 O4 2.117302 1_555
Mg3 O5 2.117302 1_555
Mg3 O8 2.445836 1_655
Mg3 O15 2.445836 1_655
Mg3 O14 2.445836 1_655
Mg3 O9 2.445836 1_655
O0 W6 2.144816 1_555
O0 W4 2.144816 1_555
O0 W0 2.214403 1_555
O1 W5 2.144816 1_555
O1 W7 2.144816 1_555
O1 W1 2.214403 1_555
O2 W6 2.144816 1_545
O2 W4 2.144816 1_555
O2 W2 2.214403 1_555
O3 W5 2.144816 1_545
O3 W7 2.144816 1_555
O3 W3 2.214403 1_555
O4 W0 2.149779 1_655
O4 W6 2.230683 1_555
O4 W4 2.230683 1_555
O5 W1 2.149779 1_655
O5 W5 2.230683 1_555
O5 W7 2.230683 1_555
O6 W2 2.149779 1_455
O6 W6 2.230683 1_545
O6 W4 2.230683 1_555
O7 W3 2.149779 1_455
O7 W7 2.230683 1_555
O7 W5 2.230683 1_545
O8 W2 2.170413 1_455
O8 W4 2.216718 1_555
O8 W0 2.274207 1_555
O9 W3 2.170413 1_465
O9 W5 2.216718 1_555
O9 W1 2.274207 1_555
O10 W0 2.170413 1_655
O10 W6 2.216718 1_555
O10 W2 2.274207 1_565
O11 W1 2.170413 1_655
O11 W7 2.216718 1_555
O11 W3 2.274207 1_555
O12 W0 2.170413 1_655
O12 W4 2.216718 1_555
O12 W2 2.274207 1_555
O13 W1 2.170413 1_655
O13 W5 2.216718 1_555
O13 W3 2.274207 1_565
O14 W2 2.170413 1_465
O14 W6 2.216718 1_555
O14 W0 2.274207 1_555
O15 W3 2.170413 1_455
O15 W7 2.216718 1_555
O15 W1 2.274207 1_555
