# generated using pymatgen
data_C11N4
_symmetry_space_group_name_H-M   'P 1'
_cell_length_a   3.54172900
_cell_length_b   3.54172900
_cell_length_c   6.99318400
_cell_angle_alpha   90.00000000
_cell_angle_beta   90.00000000
_cell_angle_gamma   90.00000000
_symmetry_Int_Tables_number   1
_chemical_formula_structural   C11N4
_chemical_formula_sum   'C11 N4'
_cell_volume   87.72141132
_cell_formula_units_Z   1
loop_
 _symmetry_equiv_pos_site_id
 _symmetry_equiv_pos_as_xyz
  1  'x, y, z'
loop_
 _atom_site_type_symbol
 _atom_site_label
 _atom_site_symmetry_multiplicity
 _atom_site_fract_x
 _atom_site_fract_y
 _atom_site_fract_z
 _atom_site_occupancy
  C  C0  1  0.50000000  0.00000000  0.25700300  1
  C  C1  1  0.50000000  0.00000000  0.74299700  1
  C  C2  1  0.00000000  0.50000000  0.74299700  1
  C  C3  1  0.00000000  0.50000000  0.25700300  1
  C  C4  1  0.00000000  0.00000000  0.00000000  1
  C  C5  1  0.50000000  0.50000000  0.00000000  1
  C  C6  1  0.74481100  0.74481100  0.12819600  1
  C  C7  1  0.25518900  0.25518900  0.12819600  1
  C  C8  1  0.25518900  0.74481100  0.87180400  1
  C  C9  1  0.74481100  0.25518900  0.87180400  1
  C  C10  1  0.00000000  0.00000000  0.50000000  1
  N  N0  1  0.76309900  0.76309900  0.62459600  1
  N  N1  1  0.23690100  0.23690100  0.62459600  1
  N  N2  1  0.23690100  0.76309900  0.37540400  1
  N  N3  1  0.76309900  0.23690100  0.37540400  1
loop_
_geom_bond_atom_site_label_1
_geom_bond_atom_site_label_2
_geom_bond_distance
_geom_bond_site_symmetry_2
C0 N2 1.502621 1_545
C0 N3 1.502621 1_555
C0 C6 1.542739 1_545
C0 C7 1.542739 1_555
C1 N0 1.502621 1_545
C1 N1 1.502621 1_555
C1 C8 1.542739 1_545
C1 C9 1.542739 1_555
C2 N0 1.502621 1_455
C2 N1 1.502621 1_555
C2 C9 1.542739 1_455
C2 C8 1.542739 1_555
C3 N2 1.502621 1_555
C3 N3 1.502621 1_455
C3 C6 1.542739 1_455
C3 C7 1.542739 1_555
C4 C6 1.561235 1_445
C4 C7 1.561235 1_555
C4 C9 1.561235 1_454
C4 C8 1.561235 1_544
C5 C6 1.518972 1_555
C5 C7 1.518972 1_555
C5 C8 1.518972 1_554
C5 C9 1.518972 1_554
C10 N1 1.472133 1_555
C10 N0 1.472133 1_445
C10 N3 1.472133 1_455
C10 N2 1.472133 1_545
