# generated using pymatgen
data_LaGdB12
_symmetry_space_group_name_H-M   'P 1'
_cell_length_a   4.12713448
_cell_length_b   4.12713346
_cell_length_c   8.25431433
_cell_angle_alpha   90.00000000
_cell_angle_beta   90.00002110
_cell_angle_gamma   90.00000000
_symmetry_Int_Tables_number   1
_chemical_formula_structural   LaGdB12
_chemical_formula_sum   'La1 Gd1 B12'
_cell_volume   140.59767415
_cell_formula_units_Z   1
loop_
 _symmetry_equiv_pos_site_id
 _symmetry_equiv_pos_as_xyz
  1  'x, y, z'
loop_
 _atom_site_type_symbol
 _atom_site_label
 _atom_site_symmetry_multiplicity
 _atom_site_fract_x
 _atom_site_fract_y
 _atom_site_fract_z
 _atom_site_occupancy
  La  La0  1  -0.00000000  0.00000000  0.50000000  1
  Gd  Gd0  1  -0.00000000  0.00000000  -0.00000000  1
  B  B0  1  0.19943323  0.50000000  0.24783728  1
  B  B1  1  0.19943323  0.50000000  0.75216272  1
  B  B2  1  0.50000000  0.50000000  0.39921673  1
  B  B3  1  0.50000000  0.50000000  0.90125464  1
  B  B4  1  0.50000000  0.19943323  0.24783728  1
  B  B5  1  0.50000000  0.19943323  0.75216272  1
  B  B6  1  0.50000000  0.50000000  0.09874536  1
  B  B7  1  0.50000000  0.50000000  0.60078327  1
  B  B8  1  0.50000000  0.80056677  0.24783728  1
  B  B9  1  0.50000000  0.80056677  0.75216272  1
  B  B10  1  0.80056677  0.50000000  0.24783728  1
  B  B11  1  0.80056677  0.50000000  0.75216272  1
loop_
_geom_bond_atom_site_label_1
_geom_bond_atom_site_label_2
_geom_bond_distance
_geom_bond_site_symmetry_2
B0 B10 1.646176 1_455
B0 B6 1.747368 1_555
B0 B4 1.754303 1_555
B0 B8 1.754303 1_555
B0 B2 1.760716 1_555
B0 Gd0 3.020063 1_565
B0 Gd0 3.020063 1_555
B0 La0 3.044361 1_555
B0 La0 3.044361 1_565
B1 B11 1.646176 1_455
B1 B3 1.747367 1_555
B1 B9 1.754303 1_555
B1 B5 1.754303 1_555
B1 B7 1.760717 1_555
B1 Gd0 3.020063 1_566
B1 Gd0 3.020063 1_556
B1 La0 3.044361 1_555
B1 La0 3.044361 1_565
B2 B7 1.663794 1_555
B2 B8 1.760717 1_555
B2 B4 1.760717 1_555
B2 La0 3.034579 1_655
B2 La0 3.034579 1_665
B2 La0 3.034579 1_555
B2 La0 3.034579 1_565
B3 B6 1.630150 1_556
B3 B9 1.747367 1_555
B3 B5 1.747367 1_555
B3 Gd0 3.030011 1_656
B3 Gd0 3.030011 1_666
B3 Gd0 3.030011 1_556
B3 Gd0 3.030011 1_566
B4 B8 1.646175 1_545
B4 B6 1.747367 1_555
B4 Gd0 3.020063 1_555
B4 Gd0 3.020064 1_655
B4 La0 3.044361 1_655
B4 La0 3.044362 1_555
B5 B9 1.646175 1_545
B5 B7 1.760717 1_555
B5 Gd0 3.020063 1_656
B5 Gd0 3.020064 1_556
B5 La0 3.044361 1_555
B5 La0 3.044362 1_655
B6 B8 1.747367 1_555
B6 Gd0 3.030011 1_565
B6 Gd0 3.030011 1_555
B6 Gd0 3.030011 1_665
B6 Gd0 3.030011 1_655
B7 B9 1.760717 1_555
B7 La0 3.034579 1_555
B7 La0 3.034579 1_565
B7 La0 3.034579 1_655
B7 La0 3.034579 1_665
B8 Gd0 3.020063 1_565
B8 Gd0 3.020064 1_665
B8 La0 3.044361 1_665
B8 La0 3.044362 1_565
B9 Gd0 3.020063 1_666
B9 Gd0 3.020064 1_566
B9 La0 3.044361 1_565
B9 La0 3.044362 1_665
B10 B6 1.747367 1_555
B10 B4 1.754303 1_555
B10 B8 1.754303 1_555
B10 B2 1.760717 1_555
B10 Gd0 3.020063 1_665
B10 Gd0 3.020063 1_655
B10 La0 3.044361 1_655
B10 La0 3.044361 1_665
B11 B3 1.747368 1_555
B11 B9 1.754303 1_555
B11 B5 1.754303 1_555
B11 B7 1.760716 1_555
B11 Gd0 3.020063 1_666
B11 Gd0 3.020063 1_656
B11 La0 3.044361 1_655
B11 La0 3.044361 1_665
