# generated using pymatgen
data_KGdS2
_symmetry_space_group_name_H-M   'P 1'
_cell_length_a   4.09033001
_cell_length_b   4.09033001
_cell_length_c   7.69805256
_cell_angle_alpha   74.59304687
_cell_angle_beta   74.59304687
_cell_angle_gamma   60.00000024
_symmetry_Int_Tables_number   1
_chemical_formula_structural   KGdS2
_chemical_formula_sum   'K1 Gd1 S2'
_cell_volume   106.16125113
_cell_formula_units_Z   1
loop_
 _symmetry_equiv_pos_site_id
 _symmetry_equiv_pos_as_xyz
  1  'x, y, z'
loop_
 _atom_site_type_symbol
 _atom_site_label
 _atom_site_symmetry_multiplicity
 _atom_site_fract_x
 _atom_site_fract_y
 _atom_site_fract_z
 _atom_site_occupancy
  K  K0  1  0.00000000  -0.00000000  -0.00000000  1
  Gd  Gd0  1  0.50000000  0.50000000  0.50000000  1
  S  S0  1  0.23471181  0.23471181  0.29586557  1
  S  S1  1  0.76528819  0.76528819  0.70413443  1
loop_
_geom_bond_atom_site_label_1
_geom_bond_atom_site_label_2
_geom_bond_distance
_geom_bond_site_symmetry_2
K0 S1 3.205644 1_544
K0 S0 3.205644 1_545
K0 S0 3.205644 1_455
K0 S1 3.205644 1_454
K0 S0 3.205647 1_555
K0 S1 3.205647 1_444
Gd0 S0 2.795343 1_555
Gd0 S1 2.795343 1_555
Gd0 S1 2.795346 1_455
Gd0 S1 2.795346 1_545
Gd0 S0 2.795346 1_655
Gd0 S0 2.795346 1_565
