# generated using pymatgen
data_MgZn
_symmetry_space_group_name_H-M   'P 1'
_cell_length_a   11.47340306
_cell_length_b   11.47340306
_cell_length_c   13.68738991
_cell_angle_alpha   74.83997514
_cell_angle_beta   74.83997514
_cell_angle_gamma   30.70248289
_symmetry_Int_Tables_number   1
_chemical_formula_structural   MgZn
_chemical_formula_sum   'Mg24 Zn24'
_cell_volume   885.48513598
_cell_formula_units_Z   24
loop_
 _symmetry_equiv_pos_site_id
 _symmetry_equiv_pos_as_xyz
  1  'x, y, z'
loop_
 _atom_site_type_symbol
 _atom_site_label
 _atom_site_symmetry_multiplicity
 _atom_site_fract_x
 _atom_site_fract_y
 _atom_site_fract_z
 _atom_site_occupancy
  Mg  Mg0_0  1  0.49951000  0.49951000  0.00839900  1
  Mg  Mg0_1  1  0.49951000  0.49951000  0.50839900  1
  Mg  Mg0_2  1  0.49951000  0.99951000  0.00839900  1
  Mg  Mg0_3  1  0.49951000  0.99951000  0.50839900  1
  Mg  Mg0_4  1  0.99951000  0.49951000  0.00839900  1
  Mg  Mg0_5  1  0.99951000  0.49951000  0.50839900  1
  Mg  Mg0_6  1  0.99951000  0.99951000  0.00839900  1
  Mg  Mg0_7  1  0.99951000  0.99951000  0.50839900  1
  Mg  Mg1_0  1  0.33375500  0.33375500  0.32390550  1
  Mg  Mg1_1  1  0.33375500  0.33375500  0.82390550  1
  Mg  Mg1_2  1  0.33375500  0.83375500  0.32390550  1
  Mg  Mg1_3  1  0.33375500  0.83375500  0.82390550  1
  Mg  Mg1_4  1  0.83375500  0.33375500  0.32390550  1
  Mg  Mg1_5  1  0.83375500  0.33375500  0.82390550  1
  Mg  Mg1_6  1  0.83375500  0.83375500  0.32390550  1
  Mg  Mg1_7  1  0.83375500  0.83375500  0.82390550  1
  Mg  Mg2_0  1  0.13921250  0.13921250  0.47344350  1
  Mg  Mg2_1  1  0.13921250  0.13921250  0.97344350  1
  Mg  Mg2_2  1  0.13921250  0.63921250  0.47344350  1
  Mg  Mg2_3  1  0.13921250  0.63921250  0.97344350  1
  Mg  Mg2_4  1  0.63921250  0.13921250  0.47344350  1
  Mg  Mg2_5  1  0.63921250  0.13921250  0.97344350  1
  Mg  Mg2_6  1  0.63921250  0.63921250  0.47344350  1
  Mg  Mg2_7  1  0.63921250  0.63921250  0.97344350  1
  Zn  Zn0_0  1  0.30410150  0.30410150  0.14193750  1
  Zn  Zn0_1  1  0.30410150  0.30410150  0.64193750  1
  Zn  Zn0_2  1  0.30410150  0.80410150  0.14193750  1
  Zn  Zn0_3  1  0.30410150  0.80410150  0.64193750  1
  Zn  Zn0_4  1  0.80410150  0.30410150  0.14193750  1
  Zn  Zn0_5  1  0.80410150  0.30410150  0.64193750  1
  Zn  Zn0_6  1  0.80410150  0.80410150  0.14193750  1
  Zn  Zn0_7  1  0.80410150  0.80410150  0.64193750  1
  Zn  Zn1_0  1  0.16814050  0.16814050  0.16680950  1
  Zn  Zn1_1  1  0.16814050  0.16814050  0.66680950  1
  Zn  Zn1_2  1  0.16814050  0.66814050  0.16680950  1
  Zn  Zn1_3  1  0.16814050  0.66814050  0.66680950  1
  Zn  Zn1_4  1  0.66814050  0.16814050  0.16680950  1
  Zn  Zn1_5  1  0.66814050  0.16814050  0.66680950  1
  Zn  Zn1_6  1  0.66814050  0.66814050  0.16680950  1
  Zn  Zn1_7  1  0.66814050  0.66814050  0.66680950  1
  Zn  Zn2_0  1  0.47194700  0.47194700  0.30217150  1
  Zn  Zn2_1  1  0.47194700  0.47194700  0.80217150  1
  Zn  Zn2_2  1  0.47194700  0.97194700  0.30217150  1
  Zn  Zn2_3  1  0.47194700  0.97194700  0.80217150  1
  Zn  Zn2_4  1  0.97194700  0.47194700  0.30217150  1
  Zn  Zn2_5  1  0.97194700  0.47194700  0.80217150  1
  Zn  Zn2_6  1  0.97194700  0.97194700  0.30217150  1
  Zn  Zn2_7  1  0.97194700  0.97194700  0.80217150  1
loop_
_geom_bond_atom_site_label_1
_geom_bond_atom_site_label_2
_geom_bond_distance
_geom_bond_site_symmetry_2
Mg0_0 Zn1_4 2.851702 1_555
Mg0_0 Zn1_2 2.851702 1_555
Mg0_0 Zn0_2 2.881694 1_555
Mg0_0 Zn0_4 2.881694 1_555
Mg0_0 Mg2_7 2.997189 1_554
Mg0_0 Mg2_5 3.020867 1_554
Mg0_0 Mg2_3 3.020867 1_554
Mg0_0 Mg0_6 3.037418 1_545
Mg0_0 Mg0_6 3.037418 1_455
Mg0_0 Zn2_1 3.045243 1_554
Mg0_0 Mg1_3 3.099224 1_554
Mg0_0 Mg1_5 3.099224 1_554
Mg0_1 Zn1_3 2.851702 1_555
Mg0_1 Zn1_5 2.851702 1_555
Mg0_1 Zn0_5 2.881694 1_555
Mg0_1 Zn0_3 2.881694 1_555
Mg0_1 Mg2_6 2.997189 1_555
Mg0_1 Mg2_4 3.020867 1_555
Mg0_1 Mg2_2 3.020867 1_555
Mg0_1 Mg0_7 3.037418 1_545
Mg0_1 Mg0_7 3.037418 1_455
Mg0_1 Zn2_0 3.045243 1_555
Mg0_1 Mg1_2 3.099224 1_555
Mg0_1 Mg1_4 3.099224 1_555
Mg0_2 Zn1_0 2.851702 1_565
Mg0_2 Zn1_6 2.851702 1_555
Mg0_2 Zn0_6 2.881694 1_555
Mg0_2 Zn0_0 2.881694 1_565
Mg0_2 Mg2_5 2.997189 1_564
Mg0_2 Mg2_1 3.020867 1_564
Mg0_2 Mg2_7 3.020867 1_554
Mg0_2 Mg0_4 3.037418 1_555
Mg0_2 Mg0_4 3.037418 1_465
Mg0_2 Zn2_3 3.045243 1_554
Mg0_2 Mg1_1 3.099224 1_564
Mg0_2 Mg1_7 3.099224 1_554
Mg0_3 Zn1_7 2.851702 1_555
Mg0_3 Zn1_1 2.851702 1_565
Mg0_3 Zn0_1 2.881694 1_565
Mg0_3 Zn0_7 2.881694 1_555
Mg0_3 Mg2_4 2.997189 1_565
Mg0_3 Mg2_0 3.020867 1_565
Mg0_3 Mg2_6 3.020867 1_555
Mg0_3 Mg0_5 3.037418 1_555
Mg0_3 Mg0_5 3.037418 1_465
Mg0_3 Zn2_2 3.045243 1_555
Mg0_3 Mg1_0 3.099224 1_565
Mg0_3 Mg1_6 3.099224 1_555
Mg0_4 Zn1_6 2.851702 1_555
Mg0_4 Zn1_0 2.851702 1_655
Mg0_4 Zn0_6 2.881694 1_555
Mg0_4 Zn0_0 2.881694 1_655
Mg0_4 Mg2_3 2.997189 1_654
Mg0_4 Mg2_1 3.020867 1_654
Mg0_4 Mg2_7 3.020867 1_554
Mg0_4 Zn2_5 3.045243 1_554
Mg0_4 Mg1_7 3.099224 1_554
Mg0_4 Mg1_1 3.099224 1_654
Mg0_5 Zn1_7 2.851702 1_555
Mg0_5 Zn1_1 2.851702 1_655
Mg0_5 Zn0_1 2.881694 1_655
Mg0_5 Zn0_7 2.881694 1_555
Mg0_5 Mg2_2 2.997189 1_655
Mg0_5 Mg2_0 3.020867 1_655
Mg0_5 Mg2_6 3.020867 1_555
Mg0_5 Zn2_4 3.045243 1_555
Mg0_5 Mg1_6 3.099224 1_555
Mg0_5 Mg1_0 3.099224 1_655
Mg0_6 Zn1_4 2.851702 1_565
Mg0_6 Zn1_2 2.851702 1_655
Mg0_6 Zn0_2 2.881694 1_655
Mg0_6 Zn0_4 2.881694 1_565
Mg0_6 Mg2_1 2.997189 1_664
Mg0_6 Mg2_5 3.020867 1_564
Mg0_6 Mg2_3 3.020867 1_654
Mg0_6 Zn2_7 3.045243 1_554
Mg0_6 Mg1_3 3.099224 1_654
Mg0_6 Mg1_5 3.099224 1_564
Mg0_7 Zn1_5 2.851702 1_565
Mg0_7 Zn1_3 2.851702 1_655
Mg0_7 Zn0_3 2.881694 1_655
Mg0_7 Zn0_5 2.881694 1_565
Mg0_7 Mg2_0 2.997189 1_665
Mg0_7 Mg2_4 3.020867 1_565
Mg0_7 Mg2_2 3.020867 1_655
Mg0_7 Zn2_6 3.045243 1_555
Mg0_7 Mg1_4 3.099224 1_565
Mg0_7 Mg1_2 3.099224 1_655
Mg1_0 Zn0_0 2.742337 1_555
Mg1_0 Zn1_2 2.870370 1_555
Mg1_0 Zn1_4 2.870370 1_555
Mg1_0 Zn2_4 2.985854 1_455
Mg1_0 Zn2_2 2.985854 1_545
Mg1_0 Zn2_0 2.990987 1_555
Mg1_0 Mg1_6 3.037418 1_545
Mg1_0 Mg1_6 3.037418 1_455
Mg1_0 Mg2_2 3.060078 1_555
Mg1_0 Mg2_4 3.060078 1_555
Mg1_1 Zn0_1 2.742337 1_555
Mg1_1 Zn1_3 2.870370 1_555
Mg1_1 Zn1_5 2.870370 1_555
Mg1_1 Zn2_5 2.985854 1_455
Mg1_1 Zn2_3 2.985854 1_545
Mg1_1 Zn2_1 2.990987 1_555
Mg1_1 Mg1_7 3.037418 1_455
Mg1_1 Mg1_7 3.037418 1_545
Mg1_1 Mg2_3 3.060078 1_555
Mg1_1 Mg2_5 3.060078 1_555
Mg1_2 Zn0_2 2.742337 1_555
Mg1_2 Zn1_6 2.870370 1_555
Mg1_2 Zn1_0 2.870370 1_565
Mg1_2 Zn2_0 2.985854 1_555
Mg1_2 Zn2_6 2.985854 1_455
Mg1_2 Zn2_2 2.990987 1_555
Mg1_2 Mg1_4 3.037418 1_555
Mg1_2 Mg1_4 3.037418 1_465
Mg1_2 Mg2_6 3.060078 1_555
Mg1_2 Mg2_0 3.060078 1_565
Mg1_3 Zn0_3 2.742337 1_555
Mg1_3 Zn1_7 2.870370 1_555
Mg1_3 Zn1_1 2.870370 1_565
Mg1_3 Zn2_7 2.985854 1_455
Mg1_3 Zn2_1 2.985854 1_555
Mg1_3 Zn2_3 2.990987 1_555
Mg1_3 Mg1_5 3.037418 1_555
Mg1_3 Mg1_5 3.037418 1_465
Mg1_3 Mg2_7 3.060078 1_555
Mg1_3 Mg2_1 3.060078 1_565
Mg1_4 Zn0_4 2.742337 1_555
Mg1_4 Zn1_6 2.870370 1_555
Mg1_4 Zn1_0 2.870370 1_655
Mg1_4 Zn2_6 2.985854 1_545
Mg1_4 Zn2_0 2.985854 1_555
Mg1_4 Zn2_4 2.990987 1_555
Mg1_4 Mg2_6 3.060078 1_555
Mg1_4 Mg2_0 3.060078 1_655
Mg1_5 Zn0_5 2.742337 1_555
Mg1_5 Zn1_7 2.870370 1_555
Mg1_5 Zn1_1 2.870370 1_655
Mg1_5 Zn2_7 2.985854 1_545
Mg1_5 Zn2_1 2.985854 1_555
Mg1_5 Zn2_5 2.990987 1_555
Mg1_5 Mg2_7 3.060078 1_555
Mg1_5 Mg2_1 3.060078 1_655
Mg1_6 Zn0_6 2.742337 1_555
Mg1_6 Zn1_2 2.870370 1_655
Mg1_6 Zn1_4 2.870370 1_565
Mg1_6 Zn2_4 2.985854 1_555
Mg1_6 Zn2_2 2.985854 1_555
Mg1_6 Zn2_6 2.990987 1_555
Mg1_6 Mg2_4 3.060078 1_565
Mg1_6 Mg2_2 3.060078 1_655
Mg1_7 Zn0_7 2.742337 1_555
Mg1_7 Zn1_5 2.870370 1_565
Mg1_7 Zn1_3 2.870370 1_655
Mg1_7 Zn2_5 2.985854 1_555
Mg1_7 Zn2_3 2.985854 1_555
Mg1_7 Zn2_7 2.990987 1_555
Mg1_7 Mg2_3 3.060078 1_655
Mg1_7 Mg2_5 3.060078 1_565
Mg2_0 Zn1_1 2.886789 1_555
Mg2_0 Zn0_3 2.969243 1_545
Mg2_0 Zn0_5 2.969243 1_455
Mg2_0 Zn2_2 2.970849 1_545
Mg2_0 Zn2_4 2.970849 1_455
Mg2_0 Mg2_6 3.037418 1_545
Mg2_0 Mg2_6 3.037418 1_455
Mg2_1 Zn1_0 2.886789 1_556
Mg2_1 Zn0_4 2.969243 1_456
Mg2_1 Zn0_2 2.969243 1_546
Mg2_1 Zn2_3 2.970849 1_545
Mg2_1 Zn2_5 2.970849 1_455
Mg2_1 Mg2_7 3.037418 1_545
Mg2_1 Mg2_7 3.037418 1_455
Mg2_2 Zn1_3 2.886789 1_555
Mg2_2 Zn0_7 2.969243 1_455
Mg2_2 Zn0_1 2.969243 1_555
Mg2_2 Zn2_0 2.970849 1_555
Mg2_2 Zn2_6 2.970849 1_455
Mg2_2 Mg2_4 3.037418 1_555
Mg2_2 Mg2_4 3.037418 1_465
Mg2_3 Zn1_2 2.886789 1_556
Mg2_3 Zn0_0 2.969243 1_556
Mg2_3 Zn0_6 2.969243 1_456
Mg2_3 Zn2_1 2.970849 1_555
Mg2_3 Zn2_7 2.970849 1_455
Mg2_3 Mg2_5 3.037418 1_555
Mg2_3 Mg2_5 3.037418 1_465
Mg2_4 Zn1_5 2.886789 1_555
Mg2_4 Zn0_1 2.969243 1_555
Mg2_4 Zn0_7 2.969243 1_545
Mg2_4 Zn2_0 2.970849 1_555
Mg2_4 Zn2_6 2.970849 1_545
Mg2_5 Zn1_4 2.886789 1_556
Mg2_5 Zn0_0 2.969243 1_556
Mg2_5 Zn0_6 2.969243 1_546
Mg2_5 Zn2_1 2.970849 1_555
Mg2_5 Zn2_7 2.970849 1_545
Mg2_6 Zn1_7 2.886789 1_555
Mg2_6 Zn0_5 2.969243 1_555
Mg2_6 Zn0_3 2.969243 1_555
Mg2_6 Zn2_2 2.970849 1_555
Mg2_6 Zn2_4 2.970849 1_555
Mg2_7 Zn1_6 2.886789 1_556
Mg2_7 Zn0_4 2.969243 1_556
Mg2_7 Zn0_2 2.969243 1_556
Mg2_7 Zn2_3 2.970849 1_555
Mg2_7 Zn2_5 2.970849 1_555
Zn0_0 Zn2_4 2.873826 1_455
Zn0_0 Zn2_2 2.873826 1_545
Zn0_0 Zn1_0 2.934586 1_555
Zn0_0 Zn0_6 3.037418 1_545
Zn0_0 Zn0_6 3.037418 1_455
Zn0_0 Zn1_2 3.042399 1_555
Zn0_0 Zn1_4 3.042399 1_555
Zn0_1 Zn2_5 2.873826 1_455
Zn0_1 Zn2_3 2.873826 1_545
Zn0_1 Zn1_1 2.934586 1_555
Zn0_1 Zn0_7 3.037418 1_545
Zn0_1 Zn0_7 3.037418 1_455
Zn0_1 Zn1_3 3.042399 1_555
Zn0_1 Zn1_5 3.042399 1_555
Zn0_2 Zn2_6 2.873826 1_455
Zn0_2 Zn2_0 2.873826 1_555
Zn0_2 Zn1_2 2.934586 1_555
Zn0_2 Zn0_4 3.037418 1_555
Zn0_2 Zn0_4 3.037418 1_465
Zn0_2 Zn1_6 3.042399 1_555
Zn0_2 Zn1_0 3.042399 1_565
Zn0_3 Zn2_7 2.873826 1_455
Zn0_3 Zn2_1 2.873826 1_555
Zn0_3 Zn1_3 2.934586 1_555
Zn0_3 Zn0_5 3.037418 1_555
Zn0_3 Zn0_5 3.037418 1_465
Zn0_3 Zn1_1 3.042399 1_565
Zn0_3 Zn1_7 3.042399 1_555
Zn0_4 Zn2_6 2.873826 1_545
Zn0_4 Zn2_0 2.873826 1_555
Zn0_4 Zn1_4 2.934586 1_555
Zn0_4 Zn1_6 3.042399 1_555
Zn0_4 Zn1_0 3.042399 1_655
Zn0_5 Zn2_7 2.873826 1_545
Zn0_5 Zn2_1 2.873826 1_555
Zn0_5 Zn1_5 2.934586 1_555
Zn0_5 Zn1_1 3.042399 1_655
Zn0_5 Zn1_7 3.042399 1_555
Zn0_6 Zn2_2 2.873826 1_555
Zn0_6 Zn2_4 2.873826 1_555
Zn0_6 Zn1_6 2.934586 1_555
Zn0_6 Zn1_4 3.042399 1_565
Zn0_6 Zn1_2 3.042399 1_655
Zn0_7 Zn2_5 2.873826 1_555
Zn0_7 Zn2_3 2.873826 1_555
Zn0_7 Zn1_7 2.934586 1_555
Zn0_7 Zn1_5 3.042399 1_565
Zn0_7 Zn1_3 3.042399 1_655
Zn1_0 Zn2_2 2.890199 1_545
Zn1_0 Zn2_4 2.890199 1_455
Zn1_0 Zn1_6 3.037418 1_545
Zn1_0 Zn1_6 3.037418 1_455
Zn1_1 Zn2_3 2.890199 1_545
Zn1_1 Zn2_5 2.890199 1_455
Zn1_1 Zn1_7 3.037418 1_545
Zn1_1 Zn1_7 3.037418 1_455
Zn1_2 Zn2_0 2.890199 1_555
Zn1_2 Zn2_6 2.890199 1_455
Zn1_2 Zn1_4 3.037418 1_465
Zn1_2 Zn1_4 3.037418 1_555
Zn1_3 Zn2_1 2.890199 1_555
Zn1_3 Zn2_7 2.890199 1_455
Zn1_3 Zn1_5 3.037418 1_465
Zn1_3 Zn1_5 3.037418 1_555
Zn1_4 Zn2_0 2.890199 1_555
Zn1_4 Zn2_6 2.890199 1_545
Zn1_5 Zn2_1 2.890199 1_555
Zn1_5 Zn2_7 2.890199 1_545
Zn1_6 Zn2_2 2.890199 1_555
Zn1_6 Zn2_4 2.890199 1_555
Zn1_7 Zn2_3 2.890199 1_555
Zn1_7 Zn2_5 2.890199 1_555
Zn2_0 Zn2_6 3.037418 1_545
Zn2_0 Zn2_6 3.037418 1_455
Zn2_1 Zn2_7 3.037418 1_545
Zn2_1 Zn2_7 3.037418 1_455
Zn2_2 Zn2_4 3.037418 1_555
Zn2_2 Zn2_4 3.037418 1_465
Zn2_3 Zn2_5 3.037418 1_555
Zn2_3 Zn2_5 3.037418 1_465
