# generated using pymatgen
data_Zr3NiF6
_symmetry_space_group_name_H-M   'P 1'
_cell_length_a   5.86560093
_cell_length_b   7.50416613
_cell_length_c   10.93939796
_cell_angle_alpha   84.58827137
_cell_angle_beta   86.39115430
_cell_angle_gamma   112.34113715
_symmetry_Int_Tables_number   1
_chemical_formula_structural   Zr3NiF6
_chemical_formula_sum   'Zr3 Ni1 F6'
_cell_volume   440.82508183
_cell_formula_units_Z   1
loop_
 _symmetry_equiv_pos_site_id
 _symmetry_equiv_pos_as_xyz
  1  'x, y, z'
loop_
 _atom_site_type_symbol
 _atom_site_label
 _atom_site_symmetry_multiplicity
 _atom_site_fract_x
 _atom_site_fract_y
 _atom_site_fract_z
 _atom_site_occupancy
  Zr  Zr0  1  0.00000000  0.00000000  0.50000000  1
  Zr  Zr1  1  0.50000000  0.50000000  0.00000000  1
  Zr  Zr2  1  0.00000000  0.50000000  0.00000000  1
  Ni  Ni0  1  0.00000000  0.00000000  0.00000000  1
  F  F0  1  0.89155800  0.22578100  0.95781800  1
  F  F1  1  0.10844200  0.77421900  0.04218200  1
  F  F2  1  0.92341900  0.96173400  0.67999500  1
  F  F3  1  0.07658100  0.03826600  0.32000500  1
  F  F4  1  0.64824800  0.79116600  0.99657600  1
  F  F5  1  0.35175200  0.20883400  0.00342400  1
loop_
_geom_bond_atom_site_label_1
_geom_bond_atom_site_label_2
_geom_bond_distance
_geom_bond_site_symmetry_2
F0 Zr2 2.018162 1_656
F0 Ni0 2.048650 1_656
F1 Zr2 2.018162 1_555
F1 Ni0 2.048650 1_565
F2 Zr0 1.960938 1_665
F3 Zr0 1.960938 1_555
F4 Zr1 2.016834 1_556
F4 Ni0 2.068068 1_666
F5 Zr1 2.016834 1_555
F5 Ni0 2.068068 1_555
