# generated using pymatgen
data_Li9Mn2Co5O16
_symmetry_space_group_name_H-M   'P 1'
_cell_length_a   2.87998700
_cell_length_b   9.77942500
_cell_length_c   10.36919808
_cell_angle_alpha   80.87981646
_cell_angle_beta   90.00000000
_cell_angle_gamma   90.00000000
_symmetry_Int_Tables_number   1
_chemical_formula_structural   Li9Mn2Co5O16
_chemical_formula_sum   'Li9 Mn2 Co5 O16'
_cell_volume   288.35247376
_cell_formula_units_Z   1
loop_
 _symmetry_equiv_pos_site_id
 _symmetry_equiv_pos_as_xyz
  1  'x, y, z'
loop_
 _atom_site_type_symbol
 _atom_site_label
 _atom_site_symmetry_multiplicity
 _atom_site_fract_x
 _atom_site_fract_y
 _atom_site_fract_z
 _atom_site_occupancy
  Li  Li0  1  0.50000000  0.99683100  0.26981400  1
  Li  Li1  1  0.50000000  0.00236700  0.72979100  1
  Li  Li2  1  0.00000000  0.74868400  0.38705600  1
  Li  Li3  1  0.00000000  0.75406200  0.85860300  1
  Li  Li4  1  0.50000000  0.49857900  0.50291300  1
  Li  Li5  1  0.50000000  0.50270000  0.99455500  1
  Li  Li6  1  0.00000000  0.24349800  0.13429900  1
  Li  Li7  1  0.00000000  0.25318800  0.62345600  1
  Li  Li8  1  0.00000000  0.99792200  0.50121000  1
  Mn  Mn0  1  0.00000000  0.99965800  0.00196600  1
  Mn  Mn1  1  0.00000000  0.49454000  0.24983000  1
  Co  Co0  1  0.50000000  0.74804300  0.12718300  1
  Co  Co1  1  0.50000000  0.76738700  0.60816400  1
  Co  Co2  1  0.00000000  0.50821700  0.74631400  1
  Co  Co3  1  0.50000000  0.22850700  0.39385200  1
  Co  Co4  1  0.50000000  0.25474000  0.87246900  1
  O  O0  1  0.50000000  0.10958900  0.05837200  1
  O  O1  1  0.50000000  0.13642200  0.55721400  1
  O  O2  1  0.00000000  0.87603900  0.16851500  1
  O  O3  1  0.00000000  0.86840900  0.68283900  1
  O  O4  1  0.50000000  0.60446300  0.30872000  1
  O  O5  1  0.50000000  0.62042100  0.81222400  1
  O  O6  1  0.00000000  0.36491500  0.92567600  1
  O  O7  1  0.00000000  0.37308200  0.41501600  1
  O  O8  1  0.50000000  0.86455700  0.44368900  1
  O  O9  1  0.50000000  0.89248600  0.94195600  1
  O  O10  1  0.00000000  0.63193000  0.57318200  1
  O  O11  1  0.00000000  0.62075100  0.08293000  1
  O  O12  1  0.50000000  0.38304900  0.69151200  1
  O  O13  1  0.50000000  0.38924900  0.18811900  1
  O  O14  1  0.00000000  0.13372800  0.31474300  1
  O  O15  1  0.00000000  0.13199100  0.83381800  1
loop_
_geom_bond_atom_site_label_1
_geom_bond_atom_site_label_2
_geom_bond_distance
_geom_bond_site_symmetry_2
Li0 O8 2.045623 1_555
Li0 O14 2.068976 1_565
Li0 O14 2.068976 1_665
Li0 O2 2.228376 1_655
Li0 O2 2.228376 1_555
Li0 O0 2.292711 1_565
Li1 O1 2.043826 1_555
Li1 O3 2.056449 1_545
Li1 O3 2.056449 1_645
Li1 O9 2.290239 1_545
Li1 O15 2.297288 1_555
Li1 O15 2.297288 1_655
Li2 O8 1.978247 1_555
Li2 O8 1.978247 1_455
Li2 O10 2.080845 1_555
Li2 O4 2.255169 1_455
Li2 O4 2.255169 1_555
Li2 O2 2.406583 1_555
Li3 O3 1.981418 1_555
Li3 O5 2.052359 1_455
Li3 O5 2.052359 1_555
Li3 O9 2.241436 1_455
Li3 O9 2.241436 1_555
Li3 O11 2.479717 1_556
Li4 O12 2.097737 1_555
Li4 O4 2.113273 1_555
Li4 O10 2.146248 1_655
Li4 O10 2.146248 1_555
Li4 O7 2.182913 1_555
Li4 O7 2.182913 1_655
Li5 O5 2.051787 1_555
Li5 O13 2.133889 1_556
Li5 O11 2.140446 1_656
Li5 O11 2.140446 1_556
Li5 O6 2.168968 1_655
Li5 O6 2.168968 1_555
Li6 O14 2.004121 1_555
Li6 O13 2.160751 1_455
Li6 O13 2.160751 1_555
Li6 O0 2.176051 1_455
Li6 O0 2.176051 1_555
Li6 O6 2.296796 1_554
Li7 O1 2.024345 1_555
Li7 O1 2.024345 1_455
Li7 O12 2.113881 1_555
Li7 O12 2.113881 1_455
Li7 O7 2.289724 1_555
Li7 O15 2.311538 1_555
Li8 O8 2.092118 1_455
Li8 O8 2.092118 1_555
Li8 O3 2.096422 1_555
Li8 O1 2.120070 1_565
Li8 O1 2.120070 1_465
Li8 O14 2.165243 1_565
Mn0 O9 1.940619 1_554
Mn0 O9 1.940619 1_454
Mn0 O0 1.941845 1_565
Mn0 O0 1.941845 1_465
Mn0 O2 1.944762 1_555
Mn0 O15 1.999873 1_564
Mn1 O7 1.923467 1_555
Mn1 O13 1.937053 1_455
Mn1 O13 1.937053 1_555
Mn1 O4 1.951961 1_555
Mn1 O4 1.951961 1_455
Mn1 O11 1.959927 1_555
Co0 O2 1.998537 1_655
Co0 O2 1.998537 1_555
Co0 O11 2.003711 1_555
Co0 O11 2.003711 1_655
Co0 O4 2.162656 1_555
Co0 O9 2.196406 1_554
Co1 O8 1.816007 1_555
Co1 O3 1.972734 1_555
Co1 O3 1.972734 1_655
Co1 O10 2.027879 1_555
Co1 O10 2.027879 1_655
Co1 O5 2.361947 1_555
Co2 O5 1.995606 1_455
Co2 O5 1.995606 1_555
Co2 O10 1.999517 1_555
Co2 O12 2.028633 1_555
Co2 O12 2.028633 1_455
Co2 O6 2.143991 1_555
Co3 O1 1.787957 1_555
Co3 O14 1.961278 1_555
Co3 O14 1.961278 1_655
Co3 O7 2.054046 1_555
Co3 O7 2.054046 1_655
Co3 O13 2.441086 1_555
Co4 O6 1.930624 1_655
Co4 O6 1.930624 1_555
Co4 O15 1.956455 1_555
Co4 O15 1.956455 1_655
Co4 O12 2.085402 1_555
Co4 O0 2.205314 1_556
