# generated using pymatgen
data_Ti3MnCu2(PO4)6
_symmetry_space_group_name_H-M   'P 1'
_cell_length_a   8.61797643
_cell_length_b   8.61797643
_cell_length_c   8.61797735
_cell_angle_alpha   59.97746092
_cell_angle_beta   59.97746092
_cell_angle_gamma   59.97745855
_symmetry_Int_Tables_number   1
_chemical_formula_structural   Ti3MnCu2(PO4)6
_chemical_formula_sum   'Ti3 Mn1 Cu2 P6 O24'
_cell_volume   452.35451216
_cell_formula_units_Z   1
loop_
 _symmetry_equiv_pos_site_id
 _symmetry_equiv_pos_as_xyz
  1  'x, y, z'
loop_
 _atom_site_type_symbol
 _atom_site_label
 _atom_site_symmetry_multiplicity
 _atom_site_fract_x
 _atom_site_fract_y
 _atom_site_fract_z
 _atom_site_occupancy
  Ti  Ti0  1  0.85695900  0.85695900  0.85695900  1
  Ti  Ti1  1  0.64352300  0.64352300  0.64352300  1
  Ti  Ti2  1  0.35617800  0.35617800  0.35617800  1
  Mn  Mn0  1  0.14354400  0.14354400  0.14354400  1
  Cu  Cu0  1  0.99962500  0.99962500  0.99962500  1
  Cu  Cu1  1  0.50008200  0.50008200  0.50008200  1
  P  P0  1  0.45703600  0.04156700  0.75092600  1
  P  P1  1  0.04156700  0.75092600  0.45703600  1
  P  P2  1  0.75092600  0.45703600  0.04156700  1
  P  P3  1  0.24943900  0.54243100  0.95728300  1
  P  P4  1  0.95728300  0.24943900  0.54243100  1
  P  P5  1  0.54243100  0.95728300  0.24943900  1
  O  O0  1  0.68878200  0.50591300  0.87876000  1
  O  O1  1  0.50591300  0.87876000  0.68878200  1
  O  O2  1  0.08475000  0.73720100  0.94348500  1
  O  O3  1  0.87876000  0.68878200  0.50591300  1
  O  O4  1  0.19279400  0.38777100  0.98605800  1
  O  O5  1  0.41679800  0.56483500  0.76639400  1
  O  O6  1  0.94348500  0.08475000  0.73720100  1
  O  O7  1  0.76639400  0.41679800  0.56483500  1
  O  O8  1  0.62188800  0.99784700  0.80929700  1
  O  O9  1  0.56483500  0.76639400  0.41679800  1
  O  O10  1  0.26512700  0.05133900  0.91302100  1
  O  O11  1  0.99784700  0.80929700  0.62188800  1
  O  O12  1  0.98605800  0.19279400  0.38777100  1
  O  O13  1  0.73720100  0.94348500  0.08475000  1
  O  O14  1  0.44489500  0.23310200  0.58373200  1
  O  O15  1  0.38777100  0.98605800  0.19279400  1
  O  O16  1  0.23310200  0.58373200  0.44489500  1
  O  O17  1  0.05133900  0.91302100  0.26512700  1
  O  O18  1  0.58373200  0.44489500  0.23310200  1
  O  O19  1  0.80929700  0.62188800  0.99784700  1
  O  O20  1  0.12349600  0.30679400  0.49732800  1
  O  O21  1  0.91302100  0.26512700  0.05133900  1
  O  O22  1  0.49732800  0.12349600  0.30679400  1
  O  O23  1  0.30679400  0.49732800  0.12349600  1
loop_
_geom_bond_atom_site_label_1
_geom_bond_atom_site_label_2
_geom_bond_distance
_geom_bond_site_symmetry_2
Mn0 O15 1.977644 1_545
Mn0 O4 1.977644 1_554
Mn0 O12 1.977645 1_455
Mn0 O17 2.083162 1_545
Mn0 O21 2.083162 1_455
Mn0 O10 2.083162 1_554
Cu0 O13 2.228553 1_556
Cu0 O2 2.228553 1_655
Cu0 O6 2.228553 1_565
Cu0 O10 2.229285 1_665
Cu0 O21 2.229285 1_566
Cu0 O17 2.229285 1_656
Cu1 O14 2.265356 1_555
Cu1 O16 2.265356 1_555
Cu1 O18 2.265356 1_555
Cu1 O9 2.307885 1_555
Cu1 O7 2.307885 1_555
Cu1 O5 2.307886 1_555
O0 P2 1.538711 1_556
O0 Ti1 1.894972 1_555
O1 P0 1.538711 1_565
O1 Ti1 1.894972 1_555
O2 P3 1.559223 1_555
O2 Ti0 2.035250 1_455
O3 P1 1.538711 1_655
O3 Ti1 1.894972 1_555
O4 P3 1.508481 1_555
O5 P3 1.552511 1_555
O5 Ti1 1.983896 1_555
O6 P4 1.559224 1_555
O6 Ti0 2.035250 1_545
O7 P4 1.552511 1_555
O7 Ti1 1.983896 1_555
O8 P0 1.550229 1_565
O8 Ti0 1.902412 1_555
O9 P5 1.552511 1_555
O9 Ti1 1.983896 1_555
O10 P0 1.536301 1_555
O11 P1 1.550229 1_655
O11 Ti0 1.902412 1_555
O12 P4 1.508481 1_555
O13 P5 1.559224 1_555
O13 Ti0 2.035250 1_554
O14 P0 1.552333 1_555
O14 Ti2 2.040278 1_555
O15 P5 1.508481 1_555
O16 P1 1.552333 1_555
O16 Ti2 2.040278 1_555
O17 P1 1.536301 1_555
O18 P2 1.552333 1_555
O18 Ti2 2.040278 1_555
O19 P2 1.550229 1_556
O19 Ti0 1.902412 1_555
O20 P4 1.551231 1_455
O20 Ti2 1.891265 1_555
O21 P2 1.536301 1_555
O22 P5 1.551232 1_545
O22 Ti2 1.891265 1_555
O23 P3 1.551232 1_554
O23 Ti2 1.891266 1_555
