# generated using pymatgen
data_Sr4Ca4FeCo7O20
_symmetry_space_group_name_H-M   'P 1'
_cell_length_a   10.76650614
_cell_length_b   11.18687423
_cell_length_c   17.43311249
_cell_angle_alpha   108.86156872
_cell_angle_beta   108.20737887
_cell_angle_gamma   89.46130575
_symmetry_Int_Tables_number   1
_chemical_formula_structural   Sr4Ca4FeCo7O20
_chemical_formula_sum   'Sr16 Ca16 Fe4 Co28 O80'
_cell_volume   1877.64639581
_cell_formula_units_Z   4
loop_
 _symmetry_equiv_pos_site_id
 _symmetry_equiv_pos_as_xyz
  1  'x, y, z'
loop_
 _atom_site_type_symbol
 _atom_site_label
 _atom_site_symmetry_multiplicity
 _atom_site_fract_x
 _atom_site_fract_y
 _atom_site_fract_z
 _atom_site_occupancy
  Sr  Sr0  1  0.30494429  0.56185389  0.60931834  1
  Sr  Sr1  1  0.80832729  0.06039754  0.60894458  1
  Sr  Sr2  1  0.80828179  0.56268621  0.61134895  1
  Sr  Sr3  1  0.19306760  0.43557713  0.38513877  1
  Sr  Sr4  1  0.19401957  0.43896339  0.89271877  1
  Sr  Sr5  1  0.69378841  0.43589256  0.38387907  1
  Sr  Sr6  1  0.69667976  0.93630352  0.38439365  1
  Sr  Sr7  1  0.69899539  0.93809297  0.89088887  1
  Sr  Sr8  1  0.05894548  0.29312394  0.60839217  1
  Sr  Sr9  1  0.05945780  0.80178032  0.61044938  1
  Sr  Sr10  1  0.55547298  0.29558777  0.60968752  1
  Sr  Sr11  1  0.55716833  0.79933726  0.61110756  1
  Sr  Sr12  1  0.44184750  0.19823047  0.38506435  1
  Sr  Sr13  1  0.44779763  0.20304115  0.88895029  1
  Sr  Sr14  1  0.94755629  0.19834378  0.38569640  1
  Sr  Sr15  1  0.94510767  0.20023634  0.88965253  1
  Ca  Ca0  1  0.30794840  0.06591934  0.11040460  1
  Ca  Ca1  1  0.30615757  0.06307508  0.60367241  1
  Ca  Ca2  1  0.30277018  0.57069328  0.11244187  1
  Ca  Ca3  1  0.80329417  0.06749130  0.11100836  1
  Ca  Ca4  1  0.80428069  0.56970443  0.11295726  1
  Ca  Ca5  1  0.19895570  0.93319741  0.39042164  1
  Ca  Ca6  1  0.19856800  0.93277241  0.89420183  1
  Ca  Ca7  1  0.69660006  0.43333757  0.89441667  1
  Ca  Ca8  1  0.05607589  0.29083624  0.11147369  1
  Ca  Ca9  1  0.05637384  0.79314477  0.11216089  1
  Ca  Ca10  1  0.55137711  0.29239233  0.10990214  1
  Ca  Ca11  1  0.55052072  0.79458308  0.10926556  1
  Ca  Ca12  1  0.44337584  0.70526393  0.38909572  1
  Ca  Ca13  1  0.44244452  0.71376166  0.89427298  1
  Ca  Ca14  1  0.94923171  0.70914070  0.38953131  1
  Ca  Ca15  1  0.94634560  0.70943479  0.89500070  1
  Fe  Fe0  1  0.10742350  0.59667282  0.75346896  1
  Fe  Fe1  1  0.61091914  0.59234776  0.75515100  1
  Fe  Fe2  1  0.36315935  0.41227637  0.75485705  1
  Fe  Fe3  1  0.35776565  0.90941476  0.75183357  1
  Co  Co0  1  0.01143277  0.00150461  0.00741160  1
  Co  Co1  1  0.00494150  0.99779807  0.49636187  1
  Co  Co2  1  0.00680509  0.50466106  0.00627691  1
  Co  Co3  1  0.00227655  0.50032559  0.49806858  1
  Co  Co4  1  0.50671507  0.00019407  0.00527900  1
  Co  Co5  1  0.50223694  0.99737505  0.49633003  1
  Co  Co6  1  0.50620704  0.50424363  0.00362707  1
  Co  Co7  1  0.50246518  0.49964031  0.49900658  1
  Co  Co8  1  0.25851180  0.25366879  0.00739893  1
  Co  Co9  1  0.25285395  0.24685887  0.49821498  1
  Co  Co10  1  0.25592637  0.75287268  0.00391294  1
  Co  Co11  1  0.25335299  0.74978856  0.49816322  1
  Co  Co12  1  0.76041828  0.25729490  0.01177629  1
  Co  Co13  1  0.75208106  0.24845481  0.49633936  1
  Co  Co14  1  0.75725313  0.75089781  0.00283987  1
  Co  Co15  1  0.75146719  0.74653590  0.49287778  1
  Co  Co16  1  0.10721837  0.08651063  0.24496714  1
  Co  Co17  1  0.11405056  0.09290557  0.75252872  1
  Co  Co18  1  0.10677824  0.59644394  0.24696661  1
  Co  Co19  1  0.60667556  0.08882432  0.24477105  1
  Co  Co20  1  0.60762852  0.09731996  0.74861585  1
  Co  Co21  1  0.60577483  0.59357439  0.24500862  1
  Co  Co22  1  0.35643185  0.40900243  0.24624901  1
  Co  Co23  1  0.35560994  0.90026620  0.24763195  1
  Co  Co24  1  0.85734873  0.40986418  0.24688354  1
  Co  Co25  1  0.85802002  0.40953854  0.75555184  1
  Co  Co26  1  0.86013490  0.90001020  0.24466714  1
  Co  Co27  1  0.86562449  0.90498789  0.75269403  1
  O  O0  1  0.12734498  0.11602898  0.48909042  1
  O  O1  1  0.13561463  0.12903221  0.99462199  1
  O  O2  1  0.12034779  0.62460762  0.48591146  1
  O  O3  1  0.12190105  0.63113949  0.99286674  1
  O  O4  1  0.62433796  0.12270882  0.49122152  1
  O  O5  1  0.63526241  0.13623810  0.99841871  1
  O  O6  1  0.61997986  0.62315968  0.48487620  1
  O  O7  1  0.62830155  0.63313757  0.99030987  1
  O  O8  1  0.12876634  0.38937988  0.01773061  1
  O  O9  1  0.13186632  0.37444634  0.50577094  1
  O  O10  1  0.13314689  0.88692725  0.01236230  1
  O  O11  1  0.13318984  0.87875581  0.50257601  1
  O  O12  1  0.63332330  0.39286760  0.01743743  1
  O  O13  1  0.62623776  0.38134685  0.50263014  1
  O  O14  1  0.63421248  0.89063764  0.01633852  1
  O  O15  1  0.63321689  0.86696878  0.50041372  1
  O  O16  1  0.36810695  0.11442237  0.48748856  1
  O  O17  1  0.38259625  0.11157642  0.99325138  1
  O  O18  1  0.37771160  0.61680599  0.48905886  1
  O  O19  1  0.38126897  0.61668006  0.99457380  1
  O  O20  1  0.87565125  0.11820267  0.49204016  1
  O  O21  1  0.88501982  0.11362901  0.99769961  1
  O  O22  1  0.86909287  0.62759366  0.48899215  1
  O  O23  1  0.87523801  0.60715157  0.99144959  1
  O  O24  1  0.37953491  0.37782769  0.01603403  1
  O  O25  1  0.37792205  0.37577659  0.50565267  1
  O  O26  1  0.38640325  0.88027892  0.01638053  1
  O  O27  1  0.37979846  0.87631491  0.50364464  1
  O  O28  1  0.87852522  0.37606075  0.01483187  1
  O  O29  1  0.87730064  0.37800942  0.50424442  1
  O  O30  1  0.88570346  0.87322187  0.01656802  1
  O  O31  1  0.88270856  0.87591723  0.50251446  1
  O  O32  1  0.09567681  0.10009814  0.14041634  1
  O  O33  1  0.09137758  0.08659905  0.64385067  1
  O  O34  1  0.08567155  0.60570985  0.14040621  1
  O  O35  1  0.07595238  0.59476947  0.64061780  1
  O  O36  1  0.58984881  0.10556514  0.14090578  1
  O  O37  1  0.57975649  0.08749755  0.63892589  1
  O  O38  1  0.58684477  0.60697063  0.14018146  1
  O  O39  1  0.58152523  0.59068936  0.64179013  1
  O  O40  1  0.43324109  0.40555166  0.35336503  1
  O  O41  1  0.45148863  0.40745576  0.86588840  1
  O  O42  1  0.43676539  0.89990619  0.35588283  1
  O  O43  1  0.44910361  0.90075608  0.86247577  1
  O  O44  1  0.93246181  0.40607388  0.35353001  1
  O  O45  1  0.94183837  0.40297953  0.86219088  1
  O  O46  1  0.93955576  0.90045702  0.35290553  1
  O  O47  1  0.94903219  0.90109183  0.86166070  1
  O  O48  1  0.34232747  0.28748535  0.14224167  1
  O  O49  1  0.33771828  0.29033072  0.64705591  1
  O  O50  1  0.33646595  0.78607963  0.14225720  1
  O  O51  1  0.32949496  0.79406215  0.64119809  1
  O  O52  1  0.84652074  0.28883062  0.14317151  1
  O  O53  1  0.83218241  0.30564977  0.64762090  1
  O  O54  1  0.84216140  0.78263517  0.13986070  1
  O  O55  1  0.83259327  0.79876183  0.64360005  1
  O  O56  1  0.18254637  0.19863363  0.35026916  1
  O  O57  1  0.19223811  0.20727402  0.85989529  1
  O  O58  1  0.19323176  0.70487460  0.35271071  1
  O  O59  1  0.20355235  0.71443794  0.86118769  1
  O  O60  1  0.68420054  0.19448493  0.35300745  1
  O  O61  1  0.68525191  0.21031972  0.85705687  1
  O  O62  1  0.69495617  0.69787889  0.35257401  1
  O  O63  1  0.70802476  0.71014578  0.86265853  1
  O  O64  1  0.42605701  0.05432941  0.24042652  1
  O  O65  1  0.42533737  0.06277929  0.74406975  1
  O  O66  1  0.42602671  0.56924463  0.24714554  1
  O  O67  1  0.43311590  0.57474291  0.75976369  1
  O  O68  1  0.92569059  0.05624829  0.23888715  1
  O  O69  1  0.93620808  0.06194419  0.75089517  1
  O  O70  1  0.92661083  0.56993992  0.24817287  1
  O  O71  1  0.93325474  0.57314665  0.76125836  1
  O  O72  1  0.17433638  0.43340743  0.23956005  1
  O  O73  1  0.18370289  0.43927525  0.75240913  1
  O  O74  1  0.17523379  0.92694495  0.24775564  1
  O  O75  1  0.18377763  0.93470050  0.76067474  1
  O  O76  1  0.67406070  0.43070775  0.23778478  1
  O  O77  1  0.67771342  0.43403438  0.75939791  1
  O  O78  1  0.67836765  0.92835529  0.23883799  1
  O  O79  1  0.68798078  0.94302027  0.75301030  1
loop_
_geom_bond_atom_site_label_1
_geom_bond_atom_site_label_2
_geom_bond_distance
_geom_bond_site_symmetry_2
Ca0 O64 2.270986 1_555
Ca0 O48 2.363908 1_555
Ca0 O32 2.498909 1_555
Ca0 O10 2.514078 1_545
Ca0 O26 2.518805 1_545
Ca0 O1 2.563529 1_554
Ca0 O17 2.604978 1_554
Ca0 O36 2.924976 1_555
Ca1 O65 2.383192 1_555
Ca1 O49 2.400649 1_555
Ca1 O0 2.527415 1_555
Ca1 O16 2.545763 1_555
Ca1 O11 2.548989 1_545
Ca1 O27 2.551805 1_545
Ca1 O33 2.605522 1_555
Ca1 O37 2.811542 1_555
Ca2 O50 2.301372 1_555
Ca2 O66 2.313572 1_555
Ca2 O8 2.514574 1_555
Ca2 O34 2.534939 1_555
Ca2 O24 2.579307 1_555
Ca2 O3 2.635271 1_554
Ca2 O19 2.641607 1_554
Ca2 O38 2.953827 1_555
Ca3 O68 2.250463 1_555
Ca3 O52 2.371279 1_555
Ca3 O14 2.455810 1_545
Ca3 O36 2.514102 1_555
Ca3 O5 2.539234 1_554
Ca3 O21 2.587744 1_554
Ca3 O30 2.604627 1_545
Ca4 O54 2.288397 1_555
Ca4 O70 2.312385 1_555
Ca4 O12 2.469300 1_555
Ca4 O38 2.535248 1_555
Ca4 O28 2.585328 1_555
Ca4 O23 2.614801 1_554
Ca4 O7 2.662538 1_554
Ca4 O34 2.926097 1_655
Ca5 O74 2.397239 1_555
Ca5 O58 2.419083 1_555
Ca5 O16 2.493133 1_565
Ca5 O0 2.502178 1_565
Ca5 O11 2.517589 1_555
Ca5 O27 2.545404 1_555
Ca5 O46 2.661710 1_455
Ca5 O42 2.803083 1_555
Ca6 O75 2.290240 1_555
Ca6 O59 2.325460 1_555
Ca6 O1 2.563763 1_565
Ca6 O10 2.568834 1_556
Ca6 O47 2.569217 1_455
Ca6 O17 2.571326 1_565
Ca6 O26 2.658187 1_556
Ca6 O43 2.914818 1_555
Ca7 O77 2.300979 1_555
Ca7 O61 2.359852 1_555
Ca7 O23 2.500386 1_555
Ca7 O41 2.529140 1_555
Ca7 O7 2.579259 1_555
Ca7 O12 2.610590 1_556
Ca7 O28 2.632555 1_556
Ca7 O45 2.861676 1_555
Ca8 O72 2.260492 1_555
Ca8 O32 2.352418 1_555
Ca8 O52 2.486820 1_455
Ca8 O28 2.528497 1_455
Ca8 O8 2.545350 1_555
Ca8 O21 2.549382 1_454
Ca8 O1 2.614649 1_554
Ca8 O48 2.960606 1_555
Ca9 O34 2.301443 1_555
Ca9 O74 2.307329 1_555
Ca9 O30 2.444749 1_455
Ca9 O54 2.510756 1_455
Ca9 O3 2.561873 1_554
Ca9 O10 2.627920 1_555
Ca9 O23 2.691019 1_454
Ca9 O50 2.899834 1_555
Ca10 O76 2.253204 1_555
Ca10 O36 2.325091 1_555
Ca10 O24 2.469885 1_555
Ca10 O48 2.490374 1_555
Ca10 O5 2.552758 1_554
Ca10 O17 2.574758 1_554
Ca10 O12 2.592109 1_555
Ca11 O78 2.268626 1_555
Ca11 O38 2.330793 1_555
Ca11 O26 2.418081 1_555
Ca11 O19 2.549048 1_554
Ca11 O50 2.553222 1_555
Ca11 O14 2.578168 1_555
Ca11 O7 2.626570 1_554
Ca12 O66 2.399150 1_555
Ca12 O42 2.422403 1_555
Ca12 O6 2.494351 1_555
Ca12 O18 2.532590 1_555
Ca12 O27 2.544963 1_555
Ca12 O15 2.556764 1_555
Ca12 O58 2.566411 1_555
Ca12 O62 2.964526 1_555
Ca13 O67 2.329205 1_555
Ca13 O43 2.337903 1_555
Ca13 O59 2.454279 1_555
Ca13 O7 2.543512 1_555
Ca13 O26 2.565766 1_556
Ca13 O19 2.575214 1_555
Ca13 O14 2.704654 1_556
Ca14 O70 2.389142 1_555
Ca14 O46 2.415973 1_555
Ca14 O2 2.484286 1_655
Ca14 O31 2.520676 1_555
Ca14 O22 2.560378 1_555
Ca14 O11 2.573051 1_655
Ca14 O62 2.603366 1_555
Ca14 O58 2.889153 1_655
Ca15 O71 2.297996 1_555
Ca15 O47 2.398535 1_555
Ca15 O63 2.449523 1_555
Ca15 O3 2.484028 1_655
Ca15 O30 2.570294 1_556
Ca15 O23 2.605249 1_555
Ca15 O10 2.655277 1_656
Ca15 O59 3.010565 1_655
Fe0 O35 1.882072 1_555
Fe0 O59 1.882736 1_555
Fe0 O73 1.932987 1_555
Fe0 O71 1.948218 1_455
Fe1 O63 1.883282 1_555
Fe1 O39 1.895143 1_555
Fe1 O77 1.920093 1_555
Fe1 O67 1.955351 1_555
Fe2 O49 1.869643 1_555
Fe2 O41 1.889481 1_555
Fe2 O67 1.939807 1_555
Fe2 O73 1.942154 1_555
Fe3 O51 1.873266 1_555
Fe3 O43 1.905394 1_555
Fe3 O65 1.930352 1_565
Fe3 O75 1.937804 1_555
Co0 O10 1.826710 1_545
Co0 O21 1.848131 1_454
Co0 O30 2.058403 1_445
Co0 O1 2.073741 1_554
Co0 O32 2.113415 1_555
Co0 O47 2.295933 1_444
Co1 O11 1.912325 1_555
Co1 O20 1.929365 1_465
Co1 O0 1.935912 1_565
Co1 O31 1.954217 1_455
Co1 O46 2.255933 1_455
Co1 O33 2.309660 1_565
Co2 O23 1.822136 1_454
Co2 O8 1.843382 1_555
Co2 O3 2.005002 1_554
Co2 O28 2.074664 1_455
Co2 O34 2.129486 1_555
Co2 O45 2.272058 1_454
Co3 O29 1.978599 1_455
Co3 O9 1.978875 1_555
Co3 O2 1.996504 1_555
Co3 O22 2.018332 1_455
Co3 O35 2.237719 1_555
Co3 O44 2.267028 1_455
Co4 O17 1.828883 1_554
Co4 O14 1.838293 1_545
Co4 O26 1.967768 1_545
Co4 O5 2.122900 1_554
Co4 O36 2.162481 1_555
Co4 O43 2.253276 1_544
Co5 O16 1.944110 1_565
Co5 O27 1.959174 1_555
Co5 O4 1.972442 1_565
Co5 O15 2.021796 1_555
Co5 O42 2.211422 1_555
Co5 O37 2.234166 1_565
Co6 O19 1.838556 1_554
Co6 O12 1.854560 1_555
Co6 O7 2.074565 1_554
Co6 O24 2.079691 1_555
Co6 O38 2.167918 1_555
Co6 O41 2.175365 1_554
Co7 O13 1.870643 1_555
Co7 O18 1.876283 1_555
Co7 O25 1.991800 1_555
Co7 O6 2.004633 1_555
Co7 O39 2.238505 1_555
Co7 O40 2.283444 1_555
Co8 O1 1.842326 1_554
Co8 O24 1.850921 1_555
Co8 O8 2.056506 1_555
Co8 O17 2.069983 1_554
Co8 O48 2.142235 1_555
Co8 O57 2.321270 1_554
Co9 O16 1.923806 1_555
Co9 O9 1.924074 1_555
Co9 O25 1.927798 1_555
Co9 O0 1.935379 1_555
Co9 O56 2.324668 1_555
Co9 O49 2.348412 1_555
Co10 O3 1.915090 1_554
Co10 O26 1.923178 1_555
Co10 O10 1.989891 1_555
Co10 O19 2.026619 1_554
Co10 O50 2.196915 1_555
Co10 O59 2.264903 1_554
Co11 O2 1.926267 1_555
Co11 O11 1.927825 1_555
Co11 O27 1.932205 1_555
Co11 O18 1.993408 1_555
Co11 O51 2.250955 1_555
Co11 O58 2.292996 1_555
Co12 O28 1.824475 1_555
Co12 O5 1.827094 1_554
Co12 O12 2.032473 1_555
Co12 O21 2.086406 1_554
Co12 O52 2.094631 1_555
Co12 O61 2.435912 1_554
Co13 O29 1.930952 1_555
Co13 O4 1.938274 1_555
Co13 O20 1.963177 1_555
Co13 O13 2.001860 1_555
Co13 O60 2.243644 1_555
Co13 O53 2.367813 1_555
Co14 O7 1.835628 1_554
Co14 O30 1.859959 1_555
Co14 O23 2.037574 1_554
Co14 O14 2.042554 1_555
Co14 O54 2.181924 1_555
Co14 O63 2.221639 1_554
Co15 O22 1.828257 1_555
Co15 O15 1.846919 1_555
Co15 O6 1.928040 1_555
Co15 O31 1.962806 1_555
Co15 O62 2.205556 1_555
Co15 O55 2.364560 1_555
Co16 O56 1.789122 1_555
Co16 O32 1.843318 1_555
Co16 O74 1.932424 1_545
Co16 O68 1.950740 1_455
Co17 O33 1.810787 1_555
Co17 O57 1.826529 1_555
Co17 O69 1.938822 1_455
Co17 O75 1.945997 1_545
Co18 O58 1.799785 1_555
Co18 O34 1.836739 1_555
Co18 O72 1.937449 1_555
Co18 O70 1.972666 1_455
Co19 O60 1.801805 1_555
Co19 O36 1.833066 1_555
Co19 O78 1.932052 1_545
Co19 O64 1.959441 1_555
Co20 O37 1.806915 1_555
Co20 O61 1.832403 1_555
Co20 O79 1.936446 1_545
Co20 O65 1.976056 1_555
Co21 O62 1.811352 1_555
Co21 O38 1.829581 1_555
Co21 O76 1.939141 1_555
Co21 O66 1.970332 1_555
Co22 O40 1.803719 1_555
Co22 O48 1.843030 1_555
Co22 O66 1.942925 1_555
Co22 O72 1.949224 1_555
Co23 O42 1.816377 1_555
Co23 O50 1.816572 1_555
Co23 O64 1.945649 1_565
Co23 O74 1.962607 1_555
Co24 O44 1.795300 1_555
Co24 O52 1.845061 1_555
Co24 O70 1.937002 1_555
Co24 O76 1.947660 1_555
Co25 O53 1.798193 1_555
Co25 O45 1.820546 1_555
Co25 O71 1.968675 1_555
Co25 O77 1.976761 1_555
Co26 O46 1.810359 1_555
Co26 O54 1.825523 1_555
Co26 O68 1.935119 1_565
Co26 O78 1.955915 1_555
Co27 O55 1.810984 1_555
Co27 O47 1.844904 1_555
Co27 O69 1.933154 1_565
Co27 O79 1.956749 1_555
O0 Sr14 2.589035 1_455
O0 Sr8 2.656766 1_555
O1 Sr15 2.599303 1_455
O2 Sr3 2.568556 1_555
O2 Sr9 2.674791 1_555
O2 Sr0 2.710994 1_555
O3 Sr4 2.581051 1_555
O4 Sr12 2.589690 1_555
O4 Sr6 2.605447 1_545
O4 Sr10 2.627288 1_555
O4 Sr1 2.642021 1_555
O5 Sr13 2.600155 1_555
O5 Sr7 2.643277 1_545
O6 Sr5 2.564848 1_555
O6 Sr11 2.699081 1_555
O6 Sr2 2.752147 1_555
O8 Sr4 2.701209 1_554
O8 Sr15 2.763599 1_454
O9 Sr8 2.566717 1_555
O9 Sr0 2.578909 1_555
O9 Sr14 2.648013 1_455
O9 Sr3 2.669967 1_555
O11 Sr9 2.626983 1_555
O12 Sr13 2.779385 1_554
O13 Sr2 2.610825 1_555
O13 Sr5 2.636855 1_555
O13 Sr10 2.654081 1_555
O13 Sr12 2.675321 1_555
O14 Sr7 2.694821 1_554
O15 Sr11 2.628636 1_555
O15 Sr1 2.648966 1_565
O15 Sr6 2.654670 1_555
O16 Sr12 2.584545 1_555
O16 Sr10 2.704603 1_555
O17 Sr13 2.619163 1_555
O18 Sr3 2.606677 1_555
O18 Sr11 2.669424 1_555
O18 Sr0 2.693655 1_555
O19 Sr4 2.593385 1_555
O20 Sr6 2.592362 1_545
O20 Sr14 2.612401 1_555
O20 Sr8 2.615866 1_655
O20 Sr1 2.623187 1_555
O21 Sr7 2.591124 1_545
O21 Sr15 2.618855 1_555
O22 Sr5 2.625488 1_555
O22 Sr9 2.678905 1_655
O22 Sr2 2.718261 1_555
O24 Sr4 2.705608 1_554
O24 Sr13 2.731541 1_554
O25 Sr10 2.569319 1_555
O25 Sr0 2.576972 1_555
O25 Sr12 2.648921 1_555
O25 Sr3 2.663308 1_555
O27 Sr11 2.583506 1_555
O28 Sr15 2.705692 1_554
O29 Sr2 2.578902 1_555
O29 Sr8 2.623702 1_655
O29 Sr5 2.643806 1_555
O29 Sr14 2.673115 1_555
O30 Sr7 2.759750 1_554
O31 Sr9 2.567373 1_655
O31 Sr1 2.600893 1_565
O31 Sr6 2.646666 1_555
O33 Sr8 2.572000 1_555
O33 Sr1 2.913047 1_455
O33 Sr9 3.050442 1_545
O35 Sr9 2.528334 1_555
O35 Sr0 2.684292 1_555
O35 Sr2 2.770651 1_455
O37 Sr10 2.533703 1_555
O37 Sr1 2.666172 1_555
O37 Sr11 3.101009 1_545
O39 Sr11 2.551677 1_555
O39 Sr2 2.651009 1_555
O39 Sr0 2.852796 1_555
O39 Sr10 3.164646 1_555
O40 Sr12 2.546696 1_555
O40 Sr5 2.689960 1_555
O40 Sr3 2.804392 1_555
O41 Sr13 2.449207 1_555
O41 Sr4 2.951698 1_555
O42 Sr6 2.695384 1_555
O43 Sr7 2.590937 1_555
O44 Sr14 2.553360 1_555
O44 Sr3 2.686783 1_655
O44 Sr5 2.777378 1_555
O45 Sr15 2.462633 1_555
O45 Sr4 2.606943 1_655
O46 Sr6 2.834599 1_555
O47 Sr7 2.894446 1_555
O49 Sr10 2.627948 1_555
O49 Sr8 2.865550 1_555
O51 Sr0 2.472725 1_555
O51 Sr11 2.667124 1_555
O51 Sr9 2.792636 1_555
O53 Sr1 2.599407 1_555
O53 Sr8 2.724515 1_655
O53 Sr10 2.837709 1_555
O53 Sr2 3.129568 1_555
O55 Sr2 2.514004 1_555
O55 Sr9 2.682800 1_655
O55 Sr11 2.840177 1_555
O55 Sr1 3.167051 1_565
O56 Sr3 2.515779 1_555
O56 Sr12 2.665559 1_555
O56 Sr14 2.785745 1_455
O57 Sr4 2.465925 1_555
O57 Sr13 2.640377 1_555
O57 Sr15 2.871882 1_455
O60 Sr5 2.573774 1_555
O60 Sr14 2.709774 1_555
O60 Sr12 2.831352 1_555
O60 Sr6 3.102891 1_545
O61 Sr15 2.684211 1_555
O61 Sr13 2.788046 1_555
O62 Sr6 2.541657 1_555
O63 Sr7 2.442960 1_555
O64 Sr12 2.468007 1_555
O65 Sr13 2.441894 1_555
O67 Sr0 2.510239 1_555
O68 Sr14 2.476401 1_555
O69 Sr15 2.385855 1_555
O69 Sr1 2.421443 1_555
O71 Sr2 2.502342 1_555
O72 Sr3 2.474383 1_555
O73 Sr4 2.414779 1_555
O73 Sr8 2.461824 1_555
O75 Sr9 2.488020 1_555
O76 Sr5 2.470169 1_555
O77 Sr10 2.494150 1_555
O78 Sr6 2.455084 1_555
O79 Sr7 2.387899 1_555
O79 Sr11 2.445664 1_555
