# generated using pymatgen
data_Y(Al5Re)2
_symmetry_space_group_name_H-M   'P 1'
_cell_length_a   6.96198208
_cell_length_b   6.96198208
_cell_length_c   26.99943500
_cell_angle_alpha   90.00000000
_cell_angle_beta   90.00000000
_cell_angle_gamma   96.00472403
_symmetry_Int_Tables_number   1
_chemical_formula_structural   Y(Al5Re)2
_chemical_formula_sum   'Y6 Al60 Re12'
_cell_volume   1301.46071224
_cell_formula_units_Z   6
loop_
 _symmetry_equiv_pos_site_id
 _symmetry_equiv_pos_as_xyz
  1  'x, y, z'
loop_
 _atom_site_type_symbol
 _atom_site_label
 _atom_site_symmetry_multiplicity
 _atom_site_fract_x
 _atom_site_fract_y
 _atom_site_fract_z
 _atom_site_occupancy
  Y  Y0  1  0.87591300  0.12408700  0.58474900  1
  Y  Y1  1  0.12408700  0.87591300  0.41525100  1
  Y  Y2  1  0.12408700  0.87591300  0.08474900  1
  Y  Y3  1  0.87591300  0.12408700  0.91525100  1
  Y  Y4  1  0.61867500  0.38132500  0.75000000  1
  Y  Y5  1  0.38132500  0.61867500  0.25000000  1
  Al  Al0  1  0.59546400  0.40453600  0.63312500  1
  Al  Al1  1  0.40453600  0.59546400  0.36687500  1
  Al  Al2  1  0.40453600  0.59546400  0.13312500  1
  Al  Al3  1  0.59546400  0.40453600  0.86687500  1
  Al  Al4  1  0.17988200  0.40302300  0.75000000  1
  Al  Al5  1  0.82011800  0.59697700  0.25000000  1
  Al  Al6  1  0.59697700  0.82011800  0.75000000  1
  Al  Al7  1  0.40302300  0.17988200  0.25000000  1
  Al  Al8  1  0.87500900  0.12499100  0.14586800  1
  Al  Al9  1  0.12499100  0.87500900  0.85413200  1
  Al  Al10  1  0.12499100  0.87500900  0.64586800  1
  Al  Al11  1  0.87500900  0.12499100  0.35413200  1
  Al  Al12  1  0.36993500  0.63006500  0.67746100  1
  Al  Al13  1  0.63006500  0.36993500  0.32253900  1
  Al  Al14  1  0.63006500  0.36993500  0.17746100  1
  Al  Al15  1  0.36993500  0.63006500  0.82253900  1
  Al  Al16  1  0.22805400  0.47152700  0.58068500  1
  Al  Al17  1  0.77194600  0.52847300  0.41931500  1
  Al  Al18  1  0.77194600  0.52847300  0.08068500  1
  Al  Al19  1  0.52847300  0.77194600  0.91931500  1
  Al  Al20  1  0.22805400  0.47152700  0.91931500  1
  Al  Al21  1  0.47152700  0.22805400  0.08068500  1
  Al  Al22  1  0.47152700  0.22805400  0.41931500  1
  Al  Al23  1  0.52847300  0.77194600  0.58068500  1
  Al  Al24  1  0.96170000  0.73982400  0.75000000  1
  Al  Al25  1  0.03830000  0.26017600  0.25000000  1
  Al  Al26  1  0.26017600  0.03830000  0.75000000  1
  Al  Al27  1  0.73982400  0.96170000  0.25000000  1
  Al  Al28  1  0.62233400  0.37766600  0.52194500  1
  Al  Al29  1  0.37766600  0.62233400  0.47805500  1
  Al  Al30  1  0.37766600  0.62233400  0.02194500  1
  Al  Al31  1  0.62233400  0.37766600  0.97805500  1
  Al  Al32  1  0.96950800  0.47512700  0.67108600  1
  Al  Al33  1  0.03049200  0.52487300  0.32891400  1
  Al  Al34  1  0.03049200  0.52487300  0.17108600  1
  Al  Al35  1  0.52487300  0.03049200  0.82891400  1
  Al  Al36  1  0.96950800  0.47512700  0.82891400  1
  Al  Al37  1  0.47512700  0.96950800  0.17108600  1
  Al  Al38  1  0.47512700  0.96950800  0.32891400  1
  Al  Al39  1  0.52487300  0.03049200  0.67108600  1
  Al  Al40  1  0.90755700  0.09244300  0.69995100  1
  Al  Al41  1  0.09244300  0.90755700  0.30004900  1
  Al  Al42  1  0.09244300  0.90755700  0.19995100  1
  Al  Al43  1  0.90755700  0.09244300  0.80004900  1
  Al  Al44  1  0.87632300  0.62077500  0.58303700  1
  Al  Al45  1  0.12367700  0.37922500  0.41696300  1
  Al  Al46  1  0.12367700  0.37922500  0.08303700  1
  Al  Al47  1  0.37922500  0.12367700  0.91696300  1
  Al  Al48  1  0.87632300  0.62077500  0.91696300  1
  Al  Al49  1  0.62077500  0.87632300  0.08303700  1
  Al  Al50  1  0.62077500  0.87632300  0.41696300  1
  Al  Al51  1  0.37922500  0.12367700  0.58303700  1
  Al  Al52  1  0.20717200  0.20717200  0.50000000  1
  Al  Al53  1  0.79282800  0.79282800  0.50000000  1
  Al  Al54  1  0.79282800  0.79282800  0.00000000  1
  Al  Al55  1  0.20717200  0.20717200  0.00000000  1
  Al  Al56  1  0.83455100  0.16544900  0.03415700  1
  Al  Al57  1  0.16544900  0.83455100  0.96584300  1
  Al  Al58  1  0.16544900  0.83455100  0.53415700  1
  Al  Al59  1  0.83455100  0.16544900  0.46584300  1
  Re  Re0  1  0.24941100  0.25504600  0.66320600  1
  Re  Re1  1  0.75058900  0.74495400  0.33679400  1
  Re  Re2  1  0.75058900  0.74495400  0.16320600  1
  Re  Re3  1  0.74495400  0.75058900  0.83679400  1
  Re  Re4  1  0.24941100  0.25504600  0.83679400  1
  Re  Re5  1  0.25504600  0.24941100  0.16320600  1
  Re  Re6  1  0.25504600  0.24941100  0.33679400  1
  Re  Re7  1  0.74495400  0.75058900  0.66320600  1
  Re  Re8  1  0.00000000  0.50000000  0.50000000  1
  Re  Re9  1  0.00000000  0.50000000  0.00000000  1
  Re  Re10  1  0.50000000  0.00000000  0.00000000  1
  Re  Re11  1  0.50000000  0.00000000  0.50000000  1
loop_
_geom_bond_atom_site_label_1
_geom_bond_atom_site_label_2
_geom_bond_distance
_geom_bond_site_symmetry_2
Al0 Al12 2.622847 1_555
Al0 Re7 2.649999 1_555
Al0 Re0 2.649999 1_555
Al0 Al44 2.702349 1_555
Al0 Al51 2.702349 1_555
Al0 Al32 2.793835 1_555
Al0 Al39 2.793835 1_555
Al0 Al23 3.002434 1_555
Al0 Al16 3.002434 1_555
Al0 Al28 3.014647 1_555
Al0 Y4 3.164687 1_555
Al0 Y0 3.182438 1_555
Al1 Al13 2.622847 1_555
Al1 Re1 2.649999 1_555
Al1 Re6 2.649999 1_555
Al1 Al45 2.702349 1_555
Al1 Al50 2.702349 1_555
Al1 Al38 2.793835 1_555
Al1 Al33 2.793835 1_555
Al1 Al17 3.002434 1_555
Al1 Al22 3.002434 1_555
Al1 Al29 3.014647 1_555
Al1 Y5 3.164687 1_555
Al1 Y1 3.182438 1_555
Al2 Re2 2.649999 1_555
Al2 Re5 2.649999 1_555
Al2 Al49 2.702349 1_555
Al2 Al46 2.702349 1_555
Al2 Al37 2.793835 1_555
Al2 Al34 2.793835 1_555
Al2 Al21 3.002434 1_555
Al2 Al30 3.014647 1_555
Al2 Y5 3.164687 1_555
Al2 Y2 3.182438 1_555
Al3 Re3 2.649999 1_555
Al3 Re4 2.649999 1_555
Al3 Al48 2.702349 1_555
Al3 Al47 2.702349 1_555
Al3 Al36 2.793835 1_555
Al3 Al35 2.793835 1_555
Al3 Al31 3.014647 1_555
Al3 Y4 3.164687 1_555
Al3 Y3 3.182438 1_555
Al4 Re4 2.625159 1_555
Al4 Re0 2.625159 1_555
Al4 Al43 3.039434 1_455
Al4 Al40 3.039434 1_455
Al4 Y4 3.074344 1_555
Al5 Re1 2.625159 1_555
Al5 Re2 2.625159 1_555
Al5 Y5 3.074344 1_555
Al6 Re3 2.625159 1_555
Al6 Re7 2.625159 1_555
Al6 Y4 3.074344 1_555
Al7 Re6 2.625159 1_555
Al7 Re5 2.625159 1_555
Al7 Y5 3.074344 1_555
Al8 Re2 2.736836 1_545
Al8 Re5 2.736836 1_655
Al8 Y2 3.060435 1_645
Al9 Re3 2.736836 1_455
Al9 Re4 2.736836 1_565
Al9 Y3 3.060435 1_465
Al10 Al12 2.674338 1_555
Al10 Al40 2.682285 1_465
Al10 Re7 2.736836 1_455
Al10 Re0 2.736836 1_565
Al10 Al44 2.892510 1_455
Al10 Al51 2.892510 1_565
Al10 Al32 2.958939 1_455
Al10 Al39 2.958939 1_565
Al10 Al58 3.045051 1_555
Al10 Y0 3.060435 1_465
Al10 Al24 3.139883 1_455
Al10 Al26 3.139883 1_565
Al11 Al13 2.674338 1_555
Al11 Al41 2.682285 1_645
Al11 Re1 2.736836 1_545
Al11 Re6 2.736836 1_655
Al11 Al50 2.892510 1_545
Al11 Al45 2.892510 1_655
Al11 Al38 2.958939 1_545
Al11 Al33 2.958939 1_655
Al11 Al59 3.045051 1_555
Al11 Y1 3.060435 1_645
Al11 Al27 3.139883 1_545
Al11 Al25 3.139883 1_655
Al12 Re0 2.685240 1_555
Al12 Re7 2.685240 1_555
Al12 Al4 2.765394 1_555
Al12 Al6 2.765394 1_555
Al12 Al39 2.887154 1_565
Al12 Al32 2.887154 1_455
Al12 Al23 2.965310 1_555
Al12 Al16 2.965310 1_555
Al12 Y4 3.234336 1_555
Al13 Re6 2.685240 1_555
Al13 Re1 2.685240 1_555
Al13 Al7 2.765394 1_555
Al13 Al5 2.765394 1_555
Al13 Al33 2.887154 1_655
Al13 Al38 2.887154 1_545
Al13 Al22 2.965310 1_555
Al13 Al17 2.965310 1_555
Al13 Y5 3.234336 1_555
Al14 Al2 2.622847 1_555
Al14 Al8 2.674338 1_555
Al14 Re5 2.685240 1_555
Al14 Re2 2.685240 1_555
Al14 Al7 2.765394 1_555
Al14 Al5 2.765394 1_555
Al14 Al34 2.887154 1_655
Al14 Al37 2.887154 1_545
Al14 Al21 2.965310 1_555
Al14 Al18 2.965310 1_555
Al14 Y5 3.234336 1_555
Al15 Al3 2.622847 1_555
Al15 Al9 2.674338 1_555
Al15 Re4 2.685240 1_555
Al15 Re3 2.685240 1_555
Al15 Al4 2.765394 1_555
Al15 Al6 2.765394 1_555
Al15 Al35 2.887154 1_565
Al15 Al36 2.887154 1_455
Al15 Al20 2.965310 1_555
Al15 Al19 2.965310 1_555
Al15 Y4 3.234336 1_555
Al16 Re0 2.702689 1_555
Al16 Re8 2.715069 1_555
Al16 Al58 2.895882 1_555
Al16 Al29 3.104290 1_555
Al16 Y0 3.260769 1_455
Al17 Re1 2.702689 1_555
Al17 Re8 2.715069 1_655
Al17 Al59 2.895882 1_555
Al17 Al28 3.104290 1_555
Al17 Y1 3.260769 1_655
Al18 Re2 2.702689 1_555
Al18 Re9 2.715069 1_655
Al18 Al56 2.895882 1_555
Al18 Al2 3.002434 1_555
Al18 Al31 3.104290 1_554
Al18 Y2 3.260769 1_655
Al19 Re3 2.702689 1_555
Al19 Re10 2.715069 1_566
Al19 Al57 2.895882 1_555
Al19 Al3 3.002434 1_555
Al19 Al30 3.104290 1_556
Al19 Y3 3.260769 1_565
Al20 Re4 2.702689 1_555
Al20 Re9 2.715069 1_556
Al20 Al57 2.895882 1_555
Al20 Al3 3.002434 1_555
Al20 Al30 3.104290 1_556
Al20 Y3 3.260769 1_455
Al21 Re5 2.702689 1_555
Al21 Re10 2.715069 1_555
Al21 Al56 2.895882 1_555
Al21 Al31 3.104290 1_554
Al21 Y2 3.260769 1_545
Al22 Re6 2.702689 1_555
Al22 Re11 2.715069 1_555
Al22 Al59 2.895882 1_555
Al22 Al28 3.104290 1_555
Al22 Y1 3.260769 1_545
Al23 Re7 2.702689 1_555
Al23 Re11 2.715069 1_565
Al23 Al58 2.895882 1_555
Al23 Al29 3.104290 1_555
Al23 Y0 3.260769 1_565
Al24 Al6 2.656496 1_555
Al24 Al26 2.780759 1_665
Al24 Re3 2.792450 1_555
Al24 Re7 2.792450 1_555
Al24 Al36 2.821255 1_555
Al24 Al32 2.821255 1_555
Al24 Al43 2.861530 1_565
Al24 Al40 2.861530 1_565
Al24 Al4 2.924137 1_655
Al24 Al9 3.139883 1_655
Al24 Y4 3.268863 1_555
Al25 Al7 2.656496 1_555
Al25 Al27 2.780759 1_445
Al25 Re6 2.792450 1_555
Al25 Re5 2.792450 1_555
Al25 Al33 2.821255 1_555
Al25 Al34 2.821255 1_555
Al25 Al42 2.861530 1_545
Al25 Al41 2.861530 1_545
Al25 Al5 2.924137 1_455
Al25 Al8 3.139883 1_455
Al25 Y5 3.268863 1_555
Al26 Al4 2.656496 1_555
Al26 Re4 2.792450 1_555
Al26 Re0 2.792450 1_555
Al26 Al35 2.821255 1_555
Al26 Al39 2.821255 1_555
Al26 Al43 2.861530 1_455
Al26 Al40 2.861530 1_455
Al26 Al6 2.924137 1_545
Al26 Al9 3.139883 1_545
Al26 Y4 3.268863 1_555
Al27 Al5 2.656496 1_555
Al27 Re1 2.792450 1_555
Al27 Re2 2.792450 1_555
Al27 Al37 2.821255 1_555
Al27 Al38 2.821255 1_555
Al27 Al41 2.861530 1_655
Al27 Al42 2.861530 1_655
Al27 Al7 2.924137 1_565
Al27 Al8 3.139883 1_565
Al27 Y5 3.268863 1_555
Al28 Al59 2.667734 1_555
Al28 Re11 2.742472 1_555
Al28 Re8 2.742472 1_655
Al28 Al29 2.795399 1_555
Al28 Al51 2.843574 1_555
Al28 Al44 2.843574 1_555
Al28 Al52 3.065340 1_555
Al28 Al53 3.065340 1_555
Al28 Y0 3.124219 1_555
Al29 Al58 2.667734 1_555
Al29 Re8 2.742472 1_555
Al29 Re11 2.742472 1_565
Al29 Al45 2.843574 1_555
Al29 Al50 2.843574 1_555
Al29 Al52 3.065340 1_555
Al29 Al53 3.065340 1_555
Al29 Y1 3.124219 1_555
Al30 Al57 2.667734 1_554
Al30 Re9 2.742472 1_555
Al30 Re10 2.742472 1_565
Al30 Al31 2.795399 1_554
Al30 Al46 2.843574 1_555
Al30 Al49 2.843574 1_555
Al30 Al55 3.065340 1_555
Al30 Al54 3.065340 1_555
Al30 Y2 3.124219 1_555
Al31 Al56 2.667734 1_556
Al31 Re10 2.742472 1_556
Al31 Re9 2.742472 1_656
Al31 Al47 2.843574 1_555
Al31 Al48 2.843574 1_555
Al31 Al55 3.065340 1_556
Al31 Al54 3.065340 1_556
Al31 Y3 3.124219 1_555
Al32 Re7 2.606603 1_555
Al32 Re0 2.610544 1_655
Al32 Al4 2.662804 1_655
Al32 Al40 2.766071 1_555
Al32 Y4 3.255476 1_555
Al32 Y0 3.390873 1_555
Al33 Re6 2.606603 1_555
Al33 Re1 2.610544 1_455
Al33 Al5 2.662804 1_455
Al33 Al41 2.766071 1_555
Al33 Y5 3.255476 1_555
Al33 Y1 3.390873 1_555
Al34 Re5 2.606603 1_555
Al34 Re2 2.610544 1_455
Al34 Al5 2.662804 1_455
Al34 Al42 2.766071 1_555
Al34 Al8 2.958939 1_455
Al34 Y5 3.255476 1_555
Al34 Y2 3.390873 1_555
Al35 Re4 2.606603 1_555
Al35 Re3 2.610544 1_545
Al35 Al6 2.662804 1_545
Al35 Al43 2.766071 1_555
Al35 Al9 2.958939 1_545
Al35 Y4 3.255476 1_555
Al35 Y3 3.390873 1_555
Al36 Re3 2.606603 1_555
Al36 Re4 2.610544 1_655
Al36 Al4 2.662804 1_655
Al36 Al43 2.766071 1_555
Al36 Al9 2.958939 1_655
Al36 Y4 3.255476 1_555
Al36 Y3 3.390873 1_555
Al37 Re2 2.606603 1_555
Al37 Re5 2.610544 1_565
Al37 Al7 2.662804 1_565
Al37 Al42 2.766071 1_555
Al37 Al8 2.958939 1_565
Al37 Y5 3.255476 1_555
Al37 Y2 3.390873 1_555
Al38 Re1 2.606603 1_555
Al38 Re6 2.610544 1_565
Al38 Al7 2.662804 1_565
Al38 Al41 2.766071 1_555
Al38 Y5 3.255476 1_555
Al38 Y1 3.390873 1_555
Al39 Re0 2.606603 1_555
Al39 Re7 2.610544 1_545
Al39 Al6 2.662804 1_545
Al39 Al40 2.766071 1_555
Al39 Y4 3.255476 1_555
Al39 Y0 3.390873 1_555
Al40 Al43 2.702589 1_555
Al40 Re7 2.714109 1_545
Al40 Re0 2.714109 1_655
Al40 Al6 3.039434 1_545
Al40 Y0 3.127578 1_555
Al40 Y4 3.280557 1_555
Al41 Al42 2.702589 1_555
Al41 Re1 2.714109 1_455
Al41 Re6 2.714109 1_565
Al41 Al7 3.039434 1_565
Al41 Al5 3.039434 1_455
Al41 Y1 3.127578 1_555
Al41 Y5 3.280557 1_555
Al42 Al8 2.682285 1_465
Al42 Re2 2.714109 1_455
Al42 Re5 2.714109 1_565
Al42 Al7 3.039434 1_565
Al42 Al5 3.039434 1_455
Al42 Y2 3.127578 1_555
Al42 Y5 3.280557 1_555
Al43 Al9 2.682285 1_645
Al43 Re3 2.714109 1_545
Al43 Re4 2.714109 1_655
Al43 Al6 3.039434 1_545
Al43 Y3 3.127578 1_555
Al43 Y4 3.280557 1_555
Al44 Re7 2.551731 1_555
Al44 Re8 2.574142 1_655
Al44 Al58 2.716926 1_655
Al44 Y0 3.457944 1_555
Al44 Y0 3.504654 1_565
Al45 Re6 2.551731 1_555
Al45 Re8 2.574142 1_555
Al45 Al59 2.716926 1_455
Al45 Y1 3.457944 1_555
Al45 Y1 3.504654 1_545
Al46 Re5 2.551731 1_555
Al46 Re9 2.574142 1_555
Al46 Al56 2.716926 1_455
Al46 Al8 2.892510 1_455
Al46 Y2 3.457944 1_555
Al46 Y2 3.504654 1_545
Al47 Re4 2.551731 1_555
Al47 Re10 2.574142 1_556
Al47 Al57 2.716926 1_545
Al47 Al9 2.892510 1_545
Al47 Y3 3.457944 1_555
Al47 Y3 3.504654 1_455
Al48 Re3 2.551731 1_555
Al48 Re9 2.574142 1_656
Al48 Al57 2.716926 1_655
Al48 Al9 2.892510 1_655
Al48 Y3 3.457944 1_555
Al48 Y3 3.504654 1_565
Al49 Re2 2.551731 1_555
Al49 Re10 2.574142 1_565
Al49 Al56 2.716926 1_565
Al49 Al8 2.892510 1_565
Al49 Y2 3.457944 1_555
Al49 Y2 3.504654 1_655
Al50 Re1 2.551731 1_555
Al50 Re11 2.574142 1_565
Al50 Al59 2.716926 1_565
Al50 Y1 3.457944 1_555
Al50 Y1 3.504654 1_655
Al51 Re0 2.551731 1_555
Al51 Re11 2.574142 1_555
Al51 Al58 2.716926 1_545
Al51 Y0 3.457944 1_555
Al51 Y0 3.504654 1_455
Al52 Re8 2.617567 1_555
Al52 Re11 2.617567 1_555
Al52 Al58 2.739887 1_545
Al52 Al59 2.739887 1_455
Al52 Y0 3.257281 1_455
Al52 Y1 3.257281 1_545
Al53 Re8 2.617567 1_655
Al53 Re11 2.617567 1_565
Al53 Al58 2.739887 1_655
Al53 Al59 2.739887 1_565
Al53 Y0 3.257281 1_565
Al53 Y1 3.257281 1_655
Al54 Re10 2.617567 1_565
Al54 Re9 2.617567 1_655
Al54 Al57 2.739887 1_654
Al54 Al56 2.739887 1_565
Al54 Y2 3.257281 1_655
Al54 Y3 3.257281 1_564
Al55 Re9 2.617567 1_555
Al55 Re10 2.617567 1_555
Al55 Al57 2.739887 1_544
Al55 Al56 2.739887 1_455
Al55 Y2 3.257281 1_545
Al55 Y3 3.257281 1_454
Al56 Re10 2.653457 1_555
Al56 Re9 2.653457 1_655
Al56 Al8 3.045051 1_555
Al56 Y3 3.238800 1_554
Al56 Y2 3.292780 1_645
Al57 Re9 2.653457 1_556
Al57 Re10 2.653457 1_566
Al57 Al9 3.045051 1_555
Al57 Y2 3.238800 1_556
Al57 Y3 3.292780 1_465
Al58 Re8 2.653457 1_555
Al58 Re11 2.653457 1_565
Al58 Y1 3.238800 1_555
Al58 Y0 3.292780 1_465
Al59 Re11 2.653457 1_555
Al59 Re8 2.653457 1_655
Al59 Y0 3.238800 1_555
Al59 Y1 3.292780 1_645
Re0 Y0 3.403514 1_455
Re1 Y1 3.403514 1_655
Re2 Y2 3.403514 1_655
Re3 Y3 3.403514 1_565
Re4 Y3 3.403514 1_455
Re5 Y2 3.403514 1_545
Re6 Y1 3.403514 1_545
Re7 Y0 3.403514 1_565
Re8 Y1 3.515429 1_555
Re8 Y0 3.515429 1_455
Re9 Y2 3.515429 1_555
Re9 Y3 3.515429 1_454
Re10 Y2 3.515429 1_545
Re10 Y3 3.515429 1_554
Re11 Y0 3.515429 1_555
Re11 Y1 3.515429 1_545
