# generated using pymatgen
data_Fe(WCl5)2
_symmetry_space_group_name_H-M   'P 1'
_cell_length_a   6.30075689
_cell_length_b   9.02911208
_cell_length_c   12.92983963
_cell_angle_alpha   86.87735346
_cell_angle_beta   81.01805937
_cell_angle_gamma   69.57912689
_symmetry_Int_Tables_number   1
_chemical_formula_structural   Fe(WCl5)2
_chemical_formula_sum   'Fe2 W4 Cl20'
_cell_volume   680.90087287
_cell_formula_units_Z   2
loop_
 _symmetry_equiv_pos_site_id
 _symmetry_equiv_pos_as_xyz
  1  'x, y, z'
loop_
 _atom_site_type_symbol
 _atom_site_label
 _atom_site_symmetry_multiplicity
 _atom_site_fract_x
 _atom_site_fract_y
 _atom_site_fract_z
 _atom_site_occupancy
  Fe  Fe0  1  0.94274400  0.61451100  0.25000000  1
  Fe  Fe1  1  0.05725600  0.38548900  0.75000000  1
  W  W0  1  0.57099200  0.35801700  0.25000000  1
  W  W1  1  0.42900800  0.64198300  0.75000000  1
  W  W2  1  0.72799500  0.04401000  0.25000000  1
  W  W3  1  0.27200500  0.95599000  0.75000000  1
  Cl  Cl0  1  0.22362900  0.79958400  0.61999500  1
  Cl  Cl1  1  0.47678600  0.79958400  0.88000500  1
  Cl  Cl2  1  0.77637100  0.20041600  0.38000500  1
  Cl  Cl3  1  0.52321400  0.20041600  0.11999500  1
  Cl  Cl4  1  0.10526500  0.60671700  0.85358500  1
  Cl  Cl5  1  0.78801900  0.60671700  0.64641500  1
  Cl  Cl6  1  0.89473500  0.39328300  0.14641500  1
  Cl  Cl7  1  0.21198100  0.39328300  0.35358500  1
  Cl  Cl8  1  0.92373600  0.98556700  0.85085600  1
  Cl  Cl9  1  0.59069700  0.98556700  0.64914400  1
  Cl  Cl10  1  0.07626400  0.01443300  0.14914400  1
  Cl  Cl11  1  0.40930300  0.01443300  0.35085600  1
  Cl  Cl12  1  0.39089500  0.42863500  0.64792600  1
  Cl  Cl13  1  0.68046900  0.42863500  0.85207400  1
  Cl  Cl14  1  0.60910500  0.57136500  0.35207500  1
  Cl  Cl15  1  0.31953000  0.57136500  0.14792500  1
  Cl  Cl16  1  0.05516900  0.17963600  0.64182700  1
  Cl  Cl17  1  0.26519500  0.17963600  0.85817300  1
  Cl  Cl18  1  0.94483100  0.82036400  0.35817300  1
  Cl  Cl19  1  0.73480500  0.82036400  0.14182700  1
loop_
_geom_bond_atom_site_label_1
_geom_bond_atom_site_label_2
_geom_bond_distance
_geom_bond_site_symmetry_2
Cl0 W3 2.373140 1_555
Cl0 W1 2.378792 1_555
Cl1 W3 2.373137 1_555
Cl1 W1 2.378792 1_555
Cl2 W2 2.373140 1_555
Cl2 W0 2.378792 1_555
Cl3 W2 2.373137 1_555
Cl3 W0 2.378792 1_555
Cl4 W1 2.368509 1_555
Cl4 Fe1 2.591316 1_555
Cl5 W1 2.368520 1_555
Cl5 Fe1 2.591316 1_655
Cl6 W0 2.368509 1_555
Cl6 Fe0 2.591316 1_555
Cl7 W0 2.368520 1_555
Cl7 Fe0 2.591316 1_455
Cl8 W3 2.307070 1_655
Cl9 W3 2.307070 1_555
Cl10 W2 2.307070 1_455
Cl11 W2 2.307070 1_555
Cl12 Fe1 2.441709 1_555
Cl12 W1 2.491806 1_555
Cl13 Fe1 2.441720 1_655
Cl13 W1 2.491806 1_555
Cl14 Fe0 2.441715 1_555
Cl14 W0 2.491813 1_555
Cl15 Fe0 2.441720 1_455
Cl15 W0 2.491816 1_555
Cl16 Fe1 2.391045 1_555
Cl16 W3 2.502851 1_545
Cl17 Fe1 2.391043 1_555
Cl17 W3 2.502851 1_545
Cl18 Fe0 2.391045 1_555
Cl18 W2 2.502851 1_565
Cl19 Fe0 2.391043 1_555
Cl19 W2 2.502851 1_565
