# generated using pymatgen
data_SmAs2Au
_symmetry_space_group_name_H-M   'P 1'
_cell_length_a   4.05690003
_cell_length_b   4.05690003
_cell_length_c   20.63662484
_cell_angle_alpha   90.00000000
_cell_angle_beta   90.00000000
_cell_angle_gamma   90.39047812
_symmetry_Int_Tables_number   1
_chemical_formula_structural   SmAs2Au
_chemical_formula_sum   'Sm4 As8 Au4'
_cell_volume   339.63872054
_cell_formula_units_Z   4
loop_
 _symmetry_equiv_pos_site_id
 _symmetry_equiv_pos_as_xyz
  1  'x, y, z'
loop_
 _atom_site_type_symbol
 _atom_site_label
 _atom_site_symmetry_multiplicity
 _atom_site_fract_x
 _atom_site_fract_y
 _atom_site_fract_z
 _atom_site_occupancy
  Sm  Sm0  1  0.73573337  0.26426663  0.38345580  1
  Sm  Sm1  1  0.26426663  0.73573337  0.61654420  1
  Sm  Sm2  1  0.23573337  0.76426663  0.11654420  1
  Sm  Sm3  1  0.76426663  0.23573337  0.88345580  1
  As  As0  1  0.23615544  0.76384456  0.34172000  1
  As  As1  1  0.76384456  0.23615544  0.65828000  1
  As  As2  1  0.73615544  0.26384456  0.15828000  1
  As  As3  1  0.26384456  0.73615544  0.84172000  1
  As  As4  1  0.77959835  0.77959835  0.50000000  1
  As  As5  1  0.72040165  0.72040165  0.00000000  1
  As  As6  1  0.22040165  0.22040165  0.50000000  1
  As  As7  1  0.27959835  0.27959835  0.00000000  1
  Au  Au0  1  0.73069557  0.76930443  0.25000000  1
  Au  Au1  1  0.76930443  0.73069557  0.75000000  1
  Au  Au2  1  0.26930443  0.23069557  0.75000000  1
  Au  Au3  1  0.23069557  0.26930443  0.25000000  1
loop_
_geom_bond_atom_site_label_1
_geom_bond_atom_site_label_2
_geom_bond_distance
_geom_bond_site_symmetry_2
As0 Au3 2.758221 1_555
As0 Au0 2.758221 1_555
As0 Au0 2.790830 1_455
As0 Au3 2.790830 1_565
As0 Sm0 2.985792 1_455
As0 Sm0 2.985792 1_565
As0 Sm0 3.002188 1_555
As0 Sm0 3.006844 1_465
As1 Au2 2.758221 1_555
As1 Au1 2.758221 1_555
As1 Au2 2.790830 1_655
As1 Au1 2.790830 1_545
As1 Sm1 2.985792 1_545
As1 Sm1 2.985792 1_655
As1 Sm1 3.002188 1_555
As1 Sm1 3.006844 1_645
As2 Au0 2.758221 1_545
As2 Au3 2.758221 1_655
As2 Au3 2.790830 1_555
As2 Au0 2.790830 1_555
As2 Sm2 2.985792 1_655
As2 Sm2 2.985792 1_545
As2 Sm2 3.002188 1_645
As2 Sm2 3.006844 1_555
As3 Au1 2.758221 1_455
As3 Au2 2.758221 1_565
As3 Au1 2.790830 1_555
As3 Au2 2.790830 1_555
As3 Sm3 2.985792 1_565
As3 Sm3 2.985792 1_455
As3 Sm3 3.002188 1_465
As3 Sm3 3.006844 1_555
As4 As6 2.520398 1_665
As4 As6 2.898252 1_565
As4 As6 2.898252 1_655
As4 Sm0 3.112392 1_565
As4 Sm1 3.112392 1_655
As4 Sm1 3.190896 1_555
As4 Sm0 3.190896 1_555
As5 As7 2.520398 1_555
As5 As7 2.898252 1_565
As5 As7 2.898252 1_655
As5 Sm2 3.112392 1_555
As5 Sm3 3.112392 1_554
As5 Sm2 3.190896 1_655
As5 Sm3 3.190896 1_564
As6 Sm0 3.112392 1_455
As6 Sm1 3.112392 1_545
As6 Sm0 3.190896 1_555
As6 Sm1 3.190896 1_555
As7 Sm2 3.112392 1_555
As7 Sm3 3.112392 1_554
As7 Sm3 3.190896 1_454
As7 Sm2 3.190896 1_545
Au0 Au3 2.858870 1_555
Au0 Au3 2.858870 1_665
Au0 Au3 2.878420 1_565
Au0 Au3 2.878420 1_655
Au0 Sm2 3.408359 1_555
Au0 Sm0 3.408359 1_565
Au0 Sm2 3.432764 1_655
Au0 Sm0 3.432764 1_555
Au1 Au2 2.858870 1_555
Au1 Au2 2.858870 1_665
Au1 Au2 2.878420 1_565
Au1 Au2 2.878420 1_655
Au1 Sm1 3.408359 1_655
Au1 Sm3 3.408359 1_555
Au1 Sm1 3.432764 1_555
Au1 Sm3 3.432764 1_565
Au2 Sm1 3.408359 1_545
Au2 Sm3 3.408359 1_555
Au2 Sm3 3.432764 1_455
Au2 Sm1 3.432764 1_555
Au3 Sm2 3.408359 1_555
Au3 Sm0 3.408359 1_455
Au3 Sm2 3.432764 1_545
Au3 Sm0 3.432764 1_555
