# generated using pymatgen
data_Mg3Si4
_symmetry_space_group_name_H-M   'P 1'
_cell_length_a   4.87901700
_cell_length_b   7.42081867
_cell_length_c   7.90412428
_cell_angle_alpha   85.67910022
_cell_angle_beta   73.30041065
_cell_angle_gamma   77.02327171
_symmetry_Int_Tables_number   1
_chemical_formula_structural   Mg3Si4
_chemical_formula_sum   'Mg6 Si8'
_cell_volume   267.09105077
_cell_formula_units_Z   2
loop_
 _symmetry_equiv_pos_site_id
 _symmetry_equiv_pos_as_xyz
  1  'x, y, z'
loop_
 _atom_site_type_symbol
 _atom_site_label
 _atom_site_symmetry_multiplicity
 _atom_site_fract_x
 _atom_site_fract_y
 _atom_site_fract_z
 _atom_site_occupancy
  Mg  Mg0  1  0.72659400  0.83231200  0.59240700  1
  Mg  Mg1  1  0.38992100  0.65568200  0.40333500  1
  Mg  Mg2  1  0.58530700  0.80817000  0.00118500  1
  Mg  Mg3  1  0.57033900  0.14475800  0.23275400  1
  Mg  Mg4  1  0.94828100  0.37814100  0.42886900  1
  Mg  Mg5  1  0.10026000  0.25527200  0.97299600  1
  Si  Si0  1  0.35740600  0.47929300  0.11868900  1
  Si  Si1  1  0.09282400  0.00018200  0.27515200  1
  Si  Si2  1  0.09579200  0.55221000  0.72843000  1
  Si  Si3  1  0.58854600  0.49448400  0.80954200  1
  Si  Si4  1  0.93368300  0.72112600  0.22706300  1
  Si  Si5  1  0.43694700  0.27429500  0.59476500  1
  Si  Si6  1  0.18641100  0.02524300  0.56451200  1
  Si  Si7  1  0.73432100  0.12527100  0.80363000  1
loop_
_geom_bond_atom_site_label_1
_geom_bond_atom_site_label_2
_geom_bond_distance
_geom_bond_site_symmetry_2
Mg0 Si6 2.763391 1_565
Mg0 Si2 2.795699 1_655
Mg0 Si7 2.852178 1_565
Mg0 Si6 2.870918 1_665
Mg0 Si4 2.889359 1_555
Mg0 Si1 2.997782 1_665
Mg0 Si3 3.021542 1_555
Mg0 Si5 3.266106 1_565
Mg1 Si2 2.707418 1_555
Mg1 Si0 2.746383 1_555
Mg1 Si4 2.750991 1_555
Mg1 Si4 2.885664 1_455
Mg1 Si1 2.907354 1_565
Mg1 Si6 2.950665 1_565
Mg1 Si5 3.100762 1_555
Mg2 Si4 2.751551 1_555
Mg2 Si7 2.840141 1_564
Mg2 Si3 2.866097 1_554
Mg2 Si0 2.887716 1_555
Mg2 Si1 2.903465 1_565
Mg2 Si2 3.140946 1_654
Mg3 Si1 2.640138 1_655
Mg3 Si0 2.664177 1_555
Mg3 Si1 2.703895 1_555
Mg3 Si5 2.932295 1_555
Mg3 Si6 2.957091 1_555
Mg3 Si7 3.260065 1_554
Mg4 Si5 2.714487 1_555
Mg4 Si0 2.853395 1_655
Mg4 Si6 2.878153 1_655
Mg4 Si4 2.898227 1_555
Mg4 Si5 2.969347 1_655
Mg4 Si1 2.995496 1_655
Mg4 Si3 3.091146 1_555
Mg4 Si2 3.106548 1_655
Mg5 Si0 2.778372 1_556
Mg5 Si2 2.820209 1_555
Mg5 Si7 2.872678 1_455
Mg5 Si1 2.930590 1_556
Mg5 Si7 2.960959 1_555
Mg5 Si5 2.978956 1_555
Mg5 Si3 3.206362 1_555
Mg5 Si3 3.251367 1_455
Si0 Si3 2.384796 1_554
Si0 Si4 2.403322 1_455
Si1 Si4 2.458864 1_445
Si1 Si6 2.485256 1_555
Si2 Si5 2.432293 1_555
Si2 Si3 2.498470 1_455
Si2 Si3 2.599310 1_555
Si3 Si7 2.672060 1_555
Si3 Si5 2.789502 1_555
Si5 Si6 2.493248 1_555
Si5 Si7 2.536609 1_555
Si6 Si7 2.463469 1_455
