# generated using pymatgen
data_Ba2MgFe2B2(P2O9)2
_symmetry_space_group_name_H-M   'P 1'
_cell_length_a   5.39159816
_cell_length_b   9.12785440
_cell_length_c   8.34669969
_cell_angle_alpha   94.25236993
_cell_angle_beta   79.98255264
_cell_angle_gamma   90.36585506
_symmetry_Int_Tables_number   1
_chemical_formula_structural   Ba2MgFe2B2(P2O9)2
_chemical_formula_sum   'Ba2 Mg1 Fe2 B2 P4 O18'
_cell_volume   403.38743564
_cell_formula_units_Z   1
loop_
 _symmetry_equiv_pos_site_id
 _symmetry_equiv_pos_as_xyz
  1  'x, y, z'
loop_
 _atom_site_type_symbol
 _atom_site_label
 _atom_site_symmetry_multiplicity
 _atom_site_fract_x
 _atom_site_fract_y
 _atom_site_fract_z
 _atom_site_occupancy
  Ba  Ba0  1  0.26018120  0.71817456  0.90546672  1
  Ba  Ba1  1  0.75054781  0.30228911  0.12852384  1
  Mg  Mg0  1  0.28777301  0.45648533  0.56830495  1
  Fe  Fe0  1  0.71506410  0.84338873  0.20741995  1
  Fe  Fe1  1  0.30895637  0.15291225  0.80204764  1
  B  B0  1  0.94090401  0.77393528  0.50936505  1
  B  B1  1  0.05925772  0.22082271  0.49516886  1
  P  P0  1  0.75153963  0.41512421  0.70761564  1
  P  P1  1  0.23462443  0.58352767  0.27587036  1
  P  P2  1  0.78799838  0.93075930  0.81190365  1
  P  P3  1  0.24000589  0.06869854  0.18938892  1
  O  O0  1  0.60364811  0.32171645  0.83547196  1
  O  O1  1  0.44176168  0.67563301  0.18408718  1
  O  O2  1  0.02309125  0.55602561  0.17737297  1
  O  O3  1  0.99274957  0.48226872  0.75710641  1
  O  O4  1  0.83932443  0.31209074  0.54003479  1
  O  O5  1  0.13225972  0.66099246  0.45819930  1
  O  O6  1  0.57700139  0.53181850  0.66060843  1
  O  O7  1  0.34470466  0.44063829  0.32714805  1
  O  O8  1  0.93876202  0.06715776  0.84816326  1
  O  O9  1  0.10596865  0.92968666  0.14216600  1
  O  O10  1  0.52960086  0.96269493  0.76850867  1
  O  O11  1  0.50399071  0.04679415  0.22787777  1
  O  O12  1  0.75207887  0.82281475  0.94979738  1
  O  O13  1  0.24977296  0.18677599  0.06255556  1
  O  O14  1  0.96601091  0.83286675  0.66790788  1
  O  O15  1  0.05140085  0.14275024  0.34707066  1
  O  O16  1  0.77532377  0.81509639  0.42593889  1
  O  O17  1  0.24819705  0.23043589  0.58140927  1
loop_
_geom_bond_atom_site_label_1
_geom_bond_atom_site_label_2
_geom_bond_distance
_geom_bond_site_symmetry_2
Ba0 O9 2.684272 1_556
Ba0 O1 2.729163 1_556
Ba0 O10 2.856169 1_555
Ba0 O12 2.860478 1_455
Ba0 O6 2.880156 1_555
Ba0 O12 2.887828 1_555
Ba0 O3 2.904360 1_455
Ba0 O2 2.905179 1_556
Ba0 O14 2.994377 1_455
Ba1 O0 2.716955 1_554
Ba1 O7 2.755717 1_555
Ba1 O2 2.777521 1_655
Ba1 O11 2.785197 1_555
Ba1 O13 2.845045 1_655
Ba1 O13 3.016543 1_555
Ba1 O15 3.087524 1_655
Ba1 O8 3.093379 1_554
Mg0 O6 1.955465 1_555
Mg0 O7 1.977171 1_555
Mg0 O3 2.036329 1_455
Mg0 O17 2.081975 1_555
Mg0 O5 2.361082 1_555
Fe0 O16 1.943189 1_555
Fe0 O12 2.119004 1_554
Fe0 O1 2.140271 1_555
Fe0 O11 2.164205 1_565
Fe0 O9 2.236558 1_655
Fe1 O10 2.084867 1_545
Fe1 O17 2.098963 1_555
Fe1 O8 2.121813 1_455
Fe1 O13 2.141379 1_556
Fe1 O0 2.244021 1_555
B0 O16 1.297065 1_555
B0 O14 1.419385 1_555
B0 O5 1.450734 1_655
B1 O17 1.344678 1_555
B1 O15 1.387392 1_555
B1 O4 1.432560 1_455
O0 P0 1.527035 1_555
O1 P1 1.525394 1_555
O2 P1 1.526956 1_555
O3 P0 1.541674 1_555
O4 P0 1.626432 1_555
O5 P1 1.635171 1_555
O6 P0 1.541854 1_555
O7 P1 1.554866 1_555
O8 P2 1.522893 1_545
O9 P3 1.516869 1_565
O10 P2 1.534113 1_555
O11 P3 1.530097 1_555
O12 P2 1.556028 1_555
O13 P3 1.560199 1_555
O14 P2 1.616943 1_555
O15 P3 1.623071 1_555
