# generated using pymatgen
data_Zr2FeB2Ru5
_symmetry_space_group_name_H-M   'P 1'
_cell_length_a   9.35611700
_cell_length_b   9.35611700
_cell_length_c   3.07790700
_cell_angle_alpha   90.00000000
_cell_angle_beta   90.00000000
_cell_angle_gamma   90.00000000
_symmetry_Int_Tables_number   1
_chemical_formula_structural   Zr2FeB2Ru5
_chemical_formula_sum   'Zr4 Fe2 B4 Ru10'
_cell_volume   269.43051519
_cell_formula_units_Z   2
loop_
 _symmetry_equiv_pos_site_id
 _symmetry_equiv_pos_as_xyz
  1  'x, y, z'
loop_
 _atom_site_type_symbol
 _atom_site_label
 _atom_site_symmetry_multiplicity
 _atom_site_fract_x
 _atom_site_fract_y
 _atom_site_fract_z
 _atom_site_occupancy
  Zr  Zr0  1  0.67553100  0.17553100  0.00000000  1
  Zr  Zr1  1  0.32446900  0.82446900  0.00000000  1
  Zr  Zr2  1  0.17553100  0.32446900  0.00000000  1
  Zr  Zr3  1  0.82446900  0.67553100  0.00000000  1
  Fe  Fe0  1  0.00000000  0.00000000  0.00000000  1
  Fe  Fe1  1  0.50000000  0.50000000  0.00000000  1
  B  B0  1  0.12430200  0.62430200  0.00000000  1
  B  B1  1  0.87569800  0.37569800  0.00000000  1
  B  B2  1  0.62430200  0.87569800  0.00000000  1
  B  B3  1  0.37569800  0.12430200  0.00000000  1
  Ru  Ru0  1  0.21353100  0.07021400  0.50000000  1
  Ru  Ru1  1  0.78646900  0.92978600  0.50000000  1
  Ru  Ru2  1  0.07021400  0.78646900  0.50000000  1
  Ru  Ru3  1  0.71353100  0.42978600  0.50000000  1
  Ru  Ru4  1  0.92978600  0.21353100  0.50000000  1
  Ru  Ru5  1  0.28646900  0.57021400  0.50000000  1
  Ru  Ru6  1  0.57021400  0.71353100  0.50000000  1
  Ru  Ru7  1  0.42978600  0.28646900  0.50000000  1
  Ru  Ru8  1  0.50000000  0.00000000  0.50000000  1
  Ru  Ru9  1  0.00000000  0.50000000  0.50000000  1
loop_
_geom_bond_atom_site_label_1
_geom_bond_atom_site_label_2
_geom_bond_distance
_geom_bond_site_symmetry_2
Fe0 Ru0 2.605998 1_554
Fe0 Ru0 2.605998 1_555
Fe0 Ru2 2.605998 1_545
Fe0 Ru4 2.605998 1_454
Fe0 Ru1 2.605998 1_444
Fe0 Ru1 2.605998 1_445
Fe0 Ru2 2.605998 1_544
Fe0 Ru4 2.605998 1_455
Fe1 Ru6 2.605998 1_555
Fe1 Ru3 2.605998 1_555
Fe1 Ru5 2.605998 1_554
Fe1 Ru7 2.605998 1_555
Fe1 Ru7 2.605998 1_554
Fe1 Ru6 2.605998 1_554
Fe1 Ru3 2.605998 1_554
Fe1 Ru5 2.605998 1_555
B0 Ru2 2.219578 1_555
B0 Ru2 2.219578 1_554
B0 Ru5 2.219578 1_554
B0 Ru5 2.219578 1_555
B0 Ru9 2.252430 1_555
B0 Ru9 2.252430 1_554
B0 Zr1 2.648519 1_555
B0 Zr3 2.845925 1_455
B0 Zr2 2.845925 1_555
B1 Ru3 2.219578 1_555
B1 Ru3 2.219578 1_554
B1 Ru4 2.219578 1_555
B1 Ru4 2.219578 1_554
B1 Ru9 2.252430 1_655
B1 Ru9 2.252430 1_654
B1 Zr0 2.648519 1_555
B1 Zr2 2.845925 1_655
B1 Zr3 2.845925 1_555
B2 Ru6 2.219578 1_554
B2 Ru1 2.219578 1_554
B2 Ru6 2.219578 1_555
B2 Ru1 2.219578 1_555
B2 Ru8 2.252430 1_564
B2 Ru8 2.252430 1_565
B2 Zr3 2.648519 1_555
B2 Zr0 2.845925 1_565
B2 Zr1 2.845925 1_555
B3 Ru7 2.219578 1_555
B3 Ru7 2.219578 1_554
B3 Ru0 2.219578 1_554
B3 Ru0 2.219578 1_555
B3 Ru8 2.252430 1_554
B3 Ru8 2.252430 1_555
B3 Zr2 2.648519 1_555
B3 Zr0 2.845925 1_555
B3 Zr1 2.845925 1_545
Ru0 Zr2 2.855461 1_556
Ru0 Zr2 2.855461 1_555
Ru0 Zr1 2.955017 1_546
Ru0 Zr1 2.955017 1_545
Ru1 Zr3 2.855461 1_556
Ru1 Zr3 2.855461 1_555
Ru1 Zr0 2.955017 1_565
Ru1 Zr0 2.955017 1_566
Ru2 Zr1 2.855461 1_555
Ru2 Zr1 2.855461 1_556
Ru2 Zr3 2.955017 1_456
Ru2 Zr3 2.955017 1_455
Ru3 Zr0 2.855461 1_555
Ru3 Zr0 2.855461 1_556
Ru3 Zr3 2.955017 1_555
Ru3 Zr3 2.955017 1_556
Ru4 Zr0 2.855461 1_555
Ru4 Zr0 2.855461 1_556
Ru4 Zr2 2.955017 1_655
Ru4 Zr2 2.955017 1_656
Ru5 Zr1 2.855461 1_555
Ru5 Zr1 2.855461 1_556
Ru5 Zr2 2.955017 1_555
Ru5 Zr2 2.955017 1_556
Ru6 Zr3 2.855461 1_556
Ru6 Zr3 2.855461 1_555
Ru6 Zr1 2.955017 1_555
Ru6 Zr1 2.955017 1_556
Ru7 Zr2 2.855461 1_556
Ru7 Zr2 2.855461 1_555
Ru7 Zr0 2.955017 1_555
Ru7 Zr0 2.955017 1_556
Ru8 Zr1 2.786145 1_546
Ru8 Zr0 2.786145 1_555
Ru8 Zr0 2.786145 1_556
Ru8 Zr1 2.786145 1_545
Ru9 Zr2 2.786145 1_556
Ru9 Zr3 2.786145 1_456
Ru9 Zr2 2.786145 1_555
Ru9 Zr3 2.786145 1_455
