# generated using pymatgen
data_Lu(MnSn)6
_symmetry_space_group_name_H-M   'P 1'
_cell_length_a   23.20964480
_cell_length_b   23.20964486
_cell_length_c   36.86720264
_cell_angle_alpha   90.00000000
_cell_angle_beta   90.00000000
_cell_angle_gamma   120.00000142
_symmetry_Int_Tables_number   1
_chemical_formula_structural   Lu(MnSn)6
_chemical_formula_sum   'Lu1 Mn6 Sn6'
_cell_volume   17199.18234196
_cell_formula_units_Z   1
loop_
 _symmetry_equiv_pos_site_id
 _symmetry_equiv_pos_as_xyz
  1  'x, y, z'
loop_
 _atom_site_type_symbol
 _atom_site_label
 _atom_site_symmetry_multiplicity
 _atom_site_fract_x
 _atom_site_fract_y
 _atom_site_fract_z
 _atom_site_occupancy
  Lu  Lu0  1  0.00000000  -0.00000000  0.00000000  1
  Mn  Mn0  1  0.50000000  -0.00000000  0.12799095  1
  Mn  Mn1  1  0.00000000  0.50000000  0.87200905  1
  Mn  Mn2  1  0.50000000  -0.00000000  0.87200905  1
  Mn  Mn3  1  0.50000000  0.50000000  0.87200905  1
  Mn  Mn4  1  0.50000000  0.50000000  0.12799095  1
  Mn  Mn5  1  0.00000000  0.50000000  0.12799095  1
  Sn  Sn0  1  0.00000000  -0.00000000  0.91794689  1
  Sn  Sn1  1  0.00000000  -0.00000000  0.08205311  1
  Sn  Sn2  1  0.33333300  0.66666700  0.50000000  1
  Sn  Sn3  1  0.66666700  0.33333300  0.00000000  1
  Sn  Sn4  1  0.33333300  0.66666700  0.00000000  1
  Sn  Sn5  1  0.66666700  0.33333300  0.50000000  1
loop_
_geom_bond_atom_site_label_1
_geom_bond_atom_site_label_2
_geom_bond_distance
_geom_bond_site_symmetry_2
Lu0 Sn0 3.025069 1_554
Lu0 Sn1 3.025069 1_555
