# generated using pymatgen
data_AlFeN2
_symmetry_space_group_name_H-M   'P 1'
_cell_length_a   5.34624600
_cell_length_b   6.23800000
_cell_length_c   4.95060600
_cell_angle_alpha   90.00000000
_cell_angle_beta   90.00000000
_cell_angle_gamma   90.00000000
_symmetry_Int_Tables_number   1
_chemical_formula_structural   AlFeN2
_chemical_formula_sum   'Al4 Fe4 N8'
_cell_volume   165.10212864
_cell_formula_units_Z   4
loop_
 _symmetry_equiv_pos_site_id
 _symmetry_equiv_pos_as_xyz
  1  'x, y, z'
loop_
 _atom_site_type_symbol
 _atom_site_label
 _atom_site_symmetry_multiplicity
 _atom_site_fract_x
 _atom_site_fract_y
 _atom_site_fract_z
 _atom_site_occupancy
  Al  Al0  1  0.58845000  0.37659400  0.00293600  1
  Al  Al1  1  0.41155000  0.62340600  0.50293600  1
  Al  Al2  1  0.91155000  0.87659400  0.50293600  1
  Al  Al3  1  0.08845000  0.12340600  0.00293600  1
  Fe  Fe0  1  0.57406500  0.87410800  0.99959800  1
  Fe  Fe1  1  0.42593500  0.12589200  0.49959800  1
  Fe  Fe2  1  0.92593500  0.37410800  0.49959800  1
  Fe  Fe3  1  0.07406500  0.62589200  0.99959800  1
  N  N0  1  0.58991100  0.37599400  0.39052900  1
  N  N1  1  0.41008900  0.62400600  0.89052900  1
  N  N2  1  0.91008900  0.87599400  0.89052900  1
  N  N3  1  0.08991100  0.12400600  0.39052900  1
  N  N4  1  0.58010700  0.87054100  0.37693700  1
  N  N5  1  0.41989300  0.12945900  0.87693700  1
  N  N6  1  0.91989300  0.37054100  0.87693700  1
  N  N7  1  0.08010700  0.62945900  0.37693700  1
loop_
_geom_bond_atom_site_label_1
_geom_bond_atom_site_label_2
_geom_bond_distance
_geom_bond_site_symmetry_2
Al0 N6 1.878940 1_554
Al0 N5 1.891501 1_554
Al0 N1 1.897604 1_554
Al0 N0 1.918840 1_555
Al1 N7 1.878940 1_555
Al1 N4 1.891501 1_555
Al1 N0 1.897604 1_555
Al1 N1 1.918840 1_555
Al2 N4 1.878940 1_555
Al2 N7 1.891501 1_655
Al2 N3 1.897604 1_665
Al2 N2 1.918840 1_555
Al3 N5 1.878940 1_554
Al3 N6 1.891501 1_454
Al3 N2 1.897604 1_444
Al3 N3 1.918840 1_555
Fe0 N4 1.868468 1_556
Fe0 N1 1.869253 1_555
Fe0 N2 1.875896 1_555
Fe0 N5 1.893512 1_565
Fe1 N5 1.868468 1_555
Fe1 N0 1.869253 1_555
Fe1 N3 1.875896 1_555
Fe1 N4 1.893512 1_545
Fe2 N6 1.868468 1_555
Fe2 N3 1.869253 1_655
Fe2 N0 1.875896 1_555
Fe2 N7 1.893512 1_655
Fe3 N7 1.868468 1_556
Fe3 N2 1.869253 1_455
Fe3 N1 1.875896 1_555
Fe3 N6 1.893512 1_455
