# generated using pymatgen
data_Rb2Co2(SO4)3
_symmetry_space_group_name_H-M   'P 1'
_cell_length_a   10.17153300
_cell_length_b   10.17153300
_cell_length_c   10.17153300
_cell_angle_alpha   90.00000000
_cell_angle_beta   90.00000000
_cell_angle_gamma   90.00000000
_symmetry_Int_Tables_number   1
_chemical_formula_structural   Rb2Co2(SO4)3
_chemical_formula_sum   'Rb8 Co8 S12 O48'
_cell_volume   1052.34765422
_cell_formula_units_Z   4
loop_
 _symmetry_equiv_pos_site_id
 _symmetry_equiv_pos_as_xyz
  1  'x, y, z'
loop_
 _atom_site_type_symbol
 _atom_site_label
 _atom_site_symmetry_multiplicity
 _atom_site_fract_x
 _atom_site_fract_y
 _atom_site_fract_z
 _atom_site_occupancy
  Rb  Rb0  1  0.04790300  0.04790300  0.04790300  1
  Rb  Rb1  1  0.45209700  0.95209700  0.54790300  1
  Rb  Rb2  1  0.95209700  0.54790300  0.45209700  1
  Rb  Rb3  1  0.54790300  0.45209700  0.95209700  1
  Rb  Rb4  1  0.81669700  0.81669700  0.81669700  1
  Rb  Rb5  1  0.68330300  0.18330300  0.31669700  1
  Rb  Rb6  1  0.18330300  0.31669700  0.68330300  1
  Rb  Rb7  1  0.31669700  0.68330300  0.18330300  1
  Co  Co0  1  0.33470900  0.33470900  0.33470900  1
  Co  Co1  1  0.16529100  0.66529100  0.83470900  1
  Co  Co2  1  0.66529100  0.83470900  0.16529100  1
  Co  Co3  1  0.83470900  0.16529100  0.66529100  1
  Co  Co4  1  0.59712100  0.59712100  0.59712100  1
  Co  Co5  1  0.90287900  0.40287900  0.09712100  1
  Co  Co6  1  0.40287900  0.09712100  0.90287900  1
  Co  Co7  1  0.09712100  0.90287900  0.40287900  1
  S  S0  1  0.01858800  0.21587600  0.37567100  1
  S  S1  1  0.48141200  0.78412400  0.87567100  1
  S  S2  1  0.98141200  0.71587600  0.12432900  1
  S  S3  1  0.37567100  0.01858800  0.21587600  1
  S  S4  1  0.51858800  0.28412400  0.62432900  1
  S  S5  1  0.87567100  0.48141200  0.78412400  1
  S  S6  1  0.12432900  0.98141200  0.71587600  1
  S  S7  1  0.62432900  0.51858800  0.28412400  1
  S  S8  1  0.21587600  0.37567100  0.01858800  1
  S  S9  1  0.71587600  0.12432900  0.98141200  1
  S  S10  1  0.28412400  0.62432900  0.51858800  1
  S  S11  1  0.78412400  0.87567100  0.48141200  1
  O  O0  1  0.00945400  0.07646400  0.33025600  1
  O  O1  1  0.49054600  0.92353600  0.83025600  1
  O  O2  1  0.99054600  0.57646400  0.16974400  1
  O  O3  1  0.33025600  0.00945400  0.07646400  1
  O  O4  1  0.50945400  0.42353600  0.66974400  1
  O  O5  1  0.83025600  0.49054600  0.92353600  1
  O  O6  1  0.16974400  0.99054600  0.57646400  1
  O  O7  1  0.66974400  0.50945400  0.42353600  1
  O  O8  1  0.07646400  0.33025600  0.00945400  1
  O  O9  1  0.57646400  0.16974400  0.99054600  1
  O  O10  1  0.42353600  0.66974400  0.50945400  1
  O  O11  1  0.92353600  0.83025600  0.49054600  1
  O  O12  1  0.26540400  0.50076100  0.44191500  1
  O  O13  1  0.23459600  0.49923900  0.94191500  1
  O  O14  1  0.73459600  0.00076100  0.05808500  1
  O  O15  1  0.44191500  0.26540400  0.50076100  1
  O  O16  1  0.76540400  0.99923900  0.55808500  1
  O  O17  1  0.94191500  0.23459600  0.49923900  1
  O  O18  1  0.05808500  0.73459600  0.00076100  1
  O  O19  1  0.55808500  0.76540400  0.99923900  1
  O  O20  1  0.50076100  0.44191500  0.26540400  1
  O  O21  1  0.00076100  0.05808500  0.73459600  1
  O  O22  1  0.99923900  0.55808500  0.76540400  1
  O  O23  1  0.49923900  0.94191500  0.23459600  1
  O  O24  1  0.04111000  0.80260400  0.22520800  1
  O  O25  1  0.45889000  0.19739600  0.72520800  1
  O  O26  1  0.95889000  0.30260400  0.27479200  1
  O  O27  1  0.22520800  0.04111000  0.80260400  1
  O  O28  1  0.54111000  0.69739600  0.77479200  1
  O  O29  1  0.72520800  0.45889000  0.19739600  1
  O  O30  1  0.27479200  0.95889000  0.30260400  1
  O  O31  1  0.77479200  0.54111000  0.69739600  1
  O  O32  1  0.80260400  0.22520800  0.04111000  1
  O  O33  1  0.30260400  0.27479200  0.95889000  1
  O  O34  1  0.69739600  0.77479200  0.54111000  1
  O  O35  1  0.19739600  0.72520800  0.45889000  1
  O  O36  1  0.15724400  0.25275800  0.40201800  1
  O  O37  1  0.34275600  0.74724200  0.90201800  1
  O  O38  1  0.84275600  0.75275800  0.09798200  1
  O  O39  1  0.40201800  0.15724400  0.25275800  1
  O  O40  1  0.65724400  0.24724200  0.59798200  1
  O  O41  1  0.90201800  0.34275600  0.74724200  1
  O  O42  1  0.09798200  0.84275600  0.75275800  1
  O  O43  1  0.59798200  0.65724400  0.24724200  1
  O  O44  1  0.25275800  0.40201800  0.15724400  1
  O  O45  1  0.75275800  0.09798200  0.84275600  1
  O  O46  1  0.24724200  0.59798200  0.65724400  1
  O  O47  1  0.74724200  0.90201800  0.34275600  1
loop_
_geom_bond_atom_site_label_1
_geom_bond_atom_site_label_2
_geom_bond_distance
_geom_bond_site_symmetry_2
Co0 O39 2.102835 1_555
Co0 O36 2.102835 1_555
Co0 O44 2.102835 1_555
Co0 O15 2.130434 1_555
Co0 O12 2.130434 1_555
Co0 O20 2.130434 1_555
Co1 O42 2.102835 1_555
Co1 O46 2.102835 1_555
Co1 O37 2.102835 1_555
Co1 O13 2.130434 1_555
Co1 O18 2.130434 1_556
Co1 O22 2.130434 1_455
Co2 O43 2.102835 1_555
Co2 O47 2.102835 1_555
Co2 O38 2.102835 1_555
Co2 O23 2.130434 1_555
Co2 O14 2.130434 1_565
Co2 O19 2.130434 1_554
Co3 O45 2.102835 1_555
Co3 O41 2.102835 1_555
Co3 O40 2.102835 1_555
Co3 O17 2.130434 1_555
Co3 O16 2.130434 1_545
Co3 O21 2.130434 1_655
Co4 O10 2.111453 1_555
Co4 O7 2.111453 1_555
Co4 O4 2.111453 1_555
Co4 O31 2.151929 1_555
Co4 O28 2.151929 1_555
Co4 O34 2.151929 1_555
Co5 O5 2.111453 1_554
Co5 O2 2.111453 1_555
Co5 O8 2.111453 1_655
Co5 O26 2.151929 1_555
Co5 O29 2.151929 1_555
Co5 O32 2.151929 1_555
Co6 O9 2.111453 1_555
Co6 O1 2.111453 1_545
Co6 O3 2.111453 1_556
Co6 O27 2.151929 1_555
Co6 O33 2.151929 1_555
Co6 O25 2.151929 1_555
Co7 O11 2.111453 1_455
Co7 O6 2.111453 1_555
Co7 O0 2.111453 1_565
Co7 O30 2.151929 1_555
Co7 O24 2.151929 1_555
Co7 O35 2.151929 1_555
O0 S0 1.494269 1_555
O0 Rb0 2.912991 1_555
O0 Rb5 3.493635 1_455
O1 S1 1.494269 1_555
O1 Rb1 2.912991 1_555
O1 Rb4 3.493635 1_555
O2 S2 1.494269 1_555
O2 Rb2 2.912991 1_555
O2 Rb7 3.493635 1_655
O3 S3 1.494269 1_555
O3 Rb0 2.912991 1_555
O3 Rb7 3.493635 1_545
O4 S4 1.494269 1_555
O4 Rb3 2.912991 1_555
O4 Rb6 3.493635 1_555
O5 S5 1.494269 1_555
O5 Rb3 2.912991 1_555
O5 Rb4 3.493635 1_555
O6 S6 1.494269 1_555
O6 Rb1 2.912991 1_555
O6 Rb6 3.493635 1_565
O7 S7 1.494269 1_555
O7 Rb2 2.912991 1_555
O7 Rb5 3.493635 1_555
O8 S8 1.494269 1_555
O8 Rb0 2.912991 1_555
O8 Rb6 3.493635 1_554
O9 S9 1.494269 1_555
O9 Rb3 2.912991 1_555
O9 Rb5 3.493635 1_556
O10 S10 1.494269 1_555
O10 Rb1 2.912991 1_555
O10 Rb7 3.493635 1_555
O11 S11 1.494269 1_555
O11 Rb2 2.912991 1_555
O11 Rb4 3.493635 1_555
O12 S10 1.491378 1_555
O12 Rb6 3.198592 1_555
O12 Rb2 3.224349 1_455
O12 Rb7 3.261761 1_555
O13 S8 1.491378 1_556
O13 Rb7 3.198592 1_556
O13 Rb3 3.224349 1_555
O13 Rb6 3.261761 1_555
O14 S9 1.491378 1_554
O14 Rb4 3.198592 1_544
O14 Rb0 3.224349 1_655
O14 Rb5 3.261761 1_555
O15 S4 1.491378 1_555
O15 Rb5 3.198592 1_555
O15 Rb1 3.224349 1_545
O15 Rb6 3.261761 1_555
O16 S11 1.491378 1_555
O16 Rb5 3.198592 1_565
O16 Rb1 3.224349 1_555
O16 Rb4 3.261761 1_555
O17 S0 1.491378 1_655
O17 Rb6 3.198592 1_655
O17 Rb2 3.224349 1_555
O17 Rb5 3.261761 1_555
O18 S2 1.491378 1_455
O18 Rb4 3.198592 1_454
O18 Rb0 3.224349 1_565
O18 Rb7 3.261761 1_555
O19 S1 1.491378 1_555
O19 Rb7 3.198592 1_556
O19 Rb3 3.224349 1_555
O19 Rb4 3.261761 1_555
O20 S7 1.491378 1_555
O20 Rb7 3.198592 1_555
O20 Rb3 3.224349 1_554
O20 Rb5 3.261761 1_555
O21 S6 1.491378 1_545
O21 Rb4 3.198592 1_445
O21 Rb0 3.224349 1_556
O21 Rb6 3.261761 1_555
O22 S5 1.491378 1_555
O22 Rb6 3.198592 1_655
O22 Rb2 3.224349 1_555
O22 Rb4 3.261761 1_555
O23 S3 1.491378 1_565
O23 Rb5 3.198592 1_565
O23 Rb1 3.224349 1_555
O23 Rb7 3.261761 1_555
O24 S2 1.483168 1_455
O24 Rb0 3.079385 1_565
O24 Rb7 3.084121 1_555
O25 S4 1.483168 1_555
O25 Rb1 3.079385 1_545
O25 Rb6 3.084121 1_555
O26 S0 1.483168 1_655
O26 Rb2 3.079385 1_555
O26 Rb5 3.084121 1_555
O27 S6 1.483168 1_545
O27 Rb0 3.079385 1_556
O27 Rb6 3.084121 1_555
O28 S1 1.483168 1_555
O28 Rb3 3.079385 1_555
O28 Rb4 3.084121 1_555
O29 S7 1.483168 1_555
O29 Rb3 3.079385 1_554
O29 Rb5 3.084121 1_555
O30 S3 1.483168 1_565
O30 Rb1 3.079385 1_555
O30 Rb7 3.084121 1_555
O31 S5 1.483168 1_555
O31 Rb2 3.079385 1_555
O31 Rb4 3.084121 1_555
O32 S9 1.483168 1_554
O32 Rb0 3.079385 1_655
O32 Rb5 3.084121 1_555
O33 S8 1.483168 1_556
O33 Rb3 3.079385 1_555
O33 Rb6 3.084121 1_555
O34 S11 1.483168 1_555
O34 Rb1 3.079385 1_555
O34 Rb4 3.084121 1_555
O35 S10 1.483168 1_555
O35 Rb2 3.079385 1_455
O35 Rb7 3.084121 1_555
O36 S0 1.483787 1_555
O36 Rb6 2.946033 1_555
O37 S1 1.483787 1_555
O37 Rb7 2.946033 1_556
O38 S2 1.483787 1_555
O38 Rb4 2.946033 1_554
O39 S3 1.483787 1_555
O39 Rb5 2.946033 1_555
O40 S4 1.483787 1_555
O40 Rb5 2.946033 1_555
O41 S5 1.483787 1_555
O41 Rb6 2.946033 1_655
O42 S6 1.483787 1_555
O42 Rb4 2.946033 1_455
O43 S7 1.483787 1_555
O43 Rb7 2.946033 1_555
O44 S8 1.483787 1_555
O44 Rb7 2.946033 1_555
O45 S9 1.483787 1_555
O45 Rb4 2.946033 1_545
O46 S10 1.483787 1_555
O46 Rb6 2.946033 1_555
O47 S11 1.483787 1_555
O47 Rb5 2.946033 1_565
