# generated using pymatgen
data_Fe5GeP
_symmetry_space_group_name_H-M   'P 1'
_cell_length_a   6.76670912
_cell_length_b   6.72814751
_cell_length_c   12.45872816
_cell_angle_alpha   89.74110259
_cell_angle_beta   90.51485808
_cell_angle_gamma   120.18977303
_symmetry_Int_Tables_number   1
_chemical_formula_structural   Fe5GeP
_chemical_formula_sum   'Fe30 Ge6 P6'
_cell_volume   490.25964531
_cell_formula_units_Z   6
loop_
 _symmetry_equiv_pos_site_id
 _symmetry_equiv_pos_as_xyz
  1  'x, y, z'
loop_
 _atom_site_type_symbol
 _atom_site_label
 _atom_site_symmetry_multiplicity
 _atom_site_fract_x
 _atom_site_fract_y
 _atom_site_fract_z
 _atom_site_occupancy
  Fe  Fe0  1  0.99740700  0.00000000  0.55012700  1
  Fe  Fe1  1  0.01193600  0.00000000  0.04727300  1
  Fe  Fe2  1  0.36406200  0.00000000  0.28555100  1
  Fe  Fe3  1  0.63286800  0.63913500  0.28033900  1
  Fe  Fe4  1  0.99373300  0.36086500  0.28033900  1
  Fe  Fe5  1  0.63322000  0.00000000  0.79155400  1
  Fe  Fe6  1  0.38233900  0.37842200  0.79587300  1
  Fe  Fe7  1  0.00391700  0.62157800  0.79587300  1
  Fe  Fe8  1  0.67976000  0.00000000  0.17418500  1
  Fe  Fe9  1  0.31924300  0.33030600  0.16941600  1
  Fe  Fe10  1  0.98893700  0.66969400  0.16941600  1
  Fe  Fe11  1  0.32873700  0.00000000  0.67979100  1
  Fe  Fe12  1  0.67508700  0.67299000  0.67971400  1
  Fe  Fe13  1  0.00209700  0.32701000  0.67971400  1
  Fe  Fe14  1  0.71916800  0.00000000  0.38267700  1
  Fe  Fe15  1  0.27924200  0.28294300  0.38235300  1
  Fe  Fe16  1  0.99629800  0.71705700  0.38235300  1
  Fe  Fe17  1  0.28183700  0.00000000  0.89145400  1
  Fe  Fe18  1  0.73878400  0.73785000  0.88456200  1
  Fe  Fe19  1  0.00093400  0.26215000  0.88456200  1
  Fe  Fe20  1  0.66288000  0.33106800  0.39248400  1
  Fe  Fe21  1  0.33181200  0.66893200  0.39248400  1
  Fe  Fe22  1  0.32343500  0.65479900  0.91358400  1
  Fe  Fe23  1  0.66863700  0.34520100  0.91358400  1
  Fe  Fe24  1  0.35758700  0.00000000  0.08927000  1
  Fe  Fe25  1  0.63547500  0.61847800  0.06913100  1
  Fe  Fe26  1  0.01699700  0.38152200  0.06913100  1
  Fe  Fe27  1  0.64871400  0.00000000  0.58961000  1
  Fe  Fe28  1  0.34680100  0.34975000  0.59190600  1
  Fe  Fe29  1  0.99705100  0.65025000  0.59190600  1
  Ge  Ge0  1  0.00361600  0.00000000  0.24777300  1
  Ge  Ge1  1  0.00649900  0.00000000  0.74952400  1
  Ge  Ge2  1  0.33912800  0.00000000  0.48580600  1
  Ge  Ge3  1  0.65437400  0.65384200  0.48352300  1
  Ge  Ge4  1  0.00053100  0.34615800  0.48352300  1
  Ge  Ge5  1  0.66422800  0.00000000  0.98538800  1
  P  P0  1  0.32798600  0.33396200  0.98251100  1
  P  P1  1  0.99402400  0.66603800  0.98251100  1
  P  P2  1  0.66188400  0.33675600  0.20793700  1
  P  P3  1  0.32512700  0.66324400  0.20793700  1
  P  P4  1  0.33590100  0.66819100  0.72367600  1
  P  P5  1  0.66771000  0.33180900  0.72367600  1
loop_
_geom_bond_atom_site_label_1
_geom_bond_atom_site_label_2
_geom_bond_distance
_geom_bond_site_symmetry_2
Fe0 Fe28 2.406574 1_655
Fe0 Fe29 2.406574 1_545
Fe0 Fe27 2.414558 1_555
Fe0 Ge2 2.454044 1_655
Fe0 Ge3 2.458981 1_545
Fe0 Ge4 2.458984 1_655
Fe0 Ge1 2.484442 1_655
Fe0 Fe14 2.797587 1_555
Fe0 Fe16 2.830993 1_545
Fe0 Fe15 2.830996 1_655
Fe1 P1 2.335635 1_444
Fe1 P0 2.335635 1_554
Fe1 Fe24 2.392137 1_555
Fe1 Ge5 2.469353 1_454
Fe1 Ge0 2.499115 1_555
Fe1 Fe26 2.565586 1_555
Fe1 Fe25 2.565586 1_445
Fe1 Fe9 2.627663 1_555
Fe1 Fe10 2.627663 1_445
Fe1 Fe17 2.677296 1_554
Fe1 Fe18 2.706093 1_444
Fe1 Fe19 2.706093 1_554
Fe1 Fe8 2.759760 1_455
Fe2 P3 2.356460 1_545
Fe2 P2 2.356463 1_555
Fe2 Fe24 2.445410 1_555
Fe2 Ge0 2.479875 1_555
Fe2 Ge2 2.502133 1_555
Fe2 Fe20 2.504731 1_555
Fe2 Fe21 2.504731 1_545
Fe3 P2 2.326525 1_555
Fe3 P3 2.341150 1_555
Fe3 Ge0 2.497346 1_665
Fe3 Fe9 2.503872 1_555
Fe3 Ge3 2.533809 1_555
Fe3 Fe8 2.635994 1_565
Fe4 P3 2.326521 1_655
Fe4 P2 2.341144 1_555
Fe4 Ge0 2.497346 1_655
Fe4 Ge4 2.533809 1_655
Fe4 Fe8 2.635994 1_555
Fe4 Fe9 2.704887 1_655
Fe5 P4 2.283854 1_545
Fe5 P5 2.283854 1_555
Fe5 Ge5 2.422144 1_555
Fe5 Ge1 2.584181 1_655
Fe6 P5 2.297633 1_555
Fe6 P4 2.303041 1_555
Fe6 P0 2.351611 1_555
Fe6 Ge1 2.599697 1_555
Fe7 P4 2.297633 1_555
Fe7 P5 2.303041 1_455
Fe7 P1 2.351611 1_455
Fe7 Ge1 2.599698 1_565
Fe8 Ge5 2.353574 1_554
Fe8 Ge0 2.367878 1_655
Fe8 P2 2.368590 1_555
Fe8 P3 2.368593 1_545
Fe9 P3 2.273639 1_555
Fe9 P0 2.329586 1_554
Fe9 P2 2.342411 1_555
Fe9 Ge0 2.386959 1_555
Fe10 P2 2.273636 1_555
Fe10 P1 2.329586 1_554
Fe10 P3 2.342404 1_655
Fe10 Ge0 2.386959 1_665
Fe10 Fe4 2.503872 1_555
Fe10 Fe24 2.570568 1_665
Fe10 Fe16 2.670456 1_555
Fe10 Fe3 2.704887 1_555
Fe11 P5 2.320021 1_555
Fe11 P4 2.320021 1_545
Fe11 Ge1 2.354437 1_555
Fe11 Ge2 2.418460 1_555
Fe11 Fe27 2.448288 1_555
Fe11 Fe5 2.476353 1_555
Fe11 Fe29 2.537926 1_445
Fe11 Fe28 2.537926 1_555
Fe12 P5 2.333615 1_555
Fe12 P4 2.348776 1_555
Fe12 Ge1 2.376184 1_665
Fe12 Fe28 2.445454 1_555
Fe12 Ge3 2.447310 1_555
Fe12 Fe29 2.519173 1_555
Fe12 Fe27 2.549855 1_565
Fe12 Fe5 2.743031 1_565
Fe13 P4 2.333615 1_555
Fe13 P5 2.348776 1_455
Fe13 Ge1 2.376184 1_555
Fe13 Fe29 2.445454 1_455
Fe13 Ge4 2.447310 1_555
Fe13 Fe28 2.519173 1_555
Fe13 Fe27 2.549855 1_455
Fe13 Fe5 2.743031 1_455
Fe14 Fe20 2.445038 1_555
Fe14 Fe21 2.445038 1_545
Fe14 Ge4 2.480225 1_655
Fe14 Ge3 2.480227 1_545
Fe14 Fe3 2.539729 1_545
Fe14 Fe4 2.539730 1_555
Fe14 Ge0 2.566664 1_655
Fe14 Fe8 2.608812 1_555
Fe14 Fe27 2.626040 1_555
Fe14 Fe2 2.680658 1_555
Fe14 Ge2 2.885042 1_555
Fe15 Fe21 2.441286 1_555
Fe15 Fe20 2.451311 1_555
Fe15 Ge4 2.486113 1_555
Fe15 Ge2 2.488726 1_555
Fe15 Ge0 2.513089 1_555
Fe15 Fe2 2.557344 1_555
Fe15 Fe4 2.567331 1_455
Fe15 Fe28 2.647567 1_555
Fe15 Fe9 2.670456 1_555
Fe15 Fe3 2.710019 1_555
Fe15 Ge3 2.803516 1_555
Fe16 Fe20 2.441284 1_555
Fe16 Fe21 2.451318 1_655
Fe16 Ge3 2.486102 1_555
Fe16 Ge2 2.488729 1_665
Fe16 Ge0 2.513087 1_665
Fe16 Fe2 2.557348 1_665
Fe16 Fe3 2.567325 1_555
Fe16 Fe29 2.647567 1_555
Fe16 Fe4 2.710022 1_555
Fe16 Ge4 2.803516 1_655
Fe17 P0 2.396716 1_555
Fe17 P1 2.396716 1_445
Fe17 Fe24 2.512761 1_556
Fe17 Ge1 2.557112 1_555
Fe17 Fe5 2.693654 1_555
Fe17 Ge5 2.830279 1_555
Fe18 P1 2.345567 1_555
Fe18 Ge5 2.422754 1_565
Fe18 Ge1 2.457149 1_665
Fe18 Fe5 2.489518 1_565
Fe19 P0 2.345567 1_555
Fe19 Ge5 2.422755 1_455
Fe19 Ge1 2.457149 1_555
Fe19 Fe5 2.489518 1_455
Fe20 P2 2.299372 1_555
Fe20 Ge3 2.480946 1_555
Fe20 Ge2 2.495470 1_555
Fe20 Ge4 2.497639 1_655
Fe20 Fe4 2.570362 1_555
Fe20 Fe3 2.584881 1_555
Fe21 P3 2.299372 1_555
Fe21 Ge4 2.480949 1_555
Fe21 Ge2 2.495470 1_565
Fe21 Ge3 2.497645 1_555
Fe21 Fe3 2.570362 1_555
Fe21 Fe4 2.584881 1_455
Fe22 P0 2.334039 1_555
Fe22 P4 2.367966 1_555
Fe22 P1 2.432331 1_455
Fe22 Ge5 2.471336 1_565
Fe22 Fe5 2.688631 1_565
Fe23 P1 2.334036 1_555
Fe23 P5 2.367966 1_555
Fe23 P0 2.432337 1_555
Fe23 Ge5 2.471333 1_555
Fe23 Fe5 2.688628 1_555
Fe24 Fe8 2.414621 1_555
Fe24 Ge5 2.455348 1_554
Fe24 Fe9 2.570567 1_555
Fe24 P3 2.615850 1_545
Fe24 P2 2.615852 1_555
Fe24 P1 2.697934 1_444
Fe24 P0 2.697935 1_554
Fe25 P0 2.265125 1_554
Fe25 P1 2.533095 1_554
Fe25 P2 2.630752 1_555
Fe25 Fe3 2.636363 1_555
Fe25 Ge5 2.681922 1_564
Fe25 P3 2.863148 1_555
Fe26 P1 2.265126 1_454
Fe26 P0 2.533095 1_554
Fe26 P3 2.630749 1_555
Fe26 Fe4 2.636363 1_455
Fe26 Ge5 2.681922 1_454
Fe26 P2 2.863142 1_455
Fe27 Ge2 2.452012 1_555
Fe27 Fe5 2.519090 1_555
Fe27 Ge4 2.700196 1_655
Fe27 Ge3 2.700199 1_545
Fe27 P5 2.744359 1_555
Fe27 P4 2.744360 1_545
Fe28 Ge3 2.466562 1_555
Fe28 Fe6 2.549387 1_555
Fe28 Ge2 2.681687 1_555
Fe28 Ge4 2.683388 1_555
Fe28 P4 2.735663 1_555
Fe28 P5 2.760955 1_555
Fe29 Ge4 2.466559 1_655
Fe29 Fe7 2.549387 1_655
Fe29 Ge2 2.681687 1_665
Fe29 Ge3 2.683382 1_555
Fe29 P5 2.735663 1_555
Fe29 P4 2.760955 1_655
