# generated using pymatgen
data_Ca(Mo3S4)2
_symmetry_space_group_name_H-M   'P 1'
_cell_length_a   6.48425274
_cell_length_b   6.57499625
_cell_length_c   6.61175478
_cell_angle_alpha   89.93643199
_cell_angle_beta   90.40461025
_cell_angle_gamma   91.04216728
_symmetry_Int_Tables_number   1
_chemical_formula_structural   Ca(Mo3S4)2
_chemical_formula_sum   'Ca1 Mo6 S8'
_cell_volume   281.83134713
_cell_formula_units_Z   1
loop_
 _symmetry_equiv_pos_site_id
 _symmetry_equiv_pos_as_xyz
  1  'x, y, z'
loop_
 _atom_site_type_symbol
 _atom_site_label
 _atom_site_symmetry_multiplicity
 _atom_site_fract_x
 _atom_site_fract_y
 _atom_site_fract_z
 _atom_site_occupancy
  Ca  Ca0  1  -0.00000000  -0.00000000  -0.00000000  1
  Mo  Mo0  1  0.56109779  0.58306209  0.22812703  1
  Mo  Mo1  1  0.43890221  0.41693791  0.77187297  1
  Mo  Mo2  1  0.23409542  0.44143067  0.42039118  1
  Mo  Mo3  1  0.76590458  0.55856933  0.57960882  1
  Mo  Mo4  1  0.41911245  0.77181797  0.55940440  1
  Mo  Mo5  1  0.58088755  0.22818203  0.44059560  1
  S  S0  1  0.37638686  0.26111284  0.12743150  1
  S  S1  1  0.62361314  0.73888716  0.87256850  1
  S  S2  1  0.24597436  0.76465217  0.24047426  1
  S  S3  1  0.75402564  0.23534783  0.75952574  1
  S  S4  1  0.74206506  0.87536611  0.37552438  1
  S  S5  1  0.25793494  0.12463389  0.62447562  1
  S  S6  1  0.12898955  0.62112075  0.74315580  1
  S  S7  1  0.87101045  0.37887925  0.25684420  1
loop_
_geom_bond_atom_site_label_1
_geom_bond_atom_site_label_2
_geom_bond_distance
_geom_bond_site_symmetry_2
Ca0 S3 2.741322 1_454
Ca0 S2 2.741322 1_545
Ca0 S1 3.071735 1_444
Ca0 S0 3.071735 1_555
Ca0 S4 3.104478 1_445
Ca0 S5 3.104478 1_554
Ca0 S7 3.145534 1_455
Ca0 S6 3.145534 1_544
Mo0 S2 2.387205 1_555
Mo0 S4 2.434414 1_555
Mo0 S7 2.443122 1_555
Mo0 S0 2.501662 1_555
Mo0 S1 2.594918 1_554
Mo1 S3 2.387205 1_555
Mo1 S5 2.434414 1_555
Mo1 S6 2.443122 1_555
Mo1 S1 2.501662 1_555
Mo1 S0 2.594918 1_556
Mo2 S2 2.434568 1_555
Mo2 S0 2.465547 1_555
Mo2 S5 2.487130 1_555
Mo2 S6 2.543599 1_555
Mo2 S7 2.609814 1_455
Mo3 S3 2.434568 1_555
Mo3 S1 2.465547 1_555
Mo3 S4 2.487130 1_555
Mo3 S7 2.543599 1_555
Mo3 S6 2.609814 1_655
Mo4 S2 2.382023 1_555
Mo4 S6 2.441027 1_555
Mo4 S1 2.462348 1_555
Mo4 S4 2.511805 1_555
Mo4 S5 2.599121 1_565
Mo5 S3 2.382023 1_555
Mo5 S7 2.441027 1_555
Mo5 S0 2.462348 1_555
Mo5 S5 2.511805 1_555
Mo5 S4 2.599121 1_545
