# generated using pymatgen
data_Dy2FeSbO7
_symmetry_space_group_name_H-M   'P 1'
_cell_length_a   7.29406000
_cell_length_b   7.29406000
_cell_length_c   7.29406000
_cell_angle_alpha   120.40195327
_cell_angle_beta   119.36063396
_cell_angle_gamma   90.20808594
_symmetry_Int_Tables_number   1
_chemical_formula_structural   Dy2FeSbO7
_chemical_formula_sum   'Dy4 Fe2 Sb2 O14'
_cell_volume   274.86775513
_cell_formula_units_Z   2
loop_
 _symmetry_equiv_pos_site_id
 _symmetry_equiv_pos_as_xyz
  1  'x, y, z'
loop_
 _atom_site_type_symbol
 _atom_site_label
 _atom_site_symmetry_multiplicity
 _atom_site_fract_x
 _atom_site_fract_y
 _atom_site_fract_z
 _atom_site_occupancy
  Dy  Dy0  1  0.00000000  0.00000000  0.50000000  1
  Dy  Dy1  1  0.00000000  0.50000000  0.00000000  1
  Dy  Dy2  1  0.00000000  0.00000000  0.00000000  1
  Dy  Dy3  1  0.50000000  0.00000000  0.50000000  1
  Fe  Fe0  1  0.50000000  0.50000000  0.50000000  1
  Fe  Fe1  1  0.50000000  0.00000000  0.00000000  1
  Sb  Sb0  1  0.50000000  0.50000000  0.00000000  1
  Sb  Sb1  1  0.00000000  0.50000000  0.50000000  1
  O  O0  1  0.40964600  0.15964600  0.25000000  1
  O  O1  1  0.82985900  0.57985900  0.25000000  1
  O  O2  1  0.40900800  0.57871900  0.24007600  1
  O  O3  1  0.83864300  0.16893300  0.25992400  1
  O  O4  1  0.40900800  0.16893300  0.83029000  1
  O  O5  1  0.83864300  0.57871900  0.66971000  1
  O  O6  1  0.59035400  0.84035400  0.75000000  1
  O  O7  1  0.17014100  0.42014100  0.75000000  1
  O  O8  1  0.59099200  0.42128100  0.75992400  1
  O  O9  1  0.16135700  0.83106700  0.74007600  1
  O  O10  1  0.59099200  0.83106700  0.16971000  1
  O  O11  1  0.16135700  0.42128100  0.33029000  1
  O  O12  1  0.12324100  0.87324100  0.25000000  1
  O  O13  1  0.87675900  0.12675900  0.75000000  1
loop_
_geom_bond_atom_site_label_1
_geom_bond_atom_site_label_2
_geom_bond_distance
_geom_bond_site_symmetry_2
Dy0 O12 2.212500 1_545
Dy0 O13 2.212500 1_455
Dy0 O4 2.478587 1_555
Dy0 O10 2.478587 1_445
Dy0 O9 2.478593 1_545
Dy0 O3 2.478593 1_455
Dy0 O1 2.520705 1_445
Dy0 O7 2.520705 1_555
Dy1 O13 2.212500 1_454
Dy1 O12 2.212500 1_555
Dy1 O8 2.478586 1_454
Dy1 O2 2.478586 1_555
Dy1 O5 2.478593 1_454
Dy1 O11 2.478593 1_555
Dy1 O1 2.520705 1_455
Dy1 O7 2.520705 1_554
Dy2 O12 2.256811 1_545
Dy2 O13 2.256811 1_454
Dy2 O6 2.468158 1_444
Dy2 O0 2.468158 1_555
Dy2 O3 2.516377 1_455
Dy2 O9 2.516377 1_544
Dy2 O5 2.516377 1_444
Dy2 O11 2.516377 1_555
Dy3 O13 2.256811 1_555
Dy3 O12 2.256811 1_545
Dy3 O6 2.468158 1_545
Dy3 O0 2.468158 1_555
Dy3 O2 2.516376 1_545
Dy3 O8 2.516376 1_555
Dy3 O10 2.516383 1_545
Dy3 O4 2.516383 1_555
Fe0 O0 2.037257 1_555
Fe0 O6 2.037257 1_555
Fe0 O2 2.057977 1_555
Fe0 O8 2.057977 1_555
Fe0 O5 2.057978 1_555
Fe0 O11 2.057978 1_555
Fe1 O0 2.037257 1_555
Fe1 O6 2.037257 1_544
Fe1 O3 2.057978 1_555
Fe1 O9 2.057978 1_544
Fe1 O4 2.057978 1_554
Fe1 O10 2.057978 1_545
O1 Sb1 2.016388 1_655
O1 Sb0 2.016388 1_555
O2 Sb0 1.990336 1_555
O3 Sb1 1.990330 1_655
O4 Sb0 1.990330 1_556
O5 Sb1 1.990330 1_655
O7 Sb0 2.016388 1_556
O7 Sb1 2.016388 1_555
O8 Sb0 1.990336 1_556
O9 Sb1 1.990330 1_555
O10 Sb0 1.990330 1_555
O11 Sb1 1.990330 1_555
