# generated using pymatgen
data_Sr2La2MnCuO8
_symmetry_space_group_name_H-M   'P 1'
_cell_length_a   3.87816322
_cell_length_b   15.42267463
_cell_length_c   6.99442919
_cell_angle_alpha   106.35797038
_cell_angle_beta   106.19294980
_cell_angle_gamma   89.95562559
_symmetry_Int_Tables_number   1
_chemical_formula_structural   Sr2La2MnCuO8
_chemical_formula_sum   'Sr4 La4 Mn2 Cu2 O16'
_cell_volume   384.11376545
_cell_formula_units_Z   2
loop_
 _symmetry_equiv_pos_site_id
 _symmetry_equiv_pos_as_xyz
  1  'x, y, z'
loop_
 _atom_site_type_symbol
 _atom_site_label
 _atom_site_symmetry_multiplicity
 _atom_site_fract_x
 _atom_site_fract_y
 _atom_site_fract_z
 _atom_site_occupancy
  Sr  Sr0  1  0.35882800  0.34048600  0.71576200  1
  Sr  Sr1  1  0.35315500  0.58976400  0.71165000  1
  Sr  Sr2  1  0.64684500  0.16023600  0.28835000  1
  Sr  Sr3  1  0.64117200  0.40951400  0.28423800  1
  La  La0  1  0.36474000  0.08871500  0.72698400  1
  La  La1  1  0.35136100  0.83703300  0.71782600  1
  La  La2  1  0.63526000  0.66128500  0.27301600  1
  La  La3  1  0.64863900  0.91296700  0.28217400  1
  Mn  Mn0  1  0.00319800  0.24978100  0.00434600  1
  Mn  Mn1  1  0.99680200  0.50021900  0.99565400  1
  Cu  Cu0  1  0.00143700  0.99951800  0.00140900  1
  Cu  Cu1  1  0.99856300  0.75048200  0.99859100  1
  O  O0  1  0.00035400  0.12307900  0.99700300  1
  O  O1  1  0.00000000  0.37500000  0.00000000  1
  O  O2  1  0.99964600  0.62692100  0.00299700  1
  O  O3  1  0.00000000  0.87500000  0.00000000  1
  O  O4  1  0.18340900  0.03453700  0.36550600  1
  O  O5  1  0.16014500  0.28813100  0.31591900  1
  O  O6  1  0.15562400  0.54738900  0.31615100  1
  O  O7  1  0.16773800  0.79627900  0.35905400  1
  O  O8  1  0.50077200  0.99650200  0.99413400  1
  O  O9  1  0.49975900  0.24680600  0.99522700  1
  O  O10  1  0.50024100  0.50319400  0.00477300  1
  O  O11  1  0.49922800  0.75349800  0.00586600  1
  O  O12  1  0.84437600  0.20261100  0.68384900  1
  O  O13  1  0.83985500  0.46186900  0.68408100  1
  O  O14  1  0.81659100  0.71546300  0.63449400  1
  O  O15  1  0.83226200  0.95372100  0.64094600  1
loop_
_geom_bond_atom_site_label_1
_geom_bond_atom_site_label_2
_geom_bond_distance
_geom_bond_site_symmetry_2
La0 O4 2.324745 1_555
La0 O9 2.572235 1_555
La0 O8 2.595822 1_545
La0 O0 2.601102 1_655
La0 O0 2.601615 1_555
La0 O12 2.683765 1_455
La0 O12 2.693174 1_555
La0 O15 2.751169 1_445
La0 O15 2.807340 1_545
La1 O7 2.305399 1_555
La1 O8 2.611491 1_555
La1 O11 2.619937 1_556
La1 O14 2.621550 1_455
La1 O3 2.634902 1_556
La1 O14 2.660097 1_555
La1 O3 2.673626 1_656
La1 O15 2.741595 1_455
La1 O15 2.848821 1_555
La2 O14 2.324745 1_555
La2 O10 2.572235 1_555
La2 O11 2.595822 1_555
La2 O2 2.601102 1_455
La2 O2 2.601615 1_555
La2 O6 2.683765 1_655
La2 O6 2.693174 1_555
La2 O7 2.751169 1_655
La2 O7 2.807340 1_555
La3 O15 2.305399 1_555
La3 O11 2.611491 1_555
La3 O8 2.619937 1_554
La3 O4 2.621550 1_665
La3 O3 2.634902 1_655
La3 O4 2.660097 1_565
La3 O3 2.673626 1_555
La3 O7 2.741595 1_655
La3 O7 2.848821 1_555
Mn0 O9 1.935755 1_454
Mn0 O1 1.939968 1_555
Mn0 O0 1.940203 1_554
Mn0 O9 1.944579 1_554
Mn0 O5 2.001059 1_555
Mn0 O12 2.060535 1_454
Mn1 O10 1.935755 1_656
Mn1 O1 1.939968 1_656
Mn1 O2 1.940203 1_556
Mn1 O10 1.944579 1_556
Mn1 O13 2.001059 1_555
Mn1 O6 2.060535 1_656
Cu0 O0 1.914531 1_564
Cu0 O3 1.917653 1_555
Cu0 O8 1.928341 1_454
Cu0 O8 1.951482 1_554
Cu0 O15 2.315383 1_454
Cu0 O4 2.344915 1_565
Cu1 O2 1.914531 1_556
Cu1 O3 1.917653 1_656
Cu1 O11 1.928341 1_656
Cu1 O11 1.951482 1_556
Cu1 O7 2.315383 1_656
Cu1 O14 2.344915 1_555
O0 Sr2 2.694403 1_456
O0 Sr2 2.694792 1_556
O1 Sr3 2.658493 1_555
O1 Sr0 2.658493 1_454
O1 Sr0 2.667990 1_554
O1 Sr3 2.667990 1_455
O2 Sr1 2.694403 1_654
O2 Sr1 2.694792 1_554
O4 Sr2 2.887257 1_455
O4 Sr2 2.900921 1_555
O5 Sr0 2.567911 1_555
O5 Sr2 2.732828 1_455
O5 Sr2 2.733775 1_555
O5 Sr3 2.739234 1_555
O5 Sr3 2.753827 1_455
O6 Sr1 2.542994 1_555
O6 Sr3 2.835979 1_455
O6 Sr3 2.842200 1_555
O8 Sr2 2.712450 1_566
O9 Sr2 2.683251 1_556
O9 Sr0 2.683408 1_555
O9 Sr3 2.685265 1_556
O10 Sr1 2.683251 1_554
O10 Sr3 2.683408 1_555
O10 Sr0 2.685265 1_554
O11 Sr1 2.712450 1_554
O12 Sr2 2.542994 1_555
O12 Sr0 2.835979 1_655
O12 Sr0 2.842200 1_555
O13 Sr3 2.567911 1_555
O13 Sr1 2.732828 1_655
O13 Sr1 2.733775 1_555
O13 Sr0 2.739234 1_555
O13 Sr0 2.753827 1_655
O14 Sr1 2.887257 1_655
O14 Sr1 2.900921 1_555
