# generated using pymatgen
data_Li2Fe2(CO3)3
_symmetry_space_group_name_H-M   'P 1'
_cell_length_a   7.50129700
_cell_length_b   7.51535163
_cell_length_c   7.56883670
_cell_angle_alpha   107.97858559
_cell_angle_beta   108.18734635
_cell_angle_gamma   107.77792001
_symmetry_Int_Tables_number   1
_chemical_formula_structural   Li2Fe2(CO3)3
_chemical_formula_sum   'Li4 Fe4 C6 O18'
_cell_volume   345.39661846
_cell_formula_units_Z   2
loop_
 _symmetry_equiv_pos_site_id
 _symmetry_equiv_pos_as_xyz
  1  'x, y, z'
loop_
 _atom_site_type_symbol
 _atom_site_label
 _atom_site_symmetry_multiplicity
 _atom_site_fract_x
 _atom_site_fract_y
 _atom_site_fract_z
 _atom_site_occupancy
  Li  Li0  1  0.65865500  0.12679300  0.38575000  1
  Li  Li1  1  0.38688300  0.65713700  0.12603200  1
  Li  Li2  1  0.15226200  0.15619800  0.15755300  1
  Li  Li3  1  0.12380900  0.38550800  0.65866400  1
  Fe  Fe0  1  0.96422200  0.85265800  0.46281500  1
  Fe  Fe1  1  0.57716300  0.57324800  0.58282100  1
  Fe  Fe2  1  0.85634200  0.46420500  0.97022100  1
  Fe  Fe3  1  0.46202000  0.96786000  0.85517500  1
  C  C0  1  0.75398100  0.84101400  0.07572700  1
  C  C1  1  0.61320400  0.41235200  0.20191700  1
  C  C2  1  0.83992400  0.07593900  0.75298000  1
  C  C3  1  0.20608100  0.61064300  0.41261000  1
  C  C4  1  0.40603200  0.20148100  0.60699100  1
  C  C5  1  0.07543900  0.75367700  0.84193200  1
  O  O0  1  0.94147400  0.96228000  0.22205400  1
  O  O1  1  0.59966900  0.88782100  0.08677000  1
  O  O2  1  0.62873800  0.30171600  0.04122700  1
  O  O3  1  0.64481700  0.60310700  0.24355600  1
  O  O4  1  0.88793600  0.08989900  0.60125500  1
  O  O5  1  0.56717000  0.33085200  0.31767800  1
  O  O6  1  0.92129700  0.70772000  0.67177100  1
  O  O7  1  0.67103300  0.92252700  0.71019300  1
  O  O8  1  0.31834000  0.55963000  0.32668200  1
  O  O9  1  0.96366500  0.22040600  0.94093800  1
  O  O10  1  0.60097700  0.25805600  0.64419000  1
  O  O11  1  0.31344300  0.30643500  0.54831100  1
  O  O12  1  0.71398200  0.67406100  0.92192000  1
  O  O13  1  0.30351900  0.04111000  0.62769100  1
  O  O14  1  0.04290200  0.62654500  0.30639000  1
  O  O15  1  0.25736800  0.64522300  0.60454200  1
  O  O16  1  0.21788100  0.94319900  0.96343900  1
  O  O17  1  0.09127400  0.60220000  0.89150800  1
loop_
_geom_bond_atom_site_label_1
_geom_bond_atom_site_label_2
_geom_bond_distance
_geom_bond_site_symmetry_2
Li0 O5 1.999494 1_555
Li0 O4 2.124773 1_555
Li0 O10 2.141114 1_555
Li0 O1 2.218763 1_545
Li1 O8 2.012994 1_555
Li1 O3 2.080404 1_555
Li1 O1 2.136819 1_555
Li1 O17 2.183990 1_554
Li2 O0 2.091961 1_445
Li2 O9 2.092765 1_454
Li2 O16 2.108098 1_544
Li2 O11 2.521232 1_555
Li2 O8 2.585589 1_555
Li2 O5 2.654625 1_555
Li3 O11 2.006435 1_555
Li3 O15 2.130001 1_555
Li3 O17 2.134713 1_555
Li3 O4 2.186029 1_455
Fe0 O14 2.108182 1_655
Fe0 O4 2.109116 1_565
Fe0 O13 2.183125 1_665
Fe0 O0 2.201604 1_555
Fe0 O3 2.205568 1_555
Fe0 O6 2.226809 1_555
Fe1 O12 2.212486 1_555
Fe1 O5 2.217523 1_555
Fe1 O11 2.221318 1_555
Fe1 O8 2.223717 1_555
Fe1 O6 2.245092 1_555
Fe1 O7 2.280557 1_555
Fe2 O2 2.097570 1_556
Fe2 O17 2.111142 1_655
Fe2 O14 2.176967 1_656
Fe2 O9 2.194490 1_555
Fe2 O12 2.214069 1_555
Fe2 O10 2.244078 1_555
Fe3 O13 2.094786 1_565
Fe3 O1 2.097851 1_556
Fe3 O2 2.155388 1_566
Fe3 O16 2.209746 1_555
Fe3 O15 2.214523 1_555
Fe3 O7 2.224380 1_555
C0 O0 1.287271 1_555
C0 O12 1.292250 1_554
C0 O1 1.327225 1_555
C1 O5 1.285725 1_555
C1 O3 1.295213 1_555
C1 O2 1.306717 1_555
C2 O7 1.288650 1_545
C2 O9 1.292671 1_555
C2 O4 1.330032 1_555
C3 O8 1.290033 1_555
C3 O15 1.297265 1_555
C3 O14 1.301257 1_555
C4 O11 1.288421 1_555
C4 O10 1.299187 1_555
C4 O13 1.301656 1_555
C5 O16 1.290257 1_555
C5 O6 1.291081 1_455
C5 O17 1.330158 1_555
