# generated using pymatgen
data_CaMg2
_symmetry_space_group_name_H-M   'P 1'
_cell_length_a   6.21183377
_cell_length_b   6.21185104
_cell_length_c   6.21184255
_cell_angle_alpha   59.95027357
_cell_angle_beta   59.95025838
_cell_angle_gamma   59.95015367
_symmetry_Int_Tables_number   1
_chemical_formula_structural   CaMg2
_chemical_formula_sum   'Ca2 Mg4'
_cell_volume   169.29954581
_cell_formula_units_Z   2
loop_
 _symmetry_equiv_pos_site_id
 _symmetry_equiv_pos_as_xyz
  1  'x, y, z'
loop_
 _atom_site_type_symbol
 _atom_site_label
 _atom_site_symmetry_multiplicity
 _atom_site_fract_x
 _atom_site_fract_y
 _atom_site_fract_z
 _atom_site_occupancy
  Ca  Ca0  1  0.87533710  0.87533698  0.87532979  1
  Ca  Ca1  1  0.12466685  0.12466594  0.12466495  1
  Mg  Mg0  1  0.50000509  0.00000149  0.50000279  1
  Mg  Mg1  1  0.99999857  0.50000020  0.49999509  1
  Mg  Mg2  1  0.50000013  0.49999931  0.50000217  1
  Mg  Mg3  1  0.49999426  0.49999707  0.00000421  1
loop_
_geom_bond_atom_site_label_1
_geom_bond_atom_site_label_2
_geom_bond_distance
_geom_bond_site_symmetry_2
Ca0 Mg3 3.637710 1_656
Ca0 Mg1 3.637722 1_565
Ca0 Mg1 3.637727 1_556
Ca0 Mg3 3.637734 1_566
Ca0 Mg0 3.637747 1_665
Ca0 Mg0 3.637775 1_566
Ca0 Mg2 3.640270 1_565
Ca0 Mg2 3.640271 1_655
Ca0 Mg2 3.640328 1_556
Ca0 Mg0 3.646768 1_565
Ca0 Mg1 3.646848 1_555
Ca0 Mg3 3.646874 1_556
Ca0 Ca1 3.795213 1_666
Ca0 Ca1 3.804968 1_665
Ca0 Ca1 3.804985 1_566
Ca0 Ca1 3.805001 1_656
Ca1 Mg0 3.637714 1_455
Ca1 Mg0 3.637718 1_554
Ca1 Mg3 3.637745 1_545
Ca1 Mg1 3.637753 1_445
Ca1 Mg3 3.637755 1_455
Ca1 Mg1 3.637769 1_454
Ca1 Mg2 3.640282 1_554
Ca1 Mg2 3.640294 1_455
Ca1 Mg2 3.640297 1_545
Ca1 Mg3 3.646782 1_555
Ca1 Mg1 3.646793 1_455
Ca1 Mg0 3.646859 1_555
Mg0 Mg1 3.103565 1_545
Mg0 Mg3 3.103571 1_555
Mg0 Mg1 3.103597 1_455
Mg0 Mg3 3.103607 1_546
Mg0 Mg2 3.105895 1_555
Mg0 Mg2 3.105956 1_545
Mg1 Mg3 3.103542 1_655
Mg1 Mg3 3.103625 1_556
Mg1 Mg2 3.105888 1_555
Mg1 Mg2 3.105946 1_655
Mg2 Mg3 3.105909 1_556
Mg2 Mg3 3.105934 1_555
