# generated using pymatgen
data_MgCrFeS4
_symmetry_space_group_name_H-M   'P 1'
_cell_length_a   7.13569203
_cell_length_b   7.12495486
_cell_length_c   7.12515933
_cell_angle_alpha   60.19447850
_cell_angle_beta   59.87981955
_cell_angle_gamma   59.87926378
_symmetry_Int_Tables_number   1
_chemical_formula_structural   MgCrFeS4
_chemical_formula_sum   'Mg2 Cr2 Fe2 S8'
_cell_volume   256.05694916
_cell_formula_units_Z   2
loop_
 _symmetry_equiv_pos_site_id
 _symmetry_equiv_pos_as_xyz
  1  'x, y, z'
loop_
 _atom_site_type_symbol
 _atom_site_label
 _atom_site_symmetry_multiplicity
 _atom_site_fract_x
 _atom_site_fract_y
 _atom_site_fract_z
 _atom_site_occupancy
  Mg  Mg0  1  0.87317500  0.87675800  0.87680000  1
  Mg  Mg1  1  0.12681800  0.12322200  0.12324500  1
  Cr  Cr0  1  0.50001600  0.49993700  0.00001700  1
  Cr  Cr1  1  0.49998100  0.00004600  0.49996500  1
  Fe  Fe0  1  0.49999600  0.50001200  0.49999100  1
  Fe  Fe1  1  0.00001800  0.50000900  0.49999500  1
  S  S0  1  0.74472100  0.73174700  0.73172900  1
  S  S1  1  0.25988600  0.27901600  0.70116500  1
  S  S2  1  0.25989200  0.70113600  0.27900700  1
  S  S3  1  0.70903200  0.26804500  0.26800000  1
  S  S4  1  0.74012700  0.29881500  0.72096200  1
  S  S5  1  0.29094500  0.73200100  0.73196500  1
  S  S6  1  0.25528900  0.26827100  0.26827800  1
  S  S7  1  0.74010900  0.72097900  0.29888300  1
loop_
_geom_bond_atom_site_label_1
_geom_bond_atom_site_label_2
_geom_bond_distance
_geom_bond_site_symmetry_2
Mg0 S5 2.429039 1_655
Mg0 S0 2.437043 1_555
Mg0 S4 2.459755 1_565
Mg0 S7 2.459970 1_556
Mg1 S3 2.429129 1_455
Mg1 S6 2.437140 1_555
Mg1 S2 2.459901 1_545
Mg1 S1 2.459956 1_554
Cr0 S6 2.415385 1_555
Cr0 S0 2.415967 1_554
Cr0 S3 2.418462 1_555
Cr0 S5 2.419075 1_554
Cr0 S4 2.427271 1_554
Cr0 S2 2.427273 1_555
Cr1 S6 2.415297 1_555
Cr1 S0 2.415931 1_545
Cr1 S3 2.418682 1_555
Cr1 S5 2.418854 1_545
Cr1 S7 2.427133 1_545
Cr1 S1 2.427150 1_555
Fe0 S3 2.335786 1_555
Fe0 S5 2.335804 1_555
Fe0 S7 2.338416 1_555
Fe0 S2 2.338464 1_555
Fe0 S4 2.338497 1_555
Fe0 S1 2.338510 1_555
Fe1 S6 2.333067 1_555
Fe1 S0 2.333161 1_455
Fe1 S2 2.337742 1_555
Fe1 S7 2.337873 1_455
Fe1 S1 2.337925 1_555
Fe1 S4 2.338162 1_455
