# generated using pymatgen
data_SrGdNiO4
_symmetry_space_group_name_H-M   'P 1'
_cell_length_a   6.69091826
_cell_length_b   6.69091826
_cell_length_c   6.69091826
_cell_angle_alpha   146.92138949
_cell_angle_beta   146.92138949
_cell_angle_gamma   47.48019201
_symmetry_Int_Tables_number   1
_chemical_formula_structural   SrGdNiO4
_chemical_formula_sum   'Sr1 Gd1 Ni1 O4'
_cell_volume   88.88157805
_cell_formula_units_Z   1
loop_
 _symmetry_equiv_pos_site_id
 _symmetry_equiv_pos_as_xyz
  1  'x, y, z'
loop_
 _atom_site_type_symbol
 _atom_site_label
 _atom_site_symmetry_multiplicity
 _atom_site_fract_x
 _atom_site_fract_y
 _atom_site_fract_z
 _atom_site_occupancy
  Sr  Sr0  1  0.64242500  0.64242500  0.00000000  1
  Gd  Gd0  1  0.36253500  0.36253500  0.00000000  1
  Ni  Ni0  1  0.00242500  0.00242500  0.00000000  1
  O  O0  1  0.83724000  0.83724000  0.00000000  1
  O  O1  1  0.17624800  0.17624800  0.00000000  1
  O  O2  1  0.48956300  0.98956300  0.50000000  1
  O  O3  1  0.98956300  0.48956300  0.50000000  1
loop_
_geom_bond_atom_site_label_1
_geom_bond_atom_site_label_2
_geom_bond_distance
_geom_bond_site_symmetry_2
Gd0 O1 2.281919 1_555
Gd0 O3 2.459511 1_555
Gd0 O2 2.459511 1_555
Gd0 O3 2.459511 1_454
Gd0 O2 2.459511 1_544
Gd0 O0 2.711449 1_556
Gd0 O0 2.711449 1_444
Gd0 O0 2.711449 1_545
Gd0 O0 2.711449 1_455
Ni0 O2 1.911229 1_545
Ni0 O3 1.911229 1_444
Ni0 O3 1.911229 1_455
Ni0 O2 1.911229 1_444
Ni0 O0 2.023430 1_445
Ni0 O1 2.129241 1_555
O0 Sr0 2.386382 1_555
O1 Sr0 2.725363 1_545
O1 Sr0 2.725363 1_455
O1 Sr0 2.725363 1_556
O1 Sr0 2.725363 1_444
O2 Sr0 2.670984 1_555
O2 Sr0 2.670984 1_566
O3 Sr0 2.670984 1_555
O3 Sr0 2.670984 1_656
