# generated using pymatgen
data_UReSi2Ru
_symmetry_space_group_name_H-M   'P 1'
_cell_length_a   5.62935764
_cell_length_b   5.62935764
_cell_length_c   5.62935764
_cell_angle_alpha   136.44619798
_cell_angle_beta   136.44619798
_cell_angle_gamma   63.29125538
_symmetry_Int_Tables_number   1
_chemical_formula_structural   UReSi2Ru
_chemical_formula_sum   'U1 Re1 Si2 Ru1'
_cell_volume   83.60966783
_cell_formula_units_Z   1
loop_
 _symmetry_equiv_pos_site_id
 _symmetry_equiv_pos_as_xyz
  1  'x, y, z'
loop_
 _atom_site_type_symbol
 _atom_site_label
 _atom_site_symmetry_multiplicity
 _atom_site_fract_x
 _atom_site_fract_y
 _atom_site_fract_z
 _atom_site_occupancy
  U  U0  1  0.00000000  0.00000000  0.00000000  1
  Re  Re0  1  0.25000000  0.75000000  0.50000000  1
  Si  Si0  1  0.62414500  0.62414500  0.00000000  1
  Si  Si1  1  0.37585500  0.37585500  0.00000000  1
  Ru  Ru0  1  0.75000000  0.25000000  0.50000000  1
loop_
_geom_bond_atom_site_label_1
_geom_bond_atom_site_label_2
_geom_bond_distance
_geom_bond_site_symmetry_2
Re0 Si1 2.411793 1_555
Re0 Si1 2.411793 1_566
Re0 Si0 2.411793 1_455
Re0 Si0 2.411793 1_556
Re0 Ru0 2.953521 1_454
Re0 Ru0 2.953521 1_555
Re0 Ru0 2.953521 1_465
Re0 Ru0 2.953521 1_566
Re0 U0 3.178559 1_566
Re0 U0 3.178559 1_565
Re0 U0 3.178559 1_555
Re0 U0 3.178559 1_666
Si0 Si1 2.379773 1_555
Si0 U0 3.184198 1_655
Si0 U0 3.184198 1_565
Si0 U0 3.184198 1_554
Si0 U0 3.184198 1_666
Si1 U0 3.184198 1_655
Si1 U0 3.184198 1_565
Si1 U0 3.184198 1_666
Si1 U0 3.184198 1_554
Ru0 Si1 2.411793 1_555
Ru0 Si0 2.411793 1_545
Ru0 Si0 2.411793 1_556
Ru0 Si1 2.411793 1_656
Ru0 U0 3.178559 1_655
Ru0 U0 3.178559 1_656
Ru0 U0 3.178559 1_666
Ru0 U0 3.178559 1_555
