# generated using pymatgen
data_Mg6AlW
_symmetry_space_group_name_H-M   'P 1'
_cell_length_a   4.96179100
_cell_length_b   5.84888600
_cell_length_c   10.82733900
_cell_angle_alpha   90.00000000
_cell_angle_beta   90.00000000
_cell_angle_gamma   90.00000000
_symmetry_Int_Tables_number   1
_chemical_formula_structural   Mg6AlW
_chemical_formula_sum   'Mg12 Al2 W2'
_cell_volume   314.21966283
_cell_formula_units_Z   2
loop_
 _symmetry_equiv_pos_site_id
 _symmetry_equiv_pos_as_xyz
  1  'x, y, z'
loop_
 _atom_site_type_symbol
 _atom_site_label
 _atom_site_symmetry_multiplicity
 _atom_site_fract_x
 _atom_site_fract_y
 _atom_site_fract_z
 _atom_site_occupancy
  Mg  Mg0  1  0.50000000  0.25101900  0.42072400  1
  Mg  Mg1  1  0.50000000  0.74898100  0.42072400  1
  Mg  Mg2  1  0.00000000  0.73887200  0.08453700  1
  Mg  Mg3  1  0.00000000  0.26112800  0.08453700  1
  Mg  Mg4  1  0.00000000  0.00000000  0.32728400  1
  Mg  Mg5  1  0.00000000  0.50000000  0.32137400  1
  Mg  Mg6  1  0.50000000  0.75101900  0.92072400  1
  Mg  Mg7  1  0.50000000  0.24898100  0.92072400  1
  Mg  Mg8  1  0.00000000  0.23887200  0.58453700  1
  Mg  Mg9  1  0.00000000  0.76112800  0.58453700  1
  Mg  Mg10  1  0.00000000  0.50000000  0.82728400  1
  Mg  Mg11  1  0.00000000  0.00000000  0.82137400  1
  Al  Al0  1  0.50000000  0.00000000  0.16860400  1
  Al  Al1  1  0.50000000  0.50000000  0.66860400  1
  W  W0  1  0.50000000  0.50000000  0.17221200  1
  W  W1  1  0.50000000  0.00000000  0.67221200  1
loop_
_geom_bond_atom_site_label_1
_geom_bond_atom_site_label_2
_geom_bond_distance
_geom_bond_site_symmetry_2
Mg0 Mg1 2.912523 1_555
Mg0 Mg1 2.936363 1_545
Mg0 Mg8 3.050534 1_555
Mg0 Mg8 3.050534 1_655
Mg0 Mg4 3.055151 1_655
Mg0 Mg4 3.055151 1_555
Mg0 W0 3.059525 1_555
Mg0 Mg5 3.071264 1_655
Mg0 Mg5 3.071264 1_555
Mg0 W1 3.093540 1_555
Mg1 Mg9 3.050534 1_555
Mg1 Mg9 3.050534 1_655
Mg1 Mg4 3.055151 1_665
Mg1 Mg4 3.055151 1_565
Mg1 W0 3.059525 1_555
Mg1 Mg5 3.071264 1_655
Mg1 Mg5 3.071264 1_555
Mg1 W1 3.093540 1_565
Mg2 Mg3 2.794270 1_555
Mg2 Mg5 2.920222 1_555
Mg2 W0 3.001329 1_455
Mg2 W0 3.001329 1_555
Mg2 Mg4 3.039844 1_565
Mg2 Mg6 3.050534 1_554
Mg2 Mg6 3.050534 1_454
Mg2 Mg3 3.054616 1_565
Mg3 Mg5 2.920222 1_555
Mg3 W0 3.001329 1_455
Mg3 W0 3.001329 1_555
Mg3 Mg4 3.039844 1_555
Mg3 Mg7 3.050534 1_554
Mg3 Mg7 3.050534 1_454
Mg4 Mg5 2.925143 1_545
Mg4 Mg5 2.925143 1_555
Mg4 Mg9 3.116127 1_545
Mg4 Mg8 3.116127 1_555
Mg5 W0 2.960263 1_455
Mg5 W0 2.960263 1_555
Mg5 Mg8 3.232877 1_555
Mg5 Mg9 3.232877 1_555
Mg6 Mg7 2.912523 1_565
Mg6 Mg7 2.936363 1_555
Mg6 W1 3.059525 1_565
Mg6 W0 3.093540 1_556
Mg7 W1 3.059525 1_555
Mg7 W0 3.093540 1_556
Mg8 Mg9 2.794270 1_545
Mg8 W1 3.001329 1_455
Mg8 W1 3.001329 1_555
Mg8 Mg9 3.054616 1_555
Mg9 W1 3.001329 1_565
Mg9 W1 3.001329 1_465
Mg10 Mg11 2.925143 1_555
Mg10 Mg11 2.925143 1_565
Mg10 Mg9 3.039844 1_555
Mg10 Mg8 3.039844 1_555
Mg10 Mg6 3.055151 1_555
Mg10 Mg7 3.055151 1_455
Mg10 Mg6 3.055151 1_455
Mg10 Mg7 3.055151 1_555
Mg10 Mg3 3.116127 1_556
Mg10 Mg2 3.116127 1_556
Mg11 Mg8 2.920222 1_555
Mg11 Mg9 2.920222 1_545
Mg11 W1 2.960263 1_555
Mg11 W1 2.960263 1_455
Mg11 Mg7 3.071264 1_455
Mg11 Mg6 3.071264 1_545
Mg11 Mg7 3.071264 1_555
Mg11 Mg6 3.071264 1_445
Mg11 Mg3 3.232877 1_556
Mg11 Mg2 3.232877 1_546
Al0 W0 2.924704 1_545
Al0 W0 2.924704 1_555
Al0 Mg4 3.017722 1_555
Al0 Mg4 3.017722 1_655
Al0 Mg3 3.052215 1_655
Al0 Mg2 3.052215 1_645
Al0 Mg2 3.052215 1_545
Al0 Mg3 3.052215 1_555
Al0 Mg7 3.053508 1_554
Al0 Mg6 3.053508 1_544
Al0 Mg0 3.099565 1_555
Al0 Mg1 3.099565 1_545
Al1 W1 2.924704 1_565
Al1 W1 2.924704 1_555
Al1 Mg10 3.017722 1_555
Al1 Mg10 3.017722 1_655
Al1 Mg9 3.052215 1_655
Al1 Mg8 3.052215 1_555
Al1 Mg9 3.052215 1_555
Al1 Mg8 3.052215 1_655
Al1 Mg1 3.053508 1_555
Al1 Mg0 3.053508 1_555
Al1 Mg6 3.099565 1_555
Al1 Mg7 3.099565 1_555
