# generated using pymatgen
data_Na2PdSe2
_symmetry_space_group_name_H-M   'P 1'
_cell_length_a   3.70920840
_cell_length_b   5.65540057
_cell_length_c   11.29773493
_cell_angle_alpha   90.00000000
_cell_angle_beta   90.00000000
_cell_angle_gamma   109.14348532
_symmetry_Int_Tables_number   1
_chemical_formula_structural   Na2PdSe2
_chemical_formula_sum   'Na4 Pd2 Se4'
_cell_volume   223.88759817
_cell_formula_units_Z   2
loop_
 _symmetry_equiv_pos_site_id
 _symmetry_equiv_pos_as_xyz
  1  'x, y, z'
loop_
 _atom_site_type_symbol
 _atom_site_label
 _atom_site_symmetry_multiplicity
 _atom_site_fract_x
 _atom_site_fract_y
 _atom_site_fract_z
 _atom_site_occupancy
  Na  Na0  1  0.56348022  0.12696143  0.62756651  1
  Na  Na1  1  0.43651978  0.87303857  0.12756651  1
  Na  Na2  1  0.17492039  0.34983878  0.90639893  1
  Na  Na3  1  0.82507961  0.65016122  0.40639893  1
  Pd  Pd0  1  0.86447015  0.72894030  0.74839471  1
  Pd  Pd1  1  0.13552985  0.27105970  0.24839471  1
  Se  Se0  1  0.27773569  0.55547138  0.62687985  1
  Se  Se1  1  0.72226431  0.44452862  0.12687985  1
  Se  Se2  1  0.45278321  0.90556743  0.86875900  1
  Se  Se3  1  0.54721679  0.09443257  0.36875900  1
loop_
_geom_bond_atom_site_label_1
_geom_bond_atom_site_label_2
_geom_bond_distance
_geom_bond_site_symmetry_2
Na0 Se3 2.929099 1_555
Na0 Se0 2.946333 1_555
Na0 Se0 2.946336 1_655
Na0 Se2 2.970577 1_545
Na0 Se0 3.053286 1_545
Na0 Pd0 3.134481 1_445
Na0 Pd0 3.134483 1_545
Na1 Se2 2.929099 1_554
Na1 Se1 2.946333 1_555
Na1 Se1 2.946336 1_455
Na1 Se3 2.970577 1_565
Na1 Se1 3.053286 1_565
Na1 Pd1 3.134481 1_665
Na1 Pd1 3.134483 1_565
Na2 Se2 2.999367 1_555
Na2 Se2 3.042088 1_545
Na2 Se2 3.042095 1_445
Na2 Se1 3.146463 1_556
Na2 Se1 3.146467 1_456
Na2 Pd0 3.275420 1_555
Na2 Pd0 3.275424 1_455
Na2 Se0 3.343578 1_555
Na3 Se3 2.999367 1_555
Na3 Se3 3.042088 1_565
Na3 Se3 3.042095 1_665
Na3 Se0 3.146463 1_555
Na3 Se0 3.146467 1_655
Na3 Pd1 3.275420 1_555
Na3 Pd1 3.275424 1_655
Na3 Se1 3.343578 1_555
Pd0 Se2 2.485803 1_655
Pd0 Se2 2.485806 1_555
Pd0 Se0 2.486601 1_655
Pd0 Se0 2.486601 1_555
Pd1 Se3 2.485803 1_455
Pd1 Se3 2.485806 1_555
Pd1 Se1 2.486601 1_455
Pd1 Se1 2.486601 1_555
