# generated using pymatgen
data_CaLaFeBiO6
_symmetry_space_group_name_H-M   'P 1'
_cell_length_a   5.79865056
_cell_length_b   5.79865056
_cell_length_c   8.50777476
_cell_angle_alpha   90.00000000
_cell_angle_beta   90.00000000
_cell_angle_gamma   90.00000000
_symmetry_Int_Tables_number   1
_chemical_formula_structural   CaLaFeBiO6
_chemical_formula_sum   'Ca2 La2 Fe2 Bi2 O12'
_cell_volume   286.06838193
_cell_formula_units_Z   2
loop_
 _symmetry_equiv_pos_site_id
 _symmetry_equiv_pos_as_xyz
  1  'x, y, z'
loop_
 _atom_site_type_symbol
 _atom_site_label
 _atom_site_symmetry_multiplicity
 _atom_site_fract_x
 _atom_site_fract_y
 _atom_site_fract_z
 _atom_site_occupancy
  Ca  Ca0  1  0.00000000  0.50000000  0.25000000  1
  Ca  Ca1  1  0.50000000  0.00000000  0.75000000  1
  La  La0  1  0.00000000  0.00000000  0.50000000  1
  La  La1  1  0.50000000  0.50000000  -0.00000000  1
  Fe  Fe0  1  0.00000000  0.00000000  0.00000000  1
  Fe  Fe1  1  0.50000000  0.50000000  0.50000000  1
  Bi  Bi0  1  0.50000000  0.00000000  0.25000000  1
  Bi  Bi1  1  0.00000000  0.50000000  0.75000000  1
  O  O0  1  -0.00000000  -0.00000000  0.23270492  1
  O  O1  1  0.50000000  0.50000000  0.26729508  1
  O  O2  1  0.00000000  0.00000000  0.76729508  1
  O  O3  1  0.50000000  0.50000000  0.73270492  1
  O  O4  1  0.31284483  0.13512361  0.00466022  1
  O  O5  1  0.68715517  0.86487639  0.00466022  1
  O  O6  1  0.86487639  0.31284483  0.99533978  1
  O  O7  1  0.13512361  0.68715517  0.99533978  1
  O  O8  1  0.81284483  0.36487639  0.50466022  1
  O  O9  1  0.18715517  0.63512361  0.50466022  1
  O  O10  1  0.36487639  0.18715517  0.49533978  1
  O  O11  1  0.63512361  0.81284483  0.49533978  1
loop_
_geom_bond_atom_site_label_1
_geom_bond_atom_site_label_2
_geom_bond_distance
_geom_bond_site_symmetry_2
Ca0 O9 2.546725 1_555
Ca0 O6 2.546725 1_454
Ca0 O7 2.546725 1_554
Ca0 O8 2.546725 1_455
Ca0 O0 2.903057 1_555
Ca0 O1 2.903057 1_555
Ca0 O1 2.903057 1_455
Ca0 O0 2.903057 1_565
Ca1 O10 2.546725 1_555
Ca1 O11 2.546725 1_545
Ca1 O5 2.546725 1_546
Ca1 O4 2.546725 1_556
Ca1 O2 2.903057 1_555
Ca1 O3 2.903057 1_555
Ca1 O2 2.903057 1_655
Ca1 O3 2.903057 1_545
La0 O2 2.274086 1_555
La0 O0 2.274086 1_555
La0 O9 2.378214 1_545
La0 O8 2.378214 1_455
La0 O10 2.378214 1_555
La0 O11 2.378214 1_445
La1 O1 2.274086 1_555
La1 O3 2.274086 1_554
La1 O7 2.378214 1_554
La1 O4 2.378214 1_555
La1 O6 2.378214 1_554
La1 O5 2.378214 1_555
Fe0 O5 1.976456 1_445
Fe0 O7 1.976456 1_544
Fe0 O4 1.976456 1_555
Fe0 O6 1.976456 1_454
Fe0 O2 1.979801 1_554
Fe0 O0 1.979801 1_555
Fe1 O11 1.976456 1_555
Fe1 O9 1.976456 1_555
Fe1 O10 1.976456 1_555
Fe1 O8 1.976456 1_555
Fe1 O1 1.979801 1_555
Fe1 O3 1.979801 1_555
Bi0 O11 2.479615 1_545
Bi0 O5 2.479615 1_545
Bi0 O10 2.479615 1_555
Bi0 O4 2.479615 1_555
Bi1 O6 2.479615 1_455
Bi1 O8 2.479615 1_455
Bi1 O7 2.479615 1_555
Bi1 O9 2.479615 1_555
