# generated using pymatgen
data_Li9Mn2Co5O16
_symmetry_space_group_name_H-M   'P 1'
_cell_length_a   5.93415500
_cell_length_b   7.70033490
_cell_length_c   7.76091088
_cell_angle_alpha   65.14853403
_cell_angle_beta   67.66383619
_cell_angle_gamma   68.39615340
_symmetry_Int_Tables_number   1
_chemical_formula_structural   Li9Mn2Co5O16
_chemical_formula_sum   'Li9 Mn2 Co5 O16'
_cell_volume   288.32382763
_cell_formula_units_Z   1
loop_
 _symmetry_equiv_pos_site_id
 _symmetry_equiv_pos_as_xyz
  1  'x, y, z'
loop_
 _atom_site_type_symbol
 _atom_site_label
 _atom_site_symmetry_multiplicity
 _atom_site_fract_x
 _atom_site_fract_y
 _atom_site_fract_z
 _atom_site_occupancy
  Li  Li0  1  0.37740100  0.62163000  0.13154600  1
  Li  Li1  1  0.24833800  0.25185600  0.25185800  1
  Li  Li2  1  0.61884500  0.37993400  0.86507200  1
  Li  Li3  1  0.50249400  0.99817600  0.99754600  1
  Li  Li4  1  0.87068200  0.13043900  0.62240100  1
  Li  Li5  1  0.75186900  0.74959700  0.74901300  1
  Li  Li6  1  0.13278000  0.86628000  0.38215600  1
  Li  Li7  1  0.99435800  0.50214500  0.50288600  1
  Li  Li8  1  0.49965800  0.49908100  0.49981300  1
  Mn  Mn0  1  0.00101700  0.00063600  0.99845200  1
  Mn  Mn1  1  0.74726800  0.25188200  0.25029000  1
  Co  Co0  1  0.87827900  0.61800700  0.13301000  1
  Co  Co1  1  0.61637500  0.86674800  0.37691300  1
  Co  Co2  1  0.37702000  0.13260000  0.62280100  1
  Co  Co3  1  0.26324800  0.74229100  0.74606400  1
  Co  Co4  1  0.13160200  0.38626000  0.86036500  1
  O  O0  1  0.99333700  0.76406800  0.23451000  1
  O  O1  1  0.86975100  0.37549300  0.35679700  1
  O  O2  1  0.23939300  0.50151800  0.99474600  1
  O  O3  1  0.09728700  0.13387600  0.11462600  1
  O  O4  1  0.48188600  0.24191200  0.74988900  1
  O  O5  1  0.34490500  0.88517900  0.88014300  1
  O  O6  1  0.74217200  0.01434900  0.47897100  1
  O  O7  1  0.60672400  0.64067600  0.63149600  1
  O  O8  1  0.75855100  0.48692900  0.01930100  1
  O  O9  1  0.65647900  0.12240300  0.12479800  1
  O  O10  1  0.00563800  0.23330700  0.76423300  1
  O  O11  1  0.89413800  0.86899700  0.88818300  1
  O  O12  1  0.26263100  0.99636700  0.50907800  1
  O  O13  1  0.11644000  0.61751600  0.64283300  1
  O  O14  1  0.51547300  0.76063200  0.25203600  1
  O  O15  1  0.40396300  0.35921800  0.36816700  1
loop_
_geom_bond_atom_site_label_1
_geom_bond_atom_site_label_2
_geom_bond_distance
_geom_bond_site_symmetry_2
Li0 O15 2.084883 1_555
Li0 O8 2.117736 1_555
Li0 O0 2.132490 1_455
Li0 O5 2.152247 1_554
Li0 O2 2.167339 1_554
Li0 O14 2.181943 1_555
Li1 O15 2.043087 1_555
Li1 O1 2.074339 1_455
Li1 O2 2.112202 1_554
Li1 O12 2.137164 1_545
Li1 O3 2.213975 1_555
Li1 O9 2.250580 1_555
Li2 O7 2.063017 1_555
Li2 O2 2.115842 1_555
Li2 O4 2.139177 1_555
Li2 O10 2.150502 1_655
Li2 O9 2.168344 1_556
Li2 O8 2.210191 1_556
Li3 O4 2.051653 1_565
Li3 O14 2.056199 1_556
Li3 O5 2.091658 1_555
Li3 O11 2.149224 1_555
Li3 O9 2.202052 1_566
Li3 O3 2.233068 1_566
Li4 O10 2.085785 1_655
Li4 O1 2.131056 1_555
Li4 O4 2.135245 1_555
Li4 O6 2.145549 1_555
Li4 O12 2.165470 1_645
Li4 O11 2.201940 1_545
Li5 O7 2.012251 1_555
Li5 O13 2.030522 1_655
Li5 O11 2.196369 1_555
Li5 O8 2.220538 1_556
Li5 O6 2.228405 1_565
Li5 O5 2.264118 1_555
Li6 O14 2.103772 1_555
Li6 O13 2.121789 1_555
Li6 O12 2.131232 1_555
Li6 O0 2.139050 1_455
Li6 O6 2.165074 1_465
Li6 O3 2.240086 1_565
Li7 O13 2.092069 1_655
Li7 O7 2.183665 1_555
Li7 O0 2.208109 1_555
Li7 O10 2.208124 1_655
Li7 O1 2.209307 1_555
Li7 O15 2.297437 1_655
Li8 O15 2.083861 1_555
Li8 O1 2.111132 1_555
Li8 O4 2.113565 1_555
Li8 O14 2.123592 1_555
Li8 O7 2.139432 1_555
Li8 O13 2.154130 1_555
Mn0 O5 1.929728 1_545
Mn0 O10 1.943150 1_555
Mn0 O11 1.943517 1_445
Mn0 O3 1.947455 1_556
Mn0 O9 1.964219 1_456
Mn0 O0 1.967068 1_446
Mn1 O15 1.910342 1_555
Mn1 O1 1.935193 1_555
Mn1 O8 1.940322 1_555
Mn1 O6 1.941048 1_555
Mn1 O9 1.960469 1_555
Mn1 O3 2.000146 1_655
Co0 O1 1.944985 1_555
Co0 O8 2.013870 1_555
Co0 O0 2.017590 1_555
Co0 O2 2.047908 1_654
Co0 O11 2.065393 1_554
Co0 O14 2.072346 1_555
Co1 O14 1.852700 1_555
Co1 O7 2.008459 1_555
Co1 O12 2.033701 1_555
Co1 O6 2.075406 1_565
Co1 O0 2.098452 1_555
Co1 O9 2.124615 1_565
Co2 O4 1.902279 1_555
Co2 O15 2.010655 1_555
Co2 O12 2.024400 1_545
Co2 O10 2.069157 1_555
Co2 O6 2.081689 1_555
Co2 O5 2.105888 1_545
Co3 O7 1.894769 1_555
Co3 O13 2.029255 1_555
Co3 O2 2.039683 1_555
Co3 O12 2.045927 1_555
Co3 O5 2.065536 1_555
Co3 O11 2.112042 1_455
Co4 O13 1.870795 1_555
Co4 O2 1.996907 1_555
Co4 O4 2.009083 1_555
Co4 O10 2.076853 1_555
Co4 O3 2.115393 1_556
Co4 O8 2.118398 1_456
