# generated using pymatgen
data_Nd5Si9Au
_symmetry_space_group_name_H-M   'P 1'
_cell_length_a   4.28414945
_cell_length_b   4.27735797
_cell_length_c   34.51738054
_cell_angle_alpha   86.43132061
_cell_angle_beta   86.48622784
_cell_angle_gamma   89.98785210
_symmetry_Int_Tables_number   1
_chemical_formula_structural   Nd5Si9Au
_chemical_formula_sum   'Nd10 Si18 Au2'
_cell_volume   630.10807186
_cell_formula_units_Z   2
loop_
 _symmetry_equiv_pos_site_id
 _symmetry_equiv_pos_as_xyz
  1  'x, y, z'
loop_
 _atom_site_type_symbol
 _atom_site_label
 _atom_site_symmetry_multiplicity
 _atom_site_fract_x
 _atom_site_fract_y
 _atom_site_fract_z
 _atom_site_occupancy
  Nd  Nd0  1  0.94915618  0.44837025  0.10201545  1
  Nd  Nd1  1  0.35064291  0.85101647  0.29819280  1
  Nd  Nd2  1  0.75220657  0.25273628  0.49454546  1
  Nd  Nd3  1  0.15007972  0.64998441  0.69999050  1
  Nd  Nd4  1  0.54792395  0.04726341  0.90581426  1
  Nd  Nd5  1  0.99879386  0.99827893  0.00327005  1
  Nd  Nd6  1  0.39964953  0.39971647  0.20042984  1
  Nd  Nd7  1  0.80119716  0.80211429  0.39648439  1
  Nd  Nd8  1  0.20241383  0.20274380  0.59414383  1
  Nd  Nd9  1  0.60059538  0.60041955  0.79893887  1
  Si  Si0  1  0.46643067  0.96511338  0.06864570  1
  Si  Si1  1  0.86855737  0.36767277  0.26484917  1
  Si  Si2  1  0.26881041  0.76924768  0.46169535  1
  Si  Si3  1  0.66677619  0.16773893  0.66474611  1
  Si  Si4  1  0.06580131  0.56510433  0.87008572  1
  Si  Si5  1  0.91719418  0.91673253  0.16652795  1
  Si  Si6  1  0.31799684  0.31929949  0.36279554  1
  Si  Si7  1  0.71941786  0.71971788  0.56049199  1
  Si  Si8  1  0.11736326  0.11739335  0.76621262  1
  Si  Si9  1  0.51589585  0.51504570  0.97000275  1
  Si  Si10  1  0.43237201  0.93167022  0.13579046  1
  Si  Si11  1  0.83313827  0.33391501  0.33213944  1
  Si  Si12  1  0.23474464  0.73500435  0.52949307  1
  Si  Si13  1  0.63349503  0.13306406  0.73288095  1
  Si  Si14  1  0.03189153  0.53144888  0.93780517  1
  Si  Si15  1  0.48154748  0.48092841  0.03727006  1
  Si  Si16  1  0.88193812  0.88323775  0.23379444  1
  Si  Si17  1  0.28397052  0.28524103  0.42993004  1
  Au  Au0  1  0.68485555  0.68500625  0.63036801  1
  Au  Au1  1  0.08234382  0.08197314  0.83625102  1
loop_
_geom_bond_atom_site_label_1
_geom_bond_atom_site_label_2
_geom_bond_distance
_geom_bond_site_symmetry_2
Nd0 Si5 3.079102 1_545
Nd0 Si5 3.083616 1_555
Nd0 Si15 3.088214 1_555
Nd0 Si15 3.090750 1_655
Nd0 Si0 3.234525 1_555
Nd0 Si0 3.235210 1_545
Nd0 Si0 3.239145 1_645
Nd0 Si0 3.239661 1_655
Nd0 Si10 3.240751 1_645
Nd0 Si10 3.241971 1_545
Nd0 Si10 3.242828 1_655
Nd0 Si10 3.242849 1_555
Nd1 Si16 3.079411 1_555
Nd1 Si6 3.081441 1_555
Nd1 Si16 3.082377 1_455
Nd1 Si6 3.085750 1_565
Nd1 Si1 3.232149 1_465
Nd1 Si1 3.233251 1_455
Nd1 Si1 3.240889 1_555
Nd1 Si1 3.240988 1_565
Nd1 Si11 3.241963 1_555
Nd1 Si11 3.242259 1_565
Nd1 Si11 3.245877 1_465
Nd1 Si11 3.246778 1_455
Nd2 Si17 3.085857 1_655
Nd2 Si17 3.086668 1_555
Nd2 Si7 3.116752 1_545
Nd2 Si7 3.117337 1_555
Nd2 Si2 3.229487 1_555
Nd2 Si2 3.230008 1_545
Nd2 Si2 3.231599 1_645
Nd2 Si2 3.232281 1_655
Nd2 Si12 3.255962 1_655
Nd2 Si12 3.256384 1_645
Nd2 Si12 3.256541 1_555
Nd2 Si12 3.258156 1_545
Nd3 Si8 3.121997 1_555
Nd3 Si8 3.125895 1_565
Nd3 Si13 3.229504 1_565
Nd3 Si13 3.230874 1_465
Nd3 Si13 3.231184 1_555
Nd3 Si13 3.233755 1_455
Nd3 Si3 3.258109 1_555
Nd3 Si3 3.259012 1_565
Nd3 Si3 3.262376 1_465
Nd3 Si3 3.262665 1_455
Nd4 Si9 3.073295 1_545
Nd4 Si9 3.073400 1_555
Nd4 Si14 3.218938 1_645
Nd4 Si14 3.220902 1_545
Nd4 Si14 3.220969 1_655
Nd4 Si14 3.221726 1_555
Nd4 Si4 3.265512 1_555
Nd4 Si4 3.266677 1_545
Nd4 Si4 3.267422 1_645
Nd4 Si4 3.267446 1_655
Nd5 Si14 3.104153 1_654
Nd5 Si0 3.104876 1_655
Nd5 Si0 3.105394 1_555
Nd5 Si14 3.105884 1_664
Nd5 Si9 3.233834 1_564
Nd5 Si9 3.234095 1_554
Nd5 Si9 3.237341 1_654
Nd5 Si9 3.238281 1_664
Nd5 Si15 3.243098 1_665
Nd5 Si15 3.244055 1_655
Nd5 Si15 3.245106 1_565
Nd5 Si15 3.247259 1_555
Nd6 Si1 3.079295 1_455
Nd6 Si10 3.082996 1_555
Nd6 Si1 3.083532 1_555
Nd6 Si10 3.086009 1_545
Nd6 Si16 3.232477 1_545
Nd6 Si16 3.234643 1_555
Nd6 Si16 3.240106 1_445
Nd6 Si5 3.241056 1_455
Nd6 Si16 3.241069 1_455
Nd6 Si5 3.241707 1_445
Nd6 Si5 3.245677 1_545
Nd6 Si5 3.246224 1_555
Nd7 Si11 3.075688 1_565
Nd7 Si11 3.078739 1_555
Nd7 Si2 3.100468 1_655
Nd7 Si2 3.101607 1_555
Nd7 Si17 3.235953 1_655
Nd7 Si17 3.236118 1_665
Nd7 Si17 3.239569 1_565
Nd7 Si6 3.240112 1_555
Nd7 Si6 3.240462 1_655
Nd7 Si17 3.240604 1_555
Nd7 Si6 3.241018 1_565
Nd7 Si6 3.242567 1_665
Nd8 Si12 3.084169 1_555
Nd8 Si12 3.085396 1_545
Nd8 Si3 3.235404 1_555
Nd8 Si7 3.239390 1_455
Nd8 Si7 3.239570 1_445
Nd8 Si3 3.239835 1_455
Nd8 Si7 3.241181 1_545
Nd8 Si7 3.242200 1_555
Nd9 Si13 3.118280 1_565
Nd9 Si13 3.121386 1_555
Nd9 Si8 3.226395 1_555
Nd9 Si8 3.228848 1_565
Nd9 Si8 3.229269 1_655
Nd9 Si8 3.232921 1_665
Nd9 Si4 3.250750 1_555
Nd9 Si4 3.252617 1_655
Si0 Si10 2.308807 1_555
Si0 Si15 2.395170 1_555
Si0 Si15 2.395614 1_565
Si1 Si11 2.313826 1_555
Si1 Si16 2.390337 1_555
Si1 Si16 2.390575 1_545
Si10 Si5 2.388624 1_555
Si10 Si5 2.388645 1_455
Si11 Si6 2.387374 1_655
Si11 Si6 2.387424 1_555
Si12 Si2 2.331257 1_555
Si12 Si7 2.392538 1_555
Si12 Si7 2.392712 1_455
Si13 Si3 2.342849 1_555
Si13 Si8 2.428201 1_555
Si13 Si8 2.430650 1_655
Si14 Si4 2.328566 1_555
Si14 Si9 2.410889 1_555
Si14 Si9 2.411650 1_455
Si15 Si9 2.313023 1_554
Si16 Si5 2.313006 1_555
Si17 Si6 2.308454 1_555
Si17 Si2 2.401302 1_555
Si17 Si2 2.401612 1_545
Au0 Si7 2.402720 1_555
Au0 Si3 2.443623 1_565
Au0 Si3 2.443645 1_555
Au0 Nd3 3.211280 1_655
Au0 Nd3 3.213586 1_555
Au0 Nd8 3.271327 1_665
Au0 Nd8 3.272559 1_565
Au0 Nd8 3.273273 1_655
Au0 Nd8 3.275690 1_555
Au1 Si8 2.408304 1_555
Au1 Si4 2.434183 1_545
Au1 Si4 2.435107 1_555
Au1 Nd4 3.210696 1_555
Au1 Nd4 3.211135 1_455
Au1 Nd9 3.286641 1_555
Au1 Nd9 3.286995 1_455
Au1 Nd9 3.287674 1_545
Au1 Nd9 3.289209 1_445
