# generated using pymatgen
data_PrMg(FeO3)2
_symmetry_space_group_name_H-M   'P 1'
_cell_length_a   5.31951600
_cell_length_b   5.48377400
_cell_length_c   7.69579800
_cell_angle_alpha   90.00000000
_cell_angle_beta   90.00000000
_cell_angle_gamma   90.00000000
_symmetry_Int_Tables_number   1
_chemical_formula_structural   PrMg(FeO3)2
_chemical_formula_sum   'Pr2 Mg2 Fe4 O12'
_cell_volume   224.49430457
_cell_formula_units_Z   2
loop_
 _symmetry_equiv_pos_site_id
 _symmetry_equiv_pos_as_xyz
  1  'x, y, z'
loop_
 _atom_site_type_symbol
 _atom_site_label
 _atom_site_symmetry_multiplicity
 _atom_site_fract_x
 _atom_site_fract_y
 _atom_site_fract_z
 _atom_site_occupancy
  Pr  Pr0  1  0.01032200  0.70673300  0.00000000  1
  Pr  Pr1  1  0.51032200  0.29326700  0.50000000  1
  Mg  Mg0  1  0.47688500  0.19126700  0.00000000  1
  Mg  Mg1  1  0.97688500  0.80873300  0.50000000  1
  Fe  Fe0  1  0.99961700  0.24808700  0.75152700  1
  Fe  Fe1  1  0.99961700  0.24808700  0.24847300  1
  Fe  Fe2  1  0.49961700  0.75191300  0.25152700  1
  Fe  Fe3  1  0.49961700  0.75191300  0.74847300  1
  O  O0  1  0.08114600  0.20326900  0.50000000  1
  O  O1  1  0.22224800  0.97296300  0.80526000  1
  O  O2  1  0.22224800  0.97296300  0.19474000  1
  O  O3  1  0.30896400  0.44429200  0.19102900  1
  O  O4  1  0.30896400  0.44429200  0.80897100  1
  O  O5  1  0.36994600  0.72501400  0.50000000  1
  O  O6  1  0.58114600  0.79673100  0.00000000  1
  O  O7  1  0.72224800  0.02703700  0.69474000  1
  O  O8  1  0.72224800  0.02703700  0.30526000  1
  O  O9  1  0.80896400  0.55570800  0.69102900  1
  O  O10  1  0.80896400  0.55570800  0.30897100  1
  O  O11  1  0.86994600  0.27498600  0.00000000  1
loop_
_geom_bond_atom_site_label_1
_geom_bond_atom_site_label_2
_geom_bond_distance
_geom_bond_site_symmetry_2
Mg0 O11 2.140703 1_555
Mg0 O3 2.210070 1_555
Mg0 O4 2.210070 1_554
Mg0 O6 2.233503 1_545
Mg0 O1 2.348181 1_544
Mg0 O2 2.348181 1_545
Mg1 O5 2.140703 1_655
Mg1 O9 2.210070 1_555
Mg1 O10 2.210070 1_555
Mg1 O0 2.233503 1_665
Mg1 O8 2.348181 1_565
Mg1 O7 2.348181 1_565
Fe0 O7 1.958927 1_555
Fe0 O1 1.962083 1_645
Fe0 O0 1.998858 1_655
Fe0 O4 2.015195 1_655
Fe0 O9 2.022633 1_555
Fe0 O11 2.038153 1_556
Fe1 O8 1.958927 1_555
Fe1 O2 1.962083 1_645
Fe1 O0 1.998858 1_655
Fe1 O3 2.015195 1_655
Fe1 O10 2.022633 1_555
Fe1 O11 2.038153 1_555
Fe2 O2 1.958927 1_555
Fe2 O8 1.962083 1_565
Fe2 O6 1.998858 1_555
Fe2 O10 2.015195 1_555
Fe2 O3 2.022633 1_555
Fe2 O5 2.038153 1_555
Fe3 O1 1.958927 1_555
Fe3 O7 1.962083 1_565
Fe3 O6 1.998858 1_556
Fe3 O9 2.015195 1_555
Fe3 O4 2.022633 1_555
Fe3 O5 2.038153 1_555
O0 Pr1 2.335744 1_555
O1 Pr0 2.376633 1_556
O2 Pr0 2.376633 1_555
O3 Pr0 2.599270 1_555
O3 Pr1 2.736245 1_555
O4 Pr0 2.599270 1_556
O4 Pr1 2.736245 1_555
O5 Pr1 2.482570 1_555
O6 Pr0 2.335744 1_655
O7 Pr1 2.376633 1_555
O8 Pr1 2.376633 1_555
O9 Pr1 2.599270 1_555
O9 Pr0 2.736245 1_656
O10 Pr1 2.599270 1_555
O10 Pr0 2.736245 1_655
O11 Pr0 2.482570 1_655
