# generated using pymatgen
data_CrO2
_symmetry_space_group_name_H-M   'P 1'
_cell_length_a   5.22345000
_cell_length_b   5.75864400
_cell_length_c   10.91421300
_cell_angle_alpha   90.00000000
_cell_angle_beta   90.00000000
_cell_angle_gamma   90.00000000
_symmetry_Int_Tables_number   1
_chemical_formula_structural   CrO2
_chemical_formula_sum   'Cr8 O16'
_cell_volume   328.29940700
_cell_formula_units_Z   8
loop_
 _symmetry_equiv_pos_site_id
 _symmetry_equiv_pos_as_xyz
  1  'x, y, z'
loop_
 _atom_site_type_symbol
 _atom_site_label
 _atom_site_symmetry_multiplicity
 _atom_site_fract_x
 _atom_site_fract_y
 _atom_site_fract_z
 _atom_site_occupancy
  Cr  Cr0  1  0.49223100  0.50000000  0.24083400  1
  Cr  Cr1  1  0.49223100  0.50000000  0.75916600  1
  Cr  Cr2  1  0.50776900  0.00000000  0.25916600  1
  Cr  Cr3  1  0.50776900  0.00000000  0.74083400  1
  Cr  Cr4  1  0.00000000  0.25000000  0.25000000  1
  Cr  Cr5  1  0.00000000  0.75000000  0.75000000  1
  Cr  Cr6  1  0.00000000  0.75000000  0.25000000  1
  Cr  Cr7  1  0.00000000  0.25000000  0.75000000  1
  O  O0  1  0.83673800  0.50000000  0.16037000  1
  O  O1  1  0.83673800  0.50000000  0.83963000  1
  O  O2  1  0.16326200  0.00000000  0.33963000  1
  O  O3  1  0.16326200  0.00000000  0.66037000  1
  O  O4  1  0.16575000  0.50000000  0.33597900  1
  O  O5  1  0.16575000  0.50000000  0.66402100  1
  O  O6  1  0.83425000  0.00000000  0.16402100  1
  O  O7  1  0.83425000  0.00000000  0.83597900  1
  O  O8  1  0.66455200  0.25169400  0.33804700  1
  O  O9  1  0.66455200  0.74830600  0.66195300  1
  O  O10  1  0.33544800  0.75169400  0.16195300  1
  O  O11  1  0.33544800  0.24830600  0.83804700  1
  O  O12  1  0.33544800  0.24830600  0.16195300  1
  O  O13  1  0.33544800  0.75169400  0.83804700  1
  O  O14  1  0.66455200  0.74830600  0.33804700  1
  O  O15  1  0.66455200  0.25169400  0.66195300  1
loop_
_geom_bond_atom_site_label_1
_geom_bond_atom_site_label_2
_geom_bond_distance
_geom_bond_site_symmetry_2
Cr0 O12 1.874213 1_555
Cr0 O10 1.874213 1_555
Cr0 O14 1.995133 1_555
Cr0 O8 1.995133 1_555
Cr0 O4 1.996644 1_555
Cr0 O0 2.002372 1_555
Cr1 O11 1.874213 1_555
Cr1 O13 1.874213 1_555
Cr1 O9 1.995133 1_555
Cr1 O15 1.995133 1_555
Cr1 O5 1.996644 1_555
Cr1 O1 2.002372 1_555
Cr2 O8 1.874213 1_555
Cr2 O14 1.874213 1_545
Cr2 O12 1.995133 1_555
Cr2 O10 1.995133 1_545
Cr2 O6 1.996644 1_555
Cr2 O2 2.002372 1_555
Cr3 O15 1.874213 1_555
Cr3 O9 1.874213 1_545
Cr3 O11 1.995133 1_555
Cr3 O13 1.995133 1_545
Cr3 O7 1.996644 1_555
Cr3 O3 2.002372 1_555
Cr4 O4 1.924264 1_555
Cr4 O6 1.924264 1_455
Cr4 O0 1.938255 1_455
Cr4 O2 1.938255 1_555
Cr4 O12 1.998434 1_555
Cr4 O8 1.998434 1_455
Cr5 O7 1.924264 1_465
Cr5 O5 1.924264 1_555
Cr5 O3 1.938255 1_565
Cr5 O1 1.938255 1_455
Cr5 O13 1.998434 1_555
Cr5 O9 1.998434 1_455
Cr6 O4 1.924264 1_555
Cr6 O6 1.924264 1_465
Cr6 O0 1.938255 1_455
Cr6 O2 1.938255 1_565
Cr6 O10 1.998434 1_555
Cr6 O14 1.998434 1_455
Cr7 O7 1.924264 1_455
Cr7 O5 1.924264 1_555
Cr7 O3 1.938255 1_555
Cr7 O1 1.938255 1_455
Cr7 O11 1.998434 1_555
Cr7 O15 1.998434 1_455
