# generated using pymatgen
data_Ba11(CN5)2
_symmetry_space_group_name_H-M   'P 1'
_cell_length_a   16.48571900
_cell_length_b   16.48571900
_cell_length_c   4.14975200
_cell_angle_alpha   90.00000000
_cell_angle_beta   90.00000000
_cell_angle_gamma   90.00000000
_symmetry_Int_Tables_number   1
_chemical_formula_structural   Ba11(CN5)2
_chemical_formula_sum   'Ba22 C4 N20'
_cell_volume   1127.81516226
_cell_formula_units_Z   2
loop_
 _symmetry_equiv_pos_site_id
 _symmetry_equiv_pos_as_xyz
  1  'x, y, z'
loop_
 _atom_site_type_symbol
 _atom_site_label
 _atom_site_symmetry_multiplicity
 _atom_site_fract_x
 _atom_site_fract_y
 _atom_site_fract_z
 _atom_site_occupancy
  Ba  Ba0  1  0.50000000  0.50000000  0.50000000  1
  Ba  Ba1  1  0.00000000  0.00000000  0.00000000  1
  Ba  Ba2  1  0.98106900  0.79268300  0.50000000  1
  Ba  Ba3  1  0.01893100  0.20731700  0.50000000  1
  Ba  Ba4  1  0.51893100  0.29268300  0.00000000  1
  Ba  Ba5  1  0.48106900  0.70731700  0.00000000  1
  Ba  Ba6  1  0.79268300  0.98106900  0.50000000  1
  Ba  Ba7  1  0.20731700  0.01893100  0.50000000  1
  Ba  Ba8  1  0.29268300  0.51893100  0.00000000  1
  Ba  Ba9  1  0.70731700  0.48106900  0.00000000  1
  Ba  Ba10  1  0.67539300  0.67539300  0.50000000  1
  Ba  Ba11  1  0.32460700  0.32460700  0.50000000  1
  Ba  Ba12  1  0.82460700  0.17539300  0.00000000  1
  Ba  Ba13  1  0.17539300  0.82460700  0.00000000  1
  Ba  Ba14  1  0.38200600  0.88338600  0.50000000  1
  Ba  Ba15  1  0.61799400  0.11661400  0.50000000  1
  Ba  Ba16  1  0.11799400  0.38338600  0.00000000  1
  Ba  Ba17  1  0.88200600  0.61661400  0.00000000  1
  Ba  Ba18  1  0.88338600  0.38200600  0.50000000  1
  Ba  Ba19  1  0.11661400  0.61799400  0.50000000  1
  Ba  Ba20  1  0.38338600  0.11799400  0.00000000  1
  Ba  Ba21  1  0.61661400  0.88200600  0.00000000  1
  C  C0  1  0.32193400  0.67806600  0.50000000  1
  C  C1  1  0.67806600  0.32193400  0.50000000  1
  C  C2  1  0.17806600  0.17806600  0.00000000  1
  C  C3  1  0.82193400  0.82193400  0.00000000  1
  N  N0  1  0.09554600  0.90445400  0.50000000  1
  N  N1  1  0.90445400  0.09554600  0.50000000  1
  N  N2  1  0.40445400  0.40445400  0.00000000  1
  N  N3  1  0.59554600  0.59554600  0.00000000  1
  N  N4  1  0.46408300  0.18777100  0.50000000  1
  N  N5  1  0.53591700  0.81222900  0.50000000  1
  N  N6  1  0.03591700  0.68777100  0.00000000  1
  N  N7  1  0.96408300  0.31222900  0.00000000  1
  N  N8  1  0.18777100  0.46408300  0.50000000  1
  N  N9  1  0.81222900  0.53591700  0.50000000  1
  N  N10  1  0.68777100  0.03591700  0.00000000  1
  N  N11  1  0.31222900  0.96408300  0.00000000  1
  N  N12  1  0.26868500  0.73131500  0.50000000  1
  N  N13  1  0.73131500  0.26868500  0.50000000  1
  N  N14  1  0.23131500  0.23131500  0.00000000  1
  N  N15  1  0.76868500  0.76868500  0.00000000  1
  N  N16  1  0.37550800  0.62449200  0.50000000  1
  N  N17  1  0.62449200  0.37550800  0.50000000  1
  N  N18  1  0.12449200  0.12449200  0.00000000  1
  N  N19  1  0.87550800  0.87550800  0.00000000  1
loop_
_geom_bond_atom_site_label_1
_geom_bond_atom_site_label_2
_geom_bond_distance
_geom_bond_site_symmetry_2
Ba0 N16 2.902447 1_555
Ba0 N17 2.902447 1_555
Ba0 N2 3.044219 1_556
Ba0 N3 3.044219 1_556
Ba0 N2 3.044219 1_555
Ba0 N3 3.044219 1_555
Ba1 N18 2.902447 1_555
Ba1 N19 2.902447 1_445
Ba1 N1 3.044219 1_454
Ba1 N0 3.044219 1_545
Ba1 N0 3.044219 1_544
Ba1 N1 3.044219 1_455
Ba2 N0 2.637599 1_655
Ba2 N6 2.848516 1_656
Ba2 N6 2.848516 1_655
Ba2 N19 3.032816 1_555
Ba2 N19 3.032816 1_556
Ba3 N1 2.637599 1_455
Ba3 N7 2.848516 1_456
Ba3 N7 2.848516 1_455
Ba3 N18 3.032816 1_556
Ba3 N18 3.032816 1_555
Ba4 N2 2.637599 1_555
Ba4 N4 2.848516 1_554
Ba4 N4 2.848516 1_555
Ba4 N17 3.032816 1_555
Ba4 N17 3.032816 1_554
Ba5 N3 2.637599 1_555
Ba5 N5 2.848516 1_555
Ba5 N5 2.848516 1_554
Ba5 N16 3.032816 1_555
Ba5 N16 3.032816 1_554
Ba6 N1 2.637599 1_565
Ba6 N10 2.848516 1_565
Ba6 N10 2.848516 1_566
Ba6 N19 3.032816 1_555
Ba6 N19 3.032816 1_556
Ba7 N0 2.637599 1_545
Ba7 N11 2.848516 1_546
Ba7 N11 2.848516 1_545
Ba7 N18 3.032816 1_556
Ba7 N18 3.032816 1_555
Ba8 N2 2.637599 1_555
Ba8 N8 2.848516 1_555
Ba8 N8 2.848516 1_554
Ba8 N16 3.032816 1_554
Ba8 N16 3.032816 1_555
Ba9 N3 2.637599 1_555
Ba9 N9 2.848516 1_555
Ba9 N9 2.848516 1_554
Ba9 N17 3.032816 1_554
Ba9 N17 3.032816 1_555
Ba10 N3 2.787577 1_556
Ba10 N3 2.787577 1_555
Ba10 N15 3.005979 1_556
Ba10 N15 3.005979 1_555
Ba10 N5 3.221161 1_555
Ba10 N9 3.221161 1_555
Ba11 N2 2.787577 1_555
Ba11 N2 2.787577 1_556
Ba11 N14 3.005979 1_555
Ba11 N14 3.005979 1_556
Ba11 N8 3.221161 1_555
Ba11 N4 3.221161 1_555
Ba12 N1 2.787577 1_554
Ba12 N1 2.787577 1_555
Ba12 N13 3.005979 1_555
Ba12 N13 3.005979 1_554
Ba12 N7 3.221161 1_555
Ba12 N10 3.221161 1_555
Ba13 N0 2.787577 1_554
Ba13 N0 2.787577 1_555
Ba13 N12 3.005979 1_555
Ba13 N12 3.005979 1_554
Ba13 N11 3.221161 1_555
Ba13 N6 3.221161 1_555
Ba14 N11 2.719960 1_555
Ba14 N11 2.719960 1_556
Ba14 N5 2.795383 1_555
Ba14 N12 3.126522 1_555
Ba15 N10 2.719960 1_556
Ba15 N10 2.719960 1_555
Ba15 N4 2.795383 1_555
Ba15 N13 3.126522 1_555
Ba16 N8 2.719960 1_554
Ba16 N8 2.719960 1_555
Ba16 N7 2.795383 1_455
Ba16 N14 3.126522 1_555
Ba17 N9 2.719960 1_555
Ba17 N9 2.719960 1_554
Ba17 N6 2.795383 1_655
Ba17 N15 3.126522 1_555
Ba18 N7 2.719960 1_556
Ba18 N7 2.719960 1_555
Ba18 N9 2.795383 1_555
Ba18 N13 3.126522 1_555
Ba19 N6 2.719960 1_555
Ba19 N6 2.719960 1_556
Ba19 N8 2.795383 1_555
Ba19 N12 3.126522 1_555
Ba20 N4 2.719960 1_555
Ba20 N4 2.719960 1_554
Ba20 N11 2.795383 1_545
Ba20 N14 3.126522 1_555
Ba21 N5 2.719960 1_554
Ba21 N5 2.719960 1_555
Ba21 N10 2.795383 1_565
Ba21 N15 3.126522 1_555
C0 N12 1.241465 1_555
C0 N16 1.249042 1_555
C1 N13 1.241465 1_555
C1 N17 1.249042 1_555
C2 N14 1.241465 1_555
C2 N18 1.249042 1_555
C3 N15 1.241465 1_555
C3 N19 1.249042 1_555
