# generated using pymatgen
data_Rb3Sn4Au
_symmetry_space_group_name_H-M   'P 1'
_cell_length_a   6.62261063
_cell_length_b   7.27415711
_cell_length_c   13.21868734
_cell_angle_alpha   90.00000000
_cell_angle_beta   90.00000000
_cell_angle_gamma   90.00000000
_symmetry_Int_Tables_number   1
_chemical_formula_structural   Rb3Sn4Au
_chemical_formula_sum   'Rb6 Sn8 Au2'
_cell_volume   636.79585689
_cell_formula_units_Z   2
loop_
 _symmetry_equiv_pos_site_id
 _symmetry_equiv_pos_as_xyz
  1  'x, y, z'
loop_
 _atom_site_type_symbol
 _atom_site_label
 _atom_site_symmetry_multiplicity
 _atom_site_fract_x
 _atom_site_fract_y
 _atom_site_fract_z
 _atom_site_occupancy
  Rb  Rb0  1  0.55532494  0.00000000  0.00000000  1
  Rb  Rb1  1  0.44467506  0.50000000  0.50000000  1
  Rb  Rb2  1  0.82918289  0.50000000  0.74255999  1
  Rb  Rb3  1  0.82918289  0.50000000  0.25744001  1
  Rb  Rb4  1  0.17081711  0.00000000  0.75744001  1
  Rb  Rb5  1  0.17081711  0.00000000  0.24255999  1
  Sn  Sn0  1  0.33118510  0.50000000  0.88248408  1
  Sn  Sn1  1  0.33118510  0.50000000  0.11751592  1
  Sn  Sn2  1  0.03674089  0.28605426  0.00000000  1
  Sn  Sn3  1  0.03674089  0.71394574  0.00000000  1
  Sn  Sn4  1  0.96325911  0.78605426  0.50000000  1
  Sn  Sn5  1  0.96325911  0.21394574  0.50000000  1
  Sn  Sn6  1  0.66881490  0.00000000  0.38248408  1
  Sn  Sn7  1  0.66881490  0.00000000  0.61751592  1
  Au  Au0  1  0.68323783  0.50000000  0.00000000  1
  Au  Au1  1  0.31676217  0.00000000  0.50000000  1
loop_
_geom_bond_atom_site_label_1
_geom_bond_atom_site_label_2
_geom_bond_distance
_geom_bond_site_symmetry_2
Rb0 Sn3 3.807172 1_645
Rb0 Sn2 3.807172 1_655
Rb0 Sn2 4.015559 1_555
Rb0 Sn3 4.015559 1_545
Rb1 Sn4 3.807172 1_455
Rb1 Sn5 3.807172 1_455
Rb1 Sn4 4.015559 1_555
Rb1 Sn5 4.015559 1_555
Rb2 Sn0 3.781292 1_555
Rb2 Sn0 3.804445 1_655
Rb2 Sn5 3.924116 1_555
Rb2 Sn4 3.924116 1_555
Rb2 Sn3 3.986476 1_656
Rb2 Sn2 3.986476 1_656
Rb2 Sn7 4.133817 1_565
Rb2 Sn7 4.133817 1_555
Rb3 Sn1 3.781292 1_555
Rb3 Sn1 3.804445 1_655
Rb3 Sn4 3.924116 1_555
Rb3 Sn5 3.924116 1_555
Rb3 Sn3 3.986476 1_655
Rb3 Sn2 3.986476 1_655
Rb3 Sn6 4.133817 1_565
Rb3 Sn6 4.133817 1_555
Rb4 Sn7 3.781292 1_555
Rb4 Sn7 3.804445 1_455
Rb4 Sn2 3.924116 1_556
Rb4 Sn3 3.924116 1_546
Rb4 Sn4 3.986476 1_445
Rb4 Sn5 3.986476 1_455
Rb4 Sn0 4.133817 1_555
Rb4 Sn0 4.133817 1_545
Rb5 Sn6 3.781292 1_555
Rb5 Sn6 3.804445 1_455
Rb5 Sn2 3.924116 1_555
Rb5 Sn3 3.924116 1_545
Rb5 Sn4 3.986476 1_445
Rb5 Sn5 3.986476 1_455
Rb5 Sn1 4.133817 1_555
Rb5 Sn1 4.133817 1_545
Au0 Sn0 2.801607 1_554
Au0 Sn1 2.801607 1_555
Au0 Sn3 2.811192 1_655
Au0 Sn2 2.811192 1_655
Au0 Rb3 3.537617 1_555
Au0 Rb2 3.537617 1_554
Au0 Rb0 3.734427 1_565
Au0 Rb0 3.734427 1_555
Au1 Sn7 2.801607 1_555
Au1 Sn6 2.801607 1_555
Au1 Sn4 2.811192 1_445
Au1 Sn5 2.811192 1_455
Au1 Rb5 3.537617 1_555
Au1 Rb4 3.537617 1_555
Au1 Rb1 3.734427 1_545
Au1 Rb1 3.734427 1_555
