# generated using pymatgen
data_AgMo3P3O16
_symmetry_space_group_name_H-M   'P 1'
_cell_length_a   6.51604200
_cell_length_b   7.90236193
_cell_length_c   13.02542402
_cell_angle_alpha   80.11601476
_cell_angle_beta   79.56652982
_cell_angle_gamma   82.60645164
_symmetry_Int_Tables_number   1
_chemical_formula_structural   AgMo3P3O16
_chemical_formula_sum   'Ag2 Mo6 P6 O32'
_cell_volume   646.52124260
_cell_formula_units_Z   2
loop_
 _symmetry_equiv_pos_site_id
 _symmetry_equiv_pos_as_xyz
  1  'x, y, z'
loop_
 _atom_site_type_symbol
 _atom_site_label
 _atom_site_symmetry_multiplicity
 _atom_site_fract_x
 _atom_site_fract_y
 _atom_site_fract_z
 _atom_site_occupancy
  Ag  Ag0  1  0.40748200  0.62442500  0.67011400  1
  Ag  Ag1  1  0.59251800  0.37557500  0.32988600  1
  Mo  Mo0  1  0.80156000  0.78489200  0.45753500  1
  Mo  Mo1  1  0.19844000  0.21510800  0.54246500  1
  Mo  Mo2  1  0.93912000  0.78933100  0.85843900  1
  Mo  Mo3  1  0.06088000  0.21066900  0.14156100  1
  Mo  Mo4  1  0.59820600  0.23322800  0.83535900  1
  Mo  Mo5  1  0.40179400  0.76677200  0.16464100  1
  P  P0  1  0.93495600  0.51160800  0.68494600  1
  P  P1  1  0.06504400  0.48839200  0.31505400  1
  P  P2  1  0.69381300  0.14445200  0.57664900  1
  P  P3  1  0.30618700  0.85554800  0.42335100  1
  P  P4  1  0.42415200  0.83399700  0.89982200  1
  P  P5  1  0.57584800  0.16600300  0.10017800  1
  O  O0  1  0.42384700  0.02949000  0.89599400  1
  O  O1  1  0.57615300  0.97051000  0.10400600  1
  O  O2  1  0.63693700  0.14995600  0.69545200  1
  O  O3  1  0.36306300  0.85004400  0.30454800  1
  O  O4  1  0.83718800  0.38326900  0.77804100  1
  O  O5  1  0.16281200  0.61673100  0.22195900  1
  O  O6  1  0.62798200  0.25743600  0.98576700  1
  O  O7  1  0.37201800  0.74256400  0.01423300  1
  O  O8  1  0.39795900  0.39270600  0.81659300  1
  O  O9  1  0.60204100  0.60729400  0.18340700  1
  O  O10  1  0.63987000  0.75630800  0.84398300  1
  O  O11  1  0.36013000  0.24369200  0.15601700  1
  O  O12  1  0.86551600  0.01121500  0.86068400  1
  O  O13  1  0.13448400  0.98878500  0.13931600  1
  O  O14  1  0.19025600  0.05770400  0.64973600  1
  O  O15  1  0.80974400  0.94229600  0.35026400  1
  O  O16  1  0.89203200  0.23400200  0.52565100  1
  O  O17  1  0.10796800  0.76599800  0.47434900  1
  O  O18  1  0.51559100  0.24905600  0.51982700  1
  O  O19  1  0.48440900  0.75094400  0.48017300  1
  O  O20  1  0.27987100  0.04761000  0.43463300  1
  O  O21  1  0.72012900  0.95239000  0.56536700  1
  O  O22  1  0.13661400  0.42503200  0.62318900  1
  O  O23  1  0.86338600  0.57496800  0.37681100  1
  O  O24  1  0.22032300  0.40466900  0.38974500  1
  O  O25  1  0.77967700  0.59533100  0.61025500  1
  O  O26  1  0.08363700  0.30752500  0.01365100  1
  O  O27  1  0.91636300  0.69247500  0.98634900  1
  O  O28  1  0.98497300  0.34510800  0.26510600  1
  O  O29  1  0.01502700  0.65489200  0.73489400  1
  O  O30  1  0.74488400  0.20330500  0.16268200  1
  O  O31  1  0.25511600  0.79669500  0.83731800  1
loop_
_geom_bond_atom_site_label_1
_geom_bond_atom_site_label_2
_geom_bond_distance
_geom_bond_site_symmetry_2
Ag0 O25 2.403272 1_555
Ag0 O8 2.405017 1_555
Ag0 O19 2.490475 1_555
Ag0 O29 2.537568 1_555
Ag0 O22 2.721880 1_555
Ag0 O31 2.732960 1_555
Ag1 O24 2.403272 1_555
Ag1 O9 2.405017 1_555
Ag1 O18 2.490475 1_555
Ag1 O28 2.537568 1_555
Ag1 O23 2.721880 1_555
Ag1 O30 2.732960 1_555
Mo0 O15 1.701696 1_555
Mo0 O17 2.031493 1_655
Mo0 O21 2.047898 1_555
Mo0 O23 2.072006 1_555
Mo0 O19 2.079530 1_555
Mo0 O25 2.269493 1_555
Mo1 O14 1.701696 1_555
Mo1 O16 2.031493 1_455
Mo1 O20 2.047898 1_555
Mo1 O22 2.072006 1_555
Mo1 O18 2.079530 1_555
Mo1 O24 2.269493 1_555
Mo2 O27 1.698701 1_555
Mo2 O12 1.761081 1_565
Mo2 O29 2.031334 1_655
Mo2 O31 2.034430 1_655
Mo2 O10 2.046113 1_555
Mo3 O26 1.698701 1_555
Mo3 O13 1.761081 1_545
Mo3 O28 2.031334 1_455
Mo3 O30 2.034430 1_455
Mo3 O11 2.046113 1_555
Mo4 O8 1.713791 1_555
Mo4 O2 2.005004 1_555
Mo4 O4 2.034298 1_555
Mo4 O6 2.046537 1_555
Mo4 O0 2.053276 1_555
Mo4 O12 2.333161 1_555
Mo5 O9 1.713791 1_555
Mo5 O3 2.005004 1_555
Mo5 O5 2.034298 1_555
Mo5 O7 2.046537 1_555
Mo5 O1 2.053276 1_555
Mo5 O13 2.333161 1_555
O0 P4 1.536839 1_545
O1 P5 1.536839 1_565
O2 P2 1.531377 1_555
O3 P3 1.531377 1_555
O4 P0 1.539191 1_555
O5 P1 1.539191 1_555
O6 P5 1.538982 1_556
O7 P4 1.538982 1_554
O10 P4 1.562887 1_555
O11 P5 1.562887 1_555
O16 P2 1.540578 1_555
O17 P3 1.540578 1_555
O18 P2 1.560103 1_555
O19 P3 1.560103 1_555
O20 P3 1.534603 1_545
O21 P2 1.534603 1_565
O22 P0 1.554511 1_455
O23 P1 1.554511 1_655
O24 P1 1.539882 1_555
O25 P0 1.539882 1_555
O28 P1 1.582858 1_655
O29 P0 1.582858 1_455
O30 P5 1.566409 1_555
O31 P4 1.566409 1_555
