# generated using pymatgen
data_SmZnAgAs2
_symmetry_space_group_name_H-M   'P 1'
_cell_length_a   4.29846758
_cell_length_b   4.29846758
_cell_length_c   6.92413800
_cell_angle_alpha   90.00000000
_cell_angle_beta   90.00000000
_cell_angle_gamma   119.99999353
_symmetry_Int_Tables_number   1
_chemical_formula_structural   SmZnAgAs2
_chemical_formula_sum   'Sm1 Zn1 Ag1 As2'
_cell_volume   110.79589905
_cell_formula_units_Z   1
loop_
 _symmetry_equiv_pos_site_id
 _symmetry_equiv_pos_as_xyz
  1  'x, y, z'
loop_
 _atom_site_type_symbol
 _atom_site_label
 _atom_site_symmetry_multiplicity
 _atom_site_fract_x
 _atom_site_fract_y
 _atom_site_fract_z
 _atom_site_occupancy
  Sm  Sm0  1  0.00000000  0.00000000  0.98524200  1
  Zn  Zn0  1  0.66666700  0.33333300  0.37509600  1
  Ag  Ag0  1  0.33333300  0.66666700  0.63636900  1
  As  As0  1  0.33333300  0.66666700  0.24436200  1
  As  As1  1  0.66666700  0.33333300  0.75893100  1
loop_
_geom_bond_atom_site_label_1
_geom_bond_atom_site_label_2
_geom_bond_distance
_geom_bond_site_symmetry_2
Ag0 As1 2.622806 1_455
Ag0 As1 2.622806 1_565
Ag0 As1 2.622813 1_555
Ag0 As0 2.714311 1_555
Ag0 Zn0 3.071113 1_565
Ag0 Zn0 3.071113 1_455
Ag0 Zn0 3.071119 1_555
Ag0 Sm0 3.463274 1_565
Ag0 Sm0 3.463277 1_555
Ag0 Sm0 3.463277 1_665
As0 Zn0 2.641657 1_455
As0 Zn0 2.641657 1_565
As0 Zn0 2.641664 1_555
As0 Sm0 3.062355 1_564
As0 Sm0 3.062358 1_554
As0 Sm0 3.062358 1_664
As1 Zn0 2.657727 1_555
As1 Sm0 2.935037 1_655
As1 Sm0 2.935041 1_555
As1 Sm0 2.935041 1_665
