# generated using pymatgen
data_ReO3
_symmetry_space_group_name_H-M   'P 1'
_cell_length_a   6.52144097
_cell_length_b   6.52143423
_cell_length_c   6.52143255
_cell_angle_alpha   109.47112354
_cell_angle_beta   109.47126959
_cell_angle_gamma   109.47122673
_symmetry_Int_Tables_number   1
_chemical_formula_structural   ReO3
_chemical_formula_sum   'Re4 O12'
_cell_volume   213.50498899
_cell_formula_units_Z   4
loop_
 _symmetry_equiv_pos_site_id
 _symmetry_equiv_pos_as_xyz
  1  'x, y, z'
loop_
 _atom_site_type_symbol
 _atom_site_label
 _atom_site_symmetry_multiplicity
 _atom_site_fract_x
 _atom_site_fract_y
 _atom_site_fract_z
 _atom_site_occupancy
  Re  Re0  1  -0.00000957  -0.00001380  0.49999523  1
  Re  Re1  1  0.50001140  0.00001700  0.00000840  1
  Re  Re2  1  0.00000576  0.50000349  -0.00000723  1
  Re  Re3  1  0.49999151  0.49999818  0.50000597  1
  O  O0  1  0.24967532  0.99939911  0.74971417  1
  O  O1  1  0.75031709  0.00059697  0.25027784  1
  O  O2  1  0.75031958  0.50003666  0.74972174  1
  O  O3  1  0.24968127  0.49995949  0.25028185  1
  O  O4  1  0.99940663  0.74971291  0.24969820  1
  O  O5  1  0.00059085  0.25029096  0.75030809  1
  O  O6  1  0.50002112  0.74971098  0.75030176  1
  O  O7  1  0.49998345  0.25028521  0.24969379  1
  O  O8  1  0.74970385  0.24969004  0.99939593  1
  O  O9  1  0.25029448  0.75030679  0.00060433  1
  O  O10  1  0.74970581  0.75031016  0.50001025  1
  O  O11  1  0.25030044  0.24969484  0.49998770  1
loop_
_geom_bond_atom_site_label_1
_geom_bond_atom_site_label_2
_geom_bond_distance
_geom_bond_site_symmetry_2
O0 Re0 1.882544 1_565
O0 Re1 1.882625 1_566
O1 Re1 1.882560 1_555
O1 Re0 1.882584 1_655
O2 Re2 1.882542 1_656
O2 Re3 1.882599 1_555
O3 Re3 1.882562 1_555
O3 Re2 1.882611 1_555
O4 Re0 1.882530 1_665
O4 Re2 1.882633 1_655
O5 Re2 1.882514 1_556
O5 Re0 1.882645 1_555
O6 Re3 1.882501 1_555
O6 Re1 1.882665 1_566
O7 Re1 1.882511 1_555
O7 Re3 1.882645 1_555
O8 Re1 1.882497 1_556
O8 Re2 1.882649 1_656
O9 Re2 1.882506 1_555
O9 Re1 1.882666 1_565
O10 Re0 1.882488 1_665
O10 Re3 1.882662 1_555
O11 Re3 1.882490 1_555
O11 Re0 1.882678 1_555
