# generated using pymatgen
data_NaEuHf2O6
_symmetry_space_group_name_H-M   'P 1'
_cell_length_a   4.13192470
_cell_length_b   5.68355834
_cell_length_c   5.68355834
_cell_angle_alpha   89.79567039
_cell_angle_beta   90.00000000
_cell_angle_gamma   90.00000000
_symmetry_Int_Tables_number   1
_chemical_formula_structural   NaEuHf2O6
_chemical_formula_sum   'Na1 Eu1 Hf2 O6'
_cell_volume   133.47203477
_cell_formula_units_Z   1
loop_
 _symmetry_equiv_pos_site_id
 _symmetry_equiv_pos_as_xyz
  1  'x, y, z'
loop_
 _atom_site_type_symbol
 _atom_site_label
 _atom_site_symmetry_multiplicity
 _atom_site_fract_x
 _atom_site_fract_y
 _atom_site_fract_z
 _atom_site_occupancy
  Na  Na0  1  0.50000000  -0.00000000  -0.00000000  1
  Eu  Eu0  1  0.50000000  0.50000000  0.50000000  1
  Hf  Hf0  1  -0.00000000  -0.00000000  0.50000000  1
  Hf  Hf1  1  -0.00000000  0.50000000  -0.00000000  1
  O  O0  1  0.50000000  -0.00000000  0.50000000  1
  O  O1  1  0.50000000  0.50000000  -0.00000000  1
  O  O2  1  -0.00000000  0.32457213  0.67542787  1
  O  O3  1  -0.00000000  0.67542787  0.32457213  1
  O  O4  1  -0.00000000  0.80466668  0.80466668  1
  O  O5  1  -0.00000000  0.19533332  0.19533332  1
loop_
_geom_bond_atom_site_label_1
_geom_bond_atom_site_label_2
_geom_bond_distance
_geom_bond_site_symmetry_2
Na0 O4 2.596541 1_644
Na0 O5 2.596541 1_555
Na0 O4 2.596541 1_544
Na0 O5 2.596541 1_655
Na0 O1 2.841779 1_545
Na0 O0 2.841779 1_555
Na0 O0 2.841779 1_554
Na0 O1 2.841779 1_555
Eu0 O2 2.499869 1_655
Eu0 O3 2.499869 1_555
Eu0 O2 2.499869 1_555
Eu0 O3 2.499869 1_655
Eu0 O0 2.841779 1_555
Eu0 O1 2.841779 1_555
Eu0 O1 2.841779 1_556
Eu0 O0 2.841779 1_565
Hf0 O5 2.053586 1_555
Hf0 O4 2.053586 1_545
Hf0 O0 2.065962 1_455
Hf0 O0 2.065962 1_555
Hf0 O3 2.100058 1_545
Hf0 O2 2.100058 1_555
Hf1 O4 2.053586 1_554
Hf1 O5 2.053586 1_555
Hf1 O1 2.065962 1_455
Hf1 O1 2.065962 1_555
Hf1 O2 2.100058 1_554
Hf1 O3 2.100058 1_555
