# generated using pymatgen
data_Mn2Cr3GaS8
_symmetry_space_group_name_H-M   'P 1'
_cell_length_a   7.19849742
_cell_length_b   7.19849742
_cell_length_c   7.19849725
_cell_angle_alpha   59.94379394
_cell_angle_beta   59.94379394
_cell_angle_gamma   59.94380280
_symmetry_Int_Tables_number   1
_chemical_formula_structural   Mn2Cr3GaS8
_chemical_formula_sum   'Mn2 Cr3 Ga1 S8'
_cell_volume   263.42476214
_cell_formula_units_Z   1
loop_
 _symmetry_equiv_pos_site_id
 _symmetry_equiv_pos_as_xyz
  1  'x, y, z'
loop_
 _atom_site_type_symbol
 _atom_site_label
 _atom_site_symmetry_multiplicity
 _atom_site_fract_x
 _atom_site_fract_y
 _atom_site_fract_z
 _atom_site_occupancy
  Mn  Mn0  1  0.37492800  0.37492800  0.37492800  1
  Mn  Mn1  1  0.62507200  0.62507200  0.62507200  1
  Cr  Cr0  1  0.50000000  0.00000000  0.00000000  1
  Cr  Cr1  1  0.00000000  0.00000000  0.50000000  1
  Cr  Cr2  1  0.00000000  0.50000000  0.00000000  1
  Ga  Ga0  1  0.00000000  0.00000000  0.00000000  1
  S  S0  1  0.23916700  0.23916700  0.23916700  1
  S  S1  1  0.78109000  0.24222000  0.24222000  1
  S  S2  1  0.24222000  0.24222000  0.78109000  1
  S  S3  1  0.24222000  0.78109000  0.24222000  1
  S  S4  1  0.76083300  0.76083300  0.76083300  1
  S  S5  1  0.21891000  0.75778000  0.75778000  1
  S  S6  1  0.75778000  0.75778000  0.21891000  1
  S  S7  1  0.75778000  0.21891000  0.75778000  1
loop_
_geom_bond_atom_site_label_1
_geom_bond_atom_site_label_2
_geom_bond_distance
_geom_bond_site_symmetry_2
Mn0 S2 2.385807 1_555
Mn0 S1 2.385808 1_555
Mn0 S3 2.385808 1_555
Mn0 S0 2.394842 1_555
Mn1 S6 2.385807 1_555
Mn1 S7 2.385808 1_555
Mn1 S5 2.385808 1_555
Mn1 S4 2.394842 1_555
Cr0 S3 2.429524 1_545
Cr0 S7 2.429524 1_554
Cr0 S2 2.429524 1_554
Cr0 S6 2.429524 1_545
Cr0 S4 2.438542 1_544
Cr0 S0 2.438542 1_555
Cr1 S1 2.429524 1_455
Cr1 S3 2.429524 1_545
Cr1 S5 2.429524 1_545
Cr1 S7 2.429524 1_455
Cr1 S4 2.438542 1_445
Cr1 S0 2.438542 1_555
Cr2 S1 2.429524 1_455
Cr2 S5 2.429524 1_554
Cr2 S2 2.429524 1_554
Cr2 S6 2.429524 1_455
Cr2 S4 2.438542 1_454
Cr2 S0 2.438542 1_555
Ga0 S6 2.470710 1_445
Ga0 S2 2.470710 1_554
Ga0 S1 2.470710 1_455
Ga0 S7 2.470710 1_454
Ga0 S3 2.470710 1_545
Ga0 S5 2.470710 1_544
