# generated using pymatgen
data_Zr3W5
_symmetry_space_group_name_H-M   'P 1'
_cell_length_a   7.99285484
_cell_length_b   7.99285484
_cell_length_c   7.99285484
_cell_angle_alpha   96.34237439
_cell_angle_beta   96.34237439
_cell_angle_gamma   141.17470225
_symmetry_Int_Tables_number   1
_chemical_formula_structural   Zr3W5
_chemical_formula_sum   'Zr6 W10'
_cell_volume   301.93791018
_cell_formula_units_Z   2
loop_
 _symmetry_equiv_pos_site_id
 _symmetry_equiv_pos_as_xyz
  1  'x, y, z'
loop_
 _atom_site_type_symbol
 _atom_site_label
 _atom_site_symmetry_multiplicity
 _atom_site_fract_x
 _atom_site_fract_y
 _atom_site_fract_z
 _atom_site_occupancy
  Zr  Zr0  1  0.68809200  0.18809200  0.87618400  1
  Zr  Zr1  1  0.31190800  0.81190800  0.12381600  1
  Zr  Zr2  1  0.81190800  0.68809200  0.50000000  1
  Zr  Zr3  1  0.18809200  0.31190800  0.50000000  1
  Zr  Zr4  1  0.75000000  0.75000000  0.00000000  1
  Zr  Zr5  1  0.25000000  0.25000000  0.00000000  1
  W  W0  1  0.25806200  0.05845900  0.31652100  1
  W  W1  1  0.74193800  0.94154100  0.68347900  1
  W  W2  1  0.24193800  0.55845900  0.80039700  1
  W  W3  1  0.75806200  0.44154100  0.19960300  1
  W  W4  1  0.05845900  0.74193800  0.80039700  1
  W  W5  1  0.94154100  0.25806200  0.19960300  1
  W  W6  1  0.55845900  0.75806200  0.31652100  1
  W  W7  1  0.44154100  0.24193800  0.68347900  1
  W  W8  1  0.25000000  0.75000000  0.50000000  1
  W  W9  1  0.75000000  0.25000000  0.50000000  1
loop_
_geom_bond_atom_site_label_1
_geom_bond_atom_site_label_2
_geom_bond_distance
_geom_bond_site_symmetry_2
Zr4 Zr5 2.656580 1_665
Zr4 Zr5 2.656580 1_555
W0 Zr1 2.690432 1_545
W0 Zr3 2.803093 1_555
W0 W8 2.967414 1_545
W0 W9 2.967414 1_555
W0 Zr2 3.049085 1_555
W0 Zr2 3.049085 1_445
W0 Zr4 3.117988 1_445
W0 Zr5 3.117988 1_555
W1 Zr0 2.690432 1_565
W1 Zr2 2.803093 1_555
W1 W9 2.967414 1_565
W1 W8 2.967414 1_555
W1 Zr3 3.049085 1_665
W1 Zr3 3.049085 1_555
W1 Zr5 3.117988 1_666
W1 Zr4 3.117988 1_556
W2 Zr3 2.690432 1_555
W2 Zr1 2.803093 1_556
W2 W9 2.967414 1_455
W2 W8 2.967414 1_555
W2 Zr0 3.049085 1_565
W2 Zr0 3.049085 1_455
W2 Zr4 3.117988 1_556
W2 Zr5 3.117988 1_556
W3 Zr2 2.690432 1_555
W3 Zr0 2.803093 1_554
W3 W9 2.967414 1_555
W3 W8 2.967414 1_655
W3 Zr1 3.049085 1_545
W3 Zr1 3.049085 1_655
W3 Zr5 3.117988 1_555
W3 Zr4 3.117988 1_555
W4 Zr2 2.690432 1_455
W4 Zr1 2.803093 1_556
W4 W8 2.967414 1_555
W4 W9 2.967414 1_455
W4 Zr0 3.049085 1_565
W4 Zr0 3.049085 1_455
W4 Zr5 3.117988 1_566
W4 Zr4 3.117988 1_456
W5 Zr3 2.690432 1_655
W5 Zr0 2.803093 1_554
W5 W8 2.967414 1_655
W5 W9 2.967414 1_555
W5 Zr1 3.049085 1_655
W5 Zr1 3.049085 1_545
W5 Zr4 3.117988 1_545
W5 Zr5 3.117988 1_655
W6 Zr1 2.690432 1_555
W6 Zr2 2.803093 1_555
W6 W8 2.967414 1_555
W6 W9 2.967414 1_565
W6 Zr3 3.049085 1_665
W6 Zr3 3.049085 1_555
W6 Zr5 3.117988 1_555
W6 Zr4 3.117988 1_555
W7 Zr0 2.690432 1_555
W7 Zr3 2.803093 1_555
W7 W8 2.967414 1_545
W7 W9 2.967414 1_555
W7 Zr2 3.049085 1_555
W7 Zr2 3.049085 1_445
W7 Zr5 3.117988 1_556
W7 Zr4 3.117988 1_556
W8 W9 2.656580 1_565
W8 W9 2.656580 1_455
W8 Zr2 3.131514 1_455
W8 Zr0 3.131514 1_565
W8 Zr1 3.131514 1_555
W8 Zr3 3.131514 1_555
W9 Zr2 3.131514 1_555
W9 Zr3 3.131514 1_655
W9 Zr1 3.131514 1_545
W9 Zr0 3.131514 1_555
