# generated using pymatgen
data_RbCoBr3
_symmetry_space_group_name_H-M   'P 1'
_cell_length_a   12.91575753
_cell_length_b   12.91575753
_cell_length_c   6.24363700
_cell_angle_alpha   90.00000000
_cell_angle_beta   90.00000000
_cell_angle_gamma   119.99999762
_symmetry_Int_Tables_number   1
_chemical_formula_structural   RbCoBr3
_chemical_formula_sum   'Rb6 Co6 Br18'
_cell_volume   902.00315104
_cell_formula_units_Z   6
loop_
 _symmetry_equiv_pos_site_id
 _symmetry_equiv_pos_as_xyz
  1  'x, y, z'
loop_
 _atom_site_type_symbol
 _atom_site_label
 _atom_site_symmetry_multiplicity
 _atom_site_fract_x
 _atom_site_fract_y
 _atom_site_fract_z
 _atom_site_occupancy
  Rb  Rb0  1  0.33437300  0.33317700  0.26970300  1
  Rb  Rb1  1  0.66682300  0.00119600  0.26970300  1
  Rb  Rb2  1  0.66682300  0.66562700  0.76970300  1
  Rb  Rb3  1  0.99880400  0.66562700  0.26970300  1
  Rb  Rb4  1  0.99880400  0.33317700  0.76970300  1
  Rb  Rb5  1  0.33437300  0.00119600  0.76970300  1
  Co  Co0  1  0.33333300  0.66666700  0.05096100  1
  Co  Co1  1  0.33333300  0.66666700  0.55096100  1
  Co  Co2  1  0.66666700  0.33333300  0.00698100  1
  Co  Co3  1  0.66666700  0.33333300  0.50698100  1
  Co  Co4  1  0.00000000  0.00000000  0.99174900  1
  Co  Co5  1  0.00000000  0.00000000  0.49174900  1
  Br  Br0  1  0.00030500  0.15849600  0.24112400  1
  Br  Br1  1  0.84150400  0.84180900  0.24112400  1
  Br  Br2  1  0.84150400  0.99969500  0.74112400  1
  Br  Br3  1  0.15819100  0.99969500  0.24112400  1
  Br  Br4  1  0.15819100  0.15849600  0.74112400  1
  Br  Br5  1  0.00030500  0.84180900  0.74112400  1
  Br  Br6  1  0.17415100  0.50747400  0.30275400  1
  Br  Br7  1  0.49252600  0.66667700  0.30275400  1
  Br  Br8  1  0.49252600  0.82584900  0.80275400  1
  Br  Br9  1  0.33332300  0.82584900  0.30275400  1
  Br  Br10  1  0.33332300  0.50747400  0.80275400  1
  Br  Br11  1  0.17415100  0.66667700  0.80275400  1
  Br  Br12  1  0.50766700  0.17386800  0.25718900  1
  Br  Br13  1  0.82613200  0.33379900  0.25718900  1
  Br  Br14  1  0.82613200  0.49233300  0.75718900  1
  Br  Br15  1  0.66620100  0.49233300  0.25718900  1
  Br  Br16  1  0.66620100  0.17386800  0.75718900  1
  Br  Br17  1  0.50766700  0.33379900  0.75718900  1
loop_
_geom_bond_atom_site_label_1
_geom_bond_atom_site_label_2
_geom_bond_distance
_geom_bond_site_symmetry_2
Br0 Co4 2.570374 1_554
Br0 Co5 2.575109 1_555
Br0 Rb4 3.714534 1_454
Br0 Rb1 3.736377 1_455
Br0 Rb0 3.742237 1_555
Br0 Rb4 4.003243 1_455
Br1 Co4 2.570374 1_664
Br1 Co5 2.575109 1_665
Br1 Rb2 3.714534 1_554
Br1 Rb3 3.736377 1_555
Br1 Rb1 3.742237 1_565
Br1 Rb2 4.003243 1_555
Br2 Co5 2.570374 1_665
Br2 Co4 2.575109 1_665
Br2 Rb1 3.714534 1_565
Br2 Rb4 3.736377 1_565
Br2 Rb2 3.742237 1_555
Br2 Rb1 4.003243 1_566
Br3 Co4 2.570374 1_564
Br3 Co5 2.575109 1_565
Br3 Rb5 3.714534 1_564
Br3 Rb0 3.736377 1_565
Br3 Rb3 3.742237 1_455
Br3 Rb5 4.003243 1_565
Br4 Co5 2.570374 1_555
Br4 Co4 2.575109 1_555
Br4 Rb0 3.714534 1_555
Br4 Rb5 3.736377 1_555
Br4 Rb4 3.742237 1_455
Br4 Rb0 4.003243 1_556
Br5 Co5 2.570374 1_565
Br5 Co4 2.575109 1_565
Br5 Rb3 3.714534 1_455
Br5 Rb2 3.736377 1_455
Br5 Rb5 3.742237 1_565
Br5 Rb3 4.003243 1_456
Br6 Co1 2.574658 1_555
Br6 Co0 2.588196 1_555
Br6 Rb4 3.687604 1_455
Br6 Rb3 3.737675 1_455
Br6 Rb0 3.748508 1_555
Br6 Rb4 4.021850 1_454
Br7 Co1 2.574663 1_555
Br7 Co0 2.588201 1_555
Br7 Rb2 3.687604 1_555
Br7 Rb0 3.737675 1_555
Br7 Rb1 3.748509 1_565
Br7 Rb2 4.021850 1_554
Br8 Co0 2.574658 1_556
Br8 Co1 2.588196 1_555
Br8 Rb1 3.687604 1_566
Br8 Rb5 3.737675 1_565
Br8 Rb2 3.748508 1_555
Br8 Rb1 4.021850 1_565
Br9 Co1 2.574653 1_555
Br9 Co0 2.588191 1_555
Br9 Rb5 3.687604 1_565
Br9 Rb1 3.737675 1_565
Br9 Rb3 3.748509 1_455
Br9 Rb5 4.021850 1_564
Br10 Co0 2.574663 1_556
Br10 Co1 2.588201 1_555
Br10 Rb0 3.687604 1_556
Br10 Rb2 3.737675 1_555
Br10 Rb4 3.748509 1_455
Br10 Rb0 4.021850 1_555
Br11 Co0 2.574653 1_556
Br11 Co1 2.588191 1_555
Br11 Rb3 3.687604 1_456
Br11 Rb4 3.737675 1_455
Br11 Rb5 3.748509 1_565
Br11 Rb3 4.021850 1_455
Br12 Co3 2.581095 1_555
Br12 Co2 2.582665 1_555
Br12 Rb1 3.713469 1_555
Br12 Rb0 3.722205 1_555
Br12 Rb5 3.775679 1_554
Br12 Rb5 3.902745 1_555
Br13 Co3 2.581090 1_555
Br13 Co2 2.582660 1_555
Br13 Rb3 3.713469 1_555
Br13 Rb1 3.722205 1_555
Br13 Rb4 3.775679 1_554
Br13 Rb4 3.902745 1_555
Br14 Co2 2.581095 1_556
Br14 Co3 2.582665 1_555
Br14 Rb4 3.713469 1_555
Br14 Rb2 3.722205 1_555
Br14 Rb3 3.775679 1_555
Br14 Rb3 3.902745 1_556
Br15 Co3 2.581100 1_555
Br15 Co2 2.582670 1_555
Br15 Rb0 3.713469 1_555
Br15 Rb3 3.722205 1_555
Br15 Rb2 3.775679 1_554
Br15 Rb2 3.902745 1_555
Br16 Co2 2.581090 1_556
Br16 Co3 2.582660 1_555
Br16 Rb5 3.713469 1_555
Br16 Rb4 3.722205 1_555
Br16 Rb1 3.775679 1_555
Br16 Rb1 3.902745 1_556
Br17 Co2 2.581100 1_556
Br17 Co3 2.582670 1_555
Br17 Rb2 3.713469 1_555
Br17 Rb5 3.722205 1_555
Br17 Rb0 3.775679 1_555
Br17 Rb0 3.902745 1_556
