# generated using pymatgen
data_Rb2MnBi2
_symmetry_space_group_name_H-M   'P 1'
_cell_length_a   3.74115200
_cell_length_b   3.74115200
_cell_length_c   16.93591200
_cell_angle_alpha   90.00000000
_cell_angle_beta   90.00000000
_cell_angle_gamma   90.00000000
_symmetry_Int_Tables_number   1
_chemical_formula_structural   Rb2MnBi2
_chemical_formula_sum   'Rb2 Mn1 Bi2'
_cell_volume   237.03872124
_cell_formula_units_Z   1
loop_
 _symmetry_equiv_pos_site_id
 _symmetry_equiv_pos_as_xyz
  1  'x, y, z'
loop_
 _atom_site_type_symbol
 _atom_site_label
 _atom_site_symmetry_multiplicity
 _atom_site_fract_x
 _atom_site_fract_y
 _atom_site_fract_z
 _atom_site_occupancy
  Rb  Rb0  1  0.50000000  0.50000000  0.63557900  1
  Rb  Rb1  1  0.50000000  0.50000000  0.36442100  1
  Mn  Mn0  1  0.50000000  0.50000000  0.00000000  1
  Bi  Bi0  1  0.50000000  0.50000000  0.15719000  1
  Bi  Bi1  1  0.50000000  0.50000000  0.84281000  1
loop_
_geom_bond_atom_site_label_1
_geom_bond_atom_site_label_2
_geom_bond_distance
_geom_bond_site_symmetry_2
Bi0 Mn0 2.662156 1_555
Bi0 Rb1 3.509646 1_555
Bi1 Mn0 2.662156 1_556
Bi1 Rb0 3.509646 1_555
