# generated using pymatgen
data_K2CoH4(I2O7)2
_symmetry_space_group_name_H-M   'P 1'
_cell_length_a   8.02422091
_cell_length_b   11.52520414
_cell_length_c   8.10769377
_cell_angle_alpha   87.76063869
_cell_angle_beta   88.36922496
_cell_angle_gamma   88.68676404
_symmetry_Int_Tables_number   1
_chemical_formula_structural   K2CoH4(I2O7)2
_chemical_formula_sum   'K4 Co2 H8 I8 O28'
_cell_volume   748.75129525
_cell_formula_units_Z   2
loop_
 _symmetry_equiv_pos_site_id
 _symmetry_equiv_pos_as_xyz
  1  'x, y, z'
loop_
 _atom_site_type_symbol
 _atom_site_label
 _atom_site_symmetry_multiplicity
 _atom_site_fract_x
 _atom_site_fract_y
 _atom_site_fract_z
 _atom_site_occupancy
  K  K0  1  0.32728700  0.67369200  0.32665200  1
  K  K1  1  0.82807700  0.17448500  0.82781200  1
  K  K2  1  0.06596600  0.93555300  0.06497200  1
  K  K3  1  0.56605700  0.43546700  0.56486200  1
  Co  Co0  1  0.53780400  0.95959600  0.54402300  1
  Co  Co1  1  0.03749600  0.46006100  0.04368600  1
  H  H0  1  0.61540500  0.75837200  0.71350900  1
  H  H1  1  0.11506900  0.25904800  0.21370000  1
  H  H2  1  0.78890500  0.83522000  0.69145700  1
  H  H3  1  0.28870200  0.33562800  0.19115500  1
  H  H4  1  0.86788900  0.66233200  0.96123100  1
  H  H5  1  0.36841700  0.16228600  0.46145000  1
  H  H6  1  0.88296200  0.58219400  0.79025500  1
  H  H7  1  0.38312800  0.08209200  0.29073500  1
  I  I0  1  0.06577800  0.42768900  0.59220300  1
  I  I1  1  0.56550200  0.92778600  0.09197700  1
  I  I2  1  0.33773100  0.17282800  0.80757200  1
  I  I3  1  0.83758400  0.67282500  0.30722400  1
  I  I4  1  0.61122400  0.42564800  0.05588200  1
  I  I5  1  0.11123800  0.92538600  0.55615200  1
  I  I6  1  0.79686500  0.16566000  0.35430400  1
  I  I7  1  0.29668200  0.66587600  0.85382200  1
  O  O0  1  0.90385300  0.58759500  0.91102300  1
  O  O1  1  0.40497700  0.08768300  0.41127000  1
  O  O2  1  0.66763200  0.83112700  0.66737200  1
  O  O3  1  0.16730100  0.33181400  0.16763800  1
  O  O4  1  0.07094000  0.83239800  0.38343200  1
  O  O5  1  0.57122800  0.33255400  0.88316900  1
  O  O6  1  0.32475600  0.77324500  0.01174900  1
  O  O7  1  0.82496300  0.27315200  0.51203100  1
  O  O8  1  0.23825600  0.52937200  0.59880100  1
  O  O9  1  0.73802800  0.02939400  0.09898000  1
  O  O10  1  0.65430700  0.58188200  0.28975200  1
  O  O11  1  0.15440900  0.08193200  0.79001500  1
  O  O12  1  0.88738400  0.53174900  0.60153300  1
  O  O13  1  0.38706500  0.03178900  0.10157700  1
  O  O14  1  0.82819700  0.75732900  0.10942700  1
  O  O15  1  0.32797600  0.25741000  0.60986800  1
  O  O16  1  0.05284800  0.36939500  0.80693100  1
  O  O17  1  0.55243200  0.86920500  0.30655000  1
  O  O18  1  0.51131000  0.07254800  0.75106700  1
  O  O19  1  0.01103500  0.57244800  0.25082400  1
  O  O20  1  0.99207900  0.85382100  0.72490500  1
  O  O21  1  0.49233300  0.35383800  0.22461900  1
  O  O22  1  0.51150700  0.64042300  0.78091200  1
  O  O23  1  0.01163800  0.14069800  0.28085800  1
  O  O24  1  0.82103700  0.36436700  0.10495600  1
  O  O25  1  0.32094400  0.86384500  0.60531300  1
  O  O26  1  0.77734100  0.03539600  0.49471800  1
  O  O27  1  0.27663400  0.53568300  0.99425700  1
loop_
_geom_bond_atom_site_label_1
_geom_bond_atom_site_label_2
_geom_bond_distance
_geom_bond_site_symmetry_2
K0 O6 2.758320 1_555
K0 O4 2.761927 1_555
K0 O8 2.797066 1_555
K0 O10 2.819171 1_555
K0 O19 2.908592 1_555
K0 O17 2.917025 1_555
K0 O25 3.207055 1_555
K0 O27 3.222563 1_554
K1 O5 2.758121 1_555
K1 O7 2.761064 1_555
K1 O9 2.798150 1_556
K1 O11 2.817879 1_655
K1 O16 2.909725 1_655
K1 O18 2.917574 1_555
K1 O24 3.195749 1_556
K1 O26 3.234135 1_555
K2 O6 2.798521 1_555
K2 O4 2.800971 1_555
K2 O11 2.826719 1_564
K2 O9 2.832281 1_465
K2 O14 2.841103 1_455
K2 O13 2.856084 1_565
K2 O23 3.012732 1_565
K2 O20 3.026940 1_454
K3 O7 2.798742 1_555
K3 O5 2.798814 1_555
K3 O10 2.827522 1_555
K3 O8 2.831493 1_555
K3 O15 2.841765 1_555
K3 O12 2.858053 1_555
K3 O22 3.011986 1_555
K3 O21 3.027550 1_555
Co0 O2 2.037298 1_555
Co0 O1 2.083920 1_565
Co0 O25 2.118670 1_555
Co0 O26 2.150209 1_565
Co0 O18 2.166912 1_565
Co0 O17 2.223591 1_555
Co1 O3 2.037763 1_555
Co1 O0 2.082600 1_454
Co1 O24 2.115631 1_455
Co1 O27 2.146619 1_554
Co1 O19 2.163414 1_555
Co1 O16 2.220157 1_554
H0 O2 1.000667 1_555
H0 O22 1.676184 1_555
H1 O3 1.000590 1_555
H1 O23 1.677482 1_555
H2 O2 1.000481 1_555
H2 O20 1.680223 1_555
H3 O3 1.000221 1_555
H3 O21 1.683138 1_555
H4 O0 1.000124 1_555
H4 O14 1.675968 1_556
H5 O1 0.999925 1_555
H5 O15 1.679224 1_555
H6 O0 1.002644 1_555
H6 O12 1.657095 1_555
H7 O1 1.002556 1_555
H7 O13 1.659830 1_555
I0 O8 1.837163 1_555
I0 O16 1.842433 1_555
I0 O12 1.848086 1_455
I1 O9 1.837143 1_565
I1 O17 1.842400 1_555
I1 O13 1.848031 1_565
I2 O11 1.837339 1_555
I2 O15 1.845889 1_555
I2 O18 1.848485 1_555
I3 O10 1.837280 1_555
I3 O14 1.845926 1_555
I3 O19 1.848211 1_655
I4 O21 1.827601 1_555
I4 O5 1.836791 1_554
I4 O24 1.858294 1_555
I4 O10 2.699965 1_555
I5 O20 1.827566 1_455
I5 O4 1.836591 1_555
I5 O25 1.858731 1_555
I5 O11 2.702547 1_565
I6 O23 1.827477 1_655
I6 O7 1.836841 1_555
I6 O26 1.855154 1_555
I6 O9 2.705235 1_555
I7 O22 1.827393 1_555
I7 O6 1.836990 1_556
I7 O27 1.854973 1_555
I7 O8 2.704285 1_555
