# generated using pymatgen
data_Na3Mg4(MoO4)6
_symmetry_space_group_name_H-M   'P 1'
_cell_length_a   7.10610600
_cell_length_b   8.81335246
_cell_length_c   10.46002617
_cell_angle_alpha   106.98368456
_cell_angle_beta   105.13837906
_cell_angle_gamma   103.53942730
_symmetry_Int_Tables_number   1
_chemical_formula_structural   Na3Mg4(MoO4)6
_chemical_formula_sum   'Na3 Mg4 Mo6 O24'
_cell_volume   569.57695272
_cell_formula_units_Z   1
loop_
 _symmetry_equiv_pos_site_id
 _symmetry_equiv_pos_as_xyz
  1  'x, y, z'
loop_
 _atom_site_type_symbol
 _atom_site_label
 _atom_site_symmetry_multiplicity
 _atom_site_fract_x
 _atom_site_fract_y
 _atom_site_fract_z
 _atom_site_occupancy
  Na  Na0  1  0.28594400  0.29159000  0.80122400  1
  Na  Na1  1  0.71405600  0.70841000  0.19877600  1
  Na  Na2  1  0.00000000  0.50000000  0.50000000  1
  Mg  Mg0  1  0.04253800  0.19957500  0.01721600  1
  Mg  Mg1  1  0.95746200  0.80042500  0.98278400  1
  Mg  Mg2  1  0.62416300  0.04376000  0.39739800  1
  Mg  Mg3  1  0.37583700  0.95624000  0.60260200  1
  Mo  Mo0  1  0.59416500  0.25698600  0.13075300  1
  Mo  Mo1  1  0.40583500  0.74301400  0.86924700  1
  Mo  Mo2  1  0.11748700  0.09454200  0.33388100  1
  Mo  Mo3  1  0.88251300  0.90545800  0.66611900  1
  Mo  Mo4  1  0.21508500  0.66407400  0.26106700  1
  Mo  Mo5  1  0.78491500  0.33592600  0.73893300  1
  O  O0  1  0.17527200  0.30954400  0.42253900  1
  O  O1  1  0.82472800  0.69045600  0.57746100  1
  O  O2  1  0.16271600  0.44518100  0.17079500  1
  O  O3  1  0.83728400  0.55481900  0.82920500  1
  O  O4  1  0.56575600  0.14705900  0.24801000  1
  O  O5  1  0.43424400  0.85294100  0.75199000  1
  O  O6  1  0.53584600  0.21923500  0.73190000  1
  O  O7  1  0.46415400  0.78076500  0.26810000  1
  O  O8  1  0.07799700  0.05682800  0.14604200  1
  O  O9  1  0.92200300  0.94317200  0.85395800  1
  O  O10  1  0.12094200  0.00559700  0.64794600  1
  O  O11  1  0.87905800  0.99440300  0.35205400  1
  O  O12  1  0.73256300  0.47311000  0.24082000  1
  O  O13  1  0.26743700  0.52689000  0.75918000  1
  O  O14  1  0.34612500  0.23646400  0.01072500  1
  O  O15  1  0.65387500  0.76353600  0.98927500  1
  O  O16  1  0.32994100  0.03055400  0.42189400  1
  O  O17  1  0.67005900  0.96944600  0.57810600  1
  O  O18  1  0.21666200  0.70896500  0.44101700  1
  O  O19  1  0.78333800  0.29103500  0.55898300  1
  O  O20  1  0.75378100  0.18837300  0.03403600  1
  O  O21  1  0.24621900  0.81162700  0.96596400  1
  O  O22  1  0.02299500  0.73064600  0.16009500  1
  O  O23  1  0.97700500  0.26935400  0.83990500  1
loop_
_geom_bond_atom_site_label_1
_geom_bond_atom_site_label_2
_geom_bond_distance
_geom_bond_site_symmetry_2
Na0 O6 2.240247 1_555
Na0 O13 2.267501 1_555
Na0 O23 2.308787 1_455
Na0 O14 2.334715 1_556
Na0 O10 2.360513 1_555
Na1 O7 2.240247 1_555
Na1 O12 2.267501 1_555
Na1 O22 2.308787 1_655
Na1 O15 2.334715 1_554
Na1 O11 2.360513 1_555
Na2 O1 2.395156 1_455
Na2 O0 2.395156 1_555
Na2 O18 2.444411 1_555
Na2 O19 2.444411 1_455
Na2 O13 2.782140 1_555
Na2 O12 2.782140 1_455
Mg0 O20 2.086864 1_455
Mg0 O2 2.093314 1_555
Mg0 O23 2.093854 1_454
Mg0 O8 2.103224 1_555
Mg0 O14 2.127284 1_555
Mg0 O9 2.198120 1_444
Mg1 O21 2.086864 1_655
Mg1 O3 2.093314 1_555
Mg1 O22 2.093854 1_656
Mg1 O9 2.103224 1_555
Mg1 O15 2.127284 1_555
Mg1 O8 2.198120 1_666
Mg2 O4 2.027834 1_555
Mg2 O11 2.095743 1_545
Mg2 O19 2.140320 1_555
Mg2 O17 2.146975 1_545
Mg2 O7 2.150800 1_545
Mg2 O16 2.152630 1_555
Mg3 O5 2.027834 1_555
Mg3 O10 2.095743 1_565
Mg3 O18 2.140320 1_555
Mg3 O16 2.146975 1_565
Mg3 O6 2.150800 1_565
Mg3 O17 2.152630 1_555
Mo0 O12 1.780797 1_555
Mo0 O4 1.793221 1_555
Mo0 O20 1.799652 1_555
Mo0 O14 1.810521 1_555
Mo1 O13 1.780797 1_555
Mo1 O5 1.793221 1_555
Mo1 O21 1.799652 1_555
Mo1 O15 1.810521 1_555
Mo2 O0 1.740523 1_555
Mo2 O11 1.803269 1_445
Mo2 O8 1.826607 1_555
Mo2 O16 1.849555 1_555
Mo3 O1 1.740523 1_555
Mo3 O10 1.803269 1_665
Mo3 O9 1.826607 1_555
Mo3 O17 1.849555 1_555
Mo4 O2 1.779875 1_555
Mo4 O7 1.797550 1_555
Mo4 O18 1.803189 1_555
Mo4 O22 1.818519 1_555
Mo5 O3 1.779875 1_555
Mo5 O6 1.797550 1_555
Mo5 O19 1.803189 1_555
Mo5 O23 1.818519 1_555
