# generated using pymatgen
data_Eu3VGeO9
_symmetry_space_group_name_H-M   'P 1'
_cell_length_a   7.04824623
_cell_length_b   9.40377298
_cell_length_c   12.56997500
_cell_angle_alpha   90.00000000
_cell_angle_beta   90.00000000
_cell_angle_gamma   107.59776586
_symmetry_Int_Tables_number   1
_chemical_formula_structural   Eu3VGeO9
_chemical_formula_sum   'Eu12 V4 Ge4 O36'
_cell_volume   794.15042293
_cell_formula_units_Z   4
loop_
 _symmetry_equiv_pos_site_id
 _symmetry_equiv_pos_as_xyz
  1  'x, y, z'
loop_
 _atom_site_type_symbol
 _atom_site_label
 _atom_site_symmetry_multiplicity
 _atom_site_fract_x
 _atom_site_fract_y
 _atom_site_fract_z
 _atom_site_occupancy
  Eu  Eu0  1  0.67360200  0.62664200  0.36757500  1
  Eu  Eu1  1  0.32639800  0.37335800  0.63242500  1
  Eu  Eu2  1  0.82639800  0.87335800  0.86757500  1
  Eu  Eu3  1  0.17360200  0.12664200  0.13242500  1
  Eu  Eu4  1  0.23770300  0.84878900  0.36645800  1
  Eu  Eu5  1  0.76229700  0.15121100  0.63354200  1
  Eu  Eu6  1  0.26229700  0.65121100  0.86645800  1
  Eu  Eu7  1  0.73770300  0.34878900  0.13354200  1
  Eu  Eu8  1  0.50564000  0.87673000  0.10870600  1
  Eu  Eu9  1  0.49436000  0.12327000  0.89129400  1
  Eu  Eu10  1  0.99436000  0.62327000  0.60870600  1
  Eu  Eu11  1  0.00564000  0.37673000  0.39129400  1
  V  V0  1  0.19722600  0.97788100  0.66424700  1
  V  V1  1  0.80277400  0.02211900  0.33575300  1
  V  V2  1  0.30277400  0.52211900  0.16424700  1
  V  V3  1  0.69722600  0.47788100  0.83575300  1
  Ge  Ge0  1  0.95546800  0.76264800  0.10154000  1
  Ge  Ge1  1  0.04453200  0.23735200  0.89846000  1
  Ge  Ge2  1  0.54453200  0.73735200  0.60154000  1
  Ge  Ge3  1  0.45546800  0.26264800  0.39846000  1
  O  O0  1  0.90132900  0.87303000  0.33953200  1
  O  O1  1  0.09867100  0.12697000  0.66046800  1
  O  O2  1  0.59867100  0.62697000  0.83953200  1
  O  O3  1  0.40132900  0.37303000  0.16046800  1
  O  O4  1  0.65787600  0.59135800  0.57463900  1
  O  O5  1  0.34212400  0.40864200  0.42536100  1
  O  O6  1  0.84212400  0.90864200  0.07463900  1
  O  O7  1  0.15787600  0.09135800  0.92536100  1
  O  O8  1  0.16664200  0.87744600  0.54620400  1
  O  O9  1  0.83335800  0.12255400  0.45379600  1
  O  O10  1  0.33335800  0.62255400  0.04620400  1
  O  O11  1  0.66664200  0.37744600  0.95379600  1
  O  O12  1  0.79334400  0.61755400  0.17506800  1
  O  O13  1  0.20665600  0.38244600  0.82493200  1
  O  O14  1  0.70665600  0.88244600  0.67506800  1
  O  O15  1  0.29334400  0.11755400  0.32493200  1
  O  O16  1  0.08065600  0.83822300  0.75435300  1
  O  O17  1  0.91934400  0.16177700  0.24564700  1
  O  O18  1  0.41934400  0.66177700  0.25435300  1
  O  O19  1  0.58065600  0.33822300  0.74564700  1
  O  O20  1  0.99678100  0.61707100  0.42302700  1
  O  O21  1  0.00321900  0.38292900  0.57697300  1
  O  O22  1  0.50321900  0.88292900  0.92302700  1
  O  O23  1  0.49678100  0.11707100  0.07697300  1
  O  O24  1  0.18023900  0.86626200  0.16888600  1
  O  O25  1  0.81976100  0.13373800  0.83111400  1
  O  O26  1  0.31976100  0.63373800  0.66888600  1
  O  O27  1  0.68023900  0.36626200  0.33111400  1
  O  O28  1  0.56091200  0.95934200  0.28845900  1
  O  O29  1  0.43908800  0.04065800  0.71154100  1
  O  O30  1  0.93908800  0.54065800  0.78845900  1
  O  O31  1  0.06091200  0.45934200  0.21154100  1
  O  O32  1  0.49226900  0.77596600  0.46905500  1
  O  O33  1  0.50773100  0.22403400  0.53094500  1
  O  O34  1  0.00773100  0.72403400  0.96905500  1
  O  O35  1  0.99226900  0.27596600  0.03094500  1
loop_
_geom_bond_atom_site_label_1
_geom_bond_atom_site_label_2
_geom_bond_distance
_geom_bond_site_symmetry_2
Eu0 O18 2.388348 1_555
Eu0 O20 2.409667 1_555
Eu0 O0 2.412509 1_555
Eu0 O27 2.505378 1_555
Eu0 O32 2.513491 1_555
Eu0 O12 2.572679 1_555
Eu0 O4 2.621956 1_555
Eu0 O5 2.700483 1_555
Eu1 O19 2.388348 1_555
Eu1 O21 2.409667 1_555
Eu1 O1 2.412509 1_555
Eu1 O26 2.505378 1_555
Eu1 O33 2.513491 1_555
Eu1 O13 2.572679 1_555
Eu1 O5 2.621956 1_555
Eu1 O4 2.700483 1_555
Eu2 O16 2.388348 1_655
Eu2 O22 2.409667 1_555
Eu2 O2 2.412509 1_555
Eu2 O25 2.505378 1_565
Eu2 O34 2.513491 1_655
Eu2 O14 2.572679 1_555
Eu2 O6 2.621956 1_556
Eu2 O7 2.700483 1_665
Eu3 O17 2.388348 1_455
Eu3 O23 2.409667 1_555
Eu3 O3 2.412509 1_555
Eu3 O24 2.505378 1_545
Eu3 O35 2.513491 1_455
Eu3 O15 2.572679 1_555
Eu3 O7 2.621956 1_554
Eu3 O6 2.700483 1_445
Eu4 O8 2.347337 1_555
Eu4 O28 2.408233 1_555
Eu4 O20 2.428967 1_455
Eu4 O32 2.468687 1_555
Eu4 O0 2.472696 1_455
Eu4 O15 2.492932 1_565
Eu4 O24 2.529610 1_555
Eu4 O18 2.842339 1_555
Eu5 O9 2.347337 1_555
Eu5 O29 2.408233 1_555
Eu5 O21 2.428967 1_655
Eu5 O33 2.468687 1_555
Eu5 O1 2.472696 1_655
Eu5 O14 2.492932 1_545
Eu5 O25 2.529610 1_555
Eu5 O19 2.842339 1_555
Eu6 O10 2.347337 1_556
Eu6 O30 2.408233 1_455
Eu6 O22 2.428967 1_555
Eu6 O34 2.468687 1_555
Eu6 O2 2.472696 1_555
Eu6 O13 2.492932 1_555
Eu6 O26 2.529610 1_555
Eu6 O16 2.842339 1_555
Eu7 O11 2.347337 1_554
Eu7 O31 2.408233 1_655
Eu7 O23 2.428967 1_555
Eu7 O35 2.468687 1_555
Eu7 O3 2.472696 1_555
Eu7 O12 2.492932 1_555
Eu7 O27 2.529610 1_555
Eu7 O17 2.842339 1_555
Eu8 O23 2.314400 1_565
Eu8 O22 2.334899 1_554
Eu8 O6 2.338306 1_555
Eu8 O28 2.382768 1_555
Eu8 O24 2.388636 1_555
Eu8 O10 2.459649 1_555
Eu8 O18 2.657860 1_555
Eu9 O22 2.314400 1_545
Eu9 O23 2.334899 1_556
Eu9 O7 2.338306 1_555
Eu9 O29 2.382768 1_555
Eu9 O25 2.388636 1_555
Eu9 O11 2.459649 1_555
Eu9 O19 2.657860 1_555
Eu10 O21 2.314400 1_655
Eu10 O20 2.334899 1_555
Eu10 O4 2.338306 1_555
Eu10 O30 2.382768 1_555
Eu10 O26 2.388636 1_655
Eu10 O8 2.459649 1_655
Eu10 O16 2.657860 1_655
Eu11 O20 2.314400 1_455
Eu11 O21 2.334899 1_555
Eu11 O5 2.338306 1_555
Eu11 O31 2.382768 1_555
Eu11 O27 2.388636 1_455
Eu11 O9 2.459649 1_455
Eu11 O17 2.657860 1_455
Ge0 O12 1.754678 1_555
Ge0 O34 1.766850 1_654
Ge0 O24 1.800681 1_655
Ge0 O6 1.816746 1_555
Ge1 O13 1.754678 1_555
Ge1 O35 1.766850 1_456
Ge1 O25 1.800681 1_455
Ge1 O7 1.816746 1_555
Ge2 O14 1.754678 1_555
Ge2 O32 1.766850 1_555
Ge2 O26 1.800681 1_555
Ge2 O4 1.816746 1_555
Ge3 O15 1.754678 1_555
Ge3 O33 1.766850 1_555
Ge3 O27 1.800681 1_555
Ge3 O5 1.816746 1_555
O0 V1 1.743346 1_565
O1 V0 1.743346 1_545
O2 V3 1.743346 1_555
O3 V2 1.743346 1_555
O8 V0 1.736962 1_555
O9 V1 1.736962 1_555
O10 V2 1.736962 1_555
O11 V3 1.736962 1_555
O16 V0 1.740757 1_555
O17 V1 1.740757 1_555
O18 V2 1.740757 1_555
O19 V3 1.740757 1_555
O28 V1 1.731883 1_565
O29 V0 1.731883 1_545
O30 V3 1.731883 1_555
O31 V2 1.731883 1_555
