# generated using pymatgen
data_Fe3(PO5)2
_symmetry_space_group_name_H-M   'P 1'
_cell_length_a   7.30061104
_cell_length_b   7.30061104
_cell_length_c   5.16457967
_cell_angle_alpha   70.74534399
_cell_angle_beta   70.74534399
_cell_angle_gamma   43.97882226
_symmetry_Int_Tables_number   1
_chemical_formula_structural   Fe3(PO5)2
_chemical_formula_sum   'Fe3 P2 O10'
_cell_volume   178.64671553
_cell_formula_units_Z   1
loop_
 _symmetry_equiv_pos_site_id
 _symmetry_equiv_pos_as_xyz
  1  'x, y, z'
loop_
 _atom_site_type_symbol
 _atom_site_label
 _atom_site_symmetry_multiplicity
 _atom_site_fract_x
 _atom_site_fract_y
 _atom_site_fract_z
 _atom_site_occupancy
  Fe  Fe0  1  0.00000000  0.50000000  0.50000000  1
  Fe  Fe1  1  0.50000000  0.00000000  0.50000000  1
  Fe  Fe2  1  0.50000000  0.50000000  0.50000000  1
  P  P0  1  0.88693300  0.88693300  0.86352200  1
  P  P1  1  0.11306600  0.11306600  0.13647800  1
  O  O0  1  0.17181200  0.17181200  0.81334600  1
  O  O1  1  0.18604500  0.71302400  0.78721300  1
  O  O2  1  0.71302400  0.18604500  0.78721300  1
  O  O3  1  0.20062200  0.20062200  0.27585100  1
  O  O4  1  0.82818800  0.82818800  0.18665400  1
  O  O5  1  0.81395500  0.28697600  0.21278700  1
  O  O6  1  0.28697600  0.81395500  0.21278700  1
  O  O7  1  0.79937800  0.79937800  0.72414900  1
  O  O8  1  0.64208700  0.64208700  0.55337100  1
  O  O9  1  0.35791300  0.35791300  0.44662900  1
loop_
_geom_bond_atom_site_label_1
_geom_bond_atom_site_label_2
_geom_bond_distance
_geom_bond_site_symmetry_2
Fe0 O9 1.947386 1_555
Fe0 O8 1.947386 1_455
Fe0 O7 2.050773 1_455
Fe0 O3 2.050773 1_555
Fe0 O4 2.095031 1_455
Fe0 O0 2.095031 1_555
Fe1 O9 1.947386 1_555
Fe1 O8 1.947386 1_545
Fe1 O7 2.050773 1_545
Fe1 O3 2.050773 1_555
Fe1 O4 2.095031 1_545
Fe1 O0 2.095031 1_555
Fe2 O2 2.005351 1_555
Fe2 O1 2.005351 1_555
Fe2 O5 2.005351 1_555
Fe2 O6 2.005351 1_555
Fe2 O8 2.038095 1_555
Fe2 O9 2.038095 1_555
O0 P1 1.572746 1_556
O1 P0 1.519237 1_455
O2 P0 1.519237 1_545
O3 P1 1.590678 1_555
O4 P0 1.572744 1_554
O5 P1 1.519231 1_655
O6 P1 1.519231 1_565
O7 P0 1.590666 1_555
