# generated using pymatgen
data_Ti2FeB2Ru4Rh
_symmetry_space_group_name_H-M   'P 1'
_cell_length_a   2.94493100
_cell_length_b   9.15272000
_cell_length_c   9.24212643
_cell_angle_alpha   89.80156252
_cell_angle_beta   90.00000000
_cell_angle_gamma   90.00000000
_symmetry_Int_Tables_number   1
_chemical_formula_structural   Ti2FeB2Ru4Rh
_chemical_formula_sum   'Ti4 Fe2 B4 Ru8 Rh2'
_cell_volume   249.11197269
_cell_formula_units_Z   2
loop_
 _symmetry_equiv_pos_site_id
 _symmetry_equiv_pos_as_xyz
  1  'x, y, z'
loop_
 _atom_site_type_symbol
 _atom_site_label
 _atom_site_symmetry_multiplicity
 _atom_site_fract_x
 _atom_site_fract_y
 _atom_site_fract_z
 _atom_site_occupancy
  Ti  Ti0  1  0.00000000  0.82481300  0.68032300  1
  Ti  Ti1  1  0.00000000  0.17518700  0.31967700  1
  Ti  Ti2  1  0.00000000  0.67526500  0.17136300  1
  Ti  Ti3  1  0.00000000  0.32473500  0.82863700  1
  Fe  Fe0  1  0.00000000  0.50000000  0.50000000  1
  Fe  Fe1  1  0.00000000  0.00000000  0.00000000  1
  B  B0  1  0.00000000  0.37506800  0.12537100  1
  B  B1  1  0.00000000  0.62493200  0.87462900  1
  B  B2  1  0.00000000  0.12230000  0.62657600  1
  B  B3  1  0.00000000  0.87770000  0.37342400  1
  Ru  Ru0  1  0.50000000  0.21133500  0.07404700  1
  Ru  Ru1  1  0.50000000  0.78866500  0.92595300  1
  Ru  Ru2  1  0.50000000  0.42675100  0.28968500  1
  Ru  Ru3  1  0.50000000  0.57324900  0.71031500  1
  Ru  Ru4  1  0.50000000  0.92520400  0.21257900  1
  Ru  Ru5  1  0.50000000  0.07479600  0.78742100  1
  Ru  Ru6  1  0.50000000  0.00000000  0.50000000  1
  Ru  Ru7  1  0.50000000  0.50000000  0.00000000  1
  Rh  Rh0  1  0.50000000  0.28672700  0.57308500  1
  Rh  Rh1  1  0.50000000  0.71327300  0.42691500  1
loop_
_geom_bond_atom_site_label_1
_geom_bond_atom_site_label_2
_geom_bond_distance
_geom_bond_site_symmetry_2
Fe0 Ru2 2.530780 1_455
Fe0 Ru2 2.530780 1_555
Fe0 Ru3 2.530780 1_455
Fe0 Ru3 2.530780 1_555
Fe0 Rh0 2.534893 1_455
Fe0 Rh0 2.534893 1_555
Fe0 Rh1 2.534893 1_555
Fe0 Rh1 2.534893 1_455
Fe1 Ru0 2.527279 1_455
Fe1 Ru0 2.527279 1_555
Fe1 Ru1 2.527279 1_544
Fe1 Ru1 2.527279 1_444
Fe1 Ru5 2.547052 1_554
Fe1 Ru4 2.547052 1_545
Fe1 Ru5 2.547052 1_454
Fe1 Ru4 2.547052 1_445
B0 Ru0 2.154968 1_455
B0 Ru0 2.154968 1_555
B0 Ru2 2.168658 1_455
B0 Ru2 2.168658 1_555
B0 Ru7 2.192959 1_455
B0 Ru7 2.192959 1_555
B0 Ti1 2.559111 1_555
B0 Ti2 2.781758 1_555
B0 Ti3 2.782450 1_554
B1 Ru1 2.154968 1_555
B1 Ru1 2.154968 1_455
B1 Ru3 2.168658 1_455
B1 Ru3 2.168658 1_555
B1 Ru7 2.192959 1_456
B1 Ru7 2.192959 1_556
B1 Ti0 2.559111 1_555
B1 Ti3 2.781758 1_555
B1 Ti2 2.782450 1_556
B2 Ru5 2.136013 1_555
B2 Ru5 2.136013 1_455
B2 Rh0 2.161548 1_455
B2 Rh0 2.161548 1_555
B2 Ru6 2.190602 1_555
B2 Ru6 2.190602 1_455
B2 Ti3 2.635224 1_555
B2 Ti0 2.766062 1_545
B2 Ti1 2.875755 1_555
B3 Ru4 2.136013 1_455
B3 Ru4 2.136013 1_555
B3 Rh1 2.161548 1_455
B3 Rh1 2.161548 1_555
B3 Ru6 2.190602 1_465
B3 Ru6 2.190602 1_565
B3 Ti2 2.635224 1_555
B3 Ti1 2.766062 1_565
B3 Ti0 2.875755 1_555
Ru0 Ti1 2.725063 1_555
Ru0 Ti1 2.725063 1_655
Ru0 Ti3 2.893691 1_554
Ru0 Ti3 2.893691 1_654
Ru1 Ti0 2.725063 1_555
Ru1 Ti0 2.725063 1_655
Ru1 Ti2 2.893691 1_656
Ru1 Ti2 2.893691 1_556
Ru2 Ti1 2.746279 1_655
Ru2 Ti1 2.746279 1_555
Ru2 Ti2 2.918986 1_555
Ru2 Ti2 2.918986 1_655
Ru3 Ti0 2.746279 1_555
Ru3 Ti0 2.746279 1_655
Ru3 Ti3 2.918986 1_555
Ru3 Ti3 2.918986 1_655
Ru4 Ti2 2.748182 1_655
Ru4 Ti2 2.748182 1_555
Ru4 Ti1 2.898039 1_565
Ru4 Ti1 2.898039 1_665
Ru5 Ti3 2.748182 1_655
Ru5 Ti3 2.748182 1_555
Ru5 Ti0 2.898039 1_645
Ru5 Ti0 2.898039 1_545
Ru6 Ti0 2.738267 1_545
Ru6 Ti0 2.738267 1_645
Ru6 Ti1 2.738267 1_555
Ru6 Ti1 2.738267 1_655
Ru7 Ti2 2.695801 1_555
Ru7 Ti2 2.695801 1_655
Ru7 Ti3 2.695801 1_554
Ru7 Ti3 2.695801 1_654
Rh0 Ti3 2.805917 1_555
Rh0 Ti3 2.805917 1_655
Rh0 Ti1 2.951617 1_655
Rh0 Ti1 2.951617 1_555
Rh1 Ti2 2.805917 1_655
Rh1 Ti2 2.805917 1_555
Rh1 Ti0 2.951617 1_655
Rh1 Ti0 2.951617 1_555
