# generated using pymatgen
data_HfV2
_symmetry_space_group_name_H-M   'P 1'
_cell_length_a   5.16895110
_cell_length_b   5.17620103
_cell_length_c   5.18023072
_cell_angle_alpha   118.52979337
_cell_angle_beta   118.36017508
_cell_angle_gamma   92.84722073
_symmetry_Int_Tables_number   1
_chemical_formula_structural   HfV2
_chemical_formula_sum   'Hf2 V4'
_cell_volume   100.06483488
_cell_formula_units_Z   2
loop_
 _symmetry_equiv_pos_site_id
 _symmetry_equiv_pos_as_xyz
  1  'x, y, z'
loop_
 _atom_site_type_symbol
 _atom_site_label
 _atom_site_symmetry_multiplicity
 _atom_site_fract_x
 _atom_site_fract_y
 _atom_site_fract_z
 _atom_site_occupancy
  Hf  Hf0  1  0.49750315  0.50101482  -0.00351001  1
  Hf  Hf1  1  0.25249685  0.74898518  0.50351001  1
  V  V0  1  0.87500000  0.62500000  0.75000000  1
  V  V1  1  0.37500000  0.12500000  0.25000000  1
  V  V2  1  0.87500000  0.12500000  0.75000000  1
  V  V3  1  0.87500000  0.12500000  0.25000000  1
loop_
_geom_bond_atom_site_label_1
_geom_bond_atom_site_label_2
_geom_bond_distance
_geom_bond_site_symmetry_2
Hf0 V3 2.975209 1_565
Hf0 V2 2.978713 1_454
Hf0 V0 2.979108 1_554
Hf0 V1 3.003812 1_555
Hf0 V3 3.076154 1_454
Hf0 V0 3.079037 1_454
Hf0 V1 3.082063 1_565
Hf0 V1 3.082951 1_554
Hf0 V2 3.093672 1_565
Hf0 V2 3.097801 1_554
Hf0 V0 3.114854 1_555
Hf0 V3 3.115231 1_555
Hf0 Hf1 3.161178 1_554
Hf0 Hf1 3.196898 1_544
Hf0 Hf1 3.201709 1_555
Hf0 Hf1 3.212477 1_655
Hf1 V3 2.975209 1_455
Hf1 V2 2.978713 1_565
Hf1 V0 2.979108 1_455
Hf1 V1 3.003812 1_565
Hf1 V3 3.076154 1_566
Hf1 V0 3.079037 1_555
Hf1 V1 3.082063 1_555
Hf1 V1 3.082951 1_566
Hf1 V2 3.093672 1_454
Hf1 V2 3.097801 1_465
Hf1 V0 3.114854 1_454
Hf1 V3 3.115231 1_465
V0 V1 2.580511 1_555
V0 V1 2.580511 1_666
V0 V2 2.588101 1_565
V0 V2 2.588101 1_555
V0 V3 2.646429 1_555
V0 V3 2.646429 1_566
V1 V3 2.584476 1_455
V1 V3 2.584476 1_555
V1 V2 2.651161 1_454
V1 V2 2.651161 1_555
V2 V3 2.590115 1_555
V2 V3 2.590115 1_556
