# generated using pymatgen
data_CaSc4(Si2O7)2
_symmetry_space_group_name_H-M   'P 1'
_cell_length_a   8.29472324
_cell_length_b   8.29472325
_cell_length_c   8.29472305
_cell_angle_alpha   45.27796435
_cell_angle_beta   45.27796436
_cell_angle_gamma   45.27796326
_symmetry_Int_Tables_number   1
_chemical_formula_structural   CaSc4(Si2O7)2
_chemical_formula_sum   'Ca1 Sc4 Si4 O14'
_cell_volume   262.39319394
_cell_formula_units_Z   1
loop_
 _symmetry_equiv_pos_site_id
 _symmetry_equiv_pos_as_xyz
  1  'x, y, z'
loop_
 _atom_site_type_symbol
 _atom_site_label
 _atom_site_symmetry_multiplicity
 _atom_site_fract_x
 _atom_site_fract_y
 _atom_site_fract_z
 _atom_site_occupancy
  Ca  Ca0  1  0.25103987  0.25103987  0.25103987  1
  Sc  Sc0  1  0.97119270  0.50425760  0.97119271  1
  Sc  Sc1  1  0.50425760  0.97119270  0.97119271  1
  Sc  Sc2  1  0.97119270  0.97119270  0.50425760  1
  Sc  Sc3  1  0.01337101  0.01337101  0.01337101  1
  Si  Si0  1  0.52876164  0.03651417  0.52876164  1
  Si  Si1  1  0.03651417  0.52876164  0.52876164  1
  Si  Si2  1  0.52876164  0.52876164  0.03651417  1
  Si  Si3  1  0.49539078  0.49539078  0.49539078  1
  O  O0  1  0.42701246  0.81860486  0.81860486  1
  O  O1  1  0.16456689  0.57522225  0.57522225  1
  O  O2  1  0.81860486  0.42701246  0.81860486  1
  O  O3  1  0.81860486  0.81860486  0.42701246  1
  O  O4  1  0.38129588  0.38129588  0.82003297  1
  O  O5  1  0.38129588  0.82003297  0.38129588  1
  O  O6  1  0.20758890  0.59282565  0.20758890  1
  O  O7  1  0.57522225  0.16456689  0.57522225  1
  O  O8  1  0.10149317  0.10149317  0.10149317  1
  O  O9  1  0.86816297  0.86816297  0.86816297  1
  O  O10  1  0.82003297  0.38129588  0.38129588  1
  O  O11  1  0.57522225  0.57522225  0.16456689  1
  O  O12  1  0.20758890  0.20758890  0.59282565  1
  O  O13  1  0.59282565  0.20758890  0.20758890  1
loop_
_geom_bond_atom_site_label_1
_geom_bond_atom_site_label_2
_geom_bond_distance
_geom_bond_site_symmetry_2
Ca0 O12 2.367269 1_555
Ca0 O13 2.367269 1_555
Ca0 O6 2.367269 1_555
Ca0 O4 2.426242 1_554
Ca0 O10 2.426242 1_455
Ca0 O5 2.426242 1_545
O0 Si2 1.713200 1_556
O0 Si0 1.713200 1_565
O0 Sc3 2.250198 1_566
O1 Si1 1.669243 1_555
O1 Si3 1.977273 1_555
O1 Sc2 2.213748 1_455
O1 Sc0 2.213748 1_455
O2 Si2 1.713200 1_556
O2 Si1 1.713200 1_655
O2 Sc3 2.250198 1_656
O3 Si1 1.713200 1_655
O3 Si0 1.713200 1_565
O3 Sc3 2.250198 1_665
O4 Si3 1.769180 1_555
O4 Sc0 2.257954 1_455
O4 Sc1 2.257954 1_545
O5 Si3 1.769180 1_555
O5 Sc1 2.257954 1_554
O5 Sc2 2.257954 1_455
O6 Si1 1.772520 1_555
O6 Si2 1.772520 1_555
O6 Sc3 2.279011 1_565
O7 Si0 1.669243 1_555
O7 Si3 1.977273 1_555
O7 Sc2 2.213748 1_545
O7 Sc1 2.213748 1_545
O8 Sc3 1.964337 1_555
O8 Sc2 2.231181 1_445
O8 Sc1 2.231181 1_544
O8 Sc0 2.231181 1_454
O9 Sc2 2.083044 1_555
O9 Sc1 2.083045 1_555
O9 Sc0 2.083045 1_555
O10 Si3 1.769180 1_555
O10 Sc0 2.257954 1_554
O10 Sc2 2.257954 1_545
O11 Si2 1.669243 1_555
O11 Si3 1.977273 1_555
O11 Sc0 2.213748 1_554
O11 Sc1 2.213748 1_554
O12 Si0 1.772520 1_555
O12 Si1 1.772520 1_555
O12 Sc3 2.279011 1_556
O13 Si0 1.772520 1_555
O13 Si2 1.772520 1_555
O13 Sc3 2.279011 1_655
