# generated using pymatgen
data_Hf8Mg(N2O)4
_symmetry_space_group_name_H-M   'P 1'
_cell_length_a   5.74339446
_cell_length_b   5.73644845
_cell_length_c   10.86591167
_cell_angle_alpha   104.78886989
_cell_angle_beta   89.55324408
_cell_angle_gamma   59.47042796
_symmetry_Int_Tables_number   1
_chemical_formula_structural   Hf8Mg(N2O)4
_chemical_formula_sum   'Hf8 Mg1 N8 O4'
_cell_volume   294.06117757
_cell_formula_units_Z   1
loop_
 _symmetry_equiv_pos_site_id
 _symmetry_equiv_pos_as_xyz
  1  'x, y, z'
loop_
 _atom_site_type_symbol
 _atom_site_label
 _atom_site_symmetry_multiplicity
 _atom_site_fract_x
 _atom_site_fract_y
 _atom_site_fract_z
 _atom_site_occupancy
  Hf  Hf0  1  0.09669900  0.39074900  0.23756800  1
  Hf  Hf1  1  0.20470200  0.80878800  0.81434300  1
  Hf  Hf2  1  0.49667200  0.22598400  0.94019600  1
  Hf  Hf3  1  0.66462400  0.28119000  0.52519200  1
  Hf  Hf4  1  0.34027200  0.92640000  0.51463900  1
  Hf  Hf5  1  0.74783500  0.08273200  0.23567300  1
  Hf  Hf6  1  0.45571500  0.73245500  0.23607700  1
  Hf  Hf7  1  0.00629400  0.57335800  0.52238800  1
  Mg  Mg0  1  0.86791600  0.48310800  0.82308800  1
  N  N0  1  0.36878800  0.17807200  0.37892500  1
  N  N1  1  0.44823800  0.34943600  0.14530600  1
  N  N2  1  0.28848600  0.66270500  0.61135200  1
  N  N3  1  0.70447400  0.48152400  0.37983800  1
  N  N4  1  0.51329500  0.50421400  0.86872100  1
  N  N5  1  0.79766600  0.68685600  0.16221100  1
  N  N6  1  0.96661000  0.31910000  0.61449400  1
  N  N7  1  0.84998300  0.85709000  0.87312200  1
  O  O0  1  0.11848400  0.01592900  0.15991300  1
  O  O1  1  0.03833800  0.85549600  0.38756600  1
  O  O2  1  0.19136700  0.17807700  0.87455700  1
  O  O3  1  0.64064300  0.97330700  0.58885200  1
loop_
_geom_bond_atom_site_label_1
_geom_bond_atom_site_label_2
_geom_bond_distance
_geom_bond_site_symmetry_2
Hf0 O0 2.037043 1_555
Hf0 N5 2.067250 1_455
Hf0 N1 2.121009 1_555
Hf0 N0 2.312322 1_555
Hf0 N3 2.465477 1_455
Hf0 O1 2.596469 1_555
Hf1 N4 1.985023 1_555
Hf1 N7 1.987739 1_455
Hf1 O2 2.012061 1_565
Hf1 N2 2.104514 1_555
Hf2 N4 1.986489 1_555
Hf2 N7 1.988426 1_545
Hf2 O2 2.016917 1_555
Hf2 N1 2.128489 1_556
Hf3 N6 2.073359 1_555
Hf3 N2 2.110016 1_555
Hf3 O3 2.118042 1_545
Hf3 N3 2.248505 1_555
Hf3 O1 2.359462 1_645
Hf3 N0 2.519144 1_555
Hf4 O3 2.020234 1_555
Hf4 N6 2.159123 1_465
Hf4 N2 2.178240 1_555
Hf4 O1 2.355072 1_555
Hf4 N0 2.368342 1_565
Hf4 N3 2.377842 1_555
Hf5 N5 2.070476 1_545
Hf5 O0 2.083040 1_655
Hf5 N1 2.093890 1_555
Hf5 N3 2.309734 1_555
Hf5 N0 2.400897 1_555
Hf5 O1 2.477628 1_645
Hf6 N5 1.978906 1_555
Hf6 O0 2.143077 1_565
Hf6 N1 2.189153 1_555
Hf6 N3 2.376284 1_555
Hf6 N0 2.420468 1_565
Hf6 O1 2.565240 1_555
Hf7 N6 2.064051 1_455
Hf7 O3 2.104994 1_455
Hf7 N2 2.106987 1_555
Hf7 N0 2.292341 1_555
Hf7 N3 2.496942 1_455
Hf7 O1 2.511630 1_555
Mg0 O2 2.009703 1_655
Mg0 N7 2.021835 1_555
Mg0 N4 2.027771 1_555
Mg0 N6 2.166398 1_555
