# generated using pymatgen
data_Dy3(In2Co)2
_symmetry_space_group_name_H-M   'P 1'
_cell_length_a   8.18234643
_cell_length_b   8.18234643
_cell_length_c   3.49854900
_cell_angle_alpha   90.00000000
_cell_angle_beta   90.00000000
_cell_angle_gamma   120.00000351
_symmetry_Int_Tables_number   1
_chemical_formula_structural   Dy3(In2Co)2
_chemical_formula_sum   'Dy3 In4 Co2'
_cell_volume   202.84966918
_cell_formula_units_Z   1
loop_
 _symmetry_equiv_pos_site_id
 _symmetry_equiv_pos_as_xyz
  1  'x, y, z'
loop_
 _atom_site_type_symbol
 _atom_site_label
 _atom_site_symmetry_multiplicity
 _atom_site_fract_x
 _atom_site_fract_y
 _atom_site_fract_z
 _atom_site_occupancy
  Dy  Dy0  1  0.41777400  0.07281100  0.50000000  1
  Dy  Dy1  1  0.65503700  0.58222600  0.50000000  1
  Dy  Dy2  1  0.92718900  0.34496300  0.50000000  1
  In  In0  1  0.33333300  0.66666700  0.50000000  1
  In  In1  1  0.24382600  0.27903600  0.00000000  1
  In  In2  1  0.03521000  0.75617400  0.00000000  1
  In  In3  1  0.72096400  0.96479000  0.00000000  1
  Co  Co0  1  0.66666700  0.33333300  0.00000000  1
  Co  Co1  1  0.00000000  0.00000000  0.50000000  1
loop_
_geom_bond_atom_site_label_1
_geom_bond_atom_site_label_2
_geom_bond_distance
_geom_bond_site_symmetry_2
Dy0 In0 3.037271 1_545
Dy0 In1 3.214774 1_555
Dy0 In1 3.214774 1_556
Dy0 In2 3.385405 1_546
Dy0 In2 3.385405 1_545
Dy0 In3 3.491171 1_545
Dy0 In3 3.491171 1_546
Dy1 In0 3.037279 1_555
Dy1 In2 3.214774 1_655
Dy1 In2 3.214774 1_656
Dy1 In3 3.385405 1_556
Dy1 In3 3.385405 1_555
Dy1 In1 3.491171 1_555
Dy1 In1 3.491171 1_556
Dy2 In0 3.037274 1_655
Dy2 In3 3.214774 1_545
Dy2 In3 3.214774 1_546
Dy2 In1 3.385405 1_655
Dy2 In1 3.385405 1_656
Dy2 In2 3.491171 1_656
Dy2 In2 3.491171 1_655
In0 In2 3.366492 1_556
In0 In2 3.366492 1_555
In0 In3 3.366496 1_556
In0 In3 3.366496 1_555
In0 In1 3.366498 1_556
In0 In1 3.366498 1_555
Co0 Dy2 2.722174 1_554
Co0 Dy2 2.722174 1_555
Co0 Dy0 2.722177 1_554
Co0 Dy0 2.722177 1_555
Co0 Dy1 2.722180 1_554
Co0 Dy1 2.722180 1_555
Co0 In3 3.260466 1_545
Co0 In2 3.260471 1_655
Co0 In1 3.260474 1_555
Co1 In1 2.774535 1_555
Co1 In1 2.774535 1_556
Co1 In3 2.774535 1_446
Co1 In3 2.774535 1_445
Co1 In2 2.774535 1_546
Co1 In2 2.774535 1_545
Co1 Dy1 3.162855 1_445
Co1 Dy0 3.162855 1_555
Co1 Dy2 3.162855 1_455
