# generated using pymatgen
data_Mg30BWO32
_symmetry_space_group_name_H-M   'P 1'
_cell_length_a   8.55573400
_cell_length_b   8.55573400
_cell_length_c   8.58472200
_cell_angle_alpha   90.00000000
_cell_angle_beta   90.00000000
_cell_angle_gamma   90.00000000
_symmetry_Int_Tables_number   1
_chemical_formula_structural   Mg30BWO32
_chemical_formula_sum   'Mg30 B1 W1 O32'
_cell_volume   628.40666627
_cell_formula_units_Z   1
loop_
 _symmetry_equiv_pos_site_id
 _symmetry_equiv_pos_as_xyz
  1  'x, y, z'
loop_
 _atom_site_type_symbol
 _atom_site_label
 _atom_site_symmetry_multiplicity
 _atom_site_fract_x
 _atom_site_fract_y
 _atom_site_fract_z
 _atom_site_occupancy
  Mg  Mg0  1  0.00000000  0.50000000  0.00000000  1
  Mg  Mg1  1  0.00000000  0.50000000  0.50000000  1
  Mg  Mg2  1  0.50000000  0.00000000  0.00000000  1
  Mg  Mg3  1  0.50000000  0.00000000  0.50000000  1
  Mg  Mg4  1  0.50000000  0.50000000  0.00000000  1
  Mg  Mg5  1  0.50000000  0.50000000  0.50000000  1
  Mg  Mg6  1  0.00000000  0.25138500  0.25784100  1
  Mg  Mg7  1  0.00000000  0.25138500  0.74215900  1
  Mg  Mg8  1  0.00000000  0.74861500  0.25784100  1
  Mg  Mg9  1  0.00000000  0.74861500  0.74215900  1
  Mg  Mg10  1  0.50000000  0.24979600  0.25147700  1
  Mg  Mg11  1  0.50000000  0.24979600  0.74852300  1
  Mg  Mg12  1  0.50000000  0.75020400  0.25147700  1
  Mg  Mg13  1  0.50000000  0.75020400  0.74852300  1
  Mg  Mg14  1  0.25138500  0.00000000  0.25784100  1
  Mg  Mg15  1  0.25138500  0.00000000  0.74215900  1
  Mg  Mg16  1  0.24979600  0.50000000  0.25147700  1
  Mg  Mg17  1  0.24979600  0.50000000  0.74852300  1
  Mg  Mg18  1  0.74861500  0.00000000  0.25784100  1
  Mg  Mg19  1  0.74861500  0.00000000  0.74215900  1
  Mg  Mg20  1  0.75020400  0.50000000  0.25147700  1
  Mg  Mg21  1  0.75020400  0.50000000  0.74852300  1
  Mg  Mg22  1  0.25332200  0.25332200  0.00000000  1
  Mg  Mg23  1  0.24810300  0.24810300  0.50000000  1
  Mg  Mg24  1  0.25332200  0.74667800  0.00000000  1
  Mg  Mg25  1  0.24810300  0.75189700  0.50000000  1
  Mg  Mg26  1  0.74667800  0.25332200  0.00000000  1
  Mg  Mg27  1  0.75189700  0.24810300  0.50000000  1
  Mg  Mg28  1  0.74667800  0.74667800  0.00000000  1
  Mg  Mg29  1  0.75189700  0.75189700  0.50000000  1
  B  B0  1  0.00000000  0.00000000  0.50000000  1
  W  W0  1  0.00000000  0.00000000  0.00000000  1
  O  O0  1  0.25397600  0.00000000  0.00000000  1
  O  O1  1  0.26566500  0.00000000  0.50000000  1
  O  O2  1  0.25030900  0.50000000  0.00000000  1
  O  O3  1  0.25213500  0.50000000  0.50000000  1
  O  O4  1  0.74602400  0.00000000  0.00000000  1
  O  O5  1  0.73433500  0.00000000  0.50000000  1
  O  O6  1  0.74969100  0.50000000  0.00000000  1
  O  O7  1  0.74786500  0.50000000  0.50000000  1
  O  O8  1  0.24891300  0.24891300  0.24931200  1
  O  O9  1  0.24891300  0.24891300  0.75068800  1
  O  O10  1  0.24891300  0.75108700  0.24931200  1
  O  O11  1  0.24891300  0.75108700  0.75068800  1
  O  O12  1  0.75108700  0.24891300  0.24931200  1
  O  O13  1  0.75108700  0.24891300  0.75068800  1
  O  O14  1  0.75108700  0.75108700  0.24931200  1
  O  O15  1  0.75108700  0.75108700  0.75068800  1
  O  O16  1  0.00000000  0.00000000  0.24706100  1
  O  O17  1  0.00000000  0.00000000  0.75293900  1
  O  O18  1  0.00000000  0.50000000  0.24676200  1
  O  O19  1  0.00000000  0.50000000  0.75323800  1
  O  O20  1  0.50000000  0.00000000  0.24676200  1
  O  O21  1  0.50000000  0.00000000  0.75323800  1
  O  O22  1  0.50000000  0.50000000  0.24857500  1
  O  O23  1  0.50000000  0.50000000  0.75142500  1
  O  O24  1  0.00000000  0.25397600  0.00000000  1
  O  O25  1  0.00000000  0.26566500  0.50000000  1
  O  O26  1  0.00000000  0.74602400  0.00000000  1
  O  O27  1  0.00000000  0.73433500  0.50000000  1
  O  O28  1  0.50000000  0.25030900  0.00000000  1
  O  O29  1  0.50000000  0.25213500  0.50000000  1
  O  O30  1  0.50000000  0.74969100  0.00000000  1
  O  O31  1  0.50000000  0.74786500  0.50000000  1
loop_
_geom_bond_atom_site_label_1
_geom_bond_atom_site_label_2
_geom_bond_distance
_geom_bond_site_symmetry_2
Mg0 O24 2.104916 1_555
Mg0 O26 2.104916 1_555
Mg0 O18 2.118383 1_555
Mg0 O19 2.118383 1_554
Mg0 O6 2.141577 1_455
Mg0 O2 2.141577 1_555
Mg1 O27 2.004908 1_555
Mg1 O25 2.004908 1_555
Mg1 O3 2.157200 1_555
Mg1 O7 2.157200 1_455
Mg1 O19 2.173978 1_555
Mg1 O18 2.173978 1_555
Mg2 O4 2.104916 1_555
Mg2 O0 2.104916 1_555
Mg2 O20 2.118383 1_555
Mg2 O21 2.118383 1_554
Mg2 O30 2.141577 1_545
Mg2 O28 2.141577 1_555
Mg3 O5 2.004908 1_555
Mg3 O1 2.004908 1_555
Mg3 O31 2.157200 1_545
Mg3 O29 2.157200 1_555
Mg3 O21 2.173978 1_555
Mg3 O20 2.173978 1_555
Mg4 O22 2.133947 1_555
Mg4 O23 2.133947 1_554
Mg4 O30 2.136290 1_555
Mg4 O2 2.136290 1_555
Mg4 O28 2.136290 1_555
Mg4 O6 2.136290 1_555
Mg5 O31 2.120667 1_555
Mg5 O3 2.120667 1_555
Mg5 O7 2.120667 1_555
Mg5 O29 2.120667 1_555
Mg5 O22 2.158414 1_555
Mg5 O23 2.158414 1_555
Mg6 O25 2.082455 1_555
Mg6 O18 2.129209 1_555
Mg6 O8 2.130997 1_555
Mg6 O12 2.130997 1_455
Mg6 O16 2.152773 1_555
Mg6 O24 2.213604 1_555
Mg7 O25 2.082455 1_555
Mg7 O19 2.129209 1_555
Mg7 O9 2.130997 1_555
Mg7 O13 2.130997 1_455
Mg7 O17 2.152773 1_555
Mg7 O24 2.213604 1_556
Mg8 O27 2.082455 1_555
Mg8 O18 2.129209 1_555
Mg8 O10 2.130997 1_555
Mg8 O14 2.130997 1_455
Mg8 O16 2.152773 1_565
Mg8 O26 2.213604 1_555
Mg9 O27 2.082455 1_555
Mg9 O19 2.129209 1_555
Mg9 O11 2.130997 1_555
Mg9 O15 2.130997 1_455
Mg9 O17 2.152773 1_565
Mg9 O26 2.213604 1_556
Mg10 O29 2.133595 1_555
Mg10 O20 2.137571 1_555
Mg10 O22 2.140824 1_555
Mg10 O12 2.148327 1_555
Mg10 O8 2.148327 1_555
Mg10 O28 2.158865 1_555
Mg11 O29 2.133595 1_555
Mg11 O21 2.137571 1_555
Mg11 O23 2.140824 1_555
Mg11 O13 2.148327 1_555
Mg11 O9 2.148327 1_555
Mg11 O28 2.158865 1_556
Mg12 O31 2.133595 1_555
Mg12 O20 2.137571 1_565
Mg12 O22 2.140824 1_555
Mg12 O14 2.148327 1_555
Mg12 O10 2.148327 1_555
Mg12 O30 2.158865 1_555
Mg13 O31 2.133595 1_555
Mg13 O21 2.137571 1_565
Mg13 O23 2.140824 1_555
Mg13 O15 2.148327 1_555
Mg13 O11 2.148327 1_555
Mg13 O30 2.158865 1_556
Mg14 O1 2.082455 1_555
Mg14 O20 2.129209 1_555
Mg14 O8 2.130997 1_555
Mg14 O10 2.130997 1_545
Mg14 O16 2.152773 1_555
Mg14 O0 2.213604 1_555
Mg15 O1 2.082455 1_555
Mg15 O21 2.129209 1_555
Mg15 O9 2.130997 1_555
Mg15 O11 2.130997 1_545
Mg15 O17 2.152773 1_555
Mg15 O0 2.213604 1_556
Mg16 O3 2.133595 1_555
Mg16 O18 2.137571 1_555
Mg16 O22 2.140824 1_555
Mg16 O10 2.148327 1_555
Mg16 O8 2.148327 1_555
Mg16 O2 2.158865 1_555
Mg17 O3 2.133595 1_555
Mg17 O19 2.137571 1_555
Mg17 O23 2.140824 1_555
Mg17 O11 2.148327 1_555
Mg17 O9 2.148327 1_555
Mg17 O2 2.158865 1_556
Mg18 O5 2.082455 1_555
Mg18 O20 2.129209 1_555
Mg18 O12 2.130997 1_555
Mg18 O14 2.130997 1_545
Mg18 O16 2.152773 1_655
Mg18 O4 2.213604 1_555
Mg19 O5 2.082455 1_555
Mg19 O21 2.129209 1_555
Mg19 O13 2.130997 1_555
Mg19 O15 2.130997 1_545
Mg19 O17 2.152773 1_655
Mg19 O4 2.213604 1_556
Mg20 O7 2.133595 1_555
Mg20 O18 2.137571 1_655
Mg20 O22 2.140824 1_555
Mg20 O14 2.148327 1_555
Mg20 O12 2.148327 1_555
Mg20 O6 2.158865 1_555
Mg21 O7 2.133595 1_555
Mg21 O19 2.137571 1_655
Mg21 O23 2.140824 1_555
Mg21 O15 2.148327 1_555
Mg21 O13 2.148327 1_555
Mg21 O6 2.158865 1_556
Mg22 O2 2.110669 1_555
Mg22 O28 2.110669 1_555
Mg22 O8 2.140939 1_555
Mg22 O9 2.140939 1_554
Mg22 O24 2.167363 1_555
Mg22 O0 2.167363 1_555
Mg23 O25 2.128015 1_555
Mg23 O1 2.128015 1_555
Mg23 O9 2.152109 1_555
Mg23 O8 2.152109 1_555
Mg23 O29 2.155440 1_555
Mg23 O3 2.155440 1_555
Mg24 O2 2.110669 1_555
Mg24 O30 2.110669 1_555
Mg24 O10 2.140939 1_555
Mg24 O11 2.140939 1_554
Mg24 O26 2.167363 1_555
Mg24 O0 2.167363 1_565
Mg25 O27 2.128015 1_555
Mg25 O1 2.128015 1_565
Mg25 O11 2.152109 1_555
Mg25 O10 2.152109 1_555
Mg25 O3 2.155440 1_555
Mg25 O31 2.155440 1_555
Mg26 O28 2.110669 1_555
Mg26 O6 2.110669 1_555
Mg26 O12 2.140939 1_555
Mg26 O13 2.140939 1_554
Mg26 O4 2.167363 1_555
Mg26 O24 2.167363 1_655
Mg27 O5 2.128015 1_555
Mg27 O25 2.128015 1_655
Mg27 O13 2.152109 1_555
Mg27 O12 2.152109 1_555
Mg27 O29 2.155440 1_555
Mg27 O7 2.155440 1_555
Mg28 O6 2.110669 1_555
Mg28 O30 2.110669 1_555
Mg28 O14 2.140939 1_555
Mg28 O15 2.140939 1_554
Mg28 O26 2.167363 1_655
Mg28 O4 2.167363 1_565
Mg29 O27 2.128015 1_655
Mg29 O5 2.128015 1_565
Mg29 O15 2.152109 1_555
Mg29 O14 2.152109 1_555
Mg29 O7 2.155440 1_555
Mg29 O31 2.155440 1_555
B0 O17 2.171411 1_555
B0 O16 2.171411 1_555
B0 O1 2.272959 1_555
B0 O25 2.272959 1_555
B0 O27 2.272959 1_545
B0 O5 2.272959 1_455
O0 W0 2.172951 1_555
O4 W0 2.172951 1_655
O16 W0 2.120950 1_555
O17 W0 2.120950 1_556
O24 W0 2.172951 1_555
O26 W0 2.172951 1_565
