# generated using pymatgen
data_Cu4NiGe2S7
_symmetry_space_group_name_H-M   'P 1'
_cell_length_a   5.30430500
_cell_length_b   6.42453109
_cell_length_c   8.34769136
_cell_angle_alpha   97.87936058
_cell_angle_beta   90.00000000
_cell_angle_gamma   114.38189164
_symmetry_Int_Tables_number   1
_chemical_formula_structural   Cu4NiGe2S7
_chemical_formula_sum   'Cu4 Ni1 Ge2 S7'
_cell_volume   256.14763070
_cell_formula_units_Z   1
loop_
 _symmetry_equiv_pos_site_id
 _symmetry_equiv_pos_as_xyz
  1  'x, y, z'
loop_
 _atom_site_type_symbol
 _atom_site_label
 _atom_site_symmetry_multiplicity
 _atom_site_fract_x
 _atom_site_fract_y
 _atom_site_fract_z
 _atom_site_occupancy
  Cu  Cu0  1  0.12201200  0.28253200  0.43153300  1
  Cu  Cu1  1  0.83947900  0.71746800  0.56846700  1
  Cu  Cu2  1  0.70531500  0.42034100  0.13909800  1
  Cu  Cu3  1  0.28497400  0.57965900  0.86090200  1
  Ni  Ni0  1  0.00020000  0.00000000  0.00000000  1
  Ge  Ge0  1  0.43200400  0.85039500  0.27882200  1
  Ge  Ge1  1  0.58160900  0.14960500  0.72117800  1
  S  S0  1  0.24844600  0.00000000  0.50000000  1
  S  S1  1  0.82164000  0.13772300  0.20798700  1
  S  S2  1  0.68391700  0.86227700  0.79201300  1
  S  S3  1  0.52091700  0.56208000  0.35419100  1
  S  S4  1  0.95883700  0.43792000  0.64580900  1
  S  S5  1  0.09665400  0.71765700  0.07327900  1
  S  S6  1  0.37899800  0.28234300  0.92672100  1
loop_
_geom_bond_atom_site_label_1
_geom_bond_atom_site_label_2
_geom_bond_distance
_geom_bond_site_symmetry_2
Cu0 S4 2.273549 1_455
Cu0 S1 2.277392 1_455
Cu0 S3 2.302137 1_555
Cu0 S0 2.315303 1_555
Cu1 S3 2.273546 1_555
Cu1 S2 2.277389 1_555
Cu1 S4 2.302140 1_555
Cu1 S0 2.315306 1_665
Cu2 S1 2.284599 1_555
Cu2 S6 2.286280 1_554
Cu2 S5 2.296392 1_655
Cu2 S3 2.301499 1_555
Cu3 S2 2.284599 1_555
Cu3 S5 2.286284 1_556
Cu3 S6 2.296395 1_555
Cu3 S4 2.301499 1_455
Ni0 S2 2.228249 1_444
Ni0 S1 2.228249 1_455
Ni0 S5 2.235330 1_545
Ni0 S6 2.235333 1_554
Ge0 S3 2.256106 1_555
Ge0 S1 2.275523 1_565
Ge0 S5 2.276348 1_555
Ge0 S0 2.359405 1_565
Ge1 S4 2.256106 1_555
Ge1 S2 2.275523 1_545
Ge1 S6 2.276345 1_555
Ge1 S0 2.359405 1_555
