# generated using pymatgen
data_CaCoO3
_symmetry_space_group_name_H-M   'P 1'
_cell_length_a   5.30049500
_cell_length_b   5.41262400
_cell_length_c   7.48887000
_cell_angle_alpha   90.00000000
_cell_angle_beta   90.00000000
_cell_angle_gamma   90.00000000
_symmetry_Int_Tables_number   1
_chemical_formula_structural   CaCoO3
_chemical_formula_sum   'Ca4 Co4 O12'
_cell_volume   214.85258327
_cell_formula_units_Z   4
loop_
 _symmetry_equiv_pos_site_id
 _symmetry_equiv_pos_as_xyz
  1  'x, y, z'
loop_
 _atom_site_type_symbol
 _atom_site_label
 _atom_site_symmetry_multiplicity
 _atom_site_fract_x
 _atom_site_fract_y
 _atom_site_fract_z
 _atom_site_occupancy
  Ca  Ca0  1  0.49115700  0.54676100  0.25000000  1
  Ca  Ca1  1  0.99115700  0.95323900  0.75000000  1
  Ca  Ca2  1  0.00884300  0.04676100  0.25000000  1
  Ca  Ca3  1  0.50884300  0.45323900  0.75000000  1
  Co  Co0  1  0.00000000  0.50000000  0.00000000  1
  Co  Co1  1  0.50000000  0.00000000  0.00000000  1
  Co  Co2  1  0.50000000  0.00000000  0.50000000  1
  Co  Co3  1  0.00000000  0.50000000  0.50000000  1
  O  O0  1  0.42719900  0.01693400  0.75000000  1
  O  O1  1  0.92719900  0.48306600  0.25000000  1
  O  O2  1  0.07280100  0.51693400  0.75000000  1
  O  O3  1  0.57280100  0.98306600  0.25000000  1
  O  O4  1  0.21057300  0.79335000  0.46106200  1
  O  O5  1  0.71057300  0.70665000  0.53893800  1
  O  O6  1  0.28942700  0.29335000  0.03893800  1
  O  O7  1  0.78942700  0.20665000  0.96106200  1
  O  O8  1  0.21057300  0.79335000  0.03893800  1
  O  O9  1  0.71057300  0.70665000  0.96106200  1
  O  O10  1  0.78942700  0.20665000  0.53893800  1
  O  O11  1  0.28942700  0.29335000  0.46106200  1
loop_
_geom_bond_atom_site_label_1
_geom_bond_atom_site_label_2
_geom_bond_distance
_geom_bond_site_symmetry_2
Ca0 O1 2.336810 1_555
Ca0 O11 2.350111 1_555
Ca0 O6 2.350111 1_555
Ca0 O3 2.400878 1_555
Ca0 O4 2.547866 1_555
Ca0 O8 2.547866 1_555
Ca0 O9 2.604547 1_554
Ca0 O5 2.604547 1_555
Ca1 O0 2.336810 1_665
Ca1 O10 2.350111 1_565
Ca1 O7 2.350111 1_565
Ca1 O2 2.400878 1_655
Ca1 O5 2.547866 1_555
Ca1 O9 2.547866 1_555
Ca1 O8 2.604547 1_656
Ca1 O4 2.604547 1_655
Ca2 O3 2.336810 1_445
Ca2 O4 2.350111 1_545
Ca2 O8 2.350111 1_545
Ca2 O1 2.400878 1_455
Ca2 O11 2.547866 1_555
Ca2 O6 2.547866 1_555
Ca2 O10 2.604547 1_455
Ca2 O7 2.604547 1_454
Ca3 O2 2.336810 1_555
Ca3 O5 2.350111 1_555
Ca3 O9 2.350111 1_555
Ca3 O0 2.400878 1_555
Ca3 O7 2.547866 1_555
Ca3 O10 2.547866 1_555
Ca3 O6 2.604547 1_556
Ca3 O11 2.604547 1_555
Co0 O2 1.913767 1_554
Co0 O1 1.913767 1_455
Co0 O6 1.920833 1_555
Co0 O9 1.920833 1_454
Co0 O8 1.962623 1_555
Co0 O7 1.962623 1_454
Co1 O0 1.913767 1_554
Co1 O3 1.913767 1_545
Co1 O7 1.920833 1_554
Co1 O8 1.920833 1_545
Co1 O9 1.962623 1_544
Co1 O6 1.962623 1_555
Co2 O0 1.913767 1_555
Co2 O3 1.913767 1_545
Co2 O10 1.920833 1_555
Co2 O4 1.920833 1_545
Co2 O5 1.962623 1_545
Co2 O11 1.962623 1_555
Co3 O2 1.913767 1_555
Co3 O1 1.913767 1_455
Co3 O5 1.920833 1_455
Co3 O11 1.920833 1_555
Co3 O4 1.962623 1_555
Co3 O10 1.962623 1_455
