# generated using pymatgen
data_Ti5Bi4(PbO9)2
_symmetry_space_group_name_H-M   'P 1'
_cell_length_a   25.05427571
_cell_length_b   25.05427571
_cell_length_c   5.52540334
_cell_angle_alpha   89.88220017
_cell_angle_beta   89.88220017
_cell_angle_gamma   167.25693656
_symmetry_Int_Tables_number   1
_chemical_formula_structural   Ti5Bi4(PbO9)2
_chemical_formula_sum   'Ti10 Bi8 Pb4 O36'
_cell_volume   764.92349960
_cell_formula_units_Z   2
loop_
 _symmetry_equiv_pos_site_id
 _symmetry_equiv_pos_as_xyz
  1  'x, y, z'
loop_
 _atom_site_type_symbol
 _atom_site_label
 _atom_site_symmetry_multiplicity
 _atom_site_fract_x
 _atom_site_fract_y
 _atom_site_fract_z
 _atom_site_occupancy
  Ti  Ti0  1  0.94621400  0.61128000  0.48917800  1
  Ti  Ti1  1  0.09786900  0.43097200  0.48998600  1
  Ti  Ti2  1  0.43097200  0.09786900  0.98998600  1
  Ti  Ti3  1  0.61128000  0.94621400  0.98917800  1
  Ti  Ti4  1  0.83874600  0.67870200  0.49983400  1
  Ti  Ti5  1  0.19380900  0.35428300  0.48851200  1
  Ti  Ti6  1  0.35428300  0.19380900  0.98851200  1
  Ti  Ti7  1  0.67870200  0.83874600  0.99983400  1
  Ti  Ti8  1  0.01782000  0.51864300  0.49764600  1
  Ti  Ti9  1  0.51864300  0.01782000  0.99764600  1
  Bi  Bi0  1  0.34580400  0.10934000  0.47605900  1
  Bi  Bi1  1  0.10934000  0.34580400  0.97605900  1
  Bi  Bi2  1  0.51555900  0.92856200  0.48063000  1
  Bi  Bi3  1  0.92856200  0.51555900  0.98063000  1
  Bi  Bi4  1  0.71031500  0.76094800  0.46966300  1
  Bi  Bi5  1  0.26286300  0.21240600  0.52518700  1
  Bi  Bi6  1  0.21240600  0.26286300  0.02518700  1
  Bi  Bi7  1  0.76094800  0.71031500  0.96966300  1
  Pb  Pb0  1  0.63049100  0.87635200  0.49437600  1
  Pb  Pb1  1  0.87635200  0.63049100  0.99437600  1
  Pb  Pb2  1  0.46255000  0.04532700  0.48967700  1
  Pb  Pb3  1  0.04532700  0.46255000  0.98967700  1
  O  O0  1  0.61811500  0.43647500  0.74980800  1
  O  O1  1  0.94402400  0.12357200  0.25152700  1
  O  O2  1  0.12357200  0.94402400  0.75152700  1
  O  O3  1  0.43647500  0.61811500  0.24980800  1
  O  O4  1  0.80624900  0.29940900  0.76212100  1
  O  O5  1  0.79990200  0.30842700  0.25504600  1
  O  O6  1  0.30842700  0.79990200  0.75504600  1
  O  O7  1  0.29940900  0.80624900  0.26212100  1
  O  O8  1  0.00115000  0.00322900  0.75521500  1
  O  O9  1  0.50189600  0.50036000  0.24480300  1
  O  O10  1  0.50036000  0.50189600  0.74480300  1
  O  O11  1  0.00322900  0.00115000  0.25521500  1
  O  O12  1  0.75887800  0.42333100  0.79613700  1
  O  O13  1  0.92686500  0.25790300  0.21207600  1
  O  O14  1  0.25790300  0.92686500  0.71207600  1
  O  O15  1  0.42333100  0.75887800  0.29613700  1
  O  O16  1  0.83842700  0.18991400  0.71691900  1
  O  O17  1  0.70283000  0.35701500  0.27912700  1
  O  O18  1  0.35701500  0.70283000  0.77912700  1
  O  O19  1  0.18991400  0.83842700  0.21691900  1
  O  O20  1  0.01354900  0.59380300  0.56920100  1
  O  O21  1  0.11026300  0.53033300  0.46359900  1
  O  O22  1  0.53033300  0.11026300  0.96359900  1
  O  O23  1  0.59380300  0.01354900  0.06920100  1
  O  O24  1  0.81931000  0.72950900  0.54902800  1
  O  O25  1  0.23926100  0.32928300  0.44992500  1
  O  O26  1  0.32928300  0.23926100  0.94992500  1
  O  O27  1  0.72950900  0.81931000  0.04902800  1
  O  O28  1  0.95844800  0.12923600  0.76664500  1
  O  O29  1  0.61635500  0.44590300  0.25148200  1
  O  O30  1  0.44590300  0.61635500  0.75148200  1
  O  O31  1  0.12923600  0.95844800  0.26664500  1
  O  O32  1  0.95271300  0.69277100  0.46674200  1
  O  O33  1  0.15126600  0.41116900  0.55984900  1
  O  O34  1  0.41116900  0.15126600  0.05984900  1
  O  O35  1  0.69277100  0.95271300  0.96674200  1
loop_
_geom_bond_atom_site_label_1
_geom_bond_atom_site_label_2
_geom_bond_distance
_geom_bond_site_symmetry_2
Bi0 O31 2.258479 1_545
Bi0 O32 2.327338 1_445
Bi0 O2 2.329254 1_545
Bi0 O34 2.385987 1_555
Bi0 O29 2.648249 1_555
Bi0 O0 2.650030 1_555
Bi0 O14 2.788326 1_545
Bi1 O28 2.258479 1_455
Bi1 O35 2.327338 1_445
Bi1 O1 2.329254 1_456
Bi1 O33 2.385987 1_555
Bi1 O30 2.648249 1_555
Bi1 O3 2.650030 1_556
Bi1 O13 2.788326 1_456
Bi2 O21 2.244752 1_555
Bi2 O15 2.305764 1_555
Bi2 O23 2.316006 1_565
Bi2 O18 2.568127 1_555
Bi2 O16 2.601515 1_565
Bi2 O6 2.633638 1_555
Bi2 O7 2.800823 1_555
Bi3 O22 2.244752 1_555
Bi3 O12 2.305764 1_555
Bi3 O20 2.316006 1_655
Bi3 O17 2.568127 1_556
Bi3 O19 2.601515 1_656
Bi3 O5 2.633638 1_556
Bi3 O4 2.800823 1_555
Bi4 O9 2.234176 1_555
Bi4 O11 2.293196 1_665
Bi4 O10 2.330817 1_555
Bi4 O8 2.496965 1_665
Bi4 O27 2.526039 1_555
Bi4 O25 2.698823 1_555
Bi5 O8 2.231396 1_555
Bi5 O10 2.315446 1_555
Bi5 O11 2.337253 1_555
Bi5 O9 2.438591 1_555
Bi5 O26 2.562817 1_555
Bi5 O24 2.756767 1_445
Bi6 O11 2.231396 1_555
Bi6 O9 2.315446 1_555
Bi6 O8 2.337253 1_554
Bi6 O10 2.438591 1_554
Bi6 O25 2.562817 1_555
Bi6 O27 2.756767 1_445
Bi7 O10 2.234176 1_555
Bi7 O8 2.293196 1_665
Bi7 O9 2.330817 1_556
Bi7 O11 2.496965 1_666
Bi7 O24 2.526039 1_555
Bi7 O26 2.698823 1_555
O0 Ti4 1.946077 1_555
O0 Ti6 1.982862 1_555
O0 Pb1 2.455051 1_555
O1 Ti5 1.946749 1_655
O1 Ti7 2.142080 1_544
O1 Pb0 2.623013 1_545
O2 Ti6 1.946749 1_565
O2 Ti4 2.142080 1_455
O2 Pb1 2.623013 1_455
O3 Ti7 1.946077 1_554
O3 Ti5 1.982862 1_555
O3 Pb0 2.455051 1_555
O4 Ti8 1.881964 1_655
O4 Ti9 2.035754 1_555
O4 Pb3 2.541411 1_655
O5 Ti8 1.819274 1_655
O5 Ti9 2.165384 1_554
O5 Pb2 2.793916 1_555
O6 Ti9 1.819274 1_565
O6 Ti8 2.165384 1_555
O6 Pb3 2.793916 1_555
O7 Ti9 1.881964 1_564
O7 Ti8 2.035754 1_555
O7 Pb2 2.541411 1_565
O12 Ti0 1.974865 1_555
O12 Ti2 2.092601 1_555
O12 Pb1 2.652931 1_555
O13 Ti1 1.824893 1_655
O13 Ti3 2.155838 1_544
O13 Pb3 2.623241 1_654
O14 Ti2 1.824893 1_565
O14 Ti0 2.155838 1_455
O14 Pb2 2.623241 1_565
O15 Ti3 1.974865 1_554
O15 Ti1 2.092601 1_555
O15 Pb0 2.652931 1_555
O16 Ti1 1.911456 1_655
O16 Ti3 2.018367 1_545
O16 Pb3 2.608178 1_655
O17 Ti0 1.842407 1_555
O17 Ti2 2.218050 1_554
O17 Pb2 2.608436 1_555
O18 Ti3 1.842407 1_555
O18 Ti1 2.218050 1_555
O18 Pb3 2.608436 1_555
O19 Ti2 1.911456 1_564
O19 Ti0 2.018367 1_455
O19 Pb2 2.608178 1_565
O20 Ti8 2.027245 1_555
O20 Ti0 2.162545 1_455
O20 Pb2 2.534833 1_565
O21 Ti8 2.039647 1_555
O21 Ti1 2.192087 1_555
O21 Pb3 2.652191 1_554
O22 Ti9 2.039647 1_555
O22 Ti2 2.192087 1_555
O22 Pb2 2.652191 1_555
O23 Ti9 2.027245 1_554
O23 Ti3 2.162545 1_544
O23 Pb3 2.534833 1_654
O24 Ti4 1.772408 1_555
O25 Ti5 1.767918 1_555
O26 Ti6 1.767918 1_555
O27 Ti7 1.772408 1_554
O28 Ti5 1.998377 1_655
O28 Ti7 2.042003 1_545
O29 Ti4 1.901668 1_555
O29 Ti6 2.072117 1_554
O29 Pb1 2.647007 1_554
O30 Ti7 1.901668 1_555
O30 Ti5 2.072117 1_555
O30 Pb0 2.647007 1_555
O31 Ti6 1.998377 1_564
O31 Ti4 2.042003 1_455
O32 Ti0 1.887001 1_555
O32 Ti4 2.518923 1_555
O32 Pb1 2.668514 1_554
O33 Ti1 1.865773 1_555
O33 Ti5 2.507349 1_555
O33 Pb0 2.667007 1_555
O34 Ti2 1.865773 1_554
O34 Ti6 2.507349 1_554
O34 Pb1 2.667007 1_554
O35 Ti3 1.887001 1_555
O35 Ti7 2.518923 1_555
O35 Pb0 2.668514 1_555
