# generated using pymatgen
data_Sr2MgTi6N2O11
_symmetry_space_group_name_H-M   'P 1'
_cell_length_a   3.89056496
_cell_length_b   7.57171482
_cell_length_c   10.00125722
_cell_angle_alpha   75.75338859
_cell_angle_beta   88.29855168
_cell_angle_gamma   76.39050574
_symmetry_Int_Tables_number   1
_chemical_formula_structural   Sr2MgTi6N2O11
_chemical_formula_sum   'Sr2 Mg1 Ti6 N2 O11'
_cell_volume   277.41620306
_cell_formula_units_Z   1
loop_
 _symmetry_equiv_pos_site_id
 _symmetry_equiv_pos_as_xyz
  1  'x, y, z'
loop_
 _atom_site_type_symbol
 _atom_site_label
 _atom_site_symmetry_multiplicity
 _atom_site_fract_x
 _atom_site_fract_y
 _atom_site_fract_z
 _atom_site_occupancy
  Sr  Sr0  1  0.52943000  0.95404300  0.55646200  1
  Sr  Sr1  1  0.44412800  0.10138600  0.18943100  1
  Mg  Mg0  1  0.74333200  0.90880500  0.89671600  1
  Ti  Ti0  1  0.15291100  0.74578200  0.14333500  1
  Ti  Ti1  1  0.18645300  0.62013200  0.43500600  1
  Ti  Ti2  1  0.23562700  0.55581700  0.77398000  1
  Ti  Ti3  1  0.77272500  0.46775500  0.24551500  1
  Ti  Ti4  1  0.81695200  0.30882300  0.58886200  1
  Ti  Ti5  1  0.86690500  0.28064900  0.94156700  1
  N  N0  1  0.25857600  0.49117700  0.28568600  1
  N  N1  1  0.83880100  0.33258200  0.11185900  1
  O  O0  1  0.07694100  0.86406200  0.29817000  1
  O  O1  1  0.12983200  0.74199400  0.60331400  1
  O  O2  1  0.17450500  0.70585300  0.89194800  1
  O  O3  1  0.65716400  0.73886300  0.11007700  1
  O  O4  1  0.69774900  0.59261000  0.45231900  1
  O  O5  1  0.76348200  0.48945800  0.76361600  1
  O  O6  1  0.28807700  0.36989300  0.59370900  1
  O  O7  1  0.36158900  0.28685400  0.90726400  1
  O  O8  1  0.87939000  0.20984400  0.43843400  1
  O  O9  1  0.83578700  0.08680900  0.71836400  1
  O  O10  1  0.99697100  0.01515500  0.01620500  1
loop_
_geom_bond_atom_site_label_1
_geom_bond_atom_site_label_2
_geom_bond_distance
_geom_bond_site_symmetry_2
Mg0 O10 1.991971 1_566
Mg0 O2 1.998978 1_655
Mg0 O9 2.033333 1_565
Mg0 O3 2.265090 1_556
N0 Ti1 1.956066 1_555
N0 Ti3 2.000943 1_455
N0 Ti3 2.003642 1_555
N0 Ti0 2.055048 1_555
N0 Sr1 3.242381 1_555
N1 Ti5 1.834551 1_554
N1 Ti3 1.851923 1_555
N1 Sr1 2.559271 1_555
N1 Sr1 2.590858 1_655
O0 Ti0 1.954038 1_555
O0 Ti1 1.971272 1_555
O0 Sr1 2.570311 1_565
O0 Sr1 2.754691 1_465
O1 Ti2 1.911651 1_555
O1 Ti1 2.092885 1_555
O1 Sr0 2.444493 1_555
O1 Sr0 2.486682 1_455
O2 Ti2 1.804164 1_555
O2 Ti0 2.601773 1_556
O3 Ti0 1.970689 1_555
O3 Ti0 1.981825 1_655
O3 Ti3 2.117547 1_555
O3 Sr1 2.968824 1_565
O4 Ti1 1.958988 1_655
O4 Ti1 1.959096 1_555
O4 Ti4 2.195785 1_555
O4 Ti3 2.460376 1_555
O5 Ti2 2.002021 1_555
O5 Ti2 2.027001 1_655
O5 Ti5 2.046276 1_555
O5 Ti4 2.447377 1_555
O6 Ti4 1.997754 1_455
O6 Ti4 2.001831 1_555
O6 Ti1 2.114276 1_555
O6 Ti2 2.523137 1_555
O7 Ti5 1.954329 1_455
O7 Ti5 1.993383 1_555
O7 Ti2 2.097003 1_555
O7 Sr1 2.816037 1_556
O8 Ti4 1.825287 1_555
O8 Ti3 2.349495 1_555
O8 Sr0 2.649320 1_545
O8 Sr0 2.878810 1_645
O9 Ti4 1.839773 1_555
O9 Sr0 2.555918 1_545
O10 Ti5 1.912983 1_554
O10 Ti0 2.081296 1_645
O10 Sr1 2.779315 1_655
O10 Sr1 2.780037 1_555
