# generated using pymatgen
data_La4MgGa2(FeO6)2
_symmetry_space_group_name_H-M   'P 1'
_cell_length_a   5.53888579
_cell_length_b   5.78668327
_cell_length_c   10.00259610
_cell_angle_alpha   89.13353882
_cell_angle_beta   104.62945541
_cell_angle_gamma   91.25366626
_symmetry_Int_Tables_number   1
_chemical_formula_structural   La4MgGa2(FeO6)2
_chemical_formula_sum   'La4 Mg1 Ga2 Fe2 O12'
_cell_volume   310.11741358
_cell_formula_units_Z   1
loop_
 _symmetry_equiv_pos_site_id
 _symmetry_equiv_pos_as_xyz
  1  'x, y, z'
loop_
 _atom_site_type_symbol
 _atom_site_label
 _atom_site_symmetry_multiplicity
 _atom_site_fract_x
 _atom_site_fract_y
 _atom_site_fract_z
 _atom_site_occupancy
  La  La0  1  0.60963200  0.51280900  0.67835400  1
  La  La1  1  0.09247400  0.98232700  0.69398000  1
  La  La2  1  0.49507300  0.50929200  0.29263400  1
  La  La3  1  0.97993500  0.02295100  0.30848500  1
  Mg  Mg0  1  0.28293700  0.45708900  0.91082600  1
  Ga  Ga0  1  0.86250900  0.57077100  0.07264900  1
  Ga  Ga1  1  0.53683900  0.99852700  0.49221800  1
  Fe  Fe0  1  0.04593400  0.50048500  0.49546600  1
  Fe  Fe1  1  0.36864300  0.96595200  0.07361600  1
  O  O0  1  0.65531400  0.90778200  0.68831500  1
  O  O1  1  0.13764800  0.57408000  0.71968800  1
  O  O2  1  0.40092300  0.09575300  0.27059300  1
  O  O3  1  0.89445500  0.40429400  0.24188200  1
  O  O4  1  0.76391000  0.27477400  0.50822300  1
  O  O5  1  0.20204900  0.12782500  0.90851400  1
  O  O6  1  0.19530600  0.62313100  0.06605600  1
  O  O7  1  0.79360500  0.78559200  0.45221800  1
  O  O8  1  0.30656400  0.71506200  0.44859800  1
  O  O9  1  0.70264200  0.81494400  0.13402700  1
  O  O10  1  0.64632300  0.46754500  0.91403700  1
  O  O11  1  0.27728600  0.20092000  0.52962200  1
loop_
_geom_bond_atom_site_label_1
_geom_bond_atom_site_label_2
_geom_bond_distance
_geom_bond_site_symmetry_2
La0 O0 2.294927 1_555
La0 O10 2.325744 1_555
La0 O4 2.525957 1_555
La0 O11 2.722442 1_555
La0 O8 2.743192 1_555
La0 O1 2.778849 1_555
La0 O1 2.863270 1_655
La1 O5 2.248669 1_565
La1 O1 2.384248 1_555
La1 O0 2.436820 1_455
La1 O11 2.466009 1_565
La1 O7 2.804102 1_455
La1 O4 2.821308 1_465
La2 O8 2.423874 1_555
La2 O2 2.439338 1_555
La2 O3 2.481089 1_555
La2 O6 2.535567 1_555
La2 O7 2.542987 1_555
La2 O4 2.662166 1_555
La2 O9 2.777514 1_555
La3 O3 2.319374 1_555
La3 O9 2.341306 1_545
La3 O7 2.376229 1_545
La3 O2 2.481344 1_655
La3 O11 2.611574 1_655
La3 O8 2.682590 1_645
La3 O4 2.986418 1_555
Mg0 O5 1.946884 1_555
Mg0 O1 1.992161 1_555
Mg0 O6 2.003971 1_556
Mg0 O10 2.004481 1_555
Ga0 O10 1.829060 1_554
Ga0 O9 1.874308 1_555
Ga0 O6 1.878925 1_655
Ga0 O3 1.905691 1_555
Ga1 O0 1.971676 1_555
Ga1 O11 1.984205 1_565
Ga1 O4 1.995224 1_565
Ga1 O7 2.019911 1_555
Ga1 O8 2.038831 1_555
Ga1 O2 2.221576 1_565
Fe0 O8 2.022711 1_555
Fe0 O4 2.041751 1_455
Fe0 O11 2.149864 1_555
Fe0 O7 2.153209 1_455
Fe0 O1 2.216640 1_555
Fe0 O3 2.528807 1_455
Fe1 O5 1.917666 1_564
Fe1 O9 2.010286 1_555
Fe1 O2 2.083048 1_565
Fe1 O6 2.178869 1_555
