# generated using pymatgen
data_Mg4Si7
_symmetry_space_group_name_H-M   'P 1'
_cell_length_a   14.78152613
_cell_length_b   4.40651184
_cell_length_c   5.80269518
_cell_angle_alpha   90.00227754
_cell_angle_beta   88.88789228
_cell_angle_gamma   81.45743745
_symmetry_Int_Tables_number   1
_chemical_formula_structural   Mg4Si7
_chemical_formula_sum   'Mg8 Si14'
_cell_volume   373.69318852
_cell_formula_units_Z   2
loop_
 _symmetry_equiv_pos_site_id
 _symmetry_equiv_pos_as_xyz
  1  'x, y, z'
loop_
 _atom_site_type_symbol
 _atom_site_label
 _atom_site_symmetry_multiplicity
 _atom_site_fract_x
 _atom_site_fract_y
 _atom_site_fract_z
 _atom_site_occupancy
  Mg  Mg0  1  0.08849400  0.48449800  0.20420700  1
  Mg  Mg1  1  0.47719100  0.29762200  0.45258400  1
  Mg  Mg2  1  0.60106400  0.74010000  0.21107800  1
  Mg  Mg3  1  0.35072900  0.85868600  0.69331500  1
  Mg  Mg4  1  0.13193700  0.46604500  0.70687300  1
  Mg  Mg5  1  0.84764200  0.11066600  0.21445900  1
  Mg  Mg6  1  0.56712000  0.75107700  0.72043100  1
  Mg  Mg7  1  0.38782900  0.84119800  0.18613400  1
  Si  Si0  1  0.02426300  0.01939600  0.49274500  1
  Si  Si1  1  0.02081000  0.01157000  0.91850700  1
  Si  Si2  1  0.93170200  0.56009800  0.49831400  1
  Si  Si3  1  0.93224600  0.56843200  0.92206900  1
  Si  Si4  1  0.47221700  0.29736300  0.95038400  1
  Si  Si5  1  0.66974000  0.20796000  0.91916300  1
  Si  Si6  1  0.75847700  0.66695500  0.92279300  1
  Si  Si7  1  0.19480500  0.93188000  0.98953600  1
  Si  Si8  1  0.28253700  0.39295500  0.40815600  1
  Si  Si9  1  0.67240400  0.20335100  0.48611300  1
  Si  Si10  1  0.75858200  0.65756200  0.49091500  1
  Si  Si11  1  0.19426300  0.94101600  0.40939900  1
  Si  Si12  1  0.28905100  0.38715700  0.98832500  1
  Si  Si13  1  0.84324700  0.10438000  0.71819200  1
loop_
_geom_bond_atom_site_label_1
_geom_bond_atom_site_label_2
_geom_bond_distance
_geom_bond_site_symmetry_2
Mg0 Si2 2.830537 1_455
Mg0 Si3 2.836250 1_454
Mg0 Si0 2.902018 1_555
Mg0 Si1 2.918551 1_564
Mg0 Si0 2.921207 1_565
Mg0 Si11 2.925317 1_545
Mg0 Mg4 2.942753 1_554
Mg0 Si7 2.955983 1_544
Mg0 Si7 2.958391 1_554
Mg0 Si1 2.962392 1_554
Mg0 Si11 2.985828 1_555
Mg0 Mg4 2.997334 1_555
Mg0 Si8 3.094870 1_555
Mg0 Si12 3.165399 1_554
Mg1 Si8 2.862063 1_555
Mg1 Si9 2.863997 1_555
Mg1 Si4 2.888095 1_555
Mg1 Si4 2.916472 1_554
Mg1 Mg7 3.002041 1_555
Mg1 Mg6 3.007379 1_555
Mg1 Mg7 3.008102 1_545
Mg1 Mg6 3.018647 1_545
Mg2 Si6 2.818213 1_554
Mg2 Si10 2.843502 1_555
Mg2 Mg6 2.899685 1_554
Mg2 Si9 2.920721 1_565
Mg2 Si9 2.928791 1_555
Mg2 Si5 2.936665 1_554
Mg2 Si5 2.950489 1_564
Mg2 Mg6 2.987472 1_555
Mg2 Mg7 3.123249 1_555
Mg3 Si7 2.827717 1_555
Mg3 Si11 2.844917 1_555
Mg3 Si12 2.914257 1_565
Mg3 Mg7 2.921091 1_556
Mg3 Si12 2.929395 1_555
Mg3 Si8 2.940203 1_555
Mg3 Si8 2.942215 1_565
Mg3 Mg7 2.982080 1_555
Mg3 Mg6 3.170098 1_555
Mg4 Si8 2.775061 1_555
Mg4 Si12 2.844120 1_555
Mg4 Si7 2.897079 1_555
Mg4 Si11 2.913001 1_545
Mg4 Si7 2.916142 1_545
Mg4 Si11 2.953006 1_555
Mg4 Si1 2.955206 1_565
Mg4 Si0 2.991086 1_565
Mg4 Si0 2.992970 1_555
Mg4 Si1 3.019292 1_555
Mg4 Si3 3.152275 1_455
Mg4 Si2 3.189248 1_455
Mg5 Si13 2.881904 1_554
Mg5 Si13 2.922694 1_555
Mg5 Si9 2.981332 1_555
Mg5 Si2 2.998208 1_555
Mg5 Si10 2.998673 1_545
Mg5 Si10 3.014845 1_555
Mg5 Si3 3.029654 1_554
Mg5 Si3 3.030049 1_544
Mg5 Si1 3.031354 1_654
Mg5 Si6 3.045699 1_544
Mg5 Si2 3.054012 1_545
Mg5 Si0 3.071973 1_655
Mg5 Si6 3.120484 1_554
Mg5 Si5 3.142465 1_554
Mg6 Si5 2.889293 1_555
Mg6 Si4 2.909795 1_565
Mg6 Si4 2.916560 1_555
Mg6 Si5 2.942610 1_565
Mg6 Si9 2.982891 1_555
Mg6 Si9 3.013639 1_565
Mg6 Si6 3.055227 1_555
Mg6 Si10 3.075740 1_555
Mg7 Si4 2.854247 1_564
Mg7 Si4 2.866285 1_554
Mg7 Si12 2.873817 1_564
Mg7 Si12 2.895696 1_554
Mg7 Si8 2.964987 1_565
Mg7 Si8 2.969700 1_555
Mg7 Si7 3.064222 1_554
Mg7 Si11 3.088777 1_555
Si0 Si1 2.470452 1_555
Si0 Si11 2.522424 1_545
Si0 Si2 2.565080 1_455
Si0 Si2 2.605787 1_445
Si1 Si3 2.507111 1_445
Si1 Si7 2.584717 1_545
Si1 Si3 2.603849 1_455
Si1 Si13 2.864737 1_455
Si2 Si3 2.459381 1_555
Si3 Si6 2.540540 1_555
Si4 Si5 2.889699 1_555
Si5 Si9 2.512435 1_555
Si5 Si6 2.544840 1_545
Si5 Si6 2.569225 1_555
Si10 Si6 2.506363 1_555
Si10 Si9 2.527493 1_555
Si10 Si2 2.532276 1_555
Si10 Si9 2.549278 1_565
Si10 Si13 2.824532 1_565
Si10 Si13 2.899209 1_555
Si11 Si7 2.436506 1_554
Si11 Si8 2.537758 1_565
Si11 Si8 2.568749 1_555
Si12 Si8 2.436168 1_556
Si12 Si7 2.590085 1_555
Si12 Si7 2.606813 1_545
Si12 Si4 2.682169 1_555
Si13 Si6 2.711995 1_545
Si13 Si5 2.771651 1_555
Si13 Si3 2.800944 1_545
Si13 Si2 2.843502 1_555
Si13 Si2 2.844830 1_545
Si13 Si6 2.853807 1_555
Si13 Si3 2.858505 1_555
