# generated using pymatgen
data_KCaLaWO6
_symmetry_space_group_name_H-M   'P 1'
_cell_length_a   8.56084006
_cell_length_b   8.50556608
_cell_length_c   8.50006915
_cell_angle_alpha   90.00000000
_cell_angle_beta   90.00000000
_cell_angle_gamma   90.00000000
_symmetry_Int_Tables_number   1
_chemical_formula_structural   KCaLaWO6
_chemical_formula_sum   'K4 Ca4 La4 W4 O24'
_cell_volume   618.93075720
_cell_formula_units_Z   4
loop_
 _symmetry_equiv_pos_site_id
 _symmetry_equiv_pos_as_xyz
  1  'x, y, z'
loop_
 _atom_site_type_symbol
 _atom_site_label
 _atom_site_symmetry_multiplicity
 _atom_site_fract_x
 _atom_site_fract_y
 _atom_site_fract_z
 _atom_site_occupancy
  K  K0  1  0.00000000  0.50000000  0.50000000  1
  K  K1  1  0.50000000  0.00000000  0.50000000  1
  K  K2  1  0.50000000  0.00000000  0.00000000  1
  K  K3  1  0.00000000  0.50000000  0.00000000  1
  Ca  Ca0  1  0.50000000  0.50000000  0.00000000  1
  Ca  Ca1  1  0.00000000  0.00000000  0.50000000  1
  Ca  Ca2  1  0.00000000  -0.00000000  0.00000000  1
  Ca  Ca3  1  0.50000000  0.50000000  0.50000000  1
  La  La0  1  0.75000000  0.75000000  0.75000000  1
  La  La1  1  0.25000000  0.25000000  0.75000000  1
  La  La2  1  0.25000000  0.75000000  0.25000000  1
  La  La3  1  0.75000000  0.25000000  0.25000000  1
  W  W0  1  0.25000000  0.25000000  0.25000000  1
  W  W1  1  0.75000000  0.75000000  0.25000000  1
  W  W2  1  0.75000000  0.25000000  0.75000000  1
  W  W3  1  0.25000000  0.75000000  0.75000000  1
  O  O0  1  0.02446912  0.19827040  0.28659841  1
  O  O1  1  0.97553088  0.80172960  0.28659841  1
  O  O2  1  0.97553088  0.19827040  0.71340159  1
  O  O3  1  0.02446912  0.80172960  0.71340159  1
  O  O4  1  0.27698038  0.02493198  0.21404762  1
  O  O5  1  0.27698038  0.97506802  0.78595238  1
  O  O6  1  0.72301962  0.97506802  0.21404762  1
  O  O7  1  0.72301962  0.02493198  0.78595238  1
  O  O8  1  0.21000784  0.27500052  0.02486054  1
  O  O9  1  0.78999216  0.27500052  0.97513946  1
  O  O10  1  0.21000784  0.72499948  0.97513946  1
  O  O11  1  0.78999216  0.72499948  0.02486054  1
  O  O12  1  0.47553088  0.30172960  0.21340159  1
  O  O13  1  0.52446912  0.69827040  0.21340159  1
  O  O14  1  0.52446912  0.30172960  0.78659841  1
  O  O15  1  0.47553088  0.69827040  0.78659841  1
  O  O16  1  0.22301962  0.47506802  0.28595238  1
  O  O17  1  0.22301962  0.52493198  0.71404762  1
  O  O18  1  0.77698038  0.52493198  0.28595238  1
  O  O19  1  0.77698038  0.47506802  0.71404762  1
  O  O20  1  0.28999216  0.22499948  0.47513946  1
  O  O21  1  0.71000784  0.22499948  0.52486054  1
  O  O22  1  0.28999216  0.77500052  0.52486054  1
  O  O23  1  0.71000784  0.77500052  0.47513946  1
loop_
_geom_bond_atom_site_label_1
_geom_bond_atom_site_label_2
_geom_bond_distance
_geom_bond_site_symmetry_2
K0 O16 2.645834 1_555
K0 O17 2.645834 1_555
K0 O18 2.645834 1_455
K0 O19 2.645834 1_455
K0 O0 3.149687 1_555
K0 O2 3.149687 1_455
K0 O1 3.149687 1_455
K0 O3 3.149687 1_555
K1 O21 2.634260 1_555
K1 O23 2.634260 1_545
K1 O20 2.634260 1_555
K1 O22 2.634260 1_545
K1 O4 3.098070 1_555
K1 O6 3.098070 1_545
K1 O7 3.098070 1_555
K1 O5 3.098070 1_545
K2 O7 2.645834 1_554
K2 O5 2.645834 1_544
K2 O4 2.645834 1_555
K2 O6 2.645834 1_545
K2 O12 3.149687 1_555
K2 O14 3.149687 1_554
K2 O13 3.149687 1_545
K2 O15 3.149687 1_544
K3 O11 2.634260 1_455
K3 O8 2.634260 1_555
K3 O9 2.634260 1_454
K3 O10 2.634260 1_554
K3 O17 3.098070 1_554
K3 O18 3.098070 1_455
K3 O16 3.098070 1_555
K3 O19 3.098070 1_454
Ca0 O13 2.485592 1_555
Ca0 O12 2.485592 1_555
Ca0 O14 2.485592 1_554
Ca0 O15 2.485592 1_554
Ca1 O1 2.485592 1_445
Ca1 O2 2.485592 1_455
Ca1 O3 2.485592 1_545
Ca1 O0 2.485592 1_555
Ca2 O11 2.957699 1_445
Ca2 O10 2.957699 1_544
Ca2 O9 2.957699 1_454
Ca2 O8 2.957699 1_555
Ca2 O3 2.970260 1_544
Ca2 O2 2.970260 1_454
Ca2 O1 2.970260 1_445
Ca2 O0 2.970260 1_555
Ca2 O5 2.996293 1_544
Ca2 O6 2.996293 1_445
Ca2 O7 2.996293 1_454
Ca2 O4 2.996293 1_555
Ca3 O23 2.957699 1_555
Ca3 O21 2.957699 1_555
Ca3 O20 2.957699 1_555
Ca3 O22 2.957699 1_555
Ca3 O15 2.970260 1_555
Ca3 O13 2.970260 1_555
Ca3 O14 2.970260 1_555
Ca3 O12 2.970260 1_555
Ca3 O17 2.996293 1_555
Ca3 O18 2.996293 1_555
Ca3 O16 2.996293 1_555
Ca3 O19 2.996293 1_555
La0 O19 2.369620 1_555
La0 O7 2.369620 1_565
La0 O11 2.370841 1_556
La0 O23 2.370841 1_555
La0 O3 2.410683 1_655
La0 O15 2.410683 1_555
La1 O17 2.369620 1_555
La1 O5 2.369620 1_545
La1 O8 2.370841 1_556
La1 O20 2.370841 1_555
La1 O2 2.410683 1_455
La1 O14 2.410683 1_555
La2 O16 2.369620 1_555
La2 O4 2.369620 1_565
La2 O22 2.370841 1_555
La2 O10 2.370841 1_554
La2 O13 2.410683 1_555
La2 O1 2.410683 1_455
La3 O6 2.369620 1_545
La3 O18 2.369620 1_555
La3 O21 2.370841 1_555
La3 O9 2.370841 1_554
La3 O0 2.410683 1_655
La3 O12 2.410683 1_555
O0 W0 2.004520 1_555
O1 W1 2.004520 1_555
O2 W2 2.004520 1_555
O3 W3 2.004520 1_555
O4 W0 1.952281 1_555
O5 W3 1.952281 1_555
O6 W1 1.952281 1_555
O7 W2 1.952281 1_555
O8 W0 1.955680 1_555
O9 W2 1.955680 1_555
O10 W3 1.955680 1_555
O11 W1 1.955680 1_555
O12 W0 2.004520 1_555
O13 W1 2.004520 1_555
O14 W2 2.004520 1_555
O15 W3 2.004520 1_555
O16 W0 1.952281 1_555
O17 W3 1.952281 1_555
O18 W1 1.952281 1_555
O19 W2 1.952281 1_555
O20 W0 1.955680 1_555
O21 W2 1.955680 1_555
O22 W3 1.955680 1_555
O23 W1 1.955680 1_555
