# generated using pymatgen
data_K(CrS2)2
_symmetry_space_group_name_H-M   'P 1'
_cell_length_a   8.14840844
_cell_length_b   8.14840844
_cell_length_c   5.54183295
_cell_angle_alpha   75.61128474
_cell_angle_beta   75.61128474
_cell_angle_gamma   22.63970871
_symmetry_Int_Tables_number   1
_chemical_formula_structural   K(CrS2)2
_chemical_formula_sum   'K1 Cr2 S4'
_cell_volume   137.01619011
_cell_formula_units_Z   1
loop_
 _symmetry_equiv_pos_site_id
 _symmetry_equiv_pos_as_xyz
  1  'x, y, z'
loop_
 _atom_site_type_symbol
 _atom_site_label
 _atom_site_symmetry_multiplicity
 _atom_site_fract_x
 _atom_site_fract_y
 _atom_site_fract_z
 _atom_site_occupancy
  K  K0  1  0.50000000  0.50000000  0.50000000  1
  Cr  Cr0  1  0.75329500  0.75329500  0.19502100  1
  Cr  Cr1  1  0.24670500  0.24670500  0.80497900  1
  S  S0  1  0.35204100  0.35204100  0.00844300  1
  S  S1  1  0.64795900  0.64795900  0.99155700  1
  S  S2  1  0.82763000  0.82763000  0.52243100  1
  S  S3  1  0.17237000  0.17237000  0.47756900  1
loop_
_geom_bond_atom_site_label_1
_geom_bond_atom_site_label_2
_geom_bond_distance
_geom_bond_site_symmetry_2
K0 S3 3.160215 1_565
K0 S3 3.160215 1_655
K0 S2 3.160215 1_545
K0 S2 3.160215 1_455
K0 S1 3.186365 1_554
K0 S0 3.186365 1_556
Cr0 S1 2.250938 1_554
Cr0 S0 2.300040 1_565
Cr0 S0 2.300040 1_655
Cr0 S3 2.378218 1_565
Cr0 S3 2.378218 1_655
Cr0 S2 2.407421 1_555
Cr1 S0 2.250938 1_556
Cr1 S1 2.300040 1_545
Cr1 S1 2.300040 1_455
Cr1 S2 2.378218 1_455
Cr1 S2 2.378218 1_545
Cr1 S3 2.407421 1_555
