# generated using pymatgen
data_Sr7CaFe6(CoO12)2
_symmetry_space_group_name_H-M   'P 1'
_cell_length_a   7.77973206
_cell_length_b   7.77973206
_cell_length_c   7.82267400
_cell_angle_alpha   90.00000000
_cell_angle_beta   90.00000000
_cell_angle_gamma   90.11551643
_symmetry_Int_Tables_number   1
_chemical_formula_structural   Sr7CaFe6(CoO12)2
_chemical_formula_sum   'Sr7 Ca1 Fe6 Co2 O24'
_cell_volume   473.46036531
_cell_formula_units_Z   1
loop_
 _symmetry_equiv_pos_site_id
 _symmetry_equiv_pos_as_xyz
  1  'x, y, z'
loop_
 _atom_site_type_symbol
 _atom_site_label
 _atom_site_symmetry_multiplicity
 _atom_site_fract_x
 _atom_site_fract_y
 _atom_site_fract_z
 _atom_site_occupancy
  Sr  Sr0  1  0.74802800  0.25182300  0.00000000  1
  Sr  Sr1  1  0.74812000  0.74812000  0.00000000  1
  Sr  Sr2  1  0.25182300  0.74802800  0.00000000  1
  Sr  Sr3  1  0.74809000  0.25188200  0.50000000  1
  Sr  Sr4  1  0.74816100  0.74816100  0.50000000  1
  Sr  Sr5  1  0.25187100  0.25187100  0.50000000  1
  Sr  Sr6  1  0.25188200  0.74809000  0.50000000  1
  Ca  Ca0  1  0.25192800  0.25192800  0.00000000  1
  Fe  Fe0  1  0.00051800  0.00051800  0.75053300  1
  Fe  Fe1  1  0.00081000  0.49950200  0.75053000  1
  Fe  Fe2  1  0.49950200  0.00081000  0.75053000  1
  Fe  Fe3  1  0.00051800  0.00051800  0.24946700  1
  Fe  Fe4  1  0.00081000  0.49950200  0.24947000  1
  Fe  Fe5  1  0.49950200  0.00081000  0.24947000  1
  Co  Co0  1  0.49970700  0.49970700  0.75074500  1
  Co  Co1  1  0.49970700  0.49970700  0.24925500  1
  O  O0  1  0.00232600  0.00232600  0.00000000  1
  O  O1  1  0.00242900  0.49769800  0.00000000  1
  O  O2  1  0.49769800  0.00242900  0.00000000  1
  O  O3  1  0.49641400  0.49641400  0.00000000  1
  O  O4  1  0.00050600  0.00050600  0.50000000  1
  O  O5  1  0.00048900  0.49947400  0.50000000  1
  O  O6  1  0.49947400  0.00048900  0.50000000  1
  O  O7  1  0.49970000  0.49970000  0.50000000  1
  O  O8  1  0.74886700  0.00029700  0.75052400  1
  O  O9  1  0.74262500  0.49866700  0.75045100  1
  O  O10  1  0.25113600  0.00252000  0.75225800  1
  O  O11  1  0.25731500  0.49856500  0.75242800  1
  O  O12  1  0.74886700  0.00029700  0.24947600  1
  O  O13  1  0.74262500  0.49866700  0.24954900  1
  O  O14  1  0.25113600  0.00252000  0.24774200  1
  O  O15  1  0.25731500  0.49856500  0.24757200  1
  O  O16  1  0.00252000  0.25113600  0.75225800  1
  O  O17  1  0.00029700  0.74886700  0.75052400  1
  O  O18  1  0.49856500  0.25731500  0.75242800  1
  O  O19  1  0.49866700  0.74262500  0.75045100  1
  O  O20  1  0.00252000  0.25113600  0.24774200  1
  O  O21  1  0.00029700  0.74886700  0.24947600  1
  O  O22  1  0.49856500  0.25731500  0.24757200  1
  O  O23  1  0.49866700  0.74262500  0.24954900  1
loop_
_geom_bond_atom_site_label_1
_geom_bond_atom_site_label_2
_geom_bond_distance
_geom_bond_site_symmetry_2
Ca0 O3 2.687172 1_555
Ca0 O15 2.726503 1_555
Ca0 O18 2.726503 1_554
Ca0 O22 2.726503 1_555
Ca0 O11 2.726503 1_554
Ca0 O2 2.727347 1_555
Ca0 O1 2.727347 1_555
Ca0 O10 2.742394 1_554
Ca0 O20 2.742394 1_555
Ca0 O14 2.742394 1_555
Ca0 O16 2.742394 1_554
Ca0 O0 2.743402 1_555
Fe0 O10 1.949818 1_555
Fe0 O16 1.949818 1_555
Fe0 O0 1.951600 1_556
Fe0 O17 1.957775 1_545
Fe0 O8 1.957775 1_455
Fe0 O4 1.959838 1_555
Fe1 O16 1.932341 1_555
Fe1 O17 1.940005 1_555
Fe1 O1 1.951614 1_556
Fe1 O5 1.959816 1_555
Fe1 O11 1.995623 1_555
Fe1 O9 2.008608 1_455
Fe2 O10 1.932341 1_555
Fe2 O8 1.940005 1_555
Fe2 O2 1.951614 1_556
Fe2 O6 1.959816 1_555
Fe2 O18 1.995623 1_555
Fe2 O19 2.008608 1_545
Fe3 O14 1.949818 1_555
Fe3 O20 1.949818 1_555
Fe3 O0 1.951600 1_555
Fe3 O21 1.957775 1_545
Fe3 O12 1.957775 1_455
Fe3 O4 1.959838 1_555
Fe4 O20 1.932341 1_555
Fe4 O21 1.940005 1_555
Fe4 O1 1.951614 1_555
Fe4 O5 1.959816 1_555
Fe4 O15 1.995623 1_555
Fe4 O13 2.008608 1_455
Fe5 O14 1.932341 1_555
Fe5 O12 1.940005 1_555
Fe5 O2 1.951614 1_555
Fe5 O6 1.959816 1_555
Fe5 O22 1.995623 1_555
Fe5 O23 2.008608 1_545
Co0 O11 1.885794 1_555
Co0 O18 1.885794 1_555
Co0 O9 1.889872 1_555
Co0 O19 1.889872 1_555
Co0 O3 1.950176 1_556
Co0 O7 1.961496 1_555
Co1 O22 1.885794 1_555
Co1 O15 1.885794 1_555
Co1 O13 1.889872 1_555
Co1 O23 1.889872 1_555
Co1 O3 1.950176 1_555
Co1 O7 1.961496 1_555
O0 Sr2 2.774345 1_545
O0 Sr0 2.774345 1_455
O0 Sr1 2.794005 1_445
O1 Sr2 2.746265 1_555
O1 Sr0 2.749694 1_455
O1 Sr1 2.779456 1_455
O2 Sr0 2.746265 1_555
O2 Sr2 2.749694 1_545
O2 Sr1 2.779456 1_545
O3 Sr2 2.732697 1_555
O3 Sr0 2.732697 1_555
O3 Sr1 2.766527 1_555
O4 Sr5 2.762779 1_555
O4 Sr4 2.773551 1_445
O4 Sr3 2.774209 1_455
O4 Sr6 2.774209 1_545
O5 Sr5 2.747811 1_555
O5 Sr3 2.747855 1_455
O5 Sr6 2.747869 1_555
O5 Sr4 2.758984 1_455
O6 Sr5 2.747811 1_555
O6 Sr6 2.747855 1_545
O6 Sr3 2.747869 1_555
O6 Sr4 2.758984 1_545
O7 Sr5 2.723915 1_555
O7 Sr4 2.730861 1_555
O7 Sr6 2.732443 1_555
O7 Sr3 2.732443 1_555
O8 Sr0 2.763657 1_556
O8 Sr1 2.767227 1_546
O8 Sr3 2.769775 1_555
O8 Sr4 2.772789 1_545
O9 Sr0 2.738760 1_556
O9 Sr3 2.743480 1_555
O9 Sr1 2.752921 1_556
O9 Sr4 2.758158 1_555
O10 Sr5 2.767161 1_555
O10 Sr2 2.770534 1_546
O10 Sr6 2.795019 1_545
O11 Sr2 2.742153 1_556
O11 Sr5 2.753931 1_555
O11 Sr6 2.769442 1_555
O12 Sr0 2.763657 1_555
O12 Sr1 2.767227 1_545
O12 Sr3 2.769775 1_555
O12 Sr4 2.772789 1_545
O13 Sr0 2.738760 1_555
O13 Sr3 2.743480 1_555
O13 Sr1 2.752921 1_555
O13 Sr4 2.758158 1_555
O14 Sr5 2.767161 1_555
O14 Sr2 2.770534 1_545
O14 Sr6 2.795019 1_545
O15 Sr2 2.742153 1_555
O15 Sr5 2.753931 1_555
O15 Sr6 2.769442 1_555
O16 Sr5 2.767161 1_555
O16 Sr0 2.770534 1_456
O16 Sr3 2.795019 1_455
O17 Sr2 2.763657 1_556
O17 Sr1 2.767227 1_456
O17 Sr6 2.769775 1_555
O17 Sr4 2.772789 1_455
O18 Sr0 2.742153 1_556
O18 Sr5 2.753931 1_555
O18 Sr3 2.769442 1_555
O19 Sr2 2.738760 1_556
O19 Sr6 2.743480 1_555
O19 Sr1 2.752921 1_556
O19 Sr4 2.758158 1_555
O20 Sr5 2.767161 1_555
O20 Sr0 2.770534 1_455
O20 Sr3 2.795019 1_455
O21 Sr2 2.763657 1_555
O21 Sr1 2.767227 1_455
O21 Sr6 2.769775 1_555
O21 Sr4 2.772789 1_455
O22 Sr0 2.742153 1_555
O22 Sr5 2.753931 1_555
O22 Sr3 2.769442 1_555
O23 Sr2 2.738760 1_555
O23 Sr6 2.743480 1_555
O23 Sr1 2.752921 1_555
O23 Sr4 2.758158 1_555
