# generated using pymatgen
data_BaSi3Pd
_symmetry_space_group_name_H-M   'P 1'
_cell_length_a   4.43020383
_cell_length_b   4.43020383
_cell_length_c   6.00188952
_cell_angle_alpha   111.65811445
_cell_angle_beta   111.65811445
_cell_angle_gamma   90.00000000
_symmetry_Int_Tables_number   1
_chemical_formula_structural   BaSi3Pd
_chemical_formula_sum   'Ba1 Si3 Pd1'
_cell_volume   100.47900681
_cell_formula_units_Z   1
loop_
 _symmetry_equiv_pos_site_id
 _symmetry_equiv_pos_as_xyz
  1  'x, y, z'
loop_
 _atom_site_type_symbol
 _atom_site_label
 _atom_site_symmetry_multiplicity
 _atom_site_fract_x
 _atom_site_fract_y
 _atom_site_fract_z
 _atom_site_occupancy
  Ba  Ba0  1  0.61547300  0.61547300  0.23094600  1
  Si  Si0  1  0.00061149  0.00061149  0.00122298  1
  Si  Si1  1  0.86917296  0.36917296  0.73834691  1
  Si  Si2  1  0.36917296  0.86917296  0.73834691  1
  Pd  Pd0  1  0.26226860  0.26226860  0.52453719  1
loop_
_geom_bond_atom_site_label_1
_geom_bond_atom_site_label_2
_geom_bond_distance
_geom_bond_site_symmetry_2
Ba0 Si0 3.346115 1_665
Ba0 Si0 3.346115 1_655
Ba0 Si0 3.346115 1_565
Ba0 Si0 3.346116 1_555
Ba0 Si2 3.356555 1_554
Ba0 Si1 3.356555 1_554
Ba0 Si1 3.356558 1_454
Ba0 Si2 3.356558 1_544
Ba0 Si2 3.413855 1_655
Ba0 Si1 3.413855 1_565
Ba0 Si2 3.413858 1_555
Ba0 Si1 3.413858 1_555
Ba0 Pd0 3.474548 1_555
Ba0 Pd0 3.474548 1_655
Ba0 Pd0 3.474548 1_565
Ba0 Pd0 3.474548 1_665
Si0 Si1 2.591878 1_454
Si0 Si2 2.591878 1_544
Si0 Si2 2.591882 1_444
Si0 Si1 2.591882 1_444
Pd0 Si1 2.470792 1_555
Pd0 Si2 2.470792 1_555
Pd0 Si2 2.470796 1_545
Pd0 Si1 2.470796 1_455
Pd0 Si0 2.679109 1_555
