# generated using pymatgen
data_Li9Mn2Co5O16
_symmetry_space_group_name_H-M   'P 1'
_cell_length_a   5.07238300
_cell_length_b   5.89583474
_cell_length_c   10.01012744
_cell_angle_alpha   91.76363245
_cell_angle_beta   99.42135843
_cell_angle_gamma   105.09156994
_symmetry_Int_Tables_number   1
_chemical_formula_structural   Li9Mn2Co5O16
_chemical_formula_sum   'Li9 Mn2 Co5 O16'
_cell_volume   284.29089498
_cell_formula_units_Z   1
loop_
 _symmetry_equiv_pos_site_id
 _symmetry_equiv_pos_as_xyz
  1  'x, y, z'
loop_
 _atom_site_type_symbol
 _atom_site_label
 _atom_site_symmetry_multiplicity
 _atom_site_fract_x
 _atom_site_fract_y
 _atom_site_fract_z
 _atom_site_occupancy
  Li  Li0  1  0.50022500  0.11968200  0.87690200  1
  Li  Li1  1  0.50247400  0.63119000  0.87111700  1
  Li  Li2  1  0.50083200  0.37696300  0.62133200  1
  Li  Li3  1  0.49892900  0.87291700  0.62299900  1
  Li  Li4  1  0.49838500  0.62429100  0.37328000  1
  Li  Li5  1  0.48759000  0.12477800  0.37705200  1
  Li  Li6  1  0.50493500  0.88021900  0.12914500  1
  Li  Li7  1  0.50700500  0.36386000  0.13054800  1
  Li  Li8  1  0.99816000  0.25311100  0.24959600  1
  Mn  Mn0  1  0.99481100  0.99517500  0.00447100  1
  Mn  Mn1  1  0.00006300  0.25279900  0.74910500  1
  Co  Co0  1  0.99257700  0.48974300  0.00488400  1
  Co  Co1  1  0.00485100  0.75162200  0.75133400  1
  Co  Co2  1  0.00827000  0.50072800  0.49283700  1
  Co  Co3  1  0.99992100  0.00766300  0.49456700  1
  Co  Co4  1  0.99985100  0.75169100  0.24802000  1
  O  O0  1  0.22130500  0.81211200  0.93138700  1
  O  O1  1  0.21695300  0.28591500  0.94773000  1
  O  O2  1  0.23020100  0.07614700  0.68198600  1
  O  O3  1  0.23605700  0.57667100  0.69102300  1
  O  O4  1  0.23639600  0.32165400  0.44103000  1
  O  O5  1  0.23063000  0.80775400  0.42400100  1
  O  O6  1  0.21321700  0.57357600  0.17576100  1
  O  O7  1  0.21832200  0.03244700  0.18310000  1
  O  O8  1  0.77375800  0.42532300  0.82461200  1
  O  O9  1  0.77392600  0.92540900  0.82088800  1
  O  O10  1  0.78600300  0.69253900  0.57123700  1
  O  O11  1  0.76307200  0.19524600  0.56210900  1
  O  O12  1  0.78190400  0.92850800  0.31764700  1
  O  O13  1  0.77856700  0.47968300  0.30667500  1
  O  O14  1  0.76116900  0.16974700  0.05961000  1
  O  O15  1  0.77963900  0.70083600  0.06401700  1
loop_
_geom_bond_atom_site_label_1
_geom_bond_atom_site_label_2
_geom_bond_distance
_geom_bond_site_symmetry_2
Li0 O14 2.038343 1_556
Li0 O8 2.107169 1_555
Li0 O1 2.133512 1_555
Li0 O0 2.136585 1_545
Li0 O9 2.144091 1_545
Li0 O2 2.158700 1_555
Li1 O3 2.029787 1_555
Li1 O9 2.048011 1_555
Li1 O0 2.137781 1_555
Li1 O8 2.151303 1_555
Li1 O15 2.153030 1_556
Li1 O1 2.398782 1_555
Li2 O4 2.026424 1_555
Li2 O11 2.056658 1_555
Li2 O2 2.114226 1_555
Li2 O10 2.167728 1_555
Li2 O3 2.180925 1_555
Li2 O8 2.230461 1_555
Li3 O3 2.109499 1_555
Li3 O10 2.130566 1_555
Li3 O2 2.170902 1_565
Li3 O5 2.181936 1_555
Li3 O11 2.188826 1_565
Li3 O9 2.190501 1_555
Li4 O13 2.024200 1_555
Li4 O5 2.056529 1_555
Li4 O4 2.131776 1_555
Li4 O12 2.139128 1_555
Li4 O6 2.212028 1_555
Li4 O10 2.217148 1_555
Li5 O11 2.087971 1_555
Li5 O4 2.091047 1_555
Li5 O5 2.097462 1_545
Li5 O7 2.147283 1_555
Li5 O12 2.251483 1_545
Li5 O13 2.424060 1_555
Li6 O7 2.029155 1_565
Li6 O14 2.074043 1_565
Li6 O12 2.122747 1_555
Li6 O15 2.123085 1_555
Li6 O6 2.135599 1_555
Li6 O0 2.206274 1_554
Li7 O13 2.028077 1_555
Li7 O1 2.107009 1_554
Li7 O14 2.119930 1_555
Li7 O7 2.250431 1_555
Li7 O6 2.258360 1_555
Li7 O15 2.292472 1_555
Li8 O14 2.046892 1_555
Li8 O4 2.058067 1_655
Li8 O13 2.070693 1_555
Li8 O7 2.080720 1_655
Li8 O12 2.135804 1_545
Li8 O6 2.140736 1_655
Mn0 O14 1.892847 1_565
Mn0 O7 1.927001 1_665
Mn0 O1 1.947888 1_664
Mn0 O9 1.959855 1_554
Mn0 O15 1.961740 1_555
Mn0 O0 1.972881 1_654
Mn1 O2 1.935370 1_555
Mn1 O8 1.941224 1_455
Mn1 O11 2.018877 1_455
Mn1 O1 2.085609 1_555
Mn1 O3 2.126753 1_555
Mn1 O9 2.181778 1_445
Co0 O6 1.858988 1_655
Co0 O8 1.927474 1_554
Co0 O15 1.982401 1_555
Co0 O1 1.987428 1_654
Co0 O14 2.087650 1_555
Co0 O0 2.171867 1_654
Co1 O3 1.904519 1_555
Co1 O0 1.920889 1_555
Co1 O10 1.925745 1_455
Co1 O9 1.937702 1_455
Co1 O2 2.156859 1_565
Co1 O8 2.192533 1_455
Co2 O4 1.876577 1_555
Co2 O13 2.011281 1_455
Co2 O10 2.016147 1_455
Co2 O5 2.071651 1_555
Co2 O3 2.096832 1_555
Co2 O11 2.112899 1_455
Co3 O12 1.901670 1_545
Co3 O11 2.008824 1_555
Co3 O2 2.009345 1_655
Co3 O5 2.048223 1_645
Co3 O4 2.065985 1_655
Co3 O10 2.128122 1_545
Co4 O13 1.874268 1_555
Co4 O6 1.897012 1_655
Co4 O12 1.897988 1_555
Co4 O5 1.915811 1_655
Co4 O7 1.933167 1_665
Co4 O15 1.961684 1_555
