# generated using pymatgen
data_GaCuTeSe
_symmetry_space_group_name_H-M   'P 1'
_cell_length_a   7.16636762
_cell_length_b   7.16636762
_cell_length_c   7.16636762
_cell_angle_alpha   131.51594630
_cell_angle_beta   131.39337116
_cell_angle_gamma   71.09175582
_symmetry_Int_Tables_number   1
_chemical_formula_structural   GaCuTeSe
_chemical_formula_sum   'Ga2 Cu2 Te2 Se2'
_cell_volume   202.41658729
_cell_formula_units_Z   2
loop_
 _symmetry_equiv_pos_site_id
 _symmetry_equiv_pos_as_xyz
  1  'x, y, z'
loop_
 _atom_site_type_symbol
 _atom_site_label
 _atom_site_symmetry_multiplicity
 _atom_site_fract_x
 _atom_site_fract_y
 _atom_site_fract_z
 _atom_site_occupancy
  Ga  Ga0  1  0.13372600  0.88372600  0.25000000  1
  Ga  Ga1  1  0.36627400  0.61627400  0.75000000  1
  Cu  Cu0  1  0.63422600  0.38422600  0.25000000  1
  Cu  Cu1  1  0.86577400  0.11577400  0.75000000  1
  Te  Te0  1  0.25000000  0.48652300  0.23652300  1
  Te  Te1  1  0.75000000  0.01347700  0.26347700  1
  Se  Se0  1  0.50590400  0.25000000  0.75590400  1
  Se  Se1  1  0.99409600  0.75000000  0.74409600  1
loop_
_geom_bond_atom_site_label_1
_geom_bond_atom_site_label_2
_geom_bond_distance
_geom_bond_site_symmetry_2
Ga0 Se1 2.506370 1_454
Ga0 Se0 2.506370 1_565
Ga0 Te1 2.647825 1_465
Ga0 Te0 2.647825 1_555
Ga1 Se1 2.506370 1_455
Ga1 Se0 2.506370 1_555
Ga1 Te1 2.647825 1_566
Ga1 Te0 2.647825 1_555
Cu0 Se0 2.461843 1_554
Cu0 Se1 2.461843 1_555
Cu0 Te1 2.561730 1_555
Cu0 Te0 2.561730 1_555
Cu1 Se0 2.461843 1_555
Cu1 Se1 2.461843 1_545
Cu1 Te0 2.561730 1_656
Cu1 Te1 2.561730 1_555
