# generated using pymatgen
data_KNaMg30O31
_symmetry_space_group_name_H-M   'P 1'
_cell_length_a   8.48454200
_cell_length_b   8.64850100
_cell_length_c   8.68911200
_cell_angle_alpha   90.00000000
_cell_angle_beta   90.00000000
_cell_angle_gamma   90.00000000
_symmetry_Int_Tables_number   1
_chemical_formula_structural   KNaMg30O31
_chemical_formula_sum   'K1 Na1 Mg30 O31'
_cell_volume   637.59461288
_cell_formula_units_Z   1
loop_
 _symmetry_equiv_pos_site_id
 _symmetry_equiv_pos_as_xyz
  1  'x, y, z'
loop_
 _atom_site_type_symbol
 _atom_site_label
 _atom_site_symmetry_multiplicity
 _atom_site_fract_x
 _atom_site_fract_y
 _atom_site_fract_z
 _atom_site_occupancy
  K  K0  1  0.07046100  0.00000000  0.00000000  1
  Na  Na0  1  0.99366900  0.00000000  0.50000000  1
  Mg  Mg0  1  0.99160500  0.50000000  0.00000000  1
  Mg  Mg1  1  0.99613400  0.50000000  0.50000000  1
  Mg  Mg2  1  0.52030800  0.00000000  0.00000000  1
  Mg  Mg3  1  0.50141500  0.00000000  0.50000000  1
  Mg  Mg4  1  0.50434800  0.50000000  0.00000000  1
  Mg  Mg5  1  0.50082900  0.50000000  0.50000000  1
  Mg  Mg6  1  0.99711200  0.24904100  0.25300000  1
  Mg  Mg7  1  0.99711200  0.24904100  0.74700000  1
  Mg  Mg8  1  0.99711200  0.75095900  0.25300000  1
  Mg  Mg9  1  0.99711200  0.75095900  0.74700000  1
  Mg  Mg10  1  0.49889100  0.24760000  0.24874200  1
  Mg  Mg11  1  0.49889100  0.24760000  0.75125800  1
  Mg  Mg12  1  0.49889100  0.75240000  0.24874200  1
  Mg  Mg13  1  0.49889100  0.75240000  0.75125800  1
  Mg  Mg14  1  0.24405800  0.00000000  0.27950800  1
  Mg  Mg15  1  0.24405800  0.00000000  0.72049200  1
  Mg  Mg16  1  0.24742300  0.50000000  0.25413500  1
  Mg  Mg17  1  0.24742300  0.50000000  0.74586500  1
  Mg  Mg18  1  0.75938000  0.00000000  0.24937900  1
  Mg  Mg19  1  0.75938000  0.00000000  0.75062100  1
  Mg  Mg20  1  0.74891400  0.50000000  0.25093200  1
  Mg  Mg21  1  0.74891400  0.50000000  0.74906800  1
  Mg  Mg22  1  0.24801500  0.27786400  0.00000000  1
  Mg  Mg23  1  0.24676500  0.25310500  0.50000000  1
  Mg  Mg24  1  0.24801500  0.72213600  0.00000000  1
  Mg  Mg25  1  0.24676500  0.74689500  0.50000000  1
  Mg  Mg26  1  0.75799300  0.24548100  0.00000000  1
  Mg  Mg27  1  0.74999600  0.24753900  0.50000000  1
  Mg  Mg28  1  0.75799300  0.75451900  0.00000000  1
  Mg  Mg29  1  0.74999600  0.75246100  0.50000000  1
  O  O0  1  0.26547000  0.00000000  0.50000000  1
  O  O1  1  0.25636500  0.50000000  0.00000000  1
  O  O2  1  0.25310400  0.50000000  0.50000000  1
  O  O3  1  0.74921700  0.00000000  0.00000000  1
  O  O4  1  0.73220700  0.00000000  0.50000000  1
  O  O5  1  0.74392400  0.50000000  0.00000000  1
  O  O6  1  0.74477200  0.50000000  0.50000000  1
  O  O7  1  0.24793400  0.24423300  0.24306700  1
  O  O8  1  0.24793400  0.24423300  0.75693300  1
  O  O9  1  0.24793400  0.75576700  0.24306700  1
  O  O10  1  0.24793400  0.75576700  0.75693300  1
  O  O11  1  0.74750400  0.24921400  0.24897900  1
  O  O12  1  0.74750400  0.24921400  0.75102100  1
  O  O13  1  0.74750400  0.75078600  0.24897900  1
  O  O14  1  0.74750400  0.75078600  0.75102100  1
  O  O15  1  0.00165900  0.00000000  0.25776900  1
  O  O16  1  0.00165900  0.00000000  0.74223100  1
  O  O17  1  0.00018600  0.50000000  0.25075800  1
  O  O18  1  0.00018600  0.50000000  0.74924200  1
  O  O19  1  0.48844500  0.00000000  0.23966700  1
  O  O20  1  0.48844500  0.00000000  0.76033300  1
  O  O21  1  0.49653200  0.50000000  0.24824600  1
  O  O22  1  0.49653200  0.50000000  0.75175400  1
  O  O23  1  0.00244000  0.27073300  0.00000000  1
  O  O24  1  0.00092200  0.26541000  0.50000000  1
  O  O25  1  0.00244000  0.72926700  0.00000000  1
  O  O26  1  0.00092200  0.73459000  0.50000000  1
  O  O27  1  0.49151500  0.24422300  0.00000000  1
  O  O28  1  0.49596000  0.25140600  0.50000000  1
  O  O29  1  0.49151500  0.75577700  0.00000000  1
  O  O30  1  0.49596000  0.74859400  0.50000000  1
loop_
_geom_bond_atom_site_label_1
_geom_bond_atom_site_label_2
_geom_bond_distance
_geom_bond_site_symmetry_2
K0 O15 2.314606 1_555
K0 O16 2.314606 1_554
K0 O23 2.411512 1_555
K0 O25 2.411512 1_545
K0 O3 2.725608 1_455
Na0 O16 2.105864 1_655
Na0 O15 2.105864 1_655
Na0 O4 2.218385 1_555
Na0 O24 2.296223 1_655
Na0 O26 2.296223 1_645
Na0 O0 2.306107 1_655
Mg0 O23 1.984946 1_655
Mg0 O25 1.984946 1_655
Mg0 O5 2.101460 1_555
Mg0 O17 2.180080 1_655
Mg0 O18 2.180080 1_654
Mg0 O1 2.246367 1_655
Mg1 O26 2.029259 1_655
Mg1 O24 2.029259 1_655
Mg1 O6 2.132691 1_555
Mg1 O18 2.165965 1_655
Mg1 O17 2.165965 1_655
Mg1 O2 2.180273 1_655
Mg2 O3 1.942188 1_555
Mg2 O20 2.099968 1_554
Mg2 O19 2.099968 1_555
Mg2 O29 2.126244 1_545
Mg2 O27 2.126244 1_555
Mg3 O4 1.958164 1_555
Mg3 O0 2.001885 1_555
Mg3 O28 2.174778 1_555
Mg3 O30 2.174778 1_545
Mg3 O19 2.264738 1_555
Mg3 O20 2.264738 1_555
Mg4 O5 2.032693 1_555
Mg4 O1 2.104022 1_555
Mg4 O21 2.158056 1_555
Mg4 O22 2.158056 1_554
Mg4 O27 2.214766 1_555
Mg4 O29 2.214766 1_555
Mg5 O6 2.069745 1_555
Mg5 O2 2.101833 1_555
Mg5 O28 2.150362 1_555
Mg5 O30 2.150362 1_555
Mg5 O22 2.187822 1_555
Mg5 O21 2.187822 1_555
Mg6 O11 2.118098 1_555
Mg6 O7 2.130265 1_655
Mg6 O24 2.151117 1_655
Mg6 O15 2.154575 1_655
Mg6 O17 2.170663 1_655
Mg6 O23 2.206799 1_655
Mg7 O12 2.118098 1_555
Mg7 O8 2.130265 1_655
Mg7 O24 2.151117 1_655
Mg7 O16 2.154575 1_655
Mg7 O18 2.170663 1_655
Mg7 O23 2.206799 1_656
Mg8 O13 2.118098 1_555
Mg8 O9 2.130265 1_655
Mg8 O26 2.151117 1_655
Mg8 O15 2.154575 1_665
Mg8 O17 2.170663 1_655
Mg8 O25 2.206799 1_655
Mg9 O14 2.118098 1_555
Mg9 O10 2.130265 1_655
Mg9 O26 2.151117 1_655
Mg9 O16 2.154575 1_665
Mg9 O18 2.170663 1_655
Mg9 O25 2.206799 1_656
Mg10 O11 2.109415 1_555
Mg10 O7 2.130025 1_555
Mg10 O19 2.144652 1_555
Mg10 O27 2.162450 1_555
Mg10 O21 2.182978 1_555
Mg10 O28 2.183599 1_555
Mg11 O12 2.109415 1_555
Mg11 O8 2.130025 1_555
Mg11 O20 2.144652 1_555
Mg11 O27 2.162450 1_556
Mg11 O22 2.182978 1_555
Mg11 O28 2.183599 1_555
Mg12 O13 2.109415 1_555
Mg12 O9 2.130025 1_555
Mg12 O19 2.144652 1_565
Mg12 O29 2.162450 1_555
Mg12 O21 2.182978 1_555
Mg12 O30 2.183599 1_555
Mg13 O14 2.109415 1_555
Mg13 O10 2.130025 1_555
Mg13 O20 2.144652 1_565
Mg13 O29 2.162450 1_556
Mg13 O22 2.182978 1_555
Mg13 O30 2.183599 1_555
Mg14 O0 1.924474 1_555
Mg14 O15 2.065301 1_555
Mg14 O19 2.102212 1_555
Mg14 O7 2.136104 1_555
Mg14 O9 2.136104 1_545
Mg15 O0 1.924474 1_555
Mg15 O16 2.065301 1_555
Mg15 O20 2.102212 1_555
Mg15 O8 2.136104 1_555
Mg15 O10 2.136104 1_545
Mg16 O17 2.097898 1_555
Mg16 O21 2.114195 1_555
Mg16 O2 2.136892 1_555
Mg16 O1 2.209510 1_555
Mg16 O7 2.214095 1_555
Mg16 O9 2.214095 1_555
Mg17 O18 2.097898 1_555
Mg17 O22 2.114195 1_555
Mg17 O2 2.136892 1_555
Mg17 O1 2.209510 1_556
Mg17 O10 2.214095 1_555
Mg17 O8 2.214095 1_555
Mg18 O15 2.056919 1_655
Mg18 O11 2.157684 1_555
Mg18 O13 2.157684 1_545
Mg18 O3 2.168597 1_555
Mg18 O4 2.189844 1_555
Mg18 O19 2.300308 1_555
Mg19 O16 2.056919 1_655
Mg19 O12 2.157684 1_555
Mg19 O14 2.157684 1_545
Mg19 O3 2.168597 1_556
Mg19 O4 2.189844 1_555
Mg19 O20 2.300308 1_555
Mg20 O17 2.131928 1_655
Mg20 O21 2.141473 1_555
Mg20 O6 2.164465 1_555
Mg20 O13 2.169022 1_555
Mg20 O11 2.169022 1_555
Mg20 O5 2.180787 1_555
Mg21 O18 2.131928 1_655
Mg21 O22 2.141473 1_555
Mg21 O6 2.164465 1_555
Mg21 O14 2.169022 1_555
Mg21 O12 2.169022 1_555
Mg21 O5 2.180787 1_556
Mg22 O1 1.922449 1_555
Mg22 O23 2.084504 1_555
Mg22 O27 2.086372 1_555
Mg22 O7 2.131970 1_555
Mg22 O8 2.131970 1_554
Mg23 O24 2.088578 1_555
Mg23 O28 2.114357 1_555
Mg23 O2 2.135949 1_555
Mg23 O0 2.194724 1_555
Mg23 O7 2.233860 1_555
Mg23 O8 2.233860 1_555
Mg24 O1 1.922449 1_555
Mg24 O25 2.084504 1_555
Mg24 O29 2.086372 1_555
Mg24 O9 2.131970 1_555
Mg24 O10 2.131970 1_554
Mg25 O26 2.088578 1_555
Mg25 O30 2.114357 1_555
Mg25 O2 2.135949 1_555
Mg25 O0 2.194724 1_565
Mg25 O10 2.233860 1_555
Mg25 O9 2.233860 1_555
Mg26 O23 2.085487 1_655
Mg26 O3 2.124348 1_555
Mg26 O12 2.165477 1_554
Mg26 O11 2.165477 1_555
Mg26 O5 2.204442 1_555
Mg26 O27 2.260970 1_555
Mg27 O24 2.134595 1_655
Mg27 O4 2.146155 1_555
Mg27 O28 2.155639 1_555
Mg27 O11 2.181300 1_555
Mg27 O12 2.181300 1_555
Mg27 O6 2.183859 1_555
Mg28 O25 2.085487 1_655
Mg28 O3 2.124348 1_565
Mg28 O14 2.165477 1_554
Mg28 O13 2.165477 1_555
Mg28 O5 2.204442 1_555
Mg28 O29 2.260970 1_555
Mg29 O26 2.134595 1_655
Mg29 O4 2.146155 1_565
Mg29 O30 2.155639 1_555
Mg29 O13 2.181300 1_555
Mg29 O14 2.181300 1_555
Mg29 O6 2.183859 1_555
