# generated using pymatgen
data_KAlCo3Si3(HO6)2
_symmetry_space_group_name_H-M   'P 1'
_cell_length_a   5.37125200
_cell_length_b   5.37427670
_cell_length_c   10.57146062
_cell_angle_alpha   99.68022203
_cell_angle_beta   85.37812388
_cell_angle_gamma   119.92238439
_symmetry_Int_Tables_number   1
_chemical_formula_structural   KAlCo3Si3(HO6)2
_chemical_formula_sum   'K1 Al1 Co3 Si3 H2 O12'
_cell_volume   260.71676615
_cell_formula_units_Z   1
loop_
 _symmetry_equiv_pos_site_id
 _symmetry_equiv_pos_as_xyz
  1  'x, y, z'
loop_
 _atom_site_type_symbol
 _atom_site_label
 _atom_site_symmetry_multiplicity
 _atom_site_fract_x
 _atom_site_fract_y
 _atom_site_fract_z
 _atom_site_occupancy
  K  K0  1  0.99973600  0.00638500  0.01951500  1
  Al  Al0  1  0.66634700  0.40974100  0.23022700  1
  Co  Co0  1  0.33713300  0.16555800  0.49496500  1
  Co  Co1  1  0.66374800  0.82898500  0.49573200  1
  Co  Co2  1  0.00082800  0.50330300  0.49619300  1
  Si  Si0  1  0.33411000  0.74194700  0.22473400  1
  Si  Si1  1  0.33176300  0.58881900  0.76793600  1
  Si  Si2  1  0.66563800  0.25343900  0.76785200  1
  H  H0  1  0.99986600  0.11255800  0.30797300  1
  H  H1  1  0.00397500  0.89123200  0.69448400  1
  O  O0  1  0.00002100  0.13761000  0.40078700  1
  O  O1  1  0.00454700  0.87006300  0.60184100  1
  O  O2  1  0.01189800  0.50189300  0.16997800  1
  O  O3  1  0.99903100  0.46432900  0.82674800  1
  O  O4  1  0.66420000  0.46493700  0.39928700  1
  O  O5  1  0.33606000  0.79595000  0.38481400  1
  O  O6  1  0.32918200  0.53936900  0.61348600  1
  O  O7  1  0.66524700  0.19793900  0.61341400  1
  O  O8  1  0.55393900  0.62218400  0.16859700  1
  O  O9  1  0.43373200  0.04402200  0.16879100  1
  O  O10  1  0.47734500  0.41856200  0.82516200  1
  O  O11  1  0.52165300  0.94117400  0.82748400  1
loop_
_geom_bond_atom_site_label_1
_geom_bond_atom_site_label_2
_geom_bond_distance
_geom_bond_site_symmetry_2
K0 O9 2.824948 1_655
K0 O8 2.834512 1_545
K0 O2 2.836296 1_655
Al0 O8 1.758930 1_555
Al0 O2 1.759076 1_655
Al0 O9 1.759973 1_555
Al0 O4 1.761832 1_555
Co0 O4 2.034448 1_555
Co0 O0 2.064308 1_555
Co0 O1 2.106559 1_545
Co0 O5 2.124492 1_545
Co0 O7 2.163474 1_555
Co0 O6 2.199566 1_555
Co1 O4 2.049607 1_555
Co1 O0 2.073590 1_665
Co1 O5 2.110736 1_555
Co1 O1 2.121856 1_655
Co1 O7 2.153048 1_565
Co1 O6 2.168449 1_555
Co2 O0 2.050705 1_555
Co2 O4 2.053486 1_455
Co2 O1 2.087311 1_555
Co2 O5 2.134939 1_555
Co2 O6 2.148527 1_555
Co2 O7 2.202414 1_455
H0 O0 0.967696 1_655
H1 O1 0.966703 1_555
O2 Si0 1.636306 1_555
O3 Si1 1.672161 1_655
O3 Si2 1.672272 1_555
O5 Si0 1.668174 1_555
O6 Si1 1.609589 1_555
O7 Si2 1.609543 1_555
O8 Si0 1.636294 1_555
O9 Si0 1.636107 1_545
O10 Si1 1.670595 1_555
O10 Si2 1.671309 1_555
O11 Si2 1.671598 1_565
O11 Si1 1.672778 1_555
