# generated using pymatgen
data_CsMg6C
_symmetry_space_group_name_H-M   'P 1'
_cell_length_a   24.31765256
_cell_length_b   24.31765256
_cell_length_c   7.07075314
_cell_angle_alpha   85.36476321
_cell_angle_beta   85.36476321
_cell_angle_gamma   152.53136240
_symmetry_Int_Tables_number   1
_chemical_formula_structural   CsMg6C
_chemical_formula_sum   'Cs8 Mg48 C8'
_cell_volume   1813.50710987
_cell_formula_units_Z   8
loop_
 _symmetry_equiv_pos_site_id
 _symmetry_equiv_pos_as_xyz
  1  'x, y, z'
loop_
 _atom_site_type_symbol
 _atom_site_label
 _atom_site_symmetry_multiplicity
 _atom_site_fract_x
 _atom_site_fract_y
 _atom_site_fract_z
 _atom_site_occupancy
  Cs  Cs0_0  1  0.39147150  0.10852850  0.00000000  1
  Cs  Cs0_1  1  0.39147150  0.10852850  0.50000000  1
  Cs  Cs0_2  1  0.39147150  0.60852850  0.00000000  1
  Cs  Cs0_3  1  0.39147150  0.60852850  0.50000000  1
  Cs  Cs0_4  1  0.89147150  0.10852850  0.00000000  1
  Cs  Cs0_5  1  0.89147150  0.10852850  0.50000000  1
  Cs  Cs0_6  1  0.89147150  0.60852850  0.00000000  1
  Cs  Cs0_7  1  0.89147150  0.60852850  0.50000000  1
  Mg  Mg0_0  1  0.40246400  0.36281950  0.43778650  1
  Mg  Mg0_1  1  0.40246400  0.36281950  0.93778650  1
  Mg  Mg0_2  1  0.40246400  0.86281950  0.43778650  1
  Mg  Mg0_3  1  0.40246400  0.86281950  0.93778650  1
  Mg  Mg0_4  1  0.90246400  0.36281950  0.43778650  1
  Mg  Mg0_5  1  0.90246400  0.36281950  0.93778650  1
  Mg  Mg0_6  1  0.90246400  0.86281950  0.43778650  1
  Mg  Mg0_7  1  0.90246400  0.86281950  0.93778650  1
  Mg  Mg1_0  1  0.13718050  0.09753600  0.06221350  1
  Mg  Mg1_1  1  0.13718050  0.09753600  0.56221350  1
  Mg  Mg1_2  1  0.13718050  0.59753600  0.06221350  1
  Mg  Mg1_3  1  0.13718050  0.59753600  0.56221350  1
  Mg  Mg1_4  1  0.63718050  0.09753600  0.06221350  1
  Mg  Mg1_5  1  0.63718050  0.09753600  0.56221350  1
  Mg  Mg1_6  1  0.63718050  0.59753600  0.06221350  1
  Mg  Mg1_7  1  0.63718050  0.59753600  0.56221350  1
  Mg  Mg2_0  1  0.34264650  0.40166500  0.18646100  1
  Mg  Mg2_1  1  0.34264650  0.40166500  0.68646100  1
  Mg  Mg2_2  1  0.34264650  0.90166500  0.18646100  1
  Mg  Mg2_3  1  0.34264650  0.90166500  0.68646100  1
  Mg  Mg2_4  1  0.84264650  0.40166500  0.18646100  1
  Mg  Mg2_5  1  0.84264650  0.40166500  0.68646100  1
  Mg  Mg2_6  1  0.84264650  0.90166500  0.18646100  1
  Mg  Mg2_7  1  0.84264650  0.90166500  0.68646100  1
  Mg  Mg3_0  1  0.09833500  0.15735350  0.31353900  1
  Mg  Mg3_1  1  0.09833500  0.15735350  0.81353900  1
  Mg  Mg3_2  1  0.09833500  0.65735350  0.31353900  1
  Mg  Mg3_3  1  0.09833500  0.65735350  0.81353900  1
  Mg  Mg3_4  1  0.59833500  0.15735350  0.31353900  1
  Mg  Mg3_5  1  0.59833500  0.15735350  0.81353900  1
  Mg  Mg3_6  1  0.59833500  0.65735350  0.31353900  1
  Mg  Mg3_7  1  0.59833500  0.65735350  0.81353900  1
  Mg  Mg4_0  1  0.31666200  0.18333800  0.25000000  1
  Mg  Mg4_1  1  0.31666200  0.18333800  0.75000000  1
  Mg  Mg4_2  1  0.31666200  0.68333800  0.25000000  1
  Mg  Mg4_3  1  0.31666200  0.68333800  0.75000000  1
  Mg  Mg4_4  1  0.81666200  0.18333800  0.25000000  1
  Mg  Mg4_5  1  0.81666200  0.18333800  0.75000000  1
  Mg  Mg4_6  1  0.81666200  0.68333800  0.25000000  1
  Mg  Mg4_7  1  0.81666200  0.68333800  0.75000000  1
  Mg  Mg5_0  1  0.07908750  0.42091250  0.25000000  1
  Mg  Mg5_1  1  0.07908750  0.42091250  0.75000000  1
  Mg  Mg5_2  1  0.07908750  0.92091250  0.25000000  1
  Mg  Mg5_3  1  0.07908750  0.92091250  0.75000000  1
  Mg  Mg5_4  1  0.57908750  0.42091250  0.25000000  1
  Mg  Mg5_5  1  0.57908750  0.42091250  0.75000000  1
  Mg  Mg5_6  1  0.57908750  0.92091250  0.25000000  1
  Mg  Mg5_7  1  0.57908750  0.92091250  0.75000000  1
  C  C0_0  1  0.23094350  0.26905650  0.00000000  1
  C  C0_1  1  0.23094350  0.26905650  0.50000000  1
  C  C0_2  1  0.23094350  0.76905650  0.00000000  1
  C  C0_3  1  0.23094350  0.76905650  0.50000000  1
  C  C0_4  1  0.73094350  0.26905650  0.00000000  1
  C  C0_5  1  0.73094350  0.26905650  0.50000000  1
  C  C0_6  1  0.73094350  0.76905650  0.00000000  1
  C  C0_7  1  0.73094350  0.76905650  0.50000000  1
loop_
_geom_bond_atom_site_label_1
_geom_bond_atom_site_label_2
_geom_bond_distance
_geom_bond_site_symmetry_2
Cs0_0 Cs0_1 3.535377 1_555
Cs0_0 Cs0_1 3.535377 1_554
Cs0_0 Mg4_1 3.951754 1_554
Cs0_0 Mg4_0 3.951754 1_555
Cs0_0 Mg2_2 4.065660 1_545
Cs0_0 Mg3_5 4.065660 1_554
Cs0_0 Mg5_2 4.083002 1_545
Cs0_0 Mg5_5 4.083002 1_554
Cs0_1 Mg4_0 3.951754 1_555
Cs0_1 Mg4_1 3.951754 1_555
Cs0_1 Mg3_4 4.065660 1_555
Cs0_1 Mg2_3 4.065660 1_545
Cs0_1 Mg5_3 4.083002 1_545
Cs0_1 Mg5_4 4.083002 1_555
Cs0_2 Cs0_3 3.535377 1_555
Cs0_2 Cs0_3 3.535377 1_554
Cs0_2 Mg4_2 3.951754 1_555
Cs0_2 Mg4_3 3.951754 1_554
Cs0_2 Mg3_7 4.065660 1_554
Cs0_2 Mg2_0 4.065660 1_555
Cs0_2 Mg5_7 4.083002 1_554
Cs0_2 Mg5_0 4.083002 1_555
Cs0_3 Mg4_3 3.951754 1_555
Cs0_3 Mg4_2 3.951754 1_555
Cs0_3 Mg2_1 4.065660 1_555
Cs0_3 Mg3_6 4.065660 1_555
Cs0_3 Mg5_1 4.083002 1_555
Cs0_3 Mg5_6 4.083002 1_555
Cs0_4 Cs0_5 3.535377 1_554
Cs0_4 Cs0_5 3.535377 1_555
Cs0_4 Mg4_4 3.951754 1_555
Cs0_4 Mg4_5 3.951754 1_554
Cs0_4 Mg2_6 4.065660 1_545
Cs0_4 Mg3_1 4.065660 1_654
Cs0_4 Mg5_1 4.083002 1_654
Cs0_4 Mg5_6 4.083002 1_545
Cs0_5 Mg4_4 3.951754 1_555
Cs0_5 Mg4_5 3.951754 1_555
Cs0_5 Mg3_0 4.065660 1_655
Cs0_5 Mg2_7 4.065660 1_545
Cs0_5 Mg5_7 4.083002 1_545
Cs0_5 Mg5_0 4.083002 1_655
Cs0_6 Cs0_7 3.535377 1_555
Cs0_6 Cs0_7 3.535377 1_554
Cs0_6 Mg4_6 3.951754 1_555
Cs0_6 Mg4_7 3.951754 1_554
Cs0_6 Mg2_4 4.065660 1_555
Cs0_6 Mg3_3 4.065660 1_654
Cs0_6 Mg5_3 4.083002 1_654
Cs0_6 Mg5_4 4.083002 1_555
Cs0_7 Mg4_6 3.951754 1_555
Cs0_7 Mg4_7 3.951754 1_555
Cs0_7 Mg2_5 4.065660 1_555
Cs0_7 Mg3_2 4.065660 1_655
Cs0_7 Mg5_2 4.083002 1_655
Cs0_7 Mg5_5 4.083002 1_555
Mg0_0 Mg4_1 3.132825 1_555
Mg0_0 Mg5_4 3.195988 1_555
Mg0_0 Mg4_0 3.223406 1_555
Mg0_1 Mg4_0 3.132825 1_556
Mg0_1 Mg5_5 3.195988 1_555
Mg0_1 Mg4_1 3.223406 1_555
Mg0_2 Mg4_3 3.132825 1_555
Mg0_2 Mg5_6 3.195988 1_555
Mg0_2 Mg4_2 3.223406 1_555
Mg0_3 Mg4_2 3.132825 1_556
Mg0_3 Mg5_7 3.195988 1_555
Mg0_3 Mg4_3 3.223406 1_555
Mg0_4 Mg4_5 3.132825 1_555
Mg0_4 Mg5_0 3.195988 1_655
Mg0_4 Mg4_4 3.223406 1_555
Mg0_5 Mg4_4 3.132825 1_556
Mg0_5 Mg5_1 3.195988 1_655
Mg0_5 Mg4_5 3.223406 1_555
Mg0_6 Mg4_7 3.132825 1_555
Mg0_6 Mg5_2 3.195988 1_655
Mg0_6 Mg4_6 3.223406 1_555
Mg0_7 Mg4_6 3.132825 1_556
Mg0_7 Mg5_3 3.195988 1_655
Mg0_7 Mg4_7 3.223406 1_555
Mg1_0 Mg4_1 3.132825 1_554
Mg1_0 Mg5_2 3.195988 1_545
Mg1_0 Mg4_0 3.223406 1_555
Mg1_1 Mg4_0 3.132825 1_555
Mg1_1 Mg5_3 3.195988 1_545
Mg1_1 Mg4_1 3.223406 1_555
Mg1_2 Mg4_3 3.132825 1_554
Mg1_2 Mg5_0 3.195988 1_555
Mg1_2 Mg4_2 3.223406 1_555
Mg1_3 Mg4_2 3.132825 1_555
Mg1_3 Mg5_1 3.195988 1_555
Mg1_3 Mg4_3 3.223406 1_555
Mg1_4 Mg4_5 3.132825 1_554
Mg1_4 Mg5_6 3.195988 1_545
Mg1_4 Mg4_4 3.223406 1_555
Mg1_5 Mg4_4 3.132825 1_555
Mg1_5 Mg5_7 3.195988 1_545
Mg1_5 Mg4_5 3.223406 1_555
Mg1_6 Mg4_7 3.132825 1_554
Mg1_6 Mg5_4 3.195988 1_555
Mg1_6 Mg4_6 3.223406 1_555
Mg1_7 Mg4_6 3.132825 1_555
Mg1_7 Mg5_5 3.195988 1_555
Mg1_7 Mg4_7 3.223406 1_555
Mg4_0 Mg5_4 2.945833 1_555
Mg4_0 Mg5_2 2.945833 1_545
Mg4_1 Mg5_5 2.945833 1_555
Mg4_1 Mg5_3 2.945833 1_545
Mg4_2 Mg5_6 2.945833 1_555
Mg4_2 Mg5_0 2.945833 1_555
Mg4_3 Mg5_1 2.945833 1_555
Mg4_3 Mg5_7 2.945833 1_555
Mg4_4 Mg5_0 2.945833 1_655
Mg4_4 Mg5_6 2.945833 1_545
Mg4_5 Mg5_1 2.945833 1_655
Mg4_5 Mg5_7 2.945833 1_545
Mg4_6 Mg5_4 2.945833 1_555
Mg4_6 Mg5_2 2.945833 1_655
Mg4_7 Mg5_3 2.945833 1_655
Mg4_7 Mg5_5 2.945833 1_555
Mg5_0 Mg5_1 3.535377 1_555
Mg5_0 Mg5_1 3.535377 1_554
Mg5_2 Mg5_3 3.535377 1_554
Mg5_2 Mg5_3 3.535377 1_555
Mg5_4 Mg5_5 3.535377 1_555
Mg5_4 Mg5_5 3.535377 1_554
Mg5_6 Mg5_7 3.535377 1_554
Mg5_6 Mg5_7 3.535377 1_555
C0_0 Mg3_0 2.240448 1_555
C0_0 Mg2_1 2.240448 1_554
C0_0 Mg2_0 2.288598 1_555
C0_0 Mg3_1 2.288598 1_554
C0_0 Mg0_1 2.335504 1_554
C0_0 Mg1_0 2.335504 1_555
C0_1 Mg2_0 2.240448 1_555
C0_1 Mg3_1 2.240448 1_555
C0_1 Mg2_1 2.288598 1_555
C0_1 Mg3_0 2.288598 1_555
C0_1 Mg0_0 2.335504 1_555
C0_1 Mg1_1 2.335504 1_555
C0_2 Mg3_2 2.240448 1_555
C0_2 Mg2_3 2.240448 1_554
C0_2 Mg3_3 2.288598 1_554
C0_2 Mg2_2 2.288598 1_555
C0_2 Mg1_2 2.335504 1_555
C0_2 Mg0_3 2.335504 1_554
C0_3 Mg3_3 2.240448 1_555
C0_3 Mg2_2 2.240448 1_555
C0_3 Mg3_2 2.288598 1_555
C0_3 Mg2_3 2.288598 1_555
C0_3 Mg0_2 2.335504 1_555
C0_3 Mg1_3 2.335504 1_555
C0_4 Mg2_5 2.240448 1_554
C0_4 Mg3_4 2.240448 1_555
C0_4 Mg2_4 2.288598 1_555
C0_4 Mg3_5 2.288598 1_554
C0_4 Mg1_4 2.335504 1_555
C0_4 Mg0_5 2.335504 1_554
C0_5 Mg2_4 2.240448 1_555
C0_5 Mg3_5 2.240448 1_555
C0_5 Mg2_5 2.288598 1_555
C0_5 Mg3_4 2.288598 1_555
C0_5 Mg0_4 2.335504 1_555
C0_5 Mg1_5 2.335504 1_555
C0_6 Mg2_7 2.240448 1_554
C0_6 Mg3_6 2.240448 1_555
C0_6 Mg3_7 2.288598 1_554
C0_6 Mg2_6 2.288598 1_555
C0_6 Mg1_6 2.335504 1_555
C0_6 Mg0_7 2.335504 1_554
C0_7 Mg3_7 2.240448 1_555
C0_7 Mg2_6 2.240448 1_555
C0_7 Mg2_7 2.288598 1_555
C0_7 Mg3_6 2.288598 1_555
C0_7 Mg0_6 2.335504 1_555
C0_7 Mg1_7 2.335504 1_555
