# generated using pymatgen
data_Mg6TiBi
_symmetry_space_group_name_H-M   'P 1'
_cell_length_a   5.11029300
_cell_length_b   6.50015300
_cell_length_c   10.86937300
_cell_angle_alpha   90.00000000
_cell_angle_beta   90.00000000
_cell_angle_gamma   90.00000000
_symmetry_Int_Tables_number   1
_chemical_formula_structural   Mg6TiBi
_chemical_formula_sum   'Mg12 Ti2 Bi2'
_cell_volume   361.05542341
_cell_formula_units_Z   2
loop_
 _symmetry_equiv_pos_site_id
 _symmetry_equiv_pos_as_xyz
  1  'x, y, z'
loop_
 _atom_site_type_symbol
 _atom_site_label
 _atom_site_symmetry_multiplicity
 _atom_site_fract_x
 _atom_site_fract_y
 _atom_site_fract_z
 _atom_site_occupancy
  Mg  Mg0  1  0.00000000  0.74102200  0.57968200  1
  Mg  Mg1  1  0.00000000  0.25897800  0.57968200  1
  Mg  Mg2  1  0.00000000  0.00000000  0.33527800  1
  Mg  Mg3  1  0.50000000  0.74582200  0.41570600  1
  Mg  Mg4  1  0.50000000  0.25417800  0.41570600  1
  Mg  Mg5  1  0.50000000  0.00000000  0.16652200  1
  Mg  Mg6  1  0.00000000  0.24102200  0.07968200  1
  Mg  Mg7  1  0.00000000  0.75897800  0.07968200  1
  Mg  Mg8  1  0.00000000  0.50000000  0.83527800  1
  Mg  Mg9  1  0.50000000  0.24582200  0.91570600  1
  Mg  Mg10  1  0.50000000  0.75417800  0.91570600  1
  Mg  Mg11  1  0.50000000  0.50000000  0.66652200  1
  Ti  Ti0  1  0.00000000  0.00000000  0.83439000  1
  Ti  Ti1  1  0.00000000  0.50000000  0.33439000  1
  Bi  Bi0  1  0.50000000  0.00000000  0.67303200  1
  Bi  Bi1  1  0.50000000  0.50000000  0.17303200  1
loop_
_geom_bond_atom_site_label_1
_geom_bond_atom_site_label_2
_geom_bond_distance
_geom_bond_site_symmetry_2
Mg0 Ti1 3.092402 1_555
Mg0 Mg3 3.115509 1_555
Mg0 Mg3 3.115509 1_455
Mg0 Mg1 3.133360 1_555
Mg0 Mg11 3.142324 1_555
Mg0 Mg11 3.142324 1_455
Mg0 Mg2 3.144982 1_565
Mg0 Mg8 3.189468 1_555
Mg0 Ti0 3.240140 1_565
Mg0 Mg1 3.366793 1_565
Mg1 Ti1 3.092402 1_555
Mg1 Mg4 3.115509 1_455
Mg1 Mg4 3.115509 1_555
Mg1 Mg11 3.142324 1_455
Mg1 Mg11 3.142324 1_555
Mg1 Mg2 3.144982 1_555
Mg1 Mg8 3.189468 1_555
Mg1 Ti0 3.240140 1_555
Mg2 Mg5 3.145366 1_555
Mg2 Mg5 3.145366 1_455
Mg2 Mg3 3.165873 1_545
Mg2 Mg3 3.165873 1_445
Mg2 Mg4 3.165873 1_455
Mg2 Mg4 3.165873 1_555
Mg2 Mg6 3.189468 1_555
Mg2 Mg7 3.189468 1_545
Mg2 Ti1 3.250091 1_545
Mg2 Ti1 3.250091 1_555
Mg3 Ti1 3.140572 1_555
Mg3 Ti1 3.140572 1_655
Mg3 Mg5 3.172630 1_565
Mg3 Mg4 3.195761 1_555
Mg3 Mg4 3.304392 1_565
Mg4 Ti1 3.140572 1_555
Mg4 Ti1 3.140572 1_655
Mg4 Mg5 3.172630 1_555
Mg5 Mg6 3.142324 1_555
Mg5 Mg6 3.142324 1_655
Mg5 Mg7 3.142324 1_545
Mg5 Mg7 3.142324 1_645
Mg5 Mg9 3.159978 1_554
Mg6 Ti0 3.092402 1_554
Mg6 Mg9 3.115509 1_454
Mg6 Mg9 3.115509 1_554
Mg6 Mg7 3.133360 1_545
Mg6 Mg8 3.144982 1_554
Mg6 Ti1 3.240140 1_555
Mg6 Mg7 3.366793 1_555
Mg7 Ti0 3.092402 1_564
Mg7 Mg8 3.144982 1_554
Mg7 Ti1 3.240140 1_555
Mg8 Mg9 3.165873 1_455
Mg8 Mg9 3.165873 1_555
Mg8 Ti0 3.250091 1_565
Mg8 Ti0 3.250091 1_555
Mg9 Ti0 3.140572 1_555
Mg9 Ti0 3.140572 1_655
Mg10 Mg7 3.115509 1_556
Mg10 Mg7 3.115509 1_656
Mg10 Ti0 3.140572 1_665
Mg10 Ti0 3.140572 1_565
Mg10 Mg5 3.159978 1_566
Mg10 Mg8 3.165873 1_655
Mg10 Mg8 3.165873 1_555
Mg10 Mg11 3.172630 1_555
Mg10 Mg9 3.195761 1_565
Mg10 Mg9 3.304392 1_555
Mg11 Mg8 3.145366 1_655
Mg11 Mg8 3.145366 1_555
Mg11 Mg3 3.159978 1_555
Mg11 Mg4 3.159978 1_555
Mg11 Mg9 3.172630 1_555
Bi0 Mg9 3.083952 1_555
Bi0 Mg10 3.083952 1_545
Bi0 Ti0 3.099161 1_555
Bi0 Ti0 3.099161 1_655
Bi0 Mg1 3.223682 1_655
Bi0 Mg1 3.223682 1_555
Bi0 Mg0 3.223682 1_545
Bi0 Mg0 3.223682 1_645
Bi0 Mg3 3.248508 1_545
Bi0 Mg4 3.248508 1_555
Bi0 Mg11 3.250847 1_545
Bi0 Mg11 3.250847 1_555
Bi1 Mg3 3.083952 1_555
Bi1 Mg4 3.083952 1_555
Bi1 Ti1 3.099161 1_555
Bi1 Ti1 3.099161 1_655
Bi1 Mg7 3.223682 1_555
Bi1 Mg7 3.223682 1_655
Bi1 Mg6 3.223682 1_555
Bi1 Mg6 3.223682 1_655
Bi1 Mg10 3.248508 1_554
Bi1 Mg9 3.248508 1_554
Bi1 Mg5 3.250847 1_555
Bi1 Mg5 3.250847 1_565
