# generated using pymatgen
data_Li4Mn3CrO8
_symmetry_space_group_name_H-M   'P 1'
_cell_length_a   6.06259696
_cell_length_b   6.06259696
_cell_length_c   5.87615075
_cell_angle_alpha   61.66363899
_cell_angle_beta   61.66363899
_cell_angle_gamma   57.40132494
_symmetry_Int_Tables_number   1
_chemical_formula_structural   Li4Mn3CrO8
_chemical_formula_sum   'Li4 Mn3 Cr1 O8'
_cell_volume   153.01241462
_cell_formula_units_Z   1
loop_
 _symmetry_equiv_pos_site_id
 _symmetry_equiv_pos_as_xyz
  1  'x, y, z'
loop_
 _atom_site_type_symbol
 _atom_site_label
 _atom_site_symmetry_multiplicity
 _atom_site_fract_x
 _atom_site_fract_y
 _atom_site_fract_z
 _atom_site_occupancy
  Li  Li0  1  0.50000000  0.50000000  0.00000000  1
  Li  Li1  1  0.50000000  0.00000000  0.50000000  1
  Li  Li2  1  0.00000000  0.00000000  0.00000000  1
  Li  Li3  1  0.00000000  0.50000000  0.50000000  1
  Mn  Mn0  1  0.00000000  0.50000000  0.00000000  1
  Mn  Mn1  1  0.50000000  0.50000000  0.50000000  1
  Mn  Mn2  1  0.50000000  0.00000000  0.00000000  1
  Cr  Cr0  1  0.00000000  0.00000000  0.50000000  1
  O  O0  1  0.75702000  0.75702000  0.21558500  1
  O  O1  1  0.74521100  0.25976800  0.72973900  1
  O  O2  1  0.23058500  0.23058500  0.25153900  1
  O  O3  1  0.24298000  0.24298000  0.78441500  1
  O  O4  1  0.25976800  0.74521100  0.72973900  1
  O  O5  1  0.25478900  0.74023200  0.27026100  1
  O  O6  1  0.76941500  0.76941500  0.74846100  1
  O  O7  1  0.74023200  0.25478900  0.27026100  1
loop_
_geom_bond_atom_site_label_1
_geom_bond_atom_site_label_2
_geom_bond_distance
_geom_bond_site_symmetry_2
Li0 O5 2.115371 1_555
Li0 O7 2.115371 1_555
Li0 O4 2.115371 1_554
Li0 O1 2.115371 1_554
Li0 O2 2.410685 1_555
Li0 O6 2.410685 1_554
Li1 O2 2.149336 1_555
Li1 O6 2.149336 1_545
Li1 O0 2.186964 1_545
Li1 O3 2.186964 1_555
Li1 O7 2.215345 1_555
Li1 O4 2.215345 1_545
Li2 O5 2.172920 1_545
Li2 O7 2.172920 1_455
Li2 O1 2.172920 1_454
Li2 O4 2.172920 1_544
Li2 O0 2.177147 1_445
Li2 O3 2.177147 1_554
Li3 O2 2.149336 1_555
Li3 O6 2.149336 1_455
Li3 O0 2.186964 1_455
Li3 O3 2.186964 1_555
Li3 O1 2.215345 1_455
Li3 O5 2.215345 1_555
Mn0 O0 1.957523 1_455
Mn0 O3 1.957523 1_554
Mn0 O2 2.004047 1_555
Mn0 O6 2.004047 1_454
Mn0 O4 2.262644 1_554
Mn0 O7 2.262644 1_455
Mn1 O7 1.964533 1_555
Mn1 O4 1.964533 1_555
Mn1 O1 1.964533 1_555
Mn1 O5 1.964533 1_555
Mn1 O3 2.306748 1_555
Mn1 O0 2.306748 1_555
Mn2 O0 1.957523 1_545
Mn2 O3 1.957523 1_554
Mn2 O2 2.004047 1_555
Mn2 O6 2.004047 1_544
Mn2 O5 2.262644 1_545
Mn2 O1 2.262644 1_554
Cr0 O1 2.026371 1_455
Cr0 O5 2.026371 1_545
Cr0 O4 2.026371 1_545
Cr0 O7 2.026371 1_455
Cr0 O6 2.066588 1_445
Cr0 O2 2.066588 1_555
