# generated using pymatgen
data_Nd2Ge5Ir3
_symmetry_space_group_name_H-M   'P 1'
_cell_length_a   8.48190814
_cell_length_b   8.48190814
_cell_length_c   8.48190814
_cell_angle_alpha   137.80663018
_cell_angle_beta   105.04395460
_cell_angle_gamma   89.97465790
_symmetry_Int_Tables_number   1
_chemical_formula_structural   Nd2Ge5Ir3
_chemical_formula_sum   'Nd4 Ge10 Ir6'
_cell_volume   378.08128414
_cell_formula_units_Z   2
loop_
 _symmetry_equiv_pos_site_id
 _symmetry_equiv_pos_as_xyz
  1  'x, y, z'
loop_
 _atom_site_type_symbol
 _atom_site_label
 _atom_site_symmetry_multiplicity
 _atom_site_fract_x
 _atom_site_fract_y
 _atom_site_fract_z
 _atom_site_occupancy
  Nd  Nd0  1  0.86105000  0.63403300  0.22701700  1
  Nd  Nd1  1  0.13895000  0.36596700  0.77298300  1
  Nd  Nd2  1  0.40701500  0.13403300  0.27298300  1
  Nd  Nd3  1  0.59298500  0.86596700  0.72701700  1
  Ge  Ge0  1  0.50000000  0.75000000  0.25000000  1
  Ge  Ge1  1  0.50000000  0.25000000  0.75000000  1
  Ge  Ge2  1  0.22376300  0.97376300  0.75000000  1
  Ge  Ge3  1  0.77623700  0.52623700  0.75000000  1
  Ge  Ge4  1  0.77623700  0.02623700  0.25000000  1
  Ge  Ge5  1  0.22376300  0.47376300  0.25000000  1
  Ge  Ge6  1  0.06192600  0.90099800  0.16092900  1
  Ge  Ge7  1  0.93807400  0.09900200  0.83907100  1
  Ge  Ge8  1  0.74006900  0.40099800  0.33907100  1
  Ge  Ge9  1  0.25993100  0.59900200  0.66092900  1
  Ir  Ir0  1  0.00000000  0.75000000  0.75000000  1
  Ir  Ir1  1  0.00000000  0.25000000  0.25000000  1
  Ir  Ir2  1  0.24867400  0.85835500  0.39032000  1
  Ir  Ir3  1  0.75132600  0.14164500  0.60968000  1
  Ir  Ir4  1  0.46803500  0.35835500  0.10968000  1
  Ir  Ir5  1  0.53196500  0.64164500  0.89032000  1
loop_
_geom_bond_atom_site_label_1
_geom_bond_atom_site_label_2
_geom_bond_distance
_geom_bond_site_symmetry_2
Ge0 Ir5 2.549496 1_554
Ge0 Ir4 2.549496 1_555
Ge0 Ir3 2.549500 1_565
Ge0 Ir2 2.549504 1_555
Ge0 Nd3 3.225969 1_555
Ge0 Nd1 3.225970 1_554
Ge0 Nd0 3.225970 1_555
Ge0 Nd2 3.225972 1_565
Ge1 Ir5 2.549496 1_555
Ge1 Ir4 2.549496 1_556
Ge1 Ir2 2.549500 1_545
Ge1 Ir3 2.549504 1_555
Ge1 Nd2 3.225969 1_555
Ge1 Nd1 3.225970 1_555
Ge1 Nd0 3.225970 1_556
Ge1 Nd3 3.225972 1_545
Ge2 Ir2 2.493884 1_555
Ge2 Ir4 2.493887 1_566
Ge2 Ir0 2.684682 1_555
Ge2 Ge7 2.707384 1_465
Ge2 Ge9 2.707392 1_555
Ge2 Nd1 3.275941 1_565
Ge2 Nd3 3.275950 1_555
Ge2 Nd2 3.380596 1_566
Ge2 Nd0 3.380597 1_455
Ge3 Ir5 2.493887 1_555
Ge3 Ir3 2.493887 1_555
Ge3 Ir0 2.684682 1_655
Ge3 Ge6 2.707387 1_656
Ge3 Ge8 2.707392 1_555
Ge3 Nd0 3.275941 1_556
Ge3 Nd2 3.275947 1_555
Ge3 Nd3 3.380593 1_555
Ge3 Nd1 3.380597 1_655
Ge4 Ir3 2.493884 1_555
Ge4 Ir5 2.493887 1_544
Ge4 Ir1 2.684682 1_655
Ge4 Ge6 2.707384 1_645
Ge4 Ge8 2.707392 1_555
Ge4 Nd0 3.275941 1_545
Ge4 Nd2 3.275950 1_555
Ge4 Nd3 3.380596 1_544
Ge4 Nd1 3.380597 1_655
Ge5 Ir4 2.493887 1_555
Ge5 Ir2 2.493887 1_555
Ge5 Ir1 2.684682 1_555
Ge5 Ge7 2.707387 1_454
Ge5 Ge9 2.707392 1_555
Ge5 Nd1 3.275941 1_554
Ge5 Nd3 3.275947 1_555
Ge5 Nd2 3.380593 1_555
Ge5 Nd0 3.380597 1_455
Ge6 Ir2 2.422364 1_555
Ge6 Ir1 2.549558 1_565
Ge6 Ir0 2.549562 1_554
Ge6 Nd2 3.025709 1_565
Ge6 Nd0 3.274842 1_455
Ge6 Nd1 3.291682 1_565
Ge6 Nd1 3.291687 1_554
Ge7 Ir3 2.422364 1_555
Ge7 Ir0 2.549558 1_645
Ge7 Ir1 2.549562 1_656
Ge7 Nd3 3.025709 1_545
Ge7 Nd1 3.274842 1_655
Ge7 Nd0 3.291682 1_545
Ge7 Nd0 3.291687 1_556
Ge8 Ir4 2.422364 1_555
Ge8 Ir1 2.549561 1_655
Ge8 Ir0 2.549561 1_655
Ge8 Nd0 3.025709 1_555
Ge8 Nd2 3.274854 1_555
Ge8 Nd3 3.291678 1_555
Ge8 Nd3 3.291684 1_544
Ge9 Ir5 2.422364 1_555
Ge9 Ir0 2.549561 1_555
Ge9 Ir1 2.549561 1_555
Ge9 Nd1 3.025709 1_555
Ge9 Nd3 3.274854 1_555
Ge9 Nd2 3.291678 1_555
Ge9 Nd2 3.291684 1_566
Ir0 Nd3 3.585443 1_455
Ir0 Nd2 3.585445 1_566
Ir0 Nd1 3.585451 1_555
Ir0 Nd0 3.585451 1_455
Ir1 Nd2 3.585443 1_555
Ir1 Nd3 3.585445 1_444
Ir1 Nd1 3.585451 1_555
Ir1 Nd0 3.585451 1_455
Ir2 Nd0 3.175639 1_455
Ir2 Nd1 3.285719 1_565
Ir2 Nd1 3.285725 1_554
Ir2 Nd3 3.476514 1_555
Ir2 Nd2 3.522318 1_565
Ir3 Nd1 3.175639 1_655
Ir3 Nd0 3.285719 1_545
Ir3 Nd0 3.285725 1_556
Ir3 Nd2 3.476514 1_555
Ir3 Nd3 3.522318 1_545
Ir4 Nd2 3.175649 1_555
Ir4 Nd3 3.285723 1_555
Ir4 Nd3 3.285729 1_544
Ir4 Nd1 3.476503 1_554
Ir4 Nd0 3.522318 1_555
Ir5 Nd3 3.175649 1_555
Ir5 Nd2 3.285723 1_555
Ir5 Nd2 3.285729 1_566
Ir5 Nd0 3.476503 1_556
Ir5 Nd1 3.522318 1_555
