# generated using pymatgen
data_Y4FeS7
_symmetry_space_group_name_H-M   'P 1'
_cell_length_a   6.48867712
_cell_length_b   6.48867712
_cell_length_c   11.38308508
_cell_angle_alpha   76.15822612
_cell_angle_beta   76.15822612
_cell_angle_gamma   33.96058223
_symmetry_Int_Tables_number   1
_chemical_formula_structural   Y4FeS7
_chemical_formula_sum   'Y4 Fe1 S7'
_cell_volume   259.21452642
_cell_formula_units_Z   1
loop_
 _symmetry_equiv_pos_site_id
 _symmetry_equiv_pos_as_xyz
  1  'x, y, z'
loop_
 _atom_site_type_symbol
 _atom_site_label
 _atom_site_symmetry_multiplicity
 _atom_site_fract_x
 _atom_site_fract_y
 _atom_site_fract_z
 _atom_site_occupancy
  Y  Y0  1  0.69345800  0.69345800  0.20827200  1
  Y  Y1  1  0.30653800  0.30653800  0.80030300  1
  Y  Y2  1  0.99935100  0.99935100  0.00713900  1
  Y  Y3  1  0.11185700  0.11185700  0.56267200  1
  Fe  Fe0  1  0.88896100  0.88896100  0.42494100  1
  S  S0  1  0.74612700  0.74612700  0.63590500  1
  S  S1  1  0.27172400  0.27172400  0.35403300  1
  S  S2  1  0.33754000  0.33754000  0.05204100  1
  S  S3  1  0.65990200  0.65990200  0.94849600  1
  S  S4  1  0.03080300  0.03080300  0.23012600  1
  S  S5  1  0.96462300  0.96462300  0.78347800  1
  S  S6  1  0.48911500  0.48911500  0.49259400  1
loop_
_geom_bond_atom_site_label_1
_geom_bond_atom_site_label_2
_geom_bond_distance
_geom_bond_site_symmetry_2
Fe0 S4 2.462494 1_665
Fe0 S6 2.491611 1_565
Fe0 S6 2.491611 1_655
Fe0 S0 2.603800 1_555
Fe0 S1 2.635775 1_565
Fe0 S1 2.635775 1_655
S0 Y3 2.785337 1_565
S0 Y3 2.785337 1_655
S0 Y1 2.890859 1_655
S0 Y1 2.890859 1_565
S1 Y3 2.686989 1_555
S1 Y0 2.844975 1_545
S1 Y0 2.844975 1_455
S2 Y2 2.715146 1_545
S2 Y2 2.715146 1_455
S2 Y0 2.891453 1_455
S2 Y0 2.891453 1_545
S2 Y1 2.985146 1_554
S3 Y2 2.709589 1_546
S3 Y2 2.709589 1_456
S3 Y1 2.865819 1_565
S3 Y1 2.865819 1_655
S3 Y0 3.087679 1_556
S4 Y2 2.662889 1_445
S4 Y0 2.734436 1_455
S4 Y0 2.734436 1_545
S5 Y2 2.686387 1_556
S5 Y1 2.699887 1_655
S5 Y1 2.699887 1_565
S5 Y3 2.712743 1_665
S6 Y3 2.675079 1_655
S6 Y3 2.675079 1_565
