# generated using pymatgen
data_Li4MnCo2O7
_symmetry_space_group_name_H-M   'P 1'
_cell_length_a   3.01605700
_cell_length_b   6.00222180
_cell_length_c   14.26682987
_cell_angle_alpha   82.95649824
_cell_angle_beta   84.44290802
_cell_angle_gamma   84.78180556
_symmetry_Int_Tables_number   1
_chemical_formula_structural   Li4MnCo2O7
_chemical_formula_sum   'Li8 Mn2 Co4 O14'
_cell_volume   254.30051097
_cell_formula_units_Z   2
loop_
 _symmetry_equiv_pos_site_id
 _symmetry_equiv_pos_as_xyz
  1  'x, y, z'
loop_
 _atom_site_type_symbol
 _atom_site_label
 _atom_site_symmetry_multiplicity
 _atom_site_fract_x
 _atom_site_fract_y
 _atom_site_fract_z
 _atom_site_occupancy
  Li  Li0  1  0.71422100  0.35850200  0.57258100  1
  Li  Li1  1  0.28577900  0.64149800  0.42741900  1
  Li  Li2  1  0.85898600  0.92709800  0.28380500  1
  Li  Li3  1  0.14101400  0.07290200  0.71619500  1
  Li  Li4  1  0.56799200  0.79056000  0.85919900  1
  Li  Li5  1  0.00000000  0.50000000  0.00000000  1
  Li  Li6  1  0.43200800  0.20944000  0.14080100  1
  Li  Li7  1  0.00000000  0.00000000  0.00000000  1
  Mn  Mn0  1  0.71293700  0.85209300  0.57296700  1
  Mn  Mn1  1  0.28706300  0.14790700  0.42703300  1
  Co  Co0  1  0.85744400  0.43160900  0.28257600  1
  Co  Co1  1  0.43172100  0.72527600  0.13671200  1
  Co  Co2  1  0.56827900  0.27472400  0.86328800  1
  Co  Co3  1  0.14255600  0.56839100  0.71742400  1
  O  O0  1  0.18822800  0.60792000  0.57941900  1
  O  O1  1  0.75696200  0.89809600  0.43269500  1
  O  O2  1  0.32968000  0.19364800  0.28845000  1
  O  O3  1  0.61178600  0.33227000  0.72659700  1
  O  O4  1  0.05001900  0.05543800  0.85691800  1
  O  O5  1  0.49085700  0.74136000  0.01343500  1
  O  O6  1  0.90663800  0.47877900  0.14808400  1
  O  O7  1  0.24303800  0.10190400  0.56730500  1
  O  O8  1  0.81177200  0.39208000  0.42058100  1
  O  O9  1  0.38821400  0.66773000  0.27340300  1
  O  O10  1  0.67032000  0.80635200  0.71155000  1
  O  O11  1  0.09336200  0.52122100  0.85191600  1
  O  O12  1  0.50914300  0.25864000  0.98656500  1
  O  O13  1  0.94998100  0.94456200  0.14308200  1
loop_
_geom_bond_atom_site_label_1
_geom_bond_atom_site_label_2
_geom_bond_distance
_geom_bond_site_symmetry_2
Li0 O0 2.083578 1_555
Li0 O7 2.116589 1_655
Li0 O8 2.147058 1_555
Li0 O3 2.177379 1_555
Li0 O0 2.178691 1_655
Li0 O7 2.201044 1_555
Li1 O8 2.083578 1_555
Li1 O1 2.116589 1_455
Li1 O0 2.147058 1_555
Li1 O9 2.177379 1_555
Li1 O8 2.178691 1_455
Li1 O1 2.201044 1_555
Li2 O13 1.990969 1_555
Li2 O1 2.104669 1_555
Li2 O9 2.133584 1_655
Li2 O2 2.157203 1_565
Li2 O9 2.227373 1_555
Li2 O2 2.244278 1_665
Li3 O4 1.990969 1_555
Li3 O7 2.104669 1_555
Li3 O3 2.133584 1_455
Li3 O10 2.157203 1_545
Li3 O3 2.227373 1_555
Li3 O10 2.244278 1_445
Li4 O10 2.090921 1_555
Li4 O4 2.124772 1_565
Li4 O11 2.162969 1_655
Li4 O5 2.176542 1_556
Li4 O4 2.245190 1_665
Li4 O11 2.272548 1_555
Li5 O5 2.024841 1_455
Li5 O12 2.024841 1_554
Li5 O6 2.093867 1_455
Li5 O11 2.093867 1_554
Li5 O5 2.200086 1_555
Li5 O12 2.200086 1_454
Li6 O2 2.090921 1_555
Li6 O13 2.124772 1_545
Li6 O6 2.162969 1_455
Li6 O12 2.176542 1_554
Li6 O13 2.245190 1_445
Li6 O6 2.272548 1_555
Li7 O13 2.020742 1_445
Li7 O4 2.020742 1_554
Li7 O5 2.049976 1_545
Li7 O12 2.049976 1_454
Li7 O12 2.260189 1_554
Li7 O5 2.260189 1_445
Mn0 O0 1.954905 1_655
Mn0 O10 1.955775 1_555
Mn0 O7 1.967052 1_565
Mn0 O1 1.979522 1_555
Mn0 O0 2.240861 1_555
Mn0 O7 2.278671 1_665
Mn1 O8 1.954905 1_455
Mn1 O2 1.955775 1_555
Mn1 O1 1.967052 1_545
Mn1 O7 1.979522 1_555
Mn1 O8 2.240861 1_555
Mn1 O1 2.278671 1_445
Co0 O6 1.898194 1_555
Co0 O9 1.911579 1_555
Co0 O2 1.923377 1_655
Co0 O8 1.946963 1_555
Co0 O9 2.216983 1_655
Co0 O2 2.222414 1_555
Co1 O5 1.742168 1_555
Co1 O13 1.872867 1_455
Co1 O9 1.932119 1_555
Co1 O6 1.966644 1_555
Co1 O13 2.148258 1_555
Co1 O6 2.245205 1_455
Co2 O12 1.742168 1_555
Co2 O4 1.872867 1_655
Co2 O3 1.932119 1_555
Co2 O11 1.966644 1_555
Co2 O4 2.148258 1_555
Co2 O11 2.245205 1_655
Co3 O11 1.898194 1_555
Co3 O3 1.911579 1_555
Co3 O10 1.923377 1_455
Co3 O0 1.946963 1_555
Co3 O3 2.216983 1_455
Co3 O10 2.222414 1_555
