# generated using pymatgen
data_GdV(SeO4)2
_symmetry_space_group_name_H-M   'P 1'
_cell_length_a   7.05858400
_cell_length_b   6.83617700
_cell_length_c   13.63509505
_cell_angle_alpha   88.76136524
_cell_angle_beta   90.00000000
_cell_angle_gamma   90.00000000
_symmetry_Int_Tables_number   1
_chemical_formula_structural   GdV(SeO4)2
_chemical_formula_sum   'Gd4 V4 Se8 O32'
_cell_volume   657.79045073
_cell_formula_units_Z   4
loop_
 _symmetry_equiv_pos_site_id
 _symmetry_equiv_pos_as_xyz
  1  'x, y, z'
loop_
 _atom_site_type_symbol
 _atom_site_label
 _atom_site_symmetry_multiplicity
 _atom_site_fract_x
 _atom_site_fract_y
 _atom_site_fract_z
 _atom_site_occupancy
  Gd  Gd0  1  0.75000000  0.37644500  0.86350300  1
  Gd  Gd1  1  0.25000000  0.62355500  0.13649700  1
  Gd  Gd2  1  0.75000000  0.92245800  0.06912700  1
  Gd  Gd3  1  0.25000000  0.07754200  0.93087300  1
  V  V0  1  0.50886700  0.62646400  0.61377300  1
  V  V1  1  0.00886700  0.37353600  0.38622700  1
  V  V2  1  0.49113300  0.37353600  0.38622700  1
  V  V3  1  0.99113300  0.62646400  0.61377300  1
  Se  Se0  1  0.25000000  0.03801000  0.64917300  1
  Se  Se1  1  0.75000000  0.96199000  0.35082700  1
  Se  Se2  1  0.75000000  0.45069400  0.13816800  1
  Se  Se3  1  0.25000000  0.54930600  0.86183200  1
  Se  Se4  1  0.75000000  0.20684200  0.59268200  1
  Se  Se5  1  0.25000000  0.79315800  0.40731800  1
  Se  Se6  1  0.75000000  0.89316300  0.83963700  1
  Se  Se7  1  0.25000000  0.10683700  0.16036300  1
  O  O0  1  0.25000000  0.98192000  0.77053400  1
  O  O1  1  0.75000000  0.01808000  0.22946600  1
  O  O2  1  0.44516200  0.90603900  0.60537500  1
  O  O3  1  0.94516200  0.09396100  0.39462500  1
  O  O4  1  0.55483800  0.09396100  0.39462500  1
  O  O5  1  0.05483800  0.90603900  0.60537500  1
  O  O6  1  0.75000000  0.29076700  0.04099600  1
  O  O7  1  0.25000000  0.70923300  0.95900400  1
  O  O8  1  0.57454000  0.62093200  0.10770300  1
  O  O9  1  0.07454000  0.37906800  0.89229700  1
  O  O10  1  0.42546000  0.37906800  0.89229700  1
  O  O11  1  0.92546000  0.62093200  0.10770300  1
  O  O12  1  0.75000000  0.21151400  0.71656700  1
  O  O13  1  0.25000000  0.78848600  0.28343300  1
  O  O14  1  0.55486700  0.36064500  0.56232100  1
  O  O15  1  0.05486700  0.63935500  0.43767900  1
  O  O16  1  0.44513300  0.63935500  0.43767900  1
  O  O17  1  0.94513300  0.36064500  0.56232100  1
  O  O18  1  0.75000000  0.69416000  0.91899900  1
  O  O19  1  0.25000000  0.30584000  0.08100100  1
  O  O20  1  0.57683600  0.02813700  0.90070600  1
  O  O21  1  0.07683600  0.97186300  0.09929400  1
  O  O22  1  0.42316400  0.97186300  0.09929400  1
  O  O23  1  0.92316400  0.02813700  0.90070600  1
  O  O24  1  0.56252900  0.58669800  0.73102800  1
  O  O25  1  0.06252900  0.41330200  0.26897200  1
  O  O26  1  0.43747100  0.41330200  0.26897200  1
  O  O27  1  0.93747100  0.58669800  0.73102800  1
  O  O28  1  0.75000000  0.69841700  0.57190800  1
  O  O29  1  0.25000000  0.30158300  0.42809200  1
  O  O30  1  0.25000000  0.57595100  0.61687400  1
  O  O31  1  0.75000000  0.42404900  0.38312600  1
loop_
_geom_bond_atom_site_label_1
_geom_bond_atom_site_label_2
_geom_bond_distance
_geom_bond_site_symmetry_2
Gd0 O18 2.315390 1_555
Gd0 O12 2.320101 1_555
Gd0 O10 2.324328 1_555
Gd0 O9 2.324328 1_655
Gd0 O6 2.477665 1_556
Gd0 O27 2.639600 1_555
Gd0 O24 2.639600 1_555
Gd0 O20 2.714537 1_555
Gd0 O23 2.714537 1_555
Gd1 O19 2.315390 1_555
Gd1 O13 2.320101 1_555
Gd1 O11 2.324328 1_455
Gd1 O8 2.324328 1_555
Gd1 O7 2.477665 1_554
Gd1 O26 2.639600 1_555
Gd1 O25 2.639600 1_555
Gd1 O21 2.714537 1_555
Gd1 O22 2.714537 1_555
Gd2 O1 2.295371 1_565
Gd2 O21 2.368863 1_655
Gd2 O22 2.368863 1_555
Gd2 O11 2.452053 1_555
Gd2 O8 2.452053 1_555
Gd2 O6 2.538665 1_565
Gd2 O18 2.600789 1_554
Gd2 O23 2.686599 1_564
Gd2 O20 2.686599 1_564
Gd3 O0 2.295371 1_545
Gd3 O23 2.368863 1_455
Gd3 O20 2.368863 1_555
Gd3 O9 2.452053 1_555
Gd3 O10 2.452053 1_555
Gd3 O7 2.538665 1_545
Gd3 O19 2.600789 1_556
Gd3 O22 2.686599 1_546
Gd3 O21 2.686599 1_546
O0 Se0 1.690519 1_565
O1 Se1 1.690519 1_545
O2 Se0 1.758279 1_565
O2 V0 1.964339 1_555
O3 Se1 1.758279 1_545
O3 V1 1.964339 1_655
O4 Se1 1.758279 1_545
O4 V2 1.964339 1_555
O5 Se0 1.758279 1_565
O5 V3 1.964339 1_455
O6 Se2 1.735914 1_555
O7 Se3 1.735914 1_555
O8 Se2 1.743533 1_555
O9 Se3 1.743533 1_555
O10 Se3 1.743533 1_555
O11 Se2 1.743533 1_555
O12 Se4 1.690176 1_555
O13 Se5 1.690176 1_555
O14 Se4 1.776282 1_555
O14 V0 1.988689 1_555
O14 V2 2.442557 1_555
O15 Se5 1.776282 1_555
O15 V1 1.988689 1_555
O15 V3 2.442557 1_455
O16 Se5 1.776282 1_555
O16 V2 1.988689 1_555
O16 V0 2.442557 1_555
O17 Se4 1.776282 1_555
O17 V3 1.988689 1_555
O17 V1 2.442557 1_655
O18 Se6 1.719900 1_555
O19 Se7 1.719900 1_555
O20 Se6 1.752701 1_545
O21 Se7 1.752701 1_565
O22 Se7 1.752701 1_565
O23 Se6 1.752701 1_545
O24 V0 1.659726 1_555
O25 V1 1.659726 1_555
O26 V2 1.659726 1_555
O27 V3 1.659726 1_555
O28 V3 1.858134 1_555
O28 V0 1.858134 1_555
O29 V2 1.858134 1_555
O29 V1 1.858134 1_555
O30 V0 1.859889 1_555
O30 V3 1.859889 1_455
O31 V1 1.859889 1_655
O31 V2 1.859889 1_555
