# generated using pymatgen
data_LiEu(MoO4)2
_symmetry_space_group_name_H-M   'P 1'
_cell_length_a   6.03337000
_cell_length_b   5.16045600
_cell_length_c   11.16448570
_cell_angle_alpha   66.12113483
_cell_angle_beta   90.00000000
_cell_angle_gamma   90.00000000
_symmetry_Int_Tables_number   1
_chemical_formula_structural   LiEu(MoO4)2
_chemical_formula_sum   'Li2 Eu2 Mo4 O16'
_cell_volume   317.85171853
_cell_formula_units_Z   2
loop_
 _symmetry_equiv_pos_site_id
 _symmetry_equiv_pos_as_xyz
  1  'x, y, z'
loop_
 _atom_site_type_symbol
 _atom_site_label
 _atom_site_symmetry_multiplicity
 _atom_site_fract_x
 _atom_site_fract_y
 _atom_site_fract_z
 _atom_site_occupancy
  Li  Li0  1  0.69688300  0.00000000  0.75000000  1
  Li  Li1  1  0.30311700  0.00000000  0.25000000  1
  Eu  Eu0  1  0.29978900  0.50000000  0.75000000  1
  Eu  Eu1  1  0.70021100  0.50000000  0.25000000  1
  Mo  Mo0  1  0.82145300  0.73224100  0.52039300  1
  Mo  Mo1  1  0.17854700  0.26775900  0.47960700  1
  Mo  Mo2  1  0.82145300  0.26775900  0.97960700  1
  Mo  Mo3  1  0.17854700  0.73224100  0.02039300  1
  O  O0  1  0.89981800  0.85509400  0.09305800  1
  O  O1  1  0.10018200  0.14490600  0.90694200  1
  O  O2  1  0.89981800  0.14490600  0.40694200  1
  O  O3  1  0.10018200  0.85509400  0.59305800  1
  O  O4  1  0.35865900  0.72701100  0.89053000  1
  O  O5  1  0.64134100  0.27298900  0.10947000  1
  O  O6  1  0.35865900  0.27298900  0.60947000  1
  O  O7  1  0.64134100  0.72701100  0.39053000  1
  O  O8  1  0.90616500  0.64109900  0.88701600  1
  O  O9  1  0.09383500  0.35890100  0.11298400  1
  O  O10  1  0.90616500  0.35890100  0.61298400  1
  O  O11  1  0.09383500  0.64109900  0.38701600  1
  O  O12  1  0.62760000  0.77494200  0.63321100  1
  O  O13  1  0.37240000  0.22505800  0.36678900  1
  O  O14  1  0.62760000  0.22505800  0.86678900  1
  O  O15  1  0.37240000  0.77494200  0.13321100  1
loop_
_geom_bond_atom_site_label_1
_geom_bond_atom_site_label_2
_geom_bond_distance
_geom_bond_site_symmetry_2
Li0 O12 2.109440 1_545
Li0 O14 2.109440 1_555
Li0 O8 2.251857 1_545
Li0 O10 2.251857 1_555
Li0 O6 2.611685 1_555
Li0 O4 2.611685 1_545
Li1 O13 2.109440 1_555
Li1 O15 2.109440 1_545
Li1 O11 2.251857 1_545
Li1 O9 2.251857 1_555
Li1 O5 2.611685 1_555
Li1 O7 2.611685 1_545
Eu0 O3 2.297578 1_555
Eu0 O1 2.297578 1_555
Eu0 O4 2.334130 1_555
Eu0 O6 2.334130 1_555
Eu0 O12 2.475306 1_555
Eu0 O14 2.475306 1_555
Eu1 O2 2.297578 1_555
Eu1 O0 2.297578 1_555
Eu1 O7 2.334130 1_555
Eu1 O5 2.334130 1_555
Eu1 O15 2.475306 1_555
Eu1 O13 2.475306 1_555
Mo0 O12 1.796574 1_555
Mo0 O7 1.820814 1_555
Mo0 O10 1.851815 1_555
Mo0 O2 2.044270 1_565
Mo0 O3 2.074733 1_655
Mo0 O11 2.388790 1_655
Mo1 O13 1.796574 1_555
Mo1 O6 1.820814 1_555
Mo1 O11 1.851815 1_555
Mo1 O3 2.044270 1_545
Mo1 O2 2.074733 1_455
Mo1 O10 2.388790 1_455
Mo2 O14 1.796574 1_555
Mo2 O5 1.820814 1_556
Mo2 O8 1.851815 1_555
Mo2 O0 2.044270 1_546
Mo2 O1 2.074733 1_655
Mo2 O9 2.388790 1_656
Mo3 O15 1.796574 1_555
Mo3 O4 1.820814 1_554
Mo3 O9 1.851815 1_555
Mo3 O1 2.044270 1_564
Mo3 O0 2.074733 1_455
Mo3 O8 2.388790 1_454
