# generated using pymatgen
data_Ge(SbTe2)2
_symmetry_space_group_name_H-M   'P 1'
_cell_length_a   7.43919497
_cell_length_b   7.43919497
_cell_length_c   7.43919497
_cell_angle_alpha   131.42975354
_cell_angle_beta   131.42975354
_cell_angle_gamma   71.13117414
_symmetry_Int_Tables_number   1
_chemical_formula_structural   Ge(SbTe2)2
_chemical_formula_sum   'Ge1 Sb2 Te4'
_cell_volume   226.58916343
_cell_formula_units_Z   1
loop_
 _symmetry_equiv_pos_site_id
 _symmetry_equiv_pos_as_xyz
  1  'x, y, z'
loop_
 _atom_site_type_symbol
 _atom_site_label
 _atom_site_symmetry_multiplicity
 _atom_site_fract_x
 _atom_site_fract_y
 _atom_site_fract_z
 _atom_site_occupancy
  Ge  Ge0  1  0.00000000  0.00000000  0.00000000  1
  Sb  Sb0  1  0.50000000  0.50000000  0.00000000  1
  Sb  Sb1  1  0.25000000  0.75000000  0.50000000  1
  Te  Te0  1  0.50162000  0.00162000  0.50000000  1
  Te  Te1  1  0.24816200  0.24816200  0.00000000  1
  Te  Te2  1  0.99838000  0.49838000  0.50000000  1
  Te  Te3  1  0.75183800  0.75183800  0.00000000  1
loop_
_geom_bond_atom_site_label_1
_geom_bond_atom_site_label_2
_geom_bond_distance
_geom_bond_site_symmetry_2
Ge0 Te1 3.003462 1_555
Ge0 Te3 3.003462 1_445
Ge0 Te2 3.059638 1_444
Ge0 Te0 3.059638 1_454
Ge0 Te2 3.059638 1_455
Ge0 Te0 3.059638 1_555
Sb0 Te1 3.047953 1_555
Sb0 Te3 3.047953 1_555
Sb0 Te0 3.059638 1_565
Sb0 Te2 3.059638 1_555
Sb0 Te2 3.059638 1_454
Sb0 Te0 3.059638 1_554
Sb1 Te2 3.045314 1_455
Sb1 Te0 3.045314 1_565
Sb1 Te3 3.059656 1_556
Sb1 Te1 3.059656 1_555
Sb1 Te3 3.059656 1_455
Sb1 Te1 3.059656 1_566
