# generated using pymatgen
data_YbSiPt
_symmetry_space_group_name_H-M   'P 1'
_cell_length_a   4.35954800
_cell_length_b   7.08089200
_cell_length_c   7.19668900
_cell_angle_alpha   90.00000000
_cell_angle_beta   90.00000000
_cell_angle_gamma   90.00000000
_symmetry_Int_Tables_number   1
_chemical_formula_structural   YbSiPt
_chemical_formula_sum   'Yb4 Si4 Pt4'
_cell_volume   222.15810873
_cell_formula_units_Z   4
loop_
 _symmetry_equiv_pos_site_id
 _symmetry_equiv_pos_as_xyz
  1  'x, y, z'
loop_
 _atom_site_type_symbol
 _atom_site_label
 _atom_site_symmetry_multiplicity
 _atom_site_fract_x
 _atom_site_fract_y
 _atom_site_fract_z
 _atom_site_occupancy
  Yb  Yb0  1  0.25000000  0.48784700  0.68477300  1
  Yb  Yb1  1  0.25000000  0.98784700  0.81522700  1
  Yb  Yb2  1  0.75000000  0.51215300  0.31522700  1
  Yb  Yb3  1  0.75000000  0.01215300  0.18477300  1
  Si  Si0  1  0.25000000  0.83216900  0.42272800  1
  Si  Si1  1  0.25000000  0.33216900  0.07727200  1
  Si  Si2  1  0.75000000  0.16783100  0.57727200  1
  Si  Si3  1  0.75000000  0.66783100  0.92272800  1
  Pt  Pt0  1  0.25000000  0.19584600  0.39501000  1
  Pt  Pt1  1  0.25000000  0.69584600  0.10499000  1
  Pt  Pt2  1  0.75000000  0.80415400  0.60499000  1
  Pt  Pt3  1  0.75000000  0.30415400  0.89501000  1
loop_
_geom_bond_atom_site_label_1
_geom_bond_atom_site_label_2
_geom_bond_distance
_geom_bond_site_symmetry_2
Si0 Yb1 3.032168 1_555
Si0 Yb3 3.050942 1_565
Si0 Yb3 3.050942 1_465
Si0 Yb0 3.082340 1_555
Si0 Yb2 3.238009 1_455
Si0 Yb2 3.238009 1_555
Si1 Yb0 3.032168 1_554
Si1 Yb2 3.050942 1_455
Si1 Yb2 3.050942 1_555
Si1 Yb1 3.082340 1_544
Si1 Yb3 3.238009 1_555
Si1 Yb3 3.238009 1_455
Si2 Yb3 3.032168 1_555
Si2 Yb1 3.050942 1_645
Si2 Yb1 3.050942 1_545
Si2 Yb2 3.082340 1_555
Si2 Yb0 3.238009 1_555
Si2 Yb0 3.238009 1_655
Si3 Yb2 3.032168 1_556
Si3 Yb0 3.050942 1_555
Si3 Yb0 3.050942 1_655
Si3 Yb3 3.082340 1_566
Si3 Yb1 3.238009 1_655
Si3 Yb1 3.238009 1_555
Pt0 Si1 2.482056 1_555
Pt0 Si2 2.551721 1_555
Pt0 Si2 2.551721 1_455
Pt0 Si0 2.582872 1_545
Pt0 Yb0 2.936614 1_555
Pt0 Yb3 2.955074 1_455
Pt0 Yb3 2.955074 1_555
Pt0 Yb2 3.177657 1_455
Pt0 Yb2 3.177657 1_555
Pt0 Yb1 3.363749 1_545
Pt1 Si0 2.482056 1_555
Pt1 Si3 2.551721 1_554
Pt1 Si3 2.551721 1_454
Pt1 Si1 2.582872 1_555
Pt1 Yb1 2.936614 1_554
Pt1 Yb2 2.955074 1_455
Pt1 Yb2 2.955074 1_555
Pt1 Yb3 3.177657 1_465
Pt1 Yb3 3.177657 1_565
Pt1 Yb0 3.363749 1_554
Pt2 Si3 2.482056 1_555
Pt2 Si0 2.551721 1_655
Pt2 Si0 2.551721 1_555
Pt2 Si2 2.582872 1_565
Pt2 Yb2 2.936614 1_555
Pt2 Yb1 2.955074 1_555
Pt2 Yb1 2.955074 1_655
Pt2 Yb0 3.177657 1_655
Pt2 Yb0 3.177657 1_555
Pt2 Yb3 3.363749 1_565
Pt3 Si2 2.482056 1_555
Pt3 Si1 2.551721 1_656
Pt3 Si1 2.551721 1_556
Pt3 Si3 2.582872 1_555
Pt3 Yb3 2.936614 1_556
Pt3 Yb0 2.955074 1_555
Pt3 Yb0 2.955074 1_655
Pt3 Yb1 3.177657 1_645
Pt3 Yb1 3.177657 1_545
Pt3 Yb2 3.363749 1_556
