# generated using pymatgen
data_Sr8Fe4Co4O23
_symmetry_space_group_name_H-M   'P 1'
_cell_length_a   8.73249196
_cell_length_b   8.73249196
_cell_length_c   8.73249196
_cell_angle_alpha   101.38582919
_cell_angle_beta   101.38582919
_cell_angle_gamma   127.24109227
_symmetry_Int_Tables_number   1
_chemical_formula_structural   Sr8Fe4Co4O23
_chemical_formula_sum   'Sr8 Fe4 Co4 O23'
_cell_volume   474.92565302
_cell_formula_units_Z   1
loop_
 _symmetry_equiv_pos_site_id
 _symmetry_equiv_pos_as_xyz
  1  'x, y, z'
loop_
 _atom_site_type_symbol
 _atom_site_label
 _atom_site_symmetry_multiplicity
 _atom_site_fract_x
 _atom_site_fract_y
 _atom_site_fract_z
 _atom_site_occupancy
  Sr  Sr0  1  0.00000000  0.25766900  0.25766900  1
  Sr  Sr1  1  0.00000000  0.74233100  0.74233100  1
  Sr  Sr2  1  0.74233100  0.00000000  0.74233100  1
  Sr  Sr3  1  0.25766900  0.00000000  0.25766900  1
  Sr  Sr4  1  0.50000000  0.75376600  0.25376600  1
  Sr  Sr5  1  0.50000000  0.24623400  0.74623400  1
  Sr  Sr6  1  0.24623400  0.50000000  0.74623400  1
  Sr  Sr7  1  0.75376600  0.50000000  0.25376600  1
  Fe  Fe0  1  0.00000000  0.00000000  0.50000000  1
  Fe  Fe1  1  0.50000000  0.50000000  0.50000000  1
  Fe  Fe2  1  0.50000000  0.00000000  0.00000000  1
  Fe  Fe3  1  0.00000000  0.50000000  0.00000000  1
  Co  Co0  1  0.74103900  0.74103900  0.00000000  1
  Co  Co1  1  0.25896100  0.25896100  0.00000000  1
  Co  Co2  1  0.75000000  0.25000000  0.50000000  1
  Co  Co3  1  0.25000000  0.75000000  0.50000000  1
  O  O0  1  0.89513800  0.89513800  0.23537400  1
  O  O1  1  0.65976400  0.65976400  0.76462600  1
  O  O2  1  0.65976400  0.89513800  0.00000000  1
  O  O3  1  0.89513800  0.65976400  0.00000000  1
  O  O4  1  0.10486200  0.10486200  0.76462600  1
  O  O5  1  0.34023600  0.34023600  0.23537400  1
  O  O6  1  0.34023600  0.10486200  0.00000000  1
  O  O7  1  0.10486200  0.34023600  0.00000000  1
  O  O8  1  0.73812800  0.73812800  0.47625600  1
  O  O9  1  0.26187200  0.26187200  0.52374400  1
  O  O10  1  0.26187200  0.73812800  0.00000000  1
  O  O11  1  0.73812800  0.26187200  0.00000000  1
  O  O12  1  0.37356400  0.87356400  0.74712900  1
  O  O13  1  0.12643600  0.62643600  0.25287100  1
  O  O14  1  0.12643600  0.87356400  0.50000000  1
  O  O15  1  0.37356400  0.62643600  0.50000000  1
  O  O16  1  0.62643600  0.37356400  0.50000000  1
  O  O17  1  0.87356400  0.12643600  0.50000000  1
  O  O18  1  0.87356400  0.37356400  0.74712900  1
  O  O19  1  0.62643600  0.12643600  0.25287100  1
  O  O20  1  0.50000000  0.50000000  0.00000000  1
  O  O21  1  0.00000000  0.50000000  0.50000000  1
  O  O22  1  0.50000000  0.00000000  0.50000000  1
loop_
_geom_bond_atom_site_label_1
_geom_bond_atom_site_label_2
_geom_bond_distance
_geom_bond_site_symmetry_2
Fe0 O8 1.948857 1_445
Fe0 O9 1.948857 1_555
Fe0 O17 1.978265 1_455
Fe0 O14 1.978265 1_545
Fe0 O0 2.081149 1_445
Fe0 O4 2.081149 1_555
Fe1 O8 1.948857 1_555
Fe1 O9 1.948857 1_555
Fe1 O16 1.978265 1_555
Fe1 O15 1.978265 1_555
Fe1 O1 2.081149 1_555
Fe1 O5 2.081149 1_555
Fe2 O11 1.948857 1_555
Fe2 O10 1.948857 1_545
Fe2 O12 1.978257 1_544
Fe2 O19 1.978257 1_555
Fe2 O6 2.081149 1_555
Fe2 O2 2.081149 1_545
Fe3 O11 1.948857 1_455
Fe3 O10 1.948857 1_555
Fe3 O18 1.978257 1_454
Fe3 O13 1.978257 1_555
Fe3 O7 2.081149 1_555
Fe3 O3 2.081149 1_455
Co0 O1 1.862928 1_554
Co0 O0 1.862928 1_555
Co0 O2 1.862928 1_555
Co0 O3 1.862928 1_555
Co0 O20 1.870447 1_555
Co1 O4 1.862928 1_554
Co1 O5 1.862928 1_555
Co1 O7 1.862928 1_555
Co1 O6 1.862928 1_555
Co1 O20 1.870447 1_555
Co2 O16 1.933329 1_555
Co2 O17 1.933329 1_555
Co2 O19 1.933337 1_555
Co2 O18 1.933337 1_555
Co2 O22 1.939984 1_555
Co2 O21 1.939984 1_655
Co3 O14 1.933329 1_555
Co3 O15 1.933329 1_555
Co3 O13 1.933337 1_555
Co3 O12 1.933337 1_555
Co3 O22 1.939984 1_565
Co3 O21 1.939984 1_555
O0 Sr3 2.660123 1_665
O0 Sr0 2.660123 1_665
O0 Sr4 2.932128 1_555
O0 Sr7 2.932128 1_555
O1 Sr1 2.660123 1_655
O1 Sr2 2.660123 1_565
O1 Sr6 2.932128 1_555
O1 Sr5 2.932128 1_555
O2 Sr0 2.660123 1_665
O2 Sr2 2.660123 1_564
O2 Sr4 2.932128 1_555
O2 Sr6 2.932128 1_554
O3 Sr3 2.660123 1_665
O3 Sr1 2.660123 1_654
O3 Sr7 2.932128 1_555
O3 Sr5 2.932128 1_554
O4 Sr1 2.660123 1_545
O4 Sr2 2.660123 1_455
O4 Sr5 2.932128 1_555
O4 Sr6 2.932128 1_555
O5 Sr3 2.660123 1_555
O5 Sr0 2.660123 1_555
O5 Sr4 2.932128 1_555
O5 Sr7 2.932128 1_555
O6 Sr3 2.660123 1_555
O6 Sr1 2.660123 1_544
O6 Sr7 2.932128 1_555
O6 Sr5 2.932128 1_554
O7 Sr0 2.660123 1_555
O7 Sr2 2.660123 1_454
O7 Sr4 2.932128 1_555
O7 Sr6 2.932128 1_554
O8 Sr4 2.640242 1_555
O8 Sr7 2.640242 1_555
O8 Sr1 2.897635 1_655
O8 Sr2 2.897635 1_565
O9 Sr5 2.640242 1_555
O9 Sr6 2.640242 1_555
O9 Sr3 2.897635 1_555
O9 Sr0 2.897635 1_555
O10 Sr4 2.640242 1_555
O10 Sr6 2.640242 1_554
O10 Sr3 2.897635 1_565
O10 Sr1 2.897635 1_554
O11 Sr7 2.640242 1_555
O11 Sr5 2.640242 1_554
O11 Sr2 2.897635 1_554
O11 Sr0 2.897635 1_655
O12 Sr1 2.712746 1_555
O12 Sr2 2.712752 1_565
O12 Sr6 2.733923 1_555
O12 Sr5 2.733929 1_565
O13 Sr3 2.712746 1_565
O13 Sr0 2.712752 1_555
O13 Sr4 2.733923 1_555
O13 Sr7 2.733929 1_455
O14 Sr3 2.712749 1_565
O14 Sr1 2.712749 1_555
O14 Sr7 2.733926 1_455
O14 Sr5 2.733926 1_565
O15 Sr2 2.712749 1_565
O15 Sr0 2.712749 1_555
O15 Sr6 2.733926 1_555
O15 Sr4 2.733926 1_555
O16 Sr3 2.712749 1_555
O16 Sr1 2.712749 1_655
O16 Sr5 2.733926 1_555
O16 Sr7 2.733926 1_555
O17 Sr0 2.712749 1_655
O17 Sr2 2.712749 1_555
O17 Sr4 2.733926 1_545
O17 Sr6 2.733926 1_655
O18 Sr2 2.712746 1_555
O18 Sr1 2.712752 1_655
O18 Sr5 2.733923 1_555
O18 Sr6 2.733929 1_655
O19 Sr0 2.712746 1_655
O19 Sr3 2.712752 1_555
O19 Sr7 2.733923 1_555
O19 Sr4 2.733929 1_545
O20 Sr4 2.807580 1_555
O20 Sr7 2.807580 1_555
O20 Sr5 2.807580 1_554
O20 Sr6 2.807580 1_554
O21 Sr1 2.681067 1_555
O21 Sr0 2.681067 1_555
O21 Sr6 2.724249 1_555
O21 Sr7 2.724249 1_455
O22 Sr2 2.681067 1_555
O22 Sr3 2.681067 1_555
O22 Sr5 2.724249 1_555
O22 Sr4 2.724249 1_545
