# generated using pymatgen
data_ScTaN
_symmetry_space_group_name_H-M   'P 1'
_cell_length_a   6.17013108
_cell_length_b   6.17013108
_cell_length_c   20.68027200
_cell_angle_alpha   90.00000000
_cell_angle_beta   90.00000000
_cell_angle_gamma   119.99999019
_symmetry_Int_Tables_number   1
_chemical_formula_structural   ScTaN
_chemical_formula_sum   'Sc16 Ta16 N16'
_cell_volume   681.82936694
_cell_formula_units_Z   16
loop_
 _symmetry_equiv_pos_site_id
 _symmetry_equiv_pos_as_xyz
  1  'x, y, z'
loop_
 _atom_site_type_symbol
 _atom_site_label
 _atom_site_symmetry_multiplicity
 _atom_site_fract_x
 _atom_site_fract_y
 _atom_site_fract_z
 _atom_site_occupancy
  Sc  Sc0_0  1  0.00000000  0.00000000  0.25000000  1
  Sc  Sc0_1  1  0.00000000  0.00000000  0.75000000  1
  Sc  Sc0_2  1  0.00000000  0.50000000  0.25000000  1
  Sc  Sc0_3  1  0.00000000  0.50000000  0.75000000  1
  Sc  Sc0_4  1  0.50000000  0.00000000  0.25000000  1
  Sc  Sc0_5  1  0.50000000  0.00000000  0.75000000  1
  Sc  Sc0_6  1  0.50000000  0.50000000  0.25000000  1
  Sc  Sc0_7  1  0.50000000  0.50000000  0.75000000  1
  Sc  Sc1_0  1  0.00000000  0.00000000  0.00000000  1
  Sc  Sc1_1  1  0.00000000  0.00000000  0.50000000  1
  Sc  Sc1_2  1  0.00000000  0.50000000  0.00000000  1
  Sc  Sc1_3  1  0.00000000  0.50000000  0.50000000  1
  Sc  Sc1_4  1  0.50000000  0.00000000  0.00000000  1
  Sc  Sc1_5  1  0.50000000  0.00000000  0.50000000  1
  Sc  Sc1_6  1  0.50000000  0.50000000  0.00000000  1
  Sc  Sc1_7  1  0.50000000  0.50000000  0.50000000  1
  Ta  Ta0_0  1  0.33333350  0.16666650  0.37718450  1
  Ta  Ta0_1  1  0.33333350  0.16666650  0.87718450  1
  Ta  Ta0_2  1  0.33333350  0.66666650  0.37718450  1
  Ta  Ta0_3  1  0.33333350  0.66666650  0.87718450  1
  Ta  Ta0_4  1  0.83333350  0.16666650  0.37718450  1
  Ta  Ta0_5  1  0.83333350  0.16666650  0.87718450  1
  Ta  Ta0_6  1  0.83333350  0.66666650  0.37718450  1
  Ta  Ta0_7  1  0.83333350  0.66666650  0.87718450  1
  Ta  Ta1_0  1  0.16666650  0.33333350  0.12281550  1
  Ta  Ta1_1  1  0.16666650  0.33333350  0.62281550  1
  Ta  Ta1_2  1  0.16666650  0.83333350  0.12281550  1
  Ta  Ta1_3  1  0.16666650  0.83333350  0.62281550  1
  Ta  Ta1_4  1  0.66666650  0.33333350  0.12281550  1
  Ta  Ta1_5  1  0.66666650  0.33333350  0.62281550  1
  Ta  Ta1_6  1  0.66666650  0.83333350  0.12281550  1
  Ta  Ta1_7  1  0.66666650  0.83333350  0.62281550  1
  N  N0_0  1  0.33333350  0.16666650  0.18507950  1
  N  N0_1  1  0.33333350  0.16666650  0.68507950  1
  N  N0_2  1  0.33333350  0.66666650  0.18507950  1
  N  N0_3  1  0.33333350  0.66666650  0.68507950  1
  N  N0_4  1  0.83333350  0.16666650  0.18507950  1
  N  N0_5  1  0.83333350  0.16666650  0.68507950  1
  N  N0_6  1  0.83333350  0.66666650  0.18507950  1
  N  N0_7  1  0.83333350  0.66666650  0.68507950  1
  N  N1_0  1  0.16666650  0.33333350  0.31492050  1
  N  N1_1  1  0.16666650  0.33333350  0.81492050  1
  N  N1_2  1  0.16666650  0.83333350  0.31492050  1
  N  N1_3  1  0.16666650  0.83333350  0.81492050  1
  N  N1_4  1  0.66666650  0.33333350  0.31492050  1
  N  N1_5  1  0.66666650  0.33333350  0.81492050  1
  N  N1_6  1  0.66666650  0.83333350  0.31492050  1
  N  N1_7  1  0.66666650  0.83333350  0.81492050  1
loop_
_geom_bond_atom_site_label_1
_geom_bond_atom_site_label_2
_geom_bond_distance
_geom_bond_site_symmetry_2
Sc1_0 Sc1_2 3.085066 1_555
Sc1_0 Sc1_4 3.085066 1_555
Sc1_0 Sc1_2 3.085066 1_545
Sc1_0 Sc1_4 3.085066 1_455
Sc1_0 Sc1_6 3.085066 1_555
Sc1_0 Sc1_6 3.085066 1_445
Sc1_0 Ta0_5 3.102163 1_454
Sc1_0 Ta1_2 3.102163 1_545
Sc1_0 Ta0_7 3.102165 1_444
Sc1_0 Ta0_1 3.102165 1_554
Sc1_0 Ta1_6 3.102165 1_445
Sc1_0 Ta1_0 3.102165 1_555
Sc1_1 Sc1_5 3.085066 1_455
Sc1_1 Sc1_3 3.085066 1_555
Sc1_1 Sc1_5 3.085066 1_555
Sc1_1 Sc1_3 3.085066 1_545
Sc1_1 Sc1_7 3.085066 1_445
Sc1_1 Sc1_7 3.085066 1_555
Sc1_1 Ta1_3 3.102163 1_545
Sc1_1 Ta0_4 3.102163 1_455
Sc1_1 Ta1_7 3.102165 1_445
Sc1_1 Ta1_1 3.102165 1_555
Sc1_1 Ta0_6 3.102165 1_445
Sc1_1 Ta0_0 3.102165 1_555
Sc1_2 Sc1_6 3.085066 1_555
Sc1_2 Sc1_6 3.085066 1_455
Sc1_2 Sc1_4 3.085066 1_455
Sc1_2 Sc1_4 3.085066 1_565
Sc1_2 Ta0_7 3.102163 1_454
Sc1_2 Ta1_0 3.102163 1_555
Sc1_2 Ta0_3 3.102165 1_554
Sc1_2 Ta0_5 3.102165 1_454
Sc1_2 Ta1_2 3.102165 1_555
Sc1_2 Ta1_4 3.102165 1_455
Sc1_3 Sc1_7 3.085066 1_555
Sc1_3 Sc1_7 3.085066 1_455
Sc1_3 Sc1_5 3.085066 1_455
Sc1_3 Sc1_5 3.085066 1_565
Sc1_3 Ta1_1 3.102163 1_555
Sc1_3 Ta0_6 3.102163 1_455
Sc1_3 Ta1_3 3.102165 1_555
Sc1_3 Ta1_5 3.102165 1_455
Sc1_3 Ta0_2 3.102165 1_555
Sc1_3 Ta0_4 3.102165 1_455
Sc1_4 Sc1_6 3.085066 1_555
Sc1_4 Sc1_6 3.085066 1_545
Sc1_4 Ta0_1 3.102163 1_554
Sc1_4 Ta1_6 3.102163 1_545
Sc1_4 Ta0_5 3.102165 1_554
Sc1_4 Ta1_2 3.102165 1_545
Sc1_4 Ta0_3 3.102165 1_544
Sc1_4 Ta1_4 3.102165 1_555
Sc1_5 Sc1_7 3.085066 1_545
Sc1_5 Sc1_7 3.085066 1_555
Sc1_5 Ta1_7 3.102163 1_545
Sc1_5 Ta0_0 3.102163 1_555
Sc1_5 Ta1_3 3.102165 1_545
Sc1_5 Ta1_5 3.102165 1_555
Sc1_5 Ta0_4 3.102165 1_555
Sc1_5 Ta0_2 3.102165 1_545
Sc1_6 Ta0_3 3.102163 1_554
Sc1_6 Ta1_4 3.102163 1_555
Sc1_6 Ta0_1 3.102165 1_554
Sc1_6 Ta1_0 3.102165 1_555
Sc1_6 Ta0_7 3.102165 1_554
Sc1_6 Ta1_6 3.102165 1_555
Sc1_7 Ta1_5 3.102163 1_555
Sc1_7 Ta0_2 3.102163 1_555
Sc1_7 Ta1_1 3.102165 1_555
Sc1_7 Ta1_7 3.102165 1_555
Sc1_7 Ta0_0 3.102165 1_555
Sc1_7 Ta0_6 3.102165 1_555
N0_0 Ta1_4 2.197850 1_555
N0_0 Ta1_2 2.197850 1_545
N0_0 Ta1_0 2.197854 1_555
N0_0 Sc0_4 2.230480 1_555
N0_0 Sc0_0 2.230482 1_555
N0_0 Sc0_6 2.230482 1_555
N0_1 Ta1_5 2.197850 1_555
N0_1 Ta1_3 2.197850 1_545
N0_1 Ta1_1 2.197854 1_555
N0_1 Sc0_5 2.230480 1_555
N0_1 Sc0_1 2.230482 1_555
N0_1 Sc0_7 2.230482 1_555
N0_2 Ta1_0 2.197850 1_555
N0_2 Ta1_6 2.197850 1_555
N0_2 Ta1_2 2.197854 1_555
N0_2 Sc0_6 2.230480 1_555
N0_2 Sc0_2 2.230482 1_555
N0_2 Sc0_4 2.230482 1_565
N0_3 Ta1_1 2.197850 1_555
N0_3 Ta1_7 2.197850 1_555
N0_3 Ta1_3 2.197854 1_555
N0_3 Sc0_7 2.230480 1_555
N0_3 Sc0_3 2.230482 1_555
N0_3 Sc0_5 2.230482 1_565
N0_4 Ta1_6 2.197850 1_545
N0_4 Ta1_0 2.197850 1_655
N0_4 Ta1_4 2.197854 1_555
N0_4 Sc0_0 2.230480 1_655
N0_4 Sc0_4 2.230482 1_555
N0_4 Sc0_2 2.230482 1_655
N0_5 Ta1_7 2.197850 1_545
N0_5 Ta1_1 2.197850 1_655
N0_5 Ta1_5 2.197854 1_555
N0_5 Sc0_1 2.230480 1_655
N0_5 Sc0_5 2.230482 1_555
N0_5 Sc0_3 2.230482 1_655
N0_6 Ta1_2 2.197850 1_655
N0_6 Ta1_4 2.197850 1_555
N0_6 Ta1_6 2.197854 1_555
N0_6 Sc0_2 2.230480 1_655
N0_6 Sc0_0 2.230482 1_665
N0_6 Sc0_6 2.230482 1_555
N0_7 Ta1_3 2.197850 1_655
N0_7 Ta1_5 2.197850 1_555
N0_7 Ta1_7 2.197854 1_555
N0_7 Sc0_3 2.230480 1_655
N0_7 Sc0_1 2.230482 1_665
N0_7 Sc0_7 2.230482 1_555
N1_0 Ta0_2 2.197850 1_555
N1_0 Ta0_4 2.197850 1_455
N1_0 Ta0_0 2.197854 1_555
N1_0 Sc0_2 2.230480 1_555
N1_0 Sc0_0 2.230482 1_555
N1_0 Sc0_6 2.230482 1_555
N1_1 Ta0_3 2.197850 1_555
N1_1 Ta0_5 2.197850 1_455
N1_1 Ta0_1 2.197854 1_555
N1_1 Sc0_3 2.230480 1_555
N1_1 Sc0_1 2.230482 1_555
N1_1 Sc0_7 2.230482 1_555
N1_2 Ta0_6 2.197850 1_455
N1_2 Ta0_0 2.197850 1_565
N1_2 Ta0_2 2.197854 1_555
N1_2 Sc0_0 2.230480 1_565
N1_2 Sc0_4 2.230482 1_565
N1_2 Sc0_2 2.230482 1_555
N1_3 Ta0_7 2.197850 1_455
N1_3 Ta0_1 2.197850 1_565
N1_3 Ta0_3 2.197854 1_555
N1_3 Sc0_1 2.230480 1_565
N1_3 Sc0_3 2.230482 1_555
N1_3 Sc0_5 2.230482 1_565
N1_4 Ta0_0 2.197850 1_555
N1_4 Ta0_6 2.197850 1_555
N1_4 Ta0_4 2.197854 1_555
N1_4 Sc0_6 2.230480 1_555
N1_4 Sc0_4 2.230482 1_555
N1_4 Sc0_2 2.230482 1_655
N1_5 Ta0_1 2.197850 1_555
N1_5 Ta0_7 2.197850 1_555
N1_5 Ta0_5 2.197854 1_555
N1_5 Sc0_7 2.230480 1_555
N1_5 Sc0_3 2.230482 1_655
N1_5 Sc0_5 2.230482 1_555
N1_6 Ta0_4 2.197850 1_565
N1_6 Ta0_2 2.197850 1_555
N1_6 Ta0_6 2.197854 1_555
N1_6 Sc0_4 2.230480 1_565
N1_6 Sc0_0 2.230482 1_665
N1_6 Sc0_6 2.230482 1_555
N1_7 Ta0_5 2.197850 1_565
N1_7 Ta0_3 2.197850 1_555
N1_7 Ta0_7 2.197854 1_555
N1_7 Sc0_5 2.230480 1_565
N1_7 Sc0_1 2.230482 1_665
N1_7 Sc0_7 2.230482 1_555
