# generated using pymatgen
data_Na8Ti3Fe(Si4O11)4
_symmetry_space_group_name_H-M   'P 1'
_cell_length_a   8.05491500
_cell_length_b   10.85330200
_cell_length_c   10.85330200
_cell_angle_alpha   90.00000000
_cell_angle_beta   90.00000000
_cell_angle_gamma   90.00000000
_symmetry_Int_Tables_number   1
_chemical_formula_structural   Na8Ti3Fe(Si4O11)4
_chemical_formula_sum   'Na8 Ti3 Fe1 Si16 O44'
_cell_volume   948.82198096
_cell_formula_units_Z   1
loop_
 _symmetry_equiv_pos_site_id
 _symmetry_equiv_pos_as_xyz
  1  'x, y, z'
loop_
 _atom_site_type_symbol
 _atom_site_label
 _atom_site_symmetry_multiplicity
 _atom_site_fract_x
 _atom_site_fract_y
 _atom_site_fract_z
 _atom_site_occupancy
  Na  Na0  1  0.50216600  0.63079100  0.31529000  1
  Na  Na1  1  0.00055000  0.12795700  0.81763900  1
  Na  Na2  1  0.50216600  0.36920900  0.68471000  1
  Na  Na3  1  0.00055000  0.87204300  0.18236100  1
  Na  Na4  1  0.00055000  0.18236100  0.12795700  1
  Na  Na5  1  0.50216600  0.68471000  0.63079100  1
  Na  Na6  1  0.00055000  0.81763900  0.87204300  1
  Na  Na7  1  0.50216600  0.31529000  0.36920900  1
  Ti  Ti0  1  0.78200900  0.50000000  0.50000000  1
  Ti  Ti1  1  0.70737700  0.00000000  0.00000000  1
  Ti  Ti2  1  0.26785200  0.50000000  0.50000000  1
  Fe  Fe0  1  0.24550500  0.00000000  0.00000000  1
  Si  Si0  1  0.30849100  0.30740500  0.98601600  1
  Si  Si1  1  0.80845200  0.80809400  0.48776100  1
  Si  Si2  1  0.30849100  0.69259500  0.01398400  1
  Si  Si3  1  0.80845200  0.19190600  0.51223900  1
  Si  Si4  1  0.80845200  0.51223900  0.80809400  1
  Si  Si5  1  0.30849100  0.01398400  0.30740500  1
  Si  Si6  1  0.80845200  0.48776100  0.19190600  1
  Si  Si7  1  0.30849100  0.98601600  0.69259500  1
  Si  Si8  1  0.69097600  0.69302500  0.01206000  1
  Si  Si9  1  0.19120300  0.19122300  0.51386900  1
  Si  Si10  1  0.69097600  0.30697500  0.98794000  1
  Si  Si11  1  0.19120300  0.80877700  0.48613100  1
  Si  Si12  1  0.19120300  0.48613100  0.19122300  1
  Si  Si13  1  0.69097600  0.98794000  0.69302500  1
  Si  Si14  1  0.19120300  0.51386900  0.80877700  1
  Si  Si15  1  0.69097600  0.01206000  0.30697500  1
  O  O0  1  0.23329300  0.17797500  0.94266400  1
  O  O1  1  0.73051900  0.67661900  0.45249300  1
  O  O2  1  0.23329300  0.82202500  0.05733600  1
  O  O3  1  0.73051900  0.32338100  0.54750700  1
  O  O4  1  0.73051900  0.54750700  0.67661900  1
  O  O5  1  0.23329300  0.05733600  0.17797500  1
  O  O6  1  0.73051900  0.45249300  0.32338100  1
  O  O7  1  0.23329300  0.94266400  0.82202500  1
  O  O8  1  0.76628700  0.82624300  0.04664600  1
  O  O9  1  0.26709400  0.32223300  0.55109700  1
  O  O10  1  0.76628700  0.17375700  0.95335400  1
  O  O11  1  0.26709400  0.67776700  0.44890300  1
  O  O12  1  0.26709400  0.44890300  0.32223300  1
  O  O13  1  0.76628700  0.95335400  0.82624300  1
  O  O14  1  0.26709400  0.55109700  0.67776700  1
  O  O15  1  0.76628700  0.04664600  0.17375700  1
  O  O16  1  0.99993300  0.53725100  0.19562800  1
  O  O17  1  0.49971700  0.03788400  0.69819100  1
  O  O18  1  0.99993300  0.46274900  0.80437200  1
  O  O19  1  0.49971700  0.96211600  0.30180900  1
  O  O20  1  0.49971700  0.30180900  0.03788400  1
  O  O21  1  0.99993300  0.80437200  0.53725100  1
  O  O22  1  0.49971700  0.69819100  0.96211600  1
  O  O23  1  0.99993300  0.19562800  0.46274900  1
  O  O24  1  0.30731400  0.40284500  0.86701800  1
  O  O25  1  0.80530800  0.90089600  0.36672800  1
  O  O26  1  0.30731400  0.59715500  0.13298200  1
  O  O27  1  0.80530800  0.09910400  0.63327200  1
  O  O28  1  0.80530800  0.63327200  0.90089600  1
  O  O29  1  0.30731400  0.13298200  0.40284500  1
  O  O30  1  0.80530800  0.36672800  0.09910400  1
  O  O31  1  0.30731400  0.86701800  0.59715500  1
  O  O32  1  0.69496100  0.60046700  0.13297600  1
  O  O33  1  0.19335200  0.09770600  0.63409300  1
  O  O34  1  0.69496100  0.39953300  0.86702400  1
  O  O35  1  0.19335200  0.90229400  0.36590700  1
  O  O36  1  0.19335200  0.36590700  0.09770600  1
  O  O37  1  0.69496100  0.86702400  0.60046700  1
  O  O38  1  0.19335200  0.63409300  0.90229400  1
  O  O39  1  0.69496100  0.13297600  0.39953300  1
  O  O40  1  0.02443700  0.00000000  0.00000000  1
  O  O41  1  0.48594900  0.50000000  0.50000000  1
  O  O42  1  0.49413000  0.00000000  0.00000000  1
  O  O43  1  0.99427900  0.50000000  0.50000000  1
loop_
_geom_bond_atom_site_label_1
_geom_bond_atom_site_label_2
_geom_bond_distance
_geom_bond_site_symmetry_2
Na0 O1 2.418282 1_555
Na0 O11 2.438881 1_555
Na0 O41 2.459870 1_555
Na0 O32 2.536780 1_555
Na0 O26 2.551800 1_555
Na0 O6 2.671267 1_555
Na0 O12 2.736417 1_555
Na1 O0 2.377091 1_555
Na1 O40 2.425484 1_556
Na1 O10 2.444860 1_455
Na1 O33 2.547155 1_555
Na1 O27 2.564231 1_455
Na1 O13 2.675905 1_445
Na1 O7 2.749754 1_545
Na2 O3 2.418282 1_555
Na2 O9 2.438881 1_555
Na2 O41 2.459870 1_555
Na2 O34 2.536780 1_555
Na2 O24 2.551800 1_555
Na2 O4 2.671267 1_555
Na2 O14 2.736417 1_555
Na3 O2 2.377091 1_555
Na3 O40 2.425484 1_565
Na3 O8 2.444860 1_455
Na3 O35 2.547155 1_555
Na3 O25 2.564231 1_455
Na3 O15 2.675905 1_465
Na3 O5 2.749754 1_565
Na4 O5 2.377091 1_555
Na4 O40 2.425484 1_555
Na4 O15 2.444860 1_455
Na4 O36 2.547155 1_555
Na4 O30 2.564231 1_455
Na4 O10 2.675905 1_454
Na4 O0 2.749754 1_554
Na5 O4 2.418282 1_555
Na5 O14 2.438881 1_555
Na5 O41 2.459870 1_555
Na5 O37 2.536780 1_555
Na5 O31 2.551800 1_555
Na5 O1 2.671267 1_555
Na5 O11 2.736417 1_555
Na6 O7 2.377091 1_555
Na6 O40 2.425484 1_566
Na6 O13 2.444860 1_455
Na6 O38 2.547155 1_555
Na6 O28 2.564231 1_455
Na6 O8 2.675905 1_456
Na6 O2 2.749754 1_556
Na7 O6 2.418282 1_555
Na7 O12 2.438881 1_555
Na7 O41 2.459870 1_555
Na7 O39 2.536780 1_555
Na7 O29 2.551800 1_555
Na7 O3 2.671267 1_555
Na7 O9 2.736417 1_555
Fe0 O40 1.780684 1_555
Fe0 O42 2.002653 1_555
Fe0 O2 2.031762 1_545
Fe0 O5 2.031762 1_555
Fe0 O0 2.031762 1_554
Fe0 O7 2.031762 1_544
O0 Si0 1.600492 1_555
O1 Si1 1.605220 1_555
O1 Ti0 2.027898 1_555
O2 Si2 1.600492 1_555
O3 Si3 1.605220 1_555
O3 Ti0 2.027898 1_555
O4 Si4 1.605220 1_555
O4 Ti0 2.027898 1_555
O5 Si5 1.600492 1_555
O6 Si6 1.605220 1_555
O6 Ti0 2.027898 1_555
O7 Si7 1.600492 1_555
O8 Si8 1.612264 1_555
O8 Ti1 2.009440 1_565
O9 Si9 1.599597 1_555
O9 Ti2 2.007489 1_555
O10 Si10 1.612264 1_555
O10 Ti1 2.009440 1_556
O11 Si11 1.599597 1_555
O11 Ti2 2.007489 1_555
O12 Si12 1.599597 1_555
O12 Ti2 2.007489 1_555
O13 Si13 1.612264 1_555
O13 Ti1 2.009440 1_566
O14 Si14 1.599597 1_555
O14 Ti2 2.007489 1_555
O15 Si15 1.612264 1_555
O15 Ti1 2.009440 1_555
O16 Si6 1.633715 1_555
O16 Si12 1.638217 1_655
O17 Si13 1.634118 1_545
O17 Si7 1.641079 1_545
O18 Si4 1.633715 1_555
O18 Si14 1.638217 1_655
O19 Si15 1.634118 1_565
O19 Si5 1.641079 1_565
O20 Si10 1.634118 1_554
O20 Si0 1.641079 1_554
O21 Si1 1.633715 1_555
O21 Si11 1.638217 1_655
O22 Si8 1.634118 1_556
O22 Si2 1.641079 1_556
O23 Si3 1.633715 1_555
O23 Si9 1.638217 1_655
O24 Si14 1.651135 1_555
O24 Si0 1.655621 1_555
O25 Si15 1.650554 1_565
O25 Si1 1.655498 1_555
O26 Si12 1.651135 1_555
O26 Si2 1.655621 1_555
O27 Si13 1.650554 1_545
O27 Si3 1.655498 1_555
O28 Si8 1.650554 1_556
O28 Si4 1.655498 1_555
O29 Si9 1.651135 1_555
O29 Si5 1.655621 1_555
O30 Si10 1.650554 1_554
O30 Si6 1.655498 1_555
O31 Si11 1.651135 1_555
O31 Si7 1.655621 1_555
O32 Si8 1.652998 1_555
O32 Si6 1.655613 1_555
O33 Si7 1.653096 1_545
O33 Si9 1.653189 1_555
O34 Si10 1.652998 1_555
O34 Si4 1.655613 1_555
O35 Si5 1.653096 1_565
O35 Si11 1.653189 1_555
O36 Si0 1.653096 1_554
O36 Si12 1.653189 1_555
O37 Si13 1.652998 1_555
O37 Si1 1.655613 1_555
O38 Si2 1.653096 1_556
O38 Si14 1.653189 1_555
O39 Si15 1.652998 1_555
O39 Si3 1.655613 1_555
O40 Ti1 2.553891 1_455
O41 Ti2 1.756753 1_555
O41 Ti0 2.384738 1_555
O42 Ti1 1.717686 1_555
O43 Ti0 1.709817 1_555
O43 Ti2 2.203607 1_655
