# generated using pymatgen
data_Ce2(Ga3Ru)3
_symmetry_space_group_name_H-M   'P 1'
_cell_length_a   7.51173893
_cell_length_b   7.51173893
_cell_length_c   9.61454035
_cell_angle_alpha   90.00000000
_cell_angle_beta   90.00000000
_cell_angle_gamma   119.36596508
_symmetry_Int_Tables_number   1
_chemical_formula_structural   Ce2(Ga3Ru)3
_chemical_formula_sum   'Ce4 Ga18 Ru6'
_cell_volume   472.80222636
_cell_formula_units_Z   2
loop_
 _symmetry_equiv_pos_site_id
 _symmetry_equiv_pos_as_xyz
  1  'x, y, z'
loop_
 _atom_site_type_symbol
 _atom_site_label
 _atom_site_symmetry_multiplicity
 _atom_site_fract_x
 _atom_site_fract_y
 _atom_site_fract_z
 _atom_site_occupancy
  Ce  Ce0  1  0.99935308  0.67104795  0.25000000  1
  Ce  Ce1  1  0.00064692  0.32895205  0.75000000  1
  Ce  Ce2  1  0.67104795  0.99935308  0.25000000  1
  Ce  Ce3  1  0.32895205  0.00064692  0.75000000  1
  Ga  Ga0  1  0.13127021  0.13127021  0.25000000  1
  Ga  Ga1  1  0.86872979  0.86872979  0.75000000  1
  Ga  Ga2  1  0.00957553  0.33652688  0.07597652  1
  Ga  Ga3  1  0.99042447  0.66347312  0.92402348  1
  Ga  Ga4  1  0.99042447  0.66347312  0.57597652  1
  Ga  Ga5  1  0.33652688  0.00957553  0.42402348  1
  Ga  Ga6  1  0.00957553  0.33652688  0.42402348  1
  Ga  Ga7  1  0.66347312  0.99042447  0.57597652  1
  Ga  Ga8  1  0.66347312  0.99042447  0.92402348  1
  Ga  Ga9  1  0.33652688  0.00957553  0.07597652  1
  Ga  Ga10  1  0.33922765  0.33922765  0.55994444  1
  Ga  Ga11  1  0.66077235  0.66077235  0.44005556  1
  Ga  Ga12  1  0.66077235  0.66077235  0.05994444  1
  Ga  Ga13  1  0.33922765  0.33922765  0.94005556  1
  Ga  Ga14  1  0.33814797  0.54776975  0.25000000  1
  Ga  Ga15  1  0.66185203  0.45223025  0.75000000  1
  Ga  Ga16  1  0.54776975  0.33814797  0.25000000  1
  Ga  Ga17  1  0.45223025  0.66185203  0.75000000  1
  Ru  Ru0  1  0.67385604  0.32614396  -0.00000000  1
  Ru  Ru1  1  0.32614396  0.67385604  -0.00000000  1
  Ru  Ru2  1  0.32614396  0.67385604  0.50000000  1
  Ru  Ru3  1  0.67385604  0.32614396  0.50000000  1
  Ru  Ru4  1  0.00000000  0.00000000  -0.00000000  1
  Ru  Ru5  1  0.00000000  0.00000000  0.50000000  1
loop_
_geom_bond_atom_site_label_1
_geom_bond_atom_site_label_2
_geom_bond_distance
_geom_bond_site_symmetry_2
Ce0 Ga6 3.051054 1_655
Ce0 Ga2 3.051054 1_655
Ce0 Ga9 3.060070 1_665
Ce0 Ga5 3.060070 1_665
Ce0 Ga16 3.072552 1_555
Ce0 Ga0 3.094096 1_665
Ce0 Ga12 3.101767 1_555
Ce0 Ga11 3.101767 1_555
Ce0 Ga14 3.105743 1_655
Ce0 Ga4 3.134751 1_555
Ce0 Ga3 3.134751 1_554
Ce1 Ga4 3.051054 1_455
Ce1 Ga3 3.051054 1_455
Ce1 Ga7 3.060070 1_445
Ce1 Ga8 3.060070 1_445
Ce1 Ga17 3.072552 1_555
Ce1 Ga1 3.094096 1_445
Ce1 Ga13 3.101767 1_555
Ce1 Ga10 3.101767 1_555
Ce1 Ga15 3.105743 1_455
Ce1 Ga2 3.134751 1_556
Ce1 Ga6 3.134751 1_555
Ce2 Ga5 3.051054 1_565
Ce2 Ga9 3.051054 1_565
Ce2 Ga2 3.060070 1_665
Ce2 Ga6 3.060070 1_665
Ce2 Ga14 3.072552 1_555
Ce2 Ga0 3.094096 1_665
Ce2 Ga12 3.101767 1_555
Ce2 Ga11 3.101767 1_555
Ce2 Ga16 3.105743 1_565
Ce2 Ga7 3.134751 1_555
Ce2 Ga8 3.134751 1_554
Ce3 Ga8 3.051054 1_545
Ce3 Ga7 3.051054 1_545
Ce3 Ga3 3.060070 1_445
Ce3 Ga4 3.060070 1_445
Ce3 Ga15 3.072552 1_555
Ce3 Ga1 3.094096 1_445
Ce3 Ga10 3.101767 1_555
Ce3 Ga13 3.101767 1_555
Ce3 Ga17 3.105743 1_545
Ce3 Ga9 3.134751 1_556
Ce3 Ga5 3.134751 1_555
Ga0 Ru5 2.601632 1_555
Ga0 Ru4 2.601632 1_555
Ga0 Ga2 2.719320 1_555
Ga0 Ga5 2.719320 1_555
Ga0 Ga6 2.719320 1_555
Ga0 Ga9 2.719320 1_555
Ga0 Ga14 2.726694 1_555
Ga0 Ga16 2.726694 1_555
Ga1 Ru5 2.601632 1_665
Ga1 Ru4 2.601632 1_666
Ga1 Ga3 2.719320 1_555
Ga1 Ga7 2.719320 1_555
Ga1 Ga4 2.719320 1_555
Ga1 Ga8 2.719320 1_555
Ga1 Ga17 2.726694 1_555
Ga1 Ga15 2.726694 1_555
Ga2 Ru1 2.588322 1_555
Ga2 Ru0 2.589680 1_455
Ga2 Ru4 2.598217 1_555
Ga2 Ga3 2.921168 1_454
Ga2 Ga8 3.003911 1_444
Ga3 Ru0 2.588322 1_556
Ga3 Ru1 2.589680 1_656
Ga3 Ru4 2.598217 1_666
Ga3 Ga9 3.003911 1_666
Ga4 Ru3 2.588322 1_555
Ga4 Ru2 2.589680 1_655
Ga4 Ru5 2.598217 1_665
Ga4 Ga6 2.921168 1_655
Ga4 Ga5 3.003911 1_665
Ga5 Ru3 2.588322 1_555
Ga5 Ru2 2.589680 1_545
Ga5 Ru5 2.598217 1_555
Ga5 Ga7 2.921168 1_545
Ga6 Ru2 2.588322 1_555
Ga6 Ru3 2.589680 1_455
Ga6 Ru5 2.598217 1_555
Ga6 Ga7 3.003911 1_445
Ga7 Ru2 2.588322 1_555
Ga7 Ru3 2.589680 1_565
Ga7 Ru5 2.598217 1_665
Ga8 Ru1 2.588322 1_556
Ga8 Ru0 2.589680 1_566
Ga8 Ru4 2.598217 1_666
Ga8 Ga9 2.921168 1_566
Ga9 Ru0 2.588322 1_555
Ga9 Ru1 2.589680 1_545
Ga9 Ru4 2.598217 1_555
Ga10 Ru3 2.627263 1_555
Ga10 Ru2 2.627263 1_555
Ga10 Ru5 2.636340 1_555
Ga10 Ga11 2.697184 1_555
Ga10 Ga5 2.791197 1_555
Ga10 Ga6 2.791197 1_555
Ga10 Ga15 2.813390 1_555
Ga10 Ga17 2.813390 1_555
Ga11 Ru2 2.627263 1_555
Ga11 Ru3 2.627263 1_555
Ga11 Ru5 2.636340 1_665
Ga11 Ga4 2.791197 1_555
Ga11 Ga7 2.791197 1_555
Ga11 Ga16 2.813390 1_555
Ga11 Ga14 2.813390 1_555
Ga12 Ru1 2.627263 1_555
Ga12 Ru0 2.627263 1_555
Ga12 Ru4 2.636340 1_665
Ga12 Ga13 2.697184 1_554
Ga12 Ga8 2.791197 1_554
Ga12 Ga3 2.791197 1_554
Ga12 Ga16 2.813390 1_555
Ga12 Ga14 2.813390 1_555
Ga13 Ru0 2.627263 1_556
Ga13 Ru1 2.627263 1_556
Ga13 Ru4 2.636340 1_556
Ga13 Ga2 2.791197 1_556
Ga13 Ga9 2.791197 1_556
Ga13 Ga15 2.813390 1_555
Ga13 Ga17 2.813390 1_555
Ga14 Ru1 2.601231 1_555
Ga14 Ru2 2.601231 1_555
Ga14 Ga16 2.718575 1_555
Ga14 Ga6 2.750999 1_555
Ga14 Ga2 2.750999 1_555
Ga15 Ru0 2.601231 1_556
Ga15 Ru3 2.601231 1_555
Ga15 Ga17 2.718575 1_555
Ga15 Ga4 2.750999 1_555
Ga15 Ga3 2.750999 1_555
Ga16 Ru3 2.601231 1_555
Ga16 Ru0 2.601231 1_555
Ga16 Ga5 2.750999 1_555
Ga16 Ga9 2.750999 1_555
Ga17 Ru2 2.601231 1_555
Ga17 Ru1 2.601231 1_556
Ga17 Ga8 2.750999 1_555
Ga17 Ga7 2.750999 1_555
