# generated using pymatgen
data_Cu6Pb2Se6N2O27
_symmetry_space_group_name_H-M   'P 1'
_cell_length_a   7.94966900
_cell_length_b   9.29703771
_cell_length_c   9.55252027
_cell_angle_alpha   68.48120291
_cell_angle_beta   81.17534702
_cell_angle_gamma   70.62219088
_symmetry_Int_Tables_number   1
_chemical_formula_structural   Cu6Pb2Se6N2O27
_chemical_formula_sum   'Cu6 Pb2 Se6 N2 O27'
_cell_volume   619.18889754
_cell_formula_units_Z   1
loop_
 _symmetry_equiv_pos_site_id
 _symmetry_equiv_pos_as_xyz
  1  'x, y, z'
loop_
 _atom_site_type_symbol
 _atom_site_label
 _atom_site_symmetry_multiplicity
 _atom_site_fract_x
 _atom_site_fract_y
 _atom_site_fract_z
 _atom_site_occupancy
  Cu  Cu0  1  0.44355300  0.34708500  0.02721300  1
  Cu  Cu1  1  0.55659000  0.65190800  0.97327800  1
  Cu  Cu2  1  0.36487700  0.09611000  0.89374400  1
  Cu  Cu3  1  0.63481300  0.90291300  0.10611400  1
  Cu  Cu4  1  0.00123700  0.49845500  0.49994500  1
  Cu  Cu5  1  0.99941700  0.99944300  0.00097000  1
  Pb  Pb0  1  0.46897900  0.27847700  0.45983300  1
  Pb  Pb1  1  0.52858600  0.71768800  0.55551000  1
  Se  Se0  1  0.25160200  0.08337300  0.23013500  1
  Se  Se1  1  0.74818500  0.91517700  0.76864500  1
  Se  Se2  1  0.16363300  0.60784800  0.15378400  1
  Se  Se3  1  0.83790800  0.38980400  0.84912000  1
  Se  Se4  1  0.12834700  0.10510400  0.64403200  1
  Se  Se5  1  0.87218700  0.88884300  0.35745200  1
  N  N0  1  0.82576900  0.38185500  0.25834500  1
  N  N1  1  0.17563400  0.61697500  0.74159300  1
  O  O0  1  0.49438500  0.81941800  0.04405100  1
  O  O1  1  0.50482800  0.17966400  0.95615100  1
  O  O2  1  0.78357000  0.27660700  0.22785700  1
  O  O3  1  0.22655200  0.71955400  0.76989000  1
  O  O4  1  0.20664200  0.01064100  0.83192100  1
  O  O5  1  0.79210200  0.98742900  0.16937300  1
  O  O6  1  0.83621600  0.70322400  0.38425000  1
  O  O7  1  0.16678700  0.29127000  0.61277200  1
  O  O8  1  0.30484800  0.25998400  0.19656000  1
  O  O9  1  0.68996900  0.74096900  0.80039000  1
  O  O10  1  0.17582900  0.48412700  0.84284300  1
  O  O11  1  0.81797600  0.51821200  0.15891700  1
  O  O12  1  0.19411500  0.51288200  0.34556200  1
  O  O13  1  0.81097600  0.48765900  0.65709100  1
  O  O14  1  0.87359500  0.34864200  0.39062900  1
  O  O15  1  0.12710500  0.65112000  0.60941400  1
  O  O16  1  0.14598200  0.80069800  0.13874200  1
  O  O17  1  0.85410300  0.19803700  0.86177000  1
  O  O18  1  0.29640300  0.03236000  0.53435300  1
  O  O19  1  0.70584800  0.95742700  0.47075500  1
  O  O20  1  0.39842100  0.53032200  0.10291800  1
  O  O21  1  0.60249800  0.46865200  0.89797000  1
  O  O22  1  0.80971000  0.88019800  0.94952000  1
  O  O23  1  0.18929400  0.11697100  0.04961300  1
  O  O24  1  0.45191400  0.92869200  0.26417900  1
  O  O25  1  0.54796600  0.07058800  0.73527000  1
  O  O26  1  0.48604800  0.47859400  0.54752600  1
loop_
_geom_bond_atom_site_label_1
_geom_bond_atom_site_label_2
_geom_bond_distance
_geom_bond_site_symmetry_2
Cu0 O1 1.814214 1_554
Cu0 O8 1.890170 1_555
Cu0 O21 1.960503 1_554
Cu0 O20 1.993091 1_555
Cu1 O0 1.812649 1_556
Cu1 O9 1.891956 1_555
Cu1 O20 1.957266 1_556
Cu1 O21 1.989825 1_555
Cu1 O11 2.609039 1_556
Cu2 O1 1.820259 1_555
Cu2 O23 1.896689 1_556
Cu2 O4 1.948848 1_555
Cu2 O25 1.955693 1_555
Cu2 O0 2.392765 1_546
Cu3 O0 1.821000 1_555
Cu3 O22 1.901085 1_554
Cu3 O5 1.943756 1_555
Cu3 O24 1.952437 1_555
Cu3 O1 2.392895 1_564
Cu4 O6 1.952101 1_455
Cu4 O7 1.958037 1_555
Cu4 O12 1.959971 1_555
Cu4 O13 1.960806 1_455
Cu4 O14 2.527843 1_455
Cu4 O15 2.541952 1_555
Cu5 O16 1.939491 1_655
Cu5 O17 1.940727 1_564
Cu5 O5 2.119758 1_555
Cu5 O4 2.122885 1_664
Cu5 O23 2.317422 1_665
Cu5 O22 2.341282 1_554
N0 O11 1.263195 1_555
N0 O2 1.269517 1_555
N0 O14 1.272774 1_555
N1 O10 1.258473 1_555
N1 O15 1.272011 1_555
N1 O3 1.274863 1_555
O4 Se4 1.789890 1_555
O5 Se5 1.796928 1_555
O6 Se5 1.762468 1_555
O7 Se4 1.766923 1_555
O7 Pb0 2.603982 1_555
O8 Se0 1.735307 1_555
O9 Se1 1.738774 1_555
O12 Se2 1.732622 1_555
O12 Pb0 2.557746 1_555
O13 Se3 1.733596 1_555
O13 Pb1 2.552426 1_555
O16 Se2 1.704461 1_555
O17 Se3 1.704169 1_555
O18 Se4 1.682475 1_555
O19 Se5 1.683518 1_555
O20 Se2 1.823541 1_555
O21 Se3 1.824836 1_555
O22 Se1 1.752668 1_555
O23 Se0 1.755237 1_555
O24 Se0 1.733716 1_565
O25 Se1 1.736193 1_545
O25 Pb0 2.650192 1_555
O26 Pb0 2.351027 1_555
O26 Pb1 2.385876 1_555
