# generated using pymatgen
data_Ga4Bi2O9
_symmetry_space_group_name_H-M   'P 1'
_cell_length_a   7.82220600
_cell_length_b   8.53231300
_cell_length_c   11.99933000
_cell_angle_alpha   90.00000000
_cell_angle_beta   90.00000000
_cell_angle_gamma   90.00000000
_symmetry_Int_Tables_number   1
_chemical_formula_structural   Ga4Bi2O9
_chemical_formula_sum   'Ga16 Bi8 O36'
_cell_volume   800.85340250
_cell_formula_units_Z   4
loop_
 _symmetry_equiv_pos_site_id
 _symmetry_equiv_pos_as_xyz
  1  'x, y, z'
loop_
 _atom_site_type_symbol
 _atom_site_label
 _atom_site_symmetry_multiplicity
 _atom_site_fract_x
 _atom_site_fract_y
 _atom_site_fract_z
 _atom_site_occupancy
  Ga  Ga0  1  0.51591000  0.50389300  0.12852400  1
  Ga  Ga1  1  0.98409000  0.00389300  0.37147600  1
  Ga  Ga2  1  0.48409000  0.49610700  0.62852400  1
  Ga  Ga3  1  0.01591000  0.99610700  0.87147600  1
  Ga  Ga4  1  0.48409000  0.49610700  0.87147600  1
  Ga  Ga5  1  0.01591000  0.99610700  0.62852400  1
  Ga  Ga6  1  0.51591000  0.50389300  0.37147600  1
  Ga  Ga7  1  0.98409000  0.00389300  0.12852400  1
  Ga  Ga8  1  0.35162400  0.84975500  0.25000000  1
  Ga  Ga9  1  0.14837600  0.34975500  0.25000000  1
  Ga  Ga10  1  0.64837600  0.15024500  0.75000000  1
  Ga  Ga11  1  0.85162400  0.65024500  0.75000000  1
  Ga  Ga12  1  0.86463100  0.67962100  0.25000000  1
  Ga  Ga13  1  0.63536900  0.17962100  0.25000000  1
  Ga  Ga14  1  0.13536900  0.32037900  0.75000000  1
  Ga  Ga15  1  0.36463100  0.82037900  0.75000000  1
  Bi  Bi0  1  0.17029900  0.67827900  0.01796200  1
  Bi  Bi1  1  0.32970100  0.17827900  0.48203800  1
  Bi  Bi2  1  0.82970100  0.32172100  0.51796200  1
  Bi  Bi3  1  0.67029900  0.82172100  0.98203800  1
  Bi  Bi4  1  0.82970100  0.32172100  0.98203800  1
  Bi  Bi5  1  0.67029900  0.82172100  0.51796200  1
  Bi  Bi6  1  0.17029900  0.67827900  0.48203800  1
  Bi  Bi7  1  0.32970100  0.17827900  0.01796200  1
  O  O0  1  0.15574400  0.93906900  0.00871800  1
  O  O1  1  0.34425600  0.43906900  0.49128200  1
  O  O2  1  0.84425600  0.06093100  0.50871800  1
  O  O3  1  0.65574400  0.56093100  0.99128200  1
  O  O4  1  0.84425600  0.06093100  0.99128200  1
  O  O5  1  0.65574400  0.56093100  0.50871800  1
  O  O6  1  0.15574400  0.93906900  0.49128200  1
  O  O7  1  0.34425600  0.43906900  0.00871800  1
  O  O8  1  0.11726700  0.90104400  0.25000000  1
  O  O9  1  0.38273300  0.40104400  0.25000000  1
  O  O10  1  0.88273300  0.09895600  0.75000000  1
  O  O11  1  0.61726700  0.59895600  0.75000000  1
  O  O12  1  0.65453700  0.57984600  0.25000000  1
  O  O13  1  0.84546300  0.07984600  0.25000000  1
  O  O14  1  0.34546300  0.42015400  0.75000000  1
  O  O15  1  0.15453700  0.92015400  0.75000000  1
  O  O16  1  0.39541700  0.72098900  0.12439400  1
  O  O17  1  0.10458300  0.22098900  0.37560600  1
  O  O18  1  0.60458300  0.27901100  0.62439400  1
  O  O19  1  0.89541700  0.77901100  0.87560600  1
  O  O20  1  0.60458300  0.27901100  0.87560600  1
  O  O21  1  0.89541700  0.77901100  0.62439400  1
  O  O22  1  0.39541700  0.72098900  0.37560600  1
  O  O23  1  0.10458300  0.22098900  0.12439400  1
  O  O24  1  0.85920900  0.79755500  0.11693600  1
  O  O25  1  0.64079100  0.29755500  0.38306400  1
  O  O26  1  0.14079100  0.20244500  0.61693600  1
  O  O27  1  0.35920900  0.70244500  0.88306400  1
  O  O28  1  0.14079100  0.20244500  0.88306400  1
  O  O29  1  0.35920900  0.70244500  0.61693600  1
  O  O30  1  0.85920900  0.79755500  0.38306400  1
  O  O31  1  0.64079100  0.29755500  0.11693600  1
  O  O32  1  0.45053400  0.04562000  0.25000000  1
  O  O33  1  0.04946600  0.54562000  0.25000000  1
  O  O34  1  0.54946600  0.95438000  0.75000000  1
  O  O35  1  0.95053400  0.45438000  0.75000000  1
loop_
_geom_bond_atom_site_label_1
_geom_bond_atom_site_label_2
_geom_bond_distance
_geom_bond_site_symmetry_2
Ga0 O12 1.928864 1_555
Ga0 O9 1.994989 1_555
Ga0 O31 2.018183 1_555
Ga0 O3 2.035990 1_554
Ga0 O7 2.043396 1_555
Ga0 O16 2.078926 1_555
Ga1 O13 1.928864 1_555
Ga1 O8 1.994989 1_645
Ga1 O30 2.018183 1_545
Ga1 O2 2.035990 1_555
Ga1 O6 2.043396 1_645
Ga1 O17 2.078926 1_655
Ga2 O14 1.928864 1_555
Ga2 O11 1.994989 1_555
Ga2 O29 2.018183 1_555
Ga2 O1 2.035990 1_555
Ga2 O5 2.043396 1_555
Ga2 O18 2.078926 1_555
Ga3 O15 1.928864 1_555
Ga3 O10 1.994989 1_465
Ga3 O28 2.018183 1_565
Ga3 O0 2.035990 1_556
Ga3 O4 2.043396 1_465
Ga3 O19 2.078926 1_455
Ga4 O14 1.928864 1_555
Ga4 O11 1.994989 1_555
Ga4 O27 2.018183 1_555
Ga4 O7 2.035990 1_556
Ga4 O3 2.043396 1_555
Ga4 O20 2.078926 1_555
Ga5 O15 1.928864 1_555
Ga5 O10 1.994989 1_465
Ga5 O26 2.018183 1_565
Ga5 O6 2.035990 1_555
Ga5 O2 2.043396 1_465
Ga5 O21 2.078926 1_455
Ga6 O12 1.928864 1_555
Ga6 O9 1.994989 1_555
Ga6 O25 2.018183 1_555
Ga6 O5 2.035990 1_555
Ga6 O1 2.043396 1_555
Ga6 O22 2.078926 1_555
Ga7 O13 1.928864 1_555
Ga7 O8 1.994989 1_645
Ga7 O24 2.018183 1_545
Ga7 O4 2.035990 1_554
Ga7 O0 2.043396 1_645
Ga7 O23 2.078926 1_655
Ga8 O32 1.841589 1_565
Ga8 O8 1.884698 1_555
Ga8 O22 1.896323 1_555
Ga8 O16 1.896323 1_555
Ga9 O33 1.841589 1_555
Ga9 O9 1.884698 1_555
Ga9 O17 1.896323 1_555
Ga9 O23 1.896323 1_555
Ga10 O34 1.841589 1_545
Ga10 O10 1.884698 1_555
Ga10 O20 1.896323 1_555
Ga10 O18 1.896323 1_555
Ga11 O35 1.841589 1_555
Ga11 O11 1.884698 1_555
Ga11 O21 1.896323 1_555
Ga11 O19 1.896323 1_555
Ga12 O33 1.843261 1_655
Ga12 O12 1.850808 1_555
Ga12 O30 1.887782 1_555
Ga12 O24 1.887782 1_555
Ga13 O32 1.843261 1_555
Ga13 O13 1.850808 1_555
Ga13 O25 1.887782 1_555
Ga13 O31 1.887782 1_555
Ga14 O35 1.843261 1_455
Ga14 O14 1.850808 1_555
Ga14 O28 1.887782 1_555
Ga14 O26 1.887782 1_555
Ga15 O34 1.843261 1_555
Ga15 O15 1.850808 1_555
Ga15 O27 1.887782 1_555
Ga15 O29 1.887782 1_555
Bi0 O27 2.201417 1_554
Bi0 O16 2.205596 1_555
Bi0 O0 2.230812 1_555
Bi0 O7 2.455529 1_555
Bi1 O26 2.201417 1_555
Bi1 O17 2.205596 1_555
Bi1 O1 2.230812 1_555
Bi1 O6 2.455529 1_545
Bi2 O25 2.201417 1_555
Bi2 O18 2.205596 1_555
Bi2 O2 2.230812 1_555
Bi2 O5 2.455529 1_555
Bi3 O24 2.201417 1_556
Bi3 O19 2.205596 1_555
Bi3 O3 2.230812 1_555
Bi3 O4 2.455529 1_565
Bi4 O31 2.201417 1_556
Bi4 O20 2.205596 1_555
Bi4 O4 2.230812 1_555
Bi4 O3 2.455529 1_555
Bi5 O30 2.201417 1_555
Bi5 O21 2.205596 1_555
Bi5 O5 2.230812 1_555
Bi5 O2 2.455529 1_565
Bi6 O29 2.201417 1_555
Bi6 O22 2.205596 1_555
Bi6 O6 2.230812 1_555
Bi6 O1 2.455529 1_555
Bi7 O28 2.201417 1_554
Bi7 O23 2.205596 1_555
Bi7 O7 2.230812 1_555
Bi7 O0 2.455529 1_545
