# generated using pymatgen
data_Zr2CrFe3
_symmetry_space_group_name_H-M   'P 1'
_cell_length_a   4.98255680
_cell_length_b   4.98255680
_cell_length_c   8.07284300
_cell_angle_alpha   90.00000000
_cell_angle_beta   90.00000000
_cell_angle_gamma   120.00001067
_symmetry_Int_Tables_number   1
_chemical_formula_structural   Zr2CrFe3
_chemical_formula_sum   'Zr4 Cr2 Fe6'
_cell_volume   173.56478258
_cell_formula_units_Z   2
loop_
 _symmetry_equiv_pos_site_id
 _symmetry_equiv_pos_as_xyz
  1  'x, y, z'
loop_
 _atom_site_type_symbol
 _atom_site_label
 _atom_site_symmetry_multiplicity
 _atom_site_fract_x
 _atom_site_fract_y
 _atom_site_fract_z
 _atom_site_occupancy
  Zr  Zr0  1  0.33333300  0.66666700  0.93728500  1
  Zr  Zr1  1  0.66666700  0.33333300  0.06271500  1
  Zr  Zr2  1  0.66666700  0.33333300  0.43728500  1
  Zr  Zr3  1  0.33333300  0.66666700  0.56271500  1
  Cr  Cr0  1  0.00000000  0.00000000  0.00000000  1
  Cr  Cr1  1  0.00000000  0.00000000  0.50000000  1
  Fe  Fe0  1  0.83215500  0.16784500  0.75000000  1
  Fe  Fe1  1  0.83215500  0.66431000  0.75000000  1
  Fe  Fe2  1  0.33569000  0.16784500  0.75000000  1
  Fe  Fe3  1  0.16784500  0.83215500  0.25000000  1
  Fe  Fe4  1  0.16784500  0.33569000  0.25000000  1
  Fe  Fe5  1  0.66431000  0.83215500  0.25000000  1
loop_
_geom_bond_atom_site_label_1
_geom_bond_atom_site_label_2
_geom_bond_distance
_geom_bond_site_symmetry_2
Zr0 Zr3 3.023845 1_555
Zr0 Zr1 3.049686 1_456
Zr0 Zr1 3.049686 1_566
Zr0 Zr1 3.049694 1_556
Zr1 Zr2 3.023845 1_555
Zr2 Zr3 3.049686 1_545
Zr2 Zr3 3.049686 1_655
Zr2 Zr3 3.049694 1_555
Cr0 Fe5 2.484221 1_445
Cr0 Fe1 2.484221 1_444
Cr0 Fe2 2.484221 1_554
Cr0 Fe4 2.484221 1_555
Cr0 Fe3 2.484221 1_545
Cr0 Fe0 2.484221 1_454
Cr0 Zr1 2.920891 1_455
Cr0 Zr0 2.920891 1_544
Cr0 Zr1 2.920895 1_555
Cr0 Zr1 2.920895 1_445
Cr0 Zr0 2.920895 1_554
Cr0 Zr0 2.920895 1_444
Cr1 Fe5 2.484221 1_445
Cr1 Fe1 2.484221 1_445
Cr1 Fe4 2.484221 1_555
Cr1 Fe2 2.484221 1_555
Cr1 Fe3 2.484221 1_545
Cr1 Fe0 2.484221 1_455
Cr1 Zr2 2.920891 1_455
Cr1 Zr3 2.920891 1_545
Cr1 Zr2 2.920895 1_555
Cr1 Zr2 2.920895 1_445
Cr1 Zr3 2.920895 1_555
Cr1 Zr3 2.920895 1_445
Fe0 Fe2 2.473665 1_555
Fe0 Fe1 2.473665 1_555
Fe0 Fe1 2.508892 1_545
Fe0 Fe2 2.508892 1_655
Fe0 Zr1 2.900476 1_556
Fe0 Zr2 2.900476 1_555
Fe0 Zr0 2.914186 1_545
Fe0 Zr0 2.914186 1_655
Fe0 Zr3 2.914186 1_655
Fe0 Zr3 2.914186 1_545
Fe1 Fe2 2.473665 1_555
Fe1 Fe2 2.508891 1_665
Fe1 Zr1 2.900478 1_556
Fe1 Zr2 2.900478 1_555
Fe1 Zr0 2.914184 1_655
Fe1 Zr3 2.914184 1_655
Fe1 Zr0 2.914188 1_555
Fe1 Zr3 2.914188 1_555
Fe2 Zr1 2.900478 1_556
Fe2 Zr2 2.900478 1_555
Fe2 Zr0 2.914184 1_545
Fe2 Zr3 2.914184 1_545
Fe2 Zr0 2.914188 1_555
Fe2 Zr3 2.914188 1_555
Fe3 Fe4 2.473665 1_555
Fe3 Fe5 2.473665 1_555
Fe3 Fe5 2.508892 1_455
Fe3 Fe4 2.508892 1_565
Fe3 Zr3 2.900476 1_555
Fe3 Zr0 2.900476 1_554
Fe3 Zr2 2.914186 1_455
Fe3 Zr2 2.914186 1_565
Fe3 Zr1 2.914186 1_455
Fe3 Zr1 2.914186 1_565
Fe4 Fe5 2.473665 1_555
Fe4 Fe5 2.508891 1_445
Fe4 Zr3 2.900478 1_555
Fe4 Zr0 2.900478 1_554
Fe4 Zr2 2.914184 1_455
Fe4 Zr1 2.914184 1_455
Fe4 Zr2 2.914188 1_555
Fe4 Zr1 2.914188 1_555
Fe5 Zr3 2.900478 1_555
Fe5 Zr0 2.900478 1_554
Fe5 Zr2 2.914184 1_565
Fe5 Zr1 2.914184 1_565
Fe5 Zr2 2.914188 1_555
Fe5 Zr1 2.914188 1_555
