# generated using pymatgen
data_K2Si3SnO9
_symmetry_space_group_name_H-M   'P 1'
_cell_length_a   6.96851164
_cell_length_b   6.96851164
_cell_length_c   10.17068300
_cell_angle_alpha   90.00000000
_cell_angle_beta   90.00000000
_cell_angle_gamma   119.99999656
_symmetry_Int_Tables_number   1
_chemical_formula_structural   K2Si3SnO9
_chemical_formula_sum   'K4 Si6 Sn2 O18'
_cell_volume   427.72124717
_cell_formula_units_Z   2
loop_
 _symmetry_equiv_pos_site_id
 _symmetry_equiv_pos_as_xyz
  1  'x, y, z'
loop_
 _atom_site_type_symbol
 _atom_site_label
 _atom_site_symmetry_multiplicity
 _atom_site_fract_x
 _atom_site_fract_y
 _atom_site_fract_z
 _atom_site_occupancy
  K  K0  1  0.33333300  0.66666700  0.05675300  1
  K  K1  1  0.66666700  0.33333300  0.55675300  1
  K  K2  1  0.33333300  0.66666700  0.44324700  1
  K  K3  1  0.66666700  0.33333300  0.94324700  1
  Si  Si0  1  0.61715300  0.74588300  0.75000000  1
  Si  Si1  1  0.87127000  0.61715300  0.25000000  1
  Si  Si2  1  0.74588300  0.12873000  0.25000000  1
  Si  Si3  1  0.25411700  0.87127000  0.75000000  1
  Si  Si4  1  0.12873000  0.38284700  0.75000000  1
  Si  Si5  1  0.38284700  0.25411700  0.25000000  1
  Sn  Sn0  1  0.00000000  0.00000000  0.00000000  1
  Sn  Sn1  1  0.00000000  0.00000000  0.50000000  1
  O  O0  1  0.25553700  0.23669200  0.38643700  1
  O  O1  1  0.01884500  0.25553700  0.88643700  1
  O  O2  1  0.23669200  0.98115500  0.88643700  1
  O  O3  1  0.76330800  0.01884500  0.38643700  1
  O  O4  1  0.98115500  0.74446300  0.38643700  1
  O  O5  1  0.74446300  0.76330800  0.88643700  1
  O  O6  1  0.74446300  0.76330800  0.61356300  1
  O  O7  1  0.98115500  0.74446300  0.11356300  1
  O  O8  1  0.76330800  0.01884500  0.11356300  1
  O  O9  1  0.23669200  0.98115500  0.61356300  1
  O  O10  1  0.01884500  0.25553700  0.61356300  1
  O  O11  1  0.25553700  0.23669200  0.11356300  1
  O  O12  1  0.48745000  0.08614500  0.25000000  1
  O  O13  1  0.40130500  0.48745000  0.75000000  1
  O  O14  1  0.08614500  0.59869500  0.75000000  1
  O  O15  1  0.91385500  0.40130500  0.25000000  1
  O  O16  1  0.59869500  0.51255000  0.25000000  1
  O  O17  1  0.51255000  0.91385500  0.75000000  1
loop_
_geom_bond_atom_site_label_1
_geom_bond_atom_site_label_2
_geom_bond_distance
_geom_bond_site_symmetry_2
K0 O7 2.825081 1_455
K0 O8 2.825085 1_565
K0 O11 2.825088 1_555
K0 O2 3.119734 1_554
K0 O1 3.119738 1_554
K0 O5 3.119740 1_554
K0 O12 3.228280 1_565
K0 O15 3.228281 1_455
K0 O16 3.228285 1_555
K1 O10 2.825081 1_655
K1 O9 2.825085 1_545
K1 O6 2.825088 1_555
K1 O3 3.119734 1_555
K1 O4 3.119738 1_555
K1 O0 3.119740 1_555
K1 O17 3.228280 1_545
K1 O14 3.228281 1_655
K1 O13 3.228285 1_555
K2 O4 2.825081 1_455
K2 O3 2.825085 1_565
K2 O0 2.825088 1_555
K2 O9 3.119734 1_555
K2 O10 3.119738 1_555
K2 O6 3.119740 1_555
K2 O12 3.228280 1_565
K2 O15 3.228281 1_455
K2 O16 3.228285 1_555
K3 O1 2.825081 1_655
K3 O2 2.825085 1_545
K3 O5 2.825088 1_555
K3 O8 3.119734 1_556
K3 O7 3.119738 1_556
K3 O11 3.119740 1_556
K3 O17 3.228280 1_545
K3 O14 3.228281 1_655
K3 O13 3.228285 1_555
O0 Si5 1.618539 1_555
O0 Sn1 2.070843 1_555
O1 Si4 1.618539 1_555
O1 Sn0 2.070843 1_556
O2 Si3 1.618539 1_555
O2 Sn0 2.070843 1_566
O3 Si2 1.618539 1_555
O3 Sn1 2.070843 1_655
O4 Si1 1.618539 1_555
O4 Sn1 2.070843 1_665
O5 Si0 1.618539 1_555
O5 Sn0 2.070843 1_666
O6 Si0 1.618539 1_555
O6 Sn1 2.070843 1_665
O7 Si1 1.618539 1_555
O7 Sn0 2.070843 1_665
O8 Si2 1.618539 1_555
O8 Sn0 2.070843 1_655
O9 Si3 1.618539 1_555
O9 Sn1 2.070843 1_565
O10 Si4 1.618539 1_555
O10 Sn1 2.070843 1_555
O11 Si5 1.618539 1_555
O11 Sn0 2.070843 1_555
O12 Si5 1.659717 1_555
O12 Si2 1.672381 1_555
O13 Si4 1.659717 1_555
O13 Si0 1.672381 1_555
O14 Si3 1.659717 1_555
O14 Si4 1.672381 1_555
O15 Si2 1.659717 1_555
O15 Si1 1.672381 1_555
O16 Si1 1.659717 1_555
O16 Si5 1.672381 1_555
O17 Si0 1.659717 1_555
O17 Si3 1.672381 1_555
