# generated using pymatgen
data_La2Fe2O5
_symmetry_space_group_name_H-M   'P 1'
_cell_length_a   4.07424300
_cell_length_b   4.13094819
_cell_length_c   7.54805762
_cell_angle_alpha   91.00952686
_cell_angle_beta   94.06459908
_cell_angle_gamma   90.51702088
_symmetry_Int_Tables_number   1
_chemical_formula_structural   La2Fe2O5
_chemical_formula_sum   'La2 Fe2 O5'
_cell_volume   126.69156486
_cell_formula_units_Z   1
loop_
 _symmetry_equiv_pos_site_id
 _symmetry_equiv_pos_as_xyz
  1  'x, y, z'
loop_
 _atom_site_type_symbol
 _atom_site_label
 _atom_site_symmetry_multiplicity
 _atom_site_fract_x
 _atom_site_fract_y
 _atom_site_fract_z
 _atom_site_occupancy
  La  La0  1  0.00088500  0.99506200  0.00323400  1
  La  La1  1  0.86844700  0.00904300  0.50043800  1
  Fe  Fe0  1  0.47204300  0.49271700  0.76373000  1
  Fe  Fe1  1  0.50543300  0.50488600  0.23029400  1
  O  O0  1  0.50181900  0.99656500  0.77502300  1
  O  O1  1  0.53657400  0.00345500  0.21342300  1
  O  O2  1  0.59929000  0.50548300  0.50149000  1
  O  O3  1  0.00649500  0.48666300  0.81229500  1
  O  O4  1  0.00900300  0.50613600  0.20007400  1
loop_
_geom_bond_atom_site_label_1
_geom_bond_atom_site_label_2
_geom_bond_distance
_geom_bond_site_symmetry_2
La0 O3 2.511704 1_564
La0 O3 2.527296 1_554
La0 O4 2.527421 1_555
La0 O1 2.553731 1_465
La0 O4 2.558724 1_565
La0 O0 2.570151 1_454
La0 O1 2.605282 1_565
La0 O0 2.762449 1_554
La1 O2 2.334420 1_555
La1 O2 2.343164 1_545
La1 O1 2.470733 1_555
La1 O0 2.640217 1_545
La1 O0 3.194569 1_645
Fe0 O3 1.957221 1_555
Fe0 O0 2.057166 1_545
Fe0 O2 2.082847 1_555
Fe0 O0 2.083701 1_555
Fe0 O3 2.182797 1_655
Fe1 O4 2.019332 1_555
Fe1 O2 2.055552 1_555
Fe1 O1 2.069041 1_565
Fe1 O1 2.078627 1_555
Fe1 O4 2.080285 1_655
