# generated using pymatgen
data_Li5Mn2CoO8
_symmetry_space_group_name_H-M   'P 1'
_cell_length_a   2.88564931
_cell_length_b   15.36146701
_cell_length_c   6.46554307
_cell_angle_alpha   91.61477160
_cell_angle_beta   77.17701629
_cell_angle_gamma   90.46481227
_symmetry_Int_Tables_number   1
_chemical_formula_structural   Li5Mn2CoO8
_chemical_formula_sum   'Li10 Mn4 Co2 O16'
_cell_volume   279.34408777
_cell_formula_units_Z   2
loop_
 _symmetry_equiv_pos_site_id
 _symmetry_equiv_pos_as_xyz
  1  'x, y, z'
loop_
 _atom_site_type_symbol
 _atom_site_label
 _atom_site_symmetry_multiplicity
 _atom_site_fract_x
 _atom_site_fract_y
 _atom_site_fract_z
 _atom_site_occupancy
  Li  Li0  1  0.62543700  0.12631500  0.74541500  1
  Li  Li1  1  0.12458700  0.62371600  0.75459400  1
  Li  Li2  1  0.95020500  0.18809500  0.10327200  1
  Li  Li3  1  0.44908600  0.68770600  0.10946400  1
  Li  Li4  1  0.30092500  0.06228900  0.39057700  1
  Li  Li5  1  0.79984600  0.56190600  0.39670600  1
  Li  Li6  1  0.18203200  0.44289400  0.62534000  1
  Li  Li7  1  0.67613600  0.94547000  0.62912000  1
  Li  Li8  1  0.56805200  0.30704200  0.87457600  1
  Li  Li9  1  0.07386800  0.80455200  0.87093200  1
  Mn  Mn0  1  0.50068700  0.50080800  0.99659200  1
  Mn  Mn1  1  0.24914700  0.24908900  0.50333000  1
  Mn  Mn2  1  0.99871600  0.00482200  0.98899500  1
  Mn  Mn3  1  0.75133400  0.74523300  0.51100300  1
  Co  Co0  1  0.87499400  0.37496600  0.25001500  1
  Co  Co1  1  0.37501400  0.87504200  0.24998400  1
  O  O0  1  0.46642000  0.08474500  0.05845000  1
  O  O1  1  0.96965600  0.57990300  0.06587900  1
  O  O2  1  0.78029000  0.17000300  0.43407900  1
  O  O3  1  0.28353500  0.66536500  0.44164100  1
  O  O4  1  0.73380600  0.33640600  0.53947900  1
  O  O5  1  0.23483500  0.83166100  0.55214200  1
  O  O6  1  0.01620800  0.41350800  0.96040300  1
  O  O7  1  0.51512900  0.91845600  0.94798100  1
  O  O8  1  0.10791600  0.22505300  0.78640400  1
  O  O9  1  0.60917400  0.72068000  0.79326100  1
  O  O10  1  0.14077800  0.02936300  0.70685200  1
  O  O11  1  0.64214300  0.52493600  0.71348500  1
  O  O12  1  0.35357100  0.45859200  0.29779300  1
  O  O13  1  0.83381900  0.96540800  0.29803500  1
  O  O14  1  0.39644500  0.29132000  0.20218200  1
  O  O15  1  0.91620800  0.78466100  0.20202000  1
loop_
_geom_bond_atom_site_label_1
_geom_bond_atom_site_label_2
_geom_bond_distance
_geom_bond_site_symmetry_2
Li0 O10 2.082372 1_555
Li0 O10 2.083777 1_655
Li0 O0 2.090580 1_556
Li0 O2 2.091426 1_555
Li0 O8 2.101443 1_655
Li0 O8 2.106992 1_555
Li1 O9 2.082526 1_555
Li1 O9 2.084014 1_455
Li1 O3 2.090489 1_555
Li1 O1 2.091787 1_456
Li1 O11 2.102030 1_455
Li1 O11 2.107487 1_555
Li2 O8 2.091459 1_654
Li2 O2 2.111422 1_555
Li2 O0 2.155054 1_655
Li2 O0 2.161268 1_555
Li2 O14 2.203809 1_655
Li2 O14 2.237677 1_555
Li3 O9 2.070023 1_554
Li3 O15 2.125871 1_455
Li3 O3 2.131218 1_555
Li3 O15 2.160685 1_555
Li3 O1 2.201215 1_455
Li3 O1 2.214611 1_555
Li4 O10 2.070264 1_555
Li4 O13 2.125099 1_545
Li4 O0 2.131239 1_555
Li4 O13 2.159849 1_445
Li4 O2 2.199944 1_555
Li4 O2 2.213733 1_455
Li5 O11 2.090973 1_555
Li5 O1 2.111315 1_555
Li5 O3 2.156447 1_555
Li5 O3 2.162486 1_655
Li5 O12 2.204848 1_555
Li5 O12 2.238579 1_655
Li6 O11 1.984320 1_455
Li6 O11 1.985999 1_555
Li6 O12 2.085582 1_555
Li6 O6 2.171946 1_555
Li6 O4 2.211382 1_455
Li6 O4 2.262294 1_555
Li7 O10 1.986375 1_665
Li7 O10 1.987745 1_565
Li7 O7 2.063546 1_555
Li7 O13 2.117910 1_555
Li7 O5 2.263181 1_555
Li7 O5 2.354551 1_655
Li8 O8 1.983769 1_655
Li8 O8 1.985619 1_555
Li8 O14 2.086005 1_556
Li8 O4 2.172078 1_555
Li8 O6 2.210929 1_655
Li8 O6 2.262168 1_555
Li9 O9 1.986127 1_455
Li9 O9 1.987402 1_555
Li9 O5 2.063440 1_555
Li9 O15 2.117806 1_456
Li9 O7 2.264371 1_555
Li9 O7 2.355726 1_455
Mn0 O11 1.832658 1_555
Mn0 O1 1.928711 1_456
Mn0 O1 1.928745 1_556
Mn0 O6 1.976052 1_555
Mn0 O6 1.981502 1_655
Mn0 O12 2.023114 1_556
Mn1 O8 1.832132 1_555
Mn1 O2 1.928332 1_455
Mn1 O2 1.928857 1_555
Mn1 O4 1.976539 1_555
Mn1 O4 1.981318 1_455
Mn1 O14 2.022873 1_555
Mn2 O10 1.828172 1_655
Mn2 O0 1.934310 1_656
Mn2 O0 1.939509 1_556
Mn2 O7 1.971795 1_645
Mn2 O7 1.972861 1_545
Mn2 O13 2.055949 1_546
Mn3 O9 1.828925 1_555
Mn3 O3 1.933767 1_555
Mn3 O3 1.938747 1_655
Mn3 O5 1.972578 1_555
Mn3 O5 1.973531 1_655
Mn3 O15 2.055674 1_555
Co0 O4 1.933812 1_555
Co0 O6 1.934609 1_654
Co0 O12 1.947064 1_655
Co0 O14 1.947310 1_555
Co0 O12 1.952512 1_555
Co0 O14 1.952763 1_655
Co1 O13 1.976054 1_555
Co1 O15 1.976054 1_455
Co1 O7 2.034580 1_554
Co1 O5 2.035324 1_555
Co1 O13 2.063468 1_455
Co1 O15 2.063642 1_555
