# generated using pymatgen
data_V2OF5
_symmetry_space_group_name_H-M   'P 1'
_cell_length_a   5.42189400
_cell_length_b   7.59419422
_cell_length_c   9.06247628
_cell_angle_alpha   113.85550271
_cell_angle_beta   105.88555836
_cell_angle_gamma   92.89503972
_symmetry_Int_Tables_number   1
_chemical_formula_structural   V2OF5
_chemical_formula_sum   'V6 O3 F15'
_cell_volume   322.67618432
_cell_formula_units_Z   3
loop_
 _symmetry_equiv_pos_site_id
 _symmetry_equiv_pos_as_xyz
  1  'x, y, z'
loop_
 _atom_site_type_symbol
 _atom_site_label
 _atom_site_symmetry_multiplicity
 _atom_site_fract_x
 _atom_site_fract_y
 _atom_site_fract_z
 _atom_site_occupancy
  V  V0  1  0.00441100  0.00282300  0.99585600  1
  V  V1  1  0.02551100  0.50090500  0.00723000  1
  V  V2  1  0.70278500  0.67538000  0.66001100  1
  V  V3  1  0.63750100  0.16375500  0.68200900  1
  V  V4  1  0.33161000  0.83354200  0.33745100  1
  V  V5  1  0.32528200  0.33655200  0.33079900  1
  O  O0  1  0.37148200  0.11291700  0.85203900  1
  O  O1  1  0.01490800  0.77142900  0.53537000  1
  O  O2  1  0.20913800  0.47323700  0.13305300  1
  F  F0  1  0.31500700  0.55549900  0.79788000  1
  F  F1  1  0.69453400  0.44934100  0.60244600  1
  F  F2  1  0.77739500  0.51916600  0.86929300  1
  F  F3  1  0.56435800  0.81522900  0.47027200  1
  F  F4  1  0.63635800  0.88247800  0.73417600  1
  F  F5  1  0.02916900  0.78210500  0.93180500  1
  F  F6  1  0.10262300  0.85079700  0.19816400  1
  F  F7  1  0.89723000  0.15209700  0.79852100  1
  F  F8  1  0.96357300  0.21945400  0.06217300  1
  F  F9  1  0.96029200  0.21576200  0.47678600  1
  F  F10  1  0.63520600  0.88500800  0.13387400  1
  F  F11  1  0.36315800  0.11671400  0.26775400  1
  F  F12  1  0.44237400  0.18439900  0.52814000  1
  F  F13  1  0.30227200  0.55059600  0.39908700  1
  F  F14  1  0.69382500  0.45081900  0.19581000  1
loop_
_geom_bond_atom_site_label_1
_geom_bond_atom_site_label_2
_geom_bond_distance
_geom_bond_site_symmetry_2
O0 V3 2.499061 1_555
O1 V2 2.502000 1_455
O2 V1 1.388898 1_555
F1 V2 1.573511 1_555
F2 V1 1.621745 1_656
F3 V4 1.543463 1_555
F4 V2 1.545862 1_555
F5 V0 1.562983 1_565
F6 V4 1.563414 1_555
F7 V3 1.542739 1_555
F8 V0 1.557756 1_654
F11 V5 1.575797 1_555
F12 V3 1.572984 1_555
F13 V5 1.513225 1_555
