# generated using pymatgen
data_VCrMo
_symmetry_space_group_name_H-M   'P 1'
_cell_length_a   2.64946314
_cell_length_b   2.64946314
_cell_length_c   6.42225729
_cell_angle_alpha   97.69023408
_cell_angle_beta   97.69023408
_cell_angle_gamma   110.56428169
_symmetry_Int_Tables_number   1
_chemical_formula_structural   VCrMo
_chemical_formula_sum   'V1 Cr1 Mo1'
_cell_volume   41.02771047
_cell_formula_units_Z   1
loop_
 _symmetry_equiv_pos_site_id
 _symmetry_equiv_pos_as_xyz
  1  'x, y, z'
loop_
 _atom_site_type_symbol
 _atom_site_label
 _atom_site_symmetry_multiplicity
 _atom_site_fract_x
 _atom_site_fract_y
 _atom_site_fract_z
 _atom_site_occupancy
  V  V0  1  0.34061400  0.34061400  0.68122900  1
  Cr  Cr0  1  0.99573000  0.99573000  0.99146000  1
  Mo  Mo0  1  0.66365600  0.66365600  0.32731000  1
loop_
_geom_bond_atom_site_label_1
_geom_bond_atom_site_label_2
_geom_bond_distance
_geom_bond_site_symmetry_2
Cr0 V0 2.455080 1_665
Cr0 V0 2.455081 1_555
Cr0 Mo0 2.583102 1_556
Cr0 Mo0 2.583105 1_666
Mo0 V0 2.675461 1_665
Mo0 V0 2.675466 1_555
