# generated using pymatgen
data_Al2Mo3
_symmetry_space_group_name_H-M   'P 1'
_cell_length_a   9.05982447
_cell_length_b   8.49989000
_cell_length_c   9.30851755
_cell_angle_alpha   90.00000000
_cell_angle_beta   116.10328531
_cell_angle_gamma   90.00000000
_symmetry_Int_Tables_number   1
_chemical_formula_structural   Al2Mo3
_chemical_formula_sum   'Al16 Mo24'
_cell_volume   643.71122591
_cell_formula_units_Z   8
loop_
 _symmetry_equiv_pos_site_id
 _symmetry_equiv_pos_as_xyz
  1  'x, y, z'
loop_
 _atom_site_type_symbol
 _atom_site_label
 _atom_site_symmetry_multiplicity
 _atom_site_fract_x
 _atom_site_fract_y
 _atom_site_fract_z
 _atom_site_occupancy
  Al  Al0  1  0.90414000  0.56178300  0.35114800  1
  Al  Al1  1  0.59586000  0.06178300  0.64885200  1
  Al  Al2  1  0.09586000  0.43821700  0.64885200  1
  Al  Al3  1  0.40414000  0.93821700  0.35114800  1
  Al  Al4  1  0.83719400  0.12957400  0.92548800  1
  Al  Al5  1  0.66280600  0.62957400  0.07451200  1
  Al  Al6  1  0.16280600  0.87042600  0.07451200  1
  Al  Al7  1  0.33719400  0.37042600  0.92548800  1
  Al  Al8  1  0.62919000  0.10103600  0.26171800  1
  Al  Al9  1  0.87081000  0.60103600  0.73828200  1
  Al  Al10  1  0.37081000  0.89896400  0.73828200  1
  Al  Al11  1  0.12919000  0.39896400  0.26171800  1
  Al  Al12  1  0.64299700  0.49086100  0.48937900  1
  Al  Al13  1  0.85700300  0.99086100  0.51062100  1
  Al  Al14  1  0.35700300  0.50913900  0.51062100  1
  Al  Al15  1  0.14299700  0.00913900  0.48937900  1
  Mo  Mo0  1  0.44245500  0.25660000  0.40363000  1
  Mo  Mo1  1  0.05754500  0.75660000  0.59637000  1
  Mo  Mo2  1  0.55754500  0.74340000  0.59637000  1
  Mo  Mo3  1  0.94245500  0.24340000  0.40363000  1
  Mo  Mo4  1  0.80408800  0.33697200  0.10683600  1
  Mo  Mo5  1  0.69591200  0.83697200  0.89316400  1
  Mo  Mo6  1  0.19591200  0.66302800  0.89316400  1
  Mo  Mo7  1  0.30408800  0.16302800  0.10683600  1
  Mo  Mo8  1  0.58208300  0.40440300  0.21156000  1
  Mo  Mo9  1  0.91791700  0.90440300  0.78844000  1
  Mo  Mo10  1  0.41791700  0.59559700  0.78844000  1
  Mo  Mo11  1  0.08208300  0.09559700  0.21156000  1
  Mo  Mo12  1  0.65832800  0.75327800  0.34586700  1
  Mo  Mo13  1  0.84167200  0.25327800  0.65413300  1
  Mo  Mo14  1  0.34167200  0.24672200  0.65413300  1
  Mo  Mo15  1  0.15832800  0.74672200  0.34586700  1
  Mo  Mo16  1  0.85297900  0.90331500  0.22954900  1
  Mo  Mo17  1  0.64702100  0.40331500  0.77045100  1
  Mo  Mo18  1  0.14702100  0.09668500  0.77045100  1
  Mo  Mo19  1  0.35297900  0.59668500  0.22954900  1
  Mo  Mo20  1  0.45556000  0.86317800  0.05770900  1
  Mo  Mo21  1  0.04444000  0.36317800  0.94229100  1
  Mo  Mo22  1  0.54444000  0.13682200  0.94229100  1
  Mo  Mo23  1  0.95556000  0.63682200  0.05770900  1
loop_
_geom_bond_atom_site_label_1
_geom_bond_atom_site_label_2
_geom_bond_distance
_geom_bond_site_symmetry_2
Al0 Al5 2.605578 1_555
Al0 Mo1 2.663169 1_655
Al0 Mo12 2.741356 1_555
Al0 Mo3 2.744733 1_555
Al0 Al2 2.750248 1_655
Al0 Mo4 2.798384 1_555
Al0 Mo15 2.806500 1_655
Al0 Al11 2.873859 1_655
Al0 Mo8 2.941942 1_555
Al0 Mo23 3.033907 1_555
Al0 Mo16 3.075986 1_555
Al1 Al4 2.605578 1_555
Al1 Mo0 2.663169 1_555
Al1 Mo13 2.741356 1_555
Al1 Mo2 2.744733 1_545
Al1 Al3 2.750248 1_545
Al1 Mo5 2.798384 1_545
Al1 Mo14 2.806500 1_555
Al1 Al10 2.873859 1_545
Al1 Mo9 2.941942 1_545
Al1 Mo22 3.033907 1_555
Al1 Mo17 3.075986 1_555
Al2 Al7 2.605578 1_555
Al2 Mo3 2.663169 1_455
Al2 Mo14 2.741356 1_555
Al2 Mo1 2.744733 1_555
Al2 Mo6 2.798384 1_555
Al2 Mo13 2.806500 1_455
Al2 Al9 2.873859 1_455
Al2 Mo10 2.941942 1_555
Al2 Mo21 3.033907 1_555
Al2 Mo18 3.075986 1_555
Al3 Al6 2.605578 1_555
Al3 Mo2 2.663169 1_555
Al3 Mo15 2.741356 1_555
Al3 Mo0 2.744733 1_565
Al3 Mo7 2.798384 1_565
Al3 Mo12 2.806500 1_555
Al3 Al8 2.873859 1_565
Al3 Mo11 2.941942 1_565
Al3 Mo20 3.033907 1_555
Al3 Mo19 3.075986 1_555
Al4 Mo4 2.548098 1_556
Al4 Mo9 2.578066 1_545
Al4 Mo11 2.626387 1_656
Al4 Mo21 2.689628 1_655
Al4 Mo22 2.725438 1_555
Al4 Mo5 2.752379 1_545
Al4 Mo13 2.752753 1_555
Al4 Mo17 2.876982 1_555
Al5 Mo5 2.548098 1_554
Al5 Mo8 2.578066 1_555
Al5 Mo10 2.626387 1_554
Al5 Mo20 2.689628 1_555
Al5 Mo23 2.725438 1_555
Al5 Mo4 2.752379 1_555
Al5 Mo12 2.752753 1_555
Al5 Mo16 2.876982 1_555
Al6 Mo6 2.548098 1_554
Al6 Mo11 2.578066 1_565
Al6 Mo9 2.626387 1_454
Al6 Mo23 2.689628 1_455
Al6 Mo20 2.725438 1_555
Al6 Mo7 2.752379 1_565
Al6 Mo15 2.752753 1_555
Al6 Mo19 2.876982 1_555
Al7 Mo7 2.548098 1_556
Al7 Mo10 2.578066 1_555
Al7 Mo8 2.626387 1_556
Al7 Mo22 2.689628 1_555
Al7 Mo21 2.725438 1_555
Al7 Mo6 2.752379 1_555
Al7 Mo14 2.752753 1_555
Al7 Mo18 2.876982 1_555
Al8 Mo8 2.621811 1_555
Al8 Mo7 2.700860 1_555
Al8 Mo22 2.741187 1_554
Al8 Mo20 2.745832 1_545
Al8 Mo16 2.749377 1_545
Al8 Mo3 2.822250 1_555
Al8 Mo0 2.884820 1_555
Al8 Mo4 3.259047 1_555
Al9 Mo9 2.621811 1_555
Al9 Mo6 2.700860 1_655
Al9 Mo23 2.741187 1_556
Al9 Mo21 2.745832 1_655
Al9 Mo17 2.749377 1_555
Al9 Mo2 2.822250 1_555
Al9 Mo1 2.884820 1_655
Al9 Mo5 3.259047 1_555
Al10 Al15 2.509363 1_565
Al10 Mo10 2.621811 1_555
Al10 Mo5 2.700860 1_555
Al10 Mo20 2.741187 1_556
Al10 Mo22 2.745832 1_565
Al10 Mo18 2.749377 1_565
Al10 Mo1 2.822250 1_555
Al10 Mo2 2.884820 1_555
Al10 Mo6 3.259047 1_555
Al11 Al14 2.509363 1_555
Al11 Mo11 2.621811 1_555
Al11 Mo4 2.700860 1_455
Al11 Mo21 2.741187 1_554
Al11 Mo23 2.745832 1_455
Al11 Mo19 2.749377 1_555
Al11 Mo0 2.822250 1_555
Al11 Mo3 2.884820 1_455
Al11 Mo7 3.259047 1_555
Al12 Mo8 2.505304 1_555
Al12 Al9 2.509363 1_555
Al12 Mo0 2.574263 1_555
Al12 Mo2 2.622481 1_555
Al12 Mo12 2.634835 1_555
Al12 Al14 2.688428 1_555
Al12 Mo13 2.690871 1_555
Al12 Mo17 2.704900 1_555
Al12 Mo19 2.823193 1_555
Al13 Mo9 2.505304 1_555
Al13 Al8 2.509363 1_565
Al13 Mo1 2.574263 1_655
Al13 Mo3 2.622481 1_565
Al13 Mo13 2.634835 1_565
Al13 Al15 2.688428 1_665
Al13 Mo12 2.690871 1_555
Al13 Mo16 2.704900 1_555
Al13 Mo18 2.823193 1_665
Al14 Mo10 2.505304 1_555
Al14 Mo2 2.574263 1_555
Al14 Mo0 2.622481 1_555
Al14 Mo14 2.634835 1_555
Al14 Mo15 2.690871 1_555
Al14 Mo19 2.704900 1_555
Al14 Mo17 2.823193 1_555
Al15 Mo11 2.505304 1_555
Al15 Mo3 2.574263 1_455
Al15 Mo1 2.622481 1_545
Al15 Mo15 2.634835 1_545
Al15 Mo14 2.690871 1_555
Al15 Mo18 2.704900 1_555
Al15 Mo16 2.823193 1_445
Mo0 Mo7 2.605572 1_555
Mo0 Mo14 2.855117 1_555
Mo0 Mo8 2.892288 1_555
Mo1 Mo6 2.605572 1_555
Mo1 Mo15 2.855117 1_555
Mo1 Mo9 2.892288 1_455
Mo2 Mo5 2.605572 1_555
Mo3 Mo4 2.605572 1_555
Mo4 Mo8 2.655108 1_555
Mo5 Mo9 2.655108 1_555
Mo6 Mo9 3.056527 1_455
Mo7 Mo8 3.056527 1_555
Mo10 Mo6 2.655108 1_555
Mo10 Mo17 2.704324 1_555
Mo10 Mo2 2.892288 1_555
Mo10 Mo5 3.056527 1_555
Mo10 Mo20 3.289307 1_556
Mo11 Mo7 2.655108 1_555
Mo11 Mo16 2.704324 1_445
Mo11 Mo3 2.892288 1_455
Mo11 Mo4 3.056527 1_455
Mo11 Mo21 3.289307 1_554
Mo12 Mo20 2.665718 1_555
Mo12 Mo16 2.754803 1_555
Mo12 Mo19 2.821552 1_555
Mo12 Mo2 2.855117 1_555
Mo13 Mo21 2.665718 1_655
Mo13 Mo17 2.754803 1_555
Mo13 Mo18 2.821552 1_655
Mo13 Mo3 2.855117 1_555
Mo14 Mo22 2.665718 1_555
Mo14 Mo18 2.754803 1_555
Mo14 Mo17 2.821552 1_555
Mo15 Mo23 2.665718 1_455
Mo15 Mo19 2.754803 1_555
Mo15 Mo16 2.821552 1_455
Mo16 Mo5 2.868211 1_554
Mo16 Mo23 3.140301 1_555
Mo16 Mo20 3.251284 1_555
Mo16 Mo22 3.510795 1_564
Mo17 Mo4 2.868211 1_556
Mo17 Mo22 3.140301 1_555
Mo17 Mo21 3.251284 1_655
Mo17 Mo23 3.510795 1_556
Mo18 Mo9 2.704324 1_445
Mo18 Mo7 2.868211 1_556
Mo18 Mo21 3.140301 1_555
Mo18 Mo22 3.251284 1_555
Mo18 Mo20 3.510795 1_546
Mo19 Mo8 2.704324 1_555
Mo19 Mo6 2.868211 1_554
Mo19 Mo20 3.140301 1_555
Mo19 Mo23 3.251284 1_455
Mo19 Mo21 3.510795 1_554
Mo20 Mo6 2.757405 1_554
Mo20 Mo22 2.823825 1_564
Mo20 Mo7 3.023314 1_565
Mo20 Mo5 3.173693 1_554
Mo21 Mo7 2.757405 1_556
Mo21 Mo23 2.823825 1_456
Mo21 Mo6 3.023314 1_555
Mo21 Mo4 3.173693 1_456
Mo22 Mo4 2.757405 1_556
Mo22 Mo5 3.023314 1_545
Mo22 Mo7 3.173693 1_556
Mo22 Mo8 3.289307 1_556
Mo23 Mo5 2.757405 1_554
Mo23 Mo4 3.023314 1_555
Mo23 Mo6 3.173693 1_654
Mo23 Mo9 3.289307 1_554
