# generated using pymatgen
data_CsFeBP3O11
_symmetry_space_group_name_H-M   'P 1'
_cell_length_a   8.53310300
_cell_length_b   8.71991900
_cell_length_c   12.98386100
_cell_angle_alpha   90.00000000
_cell_angle_beta   90.00000000
_cell_angle_gamma   90.00000000
_symmetry_Int_Tables_number   1
_chemical_formula_structural   CsFeBP3O11
_chemical_formula_sum   'Cs4 Fe4 B4 P12 O44'
_cell_volume   966.10270054
_cell_formula_units_Z   4
loop_
 _symmetry_equiv_pos_site_id
 _symmetry_equiv_pos_as_xyz
  1  'x, y, z'
loop_
 _atom_site_type_symbol
 _atom_site_label
 _atom_site_symmetry_multiplicity
 _atom_site_fract_x
 _atom_site_fract_y
 _atom_site_fract_z
 _atom_site_occupancy
  Cs  Cs0  1  0.35774100  0.65266800  0.75000000  1
  Cs  Cs1  1  0.14225900  0.15266800  0.75000000  1
  Cs  Cs2  1  0.64225900  0.34733200  0.25000000  1
  Cs  Cs3  1  0.85774100  0.84733200  0.25000000  1
  Fe  Fe0  1  0.50000000  0.00000000  0.50000000  1
  Fe  Fe1  1  0.00000000  0.50000000  0.00000000  1
  Fe  Fe2  1  0.50000000  0.00000000  0.00000000  1
  Fe  Fe3  1  0.00000000  0.50000000  0.50000000  1
  B  B0  1  0.67232000  0.31703400  0.75000000  1
  B  B1  1  0.82768000  0.81703400  0.75000000  1
  B  B2  1  0.32768000  0.68296600  0.25000000  1
  B  B3  1  0.17232000  0.18296600  0.25000000  1
  P  P0  1  0.56462300  0.01624300  0.75000000  1
  P  P1  1  0.93537700  0.51624300  0.75000000  1
  P  P2  1  0.43537700  0.98375700  0.25000000  1
  P  P3  1  0.06462300  0.48375700  0.25000000  1
  P  P4  1  0.38249100  0.62653900  0.45707900  1
  P  P5  1  0.11750900  0.12653900  0.04292100  1
  P  P6  1  0.61750900  0.37346100  0.95707900  1
  P  P7  1  0.88249100  0.87346100  0.54292100  1
  P  P8  1  0.61750900  0.37346100  0.54292100  1
  P  P9  1  0.88249100  0.87346100  0.95707900  1
  P  P10  1  0.38249100  0.62653900  0.04292100  1
  P  P11  1  0.11750900  0.12653900  0.45707900  1
  O  O0  1  0.66392100  0.86618800  0.75000000  1
  O  O1  1  0.83607900  0.36618800  0.75000000  1
  O  O2  1  0.33607900  0.13381200  0.25000000  1
  O  O3  1  0.16392100  0.63381200  0.25000000  1
  O  O4  1  0.68625100  0.14946900  0.75000000  1
  O  O5  1  0.81374900  0.64946900  0.75000000  1
  O  O6  1  0.31374900  0.85053100  0.25000000  1
  O  O7  1  0.18625100  0.35053100  0.25000000  1
  O  O8  1  0.50000000  0.50000000  0.50000000  1
  O  O9  1  0.00000000  0.00000000  0.00000000  1
  O  O10  1  0.50000000  0.50000000  0.00000000  1
  O  O11  1  0.00000000  0.00000000  0.50000000  1
  O  O12  1  0.41971000  0.62468000  0.33892900  1
  O  O13  1  0.08029000  0.12468000  0.16107100  1
  O  O14  1  0.58029000  0.37532000  0.83892900  1
  O  O15  1  0.91971000  0.87532000  0.66107100  1
  O  O16  1  0.58029000  0.37532000  0.66107100  1
  O  O17  1  0.91971000  0.87532000  0.83892900  1
  O  O18  1  0.41971000  0.62468000  0.16107100  1
  O  O19  1  0.08029000  0.12468000  0.33892900  1
  O  O20  1  0.45997300  0.01820800  0.65428100  1
  O  O21  1  0.04002700  0.51820800  0.84571900  1
  O  O22  1  0.54002700  0.98179200  0.15428100  1
  O  O23  1  0.95997300  0.48179200  0.34571900  1
  O  O24  1  0.54002700  0.98179200  0.34571900  1
  O  O25  1  0.95997300  0.48179200  0.15428100  1
  O  O26  1  0.45997300  0.01820800  0.84571900  1
  O  O27  1  0.04002700  0.51820800  0.65428100  1
  O  O28  1  0.42537100  0.77640300  0.50852200  1
  O  O29  1  0.07462900  0.27640300  0.99147800  1
  O  O30  1  0.57462900  0.22359700  0.00852200  1
  O  O31  1  0.92537100  0.72359700  0.49147800  1
  O  O32  1  0.57462900  0.22359700  0.49147800  1
  O  O33  1  0.92537100  0.72359700  0.00852200  1
  O  O34  1  0.42537100  0.77640300  0.99147800  1
  O  O35  1  0.07462900  0.27640300  0.50852200  1
  O  O36  1  0.21925300  0.56996400  0.47957800  1
  O  O37  1  0.28074700  0.06996400  0.02042200  1
  O  O38  1  0.78074700  0.43003600  0.97957800  1
  O  O39  1  0.71925300  0.93003600  0.52042200  1
  O  O40  1  0.78074700  0.43003600  0.52042200  1
  O  O41  1  0.71925300  0.93003600  0.97957800  1
  O  O42  1  0.21925300  0.56996400  0.02042200  1
  O  O43  1  0.28074700  0.06996400  0.47957800  1
loop_
_geom_bond_atom_site_label_1
_geom_bond_atom_site_label_2
_geom_bond_distance
_geom_bond_site_symmetry_2
Cs0 O27 3.204568 1_555
Cs0 O21 3.204568 1_555
Cs0 O0 3.208209 1_555
Cs0 O14 3.284576 1_555
Cs0 O16 3.284576 1_555
Cs0 O34 3.365621 1_555
Cs0 O28 3.365621 1_555
Cs1 O20 3.204568 1_555
Cs1 O26 3.204568 1_555
Cs1 O1 3.208209 1_455
Cs1 O17 3.284576 1_445
Cs1 O15 3.284576 1_445
Cs1 O29 3.365621 1_555
Cs1 O35 3.365621 1_555
Cs2 O23 3.204568 1_555
Cs2 O25 3.204568 1_555
Cs2 O2 3.208209 1_555
Cs2 O18 3.284576 1_555
Cs2 O12 3.284576 1_555
Cs2 O32 3.365621 1_555
Cs2 O30 3.365621 1_555
Cs3 O22 3.204568 1_555
Cs3 O24 3.204568 1_555
Cs3 O3 3.208209 1_655
Cs3 O13 3.284576 1_665
Cs3 O19 3.284576 1_665
Cs3 O31 3.365621 1_555
Cs3 O33 3.365621 1_555
Fe0 O39 1.985650 1_545
Fe0 O43 1.985650 1_555
Fe0 O24 2.038267 1_545
Fe0 O20 2.038267 1_555
Fe0 O28 2.054092 1_545
Fe0 O32 2.054092 1_555
Fe1 O42 1.985650 1_555
Fe1 O38 1.985650 1_454
Fe1 O21 2.038267 1_554
Fe1 O25 2.038267 1_455
Fe1 O33 2.054092 1_455
Fe1 O29 2.054092 1_554
Fe2 O41 1.985650 1_544
Fe2 O37 1.985650 1_555
Fe2 O22 2.038267 1_545
Fe2 O26 2.038267 1_554
Fe2 O30 2.054092 1_555
Fe2 O34 2.054092 1_544
Fe3 O40 1.985650 1_455
Fe3 O36 1.985650 1_555
Fe3 O27 2.038267 1_555
Fe3 O23 2.038267 1_455
Fe3 O31 2.054092 1_455
Fe3 O35 2.054092 1_555
B0 O1 1.461631 1_555
B0 O4 1.465981 1_555
B0 O14 1.486006 1_555
B0 O16 1.486006 1_555
B1 O0 1.461631 1_555
B1 O5 1.465981 1_555
B1 O17 1.486006 1_555
B1 O15 1.486006 1_555
B2 O3 1.461631 1_555
B2 O6 1.465981 1_555
B2 O12 1.486006 1_555
B2 O18 1.486006 1_555
B3 O2 1.461631 1_555
B3 O7 1.465981 1_555
B3 O19 1.486006 1_555
B3 O13 1.486006 1_555
O0 P0 1.558858 1_565
O1 P1 1.558858 1_555
O2 P2 1.558858 1_545
O3 P3 1.558858 1_555
O4 P0 1.557805 1_555
O5 P1 1.557805 1_555
O6 P2 1.557805 1_555
O7 P3 1.557805 1_555
O8 P8 1.591702 1_555
O8 P4 1.591702 1_555
O9 P5 1.591702 1_555
O9 P9 1.591702 1_444
O10 P6 1.591702 1_554
O10 P10 1.591702 1_555
O11 P11 1.591702 1_555
O11 P7 1.591702 1_445
O12 P4 1.566658 1_555
O13 P5 1.566658 1_555
O14 P6 1.566658 1_555
O15 P7 1.566658 1_555
O16 P8 1.566658 1_555
O17 P9 1.566658 1_555
O18 P10 1.566658 1_555
O19 P11 1.566658 1_555
O20 P0 1.530451 1_555
O21 P1 1.530451 1_455
O22 P2 1.530451 1_555
O23 P3 1.530451 1_655
O24 P2 1.530451 1_555
O25 P3 1.530451 1_655
O26 P0 1.530451 1_555
O27 P1 1.530451 1_455
O28 P4 1.512529 1_555
O29 P5 1.512529 1_556
O30 P6 1.512529 1_554
O31 P7 1.512529 1_555
O32 P8 1.512529 1_555
O33 P9 1.512529 1_554
O34 P10 1.512529 1_556
O35 P11 1.512529 1_555
O36 P4 1.506305 1_555
O37 P5 1.506305 1_555
O38 P6 1.506305 1_555
O39 P7 1.506305 1_555
O40 P8 1.506305 1_555
O41 P9 1.506305 1_555
O42 P10 1.506305 1_555
O43 P11 1.506305 1_555
