# generated using pymatgen
data_Li7V3P8O29
_symmetry_space_group_name_H-M   'P 1'
_cell_length_a   9.80790273
_cell_length_b   9.81119142
_cell_length_c   13.88508776
_cell_angle_alpha   89.95372124
_cell_angle_beta   90.04774911
_cell_angle_gamma   60.24950729
_symmetry_Int_Tables_number   1
_chemical_formula_structural   Li7V3P8O29
_chemical_formula_sum   'Li14 V6 P16 O58'
_cell_volume   1160.01338791
_cell_formula_units_Z   2
loop_
 _symmetry_equiv_pos_site_id
 _symmetry_equiv_pos_as_xyz
  1  'x, y, z'
loop_
 _atom_site_type_symbol
 _atom_site_label
 _atom_site_symmetry_multiplicity
 _atom_site_fract_x
 _atom_site_fract_y
 _atom_site_fract_z
 _atom_site_occupancy
  Li  Li0  1  0.76161801  0.89651865  0.56180495  1
  Li  Li1  1  0.90165552  0.33480275  0.56627010  1
  Li  Li2  1  0.67883630  0.66212876  0.88399086  1
  Li  Li3  1  0.76689078  0.32228077  0.06018067  1
  Li  Li4  1  0.32563905  0.90654913  0.06074221  1
  Li  Li5  1  0.66622060  0.23732775  0.44200865  1
  Li  Li6  1  0.33430808  0.76447157  0.56495386  1
  Li  Li7  1  0.65722185  0.10416010  0.93949344  1
  Li  Li8  1  0.23457371  0.66317518  0.93484846  1
  Li  Li9  1  0.09743478  0.66408273  0.44028024  1
  Li  Li10  1  0.23511284  0.09860528  0.44186855  1
  Li  Li11  1  0.10225758  0.23301864  0.93675404  1
  Li  Li12  1  0.98074201  0.96413509  0.00294680  1
  Li  Li13  1  0.99449785  0.99981084  0.51017221  1
  V  V0  1  0.56114757  0.43905982  0.25055920  1
  V  V1  1  0.43463247  0.56477133  0.74872689  1
  V  V2  1  0.56409359  0.00127337  0.74930895  1
  V  V3  1  0.43616448  0.00062369  0.24954762  1
  V  V4  1  0.99880953  0.56621903  0.24756161  1
  V  V5  1  0.00089430  0.43728669  0.74969486  1
  P  P0  1  0.91038152  0.78212555  0.84200913  1
  P  P1  1  0.77490390  0.91344712  0.34029969  1
  P  P2  1  0.91343142  0.31246011  0.34340452  1
  P  P3  1  0.66553051  0.66554899  0.12950141  1
  P  P4  1  0.66503292  0.67122206  0.62632852  1
  P  P5  1  0.77503318  0.31561882  0.84396811  1
  P  P6  1  0.68825975  0.22461627  0.65649090  1
  P  P7  1  0.31602936  0.91014724  0.84416220  1
  P  P8  1  0.68722125  0.08886657  0.15472062  1
  P  P9  1  0.31371751  0.77540170  0.34276686  1
  P  P10  1  0.22497929  0.68737993  0.15814871  1
  P  P11  1  0.33115747  0.33649440  0.36934993  1
  P  P12  1  0.33661535  0.32836738  0.87423596  1
  P  P13  1  0.08362962  0.69038507  0.65345891  1
  P  P14  1  0.22553231  0.08561480  0.65695391  1
  P  P15  1  0.08709468  0.22594797  0.15783674  1
  O  O0  1  0.99615599  0.78151212  0.56266598  1
  O  O1  1  0.91788009  0.74632134  0.34125108  1
  O  O2  1  0.77498463  0.00955467  0.06439825  1
  O  O3  1  0.74348330  0.92665653  0.84516814  1
  O  O4  1  0.89593720  0.63297041  0.83753356  1
  O  O5  1  0.80724538  0.66864701  0.17598858  1
  O  O6  1  0.91381734  0.46785833  0.32933686  1
  O  O7  1  0.00146250  0.22038415  0.06852984  1
  O  O8  1  0.92441971  0.32852763  0.84605317  1
  O  O9  1  0.67501151  0.81412397  0.67534757  1
  O  O10  1  0.61977295  0.91041042  0.32729986  1
  O  O11  1  0.80744292  0.51592149  0.66496060  1
  O  O12  1  0.66794516  0.65651530  0.02151908  1
  O  O13  1  0.66774703  0.68905241  0.51916406  1
  O  O14  1  0.66889135  0.51254885  0.17084486  1
  O  O15  1  0.48133655  0.89290012  0.83107083  1
  O  O16  1  0.51061812  0.81104117  0.16617518  1
  O  O17  1  0.74602198  0.33686568  0.34404331  1
  O  O18  1  0.79231834  0.20878542  0.75098204  1
  O  O19  1  0.78569996  0.21575562  0.56778656  1
  O  O20  1  0.76652388  0.22820717  0.93231062  1
  O  O21  1  0.63172466  0.48115019  0.83231902  1
  O  O22  1  0.50975595  0.68219949  0.66336223  1
  O  O23  1  0.66273920  0.25630980  0.16009869  1
  O  O24  1  0.47154846  0.62344146  0.33138532  1
  O  O25  1  0.33703683  0.92054121  0.34194611  1
  O  O26  1  0.79609628  0.99900810  0.24756713  1
  O  O27  1  0.77398274  0.00257757  0.42980532  1
  O  O28  1  0.22205379  0.99595101  0.56774682  1
  O  O29  1  0.67060113  0.07689788  0.65617533  1
  O  O30  1  0.53214012  0.37533717  0.66383865  1
  O  O31  1  0.33210659  0.74721152  0.84678786  1
  O  O32  1  0.48602459  0.32974243  0.32803308  1
  O  O33  1  0.37971201  0.53155657  0.16849646  1
  O  O34  1  0.21935966  0.77757993  0.06815681  1
  O  O35  1  0.22349436  0.77684675  0.43156655  1
  O  O36  1  0.20583054  0.79810830  0.24959216  1
  O  O37  1  0.24655865  0.67557331  0.65627088  1
  O  O38  1  0.48609110  0.18323593  0.82378038  1
  O  O39  1  0.53240771  0.08753178  0.16921985  1
  O  O40  1  0.32961827  0.48175542  0.83776973  1
  O  O41  1  0.36037454  0.30479736  0.98098319  1
  O  O42  1  0.33303964  0.33714828  0.47683946  1
  O  O43  1  0.18800593  0.48998542  0.32853147  1
  O  O44  1  0.38063560  0.08717155  0.66616920  1
  O  O45  1  0.32480790  0.18978512  0.32914289  1
  O  O46  1  0.08442995  0.65992713  0.16393188  1
  O  O47  1  0.98584000  0.80094668  0.74273516  1
  O  O48  1  0.01008747  0.78896965  0.92258801  1
  O  O49  1  0.09191152  0.53213243  0.66422122  1
  O  O50  1  0.19010211  0.32281518  0.83700383  1
  O  O51  1  0.09150719  0.37829969  0.16847020  1
  O  O52  1  0.25506606  0.08025959  0.16104233  1
  O  O53  1  0.23369630  0.00321636  0.93372656  1
  O  O54  1  0.20894500  0.99806489  0.75161744  1
  O  O55  1  0.08098195  0.24931276  0.65627222  1
  O  O56  1  0.00222838  0.22325927  0.43269611  1
  O  O57  1  0.99898003  0.20421488  0.25027408  1
loop_
_geom_bond_atom_site_label_1
_geom_bond_atom_site_label_2
_geom_bond_distance
_geom_bond_site_symmetry_2
Li0 O0 1.997192 1_555
Li0 O29 2.020805 1_565
Li0 O9 2.131241 1_555
Li0 O27 2.139921 1_565
Li1 O55 1.972113 1_655
Li1 O19 1.994083 1_555
Li1 O11 2.065375 1_555
Li1 O56 2.132018 1_655
Li2 O12 1.914939 1_556
Li2 O4 2.104739 1_555
Li2 O21 2.167219 1_555
Li2 O15 2.249611 1_555
Li3 O20 2.002544 1_554
Li3 O7 2.005648 1_655
Li3 O23 2.011046 1_555
Li3 O14 2.235193 1_555
Li4 O53 1.992211 1_564
Li4 O34 2.001802 1_555
Li4 O52 2.039114 1_565
Li4 O16 2.149157 1_555
Li5 O27 2.008846 1_555
Li5 O17 2.043240 1_555
Li5 O19 2.053752 1_555
Li5 O32 2.202903 1_555
Li6 O37 1.963191 1_555
Li6 O28 1.972354 1_555
Li6 O22 2.023733 1_555
Li6 O35 2.119329 1_555
Li7 O20 1.983740 1_555
Li7 O3 2.001823 1_545
Li7 O2 2.033105 1_556
Li7 O38 2.168326 1_555
Li8 O48 1.924073 1_555
Li8 O31 1.967995 1_555
Li8 O40 2.052655 1_555
Li8 O34 2.132121 1_556
Li9 O0 2.017924 1_455
Li9 O35 2.030974 1_555
Li9 O1 2.055972 1_455
Li9 O43 2.148258 1_555
Li10 O56 1.988969 1_555
Li10 O28 2.052132 1_545
Li10 O25 2.061397 1_545
Li10 O45 2.192060 1_555
Li11 O53 1.965370 1_555
Li11 O8 1.969460 1_455
Li11 O50 2.046988 1_555
Li11 O7 2.113010 1_556
Li12 O48 1.947839 1_654
Li12 O2 2.027348 1_565
Li12 O34 2.321567 1_655
Li12 O20 2.584363 1_564
Li13 O19 2.240979 1_565
Li13 O0 2.254241 1_555
Li13 O28 2.352606 1_655
Li13 O27 2.421012 1_565
Li13 O56 2.475977 1_665
Li13 O35 2.480501 1_655
O0 P13 1.536166 1_655
O1 P1 1.540515 1_555
O1 V4 2.014486 1_555
O2 P8 1.502638 1_555
O3 P0 1.545568 1_555
O3 V2 2.029620 1_565
O4 P0 1.539910 1_555
O4 V5 2.068249 1_655
O5 P3 1.545938 1_555
O5 V4 1.910235 1_555
O6 P2 1.538814 1_555
O6 V4 1.927075 1_555
O7 P15 1.513249 1_555
O8 P5 1.532219 1_555
O8 V5 2.070014 1_655
O9 P4 1.605043 1_555
O9 V2 1.905801 1_565
O10 P1 1.546932 1_555
O10 V3 1.898740 1_565
O11 P4 1.563825 1_555
O11 V5 2.030141 1_655
O12 P3 1.501546 1_555
O13 P4 1.499896 1_555
O14 P3 1.591678 1_555
O14 V0 1.902233 1_555
O15 P7 1.555187 1_555
O15 V2 1.983505 1_565
O16 P3 1.566977 1_555
O16 V3 1.997488 1_565
O17 P2 1.537272 1_555
O17 V0 2.041488 1_555
O18 P5 1.618818 1_555
O18 P6 1.620879 1_555
O19 P6 1.535440 1_555
O20 P5 1.522046 1_555
O21 P5 1.540471 1_555
O21 V1 2.043961 1_555
O22 P4 1.560121 1_555
O22 V1 2.029010 1_555
O23 P8 1.539747 1_555
O23 V0 2.004492 1_555
O24 P9 1.534395 1_555
O24 V0 1.931701 1_555
O25 P9 1.550289 1_555
O25 V3 1.991766 1_565
O26 P1 1.605511 1_555
O26 P8 1.625137 1_565
O27 P1 1.517649 1_545
O28 P14 1.529960 1_565
O29 P6 1.542592 1_555
O29 V2 2.020876 1_555
O30 P6 1.514938 1_555
O30 V1 1.999897 1_555
O31 P7 1.526900 1_555
O31 V1 2.070969 1_555
O32 P11 1.594454 1_555
O32 V0 1.906340 1_555
O33 P10 1.535482 1_555
O33 V0 1.918535 1_555
O34 P10 1.515673 1_555
O35 P9 1.514237 1_555
O36 P9 1.614423 1_555
O36 P10 1.621037 1_555
O37 P13 1.531548 1_555
O37 V1 2.058173 1_555
O38 P12 1.612202 1_555
O38 V2 1.868296 1_555
O39 P8 1.538333 1_555
O39 V3 1.913405 1_555
O40 P12 1.556304 1_555
O40 V1 2.021356 1_555
O41 P12 1.500023 1_555
O42 P11 1.492659 1_555
O43 P11 1.568192 1_555
O43 V4 1.970909 1_455
O44 P14 1.534115 1_555
O44 V2 1.941782 1_555
O45 P11 1.574042 1_555
O45 V3 1.962731 1_555
O46 P10 1.532278 1_555
O46 V4 1.914418 1_455
O47 P13 1.613943 1_655
O47 P0 1.618275 1_555
O48 P0 1.508672 1_455
O49 P13 1.521210 1_555
O49 V5 1.973760 1_555
O50 P12 1.552950 1_555
O50 V5 2.024936 1_555
O51 P15 1.523976 1_555
O51 V4 1.942482 1_455
O52 P15 1.556251 1_555
O52 V3 1.973081 1_555
O53 P7 1.517942 1_545
O54 P7 1.610955 1_555
O54 P14 1.621478 1_565
O55 P14 1.526334 1_555
O55 V5 2.066105 1_555
O56 P2 1.517093 1_455
O57 P2 1.619792 1_555
O57 P15 1.619878 1_655
