# generated using pymatgen
data_MnOF
_symmetry_space_group_name_H-M   'P 1'
_cell_length_a   7.82896282
_cell_length_b   7.82896282
_cell_length_c   4.69152562
_cell_angle_alpha   89.94689573
_cell_angle_beta   89.94689573
_cell_angle_gamma   106.39997227
_symmetry_Int_Tables_number   1
_chemical_formula_structural   MnOF
_chemical_formula_sum   'Mn8 O8 F8'
_cell_volume   275.85627437
_cell_formula_units_Z   8
loop_
 _symmetry_equiv_pos_site_id
 _symmetry_equiv_pos_as_xyz
  1  'x, y, z'
loop_
 _atom_site_type_symbol
 _atom_site_label
 _atom_site_symmetry_multiplicity
 _atom_site_fract_x
 _atom_site_fract_y
 _atom_site_fract_z
 _atom_site_occupancy
  Mn  Mn0  1  0.13167000  0.13167000  0.43999700  1
  Mn  Mn1  1  0.38469700  0.88654200  0.52218500  1
  Mn  Mn2  1  0.88654200  0.38469700  0.52218500  1
  Mn  Mn3  1  0.61196000  0.61196000  0.55106000  1
  Mn  Mn4  1  0.75165600  0.98595500  0.98930300  1
  Mn  Mn5  1  0.50499100  0.23872400  0.99285300  1
  Mn  Mn6  1  0.23872400  0.50499100  0.99285300  1
  Mn  Mn7  1  0.98595500  0.75165600  0.98930300  1
  O  O0  1  0.76832400  0.76832400  0.79540400  1
  O  O1  1  0.54118800  0.02649900  0.81384300  1
  O  O2  1  0.02649900  0.54118800  0.81384300  1
  O  O3  1  0.65688600  0.39373600  0.70303300  1
  O  O4  1  0.39373600  0.65688600  0.70303300  1
  O  O5  1  0.35572300  0.10068700  0.30109400  1
  O  O6  1  0.10068700  0.35572300  0.30109400  1
  O  O7  1  0.96352000  0.96352000  0.17011700  1
  F  F0  1  0.27533400  0.27533400  0.79782300  1
  F  F1  1  0.91729200  0.14309400  0.68300800  1
  F  F2  1  0.14309400  0.91729200  0.68300800  1
  F  F3  1  0.83272800  0.59880300  0.30496700  1
  F  F4  1  0.59880300  0.83272800  0.30496700  1
  F  F5  1  0.21687100  0.74174700  0.21297400  1
  F  F6  1  0.74174700  0.21687100  0.21297400  1
  F  F7  1  0.47137700  0.47137700  0.19907800  1
loop_
_geom_bond_atom_site_label_1
_geom_bond_atom_site_label_2
_geom_bond_distance
_geom_bond_site_symmetry_2
Mn0 O5 1.949056 1_555
Mn0 O6 1.949056 1_555
Mn0 O7 2.024040 1_445
Mn1 O1 1.954933 1_565
Mn1 O4 2.006664 1_555
Mn1 O5 2.037173 1_565
Mn2 O2 1.954933 1_655
Mn2 O3 2.006664 1_555
Mn2 O6 2.037173 1_655
Mn3 O0 1.862864 1_555
Mn3 O3 1.971915 1_555
Mn3 O4 1.971915 1_555
Mn4 O7 1.915333 1_556
Mn4 O1 1.947000 1_565
Mn4 O0 1.968698 1_555
Mn5 O1 1.953006 1_555
Mn5 O5 1.976268 1_556
Mn5 O3 1.978566 1_555
Mn6 O2 1.953006 1_555
Mn6 O6 1.976268 1_556
Mn6 O4 1.978566 1_555
Mn7 O7 1.915333 1_556
Mn7 O2 1.947000 1_655
Mn7 O0 1.968698 1_555
F0 Mn5 2.108467 1_555
F0 Mn6 2.108467 1_555
F0 Mn0 2.154283 1_555
F1 Mn0 2.050878 1_655
F1 Mn4 2.086247 1_545
F1 Mn2 2.111832 1_555
F2 Mn0 2.050878 1_565
F2 Mn7 2.086247 1_455
F2 Mn1 2.111832 1_555
F3 Mn7 2.060849 1_554
F3 Mn2 2.102899 1_555
F3 Mn3 2.104273 1_555
F4 Mn4 2.060849 1_554
F4 Mn1 2.102899 1_555
F4 Mn3 2.104273 1_555
F5 Mn1 2.069143 1_555
F5 Mn7 2.111395 1_454
F5 Mn6 2.171106 1_554
F6 Mn2 2.069143 1_555
F6 Mn4 2.111395 1_544
F6 Mn5 2.171106 1_554
F7 Mn3 2.114788 1_555
F7 Mn6 2.143924 1_554
F7 Mn5 2.143924 1_554
