# generated using pymatgen
data_CaNbO2
_symmetry_space_group_name_H-M   'P 1'
_cell_length_a   7.27731791
_cell_length_b   7.27731791
_cell_length_c   7.27731791
_cell_angle_alpha   129.70408511
_cell_angle_beta   129.70408511
_cell_angle_gamma   73.88027826
_symmetry_Int_Tables_number   1
_chemical_formula_structural   CaNbO2
_chemical_formula_sum   'Ca4 Nb4 O8'
_cell_volume   222.51263611
_cell_formula_units_Z   4
loop_
 _symmetry_equiv_pos_site_id
 _symmetry_equiv_pos_as_xyz
  1  'x, y, z'
loop_
 _atom_site_type_symbol
 _atom_site_label
 _atom_site_symmetry_multiplicity
 _atom_site_fract_x
 _atom_site_fract_y
 _atom_site_fract_z
 _atom_site_occupancy
  Ca  Ca0  1  0.87500000  0.62500000  0.25000000  1
  Ca  Ca1  1  0.37500000  0.62500000  0.75000000  1
  Ca  Ca2  1  0.37500000  0.62500000  0.25000000  1
  Ca  Ca3  1  0.37500000  0.12500000  0.75000000  1
  Nb  Nb0  1  0.37500000  0.12500000  0.25000000  1
  Nb  Nb1  1  0.87500000  0.12500000  0.75000000  1
  Nb  Nb2  1  0.87500000  0.12500000  0.25000000  1
  Nb  Nb3  1  0.87500000  0.62500000  0.75000000  1
  O  O0  1  0.17267300  0.39632000  0.22364600  1
  O  O1  1  0.17267300  0.94902700  0.77635400  1
  O  O2  1  0.14632000  0.42267300  0.72364600  1
  O  O3  1  0.57732700  0.85368000  0.27635400  1
  O  O4  1  0.69902700  0.42267300  0.27635400  1
  O  O5  1  0.57732700  0.30097300  0.72364600  1
  O  O6  1  0.60368000  0.82732700  0.77635400  1
  O  O7  1  0.05097300  0.82732700  0.22364600  1
loop_
_geom_bond_atom_site_label_1
_geom_bond_atom_site_label_2
_geom_bond_distance
_geom_bond_site_symmetry_2
Ca0 O7 2.359306 1_655
Ca0 O4 2.359306 1_555
Ca0 O3 2.370683 1_555
Ca0 O0 2.370683 1_655
Ca0 O5 2.370686 1_554
Ca0 O1 2.370686 1_655
Ca1 O2 2.359300 1_555
Ca1 O6 2.359300 1_555
Ca1 O5 2.370686 1_555
Ca1 O1 2.370686 1_555
Ca1 O0 2.370687 1_555
Ca1 O3 2.370687 1_556
Ca2 O3 2.359300 1_555
Ca2 O0 2.359300 1_555
Ca2 O4 2.370686 1_555
Ca2 O7 2.370686 1_555
Ca2 O2 2.370687 1_554
Ca2 O6 2.370687 1_555
Ca3 O5 2.359306 1_555
Ca3 O1 2.359306 1_545
Ca3 O6 2.370683 1_545
Ca3 O2 2.370683 1_555
Ca3 O7 2.370686 1_545
Ca3 O4 2.370686 1_556
Nb0 O5 2.147549 1_555
Nb0 O1 2.147549 1_544
Nb0 O3 2.147555 1_545
Nb0 O0 2.147555 1_555
Nb1 O5 2.147549 1_555
Nb1 O1 2.147549 1_645
Nb1 O0 2.147550 1_656
Nb1 O3 2.147550 1_545
Nb2 O7 2.147549 1_645
Nb2 O4 2.147549 1_555
Nb2 O2 2.147550 1_655
Nb2 O6 2.147550 1_544
Nb3 O4 2.147549 1_555
Nb3 O7 2.147549 1_656
Nb3 O6 2.147555 1_555
Nb3 O2 2.147555 1_655
