# generated using pymatgen
data_Li9Mn2Co5O16
_symmetry_space_group_name_H-M   'P 1'
_cell_length_a   4.99287300
_cell_length_b   5.95130242
_cell_length_c   9.82646769
_cell_angle_alpha   99.16741551
_cell_angle_beta   93.58221618
_cell_angle_gamma   90.55322992
_symmetry_Int_Tables_number   1
_chemical_formula_structural   Li9Mn2Co5O16
_chemical_formula_sum   'Li9 Mn2 Co5 O16'
_cell_volume   287.63491918
_cell_formula_units_Z   1
loop_
 _symmetry_equiv_pos_site_id
 _symmetry_equiv_pos_as_xyz
  1  'x, y, z'
loop_
 _atom_site_type_symbol
 _atom_site_label
 _atom_site_symmetry_multiplicity
 _atom_site_fract_x
 _atom_site_fract_y
 _atom_site_fract_z
 _atom_site_occupancy
  Li  Li0  1  0.88166900  0.80907500  0.25049800  1
  Li  Li1  1  0.12454900  0.69356200  0.74453100  1
  Li  Li2  1  0.37817200  0.56466600  0.25562800  1
  Li  Li3  1  0.87939100  0.30892900  0.25236600  1
  Li  Li4  1  0.12456000  0.18453400  0.74222000  1
  Li  Li5  1  0.37727700  0.06154200  0.25528400  1
  Li  Li6  1  0.61872600  0.93675500  0.75080600  1
  Li  Li7  1  0.61825000  0.44108600  0.74859100  1
  Li  Li8  1  0.25016600  0.87603100  0.49901100  1
  Mn  Mn0  1  0.99987500  0.99973000  0.99892900  1
  Mn  Mn1  1  0.75080300  0.62535000  0.50025800  1
  Co  Co0  1  0.49631000  0.74947700  0.00491900  1
  Co  Co1  1  0.00000800  0.49898600  0.99889600  1
  Co  Co2  1  0.24948900  0.37999300  0.49991800  1
  Co  Co3  1  0.50345100  0.25059900  0.99714900  1
  Co  Co4  1  0.74875700  0.11380700  0.50056000  1
  O  O0  1  0.69643300  0.03031600  0.11647300  1
  O  O1  1  0.90787000  0.89140700  0.61576900  1
  O  O2  1  0.20827300  0.76857100  0.12457200  1
  O  O3  1  0.70145500  0.52534500  0.11557600  1
  O  O4  1  0.94160100  0.41617300  0.61113200  1
  O  O5  1  0.19295100  0.26807900  0.11141800  1
  O  O6  1  0.43215000  0.18032000  0.60547300  1
  O  O7  1  0.43861600  0.63344300  0.60878100  1
  O  O8  1  0.06289700  0.57626900  0.39222300  1
  O  O9  1  0.29964000  0.47434000  0.88467700  1
  O  O10  1  0.55816100  0.35672700  0.38906200  1
  O  O11  1  0.06454000  0.12458700  0.39314700  1
  O  O12  1  0.30441500  0.96921600  0.88210700  1
  O  O13  1  0.59441700  0.82885200  0.38535500  1
  O  O14  1  0.80537800  0.73019700  0.88849800  1
  O  O15  1  0.78975300  0.23203500  0.87617400  1
loop_
_geom_bond_atom_site_label_1
_geom_bond_atom_site_label_2
_geom_bond_distance
_geom_bond_site_symmetry_2
Li0 O13 2.004482 1_555
Li0 O2 2.100747 1_655
Li0 O3 2.127644 1_555
Li0 O0 2.178831 1_565
Li0 O8 2.271434 1_655
Li0 O11 2.300564 1_665
Li1 O4 2.099911 1_455
Li1 O12 2.106774 1_555
Li1 O1 2.118001 1_455
Li1 O7 2.118133 1_555
Li1 O14 2.185982 1_455
Li1 O9 2.192479 1_555
Li2 O2 2.057175 1_555
Li2 O13 2.102213 1_555
Li2 O10 2.109380 1_555
Li2 O8 2.126233 1_555
Li2 O3 2.176315 1_555
Li2 O5 2.233059 1_555
Li3 O11 2.077317 1_655
Li3 O8 2.092199 1_655
Li3 O0 2.116540 1_555
Li3 O5 2.144621 1_655
Li3 O10 2.147987 1_555
Li3 O3 2.163190 1_555
Li4 O6 2.100643 1_555
Li4 O9 2.178773 1_555
Li4 O12 2.183388 1_545
Li4 O15 2.184600 1_455
Li4 O4 2.199378 1_455
Li4 O1 2.205129 1_445
Li5 O2 2.127055 1_545
Li5 O11 2.127871 1_555
Li5 O0 2.151955 1_555
Li5 O10 2.171406 1_555
Li5 O5 2.183875 1_555
Li5 O13 2.268598 1_545
Li6 O1 2.012597 1_555
Li6 O12 2.084275 1_555
Li6 O15 2.117705 1_565
Li6 O14 2.145894 1_555
Li6 O7 2.241403 1_555
Li6 O6 2.351141 1_565
Li7 O15 2.058214 1_555
Li7 O6 2.088776 1_555
Li7 O7 2.090297 1_555
Li7 O9 2.132029 1_555
Li7 O4 2.160147 1_555
Li7 O14 2.185891 1_555
Li8 O8 2.099197 1_555
Li8 O13 2.104689 1_555
Li8 O6 2.108369 1_565
Li8 O1 2.111901 1_455
Li8 O11 2.127340 1_565
Li8 O7 2.128079 1_555
Mn0 O0 1.954388 1_566
Mn0 O12 1.954430 1_655
Mn0 O5 1.994055 1_666
Mn0 O14 1.994297 1_555
Mn0 O15 2.206418 1_565
Mn0 O2 2.215358 1_656
Mn1 O13 1.922265 1_555
Mn1 O1 1.924212 1_555
Mn1 O8 1.938336 1_655
Mn1 O7 1.939561 1_555
Mn1 O10 1.989253 1_555
Mn1 O4 1.992386 1_555
Co0 O2 1.906684 1_555
Co0 O14 1.971138 1_554
Co0 O0 2.059254 1_565
Co0 O9 2.061296 1_554
Co0 O3 2.088080 1_555
Co0 O12 2.113552 1_554
Co1 O9 1.918572 1_555
Co1 O3 1.929240 1_456
Co1 O15 2.068671 1_455
Co1 O2 2.087198 1_556
Co1 O14 2.093869 1_455
Co1 O5 2.101337 1_556
Co2 O11 1.899360 1_555
Co2 O6 1.901356 1_555
Co2 O7 1.908740 1_555
Co2 O8 1.908928 1_555
Co2 O4 1.935234 1_455
Co2 O10 1.935670 1_555
Co3 O15 1.908476 1_555
Co3 O5 1.964294 1_556
Co3 O3 2.055200 1_556
Co3 O12 2.072207 1_545
Co3 O9 2.093934 1_555
Co3 O0 2.096400 1_556
Co4 O6 1.950398 1_555
Co4 O11 1.957454 1_655
Co4 O13 2.001331 1_545
Co4 O1 2.012454 1_545
Co4 O4 2.135072 1_555
Co4 O10 2.144061 1_555
