# generated using pymatgen
data_SmSi3Ir
_symmetry_space_group_name_H-M   'P 1'
_cell_length_a   4.21883581
_cell_length_b   4.21883581
_cell_length_c   5.73776619
_cell_angle_alpha   111.56997728
_cell_angle_beta   111.56997728
_cell_angle_gamma   90.00000000
_symmetry_Int_Tables_number   1
_chemical_formula_structural   SmSi3Ir
_chemical_formula_sum   'Sm1 Si3 Ir1'
_cell_volume   87.23604944
_cell_formula_units_Z   1
loop_
 _symmetry_equiv_pos_site_id
 _symmetry_equiv_pos_as_xyz
  1  'x, y, z'
loop_
 _atom_site_type_symbol
 _atom_site_label
 _atom_site_symmetry_multiplicity
 _atom_site_fract_x
 _atom_site_fract_y
 _atom_site_fract_z
 _atom_site_occupancy
  Sm  Sm0  1  0.99823932  0.99823932  0.99647663  1
  Si  Si0  1  0.41430968  0.41430968  0.82861736  1
  Si  Si1  1  0.76391416  0.26391416  0.52782633  1
  Si  Si2  1  0.26391416  0.76391416  0.52782633  1
  Ir  Ir0  1  0.65362468  0.65362468  0.30724836  1
loop_
_geom_bond_atom_site_label_1
_geom_bond_atom_site_label_2
_geom_bond_distance
_geom_bond_site_symmetry_2
Si0 Si2 2.573539 1_555
Si0 Si1 2.573539 1_555
Si0 Si2 2.573539 1_545
Si0 Si1 2.573539 1_455
Si0 Sm0 3.094538 1_445
Si0 Sm0 3.094538 1_545
Si0 Sm0 3.094538 1_455
Si0 Sm0 3.094539 1_555
Si1 Sm0 3.118624 1_545
Si1 Sm0 3.118625 1_555
Si1 Sm0 3.351421 1_544
Si1 Sm0 3.351422 1_444
Si2 Sm0 3.118624 1_455
Si2 Sm0 3.118625 1_555
Si2 Sm0 3.351421 1_454
Si2 Sm0 3.351422 1_444
Ir0 Si0 2.345911 1_554
Ir0 Si2 2.370327 1_555
Ir0 Si1 2.370327 1_555
Ir0 Si2 2.370331 1_655
Ir0 Si1 2.370331 1_565
Ir0 Sm0 3.349531 1_444
Ir0 Sm0 3.349534 1_544
Ir0 Sm0 3.349534 1_454
Ir0 Sm0 3.349536 1_554
Ir0 Sm0 3.378110 1_555
