# generated using pymatgen
data_CeEr3
_symmetry_space_group_name_H-M   'P 1'
_cell_length_a   6.09652456
_cell_length_b   6.09652456
_cell_length_c   6.09652456
_cell_angle_alpha   131.65948270
_cell_angle_beta   131.65948270
_cell_angle_gamma   70.76737155
_symmetry_Int_Tables_number   1
_chemical_formula_structural   CeEr3
_chemical_formula_sum   'Ce1 Er3'
_cell_volume   123.88571865
_cell_formula_units_Z   1
loop_
 _symmetry_equiv_pos_site_id
 _symmetry_equiv_pos_as_xyz
  1  'x, y, z'
loop_
 _atom_site_type_symbol
 _atom_site_label
 _atom_site_symmetry_multiplicity
 _atom_site_fract_x
 _atom_site_fract_y
 _atom_site_fract_z
 _atom_site_occupancy
  Ce  Ce0  1  0.00000000  0.00000000  0.00000000  1
  Er  Er0  1  0.75000000  0.25000000  0.50000000  1
  Er  Er1  1  0.25000000  0.75000000  0.50000000  1
  Er  Er2  1  0.50000000  0.50000000  0.00000000  1
loop_
_geom_bond_atom_site_label_1
_geom_bond_atom_site_label_2
_geom_bond_distance
_geom_bond_site_symmetry_2
Ce0 Er0 3.522422 1_454
Ce0 Er0 3.522422 1_555
Ce0 Er0 3.522422 1_444
Ce0 Er1 3.522422 1_444
Ce0 Er1 3.522422 1_545
Ce0 Er0 3.522422 1_455
Ce0 Er1 3.522422 1_544
Ce0 Er1 3.522422 1_555
Ce0 Er2 3.530187 1_545
Ce0 Er2 3.530187 1_444
Ce0 Er2 3.530187 1_556
Ce0 Er2 3.530187 1_455
Er0 Er2 3.522422 1_556
Er0 Er2 3.522422 1_545
Er0 Er2 3.522422 1_555
Er0 Er2 3.522422 1_656
Er0 Er1 3.530187 1_645
Er0 Er1 3.530187 1_656
Er0 Er1 3.530187 1_544
Er0 Er1 3.530187 1_555
Er1 Er2 3.522422 1_556
Er1 Er2 3.522422 1_566
Er1 Er2 3.522422 1_455
Er1 Er2 3.522422 1_555
