# generated using pymatgen
data_Li4MnCo2O7
_symmetry_space_group_name_H-M   'P 1'
_cell_length_a   2.94347500
_cell_length_b   5.06755086
_cell_length_c   17.45059551
_cell_angle_alpha   84.52525692
_cell_angle_beta   88.03184754
_cell_angle_gamma   76.11463836
_symmetry_Int_Tables_number   1
_chemical_formula_structural   Li4MnCo2O7
_chemical_formula_sum   'Li8 Mn2 Co4 O14'
_cell_volume   251.51996142
_cell_formula_units_Z   2
loop_
 _symmetry_equiv_pos_site_id
 _symmetry_equiv_pos_as_xyz
  1  'x, y, z'
loop_
 _atom_site_type_symbol
 _atom_site_label
 _atom_site_symmetry_multiplicity
 _atom_site_fract_x
 _atom_site_fract_y
 _atom_site_fract_z
 _atom_site_occupancy
  Li  Li0  1  0.70146100  0.58060400  0.92800300  1
  Li  Li1  1  0.14394900  0.71347900  0.78506500  1
  Li  Li2  1  0.56919900  0.86158400  0.64265800  1
  Li  Li3  1  0.99929800  0.99831100  0.49821300  1
  Li  Li4  1  0.42359100  0.14354400  0.35571600  1
  Li  Li5  1  0.85849300  0.27306400  0.21247400  1
  Li  Li6  1  0.31533000  0.41855000  0.07822600  1
  Li  Li7  1  0.55224000  0.87312800  0.14392500  1
  Mn  Mn0  1  0.99805200  0.00465600  0.00624400  1
  Mn  Mn1  1  0.29326800  0.42567500  0.56910800  1
  Co  Co0  1  0.44105700  0.14013200  0.85758700  1
  Co  Co1  1  0.86140700  0.28203600  0.71409100  1
  Co  Co2  1  0.70986800  0.57228200  0.42601200  1
  Co  Co3  1  0.13558100  0.71576400  0.28015100  1
  O  O0  1  0.39962500  0.25209100  0.96783600  1
  O  O1  1  0.78838100  0.40838900  0.82398300  1
  O  O2  1  0.21230300  0.55105000  0.67605200  1
  O  O3  1  0.62501900  0.69856700  0.52959700  1
  O  O4  1  0.05438100  0.82916300  0.38604900  1
  O  O5  1  0.48024800  0.97501500  0.25438300  1
  O  O6  1  0.92426500  0.14401600  0.09972900  1
  O  O7  1  0.07710000  0.88024700  0.89528300  1
  O  O8  1  0.50268100  0.01686700  0.74966900  1
  O  O9  1  0.95514500  0.15459300  0.60593400  1
  O  O10  1  0.37782600  0.30237500  0.46493000  1
  O  O11  1  0.79123400  0.45347400  0.32561400  1
  O  O12  1  0.21185600  0.57619200  0.19205200  1
  O  O13  1  0.59714200  0.75515200  0.03141600  1
loop_
_geom_bond_atom_site_label_1
_geom_bond_atom_site_label_2
_geom_bond_distance
_geom_bond_site_symmetry_2
Li0 O13 2.066275 1_556
Li0 O1 2.070092 1_555
Li0 O7 2.109807 1_655
Li0 O0 2.119100 1_555
Li0 O7 2.139268 1_555
Li0 O0 2.390197 1_655
Li1 O8 2.100800 1_565
Li1 O1 2.115271 1_455
Li1 O2 2.128360 1_555
Li1 O7 2.157921 1_555
Li1 O8 2.194115 1_465
Li1 O1 2.220409 1_555
Li2 O8 2.079926 1_565
Li2 O9 2.117548 1_565
Li2 O9 2.119484 1_465
Li2 O2 2.120364 1_555
Li2 O3 2.196743 1_555
Li2 O2 2.206879 1_655
Li3 O9 2.096574 1_565
Li3 O3 2.103307 1_555
Li3 O10 2.135833 1_665
Li3 O3 2.137103 1_655
Li3 O10 2.146448 1_565
Li3 O4 2.196314 1_655
Li4 O5 2.020814 1_545
Li4 O10 2.126330 1_555
Li4 O11 2.129083 1_555
Li4 O4 2.151720 1_545
Li4 O11 2.171140 1_455
Li4 O4 2.180034 1_645
Li5 O12 2.050714 1_655
Li5 O6 2.120059 1_555
Li5 O5 2.143840 1_545
Li5 O12 2.155985 1_555
Li5 O5 2.172534 1_645
Li5 O11 2.236924 1_555
Li6 O6 2.009649 1_555
Li6 O6 2.010131 1_455
Li6 O13 2.152119 1_555
Li6 O0 2.158891 1_554
Li6 O12 2.195655 1_555
Li6 O13 2.483496 1_455
Li7 O5 2.033790 1_555
Li7 O6 2.034653 1_565
Li7 O13 2.097107 1_555
Li7 O12 2.097155 1_555
Li7 O6 2.138684 1_465
Li7 O12 2.282079 1_655
Mn0 O6 1.824597 1_555
Mn0 O13 1.938737 1_545
Mn0 O13 1.943787 1_645
Mn0 O0 1.978690 1_654
Mn0 O0 1.996208 1_554
Mn0 O7 2.081486 1_644
Mn1 O9 1.932472 1_455
Mn1 O3 1.939406 1_555
Mn1 O10 1.966824 1_555
Mn1 O2 2.016513 1_555
Mn1 O9 2.174551 1_555
Mn1 O3 2.205096 1_455
Co0 O1 1.926340 1_555
Co0 O7 1.943783 1_545
Co0 O8 2.028862 1_555
Co0 O0 2.048696 1_555
Co0 O7 2.099546 1_645
Co0 O1 2.134111 1_455
Co1 O8 1.944957 1_555
Co1 O2 1.954964 1_655
Co1 O9 2.041275 1_555
Co1 O1 2.067272 1_555
Co1 O8 2.111397 1_655
Co1 O2 2.147989 1_555
Co2 O11 1.895418 1_555
Co2 O4 1.902897 1_655
Co2 O10 1.925102 1_555
Co2 O3 1.962758 1_555
Co2 O4 2.148778 1_555
Co2 O10 2.195770 1_655
Co3 O12 1.738321 1_555
Co3 O5 1.858248 1_555
Co3 O11 1.952844 1_455
Co3 O4 1.977061 1_555
Co3 O5 2.092749 1_455
Co3 O11 2.189381 1_555
