# generated using pymatgen
data_Cd3Pb2Se4(IO6)2
_symmetry_space_group_name_H-M   'P 1'
_cell_length_a   5.51473600
_cell_length_b   11.35540400
_cell_length_c   16.89537514
_cell_angle_alpha   60.85171029
_cell_angle_beta   90.00000000
_cell_angle_gamma   90.00000000
_symmetry_Int_Tables_number   1
_chemical_formula_structural   Cd3Pb2Se4(IO6)2
_chemical_formula_sum   'Cd6 Pb4 Se8 I4 O24'
_cell_volume   924.03720755
_cell_formula_units_Z   2
loop_
 _symmetry_equiv_pos_site_id
 _symmetry_equiv_pos_as_xyz
  1  'x, y, z'
loop_
 _atom_site_type_symbol
 _atom_site_label
 _atom_site_symmetry_multiplicity
 _atom_site_fract_x
 _atom_site_fract_y
 _atom_site_fract_z
 _atom_site_occupancy
  Cd  Cd0  1  0.69812300  0.50000000  0.25000000  1
  Cd  Cd1  1  0.30187700  0.50000000  0.75000000  1
  Cd  Cd2  1  0.78131600  0.50399000  0.90941500  1
  Cd  Cd3  1  0.78131600  0.49601000  0.59058500  1
  Cd  Cd4  1  0.21868400  0.49601000  0.09058500  1
  Cd  Cd5  1  0.21868400  0.50399000  0.40941500  1
  Pb  Pb0  1  0.25098300  0.20380300  0.00841200  1
  Pb  Pb1  1  0.25098300  0.79619700  0.49158800  1
  Pb  Pb2  1  0.74901700  0.79619700  0.99158800  1
  Pb  Pb3  1  0.74901700  0.20380300  0.50841200  1
  Se  Se0  1  0.74205200  0.29620700  0.13086800  1
  Se  Se1  1  0.74205200  0.70379300  0.36913200  1
  Se  Se2  1  0.25794800  0.70379300  0.86913200  1
  Se  Se3  1  0.25794800  0.29620700  0.63086800  1
  Se  Se4  1  0.74454600  0.26474800  0.84825100  1
  Se  Se5  1  0.74454600  0.73525200  0.65174900  1
  Se  Se6  1  0.25545400  0.73525200  0.15174900  1
  Se  Se7  1  0.25545400  0.26474800  0.34825100  1
  I  I0  1  0.74515700  0.99117300  0.10359500  1
  I  I1  1  0.74515700  0.00882700  0.39640500  1
  I  I2  1  0.25484300  0.00882700  0.89640500  1
  I  I3  1  0.25484300  0.99117300  0.60359500  1
  O  O0  1  0.81680200  0.42766700  0.14995100  1
  O  O1  1  0.81680200  0.57233300  0.35004900  1
  O  O2  1  0.18319800  0.57233300  0.85004900  1
  O  O3  1  0.18319800  0.42766700  0.64995100  1
  O  O4  1  0.95718600  0.34164500  0.04353000  1
  O  O5  1  0.95718600  0.65835500  0.45647000  1
  O  O6  1  0.04281400  0.65835500  0.95647000  1
  O  O7  1  0.04281400  0.34164500  0.54353000  1
  O  O8  1  0.48209300  0.35275500  0.06472600  1
  O  O9  1  0.48209300  0.64724500  0.43527400  1
  O  O10  1  0.51790700  0.64724500  0.93527400  1
  O  O11  1  0.51790700  0.35275500  0.56472600  1
  O  O12  1  0.53399100  0.34570600  0.88665000  1
  O  O13  1  0.53399100  0.65429400  0.61335000  1
  O  O14  1  0.46600900  0.65429400  0.11335000  1
  O  O15  1  0.46600900  0.34570600  0.38665000  1
  O  O16  1  0.00360700  0.34215300  0.86059800  1
  O  O17  1  0.00360700  0.65784700  0.63940200  1
  O  O18  1  0.99639300  0.65784700  0.13940200  1
  O  O19  1  0.99639300  0.34215300  0.36059800  1
  O  O20  1  0.66498300  0.34992000  0.73700600  1
  O  O21  1  0.66498300  0.65008000  0.76299400  1
  O  O22  1  0.33501700  0.65008000  0.26299400  1
  O  O23  1  0.33501700  0.34992000  0.23700600  1
loop_
_geom_bond_atom_site_label_1
_geom_bond_atom_site_label_2
_geom_bond_distance
_geom_bond_site_symmetry_2
Cd0 O1 2.304962 1_555
Cd0 O0 2.304962 1_555
Cd0 O14 2.469435 1_555
Cd0 O15 2.469435 1_555
Cd0 O19 2.479382 1_555
Cd0 O18 2.479382 1_555
Cd0 O23 2.706800 1_555
Cd0 O22 2.706800 1_555
Cd1 O2 2.304962 1_555
Cd1 O3 2.304962 1_555
Cd1 O13 2.469435 1_555
Cd1 O12 2.469435 1_555
Cd1 O17 2.479382 1_555
Cd1 O16 2.479382 1_555
Cd1 O21 2.706800 1_555
Cd1 O20 2.706800 1_555
Cd2 O21 2.299060 1_555
Cd2 O4 2.324722 1_556
Cd2 O10 2.374776 1_555
Cd2 O2 2.400395 1_655
Cd2 O12 2.431513 1_555
Cd2 O16 2.652696 1_655
Cd2 O6 2.672410 1_655
Cd3 O20 2.299060 1_555
Cd3 O5 2.324722 1_555
Cd3 O11 2.374776 1_555
Cd3 O3 2.400395 1_655
Cd3 O13 2.431513 1_555
Cd3 O17 2.652696 1_655
Cd3 O7 2.672410 1_655
Cd4 O23 2.299060 1_555
Cd4 O6 2.324722 1_554
Cd4 O8 2.374776 1_555
Cd4 O0 2.400395 1_455
Cd4 O14 2.431513 1_555
Cd4 O18 2.652696 1_455
Cd4 O4 2.672410 1_455
Cd5 O22 2.299060 1_555
Cd5 O7 2.324722 1_555
Cd5 O9 2.374776 1_555
Cd5 O1 2.400395 1_455
Cd5 O15 2.431513 1_555
Cd5 O19 2.652696 1_455
Cd5 O5 2.672410 1_455
I0 Pb0 3.472810 1_565
I0 Pb0 3.523460 1_665
I0 Pb2 3.544723 1_554
I1 Pb1 3.472810 1_545
I1 Pb1 3.523460 1_645
I1 Pb3 3.544723 1_555
I2 Pb2 3.472810 1_545
I2 Pb2 3.523460 1_445
I2 Pb0 3.544723 1_556
I3 Pb3 3.472810 1_565
I3 Pb3 3.523460 1_465
I3 Pb1 3.544723 1_555
O0 Se0 1.723696 1_555
O1 Se1 1.723696 1_555
O2 Se2 1.723696 1_555
O3 Se3 1.723696 1_555
O4 Se0 1.763385 1_555
O4 Pb0 2.516316 1_655
O5 Se1 1.763385 1_555
O5 Pb1 2.516316 1_655
O6 Se2 1.763385 1_555
O6 Pb2 2.516316 1_455
O7 Se3 1.763385 1_555
O7 Pb3 2.516316 1_455
O8 Se0 1.737045 1_555
O8 Pb0 2.637834 1_555
O9 Se1 1.737045 1_555
O9 Pb1 2.637834 1_555
O10 Se2 1.737045 1_555
O10 Pb2 2.637834 1_555
O11 Se3 1.737045 1_555
O11 Pb3 2.637834 1_555
O12 Se4 1.787542 1_555
O12 Pb0 2.456674 1_556
O13 Se5 1.787542 1_555
O13 Pb1 2.456674 1_555
O14 Se6 1.787542 1_555
O14 Pb2 2.456674 1_554
O15 Se7 1.787542 1_555
O15 Pb3 2.456674 1_555
O16 Se4 1.742344 1_455
O16 Pb0 2.596936 1_556
O17 Se5 1.742344 1_455
O17 Pb1 2.596936 1_555
O18 Se6 1.742344 1_655
O18 Pb2 2.596936 1_554
O19 Se7 1.742344 1_655
O19 Pb3 2.596936 1_555
O20 Se4 1.699922 1_555
O21 Se5 1.699922 1_555
O22 Se6 1.699922 1_555
O23 Se7 1.699922 1_555
