# generated using pymatgen
data_Zr2CuS4
_symmetry_space_group_name_H-M   'P 1'
_cell_length_a   7.35471089
_cell_length_b   7.35471358
_cell_length_c   7.35471356
_cell_angle_alpha   60.00000010
_cell_angle_beta   59.99998800
_cell_angle_gamma   59.99998314
_symmetry_Int_Tables_number   1
_chemical_formula_structural   Zr2CuS4
_chemical_formula_sum   'Zr4 Cu2 S8'
_cell_volume   281.30797273
_cell_formula_units_Z   2
loop_
 _symmetry_equiv_pos_site_id
 _symmetry_equiv_pos_as_xyz
  1  'x, y, z'
loop_
 _atom_site_type_symbol
 _atom_site_label
 _atom_site_symmetry_multiplicity
 _atom_site_fract_x
 _atom_site_fract_y
 _atom_site_fract_z
 _atom_site_occupancy
  Zr  Zr0  1  0.50000000  0.50000000  -0.00000000  1
  Zr  Zr1  1  0.50000000  0.50000000  0.50000000  1
  Zr  Zr2  1  0.00000000  0.50000000  0.50000000  1
  Zr  Zr3  1  0.50000000  -0.00000000  0.50000000  1
  Cu  Cu0  1  0.87500000  0.87500000  0.87500000  1
  Cu  Cu1  1  0.12500000  0.12500000  0.12500000  1
  S  S0  1  0.74856834  0.74856834  0.74856834  1
  S  S1  1  0.25143166  0.25143166  0.74570502  1
  S  S2  1  0.25143166  0.74570502  0.25143166  1
  S  S3  1  0.74570502  0.25143166  0.25143166  1
  S  S4  1  0.74856834  0.25429498  0.74856834  1
  S  S5  1  0.25429498  0.74856834  0.74856834  1
  S  S6  1  0.25143166  0.25143166  0.25143166  1
  S  S7  1  0.74856834  0.74856834  0.25429498  1
loop_
_geom_bond_atom_site_label_1
_geom_bond_atom_site_label_2
_geom_bond_distance
_geom_bond_site_symmetry_2
Cu0 S5 2.277702 1_655
Cu0 S4 2.277703 1_565
Cu0 S0 2.277704 1_555
Cu0 S7 2.277704 1_556
Cu1 S3 2.277702 1_455
Cu1 S2 2.277703 1_545
Cu1 S1 2.277704 1_554
Cu1 S6 2.277704 1_555
S0 Zr2 2.585478 1_655
S0 Zr3 2.585478 1_565
S0 Zr0 2.585478 1_556
S1 Zr2 2.585478 1_555
S1 Zr3 2.585478 1_555
S1 Zr1 2.585478 1_555
S2 Zr0 2.585478 1_555
S2 Zr1 2.585478 1_555
S2 Zr2 2.585478 1_555
S3 Zr1 2.585478 1_555
S3 Zr0 2.585478 1_555
S3 Zr3 2.585478 1_555
S4 Zr0 2.585478 1_556
S4 Zr1 2.585478 1_555
S4 Zr2 2.585478 1_655
S5 Zr0 2.585478 1_556
S5 Zr1 2.585478 1_555
S5 Zr3 2.585478 1_565
S6 Zr2 2.585478 1_555
S6 Zr3 2.585478 1_555
S6 Zr0 2.585478 1_555
S7 Zr2 2.585478 1_655
S7 Zr3 2.585478 1_565
S7 Zr1 2.585478 1_555
