# generated using pymatgen
data_HfFe2
_symmetry_space_group_name_H-M   'P 1'
_cell_length_a   4.96840000
_cell_length_b   4.96837428
_cell_length_c   16.22314292
_cell_angle_alpha   90.00000000
_cell_angle_beta   90.00000000
_cell_angle_gamma   119.99912634
_symmetry_Int_Tables_number   1
_chemical_formula_structural   HfFe2
_chemical_formula_sum   'Hf8 Fe16'
_cell_volume   346.81694416
_cell_formula_units_Z   8
loop_
 _symmetry_equiv_pos_site_id
 _symmetry_equiv_pos_as_xyz
  1  'x, y, z'
loop_
 _atom_site_type_symbol
 _atom_site_label
 _atom_site_symmetry_multiplicity
 _atom_site_fract_x
 _atom_site_fract_y
 _atom_site_fract_z
 _atom_site_occupancy
  Hf  Hf0  1  0.00000146  0.00000054  0.40593613  1
  Hf  Hf1  1  0.99999854  0.99999946  0.59406387  1
  Hf  Hf2  1  0.99999854  0.99999946  0.90593613  1
  Hf  Hf3  1  0.00000146  0.00000054  0.09406387  1
  Hf  Hf4  1  0.33333472  0.66666428  0.65613129  1
  Hf  Hf5  1  0.66666528  0.33333572  0.34386871  1
  Hf  Hf6  1  0.66666528  0.33333572  0.15613129  1
  Hf  Hf7  1  0.33333472  0.66666428  0.84386871  1
  Fe  Fe0  1  0.33333298  0.66666702  0.37559685  1
  Fe  Fe1  1  0.66666702  0.33333298  0.62440315  1
  Fe  Fe2  1  0.66666702  0.33333298  0.87559685  1
  Fe  Fe3  1  0.33333298  0.66666702  0.12440315  1
  Fe  Fe4  1  0.50000000  0.50000000  0.50000000  1
  Fe  Fe5  1  0.50000000  0.00000000  0.50000000  1
  Fe  Fe6  1  0.00000000  0.50000000  0.50000000  1
  Fe  Fe7  1  0.50000000  0.50000000  0.00000000  1
  Fe  Fe8  1  0.50000000  0.00000000  0.00000000  1
  Fe  Fe9  1  0.00000000  0.50000000  0.00000000  1
  Fe  Fe10  1  0.16555892  0.83444208  0.25000000  1
  Fe  Fe11  1  0.16555827  0.33111680  0.25000000  1
  Fe  Fe12  1  0.66888120  0.83444173  0.25000000  1
  Fe  Fe13  1  0.83444108  0.16555792  0.75000000  1
  Fe  Fe14  1  0.83444173  0.66888320  0.75000000  1
  Fe  Fe15  1  0.33111880  0.16555827  0.75000000  1
loop_
_geom_bond_atom_site_label_1
_geom_bond_atom_site_label_2
_geom_bond_distance
_geom_bond_site_symmetry_2
Fe0 Fe4 2.475931 1_555
Fe0 Fe5 2.475937 1_565
Fe0 Fe6 2.475942 1_555
Fe0 Fe10 2.497240 1_555
Fe0 Fe12 2.497251 1_555
Fe0 Fe11 2.497252 1_555
Fe0 Hf0 2.910402 1_565
Fe0 Hf0 2.910438 1_555
Fe0 Hf0 2.910461 1_665
Fe0 Hf5 2.914291 1_555
Fe0 Hf5 2.914342 1_565
Fe0 Hf5 2.914352 1_455
Fe1 Fe4 2.475931 1_555
Fe1 Fe5 2.475937 1_555
Fe1 Fe6 2.475942 1_655
Fe1 Fe13 2.497240 1_555
Fe1 Fe15 2.497251 1_555
Fe1 Fe14 2.497252 1_555
Fe1 Hf1 2.910402 1_545
Fe1 Hf1 2.910438 1_555
Fe1 Hf1 2.910461 1_445
Fe1 Hf4 2.914291 1_555
Fe1 Hf4 2.914342 1_545
Fe1 Hf4 2.914352 1_655
Fe2 Fe7 2.475931 1_556
Fe2 Fe8 2.475937 1_556
Fe2 Fe9 2.475942 1_656
Fe2 Hf2 2.910402 1_545
Fe2 Hf2 2.910438 1_555
Fe2 Hf2 2.910461 1_445
Fe2 Hf7 2.914291 1_555
Fe2 Hf7 2.914342 1_545
Fe2 Hf7 2.914352 1_655
Fe3 Fe7 2.475931 1_555
Fe3 Fe8 2.475937 1_565
Fe3 Fe9 2.475942 1_555
Fe3 Hf3 2.910402 1_565
Fe3 Hf3 2.910438 1_555
Fe3 Hf3 2.910461 1_665
Fe3 Hf6 2.914291 1_555
Fe3 Hf6 2.914342 1_565
Fe3 Hf6 2.914352 1_455
Fe4 Fe5 2.484187 1_565
Fe4 Fe5 2.484187 1_555
Fe4 Fe6 2.484200 1_655
Fe4 Fe6 2.484200 1_555
Fe4 Hf5 2.910806 1_555
Fe4 Hf4 2.910806 1_555
Fe4 Hf0 2.915488 1_555
Fe4 Hf1 2.915488 1_555
Fe4 Hf0 2.915496 1_665
Fe4 Hf1 2.915496 1_445
Fe5 Fe6 2.484226 1_655
Fe5 Fe6 2.484226 1_545
Fe5 Hf5 2.910827 1_555
Fe5 Hf4 2.910827 1_545
Fe5 Hf0 2.915464 1_555
Fe5 Hf1 2.915464 1_545
Fe5 Hf0 2.915474 1_655
Fe5 Hf1 2.915474 1_445
Fe6 Hf5 2.910829 1_455
Fe6 Hf4 2.910829 1_555
Fe6 Hf0 2.915458 1_565
Fe6 Hf1 2.915458 1_445
Fe6 Hf0 2.915459 1_555
Fe6 Hf1 2.915459 1_455
Fe7 Fe8 2.484187 1_565
Fe7 Fe8 2.484187 1_555
Fe7 Fe9 2.484200 1_655
Fe7 Fe9 2.484200 1_555
Fe7 Hf6 2.910806 1_555
Fe7 Hf7 2.910806 1_554
Fe7 Hf3 2.915488 1_555
Fe7 Hf2 2.915488 1_554
Fe7 Hf3 2.915496 1_665
Fe7 Hf2 2.915496 1_444
Fe8 Fe9 2.484226 1_545
Fe8 Fe9 2.484226 1_655
Fe8 Hf6 2.910827 1_555
Fe8 Hf7 2.910827 1_544
Fe8 Hf3 2.915464 1_555
Fe8 Hf2 2.915464 1_544
Fe8 Hf3 2.915474 1_655
Fe8 Hf2 2.915474 1_444
Fe9 Hf6 2.910829 1_455
Fe9 Hf7 2.910829 1_554
Fe9 Hf3 2.915458 1_565
Fe9 Hf2 2.915458 1_444
Fe9 Hf2 2.915459 1_454
Fe9 Hf3 2.915459 1_555
Fe10 Fe11 2.467668 1_565
Fe10 Fe12 2.467693 1_455
Fe10 Fe3 2.497240 1_555
Fe10 Fe11 2.500707 1_555
Fe10 Fe12 2.500707 1_555
Fe10 Hf3 2.903366 1_565
Fe10 Hf0 2.903366 1_565
Fe10 Hf6 2.913851 1_455
Fe10 Hf5 2.913851 1_455
Fe10 Hf5 2.913851 1_565
Fe10 Hf6 2.913851 1_565
Fe11 Fe12 2.467712 1_445
Fe11 Fe3 2.497252 1_555
Fe11 Fe12 2.500741 1_555
Fe11 Hf3 2.903374 1_555
Fe11 Hf0 2.903374 1_555
Fe11 Hf6 2.913819 1_555
Fe11 Hf5 2.913819 1_555
Fe11 Hf5 2.913839 1_455
Fe11 Hf6 2.913839 1_455
Fe12 Fe3 2.497251 1_555
Fe12 Hf0 2.903386 1_665
Fe12 Hf3 2.903386 1_665
Fe12 Hf6 2.913810 1_555
Fe12 Hf5 2.913810 1_555
Fe12 Hf6 2.913826 1_565
Fe12 Hf5 2.913826 1_565
Fe13 Fe14 2.467668 1_545
Fe13 Fe15 2.467693 1_655
Fe13 Fe2 2.497240 1_555
Fe13 Fe14 2.500707 1_555
Fe13 Fe15 2.500707 1_555
Fe13 Hf2 2.903366 1_545
Fe13 Hf1 2.903366 1_545
Fe13 Hf7 2.913851 1_655
Fe13 Hf4 2.913851 1_655
Fe13 Hf4 2.913851 1_545
Fe13 Hf7 2.913851 1_545
Fe14 Fe15 2.467712 1_665
Fe14 Fe2 2.497252 1_555
Fe14 Fe15 2.500741 1_555
Fe14 Hf1 2.903374 1_555
Fe14 Hf2 2.903374 1_555
Fe14 Hf4 2.913819 1_555
Fe14 Hf7 2.913819 1_555
Fe14 Hf4 2.913839 1_655
Fe14 Hf7 2.913839 1_655
Fe15 Fe2 2.497251 1_555
Fe15 Hf1 2.903386 1_445
Fe15 Hf2 2.903386 1_445
Fe15 Hf7 2.913810 1_555
Fe15 Hf4 2.913810 1_555
Fe15 Hf7 2.913826 1_545
Fe15 Hf4 2.913826 1_545
