# generated using pymatgen
data_Pm2MgS4
_symmetry_space_group_name_H-M   'P 1'
_cell_length_a   13.81104641
_cell_length_b   8.12423363
_cell_length_c   6.61350139
_cell_angle_alpha   90.00000000
_cell_angle_beta   90.00000000
_cell_angle_gamma   90.00000000
_symmetry_Int_Tables_number   1
_chemical_formula_structural   Pm2MgS4
_chemical_formula_sum   'Pm8 Mg4 S16'
_cell_volume   742.06241911
_cell_formula_units_Z   4
loop_
 _symmetry_equiv_pos_site_id
 _symmetry_equiv_pos_as_xyz
  1  'x, y, z'
loop_
 _atom_site_type_symbol
 _atom_site_label
 _atom_site_symmetry_multiplicity
 _atom_site_fract_x
 _atom_site_fract_y
 _atom_site_fract_z
 _atom_site_occupancy
  Pm  Pm0  1  -0.00000000  -0.00000000  0.50000000  1
  Pm  Pm1  1  0.50000000  -0.00000000  -0.00000000  1
  Pm  Pm2  1  0.50000000  0.50000000  0.00000000  1
  Pm  Pm3  1  -0.00000000  0.50000000  0.50000000  1
  Pm  Pm4  1  0.22949085  0.75000000  0.99033930  1
  Pm  Pm5  1  0.77050915  0.25000000  0.00966070  1
  Pm  Pm6  1  0.27050915  0.25000000  0.49033930  1
  Pm  Pm7  1  0.72949085  0.75000000  0.50966070  1
  Mg  Mg0  1  0.09526801  0.25000000  0.91931108  1
  Mg  Mg1  1  0.90473199  0.75000000  0.08068892  1
  Mg  Mg2  1  0.40473199  0.75000000  0.41931108  1
  Mg  Mg3  1  0.59526801  0.25000000  0.58068892  1
  S  S0  1  0.16965129  0.01580274  0.74176676  1
  S  S1  1  0.83034871  0.98419726  0.25823324  1
  S  S2  1  0.33034871  0.98419726  0.24176676  1
  S  S3  1  0.66965129  0.01580274  0.75823324  1
  S  S4  1  0.66965129  0.48419726  0.75823324  1
  S  S5  1  0.33034871  0.51580274  0.24176676  1
  S  S6  1  0.83034871  0.51580274  0.25823324  1
  S  S7  1  0.16965129  0.48419726  0.74176676  1
  S  S8  1  0.06650460  0.75000000  0.24104336  1
  S  S9  1  0.93349540  0.25000000  0.75895664  1
  S  S10  1  0.43349540  0.25000000  0.74104336  1
  S  S11  1  0.56650460  0.75000000  0.25895664  1
  S  S12  1  0.09085108  0.25000000  0.28145926  1
  S  S13  1  0.90914892  0.75000000  0.71854074  1
  S  S14  1  0.40914892  0.75000000  0.78145926  1
  S  S15  1  0.59085108  0.25000000  0.21854074  1
loop_
_geom_bond_atom_site_label_1
_geom_bond_atom_site_label_2
_geom_bond_distance
_geom_bond_site_symmetry_2
Pm0 S13 2.790796 1_445
Pm0 S12 2.790796 1_555
Pm0 S8 2.811027 1_545
Pm0 S9 2.811027 1_455
Pm0 S1 2.839539 1_445
Pm0 S0 2.839539 1_555
Pm1 S14 2.790796 1_544
Pm1 S15 2.790796 1_555
Pm1 S10 2.811027 1_554
Pm1 S11 2.811027 1_545
Pm1 S2 2.839539 1_545
Pm1 S3 2.839539 1_554
Pm2 S14 2.790796 1_554
Pm2 S15 2.790796 1_555
Pm2 S10 2.811027 1_554
Pm2 S11 2.811027 1_555
Pm2 S5 2.839539 1_555
Pm2 S4 2.839539 1_554
Pm3 S13 2.790796 1_455
Pm3 S12 2.790796 1_555
Pm3 S8 2.811027 1_555
Pm3 S9 2.811027 1_455
Pm3 S6 2.839539 1_455
Pm3 S7 2.839539 1_555
Pm4 S8 2.795732 1_556
Pm4 S7 2.837029 1_555
Pm4 S0 2.837029 1_565
Pm4 S14 2.839899 1_555
Pm4 S5 2.885384 1_556
Pm4 S2 2.885384 1_556
Pm5 S9 2.795732 1_554
Pm5 S1 2.837029 1_545
Pm5 S6 2.837029 1_555
Pm5 S15 2.839899 1_555
Pm5 S4 2.885384 1_554
Pm5 S3 2.885384 1_554
Pm6 S10 2.795732 1_555
Pm6 S2 2.837029 1_545
Pm6 S5 2.837029 1_555
Pm6 S12 2.839899 1_555
Pm6 S0 2.885384 1_555
Pm6 S7 2.885384 1_555
Pm7 S11 2.795732 1_555
Pm7 S4 2.837029 1_555
Pm7 S3 2.837029 1_565
Pm7 S13 2.839899 1_555
Pm7 S6 2.885384 1_555
Pm7 S1 2.885384 1_555
Mg0 S12 2.395844 1_556
Mg0 S0 2.460539 1_555
Mg0 S7 2.460539 1_555
Mg0 S9 2.473164 1_455
Mg1 S13 2.395844 1_554
Mg1 S6 2.460539 1_555
Mg1 S1 2.460539 1_555
Mg1 S8 2.473164 1_655
Mg2 S14 2.395844 1_555
Mg2 S5 2.460539 1_555
Mg2 S2 2.460539 1_555
Mg2 S11 2.473164 1_555
Mg3 S15 2.395844 1_555
Mg3 S3 2.460539 1_555
Mg3 S4 2.460539 1_555
Mg3 S10 2.473164 1_555
