# generated using pymatgen
data_Sr3CaMn2FeO10
_symmetry_space_group_name_H-M   'P 1'
_cell_length_a   14.28364451
_cell_length_b   14.28364451
_cell_length_c   14.28364451
_cell_angle_alpha   164.45550639
_cell_angle_beta   164.45550639
_cell_angle_gamma   22.05172813
_symmetry_Int_Tables_number   1
_chemical_formula_structural   Sr3CaMn2FeO10
_chemical_formula_sum   'Sr3 Ca1 Mn2 Fe1 O10'
_cell_volume   209.25118278
_cell_formula_units_Z   1
loop_
 _symmetry_equiv_pos_site_id
 _symmetry_equiv_pos_as_xyz
  1  'x, y, z'
loop_
 _atom_site_type_symbol
 _atom_site_label
 _atom_site_symmetry_multiplicity
 _atom_site_fract_x
 _atom_site_fract_y
 _atom_site_fract_z
 _atom_site_occupancy
  Sr  Sr0  1  0.29801100  0.29801100  0.00000000  1
  Sr  Sr1  1  0.70130800  0.70130800  0.00000000  1
  Sr  Sr2  1  0.43117700  0.43117700  0.00000000  1
  Ca  Ca0  1  0.56926300  0.56926300  0.00000000  1
  Mn  Mn0  1  0.85965200  0.85965200  0.00000000  1
  Mn  Mn1  1  0.13958700  0.13958700  0.00000000  1
  Fe  Fe0  1  0.00100600  0.00100600  0.00000000  1
  O  O0  1  0.86141400  0.36141400  0.50000000  1
  O  O1  1  0.36141400  0.86141400  0.50000000  1
  O  O2  1  0.13662700  0.63662700  0.50000000  1
  O  O3  1  0.63662700  0.13662700  0.50000000  1
  O  O4  1  0.50210500  0.00210500  0.50000000  1
  O  O5  1  0.00210500  0.50210500  0.50000000  1
  O  O6  1  0.79058900  0.79058900  0.00000000  1
  O  O7  1  0.20843500  0.20843500  0.00000000  1
  O  O8  1  0.93027800  0.93027800  0.00000000  1
  O  O9  1  0.07040500  0.07040500  0.00000000  1
loop_
_geom_bond_atom_site_label_1
_geom_bond_atom_site_label_2
_geom_bond_distance
_geom_bond_site_symmetry_2
Ca0 O4 2.697665 1_565
Ca0 O5 2.697665 1_655
Ca0 O4 2.697665 1_554
Ca0 O5 2.697665 1_554
Ca0 O3 2.701701 1_565
Ca0 O2 2.701701 1_554
Ca0 O3 2.701701 1_554
Ca0 O2 2.701701 1_655
Ca0 O9 2.731965 1_666
Ca0 O9 2.731965 1_655
Ca0 O9 2.731965 1_554
Ca0 O9 2.731965 1_565
Mn0 O0 1.932290 1_565
Mn0 O1 1.932290 1_655
Mn0 O0 1.932290 1_554
Mn0 O1 1.932290 1_554
Mn0 O6 1.936524 1_555
Mn0 O8 1.980350 1_555
Mn1 O7 1.930495 1_555
Mn1 O2 1.933440 1_555
Mn1 O3 1.933440 1_454
Mn1 O2 1.933440 1_544
Mn1 O3 1.933440 1_555
Mn1 O9 1.939861 1_555
Fe0 O4 1.931904 1_454
Fe0 O5 1.931904 1_555
Fe0 O5 1.931904 1_544
Fe0 O4 1.931904 1_555
Fe0 O9 1.945945 1_555
Fe0 O8 1.983211 1_445
O0 Sr0 2.625250 1_555
O0 Sr0 2.625250 1_656
O0 Sr2 2.749151 1_656
O0 Sr2 2.749151 1_555
O1 Sr0 2.625250 1_555
O1 Sr0 2.625250 1_566
O1 Sr2 2.749151 1_566
O1 Sr2 2.749151 1_555
O2 Sr1 2.649649 1_556
O2 Sr1 2.649649 1_455
O3 Sr1 2.649649 1_556
O3 Sr1 2.649649 1_545
O4 Sr2 2.772490 1_556
O4 Sr2 2.772490 1_545
O5 Sr2 2.772490 1_556
O5 Sr2 2.772490 1_455
O6 Sr1 2.503436 1_555
O6 Sr0 2.739693 1_565
O6 Sr0 2.739693 1_666
O6 Sr0 2.739693 1_655
O6 Sr0 2.739693 1_554
O7 Sr0 2.511708 1_555
O7 Sr1 2.739077 1_545
O7 Sr1 2.739077 1_455
O7 Sr1 2.739077 1_556
O7 Sr1 2.739077 1_444
O8 Sr2 2.731893 1_554
O8 Sr2 2.731893 1_565
O8 Sr2 2.731893 1_655
O8 Sr2 2.731893 1_666
