# generated using pymatgen
data_Gd3RuO7
_symmetry_space_group_name_H-M   'P 1'
_cell_length_a   6.44899567
_cell_length_b   6.44899567
_cell_length_c   7.41371047
_cell_angle_alpha   90.00000000
_cell_angle_beta   90.00000000
_cell_angle_gamma   111.17211290
_symmetry_Int_Tables_number   1
_chemical_formula_structural   Gd3RuO7
_chemical_formula_sum   'Gd6 Ru2 O14'
_cell_volume   287.52028689
_cell_formula_units_Z   2
loop_
 _symmetry_equiv_pos_site_id
 _symmetry_equiv_pos_as_xyz
  1  'x, y, z'
loop_
 _atom_site_type_symbol
 _atom_site_label
 _atom_site_symmetry_multiplicity
 _atom_site_fract_x
 _atom_site_fract_y
 _atom_site_fract_z
 _atom_site_occupancy
  Gd  Gd0  1  0.47439901  0.92127348  0.75000000  1
  Gd  Gd1  1  0.52560099  0.07872652  0.25000000  1
  Gd  Gd2  1  0.92127348  0.47439901  0.75000000  1
  Gd  Gd3  1  0.07872652  0.52560099  0.25000000  1
  Gd  Gd4  1  -0.00000000  -0.00000000  0.50000000  1
  Gd  Gd5  1  -0.00000000  -0.00000000  0.00000000  1
  Ru  Ru0  1  0.50000000  0.50000000  0.50000000  1
  Ru  Ru1  1  0.50000000  0.50000000  0.00000000  1
  O  O0  1  0.58700042  0.58700042  0.75000000  1
  O  O1  1  0.41299958  0.41299958  0.25000000  1
  O  O2  1  0.84135212  0.10556786  0.75000000  1
  O  O3  1  0.15864788  0.89443214  0.25000000  1
  O  O4  1  0.10556786  0.84135212  0.75000000  1
  O  O5  1  0.89443214  0.15864788  0.25000000  1
  O  O6  1  0.43905823  0.18488369  0.95962636  1
  O  O7  1  0.56094177  0.81511631  0.45962636  1
  O  O8  1  0.18488369  0.43905823  0.95962636  1
  O  O9  1  0.81511631  0.56094177  0.45962636  1
  O  O10  1  0.43905823  0.18488369  0.54037364  1
  O  O11  1  0.56094177  0.81511631  0.04037364  1
  O  O12  1  0.81511631  0.56094177  0.04037364  1
  O  O13  1  0.18488369  0.43905823  0.54037364  1
loop_
_geom_bond_atom_site_label_1
_geom_bond_atom_site_label_2
_geom_bond_distance
_geom_bond_site_symmetry_2
Gd0 O2 2.231846 1_565
Gd0 O4 2.244501 1_555
Gd0 O6 2.374268 1_565
Gd0 O10 2.374268 1_565
Gd0 O7 2.385475 1_555
Gd0 O11 2.385475 1_556
Gd0 O0 2.511022 1_555
Gd1 O3 2.231846 1_545
Gd1 O5 2.244501 1_555
Gd1 O11 2.374268 1_545
Gd1 O7 2.374268 1_545
Gd1 O10 2.385475 1_555
Gd1 O6 2.385475 1_554
Gd1 O1 2.511022 1_555
Gd2 O4 2.231846 1_655
Gd2 O2 2.244501 1_555
Gd2 O8 2.374268 1_655
Gd2 O13 2.374268 1_655
Gd2 O9 2.385475 1_555
Gd2 O12 2.385475 1_556
Gd2 O0 2.511022 1_555
Gd3 O5 2.231846 1_455
Gd3 O3 2.244501 1_555
Gd3 O12 2.374268 1_455
Gd3 O9 2.374268 1_455
Gd3 O8 2.385475 1_554
Gd3 O13 2.385475 1_555
Gd3 O1 2.511022 1_555
Gd4 O4 2.334226 1_545
Gd4 O5 2.334226 1_455
Gd4 O3 2.334226 1_545
Gd4 O2 2.334226 1_455
Gd4 O9 2.662681 1_445
Gd4 O10 2.662681 1_555
Gd4 O7 2.662681 1_445
Gd4 O13 2.662681 1_555
Gd5 O5 2.334226 1_455
Gd5 O3 2.334226 1_545
Gd5 O2 2.334226 1_454
Gd5 O4 2.334226 1_544
Gd5 O12 2.662681 1_445
Gd5 O11 2.662681 1_445
Gd5 O6 2.662681 1_554
Gd5 O8 2.662681 1_554
O0 Ru0 1.958927 1_555
O0 Ru1 1.958927 1_556
O1 Ru0 1.958927 1_555
O1 Ru1 1.958927 1_555
O6 Ru1 1.948565 1_556
O7 Ru0 1.948565 1_555
O8 Ru1 1.948565 1_556
O9 Ru0 1.948565 1_555
O10 Ru0 1.948565 1_555
O11 Ru1 1.948565 1_555
O12 Ru1 1.948565 1_555
O13 Ru0 1.948565 1_555
