# generated using pymatgen
data_CaNbNO2
_symmetry_space_group_name_H-M   'P 1'
_cell_length_a   5.71508400
_cell_length_b   5.57356600
_cell_length_c   9.69635293
_cell_angle_alpha   55.17622938
_cell_angle_beta   90.00000000
_cell_angle_gamma   90.00000000
_symmetry_Int_Tables_number   1
_chemical_formula_structural   CaNbNO2
_chemical_formula_sum   'Ca4 Nb4 N4 O8'
_cell_volume   253.54846015
_cell_formula_units_Z   4
loop_
 _symmetry_equiv_pos_site_id
 _symmetry_equiv_pos_as_xyz
  1  'x, y, z'
loop_
 _atom_site_type_symbol
 _atom_site_label
 _atom_site_symmetry_multiplicity
 _atom_site_fract_x
 _atom_site_fract_y
 _atom_site_fract_z
 _atom_site_occupancy
  Ca  Ca0  1  0.45533000  0.76627000  0.74688700  1
  Ca  Ca1  1  0.95533000  0.23373000  0.75311300  1
  Ca  Ca2  1  0.54467000  0.23373000  0.25311300  1
  Ca  Ca3  1  0.04467000  0.76627000  0.24688700  1
  Nb  Nb0  1  0.00000000  0.50000000  0.00000000  1
  Nb  Nb1  1  0.50000000  0.50000000  0.50000000  1
  Nb  Nb2  1  0.00000000  0.00000000  0.50000000  1
  Nb  Nb3  1  0.50000000  0.00000000  0.00000000  1
  N  N0  1  0.21212200  0.83398700  0.95547800  1
  N  N1  1  0.71212200  0.16601300  0.54452200  1
  N  N2  1  0.78787800  0.16601300  0.04452200  1
  N  N3  1  0.28787800  0.83398700  0.45547800  1
  O  O0  1  0.02581000  0.65799400  0.75058900  1
  O  O1  1  0.52581000  0.34200600  0.74941100  1
  O  O2  1  0.97419000  0.34200600  0.24941100  1
  O  O3  1  0.47419000  0.65799400  0.25058900  1
  O  O4  1  0.79113000  0.76104000  0.44694500  1
  O  O5  1  0.29113000  0.23896000  0.05305500  1
  O  O6  1  0.20887000  0.23896000  0.55305500  1
  O  O7  1  0.70887000  0.76104000  0.94694500  1
loop_
_geom_bond_atom_site_label_1
_geom_bond_atom_site_label_2
_geom_bond_distance
_geom_bond_site_symmetry_2
Ca0 O1 2.385033 1_555
Ca0 O7 2.408076 1_555
Ca0 N1 2.444375 1_565
Ca0 O0 2.523193 1_555
Ca0 O6 2.608080 1_565
Ca0 N0 2.652748 1_555
Ca0 N3 2.797202 1_555
Ca0 O5 2.892516 1_556
Ca1 O0 2.385033 1_655
Ca1 O6 2.408076 1_655
Ca1 N0 2.444375 1_645
Ca1 O1 2.523193 1_555
Ca1 O7 2.608080 1_545
Ca1 N1 2.652748 1_555
Ca1 N2 2.797202 1_556
Ca1 O4 2.892516 1_555
Ca2 O3 2.385033 1_555
Ca2 O5 2.408076 1_555
Ca2 N3 2.444375 1_545
Ca2 O2 2.523193 1_555
Ca2 O4 2.608080 1_545
Ca2 N2 2.652748 1_555
Ca2 N1 2.797202 1_555
Ca2 O7 2.892516 1_554
Ca3 O2 2.385033 1_455
Ca3 O4 2.408076 1_455
Ca3 N2 2.444375 1_465
Ca3 O3 2.523193 1_555
Ca3 O5 2.608080 1_565
Ca3 N3 2.652748 1_555
Ca3 N0 2.797202 1_554
Ca3 O6 2.892516 1_555
Nb0 O2 2.052684 1_455
Nb0 O0 2.052684 1_554
Nb0 O5 2.072427 1_555
Nb0 O7 2.072427 1_454
Nb1 O3 2.052684 1_555
Nb1 O1 2.052684 1_555
Nb1 O6 2.072427 1_555
Nb1 O4 2.072427 1_555
Nb2 O6 2.060575 1_555
Nb2 O4 2.060575 1_445
Nb2 O0 2.066250 1_545
Nb2 O2 2.066250 1_455
Nb3 O7 2.060575 1_544
Nb3 O5 2.060575 1_555
Nb3 O1 2.066250 1_554
Nb3 O3 2.066250 1_545
N0 Nb0 2.050217 1_556
N0 Nb3 2.050748 1_566
N1 Nb1 2.050217 1_555
N1 Nb2 2.050748 1_655
N2 Nb0 2.050217 1_655
N2 Nb3 2.050748 1_555
N3 Nb1 2.050217 1_555
N3 Nb2 2.050748 1_565
