# generated using pymatgen
data_CuH6SO7
_symmetry_space_group_name_H-M   'P 1'
_cell_length_a   7.28355977
_cell_length_b   7.28355977
_cell_length_c   7.32011895
_cell_angle_alpha   87.66056123
_cell_angle_beta   87.66056123
_cell_angle_gamma   134.75863630
_symmetry_Int_Tables_number   1
_chemical_formula_structural   CuH6SO7
_chemical_formula_sum   'Cu2 H12 S2 O14'
_cell_volume   274.19070754
_cell_formula_units_Z   2
loop_
 _symmetry_equiv_pos_site_id
 _symmetry_equiv_pos_as_xyz
  1  'x, y, z'
loop_
 _atom_site_type_symbol
 _atom_site_label
 _atom_site_symmetry_multiplicity
 _atom_site_fract_x
 _atom_site_fract_y
 _atom_site_fract_z
 _atom_site_occupancy
  Cu  Cu0  1  0.86528000  0.13608800  0.00649200  1
  Cu  Cu1  1  0.13608800  0.86528000  0.50649200  1
  H  H0  1  0.96225100  0.18433600  0.65019700  1
  H  H1  1  0.18433600  0.96225100  0.15019700  1
  H  H2  1  0.03723000  0.43671700  0.72145600  1
  H  H3  1  0.43671700  0.03723000  0.22145600  1
  H  H4  1  0.43808900  0.26974500  0.70873600  1
  H  H5  1  0.26974500  0.43808900  0.20873600  1
  H  H6  1  0.40990300  0.34918600  0.51176100  1
  H  H7  1  0.34918600  0.40990300  0.01176100  1
  H  H8  1  0.39381300  0.73289300  0.98290100  1
  H  H9  1  0.73289300  0.39381300  0.48290100  1
  H  H10  1  0.51648400  0.89146900  0.78076400  1
  H  H11  1  0.89146900  0.51648400  0.28076400  1
  S  S0  1  0.84650500  0.61758500  0.92583700  1
  S  S1  1  0.61758500  0.84650500  0.42583700  1
  O  O0  1  0.00401300  0.66861600  0.75302700  1
  O  O1  1  0.66861600  0.00401300  0.25302700  1
  O  O2  1  0.47742100  0.86627100  0.56283800  1
  O  O3  1  0.86627100  0.47742100  0.06283800  1
  O  O4  1  0.57338300  0.45564600  0.88457400  1
  O  O5  1  0.45564600  0.57338300  0.38457400  1
  O  O6  1  0.86506900  0.95745400  0.49291900  1
  O  O7  1  0.95745400  0.86506900  0.99291900  1
  O  O8  1  0.03339900  0.29987500  0.75102400  1
  O  O9  1  0.29987500  0.03339900  0.25102400  1
  O  O10  1  0.40888600  0.22457400  0.57884400  1
  O  O11  1  0.22457400  0.40888600  0.07884400  1
  O  O12  1  0.52204500  0.90977300  0.91663000  1
  O  O13  1  0.90977300  0.52204500  0.41663000  1
loop_
_geom_bond_atom_site_label_1
_geom_bond_atom_site_label_2
_geom_bond_distance
_geom_bond_site_symmetry_2
Cu0 O12 1.954293 1_544
Cu0 O1 1.985137 1_555
Cu0 O11 1.988322 1_655
Cu0 O8 1.998363 1_654
Cu0 O7 2.496804 1_544
Cu0 O3 2.531729 1_555
Cu1 O13 1.954293 1_455
Cu1 O0 1.985137 1_555
Cu1 O10 1.988322 1_565
Cu1 O9 1.998363 1_565
Cu1 O6 2.496804 1_455
Cu1 O2 2.531729 1_555
H0 O8 0.994621 1_655
H1 O9 0.994621 1_565
H2 O8 0.991847 1_555
H3 O9 0.991847 1_555
H4 O10 1.000528 1_555
H4 O4 1.681677 1_555
H5 O11 1.000528 1_555
H5 O5 1.681677 1_555
H6 O10 1.009362 1_555
H6 O5 1.651890 1_555
H7 O11 1.009362 1_555
H7 O4 1.651890 1_554
H8 O12 0.992428 1_555
H9 O13 0.992428 1_555
H10 O12 1.007504 1_555
H10 O2 1.626917 1_555
H11 O13 1.007504 1_555
H11 O3 1.626917 1_555
O0 S0 1.515624 1_455
O1 S1 1.515624 1_545
O2 S1 1.484542 1_555
O3 S0 1.484542 1_554
O4 S0 1.487830 1_555
O5 S1 1.487830 1_555
O6 S1 1.482136 1_555
O7 S0 1.482136 1_555
