# generated using pymatgen
data_Li9Mn2Co5O16
_symmetry_space_group_name_H-M   'P 1'
_cell_length_a   2.97999800
_cell_length_b   10.02132150
_cell_length_c   10.72831968
_cell_angle_alpha   114.74386771
_cell_angle_beta   96.19967438
_cell_angle_gamma   91.37664498
_symmetry_Int_Tables_number   1
_chemical_formula_structural   Li9Mn2Co5O16
_chemical_formula_sum   'Li9 Mn2 Co5 O16'
_cell_volume   288.41688813
_cell_formula_units_Z   1
loop_
 _symmetry_equiv_pos_site_id
 _symmetry_equiv_pos_as_xyz
  1  'x, y, z'
loop_
 _atom_site_type_symbol
 _atom_site_label
 _atom_site_symmetry_multiplicity
 _atom_site_fract_x
 _atom_site_fract_y
 _atom_site_fract_z
 _atom_site_occupancy
  Li  Li0  1  0.13415200  0.94674700  0.26107300  1
  Li  Li1  1  0.86587000  0.05880800  0.74659700  1
  Li  Li2  1  0.64334000  0.18369100  0.25788400  1
  Li  Li3  1  0.62441900  0.68982700  0.25287900  1
  Li  Li4  1  0.37006000  0.81095400  0.74697400  1
  Li  Li5  1  0.11388900  0.43768400  0.24551900  1
  Li  Li6  1  0.87111800  0.56513100  0.74968100  1
  Li  Li7  1  0.38289500  0.30603400  0.74568200  1
  Li  Li8  1  0.73204800  0.12231000  0.49040200  1
  Mn  Mn0  1  0.00177100  0.00008400  0.00114400  1
  Mn  Mn1  1  0.25827000  0.36991000  0.49991500  1
  Co  Co0  1  0.49706600  0.25117300  0.99868300  1
  Co  Co1  1  0.99849500  0.50015800  0.99909200  1
  Co  Co2  1  0.76243700  0.62792400  0.50302400  1
  Co  Co3  1  0.50290500  0.74830700  0.00102800  1
  Co  Co4  1  0.24183500  0.88425300  0.50069600  1
  O  O0  1  0.60234600  0.95907200  0.11829900  1
  O  O1  1  0.30565900  0.06951400  0.61497600  1
  O  O2  1  0.04454700  0.21403200  0.11291600  1
  O  O3  1  0.04993300  0.70893500  0.11461300  1
  O  O4  1  0.82941300  0.83428300  0.61050600  1
  O  O5  1  0.54869300  0.46233500  0.11655500  1
  O  O6  1  0.34768500  0.58855400  0.61296900  1
  O  O7  1  0.79823800  0.34854600  0.60920500  1
  O  O8  1  0.64935900  0.90049600  0.38536200  1
  O  O9  1  0.40031700  0.03959700  0.88311100  1
  O  O10  1  0.18927100  0.17391400  0.38177900  1
  O  O11  1  0.16662800  0.66879200  0.39249900  1
  O  O12  1  0.95626600  0.78750900  0.88575100  1
  O  O13  1  0.72038400  0.41479100  0.39556100  1
  O  O14  1  0.44873400  0.53732800  0.88379600  1
  O  O15  1  0.94195600  0.28930700  0.88182900  1
loop_
_geom_bond_atom_site_label_1
_geom_bond_atom_site_label_2
_geom_bond_distance
_geom_bond_site_symmetry_2
Li0 O10 2.086786 1_565
Li0 O8 2.111730 1_555
Li0 O0 2.125194 1_455
Li0 O0 2.218050 1_555
Li0 O3 2.227741 1_555
Li0 O8 2.231857 1_455
Li1 O1 2.059813 1_655
Li1 O4 2.100022 1_545
Li1 O1 2.102075 1_555
Li1 O9 2.113178 1_655
Li1 O15 2.142500 1_555
Li1 O9 2.183759 1_555
Li2 O10 2.018087 1_655
Li2 O10 2.024449 1_555
Li2 O0 2.109457 1_545
Li2 O13 2.153026 1_555
Li2 O2 2.172732 1_655
Li2 O2 2.349023 1_555
Li3 O8 1.985063 1_555
Li3 O3 2.115965 1_655
Li3 O5 2.121343 1_555
Li3 O11 2.157962 1_655
Li3 O11 2.200240 1_555
Li3 O3 2.207465 1_555
Li4 O6 2.080493 1_555
Li4 O12 2.113728 1_455
Li4 O9 2.133430 1_565
Li4 O4 2.142207 1_455
Li4 O4 2.185405 1_555
Li4 O12 2.252619 1_555
Li5 O5 2.076561 1_555
Li5 O2 2.082063 1_555
Li5 O5 2.148229 1_455
Li5 O13 2.173194 1_455
Li5 O11 2.178727 1_555
Li5 O13 2.368752 1_555
Li6 O7 2.048839 1_555
Li6 O12 2.081155 1_555
Li6 O14 2.107630 1_555
Li6 O6 2.109741 1_555
Li6 O14 2.221357 1_655
Li6 O6 2.223788 1_655
Li7 O15 2.120622 1_455
Li7 O15 2.151717 1_555
Li7 O14 2.155651 1_555
Li7 O7 2.178418 1_555
Li7 O1 2.181532 1_555
Li7 O7 2.316825 1_455
Li8 O8 2.022009 1_545
Li8 O10 2.072560 1_655
Li8 O7 2.075749 1_555
Li8 O10 2.092664 1_555
Li8 O1 2.146398 1_555
Li8 O1 2.264942 1_655
Mn0 O12 1.957354 1_444
Mn0 O2 1.962827 1_555
Mn0 O9 1.973027 1_554
Mn0 O0 1.974206 1_445
Mn0 O0 2.221182 1_545
Mn0 O9 2.221800 1_454
Mn1 O10 1.829436 1_555
Mn1 O7 1.956783 1_555
Mn1 O7 1.960395 1_455
Mn1 O6 2.005106 1_555
Mn1 O13 2.019114 1_555
Mn1 O13 2.023245 1_455
Co0 O5 1.950123 1_556
Co0 O9 1.951589 1_555
Co0 O2 2.042939 1_556
Co0 O15 2.052080 1_555
Co0 O2 2.069153 1_656
Co0 O15 2.106573 1_455
Co1 O3 1.926076 1_656
Co1 O15 1.946194 1_555
Co1 O14 2.046726 1_655
Co1 O5 2.066084 1_556
Co1 O14 2.080883 1_555
Co1 O5 2.098434 1_656
Co2 O4 1.892171 1_555
Co2 O11 1.927647 1_655
Co2 O6 1.937926 1_555
Co2 O13 1.949717 1_555
Co2 O6 2.137037 1_655
Co2 O11 2.170924 1_555
Co3 O14 1.947255 1_554
Co3 O0 1.948516 1_555
Co3 O3 2.048144 1_555
Co3 O12 2.061838 1_554
Co3 O3 2.074202 1_655
Co3 O12 2.083209 1_454
Co4 O1 1.735899 1_565
Co4 O8 1.875096 1_555
Co4 O11 1.970335 1_555
Co4 O4 1.981443 1_455
Co4 O8 2.094119 1_455
Co4 O4 2.189752 1_555
