# generated using pymatgen
data_V2Zn(CuO4)2
_symmetry_space_group_name_H-M   'P 1'
_cell_length_a   8.42366800
_cell_length_b   6.51215000
_cell_length_c   11.83114630
_cell_angle_alpha   89.49184887
_cell_angle_beta   90.00000000
_cell_angle_gamma   90.00000000
_symmetry_Int_Tables_number   1
_chemical_formula_structural   V2Zn(CuO4)2
_chemical_formula_sum   'V8 Zn4 Cu8 O32'
_cell_volume   648.98607963
_cell_formula_units_Z   4
loop_
 _symmetry_equiv_pos_site_id
 _symmetry_equiv_pos_as_xyz
  1  'x, y, z'
loop_
 _atom_site_type_symbol
 _atom_site_label
 _atom_site_symmetry_multiplicity
 _atom_site_fract_x
 _atom_site_fract_y
 _atom_site_fract_z
 _atom_site_occupancy
  V  V0  1  0.54083300  0.89806700  0.84500600  1
  V  V1  1  0.95916700  0.89806700  0.34500600  1
  V  V2  1  0.91203600  0.39207400  0.13415700  1
  V  V3  1  0.04083300  0.10193300  0.65499400  1
  V  V4  1  0.08796400  0.60792600  0.86584300  1
  V  V5  1  0.41203600  0.60792600  0.36584300  1
  V  V6  1  0.58796400  0.39207400  0.63415700  1
  V  V7  1  0.45916700  0.10193300  0.15499400  1
  Zn  Zn0  1  0.83394800  0.89130500  0.05210500  1
  Zn  Zn1  1  0.16605200  0.10869500  0.94789500  1
  Zn  Zn2  1  0.33394800  0.10869500  0.44789500  1
  Zn  Zn3  1  0.66605200  0.89130500  0.55210500  1
  Cu  Cu0  1  0.81591100  0.23592200  0.87254700  1
  Cu  Cu1  1  0.94199700  0.62033800  0.62990500  1
  Cu  Cu2  1  0.05800300  0.37966200  0.37009500  1
  Cu  Cu3  1  0.18408900  0.76407800  0.12745300  1
  Cu  Cu4  1  0.68408900  0.23592200  0.37254700  1
  Cu  Cu5  1  0.55800300  0.62033800  0.12990500  1
  Cu  Cu6  1  0.31591100  0.76407800  0.62745300  1
  Cu  Cu7  1  0.44199700  0.37966200  0.87009500  1
  O  O0  1  0.76638600  0.96385300  0.39608500  1
  O  O1  1  0.98674200  0.33679800  0.59910600  1
  O  O2  1  0.41928200  0.80794300  0.46981200  1
  O  O3  1  0.91928200  0.19205700  0.03018800  1
  O  O4  1  0.73361400  0.96385300  0.89608500  1
  O  O5  1  0.23361400  0.03614700  0.60391500  1
  O  O6  1  0.89704100  0.91359200  0.61684700  1
  O  O7  1  0.09670300  0.49502300  0.13897900  1
  O  O8  1  0.40329700  0.49502300  0.63897900  1
  O  O9  1  0.13184300  0.68466500  0.72368100  1
  O  O10  1  0.63184300  0.31533500  0.77631900  1
  O  O11  1  0.90329700  0.50497700  0.86102100  1
  O  O12  1  0.10295900  0.08640800  0.38315300  1
  O  O13  1  0.46138900  0.11971900  0.30002300  1
  O  O14  1  0.71967200  0.58164100  0.58740600  1
  O  O15  1  0.78032800  0.58164100  0.08740600  1
  O  O16  1  0.96138900  0.88028100  0.19997700  1
  O  O17  1  0.59670300  0.50497700  0.36102100  1
  O  O18  1  0.53861100  0.88028100  0.69997700  1
  O  O19  1  0.58071800  0.19205700  0.53018800  1
  O  O20  1  0.51325800  0.33679800  0.09910600  1
  O  O21  1  0.86815700  0.31533500  0.27631900  1
  O  O22  1  0.26638600  0.03614700  0.10391500  1
  O  O23  1  0.60295900  0.91359200  0.11684700  1
  O  O24  1  0.08071800  0.80794300  0.96981200  1
  O  O25  1  0.21967200  0.41835900  0.91259400  1
  O  O26  1  0.01325800  0.66320200  0.40089400  1
  O  O27  1  0.48674200  0.66320200  0.90089400  1
  O  O28  1  0.39704100  0.08640800  0.88315300  1
  O  O29  1  0.28032800  0.41835900  0.41259400  1
  O  O30  1  0.36815700  0.68466500  0.22368100  1
  O  O31  1  0.03861100  0.11971900  0.80002300  1
loop_
_geom_bond_atom_site_label_1
_geom_bond_atom_site_label_2
_geom_bond_distance
_geom_bond_site_symmetry_2
Cu0 O11 1.904249 1_555
Cu0 O4 1.920546 1_545
Cu0 O10 1.989294 1_555
Cu0 O3 2.075784 1_556
Cu0 O31 2.199906 1_655
Cu1 O1 1.922544 1_555
Cu1 O6 1.951679 1_555
Cu1 O14 1.955996 1_555
Cu1 O9 1.993015 1_655
Cu2 O26 1.922544 1_555
Cu2 O12 1.951679 1_555
Cu2 O29 1.955996 1_555
Cu2 O21 1.993015 1_455
Cu3 O7 1.904249 1_555
Cu3 O22 1.920546 1_565
Cu3 O30 1.989294 1_555
Cu3 O24 2.075784 1_554
Cu3 O16 2.199906 1_455
Cu4 O17 1.904249 1_555
Cu4 O0 1.920546 1_545
Cu4 O21 1.989294 1_555
Cu4 O19 2.075784 1_555
Cu4 O13 2.199906 1_555
Cu5 O20 1.922544 1_555
Cu5 O23 1.951679 1_555
Cu5 O15 1.955996 1_555
Cu5 O30 1.993015 1_555
Cu6 O8 1.904249 1_555
Cu6 O5 1.920546 1_565
Cu6 O9 1.989294 1_555
Cu6 O2 2.075784 1_555
Cu6 O18 2.199906 1_555
Cu7 O27 1.922544 1_555
Cu7 O28 1.951679 1_555
Cu7 O25 1.955996 1_555
Cu7 O10 1.993015 1_555
O0 V1 1.786186 1_555
O0 Zn3 2.080720 1_555
O1 V3 1.722261 1_655
O2 V5 1.800510 1_555
O2 Zn2 2.100197 1_565
O2 Zn3 2.360730 1_555
O3 V2 1.800510 1_555
O3 Zn0 2.100197 1_545
O3 Zn1 2.360730 1_654
O4 V0 1.786186 1_555
O4 Zn0 2.080720 1_556
O5 V3 1.786186 1_555
O5 Zn2 2.080720 1_555
O6 V3 1.784647 1_665
O6 Zn3 2.096614 1_555
O7 V2 1.695053 1_455
O8 V6 1.695053 1_555
O9 V4 1.788957 1_555
O10 V6 1.788957 1_555
O11 V4 1.695053 1_655
O12 V1 1.784647 1_445
O12 Zn2 2.096614 1_555
O13 V7 1.720891 1_555
O13 Zn2 2.053316 1_555
O14 V6 1.746053 1_555
O14 Zn3 2.104779 1_555
O15 V2 1.746053 1_555
O15 Zn0 2.104779 1_555
O16 V1 1.720891 1_555
O16 Zn0 2.053316 1_555
O17 V5 1.695053 1_555
O18 V0 1.720891 1_555
O18 Zn3 2.053316 1_555
O19 V6 1.800510 1_555
O19 Zn3 2.100197 1_545
O19 Zn2 2.360730 1_555
O20 V7 1.722261 1_555
O21 V2 1.788957 1_555
O22 V7 1.786186 1_555
O22 Zn1 2.080720 1_554
O23 V7 1.784647 1_565
O23 Zn0 2.096614 1_555
O24 V4 1.800510 1_555
O24 Zn1 2.100197 1_565
O24 Zn0 2.360730 1_456
O25 V4 1.746053 1_555
O25 Zn1 2.104779 1_555
O26 V1 1.722261 1_455
O27 V0 1.722261 1_555
O28 V0 1.784647 1_545
O28 Zn1 2.096614 1_555
O29 V5 1.746053 1_555
O29 Zn2 2.104779 1_555
O30 V5 1.788957 1_555
O31 V3 1.720891 1_555
O31 Zn1 2.053316 1_555
