# generated using pymatgen
data_VPS3
_symmetry_space_group_name_H-M   'P 1'
_cell_length_a   5.93358800
_cell_length_b   5.94692723
_cell_length_c   6.92239167
_cell_angle_alpha   81.80297828
_cell_angle_beta   73.39356350
_cell_angle_gamma   60.07417163
_symmetry_Int_Tables_number   1
_chemical_formula_structural   VPS3
_chemical_formula_sum   'V2 P2 S6'
_cell_volume   202.87012210
_cell_formula_units_Z   2
loop_
 _symmetry_equiv_pos_site_id
 _symmetry_equiv_pos_as_xyz
  1  'x, y, z'
loop_
 _atom_site_type_symbol
 _atom_site_label
 _atom_site_symmetry_multiplicity
 _atom_site_fract_x
 _atom_site_fract_y
 _atom_site_fract_z
 _atom_site_occupancy
  V  V0  1  0.66857900  0.66284200  0.00000000  1
  V  V1  1  0.33142100  0.33715800  0.00000000  1
  P  P0  1  0.94504500  0.00000000  0.16368700  1
  P  P1  1  0.05495500  0.00000000  0.83631300  1
  S  S0  1  0.26248200  0.00000000  0.23354900  1
  S  S1  1  0.73751800  0.00000000  0.76645100  1
  S  S2  1  0.58157100  0.34001200  0.23431900  1
  S  S3  1  0.92158300  0.65998800  0.23431900  1
  S  S4  1  0.41842900  0.65998800  0.76568100  1
  S  S5  1  0.07841700  0.34001200  0.76568100  1
loop_
_geom_bond_atom_site_label_1
_geom_bond_atom_site_label_2
_geom_bond_distance
_geom_bond_site_symmetry_2
P0 S0 2.074191 1_655
P0 S2 2.075349 1_555
P0 S3 2.075349 1_545
P0 P1 2.171693 1_654
P1 S1 2.074191 1_455
P1 S4 2.075349 1_545
P1 S5 2.075349 1_555
S0 V1 2.513427 1_555
S0 V0 2.513427 1_545
S1 V1 2.513427 1_556
S1 V0 2.513427 1_546
S2 V0 2.491117 1_555
S2 V1 2.498715 1_555
S3 V1 2.491117 1_655
S3 V0 2.498715 1_555
S4 V1 2.491117 1_556
S4 V0 2.498715 1_556
S5 V0 2.491117 1_456
S5 V1 2.498715 1_556
