# generated using pymatgen
data_ZnBiF5
_symmetry_space_group_name_H-M   'P 1'
_cell_length_a   5.79032337
_cell_length_b   5.79032337
_cell_length_c   8.59779966
_cell_angle_alpha   67.71082361
_cell_angle_beta   67.71082361
_cell_angle_gamma   72.04167211
_symmetry_Int_Tables_number   1
_chemical_formula_structural   ZnBiF5
_chemical_formula_sum   'Zn2 Bi2 F10'
_cell_volume   242.20060461
_cell_formula_units_Z   2
loop_
 _symmetry_equiv_pos_site_id
 _symmetry_equiv_pos_as_xyz
  1  'x, y, z'
loop_
 _atom_site_type_symbol
 _atom_site_label
 _atom_site_symmetry_multiplicity
 _atom_site_fract_x
 _atom_site_fract_y
 _atom_site_fract_z
 _atom_site_occupancy
  Zn  Zn0  1  0.50811500  0.49188500  0.25000000  1
  Zn  Zn1  1  0.49188500  0.50811500  0.75000000  1
  Bi  Bi0  1  0.00000000  0.00000000  0.50000000  1
  Bi  Bi1  1  0.00000000  0.00000000  0.00000000  1
  F  F0  1  0.13957900  0.86042100  0.75000000  1
  F  F1  1  0.86042100  0.13957900  0.25000000  1
  F  F2  1  0.21272300  0.32670200  0.85303800  1
  F  F3  1  0.67329800  0.78727700  0.64696200  1
  F  F4  1  0.71524800  0.33539700  0.56457200  1
  F  F5  1  0.66460300  0.28475200  0.93542800  1
  F  F6  1  0.28475200  0.66460300  0.43542800  1
  F  F7  1  0.33539700  0.71524800  0.06457200  1
  F  F8  1  0.32670200  0.21272300  0.35303800  1
  F  F9  1  0.78727700  0.67329800  0.14696200  1
loop_
_geom_bond_atom_site_label_1
_geom_bond_atom_site_label_2
_geom_bond_distance
_geom_bond_site_symmetry_2
Bi0 F4 2.224254 1_455
Bi0 F6 2.224254 1_545
Bi0 F8 2.266138 1_555
Bi0 F3 2.266138 1_445
Bi0 F1 2.350263 1_455
Bi0 F0 2.350263 1_545
Bi1 F5 2.224254 1_454
Bi1 F7 2.224254 1_545
Bi1 F2 2.266138 1_554
Bi1 F9 2.266138 1_445
Bi1 F1 2.350263 1_455
Bi1 F0 2.350263 1_544
F0 Zn1 2.399324 1_555
F1 Zn0 2.399324 1_555
F2 Zn1 1.938040 1_555
F3 Zn1 1.938040 1_555
F4 Zn1 2.015532 1_555
F5 Zn1 2.015532 1_555
F6 Zn0 2.015532 1_555
F7 Zn0 2.015532 1_555
F8 Zn0 1.938040 1_555
F9 Zn0 1.938040 1_555
