# generated using pymatgen
data_LuNiPb
_symmetry_space_group_name_H-M   'P 1'
_cell_length_a   7.36751484
_cell_length_b   7.36751365
_cell_length_c   3.78321071
_cell_angle_alpha   90.00000000
_cell_angle_beta   90.00000000
_cell_angle_gamma   119.99999621
_symmetry_Int_Tables_number   1
_chemical_formula_structural   LuNiPb
_chemical_formula_sum   'Lu3 Ni3 Pb3'
_cell_volume   177.84151404
_cell_formula_units_Z   3
loop_
 _symmetry_equiv_pos_site_id
 _symmetry_equiv_pos_as_xyz
  1  'x, y, z'
loop_
 _atom_site_type_symbol
 _atom_site_label
 _atom_site_symmetry_multiplicity
 _atom_site_fract_x
 _atom_site_fract_y
 _atom_site_fract_z
 _atom_site_occupancy
  Lu  Lu0  1  0.59832802  -0.00000000  0.50000000  1
  Lu  Lu1  1  0.40167198  0.40167198  0.50000000  1
  Lu  Lu2  1  0.00000000  0.59832802  0.50000000  1
  Ni  Ni0  1  0.33333300  0.66666700  -0.00000000  1
  Ni  Ni1  1  0.66666700  0.33333300  -0.00000000  1
  Ni  Ni2  1  0.00000000  0.00000000  0.50000000  1
  Pb  Pb0  1  0.26654351  0.00000000  0.00000000  1
  Pb  Pb1  1  0.73345649  0.73345649  0.00000000  1
  Pb  Pb2  1  -0.00000000  0.26654351  -0.00000000  1
loop_
_geom_bond_atom_site_label_1
_geom_bond_atom_site_label_2
_geom_bond_distance
_geom_bond_site_symmetry_2
Lu0 Ni1 2.937059 1_555
Lu0 Ni1 2.937059 1_556
Lu0 Ni0 2.937061 1_546
Lu0 Ni0 2.937061 1_545
Lu0 Ni2 2.959324 1_655
Lu0 Pb0 3.090857 1_555
Lu0 Pb0 3.090857 1_556
Lu0 Pb1 3.221913 1_546
Lu0 Pb1 3.221913 1_545
Lu0 Pb2 3.221913 1_655
Lu0 Pb2 3.221913 1_656
Lu1 Ni0 2.937064 1_555
Lu1 Ni0 2.937064 1_556
Lu1 Ni1 2.937065 1_555
Lu1 Ni1 2.937065 1_556
Lu1 Ni2 2.959324 1_555
Lu1 Pb1 3.090857 1_556
Lu1 Pb1 3.090857 1_555
Lu1 Pb0 3.221913 1_556
Lu1 Pb0 3.221913 1_555
Lu1 Pb2 3.221913 1_555
Lu1 Pb2 3.221913 1_556
Lu2 Ni0 2.937059 1_555
Lu2 Ni0 2.937059 1_556
Lu2 Ni1 2.937061 1_456
Lu2 Ni1 2.937061 1_455
Lu2 Ni2 2.959324 1_565
Lu2 Pb2 3.090856 1_556
Lu2 Pb2 3.090856 1_555
Lu2 Pb0 3.221913 1_566
Lu2 Pb0 3.221913 1_565
Lu2 Pb1 3.221913 1_456
Lu2 Pb1 3.221913 1_455
Ni0 Pb0 2.735272 1_565
Ni0 Pb2 2.735277 1_555
Ni0 Pb1 2.735280 1_555
Ni1 Pb2 2.735272 1_655
Ni1 Pb0 2.735277 1_555
Ni1 Pb1 2.735279 1_555
Ni2 Pb2 2.726635 1_556
Ni2 Pb2 2.726635 1_555
Ni2 Pb1 2.726635 1_446
Ni2 Pb1 2.726635 1_445
Ni2 Pb0 2.726635 1_556
Ni2 Pb0 2.726635 1_555
