# generated using pymatgen
data_Ti5CuSb3
_symmetry_space_group_name_H-M   'P 1'
_cell_length_a   8.15348040
_cell_length_b   8.15348040
_cell_length_c   5.47802548
_cell_angle_alpha   90.00000000
_cell_angle_beta   90.00000000
_cell_angle_gamma   120.00000488
_symmetry_Int_Tables_number   1
_chemical_formula_structural   Ti5CuSb3
_chemical_formula_sum   'Ti10 Cu2 Sb6'
_cell_volume   315.38477304
_cell_formula_units_Z   2
loop_
 _symmetry_equiv_pos_site_id
 _symmetry_equiv_pos_as_xyz
  1  'x, y, z'
loop_
 _atom_site_type_symbol
 _atom_site_label
 _atom_site_symmetry_multiplicity
 _atom_site_fract_x
 _atom_site_fract_y
 _atom_site_fract_z
 _atom_site_occupancy
  Ti  Ti0  1  0.66666700  0.33333300  0.50000000  1
  Ti  Ti1  1  0.33333300  0.66666700  0.50000000  1
  Ti  Ti2  1  0.33333300  0.66666700  0.00000000  1
  Ti  Ti3  1  0.66666700  0.33333300  0.00000000  1
  Ti  Ti4  1  0.73332355  0.73332355  0.25000000  1
  Ti  Ti5  1  0.26667645  0.00000000  0.25000000  1
  Ti  Ti6  1  0.00000000  0.26667645  0.25000000  1
  Ti  Ti7  1  0.26667645  0.26667645  0.75000000  1
  Ti  Ti8  1  0.73332355  -0.00000000  0.75000000  1
  Ti  Ti9  1  -0.00000000  0.73332355  0.75000000  1
  Cu  Cu0  1  -0.00000000  -0.00000000  0.00000000  1
  Cu  Cu1  1  -0.00000000  -0.00000000  0.50000000  1
  Sb  Sb0  1  0.38336211  0.38336211  0.25000000  1
  Sb  Sb1  1  0.61663789  -0.00000000  0.25000000  1
  Sb  Sb2  1  -0.00000000  0.61663789  0.25000000  1
  Sb  Sb3  1  0.61663789  0.61663789  0.75000000  1
  Sb  Sb4  1  0.38336211  0.00000000  0.75000000  1
  Sb  Sb5  1  0.00000000  0.38336211  0.75000000  1
loop_
_geom_bond_atom_site_label_1
_geom_bond_atom_site_label_2
_geom_bond_distance
_geom_bond_site_symmetry_2
Ti0 Ti3 2.739013 1_556
Ti0 Ti3 2.739013 1_555
Ti1 Ti2 2.739013 1_555
Ti1 Ti2 2.739013 1_556
Cu0 Ti4 2.569690 1_445
Cu0 Ti7 2.569690 1_554
Cu0 Ti8 2.569690 1_454
Cu0 Ti9 2.569690 1_544
Cu0 Ti5 2.569690 1_555
Cu0 Ti6 2.569690 1_555
Cu1 Ti4 2.569690 1_445
Cu1 Ti7 2.569690 1_555
Cu1 Ti5 2.569690 1_555
Cu1 Ti6 2.569690 1_555
Cu1 Ti9 2.569690 1_545
Cu1 Ti8 2.569690 1_455
Sb0 Ti6 2.775170 1_555
Sb0 Ti5 2.775170 1_555
Sb0 Ti4 2.853404 1_555
Sb0 Ti2 2.884427 1_555
Sb0 Ti1 2.884427 1_555
Sb0 Ti0 2.884427 1_555
Sb0 Ti3 2.884427 1_555
Sb0 Ti7 2.899542 1_554
Sb0 Ti7 2.899542 1_555
Sb1 Ti6 2.775169 1_655
Sb1 Ti4 2.775170 1_545
Sb1 Ti5 2.853404 1_555
Sb1 Ti0 2.884419 1_555
Sb1 Ti3 2.884419 1_555
Sb1 Ti2 2.884422 1_545
Sb1 Ti1 2.884422 1_545
Sb1 Ti8 2.899542 1_555
Sb1 Ti8 2.899542 1_554
Sb2 Ti5 2.775169 1_565
Sb2 Ti4 2.775170 1_455
Sb2 Ti6 2.853404 1_555
Sb2 Ti2 2.884419 1_555
Sb2 Ti1 2.884419 1_555
Sb2 Ti0 2.884422 1_455
Sb2 Ti3 2.884422 1_455
Sb2 Ti9 2.899542 1_554
Sb2 Ti9 2.899542 1_555
Sb3 Ti9 2.775170 1_655
Sb3 Ti8 2.775170 1_565
Sb3 Ti7 2.853404 1_555
Sb3 Ti0 2.884427 1_555
Sb3 Ti3 2.884427 1_556
Sb3 Ti1 2.884427 1_555
Sb3 Ti2 2.884427 1_556
Sb3 Ti4 2.899542 1_556
Sb3 Ti4 2.899542 1_555
Sb4 Ti9 2.775169 1_545
Sb4 Ti7 2.775170 1_555
Sb4 Ti8 2.853404 1_555
Sb4 Ti2 2.884419 1_546
Sb4 Ti1 2.884419 1_545
Sb4 Ti0 2.884422 1_555
Sb4 Ti3 2.884422 1_556
Sb4 Ti5 2.899542 1_555
Sb4 Ti5 2.899542 1_556
Sb5 Ti8 2.775169 1_455
Sb5 Ti7 2.775170 1_555
Sb5 Ti9 2.853404 1_555
Sb5 Ti3 2.884419 1_456
Sb5 Ti0 2.884419 1_455
Sb5 Ti1 2.884422 1_555
Sb5 Ti2 2.884422 1_556
Sb5 Ti6 2.899542 1_556
Sb5 Ti6 2.899542 1_555
