# generated using pymatgen
data_Li2CrO3
_symmetry_space_group_name_H-M   'P 1'
_cell_length_a   2.92176089
_cell_length_b   9.78093087
_cell_length_c   7.65544988
_cell_angle_alpha   85.17716792
_cell_angle_beta   79.35011903
_cell_angle_gamma   81.23362085
_symmetry_Int_Tables_number   1
_chemical_formula_structural   Li2CrO3
_chemical_formula_sum   'Li8 Cr4 O12'
_cell_volume   212.14149447
_cell_formula_units_Z   4
loop_
 _symmetry_equiv_pos_site_id
 _symmetry_equiv_pos_as_xyz
  1  'x, y, z'
loop_
 _atom_site_type_symbol
 _atom_site_label
 _atom_site_symmetry_multiplicity
 _atom_site_fract_x
 _atom_site_fract_y
 _atom_site_fract_z
 _atom_site_occupancy
  Li  Li0  1  0.33301800  0.00013300  0.33333800  1
  Li  Li1  1  0.33485600  0.49979000  0.83342500  1
  Li  Li2  1  0.32494400  0.25008700  0.08348700  1
  Li  Li3  1  0.33468000  0.74992400  0.58327200  1
  Li  Li4  1  0.99282200  0.75806800  0.25580000  1
  Li  Li5  1  0.99071700  0.25781000  0.75636700  1
  Li  Li6  1  0.66633800  0.24220800  0.41066500  1
  Li  Li7  1  0.67398800  0.74226100  0.90998300  1
  Cr  Cr0  1  0.00600000  0.50283000  0.51429400  1
  Cr  Cr1  1  0.68695000  0.49720000  0.15242200  1
  Cr  Cr2  1  0.00092200  0.00306600  0.01371400  1
  Cr  Cr3  1  0.66498400  0.99689400  0.65284000  1
  O  O0  1  0.48792200  0.88622200  0.10722200  1
  O  O1  1  0.49386400  0.38598700  0.60781600  1
  O  O2  1  0.14612600  0.61403900  0.05896400  1
  O  O3  1  0.17696100  0.11372000  0.55945100  1
  O  O4  1  0.17692000  0.39306400  0.28701700  1
  O  O5  1  0.14871000  0.89230400  0.78692700  1
  O  O6  1  0.52158900  0.60698300  0.37972400  1
  O  O7  1  0.51753100  0.10763100  0.87966400  1
  O  O8  1  0.82779400  0.88291500  0.47322700  1
  O  O9  1  0.81382900  0.38248300  0.97367700  1
  O  O10  1  0.83811800  0.11707000  0.19338100  1
  O  O11  1  0.84041800  0.61731000  0.69332200  1
loop_
_geom_bond_atom_site_label_1
_geom_bond_atom_site_label_2
_geom_bond_distance
_geom_bond_site_symmetry_2
Li0 O3 2.077446 1_555
Li0 O0 2.079335 1_545
Li0 O10 2.087601 1_555
Li0 O8 2.089362 1_445
Li0 O10 2.099871 1_455
Li0 O8 2.100402 1_545
Li1 O9 2.070390 1_555
Li1 O1 2.075306 1_555
Li1 O2 2.078135 1_556
Li1 O11 2.092412 1_555
Li1 O11 2.101858 1_455
Li1 O9 2.123169 1_455
Li2 O9 2.074900 1_454
Li2 O10 2.082340 1_555
Li2 O9 2.088272 1_554
Li2 O10 2.088389 1_455
Li2 O7 2.120104 1_554
Li2 O4 2.122118 1_555
Li3 O11 2.065869 1_555
Li3 O8 2.069970 1_455
Li3 O11 2.101238 1_455
Li3 O8 2.101401 1_555
Li3 O5 2.118165 1_555
Li3 O6 2.121349 1_555
Li4 O8 2.088025 1_555
Li4 O2 2.090684 1_655
Li4 O0 2.159230 1_655
Li4 O0 2.204077 1_555
Li4 O6 2.209318 1_555
Li4 O6 2.254037 1_655
Li5 O9 2.086359 1_555
Li5 O3 2.091677 1_655
Li5 O1 2.174915 1_655
Li5 O1 2.188178 1_555
Li5 O7 2.205339 1_555
Li5 O7 2.243320 1_655
Li6 O10 2.088884 1_555
Li6 O1 2.090286 1_555
Li6 O3 2.150876 1_555
Li6 O4 2.177214 1_555
Li6 O3 2.217761 1_655
Li6 O4 2.283149 1_655
Li7 O11 2.083927 1_555
Li7 O0 2.092593 1_556
Li7 O2 2.142484 1_656
Li7 O5 2.206821 1_655
Li7 O2 2.225124 1_556
Li7 O5 2.238747 1_555
Cr0 O11 1.792780 1_455
Cr0 O1 1.895669 1_555
Cr0 O6 2.006294 1_455
Cr0 O1 2.011313 1_455
Cr0 O6 2.021409 1_555
Cr0 O4 2.063695 1_555
Cr1 O9 1.792410 1_554
Cr1 O2 1.895476 1_655
Cr1 O4 2.009586 1_555
Cr1 O2 2.011149 1_555
Cr1 O4 2.018123 1_655
Cr1 O6 2.063901 1_555
Cr2 O10 1.793277 1_455
Cr2 O0 1.893782 1_545
Cr2 O7 2.003195 1_454
Cr2 O0 2.013233 1_445
Cr2 O7 2.024592 1_554
Cr2 O5 2.066625 1_544
Cr3 O8 1.792801 1_555
Cr3 O3 1.895458 1_565
Cr3 O5 2.004160 1_655
Cr3 O3 2.010676 1_665
Cr3 O5 2.024112 1_555
Cr3 O7 2.066753 1_565
