# generated using pymatgen
data_HoTe3
_symmetry_space_group_name_H-M   'P 1'
_cell_length_a   14.20144523
_cell_length_b   14.20144523
_cell_length_c   4.65090700
_cell_angle_alpha   90.00000000
_cell_angle_beta   90.00000000
_cell_angle_gamma   163.97979334
_symmetry_Int_Tables_number   1
_chemical_formula_structural   HoTe3
_chemical_formula_sum   'Ho2 Te6'
_cell_volume   258.86575819
_cell_formula_units_Z   2
loop_
 _symmetry_equiv_pos_site_id
 _symmetry_equiv_pos_as_xyz
  1  'x, y, z'
loop_
 _atom_site_type_symbol
 _atom_site_label
 _atom_site_symmetry_multiplicity
 _atom_site_fract_x
 _atom_site_fract_y
 _atom_site_fract_z
 _atom_site_occupancy
  Ho  Ho0  1  0.95044400  0.04955600  0.25000000  1
  Ho  Ho1  1  0.04955600  0.95044400  0.75000000  1
  Te  Te0  1  0.83754600  0.16245400  0.25000000  1
  Te  Te1  1  0.16245400  0.83754600  0.75000000  1
  Te  Te2  1  0.68544300  0.31455700  0.25000000  1
  Te  Te3  1  0.31455700  0.68544300  0.75000000  1
  Te  Te4  1  0.55163700  0.44836300  0.25000000  1
  Te  Te5  1  0.44836300  0.55163700  0.75000000  1
loop_
_geom_bond_atom_site_label_1
_geom_bond_atom_site_label_2
_geom_bond_distance
_geom_bond_site_symmetry_2
Ho0 Te5 3.054073 1_654
Ho0 Te5 3.054073 1_655
Ho0 Te5 3.054073 1_544
Ho0 Te5 3.054073 1_545
Ho0 Te0 3.175344 1_555
Ho0 Te4 3.466506 1_655
Ho0 Te4 3.466506 1_545
Ho1 Te4 3.054073 1_565
Ho1 Te4 3.054073 1_566
Ho1 Te4 3.054073 1_456
Ho1 Te4 3.054073 1_455
Ho1 Te1 3.175344 1_555
Ho1 Te5 3.466506 1_565
Ho1 Te5 3.466506 1_455
Te0 Te3 3.121218 1_544
Te0 Te3 3.121218 1_545
Te0 Te3 3.121218 1_654
Te0 Te3 3.121218 1_655
Te1 Te2 3.121218 1_566
Te1 Te2 3.121218 1_456
Te1 Te2 3.121218 1_565
Te1 Te2 3.121218 1_455
