# generated using pymatgen
data_Mg2Zn
_symmetry_space_group_name_H-M   'P 1'
_cell_length_a   5.24793969
_cell_length_b   5.24793969
_cell_length_c   4.98427500
_cell_angle_alpha   90.00000000
_cell_angle_beta   90.00000000
_cell_angle_gamma   119.99999610
_symmetry_Int_Tables_number   1
_chemical_formula_structural   Mg2Zn
_chemical_formula_sum   'Mg4 Zn2'
_cell_volume   118.88041584
_cell_formula_units_Z   2
loop_
 _symmetry_equiv_pos_site_id
 _symmetry_equiv_pos_as_xyz
  1  'x, y, z'
loop_
 _atom_site_type_symbol
 _atom_site_label
 _atom_site_symmetry_multiplicity
 _atom_site_fract_x
 _atom_site_fract_y
 _atom_site_fract_z
 _atom_site_occupancy
  Mg  Mg0  1  0.65779500  0.00000000  0.00000000  1
  Mg  Mg1  1  0.00000000  0.65779500  0.00000000  1
  Mg  Mg2  1  0.34220500  0.34220500  0.00000000  1
  Mg  Mg3  1  0.00000000  0.00000000  0.50000000  1
  Zn  Zn0  1  0.33333300  0.66666700  0.50000000  1
  Zn  Zn1  1  0.66666700  0.33333300  0.50000000  1
loop_
_geom_bond_atom_site_label_1
_geom_bond_atom_site_label_2
_geom_bond_distance
_geom_bond_site_symmetry_2
Mg0 Mg2 2.990395 1_555
Mg0 Mg2 2.990395 1_545
Mg0 Mg1 2.990395 1_545
Mg0 Mg1 2.990395 1_655
Mg0 Zn1 3.031759 1_555
Mg0 Zn1 3.031759 1_554
Mg0 Zn0 3.031760 1_545
Mg0 Zn0 3.031760 1_544
Mg0 Mg3 3.071791 1_654
Mg0 Mg3 3.071791 1_655
Mg0 Mg1 3.110540 1_645
Mg0 Mg2 3.110540 1_655
Mg1 Mg2 2.990395 1_555
Mg1 Mg2 2.990395 1_455
Mg1 Zn0 3.031759 1_554
Mg1 Zn0 3.031759 1_555
Mg1 Zn1 3.031760 1_455
Mg1 Zn1 3.031760 1_454
Mg1 Mg3 3.071791 1_565
Mg1 Mg3 3.071791 1_564
Mg1 Mg2 3.110540 1_565
Mg2 Zn0 3.031762 1_555
Mg2 Zn1 3.031762 1_554
Mg2 Zn0 3.031762 1_554
Mg2 Zn1 3.031762 1_555
Mg2 Mg3 3.071792 1_555
Mg2 Mg3 3.071792 1_554
Mg3 Zn0 3.029896 1_545
Mg3 Zn1 3.029896 1_455
Mg3 Zn0 3.029901 1_445
Mg3 Zn0 3.029901 1_555
Mg3 Zn1 3.029901 1_445
Mg3 Zn1 3.029901 1_555
Zn0 Zn1 3.029896 1_455
Zn0 Zn1 3.029896 1_565
Zn0 Zn1 3.029905 1_555
