# generated using pymatgen
data_K2W2O7
_symmetry_space_group_name_H-M   'P 1'
_cell_length_a   3.88341160
_cell_length_b   6.03916998
_cell_length_c   13.68473899
_cell_angle_alpha   90.00048287
_cell_angle_beta   89.99890985
_cell_angle_gamma   90.32012949
_symmetry_Int_Tables_number   1
_chemical_formula_structural   K2W2O7
_chemical_formula_sum   'K4 W4 O14'
_cell_volume   320.93746429
_cell_formula_units_Z   2
loop_
 _symmetry_equiv_pos_site_id
 _symmetry_equiv_pos_as_xyz
  1  'x, y, z'
loop_
 _atom_site_type_symbol
 _atom_site_label
 _atom_site_symmetry_multiplicity
 _atom_site_fract_x
 _atom_site_fract_y
 _atom_site_fract_z
 _atom_site_occupancy
  K  K0  1  0.00827135  0.83140372  0.16771092  1
  K  K1  1  0.99169535  0.66860008  0.66772568  1
  K  K2  1  0.99171627  0.16857625  0.83226508  1
  K  K3  1  0.00829307  0.33139040  0.33230259  1
  W  W0  1  0.45867943  0.21633031  0.56665743  1
  W  W1  1  0.54137776  0.28366693  0.06660103  1
  W  W2  1  0.54133361  0.78367864  0.43339871  1
  W  W3  1  0.45865579  0.71633150  0.93333573  1
  O  O0  1  0.49599054  0.81113196  0.81110404  1
  O  O1  1  0.50402987  0.68886683  0.31115509  1
  O  O2  1  0.50402482  0.18886660  0.18884737  1
  O  O3  1  0.49596389  0.31113342  0.68889987  1
  O  O4  1  0.50284868  0.58872524  0.08229583  1
  O  O5  1  0.49713936  0.91126918  0.58234762  1
  O  O6  1  0.49715139  0.41126912  0.91765143  1
  O  O7  1  0.50284384  0.08873116  0.41770130  1
  O  O8  1  0.49999221  0.50001052  0.50003609  1
  O  O9  1  0.50000385  0.00000710  -0.00003542  1
  O  O10  1  0.99007230  0.22417931  0.55535409  1
  O  O11  1  0.99005429  0.72417544  0.94464149  1
  O  O12  1  0.00992280  0.77583134  0.44470734  1
  O  O13  1  0.00993953  0.27582597  0.05529669  1
loop_
_geom_bond_atom_site_label_1
_geom_bond_atom_site_label_2
_geom_bond_distance
_geom_bond_site_symmetry_2
K0 O4 2.689689 1_555
K0 O4 2.708239 1_455
K0 O1 2.884364 1_555
K0 O2 2.898967 1_565
K0 O1 2.899973 1_455
K0 O2 2.936960 1_465
K0 O13 3.093543 1_565
K0 O11 3.121293 1_454
K0 O9 3.151367 1_565
K0 O9 3.197656 1_465
K1 O5 2.689421 1_555
K1 O5 2.708028 1_655
K1 O0 2.883543 1_555
K1 O3 2.898976 1_555
K1 O0 2.899536 1_655
K1 O3 2.937096 1_655
K1 O10 3.093223 1_555
K1 O12 3.120621 1_655
K1 O8 3.150746 1_555
K1 O8 3.197076 1_655
K2 O6 2.689532 1_555
K2 O6 2.708151 1_655
K2 O3 2.883650 1_555
K2 O0 2.898847 1_545
K2 O3 2.899293 1_655
K2 O0 2.936982 1_645
K2 O11 3.093173 1_545
K2 O13 3.120814 1_656
K2 O9 3.150787 1_556
K2 O9 3.197177 1_656
K3 O7 2.689497 1_555
K3 O7 2.708133 1_455
K3 O2 2.884314 1_555
K3 O1 2.898997 1_555
K3 O2 2.900163 1_455
K3 O1 2.937089 1_455
K3 O12 3.093554 1_555
K3 O10 3.121039 1_455
K3 O8 3.151234 1_555
K3 O8 3.197576 1_455
O0 W3 1.773649 1_555
O1 W2 1.773811 1_555
O2 W1 1.773843 1_555
O3 W0 1.773773 1_555
O4 W1 1.861627 1_555
O4 W3 2.186379 1_554
O5 W0 1.861618 1_565
O5 W2 2.186185 1_555
O6 W3 1.861624 1_555
O6 W1 2.186246 1_556
O7 W2 1.861588 1_545
O7 W0 2.186286 1_555
O8 W0 1.946512 1_555
O8 W2 1.946559 1_555
O9 W1 1.946508 1_555
O9 W3 1.946535 1_544
O10 W0 1.827238 1_655
O10 W0 2.069682 1_555
O11 W3 1.827213 1_655
O11 W3 2.069712 1_555
O12 W2 1.827175 1_455
O12 W2 2.069757 1_555
O13 W1 1.827057 1_455
O13 W1 2.069864 1_555
