# generated using pymatgen
data_K5P2Au
_symmetry_space_group_name_H-M   'P 1'
_cell_length_a   5.65597789
_cell_length_b   5.65597726
_cell_length_c   18.71431004
_cell_angle_alpha   90.00000000
_cell_angle_beta   90.00000000
_cell_angle_gamma   119.99999778
_symmetry_Int_Tables_number   1
_chemical_formula_structural   K5P2Au
_chemical_formula_sum   'K10 P4 Au2'
_cell_volume   518.46544832
_cell_formula_units_Z   2
loop_
 _symmetry_equiv_pos_site_id
 _symmetry_equiv_pos_as_xyz
  1  'x, y, z'
loop_
 _atom_site_type_symbol
 _atom_site_label
 _atom_site_symmetry_multiplicity
 _atom_site_fract_x
 _atom_site_fract_y
 _atom_site_fract_z
 _atom_site_occupancy
  K  K0  1  -0.00000000  -0.00000000  0.85436099  1
  K  K1  1  0.00000000  0.00000000  0.64563901  1
  K  K2  1  0.33333300  0.66666700  0.75000000  1
  K  K3  1  0.00000000  0.00000000  0.35436099  1
  K  K4  1  0.33333300  0.66666700  0.54886809  1
  K  K5  1  0.66666700  0.33333300  0.25000000  1
  K  K6  1  0.66666700  0.33333300  0.45113191  1
  K  K7  1  0.66666700  0.33333300  0.04886809  1
  K  K8  1  0.33333300  0.66666700  0.95113191  1
  K  K9  1  -0.00000000  0.00000000  0.14563901  1
  P  P0  1  0.33333300  0.66666700  0.12250748  1
  P  P1  1  0.66666700  0.33333300  0.62250748  1
  P  P2  1  0.66666700  0.33333300  0.87749252  1
  P  P3  1  0.33333300  0.66666700  0.37749252  1
  Au  Au0  1  0.66666700  0.33333300  0.75000000  1
  Au  Au1  1  0.33333300  0.66666700  0.25000000  1
loop_
_geom_bond_atom_site_label_1
_geom_bond_atom_site_label_2
_geom_bond_distance
_geom_bond_site_symmetry_2
K0 P2 3.294045 1_455
K0 P2 3.294050 1_445
K0 P2 3.294050 1_555
K1 P1 3.294045 1_455
K1 P1 3.294050 1_445
K1 P1 3.294050 1_555
K3 P3 3.294045 1_545
K3 P3 3.294050 1_555
K3 P3 3.294050 1_445
K4 P3 3.207176 1_555
K4 P1 3.544366 1_565
K4 P1 3.544366 1_455
K4 P1 3.544375 1_555
K6 P1 3.207176 1_555
K6 P3 3.544366 1_545
K6 P3 3.544366 1_655
K6 P3 3.544375 1_555
K7 P2 3.207176 1_554
K7 P0 3.544366 1_545
K7 P0 3.544366 1_655
K7 P0 3.544375 1_555
K8 P0 3.207176 1_556
K8 P2 3.544366 1_565
K8 P2 3.544366 1_455
K8 P2 3.544375 1_555
K9 P0 3.294045 1_545
K9 P0 3.294050 1_555
K9 P0 3.294050 1_445
Au0 P1 2.385935 1_555
Au0 P2 2.385935 1_555
Au0 K2 3.265477 1_545
Au0 K2 3.265477 1_655
Au0 K2 3.265487 1_555
Au1 P3 2.385935 1_555
Au1 P0 2.385935 1_555
Au1 K5 3.265477 1_565
Au1 K5 3.265477 1_455
Au1 K5 3.265487 1_555
