# generated using pymatgen
data_MgCuBiO5
_symmetry_space_group_name_H-M   'P 1'
_cell_length_a   5.12917693
_cell_length_b   9.93202725
_cell_length_c   15.25929699
_cell_angle_alpha   90.00000000
_cell_angle_beta   90.00000000
_cell_angle_gamma   90.00000000
_symmetry_Int_Tables_number   1
_chemical_formula_structural   MgCuBiO5
_chemical_formula_sum   'Mg8 Cu8 Bi8 O40'
_cell_volume   777.35627457
_cell_formula_units_Z   8
loop_
 _symmetry_equiv_pos_site_id
 _symmetry_equiv_pos_as_xyz
  1  'x, y, z'
loop_
 _atom_site_type_symbol
 _atom_site_label
 _atom_site_symmetry_multiplicity
 _atom_site_fract_x
 _atom_site_fract_y
 _atom_site_fract_z
 _atom_site_occupancy
  Mg  Mg0  1  0.47269610  0.37328586  0.58451303  1
  Mg  Mg1  1  0.97269610  0.12671414  0.58451303  1
  Mg  Mg2  1  0.97269610  0.62671414  0.91548697  1
  Mg  Mg3  1  0.02730390  0.37328586  0.08451303  1
  Mg  Mg4  1  0.52730390  0.12671414  0.08451303  1
  Mg  Mg5  1  0.02730390  0.87328586  0.41548697  1
  Mg  Mg6  1  0.52730390  0.62671414  0.41548697  1
  Mg  Mg7  1  0.47269610  0.87328586  0.91548697  1
  Cu  Cu0  1  0.99673841  0.36793650  0.48019483  1
  Cu  Cu1  1  0.50326159  0.86793650  0.51980517  1
  Cu  Cu2  1  0.00326159  0.63206350  0.51980517  1
  Cu  Cu3  1  0.49673841  0.13206350  0.48019483  1
  Cu  Cu4  1  0.00326159  0.13206350  0.98019483  1
  Cu  Cu5  1  0.99673841  0.86793650  0.01980517  1
  Cu  Cu6  1  0.50326159  0.36793650  0.98019483  1
  Cu  Cu7  1  0.49673841  0.63206350  0.01980517  1
  Bi  Bi0  1  0.86772995  0.85458517  0.73641251  1
  Bi  Bi1  1  0.13227005  0.14541483  0.26358749  1
  Bi  Bi2  1  0.63227005  0.35458517  0.26358749  1
  Bi  Bi3  1  0.13227005  0.64541483  0.23641251  1
  Bi  Bi4  1  0.36772995  0.14541483  0.76358749  1
  Bi  Bi5  1  0.36772995  0.64541483  0.73641251  1
  Bi  Bi6  1  0.63227005  0.85458517  0.23641251  1
  Bi  Bi7  1  0.86772995  0.35458517  0.76358749  1
  O  O0  1  0.95043949  0.30729426  0.34223154  1
  O  O1  1  0.24284880  0.99649303  0.99239230  1
  O  O2  1  0.25715120  0.49649303  0.00760770  1
  O  O3  1  0.15849168  0.79577832  0.82416876  1
  O  O4  1  0.34150832  0.29577832  0.17583124  1
  O  O5  1  0.95043949  0.80729426  0.15776846  1
  O  O6  1  0.34150832  0.79577832  0.32416876  1
  O  O7  1  0.54956051  0.80729426  0.65776846  1
  O  O8  1  0.24284880  0.49649303  0.50760770  1
  O  O9  1  0.04956051  0.69270574  0.65776846  1
  O  O10  1  0.54956051  0.30729426  0.84223154  1
  O  O11  1  0.73393592  0.25673745  0.51557364  1
  O  O12  1  0.74284880  0.00350697  0.50760770  1
  O  O13  1  0.84150832  0.70422168  0.32416876  1
  O  O14  1  0.39427680  0.01313735  0.18644561  1
  O  O15  1  0.74284880  0.50350697  0.99239230  1
  O  O16  1  0.04956051  0.19270574  0.84223154  1
  O  O17  1  0.65849168  0.20422168  0.67583124  1
  O  O18  1  0.23393592  0.74326255  0.98442636  1
  O  O19  1  0.25715120  0.99649303  0.49239230  1
  O  O20  1  0.26606408  0.74326255  0.48442636  1
  O  O21  1  0.60572320  0.98686265  0.81355439  1
  O  O22  1  0.84150832  0.20422168  0.17583124  1
  O  O23  1  0.89427680  0.98686265  0.31355439  1
  O  O24  1  0.26606408  0.24326255  0.01557364  1
  O  O25  1  0.23393592  0.24326255  0.51557364  1
  O  O26  1  0.75715120  0.50350697  0.49239230  1
  O  O27  1  0.75715120  0.00350697  0.00760770  1
  O  O28  1  0.89427680  0.48686265  0.18644561  1
  O  O29  1  0.76606408  0.75673745  0.48442636  1
  O  O30  1  0.76606408  0.25673745  0.01557364  1
  O  O31  1  0.73393592  0.75673745  0.98442636  1
  O  O32  1  0.60572320  0.48686265  0.68644561  1
  O  O33  1  0.65849168  0.70422168  0.82416876  1
  O  O34  1  0.15849168  0.29577832  0.67583124  1
  O  O35  1  0.39427680  0.51313735  0.31355439  1
  O  O36  1  0.10572320  0.51313735  0.81355439  1
  O  O37  1  0.45043949  0.19270574  0.34223154  1
  O  O38  1  0.10572320  0.01313735  0.68644561  1
  O  O39  1  0.45043949  0.69270574  0.15776846  1
loop_
_geom_bond_atom_site_label_1
_geom_bond_atom_site_label_2
_geom_bond_distance
_geom_bond_site_symmetry_2
Mg0 O32 2.038966 1_555
Mg0 O11 2.059621 1_555
Mg0 O8 2.065056 1_555
Mg0 O25 2.067386 1_555
Mg0 O34 2.265303 1_555
Mg0 O17 2.381054 1_555
Mg0 O26 2.403644 1_555
Mg1 O38 2.038966 1_655
Mg1 O25 2.059621 1_655
Mg1 O12 2.065056 1_555
Mg1 O11 2.067386 1_555
Mg1 O17 2.265303 1_555
Mg1 O34 2.381054 1_655
Mg1 O19 2.403644 1_645
Mg2 O36 2.038966 1_655
Mg2 O18 2.059621 1_655
Mg2 O15 2.065056 1_555
Mg2 O31 2.067386 1_555
Mg2 O33 2.265303 1_555
Mg2 O3 2.381054 1_655
Mg2 O2 2.403644 1_656
Mg3 O28 2.038966 1_455
Mg3 O30 2.059621 1_455
Mg3 O2 2.065056 1_555
Mg3 O24 2.067386 1_555
Mg3 O4 2.265303 1_555
Mg3 O22 2.381054 1_455
Mg3 O15 2.403644 1_454
Mg4 O14 2.038966 1_555
Mg4 O24 2.059621 1_555
Mg4 O27 2.065056 1_555
Mg4 O30 2.067386 1_555
Mg4 O22 2.265303 1_555
Mg4 O4 2.381054 1_555
Mg4 O1 2.403644 1_544
Mg5 O23 2.038966 1_455
Mg5 O29 2.059621 1_455
Mg5 O19 2.065056 1_555
Mg5 O20 2.067386 1_555
Mg5 O6 2.265303 1_555
Mg5 O13 2.381054 1_455
Mg5 O12 2.403644 1_465
Mg6 O35 2.038966 1_555
Mg6 O20 2.059621 1_555
Mg6 O26 2.065056 1_555
Mg6 O29 2.067386 1_555
Mg6 O13 2.265303 1_555
Mg6 O6 2.381054 1_555
Mg6 O8 2.403644 1_555
Mg7 O21 2.038966 1_555
Mg7 O31 2.059621 1_555
Mg7 O1 2.065056 1_555
Mg7 O18 2.067386 1_555
Mg7 O3 2.265303 1_555
Mg7 O33 2.381054 1_555
Mg7 O27 2.403644 1_566
Cu0 O25 1.817946 1_655
Cu0 O11 1.824339 1_555
Cu0 O26 1.832440 1_555
Cu0 O8 1.843577 1_655
Cu0 O0 2.202527 1_555
Cu1 O20 1.817946 1_555
Cu1 O29 1.824339 1_555
Cu1 O12 1.832440 1_565
Cu1 O19 1.843577 1_555
Cu1 O7 2.202527 1_555
Cu2 O29 1.817946 1_455
Cu2 O20 1.824339 1_555
Cu2 O8 1.832440 1_555
Cu2 O26 1.843577 1_455
Cu2 O9 2.202527 1_555
Cu3 O11 1.817946 1_555
Cu3 O25 1.824339 1_555
Cu3 O19 1.832440 1_545
Cu3 O12 1.843577 1_555
Cu3 O37 2.202527 1_555
Cu4 O30 1.817946 1_456
Cu4 O24 1.824339 1_556
Cu4 O1 1.832440 1_545
Cu4 O27 1.843577 1_456
Cu4 O16 2.202527 1_555
Cu5 O18 1.817946 1_654
Cu5 O31 1.824339 1_554
Cu5 O27 1.832440 1_565
Cu5 O1 1.843577 1_654
Cu5 O5 2.202527 1_555
Cu6 O24 1.817946 1_556
Cu6 O30 1.824339 1_556
Cu6 O15 1.832440 1_555
Cu6 O2 1.843577 1_556
Cu6 O10 2.202527 1_555
Cu7 O31 1.817946 1_554
Cu7 O18 1.824339 1_554
Cu7 O2 1.832440 1_555
Cu7 O15 1.843577 1_554
Cu7 O39 2.202527 1_555
Bi0 O7 2.079421 1_555
Bi0 O3 2.087703 1_655
Bi0 O38 2.133377 1_665
Bi0 O9 2.212451 1_655
Bi0 O21 2.217583 1_555
Bi0 O33 2.274923 1_555
Bi1 O37 2.079421 1_555
Bi1 O22 2.087703 1_455
Bi1 O23 2.133377 1_445
Bi1 O0 2.212451 1_455
Bi1 O14 2.217583 1_555
Bi1 O4 2.274923 1_555
Bi2 O0 2.079421 1_555
Bi2 O4 2.087703 1_555
Bi2 O35 2.133377 1_555
Bi2 O37 2.212451 1_555
Bi2 O28 2.217583 1_555
Bi2 O22 2.274923 1_555
Bi3 O39 2.079421 1_555
Bi3 O13 2.087703 1_455
Bi3 O28 2.133377 1_455
Bi3 O5 2.212451 1_455
Bi3 O35 2.217583 1_555
Bi3 O6 2.274923 1_555
Bi4 O16 2.079421 1_555
Bi4 O17 2.087703 1_555
Bi4 O21 2.133377 1_545
Bi4 O10 2.212451 1_555
Bi4 O38 2.217583 1_555
Bi4 O34 2.274923 1_555
Bi5 O9 2.079421 1_555
Bi5 O33 2.087703 1_555
Bi5 O32 2.133377 1_555
Bi5 O7 2.212451 1_555
Bi5 O36 2.217583 1_555
Bi5 O3 2.274923 1_555
Bi6 O5 2.079421 1_555
Bi6 O6 2.087703 1_555
Bi6 O14 2.133377 1_565
Bi6 O39 2.212451 1_555
Bi6 O23 2.217583 1_555
Bi6 O13 2.274923 1_555
Bi7 O10 2.079421 1_555
Bi7 O34 2.087703 1_655
Bi7 O36 2.133377 1_655
Bi7 O16 2.212451 1_655
Bi7 O32 2.217583 1_555
Bi7 O17 2.274923 1_555
