# generated using pymatgen
data_Yb3H2Pb
_symmetry_space_group_name_H-M   'P 1'
_cell_length_a   6.76646203
_cell_length_b   6.76646203
_cell_length_c   5.09486611
_cell_angle_alpha   90.00000000
_cell_angle_beta   90.00000000
_cell_angle_gamma   104.43047689
_symmetry_Int_Tables_number   1
_chemical_formula_structural   Yb3H2Pb
_chemical_formula_sum   'Yb6 H4 Pb2'
_cell_volume   225.90904005
_cell_formula_units_Z   2
loop_
 _symmetry_equiv_pos_site_id
 _symmetry_equiv_pos_as_xyz
  1  'x, y, z'
loop_
 _atom_site_type_symbol
 _atom_site_label
 _atom_site_symmetry_multiplicity
 _atom_site_fract_x
 _atom_site_fract_y
 _atom_site_fract_z
 _atom_site_occupancy
  Yb  Yb0  1  0.88827930  0.11172070  0.75000000  1
  Yb  Yb1  1  0.11172070  0.88827930  0.25000000  1
  Yb  Yb2  1  0.81752651  0.59698812  0.75000000  1
  Yb  Yb3  1  0.18247349  0.40301188  0.25000000  1
  Yb  Yb4  1  0.40301188  0.18247349  0.75000000  1
  Yb  Yb5  1  0.59698812  0.81752651  0.25000000  1
  H  H0  1  0.14702809  0.14702809  0.50000000  1
  H  H1  1  0.85297191  0.85297191  0.50000000  1
  H  H2  1  0.85297191  0.85297191  0.00000000  1
  H  H3  1  0.14702809  0.14702809  0.00000000  1
  Pb  Pb0  1  0.31989423  0.68010577  0.75000000  1
  Pb  Pb1  1  0.68010577  0.31989423  0.25000000  1
loop_
_geom_bond_atom_site_label_1
_geom_bond_atom_site_label_2
_geom_bond_distance
_geom_bond_site_symmetry_2
H0 Yb3 2.114949 1_555
H0 Yb4 2.114949 1_555
H0 Yb0 2.129860 1_455
H0 Yb1 2.129860 1_545
H1 Yb5 2.114949 1_555
H1 Yb2 2.114949 1_555
H1 Yb0 2.129860 1_565
H1 Yb1 2.129860 1_655
H2 Yb5 2.114949 1_555
H2 Yb2 2.114949 1_554
H2 Yb0 2.129860 1_564
H2 Yb1 2.129860 1_655
H3 Yb3 2.114949 1_555
H3 Yb4 2.114949 1_554
H3 Yb1 2.129860 1_545
H3 Yb0 2.129860 1_454
Pb0 Yb5 3.162360 1_556
Pb0 Yb5 3.162360 1_555
Pb0 Yb3 3.162360 1_555
Pb0 Yb3 3.162360 1_556
Pb0 Yb2 3.304296 1_455
Pb0 Yb4 3.304296 1_565
Pb0 Yb1 3.383287 1_556
Pb0 Yb1 3.383287 1_555
Pb0 Yb4 3.549406 1_555
Pb0 Yb2 3.549406 1_555
Pb1 Yb4 3.162360 1_554
Pb1 Yb4 3.162360 1_555
Pb1 Yb2 3.162360 1_555
Pb1 Yb2 3.162360 1_554
Pb1 Yb5 3.304296 1_545
Pb1 Yb3 3.304296 1_655
Pb1 Yb0 3.383287 1_555
Pb1 Yb0 3.383287 1_554
Pb1 Yb3 3.549406 1_555
Pb1 Yb5 3.549406 1_555
