# generated using pymatgen
data_Li8Mn5Fe3(BO3)8
_symmetry_space_group_name_H-M   'P 1'
_cell_length_a   5.23326400
_cell_length_b   6.01316316
_cell_length_c   16.20709484
_cell_angle_alpha   81.99514531
_cell_angle_beta   88.81319911
_cell_angle_gamma   89.42751512
_symmetry_Int_Tables_number   1
_chemical_formula_structural   Li8Mn5Fe3(BO3)8
_chemical_formula_sum   'Li8 Mn5 Fe3 B8 O24'
_cell_volume   504.92170793
_cell_formula_units_Z   1
loop_
 _symmetry_equiv_pos_site_id
 _symmetry_equiv_pos_as_xyz
  1  'x, y, z'
loop_
 _atom_site_type_symbol
 _atom_site_label
 _atom_site_symmetry_multiplicity
 _atom_site_fract_x
 _atom_site_fract_y
 _atom_site_fract_z
 _atom_site_occupancy
  Li  Li0  1  0.84774200  0.06129400  0.39064000  1
  Li  Li1  1  0.14959000  0.43712900  0.10947000  1
  Li  Li2  1  0.65033700  0.18755900  0.85895800  1
  Li  Li3  1  0.34924300  0.31273800  0.63966800  1
  Li  Li4  1  0.65095100  0.68828700  0.35933400  1
  Li  Li5  1  0.34945200  0.81232100  0.14126900  1
  Li  Li6  1  0.84946200  0.56257100  0.89100800  1
  Li  Li7  1  0.14994900  0.93919900  0.60844700  1
  Mn  Mn0  1  0.66706300  0.27436900  0.04071300  1
  Mn  Mn1  1  0.16638400  0.02627300  0.78970000  1
  Mn  Mn2  1  0.16600200  0.52345500  0.29033500  1
  Mn  Mn3  1  0.83266900  0.47682200  0.70935900  1
  Mn  Mn4  1  0.33341300  0.72373100  0.96015300  1
  Fe  Fe0  1  0.34106500  0.22420700  0.45987400  1
  Fe  Fe1  1  0.66098300  0.77618400  0.53927800  1
  Fe  Fe2  1  0.84016200  0.97299900  0.20960200  1
  B  B0  1  0.33080600  0.03673600  0.29854800  1
  B  B1  1  0.82945800  0.28776100  0.54671000  1
  B  B2  1  0.66973600  0.46328300  0.20242200  1
  B  B3  1  0.16890300  0.21450500  0.95194200  1
  B  B4  1  0.83153800  0.78540800  0.04941100  1
  B  B5  1  0.33083400  0.53526100  0.79802500  1
  B  B6  1  0.17131000  0.71226300  0.45330300  1
  B  B7  1  0.66791700  0.96482800  0.70061600  1
  O  O0  1  0.58967300  0.01488600  0.30969800  1
  O  O1  1  0.18167800  0.16808500  0.34682800  1
  O  O2  1  0.70926500  0.16894200  0.49007100  1
  O  O3  1  0.28342800  0.33467500  0.00868000  1
  O  O4  1  0.78312000  0.08294700  0.75784600  1
  O  O5  1  0.82223200  0.32721200  0.15724900  1
  O  O6  1  0.32227300  0.07992000  0.90642600  1
  O  O7  1  0.08821500  0.26472300  0.55915700  1
  O  O8  1  0.41084400  0.48394600  0.18783800  1
  O  O9  1  0.91025500  0.23360000  0.93762500  1
  O  O10  1  0.67938900  0.42219100  0.59304400  1
  O  O11  1  0.21656500  0.41538000  0.74115700  1
  O  O12  1  0.78385900  0.58455100  0.25884800  1
  O  O13  1  0.32040500  0.57851800  0.40632100  1
  O  O14  1  0.09032300  0.76665600  0.06300600  1
  O  O15  1  0.58935500  0.51625200  0.81258900  1
  O  O16  1  0.91209200  0.73509200  0.44071700  1
  O  O17  1  0.67944600  0.91897200  0.09613900  1
  O  O18  1  0.17730400  0.66981200  0.84358900  1
  O  O19  1  0.20857100  0.92164300  0.24125600  1
  O  O20  1  0.71656400  0.66697300  0.99232800  1
  O  O21  1  0.29161600  0.83028900  0.50986300  1
  O  O22  1  0.81955400  0.83128100  0.65387200  1
  O  O23  1  0.40900600  0.98426900  0.68707000  1
loop_
_geom_bond_atom_site_label_1
_geom_bond_atom_site_label_2
_geom_bond_distance
_geom_bond_site_symmetry_2
Li0 O2 1.942638 1_555
Li0 O0 1.950803 1_555
Li0 O1 1.953100 1_655
Li0 O16 2.043122 1_545
Li1 O8 1.934148 1_555
Li1 O3 1.939782 1_555
Li1 O5 1.948460 1_455
Li1 O14 2.042407 1_555
Li2 O9 1.931334 1_555
Li2 O6 1.946061 1_555
Li2 O4 1.948130 1_555
Li2 O15 2.038809 1_555
Li3 O11 1.948185 1_555
Li3 O10 1.954324 1_555
Li3 O7 1.959253 1_555
Li3 O23 2.040633 1_545
Li4 O12 1.937142 1_555
Li4 O13 1.958616 1_555
Li4 O16 1.967821 1_555
Li4 O0 2.040821 1_565
Li5 O14 1.923268 1_555
Li5 O17 1.941074 1_555
Li5 O19 1.959396 1_555
Li5 O8 2.038161 1_555
Li6 O15 1.929662 1_555
Li6 O18 1.944094 1_655
Li6 O20 1.950745 1_555
Li6 O9 2.041144 1_555
Li7 O23 1.926190 1_555
Li7 O21 1.940109 1_555
Li7 O22 1.946622 1_455
Li7 O7 2.033865 1_565
Mn0 O3 2.099508 1_555
Mn0 O9 2.119203 1_554
Mn0 O5 2.136221 1_555
Mn0 O17 2.200713 1_545
Mn0 O20 2.396577 1_554
Mn1 O4 2.094234 1_455
Mn1 O23 2.113230 1_545
Mn1 O6 2.141876 1_555
Mn1 O18 2.199705 1_545
Mn1 O11 2.377700 1_555
Mn2 O12 2.090499 1_455
Mn2 O8 2.115043 1_555
Mn2 O13 2.130210 1_555
Mn2 O1 2.205913 1_555
Mn2 O19 2.426564 1_555
Mn3 O11 2.100789 1_655
Mn3 O15 2.119646 1_555
Mn3 O10 2.132008 1_555
Mn3 O22 2.195942 1_555
Mn3 O4 2.404104 1_555
Mn4 O20 2.095000 1_555
Mn4 O14 2.118760 1_556
Mn4 O18 2.140398 1_555
Mn4 O6 2.197544 1_565
Mn4 O3 2.377246 1_556
Fe0 O2 2.010925 1_555
Fe0 O1 2.099412 1_555
Fe0 O7 2.100953 1_555
Fe0 O13 2.188248 1_555
Fe0 O21 2.408971 1_545
Fe1 O21 2.012958 1_555
Fe1 O16 2.087127 1_555
Fe1 O22 2.118594 1_555
Fe1 O10 2.186867 1_555
Fe1 O2 2.399285 1_565
Fe2 O19 2.015097 1_655
Fe2 O17 2.104859 1_555
Fe2 O0 2.105396 1_565
Fe2 O5 2.182052 1_565
Fe2 O12 2.380039 1_555
B0 O0 1.373009 1_555
B0 O19 1.400991 1_545
B0 O1 1.407008 1_555
B1 O7 1.376000 1_655
B1 O2 1.401544 1_555
B1 O10 1.402164 1_555
B2 O8 1.381538 1_555
B2 O12 1.393485 1_555
B2 O5 1.404264 1_555
B3 O9 1.379011 1_455
B3 O3 1.394094 1_556
B3 O6 1.404309 1_555
B4 O14 1.377590 1_655
B4 O20 1.392925 1_554
B4 O17 1.408458 1_555
B5 O15 1.379045 1_555
B5 O11 1.393989 1_555
B5 O18 1.405104 1_555
B6 O16 1.378637 1_455
B6 O21 1.397997 1_555
B6 O13 1.403132 1_555
B7 O23 1.378319 1_555
B7 O4 1.394086 1_565
B7 O22 1.407246 1_555
