# generated using pymatgen
data_La3(NbN3)2
_symmetry_space_group_name_H-M   'P 1'
_cell_length_a   4.09998835
_cell_length_b   4.09998846
_cell_length_c   10.46732544
_cell_angle_alpha   101.30024372
_cell_angle_beta   101.30024259
_cell_angle_gamma   89.99861365
_symmetry_Int_Tables_number   1
_chemical_formula_structural   La3(NbN3)2
_chemical_formula_sum   'La3 Nb2 N6'
_cell_volume   169.06392812
_cell_formula_units_Z   1
loop_
 _symmetry_equiv_pos_site_id
 _symmetry_equiv_pos_as_xyz
  1  'x, y, z'
loop_
 _atom_site_type_symbol
 _atom_site_label
 _atom_site_symmetry_multiplicity
 _atom_site_fract_x
 _atom_site_fract_y
 _atom_site_fract_z
 _atom_site_occupancy
  La  La0  1  0.00001575  0.00001546  -0.00000274  1
  La  La1  1  0.82023470  0.82023458  0.64059366  1
  La  La2  1  0.17976041  0.17976025  0.35941090  1
  Nb  Nb0  1  0.39858512  0.39858510  0.79708752  1
  Nb  Nb1  1  0.60141109  0.60141109  0.20291214  1
  N  N0  1  0.58488056  0.08484326  0.16982846  1
  N  N1  1  0.08484322  0.58488078  0.16982847  1
  N  N2  1  0.41511855  0.91515472  0.83016979  1
  N  N3  1  0.91515468  0.41511874  0.83016980  1
  N  N4  1  0.69888404  0.69888414  0.39792194  1
  N  N5  1  0.30111188  0.30111187  0.60208007  1
loop_
_geom_bond_atom_site_label_1
_geom_bond_atom_site_label_2
_geom_bond_distance
_geom_bond_site_symmetry_2
La0 N0 2.668028 1_555
La0 N1 2.668030 1_555
La0 N3 2.668110 1_444
La0 N2 2.668112 1_444
La0 N2 2.668485 1_544
La0 N3 2.668487 1_454
La0 N1 2.668616 1_545
La0 N0 2.668617 1_455
La1 N4 2.440646 1_555
La1 N3 2.799455 1_555
La1 N2 2.799456 1_555
La1 N2 2.799745 1_655
La1 N3 2.799746 1_565
La1 N5 2.924100 1_555
La1 N5 2.924856 1_655
La1 N5 2.924857 1_565
La1 N5 2.925752 1_665
La2 N5 2.440621 1_555
La2 N0 2.799521 1_555
La2 N1 2.799522 1_555
La2 N1 2.799765 1_545
La2 N0 2.799767 1_455
La2 N4 2.924110 1_555
La2 N4 2.924853 1_545
La2 N4 2.924854 1_455
La2 N4 2.925736 1_445
N0 Nb1 2.076750 1_545
N0 Nb1 2.076893 1_555
N1 Nb1 2.076750 1_455
N1 Nb1 2.076894 1_555
N2 Nb0 2.076738 1_565
N2 Nb0 2.076901 1_555
N3 Nb0 2.076738 1_655
N3 Nb0 2.076901 1_555
N4 Nb1 1.961292 1_555
N5 Nb0 1.961268 1_555
