# generated using pymatgen
data_RbLiMg6O7
_symmetry_space_group_name_H-M   'P 1'
_cell_length_a   8.08591697
_cell_length_b   4.51669502
_cell_length_c   4.51669502
_cell_angle_alpha   90.00000000
_cell_angle_beta   90.00000000
_cell_angle_gamma   90.00000000
_symmetry_Int_Tables_number   1
_chemical_formula_structural   RbLiMg6O7
_chemical_formula_sum   'Rb1 Li1 Mg6 O7'
_cell_volume   164.95702329
_cell_formula_units_Z   1
loop_
 _symmetry_equiv_pos_site_id
 _symmetry_equiv_pos_as_xyz
  1  'x, y, z'
loop_
 _atom_site_type_symbol
 _atom_site_label
 _atom_site_symmetry_multiplicity
 _atom_site_fract_x
 _atom_site_fract_y
 _atom_site_fract_z
 _atom_site_occupancy
  Rb  Rb0  1  0.41808042  0.00000000  -0.00000000  1
  Li  Li0  1  0.97428510  0.00000000  0.00000000  1
  Mg  Mg0  1  0.00454309  0.50000000  0.50000000  1
  Mg  Mg1  1  0.51710965  0.50000000  0.50000000  1
  Mg  Mg2  1  0.25327881  0.00000000  0.50000000  1
  Mg  Mg3  1  0.75493168  0.00000000  0.50000000  1
  Mg  Mg4  1  0.25327881  0.50000000  -0.00000000  1
  Mg  Mg5  1  0.75493168  0.50000000  0.00000000  1
  O  O0  1  0.75452504  0.00000000  -0.00000000  1
  O  O1  1  0.26098136  0.50000000  0.50000000  1
  O  O2  1  0.76061560  0.50000000  0.50000000  1
  O  O3  1  0.02002885  0.00000000  0.50000000  1
  O  O4  1  0.50169053  0.00000000  0.50000000  1
  O  O5  1  0.02002885  0.50000000  0.00000000  1
  O  O6  1  0.50169053  0.50000000  -0.00000000  1
loop_
_geom_bond_atom_site_label_1
_geom_bond_atom_site_label_2
_geom_bond_distance
_geom_bond_site_symmetry_2
Li0 O0 1.776962 1_555
Li0 O3 2.288437 1_655
Li0 O5 2.288437 1_645
Li0 O5 2.288437 1_655
Li0 O3 2.288437 1_654
Mg0 O2 1.972377 1_455
Mg0 O1 2.073539 1_555
Mg0 O3 2.261816 1_565
Mg0 O5 2.261816 1_556
Mg0 O5 2.261816 1_555
Mg0 O3 2.261816 1_555
Mg1 O2 1.968969 1_555
Mg1 O1 2.071032 1_555
Mg1 O6 2.261786 1_555
Mg1 O4 2.261786 1_555
Mg1 O4 2.261786 1_565
Mg1 O6 2.261786 1_556
Mg2 O3 1.886040 1_555
Mg2 O4 2.008637 1_555
Mg2 O1 2.259206 1_545
Mg2 O1 2.259206 1_555
Mg2 Rb0 2.622190 1_555
Mg2 Rb0 2.622190 1_556
Mg3 O4 2.047687 1_555
Mg3 O3 2.143554 1_655
Mg3 O0 2.258350 1_555
Mg3 O0 2.258350 1_556
Mg3 O2 2.258815 1_545
Mg3 O2 2.258815 1_555
Mg4 O5 1.886040 1_555
Mg4 O6 2.008637 1_555
Mg4 O1 2.259206 1_555
Mg4 O1 2.259206 1_554
Mg4 Rb0 2.622190 1_565
Mg4 Rb0 2.622190 1_555
Mg5 O6 2.047687 1_555
Mg5 O5 2.143554 1_655
Mg5 O0 2.258350 1_555
Mg5 O0 2.258350 1_565
Mg5 O2 2.258815 1_554
Mg5 O2 2.258815 1_555
O0 Rb0 2.720463 1_555
O4 Rb0 2.357371 1_555
O4 Rb0 2.357371 1_556
O6 Rb0 2.357371 1_565
O6 Rb0 2.357371 1_555
