# generated using pymatgen
data_ZnNiP2O7
_symmetry_space_group_name_H-M   'P 1'
_cell_length_a   6.84787364
_cell_length_b   9.50316267
_cell_length_c   8.18535313
_cell_angle_alpha   93.76544207
_cell_angle_beta   81.76973389
_cell_angle_gamma   110.27625321
_symmetry_Int_Tables_number   1
_chemical_formula_structural   ZnNiP2O7
_chemical_formula_sum   'Zn4 Ni4 P8 O28'
_cell_volume   494.44518796
_cell_formula_units_Z   4
loop_
 _symmetry_equiv_pos_site_id
 _symmetry_equiv_pos_as_xyz
  1  'x, y, z'
loop_
 _atom_site_type_symbol
 _atom_site_label
 _atom_site_symmetry_multiplicity
 _atom_site_fract_x
 _atom_site_fract_y
 _atom_site_fract_z
 _atom_site_occupancy
  Zn  Zn0  1  0.82202400  0.60958400  0.67112500  1
  Zn  Zn1  1  0.32215900  0.10962400  0.17128900  1
  Zn  Zn2  1  0.17779300  0.39021100  0.32874900  1
  Zn  Zn3  1  0.67772000  0.89025800  0.82885000  1
  Ni  Ni0  1  0.65651000  0.87548400  0.21917200  1
  Ni  Ni1  1  0.84336500  0.62523500  0.28065000  1
  Ni  Ni2  1  0.15708800  0.37503200  0.71898500  1
  Ni  Ni3  1  0.34357400  0.12464800  0.78079500  1
  P  P0  1  0.95148600  0.17977000  0.02750900  1
  P  P1  1  0.45133900  0.67968500  0.52758900  1
  P  P2  1  0.04858700  0.82027400  0.97237300  1
  P  P3  1  0.54873700  0.32036400  0.47238400  1
  P  P4  1  0.28831100  0.61834200  0.02567800  1
  P  P5  1  0.78829500  0.11841900  0.52579500  1
  P  P6  1  0.71168500  0.38158900  0.97435500  1
  P  P7  1  0.21168100  0.88157200  0.47431700  1
  O  O0  1  0.13434300  0.68466300  0.94327800  1
  O  O1  1  0.63522100  0.18505200  0.44279900  1
  O  O2  1  0.86552200  0.31525200  0.05694300  1
  O  O3  1  0.36471100  0.81492000  0.55729900  1
  O  O4  1  0.26247800  0.53160600  0.54076100  1
  O  O5  1  0.76228300  0.03196000  0.04064100  1
  O  O6  1  0.73755500  0.46845200  0.45903700  1
  O  O7  1  0.23786100  0.96802700  0.95925200  1
  O  O8  1  0.82860600  0.43484900  0.80024900  1
  O  O9  1  0.32921400  0.93486800  0.30028200  1
  O  O10  1  0.17131600  0.56512300  0.19977200  1
  O  O11  1  0.67079100  0.06511700  0.69980800  1
  O  O12  1  0.69333900  0.50517700  0.09317900  1
  O  O13  1  0.19338600  0.00519200  0.59315500  1
  O  O14  1  0.30661100  0.49475400  0.90677500  1
  O  O15  1  0.80654600  0.99477200  0.40700900  1
  O  O16  1  0.91153200  0.79710100  0.83284300  1
  O  O17  1  0.41129900  0.29695600  0.33306200  1
  O  O18  1  0.08836900  0.20283500  0.16713500  1
  O  O19  1  0.58850800  0.70291200  0.66705300  1
  O  O20  1  0.92482700  0.81083500  0.14481000  1
  O  O21  1  0.42510500  0.31036300  0.64490100  1
  O  O22  1  0.07520100  0.18941600  0.85511100  1
  O  O23  1  0.57504100  0.68978600  0.35513500  1
  O  O24  1  0.50771100  0.24476600  0.96930300  1
  O  O25  1  0.00751800  0.74496400  0.46888400  1
  O  O26  1  0.49231100  0.75514200  0.03084400  1
  O  O27  1  0.99243700  0.25504900  0.53106500  1
loop_
_geom_bond_atom_site_label_1
_geom_bond_atom_site_label_2
_geom_bond_distance
_geom_bond_site_symmetry_2
Ni0 O23 2.015406 1_555
Ni0 O5 2.026629 1_565
Ni0 O15 2.029956 1_555
Ni0 O26 2.078932 1_555
Ni0 O20 2.130038 1_555
Ni0 O9 2.486768 1_555
Ni1 O20 2.014077 1_555
Ni1 O6 2.027702 1_555
Ni1 O12 2.030006 1_555
Ni1 O25 2.076363 1_655
Ni1 O23 2.129698 1_555
Ni1 O10 2.494376 1_655
Ni2 O22 2.015231 1_555
Ni2 O4 2.025440 1_555
Ni2 O14 2.029557 1_555
Ni2 O27 2.076667 1_455
Ni2 O21 2.127927 1_555
Ni2 O8 2.496719 1_455
Ni3 O21 2.015171 1_555
Ni3 O7 2.027101 1_545
Ni3 O13 2.029649 1_555
Ni3 O24 2.079225 1_555
Ni3 O22 2.130981 1_555
Ni3 O11 2.486864 1_555
O0 P2 1.583222 1_555
O0 P4 1.638233 1_556
O1 P3 1.583907 1_555
O1 P5 1.637595 1_555
O2 P0 1.583103 1_555
O2 P6 1.638395 1_554
O3 P1 1.583898 1_555
O3 P7 1.637397 1_555
O4 P1 1.543734 1_555
O4 Zn2 2.143640 1_555
O5 P0 1.543335 1_555
O5 Zn3 2.143442 1_544
O6 P3 1.543651 1_555
O6 Zn0 2.142694 1_555
O7 P2 1.543246 1_555
O7 Zn1 2.144281 1_566
O8 P6 1.554150 1_555
O8 Zn0 2.042677 1_555
O9 P7 1.554860 1_555
O9 Zn1 2.043459 1_565
O10 P4 1.554122 1_555
O10 Zn2 2.043153 1_555
O11 P5 1.554662 1_555
O11 Zn3 2.044199 1_545
O12 P6 1.502800 1_554
O13 P7 1.503009 1_545
O14 P4 1.503095 1_556
O15 P5 1.502879 1_565
O16 P2 1.537644 1_655
O16 Zn3 2.085563 1_555
O16 Zn0 2.113977 1_555
O17 P3 1.537737 1_555
O17 Zn2 2.084690 1_555
O17 Zn1 2.112800 1_555
O18 P0 1.537624 1_455
O18 Zn1 2.085983 1_555
O18 Zn2 2.112466 1_555
O19 P1 1.537661 1_555
O19 Zn0 2.084929 1_555
O19 Zn3 2.113057 1_555
O20 P2 1.529695 1_654
O21 P3 1.529520 1_555
O22 P0 1.529159 1_456
O23 P1 1.529209 1_555
O24 P6 1.547280 1_555
O24 Zn1 2.131613 1_556
O25 P7 1.547323 1_555
O25 Zn0 2.134039 1_455
O26 P4 1.547369 1_555
O26 Zn3 2.131280 1_554
O27 P5 1.547207 1_555
O27 Zn2 2.133301 1_655
