# generated using pymatgen
data_RbN
_symmetry_space_group_name_H-M   'P 1'
_cell_length_a   4.17041800
_cell_length_b   4.63879100
_cell_length_c   5.99293400
_cell_angle_alpha   90.00000000
_cell_angle_beta   90.00000000
_cell_angle_gamma   90.00000000
_symmetry_Int_Tables_number   1
_chemical_formula_structural   RbN
_chemical_formula_sum   'Rb2 N2'
_cell_volume   115.93748821
_cell_formula_units_Z   2
loop_
 _symmetry_equiv_pos_site_id
 _symmetry_equiv_pos_as_xyz
  1  'x, y, z'
loop_
 _atom_site_type_symbol
 _atom_site_label
 _atom_site_symmetry_multiplicity
 _atom_site_fract_x
 _atom_site_fract_y
 _atom_site_fract_z
 _atom_site_occupancy
  Rb  Rb0  1  0.50000000  0.22759300  0.50000000  1
  Rb  Rb1  1  0.00000000  0.77240700  0.00000000  1
  N  N0  1  0.50000000  0.27766800  0.00000000  1
  N  N1  1  0.00000000  0.72233200  0.50000000  1
loop_
_geom_bond_atom_site_label_1
_geom_bond_atom_site_label_2
_geom_bond_distance
_geom_bond_site_symmetry_2
N0 Rb0 3.005457 1_555
N0 Rb0 3.005457 1_554
N0 Rb1 3.100819 1_655
N0 Rb1 3.100819 1_555
N0 Rb1 3.137116 1_645
N0 Rb1 3.137116 1_545
N1 Rb1 3.005457 1_555
N1 Rb1 3.005457 1_556
N1 Rb0 3.100819 1_455
N1 Rb0 3.100819 1_555
N1 Rb0 3.137116 1_565
N1 Rb0 3.137116 1_465
