# generated using pymatgen
data_MgMnBiO5
_symmetry_space_group_name_H-M   'P 1'
_cell_length_a   5.26784100
_cell_length_b   10.72638200
_cell_length_c   15.28296200
_cell_angle_alpha   90.00000000
_cell_angle_beta   90.00000000
_cell_angle_gamma   90.00000000
_symmetry_Int_Tables_number   1
_chemical_formula_structural   MgMnBiO5
_chemical_formula_sum   'Mg8 Mn8 Bi8 O40'
_cell_volume   863.56185563
_cell_formula_units_Z   8
loop_
 _symmetry_equiv_pos_site_id
 _symmetry_equiv_pos_as_xyz
  1  'x, y, z'
loop_
 _atom_site_type_symbol
 _atom_site_label
 _atom_site_symmetry_multiplicity
 _atom_site_fract_x
 _atom_site_fract_y
 _atom_site_fract_z
 _atom_site_occupancy
  Mg  Mg0  1  0.49370900  0.35725800  0.54779000  1
  Mg  Mg1  1  0.99370900  0.14274200  0.54779000  1
  Mg  Mg2  1  0.99370900  0.64274200  0.95221000  1
  Mg  Mg3  1  0.00629100  0.35725800  0.04779000  1
  Mg  Mg4  1  0.50629100  0.14274200  0.04779000  1
  Mg  Mg5  1  0.00629100  0.85725800  0.45221000  1
  Mg  Mg6  1  0.50629100  0.64274200  0.45221000  1
  Mg  Mg7  1  0.49370900  0.85725800  0.95221000  1
  Mn  Mn0  1  0.97836300  0.39954500  0.40757600  1
  Mn  Mn1  1  0.52163700  0.89954500  0.59242400  1
  Mn  Mn2  1  0.02163700  0.60045500  0.59242400  1
  Mn  Mn3  1  0.47836300  0.10045500  0.40757600  1
  Mn  Mn4  1  0.02163700  0.10045500  0.90757600  1
  Mn  Mn5  1  0.97836300  0.89954500  0.09242400  1
  Mn  Mn6  1  0.52163700  0.39954500  0.90757600  1
  Mn  Mn7  1  0.47836300  0.60045500  0.09242400  1
  Bi  Bi0  1  0.97151800  0.85557700  0.77225200  1
  Bi  Bi1  1  0.02848200  0.14442300  0.22774800  1
  Bi  Bi2  1  0.52848200  0.35557700  0.22774800  1
  Bi  Bi3  1  0.02848200  0.64442300  0.27225200  1
  Bi  Bi4  1  0.47151800  0.14442300  0.72774800  1
  Bi  Bi5  1  0.47151800  0.64442300  0.77225200  1
  Bi  Bi6  1  0.52848200  0.85557700  0.27225200  1
  Bi  Bi7  1  0.97151800  0.35557700  0.72774800  1
  O  O0  1  0.93907500  0.33533000  0.30315000  1
  O  O1  1  0.30943500  0.04322800  0.94118000  1
  O  O2  1  0.19056500  0.54322800  0.05882000  1
  O  O3  1  0.26737500  0.77271000  0.85492000  1
  O  O4  1  0.23262500  0.27271000  0.14508000  1
  O  O5  1  0.93907500  0.83533000  0.19685000  1
  O  O6  1  0.23262500  0.77271000  0.35492000  1
  O  O7  1  0.56092500  0.83533000  0.69685000  1
  O  O8  1  0.30943500  0.54322800  0.55882000  1
  O  O9  1  0.06092500  0.66467000  0.69685000  1
  O  O10  1  0.56092500  0.33533000  0.80315000  1
  O  O11  1  0.63976800  0.19312400  0.47885400  1
  O  O12  1  0.80943500  0.95677200  0.55882000  1
  O  O13  1  0.73262500  0.72729000  0.35492000  1
  O  O14  1  0.18392100  0.02335200  0.11826800  1
  O  O15  1  0.80943500  0.45677200  0.94118000  1
  O  O16  1  0.06092500  0.16467000  0.80315000  1
  O  O17  1  0.76737500  0.22729000  0.64508000  1
  O  O18  1  0.13976800  0.80687600  0.02114600  1
  O  O19  1  0.19056500  0.04322800  0.44118000  1
  O  O20  1  0.36023200  0.80687600  0.52114600  1
  O  O21  1  0.81607900  0.97664800  0.88173200  1
  O  O22  1  0.73262500  0.22729000  0.14508000  1
  O  O23  1  0.68392100  0.97664800  0.38173200  1
  O  O24  1  0.36023200  0.30687600  0.97885400  1
  O  O25  1  0.13976800  0.30687600  0.47885400  1
  O  O26  1  0.69056500  0.45677200  0.44118000  1
  O  O27  1  0.69056500  0.95677200  0.05882000  1
  O  O28  1  0.68392100  0.47664800  0.11826800  1
  O  O29  1  0.86023200  0.69312400  0.52114600  1
  O  O30  1  0.86023200  0.19312400  0.97885400  1
  O  O31  1  0.63976800  0.69312400  0.02114600  1
  O  O32  1  0.81607900  0.47664800  0.61826800  1
  O  O33  1  0.76737500  0.72729000  0.85492000  1
  O  O34  1  0.26737500  0.27271000  0.64508000  1
  O  O35  1  0.18392100  0.52335200  0.38173200  1
  O  O36  1  0.31607900  0.52335200  0.88173200  1
  O  O37  1  0.43907500  0.16467000  0.30315000  1
  O  O38  1  0.31607900  0.02335200  0.61826800  1
  O  O39  1  0.43907500  0.66467000  0.19685000  1
loop_
_geom_bond_atom_site_label_1
_geom_bond_atom_site_label_2
_geom_bond_distance
_geom_bond_site_symmetry_2
Mg0 O34 2.110646 1_555
Mg0 O11 2.191243 1_555
Mg0 O26 2.206683 1_555
Mg0 O25 2.208707 1_555
Mg0 O8 2.224836 1_555
Mg0 O32 2.384120 1_555
Mg0 O17 2.496514 1_555
Mg1 O17 2.110646 1_555
Mg1 O25 2.191243 1_655
Mg1 O19 2.206683 1_655
Mg1 O11 2.208707 1_555
Mg1 O12 2.224836 1_545
Mg1 O38 2.384120 1_655
Mg1 O34 2.496514 1_655
Mg2 O33 2.110646 1_555
Mg2 O18 2.191243 1_656
Mg2 O2 2.206683 1_656
Mg2 O31 2.208707 1_556
Mg2 O15 2.224836 1_555
Mg2 O36 2.384120 1_655
Mg2 O3 2.496514 1_655
Mg3 O4 2.110646 1_555
Mg3 O30 2.191243 1_454
Mg3 O15 2.206683 1_454
Mg3 O24 2.208707 1_554
Mg3 O2 2.224836 1_555
Mg3 O28 2.384120 1_455
Mg3 O22 2.496514 1_455
Mg4 O22 2.110646 1_555
Mg4 O24 2.191243 1_554
Mg4 O1 2.206683 1_554
Mg4 O30 2.208707 1_554
Mg4 O27 2.224836 1_545
Mg4 O14 2.384120 1_555
Mg4 O4 2.496514 1_555
Mg5 O6 2.110646 1_555
Mg5 O29 2.191243 1_455
Mg5 O12 2.206683 1_455
Mg5 O20 2.208707 1_555
Mg5 O19 2.224836 1_565
Mg5 O23 2.384120 1_455
Mg5 O13 2.496514 1_455
Mg6 O13 2.110646 1_555
Mg6 O20 2.191243 1_555
Mg6 O8 2.206683 1_555
Mg6 O29 2.208707 1_555
Mg6 O26 2.224836 1_555
Mg6 O35 2.384120 1_555
Mg6 O6 2.496514 1_555
Mg7 O3 2.110646 1_555
Mg7 O31 2.191243 1_556
Mg7 O27 2.206683 1_556
Mg7 O18 2.208707 1_556
Mg7 O1 2.224836 1_565
Mg7 O21 2.384120 1_555
Mg7 O33 2.496514 1_555
Mn0 O25 1.702245 1_655
Mn0 O26 1.714360 1_555
Mn0 O0 1.750512 1_555
Mn0 O35 1.758450 1_655
Mn1 O20 1.702245 1_555
Mn1 O12 1.714360 1_555
Mn1 O7 1.750512 1_555
Mn1 O38 1.758450 1_565
Mn2 O29 1.702245 1_455
Mn2 O8 1.714360 1_555
Mn2 O9 1.750512 1_555
Mn2 O32 1.758450 1_455
Mn3 O11 1.702245 1_555
Mn3 O19 1.714360 1_555
Mn3 O37 1.750512 1_555
Mn3 O23 1.758450 1_545
Mn4 O30 1.702245 1_455
Mn4 O1 1.714360 1_555
Mn4 O16 1.750512 1_555
Mn4 O21 1.758450 1_445
Mn5 O18 1.702245 1_655
Mn5 O27 1.714360 1_555
Mn5 O5 1.750512 1_555
Mn5 O14 1.758450 1_665
Mn6 O24 1.702245 1_555
Mn6 O15 1.714360 1_555
Mn6 O10 1.750512 1_555
Mn6 O36 1.758450 1_555
Mn7 O31 1.702245 1_555
Mn7 O2 1.714360 1_555
Mn7 O39 1.750512 1_555
Mn7 O28 1.758450 1_555
Bi0 O33 2.155506 1_555
Bi0 O3 2.194378 1_655
Bi0 O21 2.270795 1_555
Bi0 O9 2.396459 1_655
Bi0 O7 2.460369 1_555
Bi1 O4 2.155506 1_555
Bi1 O22 2.194378 1_455
Bi1 O14 2.270795 1_555
Bi1 O0 2.396459 1_455
Bi1 O37 2.460369 1_555
Bi2 O22 2.155506 1_555
Bi2 O4 2.194378 1_555
Bi2 O28 2.270795 1_555
Bi2 O37 2.396459 1_555
Bi2 O0 2.460369 1_555
Bi3 O6 2.155506 1_555
Bi3 O13 2.194378 1_455
Bi3 O35 2.270795 1_555
Bi3 O5 2.396459 1_455
Bi3 O39 2.460369 1_555
Bi4 O34 2.155506 1_555
Bi4 O17 2.194378 1_555
Bi4 O38 2.270795 1_555
Bi4 O10 2.396459 1_555
Bi4 O16 2.460369 1_555
Bi5 O3 2.155506 1_555
Bi5 O33 2.194378 1_555
Bi5 O36 2.270795 1_555
Bi5 O7 2.396459 1_555
Bi5 O9 2.460369 1_555
Bi6 O13 2.155506 1_555
Bi6 O6 2.194378 1_555
Bi6 O23 2.270795 1_555
Bi6 O39 2.396459 1_555
Bi6 O5 2.460369 1_555
Bi7 O17 2.155506 1_555
Bi7 O34 2.194378 1_655
Bi7 O32 2.270795 1_555
Bi7 O16 2.396459 1_655
Bi7 O10 2.460369 1_555
