# generated using pymatgen
data_AlCrNi
_symmetry_space_group_name_H-M   'P 1'
_cell_length_a   4.90866716
_cell_length_b   4.90866716
_cell_length_c   4.90866716
_cell_angle_alpha   127.85037286
_cell_angle_beta   121.62940710
_cell_angle_gamma   82.06645218
_symmetry_Int_Tables_number   1
_chemical_formula_structural   AlCrNi
_chemical_formula_sum   'Al2 Cr2 Ni2'
_cell_volume   76.49088768
_cell_formula_units_Z   2
loop_
 _symmetry_equiv_pos_site_id
 _symmetry_equiv_pos_as_xyz
  1  'x, y, z'
loop_
 _atom_site_type_symbol
 _atom_site_label
 _atom_site_symmetry_multiplicity
 _atom_site_fract_x
 _atom_site_fract_y
 _atom_site_fract_z
 _atom_site_occupancy
  Al  Al0  1  0.36030300  0.11030300  0.25000000  1
  Al  Al1  1  0.63969700  0.88969700  0.75000000  1
  Cr  Cr0  1  0.00000000  0.00000000  0.50000000  1
  Cr  Cr1  1  0.00000000  0.50000000  0.00000000  1
  Ni  Ni0  1  0.00000000  0.50000000  0.50000000  1
  Ni  Ni1  1  0.50000000  0.50000000  0.00000000  1
loop_
_geom_bond_atom_site_label_1
_geom_bond_atom_site_label_2
_geom_bond_distance
_geom_bond_site_symmetry_2
Al0 Ni0 2.598992 1_544
Al0 Ni0 2.598992 1_555
Al0 Ni1 2.598992 1_545
Al0 Ni1 2.598992 1_556
Al0 Cr1 2.821976 1_555
Al0 Cr1 2.821976 1_656
Al0 Cr0 2.821976 1_554
Al0 Cr0 2.821976 1_655
Al0 Cr1 2.878055 1_545
Al0 Cr0 2.878055 1_555
Al0 Al1 2.898014 1_545
Al0 Al1 2.898014 1_444
Al0 Al1 2.989334 1_555
Al0 Al1 2.989334 1_544
Al0 Ni1 3.124229 1_555
Al0 Ni0 3.124229 1_655
Al1 Ni1 2.598992 1_555
Al1 Ni0 2.598992 1_655
Al1 Ni1 2.598992 1_566
Al1 Ni0 2.598992 1_666
Al1 Cr0 2.821976 1_565
Al1 Cr1 2.821976 1_555
Al1 Cr1 2.821976 1_656
Al1 Cr0 2.821976 1_666
Al1 Cr1 2.878055 1_666
Al1 Cr0 2.878055 1_665
Al1 Ni0 3.124229 1_555
Al1 Ni1 3.124229 1_556
Cr0 Cr1 2.157577 1_545
Cr0 Cr1 2.157577 1_556
Cr0 Ni1 2.454334 1_556
Cr0 Ni0 2.454334 1_555
Cr0 Ni0 2.454334 1_545
Cr0 Ni1 2.454334 1_445
Cr1 Ni0 2.454334 1_554
Cr1 Ni1 2.454334 1_455
Cr1 Ni0 2.454334 1_555
Cr1 Ni1 2.454334 1_555
Ni0 Ni1 2.393641 1_556
Ni0 Ni1 2.393641 1_455
