# generated using pymatgen
data_MgSc4(Si2O7)2
_symmetry_space_group_name_H-M   'P 1'
_cell_length_a   6.90780900
_cell_length_b   6.90780897
_cell_length_c   6.90780853
_cell_angle_alpha   57.36992186
_cell_angle_beta   57.36992290
_cell_angle_gamma   57.36991811
_symmetry_Int_Tables_number   1
_chemical_formula_structural   MgSc4(Si2O7)2
_chemical_formula_sum   'Mg1 Sc4 Si4 O14'
_cell_volume   218.97193034
_cell_formula_units_Z   1
loop_
 _symmetry_equiv_pos_site_id
 _symmetry_equiv_pos_as_xyz
  1  'x, y, z'
loop_
 _atom_site_type_symbol
 _atom_site_label
 _atom_site_symmetry_multiplicity
 _atom_site_fract_x
 _atom_site_fract_y
 _atom_site_fract_z
 _atom_site_occupancy
  Mg  Mg0  1  0.23811900  0.23811900  0.23811900  1
  Sc  Sc0  1  0.96129400  0.52613400  0.96129400  1
  Sc  Sc1  1  0.52613400  0.96129400  0.96129400  1
  Sc  Sc2  1  0.96129400  0.96129400  0.52613400  1
  Sc  Sc3  1  0.00278600  0.00278600  0.00278600  1
  Si  Si0  1  0.50594000  0.99762800  0.50594000  1
  Si  Si1  1  0.99762800  0.50594000  0.50594000  1
  Si  Si2  1  0.50594000  0.50594000  0.99762800  1
  Si  Si3  1  0.50530500  0.50530500  0.50530500  1
  O  O0  1  0.42321800  0.81982700  0.81982700  1
  O  O1  1  0.17505900  0.57603400  0.57603400  1
  O  O2  1  0.81982700  0.42321800  0.81982700  1
  O  O3  1  0.81982700  0.81982700  0.42321800  1
  O  O4  1  0.42455900  0.42455900  0.83397300  1
  O  O5  1  0.42455900  0.83397300  0.42455900  1
  O  O6  1  0.18785000  0.57516200  0.18785000  1
  O  O7  1  0.57603400  0.17505900  0.57603400  1
  O  O8  1  0.12443200  0.12443200  0.12443200  1
  O  O9  1  0.88717600  0.88717600  0.88717600  1
  O  O10  1  0.83397300  0.42455900  0.42455900  1
  O  O11  1  0.57603400  0.57603400  0.17505900  1
  O  O12  1  0.18785000  0.18785000  0.57516200  1
  O  O13  1  0.57516200  0.18785000  0.18785000  1
loop_
_geom_bond_atom_site_label_1
_geom_bond_atom_site_label_2
_geom_bond_distance
_geom_bond_site_symmetry_2
Mg0 O8 1.961006 1_555
Mg0 O12 2.011987 1_555
Mg0 O6 2.011987 1_555
Mg0 O13 2.011987 1_555
Mg0 O5 2.268278 1_545
Mg0 O10 2.268278 1_455
Mg0 O4 2.268278 1_554
O0 Si0 1.756468 1_555
O0 Si2 1.756468 1_555
O0 Sc1 2.223435 1_555
O0 Sc3 2.331335 1_566
O1 Si1 1.871889 1_455
O1 Si3 1.880179 1_555
O1 Sc2 2.168745 1_455
O1 Sc0 2.168745 1_455
O2 Si1 1.756468 1_555
O2 Si2 1.756468 1_555
O2 Sc0 2.223435 1_555
O2 Sc3 2.331335 1_656
O3 Si1 1.756468 1_555
O3 Si0 1.756468 1_555
O3 Sc2 2.223435 1_555
O3 Sc3 2.331335 1_665
O4 Si3 1.838747 1_555
O4 Si2 1.903058 1_555
O4 Sc1 2.591429 1_545
O4 Sc0 2.591429 1_455
O5 Si3 1.838747 1_555
O5 Si0 1.903058 1_555
O5 Sc1 2.591429 1_554
O5 Sc2 2.591429 1_455
O6 Si1 1.792823 1_455
O6 Si2 1.792823 1_554
O6 Sc3 2.368943 1_565
O7 Si0 1.871889 1_545
O7 Si3 1.880179 1_555
O7 Sc1 2.168745 1_545
O7 Sc2 2.168745 1_545
O8 Sc3 2.098293 1_555
O8 Sc0 2.205626 1_454
O8 Sc2 2.205626 1_445
O8 Sc1 2.205626 1_544
O9 Sc3 1.994177 1_666
O9 Sc2 2.067107 1_555
O9 Sc0 2.067108 1_555
O9 Sc1 2.067108 1_555
O10 Si3 1.838747 1_555
O10 Si1 1.903058 1_555
O10 Sc0 2.591429 1_554
O10 Sc2 2.591429 1_545
O11 Si2 1.871889 1_554
O11 Si3 1.880179 1_555
O11 Sc1 2.168745 1_554
O11 Sc0 2.168745 1_554
O12 Si1 1.792823 1_455
O12 Si0 1.792823 1_545
O12 Sc3 2.368943 1_556
O13 Si0 1.792823 1_545
O13 Si2 1.792823 1_554
O13 Sc3 2.368943 1_655
