# generated using pymatgen
data_PuAl3
_symmetry_space_group_name_H-M   'P 1'
_cell_length_a   6.21520074
_cell_length_b   6.21519675
_cell_length_c   4.63705792
_cell_angle_alpha   90.00000000
_cell_angle_beta   90.00000000
_cell_angle_gamma   119.99998899
_symmetry_Int_Tables_number   1
_chemical_formula_structural   PuAl3
_chemical_formula_sum   'Pu2 Al6'
_cell_volume   155.12551705
_cell_formula_units_Z   2
loop_
 _symmetry_equiv_pos_site_id
 _symmetry_equiv_pos_as_xyz
  1  'x, y, z'
loop_
 _atom_site_type_symbol
 _atom_site_label
 _atom_site_symmetry_multiplicity
 _atom_site_fract_x
 _atom_site_fract_y
 _atom_site_fract_z
 _atom_site_occupancy
  Pu  Pu0  1  0.33333300  0.66666700  0.75000000  1
  Pu  Pu1  1  0.66666700  0.33333300  0.25000000  1
  Al  Al0  1  0.15022681  0.30045362  0.25000000  1
  Al  Al1  1  0.69954638  0.84977319  0.25000000  1
  Al  Al2  1  0.15022681  0.84977319  0.25000000  1
  Al  Al3  1  0.84977419  0.69954938  0.75000000  1
  Al  Al4  1  0.30045062  0.15022581  0.75000000  1
  Al  Al5  1  0.84977419  0.15022581  0.75000000  1
loop_
_geom_bond_atom_site_label_1
_geom_bond_atom_site_label_2
_geom_bond_distance
_geom_bond_site_symmetry_2
Al0 Al2 2.801068 1_545
Al0 Al1 2.801069 1_445
Al0 Al4 2.826813 1_554
Al0 Al4 2.826813 1_555
Al0 Al5 2.826816 1_455
Al0 Al5 2.826816 1_454
Al0 Pu0 3.043191 1_554
Al0 Pu0 3.043191 1_555
Al0 Pu1 3.112632 1_455
Al0 Pu1 3.112639 1_555
Al1 Al2 2.801069 1_655
Al1 Al3 2.826813 1_554
Al1 Al3 2.826813 1_555
Al1 Al5 2.826816 1_564
Al1 Al5 2.826816 1_565
Al1 Pu0 3.043192 1_554
Al1 Pu0 3.043192 1_555
Al1 Pu1 3.112630 1_565
Al1 Pu1 3.112637 1_555
Al2 Al4 2.826816 1_565
Al2 Al4 2.826816 1_564
Al2 Al3 2.826816 1_455
Al2 Al3 2.826816 1_454
Al2 Pu0 3.043188 1_554
Al2 Pu0 3.043188 1_555
Al2 Pu1 3.112635 1_455
Al2 Pu1 3.112635 1_565
Al3 Al5 2.801043 1_565
Al3 Al4 2.801044 1_665
Al3 Pu1 3.043201 1_556
Al3 Pu1 3.043201 1_555
Al3 Pu0 3.112636 1_655
Al3 Pu0 3.112637 1_555
Al4 Al5 2.801044 1_455
Al4 Pu1 3.043202 1_556
Al4 Pu1 3.043202 1_555
Al4 Pu0 3.112634 1_555
Al4 Pu0 3.112634 1_545
Al5 Pu1 3.043195 1_555
Al5 Pu1 3.043195 1_556
Al5 Pu0 3.112636 1_655
Al5 Pu0 3.112636 1_545
