# generated using pymatgen
data_MnH6SO7
_symmetry_space_group_name_H-M   'P 1'
_cell_length_a   10.21057100
_cell_length_b   10.21951500
_cell_length_c   12.08624000
_cell_angle_alpha   90.00000000
_cell_angle_beta   90.00000000
_cell_angle_gamma   90.00000000
_symmetry_Int_Tables_number   1
_chemical_formula_structural   MnH6SO7
_chemical_formula_sum   'Mn8 H48 S8 O56'
_cell_volume   1261.16389440
_cell_formula_units_Z   8
loop_
 _symmetry_equiv_pos_site_id
 _symmetry_equiv_pos_as_xyz
  1  'x, y, z'
loop_
 _atom_site_type_symbol
 _atom_site_label
 _atom_site_symmetry_multiplicity
 _atom_site_fract_x
 _atom_site_fract_y
 _atom_site_fract_z
 _atom_site_occupancy
  Mn  Mn0  1  0.58871800  0.80188300  0.27426600  1
  Mn  Mn1  1  0.08871800  0.69811700  0.72573400  1
  Mn  Mn2  1  0.41128200  0.30188300  0.22573400  1
  Mn  Mn3  1  0.91128200  0.19811700  0.77426600  1
  Mn  Mn4  1  0.41128200  0.19811700  0.72573400  1
  Mn  Mn5  1  0.91128200  0.30188300  0.27426600  1
  Mn  Mn6  1  0.58871800  0.69811700  0.77426600  1
  Mn  Mn7  1  0.08871800  0.80188300  0.22573400  1
  H  H0  1  0.38450200  0.80568900  0.11046500  1
  H  H1  1  0.88450200  0.69431100  0.88953500  1
  H  H2  1  0.61549800  0.30568900  0.38953500  1
  H  H3  1  0.11549800  0.19431100  0.61046500  1
  H  H4  1  0.61549800  0.19431100  0.88953500  1
  H  H5  1  0.11549800  0.30568900  0.11046500  1
  H  H6  1  0.38450200  0.69431100  0.61046500  1
  H  H7  1  0.88450200  0.80568900  0.38953500  1
  H  H8  1  0.49786500  0.89480700  0.06600200  1
  H  H9  1  0.99786500  0.60519300  0.93399800  1
  H  H10  1  0.50213500  0.39480700  0.43399800  1
  H  H11  1  0.00213500  0.10519300  0.56600200  1
  H  H12  1  0.50213500  0.10519300  0.93399800  1
  H  H13  1  0.00213500  0.39480700  0.06600200  1
  H  H14  1  0.49786500  0.60519300  0.56600200  1
  H  H15  1  0.99786500  0.89480700  0.43399800  1
  H  H16  1  0.36071100  0.66184100  0.32806300  1
  H  H17  1  0.86071100  0.83815900  0.67193700  1
  H  H18  1  0.63928900  0.16184100  0.17193700  1
  H  H19  1  0.13928900  0.33815900  0.82806300  1
  H  H20  1  0.63928900  0.33815900  0.67193700  1
  H  H21  1  0.13928900  0.16184100  0.32806300  1
  H  H22  1  0.36071100  0.83815900  0.82806300  1
  H  H23  1  0.86071100  0.66184100  0.17193700  1
  H  H24  1  0.47467600  0.57847300  0.27673900  1
  H  H25  1  0.97467600  0.92152700  0.72326100  1
  H  H26  1  0.52532400  0.07847300  0.22326100  1
  H  H27  1  0.02532400  0.42152700  0.77673900  1
  H  H28  1  0.52532400  0.42152700  0.72326100  1
  H  H29  1  0.02532400  0.07847300  0.27673900  1
  H  H30  1  0.47467600  0.92152700  0.77673900  1
  H  H31  1  0.97467600  0.57847300  0.22326100  1
  H  H32  1  0.72705300  0.69210400  0.46936000  1
  H  H33  1  0.22705300  0.80789600  0.53064000  1
  H  H34  1  0.27294700  0.19210400  0.03064000  1
  H  H35  1  0.77294700  0.30789600  0.96936000  1
  H  H36  1  0.27294700  0.30789600  0.53064000  1
  H  H37  1  0.77294700  0.19210400  0.46936000  1
  H  H38  1  0.72705300  0.80789600  0.96936000  1
  H  H39  1  0.22705300  0.69210400  0.03064000  1
  H  H40  1  0.70537400  0.84811800  0.47777100  1
  H  H41  1  0.20537400  0.65188200  0.52222900  1
  H  H42  1  0.29462600  0.34811800  0.02222900  1
  H  H43  1  0.79462600  0.15188200  0.97777100  1
  H  H44  1  0.29462600  0.15188200  0.52222900  1
  H  H45  1  0.79462600  0.34811800  0.47777100  1
  H  H46  1  0.70537400  0.65188200  0.97777100  1
  H  H47  1  0.20537400  0.84811800  0.02222900  1
  S  S0  1  0.66846000  0.50039000  0.15002100  1
  S  S1  1  0.16846000  0.99961000  0.84997900  1
  S  S2  1  0.33154000  0.00039000  0.34997900  1
  S  S3  1  0.83154000  0.49961000  0.65002100  1
  S  S4  1  0.33154000  0.49961000  0.84997900  1
  S  S5  1  0.83154000  0.00039000  0.15002100  1
  S  S6  1  0.66846000  0.99961000  0.65002100  1
  S  S7  1  0.16846000  0.50039000  0.34997900  1
  O  O0  1  0.52493200  0.47368600  0.16642200  1
  O  O1  1  0.02493200  0.02631400  0.83357800  1
  O  O2  1  0.47506800  0.97368600  0.33357800  1
  O  O3  1  0.97506800  0.52631400  0.66642200  1
  O  O4  1  0.47506800  0.52631400  0.83357800  1
  O  O5  1  0.97506800  0.97368600  0.16642200  1
  O  O6  1  0.52493200  0.02631400  0.66642200  1
  O  O7  1  0.02493200  0.47368600  0.33357800  1
  O  O8  1  0.74516500  0.41167900  0.22224900  1
  O  O9  1  0.24516500  0.08832100  0.77775100  1
  O  O10  1  0.25483500  0.91167900  0.27775100  1
  O  O11  1  0.75483500  0.58832100  0.72224900  1
  O  O12  1  0.25483500  0.58832100  0.77775100  1
  O  O13  1  0.75483500  0.91167900  0.22224900  1
  O  O14  1  0.74516500  0.08832100  0.72224900  1
  O  O15  1  0.24516500  0.41167900  0.27775100  1
  O  O16  1  0.70734600  0.48449200  0.03262100  1
  O  O17  1  0.20734600  0.01550800  0.96737900  1
  O  O18  1  0.29265400  0.98449200  0.46737900  1
  O  O19  1  0.79265400  0.51550800  0.53262100  1
  O  O20  1  0.29265400  0.51550800  0.96737900  1
  O  O21  1  0.79265400  0.98449200  0.03262100  1
  O  O22  1  0.70734600  0.01550800  0.53262100  1
  O  O23  1  0.20734600  0.48449200  0.46737900  1
  O  O24  1  0.69416800  0.63982600  0.18421600  1
  O  O25  1  0.19416800  0.86017400  0.81578400  1
  O  O26  1  0.30583200  0.13982600  0.31578400  1
  O  O27  1  0.80583200  0.36017400  0.68421600  1
  O  O28  1  0.30583200  0.36017400  0.81578400  1
  O  O29  1  0.80583200  0.13982600  0.18421600  1
  O  O30  1  0.69416800  0.86017400  0.68421600  1
  O  O31  1  0.19416800  0.63982600  0.31578400  1
  O  O32  1  0.48058600  0.82164700  0.11515400  1
  O  O33  1  0.98058600  0.67835300  0.88484600  1
  O  O34  1  0.51941400  0.32164700  0.38484600  1
  O  O35  1  0.01941400  0.17835300  0.61515400  1
  O  O36  1  0.51941400  0.17835300  0.88484600  1
  O  O37  1  0.01941400  0.32164700  0.11515400  1
  O  O38  1  0.48058600  0.67835300  0.61515400  1
  O  O39  1  0.98058600  0.82164700  0.38484600  1
  O  O40  1  0.45776400  0.64895700  0.33154200  1
  O  O41  1  0.95776400  0.85104300  0.66845800  1
  O  O42  1  0.54223600  0.14895700  0.16845800  1
  O  O43  1  0.04223600  0.35104300  0.83154200  1
  O  O44  1  0.54223600  0.35104300  0.66845800  1
  O  O45  1  0.04223600  0.14895700  0.33154200  1
  O  O46  1  0.45776400  0.85104300  0.83154200  1
  O  O47  1  0.95776400  0.64895700  0.16845800  1
  O  O48  1  0.71837100  0.77319300  0.42603400  1
  O  O49  1  0.21837100  0.72680700  0.57396600  1
  O  O50  1  0.28162900  0.27319300  0.07396600  1
  O  O51  1  0.78162900  0.22680700  0.92603400  1
  O  O52  1  0.28162900  0.22680700  0.57396600  1
  O  O53  1  0.78162900  0.27319300  0.42603400  1
  O  O54  1  0.71837100  0.72680700  0.92603400  1
  O  O55  1  0.21837100  0.77319300  0.07396600  1
loop_
_geom_bond_atom_site_label_1
_geom_bond_atom_site_label_2
_geom_bond_distance
_geom_bond_site_symmetry_2
Mn0 O13 2.128661 1_555
Mn0 O40 2.170144 1_555
Mn0 O2 2.223313 1_555
Mn0 O32 2.226655 1_555
Mn0 O24 2.255359 1_555
Mn0 O48 2.281045 1_555
Mn1 O12 2.128661 1_555
Mn1 O41 2.170144 1_455
Mn1 O3 2.223313 1_455
Mn1 O33 2.226655 1_455
Mn1 O25 2.255359 1_555
Mn1 O49 2.281045 1_555
Mn2 O15 2.128661 1_555
Mn2 O42 2.170144 1_555
Mn2 O0 2.223313 1_555
Mn2 O34 2.226655 1_555
Mn2 O26 2.255359 1_555
Mn2 O50 2.281045 1_555
Mn3 O14 2.128661 1_555
Mn3 O43 2.170144 1_655
Mn3 O1 2.223313 1_655
Mn3 O35 2.226655 1_655
Mn3 O27 2.255359 1_555
Mn3 O51 2.281045 1_555
Mn4 O9 2.128661 1_555
Mn4 O44 2.170144 1_555
Mn4 O6 2.223313 1_555
Mn4 O36 2.226655 1_555
Mn4 O28 2.255359 1_555
Mn4 O52 2.281045 1_555
Mn5 O8 2.128661 1_555
Mn5 O45 2.170144 1_655
Mn5 O7 2.223313 1_655
Mn5 O37 2.226655 1_655
Mn5 O29 2.255359 1_555
Mn5 O53 2.281045 1_555
Mn6 O11 2.128661 1_555
Mn6 O46 2.170144 1_555
Mn6 O4 2.223313 1_555
Mn6 O38 2.226655 1_555
Mn6 O30 2.255359 1_555
Mn6 O54 2.281045 1_555
Mn7 O10 2.128661 1_555
Mn7 O47 2.170144 1_455
Mn7 O5 2.223313 1_455
Mn7 O39 2.226655 1_455
Mn7 O31 2.255359 1_555
Mn7 O55 2.281045 1_555
H0 O32 0.996148 1_555
H1 O33 0.996148 1_555
H2 O34 0.996148 1_555
H3 O35 0.996148 1_555
H4 O36 0.996148 1_555
H5 O37 0.996148 1_555
H6 O38 0.996148 1_555
H7 O39 0.996148 1_555
H8 O32 0.971099 1_555
H9 O33 0.971099 1_555
H10 O34 0.971099 1_555
H11 O35 0.971099 1_555
H12 O36 0.971099 1_555
H13 O37 0.971099 1_555
H14 O38 0.971099 1_555
H15 O39 0.971099 1_555
H16 O40 1.000559 1_555
H16 O31 1.721726 1_555
H17 O41 1.000559 1_555
H17 O30 1.721726 1_555
H18 O42 1.000559 1_555
H18 O29 1.721726 1_555
H19 O43 1.000559 1_555
H19 O28 1.721726 1_555
H20 O44 1.000559 1_555
H20 O27 1.721726 1_555
H21 O45 1.000559 1_555
H21 O26 1.721726 1_555
H22 O46 1.000559 1_555
H22 O25 1.721726 1_555
H23 O47 1.000559 1_555
H23 O24 1.721726 1_555
H24 O40 0.993676 1_555
H25 O41 0.993676 1_555
H26 O42 0.993676 1_555
H27 O43 0.993676 1_555
H28 O44 0.993676 1_555
H29 O45 0.993676 1_555
H30 O46 0.993676 1_555
H31 O47 0.993676 1_555
H32 O48 0.984273 1_555
H33 O49 0.984273 1_555
H34 O50 0.984273 1_555
H35 O51 0.984273 1_555
H36 O52 0.984273 1_555
H37 O53 0.984273 1_555
H38 O54 0.984273 1_555
H39 O55 0.984273 1_555
H40 O48 0.997452 1_555
H41 O49 0.997452 1_555
H42 O50 0.997452 1_555
H43 O51 0.997452 1_555
H44 O52 0.997452 1_555
H45 O53 0.997452 1_555
H46 O54 0.997452 1_555
H47 O55 0.997452 1_555
O0 S0 1.503818 1_555
O1 S1 1.503818 1_545
O2 S2 1.503818 1_565
O3 S3 1.503818 1_555
O4 S4 1.503818 1_555
O5 S5 1.503818 1_565
O6 S6 1.503818 1_545
O7 S7 1.503818 1_555
O8 S0 1.482352 1_555
O9 S1 1.482352 1_545
O10 S2 1.482352 1_565
O11 S3 1.482352 1_555
O12 S4 1.482352 1_555
O13 S5 1.482352 1_565
O14 S6 1.482352 1_545
O15 S7 1.482352 1_555
O16 S0 1.482360 1_555
O17 S1 1.482360 1_545
O18 S2 1.482360 1_565
O19 S3 1.482360 1_555
O20 S4 1.482360 1_555
O21 S5 1.482360 1_565
O22 S6 1.482360 1_545
O23 S7 1.482360 1_555
O24 S0 1.506733 1_555
O25 S1 1.506733 1_555
O26 S2 1.506733 1_555
O27 S3 1.506733 1_555
O28 S4 1.506733 1_555
O29 S5 1.506733 1_555
O30 S6 1.506733 1_555
O31 S7 1.506733 1_555
