# generated using pymatgen
data_Mg(FeS2)4
_symmetry_space_group_name_H-M   'P 1'
_cell_length_a   7.12159719
_cell_length_b   7.12159719
_cell_length_c   7.12159724
_cell_angle_alpha   55.17053940
_cell_angle_beta   55.17053940
_cell_angle_gamma   55.17053804
_symmetry_Int_Tables_number   1
_chemical_formula_structural   Mg(FeS2)4
_chemical_formula_sum   'Mg1 Fe4 S8'
_cell_volume   226.71974432
_cell_formula_units_Z   1
loop_
 _symmetry_equiv_pos_site_id
 _symmetry_equiv_pos_as_xyz
  1  'x, y, z'
loop_
 _atom_site_type_symbol
 _atom_site_label
 _atom_site_symmetry_multiplicity
 _atom_site_fract_x
 _atom_site_fract_y
 _atom_site_fract_z
 _atom_site_occupancy
  Mg  Mg0  1  0.50000000  0.50000000  0.50000000  1
  Fe  Fe0  1  0.00000000  0.50000000  0.50000000  1
  Fe  Fe1  1  0.50000000  0.00000000  0.50000000  1
  Fe  Fe2  1  0.50000000  0.50000000  0.00000000  1
  Fe  Fe3  1  0.00000000  0.00000000  0.00000000  1
  S  S0  1  0.26403100  0.76362700  0.76362700  1
  S  S1  1  0.23637300  0.23637300  0.73596900  1
  S  S2  1  0.73596900  0.23637300  0.23637300  1
  S  S3  1  0.23637300  0.73596900  0.23637300  1
  S  S4  1  0.26253100  0.26253100  0.26253100  1
  S  S5  1  0.73746900  0.73746900  0.73746900  1
  S  S6  1  0.76362700  0.26403100  0.76362700  1
  S  S7  1  0.76362700  0.76362700  0.26403100  1
loop_
_geom_bond_atom_site_label_1
_geom_bond_atom_site_label_2
_geom_bond_distance
_geom_bond_site_symmetry_2
Mg0 S6 2.586918 1_555
Mg0 S0 2.586918 1_555
Mg0 S2 2.586918 1_555
Mg0 S3 2.586918 1_555
Mg0 S7 2.586918 1_555
Mg0 S1 2.586918 1_555
Fe0 S1 2.280322 1_555
Fe0 S7 2.280322 1_455
Fe0 S3 2.280322 1_555
Fe0 S6 2.280322 1_455
Fe0 S5 2.293274 1_455
Fe0 S4 2.293274 1_555
Fe1 S1 2.280322 1_555
Fe1 S7 2.280322 1_545
Fe1 S2 2.280322 1_555
Fe1 S0 2.280322 1_545
Fe1 S5 2.293274 1_545
Fe1 S4 2.293274 1_555
Fe2 S2 2.280322 1_555
Fe2 S3 2.280322 1_555
Fe2 S0 2.280322 1_554
Fe2 S6 2.280322 1_554
Fe2 S5 2.293274 1_554
Fe2 S4 2.293274 1_555
Fe3 S3 2.282248 1_545
Fe3 S2 2.282248 1_455
Fe3 S0 2.282248 1_544
Fe3 S6 2.282248 1_454
Fe3 S1 2.282248 1_554
Fe3 S7 2.282248 1_445
