# generated using pymatgen
data_Pr2Mn4Co13
_symmetry_space_group_name_H-M   'P 1'
_cell_length_a   6.42017245
_cell_length_b   6.42017245
_cell_length_c   6.42017222
_cell_angle_alpha   82.88038035
_cell_angle_beta   82.88038035
_cell_angle_gamma   82.88037444
_symmetry_Int_Tables_number   1
_chemical_formula_structural   Pr2Mn4Co13
_chemical_formula_sum   'Pr2 Mn4 Co13'
_cell_volume   258.97636766
_cell_formula_units_Z   1
loop_
 _symmetry_equiv_pos_site_id
 _symmetry_equiv_pos_as_xyz
  1  'x, y, z'
loop_
 _atom_site_type_symbol
 _atom_site_label
 _atom_site_symmetry_multiplicity
 _atom_site_fract_x
 _atom_site_fract_y
 _atom_site_fract_z
 _atom_site_occupancy
  Pr  Pr0  1  0.65907900  0.65907900  0.65907900  1
  Pr  Pr1  1  0.34234700  0.34234700  0.34234700  1
  Mn  Mn0  1  0.99566000  0.99566000  0.50692200  1
  Mn  Mn1  1  0.99566000  0.50692200  0.99566000  1
  Mn  Mn2  1  0.50692200  0.99566000  0.99566000  1
  Mn  Mn3  1  0.09404800  0.09404800  0.09404800  1
  Co  Co0  1  0.28427700  0.71523100  0.99983000  1
  Co  Co1  1  0.71523100  0.99983000  0.28427700  1
  Co  Co2  1  0.99983000  0.28427700  0.71523100  1
  Co  Co3  1  0.28427700  0.99983000  0.71523100  1
  Co  Co4  1  0.99983000  0.71523100  0.28427700  1
  Co  Co5  1  0.71523100  0.28427700  0.99983000  1
  Co  Co6  1  0.34237800  0.34237800  0.84275400  1
  Co  Co7  1  0.34237800  0.84275400  0.34237800  1
  Co  Co8  1  0.84275400  0.34237800  0.34237800  1
  Co  Co9  1  0.65792800  0.65792800  0.16099500  1
  Co  Co10  1  0.65792800  0.16099500  0.65792800  1
  Co  Co11  1  0.16099500  0.65792800  0.65792800  1
  Co  Co12  1  0.90324900  0.90324900  0.90324900  1
loop_
_geom_bond_atom_site_label_1
_geom_bond_atom_site_label_2
_geom_bond_distance
_geom_bond_site_symmetry_2
Mn0 Mn3 2.663296 1_665
Mn0 Pr0 3.225569 1_555
Mn0 Pr1 3.329686 1_665
Mn1 Mn3 2.663296 1_656
Mn1 Pr0 3.225569 1_555
Mn1 Pr1 3.329686 1_656
Mn2 Mn3 2.663296 1_566
Mn2 Pr0 3.225569 1_555
Mn2 Pr1 3.329686 1_566
Mn3 Pr1 3.084389 1_555
Co0 Co4 2.417295 1_456
Co0 Co3 2.418587 1_555
Co0 Mn1 2.420384 1_455
Co0 Mn2 2.429384 1_555
Co0 Co11 2.506624 1_555
Co0 Co7 2.524159 1_556
Co0 Co6 2.677707 1_555
Co0 Mn3 2.686579 1_566
Co0 Co9 2.694970 1_556
Co0 Co12 2.698943 1_455
Co0 Pr0 3.062959 1_555
Co0 Pr1 3.063142 1_556
Co1 Co5 2.417295 1_564
Co1 Co4 2.418587 1_555
Co1 Mn2 2.420384 1_554
Co1 Mn0 2.429384 1_555
Co1 Co9 2.506624 1_555
Co1 Co8 2.524159 1_565
Co1 Co7 2.677707 1_555
Co1 Mn3 2.686579 1_665
Co1 Co10 2.694970 1_565
Co1 Co12 2.698943 1_554
Co1 Pr0 3.062959 1_555
Co1 Pr1 3.063142 1_565
Co2 Co3 2.417295 1_645
Co2 Co5 2.418587 1_555
Co2 Mn0 2.420384 1_545
Co2 Mn1 2.429384 1_555
Co2 Co6 2.524159 1_655
Co2 Co8 2.677707 1_555
Co2 Mn3 2.686579 1_656
Co2 Pr0 3.062959 1_555
Co2 Pr1 3.063143 1_655
Co3 Mn0 2.420384 1_455
Co3 Mn2 2.429384 1_555
Co3 Co6 2.524159 1_565
Co3 Co7 2.677707 1_555
Co3 Mn3 2.686579 1_566
Co3 Pr0 3.062959 1_555
Co3 Pr1 3.063143 1_565
Co4 Mn1 2.420384 1_554
Co4 Mn0 2.429384 1_555
Co4 Co9 2.506624 1_555
Co4 Co7 2.524159 1_655
Co4 Co8 2.677707 1_555
Co4 Mn3 2.686579 1_665
Co4 Pr0 3.062959 1_555
Co4 Pr1 3.063142 1_655
Co5 Mn2 2.420384 1_545
Co5 Mn1 2.429384 1_555
Co5 Co8 2.524159 1_556
Co5 Co6 2.677707 1_555
Co5 Mn3 2.686579 1_656
Co5 Co9 2.694970 1_556
Co5 Pr0 3.062959 1_555
Co5 Pr1 3.063142 1_556
Co6 Mn2 2.483384 1_545
Co6 Mn1 2.483384 1_455
Co6 Mn3 2.653582 1_556
Co6 Pr0 3.081411 1_555
Co6 Pr1 3.207424 1_556
Co6 Pr1 3.212748 1_555
Co7 Co9 2.455644 1_555
Co7 Mn0 2.483384 1_455
Co7 Mn2 2.483384 1_554
Co7 Mn3 2.653582 1_565
Co7 Pr0 3.081411 1_555
Co7 Pr1 3.207424 1_565
Co7 Pr1 3.212749 1_555
Co8 Co9 2.455644 1_555
Co8 Mn0 2.483384 1_545
Co8 Mn1 2.483384 1_554
Co8 Mn3 2.653582 1_655
Co8 Pr0 3.081411 1_555
Co8 Pr1 3.207424 1_655
Co8 Pr1 3.212749 1_555
Co9 Mn1 2.435495 1_554
Co9 Mn2 2.435495 1_554
Co9 Pr1 3.068178 1_555
Co9 Pr0 3.199635 1_555
Co9 Pr0 3.220574 1_554
Co10 Mn0 2.435495 1_545
Co10 Mn2 2.435495 1_545
Co10 Co6 2.455644 1_555
Co10 Co8 2.455644 1_555
Co10 Co5 2.506624 1_555
Co10 Co2 2.506624 1_555
Co10 Co12 2.649972 1_545
Co10 Co3 2.694970 1_545
Co10 Pr1 3.068177 1_555
Co10 Pr0 3.199636 1_555
Co10 Pr0 3.220574 1_545
Co11 Mn0 2.435495 1_455
Co11 Mn1 2.435495 1_455
Co11 Co6 2.455644 1_555
Co11 Co7 2.455644 1_555
Co11 Co3 2.506624 1_555
Co11 Co12 2.649972 1_455
Co11 Co4 2.694970 1_455
Co11 Co2 2.694970 1_455
Co11 Pr1 3.068177 1_555
Co11 Pr0 3.199636 1_555
Co11 Pr0 3.220574 1_455
Co12 Mn3 2.370120 1_666
Co12 Mn0 2.552890 1_555
Co12 Mn1 2.552890 1_555
Co12 Mn2 2.552890 1_555
Co12 Co9 2.649972 1_556
Co12 Co5 2.698943 1_565
Co12 Co4 2.698943 1_556
Co12 Co3 2.698944 1_655
Co12 Co2 2.698944 1_565
Co12 Pr0 3.033098 1_555
