# generated using pymatgen
data_Hf20Si12B
_symmetry_space_group_name_H-M   'P 1'
_cell_length_a   5.53646053
_cell_length_b   7.90846105
_cell_length_c   13.69439119
_cell_angle_alpha   89.99999255
_cell_angle_beta   90.00000329
_cell_angle_gamma   89.91529554
_symmetry_Int_Tables_number   1
_chemical_formula_structural   Hf20Si12B
_chemical_formula_sum   'Hf20 Si12 B1'
_cell_volume   599.60665246
_cell_formula_units_Z   1
loop_
 _symmetry_equiv_pos_site_id
 _symmetry_equiv_pos_as_xyz
  1  'x, y, z'
loop_
 _atom_site_type_symbol
 _atom_site_label
 _atom_site_symmetry_multiplicity
 _atom_site_fract_x
 _atom_site_fract_y
 _atom_site_fract_z
 _atom_site_occupancy
  Hf  Hf0  1  0.50000000  0.99999600  0.33453600  1
  Hf  Hf1  1  0.50000000  0.49999100  0.83254800  1
  Hf  Hf2  1  0.50000000  0.49999100  0.16745200  1
  Hf  Hf3  1  0.50000000  0.99999600  0.66546400  1
  Hf  Hf4  1  0.00000300  0.50000800  0.16484600  1
  Hf  Hf5  1  0.99999800  0.00000200  0.66723700  1
  Hf  Hf6  1  0.99999800  0.00000200  0.33276300  1
  Hf  Hf7  1  0.00000300  0.50000800  0.83515400  1
  Hf  Hf8  1  0.75583200  0.24766500  0.00000000  1
  Hf  Hf9  1  0.75059400  0.75114700  0.50000000  1
  Hf  Hf10  1  0.74954700  0.37523200  0.37423800  1
  Hf  Hf11  1  0.75564900  0.87557300  0.87540800  1
  Hf  Hf12  1  0.75564900  0.87557300  0.12459200  1
  Hf  Hf13  1  0.74954700  0.37523200  0.62576200  1
  Hf  Hf14  1  0.24416200  0.75233600  0.00000000  1
  Hf  Hf15  1  0.24940200  0.24885500  0.50000000  1
  Hf  Hf16  1  0.24435300  0.12442900  0.12459300  1
  Hf  Hf17  1  0.25045100  0.62476700  0.62576000  1
  Hf  Hf18  1  0.25045100  0.62476700  0.37424000  1
  Hf  Hf19  1  0.24435300  0.12442900  0.87540700  1
  Si  Si0  1  0.74785000  0.60668600  0.00000000  1
  Si  Si1  1  0.75246900  0.10979000  0.50000000  1
  Si  Si2  1  0.75087800  0.19742000  0.19728100  1
  Si  Si3  1  0.74990800  0.69584300  0.69551800  1
  Si  Si4  1  0.74990800  0.69584300  0.30448200  1
  Si  Si5  1  0.75087800  0.19742000  0.80271900  1
  Si  Si6  1  0.25214200  0.39331700  0.00000000  1
  Si  Si7  1  0.24752500  0.89021000  0.50000000  1
  Si  Si8  1  0.25009800  0.30415700  0.30448200  1
  Si  Si9  1  0.24912800  0.80257800  0.80272100  1
  Si  Si10  1  0.24912800  0.80257800  0.19727900  1
  Si  Si11  1  0.25009800  0.30415700  0.69551800  1
  B  B0  1  0.99999900  0.00000200  0.00000000  1
loop_
_geom_bond_atom_site_label_1
_geom_bond_atom_site_label_2
_geom_bond_distance
_geom_bond_site_symmetry_2
Hf0 Si7 2.801027 1_555
Hf0 Si1 2.801030 1_565
Hf0 Si4 2.803530 1_555
Hf0 Si8 2.803568 1_565
Hf0 Si10 2.811803 1_555
Hf0 Si2 2.811827 1_565
Hf1 Si5 2.795018 1_555
Hf1 Si9 2.795105 1_555
Hf1 Si11 2.800113 1_555
Hf1 Si3 2.800208 1_555
Hf1 Si6 2.802993 1_556
Hf1 Si0 2.803021 1_556
Hf2 Si2 2.795017 1_555
Hf2 Si10 2.795105 1_555
Hf2 Si8 2.800113 1_555
Hf2 Si4 2.800208 1_555
Hf2 Si6 2.802993 1_555
Hf2 Si0 2.803021 1_555
Hf3 Si7 2.801027 1_555
Hf3 Si1 2.801030 1_565
Hf3 Si3 2.803530 1_555
Hf3 Si11 2.803568 1_565
Hf3 Si9 2.811803 1_555
Hf3 Si5 2.811827 1_565
Hf4 Si6 2.784475 1_555
Hf4 Si0 2.784482 1_455
Hf4 Si10 2.799144 1_555
Hf4 Si2 2.799270 1_455
Hf4 Si4 2.822437 1_455
Hf4 Si8 2.822506 1_555
Hf5 Si5 2.788515 1_555
Hf5 Si9 2.788587 1_645
Hf5 Si3 2.804120 1_545
Hf5 Si11 2.804120 1_655
Hf5 Si1 2.805975 1_555
Hf5 Si7 2.805979 1_645
Hf6 Si2 2.788515 1_555
Hf6 Si10 2.788587 1_645
Hf6 Si4 2.804120 1_545
Hf6 Si8 2.804120 1_655
Hf6 Si1 2.805975 1_555
Hf6 Si7 2.805979 1_645
Hf7 Si6 2.784475 1_556
Hf7 Si0 2.784483 1_456
Hf7 Si9 2.799144 1_555
Hf7 Si5 2.799271 1_455
Hf7 Si3 2.822437 1_455
Hf7 Si11 2.822507 1_555
Hf8 Si2 2.730853 1_555
Hf8 Si5 2.730853 1_554
Hf8 Si0 2.839582 1_555
Hf8 Si6 2.981040 1_655
Hf8 Si6 3.015619 1_555
Hf9 Si3 2.712990 1_555
Hf9 Si4 2.712991 1_555
Hf9 Si1 2.836349 1_565
Hf9 Si7 2.964417 1_655
Hf9 Si7 2.992976 1_555
Hf10 Si4 2.709523 1_555
Hf10 Si1 2.715336 1_555
Hf10 Si2 2.801776 1_555
Hf10 Si8 2.979815 1_555
Hf10 Si8 2.983936 1_655
Hf11 Si0 2.726760 1_556
Hf11 Si5 2.733132 1_565
Hf11 Si3 2.844335 1_555
Hf11 Si9 2.963770 1_655
Hf11 Si9 3.032021 1_555
Hf12 Si0 2.726760 1_555
Hf12 Si2 2.733132 1_565
Hf12 Si4 2.844335 1_555
Hf12 Si10 2.963770 1_655
Hf12 Si10 3.032021 1_555
Hf13 Si3 2.709523 1_555
Hf13 Si1 2.715336 1_555
Hf13 Si5 2.801776 1_555
Hf13 Si11 2.979815 1_555
Hf13 Si11 2.983936 1_655
Hf14 Si9 2.730823 1_554
Hf14 Si10 2.730823 1_555
Hf14 Si6 2.839566 1_555
Hf14 Si0 2.981045 1_455
Hf14 Si0 3.015603 1_555
Hf15 Si8 2.712988 1_555
Hf15 Si11 2.712988 1_555
Hf15 Si7 2.836364 1_545
Hf15 Si1 2.964433 1_455
Hf15 Si1 2.992972 1_555
Hf16 Si6 2.726774 1_555
Hf16 Si10 2.733146 1_545
Hf16 Si8 2.844315 1_555
Hf16 Si2 2.963748 1_455
Hf16 Si2 3.032040 1_555
Hf17 Si11 2.709525 1_555
Hf17 Si7 2.715325 1_555
Hf17 Si9 2.801819 1_555
Hf17 Si3 2.979866 1_555
Hf17 Si3 2.983905 1_455
Hf18 Si8 2.709525 1_555
Hf18 Si7 2.715325 1_555
Hf18 Si10 2.801819 1_555
Hf18 Si4 2.979866 1_555
Hf18 Si4 2.983905 1_455
Hf19 Si6 2.726774 1_556
Hf19 Si9 2.733146 1_545
Hf19 Si11 2.844315 1_555
Hf19 Si5 2.963748 1_455
Hf19 Si5 3.032040 1_555
B0 Hf8 2.378200 1_555
B0 Hf14 2.378207 1_645
B0 Hf12 2.390312 1_545
B0 Hf11 2.390312 1_544
B0 Hf19 2.390328 1_654
B0 Hf16 2.390328 1_655
