# generated using pymatgen
data_TeMoWSe2S
_symmetry_space_group_name_H-M   'P 1'
_cell_length_a   3.34546416
_cell_length_b   3.34546416
_cell_length_c   38.14052800
_cell_angle_alpha   90.00000000
_cell_angle_beta   90.00000000
_cell_angle_gamma   120.00000323
_symmetry_Int_Tables_number   1
_chemical_formula_structural   TeMoWSe2S
_chemical_formula_sum   'Te2 Mo2 W2 Se4 S2'
_cell_volume   369.68351309
_cell_formula_units_Z   2
loop_
 _symmetry_equiv_pos_site_id
 _symmetry_equiv_pos_as_xyz
  1  'x, y, z'
loop_
 _atom_site_type_symbol
 _atom_site_label
 _atom_site_symmetry_multiplicity
 _atom_site_fract_x
 _atom_site_fract_y
 _atom_site_fract_z
 _atom_site_occupancy
  Te  Te0  1  0.33333300  0.66666700  0.33176000  1
  Te  Te1  1  0.33333300  0.66666700  0.23169800  1
  Mo  Mo0  1  0.33333300  0.66666700  0.09389200  1
  Mo  Mo1  1  0.66666700  0.33333300  0.65755100  1
  W  W0  1  0.33333300  0.66666700  0.46973800  1
  W  W1  1  0.66666700  0.33333300  0.28171700  1
  Se  Se0  1  0.33333300  0.66666700  0.70127900  1
  Se  Se1  1  0.66666700  0.33333300  0.42580100  1
  Se  Se2  1  0.66666700  0.33333300  0.51367900  1
  Se  Se3  1  0.33333300  0.66666700  0.61381000  1
  S  S0  1  0.66666700  0.33333300  0.05414800  1
  S  S1  1  0.66666700  0.33333300  0.13367600  1
loop_
_geom_bond_atom_site_label_1
_geom_bond_atom_site_label_2
_geom_bond_distance
_geom_bond_site_symmetry_2
Te0 W1 2.715458 1_455
Te0 W1 2.715458 1_565
Te0 W1 2.715462 1_555
Te1 W1 2.714814 1_455
Te1 W1 2.714814 1_565
Te1 W1 2.714818 1_555
Mo0 S0 2.455306 1_455
Mo0 S0 2.455306 1_565
Mo0 S0 2.455310 1_555
Mo0 S1 2.456248 1_455
Mo0 S1 2.456248 1_565
Mo0 S1 2.456252 1_555
Mo1 Se0 2.551919 1_545
Mo1 Se0 2.551919 1_655
Mo1 Se0 2.551923 1_555
Mo1 Se3 2.552243 1_545
Mo1 Se3 2.552243 1_655
Mo1 Se3 2.552247 1_555
Se1 W0 2.557136 1_545
Se1 W0 2.557136 1_655
Se1 W0 2.557140 1_555
Se2 W0 2.557236 1_545
Se2 W0 2.557236 1_655
Se2 W0 2.557240 1_555
