# generated using pymatgen
data_Ba3GeO
_symmetry_space_group_name_H-M   'P 1'
_cell_length_a   7.57259814
_cell_length_b   7.72347163
_cell_length_c   10.83356778
_cell_angle_alpha   90.00000000
_cell_angle_beta   90.00000000
_cell_angle_gamma   90.00000000
_symmetry_Int_Tables_number   1
_chemical_formula_structural   Ba3GeO
_chemical_formula_sum   'Ba12 Ge4 O4'
_cell_volume   633.62013677
_cell_formula_units_Z   4
loop_
 _symmetry_equiv_pos_site_id
 _symmetry_equiv_pos_as_xyz
  1  'x, y, z'
loop_
 _atom_site_type_symbol
 _atom_site_label
 _atom_site_symmetry_multiplicity
 _atom_site_fract_x
 _atom_site_fract_y
 _atom_site_fract_z
 _atom_site_occupancy
  Ba  Ba0  1  0.57839634  0.51936546  0.25000000  1
  Ba  Ba1  1  0.07839634  0.98063454  0.75000000  1
  Ba  Ba2  1  0.92160366  0.01936546  0.25000000  1
  Ba  Ba3  1  0.42160366  0.48063454  0.75000000  1
  Ba  Ba4  1  0.28987115  0.21069583  0.45904429  1
  Ba  Ba5  1  0.78987115  0.28930417  0.54095571  1
  Ba  Ba6  1  0.21012885  0.71069583  0.04095571  1
  Ba  Ba7  1  0.71012885  0.78930417  0.95904429  1
  Ba  Ba8  1  0.71012885  0.78930417  0.54095571  1
  Ba  Ba9  1  0.21012885  0.71069583  0.45904429  1
  Ba  Ba10  1  0.78987115  0.28930417  0.95904429  1
  Ba  Ba11  1  0.28987115  0.21069583  0.04095571  1
  Ge  Ge0  1  0.98693443  0.53955201  0.75000000  1
  Ge  Ge1  1  0.48693443  0.96044799  0.25000000  1
  Ge  Ge2  1  0.51306557  0.03955201  0.75000000  1
  Ge  Ge3  1  0.01306557  0.46044799  0.25000000  1
  O  O0  1  0.00000000  0.00000000  0.50000000  1
  O  O1  1  0.50000000  0.50000000  0.50000000  1
  O  O2  1  0.50000000  0.50000000  0.00000000  1
  O  O3  1  0.00000000  0.00000000  0.00000000  1
loop_
_geom_bond_atom_site_label_1
_geom_bond_atom_site_label_2
_geom_bond_distance
_geom_bond_site_symmetry_2
Ba0 O2 2.776724 1_555
Ba0 O1 2.776724 1_555
Ba0 Ge3 3.322881 1_655
Ba0 Ge1 3.476381 1_555
Ba1 O0 2.776724 1_565
Ba1 O3 2.776724 1_566
Ba1 Ge2 3.322881 1_565
Ba1 Ge0 3.476381 1_455
Ba2 O0 2.776724 1_655
Ba2 O3 2.776724 1_655
Ba2 Ge1 3.322881 1_545
Ba2 Ge3 3.476381 1_655
Ba3 O2 2.776724 1_556
Ba3 O1 2.776724 1_555
Ba3 Ge0 3.322881 1_455
Ba3 Ge2 3.476381 1_555
Ba4 O0 2.768275 1_555
Ba4 O1 2.778766 1_555
Ba4 Ge1 3.330375 1_545
Ba4 Ge3 3.639162 1_555
Ba4 Ge2 3.813073 1_555
Ba5 O1 2.768275 1_555
Ba5 O0 2.778766 1_655
Ba5 Ge0 3.330375 1_555
Ba5 Ge2 3.639162 1_555
Ba5 Ge3 3.813073 1_655
Ba6 O2 2.768275 1_555
Ba6 O3 2.778766 1_565
Ba6 Ge3 3.330375 1_555
Ba6 Ge1 3.639162 1_555
Ba6 Ge0 3.813073 1_454
Ba7 O3 2.768275 1_666
Ba7 O2 2.778766 1_556
Ba7 Ge2 3.330375 1_565
Ba7 Ge0 3.639162 1_555
Ba7 Ge1 3.813073 1_556
Ba8 O0 2.768275 1_665
Ba8 O1 2.778766 1_555
Ba8 Ge2 3.330375 1_565
Ba8 Ge0 3.639162 1_555
Ba8 Ge1 3.813073 1_555
Ba9 O1 2.768275 1_555
Ba9 O0 2.778766 1_565
Ba9 Ge3 3.330375 1_555
Ba9 Ge1 3.639162 1_555
Ba9 Ge0 3.813073 1_455
Ba10 O2 2.768275 1_556
Ba10 O3 2.778766 1_656
Ba10 Ge0 3.330375 1_555
Ba10 Ge2 3.639162 1_555
Ba10 Ge3 3.813073 1_656
Ba11 O3 2.768275 1_555
Ba11 O2 2.778766 1_555
Ba11 Ge1 3.330375 1_545
Ba11 Ge3 3.639162 1_555
Ba11 Ge2 3.813073 1_554
