# generated using pymatgen
data_MgMn6(OF2)4
_symmetry_space_group_name_H-M   'P 1'
_cell_length_a   5.33156846
_cell_length_b   8.05186402
_cell_length_c   5.95265236
_cell_angle_alpha   91.60382457
_cell_angle_beta   87.74557531
_cell_angle_gamma   90.61680314
_symmetry_Int_Tables_number   1
_chemical_formula_structural   MgMn6(OF2)4
_chemical_formula_sum   'Mg1 Mn6 O4 F8'
_cell_volume   255.23202825
_cell_formula_units_Z   1
loop_
 _symmetry_equiv_pos_site_id
 _symmetry_equiv_pos_as_xyz
  1  'x, y, z'
loop_
 _atom_site_type_symbol
 _atom_site_label
 _atom_site_symmetry_multiplicity
 _atom_site_fract_x
 _atom_site_fract_y
 _atom_site_fract_z
 _atom_site_occupancy
  Mg  Mg0  1  0.82226700  0.62285000  0.27193900  1
  Mn  Mn0  1  0.53569700  0.97677500  0.52823500  1
  Mn  Mn1  1  0.38536800  0.70202600  0.02719600  1
  Mn  Mn2  1  0.48351900  0.32139700  0.83283500  1
  Mn  Mn3  1  0.83985000  0.63195000  0.76938000  1
  Mn  Mn4  1  0.10202400  0.29375700  0.40816300  1
  Mn  Mn5  1  0.00449400  0.00962400  0.01704800  1
  O  O0  1  0.81304300  0.78627000  0.01624100  1
  O  O1  1  0.74638400  0.77002200  0.53590500  1
  O  O2  1  0.65589600  0.49495200  0.00666400  1
  O  O3  1  0.34511800  0.19136900  0.60254400  1
  F  F0  1  0.78723800  0.44543600  0.53231200  1
  F  F1  1  0.83052200  0.10995600  0.32424400  1
  F  F2  1  0.75197100  0.14539400  0.82732900  1
  F  F3  1  0.21948800  0.51581100  0.78183400  1
  F  F4  1  0.30286800  0.89824600  0.25504400  1
  F  F5  1  0.16612800  0.54578500  0.26531900  1
  F  F6  1  0.23970700  0.22332800  0.07894900  1
  F  F7  1  0.27397000  0.87338100  0.79381900  1
loop_
_geom_bond_atom_site_label_1
_geom_bond_atom_site_label_2
_geom_bond_distance
_geom_bond_site_symmetry_2
Mg0 O1 1.973065 1_555
Mg0 O0 2.042050 1_555
Mg0 O2 2.083351 1_555
Mn0 O1 2.020842 1_555
Mn0 O3 2.042871 1_565
Mn1 O2 2.213995 1_555
Mn1 O0 2.370878 1_555
Mn2 O3 1.871483 1_555
Mn2 O2 1.958161 1_556
Mn3 O1 1.889105 1_555
Mn3 O0 1.899697 1_556
Mn3 O2 2.031922 1_556
Mn4 O3 1.972990 1_555
Mn5 O0 2.058300 1_445
F0 Mn3 2.056434 1_555
F0 Mg0 2.138497 1_555
F0 Mn4 2.179552 1_655
F0 Mn2 2.580137 1_555
F1 Mn4 2.122380 1_655
F1 Mn5 2.157977 1_655
F1 Mn0 2.231967 1_545
F2 Mn2 2.023687 1_555
F2 Mn5 2.122154 1_656
F2 Mn0 2.516995 1_545
F3 Mn2 2.152189 1_555
F3 Mn3 2.243492 1_455
F3 Mn1 2.261417 1_556
F4 Mn1 2.092199 1_555
F4 Mn0 2.160941 1_555
F4 Mn5 2.370886 1_565
F5 Mg0 1.940384 1_455
F5 Mn1 2.212682 1_555
F5 Mn4 2.239789 1_555
F6 Mn2 2.086245 1_554
F6 Mn4 2.129419 1_555
F6 Mn5 2.150277 1_555
F7 Mn1 2.091926 1_556
F7 Mn5 2.198973 1_566
F7 Mn0 2.239354 1_555
