# generated using pymatgen
data_Er3Sb4Au3
_symmetry_space_group_name_H-M   'P 1'
_cell_length_a   8.58133141
_cell_length_b   8.58133141
_cell_length_c   8.58133141
_cell_angle_alpha   109.47122063
_cell_angle_beta   109.47122063
_cell_angle_gamma   109.47122063
_symmetry_Int_Tables_number   1
_chemical_formula_structural   Er3Sb4Au3
_chemical_formula_sum   'Er6 Sb8 Au6'
_cell_volume   486.45439719
_cell_formula_units_Z   2
loop_
 _symmetry_equiv_pos_site_id
 _symmetry_equiv_pos_as_xyz
  1  'x, y, z'
loop_
 _atom_site_type_symbol
 _atom_site_label
 _atom_site_symmetry_multiplicity
 _atom_site_fract_x
 _atom_site_fract_y
 _atom_site_fract_z
 _atom_site_occupancy
  Er  Er0  1  0.87500000  0.25000000  0.12500000  1
  Er  Er1  1  0.62500000  0.75000000  0.37500000  1
  Er  Er2  1  0.25000000  0.12500000  0.87500000  1
  Er  Er3  1  0.75000000  0.37500000  0.62500000  1
  Er  Er4  1  0.12500000  0.87500000  0.25000000  1
  Er  Er5  1  0.37500000  0.62500000  0.75000000  1
  Sb  Sb0  1  0.67554000  0.50000000  0.00000000  1
  Sb  Sb1  1  0.50000000  0.00000000  0.67554000  1
  Sb  Sb2  1  0.00000000  0.67554000  0.50000000  1
  Sb  Sb3  1  0.82446000  0.82446000  0.82446000  1
  Sb  Sb4  1  0.50000000  0.00000000  0.17554000  1
  Sb  Sb5  1  0.17554000  0.50000000  0.00000000  1
  Sb  Sb6  1  0.00000000  0.17554000  0.50000000  1
  Sb  Sb7  1  0.32446000  0.32446000  0.32446000  1
  Au  Au0  1  0.37500000  0.25000000  0.62500000  1
  Au  Au1  1  0.12500000  0.75000000  0.87500000  1
  Au  Au2  1  0.25000000  0.62500000  0.37500000  1
  Au  Au3  1  0.75000000  0.87500000  0.12500000  1
  Au  Au4  1  0.62500000  0.37500000  0.25000000  1
  Au  Au5  1  0.87500000  0.12500000  0.75000000  1
loop_
_geom_bond_atom_site_label_1
_geom_bond_atom_site_label_2
_geom_bond_distance
_geom_bond_site_symmetry_2
Er0 Sb7 3.382441 1_655
Er0 Sb0 3.382441 1_555
Er0 Sb6 3.382441 1_655
Er0 Sb1 3.382441 1_554
Er0 Sb5 3.477691 1_655
Er0 Sb4 3.477691 1_555
Er0 Sb3 3.477691 1_544
Er0 Sb2 3.477691 1_655
Er1 Sb5 3.382441 1_555
Er1 Sb3 3.382441 1_555
Er1 Sb2 3.382441 1_655
Er1 Sb4 3.382441 1_565
Er1 Sb7 3.477691 1_555
Er1 Sb6 3.477691 1_665
Er1 Sb1 3.477691 1_565
Er1 Sb0 3.477691 1_555
Er2 Sb7 3.382441 1_556
Er2 Sb1 3.382441 1_555
Er2 Sb5 3.382441 1_556
Er2 Sb2 3.382441 1_545
Er2 Sb4 3.477691 1_556
Er2 Sb3 3.477691 1_445
Er2 Sb6 3.477691 1_555
Er2 Sb0 3.477691 1_556
Er3 Sb4 3.382441 1_555
Er3 Sb3 3.382441 1_555
Er3 Sb0 3.382441 1_556
Er3 Sb6 3.382441 1_655
Er3 Sb7 3.477691 1_555
Er3 Sb1 3.477691 1_555
Er3 Sb5 3.477691 1_656
Er3 Sb2 3.477691 1_655
Er4 Sb7 3.382441 1_565
Er4 Sb2 3.382441 1_555
Er4 Sb0 3.382441 1_455
Er4 Sb4 3.382441 1_565
Er4 Sb5 3.477691 1_555
Er4 Sb3 3.477691 1_454
Er4 Sb1 3.477691 1_565
Er4 Sb6 3.477691 1_565
Er5 Sb1 3.382441 1_565
Er5 Sb6 3.382441 1_555
Er5 Sb3 3.382441 1_555
Er5 Sb5 3.382441 1_556
Er5 Sb7 3.477691 1_555
Er5 Sb4 3.477691 1_566
Er5 Sb0 3.477691 1_556
Er5 Sb2 3.477691 1_555
Au0 Sb7 2.790243 1_555
Au0 Sb1 2.790243 1_555
Au0 Sb6 2.790243 1_555
Au0 Sb0 2.790243 1_556
Au0 Er4 3.033959 1_545
Au0 Er5 3.033959 1_555
Au0 Er2 3.033959 1_555
Au0 Er3 3.033959 1_555
Au1 Sb2 2.790243 1_555
Au1 Sb5 2.790243 1_556
Au1 Sb4 2.790243 1_566
Au1 Sb3 2.790243 1_455
Au1 Er5 3.033959 1_555
Au1 Er4 3.033959 1_556
Au1 Er3 3.033959 1_455
Au1 Er2 3.033959 1_565
Au2 Sb5 2.790243 1_555
Au2 Sb7 2.790243 1_555
Au2 Sb2 2.790243 1_555
Au2 Sb1 2.790243 1_565
Au2 Er5 3.033959 1_555
Au2 Er4 3.033959 1_555
Au2 Er0 3.033959 1_455
Au2 Er1 3.033959 1_555
Au3 Sb4 2.790243 1_565
Au3 Sb0 2.790243 1_555
Au3 Sb6 2.790243 1_665
Au3 Sb3 2.790243 1_554
Au3 Er5 3.033959 1_554
Au3 Er0 3.033959 1_565
Au3 Er4 3.033959 1_655
Au3 Er1 3.033959 1_555
Au4 Sb0 2.790243 1_555
Au4 Sb2 2.790243 1_655
Au4 Sb4 2.790243 1_555
Au4 Sb7 2.790243 1_555
Au4 Er2 3.033959 1_554
Au4 Er3 3.033959 1_555
Au4 Er1 3.033959 1_555
Au4 Er0 3.033959 1_555
Au5 Sb3 2.790243 1_545
Au5 Sb5 2.790243 1_656
Au5 Sb6 2.790243 1_655
Au5 Sb1 2.790243 1_555
Au5 Er1 3.033959 1_545
Au5 Er3 3.033959 1_555
Au5 Er0 3.033959 1_556
Au5 Er2 3.033959 1_655
