# generated using pymatgen
data_Ti2FeO5
_symmetry_space_group_name_H-M   'P 1'
_cell_length_a   11.41661878
_cell_length_b   5.30601666
_cell_length_c   10.15999400
_cell_angle_alpha   90.00000000
_cell_angle_beta   90.00000000
_cell_angle_gamma   111.14514176
_symmetry_Int_Tables_number   1
_chemical_formula_structural   Ti2FeO5
_chemical_formula_sum   'Ti12 Fe6 O30'
_cell_volume   574.02048086
_cell_formula_units_Z   6
loop_
 _symmetry_equiv_pos_site_id
 _symmetry_equiv_pos_as_xyz
  1  'x, y, z'
loop_
 _atom_site_type_symbol
 _atom_site_label
 _atom_site_symmetry_multiplicity
 _atom_site_fract_x
 _atom_site_fract_y
 _atom_site_fract_z
 _atom_site_occupancy
  Ti  Ti0  1  0.04209000  0.26859700  0.56005600  1
  Ti  Ti1  1  0.04494600  0.27016200  0.93872000  1
  Ti  Ti2  1  0.26782100  0.61657000  0.75092800  1
  Ti  Ti3  1  0.29206700  0.73113600  0.06331300  1
  Ti  Ti4  1  0.37460000  0.26886400  0.56331300  1
  Ti  Ti5  1  0.39884600  0.38343000  0.25092800  1
  Ti  Ti6  1  0.62457600  0.73140300  0.06005600  1
  Ti  Ti7  1  0.62172000  0.72983800  0.43872000  1
  Ti  Ti8  1  0.70954300  0.26802500  0.56817400  1
  Ti  Ti9  1  0.71172600  0.27426400  0.93428300  1
  Ti  Ti10  1  0.95712400  0.73197500  0.06817400  1
  Ti  Ti11  1  0.95494100  0.72573600  0.43428300  1
  Fe  Fe0  1  0.06373100  0.38961400  0.25130200  1
  Fe  Fe1  1  0.28679600  0.72545100  0.43057500  1
  Fe  Fe2  1  0.37987100  0.27454900  0.93057500  1
  Fe  Fe3  1  0.60293600  0.61038600  0.75130200  1
  Fe  Fe4  1  0.72982500  0.37783400  0.25032300  1
  Fe  Fe5  1  0.93684100  0.62216600  0.75032300  1
  O  O0  1  0.01704200  0.09559400  0.11140900  1
  O  O1  1  0.02044600  0.08891200  0.38779300  1
  O  O2  1  0.08318400  0.45608000  0.74617900  1
  O  O3  1  0.09371700  0.61724400  0.43715100  1
  O  O4  1  0.10932000  0.64245800  0.06908100  1
  O  O5  1  0.22681900  0.37628700  0.56897200  1
  O  O6  1  0.22266800  0.38557200  0.92926900  1
  O  O7  1  0.26631500  0.52071400  0.23892800  1
  O  O8  1  0.31426600  0.92075100  0.62963600  1
  O  O9  1  0.31743900  0.88105800  0.88627900  1
  O  O10  1  0.35240100  0.07924900  0.12963600  1
  O  O11  1  0.34922800  0.11894200  0.38627900  1
  O  O12  1  0.40035200  0.47928600  0.73892800  1
  O  O13  1  0.44399800  0.61442800  0.42926900  1
  O  O14  1  0.43984700  0.62371300  0.06897200  1
  O  O15  1  0.55734700  0.35754200  0.56908100  1
  O  O16  1  0.57295000  0.38275600  0.93715100  1
  O  O17  1  0.58348300  0.54392000  0.24617900  1
  O  O18  1  0.64962500  0.90440600  0.61140900  1
  O  O19  1  0.64622100  0.91108800  0.88779300  1
  O  O20  1  0.68966600  0.08603100  0.11131400  1
  O  O21  1  0.68195400  0.07999400  0.38661200  1
  O  O22  1  0.73933500  0.41377500  0.74785900  1
  O  O23  1  0.77314800  0.63200300  0.06236100  1
  O  O24  1  0.76572400  0.61077500  0.43948400  1
  O  O25  1  0.89351900  0.36799700  0.56236100  1
  O  O26  1  0.90094300  0.38922500  0.93948400  1
  O  O27  1  0.92733100  0.58622500  0.24785900  1
  O  O28  1  0.97700000  0.91396900  0.61131400  1
  O  O29  1  0.98471200  0.92000600  0.88661200  1
loop_
_geom_bond_atom_site_label_1
_geom_bond_atom_site_label_2
_geom_bond_distance
_geom_bond_site_symmetry_2
Fe0 O0 2.034241 1_555
Fe0 O1 2.035717 1_555
Fe0 O27 2.164840 1_455
Fe0 O7 2.165208 1_555
Fe0 O3 2.200700 1_555
Fe0 O4 2.234848 1_555
Fe1 O11 1.999031 1_565
Fe1 O3 2.068817 1_555
Fe1 O13 2.081099 1_555
Fe1 O7 2.200652 1_555
Fe1 O5 2.227815 1_555
Fe1 O8 2.242336 1_555
Fe2 O9 1.999031 1_545
Fe2 O16 2.068817 1_555
Fe2 O6 2.081110 1_555
Fe2 O12 2.200652 1_555
Fe2 O14 2.227815 1_556
Fe2 O10 2.242336 1_556
Fe3 O18 2.034241 1_555
Fe3 O19 2.035717 1_555
Fe3 O22 2.164829 1_555
Fe3 O12 2.165208 1_555
Fe3 O16 2.200700 1_555
Fe3 O15 2.234848 1_555
Fe4 O20 2.022376 1_555
Fe4 O21 2.022482 1_555
Fe4 O27 2.123399 1_555
Fe4 O17 2.152200 1_555
Fe4 O24 2.241378 1_555
Fe4 O23 2.286724 1_555
Fe5 O28 2.022376 1_555
Fe5 O29 2.022482 1_555
Fe5 O22 2.123399 1_555
Fe5 O2 2.152210 1_655
Fe5 O26 2.241378 1_555
Fe5 O25 2.286724 1_555
O0 Ti10 1.852341 1_445
O0 Ti1 1.955734 1_554
O1 Ti11 1.859049 1_445
O1 Ti0 1.965516 1_555
O2 Ti2 1.968706 1_555
O2 Ti0 2.109244 1_555
O2 Ti1 2.163286 1_555
O3 Ti11 1.870940 1_455
O3 Ti0 2.131258 1_555
O4 Ti10 1.959654 1_455
O4 Ti3 1.967091 1_555
O4 Ti1 2.269177 1_554
O5 Ti4 1.966851 1_555
O5 Ti0 1.978152 1_555
O5 Ti2 2.198095 1_555
O6 Ti1 1.898574 1_555
O6 Ti2 2.143670 1_555
O6 Ti3 2.190057 1_556
O7 Ti5 1.905251 1_555
O7 Ti3 2.068751 1_555
O8 Ti4 1.849962 1_565
O8 Ti2 1.946102 1_555
O9 Ti2 1.899446 1_555
O9 Ti3 1.945677 1_556
O10 Ti3 1.849962 1_545
O10 Ti5 1.946102 1_555
O11 Ti5 1.899446 1_555
O11 Ti4 1.945677 1_555
O12 Ti2 1.905251 1_555
O12 Ti4 2.068751 1_555
O13 Ti7 1.898574 1_555
O13 Ti5 2.143669 1_555
O13 Ti4 2.190057 1_555
O14 Ti3 1.966840 1_555
O14 Ti6 1.978152 1_555
O14 Ti5 2.198095 1_555
O15 Ti8 1.959654 1_555
O15 Ti4 1.967091 1_555
O15 Ti7 2.269177 1_555
O16 Ti9 1.870940 1_555
O16 Ti6 2.131259 1_556
O17 Ti5 1.968706 1_555
O17 Ti6 2.109243 1_555
O17 Ti7 2.163286 1_555
O18 Ti8 1.852341 1_565
O18 Ti7 1.955734 1_555
O19 Ti9 1.859049 1_565
O19 Ti6 1.965515 1_556
O20 Ti6 1.831739 1_545
O20 Ti9 2.028441 1_554
O21 Ti7 1.811992 1_545
O21 Ti8 2.066565 1_555
O22 Ti8 1.963873 1_555
O22 Ti9 2.016549 1_555
O23 Ti6 1.949667 1_555
O23 Ti10 1.972982 1_555
O23 Ti9 2.197219 1_554
O24 Ti7 1.962488 1_555
O24 Ti11 2.022559 1_555
O24 Ti8 2.141681 1_555
O25 Ti0 1.949656 1_655
O25 Ti8 1.972982 1_555
O25 Ti11 2.197219 1_555
O26 Ti1 1.962477 1_655
O26 Ti9 2.022559 1_555
O26 Ti10 2.141681 1_556
O27 Ti10 1.963873 1_555
O27 Ti11 2.016549 1_555
O28 Ti0 1.831739 1_665
O28 Ti11 2.028441 1_555
O29 Ti1 1.811992 1_665
O29 Ti10 2.066565 1_556
