# generated using pymatgen
data_MgTl2Pb16(Br9O4)2
_symmetry_space_group_name_H-M   'P 1'
_cell_length_a   8.56122291
_cell_length_b   12.75629204
_cell_length_c   12.86684244
_cell_angle_alpha   88.06759657
_cell_angle_beta   90.28024919
_cell_angle_gamma   91.80262369
_symmetry_Int_Tables_number   1
_chemical_formula_structural   MgTl2Pb16(Br9O4)2
_chemical_formula_sum   'Mg1 Tl2 Pb16 Br18 O8'
_cell_volume   1403.67647238
_cell_formula_units_Z   1
loop_
 _symmetry_equiv_pos_site_id
 _symmetry_equiv_pos_as_xyz
  1  'x, y, z'
loop_
 _atom_site_type_symbol
 _atom_site_label
 _atom_site_symmetry_multiplicity
 _atom_site_fract_x
 _atom_site_fract_y
 _atom_site_fract_z
 _atom_site_occupancy
  Mg  Mg0  1  0.35650866  0.97207857  0.43723523  1
  Tl  Tl0  1  0.66242178  0.74923180  0.75312382  1
  Tl  Tl1  1  0.35047815  0.28249299  0.24667032  1
  Pb  Pb0  1  0.82617087  0.33401881  0.97784110  1
  Pb  Pb1  1  0.35726234  0.20336168  0.62275200  1
  Pb  Pb2  1  0.17766615  0.66330383  0.02221497  1
  Pb  Pb3  1  0.65044744  0.39183137  0.69700571  1
  Pb  Pb4  1  0.63900193  0.11683008  0.81232972  1
  Pb  Pb5  1  0.65396802  0.80071467  0.37182351  1
  Pb  Pb6  1  0.18963945  0.73132285  0.43857328  1
  Pb  Pb7  1  0.82451403  0.97206954  0.14511384  1
  Pb  Pb8  1  0.34856891  0.56188402  0.29933246  1
  Pb  Pb9  1  0.18593710  0.47963436  0.66954976  1
  Pb  Pb10  1  0.82444594  0.17236412  0.53793939  1
  Pb  Pb11  1  0.35828704  0.87699729  0.18297740  1
  Pb  Pb12  1  0.36346456  0.30552078  0.88873275  1
  Pb  Pb13  1  0.17088913  0.02298474  0.83702486  1
  Pb  Pb14  1  0.62912910  0.68435283  0.11750663  1
  Pb  Pb15  1  0.81492964  0.52294477  0.34096259  1
  Br  Br0  1  0.86956363  0.86570153  0.95342101  1
  Br  Br1  1  0.11729178  0.12915458  0.03136936  1
  Br  Br2  1  0.08842698  0.46497050  0.13655378  1
  Br  Br3  1  0.62123504  0.42677942  0.12533770  1
  Br  Br4  1  0.39564906  0.56791554  0.88207998  1
  Br  Br5  1  0.43190008  0.62365091  0.57938012  1
  Br  Br6  1  0.12713376  0.38276288  0.46788578  1
  Br  Br7  1  0.12962839  0.07297701  0.36960634  1
  Br  Br8  1  0.60677081  0.07660036  0.37706719  1
  Br  Br9  1  0.99211523  0.76604175  0.23418816  1
  Br  Br10  1  0.87161567  0.97380748  0.64571696  1
  Br  Br11  1  0.38595058  0.94063495  0.63023528  1
  Br  Br12  1  0.88732850  0.53725720  0.85976208  1
  Br  Br13  1  0.60369810  0.36844790  0.43957367  1
  Br  Br14  1  0.38726128  0.86849221  0.92440897  1
  Br  Br15  1  0.87038037  0.62145299  0.54144249  1
  Br  Br16  1  0.60130602  0.12912013  0.06827066  1
  Br  Br17  1  0.00445574  0.25619706  0.74663389  1
  O  O0  1  0.62741036  0.20969215  0.65017920  1
  O  O1  1  0.37061388  0.14563150  0.80034500  1
  O  O2  1  0.36371757  0.69353688  0.14891306  1
  O  O3  1  0.62026447  0.63903296  0.29808608  1
  O  O4  1  0.62576494  0.85353015  0.19264637  1
  O  O5  1  0.37790739  0.36250477  0.70964251  1
  O  O6  1  0.63027720  0.29928256  0.85895612  1
  O  O7  1  0.39141496  0.84442751  0.36188090  1
loop_
_geom_bond_atom_site_label_1
_geom_bond_atom_site_label_2
_geom_bond_distance
_geom_bond_site_symmetry_2
Mg0 O7 1.954697 1_555
Br0 Pb7 2.888128 1_556
Br1 Pb13 2.928565 1_554
Br2 Pb2 2.964341 1_555
Br2 Pb8 3.291039 1_555
Br3 Pb0 2.897372 1_554
Br3 Tl1 3.281962 1_555
Br3 Pb14 3.282407 1_555
Br4 Pb2 2.922021 1_556
Br5 Pb9 2.965130 1_555
Br5 Pb6 3.073304 1_555
Br5 Tl0 3.384995 1_555
Br6 Pb9 2.945785 1_555
Br7 Mg0 2.500365 1_545
Br8 Mg0 2.595086 1_545
Br8 Pb10 3.039620 1_555
Br9 Pb6 3.145896 1_655
Br9 Pb7 3.208989 1_555
Br10 Pb10 2.885043 1_565
Br11 Mg0 2.514809 1_555
Br12 Pb0 2.993422 1_555
Br13 Pb15 2.897216 1_555
Br14 Pb13 2.939273 1_565
Br14 Pb2 3.340511 1_556
Br14 Pb11 3.343063 1_556
Br15 Pb15 2.937269 1_555
Br15 Pb6 3.294866 1_655
Br16 Pb7 2.954924 1_545
Br16 Pb4 3.319936 1_554
Br16 Pb0 3.375179 1_554
Br17 Pb10 3.283081 1_455
Br17 Pb9 3.326763 1_555
O0 Pb10 2.297526 1_555
O0 Pb1 2.337152 1_555
O0 Pb4 2.367421 1_555
O0 Pb3 2.421697 1_555
O1 Pb13 2.320338 1_555
O1 Pb4 2.341826 1_555
O1 Pb12 2.371085 1_555
O1 Pb1 2.380366 1_555
O2 Pb2 2.306893 1_555
O2 Pb14 2.317122 1_555
O2 Pb11 2.397368 1_555
O2 Pb8 2.520440 1_555
O3 Pb5 2.308464 1_555
O3 Pb15 2.316447 1_555
O3 Pb14 2.376330 1_555
O3 Pb8 2.496909 1_555
O4 Pb7 2.311217 1_555
O4 Pb11 2.320934 1_555
O4 Pb5 2.393182 1_555
O4 Pb14 2.395357 1_555
O5 Pb9 2.300843 1_555
O5 Pb1 2.351796 1_555
O5 Pb3 2.356960 1_555
O5 Pb12 2.395363 1_555
O6 Pb0 2.307106 1_555
O6 Pb12 2.322270 1_555
O6 Pb3 2.364435 1_555
O6 Pb4 2.426502 1_555
O7 Pb5 2.334743 1_555
O7 Pb11 2.342740 1_555
O7 Pb6 2.409011 1_555
