# generated using pymatgen
data_HfMg14WO16
_symmetry_space_group_name_H-M   'P 1'
_cell_length_a   8.71952751
_cell_length_b   8.71379479
_cell_length_c   4.34701895
_cell_angle_alpha   90.00000000
_cell_angle_beta   90.00000000
_cell_angle_gamma   90.00000000
_symmetry_Int_Tables_number   1
_chemical_formula_structural   HfMg14WO16
_chemical_formula_sum   'Hf1 Mg14 W1 O16'
_cell_volume   330.28725354
_cell_formula_units_Z   1
loop_
 _symmetry_equiv_pos_site_id
 _symmetry_equiv_pos_as_xyz
  1  'x, y, z'
loop_
 _atom_site_type_symbol
 _atom_site_label
 _atom_site_symmetry_multiplicity
 _atom_site_fract_x
 _atom_site_fract_y
 _atom_site_fract_z
 _atom_site_occupancy
  Hf  Hf0  1  0.00000000  0.50000000  0.00000000  1
  Mg  Mg0  1  0.50000000  0.00000000  0.00000000  1
  Mg  Mg1  1  0.50000000  0.50000000  0.00000000  1
  Mg  Mg2  1  0.00000000  0.24537922  0.50000000  1
  Mg  Mg3  1  0.00000000  0.75462078  0.50000000  1
  Mg  Mg4  1  0.50000000  0.24958426  0.50000000  1
  Mg  Mg5  1  0.50000000  0.75041574  0.50000000  1
  Mg  Mg6  1  0.25766678  0.00000000  0.50000000  1
  Mg  Mg7  1  0.25751073  0.50000000  0.50000000  1
  Mg  Mg8  1  0.74233322  0.00000000  0.50000000  1
  Mg  Mg9  1  0.74248927  0.50000000  0.50000000  1
  Mg  Mg10  1  0.25656473  0.24427426  0.00000000  1
  Mg  Mg11  1  0.25656473  0.75572574  0.00000000  1
  Mg  Mg12  1  0.74343527  0.24427426  0.00000000  1
  Mg  Mg13  1  0.74343527  0.75572574  0.00000000  1
  W  W0  1  0.00000000  0.00000000  0.00000000  1
  O  O0  1  0.26608040  0.00000000  0.00000000  1
  O  O1  1  0.25586563  0.50000000  0.00000000  1
  O  O2  1  0.73391960  0.00000000  0.00000000  1
  O  O3  1  0.74413437  0.50000000  0.00000000  1
  O  O4  1  0.24967904  0.24975610  0.50000000  1
  O  O5  1  0.24967904  0.75024390  0.50000000  1
  O  O6  1  0.75032096  0.24975610  0.50000000  1
  O  O7  1  0.75032096  0.75024390  0.50000000  1
  O  O8  1  0.00000000  0.00000000  0.50000000  1
  O  O9  1  0.00000000  0.50000000  0.50000000  1
  O  O10  1  0.50000000  0.00000000  0.50000000  1
  O  O11  1  0.50000000  0.50000000  0.50000000  1
  O  O12  1  0.00000000  0.26072649  0.00000000  1
  O  O13  1  0.00000000  0.73927351  0.00000000  1
  O  O14  1  0.50000000  0.25220624  0.00000000  1
  O  O15  1  0.50000000  0.74779376  0.00000000  1
loop_
_geom_bond_atom_site_label_1
_geom_bond_atom_site_label_2
_geom_bond_distance
_geom_bond_site_symmetry_2
Hf0 O12 2.084980 1_555
Hf0 O13 2.084980 1_555
Hf0 O9 2.173509 1_555
Hf0 O9 2.173509 1_554
Hf0 O3 2.231027 1_455
Hf0 O1 2.231027 1_555
Mg0 O0 2.039668 1_555
Mg0 O2 2.039668 1_555
Mg0 O10 2.173509 1_555
Mg0 O10 2.173509 1_554
Mg0 O15 2.197673 1_545
Mg0 O14 2.197673 1_555
Mg1 O1 2.128736 1_555
Mg1 O3 2.128736 1_555
Mg1 O14 2.159224 1_555
Mg1 O15 2.159224 1_555
Mg1 O11 2.173509 1_554
Mg1 O11 2.173509 1_555
Mg2 O8 2.138184 1_555
Mg2 O6 2.177417 1_455
Mg2 O4 2.177417 1_555
Mg2 O12 2.177620 1_555
Mg2 O12 2.177620 1_556
Mg2 O9 2.218713 1_555
Mg3 O8 2.138184 1_565
Mg3 O7 2.177417 1_455
Mg3 O5 2.177417 1_555
Mg3 O13 2.177620 1_556
Mg3 O13 2.177620 1_555
Mg3 O9 2.218713 1_555
Mg4 O14 2.173630 1_556
Mg4 O14 2.173630 1_555
Mg4 O10 2.174826 1_555
Mg4 O11 2.182071 1_555
Mg4 O4 2.182681 1_555
Mg4 O6 2.182681 1_555
Mg5 O15 2.173630 1_556
Mg5 O15 2.173630 1_555
Mg5 O10 2.174826 1_565
Mg5 O11 2.182071 1_555
Mg5 O5 2.182681 1_555
Mg5 O7 2.182681 1_555
Mg6 O10 2.113031 1_555
Mg6 O0 2.174747 1_555
Mg6 O0 2.174747 1_556
Mg6 O4 2.177438 1_555
Mg6 O5 2.177438 1_545
Mg6 O8 2.246733 1_555
Mg7 O11 2.114392 1_555
Mg7 O1 2.173557 1_556
Mg7 O1 2.173557 1_555
Mg7 O5 2.181643 1_555
Mg7 O4 2.181643 1_555
Mg7 O9 2.245372 1_555
Mg8 O10 2.113031 1_555
Mg8 O2 2.174747 1_556
Mg8 O2 2.174747 1_555
Mg8 O6 2.177438 1_555
Mg8 O7 2.177438 1_545
Mg8 O8 2.246733 1_655
Mg9 O11 2.114392 1_555
Mg9 O3 2.173557 1_556
Mg9 O3 2.173557 1_555
Mg9 O7 2.181643 1_555
Mg9 O6 2.181643 1_555
Mg9 O9 2.245372 1_655
Mg10 O14 2.123766 1_555
Mg10 O0 2.130172 1_555
Mg10 O4 2.174863 1_554
Mg10 O4 2.174863 1_555
Mg10 O1 2.228350 1_555
Mg10 O12 2.241712 1_555
Mg11 O15 2.123766 1_555
Mg11 O0 2.130172 1_565
Mg11 O5 2.174863 1_554
Mg11 O5 2.174863 1_555
Mg11 O1 2.228350 1_555
Mg11 O13 2.241712 1_555
Mg12 O14 2.123766 1_555
Mg12 O2 2.130172 1_555
Mg12 O6 2.174863 1_554
Mg12 O6 2.174863 1_555
Mg12 O3 2.228350 1_555
Mg12 O12 2.241712 1_655
Mg13 O15 2.123766 1_555
Mg13 O2 2.130172 1_565
Mg13 O7 2.174863 1_554
Mg13 O7 2.174863 1_555
Mg13 O3 2.228350 1_555
Mg13 O13 2.241712 1_655
O0 W0 2.320095 1_555
O2 W0 2.320095 1_655
O8 W0 2.173509 1_556
O8 W0 2.173509 1_555
O12 W0 2.271917 1_555
O13 W0 2.271917 1_565
