# generated using pymatgen
data_Ca5Si3O13
_symmetry_space_group_name_H-M   'P 1'
_cell_length_a   9.64640320
_cell_length_b   9.64640320
_cell_length_c   6.99487200
_cell_angle_alpha   90.00000000
_cell_angle_beta   90.00000000
_cell_angle_gamma   119.99999454
_symmetry_Int_Tables_number   1
_chemical_formula_structural   Ca5Si3O13
_chemical_formula_sum   'Ca10 Si6 O26'
_cell_volume   563.69119206
_cell_formula_units_Z   2
loop_
 _symmetry_equiv_pos_site_id
 _symmetry_equiv_pos_as_xyz
  1  'x, y, z'
loop_
 _atom_site_type_symbol
 _atom_site_label
 _atom_site_symmetry_multiplicity
 _atom_site_fract_x
 _atom_site_fract_y
 _atom_site_fract_z
 _atom_site_occupancy
  Ca  Ca0  1  0.66666700  0.33333300  0.00544200  1
  Ca  Ca1  1  0.33333300  0.66666700  0.99455800  1
  Ca  Ca2  1  0.33333300  0.66666700  0.50544200  1
  Ca  Ca3  1  0.66666700  0.33333300  0.49455800  1
  Ca  Ca4  1  0.74687800  0.99412300  0.75000000  1
  Ca  Ca5  1  0.25312200  0.00587700  0.25000000  1
  Ca  Ca6  1  0.24724500  0.25312200  0.75000000  1
  Ca  Ca7  1  0.75275500  0.74687800  0.25000000  1
  Ca  Ca8  1  0.00587700  0.75275500  0.75000000  1
  Ca  Ca9  1  0.99412300  0.24724500  0.25000000  1
  Si  Si0  1  0.97182100  0.36834200  0.75000000  1
  Si  Si1  1  0.02817900  0.63165800  0.25000000  1
  Si  Si2  1  0.39652100  0.02817900  0.75000000  1
  Si  Si3  1  0.60347900  0.97182100  0.25000000  1
  Si  Si4  1  0.63165800  0.60347900  0.75000000  1
  Si  Si5  1  0.36834200  0.39652100  0.25000000  1
  O  O0  1  0.91025600  0.24990600  0.93741500  1
  O  O1  1  0.08974400  0.75009400  0.06258500  1
  O  O2  1  0.33965100  0.08974400  0.93741500  1
  O  O3  1  0.08974400  0.75009400  0.43741500  1
  O  O4  1  0.66034900  0.91025600  0.06258500  1
  O  O5  1  0.91025600  0.24990600  0.56258500  1
  O  O6  1  0.75009400  0.66034900  0.93741500  1
  O  O7  1  0.66034900  0.91025600  0.43741500  1
  O  O8  1  0.24990600  0.33965100  0.06258500  1
  O  O9  1  0.33965100  0.08974400  0.56258500  1
  O  O10  1  0.24990600  0.33965100  0.43741500  1
  O  O11  1  0.75009400  0.66034900  0.56258500  1
  O  O12  1  0.87359400  0.46655600  0.75000000  1
  O  O13  1  0.12640600  0.53344400  0.25000000  1
  O  O14  1  0.59296300  0.12640600  0.75000000  1
  O  O15  1  0.40703700  0.87359400  0.25000000  1
  O  O16  1  0.53344400  0.40703700  0.75000000  1
  O  O17  1  0.46655600  0.59296300  0.25000000  1
  O  O18  1  0.51736700  0.68408800  0.75000000  1
  O  O19  1  0.48263300  0.31591200  0.25000000  1
  O  O20  1  0.16672100  0.48263300  0.75000000  1
  O  O21  1  0.83327900  0.51736700  0.25000000  1
  O  O22  1  0.31591200  0.83327900  0.75000000  1
  O  O23  1  0.68408800  0.16672100  0.25000000  1
  O  O24  1  0.00000000  0.00000000  0.75000000  1
  O  O25  1  0.00000000  0.00000000  0.25000000  1
loop_
_geom_bond_atom_site_label_1
_geom_bond_atom_site_label_2
_geom_bond_distance
_geom_bond_site_symmetry_2
Ca0 O23 2.409932 1_555
Ca0 O21 2.409936 1_555
Ca0 O19 2.409939 1_555
Ca0 O16 2.502663 1_554
Ca0 O14 2.502663 1_554
Ca0 O12 2.502663 1_554
Ca0 O0 2.878621 1_554
Ca0 O6 2.878621 1_554
Ca0 O2 2.878621 1_554
Ca1 O22 2.409932 1_555
Ca1 O20 2.409936 1_555
Ca1 O18 2.409939 1_555
Ca1 O17 2.502663 1_556
Ca1 O15 2.502663 1_556
Ca1 O13 2.502663 1_556
Ca1 O1 2.878621 1_556
Ca1 O8 2.878621 1_556
Ca1 O4 2.878621 1_556
Ca2 O22 2.409932 1_555
Ca2 O20 2.409936 1_555
Ca2 O18 2.409939 1_555
Ca2 O17 2.502663 1_555
Ca2 O15 2.502663 1_555
Ca2 O13 2.502663 1_555
Ca2 O3 2.878621 1_555
Ca2 O10 2.878621 1_555
Ca2 O7 2.878621 1_555
Ca3 O23 2.409932 1_555
Ca3 O21 2.409936 1_555
Ca3 O19 2.409939 1_555
Ca3 O16 2.502663 1_555
Ca3 O14 2.502663 1_555
Ca3 O12 2.502663 1_555
Ca3 O5 2.878621 1_555
Ca3 O11 2.878621 1_555
Ca3 O9 2.878621 1_555
Ca4 O4 2.335955 1_556
Ca4 O7 2.335955 1_555
Ca4 O14 2.393182 1_565
Ca4 O24 2.413870 1_665
Ca4 O5 2.530168 1_565
Ca4 O0 2.530168 1_565
Ca4 O18 2.687879 1_555
Ca5 O2 2.335955 1_554
Ca5 O9 2.335955 1_555
Ca5 O15 2.393182 1_545
Ca5 O25 2.413870 1_555
Ca5 O3 2.530168 1_545
Ca5 O1 2.530168 1_545
Ca5 O19 2.687879 1_555
Ca6 O8 2.335957 1_556
Ca6 O10 2.335957 1_555
Ca6 O16 2.393190 1_555
Ca6 O24 2.413870 1_555
Ca6 O9 2.530174 1_555
Ca6 O2 2.530174 1_555
Ca6 O20 2.687879 1_555
Ca7 O11 2.335957 1_555
Ca7 O6 2.335957 1_554
Ca7 O17 2.393190 1_555
Ca7 O25 2.413870 1_665
Ca7 O4 2.530174 1_555
Ca7 O7 2.530174 1_555
Ca7 O21 2.687879 1_555
Ca8 O1 2.335953 1_556
Ca8 O3 2.335953 1_555
Ca8 O12 2.393191 1_455
Ca8 O24 2.413870 1_565
Ca8 O6 2.530167 1_455
Ca8 O11 2.530167 1_455
Ca8 O22 2.687879 1_555
Ca9 O5 2.335953 1_555
Ca9 O0 2.335953 1_554
Ca9 O13 2.393191 1_655
Ca9 O25 2.413870 1_655
Ca9 O8 2.530167 1_655
Ca9 O10 2.530167 1_655
Ca9 O23 2.687879 1_555
O0 Si0 1.642569 1_555
O1 Si1 1.642569 1_555
O2 Si2 1.642564 1_555
O3 Si1 1.642569 1_555
O4 Si3 1.642564 1_555
O5 Si0 1.642569 1_555
O6 Si4 1.642570 1_555
O7 Si3 1.642564 1_555
O8 Si5 1.642570 1_555
O9 Si2 1.642564 1_555
O10 Si5 1.642570 1_555
O11 Si4 1.642570 1_555
O12 Si0 1.641074 1_555
O13 Si1 1.641074 1_555
O14 Si2 1.641082 1_555
O15 Si3 1.641082 1_555
O16 Si4 1.641082 1_555
O17 Si5 1.641082 1_555
O18 Si4 1.636285 1_555
O19 Si5 1.636285 1_555
O20 Si0 1.636285 1_455
O21 Si1 1.636285 1_655
O22 Si2 1.636285 1_565
O23 Si3 1.636285 1_545
