# generated using pymatgen
data_KLaNb2O6
_symmetry_space_group_name_H-M   'P 1'
_cell_length_a   5.76687226
_cell_length_b   5.76687226
_cell_length_c   5.76687226
_cell_angle_alpha   60.00000000
_cell_angle_beta   60.00000000
_cell_angle_gamma   60.00000000
_symmetry_Int_Tables_number   1
_chemical_formula_structural   KLaNb2O6
_chemical_formula_sum   'K1 La1 Nb2 O6'
_cell_volume   135.61445925
_cell_formula_units_Z   1
loop_
 _symmetry_equiv_pos_site_id
 _symmetry_equiv_pos_as_xyz
  1  'x, y, z'
loop_
 _atom_site_type_symbol
 _atom_site_label
 _atom_site_symmetry_multiplicity
 _atom_site_fract_x
 _atom_site_fract_y
 _atom_site_fract_z
 _atom_site_occupancy
  K  K0  1  0.00000000  0.00000000  0.00000000  1
  La  La0  1  0.50000000  0.50000000  0.50000000  1
  Nb  Nb0  1  0.25000000  0.25000000  0.25000000  1
  Nb  Nb1  1  0.75000000  0.75000000  0.75000000  1
  O  O0  1  0.00000000  0.00000000  0.50000000  1
  O  O1  1  0.50000000  0.50000000  0.00000000  1
  O  O2  1  0.00000000  0.50000000  0.50000000  1
  O  O3  1  0.50000000  0.00000000  0.00000000  1
  O  O4  1  0.00000000  0.50000000  0.00000000  1
  O  O5  1  0.50000000  0.00000000  0.50000000  1
loop_
_geom_bond_atom_site_label_1
_geom_bond_atom_site_label_2
_geom_bond_distance
_geom_bond_site_symmetry_2
K0 O5 2.883436 1_455
K0 O2 2.883436 1_554
K0 O4 2.883436 1_545
K0 O5 2.883436 1_554
K0 O1 2.883436 1_545
K0 O3 2.883436 1_455
K0 O3 2.883436 1_555
K0 O0 2.883436 1_555
K0 O0 2.883436 1_554
K0 O2 2.883436 1_545
K0 O4 2.883436 1_555
K0 O1 2.883436 1_455
La0 O1 2.883436 1_556
La0 O4 2.883436 1_655
La0 O0 2.883436 1_565
La0 O5 2.883436 1_555
La0 O2 2.883436 1_655
La0 O5 2.883436 1_565
La0 O2 2.883436 1_555
La0 O3 2.883436 1_556
La0 O3 2.883436 1_565
La0 O0 2.883436 1_655
La0 O1 2.883436 1_555
La0 O4 2.883436 1_556
Nb0 O4 2.038897 1_555
Nb0 O1 2.038897 1_555
Nb0 O5 2.038897 1_555
Nb0 O0 2.038897 1_555
Nb0 O3 2.038897 1_555
Nb0 O2 2.038897 1_555
Nb1 O4 2.038897 1_656
Nb1 O1 2.038897 1_556
Nb1 O5 2.038897 1_565
Nb1 O3 2.038897 1_566
Nb1 O2 2.038897 1_655
Nb1 O0 2.038897 1_665
