# generated using pymatgen
data_Y2(CuS2)3
_symmetry_space_group_name_H-M   'P 1'
_cell_length_a   6.27645100
_cell_length_b   11.46608500
_cell_length_c   13.55679700
_cell_angle_alpha   90.00000000
_cell_angle_beta   90.00000000
_cell_angle_gamma   90.00000000
_symmetry_Int_Tables_number   1
_chemical_formula_structural   Y2(CuS2)3
_chemical_formula_sum   'Y8 Cu12 S24'
_cell_volume   975.63280008
_cell_formula_units_Z   4
loop_
 _symmetry_equiv_pos_site_id
 _symmetry_equiv_pos_as_xyz
  1  'x, y, z'
loop_
 _atom_site_type_symbol
 _atom_site_label
 _atom_site_symmetry_multiplicity
 _atom_site_fract_x
 _atom_site_fract_y
 _atom_site_fract_z
 _atom_site_occupancy
  Y  Y0  1  0.99632800  0.58071900  0.63856000  1
  Y  Y1  1  0.99632800  0.91928100  0.63856000  1
  Y  Y2  1  0.00367200  0.41928100  0.36144000  1
  Y  Y3  1  0.00367200  0.08071900  0.36144000  1
  Y  Y4  1  0.49632800  0.41928100  0.86144000  1
  Y  Y5  1  0.49632800  0.08071900  0.86144000  1
  Y  Y6  1  0.50367200  0.58071900  0.13856000  1
  Y  Y7  1  0.50367200  0.91928100  0.13856000  1
  Cu  Cu0  1  0.13274900  0.41320400  0.04873000  1
  Cu  Cu1  1  0.13274900  0.08679600  0.04873000  1
  Cu  Cu2  1  0.13489400  0.75000000  0.04731100  1
  Cu  Cu3  1  0.63274900  0.58679600  0.45127000  1
  Cu  Cu4  1  0.63489400  0.25000000  0.45268900  1
  Cu  Cu5  1  0.63274900  0.91320400  0.45127000  1
  Cu  Cu6  1  0.86725100  0.58679600  0.95127000  1
  Cu  Cu7  1  0.86510600  0.25000000  0.95268900  1
  Cu  Cu8  1  0.86725100  0.91320400  0.95127000  1
  Cu  Cu9  1  0.36725100  0.41320400  0.54873000  1
  Cu  Cu10  1  0.36725100  0.08679600  0.54873000  1
  Cu  Cu11  1  0.36510600  0.75000000  0.54731100  1
  S  S0  1  0.24594200  0.41187300  0.70290500  1
  S  S1  1  0.24594200  0.08812700  0.70290500  1
  S  S2  1  0.24473500  0.75000000  0.70245000  1
  S  S3  1  0.75405800  0.58812700  0.29709500  1
  S  S4  1  0.75526500  0.25000000  0.29755000  1
  S  S5  1  0.75405800  0.91187300  0.29709500  1
  S  S6  1  0.74594200  0.58812700  0.79709500  1
  S  S7  1  0.74473500  0.25000000  0.79755000  1
  S  S8  1  0.74594200  0.91187300  0.79709500  1
  S  S9  1  0.25405800  0.41187300  0.20290500  1
  S  S10  1  0.25405800  0.08812700  0.20290500  1
  S  S11  1  0.25526500  0.75000000  0.20245000  1
  S  S12  1  0.74271500  0.42106900  0.53531900  1
  S  S13  1  0.74271500  0.07893100  0.53531900  1
  S  S14  1  0.73247500  0.75000000  0.53933300  1
  S  S15  1  0.75728500  0.42106900  0.03531900  1
  S  S16  1  0.75728500  0.07893100  0.03531900  1
  S  S17  1  0.76752500  0.75000000  0.03933300  1
  S  S18  1  0.24271500  0.57893100  0.96468100  1
  S  S19  1  0.23247500  0.25000000  0.96066700  1
  S  S20  1  0.24271500  0.92106900  0.96468100  1
  S  S21  1  0.25728500  0.57893100  0.46468100  1
  S  S22  1  0.26752500  0.25000000  0.46066700  1
  S  S23  1  0.25728500  0.92106900  0.46468100  1
loop_
_geom_bond_atom_site_label_1
_geom_bond_atom_site_label_2
_geom_bond_distance
_geom_bond_site_symmetry_2
Cu0 S9 2.224533 1_555
Cu0 S19 2.306268 1_554
Cu0 S18 2.320688 1_554
Cu0 S15 2.365304 1_455
Cu1 S10 2.224533 1_555
Cu1 S19 2.306268 1_554
Cu1 S20 2.320688 1_544
Cu1 S16 2.365304 1_455
Cu2 S11 2.234767 1_555
Cu2 S17 2.308309 1_455
Cu2 S18 2.358021 1_554
Cu2 S20 2.358021 1_554
Cu3 S3 2.224533 1_555
Cu3 S14 2.306268 1_555
Cu3 S12 2.320688 1_555
Cu3 S21 2.365304 1_555
Cu4 S4 2.234767 1_555
Cu4 S22 2.308309 1_555
Cu4 S13 2.358021 1_555
Cu4 S12 2.358021 1_555
Cu5 S5 2.224533 1_555
Cu5 S14 2.306268 1_555
Cu5 S13 2.320688 1_565
Cu5 S23 2.365304 1_555
Cu6 S6 2.224533 1_555
Cu6 S17 2.306268 1_556
Cu6 S15 2.320688 1_556
Cu6 S18 2.365304 1_655
Cu7 S7 2.234767 1_555
Cu7 S19 2.308309 1_655
Cu7 S16 2.358021 1_556
Cu7 S15 2.358021 1_556
Cu8 S8 2.224533 1_555
Cu8 S17 2.306268 1_556
Cu8 S16 2.320688 1_566
Cu8 S20 2.365304 1_655
Cu9 S0 2.224533 1_555
Cu9 S22 2.306268 1_555
Cu9 S21 2.320688 1_555
Cu9 S12 2.365304 1_555
Cu10 S1 2.224533 1_555
Cu10 S22 2.306268 1_555
Cu10 S23 2.320688 1_545
Cu10 S13 2.365304 1_555
Cu11 S2 2.234767 1_555
Cu11 S14 2.308309 1_555
Cu11 S23 2.358021 1_555
Cu11 S21 2.358021 1_555
S0 Y0 2.638854 1_455
S0 Y4 2.663853 1_555
S1 Y1 2.638854 1_445
S1 Y5 2.663853 1_555
S2 Y0 2.635998 1_455
S2 Y1 2.635998 1_455
S3 Y2 2.638854 1_655
S3 Y6 2.663853 1_555
S4 Y2 2.635998 1_655
S4 Y3 2.635998 1_655
S5 Y3 2.638854 1_665
S5 Y7 2.663853 1_555
S6 Y4 2.638854 1_555
S6 Y0 2.663853 1_555
S7 Y5 2.635998 1_555
S7 Y4 2.635998 1_555
S8 Y5 2.638854 1_565
S8 Y1 2.663853 1_555
S9 Y6 2.638854 1_555
S9 Y2 2.663853 1_555
S10 Y7 2.638854 1_545
S10 Y3 2.663853 1_555
S11 Y6 2.635998 1_555
S11 Y7 2.635998 1_555
S12 Y0 2.800656 1_555
S12 Y2 2.870483 1_655
S13 Y1 2.800656 1_545
S13 Y3 2.870483 1_655
S14 Y1 2.884362 1_555
S14 Y0 2.884362 1_555
S15 Y6 2.800656 1_555
S15 Y4 2.870483 1_554
S16 Y7 2.800656 1_545
S16 Y5 2.870483 1_554
S17 Y7 2.884362 1_555
S17 Y6 2.884362 1_555
S18 Y4 2.800656 1_555
S18 Y6 2.870483 1_556
S19 Y5 2.884362 1_555
S19 Y4 2.884362 1_555
S20 Y5 2.800656 1_565
S20 Y7 2.870483 1_556
S21 Y2 2.800656 1_555
S21 Y0 2.870483 1_455
S22 Y2 2.884362 1_555
S22 Y3 2.884362 1_555
S23 Y3 2.800656 1_565
S23 Y1 2.870483 1_455
