# generated using pymatgen
data_YMg14C
_symmetry_space_group_name_H-M   'P 1'
_cell_length_a   6.40974086
_cell_length_b   6.40974033
_cell_length_c   9.99181251
_cell_angle_alpha   90.00000000
_cell_angle_beta   90.00000000
_cell_angle_gamma   120.00000271
_symmetry_Int_Tables_number   1
_chemical_formula_structural   YMg14C
_chemical_formula_sum   'Y1 Mg14 C1'
_cell_volume   355.51326013
_cell_formula_units_Z   1
loop_
 _symmetry_equiv_pos_site_id
 _symmetry_equiv_pos_as_xyz
  1  'x, y, z'
loop_
 _atom_site_type_symbol
 _atom_site_label
 _atom_site_symmetry_multiplicity
 _atom_site_fract_x
 _atom_site_fract_y
 _atom_site_fract_z
 _atom_site_occupancy
  Y  Y0  1  0.16666700  0.33333300  0.12500000  1
  Mg  Mg0  1  0.18236238  0.84118069  0.12500000  1
  Mg  Mg1  1  0.15532325  0.82766112  0.62500000  1
  Mg  Mg2  1  0.65881931  0.31763762  0.12500000  1
  Mg  Mg3  1  0.67233888  0.34467675  0.62500000  1
  Mg  Mg4  1  0.65881931  0.84118069  0.12500000  1
  Mg  Mg5  1  0.67233888  0.82766112  0.62500000  1
  Mg  Mg6  1  0.32410579  0.17589421  0.39755107  1
  Mg  Mg7  1  0.32410579  0.17589421  0.85244893  1
  Mg  Mg8  1  0.32410579  0.64821257  0.39755107  1
  Mg  Mg9  1  0.32410579  0.64821257  0.85244893  1
  Mg  Mg10  1  0.85178743  0.17589421  0.39755107  1
  Mg  Mg11  1  0.85178743  0.17589421  0.85244893  1
  Mg  Mg12  1  0.83333300  0.66666700  0.36430002  1
  Mg  Mg13  1  0.83333300  0.66666700  0.88569998  1
  C  C0  1  0.16666700  0.33333300  0.62500000  1
loop_
_geom_bond_atom_site_label_1
_geom_bond_atom_site_label_2
_geom_bond_distance
_geom_bond_site_symmetry_2
Mg0 Mg2 3.053965 1_565
Mg0 Mg4 3.053965 1_555
Mg0 Mg13 3.077472 1_454
Mg0 Mg12 3.077472 1_455
Mg0 Y0 3.206054 1_555
Mg0 Y0 3.206054 1_565
Mg0 Mg9 3.300803 1_554
Mg0 Mg8 3.300803 1_555
Mg0 Mg6 3.300810 1_565
Mg0 Mg7 3.300810 1_564
Mg0 Mg2 3.355775 1_455
Mg0 Mg4 3.355775 1_455
Mg1 Mg8 2.983724 1_555
Mg1 Mg9 2.983724 1_555
Mg1 Mg7 2.983731 1_565
Mg1 Mg6 2.983731 1_565
Mg1 Mg3 3.095804 1_455
Mg1 Mg5 3.095805 1_455
Mg1 Mg12 3.159115 1_455
Mg1 Mg13 3.159115 1_455
Mg1 Mg3 3.313936 1_565
Mg1 Mg5 3.313936 1_555
Mg2 Mg4 3.053965 1_545
Mg2 Y0 3.206054 1_655
Mg2 Y0 3.206054 1_555
Mg2 Mg7 3.300810 1_554
Mg2 Mg6 3.300810 1_555
Mg2 Mg4 3.355775 1_555
Mg3 Mg6 2.983731 1_555
Mg3 Mg7 2.983731 1_555
Mg3 Mg5 3.095804 1_555
Mg3 Mg5 3.313936 1_545
Mg4 Y0 3.206054 1_555
Mg4 Y0 3.206054 1_665
Mg4 Mg9 3.300809 1_554
Mg4 Mg8 3.300809 1_555
Mg5 Mg9 2.983731 1_555
Mg5 Mg8 2.983731 1_555
Mg6 Y0 3.235947 1_555
Mg7 Y0 3.235947 1_556
Mg8 Y0 3.235953 1_555
Mg9 Y0 3.235953 1_556
Mg10 Mg3 2.983724 1_555
Mg10 Mg5 2.983731 1_545
Mg10 Mg12 3.223673 1_545
Mg10 Mg12 3.223673 1_555
Mg10 Y0 3.235953 1_655
Mg10 Mg2 3.300803 1_555
Mg10 Mg4 3.300809 1_545
Mg11 Mg3 2.983724 1_555
Mg11 Mg5 2.983731 1_545
Mg11 Mg13 3.223673 1_545
Mg11 Mg13 3.223673 1_555
Mg11 Y0 3.235953 1_656
Mg11 Mg2 3.300803 1_556
Mg11 Mg4 3.300809 1_546
Mg12 Mg4 3.077465 1_555
Mg12 Mg2 3.077472 1_555
Mg12 Mg5 3.159108 1_555
Mg12 Mg3 3.159115 1_555
Mg12 Mg6 3.223673 1_665
Mg12 Mg6 3.223673 1_555
Mg12 Mg8 3.223673 1_555
Mg12 Mg8 3.223674 1_655
Mg13 Mg4 3.077465 1_556
Mg13 Mg2 3.077472 1_556
Mg13 Mg5 3.159108 1_555
Mg13 Mg3 3.159115 1_555
Mg13 Mg7 3.223673 1_665
Mg13 Mg7 3.223673 1_555
Mg13 Mg9 3.223673 1_555
Mg13 Mg9 3.223674 1_655
C0 Mg6 2.867043 1_555
C0 Mg7 2.867043 1_555
C0 Mg8 2.867050 1_555
C0 Mg9 2.867050 1_555
C0 Mg10 2.867050 1_455
C0 Mg11 2.867050 1_455
