# generated using pymatgen
data_Cu11PdN4
_symmetry_space_group_name_H-M   'P 1'
_cell_length_a   7.41219000
_cell_length_b   7.41219000
_cell_length_c   7.79618300
_cell_angle_alpha   90.00000000
_cell_angle_beta   90.00000000
_cell_angle_gamma   90.00000000
_symmetry_Int_Tables_number   1
_chemical_formula_structural   Cu11PdN4
_chemical_formula_sum   'Cu22 Pd2 N8'
_cell_volume   428.32666453
_cell_formula_units_Z   2
loop_
 _symmetry_equiv_pos_site_id
 _symmetry_equiv_pos_as_xyz
  1  'x, y, z'
loop_
 _atom_site_type_symbol
 _atom_site_label
 _atom_site_symmetry_multiplicity
 _atom_site_fract_x
 _atom_site_fract_y
 _atom_site_fract_z
 _atom_site_occupancy
  Cu  Cu0  1  0.50000000  0.50000000  0.76900200  1
  Cu  Cu1  1  0.50000000  0.50000000  0.23099800  1
  Cu  Cu2  1  0.50000000  0.24624100  0.50000000  1
  Cu  Cu3  1  0.50000000  0.75375900  0.50000000  1
  Cu  Cu4  1  0.75375900  0.50000000  0.50000000  1
  Cu  Cu5  1  0.24624100  0.50000000  0.50000000  1
  Cu  Cu6  1  0.00000000  0.26267100  0.00000000  1
  Cu  Cu7  1  0.00000000  0.73732900  0.00000000  1
  Cu  Cu8  1  0.73732900  0.00000000  0.00000000  1
  Cu  Cu9  1  0.26267100  0.00000000  0.00000000  1
  Cu  Cu10  1  0.00000000  0.25554000  0.50000000  1
  Cu  Cu11  1  0.00000000  0.74446000  0.50000000  1
  Cu  Cu12  1  0.74446000  0.00000000  0.50000000  1
  Cu  Cu13  1  0.25554000  0.00000000  0.50000000  1
  Cu  Cu14  1  0.25497600  0.25497600  0.75590400  1
  Cu  Cu15  1  0.74502400  0.74502400  0.75590400  1
  Cu  Cu16  1  0.74502400  0.25497600  0.75590400  1
  Cu  Cu17  1  0.25497600  0.74502400  0.75590400  1
  Cu  Cu18  1  0.74502400  0.74502400  0.24409600  1
  Cu  Cu19  1  0.25497600  0.25497600  0.24409600  1
  Cu  Cu20  1  0.25497600  0.74502400  0.24409600  1
  Cu  Cu21  1  0.74502400  0.25497600  0.24409600  1
  Pd  Pd0  1  0.00000000  0.00000000  0.75140500  1
  Pd  Pd1  1  0.00000000  0.00000000  0.24859500  1
  N  N0  1  0.00000000  0.00000000  0.00000000  1
  N  N1  1  0.00000000  0.00000000  0.50000000  1
  N  N2  1  0.50000000  0.50000000  0.00000000  1
  N  N3  1  0.50000000  0.50000000  0.50000000  1
  N  N4  1  0.50000000  0.00000000  0.50000000  1
  N  N5  1  0.00000000  0.50000000  0.50000000  1
  N  N6  1  0.50000000  0.00000000  0.00000000  1
  N  N7  1  0.00000000  0.50000000  0.00000000  1
loop_
_geom_bond_atom_site_label_1
_geom_bond_atom_site_label_2
_geom_bond_distance
_geom_bond_site_symmetry_2
Cu0 N2 1.800903 1_556
Cu0 N3 2.097189 1_555
Cu0 Cu14 2.570473 1_555
Cu0 Cu17 2.570473 1_555
Cu0 Cu16 2.570473 1_555
Cu0 Cu15 2.570473 1_555
Cu1 N2 1.800903 1_555
Cu1 N3 2.097189 1_555
Cu1 Cu19 2.570473 1_555
Cu1 Cu20 2.570473 1_555
Cu1 Cu21 2.570473 1_555
Cu1 Cu18 2.570473 1_555
Cu2 N4 1.825185 1_555
Cu2 N3 1.880910 1_555
Cu2 Cu21 2.698697 1_555
Cu3 N4 1.825185 1_565
Cu3 N3 1.880910 1_555
Cu4 N5 1.825185 1_655
Cu4 N3 1.880910 1_555
Cu5 N5 1.825185 1_555
Cu5 N3 1.880910 1_555
Cu6 N7 1.759128 1_555
Cu6 N0 1.946967 1_555
Cu7 N7 1.759128 1_555
Cu7 N0 1.946967 1_565
Cu8 N6 1.759128 1_555
Cu8 N0 1.946967 1_655
Cu9 N6 1.759128 1_555
Cu9 N0 1.946967 1_555
Cu10 N5 1.811984 1_555
Cu10 N1 1.894111 1_555
Cu10 Cu16 2.748122 1_455
Cu10 Cu14 2.748122 1_555
Cu10 Cu19 2.748122 1_555
Cu10 Cu21 2.748122 1_455
Cu11 N5 1.811984 1_555
Cu11 N1 1.894111 1_565
Cu11 Cu15 2.748122 1_455
Cu11 Cu17 2.748122 1_555
Cu11 Cu18 2.748122 1_455
Cu11 Cu20 2.748122 1_555
Cu12 N4 1.811984 1_555
Cu12 N1 1.894111 1_655
Cu12 Cu16 2.748122 1_555
Cu12 Cu15 2.748122 1_545
Cu12 Cu21 2.748122 1_555
Cu12 Cu18 2.748122 1_545
Cu13 N4 1.811984 1_555
Cu13 N1 1.894111 1_555
Cu13 Cu17 2.748122 1_545
Cu13 Cu14 2.748122 1_555
Cu13 Cu19 2.748122 1_555
Cu13 Cu20 2.748122 1_545
Cu14 Pd0 2.672996 1_555
Cu14 Cu9 2.682641 1_556
Cu14 Cu6 2.682641 1_556
Cu14 Cu5 2.698697 1_555
Cu14 Cu2 2.698697 1_555
Cu15 Pd0 2.672996 1_665
Cu15 Cu8 2.682641 1_566
Cu15 Cu7 2.682641 1_656
Cu15 Cu3 2.698697 1_555
Cu15 Cu4 2.698697 1_555
Cu16 Pd0 2.672996 1_655
Cu16 Cu6 2.682641 1_656
Cu16 Cu8 2.682641 1_556
Cu16 Cu4 2.698697 1_555
Cu16 Cu2 2.698697 1_555
Cu17 Pd0 2.672996 1_565
Cu17 Cu9 2.682641 1_566
Cu17 Cu7 2.682641 1_556
Cu17 Cu3 2.698697 1_555
Cu17 Cu5 2.698697 1_555
Cu18 Pd1 2.672996 1_665
Cu18 Cu8 2.682641 1_565
Cu18 Cu7 2.682641 1_655
Cu18 Cu3 2.698697 1_555
Cu18 Cu4 2.698697 1_555
Cu19 Pd1 2.672996 1_555
Cu19 Cu9 2.682641 1_555
Cu19 Cu6 2.682641 1_555
Cu19 Cu5 2.698697 1_555
Cu19 Cu2 2.698697 1_555
Cu20 Pd1 2.672996 1_565
Cu20 Cu9 2.682641 1_565
Cu20 Cu7 2.682641 1_555
Cu20 Cu5 2.698697 1_555
Cu20 Cu3 2.698697 1_555
Cu21 Pd1 2.672996 1_655
Cu21 Cu8 2.682641 1_555
Cu21 Cu6 2.682641 1_655
Cu21 Cu4 2.698697 1_555
N0 Pd1 1.938092 1_555
N0 Pd0 1.938092 1_554
N1 Pd0 1.959999 1_555
N1 Pd1 1.959999 1_555
