# generated using pymatgen
data_RbPr(ClO)4
_symmetry_space_group_name_H-M   'P 1'
_cell_length_a   7.16425400
_cell_length_b   8.02148600
_cell_length_c   8.78601500
_cell_angle_alpha   90.00000000
_cell_angle_beta   90.00000000
_cell_angle_gamma   90.00000000
_symmetry_Int_Tables_number   1
_chemical_formula_structural   RbPr(ClO)4
_chemical_formula_sum   'Rb2 Pr2 Cl8 O8'
_cell_volume   504.91438636
_cell_formula_units_Z   2
loop_
 _symmetry_equiv_pos_site_id
 _symmetry_equiv_pos_as_xyz
  1  'x, y, z'
loop_
 _atom_site_type_symbol
 _atom_site_label
 _atom_site_symmetry_multiplicity
 _atom_site_fract_x
 _atom_site_fract_y
 _atom_site_fract_z
 _atom_site_occupancy
  Rb  Rb0  1  0.00000000  0.10458400  0.00000000  1
  Rb  Rb1  1  0.50000000  0.89541600  0.50000000  1
  Pr  Pr0  1  0.00000000  0.42662900  0.50000000  1
  Pr  Pr1  1  0.50000000  0.57337100  0.00000000  1
  Cl  Cl0  1  0.18226900  0.61034500  0.22721700  1
  Cl  Cl1  1  0.81773100  0.61034500  0.77278300  1
  Cl  Cl2  1  0.31773100  0.38965500  0.72721700  1
  Cl  Cl3  1  0.68226900  0.38965500  0.27278300  1
  Cl  Cl4  1  0.15469100  0.17252300  0.33881100  1
  Cl  Cl5  1  0.84530900  0.17252300  0.66118900  1
  Cl  Cl6  1  0.34530900  0.82747700  0.83881100  1
  Cl  Cl7  1  0.65469100  0.82747700  0.16118900  1
  O  O0  1  0.44243100  0.17098500  0.05299300  1
  O  O1  1  0.55756900  0.17098500  0.94700700  1
  O  O2  1  0.05756900  0.82901500  0.55299300  1
  O  O3  1  0.94243100  0.82901500  0.44700700  1
  O  O4  1  0.26343500  0.58209100  0.40326700  1
  O  O5  1  0.73656500  0.58209100  0.59673300  1
  O  O6  1  0.23656500  0.41790900  0.90326700  1
  O  O7  1  0.76343500  0.41790900  0.09673300  1
loop_
_geom_bond_atom_site_label_1
_geom_bond_atom_site_label_2
_geom_bond_distance
_geom_bond_site_symmetry_2
Cl0 O4 1.667940 1_555
Cl0 Pr1 3.042182 1_555
Cl1 O5 1.667940 1_555
Cl1 Pr1 3.042182 1_556
Cl2 O6 1.667940 1_555
Cl2 Pr0 3.042182 1_555
Cl3 O7 1.667940 1_555
Cl3 Pr0 3.042182 1_655
Cl4 Pr0 2.718190 1_555
Cl4 Rb0 3.222814 1_555
Cl4 Rb1 3.614778 1_545
Cl5 Pr0 2.718190 1_655
Cl5 Rb0 3.222814 1_656
Cl5 Rb1 3.614778 1_545
Cl6 Pr1 2.718190 1_556
Cl6 Rb1 3.222814 1_555
Cl6 Rb0 3.614778 1_566
Cl7 Pr1 2.718190 1_555
Cl7 Rb1 3.222814 1_555
Cl7 Rb0 3.614778 1_665
O0 O1 1.244004 1_554
O0 Rb0 3.247677 1_555
O1 Rb0 3.247677 1_656
O2 O3 1.244004 1_455
O2 Rb1 3.247677 1_555
O3 Rb1 3.247677 1_555
O4 Pr0 2.416482 1_555
O4 Rb1 3.148262 1_555
O5 Pr0 2.416482 1_655
O5 Rb1 3.148262 1_555
O6 Pr1 2.416482 1_556
O6 Rb0 3.148262 1_556
O7 Pr1 2.416482 1_555
O7 Rb0 3.148262 1_655
