# generated using pymatgen
data_Sm12Co6Sn
_symmetry_space_group_name_H-M   'P 1'
_cell_length_a   8.55959633
_cell_length_b   8.55961516
_cell_length_c   8.55960640
_cell_angle_alpha   109.47207789
_cell_angle_beta   109.47031980
_cell_angle_gamma   109.47138241
_symmetry_Int_Tables_number   1
_chemical_formula_structural   Sm12Co6Sn
_chemical_formula_sum   'Sm12 Co6 Sn1'
_cell_volume   482.76835393
_cell_formula_units_Z   1
loop_
 _symmetry_equiv_pos_site_id
 _symmetry_equiv_pos_as_xyz
  1  'x, y, z'
loop_
 _atom_site_type_symbol
 _atom_site_label
 _atom_site_symmetry_multiplicity
 _atom_site_fract_x
 _atom_site_fract_y
 _atom_site_fract_z
 _atom_site_occupancy
  Sm  Sm0  1  0.80710929  0.69572768  0.50284260  1
  Sm  Sm1  1  0.19287795  0.30425847  0.49714144  1
  Sm  Sm2  1  0.19287901  0.69573622  0.88862033  1
  Sm  Sm3  1  0.80711062  0.30426809  0.11138424  1
  Sm  Sm4  1  0.69573194  0.50284523  0.80711876  1
  Sm  Sm5  1  0.30426913  0.49715275  0.19289009  1
  Sm  Sm6  1  0.69573631  0.88861876  0.19288905  1
  Sm  Sm7  1  0.30427411  0.11138565  0.80711715  1
  Sm  Sm8  1  0.50285957  0.80712840  0.69573155  1
  Sm  Sm9  1  0.49715385  0.19287942  0.30427737  1
  Sm  Sm10  1  0.11139321  0.80712743  0.30426826  1
  Sm  Sm11  1  0.88859939  0.19287639  0.69572401  1
  Co  Co0  1  0.89000881  0.38999823  0.50000479  1
  Co  Co1  1  0.11002881  0.61001703  0.49999983  1
  Co  Co2  1  0.38999092  0.50000372  0.88999308  1
  Co  Co3  1  0.61000352  0.50000761  0.11000430  1
  Co  Co4  1  0.49999016  0.88997813  0.38998949  1
  Co  Co5  1  0.49998486  0.10998813  0.60999832  1
  Sn  Sn0  1  -0.00000145  0.00000267  0.00000535  1
loop_
_geom_bond_atom_site_label_1
_geom_bond_atom_site_label_2
_geom_bond_distance
_geom_bond_site_symmetry_2
Sm0 Sn0 3.560735 1_666
Sm1 Sn0 3.560539 1_555
Sm2 Sn0 3.560631 1_566
Sm3 Sn0 3.560665 1_655
Sm4 Sn0 3.560692 1_666
Sm5 Sn0 3.560651 1_555
Sm6 Sn0 3.560619 1_665
Sm7 Sn0 3.560739 1_556
Sm8 Sn0 3.560631 1_666
Sm9 Sn0 3.560736 1_555
Sm10 Sn0 3.560628 1_565
Sm11 Sn0 3.560750 1_656
Co0 Co1 2.174644 1_655
Co0 Sm11 2.745556 1_555
Co0 Sm9 2.745644 1_555
Co0 Sm1 2.925527 1_655
Co0 Sm2 2.925567 1_655
Co0 Sm3 2.925601 1_555
Co0 Sm0 2.925660 1_555
Co1 Sm8 2.745475 1_555
Co1 Sm10 2.745561 1_555
Co1 Sm1 2.925631 1_555
Co1 Sm3 2.925674 1_455
Co1 Sm2 2.925711 1_555
Co1 Sm0 2.925772 1_455
Co2 Co3 2.174553 1_556
Co2 Sm2 2.745566 1_555
Co2 Sm1 2.745612 1_555
Co2 Sm6 2.925615 1_556
Co2 Sm4 2.925616 1_555
Co2 Sm7 2.925639 1_555
Co2 Sm5 2.925644 1_556
Co3 Sm0 2.745519 1_555
Co3 Sm3 2.745581 1_555
Co3 Sm6 2.925536 1_555
Co3 Sm4 2.925554 1_554
Co3 Sm5 2.925591 1_555
Co3 Sm7 2.925602 1_554
Co4 Co5 2.174529 1_565
Co4 Sm5 2.745413 1_555
Co4 Sm6 2.745561 1_555
Co4 Sm8 2.925483 1_555
Co4 Sm10 2.925514 1_555
Co4 Sm11 2.925588 1_565
Co4 Sm9 2.925628 1_565
Co5 Sm7 2.745443 1_555
Co5 Sm4 2.745635 1_555
Co5 Sm10 2.925430 1_545
Co5 Sm8 2.925453 1_545
Co5 Sm9 2.925569 1_555
Co5 Sm11 2.925582 1_555
