# generated using pymatgen
data_Li2Cr(CoO3)2
_symmetry_space_group_name_H-M   'P 1'
_cell_length_a   5.22051779
_cell_length_b   10.16711012
_cell_length_c   5.13206064
_cell_angle_alpha   90.00677439
_cell_angle_beta   122.00535449
_cell_angle_gamma   89.95991598
_symmetry_Int_Tables_number   1
_chemical_formula_structural   Li2Cr(CoO3)2
_chemical_formula_sum   'Li4 Cr2 Co4 O12'
_cell_volume   230.99250130
_cell_formula_units_Z   2
loop_
 _symmetry_equiv_pos_site_id
 _symmetry_equiv_pos_as_xyz
  1  'x, y, z'
loop_
 _atom_site_type_symbol
 _atom_site_label
 _atom_site_symmetry_multiplicity
 _atom_site_fract_x
 _atom_site_fract_y
 _atom_site_fract_z
 _atom_site_occupancy
  Li  Li0  1  0.63053100  0.74823800  0.49050900  1
  Li  Li1  1  0.87078500  0.24811600  0.51184500  1
  Li  Li2  1  0.13114400  0.75186000  0.49175200  1
  Li  Li3  1  0.36682700  0.25174600  0.50505500  1
  Cr  Cr0  1  0.50600800  0.50008700  0.01314700  1
  Cr  Cr1  1  0.99434300  0.00045100  0.98712200  1
  Co  Co0  1  0.16644400  0.49927100  0.33803800  1
  Co  Co1  1  0.84075500  0.50046000  0.67273700  1
  Co  Co2  1  0.65924800  0.00081700  0.32734800  1
  Co  Co3  1  0.33345000  0.99943000  0.66194500  1
  O  O0  1  0.16880300  0.59328500  0.01380100  1
  O  O1  1  0.33071200  0.09365200  0.98571500  1
  O  O2  1  0.64278600  0.90543800  0.96307000  1
  O  O3  1  0.85801900  0.40470700  0.03767800  1
  O  O4  1  0.32128900  0.89385500  0.34475400  1
  O  O5  1  0.53800800  0.39004900  0.36188300  1
  O  O6  1  0.82625700  0.61253500  0.34875300  1
  O  O7  1  0.03192600  0.10475300  0.35255100  1
  O  O8  1  0.67340300  0.11281400  0.65079600  1
  O  O9  1  0.96251800  0.89024900  0.63877700  1
  O  O10  1  0.17893400  0.39366300  0.65542600  1
  O  O11  1  0.46781000  0.60452400  0.64729900  1
loop_
_geom_bond_atom_site_label_1
_geom_bond_atom_site_label_2
_geom_bond_distance
_geom_bond_site_symmetry_2
Li0 O4 2.018560 1_555
Li0 O11 2.056854 1_555
Li0 O6 2.064618 1_555
Li0 O9 2.067075 1_555
Li1 O10 2.016736 1_655
Li1 O7 2.056099 1_655
Li1 O8 2.060045 1_555
Li1 O5 2.066956 1_555
Li2 O6 1.960430 1_455
Li2 O9 2.006510 1_455
Li2 O4 2.105885 1_555
Li2 O11 2.116517 1_555
Li3 O8 1.960721 1_555
Li3 O5 2.003437 1_555
Li3 O10 2.107076 1_555
Li3 O7 2.110861 1_555
Cr0 O0 2.000188 1_555
Cr0 O6 2.004645 1_555
Cr0 O3 2.021289 1_555
Cr0 O10 2.033714 1_554
Cr0 O5 2.041075 1_555
Cr0 O11 2.072618 1_554
Cr1 O1 1.999337 1_655
Cr1 O8 2.005960 1_555
Cr1 O2 2.019675 1_545
Cr1 O4 2.033154 1_646
Cr1 O9 2.040563 1_545
Cr1 O7 2.071225 1_656
Co0 O3 1.806645 1_455
Co0 O11 1.869364 1_555
Co0 O10 1.923030 1_555
Co0 O0 1.924792 1_555
Co0 O6 2.140977 1_455
Co0 O5 2.180867 1_555
Co1 O5 1.905924 1_555
Co1 O0 1.926595 1_656
Co1 O6 1.983850 1_555
Co1 O3 2.070029 1_556
Co1 O10 2.113605 1_655
Co1 O11 2.157515 1_555
Co2 O9 1.908009 1_545
Co2 O1 1.927990 1_554
Co2 O8 1.981707 1_555
Co2 O2 2.066921 1_544
Co2 O4 2.114999 1_545
Co2 O7 2.157488 1_655
Co3 O2 1.806144 1_555
Co3 O7 1.869324 1_565
Co3 O4 1.922553 1_555
Co3 O1 1.924479 1_565
Co3 O8 2.142983 1_565
Co3 O9 2.180629 1_455
