# generated using pymatgen
data_Yb3Y(Si2O7)2
_symmetry_space_group_name_H-M   'P 1'
_cell_length_a   4.86256100
_cell_length_b   5.75043793
_cell_length_c   11.30406996
_cell_angle_alpha   77.45644749
_cell_angle_beta   79.30736290
_cell_angle_gamma   82.96061806
_symmetry_Int_Tables_number   1
_chemical_formula_structural   Yb3Y(Si2O7)2
_chemical_formula_sum   'Yb3 Y1 Si4 O14'
_cell_volume   302.06412777
_cell_formula_units_Z   1
loop_
 _symmetry_equiv_pos_site_id
 _symmetry_equiv_pos_as_xyz
  1  'x, y, z'
loop_
 _atom_site_type_symbol
 _atom_site_label
 _atom_site_symmetry_multiplicity
 _atom_site_fract_x
 _atom_site_fract_y
 _atom_site_fract_z
 _atom_site_occupancy
  Yb  Yb0  1  0.99849000  0.96087100  0.34656100  1
  Yb  Yb1  1  0.99815000  0.03969400  0.65328500  1
  Yb  Yb2  1  0.00082500  0.53989300  0.15340500  1
  Y  Y0  1  0.00064000  0.46105600  0.84625700  1
  Si  Si0  1  0.39937300  0.89109700  0.89077700  1
  Si  Si1  1  0.40679100  0.39167900  0.39196800  1
  Si  Si2  1  0.59632700  0.60919200  0.61011000  1
  Si  Si3  1  0.60057400  0.10852500  0.10709400  1
  O  O0  1  0.49565500  0.99728100  0.00114000  1
  O  O1  1  0.50460200  0.49620900  0.50128200  1
  O  O2  1  0.21961000  0.10790900  0.81150400  1
  O  O3  1  0.21948000  0.59909100  0.31146700  1
  O  O4  1  0.21728400  0.66184600  0.95255100  1
  O  O5  1  0.22101200  0.16634700  0.45503200  1
  O  O6  1  0.78167200  0.40172000  0.69275500  1
  O  O7  1  0.78066200  0.89982500  0.18978100  1
  O  O8  1  0.77433600  0.83764200  0.54473600  1
  O  O9  1  0.78415400  0.33415300  0.03965600  1
  O  O10  1  0.70599400  0.81069100  0.81447900  1
  O  O11  1  0.70699800  0.31361500  0.31161000  1
  O  O12  1  0.29018900  0.68397300  0.68844000  1
  O  O13  1  0.29717900  0.18769100  0.18611000  1
loop_
_geom_bond_atom_site_label_1
_geom_bond_atom_site_label_2
_geom_bond_distance
_geom_bond_site_symmetry_2
O0 Si3 1.656366 1_565
O0 Si0 1.663159 1_554
O1 Si1 1.650832 1_555
O1 Si2 1.660193 1_555
O2 Si0 1.630877 1_545
O2 Y0 2.252402 1_555
O2 Yb1 2.373874 1_455
O3 Si1 1.627905 1_555
O3 Yb0 2.300540 1_455
O3 Yb2 2.344489 1_555
O4 Si0 1.632877 1_555
O4 Y0 2.292836 1_555
O4 Yb2 2.314559 1_556
O5 Si1 1.627866 1_555
O5 Yb1 2.304442 1_455
O5 Yb0 2.346356 1_445
O6 Si2 1.634983 1_555
O6 Y0 2.300613 1_655
O6 Yb1 2.309350 1_555
O7 Si3 1.624707 1_565
O7 Yb2 2.293977 1_655
O7 Yb0 2.333231 1_555
O8 Si2 1.625046 1_555
O8 Yb0 2.302672 1_555
O8 Yb1 2.337687 1_565
O9 Si3 1.631911 1_555
O9 Y0 2.249764 1_654
O9 Yb2 2.373202 1_655
O10 Si0 1.645507 1_555
O10 Y0 2.322784 1_655
O10 Yb1 2.351220 1_565
O11 Si1 1.637694 1_555
O11 Yb2 2.330112 1_655
O11 Yb0 2.331235 1_545
O12 Si2 1.644471 1_555
O12 Y0 2.307611 1_555
O12 Yb1 2.345871 1_465
O13 Si3 1.644543 1_555
O13 Yb2 2.339292 1_555
O13 Yb0 2.357877 1_445
