# generated using pymatgen
data_Pr2ZrSe5
_symmetry_space_group_name_H-M   'P 1'
_cell_length_a   7.77333928
_cell_length_b   8.39032547
_cell_length_c   12.24834248
_cell_angle_alpha   90.00000000
_cell_angle_beta   90.00000000
_cell_angle_gamma   90.00000000
_symmetry_Int_Tables_number   1
_chemical_formula_structural   Pr2ZrSe5
_chemical_formula_sum   'Pr8 Zr4 Se20'
_cell_volume   798.84726535
_cell_formula_units_Z   4
loop_
 _symmetry_equiv_pos_site_id
 _symmetry_equiv_pos_as_xyz
  1  'x, y, z'
loop_
 _atom_site_type_symbol
 _atom_site_label
 _atom_site_symmetry_multiplicity
 _atom_site_fract_x
 _atom_site_fract_y
 _atom_site_fract_z
 _atom_site_occupancy
  Pr  Pr0  1  0.46453760  0.49757633  0.17679519  1
  Pr  Pr1  1  0.03546240  0.00242367  0.67679519  1
  Pr  Pr2  1  0.53546240  0.99757633  0.82320481  1
  Pr  Pr3  1  0.96453760  0.50242367  0.32320481  1
  Pr  Pr4  1  0.53546240  0.50242367  0.82320481  1
  Pr  Pr5  1  0.96453760  0.99757633  0.32320481  1
  Pr  Pr6  1  0.46453760  0.00242367  0.17679519  1
  Pr  Pr7  1  0.03546240  0.49757633  0.67679519  1
  Zr  Zr0  1  0.92308057  0.75000000  0.00758804  1
  Zr  Zr1  1  0.57691943  0.75000000  0.50758804  1
  Zr  Zr2  1  0.07691943  0.25000000  0.99241196  1
  Zr  Zr3  1  0.42308057  0.25000000  0.49241196  1
  Se  Se0  1  0.15742264  0.75000000  0.18332767  1
  Se  Se1  1  0.34257736  0.75000000  0.68332767  1
  Se  Se2  1  0.84257736  0.25000000  0.81667233  1
  Se  Se3  1  0.65742264  0.25000000  0.31667233  1
  Se  Se4  1  0.67758680  0.75000000  0.29345534  1
  Se  Se5  1  0.82241320  0.75000000  0.79345534  1
  Se  Se6  1  0.32241320  0.25000000  0.70654466  1
  Se  Se7  1  0.17758680  0.25000000  0.20654466  1
  Se  Se8  1  0.55524786  0.75000000  0.00468737  1
  Se  Se9  1  0.94475214  0.75000000  0.50468737  1
  Se  Se10  1  0.44475214  0.25000000  0.99531263  1
  Se  Se11  1  0.05524786  0.25000000  0.49531263  1
  Se  Se12  1  0.83431024  0.46347627  0.08514444  1
  Se  Se13  1  0.66568976  0.03652373  0.58514444  1
  Se  Se14  1  0.16568976  0.96347627  0.91485556  1
  Se  Se15  1  0.33431024  0.53652373  0.41485556  1
  Se  Se16  1  0.16568976  0.53652373  0.91485556  1
  Se  Se17  1  0.33431024  0.96347627  0.41485556  1
  Se  Se18  1  0.83431024  0.03652373  0.08514444  1
  Se  Se19  1  0.66568976  0.46347627  0.58514444  1
loop_
_geom_bond_atom_site_label_1
_geom_bond_atom_site_label_2
_geom_bond_distance
_geom_bond_site_symmetry_2
Pr0 Se4 3.044665 1_555
Pr0 Se10 3.046262 1_554
Pr0 Se7 3.069715 1_555
Pr0 Se8 3.070274 1_555
Pr0 Se3 3.081932 1_555
Pr0 Se12 3.099034 1_555
Pr0 Se15 3.103819 1_555
Pr0 Se0 3.192368 1_555
Pr1 Se5 3.044665 1_445
Pr1 Se11 3.046262 1_555
Pr1 Se6 3.069715 1_555
Pr1 Se9 3.070274 1_445
Pr1 Se2 3.081932 1_455
Pr1 Se13 3.099034 1_455
Pr1 Se14 3.103819 1_545
Pr1 Se1 3.192368 1_545
Pr2 Se6 3.044665 1_565
Pr2 Se8 3.046262 1_556
Pr2 Se5 3.069715 1_555
Pr2 Se10 3.070274 1_565
Pr2 Se1 3.081932 1_555
Pr2 Se14 3.099034 1_555
Pr2 Se13 3.103819 1_565
Pr2 Se2 3.192368 1_565
Pr3 Se7 3.044665 1_655
Pr3 Se9 3.046262 1_555
Pr3 Se4 3.069715 1_555
Pr3 Se11 3.070274 1_655
Pr3 Se0 3.081932 1_655
Pr3 Se15 3.099034 1_655
Pr3 Se12 3.103819 1_555
Pr3 Se3 3.192368 1_555
Pr4 Se6 3.044665 1_555
Pr4 Se8 3.046262 1_556
Pr4 Se5 3.069715 1_555
Pr4 Se10 3.070274 1_555
Pr4 Se1 3.081932 1_555
Pr4 Se16 3.099034 1_555
Pr4 Se19 3.103819 1_555
Pr4 Se2 3.192368 1_555
Pr5 Se7 3.044665 1_665
Pr5 Se9 3.046262 1_555
Pr5 Se4 3.069715 1_555
Pr5 Se11 3.070274 1_665
Pr5 Se0 3.081932 1_655
Pr5 Se17 3.099034 1_655
Pr5 Se18 3.103819 1_565
Pr5 Se3 3.192368 1_565
Pr6 Se4 3.044665 1_545
Pr6 Se10 3.046262 1_554
Pr6 Se7 3.069715 1_555
Pr6 Se8 3.070274 1_545
Pr6 Se3 3.081932 1_555
Pr6 Se18 3.099034 1_555
Pr6 Se17 3.103819 1_545
Pr6 Se0 3.192368 1_545
Pr7 Se5 3.044665 1_455
Pr7 Se11 3.046262 1_555
Pr7 Se6 3.069715 1_555
Pr7 Se9 3.070274 1_455
Pr7 Se2 3.081932 1_455
Pr7 Se19 3.099034 1_455
Pr7 Se16 3.103819 1_555
Pr7 Se1 3.192368 1_555
Se0 Zr0 2.819865 1_455
Se1 Zr1 2.819865 1_555
Se2 Zr2 2.819865 1_655
Se3 Zr3 2.819865 1_555
Se4 Zr1 2.737018 1_555
Se5 Zr0 2.737018 1_556
Se6 Zr3 2.737018 1_555
Se7 Zr2 2.737018 1_554
Se8 Zr0 2.859509 1_555
Se9 Zr1 2.859509 1_555
Se10 Zr2 2.859509 1_555
Se11 Zr3 2.859509 1_555
Se12 Zr0 2.675423 1_555
Se12 Zr2 2.838099 1_654
Se13 Zr1 2.675423 1_545
Se13 Zr3 2.838099 1_555
Se14 Zr2 2.675423 1_565
Se14 Zr0 2.838099 1_456
Se15 Zr3 2.675423 1_555
Se15 Zr1 2.838099 1_555
Se16 Zr2 2.675423 1_555
Se16 Zr0 2.838099 1_456
Se17 Zr3 2.675423 1_565
Se17 Zr1 2.838099 1_555
Se18 Zr0 2.675423 1_545
Se18 Zr2 2.838099 1_654
Se19 Zr1 2.675423 1_555
Se19 Zr3 2.838099 1_555
