# generated using pymatgen
data_BaNdHf4O12
_symmetry_space_group_name_H-M   'P 1'
_cell_length_a   5.82460863
_cell_length_b   5.82460863
_cell_length_c   8.19711393
_cell_angle_alpha   90.00000000
_cell_angle_beta   90.00000000
_cell_angle_gamma   90.37331242
_symmetry_Int_Tables_number   1
_chemical_formula_structural   BaNdHf4O12
_chemical_formula_sum   'Ba1 Nd1 Hf4 O12'
_cell_volume   278.08992288
_cell_formula_units_Z   1
loop_
 _symmetry_equiv_pos_site_id
 _symmetry_equiv_pos_as_xyz
  1  'x, y, z'
loop_
 _atom_site_type_symbol
 _atom_site_label
 _atom_site_symmetry_multiplicity
 _atom_site_fract_x
 _atom_site_fract_y
 _atom_site_fract_z
 _atom_site_occupancy
  Ba  Ba0  1  0.48095153  0.51904847  -0.00000000  1
  Nd  Nd0  1  0.02746306  0.97253694  0.50000000  1
  Hf  Hf0  1  0.50980685  0.00746943  0.25310321  1
  Hf  Hf1  1  0.50980685  0.00746943  0.74689679  1
  Hf  Hf2  1  0.99253057  0.49019315  0.74689679  1
  Hf  Hf3  1  0.99253057  0.49019315  0.25310321  1
  O  O0  1  0.26964838  0.27006999  0.25677065  1
  O  O1  1  0.72993001  0.73035162  0.25677065  1
  O  O2  1  0.72993001  0.73035162  0.74322935  1
  O  O3  1  0.26964838  0.27006999  0.74322935  1
  O  O4  1  0.22772671  0.77227329  0.24329331  1
  O  O5  1  0.79231520  0.20768480  0.30496084  1
  O  O6  1  0.79231520  0.20768480  0.69503916  1
  O  O7  1  0.22772671  0.77227329  0.75670669  1
  O  O8  1  0.51815740  0.02464715  -0.00000000  1
  O  O9  1  0.43409490  0.98283517  0.50000000  1
  O  O10  1  0.97535285  0.48184260  0.00000000  1
  O  O11  1  0.01716483  0.56590510  0.50000000  1
loop_
_geom_bond_atom_site_label_1
_geom_bond_atom_site_label_2
_geom_bond_distance
_geom_bond_site_symmetry_2
Ba0 O0 2.832788 1_555
Ba0 O3 2.832788 1_554
Ba0 O1 2.832788 1_555
Ba0 O2 2.832788 1_554
Ba0 O8 2.889245 1_555
Ba0 O10 2.889245 1_555
Ba0 O7 2.890755 1_554
Ba0 O4 2.890755 1_555
Ba0 O10 2.951469 1_455
Ba0 O8 2.951469 1_565
Nd0 O9 2.368840 1_555
Nd0 O11 2.368840 1_555
Nd0 O5 2.516411 1_465
Nd0 O6 2.516411 1_465
Nd0 O7 2.677099 1_555
Nd0 O4 2.677099 1_555
Nd0 O1 2.989402 1_455
Nd0 O2 2.989402 1_455
Nd0 O3 2.989402 1_565
Nd0 O0 2.989402 1_565
Hf0 O5 2.055074 1_555
Hf0 O1 2.068105 1_545
Hf0 O9 2.076095 1_545
Hf0 O8 2.077681 1_555
Hf0 O0 2.079667 1_555
Hf0 O4 2.133847 1_545
Hf1 O6 2.055074 1_555
Hf1 O2 2.068105 1_545
Hf1 O9 2.076095 1_545
Hf1 O8 2.077681 1_556
Hf1 O3 2.079667 1_555
Hf1 O7 2.133847 1_545
Hf2 O6 2.055074 1_555
Hf2 O3 2.068105 1_655
Hf2 O11 2.076095 1_655
Hf2 O10 2.077681 1_556
Hf2 O2 2.079667 1_555
Hf2 O7 2.133847 1_655
Hf3 O5 2.055074 1_555
Hf3 O0 2.068105 1_655
Hf3 O11 2.076095 1_655
Hf3 O10 2.077681 1_555
Hf3 O1 2.079667 1_555
Hf3 O4 2.133847 1_655
