# generated using pymatgen
data_TiP2O7
_symmetry_space_group_name_H-M   'P 1'
_cell_length_a   8.13268223
_cell_length_b   8.13268223
_cell_length_c   8.13268223
_cell_angle_alpha   90.00000000
_cell_angle_beta   90.00000000
_cell_angle_gamma   90.00000000
_symmetry_Int_Tables_number   1
_chemical_formula_structural   TiP2O7
_chemical_formula_sum   'Ti4 P8 O28'
_cell_volume   537.89983375
_cell_formula_units_Z   4
loop_
 _symmetry_equiv_pos_site_id
 _symmetry_equiv_pos_as_xyz
  1  'x, y, z'
loop_
 _atom_site_type_symbol
 _atom_site_label
 _atom_site_symmetry_multiplicity
 _atom_site_fract_x
 _atom_site_fract_y
 _atom_site_fract_z
 _atom_site_occupancy
  Ti  Ti0  1  0.50000000  0.50000000  0.00000000  1
  Ti  Ti1  1  0.50000000  0.00000000  0.50000000  1
  Ti  Ti2  1  -0.00000000  0.50000000  0.50000000  1
  Ti  Ti3  1  -0.00000000  0.00000000  0.00000000  1
  P  P0  1  0.11133759  0.88866241  0.38866241  1
  P  P1  1  0.88866241  0.38866241  0.11133759  1
  P  P2  1  0.38866241  0.11133759  0.88866241  1
  P  P3  1  0.61133759  0.61133759  0.61133759  1
  P  P4  1  0.88866241  0.11133759  0.61133759  1
  P  P5  1  0.11133759  0.61133759  0.88866241  1
  P  P6  1  0.61133759  0.88866241  0.11133759  1
  P  P7  1  0.38866241  0.38866241  0.38866241  1
  O  O0  1  0.08471483  0.94202137  0.21365696  1
  O  O1  1  0.91528517  0.44202137  0.28634304  1
  O  O2  1  0.41528517  0.05797863  0.71365696  1
  O  O3  1  0.58471483  0.55797863  0.78634304  1
  O  O4  1  0.21365696  0.08471483  0.94202137  1
  O  O5  1  0.28634304  0.91528517  0.44202137  1
  O  O6  1  0.71365696  0.41528517  0.05797863  1
  O  O7  1  0.78634304  0.58471483  0.55797863  1
  O  O8  1  0.94202137  0.21365696  0.08471483  1
  O  O9  1  0.44202137  0.28634304  0.91528517  1
  O  O10  1  0.05797863  0.71365696  0.41528517  1
  O  O11  1  0.55797863  0.78634304  0.58471483  1
  O  O12  1  0.91528517  0.05797863  0.78634304  1
  O  O13  1  0.08471483  0.55797863  0.71365696  1
  O  O14  1  0.58471483  0.94202137  0.28634304  1
  O  O15  1  0.41528517  0.44202137  0.21365696  1
  O  O16  1  0.78634304  0.91528517  0.05797863  1
  O  O17  1  0.71365696  0.08471483  0.55797863  1
  O  O18  1  0.28634304  0.58471483  0.94202137  1
  O  O19  1  0.21365696  0.41528517  0.44202137  1
  O  O20  1  0.05797863  0.78634304  0.91528517  1
  O  O21  1  0.55797863  0.71365696  0.08471483  1
  O  O22  1  0.94202137  0.28634304  0.58471483  1
  O  O23  1  0.44202137  0.21365696  0.41528517  1
  O  O24  1  -0.00000000  0.00000000  0.50000000  1
  O  O25  1  -0.00000000  0.50000000  0.00000000  1
  O  O26  1  0.50000000  0.00000000  0.00000000  1
  O  O27  1  0.50000000  0.50000000  0.50000000  1
loop_
_geom_bond_atom_site_label_1
_geom_bond_atom_site_label_2
_geom_bond_distance
_geom_bond_site_symmetry_2
O0 P0 1.503620 1_555
O0 Ti3 1.927762 1_565
O1 P1 1.503620 1_555
O1 Ti2 1.927762 1_655
O2 P2 1.503620 1_555
O2 Ti1 1.927762 1_555
O3 P3 1.503620 1_555
O3 Ti0 1.927762 1_556
O4 P2 1.503620 1_555
O4 Ti3 1.927762 1_556
O5 P0 1.503620 1_555
O5 Ti1 1.927762 1_565
O6 P1 1.503620 1_555
O6 Ti0 1.927762 1_555
O7 P3 1.503620 1_555
O7 Ti2 1.927762 1_655
O8 P1 1.503620 1_555
O8 Ti3 1.927762 1_655
O9 P2 1.503620 1_555
O9 Ti0 1.927762 1_556
O10 P0 1.503620 1_555
O10 Ti2 1.927762 1_555
O11 P3 1.503620 1_555
O11 Ti1 1.927762 1_565
O12 P4 1.503620 1_555
O12 Ti3 1.927762 1_656
O13 P5 1.503620 1_555
O13 Ti2 1.927762 1_555
O14 P6 1.503620 1_555
O14 Ti1 1.927762 1_565
O15 P7 1.503620 1_555
O15 Ti0 1.927762 1_555
O16 P6 1.503620 1_555
O16 Ti3 1.927762 1_665
O17 P4 1.503620 1_555
O17 Ti1 1.927762 1_555
O18 P5 1.503620 1_555
O18 Ti0 1.927762 1_556
O19 P7 1.503620 1_555
O19 Ti2 1.927762 1_555
O20 P5 1.503620 1_555
O20 Ti3 1.927762 1_566
O21 P6 1.503620 1_555
O21 Ti0 1.927762 1_555
O22 P4 1.503620 1_555
O22 Ti2 1.927762 1_655
O23 P7 1.503620 1_555
O23 Ti1 1.927762 1_555
O24 P4 1.568326 1_455
O24 P0 1.568326 1_545
O25 P1 1.568326 1_455
O25 P5 1.568326 1_554
O26 P2 1.568326 1_554
O26 P6 1.568326 1_545
O27 P3 1.568326 1_555
O27 P7 1.568326 1_555
