# generated using pymatgen
data_NdSiO4
_symmetry_space_group_name_H-M   'P 1'
_cell_length_a   6.04629500
_cell_length_b   6.04629500
_cell_length_c   6.04629500
_cell_angle_alpha   106.49330698
_cell_angle_beta   106.49330698
_cell_angle_gamma   115.60683474
_symmetry_Int_Tables_number   1
_chemical_formula_structural   NdSiO4
_chemical_formula_sum   'Nd2 Si2 O8'
_cell_volume   168.67662135
_cell_formula_units_Z   2
loop_
 _symmetry_equiv_pos_site_id
 _symmetry_equiv_pos_as_xyz
  1  'x, y, z'
loop_
 _atom_site_type_symbol
 _atom_site_label
 _atom_site_symmetry_multiplicity
 _atom_site_fract_x
 _atom_site_fract_y
 _atom_site_fract_z
 _atom_site_occupancy
  Nd  Nd0  1  0.25000000  0.75000000  0.50000000  1
  Nd  Nd1  1  0.00000000  0.00000000  0.00000000  1
  Si  Si0  1  0.50000000  0.50000000  0.00000000  1
  Si  Si1  1  0.75000000  0.25000000  0.50000000  1
  O  O0  1  0.48691400  0.66256600  0.82434800  1
  O  O1  1  0.33743400  0.51308600  0.17565200  1
  O  O2  1  0.33743400  0.16178300  0.82434800  1
  O  O3  1  0.83821700  0.66256600  0.17565200  1
  O  O4  1  0.41178300  0.08743400  0.32434800  1
  O  O5  1  0.91256600  0.58821700  0.67565200  1
  O  O6  1  0.91256600  0.23691400  0.32434800  1
  O  O7  1  0.76308600  0.08743400  0.67565200  1
loop_
_geom_bond_atom_site_label_1
_geom_bond_atom_site_label_2
_geom_bond_distance
_geom_bond_site_symmetry_2
Nd0 O1 2.413604 1_555
Nd0 O0 2.413604 1_555
Nd0 O3 2.413608 1_455
Nd0 O2 2.413608 1_565
Nd0 O7 2.518420 1_565
Nd0 O6 2.518420 1_455
Nd0 O4 2.518421 1_565
Nd0 O5 2.518421 1_455
Nd1 O7 2.413604 1_454
Nd1 O6 2.413604 1_455
Nd1 O5 2.413608 1_444
Nd1 O4 2.413608 1_555
Nd1 O0 2.518420 1_444
Nd1 O1 2.518420 1_555
Nd1 O3 2.518421 1_445
Nd1 O2 2.518421 1_554
O0 Si0 1.646991 1_556
O1 Si0 1.646991 1_555
O2 Si0 1.646986 1_556
O3 Si0 1.646986 1_555
O4 Si1 1.646986 1_555
O5 Si1 1.646986 1_555
O6 Si1 1.646991 1_555
O7 Si1 1.646991 1_555
