# generated using pymatgen
data_Zn(BiO2)2
_symmetry_space_group_name_H-M   'P 1'
_cell_length_a   3.48652800
_cell_length_b   6.69720584
_cell_length_c   10.31556773
_cell_angle_alpha   101.60324799
_cell_angle_beta   99.37518978
_cell_angle_gamma   104.32802211
_symmetry_Int_Tables_number   1
_chemical_formula_structural   Zn(BiO2)2
_chemical_formula_sum   'Zn2 Bi4 O8'
_cell_volume   222.79354881
_cell_formula_units_Z   2
loop_
 _symmetry_equiv_pos_site_id
 _symmetry_equiv_pos_as_xyz
  1  'x, y, z'
loop_
 _atom_site_type_symbol
 _atom_site_label
 _atom_site_symmetry_multiplicity
 _atom_site_fract_x
 _atom_site_fract_y
 _atom_site_fract_z
 _atom_site_occupancy
  Zn  Zn0  1  0.96752400  0.28305500  0.72895900  1
  Zn  Zn1  1  0.03247600  0.71694500  0.27104100  1
  Bi  Bi0  1  0.21927900  0.84491600  0.61227900  1
  Bi  Bi1  1  0.19922100  0.30495400  0.06827800  1
  Bi  Bi2  1  0.80077900  0.69504600  0.93172200  1
  Bi  Bi3  1  0.78072100  0.15508400  0.38772100  1
  O  O0  1  0.15336000  0.02479200  0.25511200  1
  O  O1  1  0.18544600  0.59941800  0.77990200  1
  O  O2  1  0.81455400  0.40058200  0.22009800  1
  O  O3  1  0.84664000  0.97520800  0.74488800  1
  O  O4  1  0.62976400  0.82207500  0.40544900  1
  O  O5  1  0.64550700  0.35559200  0.90769600  1
  O  O6  1  0.37023600  0.17792500  0.59455100  1
  O  O7  1  0.35449300  0.64440800  0.09230400  1
loop_
_geom_bond_atom_site_label_1
_geom_bond_atom_site_label_2
_geom_bond_distance
_geom_bond_site_symmetry_2
Bi0 O6 2.213330 1_565
Bi0 O3 2.231726 1_455
Bi0 O3 2.239943 1_555
Bi0 O1 2.611725 1_555
Bi0 O4 2.661656 1_455
Bi0 O4 2.756020 1_555
Bi1 O7 2.154833 1_555
Bi1 O2 2.299420 1_555
Bi1 O2 2.316787 1_455
Bi1 O5 2.466704 1_554
Bi1 O5 2.468627 1_454
Bi2 O5 2.154833 1_555
Bi2 O1 2.299420 1_555
Bi2 O1 2.316787 1_655
Bi2 O7 2.466704 1_556
Bi2 O7 2.468627 1_656
Bi3 O4 2.213330 1_545
Bi3 O0 2.231726 1_655
Bi3 O0 2.239943 1_555
Bi3 O2 2.611725 1_555
Bi3 O6 2.661656 1_655
Bi3 O6 2.756020 1_555
O0 Zn1 2.045498 1_545
O1 Zn0 1.991932 1_455
O2 Zn1 1.991932 1_655
O3 Zn0 2.045498 1_565
O4 Zn1 2.166949 1_555
O4 Zn1 2.262815 1_655
O5 Zn0 2.340952 1_555
O6 Zn0 2.166949 1_555
O6 Zn0 2.262815 1_455
O7 Zn1 2.340952 1_555
