# generated using pymatgen
data_NaTl
_symmetry_space_group_name_H-M   'P 1'
_cell_length_a   5.16283041
_cell_length_b   5.16283041
_cell_length_c   10.22337981
_cell_angle_alpha   90.00000000
_cell_angle_beta   90.00000000
_cell_angle_gamma   119.99999880
_symmetry_Int_Tables_number   1
_chemical_formula_structural   NaTl
_chemical_formula_sum   'Na4 Tl4'
_cell_volume   235.99393990
_cell_formula_units_Z   4
loop_
 _symmetry_equiv_pos_site_id
 _symmetry_equiv_pos_as_xyz
  1  'x, y, z'
loop_
 _atom_site_type_symbol
 _atom_site_label
 _atom_site_symmetry_multiplicity
 _atom_site_fract_x
 _atom_site_fract_y
 _atom_site_fract_z
 _atom_site_occupancy
  Na  Na0  1  0.33333300  0.66666700  0.42165334  1
  Na  Na1  1  0.66666700  0.33333300  0.57834666  1
  Na  Na2  1  0.66666700  0.33333300  0.92165334  1
  Na  Na3  1  0.33333300  0.66666700  0.07834666  1
  Tl  Tl0  1  -0.00000000  -0.00000000  0.25000000  1
  Tl  Tl1  1  -0.00000000  -0.00000000  0.75000000  1
  Tl  Tl2  1  0.33333300  0.66666700  0.75000000  1
  Tl  Tl3  1  0.66666700  0.33333300  0.25000000  1
loop_
_geom_bond_atom_site_label_1
_geom_bond_atom_site_label_2
_geom_bond_distance
_geom_bond_site_symmetry_2
Na0 Tl2 3.356813 1_555
Na0 Na1 3.383950 1_565
Na0 Na1 3.383950 1_455
Na0 Na1 3.383958 1_555
Na0 Tl0 3.458976 1_565
Na0 Tl3 3.458976 1_455
Na0 Tl3 3.458976 1_565
Na0 Tl0 3.458980 1_665
Na0 Tl0 3.458980 1_555
Na0 Tl3 3.458984 1_555
Na0 Na3 3.509755 1_555
Na1 Tl3 3.356813 1_555
Na1 Tl1 3.458976 1_655
Na1 Tl2 3.458976 1_545
Na1 Tl2 3.458976 1_655
Na1 Tl1 3.458980 1_555
Na1 Tl1 3.458980 1_665
Na1 Tl2 3.458984 1_555
Na1 Na2 3.509755 1_555
Na2 Tl3 3.356813 1_556
Na2 Na3 3.383950 1_656
Na2 Na3 3.383950 1_546
Na2 Na3 3.383958 1_556
Na2 Tl1 3.458976 1_655
Na2 Tl2 3.458976 1_545
Na2 Tl2 3.458976 1_655
Na2 Tl1 3.458980 1_555
Na2 Tl1 3.458980 1_665
Na2 Tl2 3.458984 1_555
Na3 Tl2 3.356813 1_554
Na3 Tl0 3.458976 1_565
Na3 Tl3 3.458976 1_455
Na3 Tl3 3.458976 1_565
Na3 Tl0 3.458980 1_665
Na3 Tl0 3.458980 1_555
Na3 Tl3 3.458984 1_555
Tl0 Tl3 2.980759 1_455
Tl0 Tl3 2.980763 1_555
Tl0 Tl3 2.980763 1_445
Tl1 Tl2 2.980759 1_545
Tl1 Tl2 2.980763 1_555
Tl1 Tl2 2.980763 1_445
