# generated using pymatgen
data_KIO3
_symmetry_space_group_name_H-M   'P 1'
_cell_length_a   6.28762872
_cell_length_b   6.28762918
_cell_length_c   6.28762951
_cell_angle_alpha   59.93186773
_cell_angle_beta   59.93186075
_cell_angle_gamma   59.93187505
_symmetry_Int_Tables_number   1
_chemical_formula_structural   KIO3
_chemical_formula_sum   'K2 I2 O6'
_cell_volume   175.49877238
_cell_formula_units_Z   2
loop_
 _symmetry_equiv_pos_site_id
 _symmetry_equiv_pos_as_xyz
  1  'x, y, z'
loop_
 _atom_site_type_symbol
 _atom_site_label
 _atom_site_symmetry_multiplicity
 _atom_site_fract_x
 _atom_site_fract_y
 _atom_site_fract_z
 _atom_site_occupancy
  K  K0  1  0.24579014  0.24579014  0.24579014  1
  K  K1  1  0.74594688  0.74594688  0.74594688  1
  I  I0  1  0.99590327  0.99590327  0.99590327  1
  I  I1  1  0.49589923  0.49589923  0.49589923  1
  O  O0  1  0.22718776  0.74006483  0.85343315  1
  O  O1  1  0.85343315  0.22718776  0.74006483  1
  O  O2  1  0.74006483  0.85343315  0.22718776  1
  O  O3  1  0.72713137  0.35373156  0.23978182  1
  O  O4  1  0.23978182  0.72713137  0.35373156  1
  O  O5  1  0.35373156  0.23978182  0.72713137  1
loop_
_geom_bond_atom_site_label_1
_geom_bond_atom_site_label_2
_geom_bond_distance
_geom_bond_site_symmetry_2
K0 O1 2.828499 1_455
K0 O0 2.828499 1_554
K0 O2 2.828499 1_545
K0 O3 2.996153 1_455
K0 O4 2.996154 1_545
K0 O5 2.996154 1_554
K1 O4 2.826325 1_655
K1 O3 2.826326 1_556
K1 O5 2.826326 1_565
K1 O0 2.997351 1_555
K1 O1 2.997352 1_555
K1 O2 2.997352 1_555
I0 O2 1.816414 1_556
I0 O0 1.816414 1_655
I0 O1 1.816414 1_565
I1 O5 1.816643 1_555
I1 O3 1.816643 1_555
I1 O4 1.816643 1_555
