# generated using pymatgen
data_InSe2N
_symmetry_space_group_name_H-M   'P 1'
_cell_length_a   6.20509128
_cell_length_b   6.20509128
_cell_length_c   6.20509128
_cell_angle_alpha   108.65723904
_cell_angle_beta   108.65723904
_cell_angle_gamma   111.11174466
_symmetry_Int_Tables_number   1
_chemical_formula_structural   InSe2N
_chemical_formula_sum   'In2 Se4 N2'
_cell_volume   183.80387161
_cell_formula_units_Z   2
loop_
 _symmetry_equiv_pos_site_id
 _symmetry_equiv_pos_as_xyz
  1  'x, y, z'
loop_
 _atom_site_type_symbol
 _atom_site_label
 _atom_site_symmetry_multiplicity
 _atom_site_fract_x
 _atom_site_fract_y
 _atom_site_fract_z
 _atom_site_occupancy
  In  In0  1  0.75000000  0.25000000  0.50000000  1
  In  In1  1  0.25000000  0.75000000  0.50000000  1
  Se  Se0  1  0.69340500  0.19340500  0.88681000  1
  Se  Se1  1  0.30659500  0.80659500  0.11319000  1
  Se  Se2  1  0.80659500  0.69340500  0.50000000  1
  Se  Se3  1  0.19340500  0.30659500  0.50000000  1
  N  N0  1  0.25000000  0.25000000  0.00000000  1
  N  N1  1  0.75000000  0.75000000  0.00000000  1
loop_
_geom_bond_atom_site_label_1
_geom_bond_atom_site_label_2
_geom_bond_distance
_geom_bond_site_symmetry_2
In0 Se2 2.645244 1_555
In0 Se1 2.645244 1_545
In0 Se3 2.645244 1_655
In0 Se0 2.645244 1_555
In1 Se0 2.645244 1_565
In1 Se2 2.645244 1_455
In1 Se1 2.645244 1_555
In1 Se3 2.645244 1_555
