# generated using pymatgen
data_Nd2(CoCu)5
_symmetry_space_group_name_H-M   'P 1'
_cell_length_a   4.06560500
_cell_length_b   5.08121800
_cell_length_c   8.66593200
_cell_angle_alpha   90.00000000
_cell_angle_beta   90.00000000
_cell_angle_gamma   90.00000000
_symmetry_Int_Tables_number   1
_chemical_formula_structural   Nd2(CoCu)5
_chemical_formula_sum   'Nd2 Co5 Cu5'
_cell_volume   179.02277575
_cell_formula_units_Z   1
loop_
 _symmetry_equiv_pos_site_id
 _symmetry_equiv_pos_as_xyz
  1  'x, y, z'
loop_
 _atom_site_type_symbol
 _atom_site_label
 _atom_site_symmetry_multiplicity
 _atom_site_fract_x
 _atom_site_fract_y
 _atom_site_fract_z
 _atom_site_occupancy
  Nd  Nd0  1  0.00000000  0.50000000  0.00000000  1
  Nd  Nd1  1  0.00000000  0.00000000  0.50000000  1
  Co  Co0  1  0.00000000  0.50000000  0.34550700  1
  Co  Co1  1  0.00000000  0.00000000  0.83565700  1
  Co  Co2  1  0.00000000  0.00000000  0.16434300  1
  Co  Co3  1  0.00000000  0.50000000  0.65449300  1
  Co  Co4  1  0.50000000  0.50000000  0.50000000  1
  Cu  Cu0  1  0.50000000  0.00000000  0.00000000  1
  Cu  Cu1  1  0.50000000  0.75015900  0.25141300  1
  Cu  Cu2  1  0.50000000  0.24984100  0.74858700  1
  Cu  Cu3  1  0.50000000  0.24984100  0.25141300  1
  Cu  Cu4  1  0.50000000  0.75015900  0.74858700  1
loop_
_geom_bond_atom_site_label_1
_geom_bond_atom_site_label_2
_geom_bond_distance
_geom_bond_site_symmetry_2
Co0 Co4 2.434079 1_455
Co0 Co4 2.434079 1_555
Co0 Cu3 2.532372 1_455
Co0 Cu1 2.532372 1_555
Co0 Cu3 2.532372 1_555
Co0 Cu1 2.532372 1_455
Co0 Co3 2.677652 1_555
Co0 Nd1 2.871785 1_565
Co0 Nd1 2.871785 1_555
Co0 Co2 2.986545 1_565
Co0 Co2 2.986545 1_555
Co0 Nd0 2.994140 1_555
Co1 Cu0 2.482054 1_556
Co1 Cu0 2.482054 1_456
Co1 Cu2 2.512617 1_455
Co1 Cu4 2.512617 1_445
Co1 Cu4 2.512617 1_545
Co1 Cu2 2.512617 1_555
Co1 Nd1 2.908781 1_555
Co1 Nd0 2.912559 1_556
Co1 Nd0 2.912559 1_546
Co1 Co3 2.986545 1_555
Co1 Co3 2.986545 1_545
Co2 Cu0 2.482054 1_455
Co2 Cu0 2.482054 1_555
Co2 Cu3 2.512617 1_555
Co2 Cu1 2.512617 1_445
Co2 Cu3 2.512617 1_455
Co2 Cu1 2.512617 1_545
Co2 Nd1 2.908781 1_555
Co2 Nd0 2.912559 1_555
Co2 Nd0 2.912559 1_545
Co3 Co4 2.434079 1_455
Co3 Co4 2.434079 1_555
Co3 Cu2 2.532372 1_555
Co3 Cu4 2.532372 1_555
Co3 Cu4 2.532372 1_455
Co3 Cu2 2.532372 1_455
Co3 Nd1 2.871785 1_565
Co3 Nd1 2.871785 1_555
Co3 Nd0 2.994140 1_556
Co4 Cu2 2.501293 1_555
Co4 Cu4 2.501293 1_555
Co4 Cu3 2.501293 1_555
Co4 Cu1 2.501293 1_555
Co4 Nd1 3.253764 1_555
Co4 Nd1 3.253764 1_665
Co4 Nd1 3.253764 1_565
Co4 Nd1 3.253764 1_655
Cu0 Cu2 2.521602 1_554
Cu0 Cu4 2.521602 1_544
Cu0 Cu1 2.521602 1_545
Cu0 Cu3 2.521602 1_555
Cu0 Nd0 3.253764 1_655
Cu0 Nd0 3.253764 1_645
Cu0 Nd0 3.253764 1_555
Cu0 Nd0 3.253764 1_545
Cu1 Cu3 2.538993 1_565
Cu1 Cu3 2.542225 1_555
Cu1 Nd1 3.222522 1_665
Cu1 Nd1 3.222522 1_565
Cu1 Nd0 3.239578 1_555
Cu1 Nd0 3.239578 1_655
Cu2 Cu4 2.538993 1_545
Cu2 Cu4 2.542225 1_555
Cu2 Nd1 3.222522 1_655
Cu2 Nd1 3.222522 1_555
Cu2 Nd0 3.239578 1_556
Cu2 Nd0 3.239578 1_656
Cu3 Nd1 3.222522 1_655
Cu3 Nd1 3.222522 1_555
Cu3 Nd0 3.239578 1_555
Cu3 Nd0 3.239578 1_655
Cu4 Nd1 3.222522 1_665
Cu4 Nd1 3.222522 1_565
Cu4 Nd0 3.239578 1_556
Cu4 Nd0 3.239578 1_656
