# generated using pymatgen
data_Ti4ZnO8
_symmetry_space_group_name_H-M   'P 1'
_cell_length_a   7.38924117
_cell_length_b   7.38924117
_cell_length_c   10.00445719
_cell_angle_alpha   48.66021701
_cell_angle_beta   48.66021701
_cell_angle_gamma   23.07400934
_symmetry_Int_Tables_number   1
_chemical_formula_structural   Ti4ZnO8
_chemical_formula_sum   'Ti4 Zn1 O8'
_cell_volume   158.12475307
_cell_formula_units_Z   1
loop_
 _symmetry_equiv_pos_site_id
 _symmetry_equiv_pos_as_xyz
  1  'x, y, z'
loop_
 _atom_site_type_symbol
 _atom_site_label
 _atom_site_symmetry_multiplicity
 _atom_site_fract_x
 _atom_site_fract_y
 _atom_site_fract_z
 _atom_site_occupancy
  Ti  Ti0  1  0.36870300  0.36870300  0.43921900  1
  Ti  Ti1  1  0.85265400  0.85265400  0.78616900  1
  Ti  Ti2  1  0.17621100  0.17621100  0.15049600  1
  Ti  Ti3  1  0.65829600  0.65829600  0.49645600  1
  Zn  Zn0  1  0.55279300  0.55279300  0.93120000  1
  O  O0  1  0.15884000  0.15884000  0.36321300  1
  O  O1  1  0.55094600  0.55094600  0.24685500  1
  O  O2  1  0.47467000  0.47467000  0.69350700  1
  O  O3  1  0.86401600  0.86401600  0.57942600  1
  O  O4  1  0.84862400  0.84862400  0.33366100  1
  O  O5  1  0.22915500  0.22915500  0.90349700  1
  O  O6  1  0.17678100  0.17678100  0.60675700  1
  O  O7  1  0.79397000  0.79397000  0.03889600  1
loop_
_geom_bond_atom_site_label_1
_geom_bond_atom_site_label_2
_geom_bond_distance
_geom_bond_site_symmetry_2
O0 Ti2 1.967342 1_555
O0 Ti3 1.986683 1_455
O0 Ti3 1.986683 1_545
O1 Ti0 1.954487 1_555
O1 Ti2 2.011412 1_565
O1 Ti2 2.011412 1_655
O2 Ti3 1.971986 1_555
O2 Ti1 1.989131 1_545
O2 Ti1 1.989131 1_455
O3 Ti1 1.961209 1_555
O3 Ti0 2.006953 1_565
O3 Ti0 2.006953 1_655
O4 Ti0 1.948795 1_655
O4 Ti0 1.948795 1_565
O4 Ti3 2.048395 1_555
O5 Ti1 1.982317 1_545
O5 Ti1 1.982317 1_455
O5 Ti2 2.034653 1_556
O6 Ti3 1.967650 1_455
O6 Ti3 1.967650 1_545
O6 Ti0 2.062041 1_555
O7 Ti2 1.941975 1_565
O7 Ti2 1.941975 1_655
O7 Ti1 2.053797 1_554
