# generated using pymatgen
data_Dy2Ni7
_symmetry_space_group_name_H-M   'P 1'
_cell_length_a   4.93733788
_cell_length_b   4.93733788
_cell_length_c   24.07658700
_cell_angle_alpha   90.00000000
_cell_angle_beta   90.00000000
_cell_angle_gamma   119.99999843
_symmetry_Int_Tables_number   1
_chemical_formula_structural   Dy2Ni7
_chemical_formula_sum   'Dy8 Ni28'
_cell_volume   508.28964165
_cell_formula_units_Z   4
loop_
 _symmetry_equiv_pos_site_id
 _symmetry_equiv_pos_as_xyz
  1  'x, y, z'
loop_
 _atom_site_type_symbol
 _atom_site_label
 _atom_site_symmetry_multiplicity
 _atom_site_fract_x
 _atom_site_fract_y
 _atom_site_fract_z
 _atom_site_occupancy
  Dy  Dy0  1  0.33333300  0.66666700  0.47079500  1
  Dy  Dy1  1  0.66666700  0.33333300  0.52920500  1
  Dy  Dy2  1  0.66666700  0.33333300  0.97079500  1
  Dy  Dy3  1  0.33333300  0.66666700  0.02920500  1
  Dy  Dy4  1  0.33333300  0.66666700  0.32653900  1
  Dy  Dy5  1  0.66666700  0.33333300  0.67346100  1
  Dy  Dy6  1  0.66666700  0.33333300  0.82653900  1
  Dy  Dy7  1  0.33333300  0.66666700  0.17346100  1
  Ni  Ni0  1  0.00000000  0.00000000  0.50000000  1
  Ni  Ni1  1  0.00000000  0.00000000  0.00000000  1
  Ni  Ni2  1  0.83324300  0.16675700  0.25000000  1
  Ni  Ni3  1  0.83324300  0.66648700  0.25000000  1
  Ni  Ni4  1  0.33351300  0.16675700  0.25000000  1
  Ni  Ni5  1  0.16675700  0.83324300  0.75000000  1
  Ni  Ni6  1  0.16675700  0.33351300  0.75000000  1
  Ni  Ni7  1  0.66648700  0.83324300  0.75000000  1
  Ni  Ni8  1  0.83275600  0.16724400  0.41477400  1
  Ni  Ni9  1  0.83275600  0.66551200  0.41477400  1
  Ni  Ni10  1  0.33448800  0.16724400  0.41477400  1
  Ni  Ni11  1  0.16724400  0.83275600  0.58522600  1
  Ni  Ni12  1  0.16724400  0.33448800  0.58522600  1
  Ni  Ni13  1  0.66551200  0.83275600  0.58522600  1
  Ni  Ni14  1  0.16724400  0.83275600  0.91477400  1
  Ni  Ni15  1  0.16724400  0.33448800  0.91477400  1
  Ni  Ni16  1  0.66551200  0.83275600  0.91477400  1
  Ni  Ni17  1  0.83275600  0.16724400  0.08522600  1
  Ni  Ni18  1  0.83275600  0.66551200  0.08522600  1
  Ni  Ni19  1  0.33448800  0.16724400  0.08522600  1
  Ni  Ni20  1  0.00000000  0.00000000  0.33245300  1
  Ni  Ni21  1  0.00000000  0.00000000  0.66754700  1
  Ni  Ni22  1  0.00000000  0.00000000  0.83245300  1
  Ni  Ni23  1  0.00000000  0.00000000  0.16754700  1
  Ni  Ni24  1  0.33333300  0.66666700  0.66716700  1
  Ni  Ni25  1  0.66666700  0.33333300  0.33283300  1
  Ni  Ni26  1  0.66666700  0.33333300  0.16716700  1
  Ni  Ni27  1  0.33333300  0.66666700  0.83283300  1
loop_
_geom_bond_atom_site_label_1
_geom_bond_atom_site_label_2
_geom_bond_distance
_geom_bond_site_symmetry_2
Dy0 Ni10 2.813110 1_565
Dy0 Ni9 2.813110 1_455
Dy0 Ni8 2.813112 1_455
Dy0 Ni8 2.813112 1_565
Dy0 Ni10 2.813114 1_555
Dy0 Ni9 2.813114 1_555
Dy0 Ni0 2.936015 1_565
Dy0 Ni0 2.936019 1_665
Dy0 Ni0 2.936019 1_555
Dy0 Ni11 3.099678 1_555
Dy0 Ni12 3.099680 1_555
Dy0 Ni13 3.099680 1_555
Dy1 Ni12 2.813110 1_655
Dy1 Ni13 2.813110 1_545
Dy1 Ni11 2.813112 1_655
Dy1 Ni11 2.813112 1_545
Dy1 Ni12 2.813114 1_555
Dy1 Ni13 2.813114 1_555
Dy1 Ni0 2.936015 1_655
Dy1 Ni0 2.936019 1_665
Dy1 Ni0 2.936019 1_555
Dy1 Ni8 3.099678 1_555
Dy1 Ni9 3.099680 1_555
Dy1 Ni10 3.099680 1_555
Dy2 Ni15 2.813110 1_655
Dy2 Ni16 2.813110 1_545
Dy2 Ni14 2.813112 1_545
Dy2 Ni14 2.813112 1_655
Dy2 Ni15 2.813114 1_555
Dy2 Ni16 2.813114 1_555
Dy2 Ni1 2.936015 1_656
Dy2 Ni1 2.936019 1_666
Dy2 Ni1 2.936019 1_556
Dy2 Ni17 3.099678 1_556
Dy2 Ni19 3.099680 1_556
Dy2 Ni18 3.099680 1_556
Dy3 Ni18 2.813110 1_455
Dy3 Ni19 2.813110 1_565
Dy3 Ni17 2.813112 1_455
Dy3 Ni17 2.813112 1_565
Dy3 Ni19 2.813114 1_555
Dy3 Ni18 2.813114 1_555
Dy3 Ni1 2.936015 1_565
Dy3 Ni1 2.936019 1_665
Dy3 Ni1 2.936019 1_555
Dy3 Ni14 3.099678 1_554
Dy3 Ni16 3.099680 1_554
Dy3 Ni15 3.099680 1_554
Dy4 Ni20 2.854125 1_565
Dy4 Ni20 2.854129 1_665
Dy4 Ni20 2.854129 1_555
Dy4 Ni25 2.854596 1_455
Dy4 Ni25 2.854596 1_565
Dy4 Ni25 2.854604 1_555
Dy4 Ni3 3.080622 1_555
Dy4 Ni4 3.080622 1_555
Dy4 Ni4 3.080622 1_565
Dy4 Ni3 3.080622 1_455
Dy4 Ni2 3.080622 1_565
Dy4 Ni2 3.080622 1_455
Dy4 Ni9 3.256901 1_455
Dy4 Ni10 3.256901 1_565
Dy4 Ni8 3.256903 1_455
Dy4 Ni8 3.256903 1_565
Dy4 Ni10 3.256905 1_555
Dy4 Ni9 3.256905 1_555
Dy5 Ni21 2.854125 1_655
Dy5 Ni21 2.854129 1_665
Dy5 Ni21 2.854129 1_555
Dy5 Ni24 2.854596 1_545
Dy5 Ni24 2.854596 1_655
Dy5 Ni24 2.854604 1_555
Dy5 Ni7 3.080622 1_555
Dy5 Ni6 3.080622 1_555
Dy5 Ni6 3.080622 1_655
Dy5 Ni7 3.080622 1_545
Dy5 Ni5 3.080622 1_655
Dy5 Ni5 3.080622 1_545
Dy5 Ni13 3.256901 1_545
Dy5 Ni12 3.256901 1_655
Dy5 Ni11 3.256903 1_545
Dy5 Ni11 3.256903 1_655
Dy5 Ni12 3.256905 1_555
Dy5 Ni13 3.256905 1_555
Dy6 Ni22 2.854125 1_655
Dy6 Ni22 2.854129 1_665
Dy6 Ni22 2.854129 1_555
Dy6 Ni27 2.854596 1_545
Dy6 Ni27 2.854596 1_655
Dy6 Ni27 2.854604 1_555
Dy6 Ni7 3.080622 1_555
Dy6 Ni6 3.080622 1_555
Dy6 Ni6 3.080622 1_655
Dy6 Ni7 3.080622 1_545
Dy6 Ni5 3.080622 1_655
Dy6 Ni5 3.080622 1_545
Dy6 Ni16 3.256901 1_545
Dy6 Ni15 3.256901 1_655
Dy6 Ni14 3.256903 1_545
Dy6 Ni14 3.256903 1_655
Dy6 Ni15 3.256905 1_555
Dy6 Ni16 3.256905 1_555
Dy7 Ni23 2.854125 1_565
Dy7 Ni23 2.854129 1_555
Dy7 Ni23 2.854129 1_665
Dy7 Ni26 2.854596 1_455
Dy7 Ni26 2.854596 1_565
Dy7 Ni26 2.854604 1_555
Dy7 Ni4 3.080622 1_555
Dy7 Ni3 3.080622 1_555
Dy7 Ni3 3.080622 1_455
Dy7 Ni4 3.080622 1_565
Dy7 Ni2 3.080622 1_565
Dy7 Ni2 3.080622 1_455
Dy7 Ni18 3.256901 1_455
Dy7 Ni19 3.256901 1_565
Dy7 Ni17 3.256903 1_565
Dy7 Ni17 3.256903 1_455
Dy7 Ni19 3.256905 1_555
Dy7 Ni18 3.256905 1_555
Ni0 Ni8 2.501209 1_455
Ni0 Ni11 2.501209 1_545
Ni0 Ni9 2.501209 1_445
Ni0 Ni10 2.501209 1_555
Ni0 Ni13 2.501209 1_445
Ni0 Ni12 2.501209 1_555
Ni1 Ni14 2.501209 1_544
Ni1 Ni17 2.501209 1_455
Ni1 Ni18 2.501209 1_445
Ni1 Ni19 2.501209 1_555
Ni1 Ni15 2.501209 1_554
Ni1 Ni16 2.501209 1_444
Ni2 Ni23 2.444302 1_655
Ni2 Ni20 2.444302 1_655
Ni2 Ni26 2.450838 1_555
Ni2 Ni25 2.450838 1_555
Ni2 Ni4 2.467336 1_555
Ni2 Ni3 2.467336 1_555
Ni2 Ni4 2.470002 1_655
Ni2 Ni3 2.470002 1_545
Ni3 Ni4 2.467336 1_555
Ni3 Ni4 2.470002 1_665
Ni5 Ni6 2.467336 1_555
Ni5 Ni7 2.467336 1_555
Ni5 Ni7 2.470002 1_455
Ni5 Ni6 2.470002 1_565
Ni6 Ni7 2.467336 1_555
Ni6 Ni7 2.470002 1_445
Ni8 Ni9 2.460117 1_555
Ni8 Ni9 2.477220 1_545
Ni10 Ni25 2.430961 1_555
Ni10 Ni20 2.444156 1_555
Ni10 Ni8 2.460117 1_555
Ni10 Ni9 2.460118 1_555
Ni10 Ni8 2.477220 1_455
Ni10 Ni9 2.477220 1_445
Ni11 Ni24 2.430959 1_555
Ni11 Ni21 2.444156 1_565
Ni11 Ni13 2.460117 1_555
Ni11 Ni12 2.460117 1_555
Ni11 Ni12 2.477220 1_565
Ni11 Ni13 2.477220 1_455
Ni12 Ni24 2.430961 1_555
Ni12 Ni21 2.444156 1_555
Ni12 Ni13 2.460118 1_555
Ni12 Ni13 2.477220 1_445
Ni13 Ni24 2.430961 1_555
Ni13 Ni21 2.444156 1_665
Ni14 Ni27 2.430959 1_555
Ni14 Ni22 2.444156 1_565
Ni14 Ni16 2.460117 1_555
Ni14 Ni15 2.460117 1_555
Ni14 Ni15 2.477220 1_565
Ni14 Ni16 2.477220 1_455
Ni15 Ni27 2.430961 1_555
Ni15 Ni22 2.444156 1_555
Ni15 Ni16 2.460118 1_555
Ni15 Ni16 2.477220 1_445
Ni16 Ni27 2.430961 1_555
Ni16 Ni22 2.444156 1_665
Ni17 Ni26 2.430959 1_555
Ni17 Ni23 2.444156 1_655
Ni17 Ni18 2.460117 1_555
Ni17 Ni19 2.460117 1_555
Ni17 Ni19 2.477220 1_655
Ni17 Ni18 2.477220 1_545
Ni18 Ni26 2.430961 1_555
Ni18 Ni23 2.444156 1_665
Ni18 Ni19 2.460118 1_555
Ni18 Ni19 2.477220 1_665
Ni19 Ni26 2.430961 1_555
Ni19 Ni23 2.444156 1_555
Ni20 Ni8 2.444156 1_455
Ni20 Ni9 2.444156 1_445
Ni20 Ni3 2.444299 1_445
Ni20 Ni4 2.444299 1_555
Ni21 Ni7 2.444299 1_445
Ni21 Ni6 2.444299 1_555
Ni21 Ni5 2.444302 1_545
Ni22 Ni7 2.444299 1_445
Ni22 Ni6 2.444299 1_555
Ni22 Ni5 2.444302 1_545
Ni23 Ni3 2.444299 1_445
Ni23 Ni4 2.444299 1_555
Ni24 Ni5 2.450838 1_555
Ni24 Ni6 2.450843 1_555
Ni24 Ni7 2.450843 1_555
Ni25 Ni8 2.430959 1_555
Ni25 Ni9 2.430961 1_555
Ni25 Ni4 2.450843 1_555
Ni25 Ni3 2.450843 1_555
Ni26 Ni4 2.450843 1_555
Ni26 Ni3 2.450843 1_555
Ni27 Ni5 2.450838 1_555
Ni27 Ni6 2.450843 1_555
Ni27 Ni7 2.450843 1_555
