# generated using pymatgen
data_Ga(MoS2)3
_symmetry_space_group_name_H-M   'P 1'
_cell_length_a   7.01947730
_cell_length_b   9.92338800
_cell_length_c   12.14805282
_cell_angle_alpha   65.89341730
_cell_angle_beta   73.20706569
_cell_angle_gamma   90.00000000
_symmetry_Int_Tables_number   1
_chemical_formula_structural   Ga(MoS2)3
_chemical_formula_sum   'Ga4 Mo12 S24'
_cell_volume   732.68601988
_cell_formula_units_Z   4
loop_
 _symmetry_equiv_pos_site_id
 _symmetry_equiv_pos_as_xyz
  1  'x, y, z'
loop_
 _atom_site_type_symbol
 _atom_site_label
 _atom_site_symmetry_multiplicity
 _atom_site_fract_x
 _atom_site_fract_y
 _atom_site_fract_z
 _atom_site_occupancy
  Ga  Ga0  1  0.50000000  0.75163100  0.00000000  1
  Ga  Ga1  1  0.00000000  0.00146600  0.00000000  1
  Ga  Ga2  1  0.33287000  0.33242300  0.33425900  1
  Ga  Ga3  1  0.66713000  0.66668400  0.66574100  1
  Mo  Mo0  1  0.20080900  0.39283900  0.00000000  1
  Mo  Mo1  1  0.53783200  0.73091200  0.33805200  1
  Mo  Mo2  1  0.87588400  0.06896400  0.66194800  1
  Mo  Mo3  1  0.07094300  0.67059100  0.85811400  1
  Mo  Mo4  1  0.39998400  0.00650700  0.20003100  1
  Mo  Mo5  1  0.73395600  0.33464900  0.53208700  1
  Mo  Mo6  1  0.92905700  0.52870400  0.14188600  1
  Mo  Mo7  1  0.26604400  0.86673700  0.46791300  1
  Mo  Mo8  1  0.60001600  0.20653800  0.79996900  1
  Mo  Mo9  1  0.79919100  0.39283900  0.00000000  1
  Mo  Mo10  1  0.12411600  0.73091200  0.33805200  1
  Mo  Mo11  1  0.46216800  0.06896400  0.66194800  1
  S  S0  1  0.72820300  0.13627900  0.00000000  1
  S  S1  1  0.06087200  0.46830000  0.33477500  1
  S  S2  1  0.39564800  0.80307600  0.66522500  1
  S  S3  1  0.57610400  0.44058900  0.84779300  1
  S  S4  1  0.90898100  0.77331300  0.18203800  1
  S  S5  1  0.24347600  0.10721500  0.51304800  1
  S  S6  1  0.42389600  0.28838100  0.15220700  1
  S  S7  1  0.75652400  0.62026400  0.48695200  1
  S  S8  1  0.09101900  0.95535100  0.81796200  1
  S  S9  1  0.27179700  0.13627900  0.00000000  1
  S  S10  1  0.60435200  0.46830000  0.33477500  1
  S  S11  1  0.93912800  0.80307600  0.66522500  1
  S  S12  1  0.75209100  0.62194900  0.00000000  1
  S  S13  1  0.06651600  0.96658300  0.33442500  1
  S  S14  1  0.40094100  0.30100900  0.66557500  1
  S  S15  1  0.91084800  0.27540700  0.17830500  1
  S  S16  1  0.24397700  0.61158100  0.51204600  1
  S  S17  1  0.58522400  0.96262700  0.82955100  1
  S  S18  1  0.08915200  0.45371100  0.82169500  1
  S  S19  1  0.41477600  0.79217900  0.17044900  1
  S  S20  1  0.75602300  0.12362700  0.48795400  1
  S  S21  1  0.24790900  0.62194900  0.00000000  1
  S  S22  1  0.59905900  0.96658300  0.33442500  1
  S  S23  1  0.93348400  0.30100900  0.66557500  1
loop_
_geom_bond_atom_site_label_1
_geom_bond_atom_site_label_2
_geom_bond_distance
_geom_bond_site_symmetry_2
Ga0 S17 2.184506 1_554
Ga0 S19 2.184512 1_555
Ga0 S12 2.188006 1_555
Ga0 S21 2.188006 1_555
Ga1 S9 2.330170 1_555
Ga1 S0 2.330170 1_455
Ga1 S8 2.349083 1_544
Ga1 S4 2.349083 1_445
Ga2 S5 2.313653 1_555
Ga2 S6 2.337386 1_555
Ga2 S1 2.337406 1_555
Ga2 S10 2.337406 1_555
Ga3 S7 2.313659 1_555
Ga3 S3 2.337392 1_555
Ga3 S11 2.337400 1_555
Ga3 S2 2.337400 1_555
Mo0 S21 2.297461 1_555
Mo0 S15 2.362866 1_455
Mo0 S18 2.362871 1_554
Mo0 S9 2.594250 1_555
Mo0 S6 2.655750 1_555
Mo0 S3 2.655754 1_554
Mo1 S19 2.294847 1_555
Mo1 S16 2.358139 1_555
Mo1 S22 2.358144 1_555
Mo1 S7 2.610778 1_555
Mo1 S4 2.655554 1_555
Mo1 S10 2.661740 1_555
Mo2 S17 2.294852 1_545
Mo2 S20 2.358139 1_555
Mo2 S23 2.358154 1_555
Mo2 S5 2.610780 1_655
Mo2 S8 2.655555 1_645
Mo2 S11 2.661731 1_545
Mo3 S12 2.303166 1_456
Mo3 S21 2.303166 1_556
Mo3 S18 2.364126 1_555
Mo3 S11 2.609902 1_455
Mo3 S2 2.609906 1_555
Mo3 S8 2.660300 1_555
Mo4 S19 2.294830 1_545
Mo4 S13 2.359034 1_545
Mo4 S22 2.359040 1_545
Mo4 S6 2.608815 1_555
Mo4 S9 2.660840 1_555
Mo4 S0 2.660844 1_555
Mo5 S20 2.359150 1_555
Mo5 S14 2.360690 1_555
Mo5 S23 2.360696 1_555
Mo5 S1 2.644850 1_655
Mo5 S10 2.644850 1_555
Mo5 S7 2.653144 1_555
Mo6 S21 2.303167 1_655
Mo6 S12 2.303167 1_555
Mo6 S15 2.364107 1_555
Mo6 S1 2.609902 1_655
Mo6 S10 2.609906 1_555
Mo6 S4 2.660310 1_555
Mo7 S16 2.359160 1_555
Mo7 S22 2.360688 1_555
Mo7 S13 2.360693 1_555
Mo7 S11 2.644850 1_455
Mo7 S2 2.644850 1_555
Mo7 S5 2.653124 1_565
Mo8 S17 2.294839 1_545
Mo8 S23 2.359035 1_555
Mo8 S14 2.359041 1_555
Mo8 S3 2.608824 1_555
Mo8 S0 2.660840 1_556
Mo8 S9 2.660844 1_556
Mo9 S12 2.297461 1_555
Mo9 S18 2.362867 1_654
Mo9 S15 2.362870 1_555
Mo9 S0 2.594250 1_555
Mo9 S3 2.655749 1_554
Mo9 S6 2.655755 1_555
Mo10 S19 2.294851 1_555
Mo10 S16 2.358139 1_555
Mo10 S13 2.358144 1_555
Mo10 S7 2.610778 1_455
Mo10 S4 2.655555 1_455
Mo10 S1 2.661741 1_555
Mo11 S17 2.294848 1_545
Mo11 S20 2.358139 1_555
Mo11 S14 2.358154 1_555
Mo11 S5 2.610780 1_555
Mo11 S8 2.655554 1_545
Mo11 S2 2.661730 1_545
