# generated using pymatgen
data_Li5Mn3O8
_symmetry_space_group_name_H-M   'P 1'
_cell_length_a   5.07503193
_cell_length_b   10.49790461
_cell_length_c   5.85220684
_cell_angle_alpha   97.09204151
_cell_angle_beta   104.57009307
_cell_angle_gamma   103.97228380
_symmetry_Int_Tables_number   1
_chemical_formula_structural   Li5Mn3O8
_chemical_formula_sum   'Li10 Mn6 O16'
_cell_volume   287.14656500
_cell_formula_units_Z   2
loop_
 _symmetry_equiv_pos_site_id
 _symmetry_equiv_pos_as_xyz
  1  'x, y, z'
loop_
 _atom_site_type_symbol
 _atom_site_label
 _atom_site_symmetry_multiplicity
 _atom_site_fract_x
 _atom_site_fract_y
 _atom_site_fract_z
 _atom_site_occupancy
  Li  Li0  1  0.74996700  0.74999700  0.62469000  1
  Li  Li1  1  0.75000400  0.74999000  0.12529100  1
  Li  Li2  1  0.63705100  0.12324400  0.19229800  1
  Li  Li3  1  0.63709600  0.12324500  0.69216900  1
  Li  Li4  1  0.86292900  0.37675300  0.55775600  1
  Li  Li5  1  0.86292500  0.37679100  0.05777400  1
  Li  Li6  1  0.13801700  0.64042500  0.45285500  1
  Li  Li7  1  0.13811400  0.64032300  0.95320600  1
  Li  Li8  1  0.36192900  0.85968900  0.79682600  1
  Li  Li9  1  0.36203200  0.85956900  0.29712600  1
  Mn  Mn0  1  0.24984800  0.24996400  0.37491300  1
  Mn  Mn1  1  0.25007500  0.25001300  0.87510000  1
  Mn  Mn2  1  0.99890100  0.98959500  0.99286000  1
  Mn  Mn3  1  0.99957700  0.98979700  0.49287600  1
  Mn  Mn4  1  0.50039700  0.51019300  0.25718400  1
  Mn  Mn5  1  0.50111500  0.51043600  0.75711300  1
  O  O0  1  0.28114700  0.06026700  0.32420700  1
  O  O1  1  0.28043800  0.06007000  0.82342500  1
  O  O2  1  0.21882100  0.43973800  0.42578100  1
  O  O3  1  0.21958900  0.43991800  0.92657900  1
  O  O4  1  0.54686700  0.31774300  0.23294600  1
  O  O5  1  0.54705300  0.31769900  0.73415900  1
  O  O6  1  0.95311300  0.18225100  0.51707000  1
  O  O7  1  0.95290300  0.18230100  0.01581400  1
  O  O8  1  0.76827200  0.55419000  0.57605400  1
  O  O9  1  0.76804700  0.55428800  0.07574500  1
  O  O10  1  0.73196900  0.94570700  0.67424400  1
  O  O11  1  0.73173400  0.94580200  0.17395600  1
  O  O12  1  0.06909000  0.82774300  0.47412300  1
  O  O13  1  0.06933600  0.82802000  0.97432500  1
  O  O14  1  0.43069500  0.67200000  0.77567300  1
  O  O15  1  0.43094800  0.67223700  0.27586300  1
loop_
_geom_bond_atom_site_label_1
_geom_bond_atom_site_label_2
_geom_bond_distance
_geom_bond_site_symmetry_2
Li0 O10 2.066501 1_555
Li0 O8 2.067857 1_555
Li0 O12 2.079133 1_655
Li0 O14 2.082036 1_555
Li0 O15 2.177699 1_555
Li0 O13 2.181991 1_655
Li1 O9 2.066489 1_555
Li1 O11 2.067856 1_555
Li1 O15 2.078902 1_555
Li1 O13 2.082299 1_654
Li1 O12 2.177856 1_655
Li1 O14 2.181766 1_554
Li2 O11 2.030063 1_545
Li2 O6 2.065093 1_555
Li2 O7 2.128787 1_555
Li2 O0 2.132216 1_555
Li2 O4 2.195739 1_555
Li2 O1 2.340205 1_554
Li3 O10 2.031497 1_545
Li3 O7 2.059948 1_556
Li3 O6 2.123620 1_555
Li3 O1 2.133492 1_555
Li3 O5 2.195327 1_555
Li3 O0 2.334953 1_555
Li4 O8 2.029950 1_555
Li4 O4 2.065246 1_555
Li4 O5 2.128543 1_555
Li4 O2 2.132413 1_655
Li4 O6 2.195779 1_555
Li4 O3 2.340117 1_655
Li5 O9 2.031091 1_555
Li5 O5 2.059983 1_554
Li5 O4 2.124165 1_555
Li5 O3 2.133225 1_654
Li5 O7 2.195532 1_555
Li5 O2 2.335014 1_655
Li6 O15 2.003718 1_555
Li6 O14 2.020143 1_555
Li6 O12 2.073262 1_555
Li6 O8 2.209529 1_455
Li6 O2 2.235917 1_555
Li6 O9 2.411662 1_455
Li7 O14 2.004463 1_555
Li7 O15 2.019365 1_556
Li7 O13 2.076870 1_555
Li7 O9 2.208099 1_456
Li7 O3 2.234484 1_555
Li7 O8 2.411527 1_455
Li8 O13 2.004365 1_555
Li8 O12 2.019530 1_555
Li8 O14 2.076759 1_555
Li8 O10 2.208090 1_555
Li8 O1 2.234272 1_565
Li8 O11 2.411339 1_556
Li9 O12 2.003793 1_555
Li9 O13 2.020148 1_554
Li9 O15 2.073384 1_555
Li9 O11 2.209242 1_555
Li9 O0 2.236206 1_565
Li9 O10 2.411617 1_555
Mn0 O6 1.929945 1_455
Mn0 O4 1.930511 1_555
Mn0 O0 2.027214 1_555
Mn0 O2 2.027565 1_555
Mn0 O7 2.170961 1_455
Mn0 O5 2.172130 1_555
Mn1 O7 1.926047 1_456
Mn1 O5 1.926086 1_555
Mn1 O3 2.028116 1_555
Mn1 O1 2.028342 1_555
Mn1 O4 2.165184 1_556
Mn1 O6 2.166329 1_455
Mn2 O13 1.812045 1_655
Mn2 O11 1.927498 1_556
Mn2 O10 1.933855 1_555
Mn2 O1 1.988857 1_665
Mn2 O0 2.023969 1_666
Mn2 O7 2.083707 1_566
Mn3 O12 1.814902 1_655
Mn3 O10 1.930884 1_555
Mn3 O11 1.937002 1_555
Mn3 O0 1.985721 1_665
Mn3 O1 2.017559 1_665
Mn3 O6 2.081765 1_565
Mn4 O15 1.814661 1_555
Mn4 O9 1.931372 1_555
Mn4 O8 1.936844 1_555
Mn4 O2 1.985398 1_555
Mn4 O3 2.017700 1_554
Mn4 O4 2.081729 1_555
Mn5 O14 1.811898 1_555
Mn5 O8 1.927238 1_555
Mn5 O9 1.933945 1_556
Mn5 O3 1.989064 1_555
Mn5 O2 2.024018 1_555
Mn5 O5 2.083918 1_555
