# generated using pymatgen
data_Eu3B2Pt7
_symmetry_space_group_name_H-M   'P 1'
_cell_length_a   8.30718555
_cell_length_b   8.30718720
_cell_length_c   8.30718944
_cell_angle_alpha   39.08584093
_cell_angle_beta   39.08583721
_cell_angle_gamma   39.08583093
_symmetry_Int_Tables_number   1
_chemical_formula_structural   Eu3B2Pt7
_chemical_formula_sum   'Eu3 B2 Pt7'
_cell_volume   204.97100129
_cell_formula_units_Z   1
loop_
 _symmetry_equiv_pos_site_id
 _symmetry_equiv_pos_as_xyz
  1  'x, y, z'
loop_
 _atom_site_type_symbol
 _atom_site_label
 _atom_site_symmetry_multiplicity
 _atom_site_fract_x
 _atom_site_fract_y
 _atom_site_fract_z
 _atom_site_occupancy
  Eu  Eu0  1  0.85610426  0.85610326  0.85610326  1
  Eu  Eu1  1  0.14389574  0.14389674  0.14389674  1
  Eu  Eu2  1  -0.00000000  -0.00000000  0.00000000  1
  B  B0  1  0.66876857  0.66876957  0.66876957  1
  B  B1  1  0.33123143  0.33123043  0.33123043  1
  Pt  Pt0  1  0.43577831  0.93230290  0.43577931  1
  Pt  Pt1  1  0.43577831  0.43577831  0.93230290  1
  Pt  Pt2  1  0.93230290  0.43577831  0.43577931  1
  Pt  Pt3  1  0.56422169  0.06769710  0.56422069  1
  Pt  Pt4  1  0.56422169  0.56422169  0.06769710  1
  Pt  Pt5  1  0.06769710  0.56422169  0.56422069  1
  Pt  Pt6  1  0.50000000  0.50000000  0.50000000  1
loop_
_geom_bond_atom_site_label_1
_geom_bond_atom_site_label_2
_geom_bond_distance
_geom_bond_site_symmetry_2
Eu0 Pt6 3.251161 1_655
Eu0 Pt6 3.251166 1_565
Eu0 Pt6 3.251166 1_556
Eu0 Pt4 3.277552 1_556
Eu0 Pt5 3.277559 1_655
Eu0 Pt3 3.277561 1_565
Eu0 Eu2 3.307801 1_666
Eu0 Pt1 3.313574 1_655
Eu0 Pt0 3.313576 1_655
Eu0 Pt2 3.313579 1_565
Eu0 Pt1 3.313579 1_565
Eu0 Pt2 3.313585 1_556
Eu0 Pt0 3.313587 1_556
Eu1 Pt6 3.251161 1_455
Eu1 Pt6 3.251166 1_545
Eu1 Pt6 3.251166 1_554
Eu1 Pt1 3.277552 1_554
Eu1 Pt2 3.277559 1_455
Eu1 Pt0 3.277561 1_545
Eu1 Eu2 3.307801 1_555
Eu1 Pt4 3.313574 1_455
Eu1 Pt3 3.313576 1_455
Eu1 Pt5 3.313579 1_545
Eu1 Pt4 3.313579 1_545
Eu1 Pt5 3.313585 1_554
Eu1 Pt3 3.313587 1_554
Eu2 Pt3 3.159260 1_455
Eu2 Pt0 3.159260 1_544
Eu2 Pt5 3.159260 1_545
Eu2 Pt2 3.159260 1_454
Eu2 Pt3 3.159263 1_554
Eu2 Pt0 3.159263 1_445
Eu2 Pt5 3.159264 1_554
Eu2 Pt2 3.159264 1_445
Eu2 Pt4 3.159264 1_545
Eu2 Pt1 3.159264 1_454
Eu2 Pt4 3.159265 1_455
Eu2 Pt1 3.159265 1_544
B0 Pt3 2.173874 1_565
B0 Pt5 2.173877 1_655
B0 Pt4 2.173879 1_556
B0 Pt0 2.223670 1_555
B0 Pt2 2.223674 1_555
B0 Pt1 2.223676 1_555
B0 Eu2 3.209112 1_566
B0 Eu2 3.209118 1_656
B0 Eu2 3.209119 1_665
B1 Pt0 2.173874 1_545
B1 Pt2 2.173877 1_455
B1 Pt1 2.173879 1_554
B1 Pt3 2.223670 1_555
B1 Pt5 2.223674 1_555
B1 Pt4 2.223676 1_555
B1 Eu2 3.209112 1_655
B1 Eu2 3.209118 1_565
B1 Eu2 3.209119 1_556
Pt0 Pt6 2.821245 1_555
Pt1 Pt6 2.821241 1_555
Pt2 Pt6 2.821245 1_555
Pt3 Pt6 2.821245 1_555
Pt4 Pt6 2.821241 1_555
Pt5 Pt6 2.821245 1_555
