# generated using pymatgen
data_Li9Mn7O16
_symmetry_space_group_name_H-M   'P 1'
_cell_length_a   5.04950100
_cell_length_b   6.05850051
_cell_length_c   9.93339279
_cell_angle_alpha   86.35676211
_cell_angle_beta   78.59407466
_cell_angle_gamma   86.98080796
_symmetry_Int_Tables_number   1
_chemical_formula_structural   Li9Mn7O16
_chemical_formula_sum   'Li9 Mn7 O16'
_cell_volume   297.03291722
_cell_formula_units_Z   1
loop_
 _symmetry_equiv_pos_site_id
 _symmetry_equiv_pos_as_xyz
  1  'x, y, z'
loop_
 _atom_site_type_symbol
 _atom_site_label
 _atom_site_symmetry_multiplicity
 _atom_site_fract_x
 _atom_site_fract_y
 _atom_site_fract_z
 _atom_site_occupancy
  Li  Li0  1  0.25484000  0.74582800  0.24667300  1
  Li  Li1  1  0.25322200  0.00233300  0.75330200  1
  Li  Li2  1  0.25637000  0.25653800  0.24450600  1
  Li  Li3  1  0.74677800  0.99766700  0.24669800  1
  Li  Li4  1  0.74516000  0.25417200  0.75332700  1
  Li  Li5  1  0.74713700  0.50390200  0.24801200  1
  Li  Li6  1  0.25286300  0.49609800  0.75198800  1
  Li  Li7  1  0.74363000  0.74346200  0.75549400  1
  Li  Li8  1  0.50000000  0.50000000  0.00000000  1
  Mn  Mn0  1  0.99970900  0.74144800  0.99936400  1
  Mn  Mn1  1  0.00029100  0.25855200  0.00063600  1
  Mn  Mn2  1  0.00000000  0.00000000  0.50000000  1
  Mn  Mn3  1  0.00000000  0.50000000  0.50000000  1
  Mn  Mn4  1  0.50021700  0.24949400  0.49948900  1
  Mn  Mn5  1  0.49978300  0.75050600  0.50051100  1
  Mn  Mn6  1  0.50000000  0.00000000  0.00000000  1
  O  O0  1  0.10387900  0.50014400  0.11549300  1
  O  O1  1  0.13940500  0.76614900  0.61706900  1
  O  O2  1  0.13734000  0.00644600  0.11116700  1
  O  O3  1  0.63613800  0.76440000  0.11318100  1
  O  O4  1  0.63877700  0.01635700  0.61680600  1
  O  O5  1  0.63134000  0.22342100  0.10526300  1
  O  O6  1  0.13825200  0.26651300  0.61629300  1
  O  O7  1  0.63737100  0.51632300  0.61881300  1
  O  O8  1  0.36122300  0.98364300  0.38319400  1
  O  O9  1  0.36386200  0.23560000  0.88681900  1
  O  O10  1  0.36262900  0.48367700  0.38118700  1
  O  O11  1  0.86059500  0.23385100  0.38293100  1
  O  O12  1  0.89612100  0.49985600  0.88450700  1
  O  O13  1  0.86174800  0.73348700  0.38370700  1
  O  O14  1  0.36866000  0.77657900  0.89473700  1
  O  O15  1  0.86266000  0.99355400  0.88883300  1
loop_
_geom_bond_atom_site_label_1
_geom_bond_atom_site_label_2
_geom_bond_distance
_geom_bond_site_symmetry_2
Li0 O3 2.114736 1_555
Li0 O10 2.128617 1_555
Li0 O2 2.145696 1_565
Li0 O13 2.175418 1_455
Li0 O8 2.195791 1_555
Li0 O0 2.292049 1_555
Li1 O14 2.044506 1_545
Li1 O4 2.143503 1_555
Li1 O15 2.157888 1_445
Li1 O9 2.163988 1_555
Li1 O6 2.165352 1_555
Li1 O1 2.202151 1_545
Li2 O0 2.108006 1_555
Li2 O5 2.120806 1_555
Li2 O10 2.151354 1_555
Li2 O8 2.195119 1_545
Li2 O11 2.195796 1_455
Li2 O2 2.253264 1_555
Li3 O5 2.044506 1_565
Li3 O8 2.143503 1_555
Li3 O2 2.157888 1_665
Li3 O3 2.163988 1_555
Li3 O13 2.165352 1_555
Li3 O11 2.202151 1_565
Li4 O9 2.114736 1_555
Li4 O7 2.128617 1_555
Li4 O15 2.145696 1_545
Li4 O6 2.175418 1_655
Li4 O4 2.195791 1_555
Li4 O12 2.292049 1_555
Li5 O0 2.009944 1_655
Li5 O10 2.126810 1_555
Li5 O3 2.129283 1_555
Li5 O13 2.172121 1_555
Li5 O11 2.174277 1_555
Li5 O5 2.445198 1_555
Li6 O12 2.009944 1_455
Li6 O7 2.126810 1_555
Li6 O9 2.129283 1_555
Li6 O6 2.172121 1_555
Li6 O1 2.174277 1_555
Li6 O14 2.445198 1_555
Li7 O12 2.108006 1_555
Li7 O14 2.120806 1_555
Li7 O7 2.151354 1_555
Li7 O4 2.195119 1_565
Li7 O1 2.195796 1_655
Li7 O15 2.253264 1_555
Li8 O5 2.067731 1_555
Li8 O14 2.067731 1_554
Li8 O12 2.099845 1_554
Li8 O0 2.099845 1_555
Li8 O3 2.225551 1_555
Li8 O9 2.225551 1_554
Mn0 O0 1.920756 1_656
Mn0 O3 1.959611 1_556
Mn0 O14 1.960645 1_655
Mn0 O15 1.998336 1_555
Mn0 O12 2.060725 1_555
Mn0 O2 2.223371 1_666
Mn1 O12 1.920756 1_454
Mn1 O9 1.959611 1_554
Mn1 O5 1.960645 1_455
Mn1 O2 1.998336 1_555
Mn1 O0 2.060725 1_555
Mn1 O15 2.223371 1_444
Mn2 O4 1.959988 1_455
Mn2 O8 1.959988 1_545
Mn2 O11 1.965817 1_455
Mn2 O1 1.965817 1_545
Mn2 O6 2.259138 1_555
Mn2 O13 2.259138 1_445
Mn3 O6 1.957064 1_555
Mn3 O13 1.957064 1_455
Mn3 O7 1.973983 1_455
Mn3 O10 1.973983 1_555
Mn3 O11 2.264842 1_455
Mn3 O1 2.264842 1_555
Mn4 O11 1.955350 1_555
Mn4 O4 1.962605 1_555
Mn4 O6 1.963179 1_555
Mn4 O10 1.970737 1_555
Mn4 O8 2.257772 1_545
Mn4 O7 2.276846 1_555
Mn5 O1 1.955350 1_555
Mn5 O8 1.962605 1_555
Mn5 O13 1.963179 1_555
Mn5 O7 1.970737 1_555
Mn5 O4 2.257772 1_565
Mn5 O10 2.276846 1_555
Mn6 O9 1.942250 1_554
Mn6 O3 1.942250 1_545
Mn6 O15 1.942305 1_544
Mn6 O2 1.942305 1_555
Mn6 O14 1.978406 1_544
Mn6 O5 1.978406 1_555
