# generated using pymatgen
data_LiMnBO4
_symmetry_space_group_name_H-M   'P 1'
_cell_length_a   4.35888900
_cell_length_b   5.88607700
_cell_length_c   9.97252800
_cell_angle_alpha   90.00000000
_cell_angle_beta   90.00000000
_cell_angle_gamma   90.00000000
_symmetry_Int_Tables_number   1
_chemical_formula_structural   LiMnBO4
_chemical_formula_sum   'Li4 Mn4 B4 O16'
_cell_volume   255.86272048
_cell_formula_units_Z   4
loop_
 _symmetry_equiv_pos_site_id
 _symmetry_equiv_pos_as_xyz
  1  'x, y, z'
loop_
 _atom_site_type_symbol
 _atom_site_label
 _atom_site_symmetry_multiplicity
 _atom_site_fract_x
 _atom_site_fract_y
 _atom_site_fract_z
 _atom_site_occupancy
  Li  Li0  1  0.48306300  0.75000000  0.22380600  1
  Li  Li1  1  0.98306300  0.25000000  0.27619400  1
  Li  Li2  1  0.01693700  0.75000000  0.72380600  1
  Li  Li3  1  0.51693700  0.25000000  0.77619400  1
  Mn  Mn0  1  0.00000000  0.00000000  0.00000000  1
  Mn  Mn1  1  0.00000000  0.50000000  0.00000000  1
  Mn  Mn2  1  0.50000000  0.00000000  0.50000000  1
  Mn  Mn3  1  0.50000000  0.50000000  0.50000000  1
  B  B0  1  0.41154800  0.25000000  0.08743100  1
  B  B1  1  0.91154800  0.75000000  0.41256900  1
  B  B2  1  0.08845200  0.25000000  0.58743100  1
  B  B3  1  0.58845200  0.75000000  0.91256900  1
  O  O0  1  0.74895600  0.75000000  0.05778200  1
  O  O1  1  0.74943100  0.25000000  0.07893700  1
  O  O2  1  0.28383600  0.45786800  0.14440800  1
  O  O3  1  0.28383600  0.04213200  0.14440800  1
  O  O4  1  0.78383600  0.54213200  0.35559200  1
  O  O5  1  0.78383600  0.95786800  0.35559200  1
  O  O6  1  0.24943100  0.75000000  0.42106300  1
  O  O7  1  0.24895600  0.25000000  0.44221800  1
  O  O8  1  0.75104400  0.75000000  0.55778200  1
  O  O9  1  0.75056900  0.25000000  0.57893700  1
  O  O10  1  0.21616400  0.04213200  0.64440800  1
  O  O11  1  0.21616400  0.45786800  0.64440800  1
  O  O12  1  0.71616400  0.54213200  0.85559200  1
  O  O13  1  0.71616400  0.95786800  0.85559200  1
  O  O14  1  0.25056900  0.75000000  0.92106300  1
  O  O15  1  0.25104400  0.25000000  0.94221800  1
loop_
_geom_bond_atom_site_label_1
_geom_bond_atom_site_label_2
_geom_bond_distance
_geom_bond_site_symmetry_2
Li0 O0 2.021027 1_555
Li0 O2 2.082738 1_555
Li0 O3 2.082738 1_565
Li0 O6 2.215124 1_555
Li0 O5 2.223299 1_555
Li0 O4 2.223299 1_555
Li1 O7 2.021027 1_655
Li1 O5 2.082738 1_545
Li1 O4 2.082738 1_555
Li1 O1 2.215124 1_555
Li1 O3 2.223299 1_655
Li1 O2 2.223299 1_655
Li2 O8 2.021027 1_455
Li2 O11 2.082738 1_555
Li2 O10 2.082738 1_565
Li2 O14 2.215124 1_555
Li2 O12 2.223299 1_455
Li2 O13 2.223299 1_455
Li3 O15 2.021027 1_555
Li3 O13 2.082738 1_545
Li3 O12 2.082738 1_555
Li3 O9 2.215124 1_555
Li3 O11 2.223299 1_555
Li3 O10 2.223299 1_555
Mn0 O13 1.914710 1_444
Mn0 O3 1.914710 1_555
Mn0 O15 1.922198 1_554
Mn0 O0 1.922198 1_445
Mn0 O14 1.994483 1_544
Mn0 O1 1.994483 1_455
Mn1 O12 1.914710 1_454
Mn1 O2 1.914710 1_555
Mn1 O15 1.922198 1_554
Mn1 O0 1.922198 1_455
Mn1 O14 1.994483 1_554
Mn1 O1 1.994483 1_455
Mn2 O5 1.914710 1_545
Mn2 O10 1.914710 1_555
Mn2 O7 1.922198 1_555
Mn2 O8 1.922198 1_545
Mn2 O6 1.994483 1_545
Mn2 O9 1.994483 1_555
Mn3 O11 1.914710 1_555
Mn3 O4 1.914710 1_555
Mn3 O7 1.922198 1_555
Mn3 O8 1.922198 1_555
Mn3 O6 1.994483 1_555
Mn3 O9 1.994483 1_555
B0 O3 1.459373 1_555
B0 O2 1.459373 1_555
B0 O1 1.475228 1_555
B0 O15 1.608284 1_554
B1 O4 1.459373 1_555
B1 O5 1.459373 1_555
B1 O6 1.475228 1_655
B1 O8 1.608284 1_555
B2 O10 1.459373 1_555
B2 O11 1.459373 1_555
B2 O9 1.475228 1_455
B2 O7 1.608284 1_555
B3 O13 1.459373 1_555
B3 O12 1.459373 1_555
B3 O14 1.475228 1_555
B3 O0 1.608284 1_556
