# generated using pymatgen
data_Ca(BIr)2
_symmetry_space_group_name_H-M   'P 1'
_cell_length_a   5.50273049
_cell_length_b   5.50273020
_cell_length_c   6.12854693
_cell_angle_alpha   105.07100061
_cell_angle_beta   105.07100493
_cell_angle_gamma   114.88674631
_symmetry_Int_Tables_number   1
_chemical_formula_structural   Ca(BIr)2
_chemical_formula_sum   'Ca2 B4 Ir4'
_cell_volume   147.38562825
_cell_formula_units_Z   2
loop_
 _symmetry_equiv_pos_site_id
 _symmetry_equiv_pos_as_xyz
  1  'x, y, z'
loop_
 _atom_site_type_symbol
 _atom_site_label
 _atom_site_symmetry_multiplicity
 _atom_site_fract_x
 _atom_site_fract_y
 _atom_site_fract_z
 _atom_site_occupancy
  Ca  Ca0  1  0.87500000  0.12500000  0.25000000  1
  Ca  Ca1  1  0.12500000  0.87500000  0.75000000  1
  B  B0  1  0.55214217  0.44785783  0.25000000  1
  B  B1  1  0.80214217  0.19785783  0.75000000  1
  B  B2  1  0.19785783  0.80214217  0.25000000  1
  B  B3  1  0.44785783  0.55214217  0.75000000  1
  Ir  Ir0  1  0.50495159  0.75495159  0.50990417  1
  Ir  Ir1  1  0.75495159  0.50495159  0.00990417  1
  Ir  Ir2  1  0.49504841  0.24504841  0.49009583  1
  Ir  Ir3  1  0.24504841  0.49504841  0.99009583  1
loop_
_geom_bond_atom_site_label_1
_geom_bond_atom_site_label_2
_geom_bond_distance
_geom_bond_site_symmetry_2
Ca0 Ir1 3.038034 1_555
Ca0 Ir2 3.038034 1_555
Ca0 Ir1 3.038037 1_545
Ca0 Ir2 3.038037 1_655
Ca0 Ir3 3.273146 1_544
Ca0 Ir0 3.273146 1_655
Ca0 Ir3 3.273151 1_654
Ca0 Ir0 3.273151 1_545
Ca1 Ir3 3.038034 1_555
Ca1 Ir0 3.038034 1_555
Ca1 Ir3 3.038037 1_565
Ca1 Ir0 3.038037 1_455
Ca1 Ir2 3.273146 1_455
Ca1 Ir1 3.273146 1_566
Ca1 Ir2 3.273151 1_565
Ca1 Ir1 3.273151 1_456
B0 Ir2 2.075709 1_555
B0 Ir1 2.075710 1_555
B0 Ir3 2.155190 1_554
B0 Ir0 2.155190 1_555
B0 Ca0 2.994849 1_555
B0 Ca1 3.137917 1_544
B0 Ca1 3.137917 1_655
B1 Ir0 2.075714 1_545
B1 Ir3 2.075714 1_655
B1 Ir2 2.155190 1_555
B1 Ir1 2.155190 1_556
B1 Ca1 2.994849 1_645
B1 Ca0 3.137917 1_556
B1 Ca0 3.137917 1_555
B2 Ir2 2.075714 1_565
B2 Ir1 2.075714 1_455
B2 Ir0 2.155190 1_555
B2 Ir3 2.155190 1_554
B2 Ca0 2.994849 1_465
B2 Ca1 3.137917 1_554
B2 Ca1 3.137917 1_555
B3 Ir0 2.075709 1_555
B3 Ir3 2.075710 1_555
B3 Ir1 2.155190 1_556
B3 Ir2 2.155190 1_555
B3 Ca1 2.994849 1_555
B3 Ca0 3.137917 1_566
B3 Ca0 3.137917 1_455
