# generated using pymatgen
data_Lu4InRh
_symmetry_space_group_name_H-M   'P 1'
_cell_length_a   9.39116995
_cell_length_b   9.39116395
_cell_length_c   9.39120484
_cell_angle_alpha   59.99942113
_cell_angle_beta   59.99942633
_cell_angle_gamma   59.99931617
_symmetry_Int_Tables_number   1
_chemical_formula_structural   Lu4InRh
_chemical_formula_sum   'Lu16 In4 Rh4'
_cell_volume   585.65170302
_cell_formula_units_Z   4
loop_
 _symmetry_equiv_pos_site_id
 _symmetry_equiv_pos_as_xyz
  1  'x, y, z'
loop_
 _atom_site_type_symbol
 _atom_site_label
 _atom_site_symmetry_multiplicity
 _atom_site_fract_x
 _atom_site_fract_y
 _atom_site_fract_z
 _atom_site_occupancy
  Lu  Lu0  1  0.59939262  0.59937225  0.59941758  1
  Lu  Lu1  1  0.59938965  0.59936981  0.20182732  1
  Lu  Lu2  1  0.59937228  0.20184133  0.59939433  1
  Lu  Lu3  1  0.20183575  0.59935914  0.59940369  1
  Lu  Lu4  1  0.06079759  0.43921067  0.43922649  1
  Lu  Lu5  1  0.43921416  0.06081245  0.06074837  1
  Lu  Lu6  1  0.43921618  0.06081022  0.43922206  1
  Lu  Lu7  1  0.06080005  0.43920875  0.06076183  1
  Lu  Lu8  1  0.43922300  0.43921324  0.06077908  1
  Lu  Lu9  1  0.06076428  0.06079364  0.43921893  1
  Lu  Lu10  1  0.18899413  0.81099952  0.81101682  1
  Lu  Lu11  1  0.81100077  0.18899122  0.18898615  1
  Lu  Lu12  1  0.81099791  0.18900112  0.81100912  1
  Lu  Lu13  1  0.18898492  0.81100404  0.18898191  1
  Lu  Lu14  1  0.81101772  0.81101257  0.18898618  1
  Lu  Lu15  1  0.18899246  0.18899643  0.81100271  1
  In  In0  1  0.83357938  0.83357799  0.83358341  1
  In  In1  1  0.83357783  0.83357613  0.49926248  1
  In  In2  1  0.83357655  0.49926087  0.83358060  1
  In  In3  1  0.49926169  0.83357496  0.83358113  1
  Rh  Rh0  1  0.39237413  0.39237461  0.39237366  1
  Rh  Rh1  1  0.39237923  0.39238013  0.82287913  1
  Rh  Rh2  1  0.39238133  0.82287891  0.39237850  1
  Rh  Rh3  1  0.82287737  0.39238099  0.39237951  1
loop_
_geom_bond_atom_site_label_1
_geom_bond_atom_site_label_2
_geom_bond_distance
_geom_bond_site_symmetry_2
Lu0 Rh1 2.753558 1_555
Lu0 Rh3 2.753722 1_555
Lu0 Rh2 2.753868 1_555
Lu1 Rh0 2.753596 1_555
Lu1 Rh3 2.753793 1_555
Lu1 Rh2 2.753933 1_555
Lu2 Rh0 2.753661 1_555
Lu2 Rh1 2.753688 1_555
Lu2 Rh3 2.753832 1_555
Lu3 Rh0 2.753628 1_555
Lu3 Rh1 2.753654 1_555
Lu3 Rh2 2.753971 1_555
Lu4 Rh0 2.745381 1_555
Lu4 Rh3 2.745622 1_455
Lu5 Rh1 2.745257 1_554
Lu5 Rh2 2.745841 1_545
Lu6 Rh0 2.745263 1_555
Lu6 Rh2 2.745733 1_545
Lu7 Rh1 2.745370 1_554
Lu7 Rh3 2.745733 1_455
Lu8 Rh1 2.745445 1_554
Lu8 Rh0 2.745563 1_555
Lu9 Rh3 2.745425 1_455
Lu9 Rh2 2.745692 1_545
Lu10 Rh1 3.373670 1_555
Lu10 Rh2 3.373800 1_555
Lu11 Rh0 3.373740 1_555
Lu11 Rh3 3.374004 1_555
Lu12 Rh1 3.373647 1_555
Lu12 Rh3 3.373729 1_555
Lu13 Rh0 3.373779 1_555
Lu13 Rh2 3.374075 1_555
Lu14 Rh3 3.373779 1_555
Lu14 Rh2 3.373804 1_555
Lu15 Rh0 3.373738 1_555
Lu15 Rh1 3.373895 1_555
In0 In2 3.139653 1_555
In0 In3 3.139659 1_555
In0 In1 3.139692 1_555
In0 Lu14 3.140090 1_556
In0 Lu10 3.140117 1_655
In0 Lu12 3.140150 1_565
In0 Lu1 3.355485 1_556
In0 Lu3 3.355525 1_655
In0 Lu2 3.355538 1_565
In0 Lu5 3.401386 1_566
In0 Lu9 3.401396 1_665
In0 Lu7 3.401401 1_656
In1 In2 3.139602 1_555
In1 In3 3.139610 1_555
In1 Lu14 3.140084 1_555
In1 Lu13 3.140102 1_655
In1 Lu11 3.140125 1_565
In1 Lu0 3.355433 1_555
In1 Lu3 3.355541 1_655
In1 Lu2 3.355556 1_565
In1 Lu6 3.401389 1_565
In1 Lu4 3.401401 1_655
In1 Lu9 3.401417 1_665
In2 In3 3.139571 1_555
In2 Lu11 3.140051 1_556
In2 Lu12 3.140057 1_555
In2 Lu15 3.140073 1_655
In2 Lu0 3.355260 1_555
In2 Lu1 3.355323 1_556
In2 Lu3 3.355366 1_655
In2 Lu8 3.401354 1_556
In2 Lu4 3.401379 1_655
In2 Lu7 3.401392 1_656
In3 Lu13 3.140056 1_556
In3 Lu10 3.140077 1_555
In3 Lu15 3.140121 1_565
In3 Lu0 3.355343 1_555
In3 Lu1 3.355402 1_556
In3 Lu2 3.355475 1_565
In3 Lu8 3.401385 1_556
In3 Lu6 3.401401 1_565
In3 Lu5 3.401411 1_566
