# generated using pymatgen
data_HgTeO3F
_symmetry_space_group_name_H-M   'P 1'
_cell_length_a   7.91201800
_cell_length_b   6.25887200
_cell_length_c   8.08735300
_cell_angle_alpha   90.00000000
_cell_angle_beta   90.00000000
_cell_angle_gamma   90.00000000
_symmetry_Int_Tables_number   1
_chemical_formula_structural   HgTeO3F
_chemical_formula_sum   'Hg4 Te4 O12 F4'
_cell_volume   400.48821085
_cell_formula_units_Z   4
loop_
 _symmetry_equiv_pos_site_id
 _symmetry_equiv_pos_as_xyz
  1  'x, y, z'
loop_
 _atom_site_type_symbol
 _atom_site_label
 _atom_site_symmetry_multiplicity
 _atom_site_fract_x
 _atom_site_fract_y
 _atom_site_fract_z
 _atom_site_occupancy
  Hg  Hg0  1  0.38539100  0.20400400  0.63990100  1
  Hg  Hg1  1  0.61460900  0.70400400  0.36009900  1
  Hg  Hg2  1  0.38539100  0.70400400  0.86009900  1
  Hg  Hg3  1  0.61460900  0.20400400  0.13990100  1
  Te  Te0  1  0.80748500  0.04863700  0.61445400  1
  Te  Te1  1  0.19251500  0.54863700  0.38554600  1
  Te  Te2  1  0.80748500  0.54863700  0.88554600  1
  Te  Te3  1  0.19251500  0.04863700  0.11445400  1
  O  O0  1  0.57785900  0.98400700  0.67394600  1
  O  O1  1  0.42214100  0.48400700  0.32605400  1
  O  O2  1  0.57785900  0.48400700  0.82605400  1
  O  O3  1  0.42214100  0.98400700  0.17394600  1
  O  O4  1  0.79531500  0.43621000  0.11309500  1
  O  O5  1  0.20468500  0.93621000  0.88690500  1
  O  O6  1  0.79531500  0.93621000  0.38690500  1
  O  O7  1  0.20468500  0.43621000  0.61309500  1
  O  O8  1  0.88173800  0.26353800  0.78691900  1
  O  O9  1  0.11826200  0.76353800  0.21308100  1
  O  O10  1  0.88173800  0.76353800  0.71308100  1
  O  O11  1  0.11826200  0.26353800  0.28691900  1
  F  F0  1  0.73494200  0.31792500  0.49713800  1
  F  F1  1  0.26505800  0.81792500  0.50286200  1
  F  F2  1  0.73494200  0.81792500  0.00286200  1
  F  F3  1  0.26505800  0.31792500  0.99713800  1
loop_
_geom_bond_atom_site_label_1
_geom_bond_atom_site_label_2
_geom_bond_distance
_geom_bond_site_symmetry_2
Hg0 O7 2.050219 1_555
Hg0 O0 2.071402 1_545
Hg1 O6 2.050219 1_555
Hg1 O1 2.071402 1_555
Hg2 O5 2.050219 1_555
Hg2 O2 2.071402 1_555
Hg3 O4 2.050219 1_555
Hg3 O3 2.071402 1_545
O0 Te0 1.922472 1_565
O1 Te1 1.922472 1_555
O2 Te2 1.922472 1_555
O3 Te3 1.922472 1_565
O4 Te2 1.972564 1_554
O5 Te3 1.972564 1_566
O6 Te0 1.972564 1_565
O7 Te1 1.972564 1_555
O8 Te0 2.024771 1_555
O8 Te2 2.040941 1_555
O9 Te1 2.024771 1_555
O9 Te3 2.040941 1_565
O10 Te2 2.024771 1_555
O10 Te0 2.040941 1_565
O11 Te3 2.024771 1_555
O11 Te1 2.040941 1_555
F0 Te0 2.017502 1_555
F1 Te1 2.017502 1_555
F2 Te2 2.017502 1_554
F3 Te3 2.017502 1_556
