# generated using pymatgen
data_NbCr2
_symmetry_space_group_name_H-M   'P 1'
_cell_length_a   7.81986683
_cell_length_b   7.81986683
_cell_length_c   7.81986683
_cell_angle_alpha   118.36707152
_cell_angle_beta   118.36707152
_cell_angle_gamma   92.85237793
_symmetry_Int_Tables_number   1
_chemical_formula_structural   NbCr2
_chemical_formula_sum   'Nb8 Cr16'
_cell_volume   346.01129136
_cell_formula_units_Z   8
loop_
 _symmetry_equiv_pos_site_id
 _symmetry_equiv_pos_as_xyz
  1  'x, y, z'
loop_
 _atom_site_type_symbol
 _atom_site_label
 _atom_site_symmetry_multiplicity
 _atom_site_fract_x
 _atom_site_fract_y
 _atom_site_fract_z
 _atom_site_occupancy
  Nb  Nb0  1  0.34070200  0.34070200  0.00000000  1
  Nb  Nb1  1  0.65929800  0.65929800  0.00000000  1
  Nb  Nb2  1  0.55298300  0.05298300  0.10596600  1
  Nb  Nb3  1  0.94701700  0.44701700  0.89403400  1
  Nb  Nb4  1  0.94701700  0.05298300  0.50000000  1
  Nb  Nb5  1  0.55298300  0.44701700  0.50000000  1
  Nb  Nb6  1  0.94042100  0.44042100  0.50000000  1
  Nb  Nb7  1  0.55957900  0.05957900  0.50000000  1
  Cr  Cr0  1  0.12817700  0.37730400  0.24912700  1
  Cr  Cr1  1  0.12095000  0.87182300  0.24912700  1
  Cr  Cr2  1  0.62269600  0.87182300  0.75087300  1
  Cr  Cr3  1  0.12817700  0.87905000  0.75087300  1
  Cr  Cr4  1  0.91534500  0.75655800  0.84121300  1
  Cr  Cr5  1  0.92586800  0.08465500  0.84121300  1
  Cr  Cr6  1  0.24344200  0.08465500  0.15878700  1
  Cr  Cr7  1  0.91534500  0.07413200  0.15878700  1
  Cr  Cr8  1  0.34036100  0.00340600  0.66304600  1
  Cr  Cr9  1  0.32268500  0.65963900  0.66304600  1
  Cr  Cr10  1  0.99659400  0.65963900  0.33695400  1
  Cr  Cr11  1  0.34036100  0.67731500  0.33695400  1
  Cr  Cr12  1  0.70581400  0.70581400  0.41162900  1
  Cr  Cr13  1  0.29418600  0.29418600  0.58837100  1
  Cr  Cr14  1  0.29418600  0.70581400  0.00000000  1
  Cr  Cr15  1  0.70581400  0.29418600  0.00000000  1
loop_
_geom_bond_atom_site_label_1
_geom_bond_atom_site_label_2
_geom_bond_distance
_geom_bond_site_symmetry_2
Nb0 Nb3 3.056248 1_454
Nb0 Nb5 3.056248 1_555
Nb0 Nb4 3.056248 1_454
Nb0 Nb2 3.056248 1_555
Nb1 Nb2 3.056248 1_565
Nb1 Nb4 3.056248 1_565
Nb1 Nb5 3.056248 1_554
Nb1 Nb3 3.056248 1_554
Nb2 Nb6 3.032718 1_555
Nb2 Nb7 3.032718 1_555
Nb2 Nb4 3.157030 1_555
Nb2 Nb5 3.157030 1_555
Nb3 Nb6 3.032718 1_555
Nb3 Nb7 3.032718 1_555
Nb3 Nb5 3.157030 1_555
Nb3 Nb4 3.157030 1_555
Nb4 Nb7 3.032718 1_555
Nb4 Nb6 3.032718 1_555
Nb5 Nb7 3.032718 1_555
Nb5 Nb6 3.032718 1_555
Cr0 Cr11 2.393195 1_555
Cr0 Cr7 2.405853 1_455
Cr0 Cr5 2.413041 1_454
Cr0 Cr6 2.413041 1_555
Cr0 Cr10 2.421091 1_455
Cr0 Cr9 2.421096 1_555
Cr0 Cr13 2.755951 1_555
Cr0 Cr15 2.755957 1_455
Cr0 Nb3 2.791398 1_454
Cr0 Nb5 2.791398 1_555
Cr0 Nb6 2.852540 1_455
Cr0 Nb0 3.038612 1_555
Cr1 Cr10 2.393191 1_455
Cr1 Cr6 2.405853 1_565
Cr1 Cr4 2.413041 1_454
Cr1 Cr7 2.413041 1_465
Cr1 Cr11 2.421096 1_555
Cr1 Cr8 2.421097 1_565
Cr1 Cr13 2.755956 1_565
Cr1 Cr14 2.755957 1_555
Cr1 Nb4 2.791398 1_465
Cr1 Nb3 2.791398 1_454
Cr1 Nb7 2.852540 1_565
Cr1 Nb1 3.038612 1_455
Cr2 Cr9 2.393195 1_555
Cr2 Cr5 2.405853 1_565
Cr2 Cr7 2.413041 1_566
Cr2 Cr4 2.413041 1_555
Cr2 Cr8 2.421091 1_565
Cr2 Nb2 2.791398 1_566
Cr2 Nb5 2.791398 1_555
Cr2 Nb7 2.852540 1_565
Cr2 Nb1 3.038612 1_556
Cr3 Cr8 2.393191 1_565
Cr3 Cr4 2.405853 1_455
Cr3 Cr6 2.413041 1_566
Cr3 Cr5 2.413041 1_465
Cr3 Cr9 2.421096 1_555
Cr3 Nb4 2.791398 1_465
Cr3 Nb2 2.791398 1_566
Cr3 Nb6 2.852540 1_455
Cr3 Nb0 3.038612 1_566
Cr4 Cr7 2.544426 1_566
Cr4 Cr6 2.562898 1_666
Cr4 Cr5 2.562898 1_565
Cr4 Nb5 2.646438 1_555
Cr4 Nb3 2.646438 1_555
Cr4 Nb6 2.747157 1_555
Cr4 Nb1 3.039336 1_556
Cr5 Cr6 2.544426 1_656
Cr5 Cr7 2.562898 1_556
Cr5 Nb3 2.646438 1_555
Cr5 Nb4 2.646438 1_555
Cr5 Nb7 2.747157 1_555
Cr5 Nb0 3.039336 1_656
Cr6 Cr7 2.562898 1_455
Cr6 Nb2 2.646438 1_555
Cr6 Nb5 2.646438 1_555
Cr6 Nb7 2.747157 1_555
Cr6 Nb0 3.039336 1_555
Cr7 Nb2 2.646438 1_555
Cr7 Nb4 2.646438 1_555
Cr7 Nb6 2.747157 1_555
Cr7 Nb1 3.039336 1_545
Cr8 Cr9 2.684885 1_545
Cr8 Nb0 2.699707 1_556
Cr8 Nb7 2.700260 1_555
Cr8 Nb2 2.845840 1_556
Cr8 Nb4 2.845847 1_455
Cr9 Nb1 2.699703 1_556
Cr9 Nb6 2.700257 1_455
Cr9 Nb2 2.845844 1_566
Cr9 Nb5 2.845844 1_555
Cr10 Cr3 2.421097 1_655
Cr10 Cr15 2.604778 1_555
Cr10 Cr12 2.604787 1_555
Cr10 Cr9 2.612669 1_655
Cr10 Cr8 2.684885 1_665
Cr10 Cr11 2.684885 1_655
Cr10 Nb1 2.699707 1_555
Cr10 Nb6 2.700260 1_555
Cr10 Nb3 2.845840 1_554
Cr10 Nb4 2.845847 1_565
Cr11 Cr2 2.421096 1_555
Cr11 Cr12 2.604772 1_555
Cr11 Cr14 2.604775 1_555
Cr11 Cr8 2.612669 1_565
Cr11 Cr9 2.684893 1_555
Cr11 Nb0 2.699703 1_555
Cr11 Nb7 2.700257 1_565
Cr11 Nb3 2.845844 1_454
Cr11 Nb5 2.845844 1_555
Cr12 Cr4 2.750509 1_555
Cr12 Cr5 2.750512 1_565
Cr12 Cr2 2.755951 1_555
Cr12 Cr3 2.755956 1_655
Cr12 Nb5 2.806145 1_555
Cr12 Nb4 2.806155 1_565
Cr12 Nb0 2.896107 1_555
Cr12 Nb1 2.896113 1_555
Cr12 Nb6 2.947429 1_555
Cr12 Nb7 2.947431 1_565
Cr13 Cr9 2.604772 1_555
Cr13 Cr8 2.604787 1_555
Cr13 Cr6 2.750509 1_555
Cr13 Cr7 2.750512 1_455
Cr13 Nb5 2.806145 1_555
Cr13 Nb4 2.806155 1_455
Cr13 Nb1 2.896107 1_556
Cr13 Nb0 2.896113 1_556
Cr13 Nb7 2.947429 1_555
Cr13 Nb6 2.947431 1_455
Cr14 Cr9 2.604775 1_554
Cr14 Cr4 2.750515 1_454
Cr14 Cr6 2.750515 1_565
Cr14 Cr3 2.755957 1_554
Cr14 Nb3 2.806151 1_454
Cr14 Nb2 2.806151 1_565
Cr14 Nb1 2.896105 1_555
Cr14 Nb0 2.896105 1_555
Cr14 Nb6 2.947431 1_454
Cr14 Nb7 2.947431 1_565
Cr15 Cr8 2.604778 1_554
Cr15 Cr7 2.750515 1_555
Cr15 Cr5 2.750515 1_554
Cr15 Cr2 2.755957 1_544
Cr15 Nb2 2.806151 1_555
Cr15 Nb3 2.806151 1_554
Cr15 Nb1 2.896105 1_555
Cr15 Nb0 2.896105 1_555
Cr15 Nb6 2.947431 1_555
Cr15 Nb7 2.947431 1_554
