# generated using pymatgen
data_Li6V3P8O29
_symmetry_space_group_name_H-M   'P 1'
_cell_length_a   9.80443587
_cell_length_b   9.80443587
_cell_length_c   14.00041952
_cell_angle_alpha   89.21895036
_cell_angle_beta   89.21895036
_cell_angle_gamma   60.06097089
_symmetry_Int_Tables_number   1
_chemical_formula_structural   Li6V3P8O29
_chemical_formula_sum   'Li12 V6 P16 O58'
_cell_volume   1166.08325110
_cell_formula_units_Z   2
loop_
 _symmetry_equiv_pos_site_id
 _symmetry_equiv_pos_as_xyz
  1  'x, y, z'
loop_
 _atom_site_type_symbol
 _atom_site_label
 _atom_site_symmetry_multiplicity
 _atom_site_fract_x
 _atom_site_fract_y
 _atom_site_fract_z
 _atom_site_occupancy
  Li  Li0  1  0.65719800  0.24160600  0.05957700  1
  Li  Li1  1  0.66896400  0.09779100  0.56234300  1
  Li  Li2  1  0.24160600  0.65719800  0.55957700  1
  Li  Li3  1  0.09779100  0.66896400  0.06234300  1
  Li  Li4  1  0.23039900  0.09972700  0.05883700  1
  Li  Li5  1  0.09972700  0.23039900  0.55883700  1
  Li  Li6  1  0.67163400  0.67642800  0.60850700  1
  Li  Li7  1  0.67642800  0.67163400  0.10850700  1
  Li  Li8  1  0.77196500  0.31529900  0.43751200  1
  Li  Li9  1  0.31529900  0.77196500  0.93751200  1
  Li  Li10  1  0.95066400  0.03294400  0.99719700  1
  Li  Li11  1  0.03294400  0.95066400  0.49719700  1
  V  V0  1  0.00128800  0.56049900  0.25024500  1
  V  V1  1  0.00079400  0.43668500  0.75328600  1
  V  V2  1  0.56049900  0.00128800  0.75024500  1
  V  V3  1  0.43668500  0.00079400  0.25328600  1
  V  V4  1  0.56475600  0.43371300  0.25235000  1
  V  V5  1  0.43371300  0.56475600  0.75235000  1
  P  P0  1  0.68589600  0.22451300  0.84079900  1
  P  P1  1  0.68739000  0.08320900  0.34710600  1
  P  P2  1  0.22451300  0.68589600  0.34079900  1
  P  P3  1  0.33454000  0.33119100  0.12881500  1
  P  P4  1  0.33119100  0.33454000  0.62881500  1
  P  P5  1  0.08320900  0.68739000  0.84710600  1
  P  P6  1  0.91468000  0.78201700  0.66139200  1
  P  P7  1  0.22501700  0.08524400  0.84377900  1
  P  P8  1  0.78201700  0.91468000  0.16139200  1
  P  P9  1  0.08524400  0.22501700  0.34377900  1
  P  P10  1  0.91082600  0.30813300  0.15960800  1
  P  P11  1  0.66832500  0.66350900  0.36842700  1
  P  P12  1  0.66350900  0.66832500  0.86842700  1
  P  P13  1  0.77581500  0.31938300  0.65764500  1
  P  P14  1  0.30813300  0.91082600  0.65960800  1
  P  P15  1  0.31938300  0.77581500  0.15764500  1
  O  O0  1  0.76494000  0.23539000  0.57069500  1
  O  O1  1  0.66718600  0.25104300  0.33643100  1
  O  O2  1  0.79004900  0.01730800  0.08341400  1
  O  O3  1  0.65401400  0.08930500  0.83188700  1
  O  O4  1  0.53108000  0.38545400  0.82573800  1
  O  O5  1  0.48341500  0.33080000  0.16774000  1
  O  O6  1  0.38545400  0.53108000  0.32573800  1
  O  O7  1  0.23539000  0.76494000  0.07069500  1
  O  O8  1  0.25104300  0.66718600  0.83643100  1
  O  O9  1  0.48286100  0.18504200  0.66788000  1
  O  O10  1  0.52853400  0.09085200  0.33198800  1
  O  O11  1  0.33080000  0.48341500  0.66774000  1
  O  O12  1  0.33334000  0.32789000  0.02240600  1
  O  O13  1  0.32789000  0.33334000  0.52240600  1
  O  O14  1  0.18504200  0.48286100  0.16788000  1
  O  O15  1  0.37979500  0.08772600  0.83045000  1
  O  O16  1  0.33237400  0.18290700  0.17306100  1
  O  O17  1  0.08930500  0.65401400  0.33188700  1
  O  O18  1  0.98092700  0.80356500  0.76170000  1
  O  O19  1  0.01730800  0.79004900  0.58341400  1
  O  O20  1  0.01344200  0.76990400  0.93990400  1
  O  O21  1  0.09085200  0.52853400  0.83198800  1
  O  O22  1  0.18290700  0.33237400  0.67306100  1
  O  O23  1  0.92172500  0.74455700  0.15629200  1
  O  O24  1  0.08772600  0.37979500  0.33045000  1
  O  O25  1  0.25040300  0.08082700  0.33476900  1
  O  O26  1  0.80356500  0.98092700  0.26170000  1
  O  O27  1  0.76990400  0.01344200  0.43990400  1
  O  O28  1  0.20321200  0.00514400  0.57885700  1
  O  O29  1  0.74455700  0.92172500  0.65629200  1
  O  O30  1  0.90716000  0.62741700  0.66702200  1
  O  O31  1  0.08082700  0.25040300  0.83476900  1
  O  O32  1  0.81439800  0.66170500  0.32023200  1
  O  O33  1  0.90252500  0.47010700  0.16400900  1
  O  O34  1  0.00514400  0.20321200  0.07885700  1
  O  O35  1  0.00300900  0.22273800  0.43521300  1
  O  O36  1  0.98091900  0.21598900  0.25864700  1
  O  O37  1  0.92298500  0.33699200  0.65485600  1
  O  O38  1  0.66170500  0.81439800  0.82023200  1
  O  O39  1  0.62741700  0.90716000  0.16702200  1
  O  O40  1  0.80932300  0.52196000  0.82177700  1
  O  O41  1  0.66633800  0.66866600  0.97381800  1
  O  O42  1  0.66866600  0.66633800  0.47381800  1
  O  O43  1  0.67338300  0.50846700  0.33566300  1
  O  O44  1  0.47010700  0.90252500  0.66400900  1
  O  O45  1  0.52196000  0.80932300  0.32177700  1
  O  O46  1  0.73746000  0.34175300  0.15938000  1
  O  O47  1  0.79558100  0.21273600  0.75073000  1
  O  O48  1  0.76556300  0.21912100  0.93257100  1
  O  O49  1  0.62937100  0.48455900  0.67168700  1
  O  O50  1  0.50846700  0.67338300  0.83566300  1
  O  O51  1  0.48455900  0.62937100  0.17168700  1
  O  O52  1  0.33699200  0.92298500  0.15485600  1
  O  O53  1  0.22273800  0.00300900  0.93521300  1
  O  O54  1  0.21598900  0.98091900  0.75864700  1
  O  O55  1  0.34175300  0.73746000  0.65938000  1
  O  O56  1  0.21912100  0.76556300  0.43257100  1
  O  O57  1  0.21273600  0.79558100  0.25073000  1
loop_
_geom_bond_atom_site_label_1
_geom_bond_atom_site_label_2
_geom_bond_distance
_geom_bond_site_symmetry_2
Li0 O2 1.943393 1_555
Li0 O48 2.016080 1_554
Li0 O46 2.091500 1_555
Li0 O5 2.107017 1_555
Li1 O27 1.943523 1_555
Li1 O29 1.986678 1_545
Li1 O0 1.998396 1_555
Li1 O9 2.155744 1_555
Li2 O19 1.943393 1_555
Li2 O56 2.016080 1_555
Li2 O55 2.091500 1_555
Li2 O11 2.107017 1_555
Li3 O20 1.943523 1_554
Li3 O23 1.986678 1_455
Li3 O7 1.998396 1_555
Li3 O14 2.155744 1_555
Li4 O34 1.933831 1_555
Li4 O53 2.004959 1_554
Li4 O52 2.017251 1_545
Li4 O16 2.261662 1_555
Li5 O28 1.933831 1_555
Li5 O35 2.004959 1_555
Li5 O37 2.017251 1_455
Li5 O22 2.261662 1_555
Li6 O42 1.891022 1_555
Li6 O44 2.248335 1_555
Li6 O30 2.273260 1_555
Li6 O49 2.283770 1_555
Li7 O41 1.891022 1_554
Li7 O33 2.248335 1_555
Li7 O39 2.273260 1_555
Li7 O51 2.283770 1_555
Li8 O35 1.975564 1_655
Li8 O0 2.026300 1_555
Li8 O1 2.040809 1_555
Li8 O43 2.165902 1_555
Li9 O53 1.975564 1_565
Li9 O7 2.026300 1_556
Li9 O8 2.040809 1_555
Li9 O50 2.165902 1_555
Li10 O48 2.034033 1_555
Li10 O2 2.035788 1_556
Li10 O34 2.310401 1_656
Li10 O20 2.476244 1_645
Li11 O56 2.034033 1_555
Li11 O19 2.035788 1_555
Li11 O28 2.310401 1_565
Li11 O27 2.476244 1_465
O0 P13 1.513257 1_555
O1 P1 1.561425 1_555
O1 V4 1.944563 1_555
O2 P8 1.502439 1_545
O3 P0 1.513201 1_555
O3 V2 1.933144 1_555
O4 P0 1.564373 1_555
O4 V5 1.832975 1_555
O5 P3 1.563196 1_555
O5 V4 1.979611 1_555
O6 P2 1.564373 1_555
O6 V4 1.832975 1_555
O7 P15 1.513257 1_555
O8 P5 1.561425 1_555
O8 V5 1.944563 1_555
O9 P4 1.575924 1_555
O9 V2 1.937366 1_555
O10 P1 1.538915 1_555
O10 V3 1.911002 1_555
O11 P4 1.563196 1_555
O11 V5 1.979611 1_555
O12 P3 1.490897 1_555
O13 P4 1.490897 1_555
O14 P3 1.575924 1_555
O14 V0 1.937366 1_555
O15 P7 1.538594 1_555
O15 V2 1.895007 1_555
O16 P3 1.582322 1_555
O16 V3 1.910363 1_555
O17 P2 1.513201 1_555
O17 V0 1.933144 1_555
O18 P5 1.608790 1_655
O18 P6 1.615127 1_555
O19 P6 1.502439 1_455
O20 P5 1.504126 1_555
O21 P5 1.538915 1_555
O21 V1 1.911002 1_555
O22 P4 1.582322 1_555
O22 V1 1.910363 1_555
O23 P8 1.543864 1_555
O23 V0 2.037993 1_655
O24 P9 1.538594 1_555
O24 V0 1.895007 1_555
O25 P9 1.533260 1_555
O25 V3 1.946780 1_555
O26 P1 1.608790 1_565
O26 P8 1.615127 1_555
O27 P1 1.504126 1_555
O28 P14 1.498389 1_545
O29 P6 1.543864 1_555
O29 V2 2.037993 1_565
O30 P6 1.554776 1_555
O30 V1 2.013319 1_655
O31 P7 1.533260 1_555
O31 V1 1.946780 1_555
O32 P11 1.566968 1_555
O32 V0 1.861433 1_655
O33 P10 1.551093 1_555
O33 V0 2.024439 1_655
O34 P10 1.498389 1_455
O35 P9 1.509412 1_555
O36 P10 1.607230 1_555
O36 P9 1.612799 1_655
O37 P13 1.536321 1_555
O37 V1 2.060600 1_655
O38 P12 1.566968 1_555
O38 V2 1.861433 1_565
O39 P8 1.554776 1_555
O39 V3 2.013319 1_565
O40 P12 1.575443 1_555
O40 V1 1.883821 1_655
O41 P12 1.476238 1_555
O42 P11 1.476238 1_555
O43 P11 1.570580 1_555
O43 V4 1.966799 1_555
O44 P14 1.551093 1_555
O44 V2 2.024439 1_565
O45 P11 1.575443 1_555
O45 V3 1.883821 1_565
O46 P10 1.561635 1_555
O46 V4 1.955075 1_555
O47 P13 1.611442 1_555
O47 P0 1.613382 1_555
O48 P0 1.499340 1_555
O49 P13 1.550119 1_555
O49 V5 2.008263 1_555
O50 P12 1.570580 1_555
O50 V5 1.966799 1_555
O51 P15 1.550119 1_555
O51 V4 2.008263 1_555
O52 P15 1.536321 1_555
O52 V3 2.060600 1_565
O53 P7 1.509412 1_555
O54 P14 1.607230 1_555
O54 P7 1.612799 1_565
O55 P14 1.561635 1_555
O55 V5 1.955075 1_555
O56 P2 1.499340 1_555
O57 P15 1.611442 1_555
O57 P2 1.613382 1_555
