# generated using pymatgen
data_K2BeF4
_symmetry_space_group_name_H-M   'P 1'
_cell_length_a   5.78198900
_cell_length_b   7.40096400
_cell_length_c   10.05306200
_cell_angle_alpha   90.00000000
_cell_angle_beta   90.00000000
_cell_angle_gamma   90.00000000
_symmetry_Int_Tables_number   1
_chemical_formula_structural   K2BeF4
_chemical_formula_sum   'K8 Be4 F16'
_cell_volume   430.19356900
_cell_formula_units_Z   4
loop_
 _symmetry_equiv_pos_site_id
 _symmetry_equiv_pos_as_xyz
  1  'x, y, z'
loop_
 _atom_site_type_symbol
 _atom_site_label
 _atom_site_symmetry_multiplicity
 _atom_site_fract_x
 _atom_site_fract_y
 _atom_site_fract_z
 _atom_site_occupancy
  K  K0  1  0.74864300  0.33997200  0.58708000  1
  K  K1  1  0.24864300  0.66002800  0.41292000  1
  K  K2  1  0.24864300  0.16002800  0.08708000  1
  K  K3  1  0.74864300  0.83997200  0.91292000  1
  K  K4  1  0.26013700  0.49673100  0.80518100  1
  K  K5  1  0.76013700  0.50326900  0.19481900  1
  K  K6  1  0.76013700  0.00326900  0.30518100  1
  K  K7  1  0.26013700  0.99673100  0.69481900  1
  Be  Be0  1  0.75042000  0.27121900  0.91684300  1
  Be  Be1  1  0.25042000  0.72878100  0.08315700  1
  Be  Be2  1  0.25042000  0.22878100  0.41684300  1
  Be  Be3  1  0.75042000  0.77121900  0.58315700  1
  F  F0  1  0.53618700  0.19160700  0.84142800  1
  F  F1  1  0.03618700  0.80839300  0.15857200  1
  F  F2  1  0.03618700  0.30839300  0.34142800  1
  F  F3  1  0.53618700  0.69160700  0.65857200  1
  F  F4  1  0.97853100  0.20960800  0.84513000  1
  F  F5  1  0.47853100  0.79039200  0.15487000  1
  F  F6  1  0.47853100  0.29039200  0.34513000  1
  F  F7  1  0.97853100  0.70960800  0.65487000  1
  F  F8  1  0.72965300  0.47940900  0.91998200  1
  F  F9  1  0.22965300  0.52059100  0.08001800  1
  F  F10  1  0.22965300  0.02059100  0.41998200  1
  F  F11  1  0.72965300  0.97940900  0.58001800  1
  F  F12  1  0.25243000  0.31402200  0.56115600  1
  F  F13  1  0.75243000  0.68597800  0.43884400  1
  F  F14  1  0.75243000  0.18597800  0.06115600  1
  F  F15  1  0.25243000  0.81402200  0.93884400  1
loop_
_geom_bond_atom_site_label_1
_geom_bond_atom_site_label_2
_geom_bond_distance
_geom_bond_site_symmetry_2
Be0 F8 1.545800 1_555
Be0 F0 1.567264 1_555
Be0 F4 1.570750 1_555
Be0 F14 1.582059 1_556
Be1 F9 1.545800 1_555
Be1 F1 1.567264 1_555
Be1 F5 1.570750 1_555
Be1 F15 1.582059 1_554
Be2 F10 1.545800 1_555
Be2 F2 1.567264 1_555
Be2 F6 1.570750 1_555
Be2 F12 1.582059 1_555
Be3 F11 1.545800 1_555
Be3 F3 1.567264 1_555
Be3 F7 1.570750 1_555
Be3 F13 1.582059 1_555
F0 K7 2.607686 1_545
F0 K4 2.789246 1_555
F0 K3 2.966183 1_545
F0 K2 2.986216 1_556
F0 K0 3.041848 1_555
F1 K6 2.607686 1_465
F1 K5 2.789246 1_455
F1 K2 2.966183 1_565
F1 K3 2.986216 1_454
F1 K1 3.041848 1_555
F2 K5 2.607686 1_455
F2 K6 2.789246 1_455
F2 K1 2.966183 1_555
F2 K0 2.986216 1_455
F2 K2 3.041848 1_555
F3 K4 2.607686 1_555
F3 K7 2.789246 1_555
F3 K0 2.966183 1_555
F3 K1 2.986216 1_555
F3 K3 3.041848 1_555
F4 K4 2.707034 1_655
F4 K7 2.723369 1_645
F4 K2 2.913775 1_656
F4 K0 3.070425 1_555
F4 K3 3.116904 1_545
F5 K5 2.707034 1_555
F5 K6 2.723369 1_565
F5 K3 2.913775 1_554
F5 K1 3.070425 1_555
F5 K2 3.116904 1_565
F6 K6 2.707034 1_555
F6 K5 2.723369 1_555
F6 K0 2.913775 1_555
F6 K2 3.070425 1_555
F6 K1 3.116904 1_555
F7 K7 2.707034 1_655
F7 K4 2.723369 1_655
F7 K1 2.913775 1_655
F7 K3 3.070425 1_555
F7 K0 3.116904 1_555
F8 K3 2.671715 1_555
F8 K5 2.774196 1_556
F8 K4 2.952656 1_555
F9 K2 2.671715 1_555
F9 K4 2.774196 1_554
F9 K5 2.952656 1_455
F10 K1 2.671715 1_545
F10 K7 2.774196 1_545
F10 K6 2.952656 1_455
F11 K0 2.671715 1_565
F11 K6 2.774196 1_565
F11 K7 2.952656 1_555
F12 K7 2.705900 1_545
F12 K4 2.801549 1_555
F12 K0 2.887305 1_555
F12 K0 2.930826 1_455
F12 K1 2.962910 1_555
F13 K6 2.705900 1_565
F13 K5 2.801549 1_555
F13 K1 2.887305 1_655
F13 K1 2.930826 1_555
F13 K0 2.962910 1_555
F14 K5 2.705900 1_555
F14 K6 2.801549 1_555
F14 K2 2.887305 1_655
F14 K2 2.930826 1_555
F14 K3 2.962910 1_544
F15 K4 2.705900 1_555
F15 K7 2.801549 1_555
F15 K3 2.887305 1_555
F15 K3 2.930826 1_455
F15 K2 2.962910 1_566
