# generated using pymatgen
data_SrCa7Mn7CrO24
_symmetry_space_group_name_H-M   'P 1'
_cell_length_a   10.84996579
_cell_length_b   15.19202684
_cell_length_c   10.70995952
_cell_angle_alpha   90.00596386
_cell_angle_beta   90.02271988
_cell_angle_gamma   89.98373911
_symmetry_Int_Tables_number   1
_chemical_formula_structural   SrCa7Mn7CrO24
_chemical_formula_sum   'Sr4 Ca28 Mn28 Cr4 O96'
_cell_volume   1765.35423282
_cell_formula_units_Z   4
loop_
 _symmetry_equiv_pos_site_id
 _symmetry_equiv_pos_as_xyz
  1  'x, y, z'
loop_
 _atom_site_type_symbol
 _atom_site_label
 _atom_site_symmetry_multiplicity
 _atom_site_fract_x
 _atom_site_fract_y
 _atom_site_fract_z
 _atom_site_occupancy
  Sr  Sr0  1  0.01721162  0.12485636  0.49703116  1
  Sr  Sr1  1  0.48308203  0.37534702  0.00257151  1
  Sr  Sr2  1  0.23190706  0.37577894  0.24678685  1
  Sr  Sr3  1  0.26852631  0.12460920  0.25384538  1
  Ca  Ca0  1  0.02026540  0.12484137  0.99533521  1
  Ca  Ca1  1  0.02264068  0.62506150  0.49520753  1
  Ca  Ca2  1  0.02251285  0.62507849  0.99591836  1
  Ca  Ca3  1  0.52257534  0.12490668  0.49622791  1
  Ca  Ca4  1  0.52384455  0.12484601  0.99450953  1
  Ca  Ca5  1  0.52263948  0.62511922  0.49558269  1
  Ca  Ca6  1  0.52248104  0.62519887  0.99567811  1
  Ca  Ca7  1  0.47822130  0.37479927  0.50552591  1
  Ca  Ca8  1  0.47820845  0.87472092  0.00413825  1
  Ca  Ca9  1  0.47764460  0.87517874  0.50477679  1
  Ca  Ca10  1  0.97740905  0.37537431  0.00402597  1
  Ca  Ca11  1  0.97706112  0.37548551  0.50487331  1
  Ca  Ca12  1  0.97715166  0.87461887  0.00426258  1
  Ca  Ca13  1  0.97753976  0.87451983  0.50446455  1
  Ca  Ca14  1  0.22749381  0.37557874  0.74405840  1
  Ca  Ca15  1  0.22788492  0.87422661  0.24619377  1
  Ca  Ca16  1  0.22772412  0.87440999  0.74492410  1
  Ca  Ca17  1  0.72833688  0.37499318  0.24649287  1
  Ca  Ca18  1  0.72762942  0.37466116  0.74492283  1
  Ca  Ca19  1  0.72718012  0.87500674  0.24566651  1
  Ca  Ca20  1  0.72728549  0.87532162  0.74526819  1
  Ca  Ca21  1  0.27326047  0.12480980  0.75461655  1
  Ca  Ca22  1  0.27246853  0.62530387  0.25420286  1
  Ca  Ca23  1  0.27283042  0.62521254  0.75466419  1
  Ca  Ca24  1  0.77004625  0.12493848  0.25378077  1
  Ca  Ca25  1  0.77174271  0.12502152  0.75471662  1
  Ca  Ca26  1  0.77255336  0.62500434  0.25431096  1
  Ca  Ca27  1  0.77244147  0.62495967  0.75452566  1
  Mn  Mn0  1  -0.00001005  0.99939508  0.75125736  1
  Mn  Mn1  1  0.99909905  0.50077197  0.25008551  1
  Mn  Mn2  1  0.99986114  0.50023964  0.74993050  1
  Mn  Mn3  1  0.50077234  0.99925566  0.25029696  1
  Mn  Mn4  1  0.50023175  -0.00004040  0.75021133  1
  Mn  Mn5  1  0.50154125  0.50153272  0.25076980  1
  Mn  Mn6  1  0.50002127  0.50065235  0.74847969  1
  Mn  Mn7  1  0.25080114  0.99892773  0.50091869  1
  Mn  Mn8  1  0.24931722  0.50132735  0.99872861  1
  Mn  Mn9  1  0.24988174  0.50081144  0.50144353  1
  Mn  Mn10  1  0.74965286  0.99949131  0.99971087  1
  Mn  Mn11  1  0.74868913  0.99929858  0.49989347  1
  Mn  Mn12  1  0.75134792  0.50083983  0.00033453  1
  Mn  Mn13  1  0.74998436  0.50027653  0.50032646  1
  Mn  Mn14  1  0.25045432  0.25041218  0.50226603  1
  Mn  Mn15  1  0.25004077  0.74994565  0.99970970  1
  Mn  Mn16  1  0.25016991  0.74988711  0.50001511  1
  Mn  Mn17  1  0.75086558  0.24954899  0.00015004  1
  Mn  Mn18  1  0.74874339  0.25046997  0.50013373  1
  Mn  Mn19  1  0.75011532  0.75008774  0.99988609  1
  Mn  Mn20  1  0.74988426  0.74991791  0.50013261  1
  Mn  Mn21  1  0.99978803  0.25047304  0.75119371  1
  Mn  Mn22  1  0.99989570  0.74971521  0.24998239  1
  Mn  Mn23  1  0.99996667  0.74986335  0.74999304  1
  Mn  Mn24  1  0.50199463  0.24904844  0.25075717  1
  Mn  Mn25  1  0.50013557  0.24920961  0.74876050  1
  Mn  Mn26  1  0.50028210  0.75015516  0.25022691  1
  Mn  Mn27  1  0.50009678  0.75011305  0.75004084  1
  Cr  Cr0  1  0.99770233  0.99790522  0.24871036  1
  Cr  Cr1  1  0.25005788  0.99877094  0.99812190  1
  Cr  Cr2  1  0.24899379  0.24969539  0.99715568  1
  Cr  Cr3  1  0.99679798  0.25153501  0.24881567  1
  O  O0  1  0.10253018  0.26751130  0.10410684  1
  O  O1  1  0.10481508  0.27143913  0.60562894  1
  O  O2  1  0.10407728  0.77081933  0.10298645  1
  O  O3  1  0.10393721  0.77026260  0.60306846  1
  O  O4  1  0.60880040  0.26686555  0.10719701  1
  O  O5  1  0.60437143  0.26974019  0.60241018  1
  O  O6  1  0.60399342  0.77029018  0.10300637  1
  O  O7  1  0.60397208  0.77025973  0.60302555  1
  O  O8  1  0.39766560  0.23207147  0.39791217  1
  O  O9  1  0.39618064  0.22923960  0.89427667  1
  O  O10  1  0.39603214  0.72960905  0.39696942  1
  O  O11  1  0.39618256  0.72967718  0.89693408  1
  O  O12  1  0.88963813  0.23270921  0.39163033  1
  O  O13  1  0.89605396  0.23032673  0.89788452  1
  O  O14  1  0.89607073  0.72979483  0.39707186  1
  O  O15  1  0.89616137  0.72972605  0.89700408  1
  O  O16  1  0.14236130  0.23495413  0.35759136  1
  O  O17  1  0.14504437  0.22989565  0.85346114  1
  O  O18  1  0.14623444  0.72978236  0.35310020  1
  O  O19  1  0.14597813  0.72982191  0.85288129  1
  O  O20  1  0.64591884  0.22963802  0.35380369  1
  O  O21  1  0.64589880  0.23027194  0.85363846  1
  O  O22  1  0.64610492  0.72959146  0.35295211  1
  O  O23  1  0.64610779  0.72958410  0.85307294  1
  O  O24  1  0.35816442  0.26565405  0.14148055  1
  O  O25  1  0.35377009  0.26975961  0.64810373  1
  O  O26  1  0.35397462  0.77048784  0.14677947  1
  O  O27  1  0.35403554  0.77022985  0.64702102  1
  O  O28  1  0.85338510  0.26962853  0.14567373  1
  O  O29  1  0.85494538  0.26990970  0.64635437  1
  O  O30  1  0.85392356  0.77062632  0.14704779  1
  O  O31  1  0.85398354  0.77038191  0.64704201  1
  O  O32  1  0.35666247  0.48548041  0.14389908  1
  O  O33  1  0.35390024  0.48065274  0.64729620  1
  O  O34  1  0.35533476  0.97876817  0.14469053  1
  O  O35  1  0.35390878  0.97935283  0.64789219  1
  O  O36  1  0.85421852  0.47958805  0.14682807  1
  O  O37  1  0.85401978  0.47965320  0.64701028  1
  O  O38  1  0.85297341  0.98002323  0.14583094  1
  O  O39  1  0.85491117  0.98003604  0.64642207  1
  O  O40  1  0.14401509  0.01384586  0.35622360  1
  O  O41  1  0.14522020  0.01977297  0.85408997  1
  O  O42  1  0.14477603  0.52161313  0.35468576  1
  O  O43  1  0.14578079  0.52053277  0.85233581  1
  O  O44  1  0.64591523  0.02012569  0.35302531  1
  O  O45  1  0.64641071  0.02027416  0.85305832  1
  O  O46  1  0.64615972  0.52064926  0.35382123  1
  O  O47  1  0.64547487  0.51988439  0.85371103  1
  O  O48  1  0.39820121  0.01835646  0.39831584  1
  O  O49  1  0.39708302  0.01948624  0.89663219  1
  O  O50  1  0.39558488  0.51994344  0.39671225  1
  O  O51  1  0.39482635  0.52174669  0.89466919  1
  O  O52  1  0.89028014  0.01670211  0.39159373  1
  O  O53  1  0.89609098  0.01961519  0.89796833  1
  O  O54  1  0.89561552  0.52059893  0.39724094  1
  O  O55  1  0.89609173  0.52033492  0.89688035  1
  O  O56  1  0.10204163  0.48135738  0.10152985  1
  O  O57  1  0.10355260  0.47999705  0.60348728  1
  O  O58  1  0.10443699  0.98084506  0.10459720  1
  O  O59  1  0.10523092  0.97826258  0.60521660  1
  O  O60  1  0.60882125  0.48368559  0.10748473  1
  O  O61  1  0.60427839  0.48039679  0.60233742  1
  O  O62  1  0.60389388  0.97921479  0.10273720  1
  O  O63  1  0.60405344  0.97956433  0.60306026  1
  O  O64  1  0.00385909  0.37579998  0.28827386  1
  O  O65  1  0.00971420  0.37512676  0.78961599  1
  O  O66  1  0.00930817  0.87428849  0.28785676  1
  O  O67  1  0.00989548  0.87485806  0.78977750  1
  O  O68  1  0.50920913  0.37532570  0.28767639  1
  O  O69  1  0.51022331  0.37515340  0.78063926  1
  O  O70  1  0.51014041  0.87470452  0.28941534  1
  O  O71  1  0.50988808  0.87487450  0.78943141  1
  O  O72  1  0.49656305  0.12414364  0.21074447  1
  O  O73  1  0.49041808  0.12472380  0.71053156  1
  O  O74  1  0.49043833  0.62592315  0.21136045  1
  O  O75  1  0.49048357  0.62523789  0.71033811  1
  O  O76  1  0.99122194  0.12444916  0.21409946  1
  O  O77  1  0.98954552  0.12496670  0.71929286  1
  O  O78  1  0.98994896  0.62526409  0.21071512  1
  O  O79  1  0.99003581  0.62501167  0.71062356  1
  O  O80  1  0.23944610  0.12453308  0.02907384  1
  O  O81  1  0.24628992  0.12486406  0.53866561  1
  O  O82  1  0.23965134  0.62561810  0.03891147  1
  O  O83  1  0.24034095  0.62517659  0.53965378  1
  O  O84  1  0.74147163  0.12450500  0.03895200  1
  O  O85  1  0.74108025  0.12489337  0.53902251  1
  O  O86  1  0.74075024  0.62550746  0.03900967  1
  O  O87  1  0.74021205  0.62509174  0.53941800  1
  O  O88  1  0.26063518  0.37561816  0.46939671  1
  O  O89  1  0.25443733  0.37457693  0.96179507  1
  O  O90  1  0.26036697  0.87434238  0.46102078  1
  O  O91  1  0.25963620  0.87515542  0.96079678  1
  O  O92  1  0.75941793  0.37551131  0.46122872  1
  O  O93  1  0.75877025  0.37517515  0.96128688  1
  O  O94  1  0.75963841  0.87448599  0.46086985  1
  O  O95  1  0.75987995  0.87481867  0.96058401  1
loop_
_geom_bond_atom_site_label_1
_geom_bond_atom_site_label_2
_geom_bond_distance
_geom_bond_site_symmetry_2
Ca0 O53 2.336212 1_455
Ca0 O13 2.339165 1_455
Ca0 O76 2.364185 1_456
Ca0 O80 2.405260 1_556
Ca0 O41 2.583444 1_555
Ca0 O17 2.586932 1_555
Ca0 O0 2.617505 1_556
Ca0 O58 2.643391 1_546
Ca1 O79 2.334201 1_455
Ca1 O54 2.349182 1_455
Ca1 O14 2.349502 1_455
Ca1 O83 2.409345 1_555
Ca1 O42 2.547712 1_555
Ca1 O18 2.578563 1_555
Ca1 O57 2.640264 1_555
Ca1 O3 2.641638 1_555
Ca2 O78 2.327578 1_456
Ca2 O15 2.350980 1_455
Ca2 O55 2.353380 1_455
Ca2 O82 2.400357 1_556
Ca2 O43 2.583793 1_555
Ca2 O19 2.583943 1_555
Ca2 O56 2.605747 1_556
Ca2 O2 2.645769 1_556
Ca3 O73 2.321690 1_555
Ca3 O48 2.353861 1_555
Ca3 O8 2.365161 1_555
Ca3 O85 2.414489 1_555
Ca3 O20 2.579256 1_555
Ca3 O44 2.583977 1_555
Ca3 O5 2.630977 1_555
Ca3 O63 2.639076 1_545
Ca4 O72 2.334850 1_556
Ca4 O49 2.356318 1_555
Ca4 O9 2.363088 1_555
Ca4 O84 2.408561 1_556
Ca4 O45 2.566561 1_555
Ca4 O21 2.568754 1_555
Ca4 O4 2.638371 1_556
Ca4 O62 2.644126 1_546
Ca5 O75 2.326470 1_555
Ca5 O10 2.349530 1_555
Ca5 O50 2.361026 1_555
Ca5 O87 2.406703 1_555
Ca5 O46 2.572945 1_555
Ca5 O22 2.578826 1_555
Ca5 O61 2.631426 1_555
Ca5 O7 2.639045 1_555
Ca6 O74 2.336126 1_556
Ca6 O11 2.348085 1_555
Ca6 O51 2.357632 1_555
Ca6 O86 2.413081 1_556
Ca6 O23 2.578762 1_555
Ca6 O47 2.579213 1_555
Ca6 O60 2.632851 1_556
Ca6 O6 2.638539 1_556
Ca7 O5 2.344240 1_555
Ca7 O61 2.349268 1_555
Ca7 O68 2.357407 1_555
Ca7 O88 2.392180 1_555
Ca7 O25 2.589374 1_555
Ca7 O33 2.590528 1_555
Ca7 O8 2.606464 1_555
Ca7 O50 2.650055 1_555
Ca8 O71 2.325185 1_554
Ca8 O62 2.344047 1_555
Ca8 O6 2.344951 1_555
Ca8 O91 2.416330 1_554
Ca8 O34 2.557692 1_555
Ca8 O26 2.581006 1_555
Ca8 O49 2.633611 1_564
Ca8 O11 2.639231 1_554
Ca9 O70 2.333453 1_555
Ca9 O63 2.345994 1_555
Ca9 O7 2.350420 1_555
Ca9 O90 2.403436 1_555
Ca9 O35 2.579987 1_555
Ca9 O27 2.581655 1_555
Ca9 O48 2.602499 1_565
Ca9 O10 2.647210 1_555
Ca10 O65 2.323059 1_654
Ca10 O56 2.347609 1_655
Ca10 O0 2.382227 1_655
Ca10 O93 2.415806 1_554
Ca10 O36 2.575288 1_555
Ca10 O28 2.587736 1_555
Ca10 O13 2.631900 1_554
Ca10 O55 2.635101 1_554
Ca11 O64 2.338042 1_655
Ca11 O57 2.349400 1_655
Ca11 O1 2.362676 1_655
Ca11 O92 2.407058 1_555
Ca11 O37 2.569791 1_555
Ca11 O29 2.574361 1_555
Ca11 O54 2.639778 1_555
Ca11 O12 2.659926 1_555
Ca12 O67 2.324579 1_654
Ca12 O2 2.345018 1_655
Ca12 O58 2.380346 1_655
Ca12 O95 2.403176 1_554
Ca12 O30 2.573990 1_555
Ca12 O38 2.584222 1_555
Ca12 O53 2.630666 1_564
Ca12 O15 2.633799 1_554
Ca13 O66 2.345465 1_655
Ca13 O3 2.345768 1_655
Ca13 O59 2.359551 1_655
Ca13 O94 2.409702 1_555
Ca13 O31 2.575878 1_555
Ca13 O39 2.579007 1_555
Ca13 O14 2.634035 1_555
Ca13 O52 2.649886 1_565
Ca14 O33 2.346451 1_555
Ca14 O25 2.348869 1_555
Ca14 O89 2.350139 1_555
Ca14 O65 2.412953 1_555
Ca14 O1 2.543993 1_555
Ca14 O57 2.566914 1_555
Ca14 O43 2.641861 1_555
Ca14 O17 2.659696 1_555
Ca15 O90 2.327487 1_555
Ca15 O26 2.342779 1_555
Ca15 O34 2.370476 1_555
Ca15 O66 2.413336 1_555
Ca15 O2 2.573684 1_555
Ca15 O58 2.591336 1_555
Ca15 O40 2.591338 1_565
Ca15 O18 2.629372 1_555
Ca16 O91 2.337662 1_555
Ca16 O27 2.341401 1_555
Ca16 O35 2.344968 1_555
Ca16 O67 2.411953 1_555
Ca16 O59 2.547965 1_555
Ca16 O3 2.571872 1_555
Ca16 O19 2.636464 1_555
Ca16 O41 2.654106 1_565
Ca17 O92 2.324286 1_555
Ca17 O36 2.352123 1_555
Ca17 O28 2.359776 1_555
Ca17 O68 2.418272 1_555
Ca17 O4 2.570078 1_555
Ca17 O60 2.573401 1_555
Ca17 O20 2.645622 1_555
Ca17 O46 2.648016 1_555
Ca18 O93 2.341633 1_555
Ca18 O37 2.350975 1_555
Ca18 O29 2.356839 1_555
Ca18 O69 2.389822 1_555
Ca18 O5 2.580290 1_555
Ca18 O61 2.588662 1_555
Ca18 O21 2.637468 1_555
Ca18 O47 2.649281 1_555
Ca19 O94 2.331445 1_555
Ca19 O30 2.349639 1_555
Ca19 O38 2.356731 1_555
Ca19 O70 2.401222 1_555
Ca19 O62 2.576149 1_555
Ca19 O6 2.578907 1_555
Ca19 O44 2.638020 1_565
Ca19 O22 2.641373 1_555
Ca20 O95 2.332858 1_555
Ca20 O31 2.353209 1_555
Ca20 O39 2.360442 1_555
Ca20 O71 2.405905 1_555
Ca20 O63 2.571585 1_555
Ca20 O7 2.580217 1_555
Ca20 O45 2.636515 1_565
Ca20 O23 2.648261 1_555
Ca21 O81 2.331150 1_555
Ca21 O17 2.367322 1_555
Ca21 O41 2.369402 1_555
Ca21 O73 2.403177 1_555
Ca21 O9 2.555795 1_555
Ca21 O49 2.583837 1_555
Ca21 O25 2.629814 1_555
Ca21 O35 2.637136 1_545
Ca22 O82 2.332958 1_555
Ca22 O18 2.348760 1_555
Ca22 O42 2.358366 1_555
Ca22 O74 2.409265 1_555
Ca22 O10 2.577856 1_555
Ca22 O50 2.583332 1_555
Ca22 O32 2.596447 1_555
Ca22 O26 2.640642 1_555
Ca23 O83 2.329440 1_555
Ca23 O19 2.350749 1_555
Ca23 O43 2.350796 1_555
Ca23 O75 2.408958 1_555
Ca23 O51 2.543396 1_555
Ca23 O11 2.575005 1_555
Ca23 O33 2.630261 1_555
Ca23 O27 2.638461 1_555
Ca24 O84 2.321489 1_555
Ca24 O44 2.341339 1_555
Ca24 O20 2.343277 1_555
Ca24 O76 2.437265 1_555
Ca24 O12 2.557952 1_555
Ca24 O52 2.565518 1_555
Ca24 O38 2.644284 1_545
Ca24 O28 2.644326 1_555
Ca25 O85 2.333778 1_555
Ca25 O45 2.343826 1_555
Ca25 O21 2.354359 1_555
Ca25 O77 2.393562 1_555
Ca25 O13 2.593973 1_555
Ca25 O53 2.595385 1_555
Ca25 O29 2.647521 1_555
Ca25 O39 2.647679 1_545
Ca26 O86 2.331421 1_555
Ca26 O22 2.349997 1_555
Ca26 O46 2.352148 1_555
Ca26 O78 2.404689 1_555
Ca26 O54 2.576737 1_555
Ca26 O14 2.582099 1_555
Ca26 O36 2.643827 1_555
Ca26 O30 2.644964 1_555
Ca27 O87 2.330046 1_555
Ca27 O23 2.349201 1_555
Ca27 O47 2.361591 1_555
Ca27 O79 2.407440 1_555
Ca27 O55 2.578449 1_555
Ca27 O15 2.581226 1_555
Ca27 O37 2.642269 1_555
Ca27 O31 2.644078 1_555
Mn0 O67 1.939409 1_555
Mn0 O77 1.941466 1_465
Mn0 O41 1.946939 1_565
Mn0 O39 1.955433 1_455
Mn0 O53 1.958357 1_465
Mn0 O59 1.963263 1_555
Mn1 O78 1.940269 1_555
Mn1 O64 1.942841 1_655
Mn1 O36 1.948437 1_555
Mn1 O54 1.958666 1_555
Mn1 O42 1.962731 1_655
Mn1 O56 1.966468 1_655
Mn2 O79 1.944652 1_555
Mn2 O43 1.950217 1_655
Mn2 O65 1.950596 1_655
Mn2 O37 1.953343 1_555
Mn2 O57 1.954812 1_655
Mn2 O55 1.959306 1_555
Mn3 O70 1.940680 1_555
Mn3 O72 1.944578 1_565
Mn3 O44 1.946746 1_565
Mn3 O48 1.958815 1_565
Mn3 O62 1.960408 1_555
Mn3 O34 1.965955 1_555
Mn4 O73 1.945398 1_555
Mn4 O71 1.948989 1_545
Mn4 O49 1.949553 1_555
Mn4 O35 1.954011 1_545
Mn4 O45 1.955212 1_555
Mn4 O63 1.962077 1_545
Mn5 O46 1.939937 1_555
Mn5 O74 1.940047 1_555
Mn5 O60 1.945367 1_555
Mn5 O32 1.959396 1_555
Mn5 O68 1.959437 1_555
Mn5 O50 1.960638 1_555
Mn6 O75 1.939055 1_555
Mn6 O69 1.940600 1_555
Mn6 O33 1.943970 1_555
Mn6 O61 1.955803 1_555
Mn6 O47 1.960852 1_555
Mn6 O51 1.964147 1_555
Mn7 O90 1.943051 1_555
Mn7 O40 1.947763 1_565
Mn7 O35 1.953509 1_555
Mn7 O81 1.956035 1_565
Mn7 O59 1.960273 1_555
Mn7 O48 1.963182 1_565
Mn8 O82 1.939424 1_556
Mn8 O43 1.950329 1_555
Mn8 O32 1.957105 1_556
Mn8 O51 1.957686 1_555
Mn8 O56 1.964529 1_556
Mn8 O89 1.966537 1_555
Mn9 O83 1.935878 1_555
Mn9 O88 1.936119 1_555
Mn9 O33 1.950925 1_555
Mn9 O57 1.953664 1_555
Mn9 O50 1.960489 1_555
Mn9 O42 1.967054 1_555
Mn10 O95 1.942940 1_555
Mn10 O84 1.947121 1_566
Mn10 O38 1.947235 1_556
Mn10 O53 1.951148 1_565
Mn10 O62 1.953256 1_556
Mn10 O45 1.954457 1_565
Mn11 O63 1.942962 1_555
Mn11 O52 1.943459 1_565
Mn11 O94 1.945236 1_555
Mn11 O44 1.953519 1_565
Mn11 O85 1.955204 1_565
Mn11 O39 1.968534 1_555
Mn12 O86 1.942062 1_555
Mn12 O60 1.943688 1_555
Mn12 O55 1.945105 1_554
Mn12 O36 1.951947 1_555
Mn12 O93 1.955969 1_554
Mn12 O47 1.966642 1_554
Mn13 O92 1.943773 1_555
Mn13 O87 1.944696 1_555
Mn13 O61 1.945716 1_555
Mn13 O54 1.952602 1_555
Mn13 O46 1.955824 1_555
Mn13 O37 1.959279 1_555
Mn14 O88 1.937659 1_555
Mn14 O25 1.944545 1_555
Mn14 O81 1.947342 1_555
Mn14 O1 1.955893 1_555
Mn14 O16 1.957061 1_555
Mn14 O8 1.969515 1_555
Mn15 O82 1.938252 1_556
Mn15 O91 1.950170 1_555
Mn15 O11 1.954910 1_555
Mn15 O2 1.957838 1_556
Mn15 O19 1.959542 1_555
Mn15 O26 1.961814 1_556
Mn16 O90 1.939542 1_555
Mn16 O83 1.944594 1_555
Mn16 O10 1.954106 1_555
Mn16 O3 1.957643 1_555
Mn16 O18 1.959446 1_555
Mn16 O27 1.960360 1_555
Mn17 O28 1.938594 1_555
Mn17 O4 1.939234 1_555
Mn17 O13 1.940992 1_554
Mn17 O84 1.947343 1_555
Mn17 O93 1.955330 1_554
Mn17 O21 1.960531 1_554
Mn18 O5 1.933984 1_555
Mn18 O12 1.939393 1_555
Mn18 O92 1.948321 1_555
Mn18 O20 1.949259 1_555
Mn18 O85 1.954540 1_555
Mn18 O29 1.966230 1_555
Mn19 O86 1.941196 1_556
Mn19 O95 1.944074 1_555
Mn19 O15 1.954933 1_555
Mn19 O6 1.956660 1_556
Mn19 O23 1.959976 1_555
Mn19 O30 1.961814 1_556
Mn20 O94 1.941565 1_555
Mn20 O87 1.945391 1_555
Mn20 O7 1.953774 1_555
Mn20 O14 1.956680 1_555
Mn20 O31 1.961280 1_555
Mn20 O22 1.961285 1_555
Mn21 O77 1.940238 1_555
Mn21 O65 1.940905 1_655
Mn21 O17 1.944131 1_655
Mn21 O29 1.953475 1_555
Mn21 O13 1.957129 1_555
Mn21 O1 1.957596 1_655
Mn22 O66 1.938174 1_655
Mn22 O78 1.939855 1_555
Mn22 O30 1.955266 1_555
Mn22 O18 1.957241 1_655
Mn22 O14 1.960592 1_555
Mn22 O2 1.964874 1_655
Mn23 O79 1.946014 1_555
Mn23 O67 1.949097 1_655
Mn23 O19 1.953231 1_655
Mn23 O31 1.954503 1_555
Mn23 O15 1.960307 1_555
Mn23 O3 1.961221 1_655
Mn24 O20 1.934397 1_555
Mn24 O4 1.944693 1_555
Mn24 O72 1.946204 1_555
Mn24 O8 1.957903 1_555
Mn24 O68 1.960271 1_555
Mn24 O24 1.966487 1_555
Mn25 O73 1.937853 1_555
Mn25 O25 1.944218 1_555
Mn25 O69 1.946632 1_555
Mn25 O9 1.948009 1_555
Mn25 O5 1.958268 1_555
Mn25 O21 1.960628 1_555
Mn26 O74 1.935622 1_555
Mn26 O70 1.941074 1_555
Mn26 O22 1.951840 1_555
Mn26 O26 1.959907 1_555
Mn26 O6 1.961519 1_555
Mn26 O10 1.961758 1_555
Mn27 O71 1.944643 1_555
Mn27 O75 1.946949 1_555
Mn27 O27 1.954642 1_555
Mn27 O23 1.955263 1_555
Mn27 O11 1.960688 1_555
Mn27 O7 1.960802 1_555
Cr0 O66 1.928331 1_655
Cr0 O38 1.937138 1_555
Cr0 O52 1.944962 1_565
Cr0 O58 1.947225 1_655
Cr0 O76 1.959145 1_565
Cr0 O40 1.975688 1_665
Cr1 O91 1.922795 1_555
Cr1 O80 1.942483 1_566
Cr1 O41 1.942607 1_565
Cr1 O49 1.956260 1_565
Cr1 O34 1.964601 1_556
Cr1 O58 1.967901 1_556
Cr2 O17 1.931229 1_555
Cr2 O80 1.934799 1_556
Cr2 O89 1.935594 1_555
Cr2 O24 1.962059 1_556
Cr2 O9 1.965189 1_555
Cr2 O0 1.977814 1_556
Cr3 O28 1.927556 1_555
Cr3 O64 1.936046 1_655
Cr3 O12 1.942885 1_555
Cr3 O0 1.943852 1_655
Cr3 O76 1.967072 1_555
Cr3 O16 1.978227 1_655
O0 Sr2 2.647644 1_555
O1 Sr0 2.686077 1_555
O4 Sr1 2.414577 1_555
O8 Sr3 2.647315 1_555
O9 Sr1 2.675993 1_556
O12 Sr0 2.423376 1_655
O16 Sr3 2.432722 1_555
O16 Sr0 2.622036 1_555
O16 Sr2 2.632859 1_555
O24 Sr2 2.438670 1_555
O24 Sr1 2.613569 1_555
O24 Sr3 2.643516 1_555
O32 Sr2 2.413878 1_555
O32 Sr1 2.640395 1_555
O34 Sr3 2.676174 1_565
O40 Sr3 2.421090 1_555
O40 Sr0 2.647839 1_555
O42 Sr2 2.671475 1_555
O48 Sr3 2.641352 1_555
O51 Sr1 2.682820 1_556
O52 Sr0 2.423062 1_655
O56 Sr2 2.641160 1_555
O59 Sr0 2.685660 1_565
O60 Sr1 2.415024 1_555
O64 Sr2 2.514064 1_555
O69 Sr1 2.395176 1_556
O72 Sr3 2.517071 1_555
O77 Sr0 2.399384 1_655
O80 Sr3 2.427759 1_555
O81 Sr0 2.524999 1_555
O88 Sr2 2.404311 1_555
O89 Sr1 2.518793 1_556
