# generated using pymatgen
data_ZnCuHg4As7S12
_symmetry_space_group_name_H-M   'P 1'
_cell_length_a   9.33204600
_cell_length_b   9.55941460
_cell_length_c   23.72126539
_cell_angle_alpha   99.41288382
_cell_angle_beta   94.76045964
_cell_angle_gamma   107.87526524
_symmetry_Int_Tables_number   1
_chemical_formula_structural   ZnCuHg4As7S12
_chemical_formula_sum   'Zn3 Cu3 Hg12 As21 S36'
_cell_volume   1966.78478020
_cell_formula_units_Z   3
loop_
 _symmetry_equiv_pos_site_id
 _symmetry_equiv_pos_as_xyz
  1  'x, y, z'
loop_
 _atom_site_type_symbol
 _atom_site_label
 _atom_site_symmetry_multiplicity
 _atom_site_fract_x
 _atom_site_fract_y
 _atom_site_fract_z
 _atom_site_occupancy
  Zn  Zn0  1  0.56327300  0.06527300  0.83304200  1
  Zn  Zn1  1  0.25195300  0.75056100  0.49997600  1
  Zn  Zn2  1  0.89676300  0.40848200  0.16224500  1
  Cu  Cu0  1  0.25260300  0.99219700  0.75914200  1
  Cu  Cu1  1  0.93564500  0.67381700  0.41701900  1
  Cu  Cu2  1  0.57647100  0.32688300  0.08160600  1
  Hg  Hg0  1  0.39816900  0.64458000  0.91380700  1
  Hg  Hg1  1  0.99963900  0.25102500  0.75429900  1
  Hg  Hg2  1  0.07842500  0.33677600  0.58736000  1
  Hg  Hg3  1  0.66843500  0.45712300  0.92358200  1
  Hg  Hg4  1  0.09124700  0.57322300  0.83249600  1
  Hg  Hg5  1  0.68966000  0.90977900  0.40720300  1
  Hg  Hg6  1  0.73999900  0.04380900  0.25280000  1
  Hg  Hg7  1  0.33761200  0.08407900  0.58888200  1
  Hg  Hg8  1  0.76814500  0.25385800  0.49853000  1
  Hg  Hg9  1  0.29189400  0.54028800  0.10016500  1
  Hg  Hg10  1  0.01061800  0.76354600  0.25093900  1
  Hg  Hg11  1  0.42093300  0.92389200  0.16395900  1
  As  As0  1  0.60820900  0.49891900  0.69305400  1
  As  As1  1  0.34297000  0.31509400  0.83305400  1
  As  As2  1  0.65882400  0.12482100  0.67136400  1
  As  As3  1  0.22809800  0.17312600  0.37933800  1
  As  As4  1  0.73569500  0.74275500  0.71601400  1
  As  As5  1  0.84777300  0.84329300  0.84626800  1
  As  As6  1  0.03115500  0.01475200  0.49247000  1
  As  As7  1  0.33804200  0.80530200  0.33542300  1
  As  As8  1  0.39546500  0.42828400  0.38542400  1
  As  As9  1  0.12605200  0.67111100  0.67077900  1
  As  As10  1  0.52058400  0.51586100  0.51523800  1
  As  As11  1  0.67582700  0.64926600  0.15712700  1
  As  As12  1  0.98953100  0.47982900  0.00440400  1
  As  As13  1  0.79087800  0.70422600  0.61630500  1
  As  As14  1  0.58338400  0.42386600  0.29736600  1
  As  As15  1  0.80258900  0.34574300  0.32863600  1
  As  As16  1  0.16197500  0.17321800  0.16906800  1
  As  As17  1  0.53536500  0.71480900  0.66124100  1
  As  As18  1  0.47283800  0.01184500  0.00925600  1
  As  As19  1  0.17744900  0.38432600  0.33450600  1
  As  As20  1  0.79798100  0.98651700  0.94949600  1
  S  S0  1  0.13501200  0.68077600  0.93194000  1
  S  S1  1  0.37485900  0.36192800  0.92618400  1
  S  S2  1  0.79727700  0.33517500  0.59869600  1
  S  S3  1  0.71902400  0.24130500  0.75095200  1
  S  S4  1  0.00783700  0.76414500  0.49596900  1
  S  S5  1  0.60286100  0.83405800  0.83154100  1
  S  S6  1  0.00293500  0.98191200  0.75974600  1
  S  S7  1  0.05003400  0.05633900  0.58591700  1
  S  S8  1  0.82222000  0.59620400  0.82430300  1
  S  S9  1  0.63804700  0.40074100  0.16591800  1
  S  S10  1  0.40970900  0.92157600  0.41129200  1
  S  S11  1  0.46339000  0.01510000  0.25988900  1
  S  S12  1  0.08346400  0.29590600  0.85503700  1
  S  S13  1  0.27806300  0.51146100  0.49624300  1
  S  S14  1  0.66471000  0.14319900  0.92241500  1
  S  S15  1  0.19069900  0.45264900  0.67071200  1
  S  S16  1  0.32118700  0.80669200  0.58790300  1
  S  S17  1  0.67407600  0.63009500  0.42525900  1
  S  S18  1  0.68986100  0.67260800  0.25466200  1
  S  S19  1  0.30753900  0.06212300  0.84736100  1
  S  S20  1  0.49847700  0.27790000  0.49505800  1
  S  S21  1  0.05666300  0.60211000  0.08050400  1
  S  S22  1  0.92659100  0.17445400  0.14824000  1
  S  S23  1  0.42339100  0.15979000  0.67988100  1
  S  S24  1  0.26011800  0.75738000  0.74126700  1
  S  S25  1  0.90146600  0.05153000  0.32100700  1
  S  S26  1  0.14491400  0.93678300  0.15065300  1
  S  S27  1  0.32151600  0.29734800  0.07903200  1
  S  S28  1  0.10572800  0.84706500  0.33890800  1
  S  S29  1  0.77255500  0.98569300  0.50458000  1
  S  S30  1  0.95001900  0.44186300  0.39733800  1
  S  S31  1  0.98304100  0.48156300  0.24665700  1
  S  S32  1  0.55949700  0.80703000  0.99887800  1
  S  S33  1  0.41835200  0.64205700  0.17822800  1
  S  S34  1  0.75797300  0.52552400  0.01224800  1
  S  S35  1  0.61472700  0.10176100  0.07270500  1
loop_
_geom_bond_atom_site_label_1
_geom_bond_atom_site_label_2
_geom_bond_distance
_geom_bond_site_symmetry_2
Cu0 S19 2.059831 1_565
Cu0 S24 2.239128 1_555
Cu0 S6 2.302986 1_555
Cu0 S23 2.925249 1_565
Cu1 S4 1.900353 1_655
Cu1 S30 2.237621 1_555
Cu1 S17 2.377153 1_555
Cu1 S28 2.928050 1_655
Cu2 S9 1.981651 1_555
Cu2 S35 2.266896 1_555
Cu2 S27 2.302639 1_555
Cu2 S34 2.948143 1_555
Hg0 S32 2.405387 1_555
Hg0 S0 2.642718 1_555
Hg0 S1 2.709893 1_555
Hg1 S12 2.377960 1_655
Hg1 S3 2.585787 1_555
Hg1 S6 2.606216 1_645
Hg2 S15 2.112206 1_555
Hg2 S7 2.605874 1_555
Hg2 S2 2.655197 1_455
Hg3 S34 2.114835 1_556
Hg3 S1 2.617943 1_555
Hg4 S0 2.361666 1_555
Hg4 S8 2.580808 1_455
Hg4 S12 2.769624 1_555
Hg5 S29 2.295909 1_555
Hg5 S10 2.658328 1_555
Hg5 S17 2.738436 1_555
Hg6 S25 2.093261 1_555
Hg6 S11 2.533594 1_555
Hg7 S23 2.161185 1_555
Hg7 S16 2.604818 1_545
Hg7 S7 2.608286 1_555
Hg8 S2 2.341527 1_555
Hg8 S20 2.592199 1_555
Hg8 S29 2.603449 1_545
Hg9 S33 2.027642 1_555
Hg9 S27 2.399457 1_555
Hg9 S21 2.470274 1_555
Hg10 S28 2.119502 1_555
Hg10 S31 2.612088 1_455
Hg10 S18 2.862696 1_455
Hg11 S11 2.254939 1_565
Hg11 S26 2.611955 1_555
Hg11 S33 2.762887 1_555
As0 As4 2.218122 1_555
As0 As17 2.564432 1_555
As1 S1 2.157538 1_555
As1 S19 2.422536 1_555
As1 S12 2.477601 1_555
As2 S3 1.967765 1_555
As2 S23 2.341397 1_555
As2 S2 2.931359 1_555
As3 As8 2.432792 1_555
As3 S28 2.931648 1_545
As3 S25 3.025835 1_455
As4 S6 2.795905 1_655
As5 S5 2.255439 1_555
As5 S8 2.266838 1_555
As5 S6 2.875749 1_655
As6 S7 2.169491 1_555
As6 S4 2.354023 1_545
As6 S29 2.390225 1_445
As7 S10 1.900328 1_555
As7 S28 2.327354 1_555
As8 S17 2.700268 1_555
As9 S24 1.899875 1_555
As9 S15 2.344729 1_555
As10 S20 2.187604 1_555
As10 S13 2.256778 1_555
As10 S17 2.847732 1_555
As11 S18 2.276584 1_555
As11 S9 2.339241 1_555
As11 S33 2.477467 1_555
As12 S21 1.920963 1_655
As12 S34 2.348314 1_555
As12 S0 2.890387 1_654
As13 As4 2.455359 1_555
As13 As17 2.714183 1_555
As14 As15 2.481880 1_555
As14 S18 2.678069 1_555
As14 As8 2.839902 1_555
As15 S30 1.937798 1_555
As16 S26 2.183846 1_545
As16 S22 2.215189 1_455
As16 S27 2.908335 1_555
As17 As4 2.105042 1_555
As17 S16 2.965339 1_555
As18 S35 1.817899 1_555
As18 S32 2.322807 1_544
As19 As8 2.162419 1_555
As19 As3 2.575893 1_555
As19 S30 2.828787 1_455
As20 S14 2.351270 1_565
As20 S32 2.831098 1_555
S3 Zn0 2.962481 1_555
S4 Zn1 2.316321 1_555
S5 Zn0 2.345380 1_565
S9 Zn2 2.401978 1_555
S13 Zn1 2.360234 1_555
S14 Zn0 2.159399 1_555
S16 Zn1 2.062303 1_555
S19 Zn0 2.430132 1_555
S22 Zn2 2.312426 1_555
S31 Zn2 2.018738 1_555
