# generated using pymatgen
data_Co3(AsO4)4
_symmetry_space_group_name_H-M   'P 1'
_cell_length_a   5.02790500
_cell_length_b   9.00712900
_cell_length_c   15.15061784
_cell_angle_alpha   68.84248182
_cell_angle_beta   90.00000000
_cell_angle_gamma   90.00000000
_symmetry_Int_Tables_number   1
_chemical_formula_structural   Co3(AsO4)4
_chemical_formula_sum   'Co6 As8 O32'
_cell_volume   639.87526424
_cell_formula_units_Z   2
loop_
 _symmetry_equiv_pos_site_id
 _symmetry_equiv_pos_as_xyz
  1  'x, y, z'
loop_
 _atom_site_type_symbol
 _atom_site_label
 _atom_site_symmetry_multiplicity
 _atom_site_fract_x
 _atom_site_fract_y
 _atom_site_fract_z
 _atom_site_occupancy
  Co  Co0  1  0.48162200  0.20826900  0.62917300  1
  Co  Co1  1  0.51837800  0.79173100  0.37082700  1
  Co  Co2  1  0.98162200  0.79173100  0.87082700  1
  Co  Co3  1  0.01837800  0.20826900  0.12917300  1
  Co  Co4  1  0.00000000  0.50000000  0.50000000  1
  Co  Co5  1  0.50000000  0.50000000  0.00000000  1
  As  As0  1  0.01255800  0.03222400  0.35550500  1
  As  As1  1  0.47441500  0.42416400  0.39747600  1
  As  As2  1  0.97441500  0.57583600  0.10252400  1
  As  As3  1  0.02558500  0.42416400  0.89747600  1
  As  As4  1  0.98744200  0.96777600  0.64449500  1
  As  As5  1  0.52558500  0.57583600  0.60252400  1
  As  As6  1  0.48744200  0.03222400  0.85550500  1
  As  As7  1  0.51255800  0.96777600  0.14449500  1
  O  O0  1  0.45416800  0.80411600  0.24791800  1
  O  O1  1  0.83039800  0.70872700  0.99712300  1
  O  O2  1  0.41142200  0.37441600  0.30487800  1
  O  O3  1  0.35794600  0.12545700  0.16392900  1
  O  O4  1  0.58857800  0.62558400  0.69512200  1
  O  O5  1  0.04583200  0.80411600  0.74791800  1
  O  O6  1  0.91142200  0.62558400  0.19512200  1
  O  O7  1  0.69104500  0.47037900  0.90544300  1
  O  O8  1  0.59828700  0.09687700  0.94171300  1
  O  O9  1  0.54583200  0.19588400  0.75208200  1
  O  O10  1  0.14205400  0.12545700  0.66392900  1
  O  O11  1  0.30895500  0.52962100  0.09455700  1
  O  O12  1  0.30664900  0.59518900  0.40703300  1
  O  O13  1  0.40171300  0.90312300  0.05828700  1
  O  O14  1  0.66007300  0.03412400  0.62422000  1
  O  O15  1  0.16007300  0.96587600  0.87578000  1
  O  O16  1  0.80664900  0.40481100  0.09296700  1
  O  O17  1  0.08857800  0.37441600  0.80487800  1
  O  O18  1  0.09828700  0.90312300  0.55828700  1
  O  O19  1  0.19104500  0.52962100  0.59455700  1
  O  O20  1  0.83992700  0.03412400  0.12422000  1
  O  O21  1  0.33992700  0.96587600  0.37578000  1
  O  O22  1  0.16960200  0.29127300  0.00287700  1
  O  O23  1  0.33039800  0.29127300  0.50287700  1
  O  O24  1  0.69335100  0.40481100  0.59296700  1
  O  O25  1  0.95416800  0.19588400  0.25208200  1
  O  O26  1  0.64205400  0.87454300  0.83607100  1
  O  O27  1  0.90171300  0.09687700  0.44171300  1
  O  O28  1  0.66960200  0.70872700  0.49712300  1
  O  O29  1  0.80895500  0.47037900  0.40544300  1
  O  O30  1  0.19335100  0.59518900  0.90703300  1
  O  O31  1  0.85794600  0.87454300  0.33607100  1
loop_
_geom_bond_atom_site_label_1
_geom_bond_atom_site_label_2
_geom_bond_distance
_geom_bond_site_symmetry_2
Co0 O14 1.831930 1_555
Co0 O9 1.853189 1_555
Co0 O10 1.861463 1_555
Co0 O23 1.940549 1_555
Co0 O24 1.966488 1_555
Co1 O21 1.831930 1_555
Co1 O0 1.853189 1_555
Co1 O31 1.861463 1_555
Co1 O28 1.940549 1_555
Co1 O12 1.966488 1_555
Co2 O15 1.831930 1_655
Co2 O5 1.853189 1_655
Co2 O26 1.861463 1_555
Co2 O1 1.940549 1_555
Co2 O30 1.966488 1_655
Co3 O20 1.831930 1_455
Co3 O25 1.853189 1_455
Co3 O3 1.861463 1_555
Co3 O22 1.940549 1_555
Co3 O16 1.966488 1_455
Co4 O19 1.822661 1_555
Co4 O29 1.822661 1_455
Co4 O12 2.055335 1_555
Co4 O24 2.055335 1_455
Co4 O23 2.497374 1_555
Co4 O28 2.497374 1_455
Co5 O11 1.822661 1_555
Co5 O7 1.822661 1_554
Co5 O16 2.055335 1_555
Co5 O30 2.055335 1_554
Co5 O1 2.497374 1_554
Co5 O22 2.497374 1_555
As0 O27 1.704311 1_455
As0 O31 1.734932 1_445
As0 O21 1.740180 1_545
As0 O25 1.745580 1_455
As1 O2 1.650169 1_555
As1 O29 1.747386 1_555
As1 O23 1.768423 1_555
As1 O12 1.807334 1_555
As2 O6 1.650169 1_555
As2 O11 1.747386 1_655
As2 O1 1.768423 1_554
As2 O16 1.807334 1_555
As3 O17 1.650169 1_555
As3 O7 1.747386 1_455
As3 O22 1.768423 1_556
As3 O30 1.807334 1_555
As4 O18 1.704311 1_655
As4 O10 1.734932 1_665
As4 O14 1.740180 1_565
As4 O5 1.745580 1_655
As5 O4 1.650169 1_555
As5 O19 1.747386 1_555
As5 O28 1.768423 1_555
As5 O24 1.807334 1_555
As6 O8 1.704311 1_555
As6 O26 1.734932 1_545
As6 O15 1.740180 1_545
As6 O9 1.745580 1_555
As7 O13 1.704311 1_555
As7 O3 1.734932 1_565
As7 O20 1.740180 1_565
As7 O0 1.745580 1_555
