# generated using pymatgen
data_Ho2MgCu2
_symmetry_space_group_name_H-M   'P 1'
_cell_length_a   7.55804828
_cell_length_b   7.55804828
_cell_length_c   3.65744612
_cell_angle_alpha   90.00000000
_cell_angle_beta   90.00000000
_cell_angle_gamma   90.00000000
_symmetry_Int_Tables_number   1
_chemical_formula_structural   Ho2MgCu2
_chemical_formula_sum   'Ho4 Mg2 Cu4'
_cell_volume   208.92829524
_cell_formula_units_Z   2
loop_
 _symmetry_equiv_pos_site_id
 _symmetry_equiv_pos_as_xyz
  1  'x, y, z'
loop_
 _atom_site_type_symbol
 _atom_site_label
 _atom_site_symmetry_multiplicity
 _atom_site_fract_x
 _atom_site_fract_y
 _atom_site_fract_z
 _atom_site_occupancy
  Ho  Ho0  1  0.67001334  0.17001334  0.50000000  1
  Ho  Ho1  1  0.32998666  0.82998666  0.50000000  1
  Ho  Ho2  1  0.17001334  0.32998666  0.50000000  1
  Ho  Ho3  1  0.82998666  0.67001334  0.50000000  1
  Mg  Mg0  1  -0.00000000  -0.00000000  0.00000000  1
  Mg  Mg1  1  0.50000000  0.50000000  0.00000000  1
  Cu  Cu0  1  0.12271532  0.62271532  -0.00000000  1
  Cu  Cu1  1  0.87728468  0.37728468  0.00000000  1
  Cu  Cu2  1  0.62271532  0.87728468  -0.00000000  1
  Cu  Cu3  1  0.37728468  0.12271532  -0.00000000  1
loop_
_geom_bond_atom_site_label_1
_geom_bond_atom_site_label_2
_geom_bond_distance
_geom_bond_site_symmetry_2
Cu0 Cu1 2.623333 1_455
Cu0 Ho1 2.872715 1_555
Cu0 Ho1 2.872715 1_554
Cu0 Ho2 2.892575 1_554
Cu0 Ho2 2.892575 1_555
Cu0 Ho3 2.892575 1_455
Cu0 Ho3 2.892575 1_454
Cu0 Mg0 2.998582 1_565
Cu0 Mg1 2.998582 1_555
Cu1 Ho0 2.872715 1_555
Cu1 Ho0 2.872715 1_554
Cu1 Ho3 2.892575 1_555
Cu1 Ho3 2.892575 1_554
Cu1 Ho2 2.892575 1_655
Cu1 Ho2 2.892575 1_654
Cu1 Mg0 2.998582 1_655
Cu1 Mg1 2.998582 1_555
Cu2 Cu3 2.623333 1_565
Cu2 Ho3 2.872715 1_554
Cu2 Ho3 2.872715 1_555
Cu2 Ho1 2.892575 1_555
Cu2 Ho1 2.892575 1_554
Cu2 Ho0 2.892575 1_565
Cu2 Ho0 2.892575 1_564
Cu2 Mg0 2.998582 1_665
Cu2 Mg1 2.998582 1_555
Cu3 Ho2 2.872715 1_554
Cu3 Ho2 2.872715 1_555
Cu3 Ho0 2.892575 1_555
Cu3 Ho0 2.892575 1_554
Cu3 Ho1 2.892575 1_545
Cu3 Ho1 2.892575 1_544
Cu3 Mg1 2.998582 1_555
Cu3 Mg0 2.998582 1_555
