# generated using pymatgen
data_Ba2Ta15O32
_symmetry_space_group_name_H-M   'P 1'
_cell_length_a   7.86492300
_cell_length_b   7.86591026
_cell_length_c   12.81362553
_cell_angle_alpha   72.15550196
_cell_angle_beta   72.13939897
_cell_angle_gamma   60.03127636
_symmetry_Int_Tables_number   1
_chemical_formula_structural   Ba2Ta15O32
_chemical_formula_sum   'Ba2 Ta15 O32'
_cell_volume   642.24332403
_cell_formula_units_Z   1
loop_
 _symmetry_equiv_pos_site_id
 _symmetry_equiv_pos_as_xyz
  1  'x, y, z'
loop_
 _atom_site_type_symbol
 _atom_site_label
 _atom_site_symmetry_multiplicity
 _atom_site_fract_x
 _atom_site_fract_y
 _atom_site_fract_z
 _atom_site_occupancy
  Ba  Ba0  1  0.85064900  0.87429600  0.41806500  1
  Ba  Ba1  1  0.14253400  0.14970800  0.58193500  1
  Ta  Ta0  1  0.42560000  0.30607900  0.29690300  1
  Ta  Ta1  1  0.97062800  0.42746400  0.29765100  1
  Ta  Ta2  1  0.30446400  0.97077900  0.29796300  1
  Ta  Ta3  1  0.57328500  0.69519200  0.70251800  1
  Ta  Ta4  1  0.02858600  0.57502700  0.70236800  1
  Ta  Ta5  1  0.69596500  0.02959600  0.70259100  1
  Ta  Ta6  1  0.49975100  0.50057800  0.49999800  1
  Ta  Ta7  1  0.94447200  0.18306400  0.09723900  1
  Ta  Ta8  1  0.77524400  0.94440500  0.09729500  1
  Ta  Ta9  1  0.18283600  0.77550200  0.09730700  1
  Ta  Ta10  1  0.05575500  0.81702500  0.90273500  1
  Ta  Ta11  1  0.22479000  0.05558400  0.90271700  1
  Ta  Ta12  1  0.81711100  0.22474900  0.90271100  1
  Ta  Ta13  1  0.63878000  0.63873900  0.08417000  1
  Ta  Ta14  1  0.36150000  0.36124100  0.91583000  1
  O  O0  1  0.57182400  0.16655500  0.00063800  1
  O  O1  1  0.26098900  0.57185600  0.00058300  1
  O  O2  1  0.16655800  0.26105200  0.00061100  1
  O  O3  1  0.42819200  0.83335400  0.99943900  1
  O  O4  1  0.73896900  0.42817700  0.99941300  1
  O  O5  1  0.83352500  0.73899400  0.99931600  1
  O  O6  1  0.54292300  0.31612500  0.40470500  1
  O  O7  1  0.73518500  0.54297600  0.40474200  1
  O  O8  1  0.31722900  0.73516000  0.40462700  1
  O  O9  1  0.45728300  0.68280500  0.59528000  1
  O  O10  1  0.26424800  0.45646900  0.59542800  1
  O  O11  1  0.68287200  0.26453000  0.59521700  1
  O  O12  1  0.44082300  0.03209800  0.37943600  1
  O  O13  1  0.14808100  0.44081100  0.37948100  1
  O  O14  1  0.03159700  0.14848400  0.37931800  1
  O  O15  1  0.55905400  0.96863400  0.62059700  1
  O  O16  1  0.85188500  0.55942700  0.62064500  1
  O  O17  1  0.96799900  0.85223000  0.62050900  1
  O  O18  1  0.69732800  0.13645700  0.20575900  1
  O  O19  1  0.96050800  0.69738600  0.20562600  1
  O  O20  1  0.13632900  0.96076000  0.20571600  1
  O  O21  1  0.30282300  0.86364300  0.79432600  1
  O  O22  1  0.03948200  0.30276300  0.79417400  1
  O  O23  1  0.86353400  0.03958800  0.79439800  1
  O  O24  1  0.84124000  0.42801200  0.18772200  1
  O  O25  1  0.54292500  0.84123400  0.18774600  1
  O  O26  1  0.42808600  0.54344400  0.18754400  1
  O  O27  1  0.15888600  0.57194800  0.81236600  1
  O  O28  1  0.45692500  0.15880800  0.81232600  1
  O  O29  1  0.57192400  0.45688600  0.81229300  1
  O  O30  1  0.26224700  0.26230300  0.21340000  1
  O  O31  1  0.73757700  0.73800700  0.78659300  1
loop_
_geom_bond_atom_site_label_1
_geom_bond_atom_site_label_2
_geom_bond_distance
_geom_bond_site_symmetry_2
Ba0 O15 2.893847 1_555
Ba0 O17 2.940003 1_555
Ba0 O12 2.963118 1_565
Ba0 O14 2.983307 1_665
Ba0 O16 2.987246 1_555
Ba0 O18 3.032648 1_565
Ba0 O6 3.074311 1_565
Ba0 O20 3.091430 1_655
Ba0 O13 3.114161 1_655
Ba0 O19 3.125778 1_555
Ba0 O7 3.221482 1_555
Ba0 O8 3.226309 1_655
Ba1 O13 2.892167 1_555
Ba1 O12 2.942996 1_555
Ba1 O16 2.963456 1_455
Ba1 O15 2.984484 1_545
Ba1 O14 2.985827 1_555
Ba1 O22 3.030178 1_555
Ba1 O10 3.071397 1_555
Ba1 O21 3.094586 1_545
Ba1 O17 3.112541 1_445
Ba1 O23 3.125087 1_455
Ba1 O11 3.220111 1_455
Ba1 O9 3.230670 1_545
O0 Ta14 1.953028 1_554
O0 Ta8 2.059876 1_545
O0 Ta12 2.133323 1_554
O1 Ta14 1.953593 1_554
O1 Ta9 2.060489 1_555
O1 Ta10 2.132166 1_554
O2 Ta14 1.952614 1_554
O2 Ta7 2.058801 1_455
O2 Ta11 2.132107 1_554
O3 Ta13 1.953655 1_556
O3 Ta11 2.060456 1_565
O3 Ta9 2.132282 1_556
O4 Ta13 1.953770 1_556
O4 Ta12 2.058909 1_555
O4 Ta7 2.132889 1_556
O5 Ta13 1.951854 1_556
O5 Ta10 2.059754 1_655
O5 Ta8 2.132424 1_556
O6 Ta0 1.920251 1_555
O6 Ta6 2.012612 1_555
O7 Ta1 1.913653 1_555
O7 Ta6 2.002704 1_555
O8 Ta2 1.912813 1_555
O8 Ta6 2.001668 1_555
O9 Ta3 1.915701 1_555
O9 Ta6 2.000212 1_555
O10 Ta4 1.918625 1_555
O10 Ta6 2.009737 1_555
O11 Ta5 1.912358 1_555
O11 Ta6 2.007055 1_555
O12 Ta2 1.996201 1_545
O12 Ta0 2.049467 1_555
O13 Ta0 1.991587 1_555
O13 Ta1 2.042012 1_455
O14 Ta1 1.997419 1_455
O14 Ta2 2.042059 1_545
O15 Ta5 2.002962 1_565
O15 Ta3 2.046579 1_555
O16 Ta3 1.995257 1_555
O16 Ta4 2.045678 1_655
O17 Ta4 1.987089 1_655
O17 Ta5 2.041338 1_565
O18 Ta0 2.070431 1_555
O18 Ta8 2.104443 1_545
O18 Ta7 2.141906 1_555
O19 Ta1 2.063746 1_555
O19 Ta9 2.103230 1_655
O19 Ta8 2.141148 1_555
O20 Ta2 2.066890 1_555
O20 Ta7 2.104164 1_465
O20 Ta9 2.140873 1_555
O21 Ta3 2.066124 1_555
O21 Ta11 2.102779 1_565
O21 Ta10 2.141016 1_555
O22 Ta4 2.076566 1_555
O22 Ta12 2.103970 1_455
O22 Ta11 2.143332 1_555
O23 Ta5 2.058667 1_555
O23 Ta10 2.105039 1_645
O23 Ta12 2.139520 1_555
O24 Ta1 1.972528 1_555
O24 Ta13 2.086822 1_555
O24 Ta7 2.223638 1_555
O25 Ta2 1.974401 1_555
O25 Ta13 2.085418 1_555
O25 Ta8 2.224048 1_555
O26 Ta0 1.966269 1_555
O26 Ta13 2.085284 1_555
O26 Ta9 2.224052 1_555
O27 Ta4 1.969192 1_555
O27 Ta14 2.086761 1_555
O27 Ta10 2.223689 1_555
O28 Ta5 1.972301 1_555
O28 Ta14 2.085068 1_555
O28 Ta11 2.222962 1_555
O29 Ta3 1.971616 1_555
O29 Ta14 2.085766 1_555
O29 Ta12 2.225129 1_555
O30 Ta0 2.103573 1_555
O30 Ta1 2.116019 1_455
O30 Ta2 2.116573 1_545
O31 Ta4 2.109038 1_655
O31 Ta3 2.110601 1_555
O31 Ta5 2.116472 1_565
