# generated using pymatgen
data_Sm12InCo6
_symmetry_space_group_name_H-M   'P 1'
_cell_length_a   8.55603597
_cell_length_b   8.55603597
_cell_length_c   8.55603597
_cell_angle_alpha   109.47122063
_cell_angle_beta   109.47122063
_cell_angle_gamma   109.47122063
_symmetry_Int_Tables_number   1
_chemical_formula_structural   Sm12InCo6
_chemical_formula_sum   'Sm12 In1 Co6'
_cell_volume   482.16525774
_cell_formula_units_Z   1
loop_
 _symmetry_equiv_pos_site_id
 _symmetry_equiv_pos_as_xyz
  1  'x, y, z'
loop_
 _atom_site_type_symbol
 _atom_site_label
 _atom_site_symmetry_multiplicity
 _atom_site_fract_x
 _atom_site_fract_y
 _atom_site_fract_z
 _atom_site_occupancy
  Sm  Sm0  1  0.80782689  0.69610060  0.50392749  1
  Sm  Sm1  1  0.19217311  0.30389940  0.49607251  1
  Sm  Sm2  1  0.19217311  0.69610060  0.88827370  1
  Sm  Sm3  1  0.80782689  0.30389940  0.11172630  1
  Sm  Sm4  1  0.69610060  0.50392749  0.80782689  1
  Sm  Sm5  1  0.30389940  0.49607251  0.19217311  1
  Sm  Sm6  1  0.69610060  0.88827370  0.19217311  1
  Sm  Sm7  1  0.30389940  0.11172630  0.80782689  1
  Sm  Sm8  1  0.50392749  0.80782689  0.69610060  1
  Sm  Sm9  1  0.49607251  0.19217311  0.30389940  1
  Sm  Sm10  1  0.11172630  0.80782689  0.30389940  1
  Sm  Sm11  1  0.88827370  0.19217311  0.69610060  1
  In  In0  1  0.00000000  0.00000000  -0.00000000  1
  Co  Co0  1  0.88982294  0.38982294  0.50000000  1
  Co  Co1  1  0.11017706  0.61017706  0.50000000  1
  Co  Co2  1  0.38982294  0.50000000  0.88982294  1
  Co  Co3  1  0.61017706  0.50000000  0.11017706  1
  Co  Co4  1  0.50000000  0.88982294  0.38982294  1
  Co  Co5  1  0.50000000  0.11017706  0.61017706  1
loop_
_geom_bond_atom_site_label_1
_geom_bond_atom_site_label_2
_geom_bond_distance
_geom_bond_site_symmetry_2
In0 Sm0 3.552357 1_444
In0 Sm8 3.552357 1_444
In0 Sm4 3.552357 1_444
In0 Sm9 3.552357 1_555
In0 Sm5 3.552357 1_555
In0 Sm1 3.552357 1_555
In0 Sm3 3.552357 1_455
In0 Sm7 3.552357 1_554
In0 Sm10 3.552357 1_545
In0 Sm2 3.552357 1_544
In0 Sm6 3.552357 1_445
In0 Sm11 3.552357 1_454
Co0 Co1 2.177024 1_655
Co0 Sm9 2.750752 1_555
Co0 Sm11 2.750752 1_555
Co0 Sm3 2.922859 1_555
Co0 Sm2 2.922859 1_655
Co0 Sm1 2.922859 1_655
Co0 Sm0 2.922859 1_555
Co1 Sm8 2.750752 1_555
Co1 Sm10 2.750752 1_555
Co1 Sm2 2.922859 1_555
Co1 Sm3 2.922859 1_455
Co1 Sm0 2.922859 1_455
Co1 Sm1 2.922859 1_555
Co2 Co3 2.177024 1_556
Co2 Sm1 2.750752 1_555
Co2 Sm2 2.750752 1_555
Co2 Sm7 2.922859 1_555
Co2 Sm6 2.922859 1_556
Co2 Sm5 2.922859 1_556
Co2 Sm4 2.922859 1_555
Co3 Sm0 2.750752 1_555
Co3 Sm3 2.750752 1_555
Co3 Sm6 2.922859 1_555
Co3 Sm7 2.922859 1_554
Co3 Sm4 2.922859 1_554
Co3 Sm5 2.922859 1_555
Co4 Co5 2.177024 1_565
Co4 Sm5 2.750752 1_555
Co4 Sm6 2.750752 1_555
Co4 Sm10 2.922859 1_555
Co4 Sm11 2.922859 1_565
Co4 Sm9 2.922859 1_565
Co4 Sm8 2.922859 1_555
Co5 Sm4 2.750752 1_555
Co5 Sm7 2.750752 1_555
Co5 Sm11 2.922859 1_555
Co5 Sm10 2.922859 1_545
Co5 Sm8 2.922859 1_545
Co5 Sm9 2.922859 1_555
