# generated using pymatgen
data_Sr2Mg
_symmetry_space_group_name_H-M   'P 1'
_cell_length_a   20.63198455
_cell_length_b   20.63198455
_cell_length_c   12.38170200
_cell_angle_alpha   90.00000000
_cell_angle_beta   90.00000000
_cell_angle_gamma   156.69473761
_symmetry_Int_Tables_number   1
_chemical_formula_structural   Sr2Mg
_chemical_formula_sum   'Sr32 Mg16'
_cell_volume   2085.21775262
_cell_formula_units_Z   16
loop_
 _symmetry_equiv_pos_site_id
 _symmetry_equiv_pos_as_xyz
  1  'x, y, z'
loop_
 _atom_site_type_symbol
 _atom_site_label
 _atom_site_symmetry_multiplicity
 _atom_site_fract_x
 _atom_site_fract_y
 _atom_site_fract_z
 _atom_site_occupancy
  Sr  Sr0_0  1  0.00193600  0.49806400  0.00000000  1
  Sr  Sr0_1  1  0.00193600  0.49806400  0.50000000  1
  Sr  Sr0_2  1  0.00193600  0.99806400  0.00000000  1
  Sr  Sr0_3  1  0.00193600  0.99806400  0.50000000  1
  Sr  Sr0_4  1  0.50193600  0.49806400  0.00000000  1
  Sr  Sr0_5  1  0.50193600  0.49806400  0.50000000  1
  Sr  Sr0_6  1  0.50193600  0.99806400  0.00000000  1
  Sr  Sr0_7  1  0.50193600  0.99806400  0.50000000  1
  Sr  Sr1_0  1  0.16356900  0.33643100  0.00000000  1
  Sr  Sr1_1  1  0.16356900  0.33643100  0.50000000  1
  Sr  Sr1_2  1  0.16356900  0.83643100  0.00000000  1
  Sr  Sr1_3  1  0.16356900  0.83643100  0.50000000  1
  Sr  Sr1_4  1  0.66356900  0.33643100  0.00000000  1
  Sr  Sr1_5  1  0.66356900  0.33643100  0.50000000  1
  Sr  Sr1_6  1  0.66356900  0.83643100  0.00000000  1
  Sr  Sr1_7  1  0.66356900  0.83643100  0.50000000  1
  Sr  Sr2_0  1  0.33227750  0.16772250  0.00000000  1
  Sr  Sr2_1  1  0.33227750  0.16772250  0.50000000  1
  Sr  Sr2_2  1  0.33227750  0.66772250  0.00000000  1
  Sr  Sr2_3  1  0.33227750  0.66772250  0.50000000  1
  Sr  Sr2_4  1  0.83227750  0.16772250  0.00000000  1
  Sr  Sr2_5  1  0.83227750  0.16772250  0.50000000  1
  Sr  Sr2_6  1  0.83227750  0.66772250  0.00000000  1
  Sr  Sr2_7  1  0.83227750  0.66772250  0.50000000  1
  Sr  Sr3_0  1  0.22324550  0.27675450  0.25000000  1
  Sr  Sr3_1  1  0.22324550  0.27675450  0.75000000  1
  Sr  Sr3_2  1  0.22324550  0.77675450  0.25000000  1
  Sr  Sr3_3  1  0.22324550  0.77675450  0.75000000  1
  Sr  Sr3_4  1  0.72324550  0.27675450  0.25000000  1
  Sr  Sr3_5  1  0.72324550  0.27675450  0.75000000  1
  Sr  Sr3_6  1  0.72324550  0.77675450  0.25000000  1
  Sr  Sr3_7  1  0.72324550  0.77675450  0.75000000  1
  Mg  Mg0_0  1  0.05696200  0.44303800  0.25000000  1
  Mg  Mg0_1  1  0.05696200  0.44303800  0.75000000  1
  Mg  Mg0_2  1  0.05696200  0.94303800  0.25000000  1
  Mg  Mg0_3  1  0.05696200  0.94303800  0.75000000  1
  Mg  Mg0_4  1  0.55696200  0.44303800  0.25000000  1
  Mg  Mg0_5  1  0.55696200  0.44303800  0.75000000  1
  Mg  Mg0_6  1  0.55696200  0.94303800  0.25000000  1
  Mg  Mg0_7  1  0.55696200  0.94303800  0.75000000  1
  Mg  Mg1_0  1  0.38867650  0.11132350  0.25000000  1
  Mg  Mg1_1  1  0.38867650  0.11132350  0.75000000  1
  Mg  Mg1_2  1  0.38867650  0.61132350  0.25000000  1
  Mg  Mg1_3  1  0.38867650  0.61132350  0.75000000  1
  Mg  Mg1_4  1  0.88867650  0.11132350  0.25000000  1
  Mg  Mg1_5  1  0.88867650  0.11132350  0.75000000  1
  Mg  Mg1_6  1  0.88867650  0.61132350  0.25000000  1
  Mg  Mg1_7  1  0.88867650  0.61132350  0.75000000  1
loop_
_geom_bond_atom_site_label_1
_geom_bond_atom_site_label_2
_geom_bond_distance
_geom_bond_site_symmetry_2
Sr0_0 Sr2_4 3.857932 1_455
Sr0_0 Sr2_2 3.857932 1_555
Sr0_0 Sr3_4 3.907359 1_455
Sr0_0 Sr3_2 3.907359 1_555
Sr0_0 Sr3_5 3.907359 1_454
Sr0_0 Sr3_3 3.907359 1_554
Sr0_0 Sr1_4 4.134612 1_455
Sr0_0 Sr1_2 4.134612 1_555
Sr0_0 Sr0_6 4.167200 1_555
Sr0_0 Sr0_6 4.167200 1_445
Sr0_1 Sr2_5 3.857932 1_455
Sr0_1 Sr2_3 3.857932 1_555
Sr0_1 Sr3_5 3.907359 1_455
Sr0_1 Sr3_3 3.907359 1_555
Sr0_1 Sr3_4 3.907359 1_455
Sr0_1 Sr3_2 3.907359 1_555
Sr0_1 Sr1_5 4.134612 1_455
Sr0_1 Sr1_3 4.134612 1_555
Sr0_1 Sr0_7 4.167200 1_555
Sr0_1 Sr0_7 4.167200 1_445
Sr0_2 Sr2_0 3.857932 1_565
Sr0_2 Sr2_6 3.857932 1_455
Sr0_2 Sr3_0 3.907359 1_565
Sr0_2 Sr3_6 3.907359 1_455
Sr0_2 Sr3_1 3.907359 1_564
Sr0_2 Sr3_7 3.907359 1_454
Sr0_2 Sr1_0 4.134612 1_565
Sr0_2 Sr1_6 4.134612 1_455
Sr0_2 Sr0_4 4.167200 1_455
Sr0_2 Sr0_4 4.167200 1_565
Sr0_3 Sr2_1 3.857932 1_565
Sr0_3 Sr2_7 3.857932 1_455
Sr0_3 Sr3_1 3.907359 1_565
Sr0_3 Sr3_0 3.907359 1_565
Sr0_3 Sr3_7 3.907359 1_455
Sr0_3 Sr3_6 3.907359 1_455
Sr0_3 Sr1_1 4.134612 1_565
Sr0_3 Sr1_7 4.134612 1_455
Sr0_3 Sr0_5 4.167200 1_455
Sr0_3 Sr0_5 4.167200 1_565
Sr0_4 Sr2_6 3.857932 1_555
Sr0_4 Sr2_0 3.857932 1_555
Sr0_4 Sr3_6 3.907359 1_555
Sr0_4 Sr3_0 3.907359 1_555
Sr0_4 Sr3_7 3.907359 1_554
Sr0_4 Sr3_1 3.907359 1_554
Sr0_4 Sr1_0 4.134612 1_555
Sr0_4 Sr1_6 4.134612 1_555
Sr0_5 Sr2_7 3.857932 1_555
Sr0_5 Sr2_1 3.857932 1_555
Sr0_5 Sr3_7 3.907359 1_555
Sr0_5 Sr3_6 3.907359 1_555
Sr0_5 Sr3_0 3.907359 1_555
Sr0_5 Sr3_1 3.907359 1_555
Sr0_5 Sr1_1 4.134612 1_555
Sr0_5 Sr1_7 4.134612 1_555
Sr0_6 Sr2_2 3.857932 1_555
Sr0_6 Sr2_4 3.857932 1_565
Sr0_6 Sr3_2 3.907359 1_555
Sr0_6 Sr3_3 3.907359 1_554
Sr0_6 Sr3_4 3.907359 1_565
Sr0_6 Sr3_5 3.907359 1_564
Sr0_6 Sr1_2 4.134612 1_555
Sr0_6 Sr1_4 4.134612 1_565
Sr0_7 Sr2_3 3.857932 1_555
Sr0_7 Sr2_5 3.857932 1_565
Sr0_7 Sr3_3 3.907359 1_555
Sr0_7 Sr3_2 3.907359 1_555
Sr0_7 Sr3_5 3.907359 1_565
Sr0_7 Sr3_4 3.907359 1_565
Sr0_7 Sr1_3 4.134612 1_555
Sr0_7 Sr1_5 4.134612 1_565
Sr1_0 Sr2_2 3.890299 1_555
Sr1_0 Sr2_4 3.890299 1_455
Sr1_0 Sr3_0 3.924046 1_555
Sr1_0 Sr3_1 3.924046 1_554
Sr1_0 Sr1_6 4.167200 1_555
Sr1_0 Sr1_6 4.167200 1_445
Sr1_1 Sr2_3 3.890299 1_555
Sr1_1 Sr2_5 3.890299 1_455
Sr1_1 Sr3_1 3.924046 1_555
Sr1_1 Sr3_0 3.924046 1_555
Sr1_1 Sr1_7 4.167200 1_555
Sr1_1 Sr1_7 4.167200 1_445
Sr1_2 Sr2_0 3.890299 1_565
Sr1_2 Sr2_6 3.890299 1_455
Sr1_2 Sr3_2 3.924046 1_555
Sr1_2 Sr3_3 3.924046 1_554
Sr1_2 Sr1_4 4.167200 1_565
Sr1_2 Sr1_4 4.167200 1_455
Sr1_3 Sr2_1 3.890299 1_565
Sr1_3 Sr2_7 3.890299 1_455
Sr1_3 Sr3_3 3.924046 1_555
Sr1_3 Sr3_2 3.924046 1_555
Sr1_3 Sr1_5 4.167200 1_565
Sr1_3 Sr1_5 4.167200 1_455
Sr1_4 Sr2_6 3.890299 1_555
Sr1_4 Sr2_0 3.890299 1_555
Sr1_4 Sr3_4 3.924046 1_555
Sr1_4 Sr3_5 3.924046 1_554
Sr1_5 Sr2_7 3.890299 1_555
Sr1_5 Sr2_1 3.890299 1_555
Sr1_5 Sr3_5 3.924046 1_555
Sr1_5 Sr3_4 3.924046 1_555
Sr1_6 Sr2_2 3.890299 1_555
Sr1_6 Sr2_4 3.890299 1_565
Sr1_6 Sr3_6 3.924046 1_555
Sr1_6 Sr3_7 3.924046 1_554
Sr1_7 Sr2_3 3.890299 1_555
Sr1_7 Sr2_5 3.890299 1_565
Sr1_7 Sr3_7 3.924046 1_555
Sr1_7 Sr3_6 3.924046 1_555
Sr2_0 Sr2_6 4.167200 1_555
Sr2_0 Sr2_6 4.167200 1_445
Sr2_1 Sr2_7 4.167200 1_555
Sr2_1 Sr2_7 4.167200 1_445
Sr2_2 Sr2_4 4.167200 1_565
Sr2_2 Sr2_4 4.167200 1_455
Sr2_3 Sr2_5 4.167200 1_455
Sr2_3 Sr2_5 4.167200 1_565
Sr3_0 Sr3_6 4.167200 1_555
Sr3_0 Sr3_6 4.167200 1_445
Sr3_1 Sr3_7 4.167200 1_555
Sr3_1 Sr3_7 4.167200 1_445
Sr3_2 Sr3_4 4.167200 1_565
Sr3_2 Sr3_4 4.167200 1_455
Sr3_3 Sr3_5 4.167200 1_565
Sr3_3 Sr3_5 4.167200 1_455
Mg0_0 Sr0_0 3.811420 1_555
Mg0_0 Sr0_1 3.811420 1_555
Mg0_0 Sr2_5 3.869077 1_455
Mg0_0 Sr2_4 3.869077 1_455
Mg0_0 Sr2_3 3.869077 1_555
Mg0_0 Sr2_2 3.869077 1_555
Mg0_0 Sr3_2 3.973407 1_555
Mg0_0 Sr3_4 3.973407 1_455
Mg0_1 Sr0_1 3.811420 1_555
Mg0_1 Sr0_0 3.811420 1_556
Mg0_1 Sr2_5 3.869077 1_455
Mg0_1 Sr2_3 3.869077 1_555
Mg0_1 Sr2_4 3.869077 1_456
Mg0_1 Sr2_2 3.869077 1_556
Mg0_1 Sr3_3 3.973407 1_555
Mg0_1 Sr3_5 3.973407 1_455
Mg0_2 Sr0_2 3.811420 1_555
Mg0_2 Sr0_3 3.811420 1_555
Mg0_2 Sr2_0 3.869077 1_565
Mg0_2 Sr2_1 3.869077 1_565
Mg0_2 Sr2_6 3.869077 1_455
Mg0_2 Sr2_7 3.869077 1_455
Mg0_2 Sr3_0 3.973407 1_565
Mg0_2 Sr3_6 3.973407 1_455
Mg0_3 Sr0_3 3.811420 1_555
Mg0_3 Sr0_2 3.811420 1_556
Mg0_3 Sr2_1 3.869077 1_565
Mg0_3 Sr2_7 3.869077 1_455
Mg0_3 Sr2_0 3.869077 1_566
Mg0_3 Sr2_6 3.869077 1_456
Mg0_3 Sr3_1 3.973407 1_565
Mg0_3 Sr3_7 3.973407 1_455
Mg0_4 Sr0_4 3.811420 1_555
Mg0_4 Sr0_5 3.811420 1_555
Mg0_4 Sr2_6 3.869077 1_555
Mg0_4 Sr2_7 3.869077 1_555
Mg0_4 Sr2_1 3.869077 1_555
Mg0_4 Sr2_0 3.869077 1_555
Mg0_4 Sr3_0 3.973407 1_555
Mg0_4 Sr3_6 3.973407 1_555
Mg0_5 Sr0_5 3.811420 1_555
Mg0_5 Sr0_4 3.811420 1_556
Mg0_5 Sr2_1 3.869077 1_555
Mg0_5 Sr2_7 3.869077 1_555
Mg0_5 Sr2_6 3.869077 1_556
Mg0_5 Sr2_0 3.869077 1_556
Mg0_5 Sr3_1 3.973407 1_555
Mg0_5 Sr3_7 3.973407 1_555
Mg0_6 Sr0_7 3.811420 1_555
Mg0_6 Sr0_6 3.811420 1_555
Mg0_6 Sr2_3 3.869077 1_555
Mg0_6 Sr2_2 3.869077 1_555
Mg0_6 Sr2_4 3.869077 1_565
Mg0_6 Sr2_5 3.869077 1_565
Mg0_6 Sr3_2 3.973407 1_555
Mg0_6 Sr3_4 3.973407 1_565
Mg0_7 Sr0_7 3.811420 1_555
Mg0_7 Sr0_6 3.811420 1_556
Mg0_7 Sr2_3 3.869077 1_555
Mg0_7 Sr2_5 3.869077 1_565
Mg0_7 Sr2_2 3.869077 1_556
Mg0_7 Sr2_4 3.869077 1_566
Mg0_7 Sr3_3 3.973407 1_555
Mg0_7 Sr3_5 3.973407 1_565
Mg1_0 Sr2_0 3.844059 1_555
Mg1_0 Sr2_1 3.844059 1_555
Mg1_0 Sr1_2 3.864592 1_545
Mg1_0 Sr1_4 3.864592 1_555
Mg1_0 Sr1_5 3.864592 1_555
Mg1_0 Sr1_3 3.864592 1_545
Mg1_0 Sr3_2 4.002784 1_545
Mg1_0 Sr3_4 4.002784 1_555
Mg1_1 Sr2_1 3.844059 1_555
Mg1_1 Sr2_0 3.844059 1_556
Mg1_1 Sr1_5 3.864592 1_555
Mg1_1 Sr1_3 3.864592 1_545
Mg1_1 Sr1_2 3.864592 1_546
Mg1_1 Sr1_4 3.864592 1_556
Mg1_1 Sr3_3 4.002784 1_545
Mg1_1 Sr3_5 4.002784 1_555
Mg1_2 Sr2_2 3.844059 1_555
Mg1_2 Sr2_3 3.844059 1_555
Mg1_2 Sr1_6 3.864592 1_555
Mg1_2 Sr1_7 3.864592 1_555
Mg1_2 Sr1_1 3.864592 1_555
Mg1_2 Sr1_0 3.864592 1_555
Mg1_2 Sr3_6 4.002784 1_555
Mg1_2 Sr3_0 4.002784 1_555
Mg1_3 Sr2_3 3.844059 1_555
Mg1_3 Sr2_2 3.844059 1_556
Mg1_3 Sr1_7 3.864592 1_555
Mg1_3 Sr1_1 3.864592 1_555
Mg1_3 Sr1_6 3.864592 1_556
Mg1_3 Sr1_0 3.864592 1_556
Mg1_3 Sr3_1 4.002784 1_555
Mg1_3 Sr3_7 4.002784 1_555
Mg1_4 Sr2_4 3.844059 1_555
Mg1_4 Sr2_5 3.844059 1_555
Mg1_4 Sr1_7 3.864592 1_545
Mg1_4 Sr1_6 3.864592 1_545
Mg1_4 Sr1_0 3.864592 1_655
Mg1_4 Sr1_1 3.864592 1_655
Mg1_4 Sr3_6 4.002784 1_545
Mg1_4 Sr3_0 4.002784 1_655
Mg1_5 Sr2_5 3.844059 1_555
Mg1_5 Sr2_4 3.844059 1_556
Mg1_5 Sr1_7 3.864592 1_545
Mg1_5 Sr1_1 3.864592 1_655
Mg1_5 Sr1_6 3.864592 1_546
Mg1_5 Sr1_0 3.864592 1_656
Mg1_5 Sr3_1 4.002784 1_655
Mg1_5 Sr3_7 4.002784 1_545
Mg1_6 Sr2_6 3.844059 1_555
Mg1_6 Sr2_7 3.844059 1_555
Mg1_6 Sr1_5 3.864592 1_555
Mg1_6 Sr1_4 3.864592 1_555
Mg1_6 Sr1_3 3.864592 1_655
Mg1_6 Sr1_2 3.864592 1_655
Mg1_6 Sr3_4 4.002784 1_555
Mg1_6 Sr3_2 4.002784 1_655
Mg1_7 Sr2_7 3.844059 1_555
Mg1_7 Sr2_6 3.844059 1_556
Mg1_7 Sr1_5 3.864592 1_555
Mg1_7 Sr1_3 3.864592 1_655
Mg1_7 Sr1_4 3.864592 1_556
Mg1_7 Sr1_2 3.864592 1_656
Mg1_7 Sr3_5 4.002784 1_555
Mg1_7 Sr3_3 4.002784 1_655
