# generated using pymatgen
data_KMg6Nb
_symmetry_space_group_name_H-M   'P 1'
_cell_length_a   6.55707243
_cell_length_b   6.55707243
_cell_length_c   4.58053800
_cell_angle_alpha   90.00000000
_cell_angle_beta   90.00000000
_cell_angle_gamma   90.45706494
_symmetry_Int_Tables_number   1
_chemical_formula_structural   KMg6Nb
_chemical_formula_sum   'K1 Mg6 Nb1'
_cell_volume   196.93487598
_cell_formula_units_Z   1
loop_
 _symmetry_equiv_pos_site_id
 _symmetry_equiv_pos_as_xyz
  1  'x, y, z'
loop_
 _atom_site_type_symbol
 _atom_site_label
 _atom_site_symmetry_multiplicity
 _atom_site_fract_x
 _atom_site_fract_y
 _atom_site_fract_z
 _atom_site_occupancy
  K  K0  1  0.86992400  0.13007600  0.50000000  1
  Mg  Mg0  1  0.37056700  0.11881200  0.50000000  1
  Mg  Mg1  1  0.88118800  0.62943300  0.50000000  1
  Mg  Mg2  1  0.15749600  0.40453100  0.00000000  1
  Mg  Mg3  1  0.59546900  0.84250400  0.00000000  1
  Mg  Mg4  1  0.59542200  0.40457800  0.00000000  1
  Mg  Mg5  1  0.15386700  0.84613300  0.00000000  1
  Nb  Nb0  1  0.37607100  0.62392900  0.50000000  1
loop_
_geom_bond_atom_site_label_1
_geom_bond_atom_site_label_2
_geom_bond_distance
_geom_bond_site_symmetry_2
K0 Mg0 3.274564 1_555
K0 Mg1 3.274564 1_555
K0 Mg0 3.284172 1_655
K0 Mg1 3.284172 1_545
K0 Mg4 3.431692 1_556
K0 Mg4 3.431692 1_555
K0 Mg3 3.461998 1_546
K0 Mg3 3.461998 1_545
K0 Mg2 3.461998 1_655
K0 Mg2 3.461998 1_656
K0 Mg5 3.497641 1_646
K0 Mg5 3.497641 1_645
Mg0 Mg5 3.228105 1_545
Mg0 Mg5 3.228105 1_546
Mg0 Nb0 3.245472 1_545
Mg0 Mg3 3.277989 1_546
Mg0 Mg3 3.277989 1_545
Mg0 Mg2 3.278562 1_555
Mg0 Mg2 3.278562 1_556
Mg0 Mg4 3.299419 1_556
Mg0 Mg4 3.299419 1_555
Mg0 Nb0 3.311997 1_555
Mg1 Mg5 3.228105 1_655
Mg1 Mg5 3.228105 1_656
Mg1 Nb0 3.245472 1_655
Mg1 Mg2 3.277989 1_655
Mg1 Mg2 3.277989 1_656
Mg1 Mg3 3.278562 1_555
Mg1 Mg3 3.278562 1_556
Mg1 Mg4 3.299419 1_556
Mg1 Mg4 3.299419 1_555
Mg1 Nb0 3.311997 1_555
Mg2 Mg4 2.871510 1_555
Mg2 Mg5 2.895904 1_555
Mg2 Nb0 3.055508 1_554
Mg2 Nb0 3.055508 1_555
Mg3 Mg4 2.871510 1_555
Mg3 Mg5 2.895904 1_555
Mg3 Nb0 3.055508 1_555
Mg3 Nb0 3.055508 1_554
Mg4 Nb0 3.068510 1_555
Mg4 Nb0 3.068510 1_554
Mg5 Nb0 3.086251 1_555
Mg5 Nb0 3.086251 1_554
