# generated using pymatgen
data_Sm2Mn2Al2Fe13
_symmetry_space_group_name_H-M   'P 1'
_cell_length_a   6.43767605
_cell_length_b   6.43767605
_cell_length_c   6.42126764
_cell_angle_alpha   82.18301958
_cell_angle_beta   82.18301958
_cell_angle_gamma   82.26804994
_symmetry_Int_Tables_number   1
_chemical_formula_structural   Sm2Mn2Al2Fe13
_chemical_formula_sum   'Sm2 Mn2 Al2 Fe13'
_cell_volume   259.36618062
_cell_formula_units_Z   1
loop_
 _symmetry_equiv_pos_site_id
 _symmetry_equiv_pos_as_xyz
  1  'x, y, z'
loop_
 _atom_site_type_symbol
 _atom_site_label
 _atom_site_symmetry_multiplicity
 _atom_site_fract_x
 _atom_site_fract_y
 _atom_site_fract_z
 _atom_site_occupancy
  Sm  Sm0  1  0.34918000  0.34918000  0.35112800  1
  Sm  Sm1  1  0.65082000  0.65082000  0.64887200  1
  Mn  Mn0  1  0.00000000  0.50000000  0.00000000  1
  Mn  Mn1  1  0.50000000  0.00000000  0.00000000  1
  Al  Al0  1  0.10002600  0.10002600  0.10506700  1
  Al  Al1  1  0.89997400  0.89997400  0.89493300  1
  Fe  Fe0  1  0.65950200  0.65950200  0.15261200  1
  Fe  Fe1  1  0.66051300  0.15623500  0.65937000  1
  Fe  Fe2  1  0.15623500  0.66051300  0.65937000  1
  Fe  Fe3  1  0.34049800  0.34049800  0.84738800  1
  Fe  Fe4  1  0.33948700  0.84376500  0.34063000  1
  Fe  Fe5  1  0.84376500  0.33948700  0.34063000  1
  Fe  Fe6  1  0.70779700  0.29220300  0.00000000  1
  Fe  Fe7  1  0.29077000  0.99858900  0.71223000  1
  Fe  Fe8  1  0.00141100  0.70923000  0.28777000  1
  Fe  Fe9  1  0.70923000  0.00141100  0.28777000  1
  Fe  Fe10  1  0.99858900  0.29077000  0.71223000  1
  Fe  Fe11  1  0.29220300  0.70779700  0.00000000  1
  Fe  Fe12  1  0.00000000  0.00000000  0.50000000  1
loop_
_geom_bond_atom_site_label_1
_geom_bond_atom_site_label_2
_geom_bond_distance
_geom_bond_site_symmetry_2
Sm0 Sm1 3.772457 1_555
Mn0 Sm1 3.357874 1_454
Mn0 Sm0 3.357874 1_555
Mn1 Sm1 3.357874 1_544
Mn1 Sm0 3.357874 1_555
Al0 Fe12 2.546294 1_555
Al0 Al1 2.555308 1_444
Al0 Fe5 2.580160 1_455
Al0 Fe4 2.580160 1_545
Al0 Mn0 2.588325 1_555
Al0 Mn1 2.588325 1_555
Al0 Fe3 2.604267 1_554
Al0 Fe9 2.744638 1_455
Al0 Fe8 2.744638 1_545
Al0 Fe7 2.772560 1_544
Al0 Fe10 2.772560 1_454
Al0 Fe11 2.785209 1_545
Al0 Fe6 2.785209 1_455
Al0 Sm0 3.116561 1_555
Al1 Fe12 2.546294 1_665
Al1 Fe1 2.580160 1_565
Al1 Fe2 2.580160 1_655
Al1 Mn1 2.588325 1_566
Al1 Mn0 2.588325 1_656
Al1 Fe0 2.604267 1_556
Al1 Fe10 2.744638 1_565
Al1 Fe7 2.744638 1_655
Al1 Fe9 2.772560 1_566
Al1 Fe8 2.772560 1_656
Al1 Fe11 2.785209 1_656
Al1 Fe6 2.785209 1_566
Al1 Sm1 3.116561 1_555
Fe0 Mn1 2.429687 1_565
Fe0 Mn0 2.429687 1_655
Fe0 Fe5 2.482818 1_555
Fe0 Fe4 2.482818 1_555
Fe0 Fe8 2.546638 1_655
Fe0 Fe9 2.546638 1_565
Fe0 Fe6 2.645320 1_555
Fe0 Fe11 2.645320 1_555
Fe0 Sm0 3.048837 1_555
Fe0 Sm1 3.172496 1_555
Fe0 Sm1 3.250908 1_554
Fe1 Fe12 2.432168 1_655
Fe1 Mn1 2.435156 1_556
Fe1 Fe5 2.456296 1_555
Fe1 Fe3 2.482818 1_555
Fe1 Fe10 2.527899 1_555
Fe1 Fe6 2.533105 1_556
Fe1 Fe9 2.672962 1_555
Fe1 Fe7 2.673475 1_545
Fe1 Sm0 3.036121 1_555
Fe1 Sm1 3.167878 1_555
Fe1 Sm1 3.272679 1_545
Fe2 Mn0 2.435156 1_556
Fe2 Fe4 2.456296 1_555
Fe2 Fe3 2.482818 1_555
Fe2 Fe7 2.527899 1_555
Fe2 Fe8 2.672962 1_555
Fe2 Sm0 3.036121 1_555
Fe2 Sm1 3.167878 1_555
Fe2 Sm1 3.272679 1_455
Fe3 Mn0 2.429687 1_556
Fe3 Mn1 2.429687 1_556
Fe3 Fe7 2.546638 1_545
Fe3 Fe6 2.645320 1_556
Fe3 Sm1 3.048837 1_555
Fe3 Sm0 3.172496 1_555
Fe3 Sm0 3.250908 1_556
Fe4 Mn1 2.435156 1_565
Fe4 Fe8 2.527899 1_555
Fe4 Fe7 2.672962 1_555
Fe4 Fe9 2.673475 1_565
Fe4 Sm1 3.036121 1_555
Fe4 Sm0 3.167878 1_555
Fe4 Sm0 3.272679 1_565
Fe5 Mn0 2.435156 1_655
Fe5 Fe9 2.527899 1_555
Fe5 Fe6 2.533105 1_555
Fe5 Fe8 2.673475 1_655
Fe5 Sm1 3.036121 1_555
Fe5 Sm0 3.167878 1_555
Fe5 Sm0 3.272679 1_655
Fe6 Fe9 2.445020 1_555
Fe6 Mn0 2.450551 1_655
Fe6 Mn1 2.450551 1_555
Fe6 Sm0 3.021462 1_555
Fe6 Sm1 3.021462 1_554
Fe7 Mn1 2.431834 1_566
Fe7 Sm1 3.024130 1_555
Fe7 Sm0 3.029776 1_565
Fe8 Mn0 2.431834 1_555
Fe8 Fe9 2.474685 1_465
Fe8 Sm0 3.024130 1_555
Fe8 Sm1 3.029776 1_455
Fe9 Mn1 2.431834 1_555
Fe9 Sm0 3.024130 1_555
Fe9 Sm1 3.029776 1_545
Fe10 Mn0 2.431834 1_656
Fe10 Fe6 2.445020 1_556
Fe10 Fe12 2.459102 1_655
Fe10 Fe7 2.474685 1_645
Fe10 Fe3 2.546638 1_655
Fe10 Fe5 2.672962 1_555
Fe10 Fe2 2.673475 1_655
Fe10 Sm1 3.024130 1_555
Fe10 Sm0 3.029776 1_655
Fe11 Fe7 2.445020 1_554
Fe11 Fe8 2.445020 1_555
Fe11 Mn1 2.450551 1_565
Fe11 Mn0 2.450551 1_555
Fe11 Fe4 2.533105 1_555
Fe11 Fe2 2.533105 1_554
Fe11 Fe3 2.645320 1_554
Fe11 Sm0 3.021462 1_555
Fe11 Sm1 3.021462 1_554
Fe12 Fe2 2.432168 1_545
Fe12 Fe5 2.432168 1_455
Fe12 Fe4 2.432168 1_545
Fe12 Fe9 2.459102 1_455
Fe12 Fe8 2.459102 1_545
Fe12 Fe7 2.459102 1_545
Fe12 Sm1 3.348226 1_445
Fe12 Sm0 3.348226 1_555
