# generated using pymatgen
data_Te2MoWSe2
_symmetry_space_group_name_H-M   'P 1'
_cell_length_a   3.43620181
_cell_length_b   3.43620181
_cell_length_c   39.11748000
_cell_angle_alpha   90.00000000
_cell_angle_beta   90.00000000
_cell_angle_gamma   119.99999626
_symmetry_Int_Tables_number   1
_chemical_formula_structural   Te2MoWSe2
_chemical_formula_sum   'Te4 Mo2 W2 Se4'
_cell_volume   399.99894020
_cell_formula_units_Z   2
loop_
 _symmetry_equiv_pos_site_id
 _symmetry_equiv_pos_as_xyz
  1  'x, y, z'
loop_
 _atom_site_type_symbol
 _atom_site_label
 _atom_site_symmetry_multiplicity
 _atom_site_fract_x
 _atom_site_fract_y
 _atom_site_fract_z
 _atom_site_occupancy
  Te  Te0  1  0.33333300  0.66666700  0.04645100  1
  Te  Te1  1  0.33333300  0.66666700  0.42219200  1
  Te  Te2  1  0.33333300  0.66666700  0.14140200  1
  Te  Te3  1  0.33333300  0.66666700  0.51712500  1
  Mo  Mo0  1  0.00000000  0.00000000  0.09391700  1
  Mo  Mo1  1  0.00000000  0.00000000  0.46965500  1
  W  W0  1  0.33333300  0.66666700  0.28180100  1
  W  W1  1  0.33333300  0.66666700  0.65754400  1
  Se  Se0  1  0.00000000  0.00000000  0.32383300  1
  Se  Se1  1  0.00000000  0.00000000  0.69954900  1
  Se  Se2  1  0.00000000  0.00000000  0.23977300  1
  Se  Se3  1  0.00000000  0.00000000  0.61550600  1
loop_
_geom_bond_atom_site_label_1
_geom_bond_atom_site_label_2
_geom_bond_distance
_geom_bond_site_symmetry_2
Mo0 Te0 2.717230 1_545
Mo0 Te0 2.717233 1_445
Mo0 Te0 2.717233 1_555
Mo0 Te2 2.717738 1_545
Mo0 Te2 2.717741 1_555
Mo0 Te2 2.717741 1_445
Mo1 Te1 2.717150 1_545
Mo1 Te1 2.717153 1_555
Mo1 Te1 2.717153 1_445
Mo1 Te3 2.717337 1_545
Mo1 Te3 2.717340 1_445
Mo1 Te3 2.717340 1_555
Se0 W0 2.576658 1_545
Se0 W0 2.576660 1_445
Se0 W0 2.576660 1_555
Se1 W1 2.575984 1_545
Se1 W1 2.575987 1_555
Se1 W1 2.575987 1_445
Se2 W0 2.576558 1_545
Se2 W0 2.576561 1_445
Se2 W0 2.576561 1_555
Se3 W1 2.576808 1_545
Se3 W1 2.576810 1_445
Se3 W1 2.576810 1_555
