# generated using pymatgen
data_TaAs
_symmetry_space_group_name_H-M   'P 1'
_cell_length_a   3.44367825
_cell_length_b   3.44357520
_cell_length_c   6.35258860
_cell_angle_alpha   105.71667393
_cell_angle_beta   105.71656072
_cell_angle_gamma   90.00416363
_symmetry_Int_Tables_number   1
_chemical_formula_structural   TaAs
_chemical_formula_sum   'Ta2 As2'
_cell_volume   69.58536438
_cell_formula_units_Z   2
loop_
 _symmetry_equiv_pos_site_id
 _symmetry_equiv_pos_as_xyz
  1  'x, y, z'
loop_
 _atom_site_type_symbol
 _atom_site_label
 _atom_site_symmetry_multiplicity
 _atom_site_fract_x
 _atom_site_fract_y
 _atom_site_fract_z
 _atom_site_occupancy
  Ta  Ta0  1  0.00003355  0.00024884  0.00035045  1
  Ta  Ta1  1  0.75022431  0.25000732  0.50037019  1
  As  As0  1  0.41755411  0.41759455  0.83502081  1
  As  As1  1  0.16758803  0.66754929  0.33505855  1
loop_
_geom_bond_atom_site_label_1
_geom_bond_atom_site_label_2
_geom_bond_distance
_geom_bond_site_symmetry_2
As0 Ta1 2.611467 1_555
As0 Ta1 2.611899 1_455
As0 Ta0 2.620827 1_666
As0 Ta0 2.620850 1_656
As0 Ta0 2.621322 1_556
As0 Ta0 2.621628 1_566
As1 Ta0 2.611833 1_565
As1 Ta0 2.611973 1_555
As1 Ta1 2.620740 1_565
As1 Ta1 2.620790 1_465
As1 Ta1 2.621331 1_455
As1 Ta1 2.621610 1_555
