# generated using pymatgen
data_La2Be2GeO7
_symmetry_space_group_name_H-M   'P 1'
_cell_length_a   7.67910542
_cell_length_b   7.67910542
_cell_length_c   4.95593186
_cell_angle_alpha   90.00000000
_cell_angle_beta   90.00000000
_cell_angle_gamma   90.00000000
_symmetry_Int_Tables_number   1
_chemical_formula_structural   La2Be2GeO7
_chemical_formula_sum   'La4 Be4 Ge2 O14'
_cell_volume   292.24466109
_cell_formula_units_Z   2
loop_
 _symmetry_equiv_pos_site_id
 _symmetry_equiv_pos_as_xyz
  1  'x, y, z'
loop_
 _atom_site_type_symbol
 _atom_site_label
 _atom_site_symmetry_multiplicity
 _atom_site_fract_x
 _atom_site_fract_y
 _atom_site_fract_z
 _atom_site_occupancy
  La  La0  1  0.66062832  0.83937168  0.50206566  1
  La  La1  1  0.16062832  0.66062832  0.49793434  1
  La  La2  1  0.83937168  0.33937168  0.49793434  1
  La  La3  1  0.33937168  0.16062832  0.50206566  1
  Be  Be0  1  0.36652398  0.86652398  0.03895659  1
  Be  Be1  1  0.86652398  0.63347602  0.96104341  1
  Be  Be2  1  0.63347602  0.13347602  0.03895659  1
  Be  Be3  1  0.13347602  0.36652398  0.96104341  1
  Ge  Ge0  1  0.50000000  0.50000000  -0.00000000  1
  Ge  Ge1  1  -0.00000000  0.00000000  -0.00000000  1
  O  O0  1  0.92253859  0.82647150  0.80194546  1
  O  O1  1  0.17352850  0.92253859  0.19805454  1
  O  O2  1  0.57746141  0.32647150  0.19805454  1
  O  O3  1  0.42253859  0.67352850  0.19805454  1
  O  O4  1  0.32647150  0.42253859  0.80194546  1
  O  O5  1  0.67352850  0.57746141  0.80194546  1
  O  O6  1  -0.00000000  0.50000000  0.83470744  1
  O  O7  1  0.50000000  0.00000000  0.16529256  1
  O  O8  1  0.14247075  0.35752925  0.28086374  1
  O  O9  1  0.64247075  0.14247075  0.71913626  1
  O  O10  1  0.35752925  0.85752925  0.71913626  1
  O  O11  1  0.85752925  0.64247075  0.28086374  1
  O  O12  1  0.07746141  0.17352850  0.80194546  1
  O  O13  1  0.82647150  0.07746141  0.19805454  1
loop_
_geom_bond_atom_site_label_1
_geom_bond_atom_site_label_2
_geom_bond_distance
_geom_bond_site_symmetry_2
La0 O11 2.402960 1_555
La0 O7 2.414249 1_565
La0 O5 2.502724 1_555
La0 O0 2.502724 1_555
La0 O9 2.567909 1_565
La0 O10 2.567909 1_555
La0 O13 2.689727 1_565
La0 O3 2.689727 1_555
La1 O10 2.402960 1_555
La1 O6 2.414249 1_555
La1 O3 2.502724 1_555
La1 O1 2.502724 1_555
La1 O11 2.567909 1_455
La1 O8 2.567909 1_555
La1 O0 2.689727 1_455
La1 O4 2.689727 1_555
La2 O9 2.402960 1_555
La2 O6 2.414249 1_655
La2 O2 2.502724 1_555
La2 O13 2.502724 1_555
La2 O11 2.567909 1_555
La2 O8 2.567909 1_655
La2 O12 2.689727 1_655
La2 O5 2.689727 1_555
La3 O8 2.402960 1_555
La3 O7 2.414249 1_555
La3 O12 2.502724 1_555
La3 O4 2.502724 1_555
La3 O10 2.567909 1_545
La3 O9 2.567909 1_555
La3 O2 2.689727 1_555
La3 O1 2.689727 1_545
Be0 O7 1.578978 1_565
Be0 O10 1.588015 1_554
Be0 O3 1.732957 1_555
Be0 O1 1.732957 1_555
Be1 O6 1.578978 1_655
Be1 O11 1.588015 1_556
Be1 O0 1.732957 1_555
Be1 O5 1.732957 1_555
Be2 O7 1.578978 1_555
Be2 O9 1.588015 1_554
Be2 O13 1.732957 1_555
Be2 O2 1.732957 1_555
Be3 O6 1.578978 1_555
Be3 O8 1.588015 1_556
Be3 O4 1.732957 1_555
Be3 O12 1.732957 1_555
Ge0 O3 1.758673 1_555
Ge0 O5 1.758673 1_554
Ge0 O4 1.758673 1_554
Ge0 O2 1.758673 1_555
Ge1 O12 1.758673 1_554
Ge1 O1 1.758673 1_545
Ge1 O13 1.758673 1_455
Ge1 O0 1.758673 1_444
