# generated using pymatgen
data_Ba3ZrTa4O15
_symmetry_space_group_name_H-M   'P 1'
_cell_length_a   12.82905500
_cell_length_b   12.82905500
_cell_length_c   4.06111100
_cell_angle_alpha   90.00000000
_cell_angle_beta   90.00000000
_cell_angle_gamma   90.00000000
_symmetry_Int_Tables_number   1
_chemical_formula_structural   Ba3ZrTa4O15
_chemical_formula_sum   'Ba6 Zr2 Ta8 O30'
_cell_volume   668.39654145
_cell_formula_units_Z   2
loop_
 _symmetry_equiv_pos_site_id
 _symmetry_equiv_pos_as_xyz
  1  'x, y, z'
loop_
 _atom_site_type_symbol
 _atom_site_label
 _atom_site_symmetry_multiplicity
 _atom_site_fract_x
 _atom_site_fract_y
 _atom_site_fract_z
 _atom_site_occupancy
  Ba  Ba0  1  0.33082400  0.83082400  0.38510500  1
  Ba  Ba1  1  0.66917600  0.16917600  0.38510500  1
  Ba  Ba2  1  0.83082400  0.66917600  0.38510500  1
  Ba  Ba3  1  0.16917600  0.33082400  0.38510500  1
  Ba  Ba4  1  0.50000000  0.50000000  0.38611800  1
  Ba  Ba5  1  0.00000000  0.00000000  0.38611800  1
  Zr  Zr0  1  0.50000000  0.00000000  0.86728300  1
  Zr  Zr1  1  0.00000000  0.50000000  0.86728300  1
  Ta  Ta0  1  0.42508800  0.28706500  0.89756300  1
  Ta  Ta1  1  0.57491200  0.71293500  0.89756300  1
  Ta  Ta2  1  0.92508800  0.21293500  0.89756300  1
  Ta  Ta3  1  0.07491200  0.78706500  0.89756300  1
  Ta  Ta4  1  0.71293500  0.42508800  0.89756300  1
  Ta  Ta5  1  0.28706500  0.57491200  0.89756300  1
  Ta  Ta6  1  0.78706500  0.92508800  0.89756300  1
  Ta  Ta7  1  0.21293500  0.07491200  0.89756300  1
  O  O0  1  0.21620800  0.71620800  0.87386600  1
  O  O1  1  0.78379200  0.28379200  0.87386600  1
  O  O2  1  0.71620800  0.78379200  0.87386600  1
  O  O3  1  0.28379200  0.21620800  0.87386600  1
  O  O4  1  0.41970500  0.29519700  0.37308100  1
  O  O5  1  0.58029500  0.70480300  0.37308100  1
  O  O6  1  0.91970500  0.20480300  0.37308100  1
  O  O7  1  0.08029500  0.79519700  0.37308100  1
  O  O8  1  0.70480300  0.41970500  0.37308100  1
  O  O9  1  0.29519700  0.58029500  0.37308100  1
  O  O10  1  0.79519700  0.91970500  0.37308100  1
  O  O11  1  0.20480300  0.08029500  0.37308100  1
  O  O12  1  0.16493900  0.48944700  0.86764600  1
  O  O13  1  0.83506100  0.51055300  0.86764600  1
  O  O14  1  0.66493900  0.01055300  0.86764600  1
  O  O15  1  0.33506100  0.98944700  0.86764600  1
  O  O16  1  0.51055300  0.16493900  0.86764600  1
  O  O17  1  0.48944700  0.83506100  0.86764600  1
  O  O18  1  0.98944700  0.66493900  0.86764600  1
  O  O19  1  0.01055300  0.33506100  0.86764600  1
  O  O20  1  0.50000000  0.00000000  0.36674500  1
  O  O21  1  0.00000000  0.50000000  0.36674500  1
  O  O22  1  0.36223100  0.43353400  0.87443700  1
  O  O23  1  0.63776900  0.56646600  0.87443700  1
  O  O24  1  0.86223100  0.06646600  0.87443700  1
  O  O25  1  0.13776900  0.93353400  0.87443700  1
  O  O26  1  0.56646600  0.36223100  0.87443700  1
  O  O27  1  0.43353400  0.63776900  0.87443700  1
  O  O28  1  0.93353400  0.86223100  0.87443700  1
  O  O29  1  0.06646600  0.13776900  0.87443700  1
loop_
_geom_bond_atom_site_label_1
_geom_bond_atom_site_label_2
_geom_bond_distance
_geom_bond_site_symmetry_2
Ba0 O15 2.825659 1_555
Ba0 O17 2.825659 1_555
Ba0 O0 2.874738 1_555
Ba0 O15 2.925789 1_554
Ba0 O17 2.925789 1_554
Ba0 O0 2.938510 1_554
Ba0 O20 3.070270 1_565
Ba0 O9 3.246754 1_555
Ba0 O7 3.246754 1_555
Ba1 O14 2.825659 1_555
Ba1 O16 2.825659 1_555
Ba1 O1 2.874738 1_555
Ba1 O16 2.925789 1_554
Ba1 O14 2.925789 1_554
Ba1 O1 2.938510 1_554
Ba1 O20 3.070270 1_555
Ba1 O6 3.246754 1_555
Ba1 O8 3.246754 1_555
Ba2 O18 2.825659 1_555
Ba2 O13 2.825659 1_555
Ba2 O2 2.874738 1_555
Ba2 O18 2.925789 1_554
Ba2 O13 2.925789 1_554
Ba2 O2 2.938510 1_554
Ba2 O21 3.070270 1_655
Ba2 O10 3.246754 1_555
Ba2 O5 3.246754 1_555
Ba3 O19 2.825659 1_555
Ba3 O12 2.825659 1_555
Ba3 O3 2.874738 1_555
Ba3 O12 2.925789 1_554
Ba3 O19 2.925789 1_554
Ba3 O3 2.938510 1_554
Ba3 O21 3.070270 1_555
Ba3 O4 3.246754 1_555
Ba3 O11 3.246754 1_555
Ba4 O22 2.789930 1_555
Ba4 O26 2.789930 1_555
Ba4 O27 2.789930 1_555
Ba4 O23 2.789930 1_555
Ba4 O8 2.822642 1_555
Ba4 O5 2.822642 1_555
Ba4 O9 2.822642 1_555
Ba4 O4 2.822642 1_555
Ba4 O22 2.858148 1_554
Ba4 O26 2.858148 1_554
Ba4 O27 2.858148 1_554
Ba4 O23 2.858148 1_554
Ba5 O24 2.789930 1_455
Ba5 O28 2.789930 1_445
Ba5 O29 2.789930 1_555
Ba5 O25 2.789930 1_545
Ba5 O10 2.822642 1_445
Ba5 O7 2.822642 1_545
Ba5 O11 2.822642 1_555
Ba5 O6 2.822642 1_455
Ba5 O28 2.858148 1_444
Ba5 O29 2.858148 1_554
Ba5 O25 2.858148 1_544
Ba5 O24 2.858148 1_454
O0 Ta5 2.030136 1_555
O0 Ta3 2.030136 1_555
O1 Ta2 2.030136 1_555
O1 Ta4 2.030136 1_555
O2 Ta1 2.030136 1_555
O2 Ta6 2.030136 1_555
O3 Ta7 2.030136 1_555
O3 Ta0 2.030136 1_555
O4 Ta0 1.935180 1_554
O4 Ta0 2.133651 1_555
O5 Ta1 1.935180 1_554
O5 Ta1 2.133651 1_555
O6 Ta2 1.935180 1_554
O6 Ta2 2.133651 1_555
O7 Ta3 1.935180 1_554
O7 Ta3 2.133651 1_555
O8 Ta4 1.935180 1_554
O8 Ta4 2.133651 1_555
O9 Ta5 1.935180 1_554
O9 Ta5 2.133651 1_555
O10 Ta6 1.935180 1_554
O10 Ta6 2.133651 1_555
O11 Ta7 1.935180 1_554
O11 Ta7 2.133651 1_555
O12 Ta5 1.916161 1_555
O12 Zr1 2.120339 1_555
O13 Ta4 1.916161 1_555
O13 Zr1 2.120339 1_655
O14 Ta6 1.916161 1_545
O14 Zr0 2.120339 1_555
O15 Ta7 1.916161 1_565
O15 Zr0 2.120339 1_565
O16 Ta0 1.916161 1_555
O16 Zr0 2.120339 1_555
O17 Ta1 1.916161 1_555
O17 Zr0 2.120339 1_565
O18 Ta3 1.916161 1_655
O18 Zr1 2.120339 1_655
O19 Ta2 1.916161 1_455
O19 Zr1 2.120339 1_555
O20 Zr0 2.028371 1_554
O20 Zr0 2.032740 1_555
O21 Zr1 2.028371 1_554
O21 Zr1 2.032740 1_555
O22 Ta0 2.046938 1_555
O22 Ta5 2.056304 1_555
O23 Ta1 2.046938 1_555
O23 Ta4 2.056304 1_555
O24 Ta2 2.046938 1_555
O24 Ta6 2.056304 1_545
O25 Ta3 2.046938 1_555
O25 Ta7 2.056304 1_565
O26 Ta4 2.046938 1_555
O26 Ta0 2.056304 1_555
O27 Ta5 2.046938 1_555
O27 Ta1 2.056304 1_555
O28 Ta6 2.046938 1_555
O28 Ta3 2.056304 1_655
O29 Ta7 2.046938 1_555
O29 Ta2 2.056304 1_455
