# generated using pymatgen
data_Eu2InPd2
_symmetry_space_group_name_H-M   'P 1'
_cell_length_a   5.93102035
_cell_length_b   5.93104456
_cell_length_c   8.28788066
_cell_angle_alpha   77.22993560
_cell_angle_beta   77.22981908
_cell_angle_gamma   59.47860890
_symmetry_Int_Tables_number   1
_chemical_formula_structural   Eu2InPd2
_chemical_formula_sum   'Eu4 In2 Pd4'
_cell_volume   242.87339571
_cell_formula_units_Z   2
loop_
 _symmetry_equiv_pos_site_id
 _symmetry_equiv_pos_as_xyz
  1  'x, y, z'
loop_
 _atom_site_type_symbol
 _atom_site_label
 _atom_site_symmetry_multiplicity
 _atom_site_fract_x
 _atom_site_fract_y
 _atom_site_fract_z
 _atom_site_occupancy
  Eu  Eu0  1  0.79312727  0.50216120  0.35243322  1
  Eu  Eu1  1  0.49784308  0.20686657  0.14757667  1
  Eu  Eu2  1  0.20687273  0.49783880  0.64756678  1
  Eu  Eu3  1  0.50215692  0.79313343  0.85242333  1
  In  In0  1  0.14924822  0.85075446  0.24999443  1
  In  In1  1  0.85075178  0.14924554  0.75000557  1
  Pd  Pd0  1  0.00160211  0.72799214  0.00274355  1
  Pd  Pd1  1  0.27199548  0.99839936  0.49725820  1
  Pd  Pd2  1  0.99839789  0.27200786  0.99725645  1
  Pd  Pd3  1  0.72800452  0.00160064  0.50274180  1
loop_
_geom_bond_atom_site_label_1
_geom_bond_atom_site_label_2
_geom_bond_distance
_geom_bond_site_symmetry_2
Eu0 Pd1 3.120376 1_645
Eu0 Pd3 3.135623 1_555
Eu0 Pd0 3.178718 1_655
Eu0 Pd1 3.215298 1_555
Eu0 Pd2 3.242645 1_554
Eu0 Pd3 3.275998 1_565
Eu0 In1 3.475278 1_555
Eu0 In0 3.495251 1_555
Eu0 In0 3.510486 1_655
Eu0 In0 3.532349 1_645
Eu1 Pd0 3.120409 1_645
Eu1 Pd2 3.135652 1_554
Eu1 Pd1 3.178691 1_545
Eu1 Pd0 3.215319 1_555
Eu1 Pd3 3.242581 1_555
Eu1 Pd2 3.276027 1_454
Eu1 In1 3.475248 1_554
Eu1 In0 3.495244 1_555
Eu1 In0 3.510454 1_545
Eu1 In0 3.532270 1_645
Eu2 Pd3 3.120376 1_465
Eu2 Pd1 3.135623 1_555
Eu2 Pd2 3.178718 1_455
Eu2 Pd3 3.215298 1_555
Eu2 Pd0 3.242645 1_556
Eu2 Pd1 3.275998 1_545
Eu2 In0 3.475278 1_555
Eu2 In1 3.495251 1_555
Eu2 In1 3.510486 1_455
Eu2 In1 3.532349 1_465
Eu3 Pd2 3.120409 1_465
Eu3 Pd0 3.135652 1_556
Eu3 Pd3 3.178691 1_565
Eu3 Pd2 3.215319 1_555
Eu3 Pd1 3.242581 1_555
Eu3 Pd0 3.276027 1_656
Eu3 In0 3.475248 1_556
Eu3 In1 3.495244 1_555
Eu3 In1 3.510454 1_565
Eu3 In1 3.532270 1_465
In0 Pd0 2.756203 1_555
In0 Pd1 2.756239 1_555
In0 Pd2 2.770351 1_464
In0 Pd3 2.770356 1_465
In1 Pd2 2.756203 1_555
In1 Pd3 2.756239 1_555
In1 Pd0 2.770351 1_646
In1 Pd1 2.770356 1_645
Pd0 Pd2 2.724611 1_454
Pd1 Pd3 2.724731 1_565
