# generated using pymatgen
data_CsZnCoF6
_symmetry_space_group_name_H-M   'P 1'
_cell_length_a   7.46068643
_cell_length_b   7.46068643
_cell_length_c   7.46068643
_cell_angle_alpha   120.65094968
_cell_angle_beta   119.78452464
_cell_angle_gamma   89.62492865
_symmetry_Int_Tables_number   1
_chemical_formula_structural   CsZnCoF6
_chemical_formula_sum   'Cs2 Zn2 Co2 F12'
_cell_volume   292.64986492
_cell_formula_units_Z   2
loop_
 _symmetry_equiv_pos_site_id
 _symmetry_equiv_pos_as_xyz
  1  'x, y, z'
loop_
 _atom_site_type_symbol
 _atom_site_label
 _atom_site_symmetry_multiplicity
 _atom_site_fract_x
 _atom_site_fract_y
 _atom_site_fract_z
 _atom_site_occupancy
  Cs  Cs0  1  0.37279600  0.12279600  0.25000000  1
  Cs  Cs1  1  0.62720400  0.87720400  0.75000000  1
  Zn  Zn0  1  0.00000000  0.50000000  0.00000000  1
  Zn  Zn1  1  0.00000000  0.00000000  0.50000000  1
  Co  Co0  1  0.00000000  0.50000000  0.50000000  1
  Co  Co1  1  0.50000000  0.50000000  0.00000000  1
  F  F0  1  0.31512000  0.56512000  0.75000000  1
  F  F1  1  0.92786000  0.17786000  0.75000000  1
  F  F2  1  0.33276000  0.19653300  0.76485900  1
  F  F3  1  0.93167400  0.56790200  0.73514100  1
  F  F4  1  0.33276000  0.56790200  0.13622800  1
  F  F5  1  0.93167400  0.19653300  0.36377200  1
  F  F6  1  0.68488000  0.43488000  0.25000000  1
  F  F7  1  0.07214000  0.82214000  0.25000000  1
  F  F8  1  0.66724000  0.80346700  0.23514100  1
  F  F9  1  0.06832600  0.43209800  0.26485900  1
  F  F10  1  0.66724000  0.43209800  0.86377200  1
  F  F11  1  0.06832600  0.80346700  0.63622800  1
loop_
_geom_bond_atom_site_label_1
_geom_bond_atom_site_label_2
_geom_bond_distance
_geom_bond_site_symmetry_2
Cs0 F7 3.182589 1_545
Cs0 F10 3.227694 1_555
Cs0 F9 3.227694 1_555
Cs0 F11 3.227694 1_544
Cs0 F8 3.227699 1_545
Cs0 F6 3.303560 1_555
Cs1 F1 3.182589 1_565
Cs1 F4 3.227694 1_555
Cs1 F5 3.227694 1_566
Cs1 F3 3.227694 1_555
Cs1 F2 3.227699 1_565
Cs1 F0 3.303560 1_555
Co0 F11 1.890242 1_555
Co0 F3 1.890242 1_455
Co0 F9 1.890242 1_555
Co0 F5 1.890242 1_455
Co0 F6 1.994172 1_455
Co0 F0 1.994172 1_555
Co1 F8 1.890243 1_555
Co1 F2 1.890243 1_554
Co1 F4 1.890249 1_555
Co1 F10 1.890249 1_554
Co1 F6 1.994172 1_555
Co1 F0 1.994172 1_554
F1 Zn1 1.998443 1_655
F1 Zn0 1.998443 1_656
F2 Zn1 2.106593 1_555
F3 Zn0 2.106599 1_656
F4 Zn0 2.106592 1_555
F5 Zn1 2.106599 1_655
F7 Zn1 1.998443 1_565
F7 Zn0 1.998443 1_555
F8 Zn1 2.106593 1_665
F9 Zn0 2.106599 1_555
F10 Zn0 2.106592 1_656
F11 Zn1 2.106599 1_565
