# generated using pymatgen
data_SmH18(BrO6)3
_symmetry_space_group_name_H-M   'P 1'
_cell_length_a   11.95660330
_cell_length_b   11.95660330
_cell_length_c   6.80943200
_cell_angle_alpha   90.00000000
_cell_angle_beta   90.00000000
_cell_angle_gamma   119.99999613
_symmetry_Int_Tables_number   1
_chemical_formula_structural   SmH18(BrO6)3
_chemical_formula_sum   'Sm2 H36 Br6 O36'
_cell_volume   843.05746184
_cell_formula_units_Z   2
loop_
 _symmetry_equiv_pos_site_id
 _symmetry_equiv_pos_as_xyz
  1  'x, y, z'
loop_
 _atom_site_type_symbol
 _atom_site_label
 _atom_site_symmetry_multiplicity
 _atom_site_fract_x
 _atom_site_fract_y
 _atom_site_fract_z
 _atom_site_occupancy
  Sm  Sm0  1  0.66666700  0.33333300  0.75002100  1
  Sm  Sm1  1  0.33333300  0.66666700  0.25002100  1
  H  H0  1  0.74864100  0.11644100  0.75199600  1
  H  H1  1  0.36779900  0.25135900  0.75199600  1
  H  H2  1  0.88355900  0.63220100  0.75199600  1
  H  H3  1  0.36779900  0.11644100  0.75199600  1
  H  H4  1  0.88355900  0.25135900  0.75199600  1
  H  H5  1  0.74864100  0.63220100  0.75199600  1
  H  H6  1  0.25135900  0.88355900  0.25199600  1
  H  H7  1  0.63220100  0.74864100  0.25199600  1
  H  H8  1  0.11644100  0.36779900  0.25199600  1
  H  H9  1  0.63220100  0.88355900  0.25199600  1
  H  H10  1  0.11644100  0.74864100  0.25199600  1
  H  H11  1  0.25135900  0.36779900  0.25199600  1
  H  H12  1  0.63038800  0.50201000  0.06662100  1
  H  H13  1  0.87162200  0.36961200  0.06662100  1
  H  H14  1  0.49799000  0.12837800  0.06662100  1
  H  H15  1  0.87162200  0.50201000  0.06662100  1
  H  H16  1  0.49799000  0.36961200  0.06662100  1
  H  H17  1  0.63038800  0.12837800  0.06662100  1
  H  H18  1  0.36983000  0.49807800  0.93336200  1
  H  H19  1  0.12824800  0.63017000  0.93336200  1
  H  H20  1  0.50192200  0.87175200  0.93336200  1
  H  H21  1  0.12824800  0.49807800  0.93336200  1
  H  H22  1  0.50192200  0.63017000  0.93336200  1
  H  H23  1  0.36983000  0.87175200  0.93336200  1
  H  H24  1  0.36961200  0.49799000  0.56662100  1
  H  H25  1  0.12837800  0.63038800  0.56662100  1
  H  H26  1  0.50201000  0.87162200  0.56662100  1
  H  H27  1  0.12837800  0.49799000  0.56662100  1
  H  H28  1  0.50201000  0.63038800  0.56662100  1
  H  H29  1  0.36961200  0.87162200  0.56662100  1
  H  H30  1  0.63017000  0.50192200  0.43336200  1
  H  H31  1  0.87175200  0.36983000  0.43336200  1
  H  H32  1  0.49807800  0.12824800  0.43336200  1
  H  H33  1  0.87175200  0.50192200  0.43336200  1
  H  H34  1  0.49807800  0.36983000  0.43336200  1
  H  H35  1  0.63017000  0.12824800  0.43336200  1
  Br  Br0  1  0.86898500  0.73797000  0.25782400  1
  Br  Br1  1  0.86898500  0.13101500  0.25782400  1
  Br  Br2  1  0.26203000  0.13101500  0.25782400  1
  Br  Br3  1  0.13101500  0.26203000  0.75782400  1
  Br  Br4  1  0.13101500  0.86898500  0.75782400  1
  Br  Br5  1  0.73797000  0.86898500  0.75782400  1
  O  O0  1  0.57922800  0.15845700  0.99350800  1
  O  O1  1  0.57922800  0.42077200  0.99350800  1
  O  O2  1  0.84154300  0.42077200  0.99350800  1
  O  O3  1  0.42076100  0.84152200  0.00632500  1
  O  O4  1  0.42076100  0.57923900  0.00632500  1
  O  O5  1  0.15847800  0.57923900  0.00632500  1
  O  O6  1  0.42077200  0.84154300  0.49350800  1
  O  O7  1  0.42077200  0.57922800  0.49350800  1
  O  O8  1  0.15845700  0.57922800  0.49350800  1
  O  O9  1  0.57923900  0.15847800  0.50632500  1
  O  O10  1  0.57923900  0.42076100  0.50632500  1
  O  O11  1  0.84152200  0.42076100  0.50632500  1
  O  O12  1  0.78873000  0.57746000  0.74602100  1
  O  O13  1  0.78873000  0.21127000  0.74602100  1
  O  O14  1  0.42254000  0.21127000  0.74602100  1
  O  O15  1  0.21127000  0.42254000  0.24602100  1
  O  O16  1  0.21127000  0.78873000  0.24602100  1
  O  O17  1  0.57746000  0.78873000  0.24602100  1
  O  O18  1  0.93193800  0.63675400  0.24986400  1
  O  O19  1  0.70481500  0.06806200  0.24986400  1
  O  O20  1  0.36324600  0.29518500  0.24986400  1
  O  O21  1  0.70481500  0.63675400  0.24986400  1
  O  O22  1  0.36324600  0.06806200  0.24986400  1
  O  O23  1  0.93193800  0.29518500  0.24986400  1
  O  O24  1  0.06806200  0.36324600  0.74986400  1
  O  O25  1  0.29518500  0.93193800  0.74986400  1
  O  O26  1  0.63675400  0.70481500  0.74986400  1
  O  O27  1  0.29518500  0.36324600  0.74986400  1
  O  O28  1  0.63675400  0.93193800  0.74986400  1
  O  O29  1  0.06806200  0.70481500  0.74986400  1
  O  O30  1  0.90707000  0.81414000  0.04412900  1
  O  O31  1  0.90707000  0.09293000  0.04412900  1
  O  O32  1  0.18586000  0.09293000  0.04412900  1
  O  O33  1  0.09293000  0.18586000  0.54412900  1
  O  O34  1  0.09293000  0.90707000  0.54412900  1
  O  O35  1  0.81414000  0.90707000  0.54412900  1
loop_
_geom_bond_atom_site_label_1
_geom_bond_atom_site_label_2
_geom_bond_distance
_geom_bond_site_symmetry_2
H0 O13 0.986666 1_555
H1 O14 0.986677 1_555
H2 O12 0.986667 1_555
H3 O14 0.986667 1_555
H4 O13 0.986666 1_555
H5 O12 0.986677 1_555
H6 O16 0.986666 1_555
H7 O17 0.986677 1_555
H8 O15 0.986667 1_555
H9 O17 0.986667 1_555
H10 O16 0.986666 1_555
H11 O15 0.986677 1_555
H12 O1 0.985576 1_554
H13 O2 0.985584 1_554
H14 O0 0.985574 1_554
H15 O2 0.985574 1_554
H16 O1 0.985576 1_554
H17 O0 0.985584 1_554
H18 O4 0.984090 1_556
H19 O5 0.984090 1_556
H20 O3 0.984090 1_556
H21 O5 0.984090 1_556
H22 O4 0.984090 1_556
H23 O3 0.984090 1_556
H24 O7 0.985576 1_555
H25 O8 0.985584 1_555
H26 O6 0.985574 1_555
H27 O8 0.985574 1_555
H28 O7 0.985576 1_555
H29 O6 0.985584 1_555
H30 O10 0.984090 1_555
H31 O11 0.984090 1_555
H32 O9 0.984090 1_555
H33 O11 0.984090 1_555
H34 O10 0.984090 1_555
H35 O9 0.984090 1_555
Br0 O30 1.655148 1_555
Br0 O18 1.716102 1_555
Br0 O21 1.716112 1_555
Br1 O31 1.655148 1_555
Br1 O19 1.716113 1_555
Br1 O23 1.716113 1_555
Br2 O32 1.655148 1_555
Br2 O22 1.716102 1_555
Br2 O20 1.716112 1_555
Br3 O33 1.655148 1_555
Br3 O24 1.716102 1_555
Br3 O27 1.716112 1_555
Br4 O34 1.655148 1_555
Br4 O29 1.716113 1_555
Br4 O25 1.716113 1_555
Br5 O35 1.655148 1_555
Br5 O28 1.716102 1_555
Br5 O26 1.716112 1_555
O0 Sm0 2.455191 1_555
O1 Sm0 2.455206 1_555
O2 Sm0 2.455191 1_555
O3 Sm1 2.455992 1_555
O4 Sm1 2.455999 1_555
O5 Sm1 2.455992 1_555
O6 Sm1 2.455191 1_555
O7 Sm1 2.455206 1_555
O8 Sm1 2.455191 1_555
O9 Sm0 2.455992 1_555
O10 Sm0 2.455999 1_555
O11 Sm0 2.455992 1_555
O12 Sm0 2.528014 1_555
O13 Sm0 2.528004 1_555
O14 Sm0 2.528014 1_555
O15 Sm1 2.528014 1_555
O16 Sm1 2.528004 1_555
O17 Sm1 2.528014 1_555
