# generated using pymatgen
data_LuCo5Si3
_symmetry_space_group_name_H-M   'P 1'
_cell_length_a   3.64042661
_cell_length_b   14.49876135
_cell_length_c   14.49877587
_cell_angle_alpha   120.00060360
_cell_angle_beta   90.00000000
_cell_angle_gamma   90.00000000
_symmetry_Int_Tables_number   1
_chemical_formula_structural   LuCo5Si3
_chemical_formula_sum   'Lu6 Co30 Si18'
_cell_volume   662.73896942
_cell_formula_units_Z   6
loop_
 _symmetry_equiv_pos_site_id
 _symmetry_equiv_pos_as_xyz
  1  'x, y, z'
loop_
 _atom_site_type_symbol
 _atom_site_label
 _atom_site_symmetry_multiplicity
 _atom_site_fract_x
 _atom_site_fract_y
 _atom_site_fract_z
 _atom_site_occupancy
  Lu  Lu0  1  0.75000000  0.70636616  0.10104544  1
  Lu  Lu1  1  0.25000000  0.29352810  0.89893538  1
  Lu  Lu2  1  0.75000000  0.39464566  0.29356645  1
  Lu  Lu3  1  0.25000000  0.60537651  0.70636817  1
  Lu  Lu4  1  0.75000000  0.89898488  0.60542366  1
  Lu  Lu5  1  0.25000000  0.10107219  0.39468269  1
  Co  Co0  1  0.75000000  0.58670768  0.85181673  1
  Co  Co1  1  0.25000000  0.41329557  0.14817286  1
  Co  Co2  1  0.75000000  0.26513221  0.41330846  1
  Co  Co3  1  0.25000000  0.73489845  0.58671515  1
  Co  Co4  1  0.75000000  0.14817484  0.73489225  1
  Co  Co5  1  0.25000000  0.85181919  0.26512804  1
  Co  Co6  1  0.75000000  0.45952263  0.53384693  1
  Co  Co7  1  0.25000000  0.54049943  0.46615229  1
  Co  Co8  1  0.75000000  0.07434961  0.54052314  1
  Co  Co9  1  0.25000000  0.92567786  0.45955295  1
  Co  Co10  1  0.75000000  0.46612629  0.92566782  1
  Co  Co11  1  0.25000000  0.53382727  0.07434045  1
  Co  Co12  1  0.75000000  0.90276792  0.02842339  1
  Co  Co13  1  0.25000000  0.09722920  0.97151119  1
  Co  Co14  1  0.75000000  0.12568481  0.09720327  1
  Co  Co15  1  0.25000000  0.87431637  0.90273820  1
  Co  Co16  1  0.75000000  0.97154593  0.87428674  1
  Co  Co17  1  0.25000000  0.02844815  0.12566135  1
  Co  Co18  1  0.75000000  0.77504916  0.34740508  1
  Co  Co19  1  0.25000000  0.22494185  0.65263615  1
  Co  Co20  1  0.75000000  0.57231278  0.22495223  1
  Co  Co21  1  0.25000000  0.42764982  0.77504881  1
  Co  Co22  1  0.75000000  0.65262335  0.42767656  1
  Co  Co23  1  0.25000000  0.34737930  0.57233191  1
  Co  Co24  1  0.75000000  0.95043954  0.21901899  1
  Co  Co25  1  0.25000000  0.04955658  0.78097611  1
  Co  Co26  1  0.75000000  0.26857988  0.04953276  1
  Co  Co27  1  0.25000000  0.73142848  0.95042274  1
  Co  Co28  1  0.75000000  0.78099887  0.73141667  1
  Co  Co29  1  0.25000000  0.21903883  0.26857982  1
  Si  Si0  1  0.75000000  0.44322359  0.68182105  1
  Si  Si1  1  0.25000000  0.55677645  0.31818256  1
  Si  Si2  1  0.75000000  0.23860549  0.55679754  1
  Si  Si3  1  0.25000000  0.76141194  0.44326011  1
  Si  Si4  1  0.75000000  0.31815616  0.76141589  1
  Si  Si5  1  0.25000000  0.68181149  0.23861677  1
  Si  Si6  1  0.75000000  0.75187871  0.86886834  1
  Si  Si7  1  0.25000000  0.24812238  0.13107299  1
  Si  Si8  1  0.75000000  0.11702902  0.24812050  1
  Si  Si9  1  0.25000000  0.88299323  0.75187083  1
  Si  Si10  1  0.75000000  0.13109310  0.88296611  1
  Si  Si11  1  0.25000000  0.86888817  0.11700680  1
  Si  Si12  1  0.75000000  0.93834876  0.36991307  1
  Si  Si13  1  0.25000000  0.06166616  0.63014014  1
  Si  Si14  1  0.75000000  0.43152577  0.06164815  1
  Si  Si15  1  0.25000000  0.56843977  0.93833645  1
  Si  Si16  1  0.75000000  0.63013362  0.56845337  1
  Si  Si17  1  0.25000000  0.36990084  0.43154849  1
loop_
_geom_bond_atom_site_label_1
_geom_bond_atom_site_label_2
_geom_bond_distance
_geom_bond_site_symmetry_2
Lu0 Si5 2.851058 1_555
Lu0 Si5 2.851058 1_655
Lu0 Si15 2.856537 1_654
Lu0 Si15 2.856537 1_554
Lu0 Si11 2.893766 1_655
Lu0 Si11 2.893766 1_555
Lu1 Si4 2.850991 1_555
Lu1 Si4 2.850991 1_455
Lu1 Si14 2.856860 1_556
Lu1 Si14 2.856860 1_456
Lu1 Si10 2.892752 1_555
Lu1 Si10 2.892752 1_455
Lu2 Si1 2.850849 1_655
Lu2 Si1 2.850849 1_555
Lu2 Si17 2.856909 1_655
Lu2 Si17 2.856909 1_555
Lu2 Si7 2.893390 1_555
Lu2 Si7 2.893390 1_655
Lu3 Si0 2.851381 1_555
Lu3 Si0 2.851381 1_455
Lu3 Si16 2.856250 1_555
Lu3 Si16 2.856250 1_455
Lu3 Si6 2.893334 1_455
Lu3 Si6 2.893334 1_555
Lu4 Si3 2.851306 1_555
Lu4 Si3 2.851306 1_655
Lu4 Si13 2.856517 1_665
Lu4 Si13 2.856517 1_565
Lu4 Si9 2.892693 1_655
Lu4 Si9 2.892693 1_555
Lu5 Si2 2.850806 1_455
Lu5 Si2 2.850806 1_555
Lu5 Si12 2.856762 1_445
Lu5 Si12 2.856762 1_545
Lu5 Si8 2.893759 1_455
Lu5 Si8 2.893759 1_555
Co0 Si6 2.281229 1_555
Co0 Si0 2.296767 1_555
Co0 Si15 2.299822 1_555
Co0 Si15 2.299822 1_655
Co0 Co10 2.464751 1_555
Co0 Co27 2.599997 1_555
Co0 Co27 2.599997 1_655
Co0 Co21 2.702490 1_555
Co0 Co21 2.702490 1_655
Co0 Lu3 2.899035 1_555
Co0 Lu3 2.899035 1_655
Co0 Lu0 3.130199 1_556
Co1 Si7 2.280969 1_555
Co1 Si1 2.296876 1_555
Co1 Si14 2.299653 1_455
Co1 Si14 2.299653 1_555
Co1 Co11 2.463870 1_555
Co1 Co26 2.600030 1_455
Co1 Co26 2.600030 1_555
Co1 Co20 2.702106 1_555
Co1 Co20 2.702106 1_455
Co1 Lu2 2.898293 1_555
Co1 Lu2 2.898293 1_455
Co1 Lu1 3.130275 1_554
Co2 Si8 2.281256 1_555
Co2 Si2 2.296999 1_555
Co2 Si17 2.299739 1_655
Co2 Si17 2.299739 1_555
Co2 Co6 2.464159 1_555
Co2 Co29 2.600127 1_655
Co2 Co29 2.600127 1_555
Co2 Co23 2.702166 1_555
Co2 Co23 2.702166 1_655
Co2 Lu5 2.898584 1_555
Co2 Lu5 2.898584 1_655
Co2 Lu2 3.130538 1_555
Co3 Si9 2.280935 1_555
Co3 Si3 2.296392 1_555
Co3 Si16 2.299638 1_455
Co3 Si16 2.299638 1_555
Co3 Co7 2.464306 1_555
Co3 Lu4 2.898500 1_555
Co3 Lu4 2.898500 1_455
Co3 Lu3 3.129543 1_555
Co4 Si10 2.280831 1_555
Co4 Si4 2.296512 1_555
Co4 Si13 2.299579 1_555
Co4 Si13 2.299579 1_655
Co4 Co8 2.463935 1_555
Co4 Lu1 2.898087 1_655
Co4 Lu1 2.898087 1_555
Co4 Lu4 3.129681 1_545
Co5 Si11 2.281408 1_555
Co5 Si5 2.296956 1_555
Co5 Si12 2.299829 1_555
Co5 Si12 2.299829 1_455
Co5 Co9 2.464618 1_555
Co5 Lu0 2.898807 1_455
Co5 Lu0 2.898807 1_555
Co5 Lu5 3.130490 1_565
Co6 Si16 2.264842 1_555
Co6 Si0 2.272836 1_555
Co6 Si17 2.296563 1_555
Co6 Si17 2.296563 1_655
Co6 Co7 2.609075 1_555
Co6 Co7 2.609075 1_655
Co6 Lu3 2.958407 1_555
Co6 Lu3 2.958407 1_655
Co6 Lu2 3.121610 1_555
Co7 Si17 2.264678 1_555
Co7 Si1 2.272589 1_555
Co7 Si16 2.296621 1_555
Co7 Si16 2.296621 1_455
Co7 Lu2 2.958864 1_455
Co7 Lu2 2.958864 1_555
Co7 Lu3 3.120705 1_555
Co8 Si12 2.264803 1_545
Co8 Si2 2.272730 1_555
Co8 Si13 2.296566 1_655
Co8 Si13 2.296566 1_555
Co8 Co9 2.609061 1_645
Co8 Co9 2.609061 1_545
Co8 Lu5 2.958666 1_555
Co8 Lu5 2.958666 1_655
Co8 Lu4 3.121323 1_545
Co9 Si13 2.264526 1_565
Co9 Si3 2.272763 1_555
Co9 Si12 2.296701 1_455
Co9 Si12 2.296701 1_555
Co9 Lu4 2.958798 1_455
Co9 Lu4 2.958798 1_555
Co9 Lu5 3.121426 1_565
Co10 Si14 2.264452 1_556
Co10 Si4 2.272611 1_555
Co10 Si15 2.296730 1_655
Co10 Si15 2.296730 1_555
Co10 Co11 2.609072 1_556
Co10 Co11 2.609072 1_656
Co10 Co21 2.678629 1_555
Co10 Co21 2.678629 1_655
Co10 Lu1 2.959014 1_655
Co10 Lu1 2.959014 1_555
Co10 Lu0 3.121077 1_556
Co11 Si15 2.264903 1_554
Co11 Si5 2.272901 1_555
Co11 Si14 2.296541 1_455
Co11 Si14 2.296541 1_555
Co11 Co20 2.678529 1_555
Co11 Co20 2.678529 1_455
Co11 Lu0 2.958460 1_455
Co11 Lu0 2.958460 1_555
Co11 Lu1 3.121789 1_554
Co12 Si6 2.253138 1_554
Co12 Si11 2.415560 1_555
Co12 Si11 2.415560 1_655
Co12 Co17 2.460120 1_565
Co12 Co17 2.460120 1_665
Co12 Co15 2.460147 1_554
Co12 Co15 2.460147 1_654
Co12 Co24 2.490800 1_555
Co13 Si7 2.253218 1_556
Co13 Si10 2.415100 1_455
Co13 Si10 2.415100 1_555
Co13 Co16 2.460100 1_445
Co13 Co16 2.460100 1_545
Co13 Co14 2.460201 1_556
Co13 Co14 2.460201 1_456
Co13 Co25 2.489944 1_555
Co14 Si8 2.253488 1_555
Co14 Si7 2.415342 1_555
Co14 Si7 2.415342 1_655
Co14 Co17 2.460223 1_555
Co14 Co17 2.460223 1_655
Co14 Co26 2.490392 1_555
Co15 Si9 2.252931 1_555
Co15 Si6 2.415343 1_455
Co15 Si6 2.415343 1_555
Co15 Co16 2.460112 1_455
Co15 Co16 2.460112 1_555
Co15 Co27 2.490432 1_555
Co16 Si10 2.252952 1_565
Co16 Si9 2.415154 1_655
Co16 Si9 2.415154 1_555
Co16 Co28 2.490079 1_555
Co17 Si11 2.253303 1_545
Co17 Si8 2.415515 1_555
Co17 Si8 2.415515 1_455
Co17 Co29 2.490712 1_555
Co18 Si12 2.222512 1_555
Co18 Si5 2.344400 1_555
Co18 Si5 2.344400 1_655
Co18 Si3 2.357659 1_555
Co18 Si3 2.357659 1_655
Co18 Co9 2.678708 1_555
Co18 Co9 2.678708 1_655
Co18 Co5 2.702402 1_655
Co18 Co5 2.702402 1_555
Co18 Lu0 3.192675 1_555
Co18 Lu4 3.240577 1_555
Co19 Si13 2.222235 1_555
Co19 Si4 2.344271 1_555
Co19 Si4 2.344271 1_455
Co19 Si2 2.357654 1_455
Co19 Si2 2.357654 1_555
Co19 Co8 2.678336 1_455
Co19 Co8 2.678336 1_555
Co19 Co4 2.702178 1_455
Co19 Co4 2.702178 1_555
Co19 Lu1 3.192179 1_555
Co19 Lu5 3.239771 1_555
Co20 Si14 2.222510 1_555
Co20 Si1 2.344264 1_555
Co20 Si1 2.344264 1_655
Co20 Si5 2.357615 1_555
Co20 Si5 2.357615 1_655
Co20 Lu2 3.191844 1_555
Co20 Lu0 3.239871 1_555
Co21 Si15 2.222382 1_555
Co21 Si0 2.344449 1_455
Co21 Si0 2.344449 1_555
Co21 Si4 2.357685 1_555
Co21 Si4 2.357685 1_455
Co21 Lu3 3.193364 1_555
Co21 Lu1 3.240489 1_555
Co22 Si16 2.222147 1_555
Co22 Si3 2.344294 1_655
Co22 Si3 2.344294 1_555
Co22 Si1 2.357629 1_655
Co22 Si1 2.357629 1_555
Co22 Co7 2.678438 1_555
Co22 Co7 2.678438 1_655
Co22 Co3 2.702311 1_555
Co22 Co3 2.702311 1_655
Co22 Lu4 3.192929 1_555
Co22 Lu2 3.240075 1_555
Co23 Si17 2.222521 1_555
Co23 Si2 2.344332 1_455
Co23 Si2 2.344332 1_555
Co23 Si0 2.357593 1_555
Co23 Si0 2.357593 1_455
Co23 Co6 2.678707 1_455
Co23 Co6 2.678707 1_555
Co23 Lu5 3.192013 1_555
Co23 Lu3 3.240292 1_555
Co24 Si8 2.234449 1_565
Co24 Si11 2.269355 1_655
Co24 Si11 2.269355 1_555
Co24 Si12 2.280491 1_555
Co24 Co5 2.600108 1_655
Co24 Co5 2.600108 1_555
Co24 Lu5 3.001200 1_665
Co24 Lu5 3.001200 1_565
Co24 Lu0 3.065206 1_555
Co25 Si9 2.234056 1_545
Co25 Si10 2.269187 1_555
Co25 Si10 2.269187 1_455
Co25 Si13 2.279802 1_555
Co25 Co4 2.599893 1_555
Co25 Co4 2.599893 1_455
Co25 Lu4 3.000150 1_545
Co25 Lu4 3.000150 1_445
Co25 Lu1 3.063917 1_555
Co26 Si10 2.234219 1_554
Co26 Si7 2.269250 1_555
Co26 Si7 2.269250 1_655
Co26 Si14 2.279764 1_555
Co26 Lu1 3.000235 1_654
Co26 Lu1 3.000235 1_554
Co26 Lu2 3.064705 1_555
Co27 Si11 2.234242 1_556
Co27 Si6 2.269329 1_555
Co27 Si6 2.269329 1_455
Co27 Si15 2.280570 1_555
Co27 Lu0 3.001326 1_556
Co27 Lu0 3.001326 1_456
Co27 Lu3 3.064961 1_555
Co28 Si6 2.234112 1_555
Co28 Si9 2.269227 1_655
Co28 Si9 2.269227 1_555
Co28 Si16 2.280109 1_555
Co28 Co3 2.599845 1_555
Co28 Co3 2.599845 1_655
Co28 Lu3 3.000664 1_555
Co28 Lu3 3.000664 1_655
Co28 Lu4 3.064033 1_555
Co29 Si7 2.234564 1_555
Co29 Si8 2.269344 1_455
Co29 Si8 2.269344 1_555
Co29 Si17 2.280132 1_555
Co29 Lu2 3.000758 1_555
Co29 Lu2 3.000758 1_455
Co29 Lu5 3.065187 1_555
Si0 Si2 2.590248 1_555
Si0 Si4 2.590865 1_555
Si1 Si5 2.590097 1_555
Si1 Si3 2.590548 1_555
Si2 Si4 2.590342 1_555
Si3 Si5 2.590584 1_555
