# generated using pymatgen
data_Mg2Sc3MnS8
_symmetry_space_group_name_H-M   'P 1'
_cell_length_a   7.52845767
_cell_length_b   7.47838708
_cell_length_c   7.53267421
_cell_angle_alpha   59.84947479
_cell_angle_beta   59.87627726
_cell_angle_gamma   59.90651194
_symmetry_Int_Tables_number   1
_chemical_formula_structural   Mg2Sc3MnS8
_chemical_formula_sum   'Mg2 Sc3 Mn1 S8'
_cell_volume   299.04623372
_cell_formula_units_Z   1
loop_
 _symmetry_equiv_pos_site_id
 _symmetry_equiv_pos_as_xyz
  1  'x, y, z'
loop_
 _atom_site_type_symbol
 _atom_site_label
 _atom_site_symmetry_multiplicity
 _atom_site_fract_x
 _atom_site_fract_y
 _atom_site_fract_z
 _atom_site_occupancy
  Mg  Mg0  1  0.87512700  0.87444000  0.87533700  1
  Mg  Mg1  1  0.12488900  0.12556700  0.12463400  1
  Sc  Sc0  1  0.50005600  0.49994800  0.50000300  1
  Sc  Sc1  1  0.50005100  0.49999400  0.00003300  1
  Sc  Sc2  1  0.99999700  0.50000600  0.49995600  1
  Mn  Mn0  1  0.49988300  0.99998600  0.50014500  1
  S  S0  1  0.73651800  0.75052800  0.73637300  1
  S  S1  1  0.26433600  0.24828600  0.72267300  1
  S  S2  1  0.25809100  0.72663200  0.25779400  1
  S  S3  1  0.72227900  0.24770300  0.26487200  1
  S  S4  1  0.74190100  0.27337300  0.74217700  1
  S  S5  1  0.27772600  0.75230900  0.73509100  1
  S  S6  1  0.26349200  0.24949000  0.26359500  1
  S  S7  1  0.73566000  0.75173200  0.27731900  1
loop_
_geom_bond_atom_site_label_1
_geom_bond_atom_site_label_2
_geom_bond_distance
_geom_bond_site_symmetry_2
Mg0 S4 2.432202 1_565
Mg0 S0 2.466551 1_555
Mg0 S7 2.469221 1_556
Mg0 S5 2.473074 1_655
Mg1 S2 2.432213 1_545
Mg1 S6 2.466561 1_555
Mg1 S1 2.469089 1_554
Mg1 S3 2.473141 1_455
Mn0 S5 2.490533 1_555
Mn0 S3 2.491987 1_565
Mn0 S1 2.498678 1_565
Mn0 S7 2.499975 1_555
Mn0 S0 2.516883 1_555
Mn0 S6 2.517299 1_565
S0 Sc1 2.584957 1_556
S0 Sc2 2.587514 1_555
S1 Sc0 2.587495 1_555
S1 Sc2 2.596225 1_455
S2 Sc2 2.571847 1_455
S2 Sc1 2.573010 1_555
S2 Sc0 2.579344 1_555
S3 Sc0 2.590681 1_555
S3 Sc1 2.596569 1_555
S4 Sc2 2.571893 1_555
S4 Sc1 2.573447 1_556
S4 Sc0 2.578533 1_555
S5 Sc0 2.591044 1_555
S5 Sc1 2.597622 1_556
S6 Sc1 2.585222 1_555
S6 Sc2 2.587209 1_455
S7 Sc0 2.587536 1_555
S7 Sc2 2.595813 1_555
