# generated using pymatgen
data_TiAlCu2
_symmetry_space_group_name_H-M   'P 1'
_cell_length_a   2.86868800
_cell_length_b   2.86868800
_cell_length_c   6.70840900
_cell_angle_alpha   90.00000000
_cell_angle_beta   90.00000000
_cell_angle_gamma   90.00000000
_symmetry_Int_Tables_number   1
_chemical_formula_structural   TiAlCu2
_chemical_formula_sum   'Ti1 Al1 Cu2'
_cell_volume   55.20598542
_cell_formula_units_Z   1
loop_
 _symmetry_equiv_pos_site_id
 _symmetry_equiv_pos_as_xyz
  1  'x, y, z'
loop_
 _atom_site_type_symbol
 _atom_site_label
 _atom_site_symmetry_multiplicity
 _atom_site_fract_x
 _atom_site_fract_y
 _atom_site_fract_z
 _atom_site_occupancy
  Ti  Ti0  1  0.00000000  0.00000000  0.50000000  1
  Al  Al0  1  0.00000000  0.00000000  0.00000000  1
  Cu  Cu0  1  0.50000000  0.50000000  0.23330800  1
  Cu  Cu1  1  0.50000000  0.50000000  0.76669200  1
loop_
_geom_bond_atom_site_label_1
_geom_bond_atom_site_label_2
_geom_bond_distance
_geom_bond_site_symmetry_2
Al0 Cu0 2.562090 1_545
Al0 Cu0 2.562090 1_555
Al0 Cu0 2.562090 1_445
Al0 Cu0 2.562090 1_455
Al0 Cu1 2.562090 1_444
Al0 Cu1 2.562090 1_454
Al0 Cu1 2.562090 1_544
Al0 Cu1 2.562090 1_554
Cu0 Ti0 2.704716 1_665
Cu0 Ti0 2.704716 1_555
Cu0 Ti0 2.704716 1_565
Cu0 Ti0 2.704716 1_655
Cu1 Ti0 2.704716 1_555
Cu1 Ti0 2.704716 1_565
Cu1 Ti0 2.704716 1_655
Cu1 Ti0 2.704716 1_665
