# generated using pymatgen
data_Mg3Si4O13
_symmetry_space_group_name_H-M   'P 1'
_cell_length_a   5.38308265
_cell_length_b   5.38308265
_cell_length_c   10.33073723
_cell_angle_alpha   85.47723897
_cell_angle_beta   85.47723897
_cell_angle_gamma   120.62766527
_symmetry_Int_Tables_number   1
_chemical_formula_structural   Mg3Si4O13
_chemical_formula_sum   'Mg3 Si4 O13'
_cell_volume   254.31163328
_cell_formula_units_Z   1
loop_
 _symmetry_equiv_pos_site_id
 _symmetry_equiv_pos_as_xyz
  1  'x, y, z'
loop_
 _atom_site_type_symbol
 _atom_site_label
 _atom_site_symmetry_multiplicity
 _atom_site_fract_x
 _atom_site_fract_y
 _atom_site_fract_z
 _atom_site_occupancy
  Mg  Mg0  1  0.17630900  0.82425000  0.49956300  1
  Mg  Mg1  1  0.82425000  0.17630900  0.49956300  1
  Mg  Mg2  1  0.50045300  0.50045300  0.50000500  1
  Si  Si0  1  0.41013900  0.74243000  0.77214600  1
  Si  Si1  1  0.74243000  0.41013900  0.77214600  1
  Si  Si2  1  0.58969800  0.25756000  0.22802200  1
  Si  Si3  1  0.25756000  0.58969800  0.22802200  1
  O  O0  1  0.56148500  0.05926800  0.82712700  1
  O  O1  1  0.05926800  0.56148500  0.82712700  1
  O  O2  1  0.43762700  0.94038100  0.17391000  1
  O  O3  1  0.94038100  0.43762700  0.17391000  1
  O  O4  1  0.55637300  0.55637300  0.82584800  1
  O  O5  1  0.44382300  0.44382300  0.17498600  1
  O  O6  1  0.45814800  0.79223800  0.61156900  1
  O  O7  1  0.79223800  0.45814800  0.61156900  1
  O  O8  1  0.54170300  0.20794100  0.38906200  1
  O  O9  1  0.20794100  0.54170300  0.38906200  1
  O  O10  1  0.12220100  0.12220100  0.58382100  1
  O  O11  1  0.87697700  0.87697700  0.41590000  1
  O  O12  1  0.01499600  0.01499600  0.97064400  1
loop_
_geom_bond_atom_site_label_1
_geom_bond_atom_site_label_2
_geom_bond_distance
_geom_bond_site_symmetry_2
Mg0 O11 2.017649 1_455
Mg0 O10 2.017719 1_565
Mg0 O9 2.037785 1_555
Mg0 O6 2.045036 1_555
Mg0 O8 2.138376 1_565
Mg0 O7 2.146804 1_455
Mg1 O11 2.017649 1_545
Mg1 O10 2.017719 1_655
Mg1 O8 2.037785 1_555
Mg1 O7 2.045036 1_555
Mg1 O9 2.138376 1_655
Mg1 O6 2.146804 1_545
Mg2 O11 2.056675 1_555
Mg2 O10 2.064262 1_555
Mg2 O9 2.107858 1_555
Mg2 O8 2.107858 1_555
Mg2 O7 2.110897 1_555
Mg2 O6 2.110897 1_555
O0 Si0 1.644768 1_545
O0 Si1 1.645550 1_555
O1 Si1 1.644768 1_455
O1 Si0 1.645550 1_555
O2 Si2 1.642074 1_565
O2 Si3 1.642975 1_555
O3 Si3 1.642074 1_655
O3 Si2 1.642975 1_555
O4 Si0 1.647770 1_555
O4 Si1 1.647770 1_555
O5 Si2 1.644879 1_555
O5 Si3 1.644879 1_555
O6 Si0 1.637741 1_555
O7 Si1 1.637741 1_555
O8 Si2 1.642462 1_555
O9 Si3 1.642462 1_555
