# generated using pymatgen
data_Ce8Pd24Pb
_symmetry_space_group_name_H-M   'P 1'
_cell_length_a   8.51420000
_cell_length_b   8.51420000
_cell_length_c   8.51420000
_cell_angle_alpha   90.00000000
_cell_angle_beta   90.00000000
_cell_angle_gamma   90.00000000
_symmetry_Int_Tables_number   1
_chemical_formula_structural   Ce8Pd24Pb
_chemical_formula_sum   'Ce8 Pd24 Pb1'
_cell_volume   617.20799468
_cell_formula_units_Z   1
loop_
 _symmetry_equiv_pos_site_id
 _symmetry_equiv_pos_as_xyz
  1  'x, y, z'
loop_
 _atom_site_type_symbol
 _atom_site_label
 _atom_site_symmetry_multiplicity
 _atom_site_fract_x
 _atom_site_fract_y
 _atom_site_fract_z
 _atom_site_occupancy
  Ce  Ce0  1  0.24786200  0.24786200  0.24786200  1
  Ce  Ce1  1  0.75213800  0.75213800  0.75213800  1
  Ce  Ce2  1  0.75213800  0.75213800  0.24786200  1
  Ce  Ce3  1  0.75213800  0.24786200  0.75213800  1
  Ce  Ce4  1  0.24786200  0.24786200  0.75213800  1
  Ce  Ce5  1  0.24786200  0.75213800  0.24786200  1
  Ce  Ce6  1  0.24786200  0.75213800  0.75213800  1
  Ce  Ce7  1  0.75213800  0.24786200  0.24786200  1
  Pd  Pd0  1  0.26758400  0.50000000  0.00000000  1
  Pd  Pd1  1  0.73241600  0.50000000  0.00000000  1
  Pd  Pd2  1  0.00000000  0.26758400  0.50000000  1
  Pd  Pd3  1  0.50000000  0.26758400  0.00000000  1
  Pd  Pd4  1  0.00000000  0.73241600  0.50000000  1
  Pd  Pd5  1  0.50000000  0.73241600  0.00000000  1
  Pd  Pd6  1  0.50000000  0.00000000  0.26758400  1
  Pd  Pd7  1  0.26758400  0.00000000  0.50000000  1
  Pd  Pd8  1  0.50000000  0.00000000  0.73241600  1
  Pd  Pd9  1  0.73241600  0.00000000  0.50000000  1
  Pd  Pd10  1  0.00000000  0.50000000  0.26758400  1
  Pd  Pd11  1  0.00000000  0.50000000  0.73241600  1
  Pd  Pd12  1  0.25471500  0.50000000  0.50000000  1
  Pd  Pd13  1  0.74528500  0.50000000  0.50000000  1
  Pd  Pd14  1  0.50000000  0.25471500  0.50000000  1
  Pd  Pd15  1  0.50000000  0.74528500  0.50000000  1
  Pd  Pd16  1  0.50000000  0.50000000  0.25471500  1
  Pd  Pd17  1  0.50000000  0.50000000  0.74528500  1
  Pd  Pd18  1  0.32227300  0.00000000  0.00000000  1
  Pd  Pd19  1  0.67772700  0.00000000  0.00000000  1
  Pd  Pd20  1  0.00000000  0.32227300  0.00000000  1
  Pd  Pd21  1  0.00000000  0.67772700  0.00000000  1
  Pd  Pd22  1  0.00000000  0.00000000  0.32227300  1
  Pd  Pd23  1  0.00000000  0.00000000  0.67772700  1
  Pb  Pb0  1  0.00000000  0.00000000  0.00000000  1
loop_
_geom_bond_atom_site_label_1
_geom_bond_atom_site_label_2
_geom_bond_distance
_geom_bond_site_symmetry_2
Ce0 Pd7 3.015014 1_555
Ce0 Pd2 3.015014 1_555
Ce0 Pd6 3.015014 1_555
Ce0 Pd10 3.015014 1_555
Ce0 Pd3 3.015014 1_555
Ce0 Pd0 3.015014 1_555
Ce0 Pd14 3.036528 1_555
Ce0 Pd12 3.036528 1_555
Ce0 Pd16 3.036528 1_555
Ce0 Pd20 3.050985 1_555
Ce0 Pd18 3.050985 1_555
Ce0 Pd22 3.050985 1_555
Ce1 Pd8 3.015014 1_565
Ce1 Pd11 3.015014 1_655
Ce1 Pd1 3.015014 1_556
Ce1 Pd5 3.015014 1_556
Ce1 Pd4 3.015014 1_655
Ce1 Pd9 3.015014 1_565
Ce1 Pd15 3.036528 1_555
Ce1 Pd13 3.036528 1_555
Ce1 Pd17 3.036528 1_555
Ce1 Pd21 3.050985 1_656
Ce1 Pd19 3.050985 1_566
Ce1 Pd23 3.050985 1_665
Ce2 Pd5 3.015014 1_555
Ce2 Pd1 3.015014 1_555
Ce2 Pd6 3.015014 1_565
Ce2 Pd10 3.015014 1_655
Ce2 Pd4 3.015014 1_655
Ce2 Pd9 3.015014 1_565
Ce2 Pd15 3.036528 1_555
Ce2 Pd16 3.036528 1_555
Ce2 Pd13 3.036528 1_555
Ce2 Pd21 3.050985 1_655
Ce2 Pd19 3.050985 1_565
Ce2 Pd22 3.050985 1_665
Ce3 Pd8 3.015014 1_555
Ce3 Pd9 3.015014 1_555
Ce3 Pd2 3.015014 1_655
Ce3 Pd11 3.015014 1_655
Ce3 Pd1 3.015014 1_556
Ce3 Pd3 3.015014 1_556
Ce3 Pd14 3.036528 1_555
Ce3 Pd13 3.036528 1_555
Ce3 Pd17 3.036528 1_555
Ce3 Pd23 3.050985 1_655
Ce3 Pd19 3.050985 1_556
Ce3 Pd20 3.050985 1_656
Ce4 Pd7 3.015014 1_555
Ce4 Pd11 3.015014 1_555
Ce4 Pd2 3.015014 1_555
Ce4 Pd8 3.015014 1_555
Ce4 Pd0 3.015014 1_556
Ce4 Pd3 3.015014 1_556
Ce4 Pd14 3.036528 1_555
Ce4 Pd12 3.036528 1_555
Ce4 Pd17 3.036528 1_555
Ce4 Pd18 3.050985 1_556
Ce4 Pd23 3.050985 1_555
Ce4 Pd20 3.050985 1_556
Ce5 Pd5 3.015014 1_555
Ce5 Pd10 3.015014 1_555
Ce5 Pd0 3.015014 1_555
Ce5 Pd4 3.015014 1_555
Ce5 Pd6 3.015014 1_565
Ce5 Pd7 3.015014 1_565
Ce5 Pd15 3.036528 1_555
Ce5 Pd12 3.036528 1_555
Ce5 Pd16 3.036528 1_555
Ce5 Pd21 3.050985 1_555
Ce5 Pd18 3.050985 1_565
Ce5 Pd22 3.050985 1_565
Ce6 Pd11 3.015014 1_555
Ce6 Pd4 3.015014 1_555
Ce6 Pd8 3.015014 1_565
Ce6 Pd0 3.015014 1_556
Ce6 Pd7 3.015014 1_565
Ce6 Pd5 3.015014 1_556
Ce6 Pd15 3.036528 1_555
Ce6 Pd12 3.036528 1_555
Ce6 Pd17 3.036528 1_555
Ce6 Pd23 3.050985 1_565
Ce6 Pd21 3.050985 1_556
Ce6 Pd18 3.050985 1_566
Ce7 Pd6 3.015014 1_555
Ce7 Pd3 3.015014 1_555
Ce7 Pd9 3.015014 1_555
Ce7 Pd1 3.015014 1_555
Ce7 Pd2 3.015014 1_655
Ce7 Pd10 3.015014 1_655
Ce7 Pd14 3.036528 1_555
Ce7 Pd16 3.036528 1_555
Ce7 Pd13 3.036528 1_555
Ce7 Pd19 3.050985 1_555
Ce7 Pd20 3.050985 1_655
Ce7 Pd22 3.050985 1_655
Pd0 Pd17 2.935818 1_554
Pd0 Pd16 2.935818 1_555
Pd1 Pd17 2.935818 1_554
Pd1 Pd16 2.935818 1_555
Pd10 Pd12 2.935818 1_555
Pd10 Pd13 2.935818 1_455
Pd11 Pd12 2.935818 1_555
Pd11 Pd13 2.935818 1_455
Pd12 Pd4 2.935818 1_555
Pd12 Pd2 2.935818 1_555
Pd12 Pd15 2.953451 1_555
Pd12 Pd16 2.953451 1_555
Pd12 Pd14 2.953451 1_555
Pd12 Pd17 2.953451 1_555
Pd13 Pd4 2.935818 1_655
Pd13 Pd2 2.935818 1_655
Pd13 Pd15 2.953451 1_555
Pd13 Pd16 2.953451 1_555
Pd13 Pd14 2.953451 1_555
Pd13 Pd17 2.953451 1_555
Pd14 Pd9 2.935818 1_555
Pd14 Pd8 2.935818 1_555
Pd14 Pd6 2.935818 1_555
Pd14 Pd7 2.935818 1_555
Pd14 Pd16 2.953451 1_555
Pd14 Pd17 2.953451 1_555
Pd15 Pd8 2.935818 1_565
Pd15 Pd9 2.935818 1_565
Pd15 Pd6 2.935818 1_565
Pd15 Pd7 2.935818 1_565
Pd15 Pd16 2.953451 1_555
Pd15 Pd17 2.953451 1_555
Pd16 Pd5 2.935818 1_555
Pd16 Pd3 2.935818 1_555
Pd17 Pd5 2.935818 1_556
Pd17 Pd3 2.935818 1_556
Pb0 Pd20 2.743897 1_555
Pb0 Pd18 2.743897 1_555
Pb0 Pd22 2.743897 1_555
Pb0 Pd23 2.743897 1_554
Pb0 Pd21 2.743897 1_545
Pb0 Pd19 2.743897 1_455
