# generated using pymatgen
data_Sr3CaSn16
_symmetry_space_group_name_H-M   'P 1'
_cell_length_a   11.45502712
_cell_length_b   11.45502712
_cell_length_c   11.45502712
_cell_angle_alpha   156.01950329
_cell_angle_beta   103.85349147
_cell_angle_gamma   81.19199736
_symmetry_Int_Tables_number   1
_chemical_formula_structural   Sr3CaSn16
_chemical_formula_sum   'Sr3 Ca1 Sn16'
_cell_volume   584.86293000
_cell_formula_units_Z   1
loop_
 _symmetry_equiv_pos_site_id
 _symmetry_equiv_pos_as_xyz
  1  'x, y, z'
loop_
 _atom_site_type_symbol
 _atom_site_label
 _atom_site_symmetry_multiplicity
 _atom_site_fract_x
 _atom_site_fract_y
 _atom_site_fract_z
 _atom_site_occupancy
  Sr  Sr0  1  0.11189400  0.61189400  0.50000000  1
  Sr  Sr1  1  0.13761400  0.38790500  0.74970900  1
  Sr  Sr2  1  0.63819600  0.38790500  0.25029100  1
  Ca  Ca0  1  0.61210800  0.61210800  0.00000000  1
  Sn  Sn0  1  0.90999500  0.40999500  0.50000000  1
  Sn  Sn1  1  0.41154000  0.41154000  0.00000000  1
  Sn  Sn2  1  0.83872700  0.59010400  0.24862300  1
  Sn  Sn3  1  0.34148200  0.59010400  0.75137700  1
  Sn  Sn4  1  0.90708600  0.80298800  0.10409800  1
  Sn  Sn5  1  0.40879400  0.80410100  0.60469300  1
  Sn  Sn6  1  0.83835000  0.19487700  0.64347300  1
  Sn  Sn7  1  0.34176000  0.19595400  0.14580600  1
  Sn  Sn8  1  0.69888900  0.80298800  0.89590200  1
  Sn  Sn9  1  0.19940800  0.80410100  0.39530700  1
  Sn  Sn10  1  0.05014800  0.19595400  0.85419400  1
  Sn  Sn11  1  0.55140500  0.19487700  0.35652700  1
  Sn  Sn12  1  0.62473800  0.00134600  0.62339200  1
  Sn  Sn13  1  0.12480600  0.99995600  0.12485000  1
  Sn  Sn14  1  0.87510600  0.99995600  0.87515000  1
  Sn  Sn15  1  0.37795500  0.00134600  0.37660800  1
loop_
_geom_bond_atom_site_label_1
_geom_bond_atom_site_label_2
_geom_bond_distance
_geom_bond_site_symmetry_2
Ca0 Sn11 3.441638 1_565
Ca0 Sn6 3.441640 1_554
Ca0 Sn6 3.441640 1_565
Ca0 Sn11 3.441641 1_554
Ca0 Sn1 3.489079 1_555
Ca0 Sn15 3.523441 1_565
Ca0 Sn15 3.523444 1_554
Ca0 Sn12 3.523451 1_565
Ca0 Sn12 3.523451 1_554
Ca0 Sn3 3.533310 1_554
Ca0 Sn2 3.533318 1_555
Ca0 Sn8 3.631654 1_554
Ca0 Sn4 3.631659 1_555
Sn0 Sn13 3.350140 1_656
Sn0 Sn14 3.350140 1_555
Sn0 Sn13 3.350140 1_645
Sn0 Sn14 3.350140 1_544
Sn0 Sn4 3.360234 1_545
Sn0 Sn4 3.360234 1_556
Sn0 Sn8 3.360241 1_544
Sn0 Sn8 3.360244 1_555
Sn0 Sr0 3.512233 1_655
Sn0 Sr1 3.548733 1_655
Sn0 Sr2 3.548733 1_555
Sn1 Sn15 3.338076 1_565
Sn1 Sn12 3.338078 1_565
Sn1 Sn12 3.338078 1_554
Sn1 Sn15 3.338080 1_554
Sn1 Sn9 3.368086 1_544
Sn1 Sn9 3.368086 1_555
Sn1 Sn5 3.368086 1_544
Sn1 Sn5 3.368086 1_555
Sn1 Sr2 3.559911 1_555
Sn1 Sr1 3.559911 1_554
Sn2 Sn6 3.345435 1_565
Sn2 Sn6 3.345435 1_554
Sn2 Sr2 3.517530 1_555
Sn2 Sr0 3.571603 1_655
Sn3 Sn7 3.358313 1_555
Sn3 Sn7 3.358317 1_566
Sn3 Sr1 3.517539 1_555
Sn3 Sr0 3.571609 1_555
Sn4 Sn8 2.941381 1_554
Sn4 Sn6 3.083760 1_565
Sn4 Sn6 3.083760 1_554
Sn4 Sr1 3.475234 1_665
Sn4 Sr1 3.475234 1_654
Sn5 Sn9 2.958186 1_555
Sn5 Sn7 3.088666 1_566
Sn5 Sn7 3.088666 1_555
Sn5 Sr2 3.466939 1_555
Sn5 Sr2 3.466939 1_566
Sn5 Sr0 3.656170 1_555
Sn6 Sr1 3.678078 1_655
Sn7 Sr0 3.470557 1_544
Sn7 Sr0 3.470557 1_555
Sn7 Sr2 3.650909 1_555
Sn8 Sr2 3.475232 1_566
Sn8 Sr2 3.475235 1_555
Sn9 Sr1 3.466939 1_565
Sn9 Sr1 3.466939 1_554
Sn9 Sr0 3.656170 1_555
Sn10 Sn6 2.977106 1_455
Sn10 Sn9 3.088666 1_556
Sn10 Sn9 3.088666 1_545
Sn10 Sn2 3.358317 1_456
Sn10 Sn2 3.358317 1_445
Sn10 Sn14 3.422409 1_445
Sn10 Sr0 3.470557 1_545
Sn10 Sr0 3.470557 1_556
Sn10 Sr1 3.650909 1_555
Sn11 Sn7 2.977113 1_555
Sn11 Sn8 3.083744 1_544
Sn11 Sn8 3.083751 1_555
Sn11 Sn3 3.345435 1_544
Sn11 Sn3 3.345435 1_555
Sn11 Sn15 3.378595 1_555
Sn11 Sr2 3.678073 1_555
Sn12 Sn2 3.343261 1_545
Sn12 Sn2 3.343261 1_556
Sn12 Sn6 3.378595 1_555
Sn12 Sn5 3.441426 1_545
Sn12 Sr2 3.573748 1_545
Sn12 Sr2 3.573748 1_556
Sn13 Sn3 3.364196 1_565
Sn13 Sn3 3.364199 1_554
Sn13 Sn7 3.422409 1_565
Sn13 Sn4 3.438973 1_455
Sn13 Sr0 3.544884 1_565
Sn13 Sr0 3.544884 1_554
Sn13 Sr1 3.546028 1_554
Sn13 Sr1 3.546028 1_565
Sn14 Sn2 3.364190 1_555
Sn14 Sn2 3.364190 1_566
Sn14 Sn8 3.438981 1_555
Sn14 Sr0 3.544884 1_655
Sn14 Sr0 3.544884 1_666
Sn14 Sr2 3.546028 1_555
Sn14 Sr2 3.546028 1_566
Sn15 Sn3 3.343261 1_555
Sn15 Sn3 3.343261 1_544
Sn15 Sn9 3.441434 1_545
Sn15 Sr1 3.573755 1_544
Sn15 Sr1 3.573758 1_555
