# generated using pymatgen
data_Ni3W6C
_symmetry_space_group_name_H-M   'P 1'
_cell_length_a   7.98509564
_cell_length_b   7.98509564
_cell_length_c   19.53952263
_cell_angle_alpha   89.94358303
_cell_angle_beta   89.94358303
_cell_angle_gamma   60.03367757
_symmetry_Int_Tables_number   1
_chemical_formula_structural   Ni3W6C
_chemical_formula_sum   'Ni24 W48 C8'
_cell_volume   1079.32397934
_cell_formula_units_Z   8
loop_
 _symmetry_equiv_pos_site_id
 _symmetry_equiv_pos_as_xyz
  1  'x, y, z'
loop_
 _atom_site_type_symbol
 _atom_site_label
 _atom_site_symmetry_multiplicity
 _atom_site_fract_x
 _atom_site_fract_y
 _atom_site_fract_z
 _atom_site_occupancy
  Ni  Ni0  1  0.49973400  0.49973400  0.70666500  1
  Ni  Ni1  1  0.83338100  0.83338100  0.37509100  1
  Ni  Ni2  1  0.16643500  0.16643500  0.04070200  1
  Ni  Ni3  1  0.27851300  0.27851300  0.93035300  1
  Ni  Ni4  1  0.61057600  0.61057600  0.59695900  1
  Ni  Ni5  1  0.94474200  0.94474200  0.26402700  1
  Ni  Ni6  1  0.27836500  0.94287400  0.93025200  1
  Ni  Ni7  1  0.61220700  0.27836200  0.59711500  1
  Ni  Ni8  1  0.94381600  0.61128400  0.26397700  1
  Ni  Ni9  1  0.94287400  0.27836500  0.93025200  1
  Ni  Ni10  1  0.27836200  0.61220700  0.59711500  1
  Ni  Ni11  1  0.61128400  0.94381600  0.26397700  1
  Ni  Ni12  1  0.83356500  0.83356500  0.95929800  1
  Ni  Ni13  1  0.16661900  0.16661900  0.62490900  1
  Ni  Ni14  1  0.50026600  0.50026600  0.29333500  1
  Ni  Ni15  1  0.05525800  0.05525800  0.73597300  1
  Ni  Ni16  1  0.38942400  0.38942400  0.40304100  1
  Ni  Ni17  1  0.72148700  0.72148700  0.06964700  1
  Ni  Ni18  1  0.05618400  0.38871600  0.73602300  1
  Ni  Ni19  1  0.38779300  0.72163800  0.40288500  1
  Ni  Ni20  1  0.72163500  0.05712600  0.06974800  1
  Ni  Ni21  1  0.38871600  0.05618400  0.73602300  1
  Ni  Ni22  1  0.72163800  0.38779300  0.40288500  1
  Ni  Ni23  1  0.05712600  0.72163500  0.06974800  1
  W  W0  1  0.71380400  0.71380400  0.72792900  1
  W  W1  1  0.04618000  0.04618000  0.39786300  1
  W  W2  1  0.37886400  0.37886400  0.06095200  1
  W  W3  1  0.95987000  0.95987000  0.85579100  1
  W  W4  1  0.29451100  0.29451100  0.52167100  1
  W  W5  1  0.62520000  0.62520000  0.18984500  1
  W  W6  1  0.71483400  0.07128100  0.72690700  1
  W  W7  1  0.04665100  0.40772500  0.39465000  1
  W  W8  1  0.37954000  0.74159700  0.06114600  1
  W  W9  1  0.96072600  0.58043700  0.85578300  1
  W  W10  1  0.28063800  0.92238800  0.51975300  1
  W  W11  1  0.62551400  0.24980900  0.18952200  1
  W  W12  1  0.58043700  0.96072600  0.85578300  1
  W  W13  1  0.92238800  0.28063800  0.51975300  1
  W  W14  1  0.24980900  0.62551400  0.18952200  1
  W  W15  1  0.07128100  0.71483400  0.72690700  1
  W  W16  1  0.40772500  0.04665100  0.39465000  1
  W  W17  1  0.74159700  0.37954000  0.06114600  1
  W  W18  1  0.62113600  0.62113600  0.93904800  1
  W  W19  1  0.95382000  0.95382000  0.60213700  1
  W  W20  1  0.28619600  0.28619600  0.27207100  1
  W  W21  1  0.37480000  0.37480000  0.81015500  1
  W  W22  1  0.70548900  0.70548900  0.47832900  1
  W  W23  1  0.04013000  0.04013000  0.14420900  1
  W  W24  1  0.62046000  0.25840300  0.93885400  1
  W  W25  1  0.95334900  0.59227500  0.60535000  1
  W  W26  1  0.28516600  0.92871900  0.27309300  1
  W  W27  1  0.37448600  0.75019100  0.81047800  1
  W  W28  1  0.71936200  0.07761200  0.48024700  1
  W  W29  1  0.03927400  0.41956300  0.14421700  1
  W  W30  1  0.75019100  0.37448600  0.81047800  1
  W  W31  1  0.07761200  0.71936200  0.48024700  1
  W  W32  1  0.41956300  0.03927400  0.14421700  1
  W  W33  1  0.25840300  0.62046000  0.93885400  1
  W  W34  1  0.59227500  0.95334900  0.60535000  1
  W  W35  1  0.92871900  0.28516600  0.27309300  1
  W  W36  1  0.16641200  0.16641200  0.83332900  1
  W  W37  1  0.50000000  0.50000000  0.50000000  1
  W  W38  1  0.83358800  0.83358800  0.16667100  1
  W  W39  1  0.33338900  0.33338900  0.66605600  1
  W  W40  1  0.66661100  0.66661100  0.33394400  1
  W  W41  1  0.00000000  0.00000000  0.00000000  1
  W  W42  1  0.33376000  0.83362700  0.66629500  1
  W  W43  1  0.66624000  0.16637300  0.33370500  1
  W  W44  1  0.00000000  0.50000000  0.00000000  1
  W  W45  1  0.50000000  0.00000000  0.00000000  1
  W  W46  1  0.83362700  0.33376000  0.66629500  1
  W  W47  1  0.16637300  0.66624000  0.33370500  1
  C  C0  1  0.33292100  0.33292100  0.16632400  1
  C  C1  1  0.66707900  0.66707900  0.83367600  1
  C  C2  1  0.00000000  0.50000000  0.50000000  1
  C  C3  1  0.33254000  0.83457400  0.16714400  1
  C  C4  1  0.66746000  0.16542600  0.83285600  1
  C  C5  1  0.50000000  0.00000000  0.50000000  1
  C  C6  1  0.83457400  0.33254000  0.16714400  1
  C  C7  1  0.16542600  0.66746000  0.83285600  1
loop_
_geom_bond_atom_site_label_1
_geom_bond_atom_site_label_2
_geom_bond_distance
_geom_bond_site_symmetry_2
Ni0 W39 2.434123 1_555
Ni0 W42 2.440314 1_555
Ni0 W46 2.440314 1_555
Ni0 Ni10 2.632674 1_555
Ni0 Ni7 2.632674 1_555
Ni0 Ni4 2.633796 1_555
Ni0 W21 2.658155 1_555
Ni0 W27 2.668414 1_555
Ni0 W30 2.668414 1_555
Ni1 W43 2.440916 1_565
Ni1 W47 2.440916 1_655
Ni1 W40 2.443130 1_555
Ni1 Ni5 2.659562 1_555
Ni1 Ni11 2.660461 1_555
Ni1 Ni8 2.660461 1_555
Ni1 W28 2.661665 1_565
Ni1 W31 2.661665 1_655
Ni1 W22 2.681182 1_555
Ni1 W7 2.969023 1_655
Ni1 W16 2.969023 1_565
Ni1 W1 2.976587 1_665
Ni2 W41 2.435894 1_555
Ni2 W44 2.440264 1_555
Ni2 W45 2.440264 1_555
Ni2 Ni3 2.653953 1_554
Ni2 Ni6 2.655762 1_544
Ni2 Ni9 2.655762 1_454
Ni2 W23 2.670751 1_555
Ni2 W32 2.676053 1_555
Ni2 W29 2.676053 1_555
Ni2 W2 2.964494 1_555
Ni2 W17 2.965686 1_455
Ni2 W8 2.965686 1_545
Ni3 W45 2.448545 1_556
Ni3 W44 2.448545 1_556
Ni3 W36 2.450255 1_555
Ni3 W33 2.659271 1_555
Ni3 W24 2.659271 1_555
Ni3 Ni9 2.680703 1_455
Ni3 Ni6 2.680703 1_545
Ni3 W21 2.698463 1_555
Ni3 W9 2.874622 1_455
Ni3 W12 2.874622 1_545
Ni3 W2 2.906132 1_556
Ni4 W37 2.435960 1_555
Ni4 W42 2.441219 1_555
Ni4 W46 2.441219 1_555
Ni4 Ni7 2.646278 1_555
Ni4 W22 2.662459 1_555
Ni4 W25 2.672280 1_555
Ni4 W34 2.672280 1_555
Ni4 W0 2.931707 1_555
Ni4 W10 2.977173 1_555
Ni4 W13 2.977173 1_555
Ni5 W38 2.447024 1_555
Ni5 W43 2.449143 1_565
Ni5 W47 2.449143 1_655
Ni5 W26 2.662793 1_655
Ni5 W35 2.662793 1_565
Ni5 Ni8 2.666396 1_555
Ni5 W23 2.685893 1_665
Ni5 W11 2.889336 1_565
Ni5 W14 2.889336 1_655
Ni5 W1 2.968946 1_665
Ni6 W36 2.444276 1_565
Ni6 W41 2.447139 1_566
Ni6 W45 2.451525 1_566
Ni6 W33 2.662854 1_555
Ni6 W18 2.663976 1_555
Ni6 Ni9 2.680291 1_465
Ni6 W27 2.693945 1_555
Ni6 W3 2.874940 1_455
Ni6 W12 2.879561 1_555
Ni6 W8 2.911361 1_556
Ni7 W46 2.436418 1_555
Ni7 W37 2.438940 1_555
Ni7 W39 2.445909 1_555
Ni7 W19 2.665438 1_545
Ni7 W28 2.673853 1_555
Ni7 W34 2.682976 1_545
Ni7 W4 2.881915 1_555
Ni7 W13 2.908181 1_555
Ni7 W6 2.911982 1_555
Ni8 W38 2.444702 1_555
Ni8 W40 2.445841 1_555
Ni8 W47 2.447873 1_655
Ni8 W35 2.672108 1_555
Ni8 W20 2.673623 1_655
Ni8 W29 2.690419 1_655
Ni8 W5 2.882339 1_555
Ni8 W14 2.893017 1_655
Ni8 W7 2.915168 1_655
Ni9 W36 2.444276 1_655
Ni9 W41 2.447139 1_656
Ni9 W44 2.451525 1_656
Ni9 W24 2.662854 1_555
Ni9 W18 2.663976 1_555
Ni9 W30 2.693945 1_555
Ni9 W3 2.874940 1_545
Ni9 W9 2.879561 1_555
Ni9 W17 2.911361 1_556
Ni10 W42 2.436418 1_555
Ni10 W37 2.438940 1_555
Ni10 W39 2.445909 1_555
Ni10 Ni4 2.646278 1_555
Ni10 W19 2.665438 1_455
Ni10 Ni7 2.667141 1_555
Ni10 W31 2.673853 1_555
Ni10 W25 2.682976 1_455
Ni10 W4 2.881915 1_555
Ni10 W10 2.908181 1_555
Ni10 W15 2.911982 1_555
Ni11 W38 2.444702 1_555
Ni11 W40 2.445841 1_555
Ni11 W43 2.447873 1_565
Ni11 Ni8 2.656651 1_555
Ni11 Ni5 2.666396 1_555
Ni11 W26 2.672108 1_555
Ni11 W20 2.673623 1_565
Ni11 W32 2.690419 1_565
Ni11 W5 2.882339 1_555
Ni11 W11 2.893017 1_565
Ni11 W16 2.915168 1_565
Ni12 W41 2.435894 1_666
Ni12 W44 2.440264 1_656
Ni12 W45 2.440264 1_566
Ni12 Ni17 2.653953 1_556
Ni12 Ni20 2.655762 1_566
Ni12 Ni23 2.655762 1_656
Ni12 W3 2.670751 1_555
Ni12 W9 2.676053 1_555
Ni12 W12 2.676053 1_555
Ni12 W18 2.964494 1_555
Ni12 W33 2.965686 1_655
Ni12 W24 2.965686 1_565
Ni13 W46 2.440916 1_455
Ni13 W42 2.440916 1_545
Ni13 W39 2.443130 1_555
Ni13 Ni15 2.659562 1_555
Ni13 Ni21 2.660461 1_555
Ni13 Ni18 2.660461 1_555
Ni13 W13 2.661665 1_455
Ni13 W10 2.661665 1_545
Ni13 W4 2.681182 1_555
Ni13 W34 2.969023 1_545
Ni13 W25 2.969023 1_455
Ni13 W19 2.976587 1_445
Ni14 W40 2.434123 1_555
Ni14 W43 2.440314 1_555
Ni14 W47 2.440314 1_555
Ni14 Ni22 2.632674 1_555
Ni14 Ni19 2.632674 1_555
Ni14 Ni16 2.633796 1_555
Ni14 W5 2.658155 1_555
Ni14 W14 2.668414 1_555
Ni14 W11 2.668414 1_555
Ni15 W36 2.447024 1_555
Ni15 W42 2.449143 1_545
Ni15 W46 2.449143 1_455
Ni15 W6 2.662793 1_455
Ni15 W15 2.662793 1_545
Ni15 Ni21 2.666396 1_555
Ni15 Ni18 2.666396 1_555
Ni15 W3 2.685893 1_445
Ni15 W27 2.889336 1_545
Ni15 W30 2.889336 1_455
Ni15 W19 2.968946 1_445
Ni16 W37 2.435960 1_555
Ni16 W43 2.441219 1_555
Ni16 W47 2.441219 1_555
Ni16 Ni22 2.646278 1_555
Ni16 Ni19 2.646278 1_555
Ni16 W4 2.662459 1_555
Ni16 W16 2.672280 1_555
Ni16 W7 2.672280 1_555
Ni16 W20 2.931707 1_555
Ni16 W31 2.977173 1_555
Ni16 W28 2.977173 1_555
Ni17 W44 2.448545 1_655
Ni17 W45 2.448545 1_565
Ni17 W38 2.450255 1_555
Ni17 W8 2.659271 1_555
Ni17 W17 2.659271 1_555
Ni17 Ni20 2.680703 1_565
Ni17 Ni23 2.680703 1_655
Ni17 W5 2.698463 1_555
Ni17 W32 2.874622 1_565
Ni17 W29 2.874622 1_655
Ni17 W18 2.906132 1_554
Ni18 W36 2.444702 1_555
Ni18 W39 2.445841 1_555
Ni18 W46 2.447873 1_455
Ni18 Ni21 2.656651 1_555
Ni18 W15 2.672108 1_555
Ni18 W0 2.673623 1_455
Ni18 W9 2.690419 1_455
Ni18 W21 2.882339 1_555
Ni18 W30 2.893017 1_455
Ni18 W25 2.915168 1_455
Ni19 W47 2.436418 1_555
Ni19 W37 2.438940 1_555
Ni19 W40 2.445909 1_555
Ni19 W1 2.665438 1_565
Ni19 Ni22 2.667141 1_555
Ni19 W10 2.673853 1_555
Ni19 W16 2.682976 1_565
Ni19 W22 2.881915 1_555
Ni19 W31 2.908181 1_555
Ni19 W26 2.911982 1_555
Ni20 W38 2.444276 1_545
Ni20 W41 2.447139 1_655
Ni20 W45 2.451525 1_555
Ni20 W17 2.662854 1_555
Ni20 W2 2.663976 1_555
Ni20 Ni23 2.680291 1_645
Ni20 W11 2.693945 1_555
Ni20 W23 2.874940 1_655
Ni20 W32 2.879561 1_555
Ni20 W24 2.911361 1_554
Ni21 W36 2.444702 1_555
Ni21 W39 2.445841 1_555
Ni21 W42 2.447873 1_545
Ni21 W6 2.672108 1_555
Ni21 W0 2.673623 1_545
Ni21 W12 2.690419 1_545
Ni21 W21 2.882339 1_555
Ni21 W27 2.893017 1_545
Ni21 W34 2.915168 1_545
Ni22 W43 2.436418 1_555
Ni22 W37 2.438940 1_555
Ni22 W40 2.445909 1_555
Ni22 W1 2.665438 1_655
Ni22 W13 2.673853 1_555
Ni22 W7 2.682976 1_655
Ni22 W22 2.881915 1_555
Ni22 W28 2.908181 1_555
Ni22 W35 2.911982 1_555
Ni23 W38 2.444276 1_455
Ni23 W41 2.447139 1_565
Ni23 W44 2.451525 1_555
Ni23 W8 2.662854 1_555
Ni23 W2 2.663976 1_555
Ni23 W14 2.693945 1_555
Ni23 W23 2.874940 1_565
Ni23 W29 2.879561 1_555
Ni23 W33 2.911361 1_554
C0 W32 2.131700 1_555
C0 W29 2.131700 1_555
C0 W14 2.134737 1_555
C0 W11 2.134737 1_555
C0 W2 2.154017 1_555
C0 W20 2.164212 1_555
C1 W12 2.131700 1_555
C1 W9 2.131700 1_555
C1 W27 2.134737 1_555
C1 W30 2.134737 1_555
C1 W18 2.154017 1_555
C1 W0 2.164212 1_555
C2 W4 2.132584 1_555
C2 W22 2.132584 1_455
C2 W7 2.155535 1_555
C2 W25 2.155535 1_455
C2 W31 2.164228 1_555
C2 W13 2.164228 1_455
C3 W32 2.118472 1_565
C3 W14 2.124631 1_555
C3 W23 2.125757 1_565
C3 W5 2.133219 1_555
C3 W8 2.169070 1_555
C3 W26 2.170569 1_555
C4 W12 2.118472 1_545
C4 W30 2.124631 1_555
C4 W3 2.125757 1_545
C4 W21 2.133219 1_555
C4 W24 2.169070 1_555
C4 W6 2.170569 1_555
C5 W4 2.132584 1_555
C5 W22 2.132584 1_545
C5 W16 2.155535 1_555
C5 W34 2.155535 1_545
C5 W28 2.164228 1_555
C5 W10 2.164228 1_545
C6 W29 2.118472 1_655
C6 W11 2.124631 1_555
C6 W23 2.125757 1_655
C6 W5 2.133219 1_555
C6 W17 2.169070 1_555
C6 W35 2.170569 1_555
C7 W9 2.118472 1_455
C7 W27 2.124631 1_555
C7 W3 2.125757 1_455
C7 W21 2.133219 1_555
C7 W33 2.169070 1_555
C7 W15 2.170569 1_555
