# generated using pymatgen
data_Fe2(PdAu)3
_symmetry_space_group_name_H-M   'P 1'
_cell_length_a   3.98469100
_cell_length_b   3.98856300
_cell_length_c   7.78319300
_cell_angle_alpha   90.00000000
_cell_angle_beta   90.00000000
_cell_angle_gamma   90.00000000
_symmetry_Int_Tables_number   1
_chemical_formula_structural   Fe2(PdAu)3
_chemical_formula_sum   'Fe2 Pd3 Au3'
_cell_volume   123.69977363
_cell_formula_units_Z   1
loop_
 _symmetry_equiv_pos_site_id
 _symmetry_equiv_pos_as_xyz
  1  'x, y, z'
loop_
 _atom_site_type_symbol
 _atom_site_label
 _atom_site_symmetry_multiplicity
 _atom_site_fract_x
 _atom_site_fract_y
 _atom_site_fract_z
 _atom_site_occupancy
  Fe  Fe0  1  0.00000000  0.00000000  0.74139400  1
  Fe  Fe1  1  0.00000000  0.00000000  0.25860600  1
  Pd  Pd0  1  0.50000000  0.00000000  0.50000000  1
  Pd  Pd1  1  0.00000000  0.50000000  0.00000000  1
  Pd  Pd2  1  0.00000000  0.50000000  0.50000000  1
  Au  Au0  1  0.50000000  0.50000000  0.74660200  1
  Au  Au1  1  0.50000000  0.50000000  0.25339800  1
  Au  Au2  1  0.50000000  0.00000000  0.00000000  1
loop_
_geom_bond_atom_site_label_1
_geom_bond_atom_site_label_2
_geom_bond_distance
_geom_bond_site_symmetry_2
Fe0 Pd0 2.738502 1_555
Fe0 Pd0 2.738502 1_455
Fe0 Pd2 2.739910 1_555
Fe0 Pd2 2.739910 1_545
Fe0 Pd1 2.833451 1_556
Fe0 Pd1 2.833451 1_546
Fe1 Pd0 2.738502 1_555
Fe1 Pd0 2.738502 1_455
Fe1 Pd2 2.739910 1_555
Fe1 Pd2 2.739910 1_545
Fe1 Pd1 2.833451 1_555
Fe1 Pd1 2.833451 1_545
Pd0 Pd2 2.818971 1_545
Pd0 Pd2 2.818971 1_645
Pd0 Pd2 2.818971 1_655
Pd0 Pd2 2.818971 1_555
Au0 Pd2 2.766469 1_555
Au0 Pd2 2.766469 1_655
Au0 Pd0 2.767863 1_565
Au0 Pd0 2.767863 1_555
Au0 Pd1 2.803425 1_556
Au0 Pd1 2.803425 1_656
Au0 Au2 2.804801 1_566
Au0 Au2 2.804801 1_556
Au0 Fe0 2.819263 1_655
Au0 Fe0 2.819263 1_565
Au0 Fe0 2.819263 1_555
Au0 Fe0 2.819263 1_665
Au1 Pd2 2.766469 1_555
Au1 Pd2 2.766469 1_655
Au1 Pd0 2.767863 1_565
Au1 Pd0 2.767863 1_555
Au1 Pd1 2.803425 1_555
Au1 Pd1 2.803425 1_655
Au1 Au2 2.804801 1_565
Au1 Au2 2.804801 1_555
Au1 Fe1 2.819263 1_555
Au1 Fe1 2.819263 1_565
Au1 Fe1 2.819263 1_655
Au1 Fe1 2.819263 1_665
Au2 Pd1 2.818971 1_555
Au2 Pd1 2.818971 1_655
Au2 Pd1 2.818971 1_545
Au2 Pd1 2.818971 1_645
Au2 Fe1 2.832089 1_655
Au2 Fe1 2.832089 1_555
Au2 Fe0 2.832089 1_554
Au2 Fe0 2.832089 1_654
