# generated using pymatgen
data_K8SnSb4
_symmetry_space_group_name_H-M   'P 1'
_cell_length_a   11.56962550
_cell_length_b   11.56962267
_cell_length_c   11.56962447
_cell_angle_alpha   59.99851731
_cell_angle_beta   59.99853081
_cell_angle_gamma   59.99852432
_symmetry_Int_Tables_number   1
_chemical_formula_structural   K8SnSb4
_chemical_formula_sum   'K16 Sn2 Sb8'
_cell_volume   1095.03557644
_cell_formula_units_Z   2
loop_
 _symmetry_equiv_pos_site_id
 _symmetry_equiv_pos_as_xyz
  1  'x, y, z'
loop_
 _atom_site_type_symbol
 _atom_site_label
 _atom_site_symmetry_multiplicity
 _atom_site_fract_x
 _atom_site_fract_y
 _atom_site_fract_z
 _atom_site_occupancy
  K  K0  1  0.62500254  0.12499795  0.62500243  1
  K  K1  1  0.62500237  0.62500259  0.12499786  1
  K  K2  1  0.12499807  0.62500245  0.62500254  1
  K  K3  1  0.62500284  0.62500254  0.62500234  1
  K  K4  1  0.02243204  0.02243226  0.47757075  1
  K  K5  1  0.77255364  0.22744878  0.22744873  1
  K  K6  1  0.22744882  0.77255410  0.77255390  1
  K  K7  1  0.77255388  0.77255364  0.22744917  1
  K  K8  1  0.77255411  0.22744872  0.77255398  1
  K  K9  1  0.22744835  0.77255379  0.22744909  1
  K  K10  1  0.47757074  0.02243193  0.47757047  1
  K  K11  1  0.47757075  0.02243205  0.02243212  1
  K  K12  1  0.02243193  0.47757080  0.47757050  1
  K  K13  1  0.02243244  0.47757075  0.02243212  1
  K  K14  1  0.22744836  0.22744878  0.77255405  1
  K  K15  1  0.47757078  0.47757088  0.02243149  1
  Sn  Sn0  1  0.75000164  0.75000158  0.75000157  1
  Sn  Sn1  1  0.50000105  0.50000113  0.50000118  1
  Sb  Sb0  1  0.39704136  0.80887736  0.39704173  1
  Sb  Sb1  1  0.85293958  0.85293974  0.44114474  1
  Sb  Sb2  1  0.44114468  0.85293975  0.85293950  1
  Sb  Sb3  1  0.85294951  0.85294906  0.85294945  1
  Sb  Sb4  1  0.80887737  0.39704147  0.39704159  1
  Sb  Sb5  1  0.39704184  0.39704190  0.39704166  1
  Sb  Sb6  1  0.39704167  0.39704128  0.80887734  1
  Sb  Sb7  1  0.85293962  0.44114474  0.85293970  1
loop_
_geom_bond_atom_site_label_1
_geom_bond_atom_site_label_2
_geom_bond_distance
_geom_bond_site_symmetry_2
K0 Sn0 3.542359 1_545
K0 Sn1 3.542423 1_555
K0 Sb3 3.764334 1_545
K0 Sb6 3.764517 1_555
K0 Sb4 3.764518 1_555
K0 Sb1 3.764523 1_545
K0 Sb2 3.764524 1_545
K0 Sb5 3.764527 1_555
K1 Sn0 3.542359 1_554
K1 Sn1 3.542425 1_555
K1 Sb3 3.764330 1_554
K1 Sb4 3.764521 1_555
K1 Sb0 3.764521 1_555
K1 Sb7 3.764524 1_554
K1 Sb2 3.764524 1_554
K1 Sb5 3.764525 1_555
K2 Sn0 3.542361 1_455
K2 Sn1 3.542422 1_555
K2 Sb3 3.764330 1_455
K2 Sb0 3.764517 1_555
K2 Sb6 3.764519 1_555
K2 Sb7 3.764526 1_455
K2 Sb1 3.764526 1_455
K2 Sb5 3.764527 1_555
K3 Sn0 3.542471 1_555
K3 Sn1 3.542540 1_555
K3 Sb1 3.764168 1_555
K3 Sb7 3.764169 1_555
K3 Sb2 3.764171 1_555
K3 Sb4 3.764567 1_555
K3 Sb0 3.764569 1_555
K3 Sb6 3.764572 1_555
K4 Sb4 3.648548 1_455
K4 Sb0 3.648551 1_545
K4 Sb3 3.655664 1_445
K4 Sb1 3.656068 1_445
K5 Sb1 3.648057 1_545
K5 Sb7 3.648058 1_554
K5 Sb5 3.657205 1_555
K5 Sb4 3.657298 1_555
K6 Sb2 3.647817 1_555
K6 Sb3 3.648041 1_455
K6 Sb0 3.657237 1_555
K6 Sb6 3.657242 1_555
K7 Sb1 3.647819 1_555
K7 Sb3 3.648043 1_554
K7 Sb4 3.657235 1_555
K7 Sb0 3.657240 1_555
K8 Sb7 3.647819 1_555
K8 Sb3 3.648042 1_545
K8 Sb4 3.657239 1_555
K8 Sb6 3.657239 1_555
K9 Sb1 3.648056 1_455
K9 Sb2 3.648064 1_554
K9 Sb5 3.657204 1_555
K9 Sb0 3.657298 1_555
K10 Sb5 3.648581 1_555
K10 Sb0 3.648687 1_545
K10 Sb1 3.655558 1_545
K10 Sb2 3.655558 1_545
K11 Sb6 3.648549 1_554
K11 Sb0 3.648552 1_545
K11 Sb3 3.655665 1_544
K11 Sb2 3.656068 1_544
K12 Sb5 3.648581 1_555
K12 Sb4 3.648688 1_455
K12 Sb1 3.655557 1_455
K12 Sb7 3.655560 1_455
K13 Sb6 3.648550 1_554
K13 Sb4 3.648552 1_455
K13 Sb3 3.655660 1_454
K13 Sb7 3.656071 1_454
K14 Sb7 3.648056 1_455
K14 Sb2 3.648058 1_545
K14 Sb5 3.657210 1_555
K14 Sb6 3.657297 1_555
K15 Sb5 3.648583 1_555
K15 Sb6 3.648688 1_554
K15 Sb2 3.655556 1_554
K15 Sb7 3.655557 1_554
Sb0 Sn1 2.917763 1_555
Sb1 Sn0 2.917580 1_555
Sb2 Sn0 2.917582 1_555
Sb3 Sn0 2.917538 1_555
Sb4 Sn1 2.917765 1_555
Sb5 Sn1 2.917866 1_555
Sb6 Sn1 2.917763 1_555
Sb7 Sn0 2.917579 1_555
