# generated using pymatgen
data_MgMn(GeO3)2
_symmetry_space_group_name_H-M   'P 1'
_cell_length_a   5.26927974
_cell_length_b   6.77480543
_cell_length_c   6.77479206
_cell_angle_alpha   86.70608140
_cell_angle_beta   82.38576796
_cell_angle_gamma   82.38558923
_symmetry_Int_Tables_number   1
_chemical_formula_structural   MgMn(GeO3)2
_chemical_formula_sum   'Mg2 Mn2 Ge4 O12'
_cell_volume   237.40659847
_cell_formula_units_Z   2
loop_
 _symmetry_equiv_pos_site_id
 _symmetry_equiv_pos_as_xyz
  1  'x, y, z'
loop_
 _atom_site_type_symbol
 _atom_site_label
 _atom_site_symmetry_multiplicity
 _atom_site_fract_x
 _atom_site_fract_y
 _atom_site_fract_z
 _atom_site_occupancy
  Mg  Mg0  1  0.74999900  0.27211200  0.72788800  1
  Mg  Mg1  1  0.24999800  0.72789200  0.27211000  1
  Mn  Mn0  1  0.25000000  0.09434100  0.90565900  1
  Mn  Mn1  1  0.75000200  0.90566000  0.09434200  1
  Ge  Ge0  1  0.78443200  0.39500100  0.20868700  1
  Ge  Ge1  1  0.71556700  0.79131200  0.60500100  1
  Ge  Ge2  1  0.21556100  0.60500900  0.79131300  1
  Ge  Ge3  1  0.28444000  0.20868700  0.39498700  1
  O  O0  1  0.59445300  0.29034500  0.42792500  1
  O  O1  1  0.90554600  0.57207200  0.70965500  1
  O  O2  1  0.40554800  0.70965800  0.57206900  1
  O  O3  1  0.09445200  0.42793000  0.29034300  1
  O  O4  1  0.11103700  0.14941300  0.62024600  1
  O  O5  1  0.38896400  0.37975300  0.85058900  1
  O  O6  1  0.88893200  0.85058900  0.37974500  1
  O  O7  1  0.61106800  0.62025700  0.14940900  1
  O  O8  1  0.85724700  0.21662900  0.02307200  1
  O  O9  1  0.64275200  0.97692800  0.78336800  1
  O  O10  1  0.14270200  0.78335200  0.97694100  1
  O  O11  1  0.35730000  0.02306000  0.21664800  1
loop_
_geom_bond_atom_site_label_1
_geom_bond_atom_site_label_2
_geom_bond_distance
_geom_bond_site_symmetry_2
Mg0 O5 2.030972 1_555
Mg0 O4 2.030983 1_655
Mg0 O8 2.148652 1_556
Mg0 O9 2.148654 1_545
Mg0 O1 2.280895 1_555
Mg0 O0 2.280905 1_555
Mg1 O6 2.031090 1_455
Mg1 O7 2.031116 1_555
Mg1 O10 2.148633 1_554
Mg1 O11 2.148645 1_565
Mg1 O2 2.280890 1_555
Mg1 O3 2.280905 1_555
Mn0 O4 2.152705 1_555
Mn0 O5 2.152706 1_555
Mn0 O8 2.187956 1_456
Mn0 O9 2.187957 1_545
Mn0 O11 2.262354 1_556
Mn0 O10 2.262357 1_545
Mn1 O6 2.152566 1_555
Mn1 O7 2.152579 1_555
Mn1 O10 2.187735 1_654
Mn1 O11 2.187739 1_565
Mn1 O8 2.262121 1_565
Mn1 O9 2.262155 1_554
Ge0 O7 1.726845 1_555
Ge0 O8 1.764295 1_555
Ge0 O3 1.837019 1_655
Ge0 O0 1.839556 1_555
Ge1 O6 1.726846 1_555
Ge1 O9 1.764276 1_555
Ge1 O2 1.837014 1_555
Ge1 O1 1.839558 1_555
Ge2 O5 1.726932 1_555
Ge2 O10 1.764229 1_555
Ge2 O1 1.837013 1_455
Ge2 O2 1.839586 1_555
Ge3 O4 1.726946 1_555
Ge3 O11 1.764206 1_555
Ge3 O0 1.837007 1_555
Ge3 O3 1.839568 1_555
