# generated using pymatgen
data_Ho3Co2Si3
_symmetry_space_group_name_H-M   'P 1'
_cell_length_a   5.60071302
_cell_length_b   5.60071302
_cell_length_c   13.54771900
_cell_angle_alpha   90.00000000
_cell_angle_beta   90.00000000
_cell_angle_gamma   137.17435723
_symmetry_Int_Tables_number   1
_chemical_formula_structural   Ho3Co2Si3
_chemical_formula_sum   'Ho6 Co4 Si6'
_cell_volume   288.87806756
_cell_formula_units_Z   2
loop_
 _symmetry_equiv_pos_site_id
 _symmetry_equiv_pos_as_xyz
  1  'x, y, z'
loop_
 _atom_site_type_symbol
 _atom_site_label
 _atom_site_symmetry_multiplicity
 _atom_site_fract_x
 _atom_site_fract_y
 _atom_site_fract_z
 _atom_site_occupancy
  Ho  Ho0  1  0.63842500  0.36157500  0.25000000  1
  Ho  Ho1  1  0.36157500  0.63842500  0.75000000  1
  Ho  Ho2  1  0.91915500  0.08084500  0.11187300  1
  Ho  Ho3  1  0.08084500  0.91915500  0.88812700  1
  Ho  Ho4  1  0.08084500  0.91915500  0.61187300  1
  Ho  Ho5  1  0.91915500  0.08084500  0.38812700  1
  Co  Co0  1  0.78636900  0.21363100  0.58081500  1
  Co  Co1  1  0.21363100  0.78636900  0.41918500  1
  Co  Co2  1  0.21363100  0.78636900  0.08081500  1
  Co  Co3  1  0.78636900  0.21363100  0.91918500  1
  Si  Si0  1  0.33040500  0.66959500  0.25000000  1
  Si  Si1  1  0.66959500  0.33040500  0.75000000  1
  Si  Si2  1  0.62111700  0.37888300  0.03948200  1
  Si  Si3  1  0.37888300  0.62111700  0.96051800  1
  Si  Si4  1  0.37888300  0.62111700  0.53948200  1
  Si  Si5  1  0.62111700  0.37888300  0.46051800  1
loop_
_geom_bond_atom_site_label_1
_geom_bond_atom_site_label_2
_geom_bond_distance
_geom_bond_site_symmetry_2
Ho0 Si5 2.857744 1_555
Ho0 Si2 2.857744 1_555
Ho0 Si0 2.861644 1_545
Ho0 Si0 2.861644 1_655
Ho0 Si0 3.212106 1_555
Ho1 Si4 2.857744 1_555
Ho1 Si3 2.857744 1_555
Ho1 Si1 2.861644 1_455
Ho1 Si1 2.861644 1_565
Ho1 Si1 3.212106 1_555
Ho2 Si0 2.922207 1_545
Ho2 Si0 2.922207 1_655
Ho2 Si3 2.926078 1_544
Ho2 Si3 2.926078 1_654
Ho2 Si2 3.094911 1_655
Ho2 Si2 3.094911 1_545
Ho2 Si2 3.259075 1_555
Ho3 Si1 2.922207 1_455
Ho3 Si1 2.922207 1_565
Ho3 Si2 2.926078 1_456
Ho3 Si2 2.926078 1_566
Ho3 Si3 3.094911 1_565
Ho3 Si3 3.094911 1_455
Ho3 Si3 3.259075 1_555
Ho4 Si1 2.922207 1_455
Ho4 Si1 2.922207 1_565
Ho4 Si5 2.926078 1_455
Ho4 Si5 2.926078 1_565
Ho4 Si4 3.094911 1_565
Ho4 Si4 3.094911 1_455
Ho4 Si4 3.259075 1_555
Ho5 Si0 2.922207 1_545
Ho5 Si0 2.922207 1_655
Ho5 Si4 2.926078 1_545
Ho5 Si4 2.926078 1_655
Ho5 Si5 3.094911 1_655
Ho5 Si5 3.094911 1_545
Ho5 Si5 3.259075 1_555
Co0 Si4 2.329221 1_545
Co0 Si4 2.329221 1_655
Co0 Si5 2.371878 1_555
Co0 Si1 2.595476 1_555
Co0 Ho5 2.955010 1_555
Co0 Ho4 2.991910 1_545
Co0 Ho4 2.991910 1_655
Co0 Ho4 3.099558 1_645
Co0 Ho1 3.170112 1_655
Co0 Ho1 3.170112 1_545
Co1 Si5 2.329221 1_455
Co1 Si5 2.329221 1_565
Co1 Si4 2.371878 1_555
Co1 Si0 2.595476 1_555
Co1 Ho4 2.955010 1_555
Co1 Ho5 2.991910 1_565
Co1 Ho5 2.991910 1_455
Co1 Ho5 3.099558 1_465
Co1 Ho0 3.170112 1_565
Co1 Ho0 3.170112 1_455
Co2 Si2 2.329221 1_565
Co2 Si2 2.329221 1_455
Co2 Si3 2.371878 1_554
Co2 Si0 2.595476 1_555
Co2 Ho3 2.955010 1_554
Co2 Ho2 2.991910 1_565
Co2 Ho2 2.991910 1_455
Co2 Ho2 3.099558 1_465
Co2 Ho0 3.170112 1_565
Co2 Ho0 3.170112 1_455
Co3 Si3 2.329221 1_545
Co3 Si3 2.329221 1_655
Co3 Si2 2.371878 1_556
Co3 Si1 2.595476 1_555
Co3 Ho2 2.955010 1_556
Co3 Ho3 2.991910 1_655
Co3 Ho3 2.991910 1_545
Co3 Ho3 3.099558 1_645
Co3 Ho1 3.170112 1_655
Co3 Ho1 3.170112 1_545
Si2 Si3 2.743261 1_554
Si4 Si5 2.743261 1_555
