# generated using pymatgen
data_Ca5(VN3)2
_symmetry_space_group_name_H-M   'P 1'
_cell_length_a   4.96494500
_cell_length_b   6.55178100
_cell_length_c   7.11603686
_cell_angle_alpha   74.98834528
_cell_angle_beta   90.00000000
_cell_angle_gamma   90.00000000
_symmetry_Int_Tables_number   1
_chemical_formula_structural   Ca5(VN3)2
_chemical_formula_sum   'Ca5 V2 N6'
_cell_volume   223.57956174
_cell_formula_units_Z   1
loop_
 _symmetry_equiv_pos_site_id
 _symmetry_equiv_pos_as_xyz
  1  'x, y, z'
loop_
 _atom_site_type_symbol
 _atom_site_label
 _atom_site_symmetry_multiplicity
 _atom_site_fract_x
 _atom_site_fract_y
 _atom_site_fract_z
 _atom_site_occupancy
  Ca  Ca0  1  0.00000000  0.21773200  0.60760900  1
  Ca  Ca1  1  0.50000000  0.80445900  0.41278700  1
  Ca  Ca2  1  0.50000000  0.91691600  0.89046200  1
  Ca  Ca3  1  0.00000000  0.12774800  0.08449700  1
  Ca  Ca4  1  0.00000000  0.61526700  0.16231700  1
  V  V0  1  0.50000000  0.28876200  0.28895200  1
  V  V1  1  0.00000000  0.69837300  0.70863100  1
  N  N0  1  0.00000000  0.43420000  0.82988200  1
  N  N1  1  0.50000000  0.57351600  0.19798400  1
  N  N2  1  0.00000000  0.88915300  0.86654500  1
  N  N3  1  0.50000000  0.11017900  0.13593800  1
  N  N4  1  0.00000000  0.77264300  0.44605400  1
  N  N5  1  0.50000000  0.14893700  0.54036300  1
loop_
_geom_bond_atom_site_label_1
_geom_bond_atom_site_label_2
_geom_bond_distance
_geom_bond_site_symmetry_2
Ca0 N0 2.382287 1_555
Ca0 N2 2.444329 1_545
Ca0 N5 2.589700 1_555
Ca0 N5 2.589700 1_455
Ca1 N1 2.413297 1_555
Ca1 N3 2.418477 1_565
Ca1 N4 2.497318 1_655
Ca1 N4 2.497318 1_555
Ca1 N5 2.641851 1_565
Ca2 N3 2.408418 1_566
Ca2 N2 2.498151 1_655
Ca2 N2 2.498151 1_555
Ca2 N5 2.560399 1_565
Ca2 N1 2.701900 1_556
Ca3 N0 2.330144 1_554
Ca3 N2 2.470847 1_544
Ca3 N3 2.507606 1_555
Ca3 N3 2.507606 1_455
Ca3 N4 2.988579 1_545
Ca4 N2 2.386081 1_554
Ca4 N4 2.493656 1_555
Ca4 N1 2.503188 1_555
Ca4 N1 2.503188 1_455
Ca4 N0 2.908139 1_554
N0 V1 1.722362 1_555
N1 V0 1.809434 1_555
N2 V1 1.884873 1_555
N3 V0 1.792919 1_555
N4 V1 1.804743 1_555
N5 V0 1.786313 1_555
