# generated using pymatgen
data_Co(PO2)2
_symmetry_space_group_name_H-M   'P 1'
_cell_length_a   5.41580100
_cell_length_b   6.57163200
_cell_length_c   7.60837400
_cell_angle_alpha   90.00000000
_cell_angle_beta   90.00000000
_cell_angle_gamma   90.00000000
_symmetry_Int_Tables_number   1
_chemical_formula_structural   Co(PO2)2
_chemical_formula_sum   'Co2 P4 O8'
_cell_volume   270.78698491
_cell_formula_units_Z   2
loop_
 _symmetry_equiv_pos_site_id
 _symmetry_equiv_pos_as_xyz
  1  'x, y, z'
loop_
 _atom_site_type_symbol
 _atom_site_label
 _atom_site_symmetry_multiplicity
 _atom_site_fract_x
 _atom_site_fract_y
 _atom_site_fract_z
 _atom_site_occupancy
  Co  Co0  1  0.00000000  0.50000000  0.00000000  1
  Co  Co1  1  0.00000000  0.00000000  0.00000000  1
  P  P0  1  0.00000000  0.75000000  0.62874700  1
  P  P1  1  0.00000000  0.25000000  0.37125300  1
  P  P2  1  0.50000000  0.75000000  0.15125400  1
  P  P3  1  0.50000000  0.25000000  0.84874600  1
  O  O0  1  0.00000000  0.05558100  0.25954400  1
  O  O1  1  0.00000000  0.94441900  0.74045600  1
  O  O2  1  0.00000000  0.44441900  0.25954400  1
  O  O3  1  0.00000000  0.55558100  0.74045600  1
  O  O4  1  0.26743800  0.75000000  0.03492800  1
  O  O5  1  0.73256200  0.25000000  0.96507200  1
  O  O6  1  0.73256200  0.75000000  0.03492800  1
  O  O7  1  0.26743800  0.25000000  0.96507200  1
loop_
_geom_bond_atom_site_label_1
_geom_bond_atom_site_label_2
_geom_bond_distance
_geom_bond_site_symmetry_2
Co0 O3 2.008204 1_554
Co0 O2 2.008204 1_555
Co0 O4 2.206265 1_555
Co0 O7 2.206265 1_554
Co0 O6 2.206265 1_455
Co0 O5 2.206265 1_454
Co1 O1 2.008204 1_544
Co1 O0 2.008204 1_555
Co1 O4 2.206265 1_545
Co1 O7 2.206265 1_554
Co1 O6 2.206265 1_445
Co1 O5 2.206265 1_454
O0 P1 1.534523 1_555
O1 P0 1.534523 1_555
O2 P1 1.534523 1_555
O3 P0 1.534523 1_555
O4 P2 1.539377 1_555
O5 P3 1.539377 1_555
O6 P2 1.539377 1_555
O7 P3 1.539377 1_555
