# generated using pymatgen
data_La3AgSnSe7
_symmetry_space_group_name_H-M   'P 1'
_cell_length_a   10.92425582
_cell_length_b   10.92425582
_cell_length_c   6.32983900
_cell_angle_alpha   90.00000000
_cell_angle_beta   90.00000000
_cell_angle_gamma   119.99999888
_symmetry_Int_Tables_number   1
_chemical_formula_structural   La3AgSnSe7
_chemical_formula_sum   'La6 Ag2 Sn2 Se14'
_cell_volume   654.19470326
_cell_formula_units_Z   2
loop_
 _symmetry_equiv_pos_site_id
 _symmetry_equiv_pos_as_xyz
  1  'x, y, z'
loop_
 _atom_site_type_symbol
 _atom_site_label
 _atom_site_symmetry_multiplicity
 _atom_site_fract_x
 _atom_site_fract_y
 _atom_site_fract_z
 _atom_site_occupancy
  La  La0  1  0.86656000  0.22349100  0.61747300  1
  La  La1  1  0.64307000  0.86656000  0.11747300  1
  La  La2  1  0.22349100  0.35693000  0.11747300  1
  La  La3  1  0.77650900  0.64307000  0.61747300  1
  La  La4  1  0.35693000  0.13344000  0.61747300  1
  La  La5  1  0.13344000  0.77650900  0.11747300  1
  Ag  Ag0  1  0.00000000  0.00000000  0.55402100  1
  Ag  Ag1  1  0.00000000  0.00000000  0.05402100  1
  Sn  Sn0  1  0.66666700  0.33333300  0.19944500  1
  Sn  Sn1  1  0.33333300  0.66666700  0.69944500  1
  Se  Se0  1  0.66666700  0.33333300  0.80057400  1
  Se  Se1  1  0.33333300  0.66666700  0.30057400  1
  Se  Se2  1  0.16626100  0.26961600  0.59292000  1
  Se  Se3  1  0.89664500  0.16626100  0.09292000  1
  Se  Se4  1  0.26961600  0.10335500  0.09292000  1
  Se  Se5  1  0.73038400  0.89664500  0.59292000  1
  Se  Se6  1  0.10335500  0.83373900  0.59292000  1
  Se  Se7  1  0.83373900  0.73038400  0.09292000  1
  Se  Se8  1  0.57497600  0.08876700  0.37101500  1
  Se  Se9  1  0.48620800  0.57497600  0.87101500  1
  Se  Se10  1  0.42502400  0.91123300  0.87101500  1
  Se  Se11  1  0.51379200  0.42502400  0.37101500  1
  Se  Se12  1  0.91123300  0.48620800  0.37101500  1
  Se  Se13  1  0.08876700  0.51379200  0.87101500  1
loop_
_geom_bond_atom_site_label_1
_geom_bond_atom_site_label_2
_geom_bond_distance
_geom_bond_site_symmetry_2
La0 Se2 3.057365 1_655
La0 Se12 3.083522 1_555
La0 Se5 3.110365 1_545
La0 Se3 3.124335 1_556
La0 Se8 3.171455 1_555
La0 Se0 3.189342 1_555
La0 Se13 3.290472 1_655
La0 Se3 3.424761 1_555
La1 Se3 3.057361 1_565
La1 Se10 3.083540 1_554
La1 Se7 3.110355 1_555
La1 Se5 3.124332 1_555
La1 Se9 3.171456 1_554
La1 Se1 3.189358 1_555
La1 Se8 3.290472 1_565
La1 Se5 3.424759 1_554
La2 Se4 3.057354 1_555
La2 Se9 3.083528 1_554
La2 Se3 3.110364 1_455
La2 Se2 3.124332 1_555
La2 Se13 3.171472 1_554
La2 Se1 3.189361 1_555
La2 Se11 3.290472 1_555
La2 Se2 3.424759 1_554
La3 Se5 3.057354 1_555
La3 Se11 3.083528 1_555
La3 Se6 3.110364 1_655
La3 Se7 3.124332 1_556
La3 Se12 3.171472 1_555
La3 Se0 3.189361 1_555
La3 Se9 3.290472 1_555
La3 Se7 3.424759 1_555
La4 Se6 3.057361 1_545
La4 Se8 3.083540 1_555
La4 Se2 3.110355 1_555
La4 Se4 3.124332 1_556
La4 Se11 3.171456 1_555
La4 Se0 3.189358 1_555
La4 Se10 3.290472 1_545
La4 Se4 3.424759 1_555
La5 Se7 3.057365 1_455
La5 Se13 3.083522 1_554
La5 Se4 3.110365 1_565
La5 Se6 3.124335 1_555
La5 Se10 3.171455 1_554
La5 Se1 3.189342 1_555
La5 Se12 3.290472 1_455
La5 Se6 3.424761 1_554
Ag0 Se6 2.585541 1_545
Ag0 Se5 2.585541 1_445
Ag0 Se2 2.585541 1_555
Ag0 La4 3.435991 1_555
Ag0 La3 3.435993 1_445
Ag0 La0 3.436001 1_455
Ag1 Se3 2.585541 1_455
Ag1 Se4 2.585541 1_555
Ag1 Se7 2.585541 1_445
Ag1 La1 3.435991 1_445
Ag1 La2 3.435993 1_555
Ag1 La5 3.436001 1_545
Se0 Sn0 2.524789 1_556
Se1 Sn1 2.524789 1_555
Se8 Sn0 2.577712 1_555
Se9 Sn1 2.577712 1_555
Se10 Sn1 2.577712 1_555
Se11 Sn0 2.577712 1_555
Se12 Sn0 2.577712 1_555
Se13 Sn1 2.577712 1_555
