# generated using pymatgen
data_Li7Mn4(P2O7)4
_symmetry_space_group_name_H-M   'P 1'
_cell_length_a   9.90665600
_cell_length_b   9.92755928
_cell_length_c   11.37310571
_cell_angle_alpha   77.10908550
_cell_angle_beta   89.81227498
_cell_angle_gamma   89.68578684
_symmetry_Int_Tables_number   1
_chemical_formula_structural   Li7Mn4(P2O7)4
_chemical_formula_sum   'Li14 Mn8 P16 O56'
_cell_volume   1090.32294660
_cell_formula_units_Z   2
loop_
 _symmetry_equiv_pos_site_id
 _symmetry_equiv_pos_as_xyz
  1  'x, y, z'
loop_
 _atom_site_type_symbol
 _atom_site_label
 _atom_site_symmetry_multiplicity
 _atom_site_fract_x
 _atom_site_fract_y
 _atom_site_fract_z
 _atom_site_occupancy
  Li  Li0  1  0.72013700  0.11250500  0.55197900  1
  Li  Li1  1  0.42229700  0.16971500  0.45383500  1
  Li  Li2  1  0.10524300  0.08751300  0.97307900  1
  Li  Li3  1  0.40659300  0.15575400  0.95732800  1
  Li  Li4  1  0.61088500  0.41260800  0.02827600  1
  Li  Li5  1  0.92041400  0.33714700  0.54114500  1
  Li  Li6  1  0.21998000  0.38898700  0.44763300  1
  Li  Li7  1  0.06567900  0.66129900  0.46306900  1
  Li  Li8  1  0.39261700  0.58460200  0.97102700  1
  Li  Li9  1  0.59224900  0.84638000  0.04417300  1
  Li  Li10  1  0.08839200  0.65019300  0.95840100  1
  Li  Li11  1  0.89244000  0.91457500  0.02972600  1
  Li  Li12  1  0.58801000  0.81841800  0.55326000  1
  Li  Li13  1  0.27935200  0.88687700  0.44752900  1
  Mn  Mn0  1  0.91723500  0.20449300  0.31940900  1
  Mn  Mn1  1  0.21205800  0.25737800  0.17610000  1
  Mn  Mn2  1  0.71674300  0.24727300  0.82524800  1
  Mn  Mn3  1  0.42244200  0.29906200  0.67476500  1
  Mn  Mn4  1  0.58257800  0.70181700  0.32882900  1
  Mn  Mn5  1  0.28503400  0.75369900  0.17773900  1
  Mn  Mn6  1  0.78460700  0.73760100  0.82534400  1
  Mn  Mn7  1  0.07571800  0.79806600  0.67271400  1
  P  P0  1  0.45281200  0.02520600  0.24027300  1
  P  P1  1  0.70546400  0.11886600  0.10944600  1
  P  P2  1  0.93178400  0.05920900  0.75678200  1
  P  P3  1  0.14918200  0.12331500  0.57415600  1
  P  P4  1  0.64813300  0.37735300  0.42363600  1
  P  P5  1  0.43293000  0.43977100  0.24322900  1
  P  P6  1  0.04667900  0.52395500  0.24104000  1
  P  P7  1  0.20662800  0.38075100  0.89284300  1
  P  P8  1  0.79416800  0.61771500  0.10909300  1
  P  P9  1  0.95406600  0.47604500  0.75411700  1
  P  P10  1  0.56796700  0.55952600  0.75633000  1
  P  P11  1  0.35029800  0.62347100  0.57270100  1
  P  P12  1  0.85009100  0.87964300  0.42519900  1
  P  P13  1  0.06730200  0.94048300  0.24438700  1
  P  P14  1  0.29562000  0.88112600  0.89123200  1
  P  P15  1  0.54831200  0.97331400  0.76125400  1
  O  O0  1  0.41272400  0.02398400  0.36941600  1
  O  O1  1  0.83939100  0.03063700  0.43967500  1
  O  O2  1  0.08510500  0.08601400  0.27073700  1
  O  O3  1  0.35878500  0.11252100  0.14443600  1
  O  O4  1  0.59805100  0.09635100  0.22237700  1
  O  O5  1  0.82727900  0.17640800  0.16010600  1
  O  O6  1  0.63514000  0.22300900  0.00278200  1
  O  O7  1  0.27517300  0.01951700  0.92334200  1
  O  O8  1  0.07930000  0.11315700  0.70496100  1
  O  O9  1  0.93480300  0.06336300  0.88876100  1
  O  O10  1  0.53820800  0.12128600  0.78810400  1
  O  O11  1  0.28896700  0.18763400  0.58119100  1
  O  O12  1  0.82641000  0.16455600  0.68838400  1
  O  O13  1  0.06244600  0.22354700  0.48240800  1
  O  O14  1  0.56502400  0.27389200  0.51707700  1
  O  O15  1  0.32692200  0.33610000  0.31224500  1
  O  O16  1  0.78994000  0.31430100  0.41626600  1
  O  O17  1  0.03892700  0.37202900  0.22361600  1
  O  O18  1  0.57905800  0.38028500  0.29371000  1
  O  O19  1  0.43430500  0.43653200  0.11102900  1
  O  O20  1  0.76964800  0.48236900  0.07702100  1
  O  O21  1  0.14805500  0.27156700  0.99976600  1
  O  O22  1  0.33191200  0.32066200  0.84306600  1
  O  O23  1  0.09984800  0.40155200  0.78270400  1
  O  O24  1  0.58808900  0.41472800  0.72914700  1
  O  O25  1  0.85253600  0.39450800  0.84402500  1
  O  O26  1  0.08642600  0.52643100  0.36923900  1
  O  O27  1  0.33997000  0.47733400  0.55153300  1
  O  O28  1  0.65259600  0.52481300  0.43982400  1
  O  O29  1  0.93144400  0.47986700  0.62310500  1
  O  O30  1  0.13752200  0.61012300  0.14295800  1
  O  O31  1  0.41620500  0.58512700  0.26994300  1
  O  O32  1  0.89902700  0.59233500  0.22323000  1
  O  O33  1  0.67345900  0.68757900  0.15697300  1
  O  O34  1  0.86514700  0.72282400  0.00285100  1
  O  O35  1  0.22417300  0.51948400  0.92449000  1
  O  O36  1  0.56059000  0.55871600  0.88954500  1
  O  O37  1  0.41931600  0.61247100  0.70314700  1
  O  O38  1  0.96623900  0.62481200  0.78267700  1
  O  O39  1  0.20988100  0.68816700  0.58125700  1
  O  O40  1  0.66943100  0.66897200  0.69282100  1
  O  O41  1  0.43622200  0.72589100  0.48139600  1
  O  O42  1  0.94160100  0.78846200  0.51748900  1
  O  O43  1  0.17347500  0.83724500  0.31283400  1
  O  O44  1  0.70873900  0.82223200  0.41450900  1
  O  O45  1  0.46751800  0.87603000  0.21589800  1
  O  O46  1  0.06565300  0.93656400  0.11204500  1
  O  O47  1  0.92006300  0.88583400  0.29442700  1
  O  O48  1  0.72250100  0.98096500  0.07509300  1
  O  O49  1  0.36605400  0.77696500  0.99682400  1
  O  O50  1  0.17155400  0.81689900  0.84568100  1
  O  O51  1  0.39947700  0.90594100  0.77655700  1
  O  O52  1  0.63864200  0.88188700  0.85717100  1
  O  O53  1  0.91225700  0.91400000  0.73132800  1
  O  O54  1  0.16102700  0.97497200  0.55684700  1
  O  O55  1  0.58622500  0.97600100  0.63125500  1
loop_
_geom_bond_atom_site_label_1
_geom_bond_atom_site_label_2
_geom_bond_distance
_geom_bond_site_symmetry_2
Li0 O55 1.968750 1_545
Li0 O1 2.032340 1_555
Li0 O12 2.038741 1_555
Li0 O14 2.186108 1_555
Li0 O16 2.345724 1_555
Li1 O0 1.909390 1_555
Li1 O14 1.985147 1_555
Li1 O11 1.993518 1_555
Li1 O15 2.240606 1_555
Li2 O7 1.939402 1_555
Li2 O46 1.960359 1_546
Li2 O21 1.966591 1_555
Li2 O9 1.986382 1_455
Li3 O7 1.982312 1_555
Li3 O22 1.989990 1_555
Li3 O3 2.127207 1_556
Li3 O10 2.407022 1_555
Li3 O6 2.453081 1_556
Li4 O20 1.857331 1_555
Li4 O36 1.953901 1_554
Li4 O6 1.980602 1_555
Li4 O19 2.021557 1_555
Li5 O29 1.865469 1_555
Li5 O16 1.974404 1_555
Li5 O13 2.002631 1_655
Li5 O12 2.309600 1_555
Li6 O26 1.962747 1_555
Li6 O27 2.015358 1_555
Li6 O15 2.028037 1_555
Li6 O13 2.241376 1_555
Li6 O11 2.325329 1_555
Li7 O26 1.899150 1_555
Li7 O42 1.953028 1_455
Li7 O39 2.023721 1_555
Li7 O43 2.405765 1_555
Li7 O29 2.621659 1_455
Li8 O35 1.911267 1_555
Li8 O36 1.945598 1_555
Li8 O19 1.954475 1_556
Li8 O49 2.011527 1_555
Li9 O48 1.950740 1_555
Li9 O33 1.966942 1_555
Li9 O52 2.125936 1_554
Li9 O45 2.380045 1_555
Li9 O49 2.444718 1_554
Li10 O35 1.960283 1_555
Li10 O50 2.030406 1_555
Li10 O30 2.105443 1_556
Li10 O38 2.401227 1_455
Li10 O34 2.409259 1_456
Li11 O48 1.915400 1_555
Li11 O9 1.968249 1_564
Li11 O46 1.993619 1_655
Li11 O34 2.013976 1_555
Li12 O55 1.962990 1_555
Li12 O44 1.970672 1_555
Li12 O41 2.032512 1_555
Li12 O40 2.077417 1_555
Li13 O0 1.964733 1_565
Li13 O43 2.010633 1_555
Li13 O54 2.036924 1_555
Li13 O41 2.195382 1_555
Li13 O39 2.312508 1_555
Mn0 O5 2.095977 1_555
Mn0 O1 2.097348 1_555
Mn0 O16 2.122201 1_555
Mn0 O17 2.147440 1_655
Mn0 O2 2.172229 1_655
Mn0 O13 2.391388 1_655
Mn1 O21 2.079679 1_554
Mn1 O3 2.124933 1_555
Mn1 O17 2.185463 1_555
Mn1 O2 2.198177 1_555
Mn1 O15 2.205533 1_555
Mn2 O25 2.038274 1_555
Mn2 O6 2.136071 1_556
Mn2 O24 2.181242 1_555
Mn2 O12 2.197053 1_555
Mn2 O10 2.266269 1_555
Mn3 O27 2.156136 1_555
Mn3 O11 2.157609 1_555
Mn3 O22 2.164232 1_555
Mn3 O24 2.176739 1_555
Mn3 O10 2.250348 1_555
Mn3 O14 2.335251 1_555
Mn4 O28 2.040861 1_555
Mn4 O44 2.117736 1_555
Mn4 O33 2.182000 1_555
Mn4 O31 2.209395 1_555
Mn4 O45 2.221922 1_555
Mn4 O41 2.309730 1_555
Mn5 O30 2.145199 1_555
Mn5 O49 2.170325 1_554
Mn5 O31 2.188824 1_555
Mn5 O43 2.194865 1_555
Mn5 O45 2.279425 1_555
Mn6 O52 2.116365 1_555
Mn6 O40 2.125023 1_555
Mn6 O34 2.147287 1_556
Mn6 O38 2.222967 1_555
Mn6 O53 2.233643 1_555
Mn7 O54 2.124029 1_555
Mn7 O39 2.126069 1_555
Mn7 O53 2.169372 1_455
Mn7 O38 2.179564 1_455
Mn7 O42 2.232234 1_455
Mn7 O50 2.232577 1_555
O0 P0 1.517693 1_555
O1 P12 1.547129 1_545
O2 P13 1.550676 1_545
O3 P0 1.543800 1_555
O4 P0 1.598626 1_555
O4 P1 1.642394 1_555
O5 P1 1.507840 1_555
O6 P1 1.569685 1_555
O7 P14 1.510723 1_545
O8 P3 1.621620 1_555
O8 P2 1.622329 1_455
O9 P2 1.511144 1_555
O10 P15 1.568303 1_545
O11 P3 1.537862 1_555
O12 P2 1.555308 1_555
O13 P3 1.533134 1_555
O14 P4 1.542308 1_555
O15 P5 1.557000 1_555
O16 P4 1.544472 1_555
O17 P6 1.566757 1_555
O18 P5 1.618277 1_555
O18 P4 1.624752 1_555
O19 P5 1.511039 1_555
O20 P8 1.490070 1_555
O21 P7 1.550653 1_555
O22 P7 1.534519 1_555
O23 P7 1.619132 1_555
O23 P9 1.619396 1_455
O24 P10 1.548043 1_555
O25 P9 1.531457 1_555
O26 P6 1.517015 1_555
O27 P11 1.526706 1_555
O28 P4 1.516551 1_555
O29 P9 1.499558 1_555
O30 P6 1.536916 1_555
O31 P5 1.547503 1_555
O32 P6 1.603484 1_655
O32 P8 1.639411 1_555
O33 P8 1.537117 1_555
O34 P8 1.575812 1_555
O35 P7 1.510257 1_555
O36 P10 1.514821 1_555
O37 P11 1.616775 1_555
O37 P10 1.632871 1_555
O38 P9 1.586669 1_555
O39 P11 1.540857 1_555
O40 P10 1.539376 1_555
O41 P11 1.539262 1_555
O42 P12 1.521924 1_555
O43 P13 1.549288 1_555
O44 P12 1.530139 1_555
O45 P0 1.572212 1_565
O46 P13 1.514438 1_555
O47 P13 1.615967 1_655
O47 P12 1.627644 1_555
O48 P1 1.513618 1_565
O49 P14 1.562638 1_555
O50 P14 1.531577 1_555
O51 P15 1.615199 1_555
O51 P14 1.634279 1_555
O52 P15 1.539584 1_555
O53 P2 1.545634 1_565
O54 P3 1.532523 1_565
O55 P15 1.518747 1_555
