# generated using pymatgen
data_Nd12InPt7
_symmetry_space_group_name_H-M   'P 1'
_cell_length_a   11.21755523
_cell_length_b   11.21751909
_cell_length_c   11.21760386
_cell_angle_alpha   114.82964074
_cell_angle_beta   114.83004540
_cell_angle_gamma   99.21537232
_symmetry_Int_Tables_number   1
_chemical_formula_structural   Nd12InPt7
_chemical_formula_sum   'Nd24 In2 Pt14'
_cell_volume   1061.19765530
_cell_formula_units_Z   2
loop_
 _symmetry_equiv_pos_site_id
 _symmetry_equiv_pos_as_xyz
  1  'x, y, z'
loop_
 _atom_site_type_symbol
 _atom_site_label
 _atom_site_symmetry_multiplicity
 _atom_site_fract_x
 _atom_site_fract_y
 _atom_site_fract_z
 _atom_site_occupancy
  Nd  Nd0  1  0.85168388  0.71617453  0.28109800  1
  Nd  Nd1  1  0.14834683  0.28386715  0.71890968  1
  Nd  Nd2  1  0.43504610  0.57059060  0.71890632  1
  Nd  Nd3  1  0.71614500  0.43510388  0.86447503  1
  Nd  Nd4  1  0.06492305  0.78385564  0.13549230  1
  Nd  Nd5  1  0.56490978  0.42937642  0.28108821  1
  Nd  Nd6  1  0.28383806  0.56490199  0.13549061  1
  Nd  Nd7  1  0.93512501  0.21618086  0.86451252  1
  Nd  Nd8  1  0.57056689  0.85167456  0.13545920  1
  Nd  Nd9  1  0.64829522  0.92937740  0.86451128  1
  Nd  Nd10  1  0.42938539  0.14830934  0.86450834  1
  Nd  Nd11  1  0.35167311  0.07059024  0.13549285  1
  Nd  Nd12  1  0.92941254  0.06494153  0.28109141  1
  Nd  Nd13  1  0.07063008  0.93506150  0.71894168  1
  Nd  Nd14  1  0.78383770  0.64831369  0.71890298  1
  Nd  Nd15  1  0.21618808  0.35167491  0.28111795  1
  Nd  Nd16  1  0.17651325  0.67649460  0.85297000  1
  Nd  Nd17  1  0.82352133  0.32350308  0.14706534  1
  Nd  Nd18  1  0.67648566  0.82347054  0.49997599  1
  Nd  Nd19  1  0.32347728  0.17651970  0.49997833  1
  Nd  Nd20  1  0.13525719  0.63521859  0.50004365  1
  Nd  Nd21  1  0.86478717  0.36478305  0.50000234  1
  Nd  Nd22  1  0.63522123  0.13524953  0.49994437  1
  Nd  Nd23  1  0.36473334  0.86474273  0.50000522  1
  In  In0  1  0.49999488  0.50000558  -0.00000206  1
  In  In1  1  0.00000545  0.00000043  0.00000835  1
  Pt  Pt0  1  0.62615378  0.12616827  0.75234664  1
  Pt  Pt1  1  0.37380801  0.87381888  0.24760227  1
  Pt  Pt2  1  0.12618694  0.37383736  0.50001300  1
  Pt  Pt3  1  0.87384920  0.62615710  0.50001840  1
  Pt  Pt4  1  0.36922960  0.86922338  0.84928280  1
  Pt  Pt5  1  0.63075015  0.13076001  0.15073348  1
  Pt  Pt6  1  0.01999062  0.51997735  0.15076061  1
  Pt  Pt7  1  0.86927228  0.01997323  0.49998810  1
  Pt  Pt8  1  0.48002361  0.63071308  0.50000388  1
  Pt  Pt9  1  0.98005596  0.48005582  0.84925915  1
  Pt  Pt10  1  0.13073653  0.98005979  0.50000562  1
  Pt  Pt11  1  0.51993891  0.36926551  0.49998776  1
  Pt  Pt12  1  0.74997588  0.75001106  0.99998817  1
  Pt  Pt13  1  0.25002502  0.24999709  0.00002021  1
loop_
_geom_bond_atom_site_label_1
_geom_bond_atom_site_label_2
_geom_bond_distance
_geom_bond_site_symmetry_2
Nd0 Pt3 2.960142 1_555
Nd0 Pt10 3.010438 1_655
Nd0 Pt12 3.084134 1_554
Nd0 Pt7 3.167296 1_565
Nd0 Pt6 3.390078 1_655
Nd1 Pt2 2.959533 1_555
Nd1 Pt7 3.010611 1_455
Nd1 Pt13 3.084385 1_556
Nd1 Pt10 3.167307 1_545
Nd1 Pt9 3.389929 1_455
Nd2 Pt2 2.959512 1_555
Nd2 Pt8 3.010245 1_555
Nd2 Pt12 3.083947 1_555
Nd2 Pt11 3.167475 1_555
Nd2 Pt4 3.389743 1_555
Nd3 Pt0 2.960246 1_555
Nd3 Pt9 3.010999 1_555
Nd3 Pt12 3.083751 1_555
Nd3 Pt6 3.168097 1_656
Nd3 Pt11 3.390040 1_555
Nd4 Pt1 2.959769 1_555
Nd4 Pt6 3.010940 1_555
Nd4 Pt12 3.084127 1_454
Nd4 Pt9 3.167561 1_454
Nd4 Pt10 3.390403 1_555
Nd5 Pt3 2.960220 1_555
Nd5 Pt11 3.010108 1_555
Nd5 Pt13 3.083578 1_555
Nd5 Pt8 3.167457 1_555
Nd5 Pt5 3.389711 1_555
Nd6 Pt1 2.960095 1_555
Nd6 Pt6 3.010618 1_555
Nd6 Pt13 3.083800 1_555
Nd6 Pt9 3.167495 1_454
Nd6 Pt8 3.390380 1_555
Nd7 Pt0 2.960531 1_555
Nd7 Pt9 3.010812 1_555
Nd7 Pt13 3.083724 1_656
Nd7 Pt6 3.167617 1_656
Nd7 Pt7 3.390339 1_555
Nd8 Pt1 2.959865 1_555
Nd8 Pt5 3.010230 1_565
Nd8 Pt12 3.083569 1_554
Nd8 Pt4 3.166863 1_554
Nd8 Pt7 3.390528 1_565
Nd9 Pt0 2.960358 1_565
Nd9 Pt4 3.010253 1_555
Nd9 Pt12 3.083206 1_555
Nd9 Pt5 3.167383 1_566
Nd9 Pt8 3.390252 1_555
Nd10 Pt0 2.960111 1_555
Nd10 Pt4 3.010484 1_545
Nd10 Pt13 3.083420 1_556
Nd10 Pt5 3.167363 1_556
Nd10 Pt10 3.390175 1_545
Nd11 Pt1 2.959715 1_545
Nd11 Pt5 3.010320 1_555
Nd11 Pt13 3.083496 1_555
Nd11 Pt4 3.167307 1_544
Nd11 Pt11 3.390229 1_555
Nd12 Pt2 2.959859 1_655
Nd12 Pt7 3.010242 1_555
Nd12 Pt12 3.084026 1_544
Nd12 Pt10 3.167334 1_645
Nd12 Pt5 3.390009 1_555
Nd13 Pt3 2.959942 1_455
Nd13 Pt10 3.010629 1_555
Nd13 Pt13 3.083968 1_566
Nd13 Pt7 3.168014 1_465
Nd13 Pt4 3.389518 1_555
Nd14 Pt3 2.959748 1_555
Nd14 Pt11 3.010480 1_555
Nd14 Pt12 3.084069 1_555
Nd14 Pt8 3.167386 1_555
Nd14 Pt9 3.389819 1_555
Nd15 Pt2 2.959763 1_555
Nd15 Pt8 3.010094 1_555
Nd15 Pt13 3.084037 1_555
Nd15 Pt11 3.166812 1_555
Nd15 Pt6 3.390115 1_555
Nd16 Pt4 2.828842 1_555
Nd16 Pt9 2.829228 1_455
Nd16 Pt1 3.371597 1_556
Nd16 Pt3 3.706814 1_455
Nd16 Pt2 3.706887 1_555
Nd17 Pt5 2.829204 1_555
Nd17 Pt6 2.829685 1_655
Nd17 Pt0 3.372335 1_554
Nd17 Pt2 3.706811 1_655
Nd17 Pt3 3.706836 1_555
Nd18 Pt8 2.829680 1_555
Nd18 Pt7 2.829897 1_565
Nd18 Pt3 3.371946 1_555
Nd18 Pt1 3.707554 1_555
Nd18 Pt0 3.707578 1_565
Nd19 Pt11 2.829322 1_555
Nd19 Pt10 2.829540 1_545
Nd19 Pt2 3.371357 1_555
Nd19 Pt0 3.707541 1_555
Nd19 Pt1 3.707618 1_545
Nd20 Pt2 2.917334 1_555
Nd20 Pt3 2.917682 1_455
Nd20 Pt4 3.106106 1_555
Nd20 Pt6 3.106542 1_555
Nd21 Pt3 2.917336 1_555
Nd21 Pt2 2.917672 1_655
Nd21 Pt9 3.106206 1_555
Nd21 Pt5 3.106457 1_555
Nd22 Pt1 2.917946 1_545
Nd22 Pt0 2.918569 1_555
Nd22 Pt11 3.106465 1_555
Nd22 Pt7 3.106791 1_555
Nd23 Pt0 2.917955 1_565
Nd23 Pt1 2.918587 1_555
Nd23 Pt10 3.106578 1_555
Nd23 Pt8 3.106739 1_555
In0 Nd6 3.383901 1_555
In0 Nd1 3.383920 1_554
In0 Nd3 3.384063 1_554
In0 Nd2 3.384141 1_554
In0 Nd8 3.384183 1_555
In0 Nd0 3.384289 1_555
In0 Nd10 3.384367 1_554
In0 Nd5 3.384506 1_555
In1 Nd4 3.383727 1_545
In1 Nd11 3.384108 1_555
In1 Nd12 3.384132 1_455
In1 Nd7 3.384132 1_454
In1 Nd13 3.384197 1_544
In1 Nd15 3.384219 1_555
In1 Nd14 3.384280 1_444
In1 Nd9 3.384485 1_444
