# generated using pymatgen
data_NaCo2(SO4)2
_symmetry_space_group_name_H-M   'P 1'
_cell_length_a   6.34147363
_cell_length_b   7.70925723
_cell_length_c   8.84106172
_cell_angle_alpha   98.82573260
_cell_angle_beta   110.33026754
_cell_angle_gamma   112.86752674
_symmetry_Int_Tables_number   1
_chemical_formula_structural   NaCo2(SO4)2
_chemical_formula_sum   'Na2 Co4 S4 O16'
_cell_volume   352.01840902
_cell_formula_units_Z   2
loop_
 _symmetry_equiv_pos_site_id
 _symmetry_equiv_pos_as_xyz
  1  'x, y, z'
loop_
 _atom_site_type_symbol
 _atom_site_label
 _atom_site_symmetry_multiplicity
 _atom_site_fract_x
 _atom_site_fract_y
 _atom_site_fract_z
 _atom_site_occupancy
  Na  Na0  1  0.55397200  0.19409700  0.90059800  1
  Na  Na1  1  0.44602800  0.80590300  0.09940200  1
  Co  Co0  1  0.00000000  0.00000000  0.50000000  1
  Co  Co1  1  0.50000000  0.00000000  0.50000000  1
  Co  Co2  1  0.19754300  0.18452700  0.20634300  1
  Co  Co3  1  0.80245700  0.81547300  0.79365700  1
  S  S0  1  0.05626300  0.28593700  0.83825800  1
  S  S1  1  0.94373700  0.71406300  0.16174200  1
  S  S2  1  0.23671200  0.74161100  0.70731700  1
  S  S3  1  0.76328800  0.25838900  0.29268300  1
  O  O0  1  0.18202200  0.25182900  0.72567000  1
  O  O1  1  0.81797800  0.74817100  0.27433000  1
  O  O2  1  0.21248800  0.74860500  0.27021700  1
  O  O3  1  0.78751200  0.25139500  0.72978300  1
  O  O4  1  0.01925100  0.11641600  0.92006700  1
  O  O5  1  0.98074900  0.88358400  0.07993300  1
  O  O6  1  0.25887100  0.90487300  0.61547200  1
  O  O7  1  0.74112900  0.09512700  0.38452800  1
  O  O8  1  0.48187700  0.16832700  0.15589100  1
  O  O9  1  0.51812300  0.83167300  0.84410900  1
  O  O10  1  0.87330400  0.20873800  0.17249300  1
  O  O11  1  0.12669600  0.79126200  0.82750700  1
  O  O12  1  0.26667900  0.11573900  0.41971000  1
  O  O13  1  0.73332100  0.88426100  0.58029000  1
  O  O14  1  0.36934000  0.42534900  0.28737200  1
  O  O15  1  0.63066000  0.57465100  0.71262800  1
loop_
_geom_bond_atom_site_label_1
_geom_bond_atom_site_label_2
_geom_bond_distance
_geom_bond_site_symmetry_2
Na0 O3 2.432997 1_555
Na0 O8 2.475247 1_556
Na0 O10 2.499712 1_556
Na0 O6 2.565633 1_545
Na0 O0 2.577941 1_555
Na0 O9 2.665878 1_545
Na1 O2 2.432997 1_555
Na1 O9 2.475247 1_554
Na1 O11 2.499712 1_554
Na1 O7 2.565633 1_565
Na1 O1 2.577941 1_555
Na1 O8 2.665878 1_565
Co0 O12 2.003925 1_555
Co0 O13 2.003925 1_445
Co0 O6 2.067812 1_545
Co0 O7 2.067812 1_455
Co0 O1 2.133449 1_445
Co0 O0 2.133449 1_555
Co1 O12 1.994952 1_555
Co1 O13 1.994952 1_545
Co1 O7 2.088336 1_555
Co1 O6 2.088336 1_545
Co1 O3 2.163146 1_555
Co1 O2 2.163146 1_545
Co2 O14 1.620025 1_555
Co2 O12 1.986177 1_555
Co2 O5 2.044373 1_445
Co2 O8 2.045115 1_555
Co2 O10 2.059126 1_455
Co2 O4 2.258822 1_554
Co3 O15 1.620025 1_555
Co3 O13 1.986177 1_555
Co3 O4 2.044373 1_665
Co3 O9 2.045115 1_555
Co3 O11 2.059126 1_655
Co3 O5 2.258822 1_556
O0 S0 1.526507 1_555
O1 S1 1.526507 1_555
O2 S1 1.525911 1_455
O3 S0 1.525911 1_655
O4 S0 1.567092 1_555
O5 S1 1.567092 1_555
O6 S2 1.587038 1_555
O7 S3 1.587038 1_555
O8 S3 1.552101 1_555
O9 S2 1.552101 1_555
O10 S3 1.536311 1_555
O11 S2 1.536311 1_555
