# generated using pymatgen
data_NaO2
_symmetry_space_group_name_H-M   'P 1'
_cell_length_a   5.19512200
_cell_length_b   6.54575500
_cell_length_c   9.21828900
_cell_angle_alpha   90.00000000
_cell_angle_beta   90.00000000
_cell_angle_gamma   90.00000000
_symmetry_Int_Tables_number   1
_chemical_formula_structural   NaO2
_chemical_formula_sum   'Na8 O16'
_cell_volume   313.47709708
_cell_formula_units_Z   8
loop_
 _symmetry_equiv_pos_site_id
 _symmetry_equiv_pos_as_xyz
  1  'x, y, z'
loop_
 _atom_site_type_symbol
 _atom_site_label
 _atom_site_symmetry_multiplicity
 _atom_site_fract_x
 _atom_site_fract_y
 _atom_site_fract_z
 _atom_site_occupancy
  Na  Na0  1  0.65550500  0.62874300  0.11680100  1
  Na  Na1  1  0.15550500  0.87125700  0.88319900  1
  Na  Na2  1  0.34449500  0.12874300  0.38319900  1
  Na  Na3  1  0.84449500  0.37125700  0.61680100  1
  Na  Na4  1  0.34449500  0.37125700  0.88319900  1
  Na  Na5  1  0.84449500  0.12874300  0.11680100  1
  Na  Na6  1  0.65550500  0.87125700  0.61680100  1
  Na  Na7  1  0.15550500  0.62874300  0.38319900  1
  O  O0  1  0.67468800  0.63731100  0.41237200  1
  O  O1  1  0.17468800  0.86268900  0.58762800  1
  O  O2  1  0.32531200  0.13731100  0.08762800  1
  O  O3  1  0.82531200  0.36268900  0.91237200  1
  O  O4  1  0.32531200  0.36268900  0.58762800  1
  O  O5  1  0.82531200  0.13731100  0.41237200  1
  O  O6  1  0.67468800  0.86268900  0.91237200  1
  O  O7  1  0.17468800  0.63731100  0.08762800  1
  O  O8  1  0.43295900  0.29905600  0.16036600  1
  O  O9  1  0.93295900  0.20094400  0.83963400  1
  O  O10  1  0.56704100  0.79905600  0.33963400  1
  O  O11  1  0.06704100  0.70094400  0.66036600  1
  O  O12  1  0.56704100  0.70094400  0.83963400  1
  O  O13  1  0.06704100  0.79905600  0.16036600  1
  O  O14  1  0.43295900  0.20094400  0.66036600  1
  O  O15  1  0.93295900  0.29905600  0.33963400  1
loop_
_geom_bond_atom_site_label_1
_geom_bond_atom_site_label_2
_geom_bond_distance
_geom_bond_site_symmetry_2
Na0 O10 2.381920 1_555
Na0 O6 2.430280 1_554
Na0 O13 2.444397 1_655
Na0 O8 2.480958 1_555
Na0 O7 2.512963 1_555
Na0 O12 2.638679 1_554
Na0 O7 2.711173 1_655
Na0 O3 2.713377 1_554
Na0 O0 2.727058 1_555
Na1 O11 2.381920 1_555
Na1 O7 2.430280 1_556
Na1 O12 2.444397 1_555
Na1 O9 2.480958 1_465
Na1 O6 2.512963 1_455
Na1 O13 2.638679 1_556
Na1 O6 2.711173 1_555
Na1 O2 2.713377 1_566
Na1 O1 2.727058 1_555
Na2 O8 2.381920 1_555
Na2 O4 2.430280 1_555
Na2 O15 2.444397 1_455
Na2 O10 2.480958 1_545
Na2 O5 2.512963 1_555
Na2 O14 2.638679 1_555
Na2 O5 2.711173 1_455
Na2 O1 2.713377 1_545
Na2 O2 2.727058 1_555
Na3 O9 2.381920 1_555
Na3 O5 2.430280 1_555
Na3 O14 2.444397 1_555
Na3 O11 2.480958 1_655
Na3 O4 2.512963 1_655
Na3 O15 2.638679 1_555
Na3 O4 2.711173 1_555
Na3 O0 2.713377 1_555
Na3 O3 2.727058 1_555
Na4 O14 2.381920 1_555
Na4 O2 2.430280 1_556
Na4 O9 2.444397 1_455
Na4 O12 2.480958 1_555
Na4 O3 2.512963 1_555
Na4 O8 2.638679 1_556
Na4 O3 2.711173 1_455
Na4 O7 2.713377 1_556
Na4 O4 2.727058 1_555
Na5 O15 2.381920 1_555
Na5 O3 2.430280 1_554
Na5 O8 2.444397 1_555
Na5 O13 2.480958 1_645
Na5 O2 2.512963 1_655
Na5 O9 2.638679 1_554
Na5 O2 2.711173 1_555
Na5 O6 2.713377 1_544
Na5 O5 2.727058 1_555
Na6 O12 2.381920 1_555
Na6 O0 2.430280 1_555
Na6 O11 2.444397 1_655
Na6 O14 2.480958 1_565
Na6 O1 2.512963 1_555
Na6 O10 2.638679 1_555
Na6 O1 2.711173 1_655
Na6 O5 2.713377 1_565
Na6 O6 2.727058 1_555
Na7 O13 2.381920 1_555
Na7 O1 2.430280 1_555
Na7 O10 2.444397 1_555
Na7 O15 2.480958 1_455
Na7 O0 2.512963 1_455
Na7 O11 2.638679 1_555
Na7 O0 2.711173 1_555
Na7 O4 2.713377 1_555
Na7 O7 2.727058 1_555
O0 O10 1.372327 1_555
O1 O11 1.372327 1_555
O2 O8 1.372327 1_555
O3 O9 1.372327 1_555
O12 O6 1.372327 1_555
O13 O7 1.372327 1_555
O14 O4 1.372327 1_555
O15 O5 1.372327 1_555
