# generated using pymatgen
data_Ta2Be17
_symmetry_space_group_name_H-M   'P 1'
_cell_length_a   5.54581870
_cell_length_b   5.54581870
_cell_length_c   5.54581780
_cell_angle_alpha   83.07347300
_cell_angle_beta   83.07347300
_cell_angle_gamma   83.07347648
_symmetry_Int_Tables_number   1
_chemical_formula_structural   Ta2Be17
_chemical_formula_sum   'Ta2 Be17'
_cell_volume   167.11090446
_cell_formula_units_Z   1
loop_
 _symmetry_equiv_pos_site_id
 _symmetry_equiv_pos_as_xyz
  1  'x, y, z'
loop_
 _atom_site_type_symbol
 _atom_site_label
 _atom_site_symmetry_multiplicity
 _atom_site_fract_x
 _atom_site_fract_y
 _atom_site_fract_z
 _atom_site_occupancy
  Ta  Ta0  1  0.84037348  0.84037348  0.84037348  1
  Ta  Ta1  1  0.15962652  0.15962652  0.15962652  1
  Be  Be0  1  0.59909410  0.59909410  0.59909410  1
  Be  Be1  1  0.40090590  0.40090590  0.40090590  1
  Be  Be2  1  0.50000000  0.50000000  -0.00000000  1
  Be  Be3  1  0.50000000  0.00000000  0.50000000  1
  Be  Be4  1  -0.00000000  0.50000000  0.50000000  1
  Be  Be5  1  0.50000000  0.20430113  0.79569887  1
  Be  Be6  1  0.20430113  0.79569887  0.50000000  1
  Be  Be7  1  0.79569887  0.50000000  0.20430113  1
  Be  Be8  1  0.50000000  0.79569887  0.20430113  1
  Be  Be9  1  0.79569887  0.20430113  0.50000000  1
  Be  Be10  1  0.20430113  0.50000000  0.79569887  1
  Be  Be11  1  0.33891063  0.84735456  0.84735456  1
  Be  Be12  1  0.84735456  0.84735456  0.33891163  1
  Be  Be13  1  0.84735456  0.33891063  0.84735456  1
  Be  Be14  1  0.66108937  0.15264444  0.15264444  1
  Be  Be15  1  0.15264444  0.15264444  0.66108837  1
  Be  Be16  1  0.15264444  0.66108937  0.15264444  1
loop_
_geom_bond_atom_site_label_1
_geom_bond_atom_site_label_2
_geom_bond_distance
_geom_bond_site_symmetry_2
Be0 Be1 2.120917 1_555
Be0 Be2 2.242934 1_556
Be0 Be4 2.242934 1_655
Be0 Be3 2.242934 1_565
Be0 Be12 2.317782 1_555
Be0 Be13 2.317784 1_555
Be0 Be11 2.317784 1_555
Be0 Be7 2.419594 1_555
Be0 Be8 2.419594 1_555
Be0 Be10 2.419595 1_555
Be0 Be5 2.419595 1_555
Be0 Be9 2.419595 1_555
Be0 Be6 2.419595 1_555
Be0 Ta0 2.582059 1_555
Be1 Be2 2.242934 1_555
Be1 Be4 2.242934 1_555
Be1 Be3 2.242934 1_555
Be1 Be15 2.317788 1_555
Be1 Be16 2.317791 1_555
Be1 Be14 2.317791 1_555
Be1 Be10 2.419594 1_555
Be1 Be5 2.419594 1_555
Be1 Be8 2.419595 1_555
Be1 Be7 2.419595 1_555
Be1 Be6 2.419595 1_555
Be1 Be9 2.419595 1_555
Be1 Ta1 2.582059 1_555
Be2 Be5 2.102645 1_554
Be2 Be7 2.102645 1_555
Be2 Be8 2.102645 1_555
Be2 Ta0 2.821959 1_554
Be2 Ta1 2.821959 1_555
Be3 Be8 2.102645 1_545
Be3 Be5 2.102645 1_555
Be3 Be6 2.102645 1_545
Be3 Be9 2.102645 1_555
Be3 Ta1 2.821959 1_555
Be3 Ta0 2.821959 1_545
Be4 Be7 2.102645 1_455
Be4 Be9 2.102645 1_455
Be4 Be6 2.102645 1_555
Be4 Ta1 2.821959 1_555
Be4 Ta0 2.821959 1_455
Be5 Be9 2.174825 1_555
Be5 Ta1 2.602180 1_556
Be5 Ta0 2.602181 1_545
Be6 Be8 2.174825 1_555
Be6 Ta1 2.602180 1_565
Be6 Ta0 2.602180 1_455
Be7 Be9 2.174825 1_555
Be7 Be8 2.174826 1_555
Be7 Ta0 2.602180 1_554
Be7 Ta1 2.602181 1_655
Be8 Ta0 2.602180 1_554
Be8 Ta1 2.602181 1_565
Be9 Ta1 2.602180 1_655
Be9 Ta0 2.602180 1_545
Be10 Be4 2.102645 1_555
Be10 Be2 2.102645 1_556
Be10 Be6 2.174825 1_555
Be10 Be5 2.174826 1_555
Be10 Be11 2.209475 1_555
Be10 Be15 2.209484 1_555
Be10 Be16 2.242066 1_556
Be10 Be13 2.242071 1_455
Be10 Ta1 2.602180 1_556
Be10 Ta0 2.602181 1_455
Be11 Be16 2.101046 1_556
Be11 Be15 2.101048 1_565
Be11 Be3 2.144675 1_565
Be11 Be2 2.144676 1_556
Be11 Be6 2.209474 1_555
Be11 Be8 2.242071 1_556
Be11 Be5 2.242071 1_565
Be11 Ta1 2.622905 1_566
Be11 Ta0 2.772274 1_555
Be11 Ta0 2.774724 1_455
Be12 Be14 2.101048 1_565
Be12 Be16 2.101048 1_655
Be12 Be4 2.144674 1_655
Be12 Be3 2.144674 1_565
Be12 Be8 2.209477 1_555
Be12 Be7 2.209477 1_555
Be12 Be9 2.242068 1_565
Be12 Be6 2.242068 1_655
Be12 Ta1 2.622906 1_665
Be12 Ta0 2.772268 1_555
Be12 Ta0 2.774729 1_554
Be13 Be14 2.101046 1_556
Be13 Be15 2.101048 1_655
Be13 Be4 2.144675 1_655
Be13 Be2 2.144676 1_556
Be13 Be9 2.209474 1_555
Be13 Be5 2.209475 1_555
Be13 Be7 2.242071 1_556
Be13 Ta1 2.622905 1_656
Be13 Ta0 2.772274 1_555
Be13 Ta0 2.774724 1_545
Be14 Be3 2.144678 1_555
Be14 Be2 2.144678 1_555
Be14 Be9 2.209481 1_555
Be14 Be7 2.209481 1_555
Be14 Be5 2.242066 1_554
Be14 Be8 2.242066 1_545
Be14 Ta0 2.622897 1_544
Be14 Ta1 2.772273 1_555
Be14 Ta1 2.774726 1_655
Be15 Be3 2.144676 1_555
Be15 Be4 2.144676 1_555
Be15 Be5 2.209484 1_555
Be15 Be6 2.242063 1_545
Be15 Be9 2.242063 1_455
Be15 Ta0 2.622898 1_445
Be15 Ta1 2.772267 1_555
Be15 Ta1 2.774731 1_556
Be16 Be4 2.144678 1_555
Be16 Be2 2.144678 1_555
Be16 Be6 2.209481 1_555
Be16 Be8 2.209481 1_555
Be16 Be7 2.242066 1_455
Be16 Ta0 2.622897 1_454
Be16 Ta1 2.772273 1_555
Be16 Ta1 2.774726 1_565
