# generated using pymatgen
data_LiFe6(OF2)4
_symmetry_space_group_name_H-M   'P 1'
_cell_length_a   7.53218230
_cell_length_b   5.79278131
_cell_length_c   5.79275926
_cell_angle_alpha   70.23769888
_cell_angle_beta   73.37768548
_cell_angle_gamma   73.37696086
_symmetry_Int_Tables_number   1
_chemical_formula_structural   LiFe6(OF2)4
_chemical_formula_sum   'Li1 Fe6 O4 F8'
_cell_volume   222.84383329
_cell_formula_units_Z   1
loop_
 _symmetry_equiv_pos_site_id
 _symmetry_equiv_pos_as_xyz
  1  'x, y, z'
loop_
 _atom_site_type_symbol
 _atom_site_label
 _atom_site_symmetry_multiplicity
 _atom_site_fract_x
 _atom_site_fract_y
 _atom_site_fract_z
 _atom_site_occupancy
  Li  Li0  1  0.50001100  0.25023900  0.74975400  1
  Fe  Fe0  1  0.84212400  0.64424700  0.65275700  1
  Fe  Fe1  1  0.68189300  0.33213800  0.26916400  1
  Fe  Fe2  1  0.31807100  0.73080000  0.66786800  1
  Fe  Fe3  1  0.15786700  0.34723000  0.35576100  1
  Fe  Fe4  1  0.49999900  0.86527300  0.13473900  1
  Fe  Fe5  1  0.00000700  0.99786900  0.00213900  1
  O  O0  1  0.32466000  0.02354600  0.37979700  1
  O  O1  1  0.67534500  0.62023000  0.97644500  1
  O  O2  1  0.00000200  0.30112000  0.69888400  1
  O  O3  1  0.00000600  0.70216800  0.29783500  1
  F  F0  1  0.67899700  0.02893600  0.57012600  1
  F  F1  1  0.32102500  0.42985400  0.97108800  1
  F  F2  1  0.28971100  0.94878000  0.91845700  1
  F  F3  1  0.98216700  0.22733400  0.21109500  1
  F  F4  1  0.63629200  0.54940500  0.54669100  1
  F  F5  1  0.01782200  0.78890400  0.77267600  1
  F  F6  1  0.36371300  0.45329300  0.45060200  1
  F  F7  1  0.71029100  0.08154900  0.05121000  1
loop_
_geom_bond_atom_site_label_1
_geom_bond_atom_site_label_2
_geom_bond_distance
_geom_bond_site_symmetry_2
Fe0 O1 1.920728 1_555
Fe0 O2 1.976507 1_655
Fe0 O3 2.028987 1_655
Fe1 O1 1.936460 1_554
Fe2 O0 1.936495 1_565
Fe3 O0 1.920734 1_555
Fe3 O2 1.976468 1_555
Fe3 O3 2.028995 1_555
Fe4 O0 1.927354 1_565
Fe4 O1 1.927373 1_554
Fe5 O3 1.970790 1_555
Fe5 O2 2.021140 1_564
F0 Li0 1.911626 1_555
F0 Fe1 2.013522 1_555
F0 Fe0 2.180200 1_545
F1 Li0 1.911701 1_555
F1 Fe2 2.013535 1_555
F1 Fe3 2.180216 1_556
F2 Fe5 2.051935 1_556
F2 Fe4 2.144677 1_556
F2 Fe2 2.157544 1_555
F2 Li0 2.461019 1_565
F3 Fe5 2.035403 1_645
F3 Fe3 2.118967 1_655
F3 Fe1 2.124691 1_555
F4 Fe0 2.084122 1_555
F4 Li0 2.095023 1_555
F4 Fe1 2.256445 1_555
F4 Fe2 2.331774 1_555
F5 Fe5 2.035490 1_556
F5 Fe0 2.119006 1_455
F5 Fe2 2.124509 1_555
F6 Fe3 2.084205 1_555
F6 Li0 2.095003 1_555
F6 Fe2 2.256277 1_555
F6 Fe1 2.331571 1_555
F7 Fe5 2.052028 1_645
F7 Fe4 2.144673 1_545
F7 Fe1 2.157352 1_555
F7 Li0 2.460871 1_554
