# generated using pymatgen
data_YThCo10
_symmetry_space_group_name_H-M   'P 1'
_cell_length_a   3.89017725
_cell_length_b   4.89747737
_cell_length_c   8.84425986
_cell_angle_alpha   89.99999964
_cell_angle_beta   90.00000000
_cell_angle_gamma   90.00000000
_symmetry_Int_Tables_number   1
_chemical_formula_structural   YThCo10
_chemical_formula_sum   'Y1 Th1 Co10'
_cell_volume   168.50132579
_cell_formula_units_Z   1
loop_
 _symmetry_equiv_pos_site_id
 _symmetry_equiv_pos_as_xyz
  1  'x, y, z'
loop_
 _atom_site_type_symbol
 _atom_site_label
 _atom_site_symmetry_multiplicity
 _atom_site_fract_x
 _atom_site_fract_y
 _atom_site_fract_z
 _atom_site_occupancy
  Y  Y0  1  0.00000000  0.49994004  0.50000000  1
  Th  Th0  1  -0.00000000  0.00004226  -0.00000000  1
  Co  Co0  1  -0.00000000  -0.00006035  0.34387191  1
  Co  Co1  1  0.00000000  0.50004435  0.82984125  1
  Co  Co2  1  -0.00000000  0.50004435  0.17015875  1
  Co  Co3  1  0.00000000  -0.00006035  0.65612809  1
  Co  Co4  1  0.50000000  -0.00012941  0.50000000  1
  Co  Co5  1  0.50000000  0.50007474  -0.00000000  1
  Co  Co6  1  0.50000000  0.25673576  0.25649420  1
  Co  Co7  1  0.50000000  0.74321642  0.74349764  1
  Co  Co8  1  0.50000000  0.74321642  0.25650236  1
  Co  Co9  1  0.50000000  0.25673576  0.74350580  1
loop_
_geom_bond_atom_site_label_1
_geom_bond_atom_site_label_2
_geom_bond_distance
_geom_bond_site_symmetry_2
Co0 Co4 2.385389 1_555
Co0 Co4 2.385389 1_455
Co0 Co8 2.441569 1_545
Co0 Co8 2.441569 1_445
Co0 Co6 2.441775 1_555
Co0 Co6 2.441775 1_455
Co0 Y0 2.811232 1_545
Co0 Y0 2.811235 1_555
Co0 Th0 3.041293 1_555
Co1 Co7 2.405169 1_455
Co1 Co7 2.405169 1_555
Co1 Co9 2.405477 1_455
Co1 Co9 2.405477 1_555
Co1 Co5 2.459305 1_456
Co1 Co5 2.459305 1_556
Co1 Th0 2.874209 1_566
Co1 Th0 2.874227 1_556
Co1 Y0 2.917202 1_555
Co2 Co8 2.405169 1_455
Co2 Co8 2.405169 1_555
Co2 Co6 2.405477 1_555
Co2 Co6 2.405477 1_455
Co2 Co5 2.459305 1_455
Co2 Co5 2.459305 1_555
Co2 Th0 2.874209 1_565
Co2 Th0 2.874227 1_555
Co2 Y0 2.917202 1_555
Co3 Co4 2.385389 1_455
Co3 Co4 2.385389 1_555
Co3 Co7 2.441569 1_445
Co3 Co7 2.441569 1_545
Co3 Co9 2.441775 1_455
Co3 Co9 2.441775 1_555
Co3 Y0 2.811232 1_545
Co3 Y0 2.811235 1_555
Co3 Th0 3.041293 1_556
Co4 Co7 2.493541 1_545
Co4 Co8 2.493541 1_545
Co4 Co6 2.494125 1_555
Co4 Co9 2.494125 1_555
Co4 Y0 3.126983 1_545
Co4 Y0 3.126983 1_645
Co4 Y0 3.127516 1_655
Co4 Y0 3.127516 1_555
Co5 Co7 2.562106 1_554
Co5 Co8 2.562106 1_555
Co5 Co6 2.562491 1_555
Co5 Co9 2.562491 1_554
Co5 Th0 3.127125 1_665
Co5 Th0 3.127125 1_565
Co5 Th0 3.127374 1_555
Co5 Th0 3.127374 1_655
Co6 Co8 2.382528 1_555
Co6 Co8 2.514949 1_545
Co6 Y0 3.136905 1_555
Co6 Y0 3.136905 1_655
Co6 Th0 3.241897 1_555
Co6 Th0 3.241897 1_655
Co7 Co9 2.382528 1_555
Co7 Co9 2.514949 1_565
Co7 Y0 3.136990 1_655
Co7 Y0 3.136990 1_555
Co7 Th0 3.242199 1_566
Co7 Th0 3.242199 1_666
Co8 Y0 3.136990 1_655
Co8 Y0 3.136990 1_555
Co8 Th0 3.242199 1_665
Co8 Th0 3.242199 1_565
Co9 Y0 3.136905 1_655
Co9 Y0 3.136905 1_555
Co9 Th0 3.241897 1_556
Co9 Th0 3.241897 1_656
