# generated using pymatgen
data_ScSiPt2
_symmetry_space_group_name_H-M   'P 1'
_cell_length_a   3.72129737
_cell_length_b   5.25228610
_cell_length_c   6.96751770
_cell_angle_alpha   90.00000000
_cell_angle_beta   90.00000000
_cell_angle_gamma   110.74779872
_symmetry_Int_Tables_number   1
_chemical_formula_structural   ScSiPt2
_chemical_formula_sum   'Sc2 Si2 Pt4'
_cell_volume   127.35076605
_cell_formula_units_Z   2
loop_
 _symmetry_equiv_pos_site_id
 _symmetry_equiv_pos_as_xyz
  1  'x, y, z'
loop_
 _atom_site_type_symbol
 _atom_site_label
 _atom_site_symmetry_multiplicity
 _atom_site_fract_x
 _atom_site_fract_y
 _atom_site_fract_z
 _atom_site_occupancy
  Sc  Sc0  1  0.95021041  0.90042081  0.25000000  1
  Sc  Sc1  1  0.04978959  0.09957919  0.75000000  1
  Si  Si0  1  0.23230241  0.46460483  0.25000000  1
  Si  Si1  1  0.76769759  0.53539517  0.75000000  1
  Pt  Pt0  1  0.36081173  0.72162547  0.54802709  1
  Pt  Pt1  1  0.63918827  0.27837453  0.45197291  1
  Pt  Pt2  1  0.63918827  0.27837453  0.04802709  1
  Pt  Pt3  1  0.36081173  0.72162547  0.95197291  1
loop_
_geom_bond_atom_site_label_1
_geom_bond_atom_site_label_2
_geom_bond_distance
_geom_bond_site_symmetry_2
Sc0 Si0 2.771085 1_665
Sc0 Si0 2.836214 1_555
Sc0 Si0 2.836215 1_655
Sc1 Si1 2.771085 1_445
Sc1 Si1 2.836214 1_555
Sc1 Si1 2.836215 1_455
Pt0 Si0 2.430133 1_555
Pt0 Si1 2.505799 1_455
Pt0 Si1 2.505805 1_555
Pt0 Sc0 2.923200 1_455
Pt0 Sc0 2.923204 1_555
Pt0 Sc1 2.981361 1_565
Pt0 Sc1 2.981365 1_665
Pt1 Si1 2.430133 1_555
Pt1 Si0 2.505799 1_655
Pt1 Si0 2.505805 1_555
Pt1 Sc1 2.923200 1_655
Pt1 Sc1 2.923204 1_555
Pt1 Sc0 2.981361 1_545
Pt1 Sc0 2.981365 1_445
Pt2 Si1 2.430133 1_554
Pt2 Si0 2.505799 1_655
Pt2 Si0 2.505805 1_555
Pt2 Sc1 2.923200 1_654
Pt2 Sc1 2.923204 1_554
Pt2 Sc0 2.981361 1_545
Pt2 Sc0 2.981365 1_445
Pt3 Si0 2.430133 1_556
Pt3 Si1 2.505799 1_455
Pt3 Si1 2.505805 1_555
Pt3 Sc0 2.923200 1_456
Pt3 Sc0 2.923204 1_556
Pt3 Sc1 2.981361 1_565
Pt3 Sc1 2.981365 1_665
