# generated using pymatgen
data_GeTe5Pb4
_symmetry_space_group_name_H-M   'P 1'
_cell_length_a   18.71994828
_cell_length_b   18.71994828
_cell_length_c   18.71994825
_cell_angle_alpha   14.05477450
_cell_angle_beta   14.05477450
_cell_angle_gamma   14.05477487
_symmetry_Int_Tables_number   1
_chemical_formula_structural   GeTe5Pb4
_chemical_formula_sum   'Ge1 Te5 Pb4'
_cell_volume   336.73691866
_cell_formula_units_Z   1
loop_
 _symmetry_equiv_pos_site_id
 _symmetry_equiv_pos_as_xyz
  1  'x, y, z'
loop_
 _atom_site_type_symbol
 _atom_site_label
 _atom_site_symmetry_multiplicity
 _atom_site_fract_x
 _atom_site_fract_y
 _atom_site_fract_z
 _atom_site_occupancy
  Ge  Ge0  1  0.00000000  0.00000000  0.00000000  1
  Te  Te0  1  0.69481400  0.69481400  0.69481400  1
  Te  Te1  1  0.50000000  0.50000000  0.50000000  1
  Te  Te2  1  0.09773800  0.09773800  0.09773800  1
  Te  Te3  1  0.30518600  0.30518600  0.30518600  1
  Te  Te4  1  0.90226200  0.90226200  0.90226200  1
  Pb  Pb0  1  0.60354800  0.60354800  0.60354800  1
  Pb  Pb1  1  0.20109100  0.20109100  0.20109100  1
  Pb  Pb2  1  0.79890900  0.79890900  0.79890900  1
  Pb  Pb3  1  0.39645200  0.39645200  0.39645200  1
loop_
_geom_bond_atom_site_label_1
_geom_bond_atom_site_label_2
_geom_bond_distance
_geom_bond_site_symmetry_2
Ge0 Te3 3.072894 1_554
Ge0 Te0 3.072894 1_445
Ge0 Te3 3.072894 1_545
Ge0 Te3 3.072894 1_455
Ge0 Te0 3.072894 1_454
Ge0 Te0 3.072894 1_544
Pb0 Te4 3.270828 1_554
Pb0 Te4 3.270828 1_545
Pb0 Te4 3.270828 1_455
Pb0 Te3 3.282382 1_556
Pb0 Te3 3.282382 1_655
Pb0 Te3 3.282382 1_565
Pb1 Te1 3.264460 1_554
Pb1 Te1 3.264460 1_455
Pb1 Te1 3.264460 1_545
Pb1 Te4 3.267070 1_445
Pb1 Te4 3.267070 1_544
Pb1 Te4 3.267070 1_454
Pb2 Te1 3.264460 1_556
Pb2 Te1 3.264460 1_655
Pb2 Te1 3.264460 1_565
Pb2 Te2 3.267070 1_665
Pb2 Te2 3.267070 1_656
Pb2 Te2 3.267070 1_566
Pb3 Te2 3.270828 1_556
Pb3 Te2 3.270828 1_655
Pb3 Te2 3.270828 1_565
Pb3 Te0 3.282382 1_554
Pb3 Te0 3.282382 1_455
Pb3 Te0 3.282382 1_545
