# generated using pymatgen
data_Ho2OsC2
_symmetry_space_group_name_H-M   'P 1'
_cell_length_a   5.08545518
_cell_length_b   6.41174081
_cell_length_c   9.71768881
_cell_angle_alpha   90.00047607
_cell_angle_beta   90.00000000
_cell_angle_gamma   90.00000000
_symmetry_Int_Tables_number   1
_chemical_formula_structural   Ho2OsC2
_chemical_formula_sum   'Ho8 Os4 C8'
_cell_volume   316.86099131
_cell_formula_units_Z   4
loop_
 _symmetry_equiv_pos_site_id
 _symmetry_equiv_pos_as_xyz
  1  'x, y, z'
loop_
 _atom_site_type_symbol
 _atom_site_label
 _atom_site_symmetry_multiplicity
 _atom_site_fract_x
 _atom_site_fract_y
 _atom_site_fract_z
 _atom_site_occupancy
  Ho  Ho0  1  0.25000000  0.68199124  0.55272697  1
  Ho  Ho1  1  0.75000000  0.31800931  0.44727267  1
  Ho  Ho2  1  0.75000000  0.81800022  0.05272698  1
  Ho  Ho3  1  0.25000000  0.18200071  0.94727260  1
  Ho  Ho4  1  0.25000000  0.52749245  0.21845759  1
  Ho  Ho5  1  0.75000000  0.47250764  0.78154211  1
  Ho  Ho6  1  0.75000000  0.97249697  0.71843322  1
  Ho  Ho7  1  0.25000000  0.02750358  0.28156620  1
  Os  Os0  1  0.25000000  0.72352870  0.86533512  1
  Os  Os1  1  0.75000000  0.27647166  0.13466506  1
  Os  Os2  1  0.75000000  0.77646355  0.36533343  1
  Os  Os3  1  0.25000000  0.22353417  0.63466649  1
  C  C0  1  0.25000000  0.45986641  0.75797487  1
  C  C1  1  0.75000000  0.54013392  0.24202492  1
  C  C2  1  0.75000000  0.04012497  0.25797698  1
  C  C3  1  0.25000000  0.95987523  0.74202295  1
  C  C4  1  0.25000000  0.82519979  0.05349161  1
  C  C5  1  0.75000000  0.17480083  0.94650862  1
  C  C6  1  0.75000000  0.67479131  0.55349201  1
  C  C7  1  0.25000000  0.32520934  0.44650759  1
loop_
_geom_bond_atom_site_label_1
_geom_bond_atom_site_label_2
_geom_bond_distance
_geom_bond_site_symmetry_2
C0 Os3 1.931829 1_555
C0 Os0 1.986539 1_555
C0 Ho0 2.450833 1_555
C0 Ho5 2.554307 1_555
C0 Ho5 2.554307 1_455
C0 Ho3 2.560870 1_555
C1 Os2 1.931817 1_555
C1 Os1 1.986537 1_555
C1 Ho1 2.450831 1_555
C1 Ho4 2.554307 1_555
C1 Ho4 2.554307 1_655
C1 Ho2 2.560875 1_555
C2 Os1 1.931939 1_555
C2 Os2 1.986530 1_545
C2 Ho2 2.450830 1_545
C2 Ho7 2.554322 1_655
C2 Ho7 2.554322 1_555
C2 Ho1 2.560918 1_555
C3 Os0 1.931940 1_555
C3 Os3 1.986516 1_565
C3 Ho3 2.450830 1_565
C3 Ho6 2.554322 1_455
C3 Ho6 2.554322 1_555
C3 Ho0 2.560919 1_555
C4 Os0 1.941174 1_554
C4 Ho4 2.492698 1_555
C4 Ho3 2.509805 1_564
C4 Ho2 2.543157 1_455
C4 Ho2 2.543157 1_555
C4 Ho7 2.568017 1_565
C5 Os1 1.941172 1_556
C5 Ho5 2.492699 1_555
C5 Ho2 2.509801 1_546
C5 Ho3 2.543157 1_655
C5 Ho3 2.543157 1_555
C5 Ho6 2.568024 1_545
C6 Os2 1.941205 1_555
C6 Ho6 2.492515 1_555
C6 Ho1 2.509680 1_555
C6 Ho0 2.543157 1_655
C6 Ho0 2.543157 1_555
C6 Ho5 2.567765 1_555
C7 Os3 1.941215 1_555
C7 Ho7 2.492516 1_555
C7 Ho0 2.509680 1_555
C7 Ho1 2.543157 1_555
C7 Ho1 2.543157 1_455
C7 Ho4 2.567763 1_555
