# generated using pymatgen
data_Zn7Cu8(MoO4)12
_symmetry_space_group_name_H-M   'P 1'
_cell_length_a   5.18846309
_cell_length_b   10.70676967
_cell_length_c   17.98980107
_cell_angle_alpha   90.17927493
_cell_angle_beta   89.98972890
_cell_angle_gamma   89.85578426
_symmetry_Int_Tables_number   1
_chemical_formula_structural   Zn7Cu8(MoO4)12
_chemical_formula_sum   'Zn7 Cu8 Mo12 O48'
_cell_volume   999.35558459
_cell_formula_units_Z   1
loop_
 _symmetry_equiv_pos_site_id
 _symmetry_equiv_pos_as_xyz
  1  'x, y, z'
loop_
 _atom_site_type_symbol
 _atom_site_label
 _atom_site_symmetry_multiplicity
 _atom_site_fract_x
 _atom_site_fract_y
 _atom_site_fract_z
 _atom_site_occupancy
  Zn  Zn0  1  0.60296500  0.24914900  0.00069800  1
  Zn  Zn1  1  0.39540000  0.74846500  0.49873200  1
  Zn  Zn2  1  0.89557000  0.75173000  0.50136800  1
  Zn  Zn3  1  0.76060100  0.59389400  0.21425300  1
  Zn  Zn4  1  0.23697600  0.10102900  0.28133400  1
  Zn  Zn5  1  0.74038800  0.39785000  0.71872400  1
  Zn  Zn6  1  0.25787100  0.90665000  0.78563300  1
  Cu  Cu0  1  0.74483200  0.94123800  0.22657600  1
  Cu  Cu1  1  0.25357200  0.43787200  0.27027400  1
  Cu  Cu2  1  0.75481100  0.06197700  0.72989900  1
  Cu  Cu3  1  0.24212100  0.55904300  0.77316500  1
  Cu  Cu4  1  0.72690300  0.23639200  0.56476700  1
  Cu  Cu5  1  0.27371500  0.73614700  0.93311600  1
  Cu  Cu6  1  0.78193200  0.76476300  0.06797000  1
  Cu  Cu7  1  0.22700200  0.26331200  0.43525300  1
  Mo  Mo0  1  0.73070400  0.48430600  0.39711400  1
  Mo  Mo1  1  0.27281500  0.98346800  0.10133700  1
  Mo  Mo2  1  0.76596400  0.51843300  0.89738000  1
  Mo  Mo3  1  0.23096700  0.01583800  0.60282100  1
  Mo  Mo4  1  0.71251700  0.03824300  0.41225700  1
  Mo  Mo5  1  0.28657400  0.53955400  0.08698700  1
  Mo  Mo6  1  0.77972600  0.95866300  0.91281500  1
  Mo  Mo7  1  0.21238900  0.46164900  0.58768200  1
  Mo  Mo8  1  0.76886800  0.26551600  0.19390900  1
  Mo  Mo9  1  0.22708000  0.76443300  0.30771700  1
  Mo  Mo10  1  0.72706200  0.73584000  0.69213400  1
  Mo  Mo11  1  0.27531800  0.23442600  0.80755100  1
  O  O0  1  0.92414200  0.53014200  0.31734500  1
  O  O1  1  0.07833100  0.02839100  0.18310600  1
  O  O2  1  0.57478800  0.47549400  0.81489000  1
  O  O3  1  0.42360300  0.96960800  0.68261200  1
  O  O4  1  0.91467600  0.00906800  0.33192800  1
  O  O5  1  0.08952300  0.50744300  0.16937900  1
  O  O6  1  0.58866700  0.98858000  0.82930300  1
  O  O7  1  0.41439900  0.49057900  0.66785300  1
  O  O8  1  0.56297100  0.13681800  0.22030200  1
  O  O9  1  0.43747700  0.63793400  0.28259300  1
  O  O10  1  0.93740600  0.86187200  0.71737000  1
  O  O11  1  0.06320600  0.36338400  0.78311600  1
  O  O12  1  0.92517600  0.37177700  0.61582800  1
  O  O13  1  0.07638700  0.87106300  0.88417100  1
  O  O14  1  0.57319400  0.63184000  0.11655200  1
  O  O15  1  0.42461400  0.12800900  0.38431900  1
  O  O16  1  0.94072700  0.38531100  0.44909600  1
  O  O17  1  0.05651600  0.88846200  0.04704700  1
  O  O18  1  0.55417400  0.61577900  0.95090600  1
  O  O19  1  0.43977200  0.11514800  0.55096200  1
  O  O20  1  0.83643500  0.25253400  0.09818100  1
  O  O21  1  0.14729100  0.75344900  0.40671200  1
  O  O22  1  0.64673000  0.74680400  0.59316900  1
  O  O23  1  0.37909100  0.24561300  0.90031300  1
  O  O24  1  0.64981700  0.62319700  0.45336500  1
  O  O25  1  0.37293400  0.11566100  0.05044900  1
  O  O26  1  0.83158900  0.38269300  0.95003100  1
  O  O27  1  0.14980800  0.87688400  0.54667400  1
  O  O28  1  0.41668300  0.90340100  0.29368800  1
  O  O29  1  0.58534600  0.40847300  0.20851900  1
  O  O30  1  0.08853300  0.09230200  0.79414800  1
  O  O31  1  0.91787400  0.59651300  0.70645500  1
  O  O32  1  0.64798300  0.88817000  0.45702500  1
  O  O33  1  0.37357200  0.39634600  0.04541100  1
  O  O34  1  0.83100300  0.10540300  0.95504700  1
  O  O35  1  0.14753900  0.61191700  0.54285800  1
  O  O36  1  0.91221800  0.13131200  0.47103700  1
  O  O37  1  0.07442500  0.63180500  0.02980200  1
  O  O38  1  0.57153700  0.86466300  0.96919900  1
  O  O39  1  0.41284100  0.36826100  0.52898400  1
  O  O40  1  0.44827100  0.39985100  0.36752200  1
  O  O41  1  0.55549400  0.89354000  0.13135700  1
  O  O42  1  0.05939700  0.60334900  0.86988700  1
  O  O43  1  0.94806100  0.10042200  0.63281100  1
  O  O44  1  0.95328400  0.76502200  0.24437200  1
  O  O45  1  0.04857500  0.26631300  0.25771300  1
  O  O46  1  0.54479800  0.23342100  0.74037700  1
  O  O47  1  0.45352800  0.73541600  0.75529900  1
loop_
_geom_bond_atom_site_label_1
_geom_bond_atom_site_label_2
_geom_bond_distance
_geom_bond_site_symmetry_2
Cu0 O41 2.039065 1_555
Cu0 O1 2.118629 1_665
Cu0 O28 2.127527 1_555
Cu0 O44 2.196706 1_555
Cu0 O4 2.211609 1_565
Cu0 O8 2.297741 1_565
Cu1 O40 2.061521 1_555
Cu1 O29 2.071453 1_555
Cu1 O45 2.136273 1_555
Cu1 O5 2.140015 1_555
Cu1 O0 2.144824 1_455
Cu1 O9 2.356951 1_555
Cu2 O43 2.057017 1_555
Cu2 O30 2.107288 1_655
Cu2 O6 2.137796 1_545
Cu2 O46 2.140098 1_555
Cu2 O3 2.158391 1_545
Cu2 O10 2.350583 1_545
Cu3 O42 2.035548 1_555
Cu3 O2 2.083198 1_555
Cu3 O31 2.105185 1_455
Cu3 O47 2.210552 1_555
Cu3 O7 2.216530 1_555
Cu3 O11 2.300947 1_555
Cu4 O19 1.993510 1_555
Cu4 O12 2.000685 1_555
Cu4 O43 2.222094 1_555
Cu4 O36 2.239548 1_555
Cu4 O39 2.248905 1_555
Cu5 O18 1.968268 1_555
Cu5 O13 1.977621 1_555
Cu5 O42 2.133136 1_555
Cu5 O38 2.169782 1_555
Cu5 O37 2.315155 1_556
Cu6 O17 1.984405 1_655
Cu6 O14 1.994349 1_555
Cu6 O41 2.136168 1_555
Cu6 O37 2.187161 1_655
Cu6 O38 2.345141 1_554
Cu7 O16 1.990597 1_455
Cu7 O15 1.993321 1_555
Cu7 O40 2.226857 1_555
Cu7 O39 2.242721 1_555
Cu7 O36 2.257484 1_455
Mo0 O16 1.784969 1_555
Mo0 O40 1.803432 1_555
Mo0 O0 1.820391 1_555
Mo0 O24 1.843594 1_555
Mo1 O25 1.767145 1_565
Mo1 O17 1.802214 1_555
Mo1 O41 1.834738 1_555
Mo1 O1 1.845544 1_565
Mo2 O26 1.769609 1_555
Mo2 O18 1.791258 1_555
Mo2 O2 1.842821 1_555
Mo2 O42 1.843540 1_655
Mo3 O19 1.785021 1_555
Mo3 O43 1.804375 1_455
Mo3 O3 1.818483 1_545
Mo3 O27 1.845227 1_545
Mo4 O36 1.784297 1_555
Mo4 O4 1.811369 1_555
Mo4 O32 1.831184 1_545
Mo4 O15 1.844926 1_555
Mo5 O33 1.761642 1_555
Mo5 O37 1.801883 1_555
Mo5 O5 1.834357 1_555
Mo5 O14 1.864164 1_555
Mo6 O34 1.763829 1_565
Mo6 O38 1.794451 1_555
Mo6 O6 1.828750 1_555
Mo6 O13 1.871849 1_655
Mo7 O39 1.784453 1_555
Mo7 O7 1.809419 1_555
Mo7 O35 1.832336 1_555
Mo7 O12 1.847420 1_455
Mo8 O20 1.762380 1_555
Mo8 O8 1.810172 1_555
Mo8 O29 1.818949 1_555
Mo8 O45 1.850484 1_655
Mo9 O9 1.794127 1_555
Mo9 O28 1.804141 1_555
Mo9 O44 1.821339 1_455
Mo9 O21 1.832514 1_555
Mo10 O10 1.794939 1_555
Mo10 O31 1.807449 1_555
Mo10 O47 1.817947 1_555
Mo10 O22 1.832625 1_555
Mo11 O23 1.757394 1_555
Mo11 O11 1.818551 1_555
Mo11 O30 1.821564 1_555
Mo11 O46 1.847870 1_555
O0 Zn3 2.151985 1_555
O1 Zn4 2.097659 1_555
O2 Zn5 2.099791 1_555
O3 Zn6 2.153784 1_555
O4 Zn4 2.146535 1_655
O5 Zn3 2.099478 1_455
O6 Zn6 2.082353 1_555
O7 Zn5 2.163743 1_555
O8 Zn4 2.053884 1_555
O9 Zn3 2.129831 1_555
O10 Zn6 2.122176 1_655
O11 Zn5 2.069713 1_455
O12 Zn5 2.102007 1_555
O13 Zn6 2.044421 1_555
O14 Zn3 2.050088 1_555
O15 Zn4 2.112436 1_555
O20 Zn0 2.131838 1_555
O21 Zn1 2.097949 1_555
O21 Zn2 2.145993 1_455
O22 Zn2 2.096957 1_555
O22 Zn1 2.141941 1_555
O23 Zn0 2.147674 1_556
O24 Zn1 2.047264 1_555
O24 Zn2 2.065724 1_555
O25 Zn0 2.069879 1_555
O26 Zn0 2.073308 1_556
O27 Zn2 2.049969 1_455
O27 Zn1 2.059468 1_555
O28 Zn4 2.321450 1_565
O29 Zn3 2.187823 1_555
O30 Zn6 2.176177 1_545
O31 Zn5 2.331042 1_555
O32 Zn2 2.102092 1_555
O32 Zn1 2.129397 1_555
O33 Zn0 2.128301 1_555
O34 Zn0 2.103712 1_556
O35 Zn1 2.106599 1_555
O35 Zn2 2.122395 1_455
O44 Zn3 2.157152 1_555
O45 Zn4 2.064930 1_555
O46 Zn5 2.072220 1_555
O47 Zn6 2.161881 1_555
