# generated using pymatgen
data_Pr2Mg
_symmetry_space_group_name_H-M   'P 1'
_cell_length_a   13.89394221
_cell_length_b   13.89394221
_cell_length_c   13.89394221
_cell_angle_alpha   147.30424056
_cell_angle_beta   147.30424056
_cell_angle_gamma   46.91351465
_symmetry_Int_Tables_number   1
_chemical_formula_structural   Pr2Mg
_chemical_formula_sum   'Pr16 Mg8'
_cell_volume   779.71657980
_cell_formula_units_Z   8
loop_
 _symmetry_equiv_pos_site_id
 _symmetry_equiv_pos_as_xyz
  1  'x, y, z'
loop_
 _atom_site_type_symbol
 _atom_site_label
 _atom_site_symmetry_multiplicity
 _atom_site_fract_x
 _atom_site_fract_y
 _atom_site_fract_z
 _atom_site_occupancy
  Pr  Pr0_0  1  0.32692205  0.32692205  0.00000000  1
  Pr  Pr0_1  1  0.32692205  0.32692205  0.50000000  1
  Pr  Pr0_2  1  0.32692205  0.82692205  0.00000000  1
  Pr  Pr0_3  1  0.32692205  0.82692205  0.50000000  1
  Pr  Pr0_4  1  0.82692205  0.32692205  0.00000000  1
  Pr  Pr0_5  1  0.82692205  0.32692205  0.50000000  1
  Pr  Pr0_6  1  0.82692205  0.82692205  0.00000000  1
  Pr  Pr0_7  1  0.82692205  0.82692205  0.50000000  1
  Pr  Pr1_0  1  0.17307795  0.17307795  0.00000000  1
  Pr  Pr1_1  1  0.17307795  0.17307795  0.50000000  1
  Pr  Pr1_2  1  0.17307795  0.67307795  0.00000000  1
  Pr  Pr1_3  1  0.17307795  0.67307795  0.50000000  1
  Pr  Pr1_4  1  0.67307795  0.17307795  0.00000000  1
  Pr  Pr1_5  1  0.67307795  0.17307795  0.50000000  1
  Pr  Pr1_6  1  0.67307795  0.67307795  0.00000000  1
  Pr  Pr1_7  1  0.67307795  0.67307795  0.50000000  1
  Mg  Mg0_0  1  0.00000000  0.00000000  0.00000000  1
  Mg  Mg0_1  1  0.00000000  0.00000000  0.50000000  1
  Mg  Mg0_2  1  0.00000000  0.50000000  0.00000000  1
  Mg  Mg0_3  1  0.00000000  0.50000000  0.50000000  1
  Mg  Mg0_4  1  0.50000000  0.00000000  0.00000000  1
  Mg  Mg0_5  1  0.50000000  0.00000000  0.50000000  1
  Mg  Mg0_6  1  0.50000000  0.50000000  0.00000000  1
  Mg  Mg0_7  1  0.50000000  0.50000000  0.50000000  1
loop_
_geom_bond_atom_site_label_1
_geom_bond_atom_site_label_2
_geom_bond_distance
_geom_bond_site_symmetry_2
Pr0_0 Pr1_7 3.695268 1_555
Pr0_0 Pr1_4 3.695268 1_555
Pr0_0 Pr1_2 3.695268 1_555
Pr0_0 Pr1_1 3.695268 1_554
Pr0_0 Pr0_3 3.910710 1_544
Pr0_0 Pr0_5 3.910710 1_555
Pr0_0 Pr0_5 3.910710 1_454
Pr0_0 Pr0_3 3.910710 1_555
Pr0_0 Pr1_0 3.921719 1_555
Pr0_1 Pr1_6 3.695268 1_556
Pr0_1 Pr1_5 3.695268 1_555
Pr0_1 Pr1_0 3.695268 1_555
Pr0_1 Pr1_3 3.695268 1_555
Pr0_1 Pr0_4 3.910710 1_556
Pr0_1 Pr0_2 3.910710 1_545
Pr0_1 Pr0_2 3.910710 1_556
Pr0_1 Pr0_4 3.910710 1_455
Pr0_1 Pr1_1 3.921719 1_555
Pr0_2 Pr1_6 3.695268 1_555
Pr0_2 Pr1_5 3.695268 1_565
Pr0_2 Pr1_3 3.695268 1_554
Pr0_2 Pr1_0 3.695268 1_565
Pr0_2 Pr0_7 3.910710 1_555
Pr0_2 Pr0_7 3.910710 1_454
Pr0_2 Pr1_2 3.921719 1_555
Pr0_3 Pr1_7 3.695268 1_555
Pr0_3 Pr1_4 3.695268 1_566
Pr0_3 Pr1_2 3.695268 1_555
Pr0_3 Pr1_1 3.695268 1_565
Pr0_3 Pr0_6 3.910710 1_455
Pr0_3 Pr0_6 3.910710 1_556
Pr0_3 Pr1_3 3.921719 1_555
Pr0_4 Pr1_6 3.695268 1_555
Pr0_4 Pr1_3 3.695268 1_655
Pr0_4 Pr1_5 3.695268 1_554
Pr0_4 Pr1_0 3.695268 1_655
Pr0_4 Pr0_7 3.910710 1_555
Pr0_4 Pr0_7 3.910710 1_544
Pr0_4 Pr1_4 3.921719 1_555
Pr0_5 Pr1_7 3.695268 1_555
Pr0_5 Pr1_4 3.695268 1_555
Pr0_5 Pr1_1 3.695268 1_655
Pr0_5 Pr1_2 3.695268 1_656
Pr0_5 Pr0_6 3.910710 1_545
Pr0_5 Pr0_6 3.910710 1_556
Pr0_5 Pr1_5 3.921719 1_555
Pr0_6 Pr1_2 3.695268 1_655
Pr0_6 Pr1_7 3.695268 1_554
Pr0_6 Pr1_4 3.695268 1_565
Pr0_6 Pr1_1 3.695268 1_665
Pr0_6 Pr1_6 3.921719 1_555
Pr0_7 Pr1_3 3.695268 1_655
Pr0_7 Pr1_6 3.695268 1_555
Pr0_7 Pr1_0 3.695268 1_666
Pr0_7 Pr1_5 3.695268 1_565
Pr0_7 Pr1_7 3.921719 1_555
Pr1_0 Pr1_5 3.910710 1_454
Pr1_0 Pr1_5 3.910710 1_555
Pr1_0 Pr1_3 3.910710 1_555
Pr1_0 Pr1_3 3.910710 1_544
Pr1_1 Pr1_4 3.910710 1_556
Pr1_1 Pr1_2 3.910710 1_545
Pr1_1 Pr1_2 3.910710 1_556
Pr1_1 Pr1_4 3.910710 1_455
Pr1_2 Pr1_7 3.910710 1_454
Pr1_2 Pr1_7 3.910710 1_555
Pr1_3 Pr1_6 3.910710 1_556
Pr1_3 Pr1_6 3.910710 1_455
Pr1_4 Pr1_7 3.910710 1_544
Pr1_4 Pr1_7 3.910710 1_555
Pr1_5 Pr1_6 3.910710 1_556
Pr1_5 Pr1_6 3.910710 1_545
Mg0_0 Pr0_2 3.389955 1_545
Mg0_0 Pr0_4 3.389955 1_455
Mg0_0 Pr0_7 3.389955 1_444
Mg0_0 Pr0_1 3.389955 1_555
Mg0_0 Pr1_1 3.389955 1_555
Mg0_0 Pr1_2 3.389955 1_545
Mg0_0 Pr1_4 3.389955 1_455
Mg0_0 Pr1_7 3.389955 1_444
Mg0_1 Pr0_6 3.389955 1_445
Mg0_1 Pr0_5 3.389955 1_455
Mg0_1 Pr0_3 3.389955 1_545
Mg0_1 Pr0_0 3.389955 1_556
Mg0_1 Pr1_3 3.389955 1_545
Mg0_1 Pr1_0 3.389955 1_556
Mg0_1 Pr1_6 3.389955 1_445
Mg0_1 Pr1_5 3.389955 1_455
Mg0_2 Pr0_6 3.389955 1_455
Mg0_2 Pr0_5 3.389955 1_454
Mg0_2 Pr0_0 3.389955 1_555
Mg0_2 Pr0_3 3.389955 1_555
Mg0_2 Pr1_0 3.389955 1_555
Mg0_2 Pr1_6 3.389955 1_455
Mg0_2 Pr1_3 3.389955 1_555
Mg0_2 Pr1_5 3.389955 1_454
Mg0_3 Pr0_4 3.389955 1_455
Mg0_3 Pr0_7 3.389955 1_455
Mg0_3 Pr0_1 3.389955 1_555
Mg0_3 Pr0_2 3.389955 1_556
Mg0_3 Pr1_1 3.389955 1_555
Mg0_3 Pr1_4 3.389955 1_455
Mg0_3 Pr1_2 3.389955 1_556
Mg0_3 Pr1_7 3.389955 1_455
Mg0_4 Pr0_6 3.389955 1_545
Mg0_4 Pr0_0 3.389955 1_555
Mg0_4 Pr0_3 3.389955 1_544
Mg0_4 Pr0_5 3.389955 1_555
Mg0_4 Pr1_3 3.389955 1_544
Mg0_4 Pr1_5 3.389955 1_555
Mg0_4 Pr1_0 3.389955 1_555
Mg0_4 Pr1_6 3.389955 1_545
Mg0_5 Pr0_2 3.389955 1_545
Mg0_5 Pr0_4 3.389955 1_556
Mg0_5 Pr0_1 3.389955 1_555
Mg0_5 Pr0_7 3.389955 1_545
Mg0_5 Pr1_1 3.389955 1_555
Mg0_5 Pr1_7 3.389955 1_545
Mg0_5 Pr1_4 3.389955 1_556
Mg0_5 Pr1_2 3.389955 1_545
Mg0_6 Pr0_2 3.389955 1_555
Mg0_6 Pr0_4 3.389955 1_555
Mg0_6 Pr0_7 3.389955 1_555
Mg0_6 Pr0_1 3.389955 1_554
Mg0_6 Pr1_1 3.389955 1_554
Mg0_6 Pr1_2 3.389955 1_555
Mg0_6 Pr1_4 3.389955 1_555
Mg0_6 Pr1_7 3.389955 1_555
Mg0_7 Pr0_5 3.389955 1_555
Mg0_7 Pr0_0 3.389955 1_555
Mg0_7 Pr0_6 3.389955 1_556
Mg0_7 Pr0_3 3.389955 1_555
Mg0_7 Pr1_5 3.389955 1_555
Mg0_7 Pr1_0 3.389955 1_555
Mg0_7 Pr1_6 3.389955 1_556
Mg0_7 Pr1_3 3.389955 1_555
