# generated using pymatgen
data_Zr4Sn3
_symmetry_space_group_name_H-M   'P 1'
_cell_length_a   8.29256393
_cell_length_b   8.29256393
_cell_length_c   5.58807700
_cell_angle_alpha   90.00000000
_cell_angle_beta   90.00000000
_cell_angle_gamma   119.99999940
_symmetry_Int_Tables_number   1
_chemical_formula_structural   Zr4Sn3
_chemical_formula_sum   'Zr8 Sn6'
_cell_volume   332.79030996
_cell_formula_units_Z   2
loop_
 _symmetry_equiv_pos_site_id
 _symmetry_equiv_pos_as_xyz
  1  'x, y, z'
loop_
 _atom_site_type_symbol
 _atom_site_label
 _atom_site_symmetry_multiplicity
 _atom_site_fract_x
 _atom_site_fract_y
 _atom_site_fract_z
 _atom_site_occupancy
  Zr  Zr0  1  0.90384600  0.36128100  0.75000000  1
  Zr  Zr1  1  0.54256500  0.90384600  0.25000000  1
  Zr  Zr2  1  0.33333300  0.66666700  0.75000000  1
  Zr  Zr3  1  0.36128100  0.45743500  0.25000000  1
  Zr  Zr4  1  0.63871900  0.54256500  0.75000000  1
  Zr  Zr5  1  0.66666700  0.33333300  0.25000000  1
  Zr  Zr6  1  0.45743500  0.09615400  0.75000000  1
  Zr  Zr7  1  0.09615400  0.63871900  0.25000000  1
  Sn  Sn0  1  0.94904300  0.20996500  0.25000000  1
  Sn  Sn1  1  0.73907800  0.94904300  0.75000000  1
  Sn  Sn2  1  0.20996500  0.26092200  0.75000000  1
  Sn  Sn3  1  0.79003500  0.73907800  0.25000000  1
  Sn  Sn4  1  0.26092200  0.05095700  0.25000000  1
  Sn  Sn5  1  0.05095700  0.79003500  0.75000000  1
loop_
_geom_bond_atom_site_label_1
_geom_bond_atom_site_label_2
_geom_bond_distance
_geom_bond_site_symmetry_2
Zr0 Zr2 3.174659 1_655
Zr0 Zr4 3.224725 1_555
Zr0 Zr6 3.224725 1_555
Zr0 Zr5 3.357517 1_556
Zr0 Zr5 3.357517 1_555
Zr0 Zr7 3.460340 1_656
Zr0 Zr7 3.460340 1_655
Zr1 Zr5 3.174657 1_565
Zr1 Zr3 3.224725 1_555
Zr1 Zr7 3.224725 1_555
Zr1 Zr2 3.357519 1_554
Zr1 Zr2 3.357519 1_555
Zr1 Zr6 3.460340 1_565
Zr1 Zr6 3.460340 1_564
Zr2 Zr6 3.174657 1_565
Zr2 Zr4 3.174665 1_555
Zr2 Zr7 3.357517 1_555
Zr2 Zr7 3.357517 1_556
Zr2 Zr3 3.357522 1_555
Zr2 Zr3 3.357522 1_556
Zr3 Zr5 3.174665 1_555
Zr3 Zr7 3.224725 1_555
Zr3 Zr4 3.460340 1_555
Zr3 Zr4 3.460340 1_554
Zr4 Zr6 3.224725 1_555
Zr4 Zr5 3.357522 1_556
Zr4 Zr5 3.357522 1_555
Zr5 Zr7 3.174659 1_655
Zr5 Zr6 3.357519 1_554
Zr5 Zr6 3.357519 1_555
Sn0 Zr3 2.980309 1_655
Sn0 Zr5 2.987534 1_555
Sn0 Zr1 3.041264 1_545
Sn0 Zr7 3.129245 1_655
Sn0 Zr0 3.161003 1_554
Sn0 Zr0 3.161003 1_555
Sn0 Sn2 3.428200 1_655
Sn0 Sn2 3.428200 1_654
Sn0 Sn1 3.428200 1_545
Sn0 Sn1 3.428200 1_544
Sn0 Sn4 3.440598 1_655
Sn0 Sn3 3.440598 1_545
Sn1 Zr0 2.980309 1_565
Sn1 Zr2 2.987540 1_555
Sn1 Zr4 3.041264 1_555
Sn1 Zr6 3.129245 1_565
Sn1 Zr1 3.161003 1_556
Sn1 Zr1 3.161003 1_555
Sn1 Sn3 3.428200 1_555
Sn1 Sn3 3.428200 1_556
Sn1 Sn5 3.440598 1_655
Sn1 Sn2 3.440598 1_665
Sn2 Zr6 2.980309 1_555
Sn2 Zr2 2.987542 1_555
Sn2 Zr0 3.041264 1_455
Sn2 Zr4 3.129245 1_555
Sn2 Zr3 3.161003 1_555
Sn2 Zr3 3.161003 1_556
Sn2 Sn4 3.428200 1_556
Sn2 Sn4 3.428200 1_555
Sn2 Sn5 3.440598 1_545
Sn3 Zr1 2.980309 1_555
Sn3 Zr5 2.987542 1_555
Sn3 Zr7 3.041264 1_655
Sn3 Zr3 3.129245 1_555
Sn3 Zr4 3.161003 1_555
Sn3 Zr4 3.161003 1_554
Sn3 Sn5 3.428200 1_655
Sn3 Sn5 3.428200 1_654
Sn3 Sn4 3.440598 1_665
Sn4 Zr7 2.980309 1_545
Sn4 Zr5 2.987540 1_555
Sn4 Zr3 3.041264 1_555
Sn4 Zr1 3.129245 1_545
Sn4 Zr6 3.161003 1_554
Sn4 Zr6 3.161003 1_555
Sn4 Sn5 3.428200 1_545
Sn4 Sn5 3.428200 1_544
Sn5 Zr4 2.980309 1_455
Sn5 Zr2 2.987534 1_555
Sn5 Zr6 3.041264 1_565
Sn5 Zr0 3.129245 1_455
Sn5 Zr7 3.161003 1_555
Sn5 Zr7 3.161003 1_556
