# generated using pymatgen
data_Pr3(NiGe)4
_symmetry_space_group_name_H-M   'P 1'
_cell_length_a   12.43298043
_cell_length_b   12.43298043
_cell_length_c   12.43298043
_cell_angle_alpha   160.77218611
_cell_angle_beta   160.60804280
_cell_angle_gamma   27.44099477
_symmetry_Int_Tables_number   1
_chemical_formula_structural   Pr3(NiGe)4
_chemical_formula_sum   'Pr3 Ni4 Ge4'
_cell_volume   210.06041151
_cell_formula_units_Z   1
loop_
 _symmetry_equiv_pos_site_id
 _symmetry_equiv_pos_as_xyz
  1  'x, y, z'
loop_
 _atom_site_type_symbol
 _atom_site_label
 _atom_site_symmetry_multiplicity
 _atom_site_fract_x
 _atom_site_fract_y
 _atom_site_fract_z
 _atom_site_occupancy
  Pr  Pr0  1  0.00000000  0.00000000  0.00000000  1
  Pr  Pr1  1  0.85148200  0.35148200  0.50000000  1
  Pr  Pr2  1  0.14851800  0.64851800  0.50000000  1
  Ni  Ni0  1  0.54973200  0.54973200  0.00000000  1
  Ni  Ni1  1  0.45026800  0.45026800  0.00000000  1
  Ni  Ni2  1  0.69915500  0.19915500  0.50000000  1
  Ni  Ni3  1  0.30084500  0.80084500  0.50000000  1
  Ge  Ge0  1  0.24996500  0.24996500  0.00000000  1
  Ge  Ge1  1  0.59966200  0.09966200  0.50000000  1
  Ge  Ge2  1  0.40033800  0.90033800  0.50000000  1
  Ge  Ge3  1  0.75003500  0.75003500  0.00000000  1
loop_
_geom_bond_atom_site_label_1
_geom_bond_atom_site_label_2
_geom_bond_distance
_geom_bond_site_symmetry_2
Ni0 Ni1 2.402692 1_555
Ni0 Pr2 3.174773 1_655
Ni0 Pr2 3.174773 1_554
Ni0 Pr0 3.184241 1_666
Ni0 Pr0 3.184241 1_554
Ni0 Pr0 3.184241 1_565
Ni0 Pr0 3.184241 1_655
Ni1 Pr1 3.174773 1_454
Ni1 Pr1 3.174773 1_555
Ni1 Pr0 3.184241 1_666
Ni1 Pr0 3.184241 1_554
Ni1 Pr0 3.184241 1_565
Ni1 Pr0 3.184241 1_655
Ni2 Pr2 3.192553 1_656
Ni2 Pr2 3.192553 1_544
Ni2 Pr2 3.192553 1_555
Ni2 Pr2 3.192553 1_645
Ni3 Pr1 3.192553 1_465
Ni3 Pr1 3.192553 1_555
Ni3 Pr1 3.192553 1_454
Ni3 Pr1 3.192553 1_566
Ge0 Ni3 2.412903 1_544
Ge0 Ni3 2.412903 1_555
Ge0 Ni2 2.427173 1_555
Ge0 Ni2 2.427173 1_454
Ge0 Pr2 3.211990 1_544
Ge0 Pr2 3.211990 1_555
Ge0 Pr1 3.224653 1_555
Ge0 Pr1 3.224653 1_454
Ge1 Ni0 2.401295 1_556
Ge1 Ni0 2.401295 1_545
Ge1 Ni2 2.403392 1_555
Ge1 Pr2 3.176318 1_645
Ge1 Pr2 3.176318 1_656
Ge1 Pr2 3.176318 1_544
Ge1 Pr2 3.176318 1_555
Ge1 Pr0 3.190709 1_656
Ge1 Pr0 3.190709 1_555
Ge2 Ni1 2.401295 1_566
Ge2 Ni1 2.401295 1_555
Ge2 Ni3 2.403392 1_555
Ge2 Pr1 3.176318 1_465
Ge2 Pr1 3.176318 1_454
Ge2 Pr1 3.176318 1_566
Ge2 Pr1 3.176318 1_555
Ge2 Pr0 3.190709 1_666
Ge2 Pr0 3.190709 1_565
Ge3 Ni2 2.412903 1_565
Ge3 Ni2 2.412903 1_554
Ge3 Ni3 2.427173 1_554
Ge3 Ni3 2.427173 1_655
Ge3 Pr1 3.211990 1_554
Ge3 Pr1 3.211990 1_565
Ge3 Pr2 3.224653 1_554
Ge3 Pr2 3.224653 1_655
