# generated using pymatgen
data_Sr2YAlCr2O7
_symmetry_space_group_name_H-M   'P 1'
_cell_length_a   5.56999700
_cell_length_b   12.00242635
_cell_length_c   5.73721100
_cell_angle_alpha   76.17234221
_cell_angle_beta   89.99997973
_cell_angle_gamma   76.58287007
_symmetry_Int_Tables_number   1
_chemical_formula_structural   Sr2YAlCr2O7
_chemical_formula_sum   'Sr4 Y2 Al2 Cr4 O14'
_cell_volume   361.64670223
_cell_formula_units_Z   2
loop_
 _symmetry_equiv_pos_site_id
 _symmetry_equiv_pos_as_xyz
  1  'x, y, z'
loop_
 _atom_site_type_symbol
 _atom_site_label
 _atom_site_symmetry_multiplicity
 _atom_site_fract_x
 _atom_site_fract_y
 _atom_site_fract_z
 _atom_site_occupancy
  Sr  Sr0  1  0.16568800  0.68783300  0.18082800  1
  Sr  Sr1  1  0.85352300  0.31215500  0.81918800  1
  Sr  Sr2  1  0.35353200  0.31216000  0.36865900  1
  Sr  Sr3  1  0.66569300  0.68784000  0.63133800  1
  Y  Y0  1  0.50999900  0.99999400  0.50000200  1
  Y  Y1  1  0.00996400  0.99999600  0.00000700  1
  Al  Al0  1  0.24413100  0.50000200  0.82498900  1
  Al  Al1  1  0.74415300  0.49999500  0.17501800  1
  Cr  Cr0  1  0.94150100  0.15242000  0.42202300  1
  Cr  Cr1  1  0.09390900  0.84764500  0.57794100  1
  Cr  Cr2  1  0.59391600  0.84759500  0.07449400  1
  Cr  Cr3  1  0.44149500  0.15237700  0.92553000  1
  O  O0  1  0.43117000  0.49999400  0.08476300  1
  O  O1  1  0.93116600  0.49999700  0.91523600  1
  O  O2  1  0.29581200  0.87121700  0.27856800  1
  O  O3  1  0.16703200  0.12877300  0.72143300  1
  O  O4  1  0.66702900  0.12878000  0.64977700  1
  O  O5  1  0.79580800  0.87121600  0.35021000  1
  O  O6  1  0.88032000  0.85988500  0.86093700  1
  O  O7  1  0.74021700  0.14011300  0.13906800  1
  O  O8  1  0.24021100  0.14011300  0.22078200  1
  O  O9  1  0.38031400  0.85988400  0.77921600  1
  O  O10  1  0.22993900  0.63678100  0.61973900  1
  O  O11  1  0.86677600  0.36322000  0.38026800  1
  O  O12  1  0.36677700  0.36322400  0.75654500  1
  O  O13  1  0.72992700  0.63677900  0.24345200  1
loop_
_geom_bond_atom_site_label_1
_geom_bond_atom_site_label_2
_geom_bond_distance
_geom_bond_site_symmetry_2
Al0 O12 1.761713 1_555
Al0 O10 1.761738 1_555
Al0 O0 1.818371 1_556
Al0 O1 1.818491 1_455
Al1 O13 1.761670 1_555
Al1 O11 1.761739 1_555
Al1 O1 1.818356 1_554
Al1 O0 1.818595 1_555
Cr0 O8 2.022517 1_655
Cr0 O7 2.026232 1_555
Cr0 O4 2.036968 1_555
Cr0 O3 2.052039 1_655
Cr0 O11 2.419433 1_555
Cr1 O9 2.022321 1_555
Cr1 O6 2.026315 1_455
Cr1 O5 2.037008 1_455
Cr1 O2 2.051872 1_555
Cr1 O10 2.420107 1_555
Cr2 O6 2.022529 1_554
Cr2 O9 2.026399 1_554
Cr2 O2 2.036774 1_555
Cr2 O5 2.051709 1_555
Cr2 O13 2.419501 1_555
Cr3 O7 2.022673 1_556
Cr3 O8 2.026184 1_556
Cr3 O3 2.036676 1_555
Cr3 O4 2.051894 1_555
Cr3 O12 2.419898 1_555
O0 Sr2 2.572881 1_555
O0 Sr0 2.572953 1_555
O1 Sr3 2.572948 1_555
O1 Sr1 2.572950 1_555
O2 Y1 2.270541 1_555
O2 Sr0 2.648532 1_555
O2 Y0 2.687117 1_555
O2 Sr3 2.991889 1_555
O3 Y1 2.270567 1_546
O3 Sr1 2.648547 1_455
O3 Y0 2.687124 1_545
O3 Sr2 2.991973 1_555
O4 Y0 2.270478 1_545
O4 Sr2 2.648459 1_555
O4 Y1 2.687106 1_646
O4 Sr1 2.991896 1_555
O5 Y0 2.270446 1_555
O5 Sr3 2.648446 1_555
O5 Y1 2.687007 1_655
O5 Sr0 2.991901 1_655
O6 Y1 2.278377 1_656
O6 Sr0 2.612333 1_656
O6 Y0 2.845411 1_555
O6 Sr3 3.142325 1_555
O7 Y1 2.278372 1_645
O7 Sr1 2.612199 1_554
O7 Y0 2.845494 1_545
O7 Sr2 3.142345 1_555
O8 Y0 2.278621 1_545
O8 Sr2 2.612405 1_555
O8 Y1 2.845436 1_545
O8 Sr1 3.142190 1_454
O9 Y0 2.278580 1_555
O9 Sr3 2.612403 1_555
O9 Y1 2.845407 1_556
O9 Sr0 3.142256 1_556
O10 Sr0 2.450546 1_555
O10 Sr3 2.642124 1_555
O11 Sr1 2.450624 1_555
O11 Sr2 2.641817 1_655
O12 Sr2 2.450787 1_555
O12 Sr1 2.641747 1_555
O13 Sr3 2.450734 1_555
O13 Sr0 2.642121 1_655
