# generated using pymatgen
data_Na2H16SO12
_symmetry_space_group_name_H-M   'P 1'
_cell_length_a   8.06825073
_cell_length_b   8.25676083
_cell_length_c   8.39665988
_cell_angle_alpha   85.66168633
_cell_angle_beta   86.06508752
_cell_angle_gamma   88.25733124
_symmetry_Int_Tables_number   1
_chemical_formula_structural   Na2H16SO12
_chemical_formula_sum   'Na4 H32 S2 O24'
_cell_volume   556.26906987
_cell_formula_units_Z   2
loop_
 _symmetry_equiv_pos_site_id
 _symmetry_equiv_pos_as_xyz
  1  'x, y, z'
loop_
 _atom_site_type_symbol
 _atom_site_label
 _atom_site_symmetry_multiplicity
 _atom_site_fract_x
 _atom_site_fract_y
 _atom_site_fract_z
 _atom_site_occupancy
  Na  Na0  1  0.00000000  0.00000000  0.00000000  1
  Na  Na1  1  0.50000000  0.00000000  0.50000000  1
  Na  Na2  1  0.63705600  0.59382100  0.32122300  1
  Na  Na3  1  0.36294400  0.40617900  0.67877700  1
  H  H0  1  0.66180700  0.92388200  0.19139300  1
  H  H1  1  0.33819300  0.07611800  0.80860700  1
  H  H2  1  0.62254700  0.25809100  0.22348600  1
  H  H3  1  0.37745300  0.74190900  0.77651400  1
  H  H4  1  0.55397000  0.66617800  0.00887800  1
  H  H5  1  0.44603000  0.33382200  0.99112200  1
  H  H6  1  0.96949600  0.90551400  0.67478000  1
  H  H7  1  0.03050400  0.09448600  0.32522000  1
  H  H8  1  0.80506000  0.30961700  0.15390600  1
  H  H9  1  0.19494000  0.69038300  0.84609400  1
  H  H10  1  0.90900900  0.08637900  0.65268300  1
  H  H11  1  0.09099100  0.91362100  0.34731700  1
  H  H12  1  0.79674900  0.91916200  0.31569500  1
  H  H13  1  0.20325100  0.08083800  0.68430500  1
  H  H14  1  0.39063700  0.59369500  0.09578200  1
  H  H15  1  0.60936300  0.40630500  0.90421800  1
  H  H16  1  0.67162600  0.94298300  0.88913300  1
  H  H17  1  0.32837400  0.05701700  0.11086700  1
  H  H18  1  0.91925500  0.66207600  0.94950900  1
  H  H19  1  0.08074500  0.33792400  0.05049100  1
  H  H20  1  0.64399700  0.11653100  0.94933000  1
  H  H21  1  0.35600300  0.88346900  0.05067000  1
  H  H22  1  0.01510600  0.66718200  0.10430700  1
  H  H23  1  0.98489400  0.33281800  0.89569300  1
  H  H24  1  0.99821900  0.48582500  0.33495100  1
  H  H25  1  0.00178100  0.51417500  0.66504900  1
  H  H26  1  0.25039800  0.76081800  0.55770400  1
  H  H27  1  0.74960200  0.23918200  0.44229600  1
  H  H28  1  0.94287100  0.64646800  0.41558500  1
  H  H29  1  0.05712900  0.35353200  0.58441500  1
  H  H30  1  0.29361300  0.69777400  0.39095400  1
  H  H31  1  0.70638700  0.30222600  0.60904600  1
  S  S0  1  0.70969300  0.66684700  0.70650800  1
  S  S1  1  0.29030700  0.33315300  0.29349200  1
  O  O0  1  0.69939000  0.00946800  0.97539400  1
  O  O1  1  0.30061000  0.99053200  0.02460600  1
  O  O2  1  0.01816100  0.70834500  0.99060800  1
  O  O3  1  0.98183900  0.29165500  0.00939200  1
  O  O4  1  0.99575600  0.01554400  0.70217100  1
  O  O5  1  0.00424400  0.98445600  0.29782900  1
  O  O6  1  0.68088400  0.88642700  0.30345100  1
  O  O7  1  0.31911600  0.11357300  0.69654900  1
  O  O8  1  0.60598300  0.81866300  0.71438400  1
  O  O9  1  0.39401700  0.18133700  0.28561600  1
  O  O10  1  0.26627100  0.79879100  0.44268700  1
  O  O11  1  0.73372900  0.20120900  0.55731300  1
  O  O12  1  0.63223200  0.54874200  0.61028600  1
  O  O13  1  0.36776800  0.45125800  0.38971400  1
  O  O14  1  0.71922600  0.32111900  0.24333200  1
  O  O15  1  0.28077400  0.67888100  0.75666800  1
  O  O16  1  0.46494600  0.68748700  0.09221900  1
  O  O17  1  0.53505400  0.31251300  0.90778100  1
  O  O18  1  0.94381700  0.59365100  0.31414500  1
  O  O19  1  0.05618300  0.40634900  0.68585500  1
  O  O20  1  0.88128000  0.70420100  0.63492000  1
  O  O21  1  0.11872000  0.29579900  0.36508000  1
  O  O22  1  0.72386700  0.59246900  0.87564100  1
  O  O23  1  0.27613300  0.40753100  0.12435900  1
loop_
_geom_bond_atom_site_label_1
_geom_bond_atom_site_label_2
_geom_bond_distance
_geom_bond_site_symmetry_2
Na0 O3 2.415045 1_455
Na0 O2 2.415045 1_544
Na0 O1 2.446661 1_545
Na0 O0 2.446661 1_454
Na0 O5 2.496881 1_545
Na0 O4 2.496881 1_454
Na1 O7 2.356538 1_555
Na1 O6 2.356538 1_545
Na1 O8 2.437004 1_545
Na1 O9 2.437004 1_555
Na1 O11 2.642700 1_555
Na1 O10 2.642700 1_545
Na2 O12 2.425369 1_555
Na2 O6 2.444266 1_555
Na2 O14 2.451454 1_555
Na2 O18 2.471618 1_555
Na2 O16 2.509977 1_555
Na2 O13 2.513666 1_555
Na3 O13 2.425369 1_555
Na3 O7 2.444266 1_555
Na3 O15 2.451454 1_555
Na3 O19 2.471618 1_555
Na3 O17 2.509977 1_555
Na3 O12 2.513666 1_555
H0 O6 0.988740 1_555
H1 O7 0.988740 1_555
H2 O14 0.981167 1_555
H3 O15 0.981167 1_555
H4 O16 0.989203 1_555
H5 O17 0.989203 1_555
H6 O4 0.986484 1_565
H7 O5 0.986484 1_545
H8 O14 0.993910 1_555
H9 O15 0.993910 1_555
H10 O4 0.991385 1_555
H11 O5 0.991385 1_555
H12 O6 0.995133 1_555
H13 O7 0.995133 1_555
H14 O16 0.991132 1_555
H15 O17 0.991132 1_555
H16 O0 0.982876 1_565
H17 O1 0.982876 1_545
H18 O2 0.989001 1_655
H19 O3 0.989001 1_455
H20 O0 0.994589 1_555
H21 O1 0.994589 1_555
H22 O2 0.987799 1_554
H23 O3 0.987799 1_556
H24 O18 0.989458 1_555
H25 O19 0.989458 1_555
H26 O10 0.993504 1_555
H27 O11 0.993504 1_555
H28 O18 0.985308 1_555
H29 O19 0.985308 1_555
H30 O10 0.981583 1_555
H31 O11 0.981583 1_555
O8 S0 1.488951 1_555
O9 S1 1.488951 1_555
O12 S0 1.489926 1_555
O13 S1 1.489926 1_555
O20 S0 1.502244 1_555
O21 S1 1.502244 1_555
O22 S0 1.514307 1_555
O23 S1 1.514307 1_555
