# generated using pymatgen
data_BaSrCoWO6
_symmetry_space_group_name_H-M   'P 1'
_cell_length_a   5.76121132
_cell_length_b   5.75868930
_cell_length_c   5.75814623
_cell_angle_alpha   59.94640525
_cell_angle_beta   59.97015024
_cell_angle_gamma   89.76985346
_symmetry_Int_Tables_number   1
_chemical_formula_structural   BaSrCoWO6
_chemical_formula_sum   'Ba1 Sr1 Co1 W1 O6'
_cell_volume   135.18370153
_cell_formula_units_Z   1
loop_
 _symmetry_equiv_pos_site_id
 _symmetry_equiv_pos_as_xyz
  1  'x, y, z'
loop_
 _atom_site_type_symbol
 _atom_site_label
 _atom_site_symmetry_multiplicity
 _atom_site_fract_x
 _atom_site_fract_y
 _atom_site_fract_z
 _atom_site_occupancy
  Ba  Ba0  1  0.74925200  0.25054800  0.50008000  1
  Sr  Sr0  1  0.25057100  0.74953800  0.49996200  1
  Co  Co0  1  0.50005100  0.49993600  0.00000700  1
  W  W0  1  0.00001000  0.99999800  0.99999800  1
  O  O0  1  0.76036100  0.76022400  0.47947600  1
  O  O1  1  0.76070500  0.76060000  0.99993000  1
  O  O2  1  0.24062700  0.75907700  0.00016400  1
  O  O3  1  0.23964200  0.23980600  0.52050000  1
  O  O4  1  0.23930000  0.23943600  0.00005800  1
  O  O5  1  0.75948100  0.24083600  0.99982500  1
loop_
_geom_bond_atom_site_label_1
_geom_bond_atom_site_label_2
_geom_bond_distance
_geom_bond_site_symmetry_2
Ba0 O1 2.874775 1_554
Ba0 O4 2.876648 1_556
Ba0 O0 2.877136 1_555
Ba0 O3 2.878580 1_555
Ba0 O5 2.880200 1_554
Ba0 O5 2.880229 1_555
Ba0 O1 2.881624 1_545
Ba0 O4 2.883008 1_655
Ba0 O0 2.884009 1_545
Ba0 O3 2.885037 1_655
Ba0 O2 2.888417 1_655
Ba0 O2 2.889071 1_546
Co0 O5 2.107676 1_554
Co0 O2 2.107818 1_555
Co0 O3 2.120839 1_555
Co0 O0 2.120993 1_554
Co0 O4 2.127056 1_555
Co0 O1 2.127223 1_554
O0 W0 1.953714 1_654
O0 Sr0 2.879433 1_555
O0 Sr0 2.884200 1_655
O1 W0 1.953898 1_655
O1 Sr0 2.877480 1_556
O1 Sr0 2.882195 1_655
O2 W0 1.957313 1_554
O2 Sr0 2.880159 1_555
O2 Sr0 2.880165 1_554
O3 W0 1.953795 1_545
O3 Sr0 2.877635 1_555
O3 Sr0 2.883492 1_545
O4 W0 1.953967 1_544
O4 Sr0 2.875274 1_554
O4 Sr0 2.881104 1_545
O5 W0 1.956618 1_645
O5 Sr0 2.888138 1_655
O5 Sr0 2.889441 1_546
