# generated using pymatgen
data_Na2ScSiO5
_symmetry_space_group_name_H-M   'P 1'
_cell_length_a   5.37269400
_cell_length_b   12.20353900
_cell_length_c   13.72470200
_cell_angle_alpha   90.00000000
_cell_angle_beta   90.00000000
_cell_angle_gamma   90.00000000
_symmetry_Int_Tables_number   1
_chemical_formula_structural   Na2ScSiO5
_chemical_formula_sum   'Na16 Sc8 Si8 O40'
_cell_volume   899.87217485
_cell_formula_units_Z   8
loop_
 _symmetry_equiv_pos_site_id
 _symmetry_equiv_pos_as_xyz
  1  'x, y, z'
loop_
 _atom_site_type_symbol
 _atom_site_label
 _atom_site_symmetry_multiplicity
 _atom_site_fract_x
 _atom_site_fract_y
 _atom_site_fract_z
 _atom_site_occupancy
  Na  Na0  1  0.97134200  0.07030300  0.51342800  1
  Na  Na1  1  0.02865800  0.57030300  0.48657200  1
  Na  Na2  1  0.97134200  0.57030300  0.98657200  1
  Na  Na3  1  0.02865800  0.07030300  0.01342800  1
  Na  Na4  1  0.52140500  0.24962300  0.73542400  1
  Na  Na5  1  0.47859500  0.74962300  0.26457600  1
  Na  Na6  1  0.52140500  0.74962300  0.76457600  1
  Na  Na7  1  0.47859500  0.24962300  0.23542400  1
  Na  Na8  1  0.98169700  0.34286400  0.85372100  1
  Na  Na9  1  0.01830300  0.84286400  0.14627900  1
  Na  Na10  1  0.98169700  0.84286400  0.64627900  1
  Na  Na11  1  0.01830300  0.34286400  0.35372100  1
  Na  Na12  1  0.53018900  0.47912900  0.60230500  1
  Na  Na13  1  0.46981100  0.97912900  0.39769500  1
  Na  Na14  1  0.53018900  0.97912900  0.89769500  1
  Na  Na15  1  0.46981100  0.47912900  0.10230500  1
  Sc  Sc0  1  0.98508200  0.09090300  0.77808800  1
  Sc  Sc1  1  0.01491800  0.59090300  0.22191200  1
  Sc  Sc2  1  0.98508200  0.59090300  0.72191200  1
  Sc  Sc3  1  0.01491800  0.09090300  0.27808800  1
  Sc  Sc4  1  0.48975300  0.23145300  0.97075000  1
  Sc  Sc5  1  0.51024700  0.73145300  0.02925000  1
  Sc  Sc6  1  0.48975300  0.73145300  0.52925000  1
  Sc  Sc7  1  0.51024700  0.23145300  0.47075000  1
  Si  Si0  1  0.46202000  0.00294900  0.63935800  1
  Si  Si1  1  0.53798000  0.50294900  0.36064200  1
  Si  Si2  1  0.46202000  0.50294900  0.86064200  1
  Si  Si3  1  0.53798000  0.00294900  0.13935800  1
  Si  Si4  1  0.96287600  0.31937600  0.11008100  1
  Si  Si5  1  0.03712400  0.81937600  0.88991900  1
  Si  Si6  1  0.96287600  0.81937600  0.38991900  1
  Si  Si7  1  0.03712400  0.31937600  0.61008100  1
  O  O0  1  0.53904100  0.07658200  0.54412300  1
  O  O1  1  0.46095900  0.57658200  0.45587700  1
  O  O2  1  0.53904100  0.57658200  0.95587700  1
  O  O3  1  0.46095900  0.07658200  0.04412300  1
  O  O4  1  0.62180200  0.04514300  0.73582100  1
  O  O5  1  0.37819800  0.54514300  0.26417900  1
  O  O6  1  0.62180200  0.54514300  0.76417900  1
  O  O7  1  0.37819800  0.04514300  0.23582100  1
  O  O8  1  0.52904500  0.87293600  0.62265000  1
  O  O9  1  0.47095500  0.37293600  0.37735000  1
  O  O10  1  0.52904500  0.37293600  0.87735000  1
  O  O11  1  0.47095500  0.87293600  0.12265000  1
  O  O12  1  0.16184300  0.01628600  0.66166900  1
  O  O13  1  0.83815700  0.51628600  0.33833100  1
  O  O14  1  0.16184300  0.51628600  0.83833100  1
  O  O15  1  0.83815700  0.01628600  0.16166900  1
  O  O16  1  0.12807000  0.28256500  0.01267900  1
  O  O17  1  0.87193000  0.78256500  0.98732100  1
  O  O18  1  0.12807000  0.78256500  0.48732100  1
  O  O19  1  0.87193000  0.28256500  0.51267900  1
  O  O20  1  0.02015500  0.44977000  0.12787100  1
  O  O21  1  0.97984500  0.94977000  0.87212900  1
  O  O22  1  0.02015500  0.94977000  0.37212900  1
  O  O23  1  0.97984500  0.44977000  0.62787100  1
  O  O24  1  0.04281700  0.24487900  0.20433400  1
  O  O25  1  0.95718300  0.74487900  0.79566600  1
  O  O26  1  0.04281700  0.74487900  0.29566600  1
  O  O27  1  0.95718300  0.24487900  0.70433400  1
  O  O28  1  0.66317700  0.30462200  0.08828500  1
  O  O29  1  0.33682300  0.80462200  0.91171500  1
  O  O30  1  0.66317700  0.80462200  0.41171500  1
  O  O31  1  0.33682300  0.30462200  0.58828500  1
  O  O32  1  0.29731500  0.15052400  0.85444900  1
  O  O33  1  0.70268500  0.65052400  0.14555100  1
  O  O34  1  0.29731500  0.65052400  0.64555100  1
  O  O35  1  0.70268500  0.15052400  0.35444900  1
  O  O36  1  0.80186200  0.16935100  0.89691900  1
  O  O37  1  0.19813800  0.66935100  0.10308100  1
  O  O38  1  0.80186200  0.66935100  0.60308100  1
  O  O39  1  0.19813800  0.16935100  0.39691900  1
loop_
_geom_bond_atom_site_label_1
_geom_bond_atom_site_label_2
_geom_bond_distance
_geom_bond_site_symmetry_2
Na0 O39 2.345797 1_655
Na0 O0 2.361761 1_555
Na0 O12 2.370981 1_655
Na0 O22 2.448110 1_645
Na0 O19 2.644859 1_555
Na0 O35 2.793331 1_555
Na1 O38 2.345797 1_455
Na1 O1 2.361761 1_555
Na1 O13 2.370981 1_455
Na1 O23 2.448110 1_455
Na1 O18 2.644859 1_555
Na1 O34 2.793331 1_555
Na2 O37 2.345797 1_656
Na2 O2 2.361761 1_555
Na2 O14 2.370981 1_655
Na2 O20 2.448110 1_656
Na2 O17 2.644859 1_555
Na2 O33 2.793331 1_556
Na3 O36 2.345797 1_454
Na3 O3 2.361761 1_555
Na3 O15 2.370981 1_455
Na3 O21 2.448110 1_444
Na3 O16 2.644859 1_555
Na3 O32 2.793331 1_554
Na4 O31 2.347785 1_555
Na4 O32 2.362346 1_555
Na4 O27 2.380571 1_555
Na4 O10 2.461820 1_555
Na4 O4 2.553019 1_555
Na4 O36 2.853566 1_555
Na5 O30 2.347785 1_555
Na5 O33 2.362346 1_555
Na5 O26 2.380571 1_555
Na5 O11 2.461820 1_555
Na5 O5 2.553019 1_555
Na5 O37 2.853566 1_555
Na6 O29 2.347785 1_555
Na6 O34 2.362346 1_555
Na6 O25 2.380571 1_555
Na6 O8 2.461820 1_555
Na6 O6 2.553019 1_555
Na6 O38 2.853566 1_555
Na7 O28 2.347785 1_555
Na7 O35 2.362346 1_555
Na7 O24 2.380571 1_555
Na7 O9 2.461820 1_555
Na7 O7 2.553019 1_555
Na7 O39 2.853566 1_555
Na8 O14 2.336745 1_655
Na8 O27 2.377161 1_555
Na8 O36 2.401819 1_555
Na8 O16 2.433012 1_656
Na8 O10 2.480782 1_555
Na8 O32 2.895694 1_655
Na9 O15 2.336745 1_465
Na9 O26 2.377161 1_555
Na9 O37 2.401819 1_555
Na9 O17 2.433012 1_454
Na9 O11 2.480782 1_555
Na9 O33 2.895694 1_455
Na10 O12 2.336745 1_665
Na10 O25 2.377161 1_555
Na10 O38 2.401819 1_555
Na10 O18 2.433012 1_655
Na10 O8 2.480782 1_555
Na10 O34 2.895694 1_655
Na11 O13 2.336745 1_455
Na11 O24 2.377161 1_555
Na11 O39 2.401819 1_555
Na11 O19 2.433012 1_455
Na11 O9 2.480782 1_555
Na11 O35 2.895694 1_455
Na12 O1 2.364642 1_555
Na12 O31 2.377297 1_555
Na12 O6 2.413938 1_555
Na12 O23 2.467364 1_555
Na12 O34 2.508503 1_555
Na12 O38 2.742153 1_555
Na13 O0 2.364642 1_565
Na13 O30 2.377297 1_555
Na13 O7 2.413938 1_565
Na13 O22 2.467364 1_555
Na13 O35 2.508503 1_565
Na13 O39 2.742153 1_565
Na14 O3 2.364642 1_566
Na14 O29 2.377297 1_555
Na14 O4 2.413938 1_565
Na14 O21 2.467364 1_555
Na14 O32 2.508503 1_565
Na14 O36 2.742153 1_565
Na15 O2 2.364642 1_554
Na15 O28 2.377297 1_555
Na15 O5 2.413938 1_555
Na15 O20 2.467364 1_555
Na15 O33 2.508503 1_555
Na15 O37 2.742153 1_555
O0 Si0 1.639246 1_555
O0 Sc7 2.147098 1_555
O1 Si1 1.639246 1_555
O1 Sc6 2.147098 1_555
O2 Si2 1.639246 1_555
O2 Sc5 2.147098 1_556
O3 Si3 1.639246 1_555
O3 Sc4 2.147098 1_554
O4 Si0 1.659781 1_555
O4 Sc0 2.111364 1_555
O5 Si1 1.659781 1_555
O5 Sc1 2.111364 1_555
O6 Si2 1.659781 1_555
O6 Sc2 2.111364 1_555
O7 Si3 1.659781 1_555
O7 Sc3 2.111364 1_555
O8 Si0 1.643052 1_565
O8 Sc6 2.160769 1_555
O9 Si1 1.643052 1_555
O9 Sc7 2.160769 1_555
O10 Si2 1.643052 1_555
O10 Sc4 2.160769 1_555
O11 Si3 1.643052 1_565
O11 Sc5 2.160769 1_555
O12 Si0 1.649621 1_555
O12 Sc0 2.069804 1_455
O13 Si1 1.649621 1_555
O13 Sc1 2.069804 1_655
O14 Si2 1.649621 1_555
O14 Sc2 2.069804 1_455
O15 Si3 1.649621 1_555
O15 Sc3 2.069804 1_655
O16 Si4 1.666312 1_455
O16 Sc4 2.120446 1_554
O17 Si5 1.666312 1_655
O17 Sc5 2.120446 1_556
O18 Si6 1.666312 1_455
O18 Sc6 2.120446 1_555
O19 Si7 1.666312 1_655
O19 Sc7 2.120446 1_555
O20 Si4 1.639041 1_455
O20 Sc1 2.152453 1_555
O21 Si5 1.639041 1_655
O21 Sc0 2.152453 1_565
O22 Si6 1.639041 1_455
O22 Sc3 2.152453 1_565
O23 Si7 1.639041 1_655
O23 Sc2 2.152453 1_555
O24 Si4 1.638404 1_455
O24 Sc3 2.139616 1_555
O25 Si5 1.638404 1_655
O25 Sc2 2.139616 1_555
O26 Si6 1.638404 1_455
O26 Sc1 2.139616 1_555
O27 Si7 1.638404 1_655
O27 Sc0 2.139616 1_555
O28 Si4 1.647611 1_555
O28 Sc4 2.065834 1_554
O29 Si5 1.647611 1_555
O29 Sc5 2.065834 1_556
O30 Si6 1.647611 1_555
O30 Sc6 2.065834 1_555
O31 Si7 1.647611 1_555
O31 Sc7 2.065834 1_555
O32 Sc0 2.107574 1_455
O32 Sc4 2.142944 1_555
O33 Sc1 2.107574 1_655
O33 Sc5 2.142944 1_555
O34 Sc2 2.107574 1_455
O34 Sc6 2.142944 1_555
O35 Sc3 2.107574 1_655
O35 Sc7 2.142944 1_555
O36 Sc4 2.100722 1_555
O36 Sc0 2.131999 1_555
O37 Sc5 2.100722 1_555
O37 Sc1 2.131999 1_555
O38 Sc6 2.100722 1_555
O38 Sc2 2.131999 1_555
O39 Sc7 2.100722 1_555
O39 Sc3 2.131999 1_555
