# generated using pymatgen
data_MgSe2
_symmetry_space_group_name_H-M   'P 1'
_cell_length_a   6.45999753
_cell_length_b   6.45999753
_cell_length_c   6.45999753
_cell_angle_alpha   90.00000000
_cell_angle_beta   90.00000000
_cell_angle_gamma   90.00000000
_symmetry_Int_Tables_number   1
_chemical_formula_structural   MgSe2
_chemical_formula_sum   'Mg4 Se8'
_cell_volume   269.58582677
_cell_formula_units_Z   4
loop_
 _symmetry_equiv_pos_site_id
 _symmetry_equiv_pos_as_xyz
  1  'x, y, z'
loop_
 _atom_site_type_symbol
 _atom_site_label
 _atom_site_symmetry_multiplicity
 _atom_site_fract_x
 _atom_site_fract_y
 _atom_site_fract_z
 _atom_site_occupancy
  Mg  Mg0  1  0.50000000  0.50000000  0.00000000  1
  Mg  Mg1  1  0.50000000  0.00000000  0.50000000  1
  Mg  Mg2  1  0.00000000  0.50000000  0.50000000  1
  Mg  Mg3  1  0.00000000  0.00000000  -0.00000000  1
  Se  Se0  1  0.10620254  0.89379746  0.39379746  1
  Se  Se1  1  0.89379746  0.39379746  0.10620254  1
  Se  Se2  1  0.39379746  0.10620254  0.89379746  1
  Se  Se3  1  0.60620254  0.60620254  0.60620254  1
  Se  Se4  1  0.89379746  0.10620254  0.60620254  1
  Se  Se5  1  0.10620254  0.60620254  0.89379746  1
  Se  Se6  1  0.60620254  0.89379746  0.10620254  1
  Se  Se7  1  0.39379746  0.39379746  0.39379746  1
loop_
_geom_bond_atom_site_label_1
_geom_bond_atom_site_label_2
_geom_bond_distance
_geom_bond_site_symmetry_2
Mg0 Se5 2.722676 1_554
Mg0 Se2 2.722676 1_554
Mg0 Se7 2.722676 1_555
Mg0 Se3 2.722676 1_554
Mg0 Se1 2.722676 1_555
Mg0 Se6 2.722676 1_555
Mg1 Se6 2.722676 1_545
Mg1 Se3 2.722676 1_545
Mg1 Se0 2.722676 1_545
Mg1 Se7 2.722676 1_555
Mg1 Se2 2.722676 1_555
Mg1 Se4 2.722676 1_555
Mg2 Se1 2.722676 1_455
Mg2 Se4 2.722676 1_455
Mg2 Se3 2.722676 1_455
Mg2 Se7 2.722676 1_555
Mg2 Se5 2.722676 1_555
Mg2 Se0 2.722676 1_555
Mg3 Se0 2.722676 1_545
Mg3 Se2 2.722676 1_554
Mg3 Se1 2.722676 1_455
Mg3 Se4 2.722676 1_454
Mg3 Se6 2.722676 1_445
Mg3 Se5 2.722676 1_544
Se0 Se4 2.376610 1_465
Se1 Se5 2.376610 1_654
Se2 Se6 2.376610 1_546
Se3 Se7 2.376610 1_555
