# generated using pymatgen
data_SiH8C4F3
_symmetry_space_group_name_H-M   'P 1'
_cell_length_a   10.27204900
_cell_length_b   6.87836200
_cell_length_c   6.89374321
_cell_angle_alpha   77.17225971
_cell_angle_beta   90.00000000
_cell_angle_gamma   90.00000000
_symmetry_Int_Tables_number   1
_chemical_formula_structural   SiH8C4F3
_chemical_formula_sum   'Si2 H16 C8 F6'
_cell_volume   474.92007258
_cell_formula_units_Z   2
loop_
 _symmetry_equiv_pos_site_id
 _symmetry_equiv_pos_as_xyz
  1  'x, y, z'
loop_
 _atom_site_type_symbol
 _atom_site_label
 _atom_site_symmetry_multiplicity
 _atom_site_fract_x
 _atom_site_fract_y
 _atom_site_fract_z
 _atom_site_occupancy
  Si  Si0  1  0.24942900  0.19838600  0.22131400  1
  Si  Si1  1  0.74942900  0.80161400  0.77868600  1
  H  H0  1  0.26308800  0.89571600  0.51751100  1
  H  H1  1  0.76308800  0.10428400  0.48248900  1
  H  H2  1  0.09704700  0.48740700  0.17996800  1
  H  H3  1  0.59704700  0.51259300  0.82003200  1
  H  H4  1  0.90226100  0.51597500  0.81821400  1
  H  H5  1  0.40226100  0.48402500  0.18178600  1
  H  H6  1  0.09342400  0.33351000  0.42621900  1
  H  H7  1  0.59342400  0.66649000  0.57378100  1
  H  H8  1  0.90707500  0.66662800  0.57291700  1
  H  H9  1  0.40707500  0.33337200  0.42708300  1
  H  H10  1  0.01156200  0.25379100  0.23053600  1
  H  H11  1  0.51156200  0.74620900  0.76946400  1
  H  H12  1  0.98947800  0.74671500  0.76867000  1
  H  H13  1  0.48947800  0.25328500  0.23133000  1
  H  H14  1  0.17188500  0.82970500  0.31136300  1
  H  H15  1  0.67188500  0.17029500  0.68863700  1
  C  C0  1  0.23289800  0.93911400  0.36117200  1
  C  C1  1  0.73289800  0.06088600  0.63882800  1
  C  C2  1  0.25009800  0.19863800  0.93769500  1
  C  C3  1  0.75009800  0.80136200  0.06230500  1
  C  C4  1  0.09799400  0.33296100  0.26657700  1
  C  C5  1  0.59799400  0.66703900  0.73342300  1
  C  C6  1  0.90180300  0.67098300  0.73152900  1
  C  C7  1  0.40180300  0.32901700  0.26847100  1
  F  F0  1  0.25003300  0.39045500  0.82049900  1
  F  F1  1  0.75003300  0.60954500  0.17950100  1
  F  F2  1  0.14281400  0.10542700  0.87827100  1
  F  F3  1  0.64281400  0.89457300  0.12172900  1
  F  F4  1  0.85741200  0.89403100  0.12269700  1
  F  F5  1  0.35741200  0.10596900  0.87730300  1
loop_
_geom_bond_atom_site_label_1
_geom_bond_atom_site_label_2
_geom_bond_distance
_geom_bond_site_symmetry_2
C0 H14 1.091684 1_555
C0 H0 1.097264 1_555
C0 Si0 1.837202 1_565
C1 H15 1.091684 1_555
C1 H1 1.097264 1_555
C1 Si1 1.837202 1_545
C2 F2 1.382014 1_555
C2 F5 1.382967 1_555
C2 F0 1.385708 1_555
C2 Si0 1.954825 1_556
C3 F3 1.382014 1_555
C3 F4 1.382967 1_555
C3 F1 1.385708 1_555
C3 Si1 1.954825 1_554
C4 H2 1.097035 1_555
C4 H10 1.098455 1_555
C4 H6 1.102375 1_555
C4 Si0 1.871412 1_555
C5 H3 1.097035 1_555
C5 H11 1.098455 1_555
C5 H7 1.102375 1_555
C5 Si1 1.871412 1_555
C6 H12 1.098733 1_555
C6 H4 1.100452 1_555
C6 H8 1.101800 1_555
C6 Si1 1.868841 1_555
C7 H13 1.098733 1_555
C7 H5 1.100452 1_555
C7 H9 1.101800 1_555
C7 Si0 1.868841 1_555
