# generated using pymatgen
data_Y3Sb4Au3
_symmetry_space_group_name_H-M   'P 1'
_cell_length_a   8.57706274
_cell_length_b   8.57706181
_cell_length_c   8.57706165
_cell_angle_alpha   109.47121778
_cell_angle_beta   109.47121565
_cell_angle_gamma   109.47121743
_symmetry_Int_Tables_number   1
_chemical_formula_structural   Y3Sb4Au3
_chemical_formula_sum   'Y6 Sb8 Au6'
_cell_volume   485.72876921
_cell_formula_units_Z   2
loop_
 _symmetry_equiv_pos_site_id
 _symmetry_equiv_pos_as_xyz
  1  'x, y, z'
loop_
 _atom_site_type_symbol
 _atom_site_label
 _atom_site_symmetry_multiplicity
 _atom_site_fract_x
 _atom_site_fract_y
 _atom_site_fract_z
 _atom_site_occupancy
  Y  Y0  1  0.25000000  0.62500000  0.37500000  1
  Y  Y1  1  0.37500000  0.25000000  0.62500000  1
  Y  Y2  1  0.12500000  0.75000000  0.87500000  1
  Y  Y3  1  0.87500000  0.12500000  0.75000000  1
  Y  Y4  1  0.62500000  0.37500000  0.25000000  1
  Y  Y5  1  0.75000000  0.87500000  0.12500000  1
  Sb  Sb0  1  0.32620833  0.50000000  0.00000000  1
  Sb  Sb1  1  0.50000000  0.00000000  0.32620833  1
  Sb  Sb2  1  0.00000000  0.32620833  0.50000000  1
  Sb  Sb3  1  0.50000000  0.00000000  0.82620833  1
  Sb  Sb4  1  0.67379167  0.67379167  0.67379167  1
  Sb  Sb5  1  0.00000000  0.82620833  0.50000000  1
  Sb  Sb6  1  0.17379167  0.17379167  0.17379167  1
  Sb  Sb7  1  0.82620833  0.50000000  0.00000000  1
  Au  Au0  1  0.75000000  0.37500000  0.62500000  1
  Au  Au1  1  0.37500000  0.62500000  0.75000000  1
  Au  Au2  1  0.62500000  0.75000000  0.37500000  1
  Au  Au3  1  0.87500000  0.25000000  0.12500000  1
  Au  Au4  1  0.25000000  0.12500000  0.87500000  1
  Au  Au5  1  0.12500000  0.87500000  0.25000000  1
loop_
_geom_bond_atom_site_label_1
_geom_bond_atom_site_label_2
_geom_bond_distance
_geom_bond_site_symmetry_2
Sb0 Y0 3.389953 1_555
Sb0 Y2 3.389953 1_554
Sb0 Y3 3.389953 1_454
Sb0 Y1 3.466401 1_554
Sb0 Y4 3.466401 1_555
Sb0 Y5 3.466402 1_555
Sb1 Y4 3.389953 1_555
Sb1 Y5 3.389953 1_545
Sb1 Y2 3.389953 1_544
Sb1 Y1 3.466401 1_555
Sb1 Y0 3.466401 1_545
Sb1 Y3 3.466402 1_555
Sb2 Y3 3.389953 1_455
Sb2 Y1 3.389953 1_555
Sb2 Y5 3.389953 1_445
Sb2 Y0 3.466401 1_555
Sb2 Y2 3.466401 1_555
Sb2 Y4 3.466402 1_455
Sb3 Y1 3.389953 1_555
Sb3 Y3 3.389953 1_555
Sb3 Y0 3.389953 1_545
Sb3 Y5 3.466401 1_546
Sb3 Y4 3.466401 1_556
Sb3 Y2 3.466401 1_545
Sb4 Y5 3.389953 1_556
Sb4 Y3 3.389953 1_565
Sb4 Y2 3.389953 1_655
Sb4 Y4 3.466401 1_555
Sb4 Y1 3.466401 1_555
Sb4 Y0 3.466402 1_555
Sb5 Y2 3.389953 1_555
Sb5 Y0 3.389953 1_555
Sb5 Y4 3.389953 1_455
Sb5 Y3 3.466401 1_465
Sb5 Y5 3.466401 1_455
Sb5 Y1 3.466402 1_565
Sb6 Y0 3.389953 1_555
Sb6 Y1 3.389953 1_555
Sb6 Y4 3.389953 1_555
Sb6 Y2 3.466401 1_544
Sb6 Y3 3.466401 1_454
Sb6 Y5 3.466402 1_445
Sb7 Y4 3.389953 1_555
Sb7 Y5 3.389953 1_555
Sb7 Y1 3.389953 1_554
Sb7 Y3 3.466401 1_554
Sb7 Y2 3.466401 1_654
Sb7 Y0 3.466402 1_655
Au0 Sb4 2.784640 1_555
Au0 Sb7 2.784640 1_556
Au0 Sb2 2.784640 1_655
Au0 Sb1 2.784640 1_555
Au0 Y3 3.032449 1_555
Au0 Y4 3.032449 1_555
Au0 Y1 3.032450 1_555
Au0 Y2 3.032450 1_655
Au1 Sb0 2.784640 1_556
Au1 Sb3 2.784640 1_565
Au1 Sb4 2.784640 1_555
Au1 Sb2 2.784640 1_555
Au1 Y0 3.032449 1_555
Au1 Y1 3.032449 1_555
Au1 Y2 3.032449 1_555
Au1 Y5 3.032450 1_556
Au2 Sb4 2.784640 1_555
Au2 Sb1 2.784640 1_565
Au2 Sb5 2.784640 1_655
Au2 Sb0 2.784640 1_555
Au2 Y5 3.032449 1_555
Au2 Y4 3.032449 1_555
Au2 Y0 3.032450 1_555
Au2 Y3 3.032450 1_565
Au3 Sb7 2.784640 1_555
Au3 Sb2 2.784640 1_655
Au3 Sb6 2.784640 1_655
Au3 Sb3 2.784640 1_554
Au3 Y3 3.032449 1_554
Au3 Y5 3.032449 1_545
Au3 Y4 3.032449 1_555
Au3 Y0 3.032450 1_655
Au4 Sb6 2.784640 1_556
Au4 Sb0 2.784640 1_556
Au4 Sb3 2.784640 1_555
Au4 Sb5 2.784640 1_545
Au4 Y1 3.032449 1_555
Au4 Y2 3.032449 1_545
Au4 Y3 3.032450 1_455
Au4 Y4 3.032450 1_556
Au5 Sb5 2.784640 1_555
Au5 Sb6 2.784640 1_565
Au5 Sb1 2.784640 1_565
Au5 Sb7 2.784640 1_455
Au5 Y2 3.032449 1_554
Au5 Y0 3.032449 1_555
Au5 Y5 3.032450 1_455
Au5 Y1 3.032450 1_565
