# generated using pymatgen
data_CaSi3SnO11
_symmetry_space_group_name_H-M   'P 1'
_cell_length_a   5.30271900
_cell_length_b   11.75589800
_cell_length_c   14.62990900
_cell_angle_alpha   90.00000000
_cell_angle_beta   90.00000000
_cell_angle_gamma   90.00000000
_symmetry_Int_Tables_number   1
_chemical_formula_structural   CaSi3SnO11
_chemical_formula_sum   'Ca4 Si12 Sn4 O44'
_cell_volume   912.00253976
_cell_formula_units_Z   4
loop_
 _symmetry_equiv_pos_site_id
 _symmetry_equiv_pos_as_xyz
  1  'x, y, z'
loop_
 _atom_site_type_symbol
 _atom_site_label
 _atom_site_symmetry_multiplicity
 _atom_site_fract_x
 _atom_site_fract_y
 _atom_site_fract_z
 _atom_site_occupancy
  Ca  Ca0  1  0.25000000  0.25000000  0.90983400  1
  Ca  Ca1  1  0.25000000  0.75000000  0.59016600  1
  Ca  Ca2  1  0.75000000  0.75000000  0.09016600  1
  Ca  Ca3  1  0.75000000  0.25000000  0.40983400  1
  Si  Si0  1  0.25000000  0.25000000  0.56699600  1
  Si  Si1  1  0.25000000  0.75000000  0.93300400  1
  Si  Si2  1  0.75000000  0.75000000  0.43300400  1
  Si  Si3  1  0.75000000  0.25000000  0.06699600  1
  Si  Si4  1  0.50051900  0.47011900  0.64240600  1
  Si  Si5  1  0.50051900  0.52988100  0.85759400  1
  Si  Si6  1  0.99948100  0.02988100  0.64240600  1
  Si  Si7  1  0.99948100  0.97011900  0.85759400  1
  Si  Si8  1  0.49948100  0.52988100  0.35759400  1
  Si  Si9  1  0.49948100  0.47011900  0.14240600  1
  Si  Si10  1  0.00051900  0.97011900  0.35759400  1
  Si  Si11  1  0.00051900  0.02988100  0.14240600  1
  Sn  Sn0  1  0.00000000  0.50000000  0.50000000  1
  Sn  Sn1  1  0.00000000  0.50000000  0.00000000  1
  Sn  Sn2  1  0.50000000  0.00000000  0.50000000  1
  Sn  Sn3  1  0.50000000  0.00000000  0.00000000  1
  O  O0  1  0.79482900  0.48811200  0.61663900  1
  O  O1  1  0.79482900  0.51188800  0.88336100  1
  O  O2  1  0.70517100  0.01188800  0.61663900  1
  O  O3  1  0.70517100  0.98811200  0.88336100  1
  O  O4  1  0.20517100  0.51188800  0.38336100  1
  O  O5  1  0.20517100  0.48811200  0.11663900  1
  O  O6  1  0.29482900  0.98811200  0.38336100  1
  O  O7  1  0.29482900  0.01188800  0.11663900  1
  O  O8  1  0.41118100  0.33681500  0.63081400  1
  O  O9  1  0.41118100  0.66318500  0.86918600  1
  O  O10  1  0.08881900  0.16318500  0.63081400  1
  O  O11  1  0.08881900  0.83681500  0.86918600  1
  O  O12  1  0.58881900  0.66318500  0.36918600  1
  O  O13  1  0.58881900  0.33681500  0.13081400  1
  O  O14  1  0.91118100  0.83681500  0.36918600  1
  O  O15  1  0.91118100  0.16318500  0.13081400  1
  O  O16  1  0.31396400  0.44763600  0.91963700  1
  O  O17  1  0.31396400  0.55236400  0.58036300  1
  O  O18  1  0.18603600  0.05236400  0.91963700  1
  O  O19  1  0.18603600  0.94763600  0.58036300  1
  O  O20  1  0.68603600  0.55236400  0.08036300  1
  O  O21  1  0.68603600  0.44763600  0.41963700  1
  O  O22  1  0.81396400  0.94763600  0.08036300  1
  O  O23  1  0.81396400  0.05236400  0.41963700  1
  O  O24  1  0.05869900  0.32281200  0.50105700  1
  O  O25  1  0.05869900  0.67718800  0.99894300  1
  O  O26  1  0.44130100  0.17718800  0.50105700  1
  O  O27  1  0.44130100  0.82281200  0.99894300  1
  O  O28  1  0.94130100  0.67718800  0.49894300  1
  O  O29  1  0.94130100  0.32281200  0.00105700  1
  O  O30  1  0.55869900  0.82281200  0.49894300  1
  O  O31  1  0.55869900  0.17718800  0.00105700  1
  O  O32  1  0.83640000  0.28537400  0.78897900  1
  O  O33  1  0.83640000  0.71462600  0.71102100  1
  O  O34  1  0.66360000  0.21462600  0.78897900  1
  O  O35  1  0.66360000  0.78537400  0.71102100  1
  O  O36  1  0.16360000  0.71462600  0.21102100  1
  O  O37  1  0.16360000  0.28537400  0.28897900  1
  O  O38  1  0.33640000  0.78537400  0.21102100  1
  O  O39  1  0.33640000  0.21462600  0.28897900  1
  O  O40  1  0.45633600  0.50000000  0.75000000  1
  O  O41  1  0.04366400  0.00000000  0.75000000  1
  O  O42  1  0.54366400  0.50000000  0.25000000  1
  O  O43  1  0.95633600  0.00000000  0.25000000  1
loop_
_geom_bond_atom_site_label_1
_geom_bond_atom_site_label_2
_geom_bond_distance
_geom_bond_site_symmetry_2
Ca0 O29 2.278900 1_456
Ca0 O31 2.278900 1_556
Ca0 O16 2.352392 1_555
Ca0 O18 2.352392 1_555
Ca0 O32 2.847674 1_455
Ca0 O34 2.847674 1_555
Ca1 O30 2.278900 1_555
Ca1 O28 2.278900 1_455
Ca1 O19 2.352392 1_555
Ca1 O17 2.352392 1_555
Ca1 O33 2.847674 1_455
Ca1 O35 2.847674 1_555
Ca2 O25 2.278900 1_654
Ca2 O27 2.278900 1_554
Ca2 O22 2.352392 1_555
Ca2 O20 2.352392 1_555
Ca2 O36 2.847674 1_655
Ca2 O38 2.847674 1_555
Ca3 O24 2.278900 1_655
Ca3 O26 2.278900 1_555
Ca3 O23 2.352392 1_555
Ca3 O21 2.352392 1_555
Ca3 O37 2.847674 1_655
Ca3 O39 2.847674 1_555
O0 Si4 1.619400 1_555
O0 Sn0 2.028561 1_655
O1 Si5 1.619400 1_555
O1 Sn1 2.028561 1_656
O2 Si6 1.619400 1_555
O2 Sn2 2.028561 1_555
O3 Si7 1.619400 1_555
O3 Sn3 2.028561 1_566
O4 Si8 1.619400 1_555
O4 Sn0 2.028561 1_555
O5 Si9 1.619400 1_555
O5 Sn1 2.028561 1_555
O6 Si10 1.619400 1_555
O6 Sn2 2.028561 1_565
O7 Si11 1.619400 1_555
O7 Sn3 2.028561 1_555
O8 Si0 1.625981 1_555
O8 Si4 1.645908 1_555
O9 Si1 1.625981 1_555
O9 Si5 1.645908 1_555
O10 Si0 1.625981 1_555
O10 Si6 1.645908 1_455
O11 Si1 1.625981 1_555
O11 Si7 1.645908 1_455
O12 Si2 1.625981 1_555
O12 Si8 1.645908 1_555
O13 Si3 1.625981 1_555
O13 Si9 1.645908 1_555
O14 Si2 1.625981 1_555
O14 Si10 1.645908 1_655
O15 Si3 1.625981 1_555
O15 Si11 1.645908 1_655
O16 Si5 1.654487 1_555
O16 Sn1 2.129083 1_556
O17 Si4 1.654487 1_555
O17 Sn0 2.129083 1_555
O18 Si7 1.654487 1_445
O18 Sn3 2.129083 1_556
O19 Si6 1.654487 1_465
O19 Sn2 2.129083 1_565
O20 Si9 1.654487 1_555
O20 Sn1 2.129083 1_655
O21 Si8 1.654487 1_555
O21 Sn0 2.129083 1_655
O22 Si11 1.654487 1_665
O22 Sn3 2.129083 1_565
O23 Si10 1.654487 1_645
O23 Sn2 2.129083 1_555
O24 Si0 1.640834 1_555
O24 Sn0 2.106189 1_555
O25 Si1 1.640834 1_555
O25 Sn1 2.106189 1_556
O26 Si0 1.640834 1_555
O26 Sn2 2.106189 1_555
O27 Si1 1.640834 1_555
O27 Sn3 2.106189 1_566
O28 Si2 1.640834 1_555
O28 Sn0 2.106189 1_655
O29 Si3 1.640834 1_555
O29 Sn1 2.106189 1_655
O30 Si2 1.640834 1_555
O30 Sn2 2.106189 1_565
O31 Si3 1.640834 1_555
O31 Sn3 2.106189 1_555
O32 O34 1.237481 1_555
O33 O35 1.237481 1_555
O36 O38 1.237481 1_555
O37 O39 1.237481 1_555
O40 Si5 1.629739 1_555
O40 Si4 1.629739 1_555
O41 Si7 1.629739 1_445
O41 Si6 1.629739 1_455
O42 Si8 1.629739 1_555
O42 Si9 1.629739 1_555
O43 Si10 1.629739 1_645
O43 Si11 1.629739 1_655
