# generated using pymatgen
data_Sm4Bi2O
_symmetry_space_group_name_H-M   'P 1'
_cell_length_a   9.32513449
_cell_length_b   9.32513449
_cell_length_c   9.32513449
_cell_angle_alpha   150.92212579
_cell_angle_beta   150.92212579
_cell_angle_gamma   41.58948437
_symmetry_Int_Tables_number   1
_chemical_formula_structural   Sm4Bi2O
_chemical_formula_sum   'Sm4 Bi2 O1'
_cell_volume   191.09511834
_cell_formula_units_Z   1
loop_
 _symmetry_equiv_pos_site_id
 _symmetry_equiv_pos_as_xyz
  1  'x, y, z'
loop_
 _atom_site_type_symbol
 _atom_site_label
 _atom_site_symmetry_multiplicity
 _atom_site_fract_x
 _atom_site_fract_y
 _atom_site_fract_z
 _atom_site_occupancy
  Sm  Sm0  1  0.00000000  0.50000000  0.50000000  1
  Sm  Sm1  1  0.50000000  0.00000000  0.50000000  1
  Sm  Sm2  1  0.82515200  0.82515200  0.00000000  1
  Sm  Sm3  1  0.17484800  0.17484800  0.00000000  1
  Bi  Bi0  1  0.64002400  0.64002400  0.00000000  1
  Bi  Bi1  1  0.35997600  0.35997600  0.00000000  1
  O  O0  1  0.00000000  0.00000000  0.00000000  1
loop_
_geom_bond_atom_site_label_1
_geom_bond_atom_site_label_2
_geom_bond_distance
_geom_bond_site_symmetry_2
Bi0 Sm2 3.227773 1_555
Bi0 Sm3 3.365837 1_565
Bi0 Sm3 3.365837 1_655
Bi0 Sm3 3.365837 1_666
Bi0 Sm3 3.365837 1_554
Bi0 Sm1 3.382364 1_554
Bi0 Sm0 3.382364 1_655
Bi0 Sm1 3.382364 1_565
Bi0 Sm0 3.382364 1_554
Bi1 Sm3 3.227773 1_555
Bi1 Sm2 3.365837 1_444
Bi1 Sm2 3.365837 1_455
Bi1 Sm2 3.365837 1_556
Bi1 Sm2 3.365837 1_545
Bi1 Sm0 3.382364 1_554
Bi1 Sm1 3.382364 1_554
Bi1 Sm0 3.382364 1_655
Bi1 Sm1 3.382364 1_565
O0 Sm0 2.340962 1_544
O0 Sm0 2.340962 1_555
O0 Sm1 2.340962 1_555
O0 Sm1 2.340962 1_454
O0 Sm2 3.048537 1_445
O0 Sm3 3.048537 1_555
