# generated using pymatgen
data_CaSO6
_symmetry_space_group_name_H-M   'P 1'
_cell_length_a   18.22824500
_cell_length_b   5.73497700
_cell_length_c   6.71554471
_cell_angle_alpha   57.00404662
_cell_angle_beta   90.00000000
_cell_angle_gamma   90.00000000
_symmetry_Int_Tables_number   1
_chemical_formula_structural   CaSO6
_chemical_formula_sum   'Ca4 S4 O24'
_cell_volume   588.80176369
_cell_formula_units_Z   4
loop_
 _symmetry_equiv_pos_site_id
 _symmetry_equiv_pos_as_xyz
  1  'x, y, z'
loop_
 _atom_site_type_symbol
 _atom_site_label
 _atom_site_symmetry_multiplicity
 _atom_site_fract_x
 _atom_site_fract_y
 _atom_site_fract_z
 _atom_site_occupancy
  Ca  Ca0  1  0.30705000  0.75228500  0.99449600  1
  Ca  Ca1  1  0.69295000  0.24771500  0.00550400  1
  Ca  Ca2  1  0.80705000  0.24771500  0.50550400  1
  Ca  Ca3  1  0.19295000  0.75228500  0.49449600  1
  S  S0  1  0.82461900  0.74842200  0.00534000  1
  S  S1  1  0.17538100  0.25157800  0.99466000  1
  S  S2  1  0.32461900  0.25157800  0.49466000  1
  S  S3  1  0.67538100  0.74842200  0.50534000  1
  O  O0  1  0.86793500  0.67319700  0.21874000  1
  O  O1  1  0.13206500  0.32680300  0.78126000  1
  O  O2  1  0.36793500  0.32680300  0.28126000  1
  O  O3  1  0.63206500  0.67319700  0.71874000  1
  O  O4  1  0.77729100  0.49784200  0.07843900  1
  O  O5  1  0.22270900  0.50215800  0.92156100  1
  O  O6  1  0.27729100  0.50215800  0.42156100  1
  O  O7  1  0.72270900  0.49784200  0.57843900  1
  O  O8  1  0.63084200  0.82644100  0.29421300  1
  O  O9  1  0.36915800  0.17355900  0.70578700  1
  O  O10  1  0.13084200  0.17355900  0.20578700  1
  O  O11  1  0.86915800  0.82644100  0.79421300  1
  O  O12  1  0.47805300  0.94238900  0.08285300  1
  O  O13  1  0.52194700  0.05761100  0.91714700  1
  O  O14  1  0.97805300  0.05761100  0.41714700  1
  O  O15  1  0.02194700  0.94238900  0.58285300  1
  O  O16  1  0.72427600  0.99549100  0.43088600  1
  O  O17  1  0.27572400  0.00450900  0.56911400  1
  O  O18  1  0.22427600  0.00450900  0.06911400  1
  O  O19  1  0.77572400  0.99549100  0.93088600  1
  O  O20  1  0.52126900  0.44221800  0.08474500  1
  O  O21  1  0.47873100  0.55778200  0.91525500  1
  O  O22  1  0.02126900  0.55778200  0.41525500  1
  O  O23  1  0.97873100  0.44221800  0.58474500  1
loop_
_geom_bond_atom_site_label_1
_geom_bond_atom_site_label_2
_geom_bond_distance
_geom_bond_site_symmetry_2
Ca0 O18 2.325829 1_566
Ca0 O5 2.329468 1_555
Ca0 O9 2.403322 1_565
Ca0 O2 2.403423 1_556
Ca0 O17 2.465441 1_565
Ca0 O6 2.469091 1_556
Ca1 O19 2.325829 1_544
Ca1 O4 2.329468 1_555
Ca1 O8 2.403322 1_545
Ca1 O3 2.403423 1_554
Ca1 O16 2.465441 1_545
Ca1 O7 2.469091 1_554
Ca2 O16 2.325829 1_545
Ca2 O7 2.329468 1_555
Ca2 O11 2.403322 1_545
Ca2 O0 2.403423 1_555
Ca2 O19 2.465441 1_545
Ca2 O4 2.469091 1_555
Ca3 O17 2.325829 1_565
Ca3 O6 2.329468 1_555
Ca3 O10 2.403322 1_565
Ca3 O1 2.403423 1_555
Ca3 O18 2.465441 1_565
Ca3 O5 2.469091 1_555
O0 S0 1.479842 1_555
O1 S1 1.479842 1_555
O2 S2 1.479842 1_555
O3 S3 1.479842 1_555
O4 S0 1.510649 1_555
O5 S1 1.510649 1_555
O6 S2 1.510649 1_555
O7 S3 1.510649 1_555
O8 S3 1.476017 1_555
O9 S2 1.476017 1_555
O10 S1 1.476017 1_554
O11 S0 1.476017 1_556
O12 O13 1.230555 1_564
O14 O15 1.230555 1_645
O16 S3 1.510110 1_555
O17 S2 1.510110 1_555
O18 S1 1.510110 1_554
O19 S0 1.510110 1_556
O20 O21 1.230610 1_554
O22 O23 1.230610 1_455
