# generated using pymatgen
data_Cs3Ba4C3O9F5
_symmetry_space_group_name_H-M   'P 1'
_cell_length_a   11.68829354
_cell_length_b   11.68829354
_cell_length_c   7.72599000
_cell_angle_alpha   90.00000000
_cell_angle_beta   90.00000000
_cell_angle_gamma   119.99999740
_symmetry_Int_Tables_number   1
_chemical_formula_structural   Cs3Ba4C3O9F5
_chemical_formula_sum   'Cs6 Ba8 C6 O18 F10'
_cell_volume   914.08588901
_cell_formula_units_Z   2
loop_
 _symmetry_equiv_pos_site_id
 _symmetry_equiv_pos_as_xyz
  1  'x, y, z'
loop_
 _atom_site_type_symbol
 _atom_site_label
 _atom_site_symmetry_multiplicity
 _atom_site_fract_x
 _atom_site_fract_y
 _atom_site_fract_z
 _atom_site_occupancy
  Cs  Cs0  1  0.12185700  0.24371300  0.06860700  1
  Cs  Cs1  1  0.75628700  0.87814300  0.06860700  1
  Cs  Cs2  1  0.12185700  0.87814300  0.06860700  1
  Cs  Cs3  1  0.87814300  0.75628700  0.56860700  1
  Cs  Cs4  1  0.24371300  0.12185700  0.56860700  1
  Cs  Cs5  1  0.87814300  0.12185700  0.56860700  1
  Ba  Ba0  1  0.66666700  0.33333300  0.36041000  1
  Ba  Ba1  1  0.33333300  0.66666700  0.86041000  1
  Ba  Ba2  1  0.46278900  0.53721100  0.40413900  1
  Ba  Ba3  1  0.46278900  0.92557800  0.40413900  1
  Ba  Ba4  1  0.07442200  0.53721100  0.40413900  1
  Ba  Ba5  1  0.53721100  0.46278900  0.90413900  1
  Ba  Ba6  1  0.53721100  0.07442200  0.90413900  1
  Ba  Ba7  1  0.92557800  0.46278900  0.90413900  1
  C  C0  1  0.60386700  0.80193400  0.63627500  1
  C  C1  1  0.19806600  0.80193400  0.63627500  1
  C  C2  1  0.19806600  0.39613300  0.63627500  1
  C  C3  1  0.39613300  0.19806600  0.13627500  1
  C  C4  1  0.80193400  0.19806600  0.13627500  1
  C  C5  1  0.80193400  0.60386700  0.13627500  1
  O  O0  1  0.63762200  0.81881100  0.47386400  1
  O  O1  1  0.18118900  0.81881100  0.47386400  1
  O  O2  1  0.18118900  0.36237800  0.47386400  1
  O  O3  1  0.36237800  0.18118900  0.97386400  1
  O  O4  1  0.81881100  0.18118900  0.97386400  1
  O  O5  1  0.81881100  0.63762200  0.97386400  1
  O  O6  1  0.58448000  0.88894600  0.71723400  1
  O  O7  1  0.11105400  0.69553400  0.71723400  1
  O  O8  1  0.30446600  0.41552000  0.71723400  1
  O  O9  1  0.11105400  0.41552000  0.71723400  1
  O  O10  1  0.30446600  0.88894600  0.71723400  1
  O  O11  1  0.58448000  0.69553400  0.71723400  1
  O  O12  1  0.41552000  0.11105400  0.21723400  1
  O  O13  1  0.88894600  0.30446600  0.21723400  1
  O  O14  1  0.69553400  0.58448000  0.21723400  1
  O  O15  1  0.88894600  0.58448000  0.21723400  1
  O  O16  1  0.69553400  0.11105400  0.21723400  1
  O  O17  1  0.41552000  0.30446600  0.21723400  1
  F  F0  1  0.42809700  0.57190300  0.08497900  1
  F  F1  1  0.42809700  0.85619400  0.08497900  1
  F  F2  1  0.14380600  0.57190300  0.08497900  1
  F  F3  1  0.57190300  0.42809700  0.58497900  1
  F  F4  1  0.57190300  0.14380600  0.58497900  1
  F  F5  1  0.85619400  0.42809700  0.58497900  1
  F  F6  1  0.33333300  0.66666700  0.49783400  1
  F  F7  1  0.66666700  0.33333300  0.99783400  1
  F  F8  1  0.00000000  0.00000000  0.81152500  1
  F  F9  1  0.00000000  0.00000000  0.31152500  1
loop_
_geom_bond_atom_site_label_1
_geom_bond_atom_site_label_2
_geom_bond_distance
_geom_bond_site_symmetry_2
Cs0 F9 3.099703 1_555
Cs0 F8 3.167158 1_554
Cs0 O3 3.320789 1_554
Cs0 O4 3.320801 1_454
Cs0 O17 3.341700 1_555
Cs0 O13 3.341711 1_455
Cs0 O2 3.353512 1_555
Cs0 O8 3.416385 1_554
Cs0 O9 3.416389 1_554
Cs1 F9 3.099703 1_665
Cs1 F8 3.167158 1_664
Cs1 O5 3.320789 1_554
Cs1 O4 3.320801 1_564
Cs1 O14 3.341700 1_555
Cs1 O16 3.341711 1_565
Cs1 O0 3.353512 1_555
Cs1 O11 3.416385 1_554
Cs1 O6 3.416389 1_554
Cs2 F9 3.099711 1_565
Cs2 F8 3.167165 1_564
Cs2 O3 3.320797 1_564
Cs2 O5 3.320797 1_454
Cs2 O15 3.341703 1_455
Cs2 O12 3.341703 1_565
Cs2 O1 3.353508 1_555
Cs2 O7 3.416382 1_554
Cs2 O10 3.416382 1_554
Cs3 F8 3.099703 1_665
Cs3 F9 3.167158 1_665
Cs3 O0 3.320789 1_555
Cs3 O1 3.320801 1_655
Cs3 O11 3.341700 1_555
Cs3 O7 3.341711 1_655
Cs3 O5 3.353512 1_555
Cs3 O14 3.416385 1_555
Cs3 O15 3.416389 1_555
Cs4 F8 3.099703 1_555
Cs4 F9 3.167158 1_555
Cs4 O2 3.320789 1_555
Cs4 O1 3.320801 1_545
Cs4 O8 3.341700 1_555
Cs4 O10 3.341711 1_545
Cs4 O3 3.353512 1_555
Cs4 O17 3.416385 1_555
Cs4 O12 3.416389 1_555
Cs5 F8 3.099711 1_655
Cs5 F9 3.167165 1_655
Cs5 O0 3.320797 1_545
Cs5 O2 3.320797 1_655
Cs5 O6 3.341703 1_545
Cs5 O9 3.341703 1_655
Cs5 O4 3.353508 1_555
Cs5 O16 3.416382 1_555
Cs5 O13 3.416382 1_555
Ba0 F4 2.586654 1_555
Ba0 F5 2.586654 1_555
Ba0 F3 2.586661 1_555
Ba0 F7 2.801259 1_554
Ba0 O16 2.993994 1_555
Ba0 O13 2.993994 1_555
Ba0 O15 2.994000 1_555
Ba0 O12 2.994000 1_555
Ba0 O14 2.994004 1_555
Ba0 O17 2.994004 1_555
Ba1 F1 2.586654 1_556
Ba1 F2 2.586654 1_556
Ba1 F0 2.586661 1_556
Ba1 F6 2.801259 1_555
Ba1 O7 2.993994 1_555
Ba1 O10 2.993994 1_555
Ba1 O9 2.994000 1_555
Ba1 O6 2.994000 1_555
Ba1 O11 2.994004 1_555
Ba1 O8 2.994004 1_555
Ba2 F0 2.563897 1_555
Ba2 F3 2.613748 1_555
Ba2 F6 2.718935 1_555
Ba2 O14 2.878887 1_555
Ba2 O17 2.878887 1_555
Ba2 O0 2.928059 1_555
Ba2 O2 2.928059 1_555
Ba2 O8 2.943951 1_555
Ba2 O11 2.943951 1_555
Ba3 F1 2.563897 1_555
Ba3 F4 2.613748 1_565
Ba3 F6 2.718925 1_555
Ba3 O12 2.878887 1_565
Ba3 O16 2.878888 1_565
Ba3 O0 2.928059 1_555
Ba3 O1 2.928059 1_555
Ba3 O6 2.943951 1_555
Ba3 O10 2.943951 1_555
Ba4 F2 2.563897 1_555
Ba4 F5 2.613748 1_455
Ba4 F6 2.718925 1_555
Ba4 O15 2.878887 1_455
Ba4 O13 2.878888 1_455
Ba4 O2 2.928059 1_555
Ba4 O1 2.928059 1_555
Ba4 O9 2.943951 1_555
Ba4 O7 2.943951 1_555
Ba5 F3 2.563897 1_555
Ba5 F0 2.613748 1_556
Ba5 F7 2.718935 1_555
Ba5 O11 2.878887 1_555
Ba5 O8 2.878887 1_555
Ba5 O5 2.928059 1_555
Ba5 O3 2.928059 1_555
Ba5 O17 2.943951 1_556
Ba5 O14 2.943951 1_556
Ba6 F4 2.563897 1_555
Ba6 F1 2.613748 1_546
Ba6 F7 2.718925 1_555
Ba6 O6 2.878887 1_545
Ba6 O10 2.878888 1_545
Ba6 O3 2.928059 1_555
Ba6 O4 2.928059 1_555
Ba6 O12 2.943951 1_556
Ba6 O16 2.943951 1_556
Ba7 F5 2.563897 1_555
Ba7 F2 2.613748 1_656
Ba7 F7 2.718925 1_555
Ba7 O9 2.878887 1_655
Ba7 O7 2.878888 1_655
Ba7 O5 2.928059 1_555
Ba7 O4 2.928059 1_555
Ba7 O15 2.943951 1_556
Ba7 O13 2.943951 1_556
C0 O0 1.300474 1_555
C0 O6 1.306666 1_555
C0 O11 1.306676 1_555
C1 O1 1.300471 1_555
C1 O7 1.306672 1_555
C1 O10 1.306672 1_555
C2 O2 1.300474 1_555
C2 O9 1.306666 1_555
C2 O8 1.306676 1_555
C3 O3 1.300474 1_554
C3 O12 1.306666 1_555
C3 O17 1.306676 1_555
C4 O4 1.300471 1_554
C4 O13 1.306672 1_555
C4 O16 1.306672 1_555
C5 O5 1.300474 1_554
C5 O15 1.306666 1_555
C5 O14 1.306676 1_555
