# generated using pymatgen
data_MgCr2Fe3Ni(PO4)6
_symmetry_space_group_name_H-M   'P 1'
_cell_length_a   8.60512925
_cell_length_b   8.60553718
_cell_length_c   8.60554274
_cell_angle_alpha   60.37368047
_cell_angle_beta   60.37500381
_cell_angle_gamma   60.38235384
_symmetry_Int_Tables_number   1
_chemical_formula_structural   MgCr2Fe3Ni(PO4)6
_chemical_formula_sum   'Mg1 Cr2 Fe3 Ni1 P6 O24'
_cell_volume   454.45018926
_cell_formula_units_Z   1
loop_
 _symmetry_equiv_pos_site_id
 _symmetry_equiv_pos_as_xyz
  1  'x, y, z'
loop_
 _atom_site_type_symbol
 _atom_site_label
 _atom_site_symmetry_multiplicity
 _atom_site_fract_x
 _atom_site_fract_y
 _atom_site_fract_z
 _atom_site_occupancy
  Mg  Mg0  1  0.37535400  0.37497000  0.37495400  1
  Cr  Cr0  1  0.00038600  0.00016500  0.00021900  1
  Cr  Cr1  1  0.50825100  0.50803400  0.50801700  1
  Fe  Fe0  1  0.13159300  0.13144100  0.13147000  1
  Fe  Fe1  1  0.24925700  0.24919000  0.24921700  1
  Fe  Fe2  1  0.65642700  0.65624600  0.65625000  1
  Ni  Ni0  1  0.85762200  0.85738100  0.85727700  1
  P  P0  1  0.05165500  0.75356500  0.46312400  1
  P  P1  1  0.46330200  0.05128100  0.75362100  1
  P  P2  1  0.75384900  0.46303400  0.05114800  1
  P  P3  1  0.25648900  0.55918700  0.95012400  1
  P  P4  1  0.55930400  0.95014100  0.25635100  1
  P  P5  1  0.95023900  0.25641800  0.55920900  1
  O  O0  1  0.12143600  0.31907600  0.49054900  1
  O  O1  1  0.31915600  0.49055000  0.12128500  1
  O  O2  1  0.06103900  0.89277000  0.25174900  1
  O  O3  1  0.49066700  0.12128100  0.31905800  1
  O  O4  1  0.99582000  0.85274900  0.59456400  1
  O  O5  1  0.25867400  0.60706600  0.45061900  1
  O  O6  1  0.25191000  0.06081800  0.89282500  1
  O  O7  1  0.45103100  0.25827900  0.60711200  1
  O  O8  1  0.19373500  0.39191000  0.00356800  1
  O  O9  1  0.60747600  0.45075200  0.25823200  1
  O  O10  1  0.10394100  0.75671900  0.93816900  1
  O  O11  1  0.39202500  0.00356600  0.19363000  1
  O  O12  1  0.59487100  0.99504700  0.85284400  1
  O  O13  1  0.89303000  0.25161400  0.06078900  1
  O  O14  1  0.41471200  0.57029400  0.75323200  1
  O  O15  1  0.85317600  0.59462800  0.99465400  1
  O  O16  1  0.57040400  0.75326100  0.41461000  1
  O  O17  1  0.75687100  0.93814200  0.10378900  1
  O  O18  1  0.75339800  0.41470100  0.57028800  1
  O  O19  1  0.00355000  0.19374900  0.39194000  1
  O  O20  1  0.52186500  0.91162200  0.65697100  1
  O  O21  1  0.93822700  0.10383200  0.75678000  1
  O  O22  1  0.65707700  0.52144700  0.91168700  1
  O  O23  1  0.91186400  0.65694800  0.52195500  1
loop_
_geom_bond_atom_site_label_1
_geom_bond_atom_site_label_2
_geom_bond_distance
_geom_bond_site_symmetry_2
Mg0 O5 2.019562 1_555
Mg0 O7 2.019957 1_555
Mg0 O9 2.019984 1_555
Mg0 O3 2.099337 1_555
Mg0 O1 2.100011 1_555
Mg0 O0 2.100477 1_555
Cr0 O10 2.063615 1_544
Cr0 O17 2.063736 1_445
Cr0 O21 2.063756 1_454
Cr0 O13 2.114379 1_455
Cr0 O6 2.115015 1_554
Cr0 O2 2.115215 1_545
Cr1 O16 2.097389 1_555
Cr1 O18 2.097548 1_555
Cr1 O14 2.097673 1_555
Cr1 O5 2.099079 1_555
Cr1 O7 2.099488 1_555
Cr1 O9 2.099906 1_555
Fe0 O2 2.041528 1_545
Fe0 O13 2.041536 1_455
Fe0 O6 2.041763 1_554
Fe0 O11 2.164491 1_555
Fe0 O8 2.164549 1_555
Fe0 O19 2.165277 1_555
Fe1 O19 2.014180 1_555
Fe1 O8 2.014212 1_555
Fe1 O11 2.014427 1_555
Fe1 O0 2.051157 1_555
Fe1 O1 2.051167 1_555
Fe1 O3 2.051444 1_555
Fe2 O20 1.913536 1_555
Fe2 O23 1.913622 1_555
Fe2 O22 1.913719 1_555
Fe2 O18 2.181693 1_555
Fe2 O16 2.182565 1_555
Fe2 O14 2.182688 1_555
Ni0 O15 1.977298 1_555
Ni0 O12 1.977401 1_555
Ni0 O4 1.977675 1_555
Ni0 O21 2.185078 1_565
Ni0 O10 2.185271 1_655
Ni0 O17 2.186016 1_556
O0 P5 1.555538 1_455
O1 P3 1.555473 1_554
O2 P0 1.595724 1_555
O3 P4 1.555604 1_545
O4 P0 1.500220 1_655
O5 P0 1.580884 1_555
O6 P1 1.595625 1_555
O7 P1 1.580858 1_555
O8 P3 1.563189 1_554
O9 P2 1.581034 1_555
O10 P3 1.542191 1_555
O11 P4 1.563134 1_545
O12 P1 1.500250 1_565
O13 P2 1.595827 1_555
O14 P3 1.556134 1_555
O15 P2 1.500298 1_556
O16 P4 1.556202 1_555
O17 P4 1.542230 1_555
O18 P5 1.556211 1_555
O19 P5 1.563141 1_455
O20 P1 1.537989 1_565
O21 P5 1.542315 1_555
O22 P2 1.537631 1_556
O23 P0 1.537835 1_655
