# generated using pymatgen
data_Zn2CuNi
_symmetry_space_group_name_H-M   'P 1'
_cell_length_a   5.51175138
_cell_length_b   5.51175138
_cell_length_c   12.69524632
_cell_angle_alpha   90.00000000
_cell_angle_beta   90.00000000
_cell_angle_gamma   90.00000000
_symmetry_Int_Tables_number   1
_chemical_formula_structural   Zn2CuNi
_chemical_formula_sum   'Zn16 Cu8 Ni8'
_cell_volume   385.67400763
_cell_formula_units_Z   8
loop_
 _symmetry_equiv_pos_site_id
 _symmetry_equiv_pos_as_xyz
  1  'x, y, z'
loop_
 _atom_site_type_symbol
 _atom_site_label
 _atom_site_symmetry_multiplicity
 _atom_site_fract_x
 _atom_site_fract_y
 _atom_site_fract_z
 _atom_site_occupancy
  Zn  Zn0_0  1  0.25000000  0.25000000  0.12932161  1
  Zn  Zn0_1  1  0.25000000  0.25000000  0.62932160  1
  Zn  Zn0_2  1  0.25000000  0.75000000  0.12932161  1
  Zn  Zn0_3  1  0.25000000  0.75000000  0.62932160  1
  Zn  Zn0_4  1  0.75000000  0.25000000  0.12932161  1
  Zn  Zn0_5  1  0.75000000  0.25000000  0.62932160  1
  Zn  Zn0_6  1  0.75000000  0.75000000  0.12932161  1
  Zn  Zn0_7  1  0.75000000  0.75000000  0.62932160  1
  Zn  Zn1_0  1  0.25000000  0.25000000  0.37067839  1
  Zn  Zn1_1  1  0.25000000  0.25000000  0.87067839  1
  Zn  Zn1_2  1  0.25000000  0.75000000  0.37067839  1
  Zn  Zn1_3  1  0.25000000  0.75000000  0.87067839  1
  Zn  Zn1_4  1  0.75000000  0.25000000  0.37067839  1
  Zn  Zn1_5  1  0.75000000  0.25000000  0.87067839  1
  Zn  Zn1_6  1  0.75000000  0.75000000  0.37067839  1
  Zn  Zn1_7  1  0.75000000  0.75000000  0.87067839  1
  Cu  Cu0_0  1  0.00000000  0.00000000  0.00000000  1
  Cu  Cu0_1  1  0.00000000  0.00000000  0.50000000  1
  Cu  Cu0_2  1  0.00000000  0.50000000  0.00000000  1
  Cu  Cu0_3  1  0.00000000  0.50000000  0.50000000  1
  Cu  Cu0_4  1  0.50000000  0.00000000  0.00000000  1
  Cu  Cu0_5  1  0.50000000  0.00000000  0.50000000  1
  Cu  Cu0_6  1  0.50000000  0.50000000  0.00000000  1
  Cu  Cu0_7  1  0.50000000  0.50000000  0.50000000  1
  Ni  Ni0_0  1  0.00000000  0.00000000  0.25000000  1
  Ni  Ni0_1  1  0.00000000  0.00000000  0.75000000  1
  Ni  Ni0_2  1  0.00000000  0.50000000  0.25000000  1
  Ni  Ni0_3  1  0.00000000  0.50000000  0.75000000  1
  Ni  Ni0_4  1  0.50000000  0.00000000  0.25000000  1
  Ni  Ni0_5  1  0.50000000  0.00000000  0.75000000  1
  Ni  Ni0_6  1  0.50000000  0.50000000  0.25000000  1
  Ni  Ni0_7  1  0.50000000  0.50000000  0.75000000  1
loop_
_geom_bond_atom_site_label_1
_geom_bond_atom_site_label_2
_geom_bond_distance
_geom_bond_site_symmetry_2
Zn0_0 Zn0_2 2.755876 1_555
Zn0_0 Zn0_2 2.755876 1_545
Zn0_0 Zn0_4 2.755876 1_455
Zn0_0 Zn0_4 2.755876 1_555
Zn0_1 Zn0_5 2.755876 1_455
Zn0_1 Zn0_3 2.755876 1_555
Zn0_1 Zn0_3 2.755876 1_545
Zn0_1 Zn0_5 2.755876 1_555
Zn0_2 Zn0_6 2.755876 1_455
Zn0_2 Zn0_6 2.755876 1_555
Zn0_3 Zn0_7 2.755876 1_455
Zn0_3 Zn0_7 2.755876 1_555
Zn0_4 Zn0_6 2.755876 1_545
Zn0_4 Zn0_6 2.755876 1_555
Zn0_5 Zn0_7 2.755876 1_555
Zn0_5 Zn0_7 2.755876 1_545
Zn1_0 Zn1_4 2.755876 1_555
Zn1_0 Zn1_2 2.755876 1_555
Zn1_0 Zn1_2 2.755876 1_545
Zn1_0 Zn1_4 2.755876 1_455
Zn1_1 Zn1_5 2.755876 1_455
Zn1_1 Zn1_3 2.755876 1_545
Zn1_1 Zn1_3 2.755876 1_555
Zn1_1 Zn1_5 2.755876 1_555
Zn1_2 Zn1_6 2.755876 1_455
Zn1_2 Zn1_6 2.755876 1_555
Zn1_3 Zn1_7 2.755876 1_555
Zn1_3 Zn1_7 2.755876 1_455
Zn1_4 Zn1_6 2.755876 1_555
Zn1_4 Zn1_6 2.755876 1_545
Zn1_5 Zn1_7 2.755876 1_545
Zn1_5 Zn1_7 2.755876 1_555
Cu0_0 Zn0_0 2.548104 1_555
Cu0_0 Zn0_4 2.548104 1_455
Cu0_0 Zn0_6 2.548104 1_445
Cu0_0 Zn0_2 2.548104 1_545
Cu0_0 Zn1_1 2.548104 1_554
Cu0_0 Zn1_3 2.548104 1_544
Cu0_0 Zn1_5 2.548104 1_454
Cu0_0 Zn1_7 2.548104 1_444
Cu0_0 Cu0_4 2.755876 1_555
Cu0_0 Cu0_4 2.755876 1_455
Cu0_0 Cu0_2 2.755876 1_545
Cu0_0 Cu0_2 2.755876 1_555
Cu0_1 Zn1_6 2.548104 1_445
Cu0_1 Zn1_4 2.548104 1_455
Cu0_1 Zn1_0 2.548104 1_555
Cu0_1 Zn0_5 2.548104 1_455
Cu0_1 Zn0_3 2.548104 1_545
Cu0_1 Zn0_7 2.548104 1_445
Cu0_1 Zn0_1 2.548104 1_555
Cu0_1 Zn1_2 2.548104 1_545
Cu0_1 Cu0_5 2.755876 1_555
Cu0_1 Cu0_3 2.755876 1_545
Cu0_1 Cu0_5 2.755876 1_455
Cu0_1 Cu0_3 2.755876 1_555
Cu0_2 Zn0_0 2.548104 1_555
Cu0_2 Zn0_4 2.548104 1_455
Cu0_2 Zn0_2 2.548104 1_555
Cu0_2 Zn0_6 2.548104 1_455
Cu0_2 Zn1_1 2.548104 1_554
Cu0_2 Zn1_7 2.548104 1_454
Cu0_2 Zn1_5 2.548104 1_454
Cu0_2 Zn1_3 2.548104 1_554
Cu0_2 Cu0_6 2.755876 1_555
Cu0_2 Cu0_6 2.755876 1_455
Cu0_3 Zn1_4 2.548104 1_455
Cu0_3 Zn1_0 2.548104 1_555
Cu0_3 Zn0_5 2.548104 1_455
Cu0_3 Zn0_7 2.548104 1_455
Cu0_3 Zn0_3 2.548104 1_555
Cu0_3 Zn1_6 2.548104 1_455
Cu0_3 Zn0_1 2.548104 1_555
Cu0_3 Zn1_2 2.548104 1_555
Cu0_3 Cu0_7 2.755876 1_555
Cu0_3 Cu0_7 2.755876 1_455
Cu0_4 Zn0_0 2.548104 1_555
Cu0_4 Zn0_4 2.548104 1_555
Cu0_4 Zn0_2 2.548104 1_545
Cu0_4 Zn0_6 2.548104 1_545
Cu0_4 Zn1_1 2.548104 1_554
Cu0_4 Zn1_3 2.548104 1_544
Cu0_4 Zn1_5 2.548104 1_554
Cu0_4 Zn1_7 2.548104 1_544
Cu0_4 Cu0_6 2.755876 1_555
Cu0_4 Cu0_6 2.755876 1_545
Cu0_5 Zn0_7 2.548104 1_545
Cu0_5 Zn1_0 2.548104 1_555
Cu0_5 Zn1_2 2.548104 1_545
Cu0_5 Zn0_5 2.548104 1_555
Cu0_5 Zn1_4 2.548104 1_555
Cu0_5 Zn1_6 2.548104 1_545
Cu0_5 Zn0_3 2.548104 1_545
Cu0_5 Zn0_1 2.548104 1_555
Cu0_5 Cu0_7 2.755876 1_555
Cu0_5 Cu0_7 2.755876 1_545
Cu0_6 Zn0_6 2.548104 1_555
Cu0_6 Zn0_0 2.548104 1_555
Cu0_6 Zn0_4 2.548104 1_555
Cu0_6 Zn0_2 2.548104 1_555
Cu0_6 Zn1_7 2.548104 1_554
Cu0_6 Zn1_1 2.548104 1_554
Cu0_6 Zn1_5 2.548104 1_554
Cu0_6 Zn1_3 2.548104 1_554
Cu0_7 Zn0_7 2.548104 1_555
Cu0_7 Zn1_0 2.548104 1_555
Cu0_7 Zn1_4 2.548104 1_555
Cu0_7 Zn0_5 2.548104 1_555
Cu0_7 Zn0_3 2.548104 1_555
Cu0_7 Zn0_1 2.548104 1_555
Cu0_7 Zn1_2 2.548104 1_555
Cu0_7 Zn1_6 2.548104 1_555
Ni0_0 Zn0_6 2.478826 1_445
Ni0_0 Zn0_2 2.478826 1_545
Ni0_0 Zn0_0 2.478826 1_555
Ni0_0 Zn0_4 2.478826 1_455
Ni0_0 Zn1_2 2.478826 1_545
Ni0_0 Zn1_4 2.478826 1_455
Ni0_0 Zn1_6 2.478826 1_445
Ni0_0 Zn1_0 2.478826 1_555
Ni0_0 Ni0_4 2.755876 1_555
Ni0_0 Ni0_2 2.755876 1_555
Ni0_0 Ni0_2 2.755876 1_545
Ni0_0 Ni0_4 2.755876 1_455
Ni0_1 Zn1_1 2.478826 1_555
Ni0_1 Zn0_5 2.478826 1_455
Ni0_1 Zn1_3 2.478826 1_545
Ni0_1 Zn1_5 2.478826 1_455
Ni0_1 Zn1_7 2.478826 1_445
Ni0_1 Zn0_7 2.478826 1_445
Ni0_1 Zn0_1 2.478826 1_555
Ni0_1 Zn0_3 2.478826 1_545
Ni0_1 Ni0_5 2.755876 1_555
Ni0_1 Ni0_5 2.755876 1_455
Ni0_1 Ni0_3 2.755876 1_555
Ni0_1 Ni0_3 2.755876 1_545
Ni0_2 Zn0_6 2.478826 1_455
Ni0_2 Zn0_0 2.478826 1_555
Ni0_2 Zn0_4 2.478826 1_455
Ni0_2 Zn0_2 2.478826 1_555
Ni0_2 Zn1_4 2.478826 1_455
Ni0_2 Zn1_0 2.478826 1_555
Ni0_2 Zn1_6 2.478826 1_455
Ni0_2 Zn1_2 2.478826 1_555
Ni0_2 Ni0_6 2.755876 1_455
Ni0_2 Ni0_6 2.755876 1_555
Ni0_3 Zn1_7 2.478826 1_455
Ni0_3 Zn1_3 2.478826 1_555
Ni0_3 Zn1_1 2.478826 1_555
Ni0_3 Zn0_5 2.478826 1_455
Ni0_3 Zn0_7 2.478826 1_455
Ni0_3 Zn1_5 2.478826 1_455
Ni0_3 Zn0_3 2.478826 1_555
Ni0_3 Zn0_1 2.478826 1_555
Ni0_3 Ni0_7 2.755876 1_455
Ni0_3 Ni0_7 2.755876 1_555
Ni0_4 Zn0_2 2.478826 1_545
Ni0_4 Zn0_0 2.478826 1_555
Ni0_4 Zn0_4 2.478826 1_555
Ni0_4 Zn0_6 2.478826 1_545
Ni0_4 Zn1_2 2.478826 1_545
Ni0_4 Zn1_0 2.478826 1_555
Ni0_4 Zn1_4 2.478826 1_555
Ni0_4 Zn1_6 2.478826 1_545
Ni0_4 Ni0_6 2.755876 1_545
Ni0_4 Ni0_6 2.755876 1_555
Ni0_5 Zn0_7 2.478826 1_545
Ni0_5 Zn0_5 2.478826 1_555
Ni0_5 Zn1_1 2.478826 1_555
Ni0_5 Zn1_3 2.478826 1_545
Ni0_5 Zn1_7 2.478826 1_545
Ni0_5 Zn1_5 2.478826 1_555
Ni0_5 Zn0_1 2.478826 1_555
Ni0_5 Zn0_3 2.478826 1_545
Ni0_5 Ni0_7 2.755876 1_545
Ni0_5 Ni0_7 2.755876 1_555
Ni0_6 Zn0_6 2.478826 1_555
Ni0_6 Zn0_0 2.478826 1_555
Ni0_6 Zn0_4 2.478826 1_555
Ni0_6 Zn0_2 2.478826 1_555
Ni0_6 Zn1_6 2.478826 1_555
Ni0_6 Zn1_0 2.478826 1_555
Ni0_6 Zn1_4 2.478826 1_555
Ni0_6 Zn1_2 2.478826 1_555
Ni0_7 Zn0_7 2.478826 1_555
Ni0_7 Zn1_3 2.478826 1_555
Ni0_7 Zn0_5 2.478826 1_555
Ni0_7 Zn1_1 2.478826 1_555
Ni0_7 Zn1_5 2.478826 1_555
Ni0_7 Zn0_3 2.478826 1_555
Ni0_7 Zn1_7 2.478826 1_555
Ni0_7 Zn0_1 2.478826 1_555
