# generated using pymatgen
data_Mg9Si5
_symmetry_space_group_name_H-M   'P 1'
_cell_length_a   7.25580200
_cell_length_b   7.28286734
_cell_length_c   12.21895306
_cell_angle_alpha   84.80500158
_cell_angle_beta   79.19322845
_cell_angle_gamma   61.42769606
_symmetry_Int_Tables_number   1
_chemical_formula_structural   Mg9Si5
_chemical_formula_sum   'Mg18 Si10'
_cell_volume   556.99436027
_cell_formula_units_Z   2
loop_
 _symmetry_equiv_pos_site_id
 _symmetry_equiv_pos_as_xyz
  1  'x, y, z'
loop_
 _atom_site_type_symbol
 _atom_site_label
 _atom_site_symmetry_multiplicity
 _atom_site_fract_x
 _atom_site_fract_y
 _atom_site_fract_z
 _atom_site_occupancy
  Mg  Mg0  1  0.34932600  0.75627600  0.39932400  1
  Mg  Mg1  1  0.60886600  0.33247200  0.56953300  1
  Mg  Mg2  1  0.61481600  0.01028400  0.41287300  1
  Mg  Mg3  1  0.14286500  0.10909500  0.57311300  1
  Mg  Mg4  1  0.87301300  0.49998900  0.41092100  1
  Mg  Mg5  1  0.93004900  0.80389600  0.57432500  1
  Mg  Mg6  1  0.67063800  0.35490100  0.95152900  1
  Mg  Mg7  1  0.44617700  0.74882500  0.08397400  1
  Mg  Mg8  1  0.09942200  0.99734500  0.93384200  1
  Mg  Mg9  1  0.80657900  0.79924300  0.90888800  1
  Mg  Mg10  1  0.39071900  0.15462900  0.99930900  1
  Mg  Mg11  1  0.93540300  0.44997700  0.09235600  1
  Mg  Mg12  1  0.25772300  0.69482800  0.74396600  1
  Mg  Mg13  1  0.61264300  0.36891300  0.24514200  1
  Mg  Mg14  1  0.47422200  0.04104200  0.74412300  1
  Mg  Mg15  1  0.30852900  0.16383700  0.25373400  1
  Mg  Mg16  1  0.79130600  0.49929000  0.72667000  1
  Mg  Mg17  1  0.10268800  0.66179700  0.22274900  1
  Si  Si0  1  0.84135400  0.08632800  0.75150000  1
  Si  Si1  1  0.94878900  0.09288400  0.39632200  1
  Si  Si2  1  0.03176300  0.05940800  0.17493700  1
  Si  Si3  1  0.22991100  0.56954900  0.96969000  1
  Si  Si4  1  0.20104400  0.41120300  0.64467500  1
  Si  Si5  1  0.67482100  0.75672800  0.24361100  1
  Si  Si6  1  0.09271400  0.38492700  0.86212400  1
  Si  Si7  1  0.73484200  0.01469600  0.11425400  1
  Si  Si8  1  0.27833400  0.42346200  0.41761500  1
  Si  Si9  1  0.55149200  0.75417700  0.57918300  1
loop_
_geom_bond_atom_site_label_1
_geom_bond_atom_site_label_2
_geom_bond_distance
_geom_bond_site_symmetry_2
Mg0 Si8 2.691333 1_555
Mg0 Si5 2.742096 1_555
Mg0 Si1 2.768756 1_465
Mg0 Si9 2.857122 1_555
Mg0 Mg17 3.350462 1_555
Mg1 Si4 2.716888 1_555
Mg1 Si1 2.863902 1_555
Mg1 Si9 2.905825 1_555
Mg1 Si0 2.965636 1_555
Mg1 Si8 3.092427 1_555
Mg2 Si5 2.731652 1_545
Mg2 Si1 2.731932 1_555
Mg2 Si9 2.757325 1_545
Mg2 Si8 2.823131 1_555
Mg3 Si4 2.675625 1_555
Mg3 Si1 2.830070 1_455
Mg3 Si0 2.838660 1_455
Mg3 Si9 2.862622 1_545
Mg3 Si8 3.237674 1_555
Mg4 Si8 2.735047 1_655
Mg4 Si5 2.753492 1_555
Mg4 Si1 2.761233 1_555
Mg4 Si9 2.802876 1_555
Mg5 Si4 2.755724 1_655
Mg5 Si0 2.889562 1_565
Mg5 Si1 2.917640 1_565
Mg5 Si9 2.926689 1_555
Mg5 Si8 3.190310 1_655
Mg6 Si3 2.781023 1_555
Mg6 Si7 2.942867 1_556
Mg6 Si0 2.957525 1_555
Mg6 Si6 3.156404 1_655
Mg7 Si5 2.808126 1_555
Mg7 Si2 2.844189 1_565
Mg7 Si3 3.037875 1_554
Mg8 Si3 2.807474 1_555
Mg8 Si6 2.859129 1_565
Mg8 Si2 2.934341 1_566
Mg8 Si0 3.005423 1_465
Mg8 Si7 3.068745 1_466
Mg9 Si6 2.759839 1_655
Mg9 Si0 2.779930 1_565
Mg9 Si7 2.910659 1_566
Mg9 Si3 2.915623 1_655
Mg10 Si3 2.685412 1_555
Mg10 Si6 2.771170 1_555
Mg10 Si7 2.804913 1_556
Mg11 Si5 2.716334 1_555
Mg11 Si2 2.727721 1_655
Mg11 Si3 2.813138 1_654
Mg11 Si6 2.821581 1_654
Mg11 Mg17 3.058256 1_655
Mg12 Si4 2.713165 1_555
Mg12 Si9 2.810444 1_555
Mg12 Si3 2.827020 1_555
Mg12 Si0 2.994801 1_465
Mg12 Si6 3.155674 1_555
Mg13 Si8 2.792119 1_555
Mg13 Si2 2.807104 1_655
Mg13 Si7 2.833088 1_555
Mg13 Si5 3.063865 1_555
Mg13 Si1 3.119205 1_555
Mg13 Mg17 3.322678 1_555
Mg14 Si4 2.805652 1_555
Mg14 Si9 2.821217 1_545
Mg14 Si0 2.854599 1_555
Mg14 Si6 2.922286 1_555
Mg15 Si8 2.785300 1_555
Mg15 Si2 2.802982 1_555
Mg15 Si5 2.876681 1_545
Mg15 Si7 2.965995 1_555
Mg15 Si1 3.088281 1_455
Mg15 Mg17 3.210677 1_555
Mg16 Si9 2.683610 1_555
Mg16 Si4 2.725625 1_655
Mg16 Si6 2.753407 1_655
Mg16 Si0 2.846164 1_555
Mg17 Si2 2.715225 1_565
Mg17 Si5 2.804118 1_455
Mg17 Si8 2.929171 1_555
Mg17 Mg7 3.036470 1_555
Mg17 Mg4 3.066494 1_455
Mg17 Si3 3.094717 1_554
Mg17 Si7 3.104018 1_465
Si1 Si2 2.666035 1_655
Si2 Si7 2.571202 1_455
Si3 Si6 2.572420 1_555
Si4 Si6 2.642487 1_555
Si4 Si8 2.727552 1_555
Si5 Si7 2.490865 1_565
