# generated using pymatgen
data_TaCr3(AgS4)2
_symmetry_space_group_name_H-M   'P 1'
_cell_length_a   6.96735600
_cell_length_b   6.01682300
_cell_length_c   6.50758283
_cell_angle_alpha   88.94563233
_cell_angle_beta   90.00000000
_cell_angle_gamma   90.00000000
_symmetry_Int_Tables_number   1
_chemical_formula_structural   TaCr3(AgS4)2
_chemical_formula_sum   'Ta1 Cr3 Ag2 S8'
_cell_volume   272.76045315
_cell_formula_units_Z   1
loop_
 _symmetry_equiv_pos_site_id
 _symmetry_equiv_pos_as_xyz
  1  'x, y, z'
loop_
 _atom_site_type_symbol
 _atom_site_label
 _atom_site_symmetry_multiplicity
 _atom_site_fract_x
 _atom_site_fract_y
 _atom_site_fract_z
 _atom_site_occupancy
  Ta  Ta0  1  0.00000000  0.50000000  0.50000000  1
  Cr  Cr0  1  0.50000000  0.50000000  0.50000000  1
  Cr  Cr1  1  0.25001200  0.00000000  0.50000000  1
  Cr  Cr2  1  0.74998800  0.00000000  0.50000000  1
  Ag  Ag0  1  0.25511400  0.00000000  0.00000000  1
  Ag  Ag1  1  0.74488600  0.00000000  0.00000000  1
  S  S0  1  0.25460900  0.32870400  0.71240300  1
  S  S1  1  0.74539100  0.32870400  0.71240300  1
  S  S2  1  0.50000000  0.82895600  0.70192700  1
  S  S3  1  0.00000000  0.83234600  0.71599200  1
  S  S4  1  0.50000000  0.17104400  0.29807300  1
  S  S5  1  0.00000000  0.16765400  0.28400800  1
  S  S6  1  0.74539100  0.67129600  0.28759700  1
  S  S7  1  0.25460900  0.67129600  0.28759700  1
loop_
_geom_bond_atom_site_label_1
_geom_bond_atom_site_label_2
_geom_bond_distance
_geom_bond_site_symmetry_2
Cr0 S2 2.395824 1_555
Cr0 S4 2.395824 1_555
Cr0 S0 2.417344 1_555
Cr0 S6 2.417344 1_555
Cr0 S7 2.417344 1_555
Cr0 S1 2.417344 1_555
Cr1 S2 2.402045 1_545
Cr1 S4 2.402045 1_555
Cr1 S7 2.433866 1_545
Cr1 S0 2.433866 1_555
Cr1 S3 2.444453 1_545
Cr1 S5 2.444453 1_555
Cr2 S2 2.402045 1_545
Cr2 S4 2.402045 1_555
Cr2 S1 2.433866 1_555
Cr2 S6 2.433866 1_545
Cr2 S3 2.444453 1_645
Cr2 S5 2.444453 1_655
Ag0 S7 2.697784 1_545
Ag0 S0 2.697784 1_554
Ag0 S5 2.767931 1_555
Ag0 S3 2.767931 1_544
Ag0 S4 2.793978 1_555
Ag0 S2 2.793978 1_544
Ag1 S6 2.697784 1_545
Ag1 S1 2.697784 1_554
Ag1 S3 2.767931 1_644
Ag1 S5 2.767931 1_655
Ag1 S2 2.793978 1_544
Ag1 S4 2.793978 1_555
S0 Ta0 2.463187 1_555
S1 Ta0 2.463187 1_655
S3 Ta0 2.465315 1_555
S5 Ta0 2.465315 1_555
S6 Ta0 2.463187 1_655
S7 Ta0 2.463187 1_555
