# generated using pymatgen
data_BaNaY2(PO4)2
_symmetry_space_group_name_H-M   'P 1'
_cell_length_a   5.38256882
_cell_length_b   5.38256882
_cell_length_c   8.31891100
_cell_angle_alpha   90.00000000
_cell_angle_beta   90.00000000
_cell_angle_gamma   119.99998555
_symmetry_Int_Tables_number   1
_chemical_formula_structural   BaNaY2(PO4)2
_chemical_formula_sum   'Ba1 Na1 Y2 P2 O8'
_cell_volume   208.72590667
_cell_formula_units_Z   1
loop_
 _symmetry_equiv_pos_site_id
 _symmetry_equiv_pos_as_xyz
  1  'x, y, z'
loop_
 _atom_site_type_symbol
 _atom_site_label
 _atom_site_symmetry_multiplicity
 _atom_site_fract_x
 _atom_site_fract_y
 _atom_site_fract_z
 _atom_site_occupancy
  Ba  Ba0  1  0.00000000  0.00000000  0.00000000  1
  Na  Na0  1  0.00000000  0.00000000  0.50000000  1
  Y  Y0  1  0.33333300  0.66666700  0.69745300  1
  Y  Y1  1  0.66666700  0.33333300  0.30254700  1
  P  P0  1  0.33333300  0.66666700  0.18512100  1
  P  P1  1  0.66666700  0.33333300  0.81487900  1
  O  O0  1  0.33333300  0.66666700  0.99683100  1
  O  O1  1  0.66666700  0.33333300  0.00316900  1
  O  O2  1  0.17739600  0.82260400  0.25144100  1
  O  O3  1  0.82260400  0.17739600  0.74855900  1
  O  O4  1  0.17739600  0.35479100  0.25144100  1
  O  O5  1  0.82260400  0.64520900  0.74855900  1
  O  O6  1  0.64520900  0.82260400  0.25144100  1
  O  O7  1  0.35479100  0.17739600  0.74855900  1
loop_
_geom_bond_atom_site_label_1
_geom_bond_atom_site_label_2
_geom_bond_distance
_geom_bond_site_symmetry_2
Ba0 O4 2.666543 1_555
Ba0 O6 2.666543 1_445
Ba0 O7 2.666543 1_554
Ba0 O5 2.666543 1_444
Ba0 O2 2.666546 1_545
Ba0 O3 2.666546 1_454
Ba0 O0 3.107736 1_544
Ba0 O1 3.107736 1_455
Ba0 O0 3.107741 1_554
Ba0 O1 3.107741 1_555
Ba0 O0 3.107741 1_444
Ba0 O1 3.107741 1_445
Na0 O7 2.647778 1_555
Na0 O5 2.647778 1_445
Na0 O4 2.647778 1_555
Na0 O6 2.647778 1_445
Na0 O3 2.647781 1_455
Na0 O2 2.647781 1_545
O0 P0 1.566368 1_556
O0 Y0 2.490499 1_555
O1 P1 1.566368 1_554
O1 Y1 2.490499 1_555
O2 P0 1.554949 1_555
O2 Y1 2.726494 1_455
O2 Y1 2.726494 1_565
O3 P1 1.554949 1_555
O3 Y0 2.726494 1_545
O3 Y0 2.726494 1_655
O4 P0 1.554958 1_555
O4 Y1 2.726493 1_555
O4 Y1 2.726493 1_455
O5 P1 1.554958 1_555
O5 Y0 2.726493 1_555
O5 Y0 2.726493 1_655
O6 P0 1.554958 1_555
O6 Y1 2.726493 1_555
O6 Y1 2.726493 1_565
O7 P1 1.554958 1_555
O7 Y0 2.726493 1_555
O7 Y0 2.726493 1_545
