# generated using pymatgen
data_KYMg14
_symmetry_space_group_name_H-M   'P 1'
_cell_length_a   6.68364502
_cell_length_b   6.68364442
_cell_length_c   10.47035540
_cell_angle_alpha   90.00000000
_cell_angle_beta   90.00000000
_cell_angle_gamma   120.00000295
_symmetry_Int_Tables_number   1
_chemical_formula_structural   KYMg14
_chemical_formula_sum   'K1 Y1 Mg14'
_cell_volume   405.05943717
_cell_formula_units_Z   1
loop_
 _symmetry_equiv_pos_site_id
 _symmetry_equiv_pos_as_xyz
  1  'x, y, z'
loop_
 _atom_site_type_symbol
 _atom_site_label
 _atom_site_symmetry_multiplicity
 _atom_site_fract_x
 _atom_site_fract_y
 _atom_site_fract_z
 _atom_site_occupancy
  K  K0  1  0.16666700  0.33333300  0.62500000  1
  Y  Y0  1  0.16666700  0.33333300  0.12500000  1
  Mg  Mg0  1  0.17303587  0.83651744  0.12500000  1
  Mg  Mg1  1  0.17106483  0.83553191  0.62500000  1
  Mg  Mg2  1  0.66348256  0.32696413  0.12500000  1
  Mg  Mg3  1  0.66446809  0.32893517  0.62500000  1
  Mg  Mg4  1  0.66348256  0.83651744  0.12500000  1
  Mg  Mg5  1  0.66446809  0.83553191  0.62500000  1
  Mg  Mg6  1  0.33800453  0.16199547  0.37025212  1
  Mg  Mg7  1  0.33800453  0.16199547  0.87974788  1
  Mg  Mg8  1  0.33800453  0.67601007  0.37025212  1
  Mg  Mg9  1  0.33800453  0.67601007  0.87974788  1
  Mg  Mg10  1  0.82398993  0.16199547  0.37025212  1
  Mg  Mg11  1  0.82398993  0.16199547  0.87974788  1
  Mg  Mg12  1  0.83333300  0.66666700  0.37504278  1
  Mg  Mg13  1  0.83333300  0.66666700  0.87495722  1
loop_
_geom_bond_atom_site_label_1
_geom_bond_atom_site_label_2
_geom_bond_distance
_geom_bond_site_symmetry_2
K0 Mg6 3.323953 1_555
K0 Mg7 3.323953 1_555
K0 Mg9 3.323960 1_555
K0 Mg8 3.323960 1_555
K0 Mg10 3.323960 1_455
K0 Mg11 3.323960 1_455
K0 Mg1 3.341919 1_555
K0 Mg5 3.341919 1_555
K0 Mg5 3.341919 1_445
K0 Mg1 3.341919 1_545
K0 Mg3 3.341919 1_455
K0 Mg3 3.341919 1_555
Mg0 Mg9 3.184867 1_554
Mg0 Mg8 3.184867 1_555
Mg0 Mg7 3.184874 1_564
Mg0 Mg6 3.184874 1_565
Mg0 Mg13 3.274192 1_454
Mg0 Mg12 3.274192 1_455
Mg0 Mg2 3.277971 1_565
Mg0 Mg4 3.277972 1_555
Mg0 Y0 3.342026 1_565
Mg0 Y0 3.342026 1_555
Mg0 Mg2 3.405673 1_455
Mg0 Mg4 3.405673 1_455
Mg1 Mg12 3.266636 1_455
Mg1 Mg13 3.266636 1_455
Mg1 Mg8 3.268914 1_555
Mg1 Mg9 3.268914 1_555
Mg1 Mg6 3.268920 1_565
Mg1 Mg7 3.268920 1_565
Mg1 Mg3 3.297732 1_565
Mg1 Mg5 3.297732 1_555
Mg1 Mg3 3.385912 1_455
Mg1 Mg5 3.385913 1_455
Mg2 Mg7 3.184874 1_554
Mg2 Mg6 3.184874 1_555
Mg2 Mg4 3.277971 1_545
Mg2 Y0 3.342026 1_555
Mg2 Y0 3.342026 1_655
Mg2 Mg4 3.405673 1_555
Mg3 Mg6 3.268920 1_555
Mg3 Mg7 3.268920 1_555
Mg3 Mg5 3.297732 1_545
Mg3 Mg5 3.385912 1_555
Mg4 Mg9 3.184874 1_554
Mg4 Mg8 3.184874 1_555
Mg4 Y0 3.342026 1_555
Mg4 Y0 3.342026 1_665
Mg5 Mg8 3.268921 1_555
Mg5 Mg9 3.268921 1_555
Mg6 Y0 3.244713 1_555
Mg6 Mg8 3.248154 1_545
Mg6 Mg8 3.435491 1_555
Mg7 Y0 3.244713 1_556
Mg7 Mg9 3.248154 1_545
Mg7 Mg9 3.435491 1_555
Mg8 Y0 3.244720 1_555
Mg9 Y0 3.244720 1_556
Mg10 Mg2 3.184867 1_555
Mg10 Mg4 3.184874 1_545
Mg10 Y0 3.244720 1_655
Mg10 Mg8 3.248154 1_545
Mg10 Mg6 3.248154 1_555
Mg10 Mg3 3.268914 1_555
Mg10 Mg5 3.268921 1_545
Mg10 Mg12 3.342636 1_555
Mg10 Mg12 3.342636 1_545
Mg10 Mg8 3.435491 1_655
Mg10 Mg6 3.435491 1_655
Mg11 Mg2 3.184867 1_556
Mg11 Mg4 3.184874 1_546
Mg11 Y0 3.244720 1_656
Mg11 Mg9 3.248154 1_545
Mg11 Mg7 3.248154 1_555
Mg11 Mg3 3.268914 1_555
Mg11 Mg5 3.268921 1_545
Mg11 Mg13 3.342636 1_555
Mg11 Mg13 3.342636 1_545
Mg11 Mg9 3.435491 1_655
Mg11 Mg7 3.435491 1_655
Mg12 Mg5 3.266629 1_555
Mg12 Mg3 3.266636 1_555
Mg12 Mg4 3.274185 1_555
Mg12 Mg2 3.274192 1_555
Mg12 Mg6 3.342636 1_555
Mg12 Mg6 3.342636 1_665
Mg12 Mg8 3.342636 1_655
Mg12 Mg8 3.342636 1_555
Mg13 Mg5 3.266629 1_555
Mg13 Mg3 3.266636 1_555
Mg13 Mg4 3.274185 1_556
Mg13 Mg2 3.274192 1_556
Mg13 Mg7 3.342636 1_555
Mg13 Mg7 3.342636 1_665
Mg13 Mg9 3.342636 1_655
Mg13 Mg9 3.342636 1_555
