# generated using pymatgen
data_Na3CaFe(SiO3)8
_symmetry_space_group_name_H-M   'P 1'
_cell_length_a   6.88928152
_cell_length_b   6.88928152
_cell_length_c   10.55980616
_cell_angle_alpha   77.19296897
_cell_angle_beta   77.19296897
_cell_angle_gamma   83.07050827
_symmetry_Int_Tables_number   1
_chemical_formula_structural   Na3CaFe(SiO3)8
_chemical_formula_sum   'Na3 Ca1 Fe1 Si8 O24'
_cell_volume   475.21505268
_cell_formula_units_Z   1
loop_
 _symmetry_equiv_pos_site_id
 _symmetry_equiv_pos_as_xyz
  1  'x, y, z'
loop_
 _atom_site_type_symbol
 _atom_site_label
 _atom_site_symmetry_multiplicity
 _atom_site_fract_x
 _atom_site_fract_y
 _atom_site_fract_z
 _atom_site_occupancy
  Na  Na0  1  0.27509200  0.72490800  0.50000000  1
  Na  Na1  1  0.71874500  0.29052400  0.24460900  1
  Na  Na2  1  0.70947600  0.28125500  0.75539100  1
  Ca  Ca0  1  0.28310600  0.71689400  0.00000000  1
  Fe  Fe0  1  0.91759500  0.08240500  0.50000000  1
  Si  Si0  1  0.80483500  0.62107300  0.49226100  1
  Si  Si1  1  0.80002600  0.62274200  0.98435000  1
  Si  Si2  1  0.37892700  0.19516500  0.50773900  1
  Si  Si3  1  0.37725800  0.19997400  0.01565000  1
  Si  Si4  1  0.19796700  0.37644100  0.26643800  1
  Si  Si5  1  0.21123800  0.37223300  0.76236600  1
  Si  Si6  1  0.62776700  0.78876200  0.23763400  1
  Si  Si7  1  0.62355900  0.80203300  0.73356200  1
  O  O0  1  0.67529300  0.64145300  0.37341000  1
  O  O1  1  0.65481200  0.64762400  0.87741900  1
  O  O2  1  0.35854700  0.32470700  0.62659000  1
  O  O3  1  0.35237600  0.34518800  0.12258100  1
  O  O4  1  0.35020200  0.36487800  0.36972800  1
  O  O5  1  0.34723800  0.35803200  0.87509500  1
  O  O6  1  0.64196800  0.65276200  0.12490500  1
  O  O7  1  0.63512200  0.64979800  0.63027200  1
  O  O8  1  0.95305400  0.79950900  0.46290000  1
  O  O9  1  0.98512700  0.75995800  0.94395800  1
  O  O10  1  0.20049100  0.04694600  0.53710000  1
  O  O11  1  0.24004200  0.01487300  0.05604200  1
  O  O12  1  0.02680100  0.21732300  0.31353900  1
  O  O13  1  0.00702200  0.25483900  0.81500000  1
  O  O14  1  0.74516100  0.99297800  0.18500000  1
  O  O15  1  0.78267700  0.97319900  0.68646100  1
  O  O16  1  0.89018800  0.38752600  0.52417200  1
  O  O17  1  0.91469600  0.39951500  0.01810600  1
  O  O18  1  0.61247400  0.10981200  0.47582800  1
  O  O19  1  0.60048500  0.08530400  0.98189400  1
  O  O20  1  0.10266100  0.60271200  0.22432600  1
  O  O21  1  0.09215500  0.59087400  0.72642900  1
  O  O22  1  0.40912600  0.90784500  0.27357100  1
  O  O23  1  0.39728800  0.89733900  0.77567400  1
loop_
_geom_bond_atom_site_label_1
_geom_bond_atom_site_label_2
_geom_bond_distance
_geom_bond_site_symmetry_2
Na0 O10 2.315339 1_565
Na0 O8 2.315339 1_455
Na0 O22 2.474700 1_555
Na0 O21 2.474700 1_555
Na1 O14 2.250018 1_545
Na1 O12 2.356290 1_655
Na1 O17 2.474660 1_555
Na1 O18 2.475343 1_555
Na1 O6 2.585501 1_555
Na1 O4 2.636960 1_555
Na2 O13 2.250018 1_655
Na2 O15 2.356290 1_545
Na2 O19 2.474660 1_555
Na2 O16 2.475343 1_555
Na2 O5 2.585501 1_555
Na2 O7 2.636960 1_555
Ca0 O9 2.228514 1_454
Ca0 O11 2.228514 1_565
Ca0 O20 2.424848 1_555
Ca0 O23 2.424848 1_554
Ca0 O3 2.640143 1_555
Ca0 O1 2.640143 1_554
Ca0 O5 2.995149 1_554
Ca0 O6 2.995149 1_555
Fe0 O15 2.001881 1_545
Fe0 O12 2.001881 1_655
Fe0 O8 2.047623 1_545
Fe0 O10 2.047623 1_655
Fe0 O18 2.154116 1_555
Fe0 O16 2.154116 1_555
O0 Si6 1.635751 1_555
O0 Si0 1.667191 1_555
O1 Si1 1.636726 1_555
O1 Si7 1.690843 1_555
O2 Si5 1.635751 1_555
O2 Si2 1.667191 1_555
O3 Si3 1.636726 1_555
O3 Si4 1.690843 1_555
O4 Si4 1.656638 1_555
O4 Si2 1.687223 1_555
O5 Si5 1.650816 1_555
O5 Si3 1.672325 1_556
O6 Si6 1.650816 1_555
O6 Si1 1.672325 1_554
O7 Si7 1.656638 1_555
O7 Si0 1.687223 1_555
O8 Si0 1.625899 1_555
O9 Si1 1.603966 1_555
O10 Si2 1.625899 1_555
O11 Si3 1.603966 1_555
O12 Si4 1.627810 1_555
O13 Si5 1.634314 1_555
O14 Si6 1.634314 1_555
O15 Si7 1.627810 1_555
O16 Si0 1.633185 1_555
O17 Si1 1.644648 1_554
O18 Si2 1.633185 1_555
O19 Si3 1.644648 1_556
O20 Si4 1.622963 1_555
O21 Si5 1.634737 1_555
O22 Si6 1.634737 1_555
O23 Si7 1.622963 1_555
