# generated using pymatgen
data_Li3V3P8O29
_symmetry_space_group_name_H-M   'P 1'
_cell_length_a   9.76137500
_cell_length_b   9.77414967
_cell_length_c   14.53743042
_cell_angle_alpha   89.69750872
_cell_angle_beta   89.48841777
_cell_angle_gamma   60.24242666
_symmetry_Int_Tables_number   1
_chemical_formula_structural   Li3V3P8O29
_chemical_formula_sum   'Li6 V6 P16 O58'
_cell_volume   1204.05544531
_cell_formula_units_Z   2
loop_
 _symmetry_equiv_pos_site_id
 _symmetry_equiv_pos_as_xyz
  1  'x, y, z'
loop_
 _atom_site_type_symbol
 _atom_site_label
 _atom_site_symmetry_multiplicity
 _atom_site_fract_x
 _atom_site_fract_y
 _atom_site_fract_z
 _atom_site_occupancy
  Li  Li0  1  0.31818000  0.91155700  0.44498800  1
  Li  Li1  1  0.91246300  0.32277800  0.93665800  1
  Li  Li2  1  0.77257100  0.31877400  0.45128300  1
  Li  Li3  1  0.68244900  0.22231400  0.04724700  1
  Li  Li4  1  0.07990200  0.91867800  0.98346300  1
  Li  Li5  1  0.97197500  0.97370300  0.50610400  1
  V  V0  1  0.43215100  0.56839200  0.75018100  1
  V  V1  1  0.56017300  0.44070000  0.25075000  1
  V  V2  1  0.99692400  0.56768900  0.25083500  1
  V  V3  1  0.00273500  0.44050400  0.74675600  1
  V  V4  1  0.56316400  0.99721200  0.75414500  1
  V  V5  1  0.43884300  0.00340500  0.24931900  1
  P  P0  1  0.78104000  0.91747300  0.16370900  1
  P  P1  1  0.91232100  0.78427400  0.66201900  1
  P  P2  1  0.30988000  0.91469100  0.65841500  1
  P  P3  1  0.66811600  0.66135800  0.86654000  1
  P  P4  1  0.66516700  0.66629100  0.36555500  1
  P  P5  1  0.31068100  0.77907300  0.15980000  1
  P  P6  1  0.21829600  0.69553000  0.33813600  1
  P  P7  1  0.90961300  0.31867700  0.15489900  1
  P  P8  1  0.08325200  0.69568700  0.84052000  1
  P  P9  1  0.77718800  0.31409000  0.66085900  1
  P  P10  1  0.68447600  0.22580600  0.83707500  1
  P  P11  1  0.33973900  0.33058400  0.63653300  1
  P  P12  1  0.33351000  0.33568200  0.13676400  1
  P  P13  1  0.69292700  0.08790300  0.34366300  1
  P  P14  1  0.08250600  0.22207700  0.33266700  1
  P  P15  1  0.21409100  0.08671600  0.83685500  1
  O  O0  1  0.78527600  0.01794800  0.42774200  1
  O  O1  1  0.73682000  0.91429500  0.67364600  1
  O  O2  1  0.01133600  0.78776300  0.92485800  1
  O  O3  1  0.91523600  0.74428000  0.17005700  1
  O  O4  1  0.62044500  0.91827300  0.17753400  1
  O  O5  1  0.66326500  0.81195800  0.82354100  1
  O  O6  1  0.46581700  0.91629200  0.67539400  1
  O  O7  1  0.18707800  0.00795300  0.91630000  1
  O  O8  1  0.35262900  0.91193900  0.17518000  1
  O  O9  1  0.81194900  0.66782800  0.32142800  1
  O  O10  1  0.91983300  0.62111500  0.67360900  1
  O  O11  1  0.51458800  0.81707600  0.33047900  1
  O  O12  1  0.66735400  0.65431100  0.96829900  1
  O  O13  1  0.66939400  0.64494400  0.46679000  1
  O  O14  1  0.52344800  0.65879800  0.82028300  1
  O  O15  1  0.90801000  0.47545200  0.17559100  1
  O  O16  1  0.81796500  0.51391500  0.82507600  1
  O  O17  1  0.34295400  0.74301200  0.67250300  1
  O  O18  1  0.19949600  0.79618800  0.24629700  1
  O  O19  1  0.20863400  0.79153000  0.41932700  1
  O  O20  1  0.22684000  0.79377800  0.07391800  1
  O  O21  1  0.46534700  0.61832800  0.17453300  1
  O  O22  1  0.66671600  0.51833500  0.31826500  1
  O  O23  1  0.25962200  0.65164800  0.82934900  1
  O  O24  1  0.61835000  0.46734600  0.67265800  1
  O  O25  1  0.91464500  0.35020400  0.67233500  1
  O  O26  1  0.99836100  0.80193000  0.75126100  1
  O  O27  1  0.98696900  0.80246400  0.57789700  1
  O  O28  1  0.98788700  0.21322600  0.41065300  1
  O  O29  1  0.08422700  0.65489900  0.33189200  1
  O  O30  1  0.37904900  0.53866400  0.32568300  1
  O  O31  1  0.73952000  0.34247200  0.16726600  1
  O  O32  1  0.34033000  0.47794300  0.67783500  1
  O  O33  1  0.52883700  0.38153000  0.82381100  1
  O  O34  1  0.76886700  0.22616200  0.92326600  1
  O  O35  1  0.79668800  0.22762500  0.57315500  1
  O  O36  1  0.79503800  0.20336400  0.74849600  1
  O  O37  1  0.65103700  0.26466000  0.33418700  1
  O  O38  1  0.18473800  0.47965900  0.17922900  1
  O  O39  1  0.07531700  0.54203300  0.82756600  1
  O  O40  1  0.48329300  0.33363800  0.17927400  1
  O  O41  1  0.34551100  0.32586000  0.03533900  1
  O  O42  1  0.34072700  0.32446900  0.53514800  1
  O  O43  1  0.47801200  0.18358200  0.68515500  1
  O  O44  1  0.08007200  0.38209600  0.32305900  1
  O  O45  1  0.18612600  0.33874400  0.68147900  1
  O  O46  1  0.65366500  0.08523600  0.83436500  1
  O  O47  1  0.79948600  0.00103400  0.25420800  1
  O  O48  1  0.78588000  0.00445600  0.08117000  1
  O  O49  1  0.53900300  0.07921800  0.32942800  1
  O  O50  1  0.33634200  0.18644300  0.18360100  1
  O  O51  1  0.37900500  0.07386900  0.82954600  1
  O  O52  1  0.08338400  0.26429300  0.83427700  1
  O  O53  1  0.97360200  0.24996900  0.06316800  1
  O  O54  1  0.01381800  0.19971100  0.23576700  1
  O  O55  1  0.25647500  0.08456800  0.33559400  1
  O  O56  1  0.23506800  0.97797900  0.56782800  1
  O  O57  1  0.19248100  0.01501500  0.74087800  1
loop_
_geom_bond_atom_site_label_1
_geom_bond_atom_site_label_2
_geom_bond_distance
_geom_bond_site_symmetry_2
Li0 O56 1.931892 1_555
Li0 O19 1.978873 1_555
Li0 O55 2.174650 1_565
Li0 O11 2.345497 1_555
Li1 O53 1.956834 1_556
Li1 O34 2.053096 1_555
Li1 O52 2.084110 1_655
Li1 O16 2.292683 1_555
Li2 O28 1.913774 1_555
Li2 O35 1.941819 1_555
Li2 O37 2.292016 1_555
Li2 O22 2.570372 1_555
Li3 O48 1.913242 1_555
Li3 O34 1.991269 1_554
Li3 O31 2.328593 1_555
Li3 O40 2.550042 1_555
Li4 O20 1.885565 1_556
Li4 O2 1.919107 1_555
Li4 O7 1.920463 1_565
Li5 O27 1.911318 1_555
Li5 O0 2.013844 1_565
Li5 O35 2.412016 1_565
Li5 O19 2.446844 1_655
O0 P13 1.474156 1_555
O1 P1 1.553828 1_555
O1 V4 1.873661 1_555
O2 P8 1.474822 1_555
O3 P0 1.545759 1_555
O3 V2 1.903442 1_555
O4 P0 1.574844 1_555
O4 V5 1.853577 1_565
O5 P3 1.575231 1_555
O5 V4 1.869006 1_555
O6 P2 1.551945 1_555
O6 V4 1.901108 1_555
O7 P15 1.477403 1_555
O8 P5 1.560997 1_555
O8 V5 1.855350 1_565
O9 P4 1.571461 1_555
O9 V2 1.869384 1_555
O10 P1 1.567886 1_555
O10 V3 1.865325 1_655
O11 P4 1.564494 1_555
O11 V5 1.977815 1_565
O12 P3 1.480678 1_555
O13 P4 1.483383 1_555
O14 P3 1.580895 1_555
O14 V0 1.849605 1_555
O15 P7 1.555566 1_555
O15 V2 1.888563 1_555
O16 P3 1.575021 1_555
O16 V3 1.936881 1_655
O17 P2 1.556180 1_555
O17 V0 1.862355 1_555
O18 P5 1.607698 1_555
O18 P6 1.611028 1_555
O19 P6 1.484696 1_555
O20 P5 1.465875 1_555
O21 P5 1.562469 1_555
O21 V1 1.871220 1_555
O22 P4 1.597745 1_555
O22 V1 1.852086 1_555
O23 P8 1.560684 1_555
O23 V0 1.854157 1_555
O24 P9 1.539389 1_555
O24 V0 1.934502 1_555
O25 P9 1.558057 1_555
O25 V3 1.862507 1_655
O26 P1 1.607474 1_555
O26 P8 1.612313 1_655
O27 P1 1.472578 1_555
O28 P14 1.485071 1_655
O29 P6 1.548244 1_555
O29 V2 1.894991 1_455
O30 P6 1.566997 1_555
O30 V1 1.877635 1_555
O31 P7 1.566824 1_555
O31 V1 1.940477 1_555
O32 P11 1.566038 1_555
O32 V0 1.871968 1_555
O33 P10 1.539056 1_555
O33 V0 1.912738 1_555
O34 P10 1.506630 1_555
O35 P9 1.491114 1_555
O36 P10 1.616860 1_555
O36 P9 1.620792 1_555
O37 P13 1.571046 1_555
O37 V1 1.923748 1_555
O38 P12 1.560423 1_555
O38 V2 1.895925 1_455
O39 P8 1.554252 1_555
O39 V3 1.895240 1_555
O40 P12 1.583356 1_555
O40 V1 1.882246 1_555
O41 P12 1.477909 1_555
O42 P11 1.475156 1_555
O43 P11 1.570692 1_555
O43 V4 1.872864 1_545
O44 P14 1.557944 1_555
O44 V2 1.893512 1_455
O45 P11 1.595636 1_555
O45 V3 1.818406 1_555
O46 P10 1.546199 1_555
O46 V4 1.914187 1_545
O47 P0 1.609939 1_545
O47 P13 1.613949 1_555
O48 P0 1.480847 1_545
O49 P13 1.562022 1_555
O49 V5 1.899959 1_555
O50 P12 1.594351 1_555
O50 V5 1.826645 1_555
O51 P15 1.553996 1_555
O51 V4 1.905492 1_545
O52 P15 1.563241 1_555
O52 V3 1.963098 1_555
O53 P7 1.482446 1_555
O54 P7 1.612960 1_455
O54 P14 1.627063 1_555
O55 P14 1.557905 1_555
O55 V5 1.984983 1_555
O56 P2 1.486716 1_555
O57 P2 1.607584 1_545
O57 P15 1.626258 1_555
