# generated using pymatgen
data_BaNaNdMnO6
_symmetry_space_group_name_H-M   'P 1'
_cell_length_a   8.46160165
_cell_length_b   8.48256523
_cell_length_c   8.44060861
_cell_angle_alpha   90.00000000
_cell_angle_beta   90.00000000
_cell_angle_gamma   90.00000000
_symmetry_Int_Tables_number   1
_chemical_formula_structural   BaNaNdMnO6
_chemical_formula_sum   'Ba4 Na4 Nd4 Mn4 O24'
_cell_volume   605.83386591
_cell_formula_units_Z   4
loop_
 _symmetry_equiv_pos_site_id
 _symmetry_equiv_pos_as_xyz
  1  'x, y, z'
loop_
 _atom_site_type_symbol
 _atom_site_label
 _atom_site_symmetry_multiplicity
 _atom_site_fract_x
 _atom_site_fract_y
 _atom_site_fract_z
 _atom_site_occupancy
  Ba  Ba0  1  0.00000000  0.00000000  -0.00000000  1
  Ba  Ba1  1  0.50000000  0.50000000  0.50000000  1
  Ba  Ba2  1  0.50000000  0.00000000  0.50000000  1
  Ba  Ba3  1  0.00000000  0.50000000  0.00000000  1
  Na  Na0  1  0.00000000  0.50000000  0.50000000  1
  Na  Na1  1  0.50000000  0.50000000  0.00000000  1
  Na  Na2  1  0.50000000  0.00000000  0.00000000  1
  Na  Na3  1  0.00000000  0.00000000  0.50000000  1
  Nd  Nd0  1  0.25000000  0.25000000  0.25000000  1
  Nd  Nd1  1  0.75000000  0.75000000  0.25000000  1
  Nd  Nd2  1  0.75000000  0.25000000  0.75000000  1
  Nd  Nd3  1  0.25000000  0.75000000  0.75000000  1
  Mn  Mn0  1  0.75000000  0.75000000  0.75000000  1
  Mn  Mn1  1  0.25000000  0.25000000  0.75000000  1
  Mn  Mn2  1  0.25000000  0.75000000  0.25000000  1
  Mn  Mn3  1  0.75000000  0.25000000  0.25000000  1
  O  O0  1  0.97591854  0.23497172  0.25845286  1
  O  O1  1  0.02408146  0.76502828  0.25845286  1
  O  O2  1  0.02408146  0.23497172  0.74154714  1
  O  O3  1  0.97591854  0.76502828  0.74154714  1
  O  O4  1  0.26458668  0.97565856  0.23518977  1
  O  O5  1  0.26458668  0.02434144  0.76481023  1
  O  O6  1  0.73541332  0.02434144  0.23518977  1
  O  O7  1  0.73541332  0.97565856  0.76481023  1
  O  O8  1  0.23005779  0.26232813  0.97590487  1
  O  O9  1  0.76994221  0.26232813  0.02409513  1
  O  O10  1  0.23005779  0.73767187  0.02409513  1
  O  O11  1  0.76994221  0.73767187  0.97590487  1
  O  O12  1  0.52408146  0.26502828  0.24154714  1
  O  O13  1  0.47591854  0.73497172  0.24154714  1
  O  O14  1  0.47591854  0.26502828  0.75845286  1
  O  O15  1  0.52408146  0.73497172  0.75845286  1
  O  O16  1  0.23541332  0.52434144  0.26481023  1
  O  O17  1  0.23541332  0.47565856  0.73518977  1
  O  O18  1  0.76458668  0.47565856  0.26481023  1
  O  O19  1  0.76458668  0.52434144  0.73518977  1
  O  O20  1  0.26994221  0.23767187  0.52409513  1
  O  O21  1  0.73005779  0.23767187  0.47590487  1
  O  O22  1  0.26994221  0.76232813  0.47590487  1
  O  O23  1  0.73005779  0.76232813  0.52409513  1
loop_
_geom_bond_atom_site_label_1
_geom_bond_atom_site_label_2
_geom_bond_distance
_geom_bond_site_symmetry_2
Ba0 O2 2.961952 1_554
Ba0 O1 2.961952 1_545
Ba0 O0 2.961952 1_455
Ba0 O3 2.961952 1_444
Ba0 O9 2.963515 1_455
Ba0 O11 2.963515 1_444
Ba0 O10 2.963515 1_545
Ba0 O8 2.963515 1_554
Ba0 O6 2.999297 1_455
Ba0 O7 2.999297 1_444
Ba0 O5 2.999297 1_554
Ba0 O4 2.999297 1_545
Ba1 O15 2.961952 1_555
Ba1 O12 2.961952 1_555
Ba1 O13 2.961952 1_555
Ba1 O14 2.961952 1_555
Ba1 O21 2.963515 1_555
Ba1 O22 2.963515 1_555
Ba1 O23 2.963515 1_555
Ba1 O20 2.963515 1_555
Ba1 O19 2.999297 1_555
Ba1 O17 2.999297 1_555
Ba1 O18 2.999297 1_555
Ba1 O16 2.999297 1_555
Ba2 O20 2.809869 1_555
Ba2 O22 2.809869 1_545
Ba2 O21 2.809869 1_555
Ba2 O23 2.809869 1_545
Ba2 O5 3.001088 1_555
Ba2 O4 3.001088 1_545
Ba2 O6 3.001088 1_555
Ba2 O7 3.001088 1_545
Ba2 O14 3.139188 1_555
Ba2 O13 3.139188 1_545
Ba2 O12 3.139188 1_555
Ba2 O15 3.139188 1_545
Ba3 O10 2.809869 1_555
Ba3 O11 2.809869 1_454
Ba3 O8 2.809869 1_554
Ba3 O9 2.809869 1_455
Ba3 O18 3.001088 1_455
Ba3 O19 3.001088 1_454
Ba3 O16 3.001088 1_555
Ba3 O17 3.001088 1_554
Ba3 O2 3.139188 1_554
Ba3 O0 3.139188 1_455
Ba3 O3 3.139188 1_454
Ba3 O1 3.139188 1_555
Na0 O17 2.819821 1_555
Na0 O16 2.819821 1_555
Na0 O18 2.819821 1_455
Na0 O19 2.819821 1_455
Na1 O13 2.858487 1_555
Na1 O15 2.858487 1_554
Na1 O14 2.858487 1_554
Na1 O12 2.858487 1_555
Na2 O5 2.819821 1_554
Na2 O4 2.819821 1_545
Na2 O7 2.819821 1_544
Na2 O6 2.819821 1_555
Na3 O1 2.858487 1_545
Na3 O3 2.858487 1_445
Na3 O2 2.858487 1_555
Na3 O0 2.858487 1_455
Nd0 O20 2.322031 1_555
Nd0 O8 2.322031 1_554
Nd0 O12 2.323765 1_555
Nd0 O0 2.323765 1_455
Nd0 O4 2.333740 1_545
Nd0 O16 2.333740 1_555
Nd1 O11 2.322031 1_554
Nd1 O23 2.322031 1_555
Nd1 O13 2.323765 1_555
Nd1 O1 2.323765 1_655
Nd1 O6 2.333740 1_565
Nd1 O18 2.333740 1_555
Nd2 O21 2.322031 1_555
Nd2 O9 2.322031 1_556
Nd2 O14 2.323765 1_555
Nd2 O2 2.323765 1_655
Nd2 O7 2.333740 1_545
Nd2 O19 2.333740 1_555
Nd3 O22 2.322031 1_555
Nd3 O10 2.322031 1_556
Nd3 O15 2.323765 1_555
Nd3 O3 2.323765 1_455
Nd3 O5 2.333740 1_565
Nd3 O17 2.333740 1_555
Mn0 O23 1.917081 1_555
Mn0 O11 1.917081 1_555
Mn0 O15 1.917206 1_555
Mn0 O3 1.917206 1_555
Mn0 O19 1.922208 1_555
Mn0 O7 1.922208 1_555
Mn1 O8 1.917081 1_555
Mn1 O20 1.917081 1_555
Mn1 O14 1.917206 1_555
Mn1 O2 1.917206 1_555
Mn1 O5 1.922208 1_555
Mn1 O17 1.922208 1_555
Mn2 O10 1.917081 1_555
Mn2 O22 1.917081 1_555
Mn2 O13 1.917206 1_555
Mn2 O1 1.917206 1_555
Mn2 O16 1.922208 1_555
Mn2 O4 1.922208 1_555
Mn3 O21 1.917081 1_555
Mn3 O9 1.917081 1_555
Mn3 O12 1.917206 1_555
Mn3 O0 1.917206 1_555
Mn3 O18 1.922208 1_555
Mn3 O6 1.922208 1_555
