# generated using pymatgen
data_CsNaSnF6
_symmetry_space_group_name_H-M   'P 1'
_cell_length_a   8.52461000
_cell_length_b   11.42353900
_cell_length_c   13.61486500
_cell_angle_alpha   90.00000000
_cell_angle_beta   90.00000000
_cell_angle_gamma   90.00000000
_symmetry_Int_Tables_number   1
_chemical_formula_structural   CsNaSnF6
_chemical_formula_sum   'Cs8 Na8 Sn8 F48'
_cell_volume   1325.83209297
_cell_formula_units_Z   8
loop_
 _symmetry_equiv_pos_site_id
 _symmetry_equiv_pos_as_xyz
  1  'x, y, z'
loop_
 _atom_site_type_symbol
 _atom_site_label
 _atom_site_symmetry_multiplicity
 _atom_site_fract_x
 _atom_site_fract_y
 _atom_site_fract_z
 _atom_site_occupancy
  Cs  Cs0  1  0.50000000  0.75000000  0.88444300  1
  Cs  Cs1  1  0.00000000  0.25000000  0.61555700  1
  Cs  Cs2  1  0.50000000  0.25000000  0.11555700  1
  Cs  Cs3  1  0.00000000  0.75000000  0.92674200  1
  Cs  Cs4  1  0.50000000  0.25000000  0.57325800  1
  Cs  Cs5  1  0.00000000  0.25000000  0.07325800  1
  Cs  Cs6  1  0.50000000  0.75000000  0.42674200  1
  Cs  Cs7  1  0.00000000  0.75000000  0.38444300  1
  Na  Na0  1  0.74743500  0.42660800  0.85688800  1
  Na  Na1  1  0.24743500  0.57339200  0.64311200  1
  Na  Na2  1  0.75256500  0.92660800  0.64311200  1
  Na  Na3  1  0.25256500  0.07339200  0.85688800  1
  Na  Na4  1  0.25256500  0.57339200  0.14311200  1
  Na  Na5  1  0.75256500  0.42660800  0.35688800  1
  Na  Na6  1  0.24743500  0.07339200  0.35688800  1
  Na  Na7  1  0.74743500  0.92660800  0.14311200  1
  Sn  Sn0  1  0.25032100  0.42391000  0.86286800  1
  Sn  Sn1  1  0.74967900  0.07609000  0.86286800  1
  Sn  Sn2  1  0.24967900  0.92391000  0.63713200  1
  Sn  Sn3  1  0.24967900  0.42391000  0.36286800  1
  Sn  Sn4  1  0.75032100  0.07609000  0.36286800  1
  Sn  Sn5  1  0.74967900  0.57609000  0.13713200  1
  Sn  Sn6  1  0.25032100  0.92391000  0.13713200  1
  Sn  Sn7  1  0.75032100  0.57609000  0.63713200  1
  F  F0  1  0.28052700  0.87832400  0.27862100  1
  F  F1  1  0.78052700  0.12167600  0.22137900  1
  F  F2  1  0.21947300  0.37832400  0.22137900  1
  F  F3  1  0.71947300  0.62167600  0.27862100  1
  F  F4  1  0.71947300  0.12167600  0.72137900  1
  F  F5  1  0.21947300  0.87832400  0.77862100  1
  F  F6  1  0.78052700  0.62167600  0.77862100  1
  F  F7  1  0.28052700  0.37832400  0.72137900  1
  F  F8  1  0.20653300  0.97768900  0.99969500  1
  F  F9  1  0.70653300  0.02231100  0.50030500  1
  F  F10  1  0.29346700  0.47768900  0.50030500  1
  F  F11  1  0.79346700  0.52231100  0.99969500  1
  F  F12  1  0.79346700  0.02231100  0.00030500  1
  F  F13  1  0.29346700  0.97768900  0.49969500  1
  F  F14  1  0.70653300  0.52231100  0.49969500  1
  F  F15  1  0.20653300  0.47768900  0.00030500  1
  F  F16  1  0.02099800  0.89086000  0.15330600  1
  F  F17  1  0.47873600  0.95790000  0.12083300  1
  F  F18  1  0.52099800  0.10914000  0.34669400  1
  F  F19  1  0.97900200  0.60914000  0.15330600  1
  F  F20  1  0.97900200  0.10914000  0.84669400  1
  F  F21  1  0.47900200  0.89086000  0.65330600  1
  F  F22  1  0.52099800  0.60914000  0.65330600  1
  F  F23  1  0.02099800  0.39086000  0.84669400  1
  F  F24  1  0.21771900  0.76105900  0.58431900  1
  F  F25  1  0.71771900  0.23894100  0.91568100  1
  F  F26  1  0.28228100  0.26105900  0.91568100  1
  F  F27  1  0.78228100  0.73894100  0.58431900  1
  F  F28  1  0.78228100  0.23894100  0.41568100  1
  F  F29  1  0.28228100  0.76105900  0.08431900  1
  F  F30  1  0.71771900  0.73894100  0.08431900  1
  F  F31  1  0.21771900  0.26105900  0.41568100  1
  F  F32  1  0.22280700  0.59003800  0.81437700  1
  F  F33  1  0.72280700  0.40996200  0.68562300  1
  F  F34  1  0.27719300  0.09003800  0.68562300  1
  F  F35  1  0.77719300  0.90996200  0.81437700  1
  F  F36  1  0.77719300  0.40996200  0.18562300  1
  F  F37  1  0.27719300  0.59003800  0.31437700  1
  F  F38  1  0.72280700  0.90996200  0.31437700  1
  F  F39  1  0.22280700  0.09003800  0.18562300  1
  F  F40  1  0.47873600  0.45790000  0.87916700  1
  F  F41  1  0.97873600  0.54210000  0.62083300  1
  F  F42  1  0.02126400  0.95790000  0.62083300  1
  F  F43  1  0.52126400  0.04210000  0.87916700  1
  F  F44  1  0.52126400  0.54210000  0.12083300  1
  F  F45  1  0.02126400  0.45790000  0.37916700  1
  F  F46  1  0.97873600  0.04210000  0.37916700  1
  F  F47  1  0.47900200  0.39086000  0.34669400  1
loop_
_geom_bond_atom_site_label_1
_geom_bond_atom_site_label_2
_geom_bond_distance
_geom_bond_site_symmetry_2
Cs0 F32 3.135719 1_555
Cs0 F35 3.135719 1_555
Cs0 F5 3.153313 1_555
Cs0 F6 3.153313 1_555
Cs0 F30 3.296358 1_556
Cs0 F29 3.296358 1_556
Cs0 F43 3.342508 1_565
Cs0 F40 3.342508 1_555
Cs0 F21 3.538966 1_555
Cs0 F22 3.538966 1_555
Cs1 F33 3.135719 1_455
Cs1 F34 3.135719 1_555
Cs1 F4 3.153313 1_455
Cs1 F7 3.153313 1_555
Cs1 F28 3.296358 1_455
Cs1 F31 3.296358 1_555
Cs1 F41 3.342508 1_455
Cs1 F42 3.342508 1_545
Cs1 F20 3.538966 1_455
Cs1 F23 3.538966 1_555
Cs2 F36 3.135719 1_555
Cs2 F39 3.135719 1_555
Cs2 F1 3.153313 1_555
Cs2 F2 3.153313 1_555
Cs2 F26 3.296358 1_554
Cs2 F25 3.296358 1_554
Cs2 F17 3.342508 1_545
Cs2 F44 3.342508 1_555
Cs2 F47 3.538966 1_555
Cs2 F18 3.538966 1_555
Cs3 F35 3.047464 1_455
Cs3 F32 3.047464 1_555
Cs3 F5 3.117069 1_555
Cs3 F6 3.117069 1_455
Cs3 F30 3.226315 1_456
Cs3 F29 3.226315 1_556
Cs3 F11 3.294172 1_455
Cs3 F8 3.294172 1_555
Cs3 F19 3.483719 1_456
Cs3 F16 3.483719 1_556
Cs4 F33 3.047464 1_555
Cs4 F34 3.047464 1_555
Cs4 F4 3.117069 1_555
Cs4 F7 3.117069 1_555
Cs4 F31 3.226315 1_555
Cs4 F28 3.226315 1_555
Cs4 F9 3.294172 1_555
Cs4 F10 3.294172 1_555
Cs4 F18 3.483719 1_555
Cs4 F47 3.483719 1_555
Cs5 F36 3.047464 1_455
Cs5 F39 3.047464 1_555
Cs5 F2 3.117069 1_555
Cs5 F1 3.117069 1_455
Cs5 F26 3.226315 1_554
Cs5 F25 3.226315 1_454
Cs5 F15 3.294172 1_555
Cs5 F12 3.294172 1_455
Cs5 F20 3.483719 1_454
Cs5 F23 3.483719 1_554
Cs6 F37 3.047464 1_555
Cs6 F38 3.047464 1_555
Cs6 F0 3.117069 1_555
Cs6 F3 3.117069 1_555
Cs6 F27 3.226315 1_555
Cs6 F24 3.226315 1_555
Cs6 F14 3.294172 1_555
Cs6 F13 3.294172 1_555
Cs6 F21 3.483719 1_555
Cs6 F22 3.483719 1_555
Cs7 F38 3.135719 1_455
Cs7 F37 3.135719 1_555
Cs7 F0 3.153313 1_555
Cs7 F3 3.153313 1_455
Cs7 F24 3.296358 1_555
Cs7 F27 3.296358 1_455
Cs7 F45 3.342508 1_555
Cs7 F46 3.342508 1_465
Cs7 F19 3.538966 1_455
Cs7 F16 3.538966 1_555
F0 Sn6 2.012045 1_555
F0 Na6 2.486099 1_565
F1 Sn4 2.012045 1_555
F1 Na7 2.486099 1_545
F2 Sn3 2.012045 1_555
F2 Na4 2.486099 1_555
F3 Sn5 2.012045 1_555
F3 Na5 2.486099 1_555
F4 Sn1 2.012045 1_555
F4 Na2 2.486099 1_545
F5 Sn2 2.012045 1_555
F5 Na3 2.486099 1_565
F6 Sn7 2.012045 1_555
F6 Na0 2.486099 1_555
F7 Sn0 2.012045 1_555
F7 Na1 2.486099 1_555
F8 Sn6 2.004518 1_556
F8 Na3 2.264842 1_565
F9 Sn4 2.004518 1_555
F9 Na2 2.264842 1_545
F10 Sn3 2.004518 1_555
F10 Na1 2.264842 1_555
F11 Sn5 2.004518 1_556
F11 Na0 2.264842 1_555
F12 Sn1 2.004518 1_554
F12 Na7 2.264842 1_545
F13 Sn2 2.004518 1_555
F13 Na6 2.264842 1_565
F14 Sn7 2.004518 1_555
F14 Na5 2.264842 1_555
F15 Sn0 2.004518 1_554
F15 Na4 2.264842 1_555
F16 Sn6 2.003154 1_555
F16 Na7 2.371568 1_455
F17 Sn6 1.997848 1_555
F17 Na7 2.338039 1_555
F18 Sn4 2.003154 1_555
F18 Na6 2.371568 1_555
F19 Sn5 2.003154 1_555
F19 Na4 2.371568 1_655
F20 Sn1 2.003154 1_555
F20 Na3 2.371568 1_655
F21 Sn2 2.003154 1_555
F21 Na2 2.371568 1_555
F22 Sn7 2.003154 1_555
F22 Na1 2.371568 1_555
F23 Sn0 2.003154 1_555
F23 Na0 2.371568 1_455
F24 Sn2 2.012981 1_555
F24 Na1 2.302363 1_555
F25 Sn1 2.012981 1_555
F25 Na0 2.302363 1_555
F26 Sn0 2.012981 1_555
F26 Na3 2.302363 1_555
F27 Sn7 2.012981 1_555
F27 Na2 2.302363 1_555
F28 Sn4 2.012981 1_555
F28 Na5 2.302363 1_555
F29 Sn6 2.012981 1_555
F29 Na4 2.302363 1_555
F30 Sn5 2.012981 1_555
F30 Na7 2.302363 1_555
F31 Sn3 2.012981 1_555
F31 Na6 2.302363 1_555
F32 Sn0 2.022969 1_555
F32 Na1 2.348892 1_555
F33 Sn7 2.022969 1_555
F33 Na0 2.348892 1_555
F34 Sn2 2.022969 1_545
F34 Na3 2.348892 1_555
F35 Sn1 2.022969 1_565
F35 Na2 2.348892 1_555
F36 Sn5 2.022969 1_555
F36 Na5 2.348892 1_555
F37 Sn3 2.022969 1_555
F37 Na4 2.348892 1_555
F38 Sn4 2.022969 1_565
F38 Na7 2.348892 1_555
F39 Sn6 2.022969 1_545
F39 Na6 2.348892 1_555
F40 Sn0 1.997848 1_555
F40 Na0 2.338039 1_555
F41 Sn7 1.997848 1_555
F41 Na1 2.338039 1_655
F42 Sn2 1.997848 1_555
F42 Na2 2.338039 1_455
F43 Sn1 1.997848 1_555
F43 Na3 2.338039 1_555
F44 Sn5 1.997848 1_555
F44 Na4 2.338039 1_555
F45 Sn3 1.997848 1_555
F45 Na5 2.338039 1_455
F46 Sn4 1.997848 1_555
F46 Na6 2.338039 1_655
F47 Sn3 2.003154 1_555
F47 Na5 2.371568 1_555
