# generated using pymatgen
data_CaFeNiP2O9
_symmetry_space_group_name_H-M   'P 1'
_cell_length_a   6.45524800
_cell_length_b   7.44027100
_cell_length_c   14.27796600
_cell_angle_alpha   90.00000000
_cell_angle_beta   90.00000000
_cell_angle_gamma   90.00000000
_symmetry_Int_Tables_number   1
_chemical_formula_structural   CaFeNiP2O9
_chemical_formula_sum   'Ca4 Fe4 Ni4 P8 O36'
_cell_volume   685.75349478
_cell_formula_units_Z   4
loop_
 _symmetry_equiv_pos_site_id
 _symmetry_equiv_pos_as_xyz
  1  'x, y, z'
loop_
 _atom_site_type_symbol
 _atom_site_label
 _atom_site_symmetry_multiplicity
 _atom_site_fract_x
 _atom_site_fract_y
 _atom_site_fract_z
 _atom_site_occupancy
  Ca  Ca0  1  0.25000000  0.11705700  0.71969000  1
  Ca  Ca1  1  0.25000000  0.38294300  0.21969000  1
  Ca  Ca2  1  0.75000000  0.88294300  0.28031000  1
  Ca  Ca3  1  0.75000000  0.61705700  0.78031000  1
  Fe  Fe0  1  0.25000000  0.65127900  0.61928800  1
  Fe  Fe1  1  0.75000000  0.34872100  0.38071200  1
  Fe  Fe2  1  0.75000000  0.15127900  0.88071200  1
  Fe  Fe3  1  0.25000000  0.84872100  0.11928800  1
  Ni  Ni0  1  0.00000000  0.00000000  0.50000000  1
  Ni  Ni1  1  0.00000000  0.50000000  0.00000000  1
  Ni  Ni2  1  0.50000000  0.50000000  0.00000000  1
  Ni  Ni3  1  0.50000000  0.00000000  0.50000000  1
  P  P0  1  0.75000000  0.64600300  0.56380600  1
  P  P1  1  0.25000000  0.35399700  0.43619400  1
  P  P2  1  0.25000000  0.14600300  0.93619400  1
  P  P3  1  0.75000000  0.85399700  0.06380600  1
  P  P4  1  0.25000000  0.61193100  0.80900000  1
  P  P5  1  0.75000000  0.38806900  0.19100000  1
  P  P6  1  0.75000000  0.11193100  0.69100000  1
  P  P7  1  0.25000000  0.88806900  0.30900000  1
  O  O0  1  0.55213800  0.39487800  0.13098700  1
  O  O1  1  0.05213800  0.60512200  0.86901300  1
  O  O2  1  0.44786200  0.89487800  0.36901300  1
  O  O3  1  0.94786200  0.10512200  0.63098700  1
  O  O4  1  0.44786200  0.60512200  0.86901300  1
  O  O5  1  0.94786200  0.39487800  0.13098700  1
  O  O6  1  0.55213800  0.10512200  0.63098700  1
  O  O7  1  0.05213800  0.89487800  0.36901300  1
  O  O8  1  0.75000000  0.66692700  0.01518700  1
  O  O9  1  0.25000000  0.33307300  0.98481300  1
  O  O10  1  0.25000000  0.16692700  0.48481300  1
  O  O11  1  0.75000000  0.83307300  0.51518700  1
  O  O12  1  0.25000000  0.87119000  0.55412000  1
  O  O13  1  0.75000000  0.12881000  0.44588000  1
  O  O14  1  0.75000000  0.37119000  0.94588000  1
  O  O15  1  0.25000000  0.62881000  0.05412000  1
  O  O16  1  0.25000000  0.78653000  0.74740700  1
  O  O17  1  0.75000000  0.21347000  0.25259300  1
  O  O18  1  0.75000000  0.28653000  0.75259300  1
  O  O19  1  0.25000000  0.71347000  0.24740700  1
  O  O20  1  0.93857300  0.86581600  0.13176500  1
  O  O21  1  0.43857300  0.13418400  0.86823500  1
  O  O22  1  0.06142700  0.36581600  0.36823500  1
  O  O23  1  0.56142700  0.63418400  0.63176500  1
  O  O24  1  0.06142700  0.13418400  0.86823500  1
  O  O25  1  0.56142700  0.86581600  0.13176500  1
  O  O26  1  0.93857300  0.63418400  0.63176500  1
  O  O27  1  0.43857300  0.36581600  0.36823500  1
  O  O28  1  0.25000000  0.03863100  0.23180500  1
  O  O29  1  0.75000000  0.96136900  0.76819500  1
  O  O30  1  0.75000000  0.53863100  0.26819500  1
  O  O31  1  0.25000000  0.46136900  0.73180500  1
  O  O32  1  0.25000000  0.00104700  0.01068200  1
  O  O33  1  0.75000000  0.99895300  0.98931800  1
  O  O34  1  0.75000000  0.50104700  0.48931800  1
  O  O35  1  0.25000000  0.49895300  0.51068200  1
loop_
_geom_bond_atom_site_label_1
_geom_bond_atom_site_label_2
_geom_bond_distance
_geom_bond_site_symmetry_2
Ca0 O6 2.327202 1_555
Ca0 O3 2.327202 1_455
Ca0 O21 2.448740 1_555
Ca0 O24 2.448740 1_555
Ca0 O16 2.490849 1_545
Ca0 O31 2.567608 1_555
Ca1 O0 2.327202 1_555
Ca1 O5 2.327202 1_455
Ca1 O27 2.448740 1_555
Ca1 O22 2.448740 1_555
Ca1 O19 2.490849 1_555
Ca1 O28 2.567608 1_555
Ca2 O2 2.327202 1_555
Ca2 O7 2.327202 1_655
Ca2 O25 2.448740 1_555
Ca2 O20 2.448740 1_555
Ca2 O17 2.490849 1_565
Ca2 O30 2.567608 1_555
Ca3 O4 2.327202 1_555
Ca3 O1 2.327202 1_655
Ca3 O26 2.448740 1_555
Ca3 O23 2.448740 1_555
Ca3 O18 2.490849 1_555
Ca3 O29 2.567608 1_555
Fe0 O12 1.882262 1_555
Fe0 O35 1.920693 1_555
Fe0 O26 2.022220 1_455
Fe0 O23 2.022220 1_555
Fe0 O16 2.087800 1_555
Fe0 O31 2.139487 1_555
Fe1 O13 1.882262 1_555
Fe1 O34 1.920693 1_555
Fe1 O22 2.022220 1_655
Fe1 O27 2.022220 1_555
Fe1 O17 2.087800 1_555
Fe1 O30 2.139487 1_555
Fe2 O14 1.882262 1_555
Fe2 O33 1.920693 1_545
Fe2 O24 2.022220 1_655
Fe2 O21 2.022220 1_555
Fe2 O18 2.087800 1_555
Fe2 O29 2.139487 1_545
Fe3 O15 1.882262 1_555
Fe3 O32 1.920693 1_565
Fe3 O25 2.022220 1_555
Fe3 O20 2.022220 1_455
Fe3 O19 2.087800 1_555
Fe3 O28 2.139487 1_565
Ni0 O13 2.029775 1_455
Ni0 O12 2.029775 1_545
Ni0 O10 2.047908 1_555
Ni0 O11 2.047908 1_445
Ni0 O3 2.054937 1_455
Ni0 O7 2.054937 1_545
Ni1 O14 2.029775 1_454
Ni1 O15 2.029775 1_555
Ni1 O8 2.047908 1_455
Ni1 O9 2.047908 1_554
Ni1 O5 2.054937 1_455
Ni1 O1 2.054937 1_554
Ni2 O14 2.029775 1_554
Ni2 O15 2.029775 1_555
Ni2 O8 2.047908 1_555
Ni2 O9 2.047908 1_554
Ni2 O0 2.054937 1_555
Ni2 O4 2.054937 1_554
Ni3 O13 2.029775 1_555
Ni3 O12 2.029775 1_545
Ni3 O10 2.047908 1_555
Ni3 O11 2.047908 1_545
Ni3 O6 2.054937 1_555
Ni3 O2 2.054937 1_545
O0 P5 1.538878 1_555
O1 P4 1.538878 1_555
O2 P7 1.538878 1_555
O3 P6 1.538878 1_555
O4 P4 1.538878 1_555
O5 P5 1.538878 1_555
O6 P6 1.538878 1_555
O7 P7 1.538878 1_555
O8 P3 1.555358 1_555
O9 P2 1.555358 1_555
O10 P1 1.555358 1_555
O11 P0 1.555358 1_555
O16 P4 1.568742 1_555
O17 P5 1.568742 1_555
O18 P6 1.568742 1_555
O19 P7 1.568742 1_555
O20 P3 1.559176 1_555
O21 P2 1.559176 1_555
O22 P1 1.559176 1_555
O23 P0 1.559176 1_555
O24 P2 1.559176 1_555
O25 P3 1.559176 1_555
O26 P0 1.559176 1_555
O27 P1 1.559176 1_555
O28 P7 1.571533 1_545
O29 P6 1.571533 1_565
O30 P5 1.571533 1_555
O31 P4 1.571533 1_555
O32 P2 1.514694 1_554
O33 P3 1.514694 1_556
O34 P0 1.514694 1_555
O35 P1 1.514694 1_555
