# generated using pymatgen
data_DyCdAu
_symmetry_space_group_name_H-M   'P 1'
_cell_length_a   7.66679904
_cell_length_b   7.66679904
_cell_length_c   3.97266529
_cell_angle_alpha   90.00000000
_cell_angle_beta   90.00000000
_cell_angle_gamma   120.00000694
_symmetry_Int_Tables_number   1
_chemical_formula_structural   DyCdAu
_chemical_formula_sum   'Dy3 Cd3 Au3'
_cell_volume   202.22774412
_cell_formula_units_Z   3
loop_
 _symmetry_equiv_pos_site_id
 _symmetry_equiv_pos_as_xyz
  1  'x, y, z'
loop_
 _atom_site_type_symbol
 _atom_site_label
 _atom_site_symmetry_multiplicity
 _atom_site_fract_x
 _atom_site_fract_y
 _atom_site_fract_z
 _atom_site_occupancy
  Dy  Dy0  1  0.59380811  0.00000000  0.00000000  1
  Dy  Dy1  1  0.00000000  0.59380811  -0.00000000  1
  Dy  Dy2  1  0.40619189  0.40619189  -0.00000000  1
  Cd  Cd0  1  0.25805990  0.00000000  0.50000000  1
  Cd  Cd1  1  0.00000000  0.25805990  0.50000000  1
  Cd  Cd2  1  0.74194010  0.74194010  0.50000000  1
  Au  Au0  1  0.33333300  0.66666700  0.50000000  1
  Au  Au1  1  0.66666700  0.33333300  0.50000000  1
  Au  Au2  1  0.00000000  0.00000000  0.00000000  1
loop_
_geom_bond_atom_site_label_1
_geom_bond_atom_site_label_2
_geom_bond_distance
_geom_bond_site_symmetry_2
Cd0 Dy0 3.251397 1_556
Cd0 Dy0 3.251397 1_555
Cd0 Dy1 3.375905 1_545
Cd0 Dy1 3.375905 1_546
Cd0 Dy2 3.375905 1_556
Cd0 Dy2 3.375905 1_555
Cd1 Dy1 3.251397 1_556
Cd1 Dy1 3.251397 1_555
Cd1 Dy0 3.375905 1_455
Cd1 Dy0 3.375905 1_456
Cd1 Dy2 3.375905 1_556
Cd1 Dy2 3.375905 1_555
Cd2 Dy2 3.251396 1_556
Cd2 Dy2 3.251396 1_555
Cd2 Dy1 3.375905 1_655
Cd2 Dy0 3.375905 1_565
Cd2 Dy1 3.375905 1_656
Cd2 Dy0 3.375905 1_566
Au0 Cd0 2.887728 1_565
Au0 Cd1 2.887732 1_555
Au0 Cd2 2.887735 1_555
Au0 Dy1 3.059588 1_555
Au0 Dy1 3.059588 1_556
Au0 Dy0 3.059590 1_566
Au0 Dy0 3.059590 1_565
Au0 Dy2 3.059594 1_556
Au0 Dy2 3.059594 1_555
Au1 Cd1 2.887728 1_655
Au1 Cd0 2.887732 1_555
Au1 Cd2 2.887735 1_555
Au1 Dy0 3.059588 1_556
Au1 Dy0 3.059588 1_555
Au1 Dy1 3.059590 1_656
Au1 Dy1 3.059590 1_655
Au1 Dy2 3.059594 1_556
Au1 Dy2 3.059594 1_555
Au2 Cd2 2.803561 1_444
Au2 Cd2 2.803561 1_445
Au2 Cd1 2.803561 1_555
Au2 Cd0 2.803561 1_555
Au2 Cd0 2.803561 1_554
Au2 Cd1 2.803561 1_554
Au2 Dy2 3.114191 1_555
Au2 Dy1 3.114192 1_545
Au2 Dy0 3.114192 1_455
