# generated using pymatgen
data_Si3BiH27(C5Cl)2
_symmetry_space_group_name_H-M   'P 1'
_cell_length_a   9.27558100
_cell_length_b   16.19783540
_cell_length_c   17.03690876
_cell_angle_alpha   117.18036038
_cell_angle_beta   101.61335121
_cell_angle_gamma   91.21392970
_symmetry_Int_Tables_number   1
_chemical_formula_structural   Si3BiH27(C5Cl)2
_chemical_formula_sum   'Si12 Bi4 H108 C40 Cl8'
_cell_volume   2211.54275605
_cell_formula_units_Z   4
loop_
 _symmetry_equiv_pos_site_id
 _symmetry_equiv_pos_as_xyz
  1  'x, y, z'
loop_
 _atom_site_type_symbol
 _atom_site_label
 _atom_site_symmetry_multiplicity
 _atom_site_fract_x
 _atom_site_fract_y
 _atom_site_fract_z
 _atom_site_occupancy
  Si  Si0  1  0.05422400  0.27223200  0.21289000  1
  Si  Si1  1  0.94577600  0.72776900  0.78711000  1
  Si  Si2  1  0.80023600  0.10840100  0.16970100  1
  Si  Si3  1  0.19976400  0.89159900  0.83029900  1
  Si  Si4  1  0.76638300  0.32578000  0.29471000  1
  Si  Si5  1  0.23361700  0.67421900  0.70529000  1
  Si  Si6  1  0.37452700  0.26415100  0.74059400  1
  Si  Si7  1  0.62547300  0.73584900  0.25940600  1
  Si  Si8  1  0.70674200  0.36506200  0.84792000  1
  Si  Si9  1  0.29325800  0.63493800  0.15208000  1
  Si  Si10  1  0.64561200  0.14128200  0.71695300  1
  Si  Si11  1  0.35438800  0.85871800  0.28304700  1
  Bi  Bi0  1  0.02006000  0.24675200  0.39546400  1
  Bi  Bi1  1  0.97994000  0.75324800  0.60453600  1
  Bi  Bi2  1  0.59846600  0.25999700  0.60440700  1
  Bi  Bi3  1  0.40153400  0.74000300  0.39559300  1
  H  H0  1  0.16167800  0.42749600  0.35358300  1
  H  H1  1  0.83832200  0.57250400  0.64641700  1
  H  H2  1  0.26492700  0.33558400  0.35403000  1
  H  H3  1  0.73507300  0.66441600  0.64597000  1
  H  H4  1  0.28478000  0.38294400  0.28180300  1
  H  H5  1  0.71522000  0.61705600  0.71819700  1
  H  H6  1  0.21650300  0.14437900  0.18548600  1
  H  H7  1  0.78349700  0.85562100  0.81451400  1
  H  H8  1  0.08429400  0.12024900  0.08301200  1
  H  H9  1  0.91570600  0.87975100  0.91698800  1
  H  H10  1  0.23957700  0.20684100  0.12474200  1
  H  H11  1  0.76042300  0.79315900  0.87525800  1
  H  H12  1  0.89816800  0.27046700  0.07417500  1
  H  H13  1  0.10183200  0.72953300  0.92582500  1
  H  H14  1  0.92229500  0.38492700  0.16795100  1
  H  H15  1  0.07770500  0.61507300  0.83204900  1
  H  H16  1  0.06972900  0.34387200  0.11377800  1
  H  H17  1  0.93027100  0.65612800  0.88622200  1
  H  H18  1  0.67044700  0.33152100  0.14918200  1
  H  H19  1  0.32955300  0.66847900  0.85081800  1
  H  H20  1  0.55016600  0.25178200  0.15952900  1
  H  H21  1  0.44983400  0.74821800  0.84047100  1
  H  H22  1  0.54926600  0.37447100  0.22384000  1
  H  H23  1  0.45073400  0.62552900  0.77616000  1
  H  H24  1  0.94694500  0.46166400  0.42193800  1
  H  H25  1  0.05305500  0.53833600  0.57806200  1
  H  H26  1  0.92666400  0.46784100  0.31871400  1
  H  H27  1  0.07333600  0.53215900  0.68128600  1
  H  H28  1  0.78428400  0.49773500  0.37885500  1
  H  H29  1  0.21571600  0.50226500  0.62114500  1
  H  H30  1  0.59941200  0.24895400  0.35064600  1
  H  H31  1  0.40058800  0.75104600  0.64935400  1
  H  H32  1  0.74323800  0.32924100  0.44320800  1
  H  H33  1  0.25676200  0.67075900  0.55679200  1
  H  H34  1  0.59528200  0.37157600  0.39704900  1
  H  H35  1  0.40471800  0.62842400  0.60295100  1
  H  H36  1  0.63910500  0.08358600  0.26158600  1
  H  H37  1  0.36089500  0.91641400  0.73841400  1
  H  H38  1  0.54064100  0.12859700  0.19114600  1
  H  H39  1  0.45935900  0.87140300  0.80885400  1
  H  H40  1  0.57223100  0.00993600  0.14270300  1
  H  H41  1  0.42776900  0.99006400  0.85729700  1
  H  H42  1  0.01710500  0.01646100  0.14307000  1
  H  H43  1  0.98289500  0.98353900  0.85693000  1
  H  H44  1  0.94424200  0.01143600  0.23014600  1
  H  H45  1  0.05575800  0.98856400  0.76985400  1
  H  H46  1  0.84732100  0.94490900  0.11477900  1
  H  H47  1  0.15267900  0.05509100  0.88522100  1
  H  H48  1  0.68771400  0.02457800  0.00371600  1
  H  H49  1  0.31228600  0.97542200  0.99628400  1
  H  H50  1  0.67092700  0.14585500  0.04830000  1
  H  H51  1  0.32907300  0.85414500  0.95170000  1
  H  H52  1  0.84214300  0.10503000  0.02623900  1
  H  H53  1  0.15785700  0.89497000  0.97376100  1
  H  H54  1  0.78484100  0.11453900  0.59392700  1
  H  H55  1  0.21515900  0.88546100  0.40607300  1
  H  H56  1  0.90685400  0.17037100  0.70369700  1
  H  H57  1  0.09314600  0.82962900  0.29630300  1
  H  H58  1  0.83905900  0.04918900  0.65083600  1
  H  H59  1  0.16094100  0.95081100  0.34916400  1
  H  H60  1  0.39390000  0.04387900  0.65620100  1
  H  H61  1  0.60610000  0.95612100  0.34379900  1
  H  H62  1  0.46668300  0.03989900  0.56599000  1
  H  H63  1  0.53331700  0.96010100  0.43401000  1
  H  H64  1  0.53834300  0.97551100  0.62264800  1
  H  H65  1  0.46165700  0.02448900  0.37735200  1
  H  H66  1  0.79061100  0.17875100  0.87341900  1
  H  H67  1  0.20938900  0.82124900  0.12658100  1
  H  H68  1  0.60351100  0.13246100  0.85363900  1
  H  H69  1  0.39648900  0.86753900  0.14636100  1
  H  H70  1  0.73224000  0.05705800  0.80363500  1
  H  H71  1  0.26776000  0.94294200  0.19636500  1
  H  H72  1  0.93088400  0.28829400  0.87580700  1
  H  H73  1  0.06911600  0.71170600  0.12419300  1
  H  H74  1  0.95662300  0.34555100  0.81038700  1
  H  H75  1  0.04337700  0.65444900  0.18961300  1
  H  H76  1  0.96970300  0.41172300  0.92907800  1
  H  H77  1  0.03029700  0.58827700  0.07092200  1
  H  H78  1  0.53728100  0.39202400  0.95342300  1
  H  H79  1  0.46271900  0.60797600  0.04657700  1
  H  H80  1  0.66455600  0.31359100  0.96058900  1
  H  H81  1  0.33544400  0.68640900  0.03941100  1
  H  H82  1  0.72519800  0.43551600  0.01384700  1
  H  H83  1  0.27480200  0.56448400  0.98615300  1
  H  H84  1  0.73274500  0.48238000  0.79159700  1
  H  H85  1  0.26725500  0.51762000  0.20840300  1
  H  H86  1  0.58323100  0.50121700  0.84645200  1
  H  H87  1  0.41676900  0.49878300  0.15354800  1
  H  H88  1  0.76955800  0.53485700  0.91210200  1
  H  H89  1  0.23044200  0.46514300  0.08789800  1
  H  H90  1  0.33833500  0.13478200  0.78011100  1
  H  H91  1  0.66166500  0.86521800  0.21988900  1
  H  H92  1  0.38499100  0.24509200  0.87994300  1
  H  H93  1  0.61500900  0.75490800  0.12005700  1
  H  H94  1  0.20318200  0.21243000  0.80786500  1
  H  H95  1  0.79681800  0.78757000  0.19213500  1
  H  H96  1  0.37898600  0.43060500  0.85937000  1
  H  H97  1  0.62101400  0.56939500  0.14063000  1
  H  H98  1  0.33563600  0.41911200  0.74751200  1
  H  H99  1  0.66436400  0.58088800  0.25248800  1
  H  H100  1  0.19982700  0.37917700  0.78698200  1
  H  H101  1  0.80017300  0.62082300  0.21301800  1
  H  H102  1  0.25949100  0.22780400  0.57729400  1
  H  H103  1  0.74050900  0.77219600  0.42270600  1
  H  H104  1  0.25609600  0.12348300  0.58821000  1
  H  H105  1  0.74390400  0.87651700  0.41179000  1
  H  H106  1  0.13228900  0.20512700  0.63083300  1
  H  H107  1  0.86771100  0.79487300  0.36916700  1
  C  C0  1  0.90017000  0.23247400  0.25456500  1
  C  C1  1  0.09983000  0.76752600  0.74543500  1
  C  C2  1  0.20281400  0.36283700  0.31080200  1
  C  C3  1  0.79718600  0.63716300  0.68919800  1
  C  C4  1  0.15712300  0.17545500  0.14522200  1
  C  C5  1  0.84287700  0.82454500  0.85477800  1
  C  C6  1  0.97709600  0.32279200  0.13529900  1
  C  C7  1  0.02290400  0.67720800  0.86470100  1
  C  C8  1  0.62067700  0.31943100  0.19687100  1
  C  C9  1  0.37932300  0.68056900  0.80312900  1
  C  C10  1  0.86735500  0.44916000  0.35920700  1
  C  C11  1  0.13264500  0.55084000  0.64079300  1
  C  C12  1  0.66862300  0.31641500  0.37856900  1
  C  C13  1  0.33137700  0.68358500  0.62143100  1
  C  C14  1  0.62145500  0.08141700  0.19492400  1
  C  C15  1  0.37854500  0.91858300  0.80507600  1
  C  C16  1  0.91493800  0.01221500  0.16482800  1
  C  C17  1  0.08506200  0.98778500  0.83517200  1
  C  C18  1  0.74606200  0.09543400  0.05118400  1
  C  C19  1  0.25393800  0.90456600  0.94881600  1
  C  C20  1  0.58304100  0.26229700  0.74086800  1
  C  C21  1  0.41695900  0.73770300  0.25913200  1
  C  C22  1  0.80887400  0.11840600  0.66170300  1
  C  C23  1  0.19112600  0.88159400  0.33829700  1
  C  C24  1  0.49609300  0.04174300  0.63258200  1
  C  C25  1  0.50390700  0.95825700  0.36741800  1
  C  C26  1  0.69787500  0.12707600  0.82242500  1
  C  C27  1  0.30212500  0.87292400  0.17757500  1
  C  C28  1  0.90995500  0.34976700  0.86625400  1
  C  C29  1  0.09004500  0.65023300  0.13374600  1
  C  C30  1  0.65212700  0.37715600  0.95343000  1
  C  C31  1  0.34787300  0.62284400  0.04657000  1
  C  C32  1  0.69543300  0.48134000  0.84837600  1
  C  C33  1  0.30456700  0.51866000  0.15162400  1
  C  C34  1  0.32204600  0.20876400  0.80888500  1
  C  C35  1  0.67795400  0.79123600  0.19111500  1
  C  C36  1  0.31907000  0.38549100  0.78870500  1
  C  C37  1  0.68093000  0.61450900  0.21129500  1
  C  C38  1  0.24726500  0.19856000  0.62284900  1
  C  C39  1  0.75273500  0.80144000  0.37715100  1
  Cl  Cl0  1  0.23840400  0.15757500  0.36118800  1
  Cl  Cl1  1  0.76159600  0.84242500  0.63881200  1
  Cl  Cl2  1  0.88061700  0.11981100  0.40688100  1
  Cl  Cl3  1  0.11938300  0.88018900  0.59311900  1
  Cl  Cl4  1  0.47122200  0.39567300  0.60512000  1
  Cl  Cl5  1  0.52877800  0.60432700  0.39488000  1
  Cl  Cl6  1  0.85218900  0.34617800  0.64189500  1
  Cl  Cl7  1  0.14781100  0.65382200  0.35810500  1
loop_
_geom_bond_atom_site_label_1
_geom_bond_atom_site_label_2
_geom_bond_distance
_geom_bond_site_symmetry_2
Bi0 C0 2.336582 1_455
Bi0 Cl2 2.508502 1_455
Bi0 Cl0 2.521649 1_555
Bi1 C1 2.336582 1_655
Bi1 Cl3 2.508502 1_655
Bi1 Cl1 2.521649 1_555
Bi2 C20 2.341349 1_555
Bi2 Cl4 2.512797 1_555
Bi2 Cl6 2.517205 1_555
Bi3 C21 2.341349 1_555
Bi3 Cl5 2.512797 1_555
Bi3 Cl7 2.517205 1_555
C0 Si2 1.927555 1_555
C0 Si0 1.935958 1_655
C0 Si4 1.941330 1_555
C1 Si3 1.927555 1_555
C1 Si1 1.935950 1_455
C1 Si5 1.941340 1_555
C2 H0 1.097834 1_555
C2 H2 1.098248 1_555
C2 H4 1.102693 1_555
C2 Si0 1.894239 1_555
C3 H1 1.097834 1_555
C3 H3 1.098248 1_555
C3 H5 1.102693 1_555
C3 Si1 1.894245 1_555
C4 H8 1.095252 1_555
C4 H6 1.096534 1_555
C4 H10 1.103698 1_555
C4 Si0 1.884868 1_555
C5 H9 1.095252 1_555
C5 H7 1.096534 1_555
C5 H11 1.103698 1_555
C5 Si1 1.884858 1_555
C6 H12 1.095071 1_555
C6 H14 1.097638 1_555
C6 H16 1.103662 1_655
C6 Si0 1.887610 1_655
C7 H13 1.095071 1_555
C7 H15 1.097638 1_555
C7 H17 1.103662 1_455
C7 Si1 1.887622 1_455
C8 H20 1.094731 1_555
C8 H18 1.097323 1_555
C8 H22 1.103631 1_555
C8 Si4 1.883114 1_555
C9 H21 1.094731 1_555
C9 H19 1.097323 1_555
C9 H23 1.103631 1_555
C9 Si5 1.883108 1_555
C10 H24 1.098402 1_555
C10 H26 1.098447 1_555
C10 H28 1.101706 1_555
C10 Si4 1.891738 1_555
C11 H25 1.098402 1_555
C11 H27 1.098447 1_555
C11 H29 1.101706 1_555
C11 Si5 1.891725 1_555
C12 H30 1.097675 1_555
C12 H32 1.101335 1_555
C12 H34 1.102368 1_555
C12 Si4 1.897419 1_555
C13 H31 1.097675 1_555
C13 H33 1.101335 1_555
C13 H35 1.102368 1_555
C13 Si5 1.897426 1_555
C14 H38 1.095375 1_555
C14 H36 1.098330 1_555
C14 H40 1.101614 1_555
C14 Si2 1.885057 1_555
C15 H39 1.095375 1_555
C15 H37 1.098330 1_555
C15 H41 1.101614 1_555
C15 Si3 1.885057 1_555
C16 H42 1.096430 1_655
C16 H44 1.097085 1_555
C16 H46 1.102466 1_545
C16 Si2 1.885163 1_555
C17 H43 1.096430 1_455
C17 H45 1.097085 1_555
C17 H47 1.102466 1_565
C17 Si3 1.885163 1_555
C18 H50 1.096413 1_555
C18 H52 1.098177 1_555
C18 H48 1.101668 1_555
C18 Si2 1.890295 1_555
C19 H51 1.096413 1_555
C19 H53 1.098177 1_555
C19 H49 1.101668 1_555
C19 Si3 1.890295 1_555
C20 Si8 1.927868 1_555
C20 Si6 1.934057 1_555
C20 Si10 1.938796 1_555
C21 Si9 1.927868 1_555
C21 Si7 1.934057 1_555
C21 Si11 1.938796 1_555
C22 H56 1.096335 1_555
C22 H58 1.101914 1_555
C22 H54 1.103010 1_555
C22 Si10 1.896210 1_555
C23 H57 1.096335 1_555
C23 H59 1.101914 1_555
C23 H55 1.103010 1_555
C23 Si11 1.896210 1_555
C24 H60 1.097210 1_555
C24 H62 1.098426 1_555
C24 H64 1.100816 1_545
C24 Si10 1.890634 1_555
C25 H61 1.097210 1_555
C25 H63 1.098426 1_555
C25 H65 1.100816 1_565
C25 Si11 1.890634 1_555
C26 H66 1.095247 1_555
C26 H68 1.097627 1_555
C26 H70 1.102301 1_555
C26 Si10 1.883780 1_555
C27 H67 1.095247 1_555
C27 H69 1.097627 1_555
C27 H71 1.102301 1_555
C27 Si11 1.883780 1_555
C28 H72 1.095069 1_555
C28 H74 1.098052 1_555
C28 H76 1.102796 1_555
C28 Si8 1.888201 1_555
C29 H73 1.095069 1_555
C29 H75 1.098052 1_555
C29 H77 1.102796 1_555
C29 Si9 1.888201 1_555
C30 H80 1.096527 1_555
C30 H78 1.097101 1_555
C30 H82 1.102503 1_556
C30 Si8 1.890864 1_555
C31 H81 1.096527 1_555
C31 H79 1.097101 1_555
C31 H83 1.102503 1_554
C31 Si9 1.890864 1_555
C32 H86 1.094521 1_555
C32 H84 1.097832 1_555
C32 H88 1.103312 1_555
C32 Si8 1.885149 1_555
C33 H87 1.094521 1_555
C33 H85 1.097832 1_555
C33 H89 1.103312 1_555
C33 Si9 1.885149 1_555
C34 H90 1.095438 1_555
C34 H92 1.096711 1_555
C34 H94 1.102456 1_555
C34 Si6 1.886432 1_555
C35 H91 1.095438 1_555
C35 H93 1.096711 1_555
C35 H95 1.102456 1_555
C35 Si7 1.886432 1_555
C36 H98 1.096243 1_555
C36 H96 1.096331 1_555
C36 H100 1.101842 1_555
C36 Si6 1.881549 1_555
C37 H99 1.096243 1_555
C37 H97 1.096331 1_555
C37 H101 1.101842 1_555
C37 Si7 1.881549 1_555
C38 H104 1.096301 1_555
C38 H102 1.099376 1_555
C38 H106 1.103253 1_555
C38 Si6 1.895433 1_555
C39 H105 1.096301 1_555
C39 H103 1.099376 1_555
C39 H107 1.103253 1_555
C39 Si7 1.895433 1_555
