# generated using pymatgen
data_PrTl(WO4)2
_symmetry_space_group_name_H-M   'P 1'
_cell_length_a   8.21698119
_cell_length_b   8.21698119
_cell_length_c   7.89447916
_cell_angle_alpha   61.33645447
_cell_angle_beta   61.33645447
_cell_angle_gamma   91.46853540
_symmetry_Int_Tables_number   1
_chemical_formula_structural   PrTl(WO4)2
_chemical_formula_sum   'Pr2 Tl2 W4 O16'
_cell_volume   387.09281703
_cell_formula_units_Z   2
loop_
 _symmetry_equiv_pos_site_id
 _symmetry_equiv_pos_as_xyz
  1  'x, y, z'
loop_
 _atom_site_type_symbol
 _atom_site_label
 _atom_site_symmetry_multiplicity
 _atom_site_fract_x
 _atom_site_fract_y
 _atom_site_fract_z
 _atom_site_occupancy
  Pr  Pr0  1  0.73553700  0.73553700  0.43403700  1
  Pr  Pr1  1  0.26446300  0.26446300  0.56596300  1
  Tl  Tl0  1  0.71883300  0.28116700  0.00000000  1
  Tl  Tl1  1  0.28116700  0.71883300  0.00000000  1
  W  W0  1  0.24364400  0.24364400  0.99956000  1
  W  W1  1  0.75635600  0.75635600  0.00044000  1
  W  W2  1  0.84321100  0.15678900  0.50000000  1
  W  W3  1  0.15678900  0.84321100  0.50000000  1
  O  O0  1  0.33103000  0.09827700  0.20999600  1
  O  O1  1  0.66897000  0.90172300  0.79000400  1
  O  O2  1  0.90172300  0.66897000  0.79000400  1
  O  O3  1  0.09827700  0.33103000  0.20999600  1
  O  O4  1  0.67915500  0.17981300  0.40679900  1
  O  O5  1  0.32084500  0.82018700  0.59320100  1
  O  O6  1  0.82018700  0.32084500  0.59320100  1
  O  O7  1  0.17981300  0.67915500  0.40679900  1
  O  O8  1  0.67795300  0.89496400  0.14219300  1
  O  O9  1  0.32204700  0.10503600  0.85780700  1
  O  O10  1  0.10503600  0.32204700  0.85780700  1
  O  O11  1  0.89496400  0.67795300  0.14219300  1
  O  O12  1  0.97349900  0.97349900  0.34899900  1
  O  O13  1  0.02650100  0.02650100  0.65100100  1
  O  O14  1  0.53613100  0.53613100  0.20483600  1
  O  O15  1  0.46386900  0.46386900  0.79516400  1
loop_
_geom_bond_atom_site_label_1
_geom_bond_atom_site_label_2
_geom_bond_distance
_geom_bond_site_symmetry_2
O0 W3 1.944859 1_545
O0 W0 1.996722 1_554
O0 Tl0 2.730862 1_555
O1 W2 1.944859 1_565
O1 W1 1.996722 1_556
O1 Tl1 2.730862 1_556
O2 W3 1.944859 1_655
O2 W1 1.996722 1_556
O2 Tl0 2.730862 1_556
O3 W2 1.944859 1_455
O3 W0 1.996722 1_554
O3 Tl1 2.730862 1_555
O4 W2 1.795949 1_555
O4 Tl0 2.743942 1_555
O5 W3 1.795949 1_555
O5 Tl1 2.743942 1_556
O6 W2 1.795949 1_555
O6 Tl0 2.743942 1_556
O7 W3 1.795949 1_555
O7 Tl1 2.743942 1_555
O8 W1 1.879689 1_555
O8 Pr0 2.330313 1_555
O8 Tl0 2.758578 1_565
O9 W0 1.879689 1_555
O9 Pr1 2.330313 1_555
O9 Tl1 2.758578 1_546
O10 W0 1.879689 1_555
O10 Pr1 2.330313 1_555
O10 Tl0 2.758578 1_456
O11 W1 1.879689 1_555
O11 Pr0 2.330313 1_555
O11 Tl1 2.758578 1_655
O12 Pr0 2.320079 1_555
O12 W3 2.327268 1_655
O12 W2 2.327268 1_565
O12 W0 2.337371 1_664
O13 Pr1 2.320079 1_555
O13 W2 2.327268 1_455
O13 W3 2.327268 1_545
O13 W1 2.337371 1_446
O14 W1 1.839203 1_555
O14 Pr1 2.372349 1_555
O15 W0 1.839203 1_555
O15 Pr0 2.372349 1_555
