# generated using pymatgen
data_ErMn2O5
_symmetry_space_group_name_H-M   'P 1'
_cell_length_a   5.66766408
_cell_length_b   7.17493242
_cell_length_c   8.42724539
_cell_angle_alpha   90.00000000
_cell_angle_beta   90.00000000
_cell_angle_gamma   90.00000000
_symmetry_Int_Tables_number   1
_chemical_formula_structural   ErMn2O5
_chemical_formula_sum   'Er4 Mn8 O20'
_cell_volume   342.69483342
_cell_formula_units_Z   4
loop_
 _symmetry_equiv_pos_site_id
 _symmetry_equiv_pos_as_xyz
  1  'x, y, z'
loop_
 _atom_site_type_symbol
 _atom_site_label
 _atom_site_symmetry_multiplicity
 _atom_site_fract_x
 _atom_site_fract_y
 _atom_site_fract_z
 _atom_site_occupancy
  Er  Er0  1  0.00000000  0.36366243  0.67063626  1
  Er  Er1  1  0.00000000  0.63633757  0.32936374  1
  Er  Er2  1  0.00000000  0.86366243  0.82936374  1
  Er  Er3  1  0.00000000  0.13633757  0.17063626  1
  Mn  Mn0  1  0.50000000  0.08725727  0.84855821  1
  Mn  Mn1  1  0.50000000  0.91274273  0.15144179  1
  Mn  Mn2  1  0.50000000  0.58725727  0.65144179  1
  Mn  Mn3  1  0.50000000  0.41274273  0.34855821  1
  Mn  Mn4  1  0.25336789  0.50000000  0.00000000  1
  Mn  Mn5  1  0.74663211  0.00000000  0.50000000  1
  Mn  Mn6  1  0.74663211  0.50000000  0.00000000  1
  Mn  Mn7  1  0.25336789  0.00000000  0.50000000  1
  O  O0  1  0.24164516  0.89206280  0.29357307  1
  O  O1  1  0.24164516  0.10793720  0.70642693  1
  O  O2  1  0.75835484  0.39206280  0.20642693  1
  O  O3  1  0.75835484  0.60793720  0.79357307  1
  O  O4  1  0.75835484  0.10793720  0.70642693  1
  O  O5  1  0.75835484  0.89206280  0.29357307  1
  O  O6  1  0.24164516  0.60793720  0.79357307  1
  O  O7  1  0.24164516  0.39206280  0.20642693  1
  O  O8  1  0.50000000  0.34714068  0.93170503  1
  O  O9  1  0.50000000  0.65285932  0.06829497  1
  O  O10  1  0.50000000  0.84714068  0.56829497  1
  O  O11  1  0.50000000  0.15285932  0.43170503  1
  O  O12  1  0.26968190  0.00000000  0.00000000  1
  O  O13  1  0.73031810  0.50000000  0.50000000  1
  O  O14  1  0.73031810  0.00000000  0.00000000  1
  O  O15  1  0.26968190  0.50000000  0.50000000  1
  O  O16  1  0.00000000  0.16474717  0.44233928  1
  O  O17  1  0.00000000  0.83525283  0.55766072  1
  O  O18  1  0.00000000  0.66474717  0.05766072  1
  O  O19  1  0.00000000  0.33525283  0.94233928  1
loop_
_geom_bond_atom_site_label_1
_geom_bond_atom_site_label_2
_geom_bond_distance
_geom_bond_site_symmetry_2
Er0 O19 2.298763 1_555
Er0 O1 2.309374 1_555
Er0 O4 2.309374 1_455
Er0 O15 2.315369 1_555
Er0 O13 2.315369 1_455
Er0 O16 2.395487 1_555
Er0 O6 2.453740 1_555
Er0 O3 2.453740 1_455
Er1 O18 2.298763 1_555
Er1 O0 2.309374 1_555
Er1 O5 2.309374 1_455
Er1 O15 2.315369 1_555
Er1 O13 2.315369 1_455
Er1 O17 2.395487 1_555
Er1 O7 2.453740 1_555
Er1 O2 2.453740 1_455
Er2 O17 2.298763 1_555
Er2 O3 2.309374 1_455
Er2 O6 2.309374 1_555
Er2 O12 2.315369 1_566
Er2 O14 2.315369 1_466
Er2 O18 2.395487 1_556
Er2 O1 2.453740 1_565
Er2 O4 2.453740 1_465
Er3 O16 2.298763 1_555
Er3 O7 2.309374 1_555
Er3 O2 2.309374 1_455
Er3 O12 2.315369 1_555
Er3 O14 2.315369 1_455
Er3 O19 2.395487 1_554
Er3 O0 2.453740 1_545
Er3 O5 2.453740 1_445
Mn0 O4 1.897568 1_555
Mn0 O1 1.897568 1_555
Mn0 O14 1.929953 1_556
Mn0 O12 1.929953 1_556
Mn0 O8 1.991955 1_555
Mn1 O5 1.897568 1_555
Mn1 O0 1.897568 1_555
Mn1 O14 1.929953 1_565
Mn1 O12 1.929953 1_565
Mn1 O9 1.991955 1_555
Mn2 O6 1.897568 1_555
Mn2 O3 1.897568 1_555
Mn2 O13 1.929953 1_555
Mn2 O15 1.929953 1_555
Mn2 O10 1.991955 1_555
Mn3 O7 1.897568 1_555
Mn3 O2 1.897568 1_555
Mn3 O13 1.929953 1_555
Mn3 O15 1.929953 1_555
Mn3 O11 1.991955 1_555
Mn4 O9 1.867629 1_555
Mn4 O8 1.867629 1_554
Mn4 O6 1.905366 1_554
Mn4 O7 1.905366 1_555
Mn4 O19 1.922360 1_554
Mn4 O18 1.922360 1_555
Mn5 O10 1.867629 1_545
Mn5 O11 1.867629 1_555
Mn5 O5 1.905366 1_545
Mn5 O4 1.905366 1_555
Mn5 O16 1.922360 1_655
Mn5 O17 1.922360 1_645
Mn6 O8 1.867629 1_554
Mn6 O9 1.867629 1_555
Mn6 O3 1.905366 1_554
Mn6 O2 1.905366 1_555
Mn6 O19 1.922360 1_654
Mn6 O18 1.922360 1_655
Mn7 O11 1.867629 1_555
Mn7 O10 1.867629 1_545
Mn7 O0 1.905366 1_545
Mn7 O1 1.905366 1_555
Mn7 O16 1.922360 1_555
Mn7 O17 1.922360 1_545
