# generated using pymatgen
data_DyMgAg
_symmetry_space_group_name_H-M   'P 1'
_cell_length_a   7.54434804
_cell_length_b   7.54434804
_cell_length_c   4.22833648
_cell_angle_alpha   90.00000000
_cell_angle_beta   90.00000000
_cell_angle_gamma   120.00000846
_symmetry_Int_Tables_number   1
_chemical_formula_structural   DyMgAg
_chemical_formula_sum   'Dy3 Mg3 Ag3'
_cell_volume   208.42200327
_cell_formula_units_Z   3
loop_
 _symmetry_equiv_pos_site_id
 _symmetry_equiv_pos_as_xyz
  1  'x, y, z'
loop_
 _atom_site_type_symbol
 _atom_site_label
 _atom_site_symmetry_multiplicity
 _atom_site_fract_x
 _atom_site_fract_y
 _atom_site_fract_z
 _atom_site_occupancy
  Dy  Dy0  1  0.41417517  0.41417517  0.50000000  1
  Dy  Dy1  1  0.58582483  -0.00000000  0.50000000  1
  Dy  Dy2  1  -0.00000000  0.58582483  0.50000000  1
  Mg  Mg0  1  0.75626171  0.75626171  -0.00000000  1
  Mg  Mg1  1  0.24373829  0.00000000  0.00000000  1
  Mg  Mg2  1  0.00000000  0.24373829  0.00000000  1
  Ag  Ag0  1  0.66666700  0.33333300  0.00000000  1
  Ag  Ag1  1  0.33333300  0.66666700  0.00000000  1
  Ag  Ag2  1  0.00000000  0.00000000  0.50000000  1
loop_
_geom_bond_atom_site_label_1
_geom_bond_atom_site_label_2
_geom_bond_distance
_geom_bond_site_symmetry_2
Ag0 Mg2 2.912187 1_655
Ag0 Mg1 2.912191 1_555
Ag0 Mg0 2.912194 1_555
Ag0 Dy1 3.103552 1_555
Ag0 Dy1 3.103552 1_554
Ag0 Dy2 3.103554 1_655
Ag0 Dy2 3.103554 1_654
Ag0 Dy0 3.103558 1_555
Ag0 Dy0 3.103558 1_554
Ag1 Mg1 2.912187 1_565
Ag1 Mg2 2.912191 1_555
Ag1 Mg0 2.912194 1_555
Ag1 Dy2 3.103552 1_555
Ag1 Dy2 3.103552 1_554
Ag1 Dy1 3.103554 1_565
Ag1 Dy1 3.103554 1_564
Ag1 Dy0 3.103558 1_555
Ag1 Dy0 3.103558 1_554
Ag2 Mg0 2.801975 1_446
Ag2 Mg0 2.801975 1_445
Ag2 Mg2 2.801975 1_555
Ag2 Mg1 2.801975 1_555
Ag2 Mg1 2.801975 1_556
Ag2 Mg2 2.801975 1_556
Ag2 Dy0 3.124681 1_555
Ag2 Dy2 3.124682 1_545
Ag2 Dy1 3.124682 1_455
