# generated using pymatgen
data_La3TiAlS7
_symmetry_space_group_name_H-M   'P 1'
_cell_length_a   10.41234587
_cell_length_b   10.41234587
_cell_length_c   5.83747200
_cell_angle_alpha   90.00000000
_cell_angle_beta   90.00000000
_cell_angle_gamma   119.99999918
_symmetry_Int_Tables_number   1
_chemical_formula_structural   La3TiAlS7
_chemical_formula_sum   'La6 Ti2 Al2 S14'
_cell_volume   548.09093261
_cell_formula_units_Z   2
loop_
 _symmetry_equiv_pos_site_id
 _symmetry_equiv_pos_as_xyz
  1  'x, y, z'
loop_
 _atom_site_type_symbol
 _atom_site_label
 _atom_site_symmetry_multiplicity
 _atom_site_fract_x
 _atom_site_fract_y
 _atom_site_fract_z
 _atom_site_occupancy
  La  La0  1  0.75667500  0.12955900  0.73886000  1
  La  La1  1  0.37288400  0.24332500  0.73886000  1
  La  La2  1  0.87044100  0.62711600  0.73886000  1
  La  La3  1  0.24332500  0.87044100  0.23886000  1
  La  La4  1  0.62711600  0.75667500  0.23886000  1
  La  La5  1  0.12955900  0.37288400  0.23886000  1
  Ti  Ti0  1  0.00000000  0.00000000  0.49887900  1
  Ti  Ti1  1  0.00000000  0.00000000  0.99887900  1
  Al  Al0  1  0.66666700  0.33333300  0.15421600  1
  Al  Al1  1  0.33333300  0.66666700  0.65421600  1
  S  S0  1  0.84940100  0.07891300  0.25038700  1
  S  S1  1  0.22951200  0.15059900  0.25038700  1
  S  S2  1  0.92108700  0.77048800  0.25038700  1
  S  S3  1  0.15059900  0.92108700  0.75038700  1
  S  S4  1  0.77048800  0.84940100  0.75038700  1
  S  S5  1  0.07891300  0.22951200  0.75038700  1
  S  S6  1  0.89465300  0.40903100  0.00987500  1
  S  S7  1  0.51437700  0.10534700  0.00987500  1
  S  S8  1  0.59096900  0.48562300  0.00987500  1
  S  S9  1  0.10534700  0.59096900  0.50987500  1
  S  S10  1  0.48562300  0.89465300  0.50987500  1
  S  S11  1  0.40903100  0.51437700  0.50987500  1
  S  S12  1  0.66666700  0.33333300  0.53187200  1
  S  S13  1  0.33333300  0.66666700  0.03187200  1
loop_
_geom_bond_atom_site_label_1
_geom_bond_atom_site_label_2
_geom_bond_distance
_geom_bond_site_symmetry_2
La0 S7 2.880167 1_556
La0 S12 2.971310 1_555
La0 S10 2.971783 1_545
La0 S5 2.975473 1_655
La0 S6 2.975582 1_556
La0 S4 2.992366 1_545
La0 S0 3.138498 1_555
La0 S0 3.261252 1_556
La1 S8 2.880163 1_556
La1 S12 2.971319 1_555
La1 S11 2.971780 1_555
La1 S3 2.975473 1_545
La1 S7 2.975575 1_556
La1 S5 2.992366 1_555
La1 S1 3.138498 1_555
La1 S1 3.261252 1_556
La2 S6 2.880158 1_556
La2 S12 2.971317 1_555
La2 S9 2.971789 1_655
La2 S4 2.975473 1_555
La2 S8 2.975582 1_556
La2 S3 2.992366 1_655
La2 S2 3.138498 1_555
La2 S2 3.261252 1_556
La3 S10 2.880167 1_555
La3 S13 2.971310 1_555
La3 S7 2.971783 1_565
La3 S2 2.975473 1_455
La3 S9 2.975582 1_555
La3 S1 2.992366 1_565
La3 S3 3.138498 1_554
La3 S3 3.261252 1_555
La4 S11 2.880163 1_555
La4 S13 2.971319 1_555
La4 S8 2.971780 1_555
La4 S0 2.975473 1_565
La4 S10 2.975575 1_555
La4 S2 2.992366 1_555
La4 S4 3.138498 1_554
La4 S4 3.261252 1_555
La5 S9 2.880158 1_555
La5 S13 2.971317 1_555
La5 S6 2.971789 1_455
La5 S1 2.975473 1_555
La5 S11 2.975582 1_555
La5 S0 2.992366 1_455
La5 S5 3.138498 1_554
La5 S5 3.261252 1_555
Al0 S12 2.204556 1_555
Al0 S6 2.257296 1_555
Al0 S7 2.257300 1_555
Al0 S8 2.257315 1_555
Al1 S13 2.204556 1_556
Al1 S9 2.257296 1_555
Al1 S10 2.257300 1_555
Al1 S11 2.257315 1_555
S0 Ti0 2.554728 1_655
S0 Ti1 2.564765 1_654
S1 Ti0 2.554728 1_555
S1 Ti1 2.564765 1_554
S2 Ti0 2.554728 1_665
S2 Ti1 2.564765 1_664
S3 Ti1 2.554728 1_565
S3 Ti0 2.564765 1_565
S4 Ti1 2.554728 1_665
S4 Ti0 2.564765 1_665
S5 Ti1 2.554728 1_555
S5 Ti0 2.564765 1_555
