# generated using pymatgen
data_NaO2
_symmetry_space_group_name_H-M   'P 1'
_cell_length_a   5.35437637
_cell_length_b   5.41646102
_cell_length_c   5.44157636
_cell_angle_alpha   84.65736665
_cell_angle_beta   90.21023037
_cell_angle_gamma   90.02787663
_symmetry_Int_Tables_number   1
_chemical_formula_structural   NaO2
_chemical_formula_sum   'Na4 O8'
_cell_volume   157.12869281
_cell_formula_units_Z   4
loop_
 _symmetry_equiv_pos_site_id
 _symmetry_equiv_pos_as_xyz
  1  'x, y, z'
loop_
 _atom_site_type_symbol
 _atom_site_label
 _atom_site_symmetry_multiplicity
 _atom_site_fract_x
 _atom_site_fract_y
 _atom_site_fract_z
 _atom_site_occupancy
  Na  Na0  1  -0.00000000  0.50000000  0.50000000  1
  Na  Na1  1  0.50000000  0.50000000  0.00000000  1
  Na  Na2  1  0.50000000  0.00000000  0.50000000  1
  Na  Na3  1  -0.00000000  0.00000000  0.00000000  1
  O  O0  1  0.44137435  0.08305040  0.92001305  1
  O  O1  1  0.07403002  0.93645712  0.42866611  1
  O  O2  1  0.94127789  0.41635344  0.07879450  1
  O  O3  1  0.57472567  0.56310498  0.57162724  1
  O  O4  1  0.42527433  0.43689502  0.42837276  1
  O  O5  1  0.05872211  0.58364656  0.92120550  1
  O  O6  1  0.92596998  0.06354288  0.57133389  1
  O  O7  1  0.55862565  0.91694960  0.07998695  1
loop_
_geom_bond_atom_site_label_1
_geom_bond_atom_site_label_2
_geom_bond_distance
_geom_bond_site_symmetry_2
Na0 O4 2.342203 1_555
Na0 O3 2.342203 1_455
Na0 O1 2.392879 1_555
Na0 O6 2.392879 1_455
Na0 O5 2.396967 1_555
Na0 O2 2.396967 1_455
Na1 O4 2.359857 1_555
Na1 O3 2.359857 1_554
Na1 O7 2.360016 1_555
Na1 O0 2.360016 1_554
Na1 O2 2.434998 1_555
Na1 O5 2.434998 1_554
Na2 O6 2.342822 1_555
Na2 O1 2.342822 1_545
Na2 O0 2.391948 1_555
Na2 O7 2.391948 1_545
Na2 O4 2.395827 1_555
Na2 O3 2.395827 1_545
Na3 O2 2.355887 1_455
Na3 O5 2.355887 1_544
Na3 O6 2.358078 1_454
Na3 O1 2.358078 1_545
Na3 O0 2.438641 1_554
Na3 O7 2.438641 1_445
O0 O7 1.346122 1_546
O1 O6 1.345206 1_465
O2 O5 1.345580 1_654
O3 O4 1.345165 1_555
