# generated using pymatgen
data_Mg(FeO2)2
_symmetry_space_group_name_H-M   'P 1'
_cell_length_a   6.02627008
_cell_length_b   6.02627008
_cell_length_c   14.75589700
_cell_angle_alpha   90.00000000
_cell_angle_beta   90.00000000
_cell_angle_gamma   120.00000086
_symmetry_Int_Tables_number   1
_chemical_formula_structural   Mg(FeO2)2
_chemical_formula_sum   'Mg6 Fe12 O24'
_cell_volume   464.08061279
_cell_formula_units_Z   6
loop_
 _symmetry_equiv_pos_site_id
 _symmetry_equiv_pos_as_xyz
  1  'x, y, z'
loop_
 _atom_site_type_symbol
 _atom_site_label
 _atom_site_symmetry_multiplicity
 _atom_site_fract_x
 _atom_site_fract_y
 _atom_site_fract_z
 _atom_site_occupancy
  Mg  Mg0  1  0.33333300  0.66666700  0.95396200  1
  Mg  Mg1  1  0.00000000  0.00000000  0.62422200  1
  Mg  Mg2  1  0.00000000  0.00000000  0.99665500  1
  Mg  Mg3  1  0.66666700  0.33333300  0.29208900  1
  Mg  Mg4  1  0.33333300  0.66666700  0.71066300  1
  Mg  Mg5  1  0.00000000  0.00000000  0.37494400  1
  Fe  Fe0  1  0.83576700  0.67153400  0.83380700  1
  Fe  Fe1  1  0.32846600  0.16423300  0.83380700  1
  Fe  Fe2  1  0.50036900  0.00073700  0.50086600  1
  Fe  Fe3  1  0.83576700  0.16423300  0.83380700  1
  Fe  Fe4  1  0.66666700  0.33333300  0.66838200  1
  Fe  Fe5  1  0.99926300  0.49963100  0.50086600  1
  Fe  Fe6  1  0.16819900  0.33639800  0.16702600  1
  Fe  Fe7  1  0.50036900  0.49963100  0.50086600  1
  Fe  Fe8  1  0.16819900  0.83180100  0.16702600  1
  Fe  Fe9  1  0.33333300  0.66666700  0.33526200  1
  Fe  Fe10  1  0.66360200  0.83180100  0.16702600  1
  Fe  Fe11  1  0.66666700  0.33333300  0.04371300  1
  O  O0  1  0.68983000  0.84491500  0.90958600  1
  O  O1  1  0.00000000  0.00000000  0.75813400  1
  O  O2  1  0.15508500  0.84491500  0.90958600  1
  O  O3  1  0.15508500  0.31017000  0.90958600  1
  O  O4  1  0.51477400  0.02954800  0.75382800  1
  O  O5  1  0.35991700  0.17995900  0.57955700  1
  O  O6  1  0.51477400  0.48522600  0.75382800  1
  O  O7  1  0.66666700  0.33333300  0.91312800  1
  O  O8  1  0.82004100  0.17995900  0.57955700  1
  O  O9  1  0.66666700  0.33333300  0.42645600  1
  O  O10  1  0.97045200  0.48522600  0.75382800  1
  O  O11  1  0.82004100  0.64008300  0.57955700  1
  O  O12  1  0.17987100  0.35974200  0.41981200  1
  O  O13  1  0.02767000  0.51383500  0.24695700  1
  O  O14  1  0.17987100  0.82012900  0.41981200  1
  O  O15  1  0.33333300  0.66666700  0.57394600  1
  O  O16  1  0.33333300  0.66666700  0.09275900  1
  O  O17  1  0.48616500  0.51383500  0.24695700  1
  O  O18  1  0.64025800  0.82012900  0.41981200  1
  O  O19  1  0.48616500  0.97233000  0.24695700  1
  O  O20  1  0.84113000  0.68225900  0.08784300  1
  O  O21  1  0.00000000  0.00000000  0.23798400  1
  O  O22  1  0.84113000  0.15887000  0.08784300  1
  O  O23  1  0.31774100  0.15887000  0.08784300  1
loop_
_geom_bond_atom_site_label_1
_geom_bond_atom_site_label_2
_geom_bond_distance
_geom_bond_site_symmetry_2
Mg0 O2 1.972384 1_555
Mg0 O3 1.972389 1_555
Mg0 O0 1.972389 1_555
Mg0 O16 2.048074 1_556
Mg1 O1 1.975992 1_555
Mg1 O11 1.990642 1_445
Mg1 O5 1.990642 1_555
Mg1 O8 1.990647 1_455
Mg2 O0 2.066641 1_445
Mg2 O3 2.066641 1_555
Mg2 O2 2.066641 1_545
Mg2 O22 2.135495 1_456
Mg2 O23 2.135499 1_556
Mg2 O20 2.135499 1_446
Mg3 O9 1.982706 1_555
Mg3 O19 1.998277 1_545
Mg3 O13 1.998277 1_655
Mg3 O17 1.998282 1_555
Mg4 O4 1.998080 1_565
Mg4 O10 1.998080 1_455
Mg4 O6 1.998085 1_555
Mg4 O15 2.017382 1_555
Mg5 O18 1.990775 1_445
Mg5 O12 1.990775 1_555
Mg5 O14 1.990775 1_545
Mg5 O21 2.020968 1_555
Fe0 O2 2.008574 1_655
Fe0 O0 2.008574 1_555
Fe0 O1 2.045835 1_665
Fe0 O6 2.055086 1_555
Fe0 O10 2.055086 1_555
Fe0 O7 2.117857 1_555
Fe1 O2 2.008574 1_545
Fe1 O3 2.008574 1_555
Fe1 O1 2.045835 1_555
Fe1 O6 2.055086 1_555
Fe1 O4 2.055086 1_555
Fe1 O7 2.117857 1_555
Fe2 O8 2.035996 1_555
Fe2 O5 2.036005 1_555
Fe2 O15 2.050020 1_545
Fe2 O9 2.053905 1_555
Fe2 O18 2.059918 1_545
Fe2 O14 2.059922 1_545
Fe3 O0 2.008574 1_545
Fe3 O3 2.008574 1_655
Fe3 O1 2.045835 1_655
Fe3 O4 2.055086 1_555
Fe3 O10 2.055086 1_555
Fe3 O7 2.117853 1_555
Fe4 O10 2.025653 1_555
Fe4 O4 2.025653 1_555
Fe4 O6 2.025657 1_555
Fe4 O8 2.068999 1_555
Fe4 O11 2.069007 1_555
Fe4 O5 2.069007 1_555
Fe5 O8 2.035996 1_555
Fe5 O11 2.036005 1_555
Fe5 O15 2.050020 1_655
Fe5 O9 2.053905 1_555
Fe5 O12 2.059918 1_655
Fe5 O14 2.059922 1_655
Fe6 O17 2.038921 1_555
Fe6 O13 2.038921 1_555
Fe6 O16 2.042519 1_555
Fe6 O21 2.044148 1_555
Fe6 O22 2.070255 1_455
Fe6 O23 2.070259 1_555
Fe7 O11 2.035996 1_555
Fe7 O5 2.035996 1_555
Fe7 O15 2.050029 1_555
Fe7 O9 2.053906 1_555
Fe7 O12 2.059922 1_555
Fe7 O18 2.059922 1_555
Fe8 O19 2.038921 1_555
Fe8 O13 2.038921 1_555
Fe8 O16 2.042515 1_555
Fe8 O21 2.044148 1_565
Fe8 O20 2.070255 1_455
Fe8 O23 2.070255 1_565
Fe9 O14 2.030349 1_555
Fe9 O12 2.030353 1_555
Fe9 O18 2.030353 1_555
Fe9 O19 2.059758 1_555
Fe9 O13 2.059758 1_555
Fe9 O17 2.059762 1_555
Fe10 O17 2.038921 1_555
Fe10 O19 2.038921 1_555
Fe10 O16 2.042519 1_555
Fe10 O21 2.044148 1_665
Fe10 O22 2.070255 1_565
Fe10 O20 2.070259 1_555
Fe11 O7 1.926899 1_554
Fe11 O20 1.933937 1_555
Fe11 O23 1.933937 1_555
Fe11 O22 1.933937 1_555
