# generated using pymatgen
data_KGdP2H4O9
_symmetry_space_group_name_H-M   'P 1'
_cell_length_a   10.94288000
_cell_length_b   7.79196000
_cell_length_c   10.35495039
_cell_angle_alpha   89.86347978
_cell_angle_beta   90.00000000
_cell_angle_gamma   90.00000000
_symmetry_Int_Tables_number   1
_chemical_formula_structural   KGdP2H4O9
_chemical_formula_sum   'K4 Gd4 P8 H16 O36'
_cell_volume   882.92769795
_cell_formula_units_Z   4
loop_
 _symmetry_equiv_pos_site_id
 _symmetry_equiv_pos_as_xyz
  1  'x, y, z'
loop_
 _atom_site_type_symbol
 _atom_site_label
 _atom_site_symmetry_multiplicity
 _atom_site_fract_x
 _atom_site_fract_y
 _atom_site_fract_z
 _atom_site_occupancy
  K  K0  1  0.29807200  0.73924300  0.12314800  1
  K  K1  1  0.79807200  0.26075700  0.37685200  1
  K  K2  1  0.70192800  0.26075700  0.87685200  1
  K  K3  1  0.20192800  0.73924300  0.62314800  1
  Gd  Gd0  1  0.37650000  0.25120100  0.16586200  1
  Gd  Gd1  1  0.87650000  0.74879900  0.33413800  1
  Gd  Gd2  1  0.62350000  0.74879900  0.83413800  1
  Gd  Gd3  1  0.12350000  0.25120100  0.66586200  1
  P  P0  1  0.10958800  0.40215800  0.33770500  1
  P  P1  1  0.60958800  0.59784200  0.16229500  1
  P  P2  1  0.89041200  0.59784200  0.66229500  1
  P  P3  1  0.39041200  0.40215800  0.83770500  1
  P  P4  1  0.14671500  0.03435800  0.35892100  1
  P  P5  1  0.64671500  0.96564200  0.14107900  1
  P  P6  1  0.85328500  0.96564200  0.64107900  1
  P  P7  1  0.35328500  0.03435800  0.85892100  1
  H  H0  1  0.18004100  0.55527200  0.90383500  1
  H  H1  1  0.68004100  0.44472800  0.59616500  1
  H  H2  1  0.81995900  0.44472800  0.09616500  1
  H  H3  1  0.31995900  0.55527200  0.40383500  1
  H  H4  1  0.06853700  0.66491500  0.86743000  1
  H  H5  1  0.56853700  0.33508500  0.63257000  1
  H  H6  1  0.93146300  0.33508500  0.13257000  1
  H  H7  1  0.43146300  0.66491500  0.36743000  1
  H  H8  1  0.49920000  0.32906500  0.43075600  1
  H  H9  1  0.99920000  0.67093500  0.06924400  1
  H  H10  1  0.50080000  0.67093500  0.56924400  1
  H  H11  1  0.00080000  0.32906500  0.93075600  1
  H  H12  1  0.49863400  0.13710500  0.39618100  1
  H  H13  1  0.99863400  0.86289500  0.10381900  1
  H  H14  1  0.50136600  0.86289500  0.60381900  1
  H  H15  1  0.00136600  0.13710500  0.89618100  1
  O  O0  1  0.13853100  0.42577900  0.48094600  1
  O  O1  1  0.63853100  0.57422100  0.01905400  1
  O  O2  1  0.86146900  0.57422100  0.51905400  1
  O  O3  1  0.36146900  0.42577900  0.98094600  1
  O  O4  1  0.99908300  0.50189900  0.28827400  1
  O  O5  1  0.49908300  0.49810100  0.21172600  1
  O  O6  1  0.00091700  0.49810100  0.71172600  1
  O  O7  1  0.50091700  0.50189900  0.78827400  1
  O  O8  1  0.22506200  0.42788100  0.25473500  1
  O  O9  1  0.72506200  0.57211900  0.24526500  1
  O  O10  1  0.77493800  0.57211900  0.74526500  1
  O  O11  1  0.27493800  0.42788100  0.75473500  1
  O  O12  1  0.06325400  0.20294500  0.31777700  1
  O  O13  1  0.56325400  0.79705500  0.18222300  1
  O  O14  1  0.93674600  0.79705500  0.68222300  1
  O  O15  1  0.43674600  0.20294500  0.81777700  1
  O  O16  1  0.17260600  0.05259100  0.50326300  1
  O  O17  1  0.67260600  0.94740900  0.99673700  1
  O  O18  1  0.82739400  0.94740900  0.49673700  1
  O  O19  1  0.32739400  0.05259100  0.00326300  1
  O  O20  1  0.06376000  0.88147700  0.32894600  1
  O  O21  1  0.56376000  0.11852300  0.17105400  1
  O  O22  1  0.93624000  0.11852300  0.67105400  1
  O  O23  1  0.43624000  0.88147700  0.82894600  1
  O  O24  1  0.25952500  0.03871900  0.27201900  1
  O  O25  1  0.75952500  0.96128100  0.22798100  1
  O  O26  1  0.74047500  0.96128100  0.72798100  1
  O  O27  1  0.24047500  0.03871900  0.77201900  1
  O  O28  1  0.12957400  0.65091600  0.93555200  1
  O  O29  1  0.62957400  0.34908400  0.56444800  1
  O  O30  1  0.87042600  0.34908400  0.06444800  1
  O  O31  1  0.37042600  0.65091600  0.43555200  1
  O  O32  1  0.44494600  0.23735200  0.40058500  1
  O  O33  1  0.94494600  0.76264800  0.09941500  1
  O  O34  1  0.55505400  0.76264800  0.59941500  1
  O  O35  1  0.05505400  0.23735200  0.90058500  1
loop_
_geom_bond_atom_site_label_1
_geom_bond_atom_site_label_2
_geom_bond_distance
_geom_bond_site_symmetry_2
K0 O19 2.755173 1_565
K0 O28 2.766465 1_554
K0 O24 2.831377 1_565
K0 O8 2.892270 1_555
K0 O3 2.938106 1_554
K0 O13 2.999866 1_555
K0 O5 3.033483 1_555
K1 O18 2.755173 1_545
K1 O29 2.766465 1_555
K1 O25 2.831377 1_545
K1 O9 2.892270 1_555
K1 O2 2.938106 1_555
K1 O12 2.999866 1_655
K1 O4 3.033483 1_555
K2 O17 2.755173 1_545
K2 O30 2.766465 1_556
K2 O26 2.831377 1_545
K2 O10 2.892270 1_555
K2 O1 2.938106 1_556
K2 O15 2.999866 1_555
K2 O7 3.033483 1_555
K3 O16 2.755173 1_565
K3 O31 2.766465 1_555
K3 O27 2.831377 1_565
K3 O11 2.892270 1_555
K3 O0 2.938106 1_555
K3 O14 2.999866 1_455
K3 O6 3.033483 1_555
Gd0 O21 2.295754 1_555
Gd0 O8 2.344015 1_555
Gd0 O19 2.351804 1_555
Gd0 O3 2.351917 1_554
Gd0 O24 2.362069 1_555
Gd0 O5 2.393831 1_555
Gd0 O32 2.545376 1_555
Gd1 O20 2.295754 1_655
Gd1 O9 2.344015 1_555
Gd1 O18 2.351804 1_555
Gd1 O2 2.351917 1_555
Gd1 O25 2.362069 1_555
Gd1 O4 2.393831 1_555
Gd1 O33 2.545376 1_555
Gd2 O23 2.295754 1_555
Gd2 O10 2.344015 1_555
Gd2 O17 2.351804 1_555
Gd2 O1 2.351917 1_556
Gd2 O26 2.362069 1_555
Gd2 O7 2.393831 1_555
Gd2 O34 2.545376 1_555
Gd3 O22 2.295754 1_455
Gd3 O11 2.344015 1_555
Gd3 O16 2.351804 1_555
Gd3 O0 2.351917 1_555
Gd3 O27 2.362069 1_555
Gd3 O6 2.393831 1_555
Gd3 O35 2.545376 1_555
H0 O28 0.984591 1_555
H1 O29 0.984591 1_555
H2 O30 0.984591 1_555
H3 O31 0.984591 1_555
H4 O28 0.977363 1_555
H4 K3 2.976177 1_555
H5 O29 0.977363 1_555
H5 K2 2.976177 1_555
H6 O30 0.977363 1_555
H6 K1 2.976177 1_555
H7 O31 0.977363 1_555
H7 K0 2.976177 1_555
H8 O32 0.980730 1_555
H9 O33 0.980730 1_555
H10 O34 0.980730 1_555
H11 O35 0.980730 1_555
H12 O32 0.978548 1_555
H13 O33 0.978548 1_555
H14 O34 0.978548 1_555
H15 O35 0.978548 1_555
O0 P0 1.528244 1_555
O1 P1 1.528244 1_555
O2 P2 1.528244 1_555
O3 P3 1.528244 1_555
O4 P0 1.525246 1_655
O5 P1 1.525246 1_555
O6 P2 1.525246 1_455
O7 P3 1.525246 1_555
O8 P0 1.540851 1_555
O9 P1 1.540851 1_555
O10 P2 1.540851 1_555
O11 P3 1.540851 1_555
O12 P0 1.646419 1_555
O12 P4 1.654864 1_555
O13 P1 1.646419 1_555
O13 P5 1.654864 1_555
O14 P2 1.646419 1_555
O14 P6 1.654864 1_555
O15 P3 1.646419 1_555
O15 P7 1.654864 1_555
O16 P4 1.528221 1_555
O17 P5 1.528221 1_556
O18 P6 1.528221 1_555
O19 P7 1.528221 1_554
O20 P4 1.530099 1_565
O21 P5 1.530099 1_545
O22 P6 1.530099 1_545
O23 P7 1.530099 1_565
O24 P4 1.527964 1_555
O25 P5 1.527964 1_555
O26 P6 1.527964 1_555
O27 P7 1.527964 1_555
