# generated using pymatgen
data_Ti3P4NO18
_symmetry_space_group_name_H-M   'P 1'
_cell_length_a   5.22403700
_cell_length_b   8.34497106
_cell_length_c   8.90264176
_cell_angle_alpha   109.11157551
_cell_angle_beta   92.23021356
_cell_angle_gamma   91.90911606
_symmetry_Int_Tables_number   1
_chemical_formula_structural   Ti3P4NO18
_chemical_formula_sum   'Ti3 P4 N1 O18'
_cell_volume   366.00038176
_cell_formula_units_Z   1
loop_
 _symmetry_equiv_pos_site_id
 _symmetry_equiv_pos_as_xyz
  1  'x, y, z'
loop_
 _atom_site_type_symbol
 _atom_site_label
 _atom_site_symmetry_multiplicity
 _atom_site_fract_x
 _atom_site_fract_y
 _atom_site_fract_z
 _atom_site_occupancy
  Ti  Ti0  1  0.00000000  0.00000000  0.00000000  1
  Ti  Ti1  1  0.73645300  0.26991100  0.57176200  1
  Ti  Ti2  1  0.26354700  0.73008900  0.42823800  1
  P  P0  1  0.25183200  0.12518000  0.70453400  1
  P  P1  1  0.74816800  0.87482000  0.29546600  1
  P  P2  1  0.79253700  0.68101500  0.65783500  1
  P  P3  1  0.20746300  0.31898500  0.34216500  1
  N  N0  1  0.00000000  0.50000000  0.00000000  1
  O  O0  1  0.19674600  0.07428200  0.85443400  1
  O  O1  1  0.80325400  0.92571800  0.14556600  1
  O  O2  1  0.51751100  0.21797000  0.72761500  1
  O  O3  1  0.48248900  0.78203000  0.27238500  1
  O  O4  1  0.24539100  0.96677700  0.55602600  1
  O  O5  1  0.75460900  0.03322300  0.44397400  1
  O  O6  1  0.04049600  0.24587200  0.69138600  1
  O  O7  1  0.95950400  0.75412800  0.30861400  1
  O  O8  1  0.42403900  0.27802400  0.44191000  1
  O  O9  1  0.57596100  0.72197600  0.55809000  1
  O  O10  1  0.72957700  0.51281000  0.68765300  1
  O  O11  1  0.27042300  0.48719000  0.31234700  1
  O  O12  1  0.81242300  0.82710800  0.82302800  1
  O  O13  1  0.18757700  0.17289200  0.17697200  1
  O  O14  1  0.05148300  0.67514700  0.58215700  1
  O  O15  1  0.94851700  0.32485300  0.41784300  1
  O  O16  1  0.21539400  0.80129700  0.97227600  1
  O  O17  1  0.78460600  0.19870300  0.02772400  1
loop_
_geom_bond_atom_site_label_1
_geom_bond_atom_site_label_2
_geom_bond_distance
_geom_bond_site_symmetry_2
O0 P0 1.561100 1_555
O0 Ti0 1.925435 1_556
O1 P1 1.561100 1_555
O1 Ti0 1.925435 1_665
O2 P0 1.539523 1_555
O2 Ti1 1.976240 1_555
O3 P1 1.539523 1_555
O3 Ti2 1.976240 1_555
O4 P0 1.531544 1_565
O4 Ti2 1.937514 1_555
O5 P1 1.531544 1_545
O5 Ti1 1.937514 1_555
O6 P0 1.545379 1_555
O6 Ti1 1.930459 1_455
O7 P1 1.545379 1_555
O7 Ti2 1.930459 1_655
O8 P3 1.527015 1_555
O8 Ti1 1.978984 1_555
O9 P2 1.527015 1_555
O9 Ti2 1.978984 1_555
O10 P2 1.539141 1_555
O10 Ti1 1.952625 1_555
O11 P3 1.539141 1_555
O11 Ti2 1.952625 1_555
O12 P2 1.570206 1_555
O12 Ti0 1.954802 1_666
O13 P3 1.570206 1_555
O13 Ti0 1.954802 1_555
O14 P2 1.529697 1_455
O14 Ti2 1.952149 1_555
O15 P3 1.529697 1_655
O15 Ti1 1.952149 1_555
O16 Ti0 1.988598 1_566
O17 Ti0 1.988598 1_655
