# generated using pymatgen
data_HoSnPd
_symmetry_space_group_name_H-M   'P 1'
_cell_length_a   4.60242227
_cell_length_b   7.15362200
_cell_length_c   7.92958571
_cell_angle_alpha   90.00000000
_cell_angle_beta   90.00000000
_cell_angle_gamma   90.00000000
_symmetry_Int_Tables_number   1
_chemical_formula_structural   HoSnPd
_chemical_formula_sum   'Ho4 Sn4 Pd4'
_cell_volume   261.07359431
_cell_formula_units_Z   4
loop_
 _symmetry_equiv_pos_site_id
 _symmetry_equiv_pos_as_xyz
  1  'x, y, z'
loop_
 _atom_site_type_symbol
 _atom_site_label
 _atom_site_symmetry_multiplicity
 _atom_site_fract_x
 _atom_site_fract_y
 _atom_site_fract_z
 _atom_site_occupancy
  Ho  Ho0  1  0.25000000  0.50802074  0.79306533  1
  Ho  Ho1  1  0.75000000  0.49197926  0.20693467  1
  Ho  Ho2  1  0.25000000  0.00802074  0.70693467  1
  Ho  Ho3  1  0.75000000  0.99197926  0.29306533  1
  Sn  Sn0  1  0.25000000  0.69547544  0.41211750  1
  Sn  Sn1  1  0.75000000  0.80452456  0.91211750  1
  Sn  Sn2  1  0.25000000  0.19547544  0.08788250  1
  Sn  Sn3  1  0.75000000  0.30452456  0.58788250  1
  Pd  Pd0  1  0.75000000  0.20497266  0.91664130  1
  Pd  Pd1  1  0.25000000  0.29502734  0.41664130  1
  Pd  Pd2  1  0.75000000  0.70497266  0.58335870  1
  Pd  Pd3  1  0.25000000  0.79502734  0.08335870  1
loop_
_geom_bond_atom_site_label_1
_geom_bond_atom_site_label_2
_geom_bond_distance
_geom_bond_site_symmetry_2
Ho0 Pd3 3.084500 1_556
Ho0 Pd2 3.169514 1_555
Ho0 Pd2 3.169514 1_455
Ho0 Sn3 3.172052 1_555
Ho0 Sn3 3.172052 1_455
Ho0 Sn2 3.234833 1_556
Ho0 Sn1 3.268905 1_555
Ho0 Sn1 3.268905 1_455
Ho0 Sn0 3.305028 1_555
Ho0 Pd0 3.309916 1_455
Ho0 Pd0 3.309916 1_555
Ho0 Pd1 3.351288 1_555
Ho1 Pd0 3.084500 1_554
Ho1 Pd1 3.169514 1_655
Ho1 Pd1 3.169514 1_555
Ho1 Sn0 3.172052 1_555
Ho1 Sn0 3.172052 1_655
Ho1 Sn1 3.234833 1_554
Ho1 Sn2 3.268905 1_555
Ho1 Sn2 3.268905 1_655
Ho1 Sn3 3.305028 1_555
Ho1 Pd3 3.309916 1_555
Ho1 Pd3 3.309916 1_655
Ho1 Pd2 3.351288 1_555
Ho2 Pd1 3.084500 1_555
Ho2 Pd0 3.169514 1_455
Ho2 Pd0 3.169514 1_555
Ho2 Sn1 3.172052 1_545
Ho2 Sn1 3.172052 1_445
Ho2 Sn0 3.234833 1_545
Ho2 Sn3 3.268905 1_455
Ho2 Sn3 3.268905 1_555
Ho2 Sn2 3.305028 1_556
Ho2 Pd2 3.309916 1_545
Ho2 Pd2 3.309916 1_445
Ho2 Pd3 3.351288 1_546
Ho3 Pd2 3.084500 1_555
Ho3 Pd3 3.169514 1_555
Ho3 Pd3 3.169514 1_655
Ho3 Sn2 3.172052 1_565
Ho3 Sn2 3.172052 1_665
Ho3 Sn3 3.234833 1_565
Ho3 Sn0 3.268905 1_555
Ho3 Sn0 3.268905 1_655
Ho3 Sn1 3.305028 1_554
Ho3 Pd1 3.309916 1_565
Ho3 Pd1 3.309916 1_665
Ho3 Pd0 3.351288 1_564
Pd0 Sn2 2.672827 1_656
Pd0 Sn2 2.672827 1_556
Pd0 Sn3 2.702444 1_555
Pd0 Sn1 2.864879 1_545
Pd1 Sn3 2.672827 1_555
Pd1 Sn3 2.672827 1_455
Pd1 Sn2 2.702444 1_555
Pd1 Sn0 2.864879 1_555
Pd2 Sn0 2.672827 1_655
Pd2 Sn0 2.672827 1_555
Pd2 Sn1 2.702444 1_555
Pd2 Sn3 2.864879 1_555
Pd3 Sn1 2.672827 1_554
Pd3 Sn1 2.672827 1_454
Pd3 Sn0 2.702444 1_555
Pd3 Sn2 2.864879 1_565
