# generated using pymatgen
data_NpPS4
_symmetry_space_group_name_H-M   'P 1'
_cell_length_a   12.29607871
_cell_length_b   12.29607871
_cell_length_c   12.29607871
_cell_angle_alpha   126.99673464
_cell_angle_beta   126.99673464
_cell_angle_gamma   78.25601234
_symmetry_Int_Tables_number   1
_chemical_formula_structural   NpPS4
_chemical_formula_sum   'Np8 P8 S32'
_cell_volume   1148.62826620
_cell_formula_units_Z   8
loop_
 _symmetry_equiv_pos_site_id
 _symmetry_equiv_pos_as_xyz
  1  'x, y, z'
loop_
 _atom_site_type_symbol
 _atom_site_label
 _atom_site_symmetry_multiplicity
 _atom_site_fract_x
 _atom_site_fract_y
 _atom_site_fract_z
 _atom_site_occupancy
  Np  Np0  1  0.75000000  0.75000000  0.00000000  1
  Np  Np1  1  0.25000000  0.25000000  0.00000000  1
  Np  Np2  1  0.00000000  0.50000000  0.50000000  1
  Np  Np3  1  0.50000000  0.00000000  0.50000000  1
  Np  Np4  1  0.50000000  0.50000000  0.00000000  1
  Np  Np5  1  0.00000000  0.00000000  0.00000000  1
  Np  Np6  1  0.75000000  0.25000000  0.50000000  1
  Np  Np7  1  0.25000000  0.75000000  0.50000000  1
  P  P0  1  0.66169000  0.37500000  0.78669000  1
  P  P1  1  0.16169000  0.37500000  0.28669000  1
  P  P2  1  0.62500000  0.41169000  0.28669000  1
  P  P3  1  0.12500000  0.83831000  0.21331000  1
  P  P4  1  0.08831000  0.87500000  0.71331000  1
  P  P5  1  0.58831000  0.87500000  0.21331000  1
  P  P6  1  0.62500000  0.91169000  0.78669000  1
  P  P7  1  0.12500000  0.33831000  0.71331000  1
  S  S0  1  0.21123100  0.03065900  0.31275400  1
  S  S1  1  0.71123100  0.39847700  0.18057200  1
  S  S2  1  0.28065900  0.96123100  0.81275400  1
  S  S3  1  0.78065900  0.96790500  0.31942800  1
  S  S4  1  0.53876900  0.21934100  0.18724600  1
  S  S5  1  0.03876900  0.85152300  0.31942800  1
  S  S6  1  0.46934100  0.28876900  0.68724600  1
  S  S7  1  0.96934100  0.28209500  0.18057200  1
  S  S8  1  0.21790500  0.53065900  0.81942800  1
  S  S9  1  0.71790500  0.89847700  0.68724600  1
  S  S10  1  0.64847700  0.46123100  0.68057200  1
  S  S11  1  0.14847700  0.46790500  0.18724600  1
  S  S12  1  0.53209500  0.71934100  0.68057200  1
  S  S13  1  0.03209500  0.35152300  0.81275400  1
  S  S14  1  0.10152300  0.78876900  0.81942800  1
  S  S15  1  0.60152300  0.78209500  0.31275400  1
  S  S16  1  0.96248900  0.73839700  0.95579600  1
  S  S17  1  0.46248900  0.50669300  0.22409200  1
  S  S18  1  0.98839700  0.71248900  0.45579600  1
  S  S19  1  0.48839700  0.03260100  0.27590800  1
  S  S20  1  0.78751100  0.51160300  0.54420400  1
  S  S21  1  0.28751100  0.74330700  0.27590800  1
  S  S22  1  0.76160300  0.53751100  0.04420400  1
  S  S23  1  0.26160300  0.21739900  0.22409200  1
  S  S24  1  0.28260100  0.23839700  0.77590800  1
  S  S25  1  0.78260100  0.00669300  0.04420400  1
  S  S26  1  0.75669300  0.21248900  0.72409200  1
  S  S27  1  0.25669300  0.53260100  0.54420400  1
  S  S28  1  0.46739900  0.01160300  0.72409200  1
  S  S29  1  0.96739900  0.24330700  0.45579600  1
  S  S30  1  0.99330700  0.03751100  0.77590800  1
  S  S31  1  0.49330700  0.71739900  0.95579600  1
loop_
_geom_bond_atom_site_label_1
_geom_bond_atom_site_label_2
_geom_bond_distance
_geom_bond_site_symmetry_2
Np0 S31 2.933689 1_554
Np0 S16 2.933689 1_554
Np0 S22 2.933689 1_555
Np0 S25 2.933689 1_565
Np0 S5 2.951506 1_655
Np0 S10 2.951506 1_554
Np0 S12 2.951506 1_554
Np0 S3 2.951506 1_555
Np1 S30 2.933689 1_454
Np1 S17 2.933689 1_555
Np1 S24 2.933689 1_554
Np1 S23 2.933689 1_555
Np1 S13 2.951506 1_554
Np1 S11 2.951506 1_555
Np1 S2 2.951506 1_544
Np1 S4 2.951506 1_555
Np2 S27 2.933689 1_555
Np2 S29 2.933689 1_455
Np2 S20 2.933689 1_455
Np2 S18 2.933689 1_455
Np2 S7 2.951506 1_455
Np2 S1 2.951506 1_455
Np2 S8 2.951506 1_555
Np2 S14 2.951506 1_555
Np3 S28 2.933689 1_555
Np3 S21 2.933689 1_545
Np3 S26 2.933689 1_555
Np3 S19 2.933689 1_555
Np3 S6 2.951506 1_555
Np3 S9 2.951506 1_545
Np3 S15 2.951506 1_545
Np3 S0 2.951506 1_555
Np4 S6 2.882628 1_554
Np4 S15 2.882628 1_555
Np4 S1 2.882628 1_555
Np4 S8 2.882628 1_554
Np4 S22 3.008864 1_555
Np4 S31 3.008864 1_554
Np4 S17 3.008864 1_555
Np4 S24 3.008864 1_554
Np5 S0 2.882628 1_555
Np5 S7 2.882628 1_455
Np5 S14 2.882628 1_544
Np5 S9 2.882628 1_444
Np5 S23 3.008864 1_555
Np5 S30 3.008864 1_454
Np5 S16 3.008864 1_444
Np5 S25 3.008864 1_455
Np6 S3 2.882628 1_545
Np6 S13 2.882628 1_655
Np6 S4 2.882628 1_555
Np6 S10 2.882628 1_555
Np6 S26 3.008864 1_555
Np6 S19 3.008864 1_555
Np6 S29 3.008864 1_555
Np6 S20 3.008864 1_555
Np7 S11 2.882628 1_555
Np7 S5 2.882628 1_555
Np7 S2 2.882628 1_555
Np7 S12 2.882628 1_555
Np7 S27 3.008864 1_555
Np7 S18 3.008864 1_455
Np7 S21 3.008864 1_555
Np7 S28 3.008864 1_565
P0 S6 2.047703 1_555
P0 S10 2.047703 1_555
P0 S22 2.056904 1_556
P0 S26 2.056904 1_555
P1 S7 2.047703 1_455
P1 S11 2.047703 1_555
P1 S23 2.056904 1_555
P1 S27 2.056904 1_555
P2 S4 2.047703 1_555
P2 S1 2.047703 1_555
P2 S17 2.056904 1_555
P2 S20 2.056904 1_555
P3 S5 2.047703 1_555
P3 S0 2.047703 1_565
P3 S21 2.056904 1_555
P3 S16 2.056904 1_454
P4 S2 2.047703 1_555
P4 S14 2.047703 1_555
P4 S18 2.056904 1_455
P4 S30 2.056904 1_465
P5 S15 2.047703 1_555
P5 S3 2.047703 1_555
P5 S31 2.056904 1_554
P5 S19 2.056904 1_565
P6 S12 2.047703 1_555
P6 S9 2.047703 1_555
P6 S25 2.056904 1_566
P6 S28 2.056904 1_565
P7 S13 2.047703 1_555
P7 S8 2.047703 1_555
P7 S29 2.056904 1_455
P7 S24 2.056904 1_555
