# generated using pymatgen
data_BiIO4
_symmetry_space_group_name_H-M   'P 1'
_cell_length_a   5.64109865
_cell_length_b   5.71234295
_cell_length_c   11.06809814
_cell_angle_alpha   90.00000000
_cell_angle_beta   90.00000000
_cell_angle_gamma   90.00000000
_symmetry_Int_Tables_number   1
_chemical_formula_structural   BiIO4
_chemical_formula_sum   'Bi4 I4 O16'
_cell_volume   356.65717812
_cell_formula_units_Z   4
loop_
 _symmetry_equiv_pos_site_id
 _symmetry_equiv_pos_as_xyz
  1  'x, y, z'
loop_
 _atom_site_type_symbol
 _atom_site_label
 _atom_site_symmetry_multiplicity
 _atom_site_fract_x
 _atom_site_fract_y
 _atom_site_fract_z
 _atom_site_occupancy
  Bi  Bi0  1  0.48321107  0.30749140  0.89029209  1
  Bi  Bi1  1  0.51678893  0.80749140  0.10970791  1
  Bi  Bi2  1  0.01678893  0.80749140  0.89029209  1
  Bi  Bi3  1  0.98321107  0.30749140  0.10970791  1
  I  I0  1  0.00264077  0.33031305  0.63326335  1
  I  I1  1  -0.00264077  0.83031305  0.36673665  1
  I  I2  1  0.49735923  0.83031305  0.63326335  1
  I  I3  1  0.50264077  0.33031305  0.36673665  1
  O  O0  1  0.24042126  0.07014301  -0.00017935  1
  O  O1  1  0.75957874  0.57014301  0.00017935  1
  O  O2  1  0.25957874  0.57014301  -0.00017935  1
  O  O3  1  0.74042126  0.07014301  0.00017935  1
  O  O4  1  0.12112891  0.42375475  0.78032647  1
  O  O5  1  0.87887109  0.92375475  0.21967353  1
  O  O6  1  0.37887109  0.92375475  0.78032647  1
  O  O7  1  0.62112891  0.42375475  0.21967353  1
  O  O8  1  0.84693713  0.08393801  0.70364771  1
  O  O9  1  0.15306287  0.58393801  0.29635229  1
  O  O10  1  0.65306287  0.58393801  0.70364771  1
  O  O11  1  0.34693713  0.08393801  0.29635229  1
  O  O12  1  0.25443505  0.17277178  0.56877851  1
  O  O13  1  0.74556495  0.67277178  0.43122149  1
  O  O14  1  0.24556495  0.67277178  0.56877851  1
  O  O15  1  0.75443505  0.17277178  0.43122149  1
loop_
_geom_bond_atom_site_label_1
_geom_bond_atom_site_label_2
_geom_bond_distance
_geom_bond_site_symmetry_2
Bi0 O0 2.276763 1_556
Bi0 O2 2.304807 1_556
Bi0 O3 2.328676 1_556
Bi0 O4 2.468686 1_555
Bi0 O1 2.482106 1_556
Bi0 O6 2.575426 1_545
Bi0 O10 2.771158 1_555
Bi1 O1 2.276763 1_555
Bi1 O3 2.304807 1_565
Bi1 O2 2.328676 1_555
Bi1 O5 2.468686 1_555
Bi1 O0 2.482106 1_565
Bi1 O7 2.575426 1_555
Bi1 O11 2.771158 1_565
Bi2 O2 2.276763 1_556
Bi2 O0 2.304807 1_566
Bi2 O1 2.328676 1_456
Bi2 O6 2.468686 1_555
Bi2 O3 2.482106 1_466
Bi2 O4 2.575426 1_555
Bi2 O8 2.771158 1_465
Bi3 O3 2.276763 1_555
Bi3 O1 2.304807 1_555
Bi3 O0 2.328676 1_655
Bi3 O7 2.468686 1_555
Bi3 O2 2.482106 1_655
Bi3 O5 2.575426 1_545
Bi3 O9 2.771158 1_655
I0 O12 1.826692 1_555
I0 O8 1.832776 1_455
I0 O4 1.838780 1_555
I0 O10 2.568009 1_455
I1 O13 1.826692 1_455
I1 O9 1.832776 1_555
I1 O5 1.838780 1_455
I1 O11 2.568009 1_565
I2 O14 1.826692 1_555
I2 O10 1.832776 1_555
I2 O6 1.838780 1_555
I2 O8 2.568009 1_565
I3 O15 1.826692 1_555
I3 O11 1.832776 1_555
I3 O7 1.838780 1_555
I3 O9 2.568009 1_555
