# generated using pymatgen
data_CrAsO5
_symmetry_space_group_name_H-M   'P 1'
_cell_length_a   6.53362100
_cell_length_b   7.40132300
_cell_length_c   7.43517800
_cell_angle_alpha   90.00000000
_cell_angle_beta   90.00000000
_cell_angle_gamma   90.00000000
_symmetry_Int_Tables_number   1
_chemical_formula_structural   CrAsO5
_chemical_formula_sum   'Cr4 As4 O20'
_cell_volume   359.54616942
_cell_formula_units_Z   4
loop_
 _symmetry_equiv_pos_site_id
 _symmetry_equiv_pos_as_xyz
  1  'x, y, z'
loop_
 _atom_site_type_symbol
 _atom_site_label
 _atom_site_symmetry_multiplicity
 _atom_site_fract_x
 _atom_site_fract_y
 _atom_site_fract_z
 _atom_site_occupancy
  Cr  Cr0  1  0.44940200  0.21559900  0.52165600  1
  Cr  Cr1  1  0.55059800  0.71559900  0.97834400  1
  Cr  Cr2  1  0.05059800  0.78440100  0.02165600  1
  Cr  Cr3  1  0.94940200  0.28440100  0.47834400  1
  As  As0  1  0.25576100  0.41763700  0.13027400  1
  As  As1  1  0.74423900  0.91763700  0.36972600  1
  As  As2  1  0.24423900  0.58236300  0.63027400  1
  As  As3  1  0.75576100  0.08236300  0.86972600  1
  O  O0  1  0.80100600  0.40346600  0.36079400  1
  O  O1  1  0.19899400  0.90346600  0.13920600  1
  O  O2  1  0.69899400  0.59653400  0.86079400  1
  O  O3  1  0.30100600  0.09653400  0.63920600  1
  O  O4  1  0.22100200  0.32336100  0.35619800  1
  O  O5  1  0.77899800  0.82336100  0.14380200  1
  O  O6  1  0.27899800  0.67663900  0.85619800  1
  O  O7  1  0.72100200  0.17663900  0.64380200  1
  O  O8  1  0.30174100  0.26377700  0.97778100  1
  O  O9  1  0.69825900  0.76377700  0.52221900  1
  O  O10  1  0.19825900  0.73622300  0.47778100  1
  O  O11  1  0.80174100  0.23622300  0.02221900  1
  O  O12  1  0.03476000  0.55169700  0.11149300  1
  O  O13  1  0.96524000  0.05169700  0.38850700  1
  O  O14  1  0.46524000  0.44830300  0.61149300  1
  O  O15  1  0.53476000  0.94830300  0.88850700  1
  O  O16  1  0.45418500  0.57716600  0.16683800  1
  O  O17  1  0.54581500  0.07716600  0.33316200  1
  O  O18  1  0.04581500  0.42283400  0.66683800  1
  O  O19  1  0.95418500  0.92283400  0.83316200  1
loop_
_geom_bond_atom_site_label_1
_geom_bond_atom_site_label_2
_geom_bond_distance
_geom_bond_site_symmetry_2
Cr0 O3 1.574966 1_555
Cr0 O17 1.846822 1_555
Cr0 O14 1.850202 1_555
Cr0 O7 2.014174 1_555
Cr0 O4 2.091996 1_555
Cr1 O2 1.574966 1_555
Cr1 O16 1.846822 1_556
Cr1 O15 1.850202 1_555
Cr1 O6 2.014174 1_555
Cr1 O5 2.091996 1_556
Cr2 O1 1.574966 1_555
Cr2 O19 1.846822 1_454
Cr2 O12 1.850202 1_555
Cr2 O5 2.014174 1_455
Cr2 O6 2.091996 1_554
Cr3 O0 1.574966 1_555
Cr3 O18 1.846822 1_655
Cr3 O13 1.850202 1_555
Cr3 O4 2.014174 1_655
Cr3 O7 2.091996 1_555
As0 O8 1.634800 1_554
As0 O12 1.757543 1_555
As0 O16 1.774470 1_555
As0 O4 1.833066 1_555
As1 O9 1.634800 1_555
As1 O13 1.757543 1_565
As1 O17 1.774470 1_565
As1 O5 1.833066 1_555
As2 O10 1.634800 1_555
As2 O14 1.757543 1_555
As2 O18 1.774470 1_555
As2 O6 1.833066 1_555
As3 O11 1.634800 1_556
As3 O15 1.757543 1_545
As3 O19 1.774470 1_545
As3 O7 1.833066 1_555
