# generated using pymatgen
data_Ho4MgGe4
_symmetry_space_group_name_H-M   'P 1'
_cell_length_a   7.21219700
_cell_length_b   7.76002800
_cell_length_c   14.54427700
_cell_angle_alpha   90.00000000
_cell_angle_beta   90.00000000
_cell_angle_gamma   90.00000000
_symmetry_Int_Tables_number   1
_chemical_formula_structural   Ho4MgGe4
_chemical_formula_sum   'Ho16 Mg4 Ge16'
_cell_volume   813.99737884
_cell_formula_units_Z   4
loop_
 _symmetry_equiv_pos_site_id
 _symmetry_equiv_pos_as_xyz
  1  'x, y, z'
loop_
 _atom_site_type_symbol
 _atom_site_label
 _atom_site_symmetry_multiplicity
 _atom_site_fract_x
 _atom_site_fract_y
 _atom_site_fract_z
 _atom_site_occupancy
  Ho  Ho0  1  0.00998800  0.18271400  0.09475500  1
  Ho  Ho1  1  0.99001200  0.81728600  0.90524500  1
  Ho  Ho2  1  0.49001200  0.68271400  0.90524500  1
  Ho  Ho3  1  0.99001200  0.81728600  0.59475500  1
  Ho  Ho4  1  0.50998800  0.31728600  0.09475500  1
  Ho  Ho5  1  0.00998800  0.18271400  0.40524500  1
  Ho  Ho6  1  0.50998800  0.31728600  0.40524500  1
  Ho  Ho7  1  0.49001200  0.68271400  0.59475500  1
  Ho  Ho8  1  0.33092000  0.17759400  0.62691000  1
  Ho  Ho9  1  0.66908000  0.82240600  0.37309000  1
  Ho  Ho10  1  0.16908000  0.67759400  0.37309000  1
  Ho  Ho11  1  0.66908000  0.82240600  0.12691000  1
  Ho  Ho12  1  0.83092000  0.32240600  0.62691000  1
  Ho  Ho13  1  0.33092000  0.17759400  0.87309000  1
  Ho  Ho14  1  0.83092000  0.32240600  0.87309000  1
  Ho  Ho15  1  0.16908000  0.67759400  0.12691000  1
  Mg  Mg0  1  0.16048100  0.51744400  0.75000000  1
  Mg  Mg1  1  0.83951900  0.48255600  0.25000000  1
  Mg  Mg2  1  0.33951900  0.01744400  0.25000000  1
  Mg  Mg3  1  0.66048100  0.98255600  0.75000000  1
  Ge  Ge0  1  0.02425200  0.08968100  0.75000000  1
  Ge  Ge1  1  0.97574800  0.91031900  0.25000000  1
  Ge  Ge2  1  0.47574800  0.58968100  0.25000000  1
  Ge  Ge3  1  0.52425200  0.41031900  0.75000000  1
  Ge  Ge4  1  0.28847200  0.86155400  0.75000000  1
  Ge  Ge5  1  0.71152800  0.13844600  0.25000000  1
  Ge  Ge6  1  0.21152800  0.36155400  0.25000000  1
  Ge  Ge7  1  0.78847200  0.63844600  0.75000000  1
  Ge  Ge8  1  0.17124000  0.46600100  0.53596600  1
  Ge  Ge9  1  0.82876000  0.53399900  0.46403400  1
  Ge  Ge10  1  0.32876000  0.96600100  0.46403400  1
  Ge  Ge11  1  0.82876000  0.53399900  0.03596600  1
  Ge  Ge12  1  0.67124000  0.03399900  0.53596600  1
  Ge  Ge13  1  0.17124000  0.46600100  0.96403400  1
  Ge  Ge14  1  0.67124000  0.03399900  0.96403400  1
  Ge  Ge15  1  0.32876000  0.96600100  0.03596600  1
loop_
_geom_bond_atom_site_label_1
_geom_bond_atom_site_label_2
_geom_bond_distance
_geom_bond_site_symmetry_2
Ge0 Ge4 2.601000 1_545
Ge0 Mg3 2.752138 1_445
Ge0 Ho12 2.900118 1_455
Ge0 Ho14 2.900118 1_455
Ge0 Ho8 2.926134 1_555
Ge0 Ho13 2.926134 1_555
Ge0 Ho3 3.102794 1_445
Ge0 Ho1 3.102794 1_445
Ge1 Ge5 2.601000 1_565
Ge1 Mg2 2.752138 1_665
Ge1 Ho15 2.900118 1_655
Ge1 Ho10 2.900118 1_655
Ge1 Ho9 2.926134 1_555
Ge1 Ho11 2.926134 1_555
Ge1 Ho0 3.102794 1_665
Ge1 Ho5 3.102794 1_665
Ge2 Ge6 2.601000 1_555
Ge2 Mg1 2.752138 1_555
Ge2 Ho9 2.900118 1_555
Ge2 Ho11 2.900118 1_555
Ge2 Ho10 2.926134 1_555
Ge2 Ho15 2.926134 1_555
Ge2 Ho4 3.102794 1_555
Ge2 Ho6 3.102794 1_555
Ge3 Ge7 2.601000 1_555
Ge3 Mg0 2.752138 1_555
Ge3 Ho8 2.900118 1_555
Ge3 Ho13 2.900118 1_555
Ge3 Ho12 2.926134 1_555
Ge3 Ho14 2.926134 1_555
Ge3 Ho7 3.102794 1_555
Ge3 Ho2 3.102794 1_555
Ge4 Mg0 2.825354 1_555
Ge4 Mg3 2.842566 1_555
Ge4 Ho2 3.022751 1_555
Ge4 Ho7 3.022751 1_555
Ge4 Ho13 3.051785 1_565
Ge4 Ho8 3.051785 1_565
Ge4 Ho3 3.138426 1_455
Ge4 Ho1 3.138426 1_455
Ge5 Mg1 2.825354 1_555
Ge5 Mg2 2.842566 1_555
Ge5 Ho6 3.022751 1_555
Ge5 Ho4 3.022751 1_555
Ge5 Ho11 3.051785 1_545
Ge5 Ho9 3.051785 1_545
Ge5 Ho0 3.138426 1_655
Ge5 Ho5 3.138426 1_655
Ge6 Mg2 2.825354 1_555
Ge6 Mg1 2.842566 1_455
Ge6 Ho0 3.022751 1_555
Ge6 Ho5 3.022751 1_555
Ge6 Ho15 3.051785 1_555
Ge6 Ho10 3.051785 1_555
Ge6 Ho6 3.138426 1_555
Ge6 Ho4 3.138426 1_555
Ge7 Mg3 2.825354 1_555
Ge7 Mg0 2.842566 1_655
Ge7 Ho3 3.022751 1_555
Ge7 Ho1 3.022751 1_555
Ge7 Ho12 3.051785 1_555
Ge7 Ho14 3.051785 1_555
Ge7 Ho2 3.138426 1_555
Ge7 Ho7 3.138426 1_555
Ge8 Ge9 2.733867 1_455
Ge8 Ho8 2.843362 1_555
Ge8 Ho10 2.882369 1_555
Ge8 Ho7 2.974025 1_555
Ge8 Ho12 3.002597 1_455
Ge8 Ho5 3.130469 1_555
Ge8 Mg0 3.139421 1_555
Ge8 Ho3 3.141729 1_455
Ge8 Ho6 3.303837 1_555
Ge9 Ho9 2.843362 1_555
Ge9 Ho12 2.882369 1_555
Ge9 Ho6 2.974025 1_555
Ge9 Ho10 3.002597 1_655
Ge9 Ho3 3.130469 1_555
Ge9 Mg1 3.139421 1_555
Ge9 Ho5 3.141729 1_655
Ge9 Ho7 3.303837 1_555
Ge10 Ge12 2.733867 1_565
Ge10 Ho10 2.843362 1_555
Ge10 Ho8 2.882369 1_565
Ge10 Ho5 2.974025 1_565
Ge10 Ho9 3.002597 1_555
Ge10 Ho7 3.130469 1_555
Ge10 Mg2 3.139421 1_565
Ge10 Ho6 3.141729 1_565
Ge10 Ho3 3.303837 1_455
Ge11 Ge13 2.733867 1_654
Ge11 Ho11 2.843362 1_555
Ge11 Ho14 2.882369 1_554
Ge11 Ho4 2.974025 1_555
Ge11 Ho15 3.002597 1_655
Ge11 Ho1 3.130469 1_554
Ge11 Mg1 3.139421 1_555
Ge11 Ho0 3.141729 1_655
Ge11 Ho2 3.303837 1_554
Ge12 Ho12 2.843362 1_555
Ge12 Ho9 2.882369 1_545
Ge12 Ho3 2.974025 1_545
Ge12 Ho8 3.002597 1_555
Ge12 Ho6 3.130469 1_555
Ge12 Mg3 3.139421 1_545
Ge12 Ho7 3.141729 1_545
Ge12 Ho5 3.303837 1_655
Ge13 Ho13 2.843362 1_555
Ge13 Ho15 2.882369 1_556
Ge13 Ho2 2.974025 1_555
Ge13 Ho14 3.002597 1_455
Ge13 Ho0 3.130469 1_556
Ge13 Mg0 3.139421 1_555
Ge13 Ho1 3.141729 1_455
Ge13 Ho4 3.303837 1_556
Ge14 Ge15 2.733867 1_546
Ge14 Ho14 2.843362 1_555
Ge14 Ho11 2.882369 1_546
Ge14 Ho1 2.974025 1_545
Ge14 Ho13 3.002597 1_555
Ge14 Ho4 3.130469 1_556
Ge14 Mg3 3.139421 1_545
Ge14 Ho2 3.141729 1_545
Ge14 Ho0 3.303837 1_656
Ge15 Ho15 2.843362 1_555
Ge15 Ho13 2.882369 1_564
Ge15 Ho0 2.974025 1_565
Ge15 Ho11 3.002597 1_555
Ge15 Ho2 3.130469 1_554
Ge15 Mg2 3.139421 1_565
Ge15 Ho4 3.141729 1_565
Ge15 Ho1 3.303837 1_454
