# generated using pymatgen
data_Ca(As2Rh3)2
_symmetry_space_group_name_H-M   'P 1'
_cell_length_a   7.23537793
_cell_length_b   7.23537811
_cell_length_c   3.77637886
_cell_angle_alpha   90.00000000
_cell_angle_beta   90.00000000
_cell_angle_gamma   119.99999457
_symmetry_Int_Tables_number   1
_chemical_formula_structural   Ca(As2Rh3)2
_chemical_formula_sum   'Ca1 As4 Rh6'
_cell_volume   171.20981799
_cell_formula_units_Z   1
loop_
 _symmetry_equiv_pos_site_id
 _symmetry_equiv_pos_as_xyz
  1  'x, y, z'
loop_
 _atom_site_type_symbol
 _atom_site_label
 _atom_site_symmetry_multiplicity
 _atom_site_fract_x
 _atom_site_fract_y
 _atom_site_fract_z
 _atom_site_occupancy
  Ca  Ca0  1  -0.00000000  -0.00000000  0.00000000  1
  As  As0  1  0.81189732  0.18810268  0.50000000  1
  As  As1  1  0.37620537  0.18810268  0.50000000  1
  As  As2  1  0.33333300  0.66666700  0.00000000  1
  As  As3  1  0.81189732  0.62379463  0.50000000  1
  Rh  Rh0  1  0.19994178  0.80005822  0.50000000  1
  Rh  Rh1  1  0.19994178  0.39988356  0.50000000  1
  Rh  Rh2  1  0.53482062  0.06964325  0.00000000  1
  Rh  Rh3  1  0.93035675  0.46517938  -0.00000000  1
  Rh  Rh4  1  0.53482062  0.46517938  -0.00000000  1
  Rh  Rh5  1  0.60011644  0.80005822  0.50000000  1
loop_
_geom_bond_atom_site_label_1
_geom_bond_atom_site_label_2
_geom_bond_distance
_geom_bond_site_symmetry_2
Ca0 Rh0 3.137465 1_544
Ca0 Rh0 3.137465 1_545
Ca0 Rh5 3.137465 1_445
Ca0 Rh5 3.137465 1_444
Ca0 Rh1 3.137465 1_555
Ca0 Rh1 3.137465 1_554
As0 Rh1 2.434888 1_655
As0 Rh5 2.434888 1_545
As0 Rh2 2.569172 1_555
As0 Rh2 2.569172 1_556
As0 Rh3 2.569172 1_555
As0 Rh3 2.569172 1_556
As0 Ca0 3.020294 1_655
As0 Ca0 3.020294 1_656
As1 Rh1 2.434887 1_555
As1 Rh0 2.434888 1_545
As1 Rh2 2.569163 1_555
As1 Rh2 2.569163 1_556
As1 Rh4 2.569172 1_556
As1 Rh4 2.569172 1_555
As1 Ca0 3.020294 1_556
As1 Ca0 3.020294 1_555
As2 Rh0 2.521849 1_555
As2 Rh0 2.521849 1_554
As2 Rh5 2.521853 1_555
As2 Rh5 2.521853 1_554
As2 Rh1 2.521853 1_555
As2 Rh1 2.521853 1_554
As2 Rh4 2.525051 1_555
As2 Rh3 2.525058 1_455
As2 Rh2 2.525058 1_565
As3 Rh5 2.434887 1_555
As3 Rh0 2.434888 1_655
As3 Rh3 2.569163 1_556
As3 Rh3 2.569163 1_555
As3 Rh4 2.569172 1_556
As3 Rh4 2.569172 1_555
As3 Ca0 3.020294 1_665
As3 Ca0 3.020294 1_666
