# generated using pymatgen
data_Tb2Si5Ni3
_symmetry_space_group_name_H-M   'P 1'
_cell_length_a   7.83474678
_cell_length_b   7.83413180
_cell_length_c   7.83194210
_cell_angle_alpha   137.75585700
_cell_angle_beta   104.97428636
_cell_angle_gamma   90.08266742
_symmetry_Int_Tables_number   1
_chemical_formula_structural   Tb2Si5Ni3
_chemical_formula_sum   'Tb4 Si10 Ni6'
_cell_volume   298.14177405
_cell_formula_units_Z   2
loop_
 _symmetry_equiv_pos_site_id
 _symmetry_equiv_pos_as_xyz
  1  'x, y, z'
loop_
 _atom_site_type_symbol
 _atom_site_label
 _atom_site_symmetry_multiplicity
 _atom_site_fract_x
 _atom_site_fract_y
 _atom_site_fract_z
 _atom_site_occupancy
  Tb  Tb0  1  0.63242727  0.86922440  0.76312223  1
  Tb  Tb1  1  0.36757338  0.13077593  0.23687825  1
  Tb  Tb2  1  0.89397937  0.63080598  0.26328868  1
  Tb  Tb3  1  0.10602031  0.36919339  0.73671118  1
  Si  Si0  1  -0.00003586  0.25019176  0.25027974  1
  Si  Si1  1  0.00003609  0.74980781  0.74972031  1
  Si  Si2  1  0.26457045  0.51429684  0.24988625  1
  Si  Si3  1  0.73547882  0.98527279  0.24959621  1
  Si  Si4  1  0.73542919  0.48570304  0.75011454  1
  Si  Si5  1  0.26452125  0.01472611  0.75040337  1
  Si  Si6  1  0.45773359  0.60799127  0.84974211  1
  Si  Si7  1  0.75825394  0.10817428  0.65034450  1
  Si  Si8  1  0.24174667  0.89182538  0.34965582  1
  Si  Si9  1  0.54226547  0.39200927  0.15025723  1
  Ni  Ni0  1  0.02021447  0.13342776  0.88684154  1
  Ni  Ni1  1  0.49993973  0.74998433  0.25005611  1
  Ni  Ni2  1  0.24673395  0.63359308  0.61315356  1
  Ni  Ni3  1  0.75326579  0.36640662  0.38684686  1
  Ni  Ni4  1  0.97978608  0.86657220  0.11315866  1
  Ni  Ni5  1  0.50006104  0.25001776  0.74994385  1
loop_
_geom_bond_atom_site_label_1
_geom_bond_atom_site_label_2
_geom_bond_distance
_geom_bond_site_symmetry_2
Si0 Tb3 3.029316 1_555
Si0 Tb2 3.031827 1_455
Si0 Tb0 3.032259 1_444
Si0 Tb1 3.033142 1_555
Si1 Tb2 3.029317 1_455
Si1 Tb3 3.031826 1_555
Si1 Tb1 3.032263 1_566
Si1 Tb0 3.033140 1_455
Si2 Si9 2.456975 1_555
Si2 Si8 2.458059 1_555
Si2 Tb1 3.047172 1_555
Si2 Tb2 3.049206 1_455
Si2 Tb0 3.104402 1_555
Si2 Tb3 3.104889 1_554
Si3 Si6 2.456401 1_554
Si3 Si7 2.458814 1_565
Si3 Tb0 3.045407 1_554
Si3 Tb3 3.048163 1_665
Si3 Tb1 3.105959 1_565
Si3 Tb2 3.105967 1_555
Si4 Si6 2.456977 1_555
Si4 Si7 2.458060 1_555
Si4 Tb0 3.047174 1_555
Si4 Tb3 3.049208 1_655
Si4 Tb1 3.104398 1_555
Si4 Tb2 3.104885 1_556
Si5 Si9 2.456399 1_556
Si5 Si8 2.458813 1_545
Si5 Tb1 3.045406 1_556
Si5 Tb2 3.048164 1_445
Si5 Tb0 3.105960 1_545
Si5 Tb3 3.105970 1_555
Si6 Tb3 2.854688 1_555
Si6 Tb0 3.008182 1_555
Si6 Tb1 3.030951 1_555
Si6 Tb1 3.032392 1_566
Si7 Tb0 2.854638 1_545
Si7 Tb3 3.007719 1_655
Si7 Tb2 3.031222 1_556
Si7 Tb2 3.032892 1_545
Si8 Tb1 2.854642 1_565
Si8 Tb2 3.007724 1_455
Si8 Tb3 3.031224 1_554
Si8 Tb3 3.032895 1_565
Si9 Tb2 2.854687 1_555
Si9 Tb1 3.008184 1_555
Si9 Tb0 3.030954 1_555
Si9 Tb0 3.032399 1_544
Ni0 Si7 2.274642 1_455
Ni0 Si5 2.293729 1_555
Ni0 Si2 2.293938 1_556
Ni0 Si1 2.311418 1_545
Ni0 Si0 2.311454 1_556
Ni0 Tb3 2.977632 1_555
Ni0 Tb2 3.058487 1_445
Ni0 Tb2 3.059824 1_456
Ni0 Tb0 3.153548 1_445
Ni1 Si8 2.339628 1_555
Ni1 Si6 2.340081 1_554
Ni1 Si9 2.340280 1_555
Ni1 Si7 2.340600 1_565
Ni1 Si2 2.606730 1_555
Ni1 Si3 2.608948 1_555
Ni1 Ni5 2.822119 1_565
Ni1 Ni5 2.823248 1_554
Ni1 Tb0 3.221956 1_555
Ni1 Tb3 3.223681 1_554
Ni1 Tb1 3.224115 1_565
Ni1 Tb2 3.224827 1_555
Ni2 Si6 2.274802 1_555
Ni2 Si2 2.292714 1_555
Ni2 Si5 2.293369 1_565
Ni2 Si1 2.310912 1_555
Ni2 Si0 2.311234 1_555
Ni2 Tb0 2.976255 1_555
Ni2 Tb1 3.059227 1_566
Ni2 Tb1 3.059911 1_555
Ni2 Tb3 3.155112 1_555
Ni3 Si9 2.274815 1_555
Ni3 Si4 2.292717 1_555
Ni3 Si3 2.293372 1_545
Ni3 Si0 2.310917 1_655
Ni3 Si1 2.311236 1_655
Ni3 Tb1 2.976247 1_555
Ni3 Tb0 3.059227 1_544
Ni3 Tb0 3.059910 1_555
Ni3 Tb2 3.155113 1_555
Ni4 Si8 2.274644 1_655
Ni4 Si3 2.293730 1_555
Ni4 Si4 2.293942 1_554
Ni4 Si0 2.311416 1_665
Ni4 Si1 2.311453 1_654
Ni4 Tb2 2.977636 1_555
Ni4 Tb3 3.058486 1_665
Ni4 Tb3 3.059823 1_654
Ni4 Tb1 3.153549 1_665
Ni5 Si7 2.339631 1_555
Ni5 Si9 2.340086 1_556
Ni5 Si6 2.340274 1_555
Ni5 Si8 2.340604 1_545
Ni5 Si4 2.606707 1_555
Ni5 Si5 2.608967 1_555
Ni5 Tb1 3.221944 1_555
Ni5 Tb2 3.223675 1_556
Ni5 Tb0 3.224130 1_545
Ni5 Tb3 3.224828 1_555
