# generated using pymatgen
data_Ti2Cr(PO4)3
_symmetry_space_group_name_H-M   'P 1'
_cell_length_a   8.71669240
_cell_length_b   8.71669240
_cell_length_c   8.71669258
_cell_angle_alpha   59.59178507
_cell_angle_beta   59.59178507
_cell_angle_gamma   59.59178686
_symmetry_Int_Tables_number   1
_chemical_formula_structural   Ti2Cr(PO4)3
_chemical_formula_sum   'Ti4 Cr2 P6 O24'
_cell_volume   463.97189305
_cell_formula_units_Z   2
loop_
 _symmetry_equiv_pos_site_id
 _symmetry_equiv_pos_as_xyz
  1  'x, y, z'
loop_
 _atom_site_type_symbol
 _atom_site_label
 _atom_site_symmetry_multiplicity
 _atom_site_fract_x
 _atom_site_fract_y
 _atom_site_fract_z
 _atom_site_occupancy
  Ti  Ti0  1  0.85581500  0.85581500  0.85581500  1
  Ti  Ti1  1  0.64418500  0.64418500  0.64418500  1
  Ti  Ti2  1  0.35581500  0.35581500  0.35581500  1
  Ti  Ti3  1  0.14418500  0.14418500  0.14418500  1
  Cr  Cr0  1  0.00000000  0.00000000  0.00000000  1
  Cr  Cr1  1  0.50000000  0.50000000  0.50000000  1
  P  P0  1  0.04105000  0.75000000  0.45895000  1
  P  P1  1  0.75000000  0.45895000  0.04105000  1
  P  P2  1  0.45895000  0.04105000  0.75000000  1
  P  P3  1  0.54105000  0.95895000  0.25000000  1
  P  P4  1  0.25000000  0.54105000  0.95895000  1
  P  P5  1  0.95895000  0.25000000  0.54105000  1
  O  O0  1  0.49688900  0.87765200  0.69746600  1
  O  O1  1  0.87765200  0.69746600  0.49688900  1
  O  O2  1  0.73155300  0.94191900  0.08334300  1
  O  O3  1  0.69746600  0.49688900  0.87765200  1
  O  O4  1  0.37765200  0.99688900  0.19746600  1
  O  O5  1  0.55808100  0.76844700  0.41665700  1
  O  O6  1  0.08334300  0.73155300  0.94191900  1
  O  O7  1  0.41665700  0.55808100  0.76844700  1
  O  O8  1  0.00311100  0.80253400  0.62234800  1
  O  O9  1  0.76844700  0.41665700  0.55808100  1
  O  O10  1  0.05808100  0.91665700  0.26844700  1
  O  O11  1  0.80253400  0.62234800  0.00311100  1
  O  O12  1  0.19746600  0.37765200  0.99688900  1
  O  O13  1  0.94191900  0.08334300  0.73155300  1
  O  O14  1  0.23155300  0.58334300  0.44191900  1
  O  O15  1  0.99688900  0.19746600  0.37765200  1
  O  O16  1  0.58334300  0.44191900  0.23155300  1
  O  O17  1  0.91665700  0.26844700  0.05808100  1
  O  O18  1  0.44191900  0.23155300  0.58334300  1
  O  O19  1  0.62234800  0.00311100  0.80253400  1
  O  O20  1  0.30253400  0.50311100  0.12234800  1
  O  O21  1  0.26844700  0.05808100  0.91665700  1
  O  O22  1  0.12234800  0.30253400  0.50311100  1
  O  O23  1  0.50311100  0.12234800  0.30253400  1
loop_
_geom_bond_atom_site_label_1
_geom_bond_atom_site_label_2
_geom_bond_distance
_geom_bond_site_symmetry_2
Cr0 O21 2.316378 1_554
Cr0 O2 2.316378 1_445
Cr0 O17 2.316378 1_455
Cr0 O6 2.316378 1_544
Cr0 O10 2.316378 1_545
Cr0 O13 2.316378 1_454
Cr1 O5 2.316378 1_555
Cr1 O18 2.316378 1_555
Cr1 O9 2.316378 1_555
Cr1 O14 2.316378 1_555
Cr1 O7 2.316378 1_555
Cr1 O16 2.316378 1_555
O0 P2 1.542008 1_565
O0 Ti1 1.927107 1_555
O1 P0 1.542008 1_655
O1 Ti1 1.927106 1_555
O2 P3 1.554537 1_555
O2 Ti0 2.044316 1_554
O3 P1 1.542008 1_556
O3 Ti1 1.927107 1_555
O4 P3 1.542008 1_555
O4 Ti3 1.927107 1_565
O5 P3 1.554537 1_555
O5 Ti1 2.044316 1_555
O6 P4 1.554537 1_555
O6 Ti0 2.044316 1_455
O7 P4 1.554537 1_555
O7 Ti1 2.044316 1_555
O8 P0 1.542008 1_555
O8 Ti0 1.927107 1_455
O9 P5 1.554537 1_555
O9 Ti1 2.044316 1_555
O10 P0 1.554537 1_555
O10 Ti3 2.044316 1_565
O11 P1 1.542008 1_555
O11 Ti0 1.927106 1_554
O12 P4 1.542008 1_555
O12 Ti3 1.927106 1_556
O13 P5 1.554537 1_555
O13 Ti0 2.044316 1_545
O14 P0 1.554537 1_555
O14 Ti2 2.044316 1_555
O15 P5 1.542008 1_555
O15 Ti3 1.927107 1_655
O16 P1 1.554537 1_555
O16 Ti2 2.044316 1_555
O17 P1 1.554537 1_555
O17 Ti3 2.044316 1_655
O18 P2 1.554537 1_555
O18 Ti2 2.044316 1_555
O19 P2 1.542008 1_555
O19 Ti0 1.927107 1_545
O20 P4 1.542008 1_554
O20 Ti2 1.927107 1_555
O21 P2 1.554537 1_555
O21 Ti3 2.044316 1_556
O22 P5 1.542008 1_455
O22 Ti2 1.927106 1_555
O23 P3 1.542008 1_545
O23 Ti2 1.927107 1_555
