# generated using pymatgen
data_Cd3Os
_symmetry_space_group_name_H-M   'P 1'
_cell_length_a   5.98186967
_cell_length_b   5.98186967
_cell_length_c   4.85941400
_cell_angle_alpha   90.00000000
_cell_angle_beta   90.00000000
_cell_angle_gamma   119.99999634
_symmetry_Int_Tables_number   1
_chemical_formula_structural   Cd3Os
_chemical_formula_sum   'Cd6 Os2'
_cell_volume   150.58733287
_cell_formula_units_Z   2
loop_
 _symmetry_equiv_pos_site_id
 _symmetry_equiv_pos_as_xyz
  1  'x, y, z'
loop_
 _atom_site_type_symbol
 _atom_site_label
 _atom_site_symmetry_multiplicity
 _atom_site_fract_x
 _atom_site_fract_y
 _atom_site_fract_z
 _atom_site_occupancy
  Cd  Cd0  1  0.82748000  0.17252000  0.75000000  1
  Cd  Cd1  1  0.34504100  0.17252000  0.75000000  1
  Cd  Cd2  1  0.82748000  0.65495900  0.75000000  1
  Cd  Cd3  1  0.17252000  0.82748000  0.25000000  1
  Cd  Cd4  1  0.65495900  0.82748000  0.25000000  1
  Cd  Cd5  1  0.17252000  0.34504100  0.25000000  1
  Os  Os0  1  0.66666700  0.33333300  0.25000000  1
  Os  Os1  1  0.33333300  0.66666700  0.75000000  1
loop_
_geom_bond_atom_site_label_1
_geom_bond_atom_site_label_2
_geom_bond_distance
_geom_bond_site_symmetry_2
Cd0 Cd2 2.885887 1_555
Cd0 Cd1 2.885887 1_555
Cd0 Os0 2.946115 1_555
Cd0 Os0 2.946115 1_556
Cd0 Os1 2.991550 1_545
Cd0 Os1 2.991550 1_655
Cd0 Cd4 3.016372 1_545
Cd0 Cd5 3.016372 1_656
Cd0 Cd5 3.016372 1_655
Cd0 Cd4 3.016372 1_546
Cd0 Cd1 3.095982 1_655
Cd0 Cd2 3.095982 1_545
Cd1 Cd2 2.885887 1_555
Cd1 Os0 2.946115 1_556
Cd1 Os0 2.946115 1_555
Cd1 Os1 2.991544 1_545
Cd1 Os1 2.991556 1_555
Cd1 Cd3 3.016372 1_546
Cd1 Cd3 3.016372 1_545
Cd1 Cd5 3.016378 1_555
Cd1 Cd5 3.016378 1_556
Cd1 Cd2 3.095983 1_445
Cd2 Os0 2.946115 1_555
Cd2 Os0 2.946115 1_556
Cd2 Os1 2.991544 1_655
Cd2 Os1 2.991556 1_555
Cd2 Cd3 3.016372 1_656
Cd2 Cd3 3.016372 1_655
Cd2 Cd4 3.016378 1_555
Cd2 Cd4 3.016378 1_556
Cd3 Cd4 2.885887 1_555
Cd3 Cd5 2.885887 1_555
Cd3 Os1 2.946115 1_554
Cd3 Os1 2.946115 1_555
Cd3 Os0 2.991550 1_455
Cd3 Os0 2.991550 1_565
Cd3 Cd5 3.095982 1_565
Cd3 Cd4 3.095982 1_455
Cd4 Cd5 2.885887 1_555
Cd4 Os1 2.946115 1_554
Cd4 Os1 2.946115 1_555
Cd4 Os0 2.991544 1_565
Cd4 Os0 2.991556 1_555
Cd4 Cd5 3.095983 1_665
Cd5 Os1 2.946115 1_554
Cd5 Os1 2.946115 1_555
Cd5 Os0 2.991544 1_455
Cd5 Os0 2.991556 1_555
