# generated using pymatgen
data_Ba6Ca6Cu9Hg3O25
_symmetry_space_group_name_H-M   'P 1'
_cell_length_a   8.66266312
_cell_length_b   8.66266312
_cell_length_c   17.09006035
_cell_angle_alpha   72.31183092
_cell_angle_beta   72.31183092
_cell_angle_gamma   37.01856189
_symmetry_Int_Tables_number   1
_chemical_formula_structural   Ba6Ca6Cu9Hg3O25
_chemical_formula_sum   'Ba6 Ca6 Cu9 Hg3 O25'
_cell_volume   731.43197465
_cell_formula_units_Z   1
loop_
 _symmetry_equiv_pos_site_id
 _symmetry_equiv_pos_as_xyz
  1  'x, y, z'
loop_
 _atom_site_type_symbol
 _atom_site_label
 _atom_site_symmetry_multiplicity
 _atom_site_fract_x
 _atom_site_fract_y
 _atom_site_fract_z
 _atom_site_occupancy
  Ba  Ba0  1  0.77502200  0.77502200  0.67538500  1
  Ba  Ba1  1  0.10803300  0.10803300  0.67536600  1
  Ba  Ba2  1  0.44490900  0.44490900  0.66534700  1
  Ba  Ba3  1  0.89196700  0.89196700  0.32463400  1
  Ba  Ba4  1  0.22497800  0.22497800  0.32461500  1
  Ba  Ba5  1  0.55509100  0.55509100  0.33465300  1
  Ca  Ca0  1  0.70038300  0.70038300  0.89837900  1
  Ca  Ca1  1  0.03411300  0.03411300  0.89811700  1
  Ca  Ca2  1  0.36790200  0.36790200  0.89633400  1
  Ca  Ca3  1  0.96588700  0.96588700  0.10188300  1
  Ca  Ca4  1  0.29961700  0.29961700  0.10162100  1
  Ca  Ca5  1  0.63209800  0.63209800  0.10366600  1
  Cu  Cu0  1  0.89978300  0.89978300  0.80052500  1
  Cu  Cu1  1  0.23351700  0.23351700  0.80119700  1
  Cu  Cu2  1  0.56561600  0.56561600  0.80120000  1
  Cu  Cu3  1  0.10021700  0.10021700  0.19947500  1
  Cu  Cu4  1  0.43438400  0.43438400  0.19880000  1
  Cu  Cu5  1  0.76648300  0.76648300  0.19880300  1
  Cu  Cu6  1  0.16685800  0.16685800  0.00004300  1
  Cu  Cu7  1  0.50000000  0.50000000  0.00000000  1
  Cu  Cu8  1  0.83314200  0.83314200  0.99995700  1
  Hg  Hg0  1  0.00000000  0.00000000  0.50000000  1
  Hg  Hg1  1  0.33884700  0.33884700  0.50000900  1
  Hg  Hg2  1  0.66115300  0.66115300  0.49999100  1
  O  O0  1  0.56639600  0.06300100  0.80385100  1
  O  O1  1  0.89919000  0.39890600  0.80306800  1
  O  O2  1  0.23063600  0.73462900  0.80390400  1
  O  O3  1  0.06300100  0.56639600  0.80385100  1
  O  O4  1  0.39890600  0.89919000  0.80306800  1
  O  O5  1  0.73462900  0.23063600  0.80390400  1
  O  O6  1  0.76936400  0.26537100  0.19609600  1
  O  O7  1  0.10081000  0.60109400  0.19693200  1
  O  O8  1  0.43360400  0.93699900  0.19614900  1
  O  O9  1  0.26537100  0.76936400  0.19609600  1
  O  O10  1  0.60109400  0.10081000  0.19693200  1
  O  O11  1  0.93699900  0.43360400  0.19614900  1
  O  O12  1  0.95751900  0.95751900  0.62747700  1
  O  O13  1  0.28745900  0.28745900  0.62673200  1
  O  O14  1  0.62807700  0.62807700  0.62671800  1
  O  O15  1  0.04248100  0.04248100  0.37252300  1
  O  O16  1  0.37192300  0.37192300  0.37328200  1
  O  O17  1  0.71254100  0.71254100  0.37326800  1
  O  O18  1  0.83357200  0.33297300  0.99994600  1
  O  O19  1  0.16642800  0.66702700  0.00005400  1
  O  O20  1  0.50000000  0.00000000  0.00000000  1
  O  O21  1  0.33297300  0.83357200  0.99994600  1
  O  O22  1  0.66702700  0.16642800  0.00005400  1
  O  O23  1  0.00000000  0.50000000  0.00000000  1
  O  O24  1  0.50000000  0.50000000  0.50000000  1
loop_
_geom_bond_atom_site_label_1
_geom_bond_atom_site_label_2
_geom_bond_distance
_geom_bond_site_symmetry_2
Ba0 O14 2.794054 1_555
Ba0 O0 2.833245 1_565
Ba0 O3 2.833245 1_655
Ba0 O4 2.836155 1_555
Ba0 O1 2.836155 1_555
Ba0 O12 2.843738 1_555
Ba0 O13 2.861281 1_565
Ba0 O13 2.861281 1_655
Ba1 O13 2.794700 1_555
Ba1 O2 2.833815 1_545
Ba1 O5 2.833815 1_455
Ba1 O1 2.836901 1_455
Ba1 O4 2.836901 1_545
Ba1 O12 2.842803 1_445
Ba1 O14 2.861277 1_455
Ba1 O14 2.861277 1_545
Ba2 O24 2.676811 1_555
Ba2 O12 2.817544 1_545
Ba2 O12 2.817544 1_455
Ba2 O14 2.866804 1_555
Ba2 O13 2.867195 1_555
Ba2 O3 2.975025 1_555
Ba2 O0 2.975025 1_555
Ba2 O5 2.975352 1_555
Ba2 O2 2.975352 1_555
Ba3 O17 2.794700 1_555
Ba3 O6 2.833815 1_565
Ba3 O9 2.833815 1_655
Ba3 O10 2.836901 1_565
Ba3 O7 2.836901 1_655
Ba3 O15 2.842803 1_665
Ba3 O16 2.861277 1_655
Ba3 O16 2.861277 1_565
Ba4 O16 2.794054 1_555
Ba4 O11 2.833245 1_455
Ba4 O8 2.833245 1_545
Ba4 O7 2.836155 1_555
Ba4 O10 2.836155 1_555
Ba4 O15 2.843738 1_555
Ba4 O17 2.861281 1_545
Ba4 O17 2.861281 1_455
Ba5 O24 2.676811 1_555
Ba5 O15 2.817544 1_655
Ba5 O15 2.817544 1_565
Ba5 O16 2.866804 1_555
Ba5 O17 2.867195 1_555
Ba5 O11 2.975025 1_555
Ba5 O8 2.975025 1_555
Ba5 O9 2.975352 1_555
Ba5 O6 2.975352 1_555
Ca0 O0 2.461275 1_565
Ca0 O3 2.461275 1_655
Ca0 O4 2.477436 1_555
Ca0 O1 2.477436 1_555
Ca0 O18 2.543596 1_555
Ca0 O21 2.543596 1_555
Ca0 O23 2.545296 1_656
Ca0 O20 2.545296 1_566
Ca1 O2 2.457854 1_545
Ca1 O5 2.457854 1_455
Ca1 O1 2.475316 1_455
Ca1 O4 2.475316 1_545
Ca1 O18 2.543156 1_455
Ca1 O21 2.543156 1_545
Ca1 O22 2.547033 1_456
Ca1 O19 2.547033 1_546
Ca2 O5 2.461936 1_555
Ca2 O2 2.461936 1_555
Ca2 O3 2.462495 1_555
Ca2 O0 2.462495 1_555
Ca2 O20 2.565615 1_556
Ca2 O23 2.565615 1_556
Ca2 O22 2.567467 1_556
Ca2 O19 2.567467 1_556
Ca3 O6 2.457854 1_565
Ca3 O9 2.457854 1_655
Ca3 O7 2.475316 1_655
Ca3 O10 2.475316 1_565
Ca3 O19 2.543156 1_655
Ca3 O22 2.543156 1_565
Ca3 O21 2.547033 1_654
Ca3 O18 2.547033 1_564
Ca4 O11 2.461275 1_455
Ca4 O8 2.461275 1_545
Ca4 O10 2.477436 1_555
Ca4 O7 2.477436 1_555
Ca4 O22 2.543596 1_555
Ca4 O19 2.543596 1_555
Ca4 O20 2.545296 1_555
Ca4 O23 2.545296 1_555
Ca5 O9 2.461936 1_555
Ca5 O6 2.461936 1_555
Ca5 O11 2.462495 1_555
Ca5 O8 2.462495 1_555
Ca5 O20 2.565615 1_565
Ca5 O23 2.565615 1_655
Ca5 O21 2.567467 1_554
Ca5 O18 2.567467 1_554
Cu0 O2 1.940880 1_655
Cu0 O5 1.940880 1_565
Cu0 O0 1.942015 1_565
Cu0 O3 1.942015 1_655
Cu1 O3 1.932905 1_555
Cu1 O0 1.932905 1_555
Cu1 O1 1.946013 1_455
Cu1 O4 1.946013 1_545
Cu2 O5 1.934287 1_555
Cu2 O2 1.934287 1_555
Cu2 O1 1.949549 1_555
Cu2 O4 1.949549 1_555
Cu3 O6 1.940880 1_455
Cu3 O9 1.940880 1_545
Cu3 O8 1.942015 1_545
Cu3 O11 1.942015 1_455
Cu4 O9 1.934287 1_555
Cu4 O6 1.934287 1_555
Cu4 O7 1.949549 1_555
Cu4 O10 1.949549 1_555
Cu5 O8 1.932905 1_555
Cu5 O11 1.932905 1_555
Cu5 O7 1.946013 1_655
Cu5 O10 1.946013 1_565
Cu6 O20 1.938001 1_555
Cu6 O23 1.938001 1_555
Cu6 O18 1.942520 1_454
Cu6 O21 1.942520 1_544
Cu7 O18 1.940639 1_554
Cu7 O21 1.940639 1_554
Cu7 O19 1.940639 1_555
Cu7 O22 1.940639 1_555
Cu8 O20 1.938001 1_566
Cu8 O23 1.938001 1_656
Cu8 O22 1.942520 1_566
Cu8 O19 1.942520 1_656
Hg0 O12 2.063732 1_445
Hg0 O15 2.063732 1_555
Hg0 O24 2.750034 1_455
Hg0 O24 2.750034 1_545
Hg1 O13 2.057027 1_555
Hg1 O16 2.057105 1_555
Hg1 O24 2.647554 1_555
Hg2 O17 2.057027 1_555
Hg2 O14 2.057105 1_555
Hg2 O24 2.647554 1_555
