# generated using pymatgen
data_Ba2UCuO6
_symmetry_space_group_name_H-M   'P 1'
_cell_length_a   6.11091764
_cell_length_b   6.11091764
_cell_length_c   6.11091764
_cell_angle_alpha   123.06310504
_cell_angle_beta   123.06310504
_cell_angle_gamma   84.77167972
_symmetry_Int_Tables_number   1
_chemical_formula_structural   Ba2UCuO6
_chemical_formula_sum   'Ba2 U1 Cu1 O6'
_cell_volume   153.19541082
_cell_formula_units_Z   1
loop_
 _symmetry_equiv_pos_site_id
 _symmetry_equiv_pos_as_xyz
  1  'x, y, z'
loop_
 _atom_site_type_symbol
 _atom_site_label
 _atom_site_symmetry_multiplicity
 _atom_site_fract_x
 _atom_site_fract_y
 _atom_site_fract_z
 _atom_site_occupancy
  Ba  Ba0  1  0.25000000  0.75000000  0.50000000  1
  Ba  Ba1  1  0.75000000  0.25000000  0.50000000  1
  U  U0  1  0.00000000  0.00000000  0.00000000  1
  Cu  Cu0  1  0.50000000  0.50000000  0.00000000  1
  O  O0  1  0.22594000  0.22594000  0.00000000  1
  O  O1  1  0.77406000  0.77406000  0.00000000  1
  O  O2  1  0.23705600  0.27402600  0.51108200  1
  O  O3  1  0.76294400  0.72597400  0.48891800  1
  O  O4  1  0.27402600  0.76294400  0.03697000  1
  O  O5  1  0.72597400  0.23705600  0.96303000  1
loop_
_geom_bond_atom_site_label_1
_geom_bond_atom_site_label_2
_geom_bond_distance
_geom_bond_site_symmetry_2
Ba0 O1 2.921006 1_556
Ba0 O0 2.921006 1_566
Ba0 O0 2.921006 1_555
Ba0 O1 2.921006 1_455
Ba0 O4 2.955287 1_555
Ba0 O2 2.955287 1_555
Ba0 O5 2.955287 1_565
Ba0 O3 2.955287 1_455
Ba0 O3 3.160458 1_555
Ba0 O4 3.160458 1_556
Ba0 O2 3.160458 1_565
Ba0 O5 3.160458 1_454
Ba1 O0 2.921006 1_656
Ba1 O1 2.921006 1_556
Ba1 O1 2.921006 1_545
Ba1 O0 2.921006 1_555
Ba1 O4 2.955287 1_545
Ba1 O2 2.955287 1_655
Ba1 O3 2.955287 1_555
Ba1 O5 2.955287 1_555
Ba1 O5 3.160458 1_554
Ba1 O2 3.160458 1_555
Ba1 O4 3.160458 1_656
Ba1 O3 3.160458 1_545
Cu0 O2 2.019843 1_554
Cu0 O4 2.019843 1_555
Cu0 O5 2.019843 1_554
Cu0 O3 2.019843 1_555
Cu0 O0 2.474026 1_555
Cu0 O1 2.474026 1_555
O0 U0 2.039632 1_555
O1 U0 2.039632 1_665
O2 U0 2.110899 1_555
O3 U0 2.110899 1_666
O4 U0 2.110899 1_565
O5 U0 2.110899 1_656
