# generated using pymatgen
data_Ti5(FeSb)4
_symmetry_space_group_name_H-M   'P 1'
_cell_length_a   14.53853577
_cell_length_b   14.53853577
_cell_length_c   14.53853509
_cell_angle_alpha   17.69872919
_cell_angle_beta   17.69872919
_cell_angle_gamma   17.69873072
_symmetry_Int_Tables_number   1
_chemical_formula_structural   Ti5(FeSb)4
_chemical_formula_sum   'Ti5 Fe4 Sb4'
_cell_volume   247.92083423
_cell_formula_units_Z   1
loop_
 _symmetry_equiv_pos_site_id
 _symmetry_equiv_pos_as_xyz
  1  'x, y, z'
loop_
 _atom_site_type_symbol
 _atom_site_label
 _atom_site_symmetry_multiplicity
 _atom_site_fract_x
 _atom_site_fract_y
 _atom_site_fract_z
 _atom_site_occupancy
  Ti  Ti0  1  0.31389300  0.31389300  0.31389300  1
  Ti  Ti1  1  0.56020400  0.56020400  0.56020400  1
  Ti  Ti2  1  0.06311900  0.06311900  0.06311900  1
  Ti  Ti3  1  0.81207800  0.81207800  0.81207800  1
  Ti  Ti4  1  0.68624100  0.68624100  0.68624100  1
  Fe  Fe0  1  0.00168900  0.00168900  0.00168900  1
  Fe  Fe1  1  0.74716100  0.74716100  0.74716100  1
  Fe  Fe2  1  0.49859500  0.49859500  0.49859500  1
  Fe  Fe3  1  0.25068000  0.25068000  0.25068000  1
  Sb  Sb0  1  0.62154800  0.62154800  0.62154800  1
  Sb  Sb1  1  0.87516900  0.87516900  0.87516900  1
  Sb  Sb2  1  0.38022500  0.38022500  0.38022500  1
  Sb  Sb3  1  0.12689900  0.12689900  0.12689900  1
loop_
_geom_bond_atom_site_label_1
_geom_bond_atom_site_label_2
_geom_bond_distance
_geom_bond_site_symmetry_2
Fe0 Ti2 2.636696 1_555
Fe0 Ti4 2.694247 1_445
Fe0 Ti4 2.694248 1_454
Fe0 Ti4 2.694248 1_544
Fe0 Ti0 2.737177 1_554
Fe0 Ti0 2.737177 1_545
Fe0 Ti0 2.737177 1_455
Fe1 Ti4 2.614806 1_555
Fe1 Ti2 2.688092 1_665
Fe1 Ti2 2.688092 1_656
Fe1 Ti2 2.688092 1_566
Fe1 Ti3 2.786365 1_555
Fe1 Sb2 2.958015 1_565
Fe1 Sb2 2.958015 1_655
Fe1 Sb2 2.958015 1_556
Fe1 Sb3 3.261416 1_656
Fe1 Sb3 3.261416 1_566
Fe1 Sb3 3.261416 1_665
Fe2 Ti1 2.644379 1_555
Fe2 Ti3 2.719481 1_554
Fe2 Ti3 2.719481 1_545
Fe2 Ti3 2.719481 1_455
Fe2 Sb3 3.062832 1_565
Fe2 Sb3 3.062832 1_655
Fe2 Sb3 3.062832 1_556
Fe2 Sb1 3.180297 1_545
Fe2 Sb1 3.180297 1_455
Fe2 Sb1 3.180297 1_554
Fe3 Ti0 2.713226 1_555
Fe3 Ti1 2.777411 1_554
Fe3 Ti1 2.777412 1_545
Fe3 Ti1 2.777412 1_455
Fe3 Sb0 3.043874 1_545
Fe3 Sb0 3.043874 1_455
Fe3 Sb0 3.043874 1_554
Fe3 Sb1 3.153888 1_454
Fe3 Sb1 3.153888 1_544
Fe3 Sb1 3.153888 1_445
Sb0 Ti1 2.633004 1_555
Sb0 Ti4 2.776750 1_555
Sb0 Ti0 2.807919 1_556
Sb0 Ti0 2.807920 1_565
Sb0 Ti0 2.807920 1_655
Sb1 Ti1 2.700227 1_556
Sb1 Ti1 2.700228 1_565
Sb1 Ti1 2.700228 1_655
Sb1 Ti3 2.707989 1_555
Sb2 Ti2 2.674840 1_556
Sb2 Ti2 2.674841 1_565
Sb2 Ti2 2.674841 1_655
Sb2 Ti4 2.836271 1_554
Sb2 Ti4 2.836272 1_455
Sb2 Ti4 2.836272 1_545
Sb2 Ti0 2.847099 1_555
Sb3 Ti3 2.702039 1_445
Sb3 Ti3 2.702039 1_454
Sb3 Ti3 2.702039 1_544
Sb3 Ti2 2.737562 1_555
