# generated using pymatgen
data_CaMg6Sn
_symmetry_space_group_name_H-M   'P 1'
_cell_length_a   5.20736500
_cell_length_b   6.40647900
_cell_length_c   11.84157600
_cell_angle_alpha   90.00000000
_cell_angle_beta   90.00000000
_cell_angle_gamma   90.00000000
_symmetry_Int_Tables_number   1
_chemical_formula_structural   CaMg6Sn
_chemical_formula_sum   'Ca2 Mg12 Sn2'
_cell_volume   395.04533103
_cell_formula_units_Z   2
loop_
 _symmetry_equiv_pos_site_id
 _symmetry_equiv_pos_as_xyz
  1  'x, y, z'
loop_
 _atom_site_type_symbol
 _atom_site_label
 _atom_site_symmetry_multiplicity
 _atom_site_fract_x
 _atom_site_fract_y
 _atom_site_fract_z
 _atom_site_occupancy
  Ca  Ca0  1  0.50000000  0.00000000  0.16945300  1
  Ca  Ca1  1  0.50000000  0.50000000  0.66945300  1
  Mg  Mg0  1  0.50000000  0.24905000  0.41739200  1
  Mg  Mg1  1  0.50000000  0.75095000  0.41739200  1
  Mg  Mg2  1  0.00000000  0.74739800  0.07885100  1
  Mg  Mg3  1  0.00000000  0.25260200  0.07885100  1
  Mg  Mg4  1  0.00000000  0.00000000  0.33738700  1
  Mg  Mg5  1  0.00000000  0.50000000  0.33538200  1
  Mg  Mg6  1  0.50000000  0.74905000  0.91739200  1
  Mg  Mg7  1  0.50000000  0.25095000  0.91739200  1
  Mg  Mg8  1  0.00000000  0.24739800  0.57885100  1
  Mg  Mg9  1  0.00000000  0.75260200  0.57885100  1
  Mg  Mg10  1  0.00000000  0.50000000  0.83738700  1
  Mg  Mg11  1  0.00000000  0.00000000  0.83538200  1
  Sn  Sn0  1  0.50000000  0.50000000  0.16528900  1
  Sn  Sn1  1  0.50000000  0.00000000  0.66528900  1
loop_
_geom_bond_atom_site_label_1
_geom_bond_atom_site_label_2
_geom_bond_distance
_geom_bond_site_symmetry_2
Ca0 Sn0 3.203619 1_545
Ca0 Sn0 3.203619 1_555
Ca0 Mg3 3.247934 1_555
Ca0 Mg2 3.247934 1_645
Ca0 Mg2 3.247934 1_545
Ca0 Mg3 3.247934 1_655
Ca0 Mg4 3.276233 1_555
Ca0 Mg4 3.276233 1_655
Ca0 Mg0 3.341520 1_555
Ca0 Mg1 3.341520 1_545
Ca0 Mg6 3.390243 1_544
Ca0 Mg7 3.390243 1_554
Ca1 Sn1 3.203619 1_555
Ca1 Sn1 3.203619 1_565
Ca1 Mg9 3.247934 1_655
Ca1 Mg8 3.247934 1_555
Ca1 Mg8 3.247934 1_655
Ca1 Mg9 3.247934 1_555
Ca1 Mg10 3.276233 1_555
Ca1 Mg10 3.276233 1_655
Ca1 Mg6 3.341520 1_555
Ca1 Mg7 3.341520 1_555
Ca1 Mg1 3.390243 1_555
Ca1 Mg0 3.390243 1_555
Mg0 Mg1 3.191067 1_545
Mg0 Mg4 3.197253 1_555
Mg0 Mg4 3.197253 1_655
Mg0 Mg5 3.210447 1_655
Mg0 Mg5 3.210447 1_555
Mg0 Mg1 3.215412 1_555
Mg0 Mg8 3.230286 1_655
Mg0 Mg8 3.230286 1_555
Mg0 Sn1 3.341083 1_555
Mg0 Sn0 3.390681 1_555
Mg1 Mg4 3.197253 1_665
Mg1 Mg4 3.197253 1_565
Mg1 Mg5 3.210447 1_655
Mg1 Mg5 3.210447 1_555
Mg1 Mg9 3.230286 1_555
Mg1 Mg9 3.230286 1_655
Mg1 Sn1 3.341083 1_565
Mg1 Sn0 3.390681 1_555
Mg2 Sn0 3.215417 1_555
Mg2 Sn0 3.215417 1_455
Mg2 Mg6 3.230286 1_454
Mg2 Mg6 3.230286 1_554
Mg2 Mg4 3.462872 1_565
Mg3 Sn0 3.215417 1_555
Mg3 Sn0 3.215417 1_455
Mg3 Mg7 3.230286 1_554
Mg3 Mg7 3.230286 1_454
Mg3 Mg4 3.462872 1_555
Mg4 Mg5 3.203327 1_545
Mg4 Mg5 3.203327 1_555
Mg4 Mg9 3.269212 1_545
Mg4 Mg8 3.269212 1_555
Mg5 Sn0 3.291814 1_455
Mg5 Sn0 3.291814 1_555
Mg6 Mg7 3.191067 1_555
Mg6 Mg7 3.215412 1_565
Mg6 Sn0 3.341083 1_556
Mg6 Sn1 3.390681 1_565
Mg7 Sn0 3.341083 1_556
Mg7 Sn1 3.390681 1_555
Mg8 Sn1 3.215417 1_555
Mg8 Sn1 3.215417 1_455
Mg9 Sn1 3.215417 1_565
Mg9 Sn1 3.215417 1_465
Mg10 Mg6 3.197253 1_555
Mg10 Mg7 3.197253 1_455
Mg10 Mg7 3.197253 1_555
Mg10 Mg6 3.197253 1_455
Mg10 Mg11 3.203327 1_555
Mg10 Mg11 3.203327 1_565
Mg10 Mg2 3.269212 1_556
Mg10 Mg3 3.269212 1_556
Mg10 Mg8 3.462872 1_555
Mg10 Mg9 3.462872 1_555
Mg11 Mg6 3.210447 1_545
Mg11 Mg7 3.210447 1_455
Mg11 Mg7 3.210447 1_555
Mg11 Mg6 3.210447 1_445
Mg11 Sn1 3.291814 1_555
Mg11 Sn1 3.291814 1_455
