# generated using pymatgen
data_Si(PbO2)2
_symmetry_space_group_name_H-M   'P 1'
_cell_length_a   7.30053001
_cell_length_b   7.30053001
_cell_length_c   19.77426803
_cell_angle_alpha   83.81169678
_cell_angle_beta   83.81169678
_cell_angle_gamma   64.50874575
_symmetry_Int_Tables_number   1
_chemical_formula_structural   Si(PbO2)2
_chemical_formula_sum   'Si8 Pb16 O32'
_cell_volume   943.56530231
_cell_formula_units_Z   8
loop_
 _symmetry_equiv_pos_site_id
 _symmetry_equiv_pos_as_xyz
  1  'x, y, z'
loop_
 _atom_site_type_symbol
 _atom_site_label
 _atom_site_symmetry_multiplicity
 _atom_site_fract_x
 _atom_site_fract_y
 _atom_site_fract_z
 _atom_site_occupancy
  Si  Si0  1  0.04338700  0.96525600  0.41893800  1
  Si  Si1  1  0.03474400  0.95661300  0.58106200  1
  Si  Si2  1  0.46703100  0.54113900  0.41880600  1
  Si  Si3  1  0.45886100  0.53296900  0.58119400  1
  Si  Si4  1  0.29422600  0.71368200  0.91884300  1
  Si  Si5  1  0.28631800  0.70577400  0.08115700  1
  Si  Si6  1  0.71629500  0.29063100  0.91879100  1
  Si  Si7  1  0.70936900  0.28370500  0.08120900  1
  Pb  Pb0  1  0.76999400  0.76407000  0.09136300  1
  Pb  Pb1  1  0.23593000  0.23000600  0.90863700  1
  Pb  Pb2  1  0.22909300  0.23156600  0.09107500  1
  Pb  Pb3  1  0.76843400  0.77090700  0.90892500  1
  Pb  Pb4  1  0.88056700  0.87607100  0.24763100  1
  Pb  Pb5  1  0.12392900  0.11943300  0.75236900  1
  Pb  Pb6  1  0.38389800  0.36726400  0.25025400  1
  Pb  Pb7  1  0.63273600  0.61610200  0.74974600  1
  Pb  Pb8  1  0.98573800  0.47798800  0.59151100  1
  Pb  Pb9  1  0.52201200  0.01426200  0.40848900  1
  Pb  Pb10  1  0.51300400  0.00951900  0.59146900  1
  Pb  Pb11  1  0.99048100  0.48699600  0.40853100  1
  Pb  Pb12  1  0.13356200  0.62129900  0.75334100  1
  Pb  Pb13  1  0.37870100  0.86643800  0.24665900  1
  Pb  Pb14  1  0.63059900  0.12189200  0.74517900  1
  Pb  Pb15  1  0.87810800  0.36940100  0.25482100  1
  O  O0  1  0.04660000  0.53636200  0.29524800  1
  O  O1  1  0.46363800  0.95340000  0.70475200  1
  O  O2  1  0.53829700  0.03106300  0.29460700  1
  O  O3  1  0.96893700  0.46170300  0.70539300  1
  O  O4  1  0.08603300  0.14859600  0.37587700  1
  O  O5  1  0.85140400  0.91396700  0.62412300  1
  O  O6  1  0.65027100  0.58409000  0.37578200  1
  O  O7  1  0.41591000  0.34972900  0.62421800  1
  O  O8  1  0.87150200  0.91532500  0.38826700  1
  O  O9  1  0.08467500  0.12849800  0.61173300  1
  O  O10  1  0.41615600  0.36920500  0.38818600  1
  O  O11  1  0.63079500  0.58384400  0.61181400  1
  O  O12  1  0.25557900  0.75348500  0.41545200  1
  O  O13  1  0.24651500  0.74442100  0.58454800  1
  O  O14  1  0.98329000  0.01671000  0.50000000  1
  O  O15  1  0.51798900  0.48201100  0.50000000  1
  O  O16  1  0.29130000  0.28419600  0.79550000  1
  O  O17  1  0.71580400  0.70870000  0.20450000  1
  O  O18  1  0.79135100  0.78272700  0.79485200  1
  O  O19  1  0.21727300  0.20864900  0.20514800  1
  O  O20  1  0.33725900  0.89667400  0.87581400  1
  O  O21  1  0.10332600  0.66274100  0.12418600  1
  O  O22  1  0.89909100  0.33350900  0.87528700  1
  O  O23  1  0.66649100  0.10090900  0.12471300  1
  O  O24  1  0.12262700  0.66363400  0.88777400  1
  O  O25  1  0.33636600  0.87737300  0.11222600  1
  O  O26  1  0.66356100  0.11971400  0.88898500  1
  O  O27  1  0.88028600  0.33643900  0.11101500  1
  O  O28  1  0.50793700  0.50521600  0.91503200  1
  O  O29  1  0.49478400  0.49206300  0.08496800  1
  O  O30  1  0.23445800  0.76554200  0.00000000  1
  O  O31  1  0.76747700  0.23252300  0.00000000  1
loop_
_geom_bond_atom_site_label_1
_geom_bond_atom_site_label_2
_geom_bond_distance
_geom_bond_site_symmetry_2
O0 Pb11 2.251869 1_455
O0 Pb15 2.313121 1_455
O0 Pb6 2.350990 1_555
O0 Pb4 2.379413 1_455
O1 Pb10 2.251869 1_565
O1 Pb14 2.313121 1_565
O1 Pb7 2.350990 1_555
O1 Pb5 2.379413 1_565
O2 Pb9 2.235098 1_555
O2 Pb13 2.321660 1_545
O2 Pb6 2.330611 1_555
O2 Pb4 2.383172 1_545
O3 Pb8 2.235098 1_555
O3 Pb12 2.321660 1_655
O3 Pb7 2.330611 1_555
O3 Pb5 2.383172 1_655
O4 Si0 1.633809 1_545
O4 Pb11 2.402155 1_455
O5 Si1 1.633809 1_655
O5 Pb10 2.402155 1_565
O6 Si2 1.633976 1_555
O6 Pb11 2.413103 1_555
O7 Si3 1.633976 1_555
O7 Pb10 2.413103 1_555
O8 Si0 1.637326 1_655
O8 Pb9 2.334010 1_565
O9 Si1 1.637326 1_545
O9 Pb8 2.334010 1_455
O10 Si2 1.641260 1_555
O10 Pb9 2.364745 1_555
O10 Pb6 2.764892 1_555
O11 Si3 1.641260 1_555
O11 Pb8 2.364745 1_555
O11 Pb7 2.764892 1_555
O12 Si2 1.652489 1_555
O12 Si0 1.653245 1_555
O13 Si3 1.652489 1_555
O13 Si1 1.653245 1_555
O14 Si1 1.655100 1_645
O14 Si0 1.655100 1_645
O15 Si3 1.656400 1_555
O15 Si2 1.656400 1_555
O16 Pb1 2.253186 1_555
O16 Pb5 2.319108 1_555
O16 Pb12 2.324442 1_555
O16 Pb14 2.392993 1_555
O17 Pb0 2.253186 1_555
O17 Pb4 2.319108 1_555
O17 Pb13 2.324442 1_555
O17 Pb15 2.392993 1_555
O18 Pb3 2.238920 1_555
O18 Pb7 2.298970 1_555
O18 Pb12 2.352962 1_655
O18 Pb14 2.386637 1_565
O19 Pb2 2.238920 1_555
O19 Pb6 2.298970 1_555
O19 Pb13 2.352962 1_545
O19 Pb15 2.386637 1_455
O20 Si4 1.632779 1_555
O20 Pb1 2.361763 1_565
O21 Si5 1.632779 1_555
O21 Pb0 2.361763 1_455
O22 Si6 1.634918 1_555
O22 Pb1 2.386598 1_655
O23 Si7 1.634918 1_555
O23 Pb0 2.386598 1_545
O24 Si4 1.639720 1_555
O24 Pb3 2.359869 1_455
O24 Pb12 2.697901 1_555
O25 Si5 1.639720 1_555
O25 Pb2 2.359869 1_565
O25 Pb13 2.697901 1_555
O26 Si6 1.635091 1_555
O26 Pb3 2.323070 1_545
O27 Si7 1.635091 1_555
O27 Pb2 2.323070 1_655
O28 Si4 1.646716 1_555
O28 Si6 1.649748 1_555
O29 Si5 1.646716 1_555
O29 Si7 1.649748 1_555
O30 Si5 1.657411 1_555
O30 Si4 1.657411 1_554
O31 Si7 1.656619 1_555
O31 Si6 1.656619 1_554
