# generated using pymatgen
data_Fe3(Ni10B3)2
_symmetry_space_group_name_H-M   'P 1'
_cell_length_a   7.40087231
_cell_length_b   7.40087231
_cell_length_c   7.40087231
_cell_angle_alpha   60.00000000
_cell_angle_beta   60.00000000
_cell_angle_gamma   60.00000000
_symmetry_Int_Tables_number   1
_chemical_formula_structural   Fe3(Ni10B3)2
_chemical_formula_sum   'Fe3 Ni20 B6'
_cell_volume   286.63798131
_cell_formula_units_Z   1
loop_
 _symmetry_equiv_pos_site_id
 _symmetry_equiv_pos_as_xyz
  1  'x, y, z'
loop_
 _atom_site_type_symbol
 _atom_site_label
 _atom_site_symmetry_multiplicity
 _atom_site_fract_x
 _atom_site_fract_y
 _atom_site_fract_z
 _atom_site_occupancy
  Fe  Fe0  1  0.00000000  0.00000000  0.00000000  1
  Fe  Fe1  1  0.75000000  0.75000000  0.75000000  1
  Fe  Fe2  1  0.25000000  0.25000000  0.25000000  1
  Ni  Ni0  1  0.00000000  0.00000000  0.33780100  1
  Ni  Ni1  1  0.66219900  0.00000000  0.33780100  1
  Ni  Ni2  1  0.00000000  0.66219900  0.33780100  1
  Ni  Ni3  1  0.66219900  0.33780100  0.00000000  1
  Ni  Ni4  1  0.00000000  0.33780100  0.00000000  1
  Ni  Ni5  1  0.00000000  0.33780100  0.66219900  1
  Ni  Ni6  1  0.33780100  0.66219900  0.00000000  1
  Ni  Ni7  1  0.33780100  0.00000000  0.66219900  1
  Ni  Ni8  1  0.33780100  0.00000000  0.00000000  1
  Ni  Ni9  1  0.00000000  0.00000000  0.66219900  1
  Ni  Ni10  1  0.00000000  0.66219900  0.00000000  1
  Ni  Ni11  1  0.66219900  0.00000000  0.00000000  1
  Ni  Ni12  1  0.61730200  0.61730200  0.14809400  1
  Ni  Ni13  1  0.61730200  0.14809400  0.61730200  1
  Ni  Ni14  1  0.14809400  0.61730200  0.61730200  1
  Ni  Ni15  1  0.61730200  0.61730200  0.61730200  1
  Ni  Ni16  1  0.38269800  0.38269800  0.85190600  1
  Ni  Ni17  1  0.38269800  0.85190600  0.38269800  1
  Ni  Ni18  1  0.85190600  0.38269800  0.38269800  1
  Ni  Ni19  1  0.38269800  0.38269800  0.38269800  1
  B  B0  1  0.72797800  0.72797800  0.27202200  1
  B  B1  1  0.27202200  0.72797800  0.27202200  1
  B  B2  1  0.72797800  0.27202200  0.27202200  1
  B  B3  1  0.27202200  0.27202200  0.72797800  1
  B  B4  1  0.72797800  0.27202200  0.72797800  1
  B  B5  1  0.27202200  0.72797800  0.72797800  1
loop_
_geom_bond_atom_site_label_1
_geom_bond_atom_site_label_2
_geom_bond_distance
_geom_bond_site_symmetry_2
Fe0 Ni4 2.500022 1_555
Fe0 Ni8 2.500022 1_555
Fe0 Ni0 2.500022 1_555
Fe0 Ni7 2.500022 1_554
Fe0 Ni2 2.500022 1_545
Fe0 Ni5 2.500022 1_554
Fe0 Ni1 2.500022 1_455
Fe0 Ni6 2.500022 1_545
Fe0 Ni3 2.500022 1_455
Fe0 Ni10 2.500022 1_545
Fe0 Ni9 2.500022 1_554
Fe0 Ni11 2.500022 1_455
Fe1 Ni14 2.405597 1_655
Fe1 Ni12 2.405597 1_556
Fe1 Ni13 2.405597 1_565
Fe1 Ni15 2.405597 1_555
Fe2 Ni19 2.405597 1_555
Fe2 Ni17 2.405597 1_545
Fe2 Ni18 2.405597 1_455
Fe2 Ni16 2.405597 1_554
B0 Ni1 2.071224 1_565
B0 Ni2 2.071224 1_655
B0 Ni11 2.071224 1_565
B0 Ni10 2.071224 1_655
B0 Ni17 2.087222 1_555
B0 Ni18 2.087222 1_555
B0 Ni15 2.087222 1_555
B0 Ni12 2.087222 1_555
B1 Ni0 2.071224 1_565
B1 Ni8 2.071224 1_565
B1 Ni2 2.071224 1_555
B1 Ni6 2.071224 1_555
B1 Ni17 2.087222 1_555
B1 Ni19 2.087222 1_555
B1 Ni14 2.087222 1_555
B1 Ni12 2.087222 1_555
B2 Ni4 2.071224 1_655
B2 Ni0 2.071224 1_655
B2 Ni3 2.071224 1_555
B2 Ni1 2.071224 1_555
B2 Ni18 2.087222 1_555
B2 Ni13 2.087222 1_555
B2 Ni19 2.087222 1_555
B2 Ni12 2.087222 1_555
B3 Ni4 2.071224 1_556
B3 Ni8 2.071224 1_556
B3 Ni5 2.071224 1_555
B3 Ni7 2.071224 1_555
B3 Ni16 2.087222 1_555
B3 Ni13 2.087222 1_555
B3 Ni19 2.087222 1_555
B3 Ni14 2.087222 1_555
B4 Ni3 2.071224 1_556
B4 Ni5 2.071224 1_655
B4 Ni11 2.071224 1_556
B4 Ni9 2.071224 1_655
B4 Ni16 2.087222 1_555
B4 Ni13 2.087222 1_555
B4 Ni18 2.087222 1_555
B4 Ni15 2.087222 1_555
B5 Ni7 2.071224 1_565
B5 Ni6 2.071224 1_556
B5 Ni10 2.071224 1_556
B5 Ni9 2.071224 1_565
B5 Ni16 2.087222 1_555
B5 Ni14 2.087222 1_555
B5 Ni17 2.087222 1_555
B5 Ni15 2.087222 1_555
