# generated using pymatgen
data_Sr2YGaW2O7
_symmetry_space_group_name_H-M   'P 1'
_cell_length_a   12.04410095
_cell_length_b   12.04410095
_cell_length_c   12.04410095
_cell_angle_alpha   152.22009031
_cell_angle_beta   150.86281877
_cell_angle_gamma   40.69415158
_symmetry_Int_Tables_number   1
_chemical_formula_structural   Sr2YGaW2O7
_chemical_formula_sum   'Sr4 Y2 Ga2 W4 O14'
_cell_volume   395.66109239
_cell_formula_units_Z   2
loop_
 _symmetry_equiv_pos_site_id
 _symmetry_equiv_pos_as_xyz
  1  'x, y, z'
loop_
 _atom_site_type_symbol
 _atom_site_label
 _atom_site_symmetry_multiplicity
 _atom_site_fract_x
 _atom_site_fract_y
 _atom_site_fract_z
 _atom_site_occupancy
  Sr  Sr0  1  0.37912000  0.81339300  0.51078800  1
  Sr  Sr1  1  0.62088000  0.13166800  0.43427300  1
  Sr  Sr2  1  0.80260500  0.31339300  0.43427300  1
  Sr  Sr3  1  0.19739500  0.63166800  0.51078800  1
  Y  Y0  1  0.00000000  0.49978000  0.49978000  1
  Y  Y1  1  0.50000000  0.99978000  0.49978000  1
  Ga  Ga0  1  0.82989400  0.71333600  0.04323100  1
  Ga  Ga1  1  0.17010600  0.21333600  0.88344200  1
  W  W0  1  0.57399900  0.57097000  0.00186800  1
  W  W1  1  0.93089800  0.92786900  0.00186800  1
  W  W2  1  0.06910200  0.07097000  0.99697100  1
  W  W3  1  0.42600100  0.42786900  0.99697100  1
  O  O0  1  0.73767900  0.60979600  0.49425100  1
  O  O1  1  0.89824200  0.38672000  0.78496200  1
  O  O2  1  0.61554500  0.10979600  0.87211700  1
  O  O3  1  0.23254100  0.20176400  0.07835900  1
  O  O4  1  0.75715600  0.89903500  0.50513900  1
  O  O5  1  0.89389600  0.39903500  0.14187900  1
  O  O6  1  0.10175800  0.88672000  0.48847800  1
  O  O7  1  0.38445500  0.25657300  0.49425100  1
  O  O8  1  0.26232100  0.75657300  0.87211700  1
  O  O9  1  0.62340600  0.70176400  0.96922300  1
  O  O10  1  0.76745900  0.84581800  0.96922300  1
  O  O11  1  0.37659400  0.34581800  0.07835900  1
  O  O12  1  0.24284400  0.74798200  0.14187900  1
  O  O13  1  0.10610400  0.24798200  0.50513900  1
loop_
_geom_bond_atom_site_label_1
_geom_bond_atom_site_label_2
_geom_bond_distance
_geom_bond_site_symmetry_2
Ga0 O9 1.852619 1_554
Ga0 O10 1.852650 1_554
Ga0 O6 1.928380 1_655
Ga0 O1 1.933549 1_554
Ga1 O11 1.852629 1_556
Ga1 O3 1.852639 1_556
Ga1 O1 1.928384 1_455
Ga1 O6 1.933547 1_545
O0 W1 2.165726 1_556
O0 W3 2.177037 1_554
O0 Y0 2.276509 1_655
O0 Sr2 2.463329 1_555
O1 Sr1 2.527782 1_555
O1 Sr2 2.527782 1_555
O2 W3 2.165726 1_555
O2 W1 2.177037 1_546
O2 Y1 2.276509 1_545
O2 Sr0 2.463329 1_545
O3 W2 2.432358 1_554
O3 Sr1 2.521012 1_555
O3 Sr3 2.631360 1_555
O4 W0 2.167694 1_555
O4 W2 2.169555 1_665
O4 Y1 2.271509 1_555
O4 Sr1 2.466504 1_565
O5 W2 2.167694 1_654
O5 W0 2.169555 1_555
O5 Y0 2.271509 1_655
O5 Sr3 2.466504 1_655
O6 Sr0 2.527782 1_555
O6 Sr3 2.527782 1_555
O7 W0 2.165725 1_556
O7 W2 2.177036 1_554
O7 Y1 2.276520 1_545
O7 Sr1 2.463323 1_555
O8 W2 2.165722 1_565
O8 W0 2.177041 1_556
O8 Y0 2.276517 1_555
O8 Sr3 2.463320 1_555
O9 W0 2.432369 1_556
O9 Sr3 2.521017 1_555
O9 Sr1 2.631364 1_566
O10 W1 2.432358 1_556
O10 Sr0 2.521012 1_555
O10 Sr2 2.631360 1_566
O11 W3 2.432369 1_554
O11 Sr2 2.521018 1_555
O11 Sr0 2.631359 1_555
O12 W3 2.167690 1_554
O12 W1 2.169559 1_455
O12 Y1 2.271517 1_555
O12 Sr0 2.466495 1_555
O13 W1 2.167693 1_445
O13 W3 2.169554 1_555
O13 Y0 2.271520 1_555
O13 Sr2 2.466498 1_455
