# generated using pymatgen
data_Li4Mn3O7
_symmetry_space_group_name_H-M   'P 1'
_cell_length_a   10.58925903
_cell_length_b   10.58925903
_cell_length_c   8.81041329
_cell_angle_alpha   78.70085495
_cell_angle_beta   78.70085495
_cell_angle_gamma   15.65837923
_symmetry_Int_Tables_number   1
_chemical_formula_structural   Li4Mn3O7
_chemical_formula_sum   'Li8 Mn6 O14'
_cell_volume   261.37721290
_cell_formula_units_Z   2
loop_
 _symmetry_equiv_pos_site_id
 _symmetry_equiv_pos_as_xyz
  1  'x, y, z'
loop_
 _atom_site_type_symbol
 _atom_site_label
 _atom_site_symmetry_multiplicity
 _atom_site_fract_x
 _atom_site_fract_y
 _atom_site_fract_z
 _atom_site_occupancy
  Li  Li0  1  0.50000000  0.50000000  0.50000000  1
  Li  Li1  1  0.36129700  0.36129700  0.07535700  1
  Li  Li2  1  0.21549700  0.21549700  0.64772800  1
  Li  Li3  1  0.06989800  0.06989800  0.18012600  1
  Li  Li4  1  0.93010200  0.93010200  0.81987400  1
  Li  Li5  1  0.78450300  0.78450300  0.35227200  1
  Li  Li6  1  0.63870300  0.63870300  0.92464300  1
  Li  Li7  1  0.50000000  0.50000000  0.00000000  1
  Mn  Mn0  1  0.06925800  0.06925800  0.73439100  1
  Mn  Mn1  1  0.93074200  0.93074200  0.26560900  1
  Mn  Mn2  1  0.78895600  0.78895600  0.85750200  1
  Mn  Mn3  1  0.64067700  0.64067700  0.43907200  1
  Mn  Mn4  1  0.35932300  0.35932300  0.56092800  1
  Mn  Mn5  1  0.21104400  0.21104400  0.14249800  1
  O  O0  1  0.50603200  0.50603200  0.74883500  1
  O  O1  1  0.36586300  0.36586300  0.30723600  1
  O  O2  1  0.22425700  0.22425700  0.88150500  1
  O  O3  1  0.07557900  0.07557900  0.48907700  1
  O  O4  1  0.92874500  0.92874500  0.05832400  1
  O  O5  1  0.79444100  0.79444100  0.59432000  1
  O  O6  1  0.64516500  0.64516500  0.17414100  1
  O  O7  1  0.49396800  0.49396800  0.25116500  1
  O  O8  1  0.35483500  0.35483500  0.82585900  1
  O  O9  1  0.20555900  0.20555900  0.40568000  1
  O  O10  1  0.07125500  0.07125500  0.94167600  1
  O  O11  1  0.92442100  0.92442100  0.51092300  1
  O  O12  1  0.77574300  0.77574300  0.11849500  1
  O  O13  1  0.63413700  0.63413700  0.69276400  1
loop_
_geom_bond_atom_site_label_1
_geom_bond_atom_site_label_2
_geom_bond_distance
_geom_bond_site_symmetry_2
Li0 O11 2.131705 1_455
Li0 O11 2.131705 1_545
Li0 O3 2.131705 1_565
Li0 O3 2.131705 1_655
Li0 O7 2.220837 1_555
Li0 O0 2.220837 1_555
Li1 O4 2.005454 1_545
Li1 O4 2.005454 1_455
Li1 O1 2.064034 1_555
Li1 O8 2.228960 1_554
Li1 O12 2.275392 1_545
Li1 O12 2.275392 1_455
Li2 O2 2.103751 1_555
Li2 O5 2.176532 1_455
Li2 O5 2.176532 1_545
Li2 O9 2.183369 1_555
Li2 O13 2.210017 1_545
Li2 O13 2.210017 1_455
Li3 O10 2.095398 1_554
Li3 O6 2.131758 1_455
Li3 O6 2.131758 1_545
Li3 O7 2.148490 1_545
Li3 O7 2.148490 1_455
Li4 O4 2.095398 1_556
Li4 O8 2.131758 1_565
Li4 O8 2.131758 1_655
Li4 O0 2.148490 1_565
Li4 O0 2.148490 1_655
Li5 O12 2.103751 1_555
Li5 O9 2.176532 1_565
Li5 O9 2.176532 1_655
Li5 O5 2.183369 1_555
Li5 O1 2.210017 1_655
Li5 O1 2.210017 1_565
Li6 O10 2.005454 1_565
Li6 O10 2.005454 1_655
Li6 O13 2.064034 1_555
Li6 O6 2.228960 1_556
Li6 O2 2.275392 1_565
Li6 O2 2.275392 1_655
Li7 O4 2.067838 1_455
Li7 O4 2.067838 1_545
Li7 O10 2.067838 1_654
Li7 O10 2.067838 1_564
Li7 O0 2.191352 1_554
Li7 O7 2.191352 1_555
Mn0 O10 1.835013 1_555
Mn0 O0 1.946762 1_545
Mn0 O0 1.946762 1_455
Mn0 O13 1.967413 1_455
Mn0 O13 1.967413 1_545
Mn0 O3 2.139043 1_555
Mn1 O4 1.835013 1_555
Mn1 O7 1.946762 1_565
Mn1 O7 1.946762 1_655
Mn1 O1 1.967413 1_655
Mn1 O1 1.967413 1_565
Mn1 O11 2.139043 1_555
Mn2 O2 1.963310 1_565
Mn2 O2 1.963310 1_655
Mn2 O8 1.979025 1_565
Mn2 O8 1.979025 1_655
Mn2 O12 2.261018 1_556
Mn2 O5 2.298752 1_555
Mn3 O9 1.965195 1_655
Mn3 O9 1.965195 1_565
Mn3 O3 1.975422 1_655
Mn3 O3 1.975422 1_565
Mn3 O13 2.212086 1_555
Mn3 O6 2.317367 1_555
Mn4 O5 1.965195 1_545
Mn4 O5 1.965195 1_455
Mn4 O11 1.975422 1_455
Mn4 O11 1.975422 1_545
Mn4 O1 2.212086 1_555
Mn4 O8 2.317367 1_555
Mn5 O12 1.963310 1_545
Mn5 O12 1.963310 1_455
Mn5 O6 1.979025 1_455
Mn5 O6 1.979025 1_545
Mn5 O2 2.261018 1_554
Mn5 O9 2.298752 1_555
