# generated using pymatgen
data_Eu(NO3)3
_symmetry_space_group_name_H-M   'P 1'
_cell_length_a   6.30790555
_cell_length_b   9.93733702
_cell_length_c   11.07755411
_cell_angle_alpha   87.04920438
_cell_angle_beta   90.00000000
_cell_angle_gamma   90.00000000
_symmetry_Int_Tables_number   1
_chemical_formula_structural   Eu(NO3)3
_chemical_formula_sum   'Eu4 N12 O36'
_cell_volume   693.46232725
_cell_formula_units_Z   4
loop_
 _symmetry_equiv_pos_site_id
 _symmetry_equiv_pos_as_xyz
  1  'x, y, z'
loop_
 _atom_site_type_symbol
 _atom_site_label
 _atom_site_symmetry_multiplicity
 _atom_site_fract_x
 _atom_site_fract_y
 _atom_site_fract_z
 _atom_site_occupancy
  Eu  Eu0  1  0.68444730  0.28694700  0.74159042  1
  Eu  Eu1  1  0.18444730  0.21305300  0.25840958  1
  Eu  Eu2  1  0.31555270  0.71305300  0.25840958  1
  Eu  Eu3  1  0.81555270  0.78694700  0.74159042  1
  N  N0  1  0.38594802  0.17127607  0.49323494  1
  N  N1  1  0.88594802  0.32872393  0.50676506  1
  N  N2  1  0.61405198  0.82872393  0.50676506  1
  N  N3  1  0.11405198  0.67127607  0.49323494  1
  N  N4  1  0.73284626  0.19387092  0.20989311  1
  N  N5  1  0.23284626  0.30612908  0.79010689  1
  N  N6  1  0.26715374  0.80612908  0.79010689  1
  N  N7  1  0.76715374  0.69387092  0.20989311  1
  N  N8  1  0.71455972  0.53214491  0.88214782  1
  N  N9  1  0.21455972  0.96785509  0.11785218  1
  N  N10  1  0.28544028  0.46785509  0.11785218  1
  N  N11  1  0.78544028  0.03214491  0.88214782  1
  O  O0  1  0.42730891  0.27398203  0.42431234  1
  O  O1  1  0.92730891  0.22601797  0.57568766  1
  O  O2  1  0.57269109  0.72601797  0.57568766  1
  O  O3  1  0.07269109  0.77398203  0.42431234  1
  O  O4  1  0.26076834  0.08504315  0.45360138  1
  O  O5  1  0.76076834  0.41495685  0.54639862  1
  O  O6  1  0.73923166  0.91495685  0.54639862  1
  O  O7  1  0.23923166  0.58504315  0.45360138  1
  O  O8  1  0.46473946  0.15609892  0.59546045  1
  O  O9  1  0.96473946  0.34390108  0.40453955  1
  O  O10  1  0.53526054  0.84390108  0.40453955  1
  O  O11  1  0.03526054  0.65609892  0.59546045  1
  O  O12  1  0.82350386  0.10533512  0.27762793  1
  O  O13  1  0.32350386  0.39466488  0.72237207  1
  O  O14  1  0.17649614  0.89466488  0.72237207  1
  O  O15  1  0.67649614  0.60533512  0.27762793  1
  O  O16  1  0.53928579  0.18524994  0.18696429  1
  O  O17  1  0.03928579  0.31475006  0.81303571  1
  O  O18  1  0.46071421  0.81475006  0.81303571  1
  O  O19  1  0.96071421  0.68524994  0.18696429  1
  O  O20  1  0.84074241  0.28998984  0.16439949  1
  O  O21  1  0.34074241  0.21001016  0.83560051  1
  O  O22  1  0.15925759  0.71001016  0.83560051  1
  O  O23  1  0.65925759  0.78998984  0.16439949  1
  O  O24  1  0.73004713  0.53972407  0.76533299  1
  O  O25  1  0.23004713  0.96027593  0.23466701  1
  O  O26  1  0.26995287  0.46027593  0.23466701  1
  O  O27  1  0.76995287  0.03972407  0.76533299  1
  O  O28  1  0.66095646  0.42237904  0.93170603  1
  O  O29  1  0.16095646  0.07762096  0.06829397  1
  O  O30  1  0.33904354  0.57762096  0.06829397  1
  O  O31  1  0.83904354  0.92237904  0.93170603  1
  O  O32  1  0.75544106  0.63468725  0.93704454  1
  O  O33  1  0.25544106  0.86531275  0.06295546  1
  O  O34  1  0.24455894  0.36531275  0.06295546  1
  O  O35  1  0.74455894  0.13468725  0.93704454  1
loop_
_geom_bond_atom_site_label_1
_geom_bond_atom_site_label_2
_geom_bond_distance
_geom_bond_site_symmetry_2
Eu0 O17 2.394819 1_655
Eu0 O1 2.491089 1_555
Eu0 O5 2.498415 1_555
Eu0 O21 2.507499 1_555
Eu0 O27 2.515774 1_555
Eu0 O13 2.520215 1_555
Eu0 O8 2.539398 1_555
Eu0 O24 2.555333 1_555
Eu0 O28 2.561317 1_555
Eu0 O35 2.604558 1_555
Eu1 O16 2.394819 1_555
Eu1 O0 2.491089 1_555
Eu1 O4 2.498415 1_555
Eu1 O20 2.507499 1_455
Eu1 O26 2.515774 1_555
Eu1 O12 2.520215 1_455
Eu1 O9 2.539398 1_455
Eu1 O25 2.555333 1_545
Eu1 O29 2.561317 1_555
Eu1 O34 2.604558 1_555
Eu2 O19 2.394819 1_455
Eu2 O3 2.491089 1_555
Eu2 O7 2.498415 1_555
Eu2 O23 2.507499 1_555
Eu2 O25 2.515774 1_555
Eu2 O15 2.520215 1_555
Eu2 O10 2.539398 1_555
Eu2 O26 2.555333 1_555
Eu2 O30 2.561317 1_555
Eu2 O33 2.604558 1_555
Eu3 O18 2.394819 1_555
Eu3 O2 2.491089 1_555
Eu3 O6 2.498415 1_555
Eu3 O22 2.507499 1_655
Eu3 O24 2.515774 1_555
Eu3 O14 2.520215 1_655
Eu3 O11 2.539398 1_655
Eu3 O27 2.555333 1_565
Eu3 O31 2.561317 1_555
Eu3 O32 2.604558 1_555
N0 O8 1.238761 1_555
N0 O4 1.260681 1_555
N0 O0 1.269818 1_555
N1 O9 1.238761 1_555
N1 O5 1.260681 1_555
N1 O1 1.269818 1_555
N2 O10 1.238761 1_555
N2 O6 1.260681 1_555
N2 O2 1.269818 1_555
N3 O11 1.238761 1_555
N3 O7 1.260681 1_555
N3 O3 1.269818 1_555
N4 O16 1.250935 1_555
N4 O20 1.256969 1_555
N4 O12 1.263379 1_555
N5 O17 1.250935 1_555
N5 O21 1.256969 1_555
N5 O13 1.263379 1_555
N6 O18 1.250935 1_555
N6 O22 1.256969 1_555
N6 O14 1.263379 1_555
N7 O19 1.250935 1_555
N7 O23 1.256969 1_555
N7 O15 1.263379 1_555
N8 O32 1.240350 1_555
N8 O28 1.242522 1_555
N8 O24 1.296023 1_555
N9 O33 1.240350 1_555
N9 O29 1.242522 1_565
N9 O25 1.296023 1_555
N10 O34 1.240350 1_555
N10 O30 1.242522 1_555
N10 O26 1.296023 1_555
N11 O35 1.240350 1_555
N11 O31 1.242522 1_545
N11 O27 1.296023 1_555
