# generated using pymatgen
data_Te2Mo3W(SeS2)2
_symmetry_space_group_name_H-M   'P 1'
_cell_length_a   3.31055189
_cell_length_b   3.31055189
_cell_length_c   37.63057300
_cell_angle_alpha   90.00000000
_cell_angle_beta   90.00000000
_cell_angle_gamma   119.99999771
_symmetry_Int_Tables_number   1
_chemical_formula_structural   Te2Mo3W(SeS2)2
_chemical_formula_sum   'Te2 Mo3 W1 Se2 S4'
_cell_volume   357.16777700
_cell_formula_units_Z   1
loop_
 _symmetry_equiv_pos_site_id
 _symmetry_equiv_pos_as_xyz
  1  'x, y, z'
loop_
 _atom_site_type_symbol
 _atom_site_label
 _atom_site_symmetry_multiplicity
 _atom_site_fract_x
 _atom_site_fract_y
 _atom_site_fract_z
 _atom_site_occupancy
  Te  Te0  1  0.33333300  0.66666700  0.33294500  1
  Te  Te1  1  0.33333300  0.66666700  0.23065100  1
  Mo  Mo0  1  0.33333300  0.66666700  0.09389900  1
  Mo  Mo1  1  0.33333300  0.66666700  0.46968600  1
  Mo  Mo2  1  0.66666700  0.33333300  0.65753200  1
  W  W0  1  0.66666700  0.33333300  0.28180300  1
  Se  Se0  1  0.33333300  0.66666700  0.70217400  1
  Se  Se1  1  0.33333300  0.66666700  0.61288900  1
  S  S0  1  0.66666700  0.33333300  0.05331000  1
  S  S1  1  0.66666700  0.33333300  0.42908000  1
  S  S2  1  0.66666700  0.33333300  0.13450800  1
  S  S3  1  0.66666700  0.33333300  0.51027200  1
loop_
_geom_bond_atom_site_label_1
_geom_bond_atom_site_label_2
_geom_bond_distance
_geom_bond_site_symmetry_2
Te0 W0 2.712371 1_455
Te0 W0 2.712371 1_565
Te0 W0 2.712375 1_555
Te1 W0 2.712638 1_455
Te1 W0 2.712638 1_565
Te1 W0 2.712642 1_555
Mo0 S0 2.446662 1_455
Mo0 S0 2.446662 1_565
Mo0 S0 2.446667 1_555
Mo0 S2 2.447132 1_455
Mo0 S2 2.447132 1_565
Mo0 S2 2.447137 1_555
Mo1 S3 2.446592 1_455
Mo1 S3 2.446592 1_565
Mo1 S3 2.446596 1_555
Mo1 S1 2.447062 1_455
Mo1 S1 2.447062 1_565
Mo1 S1 2.447066 1_555
Mo2 Se0 2.544665 1_545
Mo2 Se0 2.544665 1_655
Mo2 Se0 2.544670 1_555
Mo2 Se1 2.544690 1_545
Mo2 Se1 2.544690 1_655
Mo2 Se1 2.544694 1_555
