# generated using pymatgen
data_Nd3(Ga2Si)2
_symmetry_space_group_name_H-M   'P 1'
_cell_length_a   4.18648653
_cell_length_b   4.27549194
_cell_length_c   21.82903686
_cell_angle_alpha   84.38133880
_cell_angle_beta   84.48119038
_cell_angle_gamma   89.99055220
_symmetry_Int_Tables_number   1
_chemical_formula_structural   Nd3(Ga2Si)2
_chemical_formula_sum   'Nd6 Ga8 Si4'
_cell_volume   387.02772909
_cell_formula_units_Z   2
loop_
 _symmetry_equiv_pos_site_id
 _symmetry_equiv_pos_as_xyz
  1  'x, y, z'
loop_
 _atom_site_type_symbol
 _atom_site_label
 _atom_site_symmetry_multiplicity
 _atom_site_fract_x
 _atom_site_fract_y
 _atom_site_fract_z
 _atom_site_occupancy
  Nd  Nd0  1  0.95784402  0.70809852  0.08380865  1
  Nd  Nd1  1  0.29093301  0.04110194  0.41795707  1
  Nd  Nd2  1  0.62346185  0.37358754  0.75290121  1
  Nd  Nd3  1  0.37665783  0.62676749  0.24653371  1
  Nd  Nd4  1  0.70902343  0.95898119  0.58194443  1
  Nd  Nd5  1  0.04138964  0.29105458  0.91759599  1
  Ga  Ga0  1  0.82012974  0.57056701  0.35911269  1
  Ga  Ga1  1  0.15241501  0.90281037  0.69440840  1
  Ga  Ga2  1  0.43149968  0.18144203  0.13717774  1
  Ga  Ga3  1  0.76467453  0.51397500  0.47106921  1
  Ga  Ga4  1  0.09706424  0.84613093  0.80636985  1
  Ga  Ga5  1  0.84800501  0.09800210  0.30438459  1
  Ga  Ga6  1  0.18070643  0.43013652  0.63959246  1
  Ga  Ga7  1  0.51416378  0.76332827  0.97344756  1
  Si  Si0  1  0.90281829  0.15326013  0.19398556  1
  Si  Si1  1  0.23535946  0.48582609  0.52910671  1
  Si  Si2  1  0.56831943  0.81857639  0.86331495  1
  Si  Si3  1  0.48553461  0.23635188  0.02728523  1
loop_
_geom_bond_atom_site_label_1
_geom_bond_atom_site_label_2
_geom_bond_distance
_geom_bond_site_symmetry_2
Nd0 Si0 3.200182 1_555
Nd0 Si0 3.201481 1_565
Nd0 Si3 3.229930 1_655
Nd0 Si3 3.230405 1_665
Nd0 Si3 3.233467 1_565
Nd0 Si3 3.233905 1_555
Nd1 Si1 3.215732 1_545
Nd1 Si1 3.217302 1_555
Nd2 Si2 3.204151 1_545
Nd2 Si2 3.205139 1_555
Nd3 Si0 3.199016 1_555
Nd3 Si0 3.200496 1_455
Nd3 Si0 3.200787 1_565
Nd3 Si0 3.201344 1_465
Nd4 Si1 3.200737 1_655
Nd4 Si1 3.202049 1_555
Nd4 Si1 3.203691 1_665
Nd4 Si1 3.204081 1_565
Nd5 Si3 3.160989 1_556
Nd5 Si3 3.165751 1_456
Nd5 Si2 3.211781 1_545
Nd5 Si2 3.213797 1_445
Nd5 Si2 3.214472 1_555
Nd5 Si2 3.215569 1_455
Ga0 Ga3 2.420785 1_555
Ga0 Ga5 2.443112 1_555
Ga0 Ga5 2.443728 1_565
Ga0 Nd3 3.210254 1_555
Ga0 Nd3 3.210711 1_655
Ga0 Nd1 3.250029 1_565
Ga0 Nd1 3.250792 1_555
Ga0 Nd1 3.251989 1_655
Ga0 Nd1 3.252134 1_665
Ga1 Ga4 2.420893 1_555
Ga1 Ga6 2.444078 1_565
Ga1 Ga6 2.444605 1_555
Ga1 Nd4 3.207992 1_455
Ga1 Nd4 3.209203 1_555
Ga1 Nd2 3.247066 1_465
Ga1 Nd2 3.247455 1_455
Ga1 Nd2 3.249017 1_555
Ga1 Nd2 3.249537 1_565
Ga2 Si3 2.376157 1_555
Ga2 Si0 2.426307 1_555
Ga2 Si0 2.427746 1_455
Ga2 Nd3 3.187588 1_555
Ga2 Nd3 3.187696 1_545
Ga2 Nd0 3.205444 1_545
Ga2 Nd0 3.205807 1_555
Ga2 Nd0 3.207607 1_455
Ga2 Nd0 3.208165 1_445
Ga3 Si1 2.439817 1_655
Ga3 Si1 2.441371 1_555
Ga3 Nd1 3.201858 1_655
Ga3 Nd1 3.204346 1_555
Ga3 Nd1 3.205638 1_665
Ga3 Nd1 3.207203 1_565
Ga3 Nd4 3.210887 1_545
Ga3 Nd4 3.213284 1_555
Ga4 Si2 2.427834 1_555
Ga4 Si2 2.429233 1_455
Ga4 Nd2 3.204091 1_555
Ga4 Nd2 3.206794 1_455
Ga4 Nd2 3.208731 1_565
Ga4 Nd2 3.210511 1_465
Ga4 Nd5 3.216293 1_555
Ga4 Nd5 3.219213 1_565
Ga5 Si0 2.387106 1_555
Ga5 Nd1 3.226449 1_655
Ga5 Nd1 3.227153 1_555
Ga5 Nd3 3.241747 1_655
Ga5 Nd3 3.242128 1_645
Ga5 Nd3 3.243196 1_555
Ga5 Nd3 3.244486 1_545
Ga6 Si1 2.388983 1_555
Ga6 Nd2 3.221282 1_555
Ga6 Nd2 3.223645 1_455
Ga6 Nd4 3.239296 1_545
Ga6 Nd4 3.239934 1_555
Ga6 Nd4 3.242649 1_455
Ga6 Nd4 3.242922 1_445
Ga7 Si2 2.381349 1_555
Ga7 Si3 2.433904 1_566
Ga7 Si3 2.434421 1_556
Ga7 Nd0 3.171551 1_556
Ga7 Nd0 3.177003 1_456
Ga7 Nd5 3.224047 1_665
Ga7 Nd5 3.224656 1_655
Ga7 Nd5 3.227810 1_565
Ga7 Nd5 3.229333 1_555
