# generated using pymatgen
data_SrCaGdBiO6
_symmetry_space_group_name_H-M   'P 1'
_cell_length_a   5.96615349
_cell_length_b   5.96615349
_cell_length_c   8.65833430
_cell_angle_alpha   90.00000000
_cell_angle_beta   90.00000000
_cell_angle_gamma   90.39153272
_symmetry_Int_Tables_number   1
_chemical_formula_structural   SrCaGdBiO6
_chemical_formula_sum   'Sr2 Ca2 Gd2 Bi2 O12'
_cell_volume   308.18610501
_cell_formula_units_Z   2
loop_
 _symmetry_equiv_pos_site_id
 _symmetry_equiv_pos_as_xyz
  1  'x, y, z'
loop_
 _atom_site_type_symbol
 _atom_site_label
 _atom_site_symmetry_multiplicity
 _atom_site_fract_x
 _atom_site_fract_y
 _atom_site_fract_z
 _atom_site_occupancy
  Sr  Sr0  1  0.50000000  0.50000000  0.25000000  1
  Sr  Sr1  1  0.50000000  0.50000000  0.75000000  1
  Ca  Ca0  1  -0.00000000  -0.00000000  0.25000000  1
  Ca  Ca1  1  -0.00000000  -0.00000000  0.75000000  1
  Gd  Gd0  1  -0.00000000  0.50000000  0.50000000  1
  Gd  Gd1  1  0.50000000  -0.00000000  -0.00000000  1
  Bi  Bi0  1  -0.00000000  0.50000000  -0.00000000  1
  Bi  Bi1  1  0.50000000  -0.00000000  0.50000000  1
  O  O0  1  -0.00000000  0.50000000  0.24414796  1
  O  O1  1  0.50000000  -0.00000000  0.25585204  1
  O  O2  1  -0.00000000  0.50000000  0.75585204  1
  O  O3  1  0.50000000  -0.00000000  0.74414796  1
  O  O4  1  0.31711624  0.66543016  0.00000000  1
  O  O5  1  0.68288376  0.33456984  -0.00000000  1
  O  O6  1  0.83979852  0.82084280  0.00000000  1
  O  O7  1  0.16020148  0.17915720  -0.00000000  1
  O  O8  1  0.82084280  0.83979852  0.50000000  1
  O  O9  1  0.17915720  0.16020148  0.50000000  1
  O  O10  1  0.33456984  0.68288376  0.50000000  1
  O  O11  1  0.66543016  0.31711624  0.50000000  1
loop_
_geom_bond_atom_site_label_1
_geom_bond_atom_site_label_2
_geom_bond_distance
_geom_bond_site_symmetry_2
Ca0 O7 2.593741 1_555
Ca0 O9 2.593741 1_555
Ca0 O8 2.593741 1_445
Ca0 O6 2.593741 1_445
Ca0 O0 2.983507 1_555
Ca0 O1 2.983507 1_555
Ca0 O1 2.983507 1_455
Ca0 O0 2.983507 1_545
Ca1 O7 2.593741 1_556
Ca1 O9 2.593741 1_555
Ca1 O8 2.593741 1_445
Ca1 O6 2.593741 1_446
Ca1 O2 2.983507 1_555
Ca1 O3 2.983507 1_555
Ca1 O2 2.983507 1_545
Ca1 O3 2.983507 1_455
Gd0 O0 2.215252 1_555
Gd0 O2 2.215252 1_555
Gd0 O11 2.268294 1_455
Gd0 O10 2.268294 1_555
Gd0 O8 2.298265 1_455
Gd0 O9 2.298265 1_555
Gd1 O3 2.215252 1_554
Gd1 O1 2.215252 1_555
Gd1 O4 2.268294 1_545
Gd1 O5 2.268294 1_555
Gd1 O7 2.298265 1_555
Gd1 O6 2.298265 1_545
Bi0 O2 2.113915 1_554
Bi0 O0 2.113915 1_555
Bi0 O5 2.127943 1_455
Bi0 O4 2.127943 1_555
Bi0 O6 2.145387 1_455
Bi0 O7 2.145387 1_555
Bi1 O1 2.113915 1_555
Bi1 O3 2.113915 1_555
Bi1 O10 2.127943 1_545
Bi1 O11 2.127943 1_555
Bi1 O9 2.145387 1_555
Bi1 O8 2.145387 1_545
O0 Sr0 2.983507 1_555
O0 Sr0 2.983507 1_455
O1 Sr0 2.983507 1_555
O1 Sr0 2.983507 1_545
O2 Sr1 2.983507 1_455
O2 Sr1 2.983507 1_555
O3 Sr1 2.983507 1_545
O3 Sr1 2.983507 1_555
O4 Sr0 2.620076 1_555
O4 Sr1 2.620076 1_554
O5 Sr0 2.620076 1_555
O5 Sr1 2.620076 1_554
O10 Sr0 2.620076 1_555
O10 Sr1 2.620076 1_555
O11 Sr0 2.620076 1_555
O11 Sr1 2.620076 1_555
