# generated using pymatgen
data_Mn3Cr2Sn(PO4)6
_symmetry_space_group_name_H-M   'P 1'
_cell_length_a   8.53307203
_cell_length_b   8.53307203
_cell_length_c   8.53307246
_cell_angle_alpha   61.45415109
_cell_angle_beta   61.45415109
_cell_angle_gamma   61.45414725
_symmetry_Int_Tables_number   1
_chemical_formula_structural   Mn3Cr2Sn(PO4)6
_chemical_formula_sum   'Mn3 Cr2 Sn1 P6 O24'
_cell_volume   453.68604438
_cell_formula_units_Z   1
loop_
 _symmetry_equiv_pos_site_id
 _symmetry_equiv_pos_as_xyz
  1  'x, y, z'
loop_
 _atom_site_type_symbol
 _atom_site_label
 _atom_site_symmetry_multiplicity
 _atom_site_fract_x
 _atom_site_fract_y
 _atom_site_fract_z
 _atom_site_occupancy
  Mn  Mn0  1  0.85222000  0.85222000  0.85222000  1
  Mn  Mn1  1  0.64730900  0.64730900  0.64730900  1
  Mn  Mn2  1  0.35459200  0.35459200  0.35459200  1
  Cr  Cr0  1  0.99695800  0.99695800  0.99695800  1
  Cr  Cr1  1  0.50075300  0.50075300  0.50075300  1
  Sn  Sn0  1  0.14615400  0.14615400  0.14615400  1
  P  P0  1  0.74602400  0.45227400  0.05159200  1
  P  P1  1  0.45227400  0.05159200  0.74602400  1
  P  P2  1  0.05159200  0.74602400  0.45227400  1
  P  P3  1  0.94746100  0.25195700  0.55327900  1
  P  P4  1  0.55327900  0.94746100  0.25195700  1
  P  P5  1  0.25195700  0.55327900  0.94746100  1
  O  O0  1  0.90314500  0.67577500  0.48668300  1
  O  O1  1  0.67577500  0.48668300  0.90314500  1
  O  O2  1  0.93407000  0.09480100  0.75306100  1
  O  O3  1  0.48668300  0.90314500  0.67577500  1
  O  O4  1  0.98679600  0.17804700  0.40017500  1
  O  O5  1  0.74717100  0.40284700  0.56475300  1
  O  O6  1  0.75306100  0.93407000  0.09480100  1
  O  O7  1  0.56475300  0.74717100  0.40284700  1
  O  O8  1  0.82071300  0.60090100  0.01402700  1
  O  O9  1  0.40284700  0.56475300  0.74717100  1
  O  O10  1  0.90649900  0.24742800  0.06446700  1
  O  O11  1  0.60090100  0.01402700  0.82071300  1
  O  O12  1  0.40017500  0.98679600  0.17804700  1
  O  O13  1  0.09480100  0.75306100  0.93407000  1
  O  O14  1  0.59479900  0.43597700  0.25427200  1
  O  O15  1  0.17804700  0.40017500  0.98679600  1
  O  O16  1  0.43597700  0.25427200  0.59479900  1
  O  O17  1  0.24742800  0.06446700  0.90649900  1
  O  O18  1  0.25427200  0.59479900  0.43597700  1
  O  O19  1  0.01402700  0.82071300  0.60090100  1
  O  O20  1  0.51083800  0.10343300  0.31874700  1
  O  O21  1  0.06446700  0.90649900  0.24742800  1
  O  O22  1  0.31874700  0.51083800  0.10343300  1
  O  O23  1  0.10343300  0.31874700  0.51083800  1
loop_
_geom_bond_atom_site_label_1
_geom_bond_atom_site_label_2
_geom_bond_distance
_geom_bond_site_symmetry_2
Mn0 O11 1.985955 1_565
Mn0 O8 1.985955 1_556
Mn0 O19 1.985955 1_655
Mn0 O13 2.152090 1_655
Mn0 O2 2.152090 1_565
Mn0 O6 2.152090 1_556
Mn1 O3 2.008064 1_555
Mn1 O0 2.008064 1_555
Mn1 O1 2.008064 1_555
Mn1 O5 2.169265 1_555
Mn1 O9 2.169265 1_555
Mn1 O7 2.169265 1_555
Mn2 O20 1.992522 1_555
Mn2 O23 1.992522 1_555
Mn2 O22 1.992522 1_555
Mn2 O18 2.128776 1_555
Mn2 O14 2.128776 1_555
Mn2 O16 2.128776 1_555
Cr0 O13 2.072417 1_655
Cr0 O6 2.072417 1_556
Cr0 O2 2.072417 1_565
Cr0 O10 2.161165 1_566
Cr0 O17 2.161165 1_665
Cr0 O21 2.161165 1_656
Cr1 O5 2.097639 1_555
Cr1 O7 2.097639 1_555
Cr1 O9 2.097639 1_555
Cr1 O18 2.108829 1_555
Cr1 O16 2.108829 1_555
Cr1 O14 2.108829 1_555
O0 P2 1.500706 1_655
O1 P0 1.500706 1_556
O2 P3 1.578915 1_555
O3 P1 1.500706 1_565
O4 P3 1.543789 1_555
O4 Sn0 2.003660 1_655
O5 P3 1.563909 1_555
O6 P4 1.578915 1_555
O7 P4 1.563909 1_555
O8 P0 1.518585 1_555
O9 P5 1.563909 1_555
O10 P0 1.617163 1_555
O10 Sn0 2.124220 1_655
O11 P1 1.518585 1_555
O12 P4 1.543789 1_555
O12 Sn0 2.003660 1_565
O13 P5 1.578914 1_555
O14 P0 1.576175 1_555
O15 P5 1.543789 1_555
O15 Sn0 2.003660 1_556
O16 P1 1.576175 1_555
O17 P1 1.617163 1_555
O17 Sn0 2.124220 1_556
O18 P2 1.576175 1_555
O19 P2 1.518585 1_555
O20 P4 1.514708 1_545
O21 P2 1.617163 1_555
O21 Sn0 2.124220 1_565
O22 P5 1.514708 1_554
O23 P3 1.514708 1_455
