# generated using pymatgen
data_LiEr4Zr4O14
_symmetry_space_group_name_H-M   'P 1'
_cell_length_a   3.54261862
_cell_length_b   15.18944877
_cell_length_c   12.91141613
_cell_angle_alpha   30.64454428
_cell_angle_beta   56.71913723
_cell_angle_gamma   62.19633506
_symmetry_Int_Tables_number   1
_chemical_formula_structural   LiEr4Zr4O14
_chemical_formula_sum   'Li1 Er4 Zr4 O14'
_cell_volume   296.02396121
_cell_formula_units_Z   1
loop_
 _symmetry_equiv_pos_site_id
 _symmetry_equiv_pos_as_xyz
  1  'x, y, z'
loop_
 _atom_site_type_symbol
 _atom_site_label
 _atom_site_symmetry_multiplicity
 _atom_site_fract_x
 _atom_site_fract_y
 _atom_site_fract_z
 _atom_site_occupancy
  Li  Li0  1  0.53552800  0.24328200  0.73893400  1
  Er  Er0  1  0.00009700  0.23680000  0.01307000  1
  Er  Er1  1  0.95499200  0.00427100  0.51812700  1
  Er  Er2  1  0.98542200  0.73022800  0.52702600  1
  Er  Er3  1  0.02103300  0.51903600  0.47039200  1
  Zr  Zr0  1  0.95258900  0.96840600  0.05526700  1
  Zr  Zr1  1  0.98341200  0.53253400  0.97569600  1
  Zr  Zr2  1  0.04900000  0.26854100  0.45684800  1
  Zr  Zr3  1  0.98751700  0.74419600  0.01197400  1
  O  O0  1  0.18212400  0.98366000  0.17523500  1
  O  O1  1  0.30076700  0.15402500  0.19552400  1
  O  O2  1  0.20997700  0.01212100  0.63278100  1
  O  O3  1  0.22414000  0.51890800  0.11895200  1
  O  O4  1  0.34776000  0.27237800  0.55365300  1
  O  O5  1  0.26000400  0.77953500  0.09039600  1
  O  O6  1  0.82937400  0.27680900  0.30842700  1
  O  O7  1  0.66102700  0.02359500  0.89583100  1
  O  O8  1  0.74417400  0.51749300  0.36035600  1
  O  O9  1  0.83661400  0.24967700  0.83196900  1
  O  O10  1  0.75687400  0.72514600  0.39637200  1
  O  O11  1  0.22393600  0.76736200  0.62064600  1
  O  O12  1  0.71824600  0.48396000  0.90686500  1
  O  O13  1  0.73539300  0.74696600  0.88524100  1
loop_
_geom_bond_atom_site_label_1
_geom_bond_atom_site_label_2
_geom_bond_distance
_geom_bond_site_symmetry_2
Li0 O7 1.846433 1_555
Li0 O9 2.072111 1_555
Li0 O9 2.072469 1_455
Li0 O8 2.379530 1_555
Li0 O4 2.451592 1_655
Li0 O4 2.452259 1_555
Er0 O1 2.161551 1_455
Er0 O1 2.161690 1_555
Er0 O0 2.213628 1_545
Er0 O12 2.473678 1_454
Er0 O9 2.536690 1_454
Er0 O9 2.537073 1_554
Er1 O1 2.172756 1_655
Er1 O2 2.212103 1_655
Er1 O2 2.212179 1_555
Er1 O6 2.232378 1_555
Er1 O13 2.293596 1_545
Er1 O11 2.366172 1_645
Er2 O0 2.208560 1_655
Er2 O11 2.287262 1_555
Er2 O11 2.287344 1_655
Er2 O10 2.299622 1_655
Er2 O10 2.299694 1_555
Er2 O12 2.362686 1_555
Er3 O8 2.142131 1_555
Er3 O8 2.142198 1_455
Er3 O10 2.165749 1_455
Er3 O9 2.289334 1_455
Er3 O5 2.367898 1_555
Er3 O4 2.630991 1_555
O0 Zr0 2.299959 1_455
O0 Zr0 2.300112 1_555
O2 Zr2 2.186591 1_555
O2 Zr3 2.371992 1_446
O3 Zr2 2.136069 1_555
O3 Zr3 2.186840 1_455
O3 Zr1 2.258109 1_454
O3 Zr1 2.258212 1_554
O4 Zr2 2.078357 1_655
O4 Zr2 2.078592 1_555
O5 Zr3 2.176338 1_555
O5 Zr3 2.176354 1_455
O5 Zr0 2.238421 1_455
O6 Zr1 2.129008 1_554
O6 Zr2 2.329061 1_655
O6 Zr2 2.329466 1_555
O7 Zr0 2.135972 1_446
O7 Zr0 2.136273 1_546
O8 Zr3 2.166846 1_555
O8 Zr2 2.564822 1_655
O9 Zr0 2.280732 1_546
O10 Zr0 2.137188 1_555
O11 Zr1 2.208260 1_455
O12 Zr1 2.215322 1_555
O12 Zr1 2.215495 1_455
O13 Zr1 2.157708 1_555
O13 Zr3 2.219548 1_456
O13 Zr3 2.219796 1_556
