# generated using pymatgen
data_Li4V3P8O29
_symmetry_space_group_name_H-M   'P 1'
_cell_length_a   9.77549000
_cell_length_b   9.79400213
_cell_length_c   14.23553230
_cell_angle_alpha   89.63906673
_cell_angle_beta   89.76818855
_cell_angle_gamma   60.15335126
_symmetry_Int_Tables_number   1
_chemical_formula_structural   Li4V3P8O29
_chemical_formula_sum   'Li8 V6 P16 O58'
_cell_volume   1182.12457533
_cell_formula_units_Z   2
loop_
 _symmetry_equiv_pos_site_id
 _symmetry_equiv_pos_as_xyz
  1  'x, y, z'
loop_
 _atom_site_type_symbol
 _atom_site_label
 _atom_site_symmetry_multiplicity
 _atom_site_fract_x
 _atom_site_fract_y
 _atom_site_fract_z
 _atom_site_occupancy
  Li  Li0  1  0.31247600  0.91021200  0.55252700  1
  Li  Li1  1  0.08631500  0.22513200  0.43613400  1
  Li  Li2  1  0.77363500  0.90972100  0.06380900  1
  Li  Li3  1  0.22239000  0.08386200  0.94555400  1
  Li  Li4  1  0.91854000  0.77886700  0.55674400  1
  Li  Li5  1  0.09286400  0.68254100  0.95010900  1
  Li  Li6  1  0.67849100  0.09355900  0.43987200  1
  Li  Li7  1  0.69076900  0.22671700  0.94174400  1
  V  V0  1  0.56690400  0.43550600  0.74605600  1
  V  V1  1  0.43080300  0.99824200  0.75142800  1
  V  V2  1  0.99572000  0.43426200  0.24799800  1
  V  V3  1  0.00307600  0.56301100  0.75089300  1
  V  V4  1  0.56739200  0.00111100  0.24843400  1
  V  V5  1  0.43051600  0.56635100  0.25258800  1
  P  P0  1  0.31596700  0.76648600  0.84235200  1
  P  P1  1  0.32059000  0.90866600  0.33835300  1
  P  P2  1  0.77045100  0.31326200  0.33787500  1
  P  P3  1  0.66815500  0.66847700  0.63138400  1
  P  P4  1  0.66533200  0.66714900  0.13063200  1
  P  P5  1  0.91335200  0.31371700  0.83647800  1
  P  P6  1  0.08805500  0.23176900  0.65493000  1
  P  P7  1  0.76931600  0.90846700  0.84141700  1
  P  P8  1  0.22991500  0.09044800  0.16033300  1
  P  P9  1  0.91069800  0.76916500  0.34246900  1
  P  P10  1  0.08973200  0.68208600  0.16325200  1
  P  P11  1  0.33407300  0.33337300  0.86944800  1
  P  P12  1  0.33211000  0.33214700  0.37122600  1
  P  P13  1  0.22955800  0.68615000  0.65887600  1
  P  P14  1  0.67903600  0.08869600  0.66174200  1
  P  P15  1  0.68110500  0.23506700  0.15520800  1
  O  O0  1  0.23618000  0.76836600  0.57318600  1
  O  O1  1  0.33854900  0.74245300  0.33334200  1
  O  O2  1  0.20948200  0.99913500  0.24900600  1
  O  O3  1  0.23426100  0.01469500  0.06994500  1
  O  O4  1  0.47680600  0.61610600  0.82153700  1
  O  O5  1  0.33783400  0.91336300  0.83969200  1
  O  O6  1  0.52210000  0.66294100  0.17722800  1
  O  O7  1  0.61723500  0.47410900  0.32467600  1
  O  O8  1  0.74916400  0.24514600  0.06387700  1
  O  O9  1  0.74366300  0.33835600  0.83689300  1
  O  O10  1  0.51454100  0.81368100  0.66973900  1
  O  O11  1  0.66847400  0.51861500  0.67691100  1
  O  O12  1  0.48094800  0.89614100  0.32258000  1
  O  O13  1  0.67479600  0.66445900  0.52752100  1
  O  O14  1  0.67476900  0.65677000  0.02685500  1
  O  O15  1  0.62228600  0.89494900  0.82437200  1
  O  O16  1  0.81706300  0.51912700  0.17759300  1
  O  O17  1  0.67206100  0.81615900  0.16580100  1
  O  O18  1  0.91568900  0.33920000  0.33850800  1
  O  O19  1  0.98813600  0.21692600  0.74059700  1
  O  O20  1  0.00724800  0.22812700  0.91969000  1
  O  O21  1  0.01129200  0.24725800  0.56316000  1
  O  O22  1  0.90431500  0.47689700  0.82046000  1
  O  O23  1  0.81878100  0.66899300  0.67384900  1
  O  O24  1  0.74341300  0.91699500  0.33636200  1
  O  O25  1  0.08455100  0.25849700  0.17051600  1
  O  O26  1  0.90313700  0.61795300  0.32234800  1
  O  O27  1  0.23905000  0.99560900  0.42653200  1
  O  O28  1  0.75633200  0.00462600  0.57272700  1
  O  O29  1  0.09985400  0.38167700  0.68061800  1
  O  O30  1  0.92093800  0.74248300  0.83847900  1
  O  O31  1  0.79057200  0.99758200  0.75064800  1
  O  O32  1  0.25246700  0.08197900  0.66252700  1
  O  O33  1  0.18162500  0.33174000  0.33026700  1
  O  O34  1  0.09731800  0.52127100  0.17951100  1
  O  O35  1  0.00124500  0.75879200  0.07446900  1
  O  O36  1  0.98885400  0.76421300  0.43249500  1
  O  O37  1  0.00065300  0.79032000  0.25239400  1
  O  O38  1  0.08318700  0.66256700  0.66220000  1
  O  O39  1  0.32637900  0.18795300  0.83213800  1
  O  O40  1  0.38140500  0.10039300  0.17871700  1
  O  O41  1  0.18389800  0.48726600  0.82576300  1
  O  O42  1  0.32763900  0.33799200  0.47556900  1
  O  O43  1  0.32772900  0.34659300  0.97345500  1
  O  O44  1  0.51858700  0.09785500  0.67896700  1
  O  O45  1  0.33307900  0.48022900  0.32426900  1
  O  O46  1  0.48538800  0.18515100  0.33396400  1
  O  O47  1  0.25681400  0.65894500  0.16575000  1
  O  O48  1  0.20914700  0.78941300  0.75063300  1
  O  O49  1  0.23397000  0.75740800  0.92766300  1
  O  O50  1  0.38220400  0.52358200  0.67669900  1
  O  O51  1  0.48465800  0.33184400  0.82704600  1
  O  O52  1  0.66577900  0.08447800  0.16110900  1
  O  O53  1  0.52086600  0.38306200  0.17865900  1
  O  O54  1  0.76411900  0.99485700  0.92944100  1
  O  O55  1  0.65789700  0.25607500  0.66818200  1
  O  O56  1  0.76959200  0.22180900  0.42093900  1
  O  O57  1  0.79533100  0.21677300  0.24155500  1
loop_
_geom_bond_atom_site_label_1
_geom_bond_atom_site_label_2
_geom_bond_distance
_geom_bond_site_symmetry_2
Li0 O0 1.896615 1_555
Li0 O27 1.955946 1_555
Li0 O32 2.160961 1_565
Li0 O10 2.393260 1_555
Li1 O21 1.921124 1_555
Li1 O27 1.990642 1_545
Li1 O18 2.026333 1_455
Li1 O33 2.273022 1_555
Li2 O35 1.971014 1_655
Li2 O52 2.044873 1_565
Li2 O54 2.065637 1_554
Li2 O17 2.193372 1_555
Li3 O3 1.875181 1_556
Li3 O20 1.896571 1_555
Li3 O5 2.115485 1_545
Li3 O39 2.382627 1_555
Li4 O36 1.875287 1_555
Li4 O28 1.992144 1_565
Li4 O38 2.077212 1_655
Li4 O23 2.428344 1_555
Li5 O49 1.882195 1_555
Li5 O35 1.957549 1_556
Li5 O30 2.173090 1_455
Li5 O41 2.432875 1_555
Li6 O56 1.884327 1_555
Li6 O28 2.060518 1_555
Li6 O24 2.120509 1_545
Li6 O46 2.227455 1_555
Li7 O8 1.869707 1_556
Li7 O54 2.021088 1_545
Li7 O9 2.055887 1_555
Li7 O51 2.392953 1_555
O0 P13 1.476300 1_555
O1 P1 1.550108 1_555
O1 V5 1.891490 1_555
O2 P8 1.610797 1_565
O2 P1 1.619131 1_555
O3 P8 1.479230 1_555
O4 P0 1.557515 1_555
O4 V0 1.877388 1_555
O5 P0 1.556203 1_555
O5 V1 1.955856 1_555
O6 P4 1.565798 1_555
O6 V5 1.915665 1_555
O7 P2 1.552512 1_555
O7 V5 1.887598 1_555
O8 P15 1.483076 1_555
O9 P5 1.552858 1_555
O9 V0 1.982235 1_555
O10 P3 1.566219 1_555
O10 V1 1.958507 1_555
O11 P3 1.599315 1_555
O11 V0 1.844913 1_555
O12 P1 1.526061 1_555
O12 V4 1.931051 1_565
O13 P3 1.479619 1_555
O14 P4 1.480802 1_555
O15 P7 1.528019 1_555
O15 V1 1.929539 1_555
O16 P4 1.613730 1_555
O16 V2 1.817766 1_555
O17 P4 1.577930 1_555
O17 V4 1.970832 1_565
O18 P2 1.561891 1_555
O18 V2 1.959784 1_555
O19 P6 1.609928 1_655
O19 P5 1.616945 1_555
O20 P5 1.476084 1_455
O21 P6 1.478142 1_555
O22 P5 1.571317 1_555
O22 V3 1.848336 1_655
O23 P3 1.596307 1_555
O23 V3 1.914754 1_655
O24 P9 1.555923 1_555
O24 V4 1.949279 1_565
O25 P8 1.556458 1_555
O25 V2 1.860724 1_455
O26 P9 1.547660 1_555
O26 V2 1.889854 1_555
O27 P1 1.505303 1_555
O28 P14 1.496918 1_555
O29 P6 1.574262 1_555
O29 V3 1.841817 1_555
O30 P7 1.563127 1_555
O30 V3 1.975773 1_655
O31 P14 1.617222 1_565
O31 P7 1.624412 1_555
O32 P6 1.549042 1_555
O32 V1 1.973593 1_545
O33 P12 1.586451 1_555
O33 V2 1.966857 1_455
O34 P10 1.555331 1_555
O34 V2 1.867409 1_455
O35 P10 1.503348 1_555
O36 P9 1.482816 1_555
O37 P10 1.606705 1_555
O37 P9 1.621504 1_455
O38 P13 1.559224 1_555
O38 V3 1.973495 1_555
O39 P11 1.559712 1_555
O39 V1 1.985931 1_545
O40 P8 1.555004 1_555
O40 V4 1.865149 1_555
O41 P11 1.614551 1_555
O41 V3 1.873726 1_555
O42 P12 1.486469 1_555
O43 P11 1.485413 1_555
O44 P14 1.544469 1_555
O44 V1 1.888310 1_545
O45 P12 1.597420 1_555
O45 V5 1.854974 1_555
O46 P12 1.566902 1_555
O46 V4 1.988861 1_555
O47 P10 1.533700 1_555
O47 V5 1.924569 1_555
O48 P13 1.607021 1_555
O48 P0 1.618497 1_555
O49 P0 1.478846 1_555
O50 P13 1.568191 1_555
O50 V0 1.852653 1_555
O51 P11 1.581918 1_555
O51 V0 1.948504 1_555
O52 P15 1.556604 1_555
O52 V4 1.973884 1_555
O53 P15 1.551768 1_555
O53 V5 1.883694 1_555
O54 P7 1.502901 1_555
O55 P14 1.550162 1_555
O55 V0 1.889202 1_555
O56 P2 1.481421 1_555
O57 P15 1.612156 1_555
O57 P2 1.617762 1_555
