# generated using pymatgen
data_FeO2
_symmetry_space_group_name_H-M   'P 1'
_cell_length_a   5.87714940
_cell_length_b   5.87714940
_cell_length_c   14.31061522
_cell_angle_alpha   88.55341733
_cell_angle_beta   88.55341733
_cell_angle_gamma   61.85198224
_symmetry_Int_Tables_number   1
_chemical_formula_structural   FeO2
_chemical_formula_sum   'Fe12 O24'
_cell_volume   435.65242540
_cell_formula_units_Z   12
loop_
 _symmetry_equiv_pos_site_id
 _symmetry_equiv_pos_as_xyz
  1  'x, y, z'
loop_
 _atom_site_type_symbol
 _atom_site_label
 _atom_site_symmetry_multiplicity
 _atom_site_fract_x
 _atom_site_fract_y
 _atom_site_fract_z
 _atom_site_occupancy
  Fe  Fe0  1  0.16650200  0.66293600  0.17032500  1
  Fe  Fe1  1  0.00312200  0.00312200  0.37743000  1
  Fe  Fe2  1  0.99850000  0.99850000  0.00540600  1
  Fe  Fe3  1  0.66293600  0.16650200  0.17032500  1
  Fe  Fe4  1  0.50047200  0.99792700  0.49910300  1
  Fe  Fe5  1  0.32827900  0.32827900  0.70530100  1
  Fe  Fe6  1  0.99792700  0.50047200  0.49910300  1
  Fe  Fe7  1  0.82818100  0.33731600  0.82830300  1
  Fe  Fe8  1  0.67086500  0.67086500  0.28849700  1
  Fe  Fe9  1  0.33731600  0.82818100  0.82830300  1
  Fe  Fe10  1  0.99706600  0.99706600  0.62356100  1
  Fe  Fe11  1  0.34061100  0.34061100  0.96097900  1
  O  O0  1  0.27637200  0.84140300  0.08513300  1
  O  O1  1  0.98845600  0.98845600  0.24888000  1
  O  O2  1  0.84140300  0.27637200  0.08513300  1
  O  O3  1  0.84888600  0.84888600  0.08805400  1
  O  O4  1  0.67865600  0.14602700  0.42155700  1
  O  O5  1  0.50105400  0.50105400  0.23647700  1
  O  O6  1  0.32281100  0.32281100  0.57569100  1
  O  O7  1  0.51724700  0.00210200  0.24282800  1
  O  O8  1  0.14602700  0.67865600  0.42155700  1
  O  O9  1  0.34667000  0.34667000  0.09241100  1
  O  O10  1  0.17510900  0.17510900  0.42317100  1
  O  O11  1  0.00210200  0.51724700  0.24282800  1
  O  O12  1  0.01475200  0.47754800  0.75779400  1
  O  O13  1  0.82388100  0.82388100  0.57680800  1
  O  O14  1  0.85579500  0.32206400  0.57809400  1
  O  O15  1  0.47754800  0.01475200  0.75779400  1
  O  O16  1  0.65897500  0.65897500  0.88773900  1
  O  O17  1  0.67925000  0.67925000  0.42112500  1
  O  O18  1  0.49519500  0.49519500  0.75828400  1
  O  O19  1  0.32206400  0.85579500  0.57809400  1
  O  O20  1  0.15532100  0.15532100  0.92055900  1
  O  O21  1  0.17345800  0.69770700  0.92216200  1
  O  O22  1  0.01466300  0.01466300  0.75817400  1
  O  O23  1  0.69770700  0.17345800  0.92216200  1
loop_
_geom_bond_atom_site_label_1
_geom_bond_atom_site_label_2
_geom_bond_distance
_geom_bond_site_symmetry_2
Fe0 O11 1.851570 1_555
Fe0 O0 1.880993 1_555
Fe0 O5 1.987684 1_555
Fe0 O9 2.001852 1_555
Fe0 O1 2.044304 1_455
Fe0 O3 2.046024 1_455
Fe1 O4 1.787580 1_455
Fe1 O8 1.787580 1_545
Fe1 O1 1.849897 1_445
Fe1 O10 1.871544 1_555
Fe2 O2 1.854581 1_565
Fe2 O0 1.854581 1_655
Fe2 O3 1.889367 1_555
Fe2 O20 1.965118 1_664
Fe2 O21 1.982675 1_654
Fe2 O23 1.982675 1_564
Fe3 O7 1.851570 1_555
Fe3 O2 1.880993 1_555
Fe3 O5 1.987684 1_555
Fe3 O9 2.001852 1_555
Fe3 O1 2.044304 1_545
Fe3 O3 2.046024 1_545
Fe4 O19 1.947790 1_555
Fe4 O4 1.959164 1_565
Fe4 O17 2.011634 1_555
Fe4 O10 2.022552 1_565
Fe4 O6 2.025862 1_565
Fe4 O13 2.027440 1_555
Fe5 O15 1.779739 1_555
Fe5 O12 1.779739 1_555
Fe5 O6 1.857239 1_555
Fe5 O18 1.866189 1_555
Fe6 O14 1.947790 1_555
Fe6 O8 1.959164 1_655
Fe6 O17 2.011634 1_555
Fe6 O10 2.022552 1_655
Fe6 O6 2.025862 1_655
Fe6 O13 2.027440 1_555
Fe7 O16 1.884382 1_555
Fe7 O12 1.911675 1_655
Fe7 O22 1.970768 1_655
Fe7 O23 1.974580 1_555
Fe7 O18 2.008399 1_555
Fe7 O20 2.168006 1_655
Fe8 O11 1.827368 1_655
Fe8 O7 1.827368 1_565
Fe8 O5 1.887055 1_555
Fe8 O17 1.902355 1_555
Fe9 O16 1.884382 1_555
Fe9 O15 1.911675 1_565
Fe9 O22 1.970768 1_565
Fe9 O21 1.974580 1_555
Fe9 O18 2.008399 1_555
Fe9 O20 2.168006 1_565
Fe10 O19 1.797026 1_655
Fe10 O14 1.797026 1_565
Fe10 O13 1.888344 1_555
Fe10 O22 1.939742 1_665
Fe11 O9 1.883661 1_556
Fe11 O21 1.923970 1_555
Fe11 O23 1.923970 1_555
Fe11 O20 1.972006 1_555
