# generated using pymatgen
data_NaMn3CuH24(SO6)4
_symmetry_space_group_name_H-M   'P 1'
_cell_length_a   11.04841286
_cell_length_b   11.04841286
_cell_length_c   11.04841317
_cell_angle_alpha   67.77465226
_cell_angle_beta   67.77465226
_cell_angle_gamma   67.77465720
_symmetry_Int_Tables_number   1
_chemical_formula_structural   NaMn3CuH24(SO6)4
_chemical_formula_sum   'Na2 Mn6 Cu2 H48 S8 O48'
_cell_volume   1111.32073851
_cell_formula_units_Z   2
loop_
 _symmetry_equiv_pos_site_id
 _symmetry_equiv_pos_as_xyz
  1  'x, y, z'
loop_
 _atom_site_type_symbol
 _atom_site_label
 _atom_site_symmetry_multiplicity
 _atom_site_fract_x
 _atom_site_fract_y
 _atom_site_fract_z
 _atom_site_occupancy
  Na  Na0  1  0.50354800  0.50354800  0.50354800  1
  Na  Na1  1  0.00354800  0.00354800  0.00354800  1
  Mn  Mn0  1  0.97175000  0.49253900  0.06815900  1
  Mn  Mn1  1  0.49253900  0.06815900  0.97175000  1
  Mn  Mn2  1  0.06815900  0.97175000  0.49253900  1
  Mn  Mn3  1  0.56815900  0.99253900  0.47175000  1
  Mn  Mn4  1  0.99253900  0.47175000  0.56815900  1
  Mn  Mn5  1  0.47175000  0.56815900  0.99253900  1
  Cu  Cu0  1  0.27205200  0.27205200  0.27205200  1
  Cu  Cu1  1  0.77205200  0.77205200  0.77205200  1
  H  H0  1  0.61275500  0.29531000  0.33781100  1
  H  H1  1  0.29531000  0.33781100  0.61275500  1
  H  H2  1  0.33781100  0.61275500  0.29531000  1
  H  H3  1  0.83781100  0.79531000  0.11275500  1
  H  H4  1  0.79531000  0.11275500  0.83781100  1
  H  H5  1  0.11275500  0.83781100  0.79531000  1
  H  H6  1  0.66964000  0.23930800  0.46156200  1
  H  H7  1  0.23930800  0.46156200  0.66964000  1
  H  H8  1  0.46156200  0.66964000  0.23930800  1
  H  H9  1  0.96156200  0.73930800  0.16964000  1
  H  H10  1  0.73930800  0.16964000  0.96156200  1
  H  H11  1  0.16964000  0.96156200  0.73930800  1
  H  H12  1  0.71140300  0.63447300  0.44558300  1
  H  H13  1  0.63447300  0.44558300  0.71140300  1
  H  H14  1  0.44558300  0.71140300  0.63447300  1
  H  H15  1  0.94558300  0.13447300  0.21140300  1
  H  H16  1  0.13447300  0.21140300  0.94558300  1
  H  H17  1  0.21140300  0.94558300  0.13447300  1
  H  H18  1  0.72508100  0.60894100  0.30937600  1
  H  H19  1  0.60894100  0.30937600  0.72508100  1
  H  H20  1  0.30937600  0.72508100  0.60894100  1
  H  H21  1  0.80937600  0.10894100  0.22508100  1
  H  H22  1  0.10894100  0.22508100  0.80937600  1
  H  H23  1  0.22508100  0.80937600  0.10894100  1
  H  H24  1  0.89824900  0.39261300  0.36218200  1
  H  H25  1  0.39261300  0.36218200  0.89824900  1
  H  H26  1  0.36218200  0.89824900  0.39261300  1
  H  H27  1  0.86218200  0.89261300  0.39824900  1
  H  H28  1  0.89261300  0.39824900  0.86218200  1
  H  H29  1  0.39824900  0.86218200  0.89261300  1
  H  H30  1  0.78960800  0.38268200  0.30928800  1
  H  H31  1  0.38268200  0.30928800  0.78960800  1
  H  H32  1  0.30928800  0.78960800  0.38268200  1
  H  H33  1  0.80928800  0.88268200  0.28960800  1
  H  H34  1  0.88268200  0.28960800  0.80928800  1
  H  H35  1  0.28960800  0.80928800  0.88268200  1
  H  H36  1  0.74481000  0.46644100  0.05099100  1
  H  H37  1  0.46644100  0.05099100  0.74481000  1
  H  H38  1  0.05099100  0.74481000  0.46644100  1
  H  H39  1  0.55099100  0.96644100  0.24481000  1
  H  H40  1  0.96644100  0.24481000  0.55099100  1
  H  H41  1  0.24481000  0.55099100  0.96644100  1
  H  H42  1  0.84335700  0.31139900  0.08325700  1
  H  H43  1  0.31139900  0.08325700  0.84335700  1
  H  H44  1  0.08325700  0.84335700  0.31139900  1
  H  H45  1  0.58325700  0.81139900  0.34335700  1
  H  H46  1  0.81139900  0.34335700  0.58325700  1
  H  H47  1  0.34335700  0.58325700  0.81139900  1
  S  S0  1  0.18228100  0.18228100  0.18228100  1
  S  S1  1  0.68228100  0.68228100  0.68228100  1
  S  S2  1  0.67626300  0.73457700  0.00220800  1
  S  S3  1  0.73457700  0.00220800  0.67626300  1
  S  S4  1  0.00220800  0.67626300  0.73457700  1
  S  S5  1  0.50220800  0.23457700  0.17626300  1
  S  S6  1  0.23457700  0.17626300  0.50220800  1
  S  S7  1  0.17626300  0.50220800  0.23457700  1
  O  O0  1  0.64865700  0.32361900  0.38982100  1
  O  O1  1  0.32361900  0.38982100  0.64865700  1
  O  O2  1  0.38982100  0.64865700  0.32361900  1
  O  O3  1  0.88982100  0.82361900  0.14865700  1
  O  O4  1  0.82361900  0.14865700  0.88982100  1
  O  O5  1  0.14865700  0.88982100  0.82361900  1
  O  O6  1  0.65908700  0.65000000  0.38239800  1
  O  O7  1  0.65000000  0.38239800  0.65908700  1
  O  O8  1  0.38239800  0.65908700  0.65000000  1
  O  O9  1  0.88239800  0.15000000  0.15908700  1
  O  O10  1  0.15000000  0.15908700  0.88239800  1
  O  O11  1  0.15908700  0.88239800  0.15000000  1
  O  O12  1  0.86087100  0.43025900  0.28201400  1
  O  O13  1  0.43025900  0.28201400  0.86087100  1
  O  O14  1  0.28201400  0.86087100  0.43025900  1
  O  O15  1  0.78201400  0.93025900  0.36087100  1
  O  O16  1  0.93025900  0.36087100  0.78201400  1
  O  O17  1  0.36087100  0.78201400  0.93025900  1
  O  O18  1  0.79009700  0.68064100  0.07161500  1
  O  O19  1  0.68064100  0.07161500  0.79009800  1
  O  O20  1  0.07161500  0.79009800  0.68064100  1
  O  O21  1  0.57161500  0.18064100  0.29009700  1
  O  O22  1  0.18064100  0.29009700  0.57161500  1
  O  O23  1  0.29009700  0.57161500  0.18064100  1
  O  O24  1  0.10181400  0.56403800  0.12153100  1
  O  O25  1  0.56403800  0.12153100  0.10181400  1
  O  O26  1  0.12153100  0.10181400  0.56403800  1
  O  O27  1  0.62153100  0.06403800  0.60181400  1
  O  O28  1  0.06403800  0.60181400  0.62153100  1
  O  O29  1  0.60181400  0.62153100  0.06403800  1
  O  O30  1  0.83906900  0.40932100  0.02679700  1
  O  O31  1  0.40932100  0.02679700  0.83906900  1
  O  O32  1  0.02679700  0.83906900  0.40932100  1
  O  O33  1  0.52679700  0.90932100  0.33906900  1
  O  O34  1  0.90932100  0.33906900  0.52679700  1
  O  O35  1  0.33906900  0.52679700  0.90932100  1
  O  O36  1  0.85354800  0.05514000  0.57615900  1
  O  O37  1  0.05514000  0.57615900  0.85354800  1
  O  O38  1  0.57615900  0.85354800  0.05514000  1
  O  O39  1  0.07615900  0.55514000  0.35354800  1
  O  O40  1  0.55514000  0.35354800  0.07615900  1
  O  O41  1  0.35354800  0.07615900  0.55514000  1
  O  O42  1  0.11852400  0.28792100  0.06968800  1
  O  O43  1  0.28792100  0.06968800  0.11852400  1
  O  O44  1  0.06968800  0.11852400  0.28792100  1
  O  O45  1  0.56968800  0.78792100  0.61852400  1
  O  O46  1  0.78792100  0.61852400  0.56968800  1
  O  O47  1  0.61852400  0.56968800  0.78792100  1
loop_
_geom_bond_atom_site_label_1
_geom_bond_atom_site_label_2
_geom_bond_distance
_geom_bond_site_symmetry_2
Na0 O1 2.460819 1_555
Na0 O2 2.460819 1_555
Na0 O0 2.460819 1_555
Na0 O6 2.467354 1_555
Na0 O7 2.467354 1_555
Na0 O8 2.467354 1_555
Na1 O3 2.460819 1_445
Na1 O5 2.460819 1_544
Na1 O4 2.460819 1_454
Na1 O10 2.467354 1_554
Na1 O9 2.467354 1_455
Na1 O11 2.467354 1_545
Mn0 O37 2.158391 1_654
Mn0 O12 2.185158 1_555
Mn0 O24 2.211081 1_655
Mn0 O42 2.226930 1_655
Mn0 O30 2.246627 1_555
Mn0 O18 2.279293 1_555
Mn1 O38 2.158391 1_546
Mn1 O13 2.185158 1_555
Mn1 O25 2.211081 1_556
Mn1 O43 2.226930 1_556
Mn1 O31 2.246627 1_555
Mn1 O19 2.279287 1_555
Mn2 O36 2.158391 1_465
Mn2 O14 2.185158 1_555
Mn2 O26 2.211081 1_565
Mn2 O44 2.226930 1_565
Mn2 O32 2.246627 1_555
Mn2 O20 2.279287 1_555
Mn3 O41 2.158391 1_565
Mn3 O15 2.185158 1_555
Mn3 O27 2.211081 1_565
Mn3 O45 2.226930 1_555
Mn3 O33 2.246627 1_555
Mn3 O21 2.279293 1_565
Mn4 O39 2.158391 1_655
Mn4 O16 2.185158 1_555
Mn4 O28 2.211081 1_655
Mn4 O46 2.226930 1_555
Mn4 O34 2.246627 1_555
Mn4 O22 2.279293 1_655
Mn5 O40 2.158391 1_556
Mn5 O17 2.185158 1_555
Mn5 O29 2.211081 1_556
Mn5 O47 2.226930 1_555
Mn5 O35 2.246627 1_555
Mn5 O23 2.279293 1_556
Cu0 S0 2.276778 1_555
Cu0 S5 2.292759 1_555
Cu0 S6 2.292759 1_555
Cu0 S7 2.292760 1_555
Cu1 S1 2.276778 1_555
Cu1 S3 2.292759 1_565
Cu1 S2 2.292759 1_556
Cu1 S4 2.292760 1_655
H0 O0 0.993785 1_555
H1 O1 0.993785 1_555
H2 O2 0.993785 1_555
H3 O3 0.993785 1_555
H4 O4 0.993785 1_555
H5 O5 0.993785 1_555
H6 O0 0.983255 1_555
H7 O1 0.983255 1_555
H8 O2 0.983255 1_555
H9 O3 0.983255 1_555
H10 O4 0.983255 1_555
H11 O5 0.983255 1_555
H12 O6 0.995239 1_555
H13 O7 0.995239 1_555
H14 O8 0.995239 1_555
H15 O9 0.995239 1_555
H16 O10 0.995239 1_555
H17 O11 0.995239 1_555
H18 O6 0.984858 1_555
H19 O7 0.984858 1_555
H20 O8 0.984858 1_555
H21 O9 0.984858 1_555
H22 O10 0.984858 1_555
H23 O11 0.984858 1_555
H24 O12 0.998063 1_555
H25 O13 0.998063 1_555
H26 O14 0.998063 1_555
H27 O15 0.998063 1_555
H28 O16 0.998063 1_555
H29 O17 0.998063 1_555
H30 O12 1.000400 1_555
H31 O13 1.000400 1_555
H32 O14 1.000400 1_555
H33 O15 1.000400 1_555
H34 O16 1.000400 1_555
H35 O17 1.000400 1_555
H36 O30 0.986964 1_555
H37 O31 0.986964 1_555
H38 O32 0.986964 1_555
H39 O33 0.986964 1_555
H40 O34 0.986964 1_555
H41 O35 0.986964 1_555
H42 O30 1.017288 1_555
H42 O9 1.621449 1_555
H43 O31 1.017288 1_555
H43 O10 1.621449 1_555
H44 O32 1.017288 1_555
H44 O11 1.621449 1_555
H45 O33 1.017288 1_555
H45 O6 1.621449 1_555
H46 O34 1.017288 1_555
H46 O7 1.621449 1_555
H47 O35 1.017288 1_555
H47 O8 1.621449 1_555
O18 S2 1.530311 1_555
O19 S3 1.530321 1_555
O20 S4 1.530321 1_555
O21 S5 1.530311 1_555
O22 S6 1.530311 1_555
O23 S7 1.530311 1_555
O24 S7 1.552365 1_555
O25 S5 1.552365 1_555
O26 S6 1.552365 1_555
O27 S3 1.552365 1_555
O28 S4 1.552365 1_555
O29 S2 1.552365 1_555
O36 S3 1.511763 1_555
O37 S4 1.511764 1_555
O38 S2 1.511764 1_555
O39 S7 1.511764 1_555
O40 S5 1.511763 1_555
O41 S6 1.511764 1_555
O42 S0 1.532477 1_555
O43 S0 1.532477 1_555
O44 S0 1.532477 1_555
O45 S1 1.532477 1_555
O46 S1 1.532477 1_555
O47 S1 1.532477 1_555
