# generated using pymatgen
data_Sr2CaI6
_symmetry_space_group_name_H-M   'P 1'
_cell_length_a   8.86065314
_cell_length_b   8.86065314
_cell_length_c   11.51564640
_cell_angle_alpha   86.56854278
_cell_angle_beta   86.56854278
_cell_angle_gamma   121.65174667
_symmetry_Int_Tables_number   1
_chemical_formula_structural   Sr2CaI6
_chemical_formula_sum   'Sr4 Ca2 I12'
_cell_volume   763.80033005
_cell_formula_units_Z   2
loop_
 _symmetry_equiv_pos_site_id
 _symmetry_equiv_pos_as_xyz
  1  'x, y, z'
loop_
 _atom_site_type_symbol
 _atom_site_label
 _atom_site_symmetry_multiplicity
 _atom_site_fract_x
 _atom_site_fract_y
 _atom_site_fract_z
 _atom_site_occupancy
  Sr  Sr0  1  0.29911800  0.61834300  0.54085700  1
  Sr  Sr1  1  0.38165700  0.70088200  0.95914300  1
  Sr  Sr2  1  0.61834300  0.29911800  0.04085700  1
  Sr  Sr3  1  0.70088200  0.38165700  0.45914300  1
  Ca  Ca0  1  0.04615400  0.95384600  0.25000000  1
  Ca  Ca1  1  0.95384600  0.04615400  0.75000000  1
  I  I0  1  0.29454600  0.36414700  0.14419000  1
  I  I1  1  0.95271000  0.56035400  0.19642100  1
  I  I2  1  0.02505800  0.77051900  0.53909000  1
  I  I3  1  0.22948100  0.97494200  0.96091000  1
  I  I4  1  0.43964600  0.04729000  0.30357900  1
  I  I5  1  0.63585300  0.70545400  0.35581000  1
  I  I6  1  0.36414700  0.29454600  0.64419000  1
  I  I7  1  0.56035400  0.95271000  0.69642100  1
  I  I8  1  0.77051900  0.02505800  0.03909000  1
  I  I9  1  0.97494200  0.22948100  0.46091000  1
  I  I10  1  0.04729000  0.43964600  0.80357900  1
  I  I11  1  0.70545400  0.63585300  0.85581000  1
loop_
_geom_bond_atom_site_label_1
_geom_bond_atom_site_label_2
_geom_bond_distance
_geom_bond_site_symmetry_2
Ca0 I0 3.208869 1_565
Ca0 I5 3.208869 1_455
Ca0 I4 3.242147 1_565
Ca0 I1 3.242147 1_455
Ca0 I3 3.565911 1_554
Ca0 I2 3.565911 1_555
Ca0 I8 3.795509 1_465
Ca0 I9 3.795509 1_465
Ca1 I6 3.208869 1_655
Ca1 I11 3.208869 1_545
Ca1 I10 3.242147 1_655
Ca1 I7 3.242147 1_545
Ca1 I9 3.565911 1_555
Ca1 I8 3.565911 1_556
Ca1 I2 3.795509 1_645
Ca1 I3 3.795509 1_645
I0 Sr1 3.265585 1_554
I0 Sr2 3.374585 1_555
I1 Sr2 3.358442 1_555
I1 Sr3 3.398469 1_555
I2 Sr0 3.339836 1_555
I2 Sr3 3.358494 1_455
I3 Sr1 3.339836 1_555
I3 Sr2 3.358494 1_566
I4 Sr3 3.358442 1_555
I4 Sr2 3.398469 1_555
I5 Sr0 3.265585 1_555
I5 Sr3 3.374585 1_555
I6 Sr3 3.265585 1_555
I6 Sr0 3.374585 1_555
I7 Sr0 3.358442 1_555
I7 Sr1 3.398469 1_555
I8 Sr2 3.339836 1_555
I8 Sr1 3.358494 1_544
I9 Sr3 3.339836 1_555
I9 Sr0 3.358494 1_655
I10 Sr1 3.358442 1_555
I10 Sr0 3.398469 1_555
I11 Sr2 3.265585 1_556
I11 Sr1 3.374585 1_555
