# generated using pymatgen
data_Mg6VSn
_symmetry_space_group_name_H-M   'P 1'
_cell_length_a   5.02587600
_cell_length_b   6.36663500
_cell_length_c   10.79723900
_cell_angle_alpha   90.00000000
_cell_angle_beta   90.00000000
_cell_angle_gamma   90.00000000
_symmetry_Int_Tables_number   1
_chemical_formula_structural   Mg6VSn
_chemical_formula_sum   'Mg12 V2 Sn2'
_cell_volume   345.48916866
_cell_formula_units_Z   2
loop_
 _symmetry_equiv_pos_site_id
 _symmetry_equiv_pos_as_xyz
  1  'x, y, z'
loop_
 _atom_site_type_symbol
 _atom_site_label
 _atom_site_symmetry_multiplicity
 _atom_site_fract_x
 _atom_site_fract_y
 _atom_site_fract_z
 _atom_site_occupancy
  Mg  Mg0  1  0.00000000  0.24757500  0.08214800  1
  Mg  Mg1  1  0.00000000  0.75242500  0.08214800  1
  Mg  Mg2  1  0.00000000  0.50000000  0.83429500  1
  Mg  Mg3  1  0.50000000  0.24463900  0.91469900  1
  Mg  Mg4  1  0.50000000  0.75536100  0.91469900  1
  Mg  Mg5  1  0.50000000  0.50000000  0.66723100  1
  Mg  Mg6  1  0.00000000  0.74757500  0.58214800  1
  Mg  Mg7  1  0.00000000  0.25242500  0.58214800  1
  Mg  Mg8  1  0.00000000  0.00000000  0.33429500  1
  Mg  Mg9  1  0.50000000  0.74463900  0.41469900  1
  Mg  Mg10  1  0.50000000  0.25536100  0.41469900  1
  Mg  Mg11  1  0.50000000  0.00000000  0.16723100  1
  V  V0  1  0.00000000  0.50000000  0.33227600  1
  V  V1  1  0.00000000  0.00000000  0.83227600  1
  Sn  Sn0  1  0.50000000  0.50000000  0.17250300  1
  Sn  Sn1  1  0.50000000  0.00000000  0.67250300  1
loop_
_geom_bond_atom_site_label_1
_geom_bond_atom_site_label_2
_geom_bond_distance
_geom_bond_site_symmetry_2
Mg0 Mg3 3.095807 1_454
Mg0 Mg3 3.095807 1_554
Mg0 Mg11 3.105361 1_555
Mg0 Mg11 3.105361 1_455
Mg0 Mg2 3.121606 1_554
Mg0 V1 3.124625 1_554
Mg0 Sn0 3.138373 1_455
Mg0 Sn0 3.138373 1_555
Mg0 V0 3.142690 1_555
Mg0 Mg8 3.145859 1_555
Mg0 Mg1 3.152439 1_545
Mg0 Mg1 3.214196 1_555
Mg1 Mg4 3.095807 1_554
Mg1 Mg4 3.095807 1_454
Mg1 Mg11 3.105361 1_565
Mg1 Mg11 3.105361 1_465
Mg1 Mg2 3.121606 1_554
Mg1 V1 3.124625 1_564
Mg1 Sn0 3.138373 1_555
Mg1 Sn0 3.138373 1_455
Mg1 V0 3.142690 1_555
Mg1 Mg8 3.145859 1_565
Mg2 Mg5 3.093325 1_455
Mg2 Mg5 3.093325 1_555
Mg2 Mg3 3.116363 1_455
Mg2 Mg4 3.116363 1_555
Mg2 Mg4 3.116363 1_455
Mg2 Mg3 3.116363 1_555
Mg2 Mg6 3.145859 1_555
Mg2 Mg7 3.145859 1_555
Mg2 V1 3.183392 1_565
Mg2 V1 3.183392 1_555
Mg3 Sn1 3.043742 1_555
Mg3 V1 3.087514 1_655
Mg3 V1 3.087514 1_555
Mg3 Mg4 3.115054 1_545
Mg3 Mg5 3.127719 1_555
Mg3 Sn0 3.223579 1_556
Mg3 Mg4 3.251581 1_555
Mg4 Sn1 3.043742 1_565
Mg4 V1 3.087514 1_565
Mg4 V1 3.087514 1_665
Mg4 Mg5 3.127719 1_555
Mg4 Sn0 3.223579 1_556
Mg5 Mg7 3.105361 1_555
Mg5 Mg7 3.105361 1_655
Mg5 Mg6 3.105361 1_555
Mg5 Mg6 3.105361 1_655
Mg5 Mg9 3.140144 1_555
Mg5 Sn1 3.183826 1_555
Mg5 Sn1 3.183826 1_565
Mg6 Mg9 3.095807 1_455
Mg6 Mg9 3.095807 1_555
Mg6 Mg8 3.121606 1_565
Mg6 V0 3.124625 1_555
Mg6 Sn1 3.138373 1_565
Mg6 Sn1 3.138373 1_465
Mg6 V1 3.142690 1_565
Mg6 Mg7 3.152439 1_555
Mg6 Mg7 3.214196 1_565
Mg7 Mg8 3.121606 1_555
Mg7 V0 3.124625 1_555
Mg7 Sn1 3.138373 1_455
Mg7 Sn1 3.138373 1_555
Mg7 V1 3.142690 1_555
Mg8 Mg9 3.116363 1_545
Mg8 Mg9 3.116363 1_445
Mg8 V0 3.183392 1_545
Mg8 V0 3.183392 1_555
Mg9 Sn0 3.043742 1_555
Mg9 V0 3.087514 1_555
Mg9 V0 3.087514 1_655
Mg9 Sn1 3.223579 1_565
Mg10 Sn0 3.043742 1_555
Mg10 V0 3.087514 1_555
Mg10 V0 3.087514 1_655
Mg10 Mg7 3.095807 1_555
Mg10 Mg7 3.095807 1_655
Mg10 Mg9 3.115054 1_555
Mg10 Mg8 3.116363 1_655
Mg10 Mg8 3.116363 1_555
Mg10 Mg11 3.127719 1_555
Mg10 Mg5 3.140144 1_555
Mg10 Sn1 3.223579 1_555
Mg10 Mg9 3.251581 1_545
Mg11 Mg8 3.093325 1_655
Mg11 Mg8 3.093325 1_555
Mg11 Mg9 3.127719 1_545
Mg11 Mg4 3.140144 1_544
Mg11 Mg3 3.140144 1_554
Mg11 Sn0 3.183826 1_555
Mg11 Sn0 3.183826 1_545
Sn0 V0 3.048090 1_655
Sn0 V0 3.048090 1_555
Sn1 V1 3.048090 1_655
Sn1 V1 3.048090 1_555
