# generated using pymatgen
data_Re3Pb3N5
_symmetry_space_group_name_H-M   'P 1'
_cell_length_a   6.23746538
_cell_length_b   7.67565775
_cell_length_c   8.36069108
_cell_angle_alpha   106.93944153
_cell_angle_beta   95.71407070
_cell_angle_gamma   94.39274195
_symmetry_Int_Tables_number   1
_chemical_formula_structural   Re3Pb3N5
_chemical_formula_sum   'Re6 Pb6 N10'
_cell_volume   378.66023784
_cell_formula_units_Z   2
loop_
 _symmetry_equiv_pos_site_id
 _symmetry_equiv_pos_as_xyz
  1  'x, y, z'
loop_
 _atom_site_type_symbol
 _atom_site_label
 _atom_site_symmetry_multiplicity
 _atom_site_fract_x
 _atom_site_fract_y
 _atom_site_fract_z
 _atom_site_occupancy
  Re  Re0  1  0.90595200  0.33690100  0.98970100  1
  Re  Re1  1  0.09404800  0.66309900  0.01029900  1
  Re  Re2  1  0.64650800  0.95757200  0.60356100  1
  Re  Re3  1  0.35349200  0.04242800  0.39643900  1
  Re  Re4  1  0.06449700  0.93475200  0.70820500  1
  Re  Re5  1  0.93550300  0.06524800  0.29179500  1
  Pb  Pb0  1  0.75002400  0.45675900  0.56610700  1
  Pb  Pb1  1  0.24997600  0.54324100  0.43389300  1
  Pb  Pb2  1  0.55893700  0.78518600  0.89965500  1
  Pb  Pb3  1  0.44106300  0.21481400  0.10034500  1
  Pb  Pb4  1  0.68730500  0.64381300  0.22512500  1
  Pb  Pb5  1  0.31269500  0.35618700  0.77487500  1
  N  N0  1  0.85605500  0.12275800  0.78261800  1
  N  N1  1  0.14394500  0.87724200  0.21738200  1
  N  N2  1  0.84996300  0.77240700  0.52855200  1
  N  N3  1  0.15003700  0.22759300  0.47144800  1
  N  N4  1  0.81998800  0.53449900  0.88234500  1
  N  N5  1  0.18001200  0.46550100  0.11765500  1
  N  N6  1  0.32559400  0.94915800  0.59607500  1
  N  N7  1  0.67440600  0.05084200  0.40392500  1
  N  N8  1  0.11708900  0.82382900  0.86580300  1
  N  N9  1  0.88291100  0.17617100  0.13419700  1
loop_
_geom_bond_atom_site_label_1
_geom_bond_atom_site_label_2
_geom_bond_distance
_geom_bond_site_symmetry_2
N0 Re2 1.951287 1_545
N0 Re0 1.988012 1_555
N0 Re4 2.021192 1_645
N1 Re3 1.951287 1_565
N1 Re1 1.988012 1_555
N1 Re5 2.021192 1_465
N2 Re4 1.962946 1_655
N2 Re2 1.984724 1_555
N2 Pb4 2.512810 1_555
N2 Pb0 2.570617 1_555
N3 Re5 1.962946 1_455
N3 Re3 1.984724 1_555
N3 Pb5 2.512810 1_555
N3 Pb1 2.570617 1_555
N4 Re1 1.950127 1_656
N4 Re0 2.053175 1_555
N4 Pb0 2.519539 1_555
N4 Pb2 2.596035 1_555
N5 Re0 1.950127 1_454
N5 Re1 2.053175 1_555
N5 Pb1 2.519539 1_555
N5 Pb3 2.596035 1_555
N6 Re4 1.969830 1_555
N6 Re2 1.991920 1_555
N6 Re3 2.015872 1_565
N7 Re5 1.969830 1_555
N7 Re3 1.991920 1_555
N7 Re2 2.015872 1_545
N8 Re4 1.782998 1_555
N8 Re1 1.969284 1_556
N8 Pb2 2.789713 1_555
N9 Re5 1.782998 1_555
N9 Re0 1.969284 1_554
N9 Pb3 2.789713 1_555
