# generated using pymatgen
data_CeSe2
_symmetry_space_group_name_H-M   'P 1'
_cell_length_a   8.48883100
_cell_length_b   8.86544720
_cell_length_c   11.63810725
_cell_angle_alpha   68.61307537
_cell_angle_beta   72.50452367
_cell_angle_gamma   83.48102638
_symmetry_Int_Tables_number   1
_chemical_formula_structural   CeSe2
_chemical_formula_sum   'Ce4 Se8'
_cell_volume   777.80647106
_cell_formula_units_Z   4
loop_
 _symmetry_equiv_pos_site_id
 _symmetry_equiv_pos_as_xyz
  1  'x, y, z'
loop_
 _atom_site_type_symbol
 _atom_site_label
 _atom_site_symmetry_multiplicity
 _atom_site_fract_x
 _atom_site_fract_y
 _atom_site_fract_z
 _atom_site_occupancy
  Ce  Ce0  1  0.86587000  0.69963500  0.23611100  1
  Ce  Ce1  1  0.38308300  0.71604600  0.59270900  1
  Ce  Ce2  1  0.44402000  0.63143600  0.04632900  1
  Ce  Ce3  1  0.17422300  0.28099000  0.45544400  1
  Se  Se0  1  0.89249400  0.38768100  0.38592400  1
  Se  Se1  1  0.15954100  0.95935600  0.59843800  1
  Se  Se2  1  0.73396100  0.73765600  0.04186800  1
  Se  Se3  1  0.40635400  0.33227500  0.22775100  1
  Se  Se4  1  0.18115900  0.81171200  0.12491100  1
  Se  Se5  1  0.65670100  0.83892100  0.39740900  1
  Se  Se6  1  0.24832600  0.46412100  0.57533000  1
  Se  Se7  1  0.46871900  0.60863100  0.81509700  1
loop_
_geom_bond_atom_site_label_1
_geom_bond_atom_site_label_2
_geom_bond_distance
_geom_bond_site_symmetry_2
Ce0 Se0 2.705149 1_555
Ce0 Se2 2.712641 1_555
Ce0 Se5 2.718476 1_555
Ce0 Se4 2.721914 1_655
Ce1 Se7 2.703786 1_555
Ce1 Se5 2.709655 1_555
Ce1 Se1 2.712496 1_555
Ce1 Se6 2.717789 1_555
Ce2 Se3 2.701281 1_555
Ce2 Se2 2.713128 1_555
Ce2 Se7 2.715659 1_554
Ce2 Se4 2.720120 1_555
Ce3 Se3 2.701265 1_555
Ce3 Se0 2.713009 1_455
Ce3 Se6 2.718455 1_555
Ce3 Se1 2.722276 1_545
