# generated using pymatgen
data_Ba3Tb(BO2)9
_symmetry_space_group_name_H-M   'P 1'
_cell_length_a   7.27921156
_cell_length_b   7.27921156
_cell_length_c   17.55495300
_cell_angle_alpha   90.00000000
_cell_angle_beta   90.00000000
_cell_angle_gamma   119.99999597
_symmetry_Int_Tables_number   1
_chemical_formula_structural   Ba3Tb(BO2)9
_chemical_formula_sum   'Ba6 Tb2 B18 O36'
_cell_volume   805.56205933
_cell_formula_units_Z   2
loop_
 _symmetry_equiv_pos_site_id
 _symmetry_equiv_pos_as_xyz
  1  'x, y, z'
loop_
 _atom_site_type_symbol
 _atom_site_label
 _atom_site_symmetry_multiplicity
 _atom_site_fract_x
 _atom_site_fract_y
 _atom_site_fract_z
 _atom_site_occupancy
  Ba  Ba0  1  0.66666700  0.33333300  0.86748500  1
  Ba  Ba1  1  0.33333300  0.66666700  0.13251500  1
  Ba  Ba2  1  0.33333300  0.66666700  0.36748500  1
  Ba  Ba3  1  0.66666700  0.33333300  0.63251500  1
  Ba  Ba4  1  0.00000000  0.00000000  0.75000000  1
  Ba  Ba5  1  0.00000000  0.00000000  0.25000000  1
  Tb  Tb0  1  0.00000000  0.00000000  0.00000000  1
  Tb  Tb1  1  0.00000000  0.00000000  0.50000000  1
  B  B0  1  0.54990700  0.83494500  0.91816400  1
  B  B1  1  0.45009300  0.16505500  0.08183600  1
  B  B2  1  0.28503800  0.45009300  0.91816400  1
  B  B3  1  0.45009300  0.16505500  0.41816400  1
  B  B4  1  0.71496200  0.54990700  0.08183600  1
  B  B5  1  0.54990700  0.83494500  0.58183600  1
  B  B6  1  0.16505500  0.71496200  0.91816400  1
  B  B7  1  0.71496200  0.54990700  0.41816400  1
  B  B8  1  0.83494500  0.28503800  0.08183600  1
  B  B9  1  0.28503800  0.45009300  0.58183600  1
  B  B10  1  0.83494500  0.28503800  0.41816400  1
  B  B11  1  0.16505500  0.71496200  0.58183600  1
  B  B12  1  0.50481300  0.62215100  0.75000000  1
  B  B13  1  0.49518700  0.37784900  0.25000000  1
  B  B14  1  0.11733700  0.49518700  0.75000000  1
  B  B15  1  0.88266300  0.50481300  0.25000000  1
  B  B16  1  0.37784900  0.88266300  0.75000000  1
  B  B17  1  0.62215100  0.11733700  0.25000000  1
  O  O0  1  0.54193700  0.83297300  0.75000000  1
  O  O1  1  0.45806300  0.16702700  0.25000000  1
  O  O2  1  0.29103600  0.45806300  0.75000000  1
  O  O3  1  0.70896400  0.54193700  0.25000000  1
  O  O4  1  0.16702700  0.70896400  0.75000000  1
  O  O5  1  0.83297300  0.29103600  0.25000000  1
  O  O6  1  0.92012400  0.33297500  0.75000000  1
  O  O7  1  0.07987600  0.66702500  0.25000000  1
  O  O8  1  0.41285100  0.07987600  0.75000000  1
  O  O9  1  0.58714900  0.92012400  0.25000000  1
  O  O10  1  0.66702500  0.58714900  0.75000000  1
  O  O11  1  0.33297500  0.41285100  0.25000000  1
  O  O12  1  0.74918600  0.99519600  0.91882300  1
  O  O13  1  0.25081400  0.00480400  0.08117700  1
  O  O14  1  0.24601000  0.25081400  0.91882300  1
  O  O15  1  0.25081400  0.00480400  0.41882300  1
  O  O16  1  0.75399000  0.74918600  0.08117700  1
  O  O17  1  0.74918600  0.99519600  0.58117700  1
  O  O18  1  0.00480400  0.75399000  0.91882300  1
  O  O19  1  0.75399000  0.74918600  0.41882300  1
  O  O20  1  0.99519600  0.24601000  0.08117700  1
  O  O21  1  0.24601000  0.25081400  0.58117700  1
  O  O22  1  0.99519600  0.24601000  0.41882300  1
  O  O23  1  0.00480400  0.75399000  0.58117700  1
  O  O24  1  0.49681300  0.62009300  0.91804600  1
  O  O25  1  0.50318700  0.37990700  0.08195400  1
  O  O26  1  0.12328000  0.50318700  0.91804600  1
  O  O27  1  0.50318700  0.37990700  0.41804600  1
  O  O28  1  0.87672000  0.49681300  0.08195400  1
  O  O29  1  0.49681300  0.62009300  0.58195400  1
  O  O30  1  0.37990700  0.87672000  0.91804600  1
  O  O31  1  0.87672000  0.49681300  0.41804600  1
  O  O32  1  0.62009300  0.12328000  0.08195400  1
  O  O33  1  0.12328000  0.50318700  0.58195400  1
  O  O34  1  0.62009300  0.12328000  0.41804600  1
  O  O35  1  0.37990700  0.87672000  0.58195400  1
loop_
_geom_bond_atom_site_label_1
_geom_bond_atom_site_label_2
_geom_bond_distance
_geom_bond_site_symmetry_2
Ba0 O6 2.768103 1_555
Ba0 O8 2.768105 1_555
Ba0 O10 2.768107 1_555
Ba0 O12 2.951247 1_545
Ba0 O18 2.951252 1_655
Ba0 O14 2.951254 1_555
Ba0 O26 3.042124 1_655
Ba0 O30 3.042125 1_545
Ba0 O24 3.042130 1_555
Ba1 O7 2.768103 1_555
Ba1 O9 2.768105 1_555
Ba1 O11 2.768107 1_555
Ba1 O13 2.951247 1_565
Ba1 O20 2.951252 1_455
Ba1 O16 2.951254 1_555
Ba1 O28 3.042124 1_455
Ba1 O32 3.042125 1_565
Ba1 O25 3.042130 1_555
Ba2 O7 2.768103 1_555
Ba2 O9 2.768105 1_555
Ba2 O11 2.768107 1_555
Ba2 O15 2.951247 1_565
Ba2 O22 2.951252 1_455
Ba2 O19 2.951254 1_555
Ba2 O31 3.042124 1_455
Ba2 O34 3.042125 1_565
Ba2 O27 3.042130 1_555
Ba3 O6 2.768103 1_555
Ba3 O8 2.768105 1_555
Ba3 O10 2.768107 1_555
Ba3 O17 2.951247 1_545
Ba3 O23 2.951252 1_655
Ba3 O21 2.951254 1_555
Ba3 O33 3.042124 1_655
Ba3 O35 3.042125 1_545
Ba3 O29 3.042130 1_555
Ba4 O6 2.760820 1_455
Ba4 O8 2.760820 1_555
Ba4 O10 2.760820 1_445
Ba4 O4 2.922681 1_545
Ba4 O0 2.922681 1_445
Ba4 O2 2.922681 1_555
Ba5 O7 2.760820 1_545
Ba5 O9 2.760820 1_445
Ba5 O11 2.760820 1_555
Ba5 O5 2.922681 1_455
Ba5 O1 2.922681 1_555
Ba5 O3 2.922681 1_445
B0 O12 1.331526 1_555
B0 O24 1.410986 1_555
B0 O30 1.414248 1_555
B1 O13 1.331526 1_555
B1 O25 1.410986 1_555
B1 O32 1.414248 1_555
B2 O14 1.331526 1_555
B2 O26 1.410986 1_555
B2 O24 1.414248 1_555
B3 O15 1.331526 1_555
B3 O27 1.410986 1_555
B3 O34 1.414248 1_555
B4 O16 1.331526 1_555
B4 O28 1.410986 1_555
B4 O25 1.414248 1_555
B5 O17 1.331526 1_555
B5 O29 1.410986 1_555
B5 O35 1.414248 1_555
B6 O18 1.331526 1_555
B6 O30 1.410986 1_555
B6 O26 1.414248 1_555
B7 O19 1.331526 1_555
B7 O31 1.410986 1_555
B7 O27 1.414248 1_555
B8 O20 1.331526 1_555
B8 O32 1.410986 1_555
B8 O28 1.414248 1_555
B9 O21 1.331526 1_555
B9 O33 1.410986 1_555
B9 O29 1.414248 1_555
B10 O22 1.331526 1_555
B10 O34 1.410986 1_555
B10 O31 1.414248 1_555
B11 O23 1.331526 1_555
B11 O35 1.410986 1_555
B11 O33 1.414248 1_555
B12 O10 1.326647 1_555
B12 O2 1.410501 1_555
B12 O0 1.418934 1_555
B13 O11 1.326647 1_555
B13 O3 1.410501 1_555
B13 O1 1.418934 1_555
B14 O6 1.326643 1_455
B14 O4 1.410499 1_555
B14 O2 1.418941 1_555
B15 O7 1.326643 1_655
B15 O5 1.410499 1_555
B15 O3 1.418941 1_555
B16 O8 1.326640 1_565
B16 O0 1.410506 1_555
B16 O4 1.418936 1_555
B17 O9 1.326640 1_545
B17 O1 1.410506 1_555
B17 O5 1.418936 1_555
O12 Tb0 2.302488 1_666
O13 Tb0 2.302488 1_555
O14 Tb0 2.302489 1_556
O15 Tb1 2.302488 1_555
O16 Tb0 2.302489 1_665
O17 Tb1 2.302488 1_665
O18 Tb0 2.302488 1_566
O19 Tb1 2.302489 1_665
O20 Tb0 2.302488 1_655
O21 Tb1 2.302489 1_555
O22 Tb1 2.302488 1_655
O23 Tb1 2.302488 1_565
