# generated using pymatgen
data_Li6V3P8O29
_symmetry_space_group_name_H-M   'P 1'
_cell_length_a   9.79047000
_cell_length_b   9.81567296
_cell_length_c   13.97322841
_cell_angle_alpha   89.83273031
_cell_angle_beta   89.85575199
_cell_angle_gamma   60.65912881
_symmetry_Int_Tables_number   1
_chemical_formula_structural   Li6V3P8O29
_chemical_formula_sum   'Li12 V6 P16 O58'
_cell_volume   1170.56404201
_cell_formula_units_Z   2
loop_
 _symmetry_equiv_pos_site_id
 _symmetry_equiv_pos_as_xyz
  1  'x, y, z'
loop_
 _atom_site_type_symbol
 _atom_site_label
 _atom_site_symmetry_multiplicity
 _atom_site_fract_x
 _atom_site_fract_y
 _atom_site_fract_z
 _atom_site_occupancy
  Li  Li0  1  0.77746000  0.91100900  0.55812600  1
  Li  Li1  1  0.90415400  0.32199100  0.55901700  1
  Li  Li2  1  0.76701500  0.33708600  0.06243500  1
  Li  Li3  1  0.33590700  0.89938900  0.06068300  1
  Li  Li4  1  0.31905100  0.77534000  0.55848200  1
  Li  Li5  1  0.67646700  0.08909100  0.94007800  1
  Li  Li6  1  0.23447200  0.67361700  0.93919200  1
  Li  Li7  1  0.33836500  0.33123300  0.61205500  1
  Li  Li8  1  0.32966000  0.33400100  0.11393400  1
  Li  Li9  1  0.08552300  0.68583900  0.43360500  1
  Li  Li10  1  0.22228400  0.08961000  0.43835300  1
  Li  Li11  1  0.99702000  0.99939600  0.00591200  1
  V  V0  1  0.56921700  0.43272100  0.25464200  1
  V  V1  1  0.43703800  0.56359200  0.74841100  1
  V  V2  1  0.56905100  0.99885300  0.75358700  1
  V  V3  1  0.43238900  0.99948900  0.25046900  1
  V  V4  1  0.99222100  0.57089100  0.24495300  1
  V  V5  1  0.00087800  0.43149200  0.75567100  1
  P  P0  1  0.91916500  0.77378200  0.84131600  1
  P  P1  1  0.76862000  0.91357000  0.33957500  1
  P  P2  1  0.91508400  0.31706500  0.34467100  1
  P  P3  1  0.66014300  0.66768300  0.12704600  1
  P  P4  1  0.67041800  0.66672900  0.62968500  1
  P  P5  1  0.76798700  0.31567600  0.84357100  1
  P  P6  1  0.68237000  0.22818300  0.65925400  1
  P  P7  1  0.31301600  0.91290300  0.84401700  1
  P  P8  1  0.68560100  0.09252500  0.15598200  1
  P  P9  1  0.32202500  0.76600800  0.34189000  1
  P  P10  1  0.22871300  0.68037900  0.15867500  1
  P  P11  1  0.32709000  0.33829100  0.37131200  1
  P  P12  1  0.33627000  0.33226300  0.87226000  1
  P  P13  1  0.08881900  0.67775900  0.65468700  1
  P  P14  1  0.23042400  0.09225000  0.66015800  1
  P  P15  1  0.08759200  0.22096600  0.15966400  1
  O  O0  1  0.00014200  0.74913500  0.56396400  1
  O  O1  1  0.91394700  0.74822400  0.33495600  1
  O  O2  1  0.77184200  0.01136800  0.06650800  1
  O  O3  1  0.75040700  0.91631300  0.84018300  1
  O  O4  1  0.91948900  0.61805400  0.83345800  1
  O  O5  1  0.80361400  0.67177900  0.17095500  1
  O  O6  1  0.91135000  0.47347000  0.32109700  1
  O  O7  1  0.99362200  0.20751700  0.07959000  1
  O  O8  1  0.91027800  0.34195300  0.83480300  1
  O  O9  1  0.67041900  0.81432500  0.67279600  1
  O  O10  1  0.61594000  0.90561300  0.31754300  1
  O  O11  1  0.81599900  0.51661500  0.67035000  1
  O  O12  1  0.65705800  0.65641200  0.02087700  1
  O  O13  1  0.66463500  0.67101000  0.52335500  1
  O  O14  1  0.66380700  0.51519300  0.17140700  1
  O  O15  1  0.46904300  0.91607800  0.82898700  1
  O  O16  1  0.50732000  0.81448200  0.16518600  1
  O  O17  1  0.75069300  0.33944700  0.34075000  1
  O  O18  1  0.78268000  0.20419100  0.75584500  1
  O  O19  1  0.76829400  0.23980900  0.57557800  1
  O  O20  1  0.77328800  0.23003600  0.93458600  1
  O  O21  1  0.61579000  0.47115500  0.83069700  1
  O  O22  1  0.51768500  0.66483500  0.67097100  1
  O  O23  1  0.66746800  0.25740600  0.16070500  1
  O  O24  1  0.48307600  0.62466300  0.32558000  1
  O  O25  1  0.33039100  0.91990500  0.34056600  1
  O  O26  1  0.78889400  0.00324000  0.24899100  1
  O  O27  1  0.75776400  0.99239200  0.43167400  1
  O  O28  1  0.24617200  0.99959100  0.57111900  1
  O  O29  1  0.66230000  0.07997100  0.65917300  1
  O  O30  1  0.51469300  0.37081700  0.67384100  1
  O  O31  1  0.33868900  0.74554900  0.83661500  1
  O  O32  1  0.47399100  0.34060100  0.32594300  1
  O  O33  1  0.37686800  0.51944600  0.16719800  1
  O  O34  1  0.22497100  0.77290600  0.07081400  1
  O  O35  1  0.24283700  0.75466900  0.43173900  1
  O  O36  1  0.21080000  0.78448700  0.25144200  1
  O  O37  1  0.25376300  0.66201800  0.65454600  1
  O  O38  1  0.49341500  0.18711800  0.83662200  1
  O  O39  1  0.52078900  0.10775600  0.16912600  1
  O  O40  1  0.33053700  0.48641400  0.83119400  1
  O  O41  1  0.33742600  0.33839200  0.97960000  1
  O  O42  1  0.33031400  0.33847200  0.47877100  1
  O  O43  1  0.18057200  0.48813000  0.33297800  1
  O  O44  1  0.37437700  0.11562800  0.67667900  1
  O  O45  1  0.32688100  0.18695800  0.33422700  1
  O  O46  1  0.08454600  0.65570400  0.16130000  1
  O  O47  1  0.99477600  0.79187700  0.74119400  1
  O  O48  1  0.01127800  0.78991100  0.92168600  1
  O  O49  1  0.10906000  0.51298000  0.67519400  1
  O  O50  1  0.19531100  0.32434100  0.82829800  1
  O  O51  1  0.10195600  0.37070300  0.16538300  1
  O  O52  1  0.25821900  0.07923900  0.15956000  1
  O  O53  1  0.23044400  0.98731600  0.93518900  1
  O  O54  1  0.20906600  0.00365100  0.75135900  1
  O  O55  1  0.08147200  0.25468300  0.65910400  1
  O  O56  1  0.00277500  0.24673100  0.43591600  1
  O  O57  1  0.01554100  0.20059800  0.25908600  1
loop_
_geom_bond_atom_site_label_1
_geom_bond_atom_site_label_2
_geom_bond_distance
_geom_bond_site_symmetry_2
Li0 O27 1.907855 1_555
Li0 O0 1.972231 1_655
Li0 O29 2.046582 1_565
Li0 O9 2.350242 1_555
Li1 O19 1.876810 1_555
Li1 O56 1.933092 1_655
Li1 O55 2.070990 1_655
Li1 O11 2.282390 1_555
Li2 O7 1.957749 1_555
Li2 O23 2.044778 1_555
Li2 O20 2.060704 1_554
Li2 O14 2.161606 1_555
Li3 O53 2.003226 1_554
Li3 O34 2.015123 1_555
Li3 O16 2.068294 1_555
Li3 O52 2.072906 1_565
Li4 O28 1.961609 1_555
Li4 O35 1.972697 1_555
Li4 O37 2.032595 1_555
Li4 O22 2.316752 1_555
Li5 O2 1.969072 1_556
Li5 O20 2.025502 1_555
Li5 O3 2.038191 1_545
Li5 O38 2.131305 1_555
Li6 O48 1.922081 1_555
Li6 O34 2.064421 1_556
Li6 O31 2.070455 1_555
Li6 O40 2.203125 1_555
Li7 O42 1.863948 1_555
Li7 O30 2.131520 1_555
Li7 O44 2.162798 1_555
Li7 O49 2.252826 1_555
Li8 O41 1.879651 1_554
Li8 O51 2.196109 1_555
Li8 O33 2.216993 1_555
Li8 O39 2.225492 1_555
Li9 O35 1.961820 1_555
Li9 O0 1.973001 1_555
Li9 O1 2.023736 1_455
Li9 O43 2.201972 1_555
Li10 O56 1.936540 1_555
Li10 O25 2.010039 1_545
Li10 O28 2.016727 1_545
Li10 O45 2.240989 1_555
Li11 O7 2.275906 1_565
Li11 O2 2.308310 1_565
Li11 O48 2.316185 1_654
Li11 O34 2.425210 1_655
Li11 O53 2.436625 1_654
Li11 O20 2.460605 1_564
O0 P13 1.501967 1_555
O1 P1 1.549114 1_555
O1 V4 1.974696 1_555
O2 P8 1.500645 1_555
O3 P0 1.556304 1_555
O3 V2 1.966849 1_555
O4 P0 1.531285 1_555
O4 V5 1.935724 1_655
O5 P3 1.552716 1_555
O5 V4 1.916020 1_555
O6 P2 1.552047 1_555
O6 V4 1.845310 1_555
O7 P15 1.496942 1_655
O8 P5 1.540565 1_555
O8 V5 1.880230 1_655
O9 P4 1.570632 1_555
O9 V2 1.945437 1_555
O10 P1 1.565951 1_555
O10 V3 1.826891 1_555
O11 P4 1.570514 1_555
O11 V5 1.979569 1_655
O12 P3 1.489447 1_555
O13 P4 1.486681 1_555
O14 P3 1.602492 1_555
O14 V0 1.894579 1_555
O15 P7 1.556783 1_555
O15 V2 1.870374 1_555
O16 P3 1.576890 1_555
O16 V3 1.989642 1_555
O17 P2 1.515090 1_555
O17 V0 1.962877 1_555
O18 P5 1.604208 1_555
O18 P6 1.618569 1_555
O19 P6 1.475173 1_555
O20 P5 1.509327 1_555
O21 P5 1.533925 1_555
O21 V1 1.912046 1_555
O22 P4 1.609969 1_555
O22 V1 1.881567 1_555
O23 P8 1.540824 1_555
O23 V0 1.998526 1_555
O24 P9 1.522881 1_555
O24 V0 1.921702 1_555
O25 P9 1.552436 1_555
O25 V3 1.986154 1_555
O26 P1 1.606135 1_545
O26 P8 1.615927 1_555
O27 P1 1.480066 1_555
O28 P14 1.505701 1_565
O29 P6 1.560517 1_555
O29 V2 1.976895 1_545
O30 P6 1.563397 1_555
O30 V1 1.960078 1_555
O31 P7 1.539005 1_555
O31 V1 1.989374 1_555
O32 P11 1.580569 1_555
O32 V0 1.869667 1_555
O33 P10 1.538752 1_555
O33 V0 2.049023 1_555
O34 P10 1.514779 1_555
O35 P9 1.506167 1_555
O36 P10 1.608182 1_555
O36 P9 1.621124 1_555
O37 P13 1.545048 1_555
O37 V1 2.044239 1_555
O38 P12 1.580181 1_555
O38 V2 1.994144 1_545
O39 P8 1.556278 1_555
O39 V3 2.014867 1_545
O40 P12 1.591775 1_555
O40 V1 1.939608 1_555
O41 P12 1.501561 1_555
O42 P11 1.501985 1_555
O43 P11 1.561882 1_555
O43 V4 2.027516 1_455
O44 P14 1.552790 1_555
O44 V2 1.990855 1_545
O45 P11 1.575604 1_555
O45 V3 1.991625 1_545
O46 P10 1.544974 1_555
O46 V4 1.898126 1_455
O47 P13 1.598495 1_655
O47 P0 1.630647 1_555
O48 P0 1.498537 1_455
O49 P13 1.555919 1_555
O49 V5 1.960898 1_555
O50 P12 1.548440 1_555
O50 V5 1.949652 1_555
O51 P15 1.545862 1_555
O51 V4 2.046816 1_455
O52 P15 1.564750 1_555
O52 V3 1.957319 1_545
O53 P7 1.493857 1_555
O54 P14 1.610732 1_555
O54 P7 1.617717 1_545
O55 P14 1.546060 1_555
O55 V5 2.030173 1_555
O56 P2 1.502932 1_455
O57 P15 1.612215 1_555
O57 P2 1.613869 1_455
