# generated using pymatgen
data_PdRuN5(Cl2O)2
_symmetry_space_group_name_H-M   'P 1'
_cell_length_a   8.00682500
_cell_length_b   7.71439600
_cell_length_c   10.10131924
_cell_angle_alpha   112.44837983
_cell_angle_beta   90.00000000
_cell_angle_gamma   90.00000000
_symmetry_Int_Tables_number   1
_chemical_formula_structural   PdRuN5(Cl2O)2
_chemical_formula_sum   'Pd2 Ru2 N10 Cl8 O4'
_cell_volume   576.65700550
_cell_formula_units_Z   2
loop_
 _symmetry_equiv_pos_site_id
 _symmetry_equiv_pos_as_xyz
  1  'x, y, z'
loop_
 _atom_site_type_symbol
 _atom_site_label
 _atom_site_symmetry_multiplicity
 _atom_site_fract_x
 _atom_site_fract_y
 _atom_site_fract_z
 _atom_site_occupancy
  Pd  Pd0  1  0.10485600  0.62460400  0.24920900  1
  Pd  Pd1  1  0.60485600  0.37539600  0.75079100  1
  Ru  Ru0  1  0.11541100  0.91030200  0.82060300  1
  Ru  Ru1  1  0.61541100  0.08969800  0.17939700  1
  N  N0  1  0.79075300  0.81209200  0.62418300  1
  N  N1  1  0.29075300  0.18790800  0.37581700  1
  N  N2  1  0.97408100  0.10482300  0.86592900  1
  N  N3  1  0.97408100  0.76110600  0.86592900  1
  N  N4  1  0.47408100  0.89517700  0.13407100  1
  N  N5  1  0.47408100  0.23889400  0.13407100  1
  N  N6  1  0.15807300  0.66368100  0.64911600  1
  N  N7  1  0.15807300  0.98543500  0.64911600  1
  N  N8  1  0.65807300  0.33631900  0.35088400  1
  N  N9  1  0.65807300  0.01456500  0.35088400  1
  Cl  Cl0  1  0.09220700  0.32784400  0.25099700  1
  Cl  Cl1  1  0.09220700  0.92315300  0.25099700  1
  Cl  Cl2  1  0.59220700  0.67215600  0.74900300  1
  Cl  Cl3  1  0.59220700  0.07684700  0.74900300  1
  Cl  Cl4  1  0.84571300  0.57391400  0.14782800  1
  Cl  Cl5  1  0.34571300  0.42608600  0.85217200  1
  Cl  Cl6  1  0.36397200  0.67284100  0.34568200  1
  Cl  Cl7  1  0.86397200  0.32715900  0.65431800  1
  O  O0  1  0.79298400  0.75138900  0.50277800  1
  O  O1  1  0.29298400  0.24861100  0.49722200  1
  O  O2  1  0.29298800  0.96393300  0.92786500  1
  O  O3  1  0.79298800  0.03606700  0.07213500  1
loop_
_geom_bond_atom_site_label_1
_geom_bond_atom_site_label_2
_geom_bond_distance
_geom_bond_site_symmetry_2
N0 O0 1.133563 1_555
N1 O1 1.133563 1_555
N2 Ru0 1.793679 1_645
N3 Ru0 1.793685 1_655
N4 Ru1 1.793679 1_565
N5 Ru1 1.793685 1_555
N6 Ru0 2.054285 1_555
N7 Ru0 2.054280 1_555
N8 Ru1 2.054285 1_555
N9 Ru1 2.054280 1_555
Cl0 Pd0 2.298514 1_555
Cl1 Pd0 2.298522 1_555
Cl2 Pd1 2.298514 1_555
Cl3 Pd1 2.298522 1_555
Cl4 Pd0 2.280590 1_655
Cl5 Pd1 2.280590 1_555
Cl6 Pd0 2.261759 1_555
Cl7 Pd1 2.261759 1_555
O2 Ru0 1.739071 1_555
O3 Ru1 1.739071 1_555
