# generated using pymatgen
data_La3Al2Ga3SnO14
_symmetry_space_group_name_H-M   'P 1'
_cell_length_a   8.31446756
_cell_length_b   8.31446756
_cell_length_c   5.18256900
_cell_angle_alpha   90.00000000
_cell_angle_beta   90.00000000
_cell_angle_gamma   119.99999651
_symmetry_Int_Tables_number   1
_chemical_formula_structural   La3Al2Ga3SnO14
_chemical_formula_sum   'La3 Al2 Ga3 Sn1 O14'
_cell_volume   310.27345834
_cell_formula_units_Z   1
loop_
 _symmetry_equiv_pos_site_id
 _symmetry_equiv_pos_as_xyz
  1  'x, y, z'
loop_
 _atom_site_type_symbol
 _atom_site_label
 _atom_site_symmetry_multiplicity
 _atom_site_fract_x
 _atom_site_fract_y
 _atom_site_fract_z
 _atom_site_occupancy
  La  La0  1  0.56990500  0.56990500  0.00000000  1
  La  La1  1  0.00000000  0.43009500  0.00000000  1
  La  La2  1  0.43009500  0.00000000  0.00000000  1
  Al  Al0  1  0.33333300  0.66666700  0.46374000  1
  Al  Al1  1  0.66666700  0.33333300  0.53626000  1
  Ga  Ga0  1  0.24747500  0.24747500  0.50000000  1
  Ga  Ga1  1  0.00000000  0.75252500  0.50000000  1
  Ga  Ga2  1  0.75252500  0.00000000  0.50000000  1
  Sn  Sn0  1  0.00000000  0.00000000  0.00000000  1
  O  O0  1  0.66666700  0.33333300  0.19778000  1
  O  O1  1  0.33333300  0.66666700  0.80222000  1
  O  O2  1  0.46602500  0.31465300  0.68932100  1
  O  O3  1  0.84862800  0.53397500  0.68932100  1
  O  O4  1  0.68534700  0.15137200  0.68932100  1
  O  O5  1  0.15137200  0.68534700  0.31067900  1
  O  O6  1  0.53397500  0.84862800  0.31067900  1
  O  O7  1  0.31465300  0.46602500  0.31067900  1
  O  O8  1  0.85441300  0.76997600  0.24021800  1
  O  O9  1  0.91556400  0.14558700  0.24021800  1
  O  O10  1  0.23002400  0.08443600  0.24021800  1
  O  O11  1  0.08443600  0.23002400  0.75978200  1
  O  O12  1  0.14558700  0.91556400  0.75978200  1
  O  O13  1  0.76997600  0.85441300  0.75978200  1
loop_
_geom_bond_atom_site_label_1
_geom_bond_atom_site_label_2
_geom_bond_distance
_geom_bond_site_symmetry_2
La0 O8 2.444952 1_555
La0 O13 2.444952 1_554
La0 O2 2.451432 1_554
La0 O7 2.451432 1_555
La0 O0 2.673827 1_555
La0 O1 2.673827 1_554
La0 O6 2.957114 1_555
La0 O3 2.957114 1_554
La1 O11 2.444946 1_554
La1 O9 2.444953 1_455
La1 O3 2.451432 1_454
La1 O5 2.451432 1_555
La1 O0 2.673819 1_455
La1 O1 2.673821 1_554
La1 O7 2.957114 1_555
La1 O4 2.957114 1_454
La2 O10 2.444946 1_555
La2 O12 2.444953 1_544
La2 O6 2.451432 1_545
La2 O4 2.451432 1_554
La2 O1 2.673819 1_544
La2 O0 2.673821 1_555
La2 O2 2.957114 1_554
La2 O5 2.957114 1_545
Al0 O1 1.754196 1_555
Al0 O5 1.782480 1_555
Al0 O6 1.782485 1_555
Al0 O7 1.782488 1_555
Al1 O0 1.754196 1_555
Al1 O4 1.782480 1_555
Al1 O3 1.782485 1_555
Al1 O2 1.782488 1_555
Ga0 O11 1.864026 1_555
Ga0 O10 1.864026 1_555
Ga0 O7 1.887238 1_555
Ga0 O2 1.887238 1_555
Ga1 O8 1.864020 1_455
Ga1 O12 1.864024 1_555
Ga1 O5 1.887237 1_555
Ga1 O3 1.887238 1_455
Ga2 O13 1.864020 1_545
Ga2 O9 1.864024 1_555
Ga2 O4 1.887237 1_555
Ga2 O6 1.887238 1_545
O8 Sn0 2.087543 1_665
O9 Sn0 2.087538 1_655
O10 Sn0 2.087544 1_555
O11 Sn0 2.087544 1_556
O12 Sn0 2.087538 1_566
O13 Sn0 2.087543 1_666
