# generated using pymatgen
data_Li3Nb
_symmetry_space_group_name_H-M   'P 1'
_cell_length_a   5.74534636
_cell_length_b   5.74534636
_cell_length_c   4.51885700
_cell_angle_alpha   90.00000000
_cell_angle_beta   90.00000000
_cell_angle_gamma   120.00000409
_symmetry_Int_Tables_number   1
_chemical_formula_structural   Li3Nb
_chemical_formula_sum   'Li6 Nb2'
_cell_volume   129.17891786
_cell_formula_units_Z   2
loop_
 _symmetry_equiv_pos_site_id
 _symmetry_equiv_pos_as_xyz
  1  'x, y, z'
loop_
 _atom_site_type_symbol
 _atom_site_label
 _atom_site_symmetry_multiplicity
 _atom_site_fract_x
 _atom_site_fract_y
 _atom_site_fract_z
 _atom_site_occupancy
  Li  Li0  1  0.16587900  0.33175700  0.25000000  1
  Li  Li1  1  0.66824300  0.83412100  0.25000000  1
  Li  Li2  1  0.16587900  0.83412100  0.25000000  1
  Li  Li3  1  0.83412100  0.66824300  0.75000000  1
  Li  Li4  1  0.33175700  0.16587900  0.75000000  1
  Li  Li5  1  0.83412100  0.16587900  0.75000000  1
  Nb  Nb0  1  0.33333300  0.66666700  0.75000000  1
  Nb  Nb1  1  0.66666700  0.33333300  0.25000000  1
loop_
_geom_bond_atom_site_label_1
_geom_bond_atom_site_label_2
_geom_bond_distance
_geom_bond_site_symmetry_2
Li0 Li4 2.798177 1_554
Li0 Li4 2.798177 1_555
Li0 Li5 2.798183 1_455
Li0 Li5 2.798183 1_454
Li0 Nb0 2.807463 1_555
Li0 Nb0 2.807463 1_554
Li0 Li1 2.859091 1_445
Li0 Li2 2.859091 1_545
Li0 Nb1 2.872684 1_555
Li0 Nb1 2.872684 1_455
Li0 Li1 2.886255 1_555
Li0 Li2 2.886255 1_555
Li1 Li3 2.798177 1_555
Li1 Li3 2.798177 1_554
Li1 Li5 2.798183 1_564
Li1 Li5 2.798183 1_565
Li1 Nb0 2.807463 1_554
Li1 Nb0 2.807463 1_555
Li1 Li2 2.859091 1_655
Li1 Nb1 2.872684 1_555
Li1 Nb1 2.872684 1_565
Li1 Li2 2.886255 1_555
Li2 Li4 2.798183 1_564
Li2 Li4 2.798183 1_565
Li2 Li3 2.798183 1_454
Li2 Li3 2.798183 1_455
Li2 Nb0 2.807458 1_554
Li2 Nb0 2.807458 1_555
Li2 Nb1 2.872684 1_455
Li2 Nb1 2.872684 1_565
Li3 Nb1 2.807463 1_555
Li3 Nb1 2.807463 1_556
Li3 Li4 2.859091 1_665
Li3 Li5 2.859091 1_565
Li3 Nb0 2.872684 1_555
Li3 Nb0 2.872684 1_655
Li3 Li4 2.886255 1_555
Li3 Li5 2.886255 1_555
Li4 Nb1 2.807463 1_555
Li4 Nb1 2.807463 1_556
Li4 Li5 2.859091 1_455
Li4 Nb0 2.872684 1_555
Li4 Nb0 2.872684 1_545
Li4 Li5 2.886255 1_555
Li5 Nb1 2.807458 1_555
Li5 Nb1 2.807458 1_556
Li5 Nb0 2.872684 1_545
Li5 Nb0 2.872684 1_655
