# generated using pymatgen
data_Ba7GeN6
_symmetry_space_group_name_H-M   'P 1'
_cell_length_a   12.63546500
_cell_length_b   7.02251800
_cell_length_c   14.58923500
_cell_angle_alpha   90.00000000
_cell_angle_beta   90.00000000
_cell_angle_gamma   90.00000000
_symmetry_Int_Tables_number   1
_chemical_formula_structural   Ba7GeN6
_chemical_formula_sum   'Ba28 Ge4 N24'
_cell_volume   1294.54338547
_cell_formula_units_Z   4
loop_
 _symmetry_equiv_pos_site_id
 _symmetry_equiv_pos_as_xyz
  1  'x, y, z'
loop_
 _atom_site_type_symbol
 _atom_site_label
 _atom_site_symmetry_multiplicity
 _atom_site_fract_x
 _atom_site_fract_y
 _atom_site_fract_z
 _atom_site_occupancy
  Ba  Ba0  1  0.03654400  0.74222100  0.98262700  1
  Ba  Ba1  1  0.46345600  0.75777900  0.48262700  1
  Ba  Ba2  1  0.53654400  0.75777900  0.01737300  1
  Ba  Ba3  1  0.96345600  0.74222100  0.51737300  1
  Ba  Ba4  1  0.96345600  0.25777900  0.01737300  1
  Ba  Ba5  1  0.53654400  0.24222100  0.51737300  1
  Ba  Ba6  1  0.46345600  0.24222100  0.98262700  1
  Ba  Ba7  1  0.03654400  0.25777900  0.48262700  1
  Ba  Ba8  1  0.21853100  0.85541100  0.62630200  1
  Ba  Ba9  1  0.28146900  0.64458900  0.12630200  1
  Ba  Ba10  1  0.71853100  0.64458900  0.37369800  1
  Ba  Ba11  1  0.78146900  0.85541100  0.87369800  1
  Ba  Ba12  1  0.78146900  0.14458900  0.37369800  1
  Ba  Ba13  1  0.71853100  0.35541100  0.87369800  1
  Ba  Ba14  1  0.28146900  0.35541100  0.62630200  1
  Ba  Ba15  1  0.21853100  0.14458900  0.12630200  1
  Ba  Ba16  1  0.28861900  0.60051600  0.87197500  1
  Ba  Ba17  1  0.21138100  0.89948400  0.37197500  1
  Ba  Ba18  1  0.78861900  0.89948400  0.12802500  1
  Ba  Ba19  1  0.71138100  0.60051600  0.62802500  1
  Ba  Ba20  1  0.71138100  0.39948400  0.12802500  1
  Ba  Ba21  1  0.78861900  0.10051600  0.62802500  1
  Ba  Ba22  1  0.21138100  0.10051600  0.87197500  1
  Ba  Ba23  1  0.28861900  0.39948400  0.37197500  1
  Ba  Ba24  1  0.00000000  0.43012700  0.75000000  1
  Ba  Ba25  1  0.50000000  0.06987300  0.25000000  1
  Ba  Ba26  1  0.00000000  0.56987300  0.25000000  1
  Ba  Ba27  1  0.50000000  0.93012700  0.75000000  1
  Ge  Ge0  1  0.00000000  0.91554700  0.75000000  1
  Ge  Ge1  1  0.50000000  0.58445300  0.25000000  1
  Ge  Ge2  1  0.00000000  0.08445300  0.25000000  1
  Ge  Ge3  1  0.50000000  0.41554700  0.75000000  1
  N  N0  1  0.11871900  0.75314700  0.78943000  1
  N  N1  1  0.38128100  0.74685300  0.28943000  1
  N  N2  1  0.61871900  0.74685300  0.21057000  1
  N  N3  1  0.88128100  0.75314700  0.71057000  1
  N  N4  1  0.88128100  0.24685400  0.21057000  1
  N  N5  1  0.61871900  0.25314600  0.71057000  1
  N  N6  1  0.38128100  0.25314600  0.78943000  1
  N  N7  1  0.11871900  0.24685400  0.28943000  1
  N  N8  1  0.16401200  0.60533900  0.49880100  1
  N  N9  1  0.33598800  0.89466100  0.99880100  1
  N  N10  1  0.66401200  0.89466100  0.50119900  1
  N  N11  1  0.83598800  0.60533900  0.00119900  1
  N  N12  1  0.83598800  0.39466100  0.50119900  1
  N  N13  1  0.66401200  0.10533900  0.00119900  1
  N  N14  1  0.33598800  0.10533900  0.49880100  1
  N  N15  1  0.16401200  0.39466100  0.99880100  1
  N  N16  1  0.45984900  0.57345300  0.64614200  1
  N  N17  1  0.04015100  0.92654700  0.14614200  1
  N  N18  1  0.95984900  0.92654700  0.35385800  1
  N  N19  1  0.54015100  0.57345300  0.85385800  1
  N  N20  1  0.54015100  0.42654700  0.35385800  1
  N  N21  1  0.95984900  0.07345300  0.85385800  1
  N  N22  1  0.04015100  0.07345300  0.64614200  1
  N  N23  1  0.45984900  0.42654700  0.14614200  1
loop_
_geom_bond_atom_site_label_1
_geom_bond_atom_site_label_2
_geom_bond_distance
_geom_bond_site_symmetry_2
Ba0 N17 2.714502 1_556
Ba0 N11 2.723818 1_456
Ba0 N15 2.933771 1_555
Ba0 N0 3.004743 1_555
Ba0 N21 3.143098 1_465
Ba1 N16 2.714502 1_555
Ba1 N10 2.723818 1_555
Ba1 N14 2.933771 1_565
Ba1 N1 3.004743 1_555
Ba1 N20 3.143098 1_555
Ba2 N19 2.714502 1_554
Ba2 N9 2.723818 1_554
Ba2 N13 2.933771 1_565
Ba2 N2 3.004743 1_555
Ba2 N23 3.143098 1_555
Ba3 N18 2.714502 1_555
Ba3 N8 2.723818 1_655
Ba3 N12 2.933771 1_555
Ba3 N3 3.004743 1_555
Ba3 N22 3.143098 1_665
Ba4 N21 2.714502 1_554
Ba4 N15 2.723818 1_654
Ba4 N11 2.933771 1_555
Ba4 N4 3.004743 1_555
Ba4 N17 3.143098 1_645
Ba5 N20 2.714502 1_555
Ba5 N14 2.723818 1_555
Ba5 N10 2.933771 1_545
Ba5 N5 3.004743 1_555
Ba5 N16 3.143098 1_555
Ba6 N23 2.714502 1_556
Ba6 N13 2.723818 1_556
Ba6 N9 2.933771 1_545
Ba6 N6 3.004743 1_555
Ba6 N19 3.143098 1_555
Ba7 N22 2.714502 1_555
Ba7 N12 2.723818 1_455
Ba7 N8 2.933771 1_555
Ba7 N7 3.004743 1_555
Ba7 N18 3.143098 1_445
Ba8 N8 2.649280 1_555
Ba8 N22 2.740164 1_565
Ba8 N0 2.787522 1_555
Ba8 N14 2.956892 1_565
Ba9 N9 2.649280 1_554
Ba9 N23 2.740164 1_555
Ba9 N1 2.787522 1_555
Ba9 N15 2.956892 1_554
Ba10 N10 2.649280 1_555
Ba10 N20 2.740164 1_555
Ba10 N2 2.787522 1_555
Ba10 N12 2.956892 1_555
Ba11 N11 2.649280 1_556
Ba11 N21 2.740164 1_565
Ba11 N3 2.787522 1_555
Ba11 N13 2.956892 1_566
Ba12 N12 2.649280 1_555
Ba12 N18 2.740164 1_545
Ba12 N4 2.787524 1_555
Ba12 N10 2.956892 1_545
Ba13 N13 2.649280 1_556
Ba13 N19 2.740164 1_555
Ba13 N5 2.787524 1_555
Ba13 N11 2.956892 1_556
Ba14 N14 2.649280 1_555
Ba14 N16 2.740164 1_555
Ba14 N6 2.787524 1_555
Ba14 N8 2.956892 1_555
Ba15 N15 2.649280 1_554
Ba15 N17 2.740164 1_545
Ba15 N7 2.787524 1_555
Ba15 N9 2.956892 1_544
Ba16 N0 2.684723 1_555
Ba16 N15 2.827075 1_555
Ba16 N9 2.837021 1_555
Ba16 N6 2.961728 1_555
Ba16 N19 3.194853 1_555
Ba17 N1 2.684723 1_555
Ba17 N14 2.827075 1_565
Ba17 N8 2.837021 1_555
Ba17 N7 2.961728 1_565
Ba17 N18 3.194853 1_455
Ba18 N2 2.684723 1_555
Ba18 N13 2.827075 1_565
Ba18 N11 2.837021 1_555
Ba18 N4 2.961728 1_565
Ba18 N17 3.194853 1_655
Ba19 N3 2.684723 1_555
Ba19 N12 2.827075 1_555
Ba19 N10 2.837021 1_555
Ba19 N5 2.961728 1_555
Ba19 N16 3.194853 1_555
Ba20 N4 2.684720 1_555
Ba20 N11 2.827075 1_555
Ba20 N13 2.837021 1_555
Ba20 N2 2.961722 1_555
Ba20 N23 3.194853 1_555
Ba21 N5 2.684720 1_555
Ba21 N10 2.827075 1_545
Ba21 N12 2.837021 1_555
Ba21 N3 2.961722 1_545
Ba21 N22 3.194853 1_655
Ba22 N6 2.684720 1_555
Ba22 N9 2.827075 1_545
Ba22 N15 2.837021 1_555
Ba22 N0 2.961722 1_545
Ba22 N21 3.194853 1_455
Ba23 N7 2.684720 1_555
Ba23 N8 2.827075 1_555
Ba23 N14 2.837021 1_555
Ba23 N1 2.961722 1_555
Ba23 N20 3.194853 1_555
Ba24 N0 2.779717 1_555
Ba24 N3 2.779717 1_455
Ba24 N21 2.971028 1_455
Ba24 N22 2.971028 1_555
Ba25 N1 2.779717 1_545
Ba25 N2 2.779717 1_545
Ba25 N20 2.971028 1_555
Ba25 N23 2.971028 1_555
Ba26 N7 2.779711 1_555
Ba26 N4 2.779711 1_455
Ba26 N17 2.971028 1_555
Ba26 N18 2.971028 1_455
Ba27 N5 2.779711 1_565
Ba27 N6 2.779711 1_565
Ba27 N19 2.971028 1_555
Ba27 N16 2.971028 1_555
Ge0 N22 1.944966 1_565
Ge0 N21 1.944966 1_465
Ge0 N0 1.970220 1_555
Ge0 N3 1.970220 1_455
Ge1 N20 1.944966 1_555
Ge1 N23 1.944966 1_555
Ge1 N1 1.970220 1_555
Ge1 N2 1.970220 1_555
Ge2 N17 1.944966 1_545
Ge2 N18 1.944966 1_445
Ge2 N7 1.970224 1_555
Ge2 N4 1.970224 1_455
Ge3 N19 1.944966 1_555
Ge3 N16 1.944966 1_555
Ge3 N5 1.970224 1_555
Ge3 N6 1.970224 1_555
