# generated using pymatgen
data_Cs2PdCl4
_symmetry_space_group_name_H-M   'P 1'
_cell_length_a   7.50923446
_cell_length_b   7.50923446
_cell_length_c   4.67349734
_cell_angle_alpha   90.00000000
_cell_angle_beta   90.00000000
_cell_angle_gamma   90.00000000
_symmetry_Int_Tables_number   1
_chemical_formula_structural   Cs2PdCl4
_chemical_formula_sum   'Cs2 Pd1 Cl4'
_cell_volume   263.53198227
_cell_formula_units_Z   1
loop_
 _symmetry_equiv_pos_site_id
 _symmetry_equiv_pos_as_xyz
  1  'x, y, z'
loop_
 _atom_site_type_symbol
 _atom_site_label
 _atom_site_symmetry_multiplicity
 _atom_site_fract_x
 _atom_site_fract_y
 _atom_site_fract_z
 _atom_site_occupancy
  Cs  Cs0  1  0.00000000  0.50000000  0.50000000  1
  Cs  Cs1  1  0.50000000  -0.00000000  0.50000000  1
  Pd  Pd0  1  0.00000000  -0.00000000  -0.00000000  1
  Cl  Cl0  1  0.21865666  0.21865666  0.00000000  1
  Cl  Cl1  1  0.78134334  0.78134334  -0.00000000  1
  Cl  Cl2  1  0.21865666  0.78134334  -0.00000000  1
  Cl  Cl3  1  0.78134334  0.21865666  0.00000000  1
loop_
_geom_bond_atom_site_label_1
_geom_bond_atom_site_label_2
_geom_bond_distance
_geom_bond_site_symmetry_2
Cl0 Pd0 2.322060 1_555
Cl0 Cs1 3.552431 1_554
Cl0 Cs0 3.552431 1_555
Cl0 Cs1 3.552431 1_555
Cl0 Cs0 3.552431 1_554
Cl1 Pd0 2.322060 1_665
Cl1 Cs0 3.552431 1_654
Cl1 Cs1 3.552431 1_564
Cl1 Cs1 3.552431 1_565
Cl1 Cs0 3.552431 1_655
Cl2 Pd0 2.322060 1_565
Cl2 Cs1 3.552431 1_564
Cl2 Cs0 3.552431 1_555
Cl2 Cs1 3.552431 1_565
Cl2 Cs0 3.552431 1_554
Cl3 Pd0 2.322060 1_655
Cl3 Cs0 3.552431 1_655
Cl3 Cs0 3.552431 1_654
Cl3 Cs1 3.552431 1_554
Cl3 Cs1 3.552431 1_555
