# generated using pymatgen
data_Ba4Ca(RhO3)4
_symmetry_space_group_name_H-M   'P 1'
_cell_length_a   5.96283925
_cell_length_b   5.77782505
_cell_length_c   10.47003627
_cell_angle_alpha   90.00000099
_cell_angle_beta   99.82321023
_cell_angle_gamma   118.97880892
_symmetry_Int_Tables_number   1
_chemical_formula_structural   Ba4Ca(RhO3)4
_chemical_formula_sum   'Ba4 Ca1 Rh4 O12'
_cell_volume   309.49491725
_cell_formula_units_Z   1
loop_
 _symmetry_equiv_pos_site_id
 _symmetry_equiv_pos_as_xyz
  1  'x, y, z'
loop_
 _atom_site_type_symbol
 _atom_site_label
 _atom_site_symmetry_multiplicity
 _atom_site_fract_x
 _atom_site_fract_y
 _atom_site_fract_z
 _atom_site_occupancy
  Ba  Ba0  1  0.76189400  0.38094700  0.73465900  1
  Ba  Ba1  1  0.28636200  0.64318100  0.23765600  1
  Ba  Ba2  1  0.05514200  0.02757100  0.47158800  1
  Ba  Ba3  1  0.89019100  0.94509600  0.08158900  1
  Ca  Ca0  1  0.17108300  0.08554100  0.83985300  1
  Rh  Rh0  1  0.37914500  0.68957300  0.86926000  1
  Rh  Rh1  1  0.68677100  0.34338500  0.39267700  1
  Rh  Rh2  1  0.57601600  0.28800800  0.11982600  1
  Rh  Rh3  1  0.42604000  0.71302000  0.59933000  1
  O  O0  1  0.27102800  0.40567000  0.71038100  1
  O  O1  1  0.76240500  0.15093200  0.25642100  1
  O  O2  1  0.32873100  0.16436500  0.26792200  1
  O  O3  1  0.71897300  0.85948700  0.79139400  1
  O  O4  1  0.27102800  0.86535900  0.71038100  1
  O  O5  1  0.76240500  0.61147200  0.25642100  1
  O  O6  1  0.63014900  0.06307500  0.52122200  1
  O  O7  1  0.37018400  0.43476400  0.00407100  1
  O  O8  1  0.37018400  0.93542000  0.00407100  1
  O  O9  1  0.63014900  0.56707400  0.52122200  1
  O  O10  1  0.10752300  0.55376100  0.45468000  1
  O  O11  1  0.85709600  0.42854800  0.01787600  1
loop_
_geom_bond_atom_site_label_1
_geom_bond_atom_site_label_2
_geom_bond_distance
_geom_bond_site_symmetry_2
Ba0 O6 2.643307 1_555
Ba0 O9 2.643307 1_555
Ba0 O11 2.909500 1_556
Ba0 O3 2.966590 1_545
Ba0 O3 2.966596 1_555
Ba0 O4 2.967040 1_545
Ba0 O0 2.967043 1_555
Ba0 O0 3.024024 1_655
Ba0 O4 3.024026 1_655
Ba1 O10 2.619194 1_555
Ba1 O11 2.880835 1_455
Ba1 O1 2.905725 1_565
Ba1 O5 2.905728 1_555
Ba1 O2 2.909939 1_565
Ba1 O2 2.909944 1_555
Ba1 O7 2.946418 1_555
Ba1 O8 2.946418 1_555
Ba1 O5 3.080268 1_455
Ba1 O1 3.080270 1_455
Ba2 O9 2.772581 1_445
Ba2 O6 2.772581 1_455
Ba2 O2 2.787607 1_555
Ba2 O10 2.910440 1_555
Ba2 O10 2.910446 1_545
Ba2 O1 2.914419 1_455
Ba2 O5 2.914422 1_445
Ba2 O4 2.976114 1_545
Ba2 O0 2.976117 1_555
Ba2 O9 3.283055 1_555
Ba2 O6 3.283055 1_555
Ba3 O1 2.588381 1_565
Ba3 O5 2.588387 1_555
Ba3 O2 2.701521 1_665
Ba3 O11 2.962377 1_565
Ba3 O11 2.962382 1_555
Ba3 O3 2.995129 1_554
Ba3 O8 3.041319 1_555
Ba3 O7 3.041322 1_555
Ba3 O7 3.130693 1_665
Ba3 O8 3.130696 1_655
Ca0 O4 2.195784 1_545
Ca0 O0 2.195792 1_555
Ca0 O3 2.313536 1_445
Ca0 O8 2.327943 1_546
Ca0 O7 2.327946 1_556
O0 Rh3 2.033713 1_555
O0 Rh0 2.117275 1_555
O1 Rh1 2.044631 1_555
O1 Rh2 2.053874 1_555
O2 Rh1 2.059776 1_555
O2 Rh2 2.201880 1_555
O3 Rh0 2.090596 1_555
O3 Rh3 2.275987 1_555
O4 Rh3 2.033717 1_555
O4 Rh0 2.117275 1_555
O5 Rh1 2.044631 1_555
O5 Rh2 2.053870 1_555
O6 Rh1 2.042941 1_555
O6 Rh3 2.048215 1_545
O7 Rh0 2.027837 1_554
O7 Rh2 2.048184 1_555
O8 Rh0 2.027833 1_554
O8 Rh2 2.048183 1_565
O9 Rh1 2.042945 1_555
O9 Rh3 2.048215 1_555
O10 Rh3 2.018093 1_555
O10 Rh1 2.163948 1_455
O11 Rh2 1.974730 1_555
