# generated using pymatgen
data_La(SbPd)2
_symmetry_space_group_name_H-M   'P 1'
_cell_length_a   4.69668719
_cell_length_b   4.69668719
_cell_length_c   10.40743190
_cell_angle_alpha   90.00000000
_cell_angle_beta   90.00000000
_cell_angle_gamma   90.00000000
_symmetry_Int_Tables_number   1
_chemical_formula_structural   La(SbPd)2
_chemical_formula_sum   'La2 Sb4 Pd4'
_cell_volume   229.57619315
_cell_formula_units_Z   2
loop_
 _symmetry_equiv_pos_site_id
 _symmetry_equiv_pos_as_xyz
  1  'x, y, z'
loop_
 _atom_site_type_symbol
 _atom_site_label
 _atom_site_symmetry_multiplicity
 _atom_site_fract_x
 _atom_site_fract_y
 _atom_site_fract_z
 _atom_site_occupancy
  La  La0  1  0.75000000  0.75000000  0.24151674  1
  La  La1  1  0.25000000  0.25000000  0.75848326  1
  Sb  Sb0  1  0.75000000  0.25000000  0.50000000  1
  Sb  Sb1  1  0.25000000  0.75000000  0.50000000  1
  Sb  Sb2  1  0.75000000  0.75000000  0.87319999  1
  Sb  Sb3  1  0.25000000  0.25000000  0.12680001  1
  Pd  Pd0  1  0.75000000  0.25000000  0.00000000  1
  Pd  Pd1  1  0.25000000  0.75000000  0.00000000  1
  Pd  Pd2  1  0.75000000  0.75000000  0.62286418  1
  Pd  Pd3  1  0.25000000  0.25000000  0.37713582  1
loop_
_geom_bond_atom_site_label_1
_geom_bond_atom_site_label_2
_geom_bond_distance
_geom_bond_site_symmetry_2
La0 Pd0 3.439876 1_565
La0 Pd1 3.439876 1_555
La0 Pd0 3.439876 1_555
La0 Pd1 3.439876 1_655
La0 Sb3 3.529143 1_565
La0 Sb3 3.529143 1_655
La0 Sb3 3.529143 1_555
La0 Sb3 3.529143 1_665
La0 Sb1 3.570939 1_655
La0 Sb0 3.570939 1_555
La0 Sb1 3.570939 1_555
La0 Sb0 3.570939 1_565
La0 Pd3 3.608548 1_555
La0 Pd3 3.608548 1_565
La0 Pd3 3.608548 1_655
La0 Pd3 3.608548 1_665
La1 Pd1 3.439876 1_546
La1 Pd0 3.439876 1_556
La1 Pd1 3.439876 1_556
La1 Pd0 3.439876 1_456
La1 Sb2 3.529143 1_545
La1 Sb2 3.529143 1_445
La1 Sb2 3.529143 1_455
La1 Sb2 3.529143 1_555
La1 Sb0 3.570939 1_455
La1 Sb0 3.570939 1_555
La1 Sb1 3.570939 1_545
La1 Sb1 3.570939 1_555
La1 Pd2 3.608548 1_555
La1 Pd2 3.608548 1_445
La1 Pd2 3.608548 1_545
La1 Pd2 3.608548 1_455
Pd0 Sb2 2.693738 1_544
Pd0 Sb3 2.693738 1_655
Pd0 Sb3 2.693738 1_555
Pd0 Sb2 2.693738 1_554
Pd1 Sb3 2.693738 1_565
Pd1 Sb3 2.693738 1_555
Pd1 Sb2 2.693738 1_554
Pd1 Sb2 2.693738 1_454
Pd2 Sb2 2.605353 1_555
Pd2 Sb1 2.673910 1_655
Pd2 Sb0 2.673910 1_555
Pd2 Sb1 2.673910 1_555
Pd2 Sb0 2.673910 1_565
Pd3 Sb3 2.605353 1_555
Pd3 Sb0 2.673910 1_455
Pd3 Sb0 2.673910 1_555
Pd3 Sb1 2.673910 1_545
Pd3 Sb1 2.673910 1_555
