# generated using pymatgen
data_Li9Mn2Co5O16
_symmetry_space_group_name_H-M   'P 1'
_cell_length_a   10.64964263
_cell_length_b   10.64964263
_cell_length_c   10.26333210
_cell_angle_alpha   67.18364906
_cell_angle_beta   67.18364906
_cell_angle_gamma   15.60653437
_symmetry_Int_Tables_number   1
_chemical_formula_structural   Li9Mn2Co5O16
_chemical_formula_sum   'Li9 Mn2 Co5 O16'
_cell_volume   288.17081200
_cell_formula_units_Z   1
loop_
 _symmetry_equiv_pos_site_id
 _symmetry_equiv_pos_as_xyz
  1  'x, y, z'
loop_
 _atom_site_type_symbol
 _atom_site_label
 _atom_site_symmetry_multiplicity
 _atom_site_fract_x
 _atom_site_fract_y
 _atom_site_fract_z
 _atom_site_occupancy
  Li  Li0  1  0.62600100  0.62600100  0.80912100  1
  Li  Li1  1  0.87570000  0.87570000  0.44114600  1
  Li  Li2  1  0.12884300  0.12884300  0.06394800  1
  Li  Li3  1  0.12615200  0.12615200  0.55441200  1
  Li  Li4  1  0.36988200  0.36988200  0.18997900  1
  Li  Li5  1  0.62257500  0.62257500  0.32753600  1
  Li  Li6  1  0.87511100  0.87511100  0.92731000  1
  Li  Li7  1  0.38010300  0.38010300  0.68648300  1
  Li  Li8  1  0.99774400  0.99774400  0.50041400  1
  Mn  Mn0  1  0.99918600  0.99918600  0.99980900  1
  Mn  Mn1  1  0.49856600  0.49856600  0.25920400  1
  Co  Co0  1  0.25074600  0.25074600  0.62591100  1
  Co  Co1  1  0.74878100  0.74878100  0.87533600  1
  Co  Co2  1  0.24955600  0.24955600  0.12496100  1
  Co  Co3  1  0.50461200  0.50461200  0.72358500  1
  Co  Co4  1  0.75098200  0.75098200  0.37359100  1
  O  O0  1  0.55271900  0.55271900  0.03825800  1
  O  O1  1  0.80478900  0.80478900  0.65751700  1
  O  O2  1  0.05584000  0.05584000  0.27326200  1
  O  O3  1  0.05254100  0.05254100  0.80348600  1
  O  O4  1  0.30803100  0.30803100  0.40139500  1
  O  O5  1  0.56324400  0.56324400  0.54303300  1
  O  O6  1  0.80714200  0.80714200  0.15683600  1
  O  O7  1  0.30712300  0.30712300  0.90891400  1
  O  O8  1  0.69676900  0.69676900  0.59345400  1
  O  O9  1  0.94674000  0.94674000  0.21041200  1
  O  O10  1  0.18933700  0.18933700  0.84786800  1
  O  O11  1  0.19254400  0.19254400  0.34240300  1
  O  O12  1  0.44303100  0.44303100  0.98073000  1
  O  O13  1  0.69228300  0.69228300  0.09341100  1
  O  O14  1  0.94090600  0.94090600  0.72206800  1
  O  O15  1  0.44241900  0.44241900  0.44420500  1
loop_
_geom_bond_atom_site_label_1
_geom_bond_atom_site_label_2
_geom_bond_distance
_geom_bond_site_symmetry_2
Li0 O10 2.109783 1_655
Li0 O10 2.109783 1_565
Li0 O8 2.131188 1_555
Li0 O3 2.137103 1_655
Li0 O3 2.137103 1_565
Li0 O0 2.252792 1_556
Li1 O15 2.026941 1_655
Li1 O15 2.026941 1_565
Li1 O1 2.137600 1_555
Li1 O4 2.179963 1_655
Li1 O4 2.179963 1_565
Li1 O9 2.253045 1_555
Li2 O13 2.071516 1_455
Li2 O13 2.071516 1_545
Li2 O10 2.081261 1_554
Li2 O2 2.097037 1_555
Li2 O0 2.252155 1_545
Li2 O0 2.252155 1_455
Li3 O5 1.996978 1_455
Li3 O5 1.996978 1_545
Li3 O11 2.076313 1_555
Li3 O8 2.222446 1_455
Li3 O8 2.222446 1_545
Li3 O3 2.416461 1_555
Li4 O4 2.048108 1_555
Li4 O6 2.076479 1_455
Li4 O6 2.076479 1_545
Li4 O12 2.097576 1_554
Li4 O9 2.243069 1_455
Li4 O9 2.243069 1_545
Li5 O5 2.071607 1_555
Li5 O11 2.114322 1_655
Li5 O11 2.114322 1_565
Li5 O2 2.235665 1_565
Li5 O2 2.235665 1_655
Li5 O13 2.273940 1_555
Li6 O14 2.018777 1_555
Li6 O7 2.096834 1_655
Li6 O7 2.096834 1_565
Li6 O6 2.227465 1_556
Li6 O12 2.249586 1_655
Li6 O12 2.249586 1_565
Li7 O14 2.058439 1_545
Li7 O14 2.058439 1_455
Li7 O7 2.197983 1_555
Li7 O1 2.252719 1_545
Li7 O1 2.252719 1_455
Li7 O15 2.313577 1_555
Li8 O15 2.076948 1_655
Li8 O15 2.076948 1_565
Li8 O14 2.116096 1_555
Li8 O5 2.160031 1_655
Li8 O5 2.160031 1_565
Li8 O2 2.168119 1_665
Mn0 O3 1.884597 1_665
Mn0 O12 1.927400 1_565
Mn0 O12 1.927400 1_655
Mn0 O0 1.967613 1_656
Mn0 O0 1.967613 1_566
Mn0 O9 2.006056 1_556
Mn1 O15 1.802199 1_555
Mn1 O2 1.925806 1_565
Mn1 O2 1.925806 1_655
Mn1 O9 1.991535 1_545
Mn1 O9 1.991535 1_455
Mn1 O0 2.102273 1_555
Co0 O1 1.945780 1_545
Co0 O1 1.945780 1_455
Co0 O8 1.948348 1_455
Co0 O8 1.948348 1_545
Co0 O10 2.134896 1_555
Co0 O4 2.142544 1_555
Co1 O10 2.005116 1_655
Co1 O10 2.005116 1_565
Co1 O7 2.014270 1_655
Co1 O7 2.014270 1_565
Co1 O1 2.079959 1_555
Co1 O13 2.083743 1_556
Co2 O13 1.990617 1_545
Co2 O13 1.990617 1_455
Co2 O6 1.996393 1_545
Co2 O6 1.996393 1_455
Co2 O7 2.069738 1_554
Co2 O11 2.079914 1_555
Co3 O5 1.780422 1_555
Co3 O14 1.978520 1_545
Co3 O14 1.978520 1_455
Co3 O3 2.106032 1_655
Co3 O3 2.106032 1_565
Co3 O12 2.443190 1_555
Co4 O4 1.972386 1_565
Co4 O4 1.972386 1_655
Co4 O11 2.005701 1_655
Co4 O11 2.005701 1_565
Co4 O6 2.071143 1_555
Co4 O8 2.092813 1_555
