# generated using pymatgen
data_HC2N3
_symmetry_space_group_name_H-M   'P 1'
_cell_length_a   8.43639700
_cell_length_b   9.49654109
_cell_length_c   12.74769944
_cell_angle_alpha   89.91516611
_cell_angle_beta   90.00000000
_cell_angle_gamma   116.37105152
_symmetry_Int_Tables_number   1
_chemical_formula_structural   HC2N3
_chemical_formula_sum   'H12 C24 N36'
_cell_volume   915.02047757
_cell_formula_units_Z   12
loop_
 _symmetry_equiv_pos_site_id
 _symmetry_equiv_pos_as_xyz
  1  'x, y, z'
loop_
 _atom_site_type_symbol
 _atom_site_label
 _atom_site_symmetry_multiplicity
 _atom_site_fract_x
 _atom_site_fract_y
 _atom_site_fract_z
 _atom_site_occupancy
  H  H0  1  0.42142100  0.84284100  0.95086100  1
  H  H1  1  0.37415800  0.74831600  0.82502200  1
  H  H2  1  0.57784900  0.15569800  0.05629100  1
  H  H3  1  0.62465100  0.24930100  0.18204900  1
  H  H4  1  0.38098600  0.76197100  0.61584900  1
  H  H5  1  0.61854800  0.23709500  0.39469800  1
  H  H6  1  0.08009300  0.16018500  0.44574700  1
  H  H7  1  0.12349000  0.24698000  0.31757100  1
  H  H8  1  0.92443600  0.84887300  0.55671300  1
  H  H9  1  0.87565200  0.75130400  0.68142300  1
  H  H10  1  0.11780300  0.23560600  0.11260700  1
  H  H11  1  0.87910000  0.75820100  0.89332600  1
  C  C0  1  0.16237400  0.32474800  0.96554400  1
  C  C1  1  0.07358600  0.14717300  0.83073400  1
  C  C2  1  0.21613900  0.43227700  0.80314700  1
  C  C3  1  0.12931700  0.25863400  0.65317500  1
  C  C4  1  0.26222600  0.52445200  0.63394900  1
  C  C5  1  0.33856400  0.67712800  0.46584300  1
  C  C6  1  0.42690200  0.85380300  0.33027600  1
  C  C7  1  0.23759300  0.47518600  0.13470400  1
  C  C8  1  0.37090400  0.74180800  0.15306900  1
  C  C9  1  0.50406800  0.00813700  0.18099700  1
  C  C10  1  0.49469000  0.98938100  0.82625900  1
  C  C11  1  0.62763400  0.25526700  0.85555900  1
  C  C12  1  0.76039700  0.52079400  0.87477500  1
  C  C13  1  0.57255000  0.14510100  0.67799800  1
  C  C14  1  0.71499400  0.42998800  0.70575900  1
  C  C15  1  0.66157100  0.32314100  0.54343200  1
  C  C16  1  0.73767300  0.47534500  0.37516800  1
  C  C17  1  0.87061500  0.74123000  0.35542700  1
  C  C18  1  0.78324400  0.56648800  0.20589100  1
  C  C19  1  0.92525000  0.85049900  0.17701000  1
  C  C20  1  0.83642200  0.67284400  0.04287900  1
  C  C21  1  0.99645100  0.99290300  0.68215200  1
  C  C22  1  0.28416600  0.56833200  0.30375100  1
  C  C23  1  0.00333500  0.00667000  0.32450600  1
  N  N0  1  0.22729500  0.45458900  0.90606400  1
  N  N1  1  0.08674800  0.17349600  0.93412900  1
  N  N2  1  0.13984400  0.27968900  0.76251900  1
  N  N3  1  0.27776700  0.55553400  0.73822700  1
  N  N4  1  0.05822200  0.11644400  0.61356400  1
  N  N5  1  0.19177400  0.38354700  0.58924300  1
  N  N6  1  0.32966900  0.65933800  0.57371100  1
  N  N7  1  0.27350600  0.54701100  0.40663000  1
  N  N8  1  0.41411000  0.82821900  0.43391700  1
  N  N9  1  0.49853200  0.99706300  0.28841000  1
  N  N10  1  0.36046200  0.72092400  0.26247400  1
  N  N11  1  0.22214400  0.44428900  0.23907400  1
  N  N12  1  0.17057700  0.34115300  0.07354500  1
  N  N13  1  0.30815900  0.61631800  0.08980500  1
  N  N14  1  0.44207200  0.88414400  0.11285000  1
  N  N15  1  0.57460600  0.14921100  0.13697800  1
  N  N16  1  0.42419900  0.84839800  0.87022900  1
  N  N17  1  0.55621700  0.11243400  0.89489700  1
  N  N18  1  0.68981100  0.37962200  0.91966700  1
  N  N19  1  0.82759700  0.65519400  0.93508400  1
  N  N20  1  0.50064600  0.00129100  0.71900900  1
  N  N21  1  0.63854300  0.27708600  0.74629600  1
  N  N22  1  0.77646600  0.55293100  0.77063700  1
  N  N23  1  0.58583800  0.17167500  0.57462500  1
  N  N24  1  0.72634300  0.45268500  0.60284000  1
  N  N25  1  0.67034300  0.34068600  0.43572300  1
  N  N26  1  0.80835600  0.61671300  0.41969000  1
  N  N27  1  0.94238800  0.88477600  0.39427500  1
  N  N28  1  0.72171500  0.44343100  0.27107500  1
  N  N29  1  0.85961500  0.71922900  0.24611400  1
  N  N30  1  0.77180900  0.54361900  0.10296500  1
  N  N31  1  0.91207200  0.82414300  0.07367300  1
  N  N32  1  0.99714500  0.99429100  0.21750300  1
  N  N33  1  0.92623900  0.85247800  0.63741700  1
  N  N34  1  0.00180700  0.00361400  0.78946300  1
  N  N35  1  0.07476500  0.14953000  0.36562100  1
loop_
_geom_bond_atom_site_label_1
_geom_bond_atom_site_label_2
_geom_bond_distance
_geom_bond_site_symmetry_2
H0 N16 1.028881 1_555
H1 N16 1.028992 1_555
H2 N15 1.029962 1_555
H3 N15 1.028077 1_555
H4 N6 1.025977 1_555
H5 N25 1.025603 1_555
H6 N35 1.025587 1_555
H7 N35 1.030035 1_555
H8 N33 1.029298 1_555
H9 N33 1.026696 1_555
H10 N12 1.026122 1_555
H11 N19 1.024657 1_555
C0 N0 1.338868 1_555
C0 N1 1.348400 1_555
C0 N12 1.384051 1_556
C1 N34 1.330728 1_555
C1 N1 1.337306 1_555
C1 N2 1.422730 1_555
C2 N0 1.325929 1_555
C2 N3 1.334844 1_555
C2 N2 1.398551 1_555
C3 N4 1.311715 1_555
C3 N5 1.338236 1_555
C3 N2 1.405643 1_555
C4 N5 1.328274 1_555
C4 N3 1.355784 1_555
C4 N6 1.379801 1_555
C5 N7 1.340948 1_555
C5 N8 1.347771 1_555
C5 N6 1.383126 1_555
C6 N9 1.329810 1_555
C6 N8 1.338641 1_555
C6 N10 1.424245 1_555
C7 N13 1.329371 1_555
C7 N11 1.355773 1_555
C7 N12 1.382486 1_555
C8 N14 1.314313 1_555
C8 N13 1.339118 1_555
C8 N10 1.405644 1_555
C9 N15 1.324149 1_555
C9 N14 1.367720 1_545
C9 N9 1.372351 1_545
C10 N16 1.323184 1_555
C10 N17 1.365562 1_565
C10 N20 1.370774 1_565
C11 N17 1.313898 1_555
C11 N18 1.337980 1_555
C11 N21 1.404865 1_555
C12 N18 1.329640 1_555
C12 N22 1.354944 1_555
C12 N19 1.378980 1_555
C13 N20 1.329791 1_555
C13 N23 1.336656 1_555
C13 N21 1.422078 1_555
C14 N24 1.325801 1_555
C14 N22 1.334561 1_555
C14 N21 1.399016 1_555
C15 N24 1.338330 1_555
C15 N23 1.348042 1_555
C15 N25 1.380888 1_555
C16 N26 1.330828 1_555
C16 N28 1.354883 1_555
C16 N25 1.380447 1_555
C17 N27 1.318672 1_555
C17 N26 1.338139 1_555
C17 N29 1.406313 1_555
C18 N30 1.326737 1_555
C18 N28 1.335596 1_555
C18 N29 1.397851 1_555
C19 N32 1.328650 1_555
C19 N31 1.336625 1_555
C19 N29 1.421335 1_555
C20 N30 1.338945 1_555
C20 N31 1.346440 1_555
C20 N19 1.382566 1_554
C21 N33 1.324746 1_555
C21 N4 1.366123 1_665
C21 N34 1.371151 1_665
C22 N7 1.323660 1_555
C22 N11 1.340338 1_555
C22 N10 1.400069 1_555
C23 N35 1.324476 1_555
C23 N27 1.365127 1_445
C23 N32 1.368276 1_445
