# generated using pymatgen
data_Sr2CaTi3O9
_symmetry_space_group_name_H-M   'P 1'
_cell_length_a   5.55465600
_cell_length_b   9.59504279
_cell_length_c   13.59887242
_cell_angle_alpha   89.64723222
_cell_angle_beta   89.82530895
_cell_angle_gamma   89.87789087
_symmetry_Int_Tables_number   1
_chemical_formula_structural   Sr2CaTi3O9
_chemical_formula_sum   'Sr8 Ca4 Ti12 O36'
_cell_volume   724.76258305
_cell_formula_units_Z   4
loop_
 _symmetry_equiv_pos_site_id
 _symmetry_equiv_pos_as_xyz
  1  'x, y, z'
loop_
 _atom_site_type_symbol
 _atom_site_label
 _atom_site_symmetry_multiplicity
 _atom_site_fract_x
 _atom_site_fract_y
 _atom_site_fract_z
 _atom_site_occupancy
  Sr  Sr0  1  0.99629800  0.83431400  0.58392200  1
  Sr  Sr1  1  0.99617200  0.16586900  0.91604500  1
  Sr  Sr2  1  0.51060900  0.66722700  0.91529600  1
  Sr  Sr3  1  0.51190400  0.99805100  0.24986800  1
  Sr  Sr4  1  0.50992400  0.33301000  0.58307100  1
  Sr  Sr5  1  0.01074900  0.50251500  0.75197600  1
  Sr  Sr6  1  0.01292700  0.83527400  0.08613300  1
  Sr  Sr7  1  0.01249400  0.16898000  0.41869700  1
  Ca  Ca0  1  0.49676200  0.33325700  0.08379400  1
  Ca  Ca1  1  0.49851500  0.66648800  0.41658900  1
  Ca  Ca2  1  0.49670700  0.00086100  0.75030300  1
  Ca  Ca3  1  0.99898600  0.50015100  0.25050500  1
  Ti  Ti0  1  0.00813800  0.50248400  0.49898900  1
  Ti  Ti1  1  0.00679400  0.83632600  0.83448100  1
  Ti  Ti2  1  0.00676300  0.17140600  0.16778700  1
  Ti  Ti3  1  0.50787000  0.00034900  0.50130700  1
  Ti  Ti4  1  0.50791500  0.33427200  0.83596700  1
  Ti  Ti5  1  0.50875400  0.66575600  0.16954300  1
  Ti  Ti6  1  0.00658200  0.16747000  0.66866800  1
  Ti  Ti7  1  0.00674700  0.49926900  0.00389900  1
  Ti  Ti8  1  0.00848400  0.83144400  0.33470000  1
  Ti  Ti9  1  0.50771900  0.66945300  0.66695100  1
  Ti  Ti10  1  0.50805500  0.00176500  0.00186000  1
  Ti  Ti11  1  0.50863400  0.33756200  0.33373300  1
  O  O0  1  0.73089300  0.92956600  0.90181100  1
  O  O1  1  0.72793400  0.26739200  0.23352400  1
  O  O2  1  0.73216900  0.59803300  0.56679200  1
  O  O3  1  0.23852800  0.23694500  0.75903200  1
  O  O4  1  0.23112500  0.56502200  0.09897600  1
  O  O5  1  0.23883800  0.89904900  0.42696100  1
  O  O6  1  0.25606100  0.09937000  0.57873400  1
  O  O7  1  0.25774500  0.43398600  0.91385500  1
  O  O8  1  0.25868000  0.76961100  0.24518300  1
  O  O9  1  0.76154000  0.39666800  0.41730900  1
  O  O10  1  0.75886000  0.73148400  0.75167000  1
  O  O11  1  0.75832400  0.06410400  0.08547200  1
  O  O12  1  0.25921000  0.40362900  0.42789000  1
  O  O13  1  0.25568700  0.73841600  0.75931600  1
  O  O14  1  0.25771600  0.07391700  0.09398000  1
  O  O15  1  0.75857300  0.09133900  0.57125500  1
  O  O16  1  0.75837800  0.42575600  0.90469500  1
  O  O17  1  0.76123600  0.75841400  0.23702200  1
  O  O18  1  0.73073000  0.22588400  0.75361500  1
  O  O19  1  0.72827600  0.55556300  0.08964600  1
  O  O20  1  0.73181800  0.88967300  0.42084700  1
  O  O21  1  0.23895000  0.93394300  0.91046000  1
  O  O22  1  0.23104800  0.27667100  0.24319100  1
  O  O23  1  0.23859300  0.60241200  0.57523800  1
  O  O24  1  0.00072700  0.98646000  0.73629000  1
  O  O25  1  0.99560600  0.31699900  0.06714000  1
  O  O26  1  0.00176700  0.64544200  0.39545400  1
  O  O27  1  0.49776200  0.85296500  0.60302400  1
  O  O28  1  0.49712000  0.18518900  0.93496800  1
  O  O29  1  0.49623200  0.52223900  0.27236900  1
  O  O30  1  0.99090900  0.34690600  0.59631100  1
  O  O31  1  0.99263900  0.67984100  0.93185700  1
  O  O32  1  0.99247500  0.01556700  0.26407800  1
  O  O33  1  0.49737100  0.48747800  0.73620000  1
  O  O34  1  0.49560900  0.81852900  0.06964200  1
  O  O35  1  0.49636900  0.15198900  0.40210800  1
loop_
_geom_bond_atom_site_label_1
_geom_bond_atom_site_label_2
_geom_bond_distance
_geom_bond_site_symmetry_2
Ca0 O28 2.479889 1_554
Ca0 O1 2.488140 1_555
Ca0 O19 2.494860 1_555
Ca0 O22 2.672304 1_555
Ca0 O4 2.674858 1_555
Ca0 O25 2.783580 1_555
Ca0 O25 2.798395 1_455
Ca0 O14 2.825426 1_555
Ca0 O7 2.832517 1_554
Ca0 O11 2.960468 1_555
Ca0 O16 2.964564 1_554
Ca1 O29 2.407467 1_555
Ca1 O20 2.506484 1_555
Ca1 O2 2.506806 1_555
Ca1 O5 2.658697 1_555
Ca1 O23 2.661864 1_555
Ca1 O26 2.782957 1_555
Ca1 O26 2.816205 1_655
Ca1 O12 2.856575 1_555
Ca1 O8 2.858663 1_555
Ca1 O9 2.969998 1_555
Ca1 O17 2.971156 1_555
Ca2 O27 2.461707 1_545
Ca2 O18 2.523305 1_555
Ca2 O0 2.529879 1_545
Ca2 O21 2.678311 1_545
Ca2 O3 2.681500 1_555
Ca2 O24 2.765966 1_545
Ca2 O24 2.808721 1_645
Ca2 O6 2.847845 1_555
Ca2 O13 2.856242 1_545
Ca2 O15 2.959005 1_555
Ca2 O10 2.963933 1_545
Ca2 O28 3.080442 1_555
Ca3 O26 2.421404 1_655
Ca3 O22 2.501912 1_655
Ca3 O4 2.503540 1_655
Ca3 O1 2.707533 1_555
Ca3 O19 2.707635 1_555
Ca3 O29 2.787546 1_655
Ca3 O9 2.798299 1_555
Ca3 O17 2.810746 1_555
Ca3 O29 2.815185 1_555
Ca3 O12 2.958714 1_655
Ca3 O8 2.963737 1_655
Ca3 O25 3.059551 1_555
O0 Ti10 1.964895 1_566
O0 Ti1 1.995765 1_655
O0 Sr1 2.714953 1_565
O0 Sr2 2.805881 1_555
O0 Sr6 3.089606 1_656
O1 Ti11 1.947275 1_555
O1 Ti2 2.010413 1_655
O1 Sr3 2.858786 1_545
O1 Sr7 3.117647 1_655
O2 Ti9 1.968921 1_555
O2 Ti0 2.009056 1_655
O2 Sr0 2.714665 1_555
O2 Sr4 2.836220 1_555
O2 Sr5 3.092825 1_655
O3 Ti6 1.907294 1_555
O3 Ti4 2.057495 1_555
O3 Sr1 2.608619 1_455
O3 Sr5 2.843784 1_555
O3 Sr4 2.967290 1_555
O4 Ti7 1.909535 1_555
O4 Ti5 2.063996 1_555
O4 Sr6 2.864588 1_555
O4 Sr2 3.092515 1_554
O5 Ti8 1.911930 1_555
O5 Ti3 2.056109 1_565
O5 Sr0 2.593567 1_455
O5 Sr7 2.878339 1_565
O5 Sr3 2.993066 1_555
O6 Ti6 1.959259 1_555
O6 Ti3 1.991336 1_555
O6 Sr7 2.647473 1_555
O6 Sr4 2.652006 1_555
O6 Sr0 2.927067 1_445
O7 Ti7 1.957265 1_556
O7 Ti4 1.991512 1_555
O7 Sr2 2.644951 1_555
O7 Sr5 2.675344 1_555
O7 Sr1 2.957179 1_455
O8 Ti8 1.939165 1_555
O8 Ti5 1.994641 1_555
O8 Sr3 2.608122 1_555
O8 Sr6 2.633642 1_555
O9 Ti11 1.899447 1_555
O9 Ti0 2.042054 1_655
O9 Sr7 2.589010 1_655
O9 Sr4 2.715743 1_555
O10 Ti9 1.910330 1_555
O10 Ti1 2.050879 1_655
O10 Sr5 2.602142 1_655
O10 Sr2 2.683440 1_555
O10 Sr0 2.806464 1_555
O11 Ti10 1.898607 1_555
O11 Ti2 2.060848 1_655
O11 Sr6 2.609126 1_645
O11 Sr3 2.690861 1_545
O11 Sr1 2.822522 1_554
O12 Ti0 1.943427 1_555
O12 Ti11 1.989043 1_555
O12 Sr4 2.616897 1_555
O12 Sr7 2.642055 1_555
O13 Ti1 1.958672 1_555
O13 Ti9 1.992728 1_555
O13 Sr2 2.639560 1_555
O13 Sr5 2.645965 1_555
O13 Sr0 2.932557 1_455
O14 Ti2 1.955244 1_555
O14 Ti10 1.994539 1_555
O14 Sr3 2.648071 1_545
O14 Sr6 2.668431 1_545
O14 Sr1 2.955287 1_454
O15 Ti3 1.905194 1_555
O15 Ti6 2.052700 1_655
O15 Sr7 2.610741 1_655
O15 Sr4 2.701859 1_555
O15 Sr0 2.799570 1_545
O16 Ti4 1.898108 1_555
O16 Ti7 2.061074 1_656
O16 Sr5 2.605478 1_655
O16 Sr2 2.696731 1_555
O16 Sr1 2.822967 1_555
O17 Ti5 1.903302 1_555
O17 Ti8 2.041637 1_655
O17 Sr6 2.584004 1_655
O17 Sr3 2.688013 1_555
O18 Ti4 1.966709 1_555
O18 Ti6 1.997484 1_655
O18 Sr1 2.717578 1_555
O18 Sr4 2.814636 1_555
O18 Sr5 3.079235 1_655
O19 Ti5 1.945721 1_555
O19 Ti7 2.009297 1_655
O19 Sr2 2.865646 1_554
O19 Sr6 3.117903 1_655
O20 Ti3 1.967922 1_565
O20 Ti8 2.009901 1_655
O20 Sr0 2.712993 1_555
O20 Sr3 2.821679 1_555
O20 Sr7 3.103270 1_665
O21 Ti1 1.906037 1_555
O21 Ti10 2.056257 1_566
O21 Sr1 2.600991 1_465
O21 Sr6 2.852817 1_556
O21 Sr2 2.968611 1_555
O22 Ti2 1.910392 1_555
O22 Ti11 2.063756 1_555
O22 Sr7 2.862701 1_555
O22 Sr3 3.093386 1_545
O23 Ti0 1.912774 1_555
O23 Ti9 2.056540 1_555
O23 Sr0 2.601137 1_455
O23 Sr5 2.873195 1_555
O23 Sr4 2.990930 1_555
O24 Ti1 1.958487 1_555
O24 Ti6 1.960498 1_565
O24 Sr0 2.542202 1_455
O24 Sr1 2.998441 1_465
O25 Ti7 1.945165 1_655
O25 Ti2 1.950711 1_655
O25 Sr1 2.522163 1_554
O26 Ti0 1.959961 1_555
O26 Ti8 1.962411 1_555
O26 Sr0 3.148067 1_455
O27 Ti9 1.959660 1_555
O27 Ti3 1.972843 1_565
O27 Sr0 2.786041 1_555
O27 Sr0 2.804532 1_455
O28 Ti4 1.959207 1_555
O28 Ti10 1.977067 1_556
O28 Sr1 2.789079 1_555
O28 Sr1 2.801886 1_455
O29 Ti11 1.955161 1_555
O29 Ti5 1.957679 1_555
O30 Ti6 1.979657 1_655
O30 Ti0 1.991136 1_655
O30 Sr5 2.600691 1_655
O30 Sr4 2.681969 1_555
O30 Sr4 2.890863 1_655
O30 Sr7 2.968331 1_655
O31 Ti7 1.986658 1_656
O31 Ti1 1.997380 1_655
O31 Sr6 2.584403 1_656
O31 Sr2 2.690693 1_555
O31 Sr2 2.887600 1_655
O31 Sr5 2.989626 1_655
O32 Ti2 1.983075 1_655
O32 Ti8 2.007563 1_645
O32 Sr7 2.576919 1_655
O32 Sr3 2.682681 1_545
O32 Sr3 2.895718 1_645
O32 Sr6 2.985002 1_645
O33 Ti9 1.979567 1_555
O33 Ti4 1.995151 1_555
O33 Sr4 2.564090 1_555
O33 Sr5 2.714467 1_555
O33 Sr5 2.864358 1_655
O33 Sr2 2.994166 1_555
O34 Ti10 1.981340 1_565
O34 Ti5 1.993827 1_555
O34 Sr2 2.560463 1_554
O34 Sr6 2.694349 1_555
O34 Sr6 2.887834 1_655
O34 Sr3 3.006001 1_555
O35 Ti3 1.979098 1_555
O35 Ti11 2.004850 1_555
O35 Sr3 2.551711 1_545
O35 Sr7 2.701186 1_555
O35 Sr7 2.881485 1_655
O35 Sr4 3.022055 1_555
