# generated using pymatgen
data_Y2Fe3Si5
_symmetry_space_group_name_H-M   'P 1'
_cell_length_a   10.30903333
_cell_length_b   10.30903333
_cell_length_c   5.46304099
_cell_angle_alpha   90.00000000
_cell_angle_beta   90.00000000
_cell_angle_gamma   90.00000000
_symmetry_Int_Tables_number   1
_chemical_formula_structural   Y2Fe3Si5
_chemical_formula_sum   'Y8 Fe12 Si20'
_cell_volume   580.59106313
_cell_formula_units_Z   4
loop_
 _symmetry_equiv_pos_site_id
 _symmetry_equiv_pos_as_xyz
  1  'x, y, z'
loop_
 _atom_site_type_symbol
 _atom_site_label
 _atom_site_symmetry_multiplicity
 _atom_site_fract_x
 _atom_site_fract_y
 _atom_site_fract_z
 _atom_site_occupancy
  Y  Y0  1  0.56981954  0.73647724  0.50000000  1
  Y  Y1  1  0.43018046  0.26352276  0.50000000  1
  Y  Y2  1  0.06981954  0.76352276  0.00000000  1
  Y  Y3  1  0.93018046  0.23647724  0.00000000  1
  Y  Y4  1  0.26352276  0.56981954  0.50000000  1
  Y  Y5  1  0.73647724  0.43018046  0.50000000  1
  Y  Y6  1  0.23647724  0.06981954  0.00000000  1
  Y  Y7  1  0.76352276  0.93018046  0.00000000  1
  Fe  Fe0  1  0.87688119  0.85455748  0.50000000  1
  Fe  Fe1  1  0.12311881  0.14544252  0.50000000  1
  Fe  Fe2  1  0.37688119  0.64544252  0.00000000  1
  Fe  Fe3  1  0.62311881  0.35455748  0.00000000  1
  Fe  Fe4  1  0.14544252  0.87688119  0.50000000  1
  Fe  Fe5  1  0.85455748  0.12311881  0.50000000  1
  Fe  Fe6  1  0.35455748  0.37688119  0.00000000  1
  Fe  Fe7  1  0.64544252  0.62311881  0.00000000  1
  Fe  Fe8  1  0.50000000  -0.00000000  0.25000000  1
  Fe  Fe9  1  -0.00000000  0.50000000  0.75000000  1
  Fe  Fe10  1  -0.00000000  0.50000000  0.25000000  1
  Fe  Fe11  1  0.50000000  -0.00000000  0.75000000  1
  Si  Si0  1  0.67688385  0.17688385  0.25000000  1
  Si  Si1  1  0.32311615  0.82311615  0.25000000  1
  Si  Si2  1  0.17688385  0.32311615  0.75000000  1
  Si  Si3  1  0.82311615  0.67688385  0.75000000  1
  Si  Si4  1  0.82311615  0.67688385  0.25000000  1
  Si  Si5  1  0.17688385  0.32311615  0.25000000  1
  Si  Si6  1  0.67688385  0.17688385  0.75000000  1
  Si  Si7  1  0.32311615  0.82311615  0.75000000  1
  Si  Si8  1  0.50000000  0.50000000  0.22694173  1
  Si  Si9  1  -0.00000000  -0.00000000  0.72694173  1
  Si  Si10  1  0.50000000  0.50000000  0.77305827  1
  Si  Si11  1  -0.00000000  -0.00000000  0.27305827  1
  Si  Si12  1  0.67939912  0.97945096  0.50000000  1
  Si  Si13  1  0.32060088  0.02054904  0.50000000  1
  Si  Si14  1  0.17939912  0.52054904  0.00000000  1
  Si  Si15  1  0.82060088  0.47945096  0.00000000  1
  Si  Si16  1  0.02054904  0.67939912  0.50000000  1
  Si  Si17  1  0.97945096  0.32060088  0.50000000  1
  Si  Si18  1  0.47945096  0.17939912  0.00000000  1
  Si  Si19  1  0.52054904  0.82060088  0.00000000  1
loop_
_geom_bond_atom_site_label_1
_geom_bond_atom_site_label_2
_geom_bond_distance
_geom_bond_site_symmetry_2
Fe0 Si9 2.322964 1_665
Fe0 Si11 2.322964 1_665
Fe0 Si16 2.335420 1_655
Fe0 Si4 2.351048 1_555
Fe0 Si3 2.351048 1_555
Fe0 Si12 2.408821 1_555
Fe0 Y7 3.071586 1_556
Fe0 Y7 3.071586 1_555
Fe1 Si9 2.322964 1_555
Fe1 Si11 2.322964 1_555
Fe1 Si17 2.335420 1_455
Fe1 Si5 2.351048 1_555
Fe1 Si2 2.351048 1_555
Fe1 Si13 2.408821 1_555
Fe1 Y6 3.071586 1_555
Fe1 Y6 3.071586 1_556
Fe2 Si8 2.322964 1_555
Fe2 Si10 2.322964 1_554
Fe2 Si19 2.335420 1_555
Fe2 Si1 2.351048 1_555
Fe2 Si7 2.351048 1_554
Fe2 Si14 2.408821 1_555
Fe2 Y4 3.071586 1_554
Fe2 Y4 3.071586 1_555
Fe3 Si8 2.322964 1_555
Fe3 Si10 2.322964 1_554
Fe3 Si18 2.335420 1_555
Fe3 Si6 2.351048 1_554
Fe3 Si0 2.351048 1_555
Fe3 Si15 2.408821 1_555
Fe3 Y5 3.071586 1_555
Fe3 Y5 3.071586 1_554
Fe4 Si11 2.322964 1_565
Fe4 Si9 2.322964 1_565
Fe4 Si13 2.335420 1_565
Fe4 Si7 2.351048 1_555
Fe4 Si1 2.351048 1_555
Fe4 Si16 2.408821 1_555
Fe4 Y2 3.071586 1_555
Fe4 Y2 3.071586 1_556
Fe5 Si9 2.322964 1_655
Fe5 Si11 2.322964 1_655
Fe5 Si12 2.335420 1_545
Fe5 Si6 2.351048 1_555
Fe5 Si0 2.351048 1_555
Fe5 Si17 2.408821 1_555
Fe5 Y3 3.071586 1_556
Fe5 Y3 3.071586 1_555
Fe6 Si8 2.322964 1_555
Fe6 Si10 2.322964 1_554
Fe6 Si14 2.335420 1_555
Fe6 Si2 2.351048 1_554
Fe6 Si5 2.351048 1_555
Fe6 Si18 2.408821 1_555
Fe6 Y1 3.071586 1_555
Fe6 Y1 3.071586 1_554
Fe7 Si8 2.322964 1_555
Fe7 Si10 2.322964 1_554
Fe7 Si15 2.335420 1_555
Fe7 Si4 2.351048 1_555
Fe7 Si3 2.351048 1_554
Fe7 Si19 2.408821 1_555
Fe7 Y0 3.071586 1_554
Fe7 Y0 3.071586 1_555
Fe8 Si18 2.308804 1_555
Fe8 Si12 2.308804 1_545
Fe8 Si19 2.308804 1_545
Fe8 Si13 2.308804 1_555
Fe8 Si0 2.578821 1_555
Fe8 Si1 2.578821 1_545
Fe8 Y7 3.124683 1_545
Fe8 Y0 3.124683 1_545
Fe8 Y1 3.124683 1_555
Fe8 Y6 3.124683 1_555
Fe9 Si14 2.308804 1_556
Fe9 Si15 2.308804 1_456
Fe9 Si17 2.308804 1_455
Fe9 Si16 2.308804 1_555
Fe9 Si3 2.578821 1_455
Fe9 Si2 2.578821 1_555
Fe9 Y4 3.124683 1_555
Fe9 Y3 3.124683 1_456
Fe9 Y2 3.124683 1_556
Fe9 Y5 3.124683 1_455
Fe10 Si14 2.308804 1_555
Fe10 Si15 2.308804 1_455
Fe10 Si17 2.308804 1_455
Fe10 Si16 2.308804 1_555
Fe10 Si4 2.578821 1_455
Fe10 Si5 2.578821 1_555
Fe10 Fe9 2.731520 1_555
Fe10 Fe9 2.731520 1_554
Fe10 Y4 3.124683 1_555
Fe10 Y3 3.124683 1_455
Fe10 Y2 3.124683 1_555
Fe10 Y5 3.124683 1_455
Fe11 Si18 2.308804 1_556
Fe11 Si19 2.308804 1_546
Fe11 Si12 2.308804 1_545
Fe11 Si13 2.308804 1_555
Fe11 Si6 2.578821 1_555
Fe11 Si7 2.578821 1_545
Fe11 Fe8 2.731520 1_555
Fe11 Fe8 2.731520 1_556
Fe11 Y7 3.124683 1_546
Fe11 Y0 3.124683 1_545
Fe11 Y1 3.124683 1_555
Fe11 Y6 3.124683 1_556
Si0 Si18 2.451243 1_555
Si0 Si12 2.451243 1_545
Si0 Si6 2.731520 1_555
Si0 Si6 2.731520 1_554
Si0 Y3 3.010202 1_555
Si0 Y5 3.010202 1_555
Si0 Y1 3.021801 1_555
Si0 Y7 3.021801 1_545
Si1 Si13 2.451243 1_565
Si1 Si19 2.451243 1_555
Si1 Si7 2.731520 1_555
Si1 Si7 2.731520 1_554
Si1 Y2 3.010202 1_555
Si1 Y4 3.010202 1_555
Si1 Y6 3.021801 1_565
Si1 Y0 3.021801 1_555
Si2 Si5 2.731520 1_556
Si2 Si5 2.731520 1_555
Si2 Y1 3.010202 1_555
Si2 Y6 3.010202 1_556
Si2 Y4 3.021801 1_555
Si2 Y3 3.021801 1_456
Si3 Si4 2.731520 1_555
Si3 Si4 2.731520 1_556
Si3 Y7 3.010202 1_556
Si3 Y0 3.010202 1_555
Si3 Y2 3.021801 1_656
Si3 Y5 3.021801 1_555
Si4 Y0 3.010202 1_555
Si4 Y7 3.010202 1_555
Si4 Y2 3.021801 1_655
Si4 Y5 3.021801 1_555
Si5 Y1 3.010202 1_555
Si5 Y6 3.010202 1_555
Si5 Y4 3.021801 1_555
Si5 Y3 3.021801 1_455
Si6 Y3 3.010202 1_556
Si6 Y5 3.010202 1_555
Si6 Y1 3.021801 1_555
Si6 Y7 3.021801 1_546
Si7 Y4 3.010202 1_555
Si7 Y2 3.010202 1_556
Si7 Y6 3.021801 1_566
Si7 Y0 3.021801 1_555
Si8 Y0 2.947278 1_555
Si8 Y4 2.947278 1_555
Si8 Y1 2.947278 1_555
Si8 Y5 2.947278 1_555
Si9 Y6 2.947278 1_556
Si9 Y3 2.947278 1_456
Si9 Y2 2.947278 1_546
Si9 Y7 2.947278 1_446
Si10 Y0 2.947278 1_555
Si10 Y4 2.947278 1_555
Si10 Y1 2.947278 1_555
Si10 Y5 2.947278 1_555
Si11 Y2 2.947278 1_545
Si11 Y6 2.947278 1_555
Si11 Y3 2.947278 1_455
Si11 Y7 2.947278 1_445
Si12 Si6 2.451243 1_565
Si12 Y0 2.747776 1_555
Si12 Y7 2.910548 1_556
Si12 Y7 2.910548 1_555
Si13 Si7 2.451243 1_545
Si13 Y1 2.747776 1_555
Si13 Y6 2.910548 1_555
Si13 Y6 2.910548 1_556
Si14 Si5 2.451243 1_555
Si14 Si2 2.451243 1_554
Si14 Y2 2.747776 1_555
Si14 Y4 2.910548 1_554
Si14 Y4 2.910548 1_555
Si15 Si3 2.451243 1_554
Si15 Si4 2.451243 1_555
Si15 Y3 2.747776 1_555
Si15 Y5 2.910548 1_555
Si15 Y5 2.910548 1_554
Si16 Si3 2.451243 1_455
Si16 Si4 2.451243 1_455
Si16 Y4 2.747776 1_555
Si16 Y2 2.910548 1_555
Si16 Y2 2.910548 1_556
Si17 Si2 2.451243 1_655
Si17 Si5 2.451243 1_655
Si17 Y5 2.747776 1_555
Si17 Y3 2.910548 1_555
Si17 Y3 2.910548 1_556
Si18 Si6 2.451243 1_554
Si18 Y6 2.747776 1_555
Si18 Y1 2.910548 1_555
Si18 Y1 2.910548 1_554
Si19 Si7 2.451243 1_554
Si19 Y7 2.747776 1_555
Si19 Y0 2.910548 1_554
Si19 Y0 2.910548 1_555
