# generated using pymatgen
data_BaNaY(BO3)2
_symmetry_space_group_name_H-M   'P 1'
_cell_length_a   12.49739643
_cell_length_b   12.49739643
_cell_length_c   12.49739683
_cell_angle_alpha   25.05518987
_cell_angle_beta   25.05518987
_cell_angle_gamma   25.05519271
_symmetry_Int_Tables_number   1
_chemical_formula_structural   BaNaY(BO3)2
_chemical_formula_sum   'Ba2 Na2 Y2 B4 O12'
_cell_volume   307.99187823
_cell_formula_units_Z   2
loop_
 _symmetry_equiv_pos_site_id
 _symmetry_equiv_pos_as_xyz
  1  'x, y, z'
loop_
 _atom_site_type_symbol
 _atom_site_label
 _atom_site_symmetry_multiplicity
 _atom_site_fract_x
 _atom_site_fract_y
 _atom_site_fract_z
 _atom_site_occupancy
  Ba  Ba0  1  0.89820000  0.89820000  0.89820000  1
  Ba  Ba1  1  0.10180000  0.10180000  0.10180000  1
  Na  Na0  1  0.61473600  0.61473600  0.61473600  1
  Na  Na1  1  0.38526400  0.38526400  0.38526400  1
  Y  Y0  1  0.00000000  0.00000000  0.00000000  1
  Y  Y1  1  0.50000000  0.50000000  0.50000000  1
  B  B0  1  0.29332900  0.29332900  0.29332900  1
  B  B1  1  0.70667100  0.70667100  0.70667100  1
  B  B2  1  0.20601700  0.20601700  0.20601700  1
  B  B3  1  0.79398300  0.79398300  0.79398300  1
  O  O0  1  0.15929100  0.13125900  0.58947000  1
  O  O1  1  0.58947000  0.15929100  0.13125900  1
  O  O2  1  0.13125900  0.58947000  0.15929100  1
  O  O3  1  0.84070900  0.86874100  0.41053000  1
  O  O4  1  0.41053000  0.84070900  0.86874100  1
  O  O5  1  0.86874100  0.41053000  0.84070900  1
  O  O6  1  0.35367100  0.35406900  0.91072800  1
  O  O7  1  0.91072800  0.35367100  0.35406900  1
  O  O8  1  0.35406900  0.91072800  0.35367100  1
  O  O9  1  0.64632900  0.64593100  0.08927200  1
  O  O10  1  0.08927200  0.64632900  0.64593100  1
  O  O11  1  0.64593100  0.08927200  0.64632900  1
loop_
_geom_bond_atom_site_label_1
_geom_bond_atom_site_label_2
_geom_bond_distance
_geom_bond_site_symmetry_2
Ba0 O0 2.839969 1_665
Ba0 O1 2.839969 1_566
Ba0 O2 2.839969 1_656
Ba0 O8 2.867538 1_556
Ba0 O7 2.867538 1_565
Ba0 O6 2.867539 1_655
Ba0 O7 2.869577 1_556
Ba0 O8 2.869578 1_655
Ba0 O6 2.869578 1_565
Ba1 O3 2.839969 1_445
Ba1 O4 2.839969 1_544
Ba1 O5 2.839969 1_454
Ba1 O11 2.867538 1_554
Ba1 O10 2.867538 1_545
Ba1 O9 2.867539 1_455
Ba1 O10 2.869577 1_554
Ba1 O11 2.869578 1_455
Ba1 O9 2.869578 1_545
Na0 O2 2.675915 1_655
Na0 O1 2.675915 1_556
Na0 O0 2.675915 1_565
Na0 O1 2.825684 1_565
Na0 O2 2.825684 1_556
Na0 O0 2.825685 1_655
Na1 O5 2.675915 1_455
Na1 O4 2.675915 1_554
Na1 O3 2.675915 1_545
Na1 O4 2.825684 1_545
Na1 O5 2.825684 1_554
Na1 O3 2.825685 1_455
B0 O0 1.392481 1_555
B0 O1 1.392481 1_555
B0 O2 1.392481 1_555
B1 O3 1.392481 1_555
B1 O4 1.392481 1_555
B1 O5 1.392481 1_555
B2 O6 1.387120 1_554
B2 O7 1.387120 1_455
B2 O8 1.387120 1_545
B3 O9 1.387120 1_556
B3 O10 1.387120 1_655
B3 O11 1.387120 1_565
O0 Y0 2.267118 1_556
O1 Y0 2.267118 1_655
O2 Y0 2.267118 1_565
O3 Y0 2.267118 1_665
O4 Y0 2.267118 1_566
O5 Y0 2.267118 1_656
O6 Y1 2.256713 1_555
O7 Y1 2.256713 1_555
O8 Y1 2.256713 1_555
O9 Y1 2.256713 1_555
O10 Y1 2.256713 1_555
O11 Y1 2.256713 1_555
