# generated using pymatgen
data_SrNdGaCuO5
_symmetry_space_group_name_H-M   'P 1'
_cell_length_a   9.10864522
_cell_length_b   9.10864522
_cell_length_c   5.32285252
_cell_angle_alpha   73.01251600
_cell_angle_beta   73.01251600
_cell_angle_gamma   129.71806335
_symmetry_Int_Tables_number   1
_chemical_formula_structural   SrNdGaCuO5
_chemical_formula_sum   'Sr2 Nd2 Ga2 Cu2 O10'
_cell_volume   246.62078029
_cell_formula_units_Z   2
loop_
 _symmetry_equiv_pos_site_id
 _symmetry_equiv_pos_as_xyz
  1  'x, y, z'
loop_
 _atom_site_type_symbol
 _atom_site_label
 _atom_site_symmetry_multiplicity
 _atom_site_fract_x
 _atom_site_fract_y
 _atom_site_fract_z
 _atom_site_occupancy
  Sr  Sr0  1  0.37580100  0.09898900  0.51210800  1
  Sr  Sr1  1  0.09898900  0.37580100  0.51210800  1
  Nd  Nd0  1  0.63061800  0.92935200  0.46788300  1
  Nd  Nd1  1  0.92935200  0.63061800  0.46788300  1
  Ga  Ga0  1  0.31394900  0.31394900  0.89463200  1
  Ga  Ga1  1  0.68421800  0.68421800  0.02957400  1
  Cu  Cu0  1  0.50531500  0.00476900  0.99510300  1
  Cu  Cu1  1  0.00476900  0.50531500  0.99510300  1
  O  O0  1  0.63120700  0.63120700  0.71805800  1
  O  O1  1  0.37249900  0.37249900  0.48337800  1
  O  O2  1  0.26641800  0.07170700  0.10947800  1
  O  O3  1  0.69745100  0.90104900  0.98608300  1
  O  O4  1  0.07170700  0.26641800  0.10947800  1
  O  O5  1  0.90104900  0.69745100  0.98608300  1
  O  O6  1  0.25782700  0.74644900  0.49597500  1
  O  O7  1  0.74913500  0.26324700  0.99254900  1
  O  O8  1  0.74644900  0.25782700  0.49597500  1
  O  O9  1  0.26324700  0.74913500  0.99254900  1
loop_
_geom_bond_atom_site_label_1
_geom_bond_atom_site_label_2
_geom_bond_distance
_geom_bond_site_symmetry_2
Nd0 O4 2.354111 1_665
Nd0 O8 2.531130 1_565
Nd0 O7 2.555049 1_564
Nd0 O9 2.555742 1_555
Nd0 O6 2.579924 1_555
Nd0 O3 2.586236 1_554
Nd0 O0 2.656688 1_555
Nd0 O3 2.968418 1_555
Nd1 O2 2.354111 1_665
Nd1 O6 2.531130 1_655
Nd1 O9 2.555049 1_654
Nd1 O7 2.555742 1_555
Nd1 O8 2.579924 1_555
Nd1 O5 2.586236 1_554
Nd1 O0 2.656688 1_555
Nd1 O5 2.968418 1_555
Ga0 O2 1.838271 1_556
Ga0 O4 1.838271 1_556
Ga0 O1 1.906024 1_555
Ga0 O0 1.933501 1_555
Ga1 O3 1.838798 1_554
Ga1 O5 1.838798 1_554
Ga1 O1 1.907896 1_555
Ga1 O0 1.963031 1_554
Cu0 O8 1.933228 1_555
Cu0 O7 1.938231 1_555
Cu0 O9 1.938601 1_545
Cu0 O6 1.941597 1_546
Cu0 O3 2.459307 1_545
Cu0 O2 2.572142 1_556
Cu1 O6 1.933228 1_555
Cu1 O9 1.938231 1_555
Cu1 O7 1.938601 1_455
Cu1 O8 1.941597 1_456
Cu1 O5 2.459307 1_455
Cu1 O4 2.572142 1_556
O1 Sr0 2.471179 1_555
O1 Sr1 2.471179 1_555
O2 Sr0 2.624871 1_555
O2 Sr0 2.921590 1_554
O3 Sr1 2.542035 1_665
O4 Sr1 2.624871 1_555
O4 Sr1 2.921590 1_554
O5 Sr0 2.542035 1_665
O6 Sr1 2.648417 1_555
O6 Sr0 2.697906 1_565
O7 Sr0 2.652401 1_556
O7 Sr1 2.697541 1_655
O8 Sr0 2.648417 1_555
O8 Sr1 2.697906 1_655
O9 Sr1 2.652401 1_556
O9 Sr0 2.697541 1_565
