# generated using pymatgen
data_RbH2(IO3)3
_symmetry_space_group_name_H-M   'P 1'
_cell_length_a   7.62763396
_cell_length_b   7.72717104
_cell_length_c   8.33588990
_cell_angle_alpha   77.81030784
_cell_angle_beta   84.70240817
_cell_angle_gamma   83.51944026
_symmetry_Int_Tables_number   1
_chemical_formula_structural   RbH2(IO3)3
_chemical_formula_sum   'Rb2 H4 I6 O18'
_cell_volume   475.98343966
_cell_formula_units_Z   2
loop_
 _symmetry_equiv_pos_site_id
 _symmetry_equiv_pos_as_xyz
  1  'x, y, z'
loop_
 _atom_site_type_symbol
 _atom_site_label
 _atom_site_symmetry_multiplicity
 _atom_site_fract_x
 _atom_site_fract_y
 _atom_site_fract_z
 _atom_site_occupancy
  Rb  Rb0  1  0.27522400  0.17646000  0.19307100  1
  Rb  Rb1  1  0.55699000  0.80584200  0.50375800  1
  H  H0  1  0.99765100  0.58563000  0.00960600  1
  H  H1  1  0.44422400  0.48814100  0.88096000  1
  H  H2  1  0.40081800  0.05177500  0.83010800  1
  H  H3  1  0.84166200  0.40048000  0.67571900  1
  I  I0  1  0.82117200  0.11569600  0.00271500  1
  I  I1  1  0.02471900  0.87044500  0.67576100  1
  I  I2  1  0.06876800  0.67323700  0.25899100  1
  I  I3  1  0.58232800  0.69367700  0.00959500  1
  I  I4  1  0.24965100  0.32855400  0.66069900  1
  I  I5  1  0.76231600  0.31705500  0.42733500  1
  O  O0  1  0.87168300  0.19447100  0.18487000  1
  O  O1  1  0.01557300  0.95443300  0.99945600  1
  O  O2  1  0.65072000  0.96635700  0.10103700  1
  O  O3  1  0.83322600  0.03408100  0.68718000  1
  O  O4  1  0.19367200  0.01539000  0.57456700  1
  O  O5  1  0.95937000  0.79257900  0.49664600  1
  O  O6  1  0.28372200  0.75310700  0.25002000  1
  O  O7  1  0.10745600  0.45404400  0.39811500  1
  O  O8  1  0.11137200  0.56248200  0.06692200  1
  O  O9  1  0.80278500  0.66060500  0.90999300  1
  O  O10  1  0.46479700  0.83273800  0.84221100  1
  O  O11  1  0.50848900  0.46586600  0.98422400  1
  O  O12  1  0.32219700  0.53295300  0.69576200  1
  O  O13  1  0.03139300  0.34038300  0.76918800  1
  O  O14  1  0.37318700  0.18009400  0.84264300  1
  O  O15  1  0.54664400  0.23791600  0.43839300  1
  O  O16  1  0.72762600  0.53503700  0.29000100  1
  O  O17  1  0.72432500  0.42086000  0.62294600  1
loop_
_geom_bond_atom_site_label_1
_geom_bond_atom_site_label_2
_geom_bond_distance
_geom_bond_site_symmetry_2
H0 O8 1.009012 1_655
H1 O11 1.003587 1_555
H2 O14 1.015386 1_555
H2 O10 1.692200 1_545
H3 O17 1.015374 1_555
H3 O13 1.679530 1_655
I0 O1 1.828123 1_644
I0 O0 1.837353 1_555
I0 O2 1.853715 1_545
I1 O3 1.830189 1_465
I1 O4 1.831086 1_565
I1 O5 1.850483 1_455
I2 O6 1.805834 1_555
I2 O7 1.849774 1_555
I2 O8 1.954799 1_555
I2 O5 2.400806 1_455
I3 O10 1.812610 1_554
I3 O9 1.821293 1_554
I3 O11 1.965639 1_554
I3 O2 2.508506 1_555
I3 O16 2.675113 1_555
I4 O12 1.818878 1_555
I4 O13 1.822165 1_555
I4 O14 1.946621 1_555
I4 O7 2.492483 1_555
I5 O15 1.806649 1_555
I5 O16 1.832690 1_555
I5 O17 1.949054 1_555
I5 O0 2.448880 1_555
O0 Rb0 3.071914 1_655
O1 Rb0 3.463716 1_566
O2 Rb0 3.240100 1_565
O2 Rb1 3.364202 1_555
O4 Rb1 3.120698 1_545
O4 Rb0 3.191727 1_555
O5 Rb1 3.054835 1_555
O6 Rb0 3.198923 1_565
O6 Rb1 3.217814 1_555
O7 Rb0 3.111994 1_555
O8 Rb0 3.105123 1_555
O10 Rb1 2.888900 1_555
O11 Rb0 3.143194 1_556
O12 Rb1 3.018844 1_555
O14 Rb0 2.942646 1_556
O15 Rb0 3.179209 1_555
O15 Rb1 3.260418 1_545
O16 Rb1 3.127199 1_555
O17 Rb1 3.097536 1_555
