# generated using pymatgen
data_MgSiO3
_symmetry_space_group_name_H-M   'P 1'
_cell_length_a   5.12954340
_cell_length_b   15.17136500
_cell_length_c   6.41986247
_cell_angle_alpha   90.00000000
_cell_angle_beta   87.41962911
_cell_angle_gamma   90.00000000
_symmetry_Int_Tables_number   1
_chemical_formula_structural   MgSiO3
_chemical_formula_sum   'Mg8 Si8 O24'
_cell_volume   499.10108596
_cell_formula_units_Z   8
loop_
 _symmetry_equiv_pos_site_id
 _symmetry_equiv_pos_as_xyz
  1  'x, y, z'
loop_
 _atom_site_type_symbol
 _atom_site_label
 _atom_site_symmetry_multiplicity
 _atom_site_fract_x
 _atom_site_fract_y
 _atom_site_fract_z
 _atom_site_occupancy
  Mg  Mg0  1  0.35864700  0.33533600  0.89357500  1
  Mg  Mg1  1  0.58814200  0.88155200  0.33342200  1
  Mg  Mg2  1  0.14135300  0.83533600  0.10642500  1
  Mg  Mg3  1  0.64135300  0.66466400  0.10642500  1
  Mg  Mg4  1  0.41185800  0.11844800  0.66657800  1
  Mg  Mg5  1  0.08814200  0.61844800  0.33342200  1
  Mg  Mg6  1  0.91185800  0.38155200  0.66657800  1
  Mg  Mg7  1  0.85864700  0.16466400  0.89357500  1
  Si  Si0  1  0.29592200  0.40658000  0.37361100  1
  Si  Si1  1  0.66409400  0.86184600  0.89680000  1
  Si  Si2  1  0.33590600  0.13815400  0.10320000  1
  Si  Si3  1  0.20407800  0.90658000  0.62638900  1
  Si  Si4  1  0.70407800  0.59342000  0.62638900  1
  Si  Si5  1  0.79592200  0.09342000  0.37361100  1
  Si  Si6  1  0.16409400  0.63815400  0.89680000  1
  Si  Si7  1  0.83590600  0.36184600  0.10320000  1
  O  O0  1  0.25537500  0.50959700  0.38161700  1
  O  O1  1  0.47194700  0.61658100  0.81136600  1
  O  O2  1  0.81624100  0.14497200  0.59466000  1
  O  O3  1  0.52805300  0.38341900  0.18863400  1
  O  O4  1  0.97194700  0.88341900  0.81136600  1
  O  O5  1  0.00546200  0.34890100  0.31604100  1
  O  O6  1  0.45508500  0.91274400  0.04935500  1
  O  O7  1  0.02805300  0.11658100  0.18863400  1
  O  O8  1  0.99453800  0.65109900  0.68395900  1
  O  O9  1  0.26611400  0.70941100  0.07998500  1
  O  O10  1  0.75537500  0.99040300  0.38161700  1
  O  O11  1  0.49453800  0.84890100  0.68395900  1
  O  O12  1  0.74462500  0.49040300  0.61838300  1
  O  O13  1  0.95508500  0.58725600  0.04935500  1
  O  O14  1  0.68375900  0.64497200  0.40534000  1
  O  O15  1  0.50546200  0.15109900  0.31604100  1
  O  O16  1  0.31624100  0.35502800  0.59466000  1
  O  O17  1  0.23388600  0.20941100  0.92001500  1
  O  O18  1  0.54491500  0.08725600  0.95064500  1
  O  O19  1  0.24462500  0.00959700  0.61838300  1
  O  O20  1  0.73388600  0.29058900  0.92001500  1
  O  O21  1  0.18375900  0.85502800  0.40534000  1
  O  O22  1  0.04491500  0.41274400  0.95064500  1
  O  O23  1  0.76611400  0.79058900  0.07998500  1
loop_
_geom_bond_atom_site_label_1
_geom_bond_atom_site_label_2
_geom_bond_distance
_geom_bond_site_symmetry_2
Mg0 O16 1.963846 1_555
Mg0 O22 2.012505 1_555
Mg0 O17 2.019511 1_555
Mg0 O20 2.055230 1_555
Mg0 O3 2.241343 1_556
Mg1 O10 1.892798 1_555
Mg1 O6 2.031657 1_555
Mg1 O21 2.142799 1_555
Mg1 O23 2.291591 1_555
Mg1 O11 2.333008 1_555
Mg2 O21 1.963846 1_555
Mg2 O6 2.012505 1_555
Mg2 O9 2.019511 1_555
Mg2 O23 2.055230 1_455
Mg2 O4 2.241343 1_454
Mg3 O14 1.963846 1_555
Mg3 O13 2.012505 1_555
Mg3 O23 2.019511 1_555
Mg3 O9 2.055230 1_555
Mg3 O1 2.241343 1_554
Mg4 O19 1.892798 1_555
Mg4 O18 2.031657 1_555
Mg4 O2 2.142799 1_555
Mg4 O17 2.291591 1_555
Mg4 O15 2.333008 1_555
Mg5 O0 1.892798 1_555
Mg5 O13 2.031657 1_455
Mg5 O14 2.142799 1_455
Mg5 O9 2.291591 1_555
Mg5 O8 2.333008 1_455
Mg6 O12 1.892798 1_555
Mg6 O22 2.031657 1_655
Mg6 O16 2.142799 1_655
Mg6 O20 2.291591 1_555
Mg6 O5 2.333008 1_655
Mg7 O2 1.963846 1_555
Mg7 O18 2.012505 1_555
Mg7 O20 2.019511 1_555
Mg7 O17 2.055230 1_655
Mg7 O7 2.241343 1_656
O0 Si0 1.577219 1_555
O1 Si6 1.680374 1_555
O1 Si4 1.680535 1_555
O2 Si5 1.627802 1_555
O3 Si7 1.680374 1_555
O3 Si0 1.680535 1_555
O4 Si1 1.680374 1_555
O4 Si3 1.680535 1_655
O5 Si7 1.664064 1_455
O5 Si0 1.780957 1_555
O6 Si1 1.615663 1_554
O7 Si2 1.680374 1_555
O7 Si5 1.680535 1_455
O8 Si6 1.664064 1_655
O8 Si4 1.780957 1_555
O9 Si6 1.697353 1_554
O10 Si5 1.577219 1_565
O11 Si1 1.664064 1_555
O11 Si3 1.780957 1_555
O12 Si4 1.577219 1_555
O13 Si6 1.615663 1_654
O14 Si4 1.627802 1_555
O15 Si2 1.664064 1_555
O15 Si5 1.780957 1_555
O16 Si0 1.627802 1_555
O17 Si2 1.697353 1_556
O18 Si2 1.615663 1_556
O19 Si3 1.577219 1_545
O20 Si7 1.697353 1_556
O21 Si3 1.627802 1_555
O22 Si7 1.615663 1_456
O23 Si1 1.697353 1_554
