# generated using pymatgen
data_YGaRh
_symmetry_space_group_name_H-M   'P 1'
_cell_length_a   4.31696732
_cell_length_b   6.80453363
_cell_length_c   7.69768120
_cell_angle_alpha   90.00000000
_cell_angle_beta   90.00000000
_cell_angle_gamma   90.00000000
_symmetry_Int_Tables_number   1
_chemical_formula_structural   YGaRh
_chemical_formula_sum   'Y4 Ga4 Rh4'
_cell_volume   226.11899504
_cell_formula_units_Z   4
loop_
 _symmetry_equiv_pos_site_id
 _symmetry_equiv_pos_as_xyz
  1  'x, y, z'
loop_
 _atom_site_type_symbol
 _atom_site_label
 _atom_site_symmetry_multiplicity
 _atom_site_fract_x
 _atom_site_fract_y
 _atom_site_fract_z
 _atom_site_occupancy
  Y  Y0  1  0.25000000  0.97493755  0.31119306  1
  Y  Y1  1  0.25000000  0.47493755  0.18880694  1
  Y  Y2  1  0.75000000  0.02506245  0.68880694  1
  Y  Y3  1  0.75000000  0.52506245  0.81119306  1
  Ga  Ga0  1  0.25000000  0.34363904  0.56876223  1
  Ga  Ga1  1  0.25000000  0.84363904  0.93123777  1
  Ga  Ga2  1  0.75000000  0.65636096  0.43123777  1
  Ga  Ga3  1  0.75000000  0.15636096  0.06876223  1
  Rh  Rh0  1  0.25000000  0.22809988  0.89014115  1
  Rh  Rh1  1  0.25000000  0.72809988  0.60985885  1
  Rh  Rh2  1  0.75000000  0.77190012  0.10985885  1
  Rh  Rh3  1  0.75000000  0.27190012  0.39014115  1
loop_
_geom_bond_atom_site_label_1
_geom_bond_atom_site_label_2
_geom_bond_distance
_geom_bond_site_symmetry_2
Ga0 Rh0 2.595793 1_555
Ga0 Rh3 2.605356 1_455
Ga0 Rh3 2.605356 1_555
Ga0 Rh1 2.635135 1_555
Ga0 Y1 3.058188 1_555
Ga0 Y3 3.108952 1_555
Ga0 Y3 3.108952 1_455
Ga0 Y2 3.195646 1_455
Ga0 Y2 3.195646 1_555
Ga0 Y0 3.197707 1_545
Ga1 Rh1 2.595793 1_555
Ga1 Rh2 2.605356 1_456
Ga1 Rh2 2.605356 1_556
Ga1 Rh0 2.635135 1_565
Ga1 Y0 3.058188 1_556
Ga1 Y2 3.108952 1_465
Ga1 Y2 3.108952 1_565
Ga1 Y3 3.195646 1_555
Ga1 Y3 3.195646 1_455
Ga1 Y1 3.197707 1_556
Ga2 Rh2 2.595793 1_555
Ga2 Rh1 2.605356 1_655
Ga2 Rh1 2.605356 1_555
Ga2 Rh3 2.635135 1_555
Ga2 Y3 3.058188 1_555
Ga2 Y1 3.108952 1_555
Ga2 Y1 3.108952 1_655
Ga2 Y0 3.195646 1_655
Ga2 Y0 3.195646 1_555
Ga2 Y2 3.197707 1_565
Ga3 Rh3 2.595793 1_555
Ga3 Rh0 2.605356 1_654
Ga3 Rh0 2.605356 1_554
Ga3 Rh2 2.635135 1_545
Ga3 Y2 3.058188 1_554
Ga3 Y0 3.108952 1_645
Ga3 Y0 3.108952 1_545
Ga3 Y1 3.195646 1_655
Ga3 Y1 3.195646 1_555
Ga3 Y3 3.197707 1_554
Rh0 Y1 2.847221 1_556
Rh0 Y2 2.994946 1_555
Rh0 Y2 2.994946 1_455
Rh0 Y3 3.018537 1_455
Rh0 Y3 3.018537 1_555
Rh1 Y0 2.847221 1_555
Rh1 Y3 2.994946 1_455
Rh1 Y3 2.994946 1_555
Rh1 Y2 3.018537 1_465
Rh1 Y2 3.018537 1_565
Rh2 Y3 2.847221 1_554
Rh2 Y0 2.994946 1_555
Rh2 Y0 2.994946 1_655
Rh2 Y1 3.018537 1_555
Rh2 Y1 3.018537 1_655
Rh3 Y2 2.847221 1_555
Rh3 Y1 2.994946 1_555
Rh3 Y1 2.994946 1_655
Rh3 Y0 3.018537 1_645
Rh3 Y0 3.018537 1_545
