# generated using pymatgen
data_LuPO2
_symmetry_space_group_name_H-M   'P 1'
_cell_length_a   7.12053613
_cell_length_b   7.12053613
_cell_length_c   7.12053613
_cell_angle_alpha   127.74753637
_cell_angle_beta   127.74753637
_cell_angle_gamma   77.03436746
_symmetry_Int_Tables_number   1
_chemical_formula_structural   LuPO2
_chemical_formula_sum   'Lu4 P4 O8'
_cell_volume   219.09644893
_cell_formula_units_Z   4
loop_
 _symmetry_equiv_pos_site_id
 _symmetry_equiv_pos_as_xyz
  1  'x, y, z'
loop_
 _atom_site_type_symbol
 _atom_site_label
 _atom_site_symmetry_multiplicity
 _atom_site_fract_x
 _atom_site_fract_y
 _atom_site_fract_z
 _atom_site_occupancy
  Lu  Lu0  1  0.87500000  0.62500000  0.25000000  1
  Lu  Lu1  1  0.37500000  0.62500000  0.75000000  1
  Lu  Lu2  1  0.37500000  0.62500000  0.25000000  1
  Lu  Lu3  1  0.37500000  0.12500000  0.75000000  1
  P  P0  1  0.37500000  0.12500000  0.25000000  1
  P  P1  1  0.87500000  0.12500000  0.75000000  1
  P  P2  1  0.87500000  0.12500000  0.25000000  1
  P  P3  1  0.87500000  0.62500000  0.75000000  1
  O  O0  1  0.16988000  0.42469800  0.25481700  1
  O  O1  1  0.16988000  0.91506300  0.74518300  1
  O  O2  1  0.17469800  0.41988000  0.75481700  1
  O  O3  1  0.58012000  0.82530200  0.24518300  1
  O  O4  1  0.66506300  0.41988000  0.24518300  1
  O  O5  1  0.58012000  0.33493700  0.75481700  1
  O  O6  1  0.57530200  0.83012000  0.74518300  1
  O  O7  1  0.08493700  0.83012000  0.25481700  1
loop_
_geom_bond_atom_site_label_1
_geom_bond_atom_site_label_2
_geom_bond_distance
_geom_bond_site_symmetry_2
Lu0 O3 2.252117 1_555
Lu0 O0 2.252117 1_655
Lu0 O1 2.252120 1_655
Lu0 O5 2.252120 1_554
Lu0 O4 2.285753 1_555
Lu0 O7 2.285753 1_655
Lu1 O5 2.252120 1_555
Lu1 O1 2.252120 1_555
Lu1 O3 2.252122 1_556
Lu1 O0 2.252122 1_555
Lu1 O2 2.285748 1_555
Lu1 O6 2.285748 1_555
Lu2 O7 2.252120 1_555
Lu2 O4 2.252120 1_555
Lu2 O6 2.252122 1_555
Lu2 O2 2.252122 1_554
Lu2 O3 2.285748 1_555
Lu2 O0 2.285748 1_555
Lu3 O6 2.252117 1_545
Lu3 O2 2.252117 1_555
Lu3 O4 2.252120 1_556
Lu3 O7 2.252120 1_545
Lu3 O1 2.285753 1_545
Lu3 O5 2.285753 1_555
O0 P1 2.293793 1_454
O0 P0 2.293797 1_555
O1 P1 2.293792 1_465
O1 P0 2.293792 1_566
O2 P2 2.293793 1_455
O2 P3 2.293797 1_455
O3 P1 2.293793 1_565
O3 P0 2.293797 1_565
O4 P2 2.293792 1_555
O4 P3 2.293792 1_555
O5 P1 2.293792 1_555
O5 P0 2.293792 1_555
O6 P2 2.293793 1_566
O6 P3 2.293797 1_555
O7 P2 2.293792 1_465
O7 P3 2.293792 1_454
