# generated using pymatgen
data_NaB3SeO7
_symmetry_space_group_name_H-M   'P 1'
_cell_length_a   16.07875800
_cell_length_b   4.58891400
_cell_length_c   8.75954551
_cell_angle_alpha   81.24649063
_cell_angle_beta   90.00000000
_cell_angle_gamma   90.00000000
_symmetry_Int_Tables_number   1
_chemical_formula_structural   NaB3SeO7
_chemical_formula_sum   'Na4 B12 Se4 O28'
_cell_volume   638.78648684
_cell_formula_units_Z   4
loop_
 _symmetry_equiv_pos_site_id
 _symmetry_equiv_pos_as_xyz
  1  'x, y, z'
loop_
 _atom_site_type_symbol
 _atom_site_label
 _atom_site_symmetry_multiplicity
 _atom_site_fract_x
 _atom_site_fract_y
 _atom_site_fract_z
 _atom_site_occupancy
  Na  Na0  1  0.60815800  0.67624400  0.04164600  1
  Na  Na1  1  0.10815800  0.32375600  0.45835400  1
  Na  Na2  1  0.39184200  0.32375600  0.95835400  1
  Na  Na3  1  0.89184200  0.67624400  0.54164600  1
  B  B0  1  0.59466900  0.32876700  0.74262200  1
  B  B1  1  0.09466900  0.67123300  0.75737800  1
  B  B2  1  0.40533100  0.67123300  0.25737800  1
  B  B3  1  0.90533100  0.32876700  0.24262200  1
  B  B4  1  0.73825300  0.51343100  0.76937000  1
  B  B5  1  0.23825300  0.48656900  0.73063000  1
  B  B6  1  0.26174700  0.48656900  0.23063000  1
  B  B7  1  0.76174700  0.51343100  0.26937000  1
  B  B8  1  0.68228600  0.51603000  0.51476400  1
  B  B9  1  0.18228600  0.48397000  0.98523600  1
  B  B10  1  0.31771400  0.48397000  0.48523600  1
  B  B11  1  0.81771400  0.51603000  0.01476400  1
  Se  Se0  1  0.48827500  0.84340700  0.71569900  1
  Se  Se1  1  0.98827500  0.15659300  0.78430100  1
  Se  Se2  1  0.51172500  0.15659300  0.28430100  1
  Se  Se3  1  0.01172500  0.84340700  0.21569900  1
  O  O0  1  0.51784300  0.47510800  0.79320200  1
  O  O1  1  0.01784300  0.52489200  0.70679800  1
  O  O2  1  0.48215700  0.52489200  0.20679800  1
  O  O3  1  0.98215700  0.47510800  0.29320200  1
  O  O4  1  0.58022100  0.00619200  0.78632400  1
  O  O5  1  0.08022100  0.99380800  0.71367600  1
  O  O6  1  0.41977900  0.99380800  0.21367600  1
  O  O7  1  0.91977900  0.00619200  0.28632400  1
  O  O8  1  0.41494700  0.88073700  0.84352600  1
  O  O9  1  0.91494700  0.11926300  0.65647400  1
  O  O10  1  0.58505300  0.11926300  0.15647400  1
  O  O11  1  0.08505300  0.88073700  0.34352600  1
  O  O12  1  0.66649600  0.39837200  0.83382900  1
  O  O13  1  0.16649600  0.60162800  0.66617100  1
  O  O14  1  0.33350400  0.60162800  0.16617100  1
  O  O15  1  0.83350400  0.39837200  0.33382900  1
  O  O16  1  0.80712700  0.55869700  0.85644100  1
  O  O17  1  0.30712700  0.44130300  0.64355900  1
  O  O18  1  0.19287300  0.44130300  0.14355900  1
  O  O19  1  0.69287300  0.55869700  0.35644100  1
  O  O20  1  0.74734900  0.58470000  0.60910200  1
  O  O21  1  0.24734900  0.41530000  0.89089800  1
  O  O22  1  0.25265100  0.41530000  0.39089800  1
  O  O23  1  0.75265100  0.58470000  0.10910200  1
  O  O24  1  0.60804400  0.41328000  0.57508400  1
  O  O25  1  0.10804400  0.58672000  0.92491600  1
  O  O26  1  0.39195600  0.58672000  0.42491600  1
  O  O27  1  0.89195600  0.41328000  0.07508400  1
loop_
_geom_bond_atom_site_label_1
_geom_bond_atom_site_label_2
_geom_bond_distance
_geom_bond_site_symmetry_2
Na0 O23 2.418189 1_555
Na0 O10 2.430043 1_565
Na0 O2 2.524642 1_555
Na0 O4 2.542745 1_564
Na0 O12 2.554624 1_554
Na0 O10 2.626796 1_555
Na0 O0 2.882384 1_554
Na1 O22 2.418189 1_555
Na1 O11 2.430043 1_545
Na1 O3 2.524642 1_455
Na1 O5 2.542745 1_545
Na1 O13 2.554624 1_555
Na1 O11 2.626796 1_555
Na1 O1 2.882384 1_555
Na2 O21 2.418189 1_555
Na2 O8 2.430043 1_545
Na2 O0 2.524642 1_555
Na2 O6 2.542745 1_546
Na2 O14 2.554624 1_556
Na2 O8 2.626796 1_555
Na2 O2 2.882384 1_556
Na3 O20 2.418189 1_555
Na3 O9 2.430043 1_565
Na3 O1 2.524642 1_655
Na3 O7 2.542745 1_565
Na3 O15 2.554624 1_555
Na3 O9 2.626796 1_555
Na3 O3 2.882384 1_555
B0 O12 1.466886 1_555
B0 O24 1.475515 1_555
B0 O4 1.489709 1_555
B0 O0 1.504566 1_555
B1 O13 1.466886 1_555
B1 O25 1.475515 1_555
B1 O5 1.489709 1_555
B1 O1 1.504566 1_555
B2 O14 1.466886 1_555
B2 O26 1.475515 1_555
B2 O6 1.489709 1_555
B2 O2 1.504566 1_555
B3 O15 1.466886 1_555
B3 O27 1.475515 1_555
B3 O7 1.489709 1_555
B3 O3 1.504566 1_555
B4 O12 1.355736 1_555
B4 O16 1.378201 1_555
B4 O20 1.399810 1_555
B5 O13 1.355736 1_555
B5 O17 1.378201 1_555
B5 O21 1.399810 1_555
B6 O14 1.355736 1_555
B6 O18 1.378201 1_555
B6 O22 1.399810 1_555
B7 O15 1.355736 1_555
B7 O19 1.378201 1_555
B7 O23 1.399810 1_555
B8 O24 1.360382 1_555
B8 O19 1.381298 1_555
B8 O20 1.398506 1_555
B9 O25 1.360382 1_555
B9 O18 1.381298 1_556
B9 O21 1.398506 1_555
B10 O26 1.360382 1_555
B10 O17 1.381298 1_555
B10 O22 1.398506 1_555
B11 O27 1.360382 1_555
B11 O16 1.381298 1_554
B11 O23 1.398506 1_555
O0 Se0 1.787204 1_555
O1 Se1 1.787204 1_455
O2 Se2 1.787204 1_555
O3 Se3 1.787204 1_655
O4 Se0 1.807483 1_545
O5 Se1 1.807483 1_465
O6 Se2 1.807483 1_565
O7 Se3 1.807483 1_645
O8 Se0 1.652744 1_555
O9 Se1 1.652744 1_555
O10 Se2 1.652744 1_555
O11 Se3 1.652744 1_555
