# generated using pymatgen
data_Sr5Bi3
_symmetry_space_group_name_H-M   'P 1'
_cell_length_a   8.94939453
_cell_length_b   10.27032081
_cell_length_c   13.61033623
_cell_angle_alpha   90.00000000
_cell_angle_beta   90.00000000
_cell_angle_gamma   90.00000000
_symmetry_Int_Tables_number   1
_chemical_formula_structural   Sr5Bi3
_chemical_formula_sum   'Sr20 Bi12'
_cell_volume   1250.96891463
_cell_formula_units_Z   4
loop_
 _symmetry_equiv_pos_site_id
 _symmetry_equiv_pos_as_xyz
  1  'x, y, z'
loop_
 _atom_site_type_symbol
 _atom_site_label
 _atom_site_symmetry_multiplicity
 _atom_site_fract_x
 _atom_site_fract_y
 _atom_site_fract_z
 _atom_site_occupancy
  Sr  Sr0  1  0.69156184  0.95966098  0.42152996  1
  Sr  Sr1  1  0.80843816  0.54033902  0.92152996  1
  Sr  Sr2  1  0.30843112  0.45965359  0.57846744  1
  Sr  Sr3  1  0.19156888  0.04034641  0.07846744  1
  Sr  Sr4  1  0.30843112  0.04034641  0.57846744  1
  Sr  Sr5  1  0.19156888  0.45965359  0.07846744  1
  Sr  Sr6  1  0.69156184  0.54033902  0.42152996  1
  Sr  Sr7  1  0.80843816  0.95966098  0.92152996  1
  Sr  Sr8  1  0.32247946  0.75000000  0.27455544  1
  Sr  Sr9  1  0.17752054  0.75000000  0.77455544  1
  Sr  Sr10  1  0.67751692  0.25000000  0.72544254  1
  Sr  Sr11  1  0.82248308  0.25000000  0.22544254  1
  Sr  Sr12  1  0.03592164  0.75000000  0.49529904  1
  Sr  Sr13  1  0.46407836  0.75000000  0.99529904  1
  Sr  Sr14  1  0.96408531  0.25000000  0.50470144  1
  Sr  Sr15  1  0.53591469  0.25000000  0.00470144  1
  Sr  Sr16  1  0.84800990  0.75000000  0.20671754  1
  Sr  Sr17  1  0.65199010  0.75000000  0.70671754  1
  Sr  Sr18  1  0.15199597  0.25000000  0.79328045  1
  Sr  Sr19  1  0.34800403  0.25000000  0.29328045  1
  Bi  Bi0  1  0.07597354  0.75000000  0.01513739  1
  Bi  Bi1  1  0.42402646  0.75000000  0.51513739  1
  Bi  Bi2  1  0.92402728  0.25000000  0.98486426  1
  Bi  Bi3  1  0.57597272  0.25000000  0.48486426  1
  Bi  Bi4  1  0.56338063  0.98833713  0.17095116  1
  Bi  Bi5  1  0.93661937  0.51166287  0.67095116  1
  Bi  Bi6  1  0.43660334  0.48832559  0.82905237  1
  Bi  Bi7  1  0.06339666  0.01167441  0.32905237  1
  Bi  Bi8  1  0.43660334  0.01167441  0.82905237  1
  Bi  Bi9  1  0.06339666  0.48832559  0.32905237  1
  Bi  Bi10  1  0.56338063  0.51166287  0.17095116  1
  Bi  Bi11  1  0.93661937  0.98833713  0.67095116  1
loop_
_geom_bond_atom_site_label_1
_geom_bond_atom_site_label_2
_geom_bond_distance
_geom_bond_site_symmetry_2
Sr0 Sr12 3.891306 1_655
Sr0 Sr16 3.891633 1_555
Sr0 Sr14 4.015136 1_565
Sr1 Sr13 3.891306 1_555
Sr1 Sr17 3.891633 1_555
Sr1 Sr15 4.015136 1_556
Sr10 Sr14 3.950117 1_555
Sr10 Sr15 4.006504 1_556
Sr11 Sr15 3.950117 1_555
Sr11 Sr14 4.006504 1_555
Sr12 Sr6 3.891306 1_455
Sr12 Sr8 3.950082 1_555
Sr12 Sr9 4.006462 1_555
Sr12 Sr4 4.015104 1_565
Sr12 Sr2 4.015104 1_555
Sr12 Sr16 4.272571 1_455
Sr12 Sr17 4.481703 1_455
Sr13 Sr7 3.891306 1_555
Sr13 Sr9 3.950082 1_555
Sr13 Sr8 4.006462 1_556
Sr13 Sr3 4.015104 1_566
Sr13 Sr5 4.015104 1_556
Sr13 Sr17 4.272571 1_555
Sr13 Sr16 4.481703 1_556
Sr14 Sr2 3.891154 1_655
Sr14 Sr4 3.891154 1_655
Sr14 Sr6 4.015136 1_555
Sr14 Sr18 4.272536 1_655
Sr14 Sr19 4.481636 1_655
Sr15 Sr5 3.891154 1_555
Sr15 Sr3 3.891154 1_555
Sr15 Sr7 4.015136 1_544
Sr15 Sr19 4.272536 1_555
Sr15 Sr18 4.481636 1_554
Sr16 Sr6 3.891633 1_555
Sr17 Sr7 3.891633 1_555
Sr18 Sr2 3.891555 1_555
Sr18 Sr4 3.891555 1_555
Sr19 Sr5 3.891555 1_555
Sr19 Sr3 3.891555 1_555
Bi0 Sr3 3.271878 1_565
Bi0 Sr5 3.271878 1_555
Bi0 Sr16 3.310749 1_455
Bi0 Sr9 3.398175 1_554
Bi0 Sr1 3.462999 1_454
Bi0 Sr7 3.462999 1_454
Bi0 Sr13 3.483782 1_554
Bi1 Sr4 3.271878 1_565
Bi1 Sr2 3.271878 1_555
Bi1 Sr17 3.310749 1_555
Bi1 Sr8 3.398175 1_555
Bi1 Sr6 3.462999 1_555
Bi1 Sr0 3.462999 1_555
Bi1 Sr12 3.483782 1_555
Bi2 Sr1 3.271806 1_555
Bi2 Sr7 3.271806 1_545
Bi2 Sr18 3.310816 1_655
Bi2 Sr11 3.398120 1_556
Bi2 Sr3 3.462969 1_656
Bi2 Sr5 3.462969 1_656
Bi2 Sr15 3.483850 1_556
Bi3 Sr6 3.271806 1_555
Bi3 Sr0 3.271806 1_545
Bi3 Sr19 3.310816 1_555
Bi3 Sr10 3.398120 1_555
Bi3 Sr2 3.462969 1_555
Bi3 Sr4 3.462969 1_555
Bi3 Sr14 3.483850 1_555
Bi4 Sr15 3.521677 1_565
Bi4 Sr13 3.535091 1_554
Bi4 Sr8 3.553598 1_555
Bi4 Sr16 3.566121 1_555
Bi4 Sr3 3.597488 1_565
Bi4 Sr0 3.610253 1_555
Bi4 Sr11 3.626132 1_565
Bi4 Sr19 3.702589 1_565
Bi4 Sr7 4.052225 1_554
Bi5 Sr14 3.521677 1_555
Bi5 Sr12 3.535091 1_655
Bi5 Sr9 3.553598 1_655
Bi5 Sr17 3.566121 1_555
Bi5 Sr2 3.597488 1_655
Bi5 Sr1 3.610253 1_555
Bi5 Sr10 3.626132 1_555
Bi5 Sr18 3.702589 1_655
Bi5 Sr6 4.052225 1_555
Bi6 Sr13 3.521746 1_555
Bi6 Sr15 3.535002 1_556
Bi6 Sr10 3.553614 1_555
Bi6 Sr18 3.565910 1_555
Bi6 Sr1 3.597656 1_555
Bi6 Sr2 3.610303 1_555
Bi6 Sr9 3.626123 1_555
Bi6 Sr17 3.702756 1_555
Bi6 Sr5 4.052041 1_556
Bi7 Sr12 3.521746 1_545
Bi7 Sr14 3.535002 1_455
Bi7 Sr11 3.553614 1_455
Bi7 Sr19 3.565910 1_555
Bi7 Sr0 3.597656 1_445
Bi7 Sr3 3.610303 1_555
Bi7 Sr8 3.626123 1_545
Bi7 Sr16 3.702756 1_445
Bi7 Sr4 4.052041 1_555
Bi8 Sr13 3.521746 1_545
Bi8 Sr15 3.535002 1_556
Bi8 Sr10 3.553614 1_555
Bi8 Sr18 3.565910 1_555
Bi8 Sr7 3.597656 1_545
Bi8 Sr4 3.610303 1_555
Bi8 Sr9 3.626123 1_545
Bi8 Sr17 3.702756 1_545
Bi8 Sr3 4.052041 1_556
Bi9 Sr12 3.521746 1_555
Bi9 Sr14 3.535002 1_455
Bi9 Sr11 3.553614 1_455
Bi9 Sr19 3.565910 1_555
Bi9 Sr6 3.597656 1_455
Bi9 Sr5 3.610303 1_555
Bi9 Sr8 3.626123 1_555
Bi9 Sr16 3.702756 1_455
Bi9 Sr2 4.052041 1_555
Bi10 Sr15 3.521677 1_555
Bi10 Sr13 3.535091 1_554
Bi10 Sr8 3.553598 1_555
Bi10 Sr16 3.566121 1_555
Bi10 Sr5 3.597488 1_555
Bi10 Sr6 3.610253 1_555
Bi10 Sr11 3.626132 1_555
Bi10 Sr19 3.702589 1_555
Bi10 Sr1 4.052225 1_554
Bi11 Sr14 3.521677 1_565
Bi11 Sr12 3.535091 1_655
Bi11 Sr9 3.553598 1_655
Bi11 Sr17 3.566121 1_555
Bi11 Sr4 3.597488 1_665
Bi11 Sr7 3.610253 1_555
Bi11 Sr10 3.626132 1_565
Bi11 Sr18 3.702589 1_665
Bi11 Sr0 4.052225 1_555
