# generated using pymatgen
data_RbTlF4
_symmetry_space_group_name_H-M   'P 1'
_cell_length_a   6.33892200
_cell_length_b   8.45116100
_cell_length_c   8.62671800
_cell_angle_alpha   90.00000000
_cell_angle_beta   90.00000000
_cell_angle_gamma   90.00000000
_symmetry_Int_Tables_number   1
_chemical_formula_structural   RbTlF4
_chemical_formula_sum   'Rb4 Tl4 F16'
_cell_volume   462.14407001
_cell_formula_units_Z   4
loop_
 _symmetry_equiv_pos_site_id
 _symmetry_equiv_pos_as_xyz
  1  'x, y, z'
loop_
 _atom_site_type_symbol
 _atom_site_label
 _atom_site_symmetry_multiplicity
 _atom_site_fract_x
 _atom_site_fract_y
 _atom_site_fract_z
 _atom_site_occupancy
  Rb  Rb0  1  0.49211100  0.69380600  0.76484300  1
  Rb  Rb1  1  0.50788900  0.30619400  0.26484300  1
  Rb  Rb2  1  0.49211100  0.80619400  0.26484300  1
  Rb  Rb3  1  0.50788900  0.19380600  0.76484300  1
  Tl  Tl0  1  0.00024800  0.50677800  0.01254100  1
  Tl  Tl1  1  0.99975200  0.49322200  0.51254100  1
  Tl  Tl2  1  0.00024800  0.99322200  0.51254100  1
  Tl  Tl3  1  0.99975200  0.00677800  0.01254100  1
  F  F0  1  0.13860200  0.75732600  0.02163000  1
  F  F1  1  0.86139800  0.24267400  0.52163000  1
  F  F2  1  0.13860200  0.74267400  0.52163000  1
  F  F3  1  0.86139800  0.25732600  0.02163000  1
  F  F4  1  0.89149400  0.51749800  0.76189900  1
  F  F5  1  0.10850600  0.48250200  0.26189900  1
  F  F6  1  0.89149400  0.98250200  0.26189900  1
  F  F7  1  0.10850600  0.01749800  0.76189900  1
  F  F8  1  0.30289400  0.43619100  0.94523100  1
  F  F9  1  0.69710600  0.56380900  0.44523100  1
  F  F10  1  0.30289400  0.06380900  0.44523100  1
  F  F11  1  0.69710600  0.93619100  0.94523100  1
  F  F12  1  0.69765200  0.58688000  0.07385700  1
  F  F13  1  0.30234800  0.41312000  0.57385700  1
  F  F14  1  0.69765200  0.91312000  0.57385700  1
  F  F15  1  0.30234800  0.08688000  0.07385700  1
loop_
_geom_bond_atom_site_label_1
_geom_bond_atom_site_label_2
_geom_bond_distance
_geom_bond_site_symmetry_2
F0 Tl3 2.285861 1_465
F0 Tl0 2.293202 1_555
F0 Rb2 3.097449 1_555
F0 Rb0 3.196388 1_554
F1 Tl2 2.285861 1_645
F1 Tl1 2.293202 1_555
F1 Rb3 3.097449 1_555
F1 Rb1 3.196388 1_555
F2 Tl1 2.285861 1_455
F2 Tl2 2.293202 1_555
F2 Rb0 3.097449 1_555
F2 Rb2 3.196388 1_555
F3 Tl0 2.285861 1_655
F3 Tl3 2.293202 1_555
F3 Rb1 3.097449 1_555
F3 Rb3 3.196388 1_554
F4 Tl1 2.267250 1_555
F4 Tl0 2.271265 1_656
F4 Rb0 2.937696 1_555
F5 Tl0 2.267250 1_555
F5 Tl1 2.271265 1_455
F5 Rb1 2.937696 1_555
F6 Tl3 2.267250 1_565
F6 Tl2 2.271265 1_655
F6 Rb2 2.937696 1_555
F7 Tl2 2.267250 1_545
F7 Tl3 2.271265 1_456
F7 Rb3 2.937696 1_555
F8 Tl0 2.091287 1_556
F8 Rb3 2.882060 1_555
F8 Rb0 2.932614 1_555
F8 Rb1 3.240017 1_556
F9 Tl1 2.091287 1_555
F9 Rb2 2.882060 1_555
F9 Rb1 2.932614 1_555
F9 Rb0 3.240017 1_555
F10 Tl2 2.091287 1_545
F10 Rb1 2.882060 1_555
F10 Rb2 2.932614 1_545
F10 Rb3 3.240017 1_555
F11 Tl3 2.091287 1_566
F11 Rb0 2.882060 1_555
F11 Rb3 2.932614 1_565
F11 Rb2 3.240017 1_556
F12 Tl0 2.101736 1_655
F12 Rb2 2.801322 1_555
F12 Rb0 3.101696 1_554
F12 Rb1 3.128649 1_555
F13 Tl1 2.101736 1_455
F13 Rb3 2.801322 1_555
F13 Rb1 3.101696 1_555
F13 Rb0 3.128649 1_555
F14 Tl2 2.101736 1_655
F14 Rb0 2.801322 1_555
F14 Rb2 3.101696 1_555
F14 Rb3 3.128649 1_565
F15 Tl3 2.101736 1_455
F15 Rb1 2.801322 1_555
F15 Rb3 3.101696 1_554
F15 Rb2 3.128649 1_545
