# generated using pymatgen
data_CaVFe(P2O7)2
_symmetry_space_group_name_H-M   'P 1'
_cell_length_a   4.90800383
_cell_length_b   8.15027551
_cell_length_c   7.19459243
_cell_angle_alpha   90.05717606
_cell_angle_beta   106.80844996
_cell_angle_gamma   89.49712483
_symmetry_Int_Tables_number   1
_chemical_formula_structural   CaVFe(P2O7)2
_chemical_formula_sum   'Ca1 V1 Fe1 P4 O14'
_cell_volume   275.48861179
_cell_formula_units_Z   1
loop_
 _symmetry_equiv_pos_site_id
 _symmetry_equiv_pos_as_xyz
  1  'x, y, z'
loop_
 _atom_site_type_symbol
 _atom_site_label
 _atom_site_symmetry_multiplicity
 _atom_site_fract_x
 _atom_site_fract_y
 _atom_site_fract_z
 _atom_site_occupancy
  Ca  Ca0  1  0.19901800  0.93401800  0.74486800  1
  V  V0  1  0.21203200  0.49929700  0.73591200  1
  Fe  Fe0  1  0.76842200  0.01244900  0.26388100  1
  P  P0  1  0.37819400  0.20553200  0.49019400  1
  P  P1  1  0.22143200  0.76965400  0.12480800  1
  P  P2  1  0.76533200  0.26646400  0.88574300  1
  P  P3  1  0.60880300  0.69833100  0.51035400  1
  O  O0  1  0.03440400  0.29665200  0.82404900  1
  O  O1  1  0.14753500  0.67537900  0.93333900  1
  O  O2  1  0.14721000  0.07179200  0.45615000  1
  O  O3  1  0.26940900  0.37710200  0.50490400  1
  O  O4  1  0.39985300  0.70454500  0.63591000  1
  O  O5  1  0.59367600  0.42036300  0.89931700  1
  O  O6  1  0.56151300  0.14749600  0.71382100  1
  O  O7  1  0.42938300  0.65734800  0.28948200  1
  O  O8  1  0.39175900  0.92300800  0.09380800  1
  O  O9  1  0.56750000  0.19076200  0.35847100  1
  O  O10  1  0.74232400  0.86974700  0.50998300  1
  O  O11  1  0.82762200  0.56267200  0.56712000  1
  O  O12  1  0.82998900  0.15122100  0.05872000  1
  O  O13  1  0.96019900  0.81607200  0.18605800  1
loop_
_geom_bond_atom_site_label_1
_geom_bond_atom_site_label_2
_geom_bond_distance
_geom_bond_site_symmetry_2
Ca0 O2 2.309658 1_565
Ca0 O4 2.344273 1_555
Ca0 O8 2.414728 1_556
Ca0 O10 2.445904 1_455
Ca0 O6 2.554879 1_565
Ca0 O1 2.561112 1_555
Fe0 O12 1.953598 1_555
Fe0 O9 1.977031 1_555
Fe0 O13 2.009397 1_545
Fe0 O2 2.032436 1_655
Fe0 O8 2.039559 1_545
Fe0 O10 2.154541 1_545
O0 P2 1.531823 1_455
O0 V0 2.058406 1_555
O1 P1 1.527540 1_556
O1 V0 2.103645 1_555
O2 P0 1.547225 1_555
O3 P0 1.506954 1_555
O3 V0 2.023832 1_555
O4 P3 1.550817 1_555
O4 V0 2.139814 1_555
O5 P2 1.523624 1_555
O5 V0 2.002828 1_555
O6 P2 1.664279 1_555
O6 P0 1.666936 1_555
O7 P1 1.602993 1_555
O7 P3 1.614623 1_555
O8 P1 1.561251 1_555
O9 P0 1.510933 1_555
O10 P3 1.548676 1_555
O11 P3 1.506341 1_555
O11 V0 1.990020 1_655
O12 P2 1.516704 1_554
O13 P1 1.516277 1_655
