# generated using pymatgen
data_LuVO4
_symmetry_space_group_name_H-M   'P 1'
_cell_length_a   4.93847316
_cell_length_b   4.93847392
_cell_length_c   6.46367554
_cell_angle_alpha   112.45871734
_cell_angle_beta   112.45869588
_cell_angle_gamma   89.99999751
_symmetry_Int_Tables_number   1
_chemical_formula_structural   LuVO4
_chemical_formula_sum   'Lu2 V2 O8'
_cell_volume   132.65391254
_cell_formula_units_Z   2
loop_
 _symmetry_equiv_pos_site_id
 _symmetry_equiv_pos_as_xyz
  1  'x, y, z'
loop_
 _atom_site_type_symbol
 _atom_site_label
 _atom_site_symmetry_multiplicity
 _atom_site_fract_x
 _atom_site_fract_y
 _atom_site_fract_z
 _atom_site_occupancy
  Lu  Lu0  1  0.37500000  0.12500000  0.75000000  1
  Lu  Lu1  1  0.62500000  0.87500000  0.25000000  1
  V  V0  1  0.87500000  0.62500000  0.75000000  1
  V  V1  1  0.12500000  0.37500000  0.25000000  1
  O  O0  1  0.69822928  0.55366402  0.91368394  1
  O  O1  1  0.36001892  0.19822928  0.41368394  1
  O  O2  1  0.05366402  0.71545466  0.41368394  1
  O  O3  1  0.21545466  0.86001892  0.91368394  1
  O  O4  1  0.78454534  0.13998108  0.08631606  1
  O  O5  1  0.94633598  0.28454534  0.58631606  1
  O  O6  1  0.63998108  0.80177072  0.58631606  1
  O  O7  1  0.30177072  0.44633598  0.08631606  1
loop_
_geom_bond_atom_site_label_1
_geom_bond_atom_site_label_2
_geom_bond_distance
_geom_bond_site_symmetry_2
Lu0 O0 2.268767 1_555
Lu0 O5 2.268767 1_455
Lu0 O6 2.268770 1_545
Lu0 O3 2.268771 1_545
Lu0 O1 2.310757 1_555
Lu0 O4 2.310757 1_556
Lu0 O7 2.310758 1_556
Lu0 O2 2.310758 1_545
Lu1 O7 2.268767 1_555
Lu1 O2 2.268767 1_655
Lu1 O1 2.268770 1_565
Lu1 O4 2.268771 1_565
Lu1 O6 2.310757 1_555
Lu1 O3 2.310757 1_554
Lu1 O0 2.310758 1_554
Lu1 O5 2.310758 1_565
O0 V0 1.730898 1_555
O1 V1 1.730896 1_555
O2 V1 1.730897 1_555
O3 V0 1.730895 1_455
O4 V1 1.730895 1_655
O5 V0 1.730897 1_555
O6 V0 1.730896 1_555
O7 V1 1.730898 1_555
