# generated using pymatgen
data_Tl5Re6Se8Cl7
_symmetry_space_group_name_H-M   'P 1'
_cell_length_a   18.45486650
_cell_length_b   18.45486650
_cell_length_c   18.45486590
_cell_angle_alpha   30.11406217
_cell_angle_beta   30.11406217
_cell_angle_gamma   30.11406066
_symmetry_Int_Tables_number   1
_chemical_formula_structural   Tl5Re6Se8Cl7
_chemical_formula_sum   'Tl10 Re12 Se16 Cl14'
_cell_volume   1401.71982134
_cell_formula_units_Z   2
loop_
 _symmetry_equiv_pos_site_id
 _symmetry_equiv_pos_as_xyz
  1  'x, y, z'
loop_
 _atom_site_type_symbol
 _atom_site_label
 _atom_site_symmetry_multiplicity
 _atom_site_fract_x
 _atom_site_fract_y
 _atom_site_fract_z
 _atom_site_occupancy
  Tl  Tl0  1  0.05197000  0.44788100  0.74994500  1
  Tl  Tl1  1  0.44788100  0.74994500  0.05197000  1
  Tl  Tl2  1  0.74994500  0.05197000  0.44788100  1
  Tl  Tl3  1  0.55197000  0.24994500  0.94788100  1
  Tl  Tl4  1  0.24994500  0.94788100  0.55197000  1
  Tl  Tl5  1  0.94788100  0.55197000  0.24994500  1
  Tl  Tl6  1  0.15319700  0.15319700  0.15319700  1
  Tl  Tl7  1  0.65319700  0.65319700  0.65319700  1
  Tl  Tl8  1  0.84709300  0.84709300  0.84709300  1
  Tl  Tl9  1  0.34709300  0.34709300  0.34709300  1
  Re  Re0  1  0.34774500  0.55193500  0.66203900  1
  Re  Re1  1  0.55193500  0.66203900  0.34774500  1
  Re  Re2  1  0.66203900  0.34774500  0.55193500  1
  Re  Re3  1  0.84774500  0.16203900  0.05193500  1
  Re  Re4  1  0.16203900  0.05193500  0.84774500  1
  Re  Re5  1  0.05193500  0.84774500  0.16203900  1
  Re  Re6  1  0.65219900  0.44824300  0.33787200  1
  Re  Re7  1  0.44824300  0.33787200  0.65219900  1
  Re  Re8  1  0.33787200  0.65219900  0.44824300  1
  Re  Re9  1  0.15219900  0.83787200  0.94824300  1
  Re  Re10  1  0.83787200  0.94824300  0.15219900  1
  Re  Re11  1  0.94824300  0.15219900  0.83787200  1
  Se  Se0  1  0.24758600  0.85376100  0.45792500  1
  Se  Se1  1  0.85376100  0.45792500  0.24758600  1
  Se  Se2  1  0.45792500  0.24758600  0.85376100  1
  Se  Se3  1  0.74758600  0.95792500  0.35376100  1
  Se  Se4  1  0.95792500  0.35376100  0.74758600  1
  Se  Se5  1  0.35376100  0.74758600  0.95792500  1
  Se  Se6  1  0.75271100  0.14626600  0.54175600  1
  Se  Se7  1  0.14626600  0.54175600  0.75271100  1
  Se  Se8  1  0.54175600  0.75271100  0.14626600  1
  Se  Se9  1  0.25271100  0.04175600  0.64626600  1
  Se  Se10  1  0.04175600  0.64626600  0.25271100  1
  Se  Se11  1  0.64626600  0.25271100  0.04175600  1
  Se  Se12  1  0.55931700  0.55931700  0.55931700  1
  Se  Se13  1  0.05931700  0.05931700  0.05931700  1
  Se  Se14  1  0.44070000  0.44070000  0.44070000  1
  Se  Se15  1  0.94070000  0.94070000  0.94070000  1
  Cl  Cl0  1  0.14901200  0.62619300  0.86995200  1
  Cl  Cl1  1  0.62619300  0.86995200  0.14901200  1
  Cl  Cl2  1  0.86995200  0.14901200  0.62619300  1
  Cl  Cl3  1  0.64901200  0.36995200  0.12619300  1
  Cl  Cl4  1  0.36995200  0.12619300  0.64901200  1
  Cl  Cl5  1  0.12619300  0.64901200  0.36995200  1
  Cl  Cl6  1  0.85065100  0.37552200  0.12864200  1
  Cl  Cl7  1  0.37552200  0.12864200  0.85065100  1
  Cl  Cl8  1  0.12864200  0.85065100  0.37552200  1
  Cl  Cl9  1  0.35065100  0.62864200  0.87552200  1
  Cl  Cl10  1  0.62864200  0.87552200  0.35065100  1
  Cl  Cl11  1  0.87552200  0.35065100  0.62864200  1
  Cl  Cl12  1  0.24192700  0.24192700  0.24192700  1
  Cl  Cl13  1  0.74192700  0.74192700  0.74192700  1
loop_
_geom_bond_atom_site_label_1
_geom_bond_atom_site_label_2
_geom_bond_distance
_geom_bond_site_symmetry_2
Re0 Se2 2.550986 1_555
Re0 Se12 2.554495 1_555
Re0 Se7 2.561480 1_555
Re0 Se0 2.562386 1_555
Re1 Se0 2.550986 1_555
Re1 Se12 2.554494 1_555
Re1 Se8 2.561480 1_555
Re1 Se1 2.562386 1_555
Re2 Se1 2.550986 1_555
Re2 Se12 2.554495 1_555
Re2 Se6 2.561480 1_555
Re2 Se2 2.562386 1_555
Re3 Se4 2.550986 1_554
Re3 Se13 2.554495 1_655
Re3 Se11 2.561480 1_555
Re3 Se3 2.562386 1_545
Re4 Se5 2.550986 1_545
Re4 Se13 2.554494 1_556
Re4 Se9 2.561480 1_555
Re4 Se4 2.562386 1_455
Re5 Se3 2.550986 1_455
Re5 Se13 2.554495 1_565
Re5 Se10 2.561480 1_555
Re5 Se5 2.562386 1_554
Re6 Se8 2.551753 1_555
Re6 Se14 2.554193 1_555
Re6 Se1 2.560675 1_555
Re6 Se6 2.562989 1_555
Re7 Se6 2.551753 1_555
Re7 Se14 2.554193 1_555
Re7 Se2 2.560675 1_555
Re7 Se7 2.562989 1_555
Re8 Se7 2.551753 1_555
Re8 Se14 2.554193 1_555
Re8 Se0 2.560675 1_555
Re8 Se8 2.562989 1_555
Re9 Se10 2.551753 1_556
Re9 Se15 2.554193 1_455
Re9 Se5 2.560675 1_555
Re9 Se9 2.562989 1_565
Re10 Se11 2.551753 1_565
Re10 Se15 2.554193 1_554
Re10 Se3 2.560675 1_555
Re10 Se10 2.562989 1_655
Re11 Se9 2.551753 1_655
Re11 Se15 2.554193 1_545
Re11 Se4 2.560675 1_555
Re11 Se11 2.562989 1_556
Cl0 Re0 2.471279 1_555
Cl0 Tl8 3.104275 1_455
Cl1 Re1 2.471280 1_555
Cl1 Tl8 3.104275 1_554
Cl2 Re2 2.471280 1_555
Cl2 Tl8 3.104275 1_545
Cl3 Re3 2.471280 1_555
Cl3 Tl9 3.104275 1_555
Cl4 Re4 2.471280 1_555
Cl4 Tl9 3.104275 1_555
Cl5 Re5 2.471279 1_555
Cl5 Tl9 3.104275 1_555
Cl6 Re6 2.473856 1_555
Cl6 Tl6 3.121198 1_655
Cl7 Re7 2.473856 1_555
Cl7 Tl6 3.121198 1_556
Cl8 Re8 2.473856 1_555
Cl8 Tl6 3.121198 1_565
Cl9 Re9 2.473856 1_555
Cl9 Tl7 3.121198 1_555
Cl10 Re10 2.473856 1_555
Cl10 Tl7 3.121198 1_555
Cl11 Re11 2.473856 1_555
Cl11 Tl7 3.121198 1_555
Cl12 Tl5 2.926828 1_455
Cl12 Tl4 2.926828 1_545
Cl12 Tl3 2.926828 1_554
Cl13 Tl0 2.926828 1_655
Cl13 Tl1 2.926828 1_556
Cl13 Tl2 2.926828 1_565
