# generated using pymatgen
data_Ba2YCo3O8
_symmetry_space_group_name_H-M   'P 1'
_cell_length_a   3.91400100
_cell_length_b   3.91400700
_cell_length_c   12.10007400
_cell_angle_alpha   90.00003831
_cell_angle_beta   89.99998063
_cell_angle_gamma   90.00002928
_symmetry_Int_Tables_number   1
_chemical_formula_structural   Ba2YCo3O8
_chemical_formula_sum   'Ba2 Y1 Co3 O8'
_cell_volume   185.36620411
_cell_formula_units_Z   1
loop_
 _symmetry_equiv_pos_site_id
 _symmetry_equiv_pos_as_xyz
  1  'x, y, z'
loop_
 _atom_site_type_symbol
 _atom_site_label
 _atom_site_symmetry_multiplicity
 _atom_site_fract_x
 _atom_site_fract_y
 _atom_site_fract_z
 _atom_site_occupancy
  Ba  Ba0  1  0.49999900  0.50000000  0.16764500  1
  Ba  Ba1  1  0.49999900  0.50000000  0.83258400  1
  Y  Y0  1  0.50000100  0.50000000  0.49997400  1
  Co  Co0  1  0.00000000  0.00000100  0.33886400  1
  Co  Co1  1  0.00000000  0.00000000  0.00015100  1
  Co  Co2  1  0.00000000  0.99999900  0.66105200  1
  O  O0  1  0.00000000  0.50000100  0.38239600  1
  O  O1  1  0.50000000  0.00000100  0.38239600  1
  O  O2  1  0.50000100  0.00000000  0.00009900  1
  O  O3  1  0.99999900  0.00000000  0.19154400  1
  O  O4  1  0.00000000  0.50000000  0.61739800  1
  O  O5  1  0.50000100  0.99999900  0.61739800  1
  O  O6  1  0.99999900  0.00000000  0.80839800  1
  O  O7  1  0.00000100  0.50000000  0.00009900  1
loop_
_geom_bond_atom_site_label_1
_geom_bond_atom_site_label_2
_geom_bond_distance
_geom_bond_site_symmetry_2
Ba0 O3 2.782685 1_565
Ba0 O3 2.782685 1_455
Ba0 O3 2.782686 1_465
Ba0 O3 2.782686 1_555
Ba0 O7 2.817773 1_555
Ba0 O2 2.817779 1_555
Ba0 O2 2.817781 1_565
Ba0 O7 2.817783 1_655
Ba0 O0 3.253006 1_555
Ba0 O1 3.253010 1_555
Ba0 O0 3.253012 1_655
Ba0 O1 3.253012 1_565
Ba1 O6 2.783048 1_455
Ba1 O6 2.783048 1_565
Ba1 O6 2.783049 1_555
Ba1 O6 2.783049 1_465
Ba1 O7 2.817502 1_556
Ba1 O2 2.817509 1_566
Ba1 O2 2.817511 1_556
Ba1 O7 2.817514 1_656
Ba1 O4 3.257213 1_555
Ba1 O5 3.257216 1_555
Ba1 O4 3.257217 1_655
Ba1 O5 3.257218 1_545
Co0 O3 1.782583 1_455
Co0 O1 2.026649 1_455
Co0 O1 2.026649 1_555
Co0 O0 2.026652 1_555
Co0 O0 2.026652 1_545
Co1 O2 1.956997 1_455
Co1 O7 1.957004 1_545
Co1 O7 1.957004 1_555
Co1 O2 1.957005 1_555
Co1 O3 2.315869 1_455
Co1 O6 2.320225 1_454
Co2 O6 1.782898 1_465
Co2 O5 2.027030 1_455
Co2 O4 2.027032 1_555
Co2 O5 2.027037 1_555
Co2 O4 2.027040 1_565
O0 Y0 2.419487 1_455
O0 Y0 2.419494 1_555
O1 Y0 2.419489 1_555
O1 Y0 2.419497 1_545
O4 Y0 2.418392 1_455
O4 Y0 2.418398 1_555
O5 Y0 2.418394 1_555
O5 Y0 2.418401 1_565
