# generated using pymatgen
data_LaGd3
_symmetry_space_group_name_H-M   'P 1'
_cell_length_a   6.38078464
_cell_length_b   6.38078464
_cell_length_c   6.38078464
_cell_angle_alpha   133.00492889
_cell_angle_beta   133.00492889
_cell_angle_gamma   68.64640740
_symmetry_Int_Tables_number   1
_chemical_formula_structural   LaGd3
_chemical_formula_sum   'La1 Gd3'
_cell_volume   136.42921591
_cell_formula_units_Z   1
loop_
 _symmetry_equiv_pos_site_id
 _symmetry_equiv_pos_as_xyz
  1  'x, y, z'
loop_
 _atom_site_type_symbol
 _atom_site_label
 _atom_site_symmetry_multiplicity
 _atom_site_fract_x
 _atom_site_fract_y
 _atom_site_fract_z
 _atom_site_occupancy
  La  La0  1  0.00000000  -0.00000000  0.00000000  1
  Gd  Gd0  1  0.74999900  0.25000000  0.49999900  1
  Gd  Gd1  1  0.25000000  0.74999900  0.49999900  1
  Gd  Gd2  1  0.49999900  0.49999900  0.00000000  1
loop_
_geom_bond_atom_site_label_1
_geom_bond_atom_site_label_2
_geom_bond_distance
_geom_bond_site_symmetry_2
Gd0 Gd1 3.597866 1_555
Gd0 Gd1 3.597873 1_544
Gd0 Gd1 3.597873 1_656
Gd0 Gd1 3.597880 1_645
Gd0 Gd2 3.662608 1_555
Gd0 Gd2 3.662615 1_656
Gd0 La0 3.662615 1_555
Gd0 La0 3.662619 1_655
Gd0 La0 3.662619 1_666
Gd0 La0 3.662622 1_656
Gd0 Gd2 3.662626 1_556
Gd0 Gd2 3.662626 1_545
Gd1 Gd2 3.662608 1_555
Gd1 Gd2 3.662615 1_566
Gd1 La0 3.662615 1_555
Gd1 La0 3.662619 1_565
Gd1 La0 3.662619 1_666
Gd1 La0 3.662622 1_566
Gd1 Gd2 3.662626 1_556
Gd1 Gd2 3.662626 1_455
Gd2 La0 3.597873 1_565
Gd2 La0 3.597873 1_655
Gd2 La0 3.597873 1_666
Gd2 La0 3.597873 1_554
