# generated using pymatgen
data_Tb4Ni13C4
_symmetry_space_group_name_H-M   'P 1'
_cell_length_a   8.40490611
_cell_length_b   8.40490681
_cell_length_c   3.88171100
_cell_angle_alpha   90.00000000
_cell_angle_beta   90.00000000
_cell_angle_gamma   91.28746857
_symmetry_Int_Tables_number   1
_chemical_formula_structural   Tb4Ni13C4
_chemical_formula_sum   'Tb4 Ni13 C4'
_cell_volume   274.14435947
_cell_formula_units_Z   1
loop_
 _symmetry_equiv_pos_site_id
 _symmetry_equiv_pos_as_xyz
  1  'x, y, z'
loop_
 _atom_site_type_symbol
 _atom_site_label
 _atom_site_symmetry_multiplicity
 _atom_site_fract_x
 _atom_site_fract_y
 _atom_site_fract_z
 _atom_site_occupancy
  Tb  Tb0  1  0.81336100  0.18663900  0.50000000  1
  Tb  Tb1  1  0.18663900  0.81336100  0.50000000  1
  Tb  Tb2  1  0.65138300  0.65138300  0.50000000  1
  Tb  Tb3  1  0.34861700  0.34861700  0.50000000  1
  Ni  Ni0  1  0.50000000  0.00000000  0.50000000  1
  Ni  Ni1  1  0.00000000  0.50000000  0.50000000  1
  Ni  Ni2  1  0.00000000  0.00000000  0.00000000  1
  Ni  Ni3  1  0.43081600  0.78420500  0.00000000  1
  Ni  Ni4  1  0.56918400  0.21579500  0.00000000  1
  Ni  Ni5  1  0.21579500  0.56918400  0.00000000  1
  Ni  Ni6  1  0.78420500  0.43081600  0.00000000  1
  Ni  Ni7  1  0.70796900  0.92541600  0.00000000  1
  Ni  Ni8  1  0.29203100  0.07458400  0.00000000  1
  Ni  Ni9  1  0.07458400  0.29203100  0.00000000  1
  Ni  Ni10  1  0.92541600  0.70796900  0.00000000  1
  Ni  Ni11  1  0.87590300  0.87590300  0.50000000  1
  Ni  Ni12  1  0.12409700  0.12409700  0.50000000  1
  C  C0  1  0.44332000  0.55668000  0.00000000  1
  C  C1  1  0.55668000  0.44332000  0.00000000  1
  C  C2  1  0.50000000  0.00000000  0.00000000  1
  C  C3  1  0.00000000  0.50000000  0.00000000  1
loop_
_geom_bond_atom_site_label_1
_geom_bond_atom_site_label_2
_geom_bond_distance
_geom_bond_site_symmetry_2
Ni0 Tb1 3.035103 1_545
Ni0 Tb0 3.035103 1_555
Ni0 Tb2 3.220540 1_545
Ni0 Tb3 3.220540 1_555
Ni1 Tb0 3.035103 1_455
Ni1 Tb1 3.035103 1_555
Ni1 Tb3 3.220540 1_555
Ni1 Tb2 3.220540 1_455
Ni2 Ni8 2.519596 1_555
Ni2 Ni7 2.519596 1_445
Ni2 Ni9 2.519596 1_555
Ni2 Tb1 2.966317 1_544
Ni2 Tb1 2.966317 1_545
Ni2 Tb0 2.966317 1_454
Ni2 Tb0 2.966317 1_455
Ni3 Tb1 2.839268 1_554
Ni3 Tb1 2.839268 1_555
Ni3 Tb2 2.922826 1_555
Ni3 Tb2 2.922826 1_554
Ni4 Tb0 2.839268 1_555
Ni4 Tb0 2.839268 1_554
Ni4 Tb3 2.922826 1_554
Ni4 Tb3 2.922826 1_555
Ni5 Tb1 2.839268 1_554
Ni5 Tb1 2.839268 1_555
Ni5 Tb3 2.922826 1_555
Ni5 Tb3 2.922826 1_554
Ni6 Tb0 2.839268 1_555
Ni6 Tb0 2.839268 1_554
Ni6 Tb2 2.922826 1_555
Ni6 Tb2 2.922826 1_554
Ni7 Tb2 3.041171 1_555
Ni7 Tb2 3.041171 1_554
Ni7 Tb0 3.047071 1_564
Ni7 Tb0 3.047071 1_565
Ni8 Tb3 3.041171 1_555
Ni8 Tb3 3.041171 1_554
Ni8 Tb1 3.047071 1_544
Ni8 Tb1 3.047071 1_545
Ni9 Tb3 3.041171 1_555
Ni9 Tb3 3.041171 1_554
Ni9 Tb0 3.047071 1_454
Ni9 Tb0 3.047071 1_455
Ni10 Ni11 2.441054 1_554
Ni10 Ni11 2.441054 1_555
Ni10 Ni2 2.519596 1_665
Ni10 Tb2 3.041171 1_555
Ni10 Tb2 3.041171 1_554
Ni10 Tb1 3.047071 1_655
Ni10 Tb1 3.047071 1_654
Ni11 Ni2 2.427721 1_665
Ni11 Ni2 2.427721 1_666
Ni11 Ni7 2.441054 1_555
Ni11 Ni7 2.441054 1_556
Ni11 Tb2 2.638568 1_555
Ni11 Tb1 2.675635 1_655
Ni11 Tb0 2.675635 1_565
Ni12 Ni2 2.427721 1_556
Ni12 Ni2 2.427721 1_555
Ni12 Ni8 2.441054 1_556
Ni12 Ni8 2.441054 1_555
Ni12 Ni9 2.441054 1_555
Ni12 Ni9 2.441054 1_556
Ni12 Tb3 2.638568 1_555
Ni12 Tb0 2.675635 1_455
Ni12 Tb1 2.675635 1_545
C0 C1 1.362488 1_555
C0 Ni5 1.917568 1_555
C0 Ni3 1.917568 1_555
C0 Tb2 2.719571 1_555
C0 Tb2 2.719571 1_554
C0 Tb3 2.719571 1_555
C0 Tb3 2.719571 1_554
C1 Ni6 1.917568 1_555
C1 Ni4 1.917568 1_555
C1 Tb3 2.719571 1_554
C1 Tb3 2.719571 1_555
C1 Tb2 2.719571 1_555
C1 Tb2 2.719571 1_554
C2 Ni7 1.870180 1_545
C2 Ni8 1.870180 1_555
C2 Ni3 1.892187 1_545
C2 Ni4 1.892187 1_555
C2 Ni0 1.940856 1_555
C2 Ni0 1.940856 1_554
C3 Ni10 1.870180 1_455
C3 Ni9 1.870180 1_555
C3 Ni6 1.892187 1_455
C3 Ni5 1.892187 1_555
C3 Ni1 1.940856 1_554
C3 Ni1 1.940856 1_555
