# generated using pymatgen
data_Sr(PIr)2
_symmetry_space_group_name_H-M   'P 1'
_cell_length_a   6.73975339
_cell_length_b   6.73975401
_cell_length_c   7.11855429
_cell_angle_alpha   90.00000000
_cell_angle_beta   90.00000000
_cell_angle_gamma   119.99999702
_symmetry_Int_Tables_number   1
_chemical_formula_structural   Sr(PIr)2
_chemical_formula_sum   'Sr3 P6 Ir6'
_cell_volume   280.03382834
_cell_formula_units_Z   3
loop_
 _symmetry_equiv_pos_site_id
 _symmetry_equiv_pos_as_xyz
  1  'x, y, z'
loop_
 _atom_site_type_symbol
 _atom_site_label
 _atom_site_symmetry_multiplicity
 _atom_site_fract_x
 _atom_site_fract_y
 _atom_site_fract_z
 _atom_site_occupancy
  Sr  Sr0  1  -0.00000000  0.60029395  0.83333300  1
  Sr  Sr1  1  0.39970605  0.39970605  0.50000000  1
  Sr  Sr2  1  0.60029395  -0.00000000  0.16666700  1
  P  P0  1  0.87686520  0.21621277  0.54231473  1
  P  P1  1  0.21621277  0.87686520  0.45768527  1
  P  P2  1  0.12313480  0.33934856  0.12435127  1
  P  P3  1  0.78378723  0.66065144  0.20898173  1
  P  P4  1  0.33934856  0.12313480  0.87564873  1
  P  P5  1  0.66065144  0.78378723  0.79101827  1
  Ir  Ir0  1  0.87048254  0.87048254  0.50000000  1
  Ir  Ir1  1  0.12951746  -0.00000000  0.16666700  1
  Ir  Ir2  1  0.49015292  0.49015292  -0.00000000  1
  Ir  Ir3  1  -0.00000000  0.50984708  0.33333300  1
  Ir  Ir4  1  0.50984708  -0.00000000  0.66666700  1
  Ir  Ir5  1  -0.00000000  0.12951746  0.83333300  1
loop_
_geom_bond_atom_site_label_1
_geom_bond_atom_site_label_2
_geom_bond_distance
_geom_bond_site_symmetry_2
P0 Sr0 3.087557 1_655
P0 Sr1 3.111198 1_655
P0 Sr2 3.167400 1_555
P1 Sr2 3.087557 1_565
P1 Sr1 3.111198 1_565
P1 Sr0 3.167400 1_555
P2 Sr0 3.087552 1_554
P2 Sr2 3.111200 1_455
P2 Sr1 3.167407 1_555
P3 Sr1 3.087556 1_555
P3 Sr2 3.111204 1_565
P3 Sr0 3.167404 1_654
P4 Sr2 3.087552 1_556
P4 Sr0 3.111200 1_545
P4 Sr1 3.167407 1_555
P5 Sr1 3.087556 1_555
P5 Sr0 3.111204 1_655
P5 Sr2 3.167404 1_566
Ir0 P1 2.328494 1_655
Ir0 P0 2.328494 1_565
Ir0 P5 2.409714 1_555
Ir0 P3 2.409714 1_555
Ir0 Sr1 3.172918 1_555
Ir0 Sr2 3.361255 1_565
Ir0 Sr0 3.361255 1_655
Ir1 P3 2.328497 1_445
Ir1 P2 2.328501 1_555
Ir1 P1 2.409711 1_545
Ir1 P4 2.409713 1_554
Ir1 Sr2 3.172917 1_555
Ir1 Sr1 3.361255 1_555
Ir1 Sr0 3.361260 1_544
Ir2 P3 2.275076 1_555
Ir2 P5 2.275076 1_554
Ir2 P2 2.328354 1_555
Ir2 P4 2.328354 1_554
Ir2 Sr0 3.348973 1_654
Ir2 Sr2 3.348974 1_565
Ir3 P2 2.275071 1_555
Ir3 P0 2.275076 1_455
Ir3 P3 2.328349 1_455
Ir3 P1 2.328356 1_555
Ir3 Sr2 3.348971 1_455
Ir3 Sr1 3.348973 1_555
Ir4 P4 2.275071 1_555
Ir4 P1 2.275076 1_545
Ir4 P5 2.328349 1_545
Ir4 P0 2.328356 1_555
Ir4 Sr0 3.348971 1_545
Ir4 Sr1 3.348973 1_555
Ir5 P5 2.328497 1_445
Ir5 P4 2.328501 1_555
Ir5 P0 2.409711 1_455
Ir5 P2 2.409713 1_556
Ir5 Sr0 3.172918 1_555
Ir5 Sr1 3.361255 1_555
Ir5 Sr2 3.361260 1_456
