# generated using pymatgen
data_NaMg4(SiO3)6
_symmetry_space_group_name_H-M   'P 1'
_cell_length_a   15.02343903
_cell_length_b   15.02343903
_cell_length_c   5.31052832
_cell_angle_alpha   84.77290796
_cell_angle_beta   84.77290796
_cell_angle_gamma   140.59573897
_symmetry_Int_Tables_number   1
_chemical_formula_structural   NaMg4(SiO3)6
_chemical_formula_sum   'Na2 Mg8 Si12 O36'
_cell_volume   732.55298430
_cell_formula_units_Z   2
loop_
 _symmetry_equiv_pos_site_id
 _symmetry_equiv_pos_as_xyz
  1  'x, y, z'
loop_
 _atom_site_type_symbol
 _atom_site_label
 _atom_site_symmetry_multiplicity
 _atom_site_fract_x
 _atom_site_fract_y
 _atom_site_fract_z
 _atom_site_occupancy
  Na  Na0  1  0.27097700  0.72902300  0.25000000  1
  Na  Na1  1  0.72902300  0.27097700  0.75000000  1
  Mg  Mg0  1  0.02177100  0.97822900  0.25000000  1
  Mg  Mg1  1  0.97822900  0.02177100  0.75000000  1
  Mg  Mg2  1  0.15366100  0.84633900  0.25000000  1
  Mg  Mg3  1  0.84633900  0.15366100  0.75000000  1
  Mg  Mg4  1  0.91242200  0.08757800  0.25000000  1
  Mg  Mg5  1  0.08757800  0.91242200  0.75000000  1
  Mg  Mg6  1  0.79648100  0.20351900  0.25000000  1
  Mg  Mg7  1  0.20351900  0.79648100  0.75000000  1
  Si  Si0  1  0.74510700  0.68895600  0.73485500  1
  Si  Si1  1  0.31104400  0.25489300  0.76514500  1
  Si  Si2  1  0.25489300  0.31104400  0.26514500  1
  Si  Si3  1  0.68895600  0.74510700  0.23485500  1
  Si  Si4  1  0.85876500  0.58153600  0.73185600  1
  Si  Si5  1  0.41846400  0.14123500  0.76814400  1
  Si  Si6  1  0.14123500  0.41846400  0.26814400  1
  Si  Si7  1  0.58153600  0.85876500  0.23185600  1
  Si  Si8  1  0.90433600  0.51494000  0.23249700  1
  Si  Si9  1  0.48506000  0.09566400  0.26750300  1
  Si  Si10  1  0.09566400  0.48506000  0.76750300  1
  Si  Si11  1  0.51494000  0.90433600  0.73249700  1
  O  O0  1  0.91494400  0.85832200  0.65402200  1
  O  O1  1  0.14167800  0.08505600  0.84597800  1
  O  O2  1  0.08505600  0.14167800  0.34597800  1
  O  O3  1  0.85832200  0.91494400  0.15402200  1
  O  O4  1  0.03063200  0.74537800  0.65596600  1
  O  O5  1  0.25462200  0.96936800  0.84403400  1
  O  O6  1  0.96936800  0.25462200  0.34403400  1
  O  O7  1  0.74537800  0.03063200  0.15596600  1
  O  O8  1  0.02398400  0.85042300  0.19863100  1
  O  O9  1  0.14957700  0.97601600  0.30136900  1
  O  O10  1  0.97601600  0.14957700  0.80136900  1
  O  O11  1  0.85042300  0.02398400  0.69863100  1
  O  O12  1  0.07508300  0.67820500  0.14368400  1
  O  O13  1  0.32179500  0.92491700  0.35631600  1
  O  O14  1  0.92491700  0.32179500  0.85631600  1
  O  O15  1  0.67820500  0.07508300  0.64368400  1
  O  O16  1  0.12749000  0.61685300  0.69869700  1
  O  O17  1  0.38314700  0.87251000  0.80130300  1
  O  O18  1  0.87251000  0.38314700  0.30130300  1
  O  O19  1  0.61685300  0.12749000  0.19869700  1
  O  O20  1  0.66307400  0.66052800  0.50968800  1
  O  O21  1  0.33947200  0.33692600  0.99031200  1
  O  O22  1  0.33692600  0.33947200  0.49031200  1
  O  O23  1  0.66052800  0.66307400  0.00968800  1
  O  O24  1  0.75153400  0.58507100  0.76844100  1
  O  O25  1  0.41492900  0.24846600  0.73155900  1
  O  O26  1  0.24846600  0.41492900  0.23155900  1
  O  O27  1  0.58507100  0.75153400  0.26844100  1
  O  O28  1  0.82351200  0.49676200  0.50788200  1
  O  O29  1  0.50323800  0.17648800  0.99211800  1
  O  O30  1  0.17648800  0.50323800  0.49211800  1
  O  O31  1  0.49676200  0.82351200  0.00788200  1
  O  O32  1  0.82142000  0.48811800  0.00716500  1
  O  O33  1  0.51188200  0.17858000  0.49283500  1
  O  O34  1  0.17858000  0.51188200  0.99283500  1
  O  O35  1  0.48811800  0.82142000  0.50716500  1
loop_
_geom_bond_atom_site_label_1
_geom_bond_atom_site_label_2
_geom_bond_distance
_geom_bond_site_symmetry_2
Na0 O16 2.425518 1_555
Na0 O17 2.425518 1_554
Na0 O12 2.544002 1_555
Na0 O13 2.544002 1_555
Na0 O30 2.570197 1_555
Na0 O31 2.570197 1_555
Na0 O34 2.931408 1_554
Na0 O35 2.931408 1_555
Na1 O19 2.425518 1_556
Na1 O18 2.425518 1_555
Na1 O15 2.544002 1_555
Na1 O14 2.544002 1_555
Na1 O29 2.570197 1_555
Na1 O28 2.570197 1_555
Na1 O32 2.931408 1_556
Na1 O33 2.931408 1_555
Mg0 O2 1.975342 1_565
Mg0 O3 1.975342 1_455
Mg0 O9 1.988640 1_555
Mg0 O8 1.988640 1_555
Mg0 O1 2.150535 1_564
Mg0 O0 2.150535 1_455
Mg1 O1 1.975342 1_655
Mg1 O0 1.975342 1_545
Mg1 O10 1.988640 1_555
Mg1 O11 1.988640 1_555
Mg1 O3 2.150535 1_546
Mg1 O2 2.150535 1_655
Mg2 O13 1.966196 1_555
Mg2 O12 1.966196 1_555
Mg2 O8 2.037683 1_555
Mg2 O9 2.037683 1_555
Mg2 O4 2.170361 1_555
Mg2 O5 2.170361 1_554
Mg3 O14 1.966196 1_555
Mg3 O15 1.966196 1_555
Mg3 O11 2.037683 1_555
Mg3 O10 2.037683 1_555
Mg3 O6 2.170361 1_555
Mg3 O7 2.170361 1_556
Mg4 O7 2.065799 1_555
Mg4 O6 2.065799 1_555
Mg4 O2 2.169257 1_655
Mg4 O3 2.169257 1_545
Mg4 O11 2.293952 1_555
Mg4 O10 2.293952 1_554
Mg5 O4 2.065799 1_555
Mg5 O5 2.065799 1_555
Mg5 O1 2.169257 1_565
Mg5 O0 2.169257 1_455
Mg5 O8 2.293952 1_556
Mg5 O9 2.293952 1_555
Mg6 O18 2.022045 1_555
Mg6 O19 2.022045 1_555
Mg6 O15 2.130970 1_555
Mg6 O14 2.130970 1_554
Mg6 O7 2.193084 1_555
Mg6 O6 2.193084 1_555
Mg7 O17 2.022045 1_555
Mg7 O16 2.022045 1_555
Mg7 O12 2.130970 1_556
Mg7 O13 2.130970 1_555
Mg7 O4 2.193084 1_555
Mg7 O5 2.193084 1_555
O0 Si0 1.654480 1_555
O1 Si1 1.654480 1_555
O2 Si2 1.654480 1_555
O3 Si3 1.654480 1_555
O4 Si4 1.641959 1_455
O5 Si5 1.641959 1_565
O6 Si6 1.641959 1_655
O7 Si7 1.641959 1_545
O8 O9 1.513725 1_555
O10 O11 1.513725 1_555
O12 Si8 1.632281 1_455
O13 Si9 1.632281 1_565
O14 Si10 1.632281 1_655
O15 Si11 1.632281 1_545
O16 Si10 1.629663 1_555
O17 Si11 1.629663 1_555
O18 Si8 1.629663 1_555
O19 Si9 1.629663 1_555
O20 Si0 1.636841 1_555
O20 Si3 1.640456 1_555
O21 Si1 1.636841 1_555
O21 Si2 1.640456 1_556
O22 Si2 1.636841 1_555
O22 Si1 1.640456 1_555
O23 Si3 1.636841 1_555
O23 Si0 1.640456 1_554
O24 Si0 1.631640 1_555
O24 Si4 1.647084 1_555
O25 Si1 1.631640 1_555
O25 Si5 1.647084 1_555
O26 Si2 1.631640 1_555
O26 Si6 1.647084 1_555
O27 Si3 1.631640 1_555
O27 Si7 1.647084 1_555
O28 Si4 1.632689 1_555
O28 Si8 1.667015 1_555
O29 Si5 1.632689 1_555
O29 Si9 1.667015 1_556
O30 Si6 1.632689 1_555
O30 Si10 1.667015 1_555
O31 Si7 1.632689 1_555
O31 Si11 1.667015 1_554
O32 Si4 1.637636 1_554
O32 Si8 1.652204 1_555
O33 Si5 1.637636 1_555
O33 Si9 1.652204 1_555
O34 Si6 1.637636 1_556
O34 Si10 1.652204 1_555
O35 Si7 1.637636 1_555
O35 Si11 1.652204 1_555
