# generated using pymatgen
data_Mg6NbNi
_symmetry_space_group_name_H-M   'P 1'
_cell_length_a   6.20344714
_cell_length_b   5.85615810
_cell_length_c   4.80159844
_cell_angle_alpha   90.00000000
_cell_angle_beta   90.00000000
_cell_angle_gamma   118.16474901
_symmetry_Int_Tables_number   1
_chemical_formula_structural   Mg6NbNi
_chemical_formula_sum   'Mg6 Nb1 Ni1'
_cell_volume   153.78017534
_cell_formula_units_Z   1
loop_
 _symmetry_equiv_pos_site_id
 _symmetry_equiv_pos_as_xyz
  1  'x, y, z'
loop_
 _atom_site_type_symbol
 _atom_site_label
 _atom_site_symmetry_multiplicity
 _atom_site_fract_x
 _atom_site_fract_y
 _atom_site_fract_z
 _atom_site_occupancy
  Mg  Mg0  1  0.64816879  0.32513534  0.25000000  1
  Mg  Mg1  1  0.64816879  0.82303246  0.25000000  1
  Mg  Mg2  1  0.33155755  0.16556799  0.75000000  1
  Mg  Mg3  1  0.33155755  0.66599055  0.75000000  1
  Mg  Mg4  1  0.87888624  0.18944362  0.75000000  1
  Mg  Mg5  1  0.84547890  0.67273995  0.75000000  1
  Nb  Nb0  1  0.14473823  0.82236862  0.25000000  1
  Ni  Ni0  1  0.17144395  0.33572147  0.25000000  1
loop_
_geom_bond_atom_site_label_1
_geom_bond_atom_site_label_2
_geom_bond_distance
_geom_bond_site_symmetry_2
Mg0 Mg1 2.915764 1_555
Mg0 Mg1 2.940394 1_545
Mg0 Mg2 2.960078 1_554
Mg0 Mg2 2.960078 1_555
Mg0 Ni0 2.987099 1_555
Mg0 Mg5 3.008932 1_555
Mg0 Mg5 3.008932 1_554
Mg0 Nb0 3.082279 1_655
Mg0 Mg4 3.085025 1_555
Mg0 Mg4 3.085025 1_554
Mg0 Nb0 3.121172 1_545
Mg0 Ni0 3.217312 1_655
Mg1 Mg3 2.960078 1_554
Mg1 Mg3 2.960078 1_555
Mg1 Ni0 2.987099 1_555
Mg1 Mg5 3.008927 1_555
Mg1 Mg5 3.008927 1_554
Mg1 Nb0 3.082279 1_655
Mg1 Mg4 3.085030 1_564
Mg1 Mg4 3.085030 1_565
Mg1 Nb0 3.121172 1_555
Mg1 Ni0 3.217312 1_665
Mg2 Mg4 2.876761 1_455
Mg2 Mg3 2.925604 1_545
Mg2 Mg3 2.930554 1_555
Mg2 Ni0 2.945780 1_556
Mg2 Ni0 2.945780 1_555
Mg2 Nb0 2.991240 1_546
Mg2 Nb0 2.991240 1_545
Mg2 Mg5 3.034219 1_445
Mg2 Mg5 3.169619 1_555
Mg2 Mg4 3.331610 1_555
Mg3 Mg4 2.876760 1_455
Mg3 Ni0 2.945785 1_555
Mg3 Ni0 2.945785 1_556
Mg3 Nb0 2.991234 1_555
Mg3 Nb0 2.991234 1_556
Mg3 Mg5 3.034220 1_455
Mg3 Mg5 3.169619 1_555
Mg3 Mg4 3.331609 1_565
Mg4 Ni0 2.885092 1_655
Mg4 Ni0 2.885092 1_656
Mg4 Mg5 2.933773 1_545
Mg4 Mg5 2.933774 1_555
Mg5 Nb0 2.905578 1_656
Mg5 Nb0 2.905578 1_655
Nb0 Ni0 2.931719 1_565
Nb0 Ni0 2.931719 1_555
