# generated using pymatgen
data_Ca4Ti3Si4SnO20
_symmetry_space_group_name_H-M   'P 1'
_cell_length_a   5.53767300
_cell_length_b   5.54258840
_cell_length_c   13.13777023
_cell_angle_alpha   92.38070569
_cell_angle_beta   92.22368466
_cell_angle_gamma   105.69587780
_symmetry_Int_Tables_number   1
_chemical_formula_structural   Ca4Ti3Si4SnO20
_chemical_formula_sum   'Ca4 Ti3 Si4 Sn1 O20'
_cell_volume   387.34162082
_cell_formula_units_Z   1
loop_
 _symmetry_equiv_pos_site_id
 _symmetry_equiv_pos_as_xyz
  1  'x, y, z'
loop_
 _atom_site_type_symbol
 _atom_site_label
 _atom_site_symmetry_multiplicity
 _atom_site_fract_x
 _atom_site_fract_y
 _atom_site_fract_z
 _atom_site_occupancy
  Ca  Ca0  1  0.95379000  0.28935000  0.12911500  1
  Ca  Ca1  1  0.45442000  0.79596900  0.62427800  1
  Ca  Ca2  1  0.54558000  0.20403100  0.37572200  1
  Ca  Ca3  1  0.04621000  0.71065000  0.87088500  1
  Ti  Ti0  1  0.00000000  0.00000000  0.50000000  1
  Ti  Ti1  1  0.75187800  0.74863200  0.25230500  1
  Ti  Ti2  1  0.24812200  0.25136800  0.74769500  1
  Si  Si0  1  0.19443400  0.55660100  0.37593900  1
  Si  Si1  1  0.69760200  0.05904200  0.87238300  1
  Si  Si2  1  0.30239800  0.94095800  0.12761700  1
  Si  Si3  1  0.80556600  0.44339900  0.62406100  1
  Sn  Sn0  1  0.50000000  0.50000000  0.00000000  1
  O  O0  1  0.41784000  0.54810700  0.29725200  1
  O  O1  1  0.91495500  0.04349500  0.79149200  1
  O  O2  1  0.28302200  0.15595500  0.04672900  1
  O  O3  1  0.79690400  0.66790300  0.54612100  1
  O  O4  1  0.08504500  0.95650500  0.20850800  1
  O  O5  1  0.58216000  0.45189300  0.70274800  1
  O  O6  1  0.20309600  0.33209700  0.45387900  1
  O  O7  1  0.71697800  0.84404500  0.95327100  1
  O  O8  1  0.80435600  0.94570100  0.37609900  1
  O  O9  1  0.29437500  0.44758700  0.86938700  1
  O  O10  1  0.70562500  0.55241300  0.13061300  1
  O  O11  1  0.19564400  0.05429900  0.62390100  1
  O  O12  1  0.23289000  0.66815000  0.06175200  1
  O  O13  1  0.74606000  0.17056900  0.55830300  1
  O  O14  1  0.92103700  0.49588900  0.31043600  1
  O  O15  1  0.42193300  0.99961200  0.80897500  1
  O  O16  1  0.25394000  0.82943100  0.44169700  1
  O  O17  1  0.76711000  0.33185000  0.93824800  1
  O  O18  1  0.57806700  0.00038800  0.19102500  1
  O  O19  1  0.07896300  0.50411100  0.68956400  1
loop_
_geom_bond_atom_site_label_1
_geom_bond_atom_site_label_2
_geom_bond_distance
_geom_bond_site_symmetry_2
Ca0 O10 2.258039 1_555
Ca0 O4 2.417885 1_645
Ca0 O2 2.420359 1_655
Ca0 O18 2.447906 1_555
Ca0 O12 2.466742 1_655
Ca0 O14 2.633884 1_555
Ca0 O17 2.718774 1_554
Ca1 O11 2.283388 1_565
Ca1 O3 2.444195 1_555
Ca1 O5 2.456982 1_555
Ca1 O19 2.471686 1_555
Ca1 O13 2.472696 1_565
Ca1 O16 2.638642 1_555
Ca1 O15 2.666550 1_555
Ca2 O8 2.283388 1_545
Ca2 O6 2.444195 1_555
Ca2 O0 2.456982 1_555
Ca2 O14 2.471686 1_555
Ca2 O16 2.472696 1_545
Ca2 O13 2.638642 1_555
Ca2 O18 2.666550 1_555
Ca3 O9 2.258039 1_555
Ca3 O1 2.417885 1_465
Ca3 O7 2.420359 1_455
Ca3 O15 2.447906 1_555
Ca3 O17 2.466742 1_455
Ca3 O19 2.633884 1_555
Ca3 O12 2.718774 1_556
O0 Si0 1.651713 1_555
O0 Ti1 2.008137 1_555
O1 Si1 1.653273 1_555
O1 Ti2 2.012406 1_655
O2 Si2 1.651170 1_545
O2 Sn0 2.090857 1_555
O3 Si3 1.653328 1_555
O3 Ti0 2.011366 1_665
O4 Si2 1.653273 1_555
O4 Ti1 2.012406 1_455
O5 Si3 1.651713 1_555
O5 Ti2 2.008137 1_555
O6 Si0 1.653328 1_555
O6 Ti0 2.011366 1_555
O7 Si1 1.651170 1_565
O7 Sn0 2.090857 1_556
O8 Ti0 1.886812 1_665
O8 Ti1 1.888546 1_555
O9 Ti2 1.864801 1_555
O9 Sn0 1.988342 1_556
O10 Ti1 1.864801 1_555
O10 Sn0 1.988342 1_555
O11 Ti0 1.886812 1_555
O11 Ti2 1.888546 1_555
O12 Si2 1.653425 1_555
O12 Sn0 2.119178 1_555
O13 Si3 1.655716 1_555
O13 Ti0 2.049567 1_655
O14 Si0 1.656845 1_655
O14 Ti1 2.041201 1_555
O15 Si1 1.655085 1_565
O15 Ti2 2.069189 1_565
O16 Si0 1.655716 1_555
O16 Ti0 2.049567 1_565
O17 Si1 1.653425 1_555
O17 Sn0 2.119178 1_556
O18 Si2 1.655085 1_545
O18 Ti1 2.069189 1_545
O19 Si3 1.656845 1_455
O19 Ti2 2.041201 1_555
