# generated using pymatgen
data_Ca7Ge6
_symmetry_space_group_name_H-M   'P 1'
_cell_length_a   7.44057800
_cell_length_b   8.11037300
_cell_length_c   22.45828900
_cell_angle_alpha   90.00000000
_cell_angle_beta   90.00000000
_cell_angle_gamma   90.00000000
_symmetry_Int_Tables_number   1
_chemical_formula_structural   Ca7Ge6
_chemical_formula_sum   'Ca28 Ge24'
_cell_volume   1355.26482931
_cell_formula_units_Z   4
loop_
 _symmetry_equiv_pos_site_id
 _symmetry_equiv_pos_as_xyz
  1  'x, y, z'
loop_
 _atom_site_type_symbol
 _atom_site_label
 _atom_site_symmetry_multiplicity
 _atom_site_fract_x
 _atom_site_fract_y
 _atom_site_fract_z
 _atom_site_occupancy
  Ca  Ca0  1  0.01603800  0.17862900  0.83721300  1
  Ca  Ca1  1  0.51603800  0.32137100  0.66278700  1
  Ca  Ca2  1  0.48396200  0.67862900  0.16278700  1
  Ca  Ca3  1  0.98396200  0.82137100  0.33721300  1
  Ca  Ca4  1  0.98396200  0.82137100  0.16278700  1
  Ca  Ca5  1  0.48396200  0.67862900  0.33721300  1
  Ca  Ca6  1  0.51603800  0.32137100  0.83721300  1
  Ca  Ca7  1  0.01603800  0.17862900  0.66278700  1
  Ca  Ca8  1  0.85225800  0.68215800  0.85626600  1
  Ca  Ca9  1  0.35225800  0.81784200  0.64373400  1
  Ca  Ca10  1  0.64774200  0.18215800  0.14373400  1
  Ca  Ca11  1  0.14774200  0.31784200  0.35626600  1
  Ca  Ca12  1  0.14774200  0.31784200  0.14373400  1
  Ca  Ca13  1  0.64774200  0.18215800  0.35626600  1
  Ca  Ca14  1  0.35225800  0.81784200  0.85626600  1
  Ca  Ca15  1  0.85225800  0.68215800  0.64373400  1
  Ca  Ca16  1  0.66571200  0.82181800  0.48127100  1
  Ca  Ca17  1  0.16571200  0.67818200  0.01872900  1
  Ca  Ca18  1  0.83428800  0.32181800  0.51872900  1
  Ca  Ca19  1  0.33428800  0.17818200  0.98127100  1
  Ca  Ca20  1  0.33428800  0.17818200  0.51872900  1
  Ca  Ca21  1  0.83428800  0.32181800  0.98127100  1
  Ca  Ca22  1  0.16571200  0.67818200  0.48127100  1
  Ca  Ca23  1  0.66571200  0.82181800  0.01872900  1
  Ca  Ca24  1  0.68452600  0.98286300  0.75000000  1
  Ca  Ca25  1  0.18452600  0.51713700  0.75000000  1
  Ca  Ca26  1  0.81547400  0.48286300  0.25000000  1
  Ca  Ca27  1  0.31547400  0.01713700  0.25000000  1
  Ge  Ge0  1  0.99689400  0.95805200  0.94519600  1
  Ge  Ge1  1  0.49689400  0.54194800  0.55480400  1
  Ge  Ge2  1  0.50310600  0.45805200  0.05480400  1
  Ge  Ge3  1  0.00310600  0.04194800  0.44519600  1
  Ge  Ge4  1  0.00310600  0.04194800  0.05480400  1
  Ge  Ge5  1  0.50310600  0.45805200  0.44519600  1
  Ge  Ge6  1  0.49689400  0.54194800  0.94519600  1
  Ge  Ge7  1  0.99689400  0.95805200  0.55480400  1
  Ge  Ge8  1  0.81718100  0.52689500  0.40212400  1
  Ge  Ge9  1  0.31718100  0.97310500  0.09787600  1
  Ge  Ge10  1  0.68281900  0.02689500  0.59787600  1
  Ge  Ge11  1  0.18281900  0.47310500  0.90212400  1
  Ge  Ge12  1  0.18281900  0.47310500  0.59787600  1
  Ge  Ge13  1  0.68281900  0.02689500  0.90212400  1
  Ge  Ge14  1  0.31718100  0.97310500  0.40212400  1
  Ge  Ge15  1  0.81718100  0.52689500  0.09787600  1
  Ge  Ge16  1  0.80930700  0.39530900  0.75000000  1
  Ge  Ge17  1  0.30930700  0.10469100  0.75000000  1
  Ge  Ge18  1  0.69069300  0.89530900  0.25000000  1
  Ge  Ge19  1  0.19069300  0.60469100  0.25000000  1
  Ge  Ge20  1  0.57500400  0.62421700  0.75000000  1
  Ge  Ge21  1  0.07500400  0.87578300  0.75000000  1
  Ge  Ge22  1  0.92499600  0.12421700  0.25000000  1
  Ge  Ge23  1  0.42499600  0.37578300  0.25000000  1
loop_
_geom_bond_atom_site_label_1
_geom_bond_atom_site_label_2
_geom_bond_distance
_geom_bond_site_symmetry_2
Ca0 Ge17 2.992899 1_555
Ca0 Ge0 3.016927 1_445
Ca0 Ge16 3.048062 1_455
Ca0 Ge11 3.060903 1_555
Ca0 Ge13 3.128372 1_455
Ca0 Ge21 3.172020 1_545
Ca1 Ge16 2.992899 1_555
Ca1 Ge1 3.016927 1_555
Ca1 Ge17 3.048062 1_555
Ca1 Ge10 3.060903 1_555
Ca1 Ge12 3.128372 1_555
Ca1 Ge20 3.172020 1_555
Ca2 Ge19 2.992899 1_555
Ca2 Ge2 3.016927 1_555
Ca2 Ge18 3.048062 1_555
Ca2 Ge9 3.060903 1_555
Ca2 Ge15 3.128372 1_555
Ca2 Ge23 3.172020 1_555
Ca3 Ge18 2.992899 1_555
Ca3 Ge3 3.016927 1_665
Ca3 Ge19 3.048062 1_655
Ca3 Ge8 3.060903 1_555
Ca3 Ge14 3.128372 1_655
Ca3 Ge22 3.172020 1_565
Ca4 Ge18 2.992899 1_555
Ca4 Ge4 3.016927 1_665
Ca4 Ge19 3.048062 1_655
Ca4 Ge15 3.060903 1_555
Ca4 Ge9 3.128372 1_655
Ca4 Ge22 3.172020 1_565
Ca5 Ge19 2.992899 1_555
Ca5 Ge5 3.016927 1_555
Ca5 Ge18 3.048062 1_555
Ca5 Ge14 3.060903 1_555
Ca5 Ge8 3.128372 1_555
Ca5 Ge23 3.172020 1_555
Ca6 Ge16 2.992899 1_555
Ca6 Ge6 3.016927 1_555
Ca6 Ge17 3.048062 1_555
Ca6 Ge13 3.060903 1_555
Ca6 Ge11 3.128372 1_555
Ca6 Ge20 3.172020 1_555
Ca7 Ge17 2.992899 1_555
Ca7 Ge7 3.016927 1_445
Ca7 Ge16 3.048062 1_455
Ca7 Ge12 3.060903 1_555
Ca7 Ge10 3.128372 1_455
Ca7 Ge21 3.172020 1_545
Ca8 Ge11 3.159881 1_655
Ca8 Ge0 3.186517 1_555
Ca8 Ge20 3.189379 1_555
Ca8 Ge13 3.235339 1_565
Ca8 Ge21 3.302807 1_655
Ca8 Ge16 3.348156 1_555
Ca8 Ge6 3.503331 1_555
Ca9 Ge10 3.159881 1_565
Ca9 Ge1 3.186517 1_555
Ca9 Ge21 3.189379 1_555
Ca9 Ge12 3.235339 1_555
Ca9 Ge20 3.302807 1_555
Ca9 Ge17 3.348156 1_565
Ca9 Ge7 3.503331 1_455
Ca10 Ge9 3.159881 1_545
Ca10 Ge2 3.186517 1_555
Ca10 Ge22 3.189379 1_555
Ca10 Ge15 3.235339 1_555
Ca10 Ge23 3.302807 1_555
Ca10 Ge18 3.348156 1_545
Ca10 Ge4 3.503331 1_655
Ca11 Ge8 3.159881 1_455
Ca11 Ge3 3.186517 1_555
Ca11 Ge23 3.189379 1_555
Ca11 Ge14 3.235339 1_545
Ca11 Ge22 3.302807 1_455
Ca11 Ge19 3.348156 1_555
Ca11 Ge5 3.503331 1_555
Ca12 Ge15 3.159881 1_455
Ca12 Ge4 3.186517 1_555
Ca12 Ge23 3.189379 1_555
Ca12 Ge9 3.235339 1_545
Ca12 Ge22 3.302807 1_455
Ca12 Ge19 3.348156 1_555
Ca12 Ge2 3.503331 1_555
Ca13 Ge14 3.159881 1_545
Ca13 Ge5 3.186517 1_555
Ca13 Ge22 3.189379 1_555
Ca13 Ge8 3.235339 1_555
Ca13 Ge23 3.302807 1_555
Ca13 Ge18 3.348156 1_545
Ca13 Ge3 3.503331 1_655
Ca14 Ge13 3.159881 1_565
Ca14 Ge6 3.186517 1_555
Ca14 Ge21 3.189379 1_555
Ca14 Ge11 3.235339 1_555
Ca14 Ge20 3.302807 1_555
Ca14 Ge17 3.348156 1_565
Ca14 Ge0 3.503331 1_455
Ca15 Ge12 3.159881 1_655
Ca15 Ge7 3.186517 1_555
Ca15 Ge20 3.189379 1_555
Ca15 Ge10 3.235339 1_565
Ca15 Ge21 3.302807 1_655
Ca15 Ge16 3.348156 1_555
Ca15 Ge1 3.503331 1_555
Ca16 Ge1 3.075260 1_555
Ca16 Ge10 3.104908 1_565
Ca16 Ge7 3.165476 1_555
Ca16 Ge3 3.185273 1_665
Ca16 Ge8 3.186071 1_555
Ca16 Ge5 3.290038 1_555
Ca16 Ge14 3.374923 1_555
Ca17 Ge0 3.075260 1_454
Ca17 Ge11 3.104908 1_554
Ca17 Ge6 3.165476 1_554
Ca17 Ge2 3.185273 1_555
Ca17 Ge9 3.186071 1_555
Ca17 Ge4 3.290038 1_565
Ca17 Ge15 3.374923 1_455
Ca18 Ge3 3.075260 1_655
Ca18 Ge8 3.104908 1_555
Ca18 Ge5 3.165476 1_555
Ca18 Ge1 3.185273 1_555
Ca18 Ge10 3.186071 1_555
Ca18 Ge7 3.290038 1_545
Ca18 Ge12 3.374923 1_655
Ca19 Ge2 3.075260 1_556
Ca19 Ge9 3.104908 1_546
Ca19 Ge4 3.165476 1_556
Ca19 Ge0 3.185273 1_445
Ca19 Ge11 3.186071 1_555
Ca19 Ge6 3.290038 1_555
Ca19 Ge13 3.374923 1_555
Ca20 Ge5 3.075260 1_555
Ca20 Ge14 3.104908 1_545
Ca20 Ge3 3.165476 1_555
Ca20 Ge7 3.185273 1_445
Ca20 Ge12 3.186071 1_555
Ca20 Ge1 3.290038 1_555
Ca20 Ge10 3.374923 1_555
Ca21 Ge4 3.075260 1_656
Ca21 Ge15 3.104908 1_556
Ca21 Ge2 3.165476 1_556
Ca21 Ge6 3.185273 1_555
Ca21 Ge13 3.186071 1_555
Ca21 Ge0 3.290038 1_545
Ca21 Ge11 3.374923 1_655
Ca22 Ge7 3.075260 1_455
Ca22 Ge12 3.104908 1_555
Ca22 Ge1 3.165476 1_555
Ca22 Ge5 3.185273 1_555
Ca22 Ge14 3.186071 1_555
Ca22 Ge3 3.290038 1_565
Ca22 Ge8 3.374923 1_455
Ca23 Ge6 3.075260 1_554
Ca23 Ge13 3.104908 1_564
Ca23 Ge0 3.165476 1_554
Ca23 Ge4 3.185273 1_665
Ca23 Ge15 3.186071 1_555
Ca23 Ge2 3.290038 1_555
Ca23 Ge9 3.374923 1_555
Ca24 Ge17 2.961535 1_565
Ca24 Ge20 3.020748 1_555
Ca24 Ge21 3.032403 1_655
Ca24 Ge13 3.435082 1_565
Ca24 Ge10 3.435082 1_565
Ca24 Ge16 3.471547 1_565
Ca25 Ge16 2.961535 1_455
Ca25 Ge21 3.020748 1_555
Ca25 Ge20 3.032403 1_555
Ca25 Ge11 3.435082 1_555
Ca25 Ge12 3.435082 1_555
Ca25 Ge17 3.471547 1_555
Ca26 Ge19 2.961535 1_655
Ca26 Ge22 3.020748 1_555
Ca26 Ge23 3.032403 1_555
Ca26 Ge8 3.435082 1_555
Ca26 Ge15 3.435082 1_555
Ca26 Ge18 3.471547 1_555
Ca27 Ge18 2.961535 1_545
Ca27 Ge23 3.020748 1_555
Ca27 Ge22 3.032403 1_455
Ca27 Ge14 3.435082 1_545
Ca27 Ge9 3.435082 1_545
Ca27 Ge19 3.471547 1_545
Ge0 Ge4 2.554336 1_666
Ge0 Ge13 2.590089 1_565
Ge1 Ge5 2.554336 1_555
Ge1 Ge12 2.590089 1_555
Ge2 Ge6 2.554336 1_554
Ge3 Ge7 2.554336 1_445
Ge4 Ge9 2.590089 1_545
Ge5 Ge8 2.590089 1_555
Ge10 Ge7 2.590089 1_545
Ge11 Ge6 2.590089 1_555
Ge14 Ge3 2.590089 1_565
Ge15 Ge2 2.590089 1_555
Ge16 Ge20 2.546757 1_555
Ge17 Ge21 2.546757 1_545
Ge18 Ge22 2.546757 1_565
Ge19 Ge23 2.546757 1_555
