# generated using pymatgen
data_Sc2Re3Si4
_symmetry_space_group_name_H-M   'P 1'
_cell_length_a   6.60303564
_cell_length_b   6.60302567
_cell_length_c   12.41575496
_cell_angle_alpha   90.00007239
_cell_angle_beta   89.99993202
_cell_angle_gamma   90.00038909
_symmetry_Int_Tables_number   1
_chemical_formula_structural   Sc2Re3Si4
_chemical_formula_sum   'Sc8 Re12 Si16'
_cell_volume   541.32708797
_cell_formula_units_Z   4
loop_
 _symmetry_equiv_pos_site_id
 _symmetry_equiv_pos_as_xyz
  1  'x, y, z'
loop_
 _atom_site_type_symbol
 _atom_site_label
 _atom_site_symmetry_multiplicity
 _atom_site_fract_x
 _atom_site_fract_y
 _atom_site_fract_z
 _atom_site_occupancy
  Sc  Sc0  1  0.00778075  0.65794494  0.03119908  1
  Sc  Sc1  1  0.99221746  0.34207017  0.53116884  1
  Sc  Sc2  1  0.34206631  0.99221537  0.46879956  1
  Sc  Sc3  1  0.15794505  0.49222061  0.78118523  1
  Sc  Sc4  1  0.84205605  0.50778436  0.28117902  1
  Sc  Sc5  1  0.49221995  0.15794698  0.21882138  1
  Sc  Sc6  1  0.50778411  0.84205457  0.71881378  1
  Sc  Sc7  1  0.65793880  0.00777727  0.96883365  1
  Re  Re0  1  0.66799151  0.66799217  0.49998727  1
  Re  Re1  1  0.16800110  0.83200137  0.24999349  1
  Re  Re2  1  0.33200561  0.33200585  0.00001180  1
  Re  Re3  1  0.01933662  0.81409366  0.63268790  1
  Re  Re4  1  0.98065773  0.18587790  0.13270350  1
  Re  Re5  1  0.81410711  0.01933927  0.36728733  1
  Re  Re6  1  0.31410640  0.48067031  0.38268117  1
  Re  Re7  1  0.68587793  0.51935110  0.88271288  1
  Re  Re8  1  0.48066785  0.31410666  0.61729341  1
  Re  Re9  1  0.51934941  0.68587964  0.11731448  1
  Re  Re10  1  0.18589110  0.98066304  0.86731983  1
  Re  Re11  1  0.83200491  0.16799754  0.75000540  1
  Si  Si0  1  0.02600789  0.72231531  0.43812735  1
  Si  Si1  1  0.62014675  0.30463458  0.43111034  1
  Si  Si2  1  0.37985020  0.69537695  0.93112295  1
  Si  Si3  1  0.19537748  0.12014815  0.68111033  1
  Si  Si4  1  0.30463042  0.62014438  0.56887945  1
  Si  Si5  1  0.69537191  0.37984914  0.06888756  1
  Si  Si6  1  0.80462731  0.87984767  0.18111786  1
  Si  Si7  1  0.12014840  0.19537678  0.31888255  1
  Si  Si8  1  0.97397846  0.27769853  0.93814046  1
  Si  Si9  1  0.72231552  0.02600541  0.56185825  1
  Si  Si10  1  0.22230377  0.47398759  0.18813880  1
  Si  Si11  1  0.77769474  0.52601181  0.68813636  1
  Si  Si12  1  0.47398776  0.22230730  0.81186849  1
  Si  Si13  1  0.52601246  0.77769898  0.31185719  1
  Si  Si14  1  0.27769688  0.97397759  0.06187411  1
  Si  Si15  1  0.87984430  0.80462603  0.81888993  1
loop_
_geom_bond_atom_site_label_1
_geom_bond_atom_site_label_2
_geom_bond_distance
_geom_bond_site_symmetry_2
Sc0 Si10 2.697907 1_555
Sc0 Si6 2.722313 1_455
Sc0 Si2 2.764189 1_554
Sc0 Si14 2.770575 1_555
Sc0 Si8 2.772857 1_454
Sc0 Si5 2.801097 1_455
Sc0 Si15 2.932594 1_454
Sc1 Si11 2.698104 1_555
Sc1 Si3 2.722600 1_655
Sc1 Si1 2.764102 1_555
Sc1 Si9 2.770699 1_555
Sc1 Si0 2.772757 1_655
Sc1 Si4 2.801070 1_655
Sc1 Si7 2.932351 1_655
Sc2 Si13 2.697870 1_555
Sc2 Si7 2.722382 1_565
Sc2 Si4 2.764220 1_555
Sc2 Si0 2.770631 1_555
Sc2 Si9 2.772873 1_565
Sc2 Si1 2.801082 1_565
Sc2 Si3 2.932618 1_565
Sc3 Si8 2.698059 1_455
Sc3 Si2 2.722484 1_555
Sc3 Si3 2.764199 1_555
Sc3 Si12 2.770647 1_555
Sc3 Si11 2.772833 1_455
Sc3 Si15 2.801153 1_455
Sc3 Si4 2.932536 1_555
Sc4 Si0 2.697984 1_655
Sc4 Si1 2.722423 1_555
Sc4 Si6 2.764070 1_555
Sc4 Si13 2.770647 1_555
Sc4 Si10 2.772773 1_655
Sc4 Si7 2.801126 1_655
Sc4 Si5 2.932395 1_555
Sc5 Si14 2.698000 1_545
Sc5 Si5 2.722426 1_555
Sc5 Si7 2.764119 1_555
Sc5 Si10 2.770647 1_555
Sc5 Si13 2.772749 1_545
Sc5 Si6 2.801154 1_545
Sc5 Si1 2.932358 1_555
Sc6 Si9 2.698048 1_565
Sc6 Si4 2.722464 1_555
Sc6 Si15 2.764138 1_555
Sc6 Si11 2.770624 1_555
Sc6 Si12 2.772874 1_565
Sc6 Si3 2.801127 1_565
Sc6 Si2 2.932576 1_555
Sc7 Si12 2.698140 1_555
Sc7 Si15 2.722527 1_545
Sc7 Si5 2.764076 1_556
Sc7 Si8 2.770663 1_555
Sc7 Si14 2.772738 1_546
Sc7 Si2 2.801070 1_545
Sc7 Si6 2.932319 1_546
Re0 Si0 2.511375 1_655
Re0 Si9 2.511395 1_565
Re0 Si1 2.566619 1_555
Re0 Si4 2.566710 1_555
Re0 Si13 2.619068 1_555
Re0 Si11 2.619275 1_555
Re0 Re3 3.004547 1_655
Re0 Re5 3.004580 1_565
Re0 Re6 3.018499 1_555
Re0 Re8 3.018504 1_555
Re0 Sc1 3.060181 1_555
Re0 Sc2 3.060192 1_555
Re0 Sc4 3.133747 1_555
Re0 Sc6 3.133937 1_555
Re1 Si10 2.511320 1_555
Re1 Si13 2.511344 1_555
Re1 Si6 2.566724 1_455
Re1 Si7 2.566790 1_565
Re1 Si14 2.618917 1_555
Re1 Si0 2.619100 1_555
Re1 Re6 3.004404 1_555
Re1 Re9 3.004466 1_555
Re1 Re4 3.018429 1_465
Re1 Re5 3.018524 1_465
Re1 Sc5 3.060221 1_565
Re1 Sc4 3.060231 1_455
Re1 Sc0 3.133603 1_555
Re1 Sc2 3.133736 1_555
Re2 Si14 2.511442 1_545
Re2 Si8 2.511471 1_454
Re2 Si5 2.566672 1_555
Re2 Si2 2.566754 1_554
Re2 Si10 2.619027 1_555
Re2 Si12 2.619203 1_554
Re2 Re4 3.004554 1_455
Re2 Re7 3.018452 1_554
Re2 Re9 3.018476 1_555
Re2 Sc7 3.060238 1_554
Re2 Sc0 3.060263 1_555
Re2 Sc5 3.133767 1_555
Re2 Sc3 3.133955 1_554
Re3 Si3 2.407607 1_565
Re3 Si4 2.411731 1_555
Re3 Si15 2.489353 1_455
Re3 Si0 2.490862 1_555
Re3 Si9 2.564719 1_465
Re3 Si11 2.576462 1_455
Re3 Sc3 2.958717 1_555
Re3 Sc2 3.172509 1_555
Re4 Si6 2.407415 1_545
Re4 Si5 2.411800 1_555
Re4 Si7 2.489091 1_655
Re4 Si8 2.490962 1_554
Re4 Si14 2.564765 1_645
Re4 Si10 2.576571 1_655
Re4 Sc4 2.958688 1_555
Re4 Sc7 3.172264 1_554
Re5 Si7 2.407470 1_655
Re5 Si1 2.411836 1_555
Re5 Si6 2.488977 1_545
Re5 Si9 2.491007 1_555
Re5 Si0 2.564737 1_645
Re5 Si13 2.576457 1_545
Re5 Sc5 2.958541 1_555
Re5 Sc1 3.172431 1_555
Re6 Si1 2.407549 1_555
Re6 Si7 2.411706 1_555
Re6 Si4 2.489266 1_555
Re6 Si10 2.490685 1_555
Re6 Si13 2.564696 1_555
Re6 Si0 2.576563 1_555
Re6 Sc1 2.958690 1_455
Re6 Sc5 3.172241 1_555
Re7 Si2 2.407387 1_555
Re7 Si15 2.411740 1_555
Re7 Si5 2.489067 1_556
Re7 Si11 2.491115 1_555
Re7 Si12 2.564802 1_555
Re7 Si8 2.576545 1_555
Re7 Sc0 2.958733 1_656
Re7 Sc6 3.172423 1_555
Re8 Si4 2.407491 1_555
Re8 Si3 2.411768 1_555
Re8 Si1 2.489102 1_555
Re8 Si12 2.491073 1_555
Re8 Si11 2.564766 1_555
Re8 Si9 2.576551 1_555
Re8 Sc2 2.958750 1_545
Re8 Sc3 3.172496 1_555
Re9 Si5 2.407442 1_555
Re9 Si6 2.411682 1_555
Re9 Si2 2.489256 1_554
Re9 Si13 2.490712 1_555
Re9 Si10 2.564734 1_555
Re9 Si14 2.576574 1_555
Re9 Sc7 2.958656 1_564
Re9 Sc4 3.172167 1_555
Re10 Si15 2.407577 1_455
Re10 Si2 2.411705 1_555
Re10 Si3 2.489426 1_565
Re10 Si14 2.490834 1_556
Re10 Si8 2.564753 1_465
Re10 Si12 2.576554 1_565
Re10 Sc6 2.958876 1_555
Re10 Re2 3.004499 1_566
Re10 Re11 3.018603 1_465
Re10 Sc0 3.172358 1_556
Re11 Si12 2.511383 1_555
Re11 Si11 2.511387 1_555
Re11 Si15 2.566738 1_545
Re11 Si3 2.566798 1_655
Re11 Si8 2.619094 1_555
Re11 Si9 2.619250 1_555
Re11 Re8 3.004611 1_555
Re11 Re7 3.004695 1_555
Re11 Re3 3.018698 1_645
Re11 Sc3 3.060228 1_655
Re11 Sc6 3.060249 1_545
Re11 Sc7 3.133991 1_555
Re11 Sc1 3.134079 1_555
Si0 Si4 2.544649 1_555
Si1 Si9 2.544643 1_555
Si5 Si8 2.544494 1_554
Si10 Si7 2.544491 1_555
Si11 Si15 2.544573 1_555
Si12 Si3 2.544611 1_555
Si13 Si6 2.544463 1_555
Si14 Si2 2.544501 1_554
