# generated using pymatgen
data_Y(CuS2)3
_symmetry_space_group_name_H-M   'P 1'
_cell_length_a   6.73718500
_cell_length_b   8.52373400
_cell_length_c   14.34273400
_cell_angle_alpha   90.00000000
_cell_angle_beta   90.00000000
_cell_angle_gamma   90.00000000
_symmetry_Int_Tables_number   1
_chemical_formula_structural   Y(CuS2)3
_chemical_formula_sum   'Y4 Cu12 S24'
_cell_volume   823.64545326
_cell_formula_units_Z   4
loop_
 _symmetry_equiv_pos_site_id
 _symmetry_equiv_pos_as_xyz
  1  'x, y, z'
loop_
 _atom_site_type_symbol
 _atom_site_label
 _atom_site_symmetry_multiplicity
 _atom_site_fract_x
 _atom_site_fract_y
 _atom_site_fract_z
 _atom_site_occupancy
  Y  Y0  1  0.50475700  0.95294100  0.92990400  1
  Y  Y1  1  0.49524300  0.45294100  0.57009600  1
  Y  Y2  1  0.00475700  0.54705900  0.07009600  1
  Y  Y3  1  0.99524300  0.04705900  0.42990400  1
  Cu  Cu0  1  0.63193000  0.21360400  0.31803700  1
  Cu  Cu1  1  0.50723100  0.51445100  0.34067300  1
  Cu  Cu2  1  0.61446100  0.81411100  0.30861900  1
  Cu  Cu3  1  0.00723100  0.98554900  0.65932700  1
  Cu  Cu4  1  0.13193000  0.28639600  0.68196300  1
  Cu  Cu5  1  0.11446100  0.68588900  0.69138100  1
  Cu  Cu6  1  0.49276900  0.01445100  0.15932700  1
  Cu  Cu7  1  0.38553900  0.31411100  0.19138100  1
  Cu  Cu8  1  0.36807000  0.71360400  0.18196300  1
  Cu  Cu9  1  0.88553900  0.18588900  0.80861900  1
  Cu  Cu10  1  0.99276900  0.48554900  0.84067300  1
  Cu  Cu11  1  0.86807000  0.78639600  0.81803700  1
  S  S0  1  0.78327200  0.19492100  0.95920000  1
  S  S1  1  0.74049700  0.44052700  0.93897400  1
  S  S2  1  0.81933400  0.78760000  0.97271000  1
  S  S3  1  0.25950300  0.94052700  0.56102600  1
  S  S4  1  0.18066600  0.28760000  0.52729000  1
  S  S5  1  0.21672800  0.69492100  0.54080000  1
  S  S6  1  0.24049700  0.05947300  0.06102600  1
  S  S7  1  0.28327200  0.30507900  0.04080000  1
  S  S8  1  0.31933400  0.71240000  0.02729000  1
  S  S9  1  0.68066600  0.21240000  0.47271000  1
  S  S10  1  0.75950300  0.55947300  0.43897400  1
  S  S11  1  0.71672800  0.80507900  0.45920000  1
  S  S12  1  0.22521300  0.11526300  0.80354000  1
  S  S13  1  0.28533800  0.48725900  0.76584500  1
  S  S14  1  0.21379500  0.86550800  0.80634200  1
  S  S15  1  0.28620500  0.13449200  0.30634200  1
  S  S16  1  0.21466200  0.51274100  0.26584500  1
  S  S17  1  0.27478700  0.88473700  0.30354000  1
  S  S18  1  0.78533800  0.01274100  0.23415500  1
  S  S19  1  0.72521300  0.38473700  0.19646000  1
  S  S20  1  0.71379500  0.63449200  0.19365800  1
  S  S21  1  0.71466200  0.98725900  0.73415500  1
  S  S22  1  0.78620500  0.36550800  0.69365800  1
  S  S23  1  0.77478700  0.61526300  0.69646000  1
loop_
_geom_bond_atom_site_label_1
_geom_bond_atom_site_label_2
_geom_bond_distance
_geom_bond_site_symmetry_2
Cu0 S9 2.242624 1_555
Cu0 S18 2.333868 1_555
Cu0 S19 2.358687 1_555
Cu0 S15 2.430657 1_555
Cu1 S10 2.241373 1_555
Cu1 S16 2.244383 1_555
Cu1 S20 2.725772 1_555
Cu1 S19 2.767221 1_555
Cu2 S11 2.268287 1_555
Cu2 S18 2.309215 1_565
Cu2 S20 2.347473 1_555
Cu2 S17 2.367424 1_555
Cu3 S3 2.241373 1_555
Cu3 S21 2.244383 1_455
Cu3 S14 2.725772 1_555
Cu3 S12 2.767221 1_565
Cu4 S4 2.242624 1_555
Cu4 S13 2.333868 1_555
Cu4 S12 2.358687 1_555
Cu4 S22 2.430657 1_455
Cu5 S5 2.268287 1_555
Cu5 S13 2.309215 1_555
Cu5 S14 2.347473 1_555
Cu5 S23 2.367424 1_455
Cu6 S6 2.241373 1_555
Cu6 S18 2.244383 1_555
Cu6 S15 2.725772 1_555
Cu6 S17 2.767221 1_545
Cu7 S7 2.268287 1_555
Cu7 S16 2.309215 1_555
Cu7 S15 2.347473 1_555
Cu7 S19 2.367424 1_555
Cu8 S8 2.242624 1_555
Cu8 S16 2.333868 1_555
Cu8 S17 2.358687 1_555
Cu8 S20 2.430657 1_555
Cu9 S0 2.268287 1_555
Cu9 S21 2.309215 1_545
Cu9 S22 2.347473 1_555
Cu9 S12 2.367424 1_655
Cu10 S1 2.241373 1_555
Cu10 S13 2.244383 1_655
Cu10 S22 2.725772 1_555
Cu10 S23 2.767221 1_555
Cu11 S2 2.242624 1_555
Cu11 S21 2.333868 1_555
Cu11 S23 2.358687 1_555
Cu11 S14 2.430657 1_655
S0 S1 2.133041 1_555
S0 Y0 2.819870 1_545
S1 Y2 2.744286 1_656
S2 Y0 2.618174 1_555
S2 Y2 2.777649 1_656
S3 S5 2.133041 1_555
S3 Y3 2.744286 1_465
S4 Y1 2.618174 1_555
S4 Y3 2.777649 1_455
S5 Y1 2.819870 1_555
S6 S7 2.133041 1_555
S6 Y0 2.744286 1_544
S7 Y2 2.819870 1_555
S8 Y2 2.618174 1_555
S8 Y0 2.777649 1_554
S9 Y3 2.618174 1_555
S9 Y1 2.777649 1_555
S10 S11 2.133041 1_555
S10 Y1 2.744286 1_555
S11 Y3 2.819870 1_565
S12 S14 2.130614 1_545
S12 Y0 2.957381 1_545
S13 Y1 3.157202 1_555
S14 Y0 2.745687 1_555
S15 S17 2.130614 1_545
S15 Y3 2.745687 1_455
S16 Y2 3.157202 1_555
S17 Y3 2.957381 1_465
S18 Y3 3.157202 1_555
S19 S20 2.130614 1_555
S19 Y2 2.957381 1_655
S20 Y2 2.745687 1_655
S21 Y0 3.157202 1_555
S22 S23 2.130614 1_555
S22 Y1 2.745687 1_555
S23 Y1 2.957381 1_555
