# generated using pymatgen
data_Yb5(Ge5Ir2)2
_symmetry_space_group_name_H-M   'P 1'
_cell_length_a   4.37913592
_cell_length_b   13.02838896
_cell_length_c   13.02838896
_cell_angle_alpha   90.00000000
_cell_angle_beta   90.00000000
_cell_angle_gamma   90.00000000
_symmetry_Int_Tables_number   1
_chemical_formula_structural   Yb5(Ge5Ir2)2
_chemical_formula_sum   'Yb10 Ge20 Ir8'
_cell_volume   743.30979675
_cell_formula_units_Z   2
loop_
 _symmetry_equiv_pos_site_id
 _symmetry_equiv_pos_as_xyz
  1  'x, y, z'
loop_
 _atom_site_type_symbol
 _atom_site_label
 _atom_site_symmetry_multiplicity
 _atom_site_fract_x
 _atom_site_fract_y
 _atom_site_fract_z
 _atom_site_occupancy
  Yb  Yb0  1  -0.00000000  0.50000000  0.50000000  1
  Yb  Yb1  1  -0.00000000  -0.00000000  0.00000000  1
  Yb  Yb2  1  0.50000000  0.17174722  0.67174722  1
  Yb  Yb3  1  0.50000000  0.82825278  0.32825278  1
  Yb  Yb4  1  0.50000000  0.32825278  0.17174722  1
  Yb  Yb5  1  0.50000000  0.67174722  0.82825278  1
  Yb  Yb6  1  0.50000000  0.38660659  0.88660659  1
  Yb  Yb7  1  0.50000000  0.61339341  0.11339341  1
  Yb  Yb8  1  0.50000000  0.11339341  0.38660659  1
  Yb  Yb9  1  0.50000000  0.88660659  0.61339341  1
  Ge  Ge0  1  -0.00000000  0.06729716  0.56729716  1
  Ge  Ge1  1  0.00000000  0.93270284  0.43270284  1
  Ge  Ge2  1  0.00000000  0.43270284  0.06729716  1
  Ge  Ge3  1  -0.00000000  0.56729716  0.93270284  1
  Ge  Ge4  1  0.00000000  0.69592284  0.66207909  1
  Ge  Ge5  1  -0.00000000  0.30407716  0.33792091  1
  Ge  Ge6  1  -0.00000000  0.80407716  0.16207909  1
  Ge  Ge7  1  0.00000000  0.19592284  0.83792091  1
  Ge  Ge8  1  -0.00000000  0.66207909  0.30407716  1
  Ge  Ge9  1  0.00000000  0.33792091  0.69592284  1
  Ge  Ge10  1  -0.00000000  0.16207909  0.19592284  1
  Ge  Ge11  1  0.00000000  0.83792091  0.80407716  1
  Ge  Ge12  1  0.50000000  0.50811502  0.65453058  1
  Ge  Ge13  1  0.50000000  0.49188498  0.34546942  1
  Ge  Ge14  1  0.50000000  0.99188498  0.15453058  1
  Ge  Ge15  1  0.50000000  0.00811502  0.84546942  1
  Ge  Ge16  1  0.50000000  0.65453058  0.49188498  1
  Ge  Ge17  1  0.50000000  0.34546942  0.50811502  1
  Ge  Ge18  1  0.50000000  0.15453058  0.00811502  1
  Ge  Ge19  1  0.50000000  0.84546942  0.99188498  1
  Ir  Ir0  1  0.00000000  0.51886648  0.74684813  1
  Ir  Ir1  1  -0.00000000  0.48113352  0.25315187  1
  Ir  Ir2  1  -0.00000000  0.98113352  0.24684813  1
  Ir  Ir3  1  0.00000000  0.01886648  0.75315187  1
  Ir  Ir4  1  -0.00000000  0.74684813  0.48113352  1
  Ir  Ir5  1  0.00000000  0.25315187  0.51886648  1
  Ir  Ir6  1  -0.00000000  0.24684813  0.01886648  1
  Ir  Ir7  1  0.00000000  0.75315187  0.98113352  1
loop_
_geom_bond_atom_site_label_1
_geom_bond_atom_site_label_2
_geom_bond_distance
_geom_bond_site_symmetry_2
Ge0 Ge1 2.479890 1_545
Ge0 Ir5 2.502248 1_555
Ge0 Ir3 2.502248 1_555
Ge0 Yb2 2.915107 1_455
Ge0 Yb2 2.915107 1_555
Ge0 Yb8 3.270581 1_455
Ge0 Yb8 3.270581 1_555
Ge0 Yb9 3.270581 1_545
Ge0 Yb9 3.270581 1_445
Ge1 Ir2 2.502248 1_555
Ge1 Ir4 2.502248 1_555
Ge1 Yb3 2.915107 1_555
Ge1 Yb3 2.915107 1_455
Ge1 Yb8 3.270581 1_465
Ge1 Yb8 3.270581 1_565
Ge1 Yb9 3.270581 1_455
Ge1 Yb9 3.270581 1_555
Ge2 Ge3 2.479890 1_554
Ge2 Ir6 2.502248 1_555
Ge2 Ir1 2.502248 1_555
Ge2 Yb4 2.915107 1_455
Ge2 Yb4 2.915107 1_555
Ge2 Yb6 3.270581 1_554
Ge2 Yb6 3.270581 1_454
Ge2 Yb7 3.270581 1_455
Ge2 Yb7 3.270581 1_555
Ge3 Ir0 2.502248 1_555
Ge3 Ir7 2.502248 1_555
Ge3 Yb5 2.915107 1_455
Ge3 Yb5 2.915107 1_555
Ge3 Yb6 3.270581 1_455
Ge3 Yb6 3.270581 1_555
Ge3 Yb7 3.270581 1_456
Ge3 Yb7 3.270581 1_556
Ge4 Ir4 2.449014 1_555
Ge4 Ir0 2.557508 1_555
Ge4 Yb5 3.095244 1_455
Ge4 Yb5 3.095244 1_555
Ge4 Yb0 3.312784 1_555
Ge4 Yb9 3.371690 1_555
Ge4 Yb9 3.371690 1_455
Ge5 Ir5 2.449014 1_555
Ge5 Ir1 2.557508 1_555
Ge5 Yb4 3.095244 1_455
Ge5 Yb4 3.095244 1_555
Ge5 Yb0 3.312784 1_555
Ge5 Yb8 3.371690 1_455
Ge5 Yb8 3.371690 1_555
Ge6 Ir7 2.449014 1_554
Ge6 Ir2 2.557508 1_555
Ge6 Ge8 2.616304 1_555
Ge6 Yb3 3.095244 1_455
Ge6 Yb3 3.095244 1_555
Ge6 Yb1 3.312784 1_565
Ge6 Yb7 3.371690 1_455
Ge6 Yb7 3.371690 1_555
Ge7 Ir6 2.449014 1_556
Ge7 Ir3 2.557508 1_555
Ge7 Ge9 2.616304 1_555
Ge7 Yb2 3.095244 1_455
Ge7 Yb2 3.095244 1_555
Ge7 Yb1 3.312784 1_556
Ge7 Yb6 3.371690 1_555
Ge7 Yb6 3.371690 1_455
Ge8 Ir1 2.449014 1_555
Ge8 Ir4 2.557508 1_555
Ge8 Yb3 3.095244 1_455
Ge8 Yb3 3.095244 1_555
Ge8 Yb0 3.312784 1_555
Ge8 Yb7 3.371690 1_555
Ge8 Yb7 3.371690 1_455
Ge9 Ir0 2.449014 1_555
Ge9 Ir5 2.557508 1_555
Ge9 Yb2 3.095244 1_455
Ge9 Yb2 3.095244 1_555
Ge9 Yb0 3.312784 1_555
Ge9 Yb6 3.371690 1_455
Ge9 Yb6 3.371690 1_555
Ge10 Ir2 2.449014 1_545
Ge10 Ir6 2.557508 1_555
Ge10 Ge5 2.616304 1_555
Ge10 Yb4 3.095244 1_455
Ge10 Yb4 3.095244 1_555
Ge10 Yb1 3.312784 1_555
Ge10 Yb8 3.371690 1_455
Ge10 Yb8 3.371690 1_555
Ge11 Ir3 2.449014 1_565
Ge11 Ir7 2.557508 1_555
Ge11 Ge4 2.616304 1_555
Ge11 Yb5 3.095244 1_455
Ge11 Yb5 3.095244 1_555
Ge11 Yb1 3.312784 1_566
Ge11 Yb9 3.371690 1_555
Ge11 Yb9 3.371690 1_455
Ge12 Ir0 2.502086 1_655
Ge12 Ir0 2.502086 1_555
Ge12 Ge17 2.851137 1_555
Ge12 Ge16 2.851137 1_555
Ge12 Yb0 2.976357 1_655
Ge12 Yb0 2.976357 1_555
Ge12 Yb5 3.109254 1_555
Ge12 Yb6 3.412930 1_555
Ge13 Ir1 2.502086 1_655
Ge13 Ir1 2.502086 1_555
Ge13 Ge17 2.851137 1_555
Ge13 Ge16 2.851137 1_555
Ge13 Yb0 2.976357 1_655
Ge13 Yb0 2.976357 1_555
Ge13 Yb4 3.109254 1_555
Ge13 Yb7 3.412930 1_555
Ge14 Ir2 2.502086 1_655
Ge14 Ir2 2.502086 1_555
Ge14 Ge19 2.851137 1_554
Ge14 Ge18 2.851137 1_565
Ge14 Yb1 2.976357 1_565
Ge14 Yb1 2.976357 1_665
Ge14 Yb3 3.109254 1_555
Ge14 Yb8 3.412930 1_565
Ge15 Ir3 2.502086 1_655
Ge15 Ir3 2.502086 1_555
Ge15 Ge18 2.851137 1_556
Ge15 Ge19 2.851137 1_545
Ge15 Yb1 2.976357 1_556
Ge15 Yb1 2.976357 1_656
Ge15 Yb2 3.109254 1_555
Ge15 Yb9 3.412930 1_545
Ge16 Ir4 2.502086 1_555
Ge16 Ir4 2.502086 1_655
Ge16 Yb0 2.976357 1_655
Ge16 Yb0 2.976357 1_555
Ge16 Yb3 3.109254 1_555
Ge16 Yb9 3.412930 1_555
Ge17 Ir5 2.502086 1_555
Ge17 Ir5 2.502086 1_655
Ge17 Yb0 2.976357 1_655
Ge17 Yb0 2.976357 1_555
Ge17 Yb2 3.109254 1_555
Ge17 Yb8 3.412930 1_555
Ge18 Ir6 2.502086 1_555
Ge18 Ir6 2.502086 1_655
Ge18 Yb1 2.976357 1_655
Ge18 Yb1 2.976357 1_555
Ge18 Yb4 3.109254 1_555
Ge18 Yb6 3.412930 1_554
Ge19 Ir7 2.502086 1_555
Ge19 Ir7 2.502086 1_655
Ge19 Yb1 2.976357 1_566
Ge19 Yb1 2.976357 1_666
Ge19 Yb5 3.109254 1_555
Ge19 Yb7 3.412930 1_556
Ir0 Yb5 3.144240 1_455
Ir0 Yb5 3.144240 1_555
Ir0 Yb0 3.225413 1_555
Ir0 Yb6 3.328485 1_455
Ir0 Yb6 3.328485 1_555
Ir1 Yb4 3.144240 1_455
Ir1 Yb4 3.144240 1_555
Ir1 Yb0 3.225413 1_555
Ir1 Yb7 3.328485 1_555
Ir1 Yb7 3.328485 1_455
Ir2 Yb3 3.144240 1_555
Ir2 Yb3 3.144240 1_455
Ir2 Yb1 3.225413 1_565
Ir2 Yb8 3.328485 1_465
Ir2 Yb8 3.328485 1_565
Ir3 Yb2 3.144240 1_555
Ir3 Yb2 3.144240 1_455
Ir3 Yb1 3.225413 1_556
Ir3 Yb9 3.328485 1_445
Ir3 Yb9 3.328485 1_545
Ir4 Yb3 3.144240 1_555
Ir4 Yb3 3.144240 1_455
Ir4 Yb0 3.225413 1_555
Ir4 Yb9 3.328485 1_455
Ir4 Yb9 3.328485 1_555
Ir5 Yb2 3.144240 1_455
Ir5 Yb2 3.144240 1_555
Ir5 Yb0 3.225413 1_555
Ir5 Yb8 3.328485 1_455
Ir5 Yb8 3.328485 1_555
Ir6 Yb4 3.144240 1_455
Ir6 Yb4 3.144240 1_555
Ir6 Yb1 3.225413 1_555
Ir6 Yb6 3.328485 1_554
Ir6 Yb6 3.328485 1_454
Ir7 Yb5 3.144240 1_455
Ir7 Yb5 3.144240 1_555
Ir7 Yb1 3.225413 1_566
Ir7 Yb7 3.328485 1_456
Ir7 Yb7 3.328485 1_556
