# generated using pymatgen
data_Eu4BPd12
_symmetry_space_group_name_H-M   'P 1'
_cell_length_a   4.28585900
_cell_length_b   4.28585900
_cell_length_c   16.63976900
_cell_angle_alpha   90.00000000
_cell_angle_beta   90.00000000
_cell_angle_gamma   90.00000000
_symmetry_Int_Tables_number   1
_chemical_formula_structural   Eu4BPd12
_chemical_formula_sum   'Eu4 B1 Pd12'
_cell_volume   305.64905066
_cell_formula_units_Z   1
loop_
 _symmetry_equiv_pos_site_id
 _symmetry_equiv_pos_as_xyz
  1  'x, y, z'
loop_
 _atom_site_type_symbol
 _atom_site_label
 _atom_site_symmetry_multiplicity
 _atom_site_fract_x
 _atom_site_fract_y
 _atom_site_fract_z
 _atom_site_occupancy
  Eu  Eu0  1  0.00000000  0.00000000  0.86904700  1
  Eu  Eu1  1  0.00000000  0.00000000  0.13095300  1
  Eu  Eu2  1  0.00000000  0.00000000  0.37532000  1
  Eu  Eu3  1  0.00000000  0.00000000  0.62468000  1
  B  B0  1  0.50000000  0.50000000  0.00000000  1
  Pd  Pd0  1  0.00000000  0.50000000  0.00000000  1
  Pd  Pd1  1  0.00000000  0.50000000  0.24904800  1
  Pd  Pd2  1  0.00000000  0.50000000  0.50000000  1
  Pd  Pd3  1  0.00000000  0.50000000  0.75095200  1
  Pd  Pd4  1  0.50000000  0.50000000  0.87258500  1
  Pd  Pd5  1  0.50000000  0.50000000  0.12741500  1
  Pd  Pd6  1  0.50000000  0.50000000  0.37489300  1
  Pd  Pd7  1  0.50000000  0.50000000  0.62510700  1
  Pd  Pd8  1  0.50000000  0.00000000  0.00000000  1
  Pd  Pd9  1  0.50000000  0.00000000  0.24904800  1
  Pd  Pd10  1  0.50000000  0.00000000  0.50000000  1
  Pd  Pd11  1  0.50000000  0.00000000  0.75095200  1
loop_
_geom_bond_atom_site_label_1
_geom_bond_atom_site_label_2
_geom_bond_distance
_geom_bond_site_symmetry_2
Eu0 Pd3 2.907518 1_555
Eu0 Pd11 2.907518 1_455
Eu0 Pd11 2.907518 1_555
Eu0 Pd3 2.907518 1_545
Eu0 Pd4 3.031132 1_555
Eu0 Pd4 3.031132 1_445
Eu0 Pd4 3.031132 1_545
Eu0 Pd4 3.031132 1_455
Eu0 Pd8 3.056192 1_456
Eu0 Pd8 3.056192 1_556
Eu0 Pd0 3.056192 1_546
Eu0 Pd0 3.056192 1_556
Eu1 Pd9 2.907518 1_455
Eu1 Pd9 2.907518 1_555
Eu1 Pd1 2.907518 1_545
Eu1 Pd1 2.907518 1_555
Eu1 Pd5 3.031132 1_545
Eu1 Pd5 3.031132 1_445
Eu1 Pd5 3.031132 1_455
Eu1 Pd5 3.031132 1_555
Eu1 Pd8 3.056192 1_455
Eu1 Pd0 3.056192 1_555
Eu1 Pd0 3.056192 1_545
Eu1 Pd8 3.056192 1_555
Eu2 Pd10 2.982667 1_455
Eu2 Pd10 2.982667 1_555
Eu2 Pd2 2.982667 1_555
Eu2 Pd2 2.982667 1_545
Eu2 Pd1 3.001154 1_545
Eu2 Pd9 3.001154 1_455
Eu2 Pd9 3.001154 1_555
Eu2 Pd1 3.001154 1_555
Eu2 Pd6 3.030568 1_555
Eu2 Pd6 3.030568 1_445
Eu2 Pd6 3.030568 1_455
Eu2 Pd6 3.030568 1_545
Eu3 Pd10 2.982667 1_455
Eu3 Pd10 2.982667 1_555
Eu3 Pd2 2.982667 1_555
Eu3 Pd2 2.982667 1_545
Eu3 Pd11 3.001154 1_555
Eu3 Pd3 3.001154 1_545
Eu3 Pd3 3.001154 1_555
Eu3 Pd11 3.001154 1_455
Eu3 Pd7 3.030568 1_555
Eu3 Pd7 3.030568 1_445
Eu3 Pd7 3.030568 1_545
Eu3 Pd7 3.030568 1_455
B0 Pd4 2.120156 1_554
B0 Pd5 2.120156 1_555
B0 Pd0 2.142930 1_555
B0 Pd8 2.142930 1_555
B0 Pd8 2.142930 1_565
B0 Pd0 2.142930 1_655
Pd1 Pd6 2.996184 1_555
Pd1 Pd6 2.996184 1_455
Pd2 Pd7 2.987614 1_455
Pd2 Pd7 2.987614 1_555
Pd2 Pd6 2.987614 1_455
Pd2 Pd6 2.987614 1_555
Pd3 Pd7 2.996184 1_455
Pd3 Pd7 2.996184 1_555
Pd6 Pd9 2.996184 1_565
Pd6 Pd9 2.996184 1_555
Pd10 Pd7 2.987614 1_545
Pd10 Pd7 2.987614 1_555
Pd10 Pd6 2.987614 1_545
Pd10 Pd6 2.987614 1_555
Pd11 Pd7 2.996184 1_545
Pd11 Pd7 2.996184 1_555
