# generated using pymatgen
data_Nd(SiIr)2
_symmetry_space_group_name_H-M   'P 1'
_cell_length_a   4.13602105
_cell_length_b   4.13602105
_cell_length_c   9.80348226
_cell_angle_alpha   90.00000000
_cell_angle_beta   90.00000000
_cell_angle_gamma   90.00000000
_symmetry_Int_Tables_number   1
_chemical_formula_structural   Nd(SiIr)2
_chemical_formula_sum   'Nd2 Si4 Ir4'
_cell_volume   167.70493711
_cell_formula_units_Z   2
loop_
 _symmetry_equiv_pos_site_id
 _symmetry_equiv_pos_as_xyz
  1  'x, y, z'
loop_
 _atom_site_type_symbol
 _atom_site_label
 _atom_site_symmetry_multiplicity
 _atom_site_fract_x
 _atom_site_fract_y
 _atom_site_fract_z
 _atom_site_occupancy
  Nd  Nd0  1  0.75000000  0.75000000  0.25471801  1
  Nd  Nd1  1  0.25000000  0.25000000  0.74528199  1
  Si  Si0  1  0.75000000  0.25000000  0.50000000  1
  Si  Si1  1  0.25000000  0.75000000  0.50000000  1
  Si  Si2  1  0.75000000  0.75000000  0.87084380  1
  Si  Si3  1  0.25000000  0.25000000  0.12915620  1
  Ir  Ir0  1  0.75000000  0.25000000  0.00000000  1
  Ir  Ir1  1  0.25000000  0.75000000  0.00000000  1
  Ir  Ir2  1  0.75000000  0.75000000  0.62638525  1
  Ir  Ir3  1  0.25000000  0.25000000  0.37361475  1
loop_
_geom_bond_atom_site_label_1
_geom_bond_atom_site_label_2
_geom_bond_distance
_geom_bond_site_symmetry_2
Nd0 Si0 3.171570 1_565
Nd0 Si0 3.171570 1_555
Nd0 Si1 3.171570 1_555
Nd0 Si1 3.171570 1_655
Nd0 Si3 3.173099 1_565
Nd0 Si3 3.173099 1_665
Nd0 Si3 3.173099 1_555
Nd0 Si3 3.173099 1_655
Nd1 Si1 3.171570 1_555
Nd1 Si1 3.171570 1_545
Nd1 Si0 3.171570 1_455
Nd1 Si0 3.171570 1_555
Nd1 Si2 3.173099 1_545
Nd1 Si2 3.173099 1_555
Nd1 Si2 3.173099 1_445
Nd1 Si2 3.173099 1_455
Ir0 Si3 2.424847 1_655
Ir0 Si3 2.424847 1_555
Ir0 Si2 2.424847 1_554
Ir0 Si2 2.424847 1_544
Ir0 Nd0 3.242267 1_555
Ir0 Nd0 3.242267 1_545
Ir0 Nd1 3.242267 1_654
Ir0 Nd1 3.242267 1_554
Ir1 Si3 2.424847 1_565
Ir1 Si3 2.424847 1_555
Ir1 Si2 2.424847 1_454
Ir1 Si2 2.424847 1_554
Ir1 Nd0 3.242267 1_555
Ir1 Nd0 3.242267 1_455
Ir1 Nd1 3.242267 1_564
Ir1 Nd1 3.242267 1_554
Ir2 Si2 2.396545 1_555
Ir2 Si1 2.410773 1_555
Ir2 Si1 2.410773 1_655
Ir2 Si0 2.410773 1_565
Ir2 Si0 2.410773 1_555
Ir2 Nd1 3.148327 1_565
Ir2 Nd1 3.148327 1_655
Ir2 Nd1 3.148327 1_555
Ir2 Nd1 3.148327 1_665
Ir3 Si3 2.396545 1_555
Ir3 Si1 2.410773 1_555
Ir3 Si1 2.410773 1_545
Ir3 Si0 2.410773 1_455
Ir3 Si0 2.410773 1_555
Ir3 Nd0 3.148327 1_445
Ir3 Nd0 3.148327 1_555
Ir3 Nd0 3.148327 1_545
Ir3 Nd0 3.148327 1_455
