# generated using pymatgen
data_Zr63S128
_symmetry_space_group_name_H-M   'P 1'
_cell_length_a   14.72567753
_cell_length_b   14.72080732
_cell_length_c   25.19371286
_cell_angle_alpha   90.11013962
_cell_angle_beta   89.95540350
_cell_angle_gamma   120.03246314
_symmetry_Int_Tables_number   1
_chemical_formula_structural   Zr63S128
_chemical_formula_sum   'Zr63 S128'
_cell_volume   4728.10104708
_cell_formula_units_Z   1
loop_
 _symmetry_equiv_pos_site_id
 _symmetry_equiv_pos_as_xyz
  1  'x, y, z'
loop_
 _atom_site_type_symbol
 _atom_site_label
 _atom_site_symmetry_multiplicity
 _atom_site_fract_x
 _atom_site_fract_y
 _atom_site_fract_z
 _atom_site_occupancy
  Zr  Zr0  1  0.99992513  0.99993771  0.00078900  1
  Zr  Zr1  1  0.00000142  1.00000208  0.75000002  1
  Zr  Zr2  1  0.99999048  0.00005362  0.49920795  1
  Zr  Zr3  1  0.99680342  -0.00004577  0.25003547  1
  Zr  Zr4  1  0.99992937  0.24998985  0.00079335  1
  Zr  Zr5  1  0.00000063  0.25000319  0.74999745  1
  Zr  Zr6  1  0.99998562  0.24993648  0.49920324  1
  Zr  Zr7  1  0.99674989  0.24676554  0.25001654  1
  Zr  Zr8  1  0.99998443  0.49998361  0.00037454  1
  Zr  Zr9  1  -0.00000303  0.50000263  0.74996324  1
  Zr  Zr10  1  0.99999501  0.49998154  0.49893837  1
  Zr  Zr11  1  0.99960871  0.49925264  0.25056240  1
  Zr  Zr12  1  0.99998383  0.75000625  0.00037375  1
  Zr  Zr13  1  -0.00000347  0.75000445  0.74996331  1
  Zr  Zr14  1  0.99999046  0.75001275  0.49893892  1
  Zr  Zr15  1  0.99961438  0.75035135  0.25055213  1
  Zr  Zr16  1  0.75004068  0.75005837  0.00079741  1
  Zr  Zr17  1  0.74999720  0.74999691  0.75000083  1
  Zr  Zr18  1  0.74995797  0.75001044  0.49920443  1
  Zr  Zr19  1  0.75002816  0.75326515  0.25001761  1
  Zr  Zr20  1  0.74998976  0.99999438  0.00110998  1
  Zr  Zr21  1  0.74999990  1.00000002  0.74999994  1
  Zr  Zr22  1  0.75001072  0.00000511  0.49889055  1
  Zr  Zr23  1  0.75004210  0.24999036  0.00079606  1
  Zr  Zr24  1  0.75000253  0.25000283  0.74999916  1
  Zr  Zr25  1  0.74995924  0.24994137  0.49920240  1
  Zr  Zr26  1  0.74997142  0.24673489  0.24998230  1
  Zr  Zr27  1  0.75003218  0.50002509  0.00055246  1
  Zr  Zr28  1  0.74999992  0.50000004  0.74999998  1
  Zr  Zr29  1  0.74996761  0.49997596  0.49944780  1
  Zr  Zr30  1  0.74999985  0.50000001  0.24999998  1
  Zr  Zr31  1  0.50000451  0.50001797  0.00106098  1
  Zr  Zr32  1  0.50000313  0.49999766  0.75003694  1
  Zr  Zr33  1  0.50001514  0.50001622  0.49962535  1
  Zr  Zr34  1  0.50039103  0.50074730  0.24943760  1
  Zr  Zr35  1  0.50001412  0.75006277  0.00079640  1
  Zr  Zr36  1  0.49999934  0.74999678  0.75000226  1
  Zr  Zr37  1  0.50007213  0.75001093  0.49920673  1
  Zr  Zr38  1  0.50324924  0.75323401  0.24998384  1
  Zr  Zr39  1  0.50000937  0.99994618  0.00079207  1
  Zr  Zr40  1  0.49999849  -0.00000195  0.74999982  1
  Zr  Zr41  1  0.50007429  0.00006171  0.49921044  1
  Zr  Zr42  1  0.50319668  1.00004459  0.24996563  1
  Zr  Zr43  1  0.50000901  0.24998749  0.00106091  1
  Zr  Zr44  1  0.50000372  0.24999591  0.75003672  1
  Zr  Zr45  1  0.50001500  0.24999358  0.49962646  1
  Zr  Zr46  1  0.50038518  0.24964842  0.24944768  1
  Zr  Zr47  1  0.24997717  0.24999373  0.00105529  1
  Zr  Zr48  1  0.25000061  0.24999702  0.75003678  1
  Zr  Zr49  1  0.24998329  0.24998822  0.49962725  1
  Zr  Zr50  1  0.24929297  0.24964408  0.24944408  1
  Zr  Zr51  1  0.24998392  0.50002747  0.00055409  1
  Zr  Zr52  1  0.24999990  0.50000012  0.75000001  1
  Zr  Zr53  1  0.25001581  0.49997210  0.49944603  1
  Zr  Zr54  1  0.25000057  0.50000107  0.25000037  1
  Zr  Zr55  1  0.25001824  0.75001225  0.00037210  1
  Zr  Zr56  1  0.24999884  0.75000278  0.74996306  1
  Zr  Zr57  1  0.25002200  0.75000637  0.49894461  1
  Zr  Zr58  1  0.25070723  0.75035540  0.25055644  1
  Zr  Zr59  1  0.24997547  0.99995495  0.00054990  1
  Zr  Zr60  1  0.24999989  0.99999990  0.75000012  1
  Zr  Zr61  1  0.25002376  0.00004509  0.49945022  1
  Zr  Zr62  1  0.25000024  0.00000036  0.24999984  1
  S  S0  1  0.91646449  0.08315545  0.94286982  1
  S  S1  1  0.91665830  0.08325563  0.69202997  1
  S  S2  1  0.91683538  0.08333932  0.44116468  1
  S  S3  1  0.92163141  0.08580976  0.19305692  1
  S  S4  1  0.91648796  0.33292077  0.94261849  1
  S  S5  1  0.91664374  0.33323721  0.69201775  1
  S  S6  1  0.91649656  0.33291909  0.44112968  1
  S  S7  1  0.91755874  0.33507115  0.19159837  1
  S  S8  1  0.91649403  0.58317684  0.94238404  1
  S  S9  1  0.91663193  0.58324268  0.69200688  1
  S  S10  1  0.91630090  0.58309268  0.44122170  1
  S  S11  1  0.91687145  0.58336388  0.19220279  1
  S  S12  1  0.91648151  0.83343206  0.94260987  1
  S  S13  1  0.91664598  0.83326910  0.69201906  1
  S  S14  1  0.91649613  0.83343559  0.44112927  1
  S  S15  1  0.91758526  0.83234349  0.19159062  1
  S  S16  1  0.66676580  0.83345851  0.94287144  1
  S  S17  1  0.66665904  0.83325589  0.69203095  1
  S  S18  1  0.66659370  0.83309173  0.44116468  1
  S  S19  1  0.66413781  0.82836953  0.19312372  1
  S  S20  1  0.66674896  0.08315908  0.94286721  1
  S  S21  1  0.66665945  0.08325576  0.69203084  1
  S  S22  1  0.66657849  0.08334530  0.44117115  1
  S  S23  1  0.66410911  0.08577374  0.19312767  1
  S  S24  1  0.66637685  0.33295982  0.94279133  1
  S  S25  1  0.66663448  0.33324704  0.69204273  1
  S  S26  1  0.66638110  0.33325103  0.44153074  1
  S  S27  1  0.66638831  0.33393471  0.19164162  1
  S  S28  1  0.66636467  0.58328234  0.94279057  1
  S  S29  1  0.66663514  0.58324727  0.69204231  1
  S  S30  1  0.66638153  0.58298207  0.44152916  1
  S  S31  1  0.66639709  0.58231407  0.19162599  1
  S  S32  1  0.41697638  0.58329437  0.94279039  1
  S  S33  1  0.41667439  0.58324566  0.69204579  1
  S  S34  1  0.41666660  0.58298724  0.44153208  1
  S  S35  1  0.41599068  0.58229852  0.19162477  1
  S  S36  1  0.41699701  0.83343374  0.94261157  1
  S  S37  1  0.41668427  0.83326785  0.69202109  1
  S  S38  1  0.41700178  0.83342716  0.44112740  1
  S  S39  1  0.41481979  0.83234891  0.19159814  1
  S  S40  1  0.41696625  0.08353535  0.94278442  1
  S  S41  1  0.41666942  0.08327805  0.69204336  1
  S  S42  1  0.41667949  0.08355401  0.44153275  1
  S  S43  1  0.41597005  0.08352959  0.19163456  1
  S  S44  1  0.41665554  0.33326303  0.94305649  1
  S  S45  1  0.41666196  0.33325165  0.69207837  1
  S  S46  1  0.41667561  0.33326753  0.44172034  1
  S  S47  1  0.41668787  0.33327608  0.19162386  1
  S  S48  1  0.16662124  0.33295678  0.94279100  1
  S  S49  1  0.16667276  0.33324448  0.69204454  1
  S  S50  1  0.16693542  0.33324489  0.44153036  1
  S  S51  1  0.16764631  0.33394870  0.19163295  1
  S  S52  1  0.16673901  0.58317217  0.94238739  1
  S  S53  1  0.16666886  0.58324330  0.69200805  1
  S  S54  1  0.16685722  0.58308768  0.44122686  1
  S  S55  1  0.16653281  0.58336008  0.19220312  1
  S  S56  1  0.16673893  0.83342720  0.94238407  1
  S  S57  1  0.16667119  0.83328167  0.69200827  1
  S  S58  1  0.16684651  0.83364339  0.44122853  1
  S  S59  1  0.16653768  0.83303574  0.19220442  1
  S  S60  1  0.16662369  0.08354422  0.94278823  1
  S  S61  1  0.16666998  0.08327924  0.69204273  1
  S  S62  1  0.16694702  0.08355229  0.44152990  1
  S  S63  1  0.16764561  0.08353358  0.19162532  1
  S  S64  1  0.83334023  0.91674420  0.80796911  1
  S  S65  1  0.83325123  0.91684056  0.55713336  1
  S  S66  1  0.83589004  0.91422770  0.30687176  1
  S  S67  1  0.83342115  0.91665552  0.05882902  1
  S  S68  1  0.83334074  0.16674416  0.80796893  1
  S  S69  1  0.83323148  0.16653073  0.55712872  1
  S  S70  1  0.83586238  0.17163078  0.30687627  1
  S  S71  1  0.83341167  0.16691130  0.05883472  1
  S  S72  1  0.83336475  0.41675271  0.80795769  1
  S  S73  1  0.83363534  0.41671676  0.55720949  1
  S  S74  1  0.83360058  0.41768580  0.30837375  1
  S  S75  1  0.83361858  0.41701796  0.05847111  1
  S  S76  1  0.83336535  0.66675303  0.80795725  1
  S  S77  1  0.83362369  0.66704012  0.55720863  1
  S  S78  1  0.83361145  0.66606530  0.30835824  1
  S  S79  1  0.83362170  0.66675136  0.05847005  1
  S  S80  1  0.58335722  0.66676369  0.80798245  1
  S  S81  1  0.58351142  0.66707953  0.55738164  1
  S  S82  1  0.58244025  0.66492866  0.30840127  1
  S  S83  1  0.58350580  0.66708144  0.05886721  1
  S  S84  1  0.58334129  0.91674426  0.80796989  1
  S  S85  1  0.58353438  0.91684373  0.55713036  1
  S  S86  1  0.57836842  0.91419011  0.30694304  1
  S  S87  1  0.58316586  0.91666178  0.05883551  1
  S  S88  1  0.58335400  0.16673084  0.80798093  1
  S  S89  1  0.58351908  0.16656839  0.55739007  1
  S  S90  1  0.58241454  0.16765657  0.30840919  1
  S  S91  1  0.58350379  0.16656430  0.05887092  1
  S  S92  1  0.58336791  0.41675737  0.80799319  1
  S  S93  1  0.58350546  0.41682292  0.55761601  1
  S  S94  1  0.58312825  0.41663630  0.30779703  1
  S  S95  1  0.58369864  0.41690712  0.05877836  1
  S  S96  1  0.33332929  0.41675638  0.80799089  1
  S  S97  1  0.33326129  0.41682840  0.55761290  1
  S  S98  1  0.33346743  0.41664057  0.30779678  1
  S  S99  1  0.33314086  0.41691277  0.05877324  1
  S  S100  1  0.33332723  0.66675579  0.80795542  1
  S  S101  1  0.33337946  0.66704400  0.55720897  1
  S  S102  1  0.33235750  0.66605619  0.30837036  1
  S  S103  1  0.33306411  0.66675533  0.05846997  1
  S  S104  1  0.33333000  0.91672080  0.80795735  1
  S  S105  1  0.33337617  0.91645556  0.55721175  1
  S  S106  1  0.33235391  0.91646625  0.30837460  1
  S  S107  1  0.33305295  0.91644726  0.05847008  1
  S  S108  1  0.33332870  0.16671828  0.80799199  1
  S  S109  1  0.33326153  0.16657297  0.55761614  1
  S  S110  1  0.33346215  0.16696434  0.30779568  1
  S  S111  1  0.33315353  0.16635699  0.05877140  1
  S  S112  1  0.08331539  0.16673207  0.80797876  1
  S  S113  1  0.08301036  0.16656626  0.55738786  1
  S  S114  1  0.08517983  0.16765102  0.30840179  1
  S  S115  1  0.08299869  0.16657261  0.05887268  1
  S  S116  1  0.08332578  0.41675442  0.80795387  1
  S  S117  1  0.08302200  0.41670452  0.55720943  1
  S  S118  1  0.08400941  0.41770216  0.30837506  1
  S  S119  1  0.08333245  0.41701050  0.05846843  1
  S  S120  1  0.08333910  0.66674874  0.80792191  1
  S  S121  1  0.08334440  0.66673688  0.55694317  1
  S  S122  1  0.08331202  0.66672404  0.30837597  1
  S  S123  1  0.08332514  0.66673299  0.05827934  1
  S  S124  1  0.08333033  0.91672197  0.80795674  1
  S  S125  1  0.08303358  0.91646404  0.55721560  1
  S  S126  1  0.08402873  0.91647060  0.30836542  1
  S  S127  1  0.08332052  0.91644626  0.05846744  1
loop_
_geom_bond_atom_site_label_1
_geom_bond_atom_site_label_2
_geom_bond_distance
_geom_bond_site_symmetry_2
S0 Zr4 2.576695 1_556
S0 Zr0 2.580149 1_546
S0 Zr20 2.580409 1_546
S1 Zr5 2.576408 1_655
S1 Zr21 2.578472 1_545
S1 Zr1 2.580016 1_645
S2 Zr6 2.575843 1_555
S2 Zr22 2.576742 1_555
S2 Zr2 2.579426 1_555
S3 Zr7 2.502564 1_555
S3 Zr3 2.508632 1_555
S4 Zr8 2.576715 1_556
S4 Zr23 2.579211 1_556
S4 Zr4 2.580593 1_556
S5 Zr9 2.576283 1_655
S5 Zr24 2.578455 1_555
S5 Zr5 2.580093 1_655
S6 Zr10 2.577458 1_555
S6 Zr25 2.578670 1_555
S6 Zr6 2.580185 1_555
S7 Zr11 2.563962 1_555
S7 Zr26 2.595035 1_555
S7 Zr7 2.596774 1_555
S8 Zr12 2.577585 1_556
S8 Zr27 2.579246 1_556
S8 Zr8 2.581223 1_556
S9 Zr13 2.576400 1_655
S9 Zr28 2.578525 1_555
S9 Zr9 2.579909 1_655
S10 Zr14 2.574665 1_555
S10 Zr10 2.578598 1_555
S10 Zr29 2.578724 1_555
S11 Zr30 2.578251 1_555
S11 Zr15 2.584396 1_555
S11 Zr11 2.588263 1_555
S12 Zr0 2.576892 1_556
S12 Zr16 2.579302 1_556
S12 Zr12 2.580562 1_556
S13 Zr1 2.576447 1_655
S13 Zr17 2.578540 1_555
S13 Zr13 2.579842 1_655
S14 Zr2 2.576636 1_565
S14 Zr18 2.578715 1_555
S14 Zr14 2.581099 1_555
S15 Zr15 2.567412 1_555
S15 Zr3 2.593144 1_565
S15 Zr19 2.595330 1_555
S16 Zr20 2.578057 1_556
S16 Zr35 2.578811 1_556
S16 Zr16 2.580211 1_556
S17 Zr21 2.576394 1_555
S17 Zr36 2.578505 1_555
S17 Zr17 2.580019 1_555
S18 Zr22 2.574715 1_565
S18 Zr37 2.578065 1_555
S18 Zr18 2.579425 1_555
S19 Zr38 2.503262 1_555
S19 Zr19 2.507036 1_555
S20 Zr23 2.576738 1_556
S20 Zr39 2.578682 1_546
S20 Zr20 2.581914 1_546
S21 Zr24 2.576415 1_555
S21 Zr40 2.578485 1_555
S21 Zr21 2.579997 1_545
S22 Zr25 2.575728 1_555
S22 Zr41 2.577843 1_555
S22 Zr22 2.578289 1_555
S23 Zr26 2.501141 1_555
S23 Zr42 2.503250 1_545
S24 Zr27 2.576814 1_556
S24 Zr43 2.579710 1_556
S24 Zr23 2.580915 1_556
S25 Zr28 2.576320 1_555
S25 Zr44 2.578525 1_555
S25 Zr24 2.579985 1_555
S26 Zr29 2.575455 1_555
S26 Zr45 2.577202 1_555
S26 Zr25 2.578825 1_555
S27 Zr46 2.569327 1_555
S27 Zr30 2.574861 1_555
S27 Zr26 2.629563 1_555
S28 Zr16 2.577272 1_556
S28 Zr31 2.579642 1_556
S28 Zr27 2.580499 1_556
S29 Zr17 2.576302 1_555
S29 Zr32 2.578547 1_555
S29 Zr28 2.580000 1_555
S30 Zr18 2.575207 1_555
S30 Zr33 2.577211 1_555
S30 Zr29 2.579237 1_555
S31 Zr34 2.569436 1_555
S31 Zr30 2.578691 1_555
S31 Zr19 2.626809 1_555
S32 Zr35 2.577180 1_556
S32 Zr51 2.579047 1_556
S32 Zr31 2.581256 1_556
S33 Zr36 2.576289 1_555
S33 Zr52 2.578417 1_555
S33 Zr32 2.580108 1_555
S34 Zr37 2.575149 1_555
S34 Zr53 2.577595 1_555
S34 Zr33 2.578869 1_555
S35 Zr34 2.571066 1_555
S35 Zr54 2.577291 1_555
S35 Zr38 2.626185 1_555
S36 Zr39 2.576983 1_556
S36 Zr55 2.578857 1_556
S36 Zr35 2.580902 1_556
S37 Zr40 2.576386 1_565
S37 Zr56 2.578357 1_555
S37 Zr36 2.580064 1_555
S38 Zr41 2.576872 1_565
S38 Zr57 2.579674 1_555
S38 Zr37 2.580425 1_555
S39 Zr58 2.566127 1_555
S39 Zr42 2.592928 1_555
S39 Zr38 2.596803 1_555
S40 Zr43 2.577723 1_556
S40 Zr59 2.579055 1_546
S40 Zr39 2.580933 1_546
S41 Zr44 2.576465 1_555
S41 Zr60 2.578401 1_545
S41 Zr40 2.579952 1_555
S42 Zr45 2.574978 1_555
S42 Zr61 2.577698 1_555
S42 Zr41 2.578904 1_555
S43 Zr46 2.567689 1_555
S43 Zr62 2.576931 1_555
S43 Zr42 2.628666 1_545
S44 Zr31 2.577013 1_556
S44 Zr47 2.579094 1_556
S44 Zr43 2.580847 1_556
S45 Zr32 2.576265 1_555
S45 Zr48 2.578338 1_555
S45 Zr44 2.579858 1_555
S46 Zr33 2.575531 1_555
S46 Zr49 2.577929 1_555
S46 Zr45 2.579278 1_555
S47 Zr34 2.581830 1_555
S47 Zr50 2.584086 1_555
S47 Zr46 2.585596 1_555
S48 Zr51 2.576899 1_556
S48 Zr4 2.579290 1_456
S48 Zr47 2.581316 1_556
S49 Zr52 2.576322 1_555
S49 Zr5 2.578373 1_555
S49 Zr48 2.580109 1_555
S50 Zr53 2.575460 1_555
S50 Zr6 2.577307 1_455
S50 Zr49 2.578763 1_555
S51 Zr50 2.571041 1_555
S51 Zr54 2.574858 1_555
S51 Zr7 2.629131 1_455
S52 Zr55 2.577626 1_556
S52 Zr8 2.579729 1_456
S52 Zr51 2.580656 1_556
S53 Zr56 2.576356 1_555
S53 Zr9 2.578403 1_555
S53 Zr52 2.580093 1_555
S54 Zr57 2.574659 1_555
S54 Zr10 2.576936 1_455
S54 Zr53 2.580198 1_555
S55 Zr54 2.579970 1_555
S55 Zr58 2.584533 1_555
S55 Zr11 2.586851 1_455
S56 Zr59 2.576932 1_556
S56 Zr12 2.579770 1_456
S56 Zr55 2.581300 1_556
S57 Zr60 2.576447 1_555
S57 Zr13 2.578430 1_555
S57 Zr56 2.579902 1_555
S58 Zr61 2.576410 1_565
S58 Zr14 2.576856 1_455
S58 Zr57 2.578667 1_555
S59 Zr62 2.576241 1_565
S59 Zr15 2.586674 1_455
S59 Zr58 2.588165 1_555
S60 Zr47 2.577561 1_556
S60 Zr0 2.579339 1_446
S60 Zr59 2.580668 1_546
S61 Zr48 2.576474 1_555
S61 Zr1 2.578398 1_545
S61 Zr60 2.579967 1_545
S62 Zr49 2.574992 1_555
S62 Zr2 2.577451 1_455
S62 Zr61 2.579175 1_555
S63 Zr50 2.567683 1_555
S63 Zr62 2.578399 1_555
S63 Zr3 2.628925 1_455
S64 Zr17 2.576417 1_555
S64 Zr1 2.578489 1_655
S64 Zr21 2.579998 1_555
S65 Zr18 2.576727 1_555
S65 Zr2 2.578686 1_565
S65 Zr22 2.581910 1_565
S66 Zr19 2.501148 1_555
S66 Zr3 2.503234 1_565
S67 Zr16 2.575744 1_555
S67 Zr0 2.577852 1_555
S67 Zr20 2.578261 1_555
S68 Zr21 2.576394 1_545
S68 Zr5 2.578509 1_655
S68 Zr24 2.580014 1_555
S69 Zr22 2.577944 1_555
S69 Zr6 2.578844 1_555
S69 Zr25 2.580298 1_555
S70 Zr7 2.503245 1_555
S70 Zr26 2.507041 1_555
S71 Zr20 2.574736 1_545
S71 Zr4 2.578015 1_555
S71 Zr23 2.579442 1_555
S72 Zr24 2.576305 1_555
S72 Zr9 2.578547 1_655
S72 Zr28 2.580003 1_555
S73 Zr25 2.577269 1_555
S73 Zr10 2.579647 1_555
S73 Zr29 2.580519 1_555
S74 Zr11 2.569454 1_555
S74 Zr30 2.578668 1_555
S74 Zr26 2.626805 1_555
S75 Zr23 2.575196 1_555
S75 Zr8 2.577211 1_555
S75 Zr27 2.579251 1_555
S76 Zr28 2.576320 1_555
S76 Zr13 2.578529 1_655
S76 Zr17 2.579983 1_555
S77 Zr29 2.576798 1_555
S77 Zr14 2.579701 1_555
S77 Zr18 2.580922 1_555
S78 Zr15 2.569326 1_555
S78 Zr30 2.574860 1_555
S78 Zr19 2.629565 1_555
S79 Zr27 2.575477 1_555
S79 Zr12 2.577168 1_555
S79 Zr16 2.578841 1_555
S80 Zr32 2.576289 1_555
S80 Zr17 2.578445 1_555
S80 Zr36 2.580101 1_555
S81 Zr33 2.576724 1_555
S81 Zr18 2.579213 1_555
S81 Zr37 2.580577 1_555
S82 Zr34 2.563955 1_555
S82 Zr19 2.595037 1_555
S82 Zr38 2.596759 1_555
S83 Zr31 2.577434 1_555
S83 Zr16 2.578603 1_555
S83 Zr35 2.580160 1_555
S84 Zr36 2.576409 1_555
S84 Zr21 2.578474 1_555
S84 Zr40 2.580016 1_565
S85 Zr37 2.576679 1_555
S85 Zr41 2.580156 1_565
S85 Zr22 2.580421 1_565
S86 Zr38 2.502561 1_555
S86 Zr42 2.508602 1_555
S87 Zr35 2.575871 1_555
S87 Zr20 2.576729 1_555
S87 Zr39 2.579429 1_555
S88 Zr40 2.576447 1_555
S88 Zr24 2.578537 1_555
S88 Zr44 2.579843 1_555
S89 Zr41 2.576910 1_555
S89 Zr25 2.579296 1_555
S89 Zr45 2.580570 1_555
S90 Zr46 2.567411 1_555
S90 Zr42 2.593139 1_545
S90 Zr26 2.595327 1_555
S91 Zr39 2.576639 1_545
S91 Zr23 2.578712 1_555
S91 Zr43 2.581112 1_555
S92 Zr44 2.576397 1_555
S92 Zr28 2.578527 1_555
S92 Zr32 2.579907 1_555
S93 Zr45 2.577582 1_555
S93 Zr29 2.579246 1_555
S93 Zr33 2.581225 1_555
S94 Zr30 2.578249 1_555
S94 Zr46 2.584400 1_555
S94 Zr34 2.588257 1_555
S95 Zr43 2.574664 1_555
S95 Zr31 2.578605 1_555
S95 Zr27 2.578724 1_555
S96 Zr48 2.576342 1_555
S96 Zr32 2.578406 1_555
S96 Zr52 2.580066 1_555
S97 Zr49 2.577640 1_555
S97 Zr33 2.579727 1_555
S97 Zr53 2.580654 1_555
S98 Zr54 2.579965 1_555
S98 Zr50 2.584537 1_555
S98 Zr34 2.586844 1_555
S99 Zr47 2.574665 1_555
S99 Zr31 2.576962 1_555
S99 Zr51 2.580171 1_555
S100 Zr52 2.576321 1_555
S100 Zr36 2.578376 1_555
S100 Zr56 2.580111 1_555
S101 Zr53 2.576909 1_555
S101 Zr37 2.579297 1_555
S101 Zr57 2.581326 1_555
S102 Zr58 2.571062 1_555
S102 Zr54 2.574924 1_555
S102 Zr38 2.629122 1_555
S103 Zr51 2.575469 1_555
S103 Zr35 2.577319 1_555
S103 Zr55 2.578759 1_555
S104 Zr56 2.576480 1_555
S104 Zr40 2.578401 1_565
S104 Zr60 2.579965 1_555
S105 Zr57 2.577559 1_555
S105 Zr41 2.579342 1_565
S105 Zr61 2.580676 1_565
S106 Zr58 2.567678 1_555
S106 Zr62 2.578402 1_565
S106 Zr42 2.628914 1_555
S107 Zr55 2.574991 1_555
S107 Zr39 2.577449 1_555
S107 Zr59 2.579186 1_555
S108 Zr60 2.576449 1_545
S108 Zr44 2.578437 1_555
S108 Zr48 2.579911 1_555
S109 Zr61 2.576935 1_555
S109 Zr45 2.579753 1_555
S109 Zr49 2.581304 1_555
S110 Zr62 2.576241 1_555
S110 Zr46 2.586676 1_555
S110 Zr50 2.588149 1_555
S111 Zr59 2.576410 1_545
S111 Zr43 2.576851 1_555
S111 Zr47 2.578674 1_555
S112 Zr1 2.576384 1_545
S112 Zr48 2.578355 1_555
S112 Zr5 2.580064 1_555
S113 Zr2 2.576977 1_455
S113 Zr49 2.578797 1_555
S113 Zr6 2.580972 1_455
S114 Zr50 2.566125 1_555
S114 Zr3 2.592922 1_455
S114 Zr7 2.596797 1_455
S115 Zr0 2.576885 1_445
S115 Zr47 2.579663 1_555
S115 Zr4 2.580425 1_455
S116 Zr5 2.576289 1_555
S116 Zr52 2.578408 1_555
S116 Zr9 2.580104 1_555
S117 Zr6 2.577179 1_455
S117 Zr53 2.579057 1_555
S117 Zr10 2.581257 1_455
S118 Zr11 2.571059 1_455
S118 Zr54 2.577289 1_555
S118 Zr7 2.626189 1_455
S119 Zr4 2.575123 1_455
S119 Zr51 2.577608 1_555
S119 Zr8 2.578894 1_455
S120 Zr9 2.576267 1_555
S120 Zr56 2.578328 1_555
S120 Zr13 2.579869 1_555
S121 Zr10 2.577022 1_455
S121 Zr57 2.579082 1_555
S121 Zr14 2.580853 1_455
S122 Zr11 2.581829 1_455
S122 Zr58 2.584080 1_555
S122 Zr15 2.585596 1_455
S123 Zr8 2.575535 1_455
S123 Zr55 2.577942 1_555
S123 Zr12 2.579283 1_455
S124 Zr13 2.576463 1_555
S124 Zr60 2.578399 1_555
S124 Zr1 2.579955 1_555
S125 Zr14 2.577717 1_455
S125 Zr61 2.579047 1_565
S125 Zr2 2.580937 1_465
S126 Zr15 2.567696 1_455
S126 Zr62 2.576953 1_565
S126 Zr3 2.628621 1_465
S127 Zr12 2.574982 1_455
S127 Zr59 2.577691 1_555
S127 Zr0 2.578912 1_455
