# generated using pymatgen
data_Eu2Mg
_symmetry_space_group_name_H-M   'P 1'
_cell_length_a   13.33815114
_cell_length_b   13.33815114
_cell_length_c   18.83929100
_cell_angle_alpha   68.62630171
_cell_angle_beta   68.62630171
_cell_angle_gamma   33.83273058
_symmetry_Int_Tables_number   1
_chemical_formula_structural   Eu2Mg
_chemical_formula_sum   'Eu32 Mg16'
_cell_volume   1725.38945038
_cell_formula_units_Z   16
loop_
 _symmetry_equiv_pos_site_id
 _symmetry_equiv_pos_as_xyz
  1  'x, y, z'
loop_
 _atom_site_type_symbol
 _atom_site_label
 _atom_site_symmetry_multiplicity
 _atom_site_fract_x
 _atom_site_fract_y
 _atom_site_fract_z
 _atom_site_occupancy
  Eu  Eu0_0  1  0.41975677  0.41975678  0.04627333  1
  Eu  Eu0_1  1  0.41975678  0.41975678  0.54627333  1
  Eu  Eu0_2  1  0.41975678  0.91975678  0.04627333  1
  Eu  Eu0_3  1  0.41975677  0.91975677  0.54627333  1
  Eu  Eu0_4  1  0.91975678  0.41975678  0.04627333  1
  Eu  Eu0_5  1  0.91975677  0.41975677  0.54627333  1
  Eu  Eu0_6  1  0.91975678  0.91975678  0.04627333  1
  Eu  Eu0_7  1  0.91975677  0.91975677  0.54627333  1
  Eu  Eu1_0  1  0.25527604  0.25527604  0.14526437  1
  Eu  Eu1_1  1  0.25527604  0.25527604  0.64526437  1
  Eu  Eu1_2  1  0.25527604  0.75527604  0.14526437  1
  Eu  Eu1_3  1  0.25527604  0.75527604  0.64526437  1
  Eu  Eu1_4  1  0.75527604  0.25527604  0.14526437  1
  Eu  Eu1_5  1  0.75527604  0.25527604  0.64526437  1
  Eu  Eu1_6  1  0.75527604  0.75527604  0.14526437  1
  Eu  Eu1_7  1  0.75527604  0.75527604  0.64526437  1
  Eu  Eu2_0  1  0.24472396  0.24472396  0.35473563  1
  Eu  Eu2_1  1  0.24472396  0.24472396  0.85473563  1
  Eu  Eu2_2  1  0.24472396  0.74472396  0.35473563  1
  Eu  Eu2_3  1  0.24472396  0.74472396  0.85473563  1
  Eu  Eu2_4  1  0.74472396  0.24472396  0.35473563  1
  Eu  Eu2_5  1  0.74472396  0.24472396  0.85473563  1
  Eu  Eu2_6  1  0.74472396  0.74472396  0.35473563  1
  Eu  Eu2_7  1  0.74472396  0.74472396  0.85473563  1
  Eu  Eu3_0  1  0.08024322  0.08024322  0.45372667  1
  Eu  Eu3_1  1  0.08024323  0.08024323  0.95372667  1
  Eu  Eu3_2  1  0.08024322  0.58024322  0.45372667  1
  Eu  Eu3_3  1  0.08024322  0.58024322  0.95372667  1
  Eu  Eu3_4  1  0.58024322  0.08024322  0.45372667  1
  Eu  Eu3_5  1  0.58024322  0.08024322  0.95372667  1
  Eu  Eu3_6  1  0.58024323  0.58024323  0.45372667  1
  Eu  Eu3_7  1  0.58024323  0.58024323  0.95372667  1
  Mg  Mg0_0  1  0.09692634  0.09692634  0.20981364  1
  Mg  Mg0_1  1  0.09692634  0.09692634  0.70981364  1
  Mg  Mg0_2  1  0.09692634  0.59692634  0.20981364  1
  Mg  Mg0_3  1  0.09692634  0.59692634  0.70981364  1
  Mg  Mg0_4  1  0.59692634  0.09692634  0.20981364  1
  Mg  Mg0_5  1  0.59692634  0.09692634  0.70981364  1
  Mg  Mg0_6  1  0.59692634  0.59692634  0.20981364  1
  Mg  Mg0_7  1  0.59692634  0.59692634  0.70981364  1
  Mg  Mg1_0  1  0.40307367  0.40307367  0.29018636  1
  Mg  Mg1_1  1  0.40307367  0.40307367  0.79018636  1
  Mg  Mg1_2  1  0.40307366  0.90307366  0.29018636  1
  Mg  Mg1_3  1  0.40307367  0.90307367  0.79018636  1
  Mg  Mg1_4  1  0.90307366  0.40307366  0.29018636  1
  Mg  Mg1_5  1  0.90307367  0.40307367  0.79018636  1
  Mg  Mg1_6  1  0.90307366  0.90307366  0.29018636  1
  Mg  Mg1_7  1  0.90307367  0.90307367  0.79018636  1
loop_
_geom_bond_atom_site_label_1
_geom_bond_atom_site_label_2
_geom_bond_distance
_geom_bond_site_symmetry_2
Eu0_0 Mg0_4 3.514273 1_555
Eu0_0 Mg0_2 3.514273 1_555
Eu0_0 Eu3_7 3.791549 1_554
Eu0_0 Eu3_3 3.880646 1_554
Eu0_0 Eu3_5 3.880646 1_554
Eu0_0 Eu0_6 3.881075 1_455
Eu0_0 Eu0_6 3.881075 1_545
Eu0_0 Eu1_4 3.886976 1_555
Eu0_0 Eu1_2 3.886976 1_555
Eu0_0 Eu1_0 3.890466 1_555
Eu0_0 Eu2_3 3.897088 1_554
Eu0_0 Eu2_5 3.897088 1_554
Eu0_1 Mg0_3 3.514273 1_555
Eu0_1 Mg0_5 3.514273 1_555
Eu0_1 Eu3_6 3.791549 1_555
Eu0_1 Eu3_4 3.880646 1_555
Eu0_1 Eu3_2 3.880646 1_555
Eu0_1 Eu0_7 3.881075 1_545
Eu0_1 Eu0_7 3.881075 1_455
Eu0_1 Eu1_5 3.886976 1_555
Eu0_1 Eu1_3 3.886976 1_555
Eu0_1 Eu1_1 3.890466 1_555
Eu0_1 Eu2_2 3.897088 1_555
Eu0_1 Eu2_4 3.897088 1_555
Eu0_2 Mg0_0 3.514273 1_565
Eu0_2 Mg0_6 3.514273 1_555
Eu0_2 Eu3_5 3.791549 1_564
Eu0_2 Eu3_7 3.880646 1_554
Eu0_2 Eu3_1 3.880646 1_564
Eu0_2 Eu0_4 3.881075 1_465
Eu0_2 Eu0_4 3.881075 1_555
Eu0_2 Eu1_6 3.886976 1_555
Eu0_2 Eu1_0 3.886976 1_565
Eu0_2 Eu1_2 3.890466 1_555
Eu0_2 Eu2_7 3.897088 1_554
Eu0_2 Eu2_1 3.897088 1_564
Eu0_3 Mg0_7 3.514273 1_555
Eu0_3 Mg0_1 3.514273 1_565
Eu0_3 Eu3_4 3.791549 1_565
Eu0_3 Eu3_6 3.880646 1_555
Eu0_3 Eu3_0 3.880646 1_565
Eu0_3 Eu0_5 3.881075 1_555
Eu0_3 Eu0_5 3.881075 1_465
Eu0_3 Eu1_1 3.886976 1_565
Eu0_3 Eu1_7 3.886976 1_555
Eu0_3 Eu1_3 3.890466 1_555
Eu0_3 Eu2_0 3.897088 1_565
Eu0_3 Eu2_6 3.897088 1_555
Eu0_4 Mg0_0 3.514273 1_655
Eu0_4 Mg0_6 3.514273 1_555
Eu0_4 Eu3_3 3.791549 1_654
Eu0_4 Eu3_1 3.880646 1_654
Eu0_4 Eu3_7 3.880646 1_554
Eu0_4 Eu1_6 3.886976 1_555
Eu0_4 Eu1_0 3.886976 1_655
Eu0_4 Eu1_4 3.890466 1_555
Eu0_4 Eu2_7 3.897088 1_554
Eu0_4 Eu2_1 3.897088 1_654
Eu0_5 Mg0_1 3.514273 1_655
Eu0_5 Mg0_7 3.514273 1_555
Eu0_5 Eu3_2 3.791549 1_655
Eu0_5 Eu3_6 3.880646 1_555
Eu0_5 Eu3_0 3.880646 1_655
Eu0_5 Eu1_1 3.886976 1_655
Eu0_5 Eu1_7 3.886976 1_555
Eu0_5 Eu1_5 3.890466 1_555
Eu0_5 Eu2_0 3.897088 1_655
Eu0_5 Eu2_6 3.897088 1_555
Eu0_6 Mg0_2 3.514273 1_655
Eu0_6 Mg0_4 3.514273 1_565
Eu0_6 Eu3_1 3.791549 1_664
Eu0_6 Eu3_5 3.880646 1_564
Eu0_6 Eu3_3 3.880646 1_654
Eu0_6 Eu1_2 3.886976 1_655
Eu0_6 Eu1_4 3.886976 1_565
Eu0_6 Eu1_6 3.890466 1_555
Eu0_6 Eu2_5 3.897088 1_564
Eu0_6 Eu2_3 3.897088 1_654
Eu0_7 Mg0_3 3.514273 1_655
Eu0_7 Mg0_5 3.514273 1_565
Eu0_7 Eu3_0 3.791549 1_665
Eu0_7 Eu3_2 3.880646 1_655
Eu0_7 Eu3_4 3.880646 1_565
Eu0_7 Eu1_5 3.886976 1_565
Eu0_7 Eu1_3 3.886976 1_655
Eu0_7 Eu1_7 3.890466 1_555
Eu0_7 Eu2_2 3.897088 1_655
Eu0_7 Eu2_4 3.897088 1_565
Eu1_0 Mg1_2 3.549364 1_545
Eu1_0 Mg1_4 3.549364 1_455
Eu1_0 Mg0_4 3.589291 1_555
Eu1_0 Mg0_2 3.589291 1_555
Eu1_0 Mg0_0 3.750668 1_555
Eu1_0 Eu2_0 3.851758 1_555
Eu1_0 Eu1_6 3.881075 1_545
Eu1_0 Eu1_6 3.881075 1_455
Eu1_0 Eu3_3 3.897088 1_554
Eu1_0 Eu3_5 3.897088 1_554
Eu1_1 Mg1_3 3.549364 1_545
Eu1_1 Mg1_5 3.549364 1_455
Eu1_1 Mg0_5 3.589291 1_555
Eu1_1 Mg0_3 3.589291 1_555
Eu1_1 Mg0_1 3.750668 1_555
Eu1_1 Eu2_1 3.851758 1_555
Eu1_1 Eu1_7 3.881075 1_545
Eu1_1 Eu1_7 3.881075 1_455
Eu1_1 Eu3_2 3.897088 1_555
Eu1_1 Eu3_4 3.897088 1_555
Eu1_2 Mg1_6 3.549364 1_455
Eu1_2 Mg1_0 3.549364 1_555
Eu1_2 Mg0_0 3.589291 1_565
Eu1_2 Mg0_6 3.589291 1_555
Eu1_2 Mg0_2 3.750668 1_555
Eu1_2 Eu2_2 3.851758 1_555
Eu1_2 Eu1_4 3.881075 1_465
Eu1_2 Eu1_4 3.881075 1_555
Eu1_2 Eu3_7 3.897088 1_554
Eu1_2 Eu3_1 3.897088 1_564
Eu1_3 Mg1_7 3.549364 1_455
Eu1_3 Mg1_1 3.549364 1_555
Eu1_3 Mg0_7 3.589291 1_555
Eu1_3 Mg0_1 3.589291 1_565
Eu1_3 Mg0_3 3.750668 1_555
Eu1_3 Eu2_3 3.851758 1_555
Eu1_3 Eu1_5 3.881075 1_465
Eu1_3 Eu1_5 3.881075 1_555
Eu1_3 Eu3_0 3.897088 1_565
Eu1_3 Eu3_6 3.897088 1_555
Eu1_4 Mg1_0 3.549364 1_555
Eu1_4 Mg1_6 3.549364 1_545
Eu1_4 Mg0_0 3.589291 1_655
Eu1_4 Mg0_6 3.589291 1_555
Eu1_4 Mg0_4 3.750668 1_555
Eu1_4 Eu2_4 3.851758 1_555
Eu1_4 Eu3_1 3.897088 1_654
Eu1_4 Eu3_7 3.897088 1_554
Eu1_5 Mg1_7 3.549364 1_545
Eu1_5 Mg1_1 3.549364 1_555
Eu1_5 Mg0_1 3.589291 1_655
Eu1_5 Mg0_7 3.589291 1_555
Eu1_5 Mg0_5 3.750668 1_555
Eu1_5 Eu2_5 3.851758 1_555
Eu1_5 Eu3_6 3.897088 1_555
Eu1_5 Eu3_0 3.897088 1_655
Eu1_6 Mg1_4 3.549364 1_555
Eu1_6 Mg1_2 3.549364 1_555
Eu1_6 Mg0_2 3.589291 1_655
Eu1_6 Mg0_4 3.589291 1_565
Eu1_6 Mg0_6 3.750668 1_555
Eu1_6 Eu2_6 3.851758 1_555
Eu1_6 Eu3_5 3.897088 1_564
Eu1_6 Eu3_3 3.897088 1_654
Eu1_7 Mg1_5 3.549364 1_555
Eu1_7 Mg1_3 3.549364 1_555
Eu1_7 Mg0_3 3.589291 1_655
Eu1_7 Mg0_5 3.589291 1_565
Eu1_7 Mg0_7 3.750668 1_555
Eu1_7 Eu2_7 3.851758 1_555
Eu1_7 Eu3_2 3.897088 1_655
Eu1_7 Eu3_4 3.897088 1_565
Eu2_0 Mg0_2 3.549364 1_555
Eu2_0 Mg0_4 3.549364 1_555
Eu2_0 Mg1_4 3.589291 1_455
Eu2_0 Mg1_2 3.589291 1_545
Eu2_0 Mg1_0 3.750668 1_555
Eu2_0 Eu2_6 3.881075 1_545
Eu2_0 Eu2_6 3.881075 1_455
Eu2_0 Eu3_2 3.886976 1_555
Eu2_0 Eu3_4 3.886976 1_555
Eu2_0 Eu3_0 3.890466 1_555
Eu2_1 Mg0_5 3.549364 1_555
Eu2_1 Mg0_3 3.549364 1_555
Eu2_1 Mg1_5 3.589291 1_455
Eu2_1 Mg1_3 3.589291 1_545
Eu2_1 Mg1_1 3.750668 1_555
Eu2_1 Eu2_7 3.881075 1_455
Eu2_1 Eu2_7 3.881075 1_545
Eu2_1 Eu3_3 3.886976 1_555
Eu2_1 Eu3_5 3.886976 1_555
Eu2_1 Eu3_1 3.890466 1_555
Eu2_2 Mg0_0 3.549364 1_565
Eu2_2 Mg0_6 3.549364 1_555
Eu2_2 Mg1_0 3.589291 1_555
Eu2_2 Mg1_6 3.589291 1_455
Eu2_2 Mg1_2 3.750668 1_555
Eu2_2 Eu2_4 3.881075 1_465
Eu2_2 Eu2_4 3.881075 1_555
Eu2_2 Eu3_0 3.886976 1_565
Eu2_2 Eu3_6 3.886976 1_555
Eu2_2 Eu3_2 3.890466 1_555
Eu2_3 Mg0_7 3.549364 1_555
Eu2_3 Mg0_1 3.549364 1_565
Eu2_3 Mg1_7 3.589291 1_455
Eu2_3 Mg1_1 3.589291 1_555
Eu2_3 Mg1_3 3.750668 1_555
Eu2_3 Eu2_5 3.881075 1_555
Eu2_3 Eu2_5 3.881075 1_465
Eu2_3 Eu3_7 3.886976 1_555
Eu2_3 Eu3_1 3.886976 1_565
Eu2_3 Eu3_3 3.890466 1_555
Eu2_4 Mg0_0 3.549364 1_655
Eu2_4 Mg0_6 3.549364 1_555
Eu2_4 Mg1_0 3.589291 1_555
Eu2_4 Mg1_6 3.589291 1_545
Eu2_4 Mg1_4 3.750668 1_555
Eu2_4 Eu3_0 3.886976 1_655
Eu2_4 Eu3_6 3.886976 1_555
Eu2_4 Eu3_4 3.890466 1_555
Eu2_5 Mg0_7 3.549364 1_555
Eu2_5 Mg0_1 3.549364 1_655
Eu2_5 Mg1_7 3.589291 1_545
Eu2_5 Mg1_1 3.589291 1_555
Eu2_5 Mg1_5 3.750668 1_555
Eu2_5 Eu3_7 3.886976 1_555
Eu2_5 Eu3_1 3.886976 1_655
Eu2_5 Eu3_5 3.890466 1_555
Eu2_6 Mg0_2 3.549364 1_655
Eu2_6 Mg0_4 3.549364 1_565
Eu2_6 Mg1_2 3.589291 1_555
Eu2_6 Mg1_4 3.589291 1_555
Eu2_6 Mg1_6 3.750668 1_555
Eu2_6 Eu3_2 3.886976 1_655
Eu2_6 Eu3_4 3.886976 1_565
Eu2_6 Eu3_6 3.890466 1_555
Eu2_7 Mg0_5 3.549364 1_565
Eu2_7 Mg0_3 3.549364 1_655
Eu2_7 Mg1_3 3.589291 1_555
Eu2_7 Mg1_5 3.589291 1_555
Eu2_7 Mg1_7 3.750668 1_555
Eu2_7 Eu3_5 3.886976 1_565
Eu2_7 Eu3_3 3.886976 1_655
Eu2_7 Eu3_7 3.890466 1_555
Eu3_0 Mg1_2 3.514273 1_545
Eu3_0 Mg1_4 3.514273 1_455
Eu3_0 Eu3_6 3.881075 1_455
Eu3_0 Eu3_6 3.881075 1_545
Eu3_1 Mg1_5 3.514273 1_455
Eu3_1 Mg1_3 3.514273 1_545
Eu3_1 Eu3_7 3.881075 1_455
Eu3_1 Eu3_7 3.881075 1_545
Eu3_2 Mg1_0 3.514273 1_555
Eu3_2 Mg1_6 3.514273 1_455
Eu3_2 Eu3_4 3.881075 1_555
Eu3_2 Eu3_4 3.881075 1_465
Eu3_3 Mg1_7 3.514273 1_455
Eu3_3 Mg1_1 3.514273 1_555
Eu3_3 Eu3_5 3.881075 1_555
Eu3_3 Eu3_5 3.881075 1_465
Eu3_4 Mg1_0 3.514273 1_555
Eu3_4 Mg1_6 3.514273 1_545
Eu3_5 Mg1_7 3.514273 1_545
Eu3_5 Mg1_1 3.514273 1_555
Eu3_6 Mg1_4 3.514273 1_555
Eu3_6 Mg1_2 3.514273 1_555
Eu3_7 Mg1_3 3.514273 1_555
Eu3_7 Mg1_5 3.514273 1_555
Mg0_0 Mg1_2 3.124890 1_545
Mg0_0 Mg1_4 3.124890 1_455
Mg0_1 Mg1_5 3.124890 1_455
Mg0_1 Mg1_3 3.124890 1_545
Mg0_2 Mg1_6 3.124890 1_455
Mg0_2 Mg1_0 3.124890 1_555
Mg0_3 Mg1_1 3.124890 1_555
Mg0_3 Mg1_7 3.124890 1_455
Mg0_4 Mg1_6 3.124890 1_545
Mg0_4 Mg1_0 3.124890 1_555
Mg0_5 Mg1_1 3.124890 1_555
Mg0_5 Mg1_7 3.124890 1_545
Mg0_6 Mg1_4 3.124890 1_555
Mg0_6 Mg1_2 3.124890 1_555
Mg0_7 Mg1_5 3.124890 1_555
Mg0_7 Mg1_3 3.124890 1_555
