# generated using pymatgen
data_Li9Mn2Co5O16
_symmetry_space_group_name_H-M   'P 1'
_cell_length_a   19.38718302
_cell_length_b   19.38718302
_cell_length_c   5.07385916
_cell_angle_alpha   86.01603862
_cell_angle_beta   86.01603862
_cell_angle_gamma   8.72092142
_symmetry_Int_Tables_number   1
_chemical_formula_structural   Li9Mn2Co5O16
_chemical_formula_sum   'Li9 Mn2 Co5 O16'
_cell_volume   288.45130037
_cell_formula_units_Z   1
loop_
 _symmetry_equiv_pos_site_id
 _symmetry_equiv_pos_as_xyz
  1  'x, y, z'
loop_
 _atom_site_type_symbol
 _atom_site_label
 _atom_site_symmetry_multiplicity
 _atom_site_fract_x
 _atom_site_fract_y
 _atom_site_fract_z
 _atom_site_occupancy
  Li  Li0  1  0.05940400  0.05940400  0.31214400  1
  Li  Li1  1  0.44156400  0.44156400  0.17264000  1
  Li  Li2  1  0.81292100  0.81292100  0.05884700  1
  Li  Li3  1  0.18707900  0.18707900  0.94115300  1
  Li  Li4  1  0.55843600  0.55843600  0.82736000  1
  Li  Li5  1  0.94059600  0.94059600  0.68785600  1
  Li  Li6  1  0.31346900  0.31346900  0.56874700  1
  Li  Li7  1  0.68653100  0.68653100  0.43125300  1
  Li  Li8  1  0.00000000  0.00000000  0.00000000  1
  Mn  Mn0  1  0.12530500  0.12530500  0.62712400  1
  Mn  Mn1  1  0.87469500  0.87469500  0.37287600  1
  Co  Co0  1  0.50000000  0.50000000  0.50000000  1
  Co  Co1  1  0.25076400  0.25076400  0.25075900  1
  Co  Co2  1  0.62494800  0.62494800  0.12660800  1
  Co  Co3  1  0.37505200  0.37505200  0.87339200  1
  Co  Co4  1  0.74923600  0.74923600  0.74924100  1
  O  O0  1  0.59780200  0.59780200  0.49776500  1
  O  O1  1  0.97344400  0.97344400  0.35806400  1
  O  O2  1  0.34826400  0.34826400  0.24161300  1
  O  O3  1  0.72151400  0.72151400  0.07980200  1
  O  O4  1  0.09641700  0.09641700  0.95521300  1
  O  O5  1  0.47281800  0.47281800  0.80013300  1
  O  O6  1  0.84778400  0.84778400  0.70389000  1
  O  O7  1  0.22190600  0.22190600  0.58236300  1
  O  O8  1  0.52718200  0.52718200  0.19986700  1
  O  O9  1  0.90358300  0.90358300  0.04478700  1
  O  O10  1  0.27848600  0.27848600  0.92019800  1
  O  O11  1  0.65173600  0.65173600  0.75838700  1
  O  O12  1  0.02655600  0.02655600  0.64193600  1
  O  O13  1  0.40219800  0.40219800  0.50223500  1
  O  O14  1  0.77809400  0.77809400  0.41763700  1
  O  O15  1  0.15221600  0.15221600  0.29611000  1
loop_
_geom_bond_atom_site_label_1
_geom_bond_atom_site_label_2
_geom_bond_distance
_geom_bond_site_symmetry_2
Li0 O12 2.028961 1_555
Li0 O8 2.036696 1_545
Li0 O8 2.036696 1_455
Li0 O4 2.228541 1_554
Li0 O0 2.336343 1_545
Li0 O0 2.336343 1_455
Li1 O5 2.171201 1_554
Li1 O1 2.176847 1_455
Li1 O1 2.176847 1_545
Li1 O13 2.181366 1_555
Li1 O9 2.209661 1_545
Li1 O9 2.209661 1_455
Li2 O10 2.137897 1_654
Li2 O10 2.137897 1_564
Li2 O6 2.173036 1_554
Li2 O14 2.187571 1_555
Li2 O2 2.253092 1_655
Li2 O2 2.253092 1_565
Li3 O3 2.137897 1_456
Li3 O3 2.137897 1_546
Li3 O15 2.173036 1_556
Li3 O7 2.187571 1_555
Li3 O11 2.253092 1_455
Li3 O11 2.253092 1_545
Li4 O8 2.171201 1_556
Li4 O12 2.176847 1_565
Li4 O12 2.176847 1_655
Li4 O0 2.181366 1_555
Li4 O4 2.209661 1_655
Li4 O4 2.209661 1_565
Li5 O1 2.028961 1_555
Li5 O5 2.036696 1_565
Li5 O5 2.036696 1_655
Li5 O9 2.228541 1_556
Li5 O13 2.336343 1_565
Li5 O13 2.336343 1_655
Li6 O2 2.062418 1_555
Li6 O6 2.128337 1_545
Li6 O6 2.128337 1_455
Li6 O10 2.161723 1_555
Li6 O14 2.185694 1_455
Li6 O14 2.185694 1_545
Li7 O11 2.062418 1_555
Li7 O15 2.128337 1_655
Li7 O15 2.128337 1_565
Li7 O3 2.161723 1_555
Li7 O7 2.185694 1_565
Li7 O7 2.185694 1_655
Li8 O12 2.023569 1_554
Li8 O1 2.023569 1_445
Li8 O8 2.110470 1_455
Li8 O8 2.110470 1_545
Li8 O5 2.110470 1_544
Li8 O5 2.110470 1_454
Mn0 O15 1.913053 1_555
Mn0 O11 1.937886 1_545
Mn0 O11 1.937886 1_455
Mn0 O4 1.938931 1_555
Mn0 O0 1.957413 1_545
Mn0 O0 1.957413 1_455
Mn1 O6 1.913053 1_555
Mn1 O2 1.937886 1_655
Mn1 O2 1.937886 1_565
Mn1 O9 1.938931 1_555
Mn1 O13 1.957413 1_565
Mn1 O13 1.957413 1_655
Co0 O8 1.788971 1_555
Co0 O5 1.788971 1_555
Co0 O1 1.961776 1_455
Co0 O12 1.961776 1_655
Co0 O1 1.961776 1_545
Co0 O12 1.961776 1_565
Co1 O10 1.926471 1_554
Co1 O7 1.952961 1_555
Co1 O14 2.032447 1_455
Co1 O14 2.032447 1_545
Co1 O3 2.083439 1_455
Co1 O3 2.083439 1_545
Co2 O15 2.037198 1_655
Co2 O15 2.037198 1_565
Co2 O4 2.068685 1_654
Co2 O4 2.068685 1_564
Co2 O11 2.072084 1_554
Co2 O0 2.091052 1_555
Co3 O6 2.037198 1_455
Co3 O6 2.037198 1_545
Co3 O9 2.068685 1_546
Co3 O9 2.068685 1_456
Co3 O2 2.072084 1_556
Co3 O13 2.091052 1_555
Co4 O3 1.926471 1_556
Co4 O14 1.952961 1_555
Co4 O7 2.032447 1_655
Co4 O7 2.032447 1_565
Co4 O10 2.083439 1_655
Co4 O10 2.083439 1_565
