# generated using pymatgen
data_Ca3(Cd2Pt)4
_symmetry_space_group_name_H-M   'P 1'
_cell_length_a   9.71374930
_cell_length_b   9.71374930
_cell_length_c   9.71374930
_cell_angle_alpha   60.00000000
_cell_angle_beta   60.00000000
_cell_angle_gamma   60.00000000
_symmetry_Int_Tables_number   1
_chemical_formula_structural   Ca3(Cd2Pt)4
_chemical_formula_sum   'Ca6 Cd16 Pt8'
_cell_volume   648.10545079
_cell_formula_units_Z   2
loop_
 _symmetry_equiv_pos_site_id
 _symmetry_equiv_pos_as_xyz
  1  'x, y, z'
loop_
 _atom_site_type_symbol
 _atom_site_label
 _atom_site_symmetry_multiplicity
 _atom_site_fract_x
 _atom_site_fract_y
 _atom_site_fract_z
 _atom_site_occupancy
  Ca  Ca0  1  0.78891200  0.78891200  0.21108800  1
  Ca  Ca1  1  0.21108800  0.78891200  0.21108800  1
  Ca  Ca2  1  0.78891200  0.21108800  0.21108800  1
  Ca  Ca3  1  0.21108800  0.21108800  0.78891200  1
  Ca  Ca4  1  0.78891200  0.21108800  0.78891200  1
  Ca  Ca5  1  0.21108800  0.78891200  0.78891200  1
  Cd  Cd0  1  0.61970700  0.61970700  0.14087900  1
  Cd  Cd1  1  0.61970700  0.14087900  0.61970700  1
  Cd  Cd2  1  0.14087900  0.61970700  0.61970700  1
  Cd  Cd3  1  0.61970700  0.61970700  0.61970700  1
  Cd  Cd4  1  0.38029300  0.38029300  0.85912100  1
  Cd  Cd5  1  0.38029300  0.85912100  0.38029300  1
  Cd  Cd6  1  0.85912100  0.38029300  0.38029300  1
  Cd  Cd7  1  0.38029300  0.38029300  0.38029300  1
  Cd  Cd8  1  0.83522100  0.83522100  0.49433800  1
  Cd  Cd9  1  0.83522100  0.49433800  0.83522100  1
  Cd  Cd10  1  0.49433800  0.83522100  0.83522100  1
  Cd  Cd11  1  0.83522100  0.83522100  0.83522100  1
  Cd  Cd12  1  0.16477900  0.16477900  0.50566200  1
  Cd  Cd13  1  0.16477900  0.50566200  0.16477900  1
  Cd  Cd14  1  0.50566200  0.16477900  0.16477900  1
  Cd  Cd15  1  0.16477900  0.16477900  0.16477900  1
  Pt  Pt0  1  0.00000000  0.00000000  0.50000000  1
  Pt  Pt1  1  0.50000000  0.00000000  0.50000000  1
  Pt  Pt2  1  0.00000000  0.50000000  0.50000000  1
  Pt  Pt3  1  0.50000000  0.50000000  0.00000000  1
  Pt  Pt4  1  0.00000000  0.50000000  0.00000000  1
  Pt  Pt5  1  0.50000000  0.00000000  0.00000000  1
  Pt  Pt6  1  0.50000000  0.50000000  0.50000000  1
  Pt  Pt7  1  0.00000000  0.00000000  0.00000000  1
loop_
_geom_bond_atom_site_label_1
_geom_bond_atom_site_label_2
_geom_bond_distance
_geom_bond_site_symmetry_2
Ca0 Pt7 2.899783 1_665
Ca0 Cd11 3.263842 1_554
Ca0 Cd13 3.263845 1_655
Ca0 Cd14 3.263845 1_565
Ca0 Cd8 3.263851 1_555
Ca0 Cd0 3.288068 1_555
Ca0 Cd6 3.288068 1_555
Ca0 Cd5 3.288068 1_555
Ca0 Cd3 3.288068 1_555
Ca0 Pt5 3.475681 1_565
Ca0 Pt4 3.475681 1_655
Ca0 Pt1 3.475681 1_565
Ca0 Pt2 3.475681 1_655
Ca1 Pt7 2.899783 1_565
Ca1 Cd15 3.263842 1_565
Ca1 Cd10 3.263845 1_554
Ca1 Cd8 3.263845 1_455
Ca1 Cd13 3.263851 1_555
Ca1 Cd0 3.288068 1_555
Ca1 Cd7 3.288068 1_555
Ca1 Cd2 3.288068 1_555
Ca1 Cd5 3.288068 1_555
Ca1 Pt3 3.475681 1_555
Ca1 Pt2 3.475681 1_555
Ca1 Pt5 3.475681 1_565
Ca1 Pt0 3.475681 1_565
Ca2 Pt7 2.899783 1_655
Ca2 Cd15 3.263842 1_655
Ca2 Cd8 3.263845 1_545
Ca2 Cd9 3.263845 1_554
Ca2 Cd14 3.263851 1_555
Ca2 Cd7 3.288068 1_555
Ca2 Cd0 3.288068 1_555
Ca2 Cd6 3.288068 1_555
Ca2 Cd1 3.288068 1_555
Ca2 Pt3 3.475681 1_555
Ca2 Pt1 3.475681 1_555
Ca2 Pt0 3.475681 1_655
Ca2 Pt4 3.475681 1_655
Ca3 Pt7 2.899783 1_556
Ca3 Cd15 3.263842 1_556
Ca3 Cd9 3.263845 1_455
Ca3 Cd10 3.263845 1_545
Ca3 Cd12 3.263851 1_555
Ca3 Cd7 3.288068 1_555
Ca3 Cd1 3.288068 1_555
Ca3 Cd2 3.288068 1_555
Ca3 Cd4 3.288068 1_555
Ca3 Pt1 3.475681 1_555
Ca3 Pt2 3.475681 1_555
Ca3 Pt4 3.475681 1_556
Ca3 Pt5 3.475681 1_556
Ca4 Pt7 2.899783 1_656
Ca4 Cd11 3.263842 1_545
Ca4 Cd12 3.263845 1_655
Ca4 Cd14 3.263845 1_556
Ca4 Cd9 3.263851 1_555
Ca4 Cd1 3.288068 1_555
Ca4 Cd6 3.288068 1_555
Ca4 Cd4 3.288068 1_555
Ca4 Cd3 3.288068 1_555
Ca4 Pt5 3.475681 1_556
Ca4 Pt0 3.475681 1_655
Ca4 Pt2 3.475681 1_655
Ca4 Pt3 3.475681 1_556
Ca5 Pt7 2.899783 1_566
Ca5 Cd11 3.263842 1_455
Ca5 Cd13 3.263845 1_556
Ca5 Cd12 3.263845 1_565
Ca5 Cd10 3.263851 1_555
Ca5 Cd2 3.288068 1_555
Ca5 Cd5 3.288068 1_555
Ca5 Cd4 3.288068 1_555
Ca5 Cd3 3.288068 1_555
Ca5 Pt4 3.475681 1_556
Ca5 Pt0 3.475681 1_565
Ca5 Pt3 3.475681 1_556
Ca5 Pt1 3.475681 1_565
Cd0 Pt6 2.848276 1_555
Cd0 Pt3 3.018532 1_555
Cd0 Pt5 3.018532 1_565
Cd0 Pt4 3.018532 1_655
Cd1 Pt6 2.848276 1_555
Cd1 Pt5 3.018532 1_556
Cd1 Pt1 3.018532 1_555
Cd1 Pt0 3.018532 1_655
Cd2 Pt6 2.848276 1_555
Cd2 Pt2 3.018532 1_555
Cd2 Pt4 3.018532 1_556
Cd2 Pt0 3.018532 1_565
Cd3 Pt6 2.848276 1_555
Cd3 Pt1 3.018532 1_565
Cd3 Pt3 3.018532 1_556
Cd3 Pt2 3.018532 1_655
Cd4 Pt6 2.848276 1_555
Cd4 Pt5 3.018532 1_556
Cd4 Pt3 3.018532 1_556
Cd4 Pt4 3.018532 1_556
Cd5 Pt6 2.848276 1_555
Cd5 Pt1 3.018532 1_565
Cd5 Pt5 3.018532 1_565
Cd5 Pt0 3.018532 1_565
Cd6 Pt6 2.848276 1_555
Cd6 Pt2 3.018532 1_655
Cd6 Pt0 3.018532 1_655
Cd6 Pt4 3.018532 1_655
Cd7 Pt6 2.848276 1_555
Cd7 Pt2 3.018532 1_555
Cd7 Pt3 3.018532 1_555
Cd7 Pt1 3.018532 1_555
Cd8 Pt0 2.804472 1_665
Cd8 Pt1 2.804480 1_565
Cd8 Pt2 2.804480 1_655
Cd9 Pt4 2.804472 1_656
Cd9 Pt2 2.804480 1_655
Cd9 Pt3 2.804480 1_556
Cd10 Pt5 2.804472 1_566
Cd10 Pt3 2.804480 1_556
Cd10 Pt1 2.804480 1_565
Cd11 Pt4 2.804478 1_656
Cd11 Pt0 2.804478 1_665
Cd11 Pt5 2.804478 1_566
Cd12 Pt0 2.804472 1_555
Cd12 Pt2 2.804480 1_555
Cd12 Pt1 2.804480 1_555
Cd13 Pt4 2.804472 1_555
Cd13 Pt2 2.804480 1_555
Cd13 Pt3 2.804480 1_555
Cd14 Pt5 2.804472 1_555
Cd14 Pt3 2.804480 1_555
Cd14 Pt1 2.804480 1_555
Cd15 Pt0 2.804478 1_555
Cd15 Pt4 2.804478 1_555
Cd15 Pt5 2.804478 1_555
