# generated using pymatgen
data_YMg14AlO16
_symmetry_space_group_name_H-M   'P 1'
_cell_length_a   8.71603100
_cell_length_b   8.71603100
_cell_length_c   4.37985400
_cell_angle_alpha   90.00000000
_cell_angle_beta   90.00000000
_cell_angle_gamma   90.00000000
_symmetry_Int_Tables_number   1
_chemical_formula_structural   YMg14AlO16
_chemical_formula_sum   'Y1 Mg14 Al1 O16'
_cell_volume   332.73398870
_cell_formula_units_Z   1
loop_
 _symmetry_equiv_pos_site_id
 _symmetry_equiv_pos_as_xyz
  1  'x, y, z'
loop_
 _atom_site_type_symbol
 _atom_site_label
 _atom_site_symmetry_multiplicity
 _atom_site_fract_x
 _atom_site_fract_y
 _atom_site_fract_z
 _atom_site_occupancy
  Y  Y0  1  0.50000000  0.50000000  0.00000000  1
  Mg  Mg0  1  0.50000000  0.00000000  0.00000000  1
  Mg  Mg1  1  0.00000000  0.50000000  0.00000000  1
  Mg  Mg2  1  0.24951200  0.00000000  0.50000000  1
  Mg  Mg3  1  0.75048800  0.00000000  0.50000000  1
  Mg  Mg4  1  0.23848600  0.50000000  0.50000000  1
  Mg  Mg5  1  0.76151400  0.50000000  0.50000000  1
  Mg  Mg6  1  0.00000000  0.24951200  0.50000000  1
  Mg  Mg7  1  0.50000000  0.23848600  0.50000000  1
  Mg  Mg8  1  0.00000000  0.75048800  0.50000000  1
  Mg  Mg9  1  0.50000000  0.76151400  0.50000000  1
  Mg  Mg10  1  0.24389800  0.24389800  0.00000000  1
  Mg  Mg11  1  0.75610200  0.24389800  0.00000000  1
  Mg  Mg12  1  0.24389800  0.75610200  0.00000000  1
  Mg  Mg13  1  0.75610200  0.75610200  0.00000000  1
  Al  Al0  1  0.00000000  0.00000000  0.00000000  1
  O  O0  1  0.00000000  0.24962700  0.00000000  1
  O  O1  1  0.50000000  0.23960200  0.00000000  1
  O  O2  1  0.00000000  0.75037300  0.00000000  1
  O  O3  1  0.50000000  0.76039800  0.00000000  1
  O  O4  1  0.25158400  0.25158400  0.50000000  1
  O  O5  1  0.74841600  0.25158400  0.50000000  1
  O  O6  1  0.25158400  0.74841600  0.50000000  1
  O  O7  1  0.74841600  0.74841600  0.50000000  1
  O  O8  1  0.00000000  0.00000000  0.50000000  1
  O  O9  1  0.50000000  0.00000000  0.50000000  1
  O  O10  1  0.00000000  0.50000000  0.50000000  1
  O  O11  1  0.50000000  0.50000000  0.50000000  1
  O  O12  1  0.24962700  0.00000000  0.00000000  1
  O  O13  1  0.75037300  0.00000000  0.00000000  1
  O  O14  1  0.23960200  0.50000000  0.00000000  1
  O  O15  1  0.76039800  0.50000000  0.00000000  1
loop_
_geom_bond_atom_site_label_1
_geom_bond_atom_site_label_2
_geom_bond_distance
_geom_bond_site_symmetry_2
Mg0 O1 2.088378 1_555
Mg0 O3 2.088378 1_545
Mg0 O13 2.182259 1_555
Mg0 O12 2.182259 1_555
Mg0 O9 2.189927 1_554
Mg0 O9 2.189927 1_555
Mg1 O14 2.088378 1_555
Mg1 O15 2.088378 1_455
Mg1 O2 2.182259 1_555
Mg1 O0 2.182259 1_555
Mg1 O10 2.189927 1_555
Mg1 O10 2.189927 1_554
Mg2 O8 2.174754 1_555
Mg2 O9 2.183261 1_555
Mg2 O12 2.189927 1_555
Mg2 O12 2.189927 1_556
Mg2 O4 2.192888 1_555
Mg2 O6 2.192888 1_545
Mg3 O8 2.174754 1_655
Mg3 O9 2.183261 1_555
Mg3 O13 2.189927 1_555
Mg3 O13 2.189927 1_556
Mg3 O5 2.192888 1_555
Mg3 O7 2.192888 1_545
Mg4 O10 2.078651 1_555
Mg4 O6 2.168209 1_555
Mg4 O4 2.168209 1_555
Mg4 O14 2.189949 1_555
Mg4 O14 2.189949 1_556
Mg4 O11 2.279364 1_555
Mg5 O10 2.078651 1_655
Mg5 O7 2.168209 1_555
Mg5 O5 2.168209 1_555
Mg5 O15 2.189949 1_556
Mg5 O15 2.189949 1_555
Mg5 O11 2.279364 1_555
Mg6 O8 2.174754 1_555
Mg6 O10 2.183261 1_555
Mg6 O0 2.189927 1_555
Mg6 O0 2.189927 1_556
Mg6 O4 2.192888 1_555
Mg6 O5 2.192888 1_455
Mg7 O9 2.078651 1_555
Mg7 O5 2.168209 1_555
Mg7 O4 2.168209 1_555
Mg7 O1 2.189949 1_556
Mg7 O1 2.189949 1_555
Mg7 O11 2.279364 1_555
Mg8 O8 2.174754 1_565
Mg8 O10 2.183261 1_555
Mg8 O2 2.189927 1_556
Mg8 O2 2.189927 1_555
Mg8 O6 2.192888 1_555
Mg8 O7 2.192888 1_455
Mg9 O9 2.078651 1_565
Mg9 O7 2.168209 1_555
Mg9 O6 2.168209 1_555
Mg9 O3 2.189949 1_556
Mg9 O3 2.189949 1_555
Mg9 O11 2.279364 1_555
Mg10 O0 2.126409 1_555
Mg10 O12 2.126409 1_555
Mg10 O4 2.191975 1_554
Mg10 O4 2.191975 1_555
Mg10 O1 2.232507 1_555
Mg10 O14 2.232507 1_555
Mg11 O13 2.126409 1_555
Mg11 O0 2.126409 1_655
Mg11 O5 2.191975 1_554
Mg11 O5 2.191975 1_555
Mg11 O1 2.232507 1_555
Mg11 O15 2.232507 1_555
Mg12 O2 2.126409 1_555
Mg12 O12 2.126409 1_565
Mg12 O6 2.191975 1_555
Mg12 O6 2.191975 1_554
Mg12 O14 2.232507 1_555
Mg12 O3 2.232507 1_555
Mg13 O2 2.126409 1_655
Mg13 O13 2.126409 1_565
Mg13 O7 2.191975 1_555
Mg13 O7 2.191975 1_554
Mg13 O3 2.232507 1_555
Mg13 O15 2.232507 1_555
Al0 O12 2.175757 1_555
Al0 O0 2.175757 1_555
Al0 O13 2.175757 1_455
Al0 O2 2.175757 1_545
Al0 O8 2.189927 1_554
Al0 O8 2.189927 1_555
O1 Y0 2.269637 1_555
O3 Y0 2.269637 1_555
O11 Y0 2.189927 1_555
O11 Y0 2.189927 1_556
O14 Y0 2.269637 1_555
O15 Y0 2.269637 1_555
