# generated using pymatgen
data_BaTi6O12
_symmetry_space_group_name_H-M   'P 1'
_cell_length_a   8.39024734
_cell_length_b   8.39017559
_cell_length_c   8.50687689
_cell_angle_alpha   107.39932970
_cell_angle_beta   104.76280711
_cell_angle_gamma   116.00489188
_symmetry_Int_Tables_number   1
_chemical_formula_structural   BaTi6O12
_chemical_formula_sum   'Ba2 Ti12 O24'
_cell_volume   458.65380403
_cell_formula_units_Z   2
loop_
 _symmetry_equiv_pos_site_id
 _symmetry_equiv_pos_as_xyz
  1  'x, y, z'
loop_
 _atom_site_type_symbol
 _atom_site_label
 _atom_site_symmetry_multiplicity
 _atom_site_fract_x
 _atom_site_fract_y
 _atom_site_fract_z
 _atom_site_occupancy
  Ba  Ba0  1  0.05390116  0.05388043  -0.00000143  1
  Ba  Ba1  1  0.61278041  0.61280088  0.00002749  1
  Ti  Ti0  1  0.81825116  0.00383610  0.47834702  1
  Ti  Ti1  1  0.48207511  0.66345809  0.47885186  1
  Ti  Ti2  1  0.14115209  0.32675721  0.47833501  1
  Ti  Ti3  1  0.84841981  0.66283086  0.52165150  1
  Ti  Ti4  1  0.52550938  0.33990428  0.52166407  1
  Ti  Ti5  1  0.18459733  0.00320807  0.52114118  1
  Ti  Ti6  1  0.99761805  0.48902814  0.82001117  1
  Ti  Ti7  1  0.65904096  0.14612658  0.81523251  1
  Ti  Ti8  1  0.33577524  0.82285203  0.81522985  1
  Ti  Ti9  1  0.66904933  0.17763138  0.17999074  1
  Ti  Ti10  1  0.33089323  0.84381285  0.18477446  1
  Ti  Ti11  1  0.00763197  0.52054523  0.18477702  1
  O  O0  1  0.68285978  0.36825414  0.38444796  1
  O  O1  1  0.34209886  0.03966978  0.38199108  1
  O  O2  1  0.00899443  0.70656391  0.38199537  1
  O  O3  1  0.98379979  0.29840973  0.61554330  1
  O  O4  1  0.65766827  0.96010611  0.61800262  1
  O  O5  1  0.32456450  0.62699598  0.61800569  1
  O  O6  1  0.96148037  0.31759458  0.27667237  1
  O  O7  1  0.62574305  0.98184572  0.27666859  1
  O  O8  1  0.29662743  0.65629656  0.28623359  1
  O  O9  1  0.70518614  0.34907692  0.72333039  1
  O  O10  1  0.37003893  0.01037743  0.71377488  1
  O  O11  1  0.04091962  0.68481954  0.72333168  1
  O  O12  1  0.70226728  0.34337646  0.05335198  1
  O  O13  1  0.37664052  0.01775897  0.05335547  1
  O  O14  1  0.03080750  0.68671592  0.05083240  1
  O  O15  1  0.96440662  0.32329493  0.94665769  1
  O  O16  1  0.63586507  0.97994709  0.94916988  1
  O  O17  1  0.29003127  0.64891067  0.94665199  1
  O  O18  1  0.00842139  0.97335752  0.64184125  1
  O  O19  1  0.33515424  0.30009402  0.64185224  1
  O  O20  1  0.67681130  0.64345789  0.65359289  1
  O  O21  1  0.33150632  0.36657065  0.35813939  1
  O  O22  1  0.65823507  0.69329955  0.35814465  1
  O  O23  1  0.98984301  0.02319881  0.34637820  1
loop_
_geom_bond_atom_site_label_1
_geom_bond_atom_site_label_2
_geom_bond_distance
_geom_bond_site_symmetry_2
Ba0 O13 2.793905 1_555
Ba0 O15 2.794181 1_454
Ba0 O21 2.799091 1_555
Ba0 O18 2.799179 1_544
Ba0 O14 3.167093 1_545
Ba0 O16 3.167429 1_444
Ba0 O23 3.190152 1_455
Ba0 O20 3.190258 1_444
Ba0 O11 3.217835 1_544
Ba0 O6 3.218177 1_455
Ba1 O17 2.793920 1_554
Ba1 O12 2.794178 1_555
Ba1 O22 2.798925 1_555
Ba1 O19 2.799326 1_554
Ba1 O16 3.167056 1_554
Ba1 O14 3.167447 1_655
Ba1 O23 3.189955 1_565
Ba1 O20 3.190472 1_554
Ba1 O7 3.217732 1_555
Ba1 O9 3.218248 1_554
O0 Ti9 1.915108 1_555
O0 Ti4 1.959115 1_555
O0 Ti3 1.959170 1_555
O1 Ti10 1.912902 1_545
O1 Ti5 1.974942 1_555
O1 Ti4 2.001062 1_555
O2 Ti11 1.912934 1_555
O2 Ti5 1.974884 1_565
O2 Ti3 2.001030 1_455
O3 Ti6 1.915112 1_555
O3 Ti2 1.959074 1_655
O3 Ti0 1.959147 1_555
O4 Ti7 1.912955 1_565
O4 Ti1 1.974907 1_555
O4 Ti0 2.001076 1_565
O5 Ti8 1.912913 1_555
O5 Ti1 1.975026 1_555
O5 Ti2 2.001089 1_555
O6 Ti2 1.929498 1_655
O6 Ti9 1.985659 1_555
O6 Ti11 2.008170 1_655
O7 Ti0 1.929627 1_565
O7 Ti9 1.985866 1_565
O7 Ti10 2.008228 1_555
O8 Ti1 1.915550 1_555
O8 Ti10 1.960813 1_555
O8 Ti11 1.960959 1_555
O9 Ti4 1.929494 1_555
O9 Ti6 1.985673 1_555
O9 Ti7 2.008212 1_555
O10 Ti5 1.915566 1_555
O10 Ti8 1.960856 1_545
O10 Ti7 1.961008 1_555
O11 Ti3 1.929604 1_455
O11 Ti6 1.985921 1_455
O11 Ti8 2.008268 1_555
O12 Ti9 1.970083 1_555
O12 Ti7 2.016939 1_554
O12 Ti11 2.056810 1_655
O13 Ti9 1.970266 1_555
O13 Ti8 2.017043 1_544
O13 Ti10 2.056794 1_545
O14 Ti6 2.013144 1_454
O14 Ti10 2.025966 1_555
O14 Ti11 2.026138 1_555
O15 Ti6 1.970057 1_555
O15 Ti11 2.016943 1_656
O15 Ti7 2.056816 1_555
O16 Ti9 2.013148 1_566
O16 Ti8 2.025994 1_555
O16 Ti7 2.026149 1_565
O17 Ti6 1.970295 1_455
O17 Ti10 2.017018 1_556
O17 Ti8 2.056783 1_555
O18 Ti5 1.976012 1_565
O18 Ti0 1.996292 1_465
O18 Ti3 2.067816 1_455
O19 Ti5 1.976066 1_555
O19 Ti2 1.996491 1_555
O19 Ti4 2.067943 1_555
O20 Ti1 2.014755 1_555
O20 Ti3 2.021598 1_555
O20 Ti4 2.021618 1_555
O21 Ti1 1.976072 1_555
O21 Ti4 1.996547 1_555
O21 Ti2 2.067983 1_555
O22 Ti1 1.975950 1_555
O22 Ti3 1.996374 1_555
O22 Ti0 2.067876 1_565
O23 Ti5 2.014906 1_655
O23 Ti2 2.021652 1_655
O23 Ti0 2.021666 1_555
