# generated using pymatgen
data_BiTeIO3
_symmetry_space_group_name_H-M   'P 1'
_cell_length_a   4.81562200
_cell_length_b   4.81562200
_cell_length_c   24.70435800
_cell_angle_alpha   90.00000000
_cell_angle_beta   90.00000000
_cell_angle_gamma   90.00000000
_symmetry_Int_Tables_number   1
_chemical_formula_structural   BiTeIO3
_chemical_formula_sum   'Bi4 Te4 I4 O12'
_cell_volume   572.89937956
_cell_formula_units_Z   4
loop_
 _symmetry_equiv_pos_site_id
 _symmetry_equiv_pos_as_xyz
  1  'x, y, z'
loop_
 _atom_site_type_symbol
 _atom_site_label
 _atom_site_symmetry_multiplicity
 _atom_site_fract_x
 _atom_site_fract_y
 _atom_site_fract_z
 _atom_site_occupancy
  Bi  Bi0  1  0.25000000  0.25000000  0.30783400  1
  Bi  Bi1  1  0.75000000  0.75000000  0.01557700  1
  Bi  Bi2  1  0.75000000  0.75000000  0.69216600  1
  Bi  Bi3  1  0.25000000  0.25000000  0.98442300  1
  Te  Te0  1  0.25000000  0.25000000  0.78039900  1
  Te  Te1  1  0.75000000  0.75000000  0.42733900  1
  Te  Te2  1  0.25000000  0.25000000  0.57266100  1
  Te  Te3  1  0.75000000  0.75000000  0.21960100  1
  I  I0  1  0.25000000  0.25000000  0.43034500  1
  I  I1  1  0.25000000  0.25000000  0.10525700  1
  I  I2  1  0.75000000  0.75000000  0.56965500  1
  I  I3  1  0.75000000  0.75000000  0.89474300  1
  O  O0  1  0.75000000  0.75000000  0.29199400  1
  O  O1  1  0.25000000  0.75000000  0.70540900  1
  O  O2  1  0.25000000  0.75000000  0.29459100  1
  O  O3  1  0.75000000  0.25000000  0.76352000  1
  O  O4  1  0.25000000  0.75000000  0.76352000  1
  O  O5  1  0.25000000  0.25000000  0.70800600  1
  O  O6  1  0.75000000  0.25000000  0.70540900  1
  O  O7  1  0.75000000  0.25000000  0.29459100  1
  O  O8  1  0.75000000  0.25000000  0.00000000  1
  O  O9  1  0.25000000  0.75000000  0.23648000  1
  O  O10  1  0.25000000  0.75000000  0.00000000  1
  O  O11  1  0.75000000  0.25000000  0.23648000  1
loop_
_geom_bond_atom_site_label_1
_geom_bond_atom_site_label_2
_geom_bond_distance
_geom_bond_site_symmetry_2
Bi0 O7 2.429936 1_455
Bi0 O2 2.429936 1_545
Bi0 O7 2.429936 1_555
Bi0 O2 2.429936 1_555
Bi0 I0 3.026556 1_555
Bi1 O10 2.438368 1_555
Bi1 O10 2.438368 1_655
Bi1 O8 2.438368 1_555
Bi1 O8 2.438368 1_565
Bi1 I3 2.985126 1_554
Bi2 O6 2.429936 1_565
Bi2 O1 2.429936 1_655
Bi2 O1 2.429936 1_555
Bi2 O6 2.429936 1_555
Bi2 I2 3.026556 1_555
Bi3 O8 2.438368 1_556
Bi3 O8 2.438368 1_456
Bi3 O10 2.438368 1_546
Bi3 O10 2.438368 1_556
Bi3 I1 2.985126 1_556
I0 Te1 3.405969 1_455
I0 Te1 3.405969 1_555
I0 Te1 3.405969 1_445
I0 Te1 3.405969 1_545
I0 Te2 3.515825 1_555
I2 Te2 3.405969 1_555
I2 Te2 3.405969 1_655
I2 Te2 3.405969 1_565
I2 Te2 3.405969 1_665
I2 Te1 3.515825 1_555
O0 Te3 1.788423 1_555
O1 O4 1.435595 1_555
O2 O9 1.435595 1_555
O3 O6 1.435595 1_555
O3 Te0 2.443651 1_655
O3 Te0 2.443651 1_555
O4 Te0 2.443651 1_555
O4 Te0 2.443651 1_565
O5 Te0 1.788423 1_555
O9 Te3 2.443651 1_555
O9 Te3 2.443651 1_455
O11 O7 1.435595 1_555
O11 Te3 2.443651 1_545
O11 Te3 2.443651 1_555
