# generated using pymatgen
data_Rb2CaNb2(TeO6)2
_symmetry_space_group_name_H-M   'P 1'
_cell_length_a   7.64194569
_cell_length_b   7.65627478
_cell_length_c   7.47844476
_cell_angle_alpha   90.00000000
_cell_angle_beta   60.70525315
_cell_angle_gamma   121.58126244
_symmetry_Int_Tables_number   1
_chemical_formula_structural   Rb2CaNb2(TeO6)2
_chemical_formula_sum   'Rb2 Ca1 Nb2 Te2 O12'
_cell_volume   305.13427832
_cell_formula_units_Z   1
loop_
 _symmetry_equiv_pos_site_id
 _symmetry_equiv_pos_as_xyz
  1  'x, y, z'
loop_
 _atom_site_type_symbol
 _atom_site_label
 _atom_site_symmetry_multiplicity
 _atom_site_fract_x
 _atom_site_fract_y
 _atom_site_fract_z
 _atom_site_occupancy
  Rb  Rb0  1  0.85844200  0.32521100  0.32077900  1
  Rb  Rb1  1  0.14155800  0.67478900  0.67922100  1
  Ca  Ca0  1  0.50000000  0.50000000  0.50000000  1
  Nb  Nb0  1  0.50000000  0.50000000  0.00000000  1
  Nb  Nb1  1  0.50000000  0.00000000  0.00000000  1
  Te  Te0  1  0.00000000  0.00000000  0.50000000  1
  Te  Te1  1  0.00000000  0.00000000  0.00000000  1
  O  O0  1  0.84177500  0.91818500  0.32911300  1
  O  O1  1  0.61244900  0.31164900  0.94377500  1
  O  O2  1  0.24777400  0.93367500  0.93564300  1
  O  O3  1  0.25745500  0.33004400  0.32779900  1
  O  O4  1  0.25745500  0.33004400  0.91474600  1
  O  O5  1  0.24777400  0.93367500  0.31658200  1
  O  O6  1  0.15822500  0.08181500  0.67088700  1
  O  O7  1  0.38755100  0.68835100  0.05622500  1
  O  O8  1  0.75222600  0.06632500  0.06435700  1
  O  O9  1  0.74254500  0.66995600  0.67220100  1
  O  O10  1  0.74254500  0.66995600  0.08525400  1
  O  O11  1  0.75222600  0.06632500  0.68341800  1
loop_
_geom_bond_atom_site_label_1
_geom_bond_atom_site_label_2
_geom_bond_distance
_geom_bond_site_symmetry_2
Ca0 O4 2.568425 1_555
Ca0 O10 2.568425 1_555
Ca0 O9 2.568426 1_555
Ca0 O3 2.568426 1_555
Ca0 O0 2.584699 1_555
Ca0 O6 2.584699 1_555
Nb0 O7 1.984735 1_555
Nb0 O1 1.984735 1_554
Nb0 O3 2.040946 1_555
Nb0 O9 2.040946 1_554
Nb0 O10 2.040946 1_555
Nb0 O4 2.040946 1_554
Nb1 O5 2.021724 1_545
Nb1 O11 2.021724 1_554
Nb1 O2 2.021730 1_544
Nb1 O8 2.021730 1_555
Nb1 O1 2.026658 1_554
Nb1 O7 2.026658 1_545
O0 Te0 2.050972 1_665
O0 Te1 2.050979 1_665
O0 Rb0 3.050892 1_565
O1 Rb1 2.896564 1_655
O2 Te1 2.046959 1_566
O2 Rb1 2.846578 1_555
O3 Te0 2.056158 1_555
O3 Rb0 3.056213 1_455
O4 Te1 2.056158 1_556
O4 Rb0 3.056213 1_456
O5 Te0 2.046960 1_565
O5 Rb1 2.846584 1_555
O6 Te0 2.050972 1_555
O6 Te1 2.050979 1_556
O6 Rb1 3.050892 1_545
O7 Rb0 2.896564 1_455
O8 Te1 2.046959 1_655
O8 Rb0 2.846578 1_555
O9 Te0 2.056158 1_665
O9 Rb1 3.056213 1_655
O10 Te1 2.056158 1_665
O10 Rb1 3.056213 1_654
O11 Te0 2.046960 1_655
O11 Rb0 2.846584 1_555
