# generated using pymatgen
data_Lu2InAu2
_symmetry_space_group_name_H-M   'P 1'
_cell_length_a   7.92438100
_cell_length_b   7.92438100
_cell_length_c   7.19202900
_cell_angle_alpha   90.00000000
_cell_angle_beta   90.00000000
_cell_angle_gamma   90.00000000
_symmetry_Int_Tables_number   1
_chemical_formula_structural   Lu2InAu2
_chemical_formula_sum   'Lu8 In4 Au8'
_cell_volume   451.62931704
_cell_formula_units_Z   4
loop_
 _symmetry_equiv_pos_site_id
 _symmetry_equiv_pos_as_xyz
  1  'x, y, z'
loop_
 _atom_site_type_symbol
 _atom_site_label
 _atom_site_symmetry_multiplicity
 _atom_site_fract_x
 _atom_site_fract_y
 _atom_site_fract_z
 _atom_site_occupancy
  Lu  Lu0  1  0.84330300  0.15669700  0.50000000  1
  Lu  Lu1  1  0.15669700  0.84330300  0.50000000  1
  Lu  Lu2  1  0.34330300  0.34330300  0.00000000  1
  Lu  Lu3  1  0.65669700  0.65669700  0.00000000  1
  Lu  Lu4  1  0.68296000  0.68296000  0.50000000  1
  Lu  Lu5  1  0.31704000  0.31704000  0.50000000  1
  Lu  Lu6  1  0.18296100  0.81704000  0.00000000  1
  Lu  Lu7  1  0.81704000  0.18296100  0.00000000  1
  In  In0  1  0.50000000  0.00000000  0.25000000  1
  In  In1  1  0.00000000  0.50000000  0.75000000  1
  In  In2  1  0.50000000  0.00000000  0.75000000  1
  In  In3  1  0.00000000  0.50000000  0.25000000  1
  Au  Au0  1  0.62946400  0.37053600  0.27533500  1
  Au  Au1  1  0.37053600  0.62946400  0.27533500  1
  Au  Au2  1  0.12946400  0.12946400  0.77533500  1
  Au  Au3  1  0.87053600  0.87053600  0.77533500  1
  Au  Au4  1  0.37053600  0.62946400  0.72466500  1
  Au  Au5  1  0.62946400  0.37053600  0.72466500  1
  Au  Au6  1  0.87053600  0.87053600  0.22466500  1
  Au  Au7  1  0.12946400  0.12946400  0.22466500  1
loop_
_geom_bond_atom_site_label_1
_geom_bond_atom_site_label_2
_geom_bond_distance
_geom_bond_site_symmetry_2
In0 Lu6 3.412729 1_545
In0 Lu4 3.412735 1_545
In0 Lu5 3.412735 1_555
In0 Lu7 3.412738 1_555
In0 Lu0 3.489361 1_555
In0 Lu2 3.489361 1_555
In0 Lu3 3.489361 1_545
In0 Lu1 3.489361 1_545
In0 In2 3.596014 1_554
In0 In2 3.596014 1_555
In1 Lu7 3.412729 1_456
In1 Lu5 3.412735 1_555
In1 Lu4 3.412735 1_455
In1 Lu6 3.412738 1_556
In1 Lu1 3.489361 1_555
In1 Lu2 3.489361 1_556
In1 Lu3 3.489361 1_456
In1 Lu0 3.489361 1_455
In1 In3 3.596014 1_555
In1 In3 3.596014 1_556
In2 Lu6 3.412729 1_546
In2 Lu4 3.412735 1_545
In2 Lu5 3.412735 1_555
In2 Lu7 3.412738 1_556
In2 Lu0 3.489361 1_555
In2 Lu2 3.489361 1_556
In2 Lu3 3.489361 1_546
In2 Lu1 3.489361 1_545
In3 Lu7 3.412729 1_455
In3 Lu5 3.412735 1_555
In3 Lu4 3.412735 1_455
In3 Lu6 3.412738 1_555
In3 Lu1 3.489361 1_555
In3 Lu2 3.489361 1_555
In3 Lu3 3.489361 1_455
In3 Lu0 3.489361 1_455
Au0 Lu7 2.887931 1_555
Au0 Lu0 2.890284 1_555
Au0 Au1 2.901746 1_555
Au0 Lu5 2.986626 1_555
Au0 Lu4 2.986626 1_555
Au0 Lu3 3.018288 1_555
Au0 Lu2 3.018288 1_555
Au0 In0 3.115668 1_555
Au0 In3 3.115668 1_655
Au0 Au5 3.231594 1_555
Au1 Lu6 2.887931 1_555
Au1 Lu1 2.890284 1_555
Au1 Lu5 2.986626 1_555
Au1 Lu4 2.986626 1_555
Au1 Lu3 3.018288 1_555
Au1 Lu2 3.018288 1_555
Au1 In3 3.115668 1_555
Au1 In0 3.115668 1_565
Au1 Au4 3.231594 1_555
Au2 Lu5 2.887935 1_555
Au2 Lu2 2.890284 1_556
Au2 Au3 2.901746 1_445
Au2 Lu6 2.986627 1_546
Au2 Lu7 2.986627 1_456
Au2 Lu1 3.018288 1_545
Au2 Lu0 3.018288 1_455
Au2 In1 3.115668 1_555
Au2 In2 3.115668 1_555
Au2 Au7 3.231594 1_556
Au3 Lu4 2.887935 1_555
Au3 Lu3 2.890284 1_556
Au3 Lu6 2.986632 1_656
Au3 Lu7 2.986632 1_566
Au3 Lu0 3.018288 1_565
Au3 Lu1 3.018288 1_655
Au3 In2 3.115668 1_565
Au3 In1 3.115668 1_655
Au3 Au6 3.231594 1_556
Au4 Lu6 2.887931 1_556
Au4 Lu1 2.890284 1_555
Au4 Au5 2.901746 1_555
Au4 Lu5 2.986626 1_555
Au4 Lu4 2.986626 1_555
Au4 Lu3 3.018288 1_556
Au4 Lu2 3.018288 1_556
Au4 In2 3.115668 1_565
Au4 In1 3.115668 1_555
Au5 Lu7 2.887931 1_556
Au5 Lu0 2.890284 1_555
Au5 Lu5 2.986626 1_555
Au5 Lu4 2.986626 1_555
Au5 Lu3 3.018288 1_556
Au5 Lu2 3.018288 1_556
Au5 In1 3.115668 1_655
Au5 In2 3.115668 1_555
Au6 Lu4 2.887935 1_555
Au6 Lu3 2.890284 1_555
Au6 Au7 2.901746 1_665
Au6 Lu6 2.986632 1_655
Au6 Lu7 2.986632 1_565
Au6 Lu0 3.018288 1_565
Au6 Lu1 3.018288 1_655
Au6 In0 3.115668 1_565
Au6 In3 3.115668 1_655
Au7 Lu5 2.887935 1_555
Au7 Lu2 2.890284 1_555
Au7 Lu7 2.986627 1_455
Au7 Lu6 2.986627 1_545
Au7 Lu1 3.018288 1_545
Au7 Lu0 3.018288 1_455
Au7 In0 3.115668 1_555
Au7 In3 3.115668 1_555
