# generated using pymatgen
data_Sr3As4
_symmetry_space_group_name_H-M   'P 1'
_cell_length_a   6.01943937
_cell_length_b   8.05246590
_cell_length_c   9.48208005
_cell_angle_alpha   83.18655643
_cell_angle_beta   71.49354805
_cell_angle_gamma   68.05206684
_symmetry_Int_Tables_number   1
_chemical_formula_structural   Sr3As4
_chemical_formula_sum   'Sr6 As8'
_cell_volume   404.25358395
_cell_formula_units_Z   2
loop_
 _symmetry_equiv_pos_site_id
 _symmetry_equiv_pos_as_xyz
  1  'x, y, z'
loop_
 _atom_site_type_symbol
 _atom_site_label
 _atom_site_symmetry_multiplicity
 _atom_site_fract_x
 _atom_site_fract_y
 _atom_site_fract_z
 _atom_site_occupancy
  Sr  Sr0  1  0.55495517  0.00457579  0.33431139  1
  Sr  Sr1  1  0.89384135  0.99542421  0.66568861  1
  Sr  Sr2  1  0.30952996  0.49542421  0.83431139  1
  Sr  Sr3  1  0.63926656  0.50457579  0.16568861  1
  Sr  Sr4  1  0.00187301  0.50000000  0.50000000  1
  Sr  Sr5  1  0.25187301  0.00000000  -0.00000000  1
  As  As0  1  0.41379232  0.67129735  0.50409955  1
  As  As1  1  0.58918921  0.32870265  0.49590045  1
  As  As2  1  0.83508967  0.82870265  0.00409955  1
  As  As3  1  0.66789186  0.17129735  0.99590045  1
  As  As4  1  0.31724704  0.17201098  0.65904388  1
  As  As5  1  0.14830090  0.82798902  0.34095612  1
  As  As6  1  0.72628992  0.67201098  0.84095612  1
  As  As7  1  0.23925802  0.32798902  0.15904388  1
loop_
_geom_bond_atom_site_label_1
_geom_bond_atom_site_label_2
_geom_bond_distance
_geom_bond_site_symmetry_2
As0 As5 2.477486 1_555
As0 As1 2.559852 1_555
As0 Sr0 3.213615 1_565
As0 Sr2 3.250860 1_555
As0 Sr4 3.268452 1_555
As0 Sr4 3.272687 1_655
As0 Sr1 3.279283 1_455
As0 Sr3 3.291873 1_555
As1 As4 2.477482 1_555
As1 Sr1 3.213612 1_545
As1 Sr3 3.250860 1_555
As1 Sr4 3.268452 1_555
As1 Sr4 3.272687 1_655
As1 Sr0 3.279280 1_555
As1 Sr2 3.291873 1_555
As2 As6 2.477486 1_554
As2 As3 2.559852 1_564
As2 Sr2 3.213612 1_654
As2 Sr0 3.250860 1_565
As2 Sr5 3.268452 1_565
As2 Sr5 3.272687 1_665
As2 Sr3 3.279280 1_555
As2 Sr1 3.291873 1_554
As3 As7 2.477482 1_556
As3 Sr3 3.213615 1_556
As3 Sr1 3.250860 1_545
As3 Sr5 3.268452 1_556
As3 Sr5 3.272687 1_656
As3 Sr2 3.279283 1_555
As3 Sr0 3.291873 1_556
As4 Sr4 3.158795 1_555
As4 Sr0 3.176837 1_555
As4 Sr2 3.230140 1_555
As4 Sr1 3.240448 1_545
As4 Sr5 3.326079 1_556
As4 Sr1 3.332798 1_445
As5 Sr4 3.158793 1_555
As5 Sr1 3.176837 1_455
As5 Sr3 3.230145 1_555
As5 Sr0 3.240460 1_565
As5 Sr5 3.326079 1_565
As5 Sr0 3.332787 1_465
As6 Sr5 3.158793 1_566
As6 Sr3 3.176837 1_556
As6 Sr1 3.230143 1_555
As6 Sr2 3.240454 1_655
As6 Sr4 3.326079 1_655
As6 Sr2 3.332793 1_555
As7 Sr5 3.158796 1_555
As7 Sr2 3.176837 1_554
As7 Sr0 3.230143 1_555
As7 Sr3 3.240454 1_555
As7 Sr4 3.326079 1_555
As7 Sr3 3.332792 1_455
