# generated using pymatgen
data_Mg6CrCu
_symmetry_space_group_name_H-M   'P 1'
_cell_length_a   4.90701800
_cell_length_b   6.13118300
_cell_length_c   10.53119400
_cell_angle_alpha   90.00000000
_cell_angle_beta   90.00000000
_cell_angle_gamma   90.00000000
_symmetry_Int_Tables_number   1
_chemical_formula_structural   Mg6CrCu
_chemical_formula_sum   'Mg12 Cr2 Cu2'
_cell_volume   316.83966333
_cell_formula_units_Z   2
loop_
 _symmetry_equiv_pos_site_id
 _symmetry_equiv_pos_as_xyz
  1  'x, y, z'
loop_
 _atom_site_type_symbol
 _atom_site_label
 _atom_site_symmetry_multiplicity
 _atom_site_fract_x
 _atom_site_fract_y
 _atom_site_fract_z
 _atom_site_occupancy
  Mg  Mg0  1  0.50000000  0.24843300  0.08346400  1
  Mg  Mg1  1  0.50000000  0.75156700  0.08346400  1
  Mg  Mg2  1  0.00000000  0.24912000  0.91301000  1
  Mg  Mg3  1  0.00000000  0.75088000  0.91301000  1
  Mg  Mg4  1  0.00000000  0.50000000  0.17069200  1
  Mg  Mg5  1  0.00000000  0.50000000  0.67001800  1
  Mg  Mg6  1  0.50000000  0.74843300  0.58346400  1
  Mg  Mg7  1  0.50000000  0.25156700  0.58346400  1
  Mg  Mg8  1  0.00000000  0.74912000  0.41301000  1
  Mg  Mg9  1  0.00000000  0.25088000  0.41301000  1
  Mg  Mg10  1  0.00000000  0.00000000  0.67069200  1
  Mg  Mg11  1  0.00000000  0.00000000  0.17001800  1
  Cr  Cr0  1  0.50000000  0.50000000  0.83289300  1
  Cr  Cr1  1  0.50000000  0.00000000  0.33289300  1
  Cu  Cu0  1  0.50000000  0.50000000  0.33345200  1
  Cu  Cu1  1  0.50000000  0.00000000  0.83345200  1
loop_
_geom_bond_atom_site_label_1
_geom_bond_atom_site_label_2
_geom_bond_distance
_geom_bond_site_symmetry_2
Mg0 Mg11 3.028312 1_555
Mg0 Mg11 3.028312 1_655
Mg0 Mg2 3.040074 1_654
Mg0 Mg2 3.040074 1_554
Mg0 Mg4 3.040159 1_655
Mg0 Mg4 3.040159 1_555
Mg0 Mg1 3.046376 1_545
Mg0 Mg1 3.084807 1_555
Mg1 Mg11 3.028312 1_565
Mg1 Mg11 3.028312 1_665
Mg1 Mg3 3.040074 1_554
Mg1 Mg3 3.040074 1_654
Mg1 Mg4 3.040159 1_655
Mg1 Mg4 3.040159 1_555
Mg2 Mg5 2.985715 1_555
Mg2 Mg3 3.054801 1_545
Mg2 Mg3 3.076382 1_555
Mg2 Mg4 3.119326 1_556
Mg3 Mg5 2.985715 1_555
Mg3 Mg4 3.119326 1_556
Mg4 Mg8 2.974077 1_555
Mg4 Mg9 2.974077 1_555
Mg5 Mg6 3.028312 1_455
Mg5 Mg6 3.028312 1_555
Mg5 Mg7 3.028312 1_455
Mg5 Mg7 3.028312 1_555
Mg5 Mg8 3.107835 1_555
Mg5 Mg9 3.107835 1_555
Mg6 Mg8 3.040074 1_555
Mg6 Mg8 3.040074 1_655
Mg6 Mg7 3.046376 1_555
Mg6 Mg7 3.084807 1_565
Mg7 Mg9 3.040074 1_555
Mg7 Mg9 3.040074 1_655
Mg8 Mg9 3.054801 1_555
Mg8 Mg9 3.076382 1_565
Mg10 Mg3 2.974077 1_545
Mg10 Mg2 2.974077 1_555
Mg10 Mg7 3.040159 1_455
Mg10 Mg6 3.040159 1_545
Mg10 Mg7 3.040159 1_555
Mg10 Mg6 3.040159 1_445
Mg10 Mg5 3.065600 1_545
Mg10 Mg5 3.065600 1_555
Mg10 Mg8 3.119326 1_545
Mg10 Mg9 3.119326 1_555
Mg11 Mg8 2.985715 1_545
Mg11 Mg9 2.985715 1_555
Mg11 Mg4 3.065600 1_545
Mg11 Mg4 3.065600 1_555
Mg11 Mg3 3.107835 1_544
Mg11 Mg2 3.107835 1_554
Cr0 Mg5 2.993635 1_555
Cr0 Mg5 2.993635 1_655
Cr0 Mg2 3.016225 1_655
Cr0 Mg2 3.016225 1_555
Cr0 Mg3 3.016225 1_655
Cr0 Mg3 3.016225 1_555
Cr0 Mg6 3.036462 1_555
Cr0 Mg7 3.036462 1_555
Cr0 Mg0 3.056523 1_556
Cr0 Mg1 3.056523 1_556
Cr0 Cu1 3.065597 1_555
Cr0 Cu1 3.065597 1_565
Cr1 Mg11 2.993635 1_655
Cr1 Mg11 2.993635 1_555
Cr1 Mg8 3.016225 1_545
Cr1 Mg9 3.016225 1_555
Cr1 Mg9 3.016225 1_655
Cr1 Mg8 3.016225 1_645
Cr1 Mg0 3.036462 1_555
Cr1 Mg1 3.036462 1_545
Cr1 Mg7 3.056523 1_555
Cr1 Mg6 3.056523 1_545
Cr1 Cu0 3.065597 1_555
Cr1 Cu0 3.065597 1_545
Cu0 Mg4 2.992941 1_655
Cu0 Mg4 2.992941 1_555
Cu0 Mg8 3.009092 1_655
Cu0 Mg9 3.009092 1_655
Cu0 Mg8 3.009092 1_555
Cu0 Mg9 3.009092 1_555
Cu0 Mg7 3.041775 1_555
Cu0 Mg6 3.041775 1_555
Cu0 Mg1 3.051224 1_555
Cu0 Mg0 3.051224 1_555
Cu1 Mg10 2.992941 1_655
Cu1 Mg10 2.992941 1_555
Cu1 Mg2 3.009092 1_555
Cu1 Mg3 3.009092 1_645
Cu1 Mg3 3.009092 1_545
Cu1 Mg2 3.009092 1_655
Cu1 Mg1 3.041775 1_546
Cu1 Mg0 3.041775 1_556
Cu1 Mg7 3.051224 1_555
Cu1 Mg6 3.051224 1_545
