# generated using pymatgen
data_Li3As
_symmetry_space_group_name_H-M   'P 1'
_cell_length_a   7.49809217
_cell_length_b   7.49858807
_cell_length_c   7.46513663
_cell_angle_alpha   90.00406362
_cell_angle_beta   89.99702556
_cell_angle_gamma   119.99029188
_symmetry_Int_Tables_number   1
_chemical_formula_structural   Li3As
_chemical_formula_sum   'Li18 As6'
_cell_volume   363.53073851
_cell_formula_units_Z   6
loop_
 _symmetry_equiv_pos_site_id
 _symmetry_equiv_pos_as_xyz
  1  'x, y, z'
loop_
 _atom_site_type_symbol
 _atom_site_label
 _atom_site_symmetry_multiplicity
 _atom_site_fract_x
 _atom_site_fract_y
 _atom_site_fract_z
 _atom_site_occupancy
  Li  Li0  1  0.00000000  0.00000000  0.50000000  1
  Li  Li1  1  0.00000000  0.00000000  0.00000000  1
  Li  Li2  1  0.33348505  0.66678567  0.71269374  1
  Li  Li3  1  0.33327693  0.66661050  0.21265897  1
  Li  Li4  1  0.66651495  0.33321433  0.28730626  1
  Li  Li5  1  0.66672307  0.33338950  0.78734103  1
  Li  Li6  1  0.35425285  0.33029968  0.58820466  1
  Li  Li7  1  0.66949298  0.02369013  0.58838650  1
  Li  Li8  1  0.97617440  0.64580437  0.58821768  1
  Li  Li9  1  0.35420758  0.02386114  0.08823535  1
  Li  Li10  1  0.97625648  0.33048419  0.08836615  1
  Li  Li11  1  0.66977198  0.64574312  0.08811952  1
  Li  Li12  1  0.64574715  0.66970032  0.41179534  1
  Li  Li13  1  0.33050702  0.97630987  0.41161350  1
  Li  Li14  1  0.02382560  0.35419563  0.41178232  1
  Li  Li15  1  0.64579242  0.97613886  0.91176465  1
  Li  Li16  1  0.02374352  0.66951581  0.91163385  1
  Li  Li17  1  0.33022802  0.35425688  0.91188048  1
  As  As0  1  0.67538302  0.67537128  0.74999823  1
  As  As1  1  0.32461916  0.00000648  0.74997903  1
  As  As2  1  0.00000378  0.32462991  0.74996248  1
  As  As3  1  0.67538084  0.99999352  0.25002097  1
  As  As4  1  -0.00000378  0.67537009  0.25003752  1
  As  As5  1  0.32461698  0.32462872  0.25000177  1
loop_
_geom_bond_atom_site_label_1
_geom_bond_atom_site_label_2
_geom_bond_distance
_geom_bond_site_symmetry_2
Li0 Li8 2.654368 1_445
Li0 Li14 2.654368 1_555
Li0 Li12 2.654529 1_445
Li0 Li6 2.654529 1_555
Li0 Li7 2.654838 1_455
Li0 Li13 2.654838 1_545
Li1 Li9 2.654184 1_555
Li1 Li15 2.654184 1_444
Li1 Li11 2.654203 1_445
Li1 Li17 2.654203 1_554
Li1 Li16 2.654990 1_544
Li1 Li10 2.654990 1_455
As0 Li11 2.532399 1_556
As0 Li12 2.532992 1_555
As0 Li2 2.547298 1_555
As0 Li5 2.547864 1_555
As0 Li15 2.663439 1_555
As0 Li8 2.663447 1_555
As0 Li6 2.779073 1_555
As0 Li17 2.779645 1_555
As0 Li7 2.897459 1_565
As0 Li16 2.897521 1_655
As0 Li1 3.067513 1_666
As0 Li0 3.067553 1_665
As1 Li9 2.533341 1_556
As1 Li13 2.534105 1_545
As1 Li2 2.547799 1_545
As1 Li5 2.548817 1_555
As1 Li6 2.663132 1_555
As1 Li16 2.664264 1_545
As1 Li7 2.777442 1_555
As1 Li15 2.778717 1_545
As1 Li8 2.898501 1_445
As1 Li17 2.899437 1_555
As1 Li0 3.067126 1_555
As1 Li1 3.067162 1_556
As2 Li14 2.532767 1_555
As2 Li10 2.534407 1_456
As2 Li5 2.547753 1_455
As2 Li2 2.549313 1_555
As2 Li17 2.663005 1_555
As2 Li7 2.664191 1_455
As2 Li16 2.777746 1_555
As2 Li8 2.778605 1_455
As2 Li6 2.898639 1_555
As2 Li15 2.898851 1_445
As2 Li0 3.067068 1_555
As2 Li1 3.067619 1_556
As3 Li15 2.533341 1_554
As3 Li7 2.534105 1_565
As3 Li4 2.547799 1_565
As3 Li3 2.548817 1_555
As3 Li12 2.663132 1_555
As3 Li10 2.664264 1_565
As3 Li13 2.777442 1_555
As3 Li9 2.778717 1_565
As3 Li14 2.898501 1_665
As3 Li11 2.899437 1_555
As3 Li0 3.067126 1_665
As3 Li1 3.067162 1_665
As4 Li8 2.532767 1_455
As4 Li16 2.534407 1_554
As4 Li3 2.547753 1_555
As4 Li4 2.549313 1_455
As4 Li11 2.663005 1_455
As4 Li13 2.664191 1_555
As4 Li10 2.777746 1_455
As4 Li14 2.778605 1_555
As4 Li12 2.898639 1_455
As4 Li9 2.898851 1_565
As4 Li0 3.067068 1_565
As4 Li1 3.067619 1_565
As5 Li17 2.532399 1_554
As5 Li6 2.532992 1_555
As5 Li4 2.547298 1_555
As5 Li3 2.547864 1_555
As5 Li9 2.663439 1_555
As5 Li14 2.663447 1_555
As5 Li12 2.779073 1_555
As5 Li11 2.779645 1_555
As5 Li13 2.897459 1_545
As5 Li10 2.897521 1_455
As5 Li1 3.067513 1_555
As5 Li0 3.067553 1_555
