# generated using pymatgen
data_Er2Be2SiO7
_symmetry_space_group_name_H-M   'P 1'
_cell_length_a   7.28211500
_cell_length_b   7.28211500
_cell_length_c   4.75942900
_cell_angle_alpha   90.00000000
_cell_angle_beta   90.00000000
_cell_angle_gamma   90.00000000
_symmetry_Int_Tables_number   1
_chemical_formula_structural   Er2Be2SiO7
_chemical_formula_sum   'Er4 Be4 Si2 O14'
_cell_volume   252.38870696
_cell_formula_units_Z   2
loop_
 _symmetry_equiv_pos_site_id
 _symmetry_equiv_pos_as_xyz
  1  'x, y, z'
loop_
 _atom_site_type_symbol
 _atom_site_label
 _atom_site_symmetry_multiplicity
 _atom_site_fract_x
 _atom_site_fract_y
 _atom_site_fract_z
 _atom_site_occupancy
  Er  Er0  1  0.15946600  0.34053400  0.50857600  1
  Er  Er1  1  0.84053400  0.65946600  0.50857600  1
  Er  Er2  1  0.65946600  0.15946600  0.49142400  1
  Er  Er3  1  0.34053400  0.84053400  0.49142400  1
  Be  Be0  1  0.63625800  0.86374200  0.95508200  1
  Be  Be1  1  0.36374200  0.13625800  0.95508200  1
  Be  Be2  1  0.13625800  0.63625800  0.04491800  1
  Be  Be3  1  0.86374200  0.36374200  0.04491800  1
  Si  Si0  1  0.00000000  0.00000000  0.00000000  1
  Si  Si1  1  0.50000000  0.50000000  0.00000000  1
  O  O0  1  0.00000000  0.50000000  0.18952500  1
  O  O1  1  0.50000000  0.00000000  0.81047500  1
  O  O2  1  0.64102000  0.85898000  0.28845500  1
  O  O3  1  0.35898000  0.14102000  0.28845500  1
  O  O4  1  0.14102000  0.64102000  0.71154500  1
  O  O5  1  0.85898000  0.35898000  0.71154500  1
  O  O6  1  0.08039400  0.83682200  0.20400400  1
  O  O7  1  0.91960600  0.16317800  0.20400400  1
  O  O8  1  0.16317800  0.08039400  0.79599600  1
  O  O9  1  0.41960600  0.33682200  0.79599600  1
  O  O10  1  0.83682200  0.91960600  0.79599600  1
  O  O11  1  0.58039400  0.66317800  0.79599600  1
  O  O12  1  0.33682200  0.58039400  0.20400400  1
  O  O13  1  0.66317800  0.41960600  0.20400400  1
loop_
_geom_bond_atom_site_label_1
_geom_bond_atom_site_label_2
_geom_bond_distance
_geom_bond_site_symmetry_2
Er0 O0 2.236704 1_555
Er0 O3 2.306364 1_555
Er0 O9 2.336807 1_555
Er0 O8 2.336807 1_555
Er0 O5 2.395691 1_455
Er0 O4 2.395691 1_555
Er0 O12 2.611564 1_555
Er0 O7 2.611564 1_455
Er1 O0 2.236704 1_655
Er1 O2 2.306364 1_555
Er1 O10 2.336807 1_555
Er1 O11 2.336807 1_555
Er1 O4 2.395691 1_655
Er1 O5 2.395691 1_555
Er1 O6 2.611564 1_655
Er1 O13 2.611564 1_555
Er2 O1 2.236704 1_555
Er2 O5 2.306364 1_555
Er2 O7 2.336807 1_555
Er2 O13 2.336807 1_555
Er2 O2 2.395691 1_545
Er2 O3 2.395691 1_555
Er2 O9 2.611564 1_555
Er2 O10 2.611564 1_545
Er3 O1 2.236704 1_565
Er3 O4 2.306364 1_555
Er3 O6 2.336807 1_555
Er3 O12 2.336807 1_555
Er3 O3 2.395691 1_565
Er3 O2 2.395691 1_555
Er3 O8 2.611564 1_565
Er3 O11 2.611564 1_555
Be0 O1 1.562943 1_565
Be0 O2 1.587423 1_556
Be0 O10 1.694677 1_555
Be0 O11 1.694677 1_555
Be1 O1 1.562943 1_555
Be1 O3 1.587423 1_556
Be1 O8 1.694677 1_555
Be1 O9 1.694677 1_555
Be2 O0 1.562943 1_555
Be2 O4 1.587423 1_554
Be2 O6 1.694677 1_555
Be2 O12 1.694677 1_555
Be3 O0 1.562943 1_655
Be3 O5 1.587423 1_554
Be3 O7 1.694677 1_555
Be3 O13 1.694677 1_555
O6 Si0 1.642400 1_565
O7 Si0 1.642400 1_655
O8 Si0 1.642400 1_556
O9 Si1 1.642400 1_556
O10 Si0 1.642400 1_666
O11 Si1 1.642400 1_556
O12 Si1 1.642400 1_555
O13 Si1 1.642400 1_555
