# generated using pymatgen
data_Li7Mn4CoO12
_symmetry_space_group_name_H-M   'P 1'
_cell_length_a   5.84412000
_cell_length_b   5.97136464
_cell_length_c   7.63564172
_cell_angle_alpha   69.93253036
_cell_angle_beta   78.87483152
_cell_angle_gamma   60.80916595
_symmetry_Int_Tables_number   1
_chemical_formula_structural   Li7Mn4CoO12
_chemical_formula_sum   'Li7 Mn4 Co1 O12'
_cell_volume   218.39369296
_cell_formula_units_Z   1
loop_
 _symmetry_equiv_pos_site_id
 _symmetry_equiv_pos_as_xyz
  1  'x, y, z'
loop_
 _atom_site_type_symbol
 _atom_site_label
 _atom_site_symmetry_multiplicity
 _atom_site_fract_x
 _atom_site_fract_y
 _atom_site_fract_z
 _atom_site_occupancy
  Li  Li0  1  0.16574900  0.32928300  0.67127900  1
  Li  Li1  1  0.33989600  0.16711200  0.33126900  1
  Li  Li2  1  0.82885900  0.68353900  0.32333900  1
  Li  Li3  1  0.99407500  0.50106300  0.00402800  1
  Li  Li4  1  0.50680200  0.98240300  0.00785900  1
  Li  Li5  1  0.66403100  0.83592200  0.66428400  1
  Li  Li6  1  0.50103000  0.50203800  0.00148400  1
  Mn  Mn0  1  0.99885200  0.00114900  0.00094200  1
  Mn  Mn1  1  0.66770100  0.32780800  0.66896400  1
  Mn  Mn2  1  0.17165800  0.82424300  0.66988600  1
  Mn  Mn3  1  0.33436100  0.66849900  0.33009000  1
  Co  Co0  1  0.82535700  0.18092600  0.32402200  1
  O  O0  1  0.30659200  0.92067500  0.83112300  1
  O  O1  1  0.47410100  0.76101200  0.50221700  1
  O  O2  1  0.99737400  0.20860200  0.51230200  1
  O  O3  1  0.13551700  0.10255300  0.15611900  1
  O  O4  1  0.65588800  0.57990700  0.18373200  1
  O  O5  1  0.83856700  0.37132000  0.83886800  1
  O  O6  1  0.02130800  0.75065700  0.50312600  1
  O  O7  1  0.15771200  0.62850300  0.16071000  1
  O  O8  1  0.68997700  0.08198200  0.16703600  1
  O  O9  1  0.86300500  0.89837800  0.84059000  1
  O  O10  1  0.33373700  0.45105500  0.80778400  1
  O  O11  1  0.52785200  0.24137000  0.49894600  1
loop_
_geom_bond_atom_site_label_1
_geom_bond_atom_site_label_2
_geom_bond_distance
_geom_bond_site_symmetry_2
Li0 O5 2.040740 1_455
Li0 O10 2.047020 1_555
Li0 O0 2.122621 1_545
Li0 O2 2.171188 1_455
Li0 O11 2.191146 1_555
Li0 O6 2.195823 1_555
Li1 O8 2.109420 1_555
Li1 O11 2.109464 1_555
Li1 O1 2.137074 1_545
Li1 O2 2.159297 1_455
Li1 O3 2.187060 1_555
Li1 O7 2.373145 1_555
Li2 O4 2.004953 1_555
Li2 O7 2.021521 1_655
Li2 O8 2.070132 1_565
Li2 O6 2.173295 1_655
Li2 O1 2.187049 1_555
Li2 O2 2.471957 1_555
Li3 O3 2.061531 1_655
Li3 O9 2.082620 1_554
Li3 O4 2.121268 1_555
Li3 O7 2.168204 1_655
Li3 O5 2.194564 1_554
Li3 O10 2.203600 1_654
Li4 O4 2.129089 1_555
Li4 O3 2.143689 1_565
Li4 O8 2.143772 1_565
Li4 O9 2.147410 1_554
Li4 O0 2.167349 1_554
Li4 O10 2.467759 1_564
Li5 O1 2.087525 1_555
Li5 O11 2.121203 1_565
Li5 O6 2.129448 1_655
Li5 O0 2.151014 1_555
Li5 O9 2.162223 1_555
Li5 O5 2.395972 1_555
Li6 O5 2.064025 1_554
Li6 O7 2.069974 1_555
Li6 O4 2.076604 1_555
Li6 O10 2.096046 1_554
Li6 O8 2.184006 1_555
Li6 O0 2.191009 1_554
Mn0 O3 1.933337 1_655
Mn0 O8 1.945904 1_555
Mn0 O0 1.957405 1_644
Mn0 O5 1.960956 1_554
Mn0 O7 1.964873 1_645
Mn0 O9 1.967747 1_544
Mn1 O5 1.931843 1_555
Mn1 O10 1.951999 1_555
Mn1 O11 1.974961 1_555
Mn1 O2 2.001698 1_555
Mn1 O9 2.238709 1_545
Mn1 O1 2.243572 1_555
Mn2 O10 1.920295 1_555
Mn2 O1 1.926974 1_555
Mn2 O0 1.942484 1_555
Mn2 O6 1.943915 1_555
Mn2 O9 1.964275 1_455
Mn2 O2 2.012567 1_465
Mn3 O4 1.919704 1_555
Mn3 O7 1.939902 1_555
Mn3 O6 1.992484 1_555
Mn3 O1 2.012963 1_555
Mn3 O11 2.222369 1_555
Mn3 O3 2.264477 1_565
Co0 O8 1.928697 1_555
Co0 O11 1.938997 1_555
Co0 O3 1.958501 1_655
Co0 O2 1.996885 1_555
Co0 O4 2.039824 1_555
Co0 O6 2.259647 1_645
