# generated using pymatgen
data_Li2MnCoO4
_symmetry_space_group_name_H-M   'P 1'
_cell_length_a   5.04140700
_cell_length_b   5.81031346
_cell_length_c   6.06064934
_cell_angle_alpha   61.88342621
_cell_angle_beta   78.72325098
_cell_angle_gamma   72.96972524
_symmetry_Int_Tables_number   1
_chemical_formula_structural   Li2MnCoO4
_chemical_formula_sum   'Li4 Mn2 Co2 O8'
_cell_volume   149.36463286
_cell_formula_units_Z   2
loop_
 _symmetry_equiv_pos_site_id
 _symmetry_equiv_pos_as_xyz
  1  'x, y, z'
loop_
 _atom_site_type_symbol
 _atom_site_label
 _atom_site_symmetry_multiplicity
 _atom_site_fract_x
 _atom_site_fract_y
 _atom_site_fract_z
 _atom_site_occupancy
  Li  Li0  1  0.25531500  0.12325800  0.87436400  1
  Li  Li1  1  0.75514900  0.37329200  0.62464500  1
  Li  Li2  1  0.74468500  0.87674200  0.12563600  1
  Li  Li3  1  0.24485100  0.62670800  0.37535500  1
  Mn  Mn0  1  0.75080300  0.37209000  0.12931700  1
  Mn  Mn1  1  0.24919700  0.62791000  0.87068300  1
  Co  Co0  1  0.74927900  0.87661400  0.62232800  1
  Co  Co1  1  0.25072100  0.12338600  0.37767200  1
  O  O0  1  0.49688800  0.22346900  0.50374100  1
  O  O1  1  0.00216400  0.47419300  0.25643200  1
  O  O2  1  0.99482400  0.98183900  0.74619600  1
  O  O3  1  0.49977900  0.73079400  0.00136600  1
  O  O4  1  0.00517600  0.01816100  0.25380400  1
  O  O5  1  0.50022100  0.26920600  0.99863400  1
  O  O6  1  0.50311200  0.77653100  0.49625900  1
  O  O7  1  0.99783600  0.52580700  0.74356800  1
loop_
_geom_bond_atom_site_label_1
_geom_bond_atom_site_label_2
_geom_bond_distance
_geom_bond_site_symmetry_2
Li0 O3 2.093271 1_546
Li0 O5 2.095164 1_555
Li0 O2 2.153088 1_445
Li0 O7 2.158808 1_455
Li0 O0 2.231699 1_555
Li0 O4 2.290166 1_556
Li1 O2 2.082053 1_545
Li1 O7 2.093711 1_555
Li1 O0 2.151322 1_555
Li1 O6 2.152651 1_555
Li1 O1 2.232088 1_655
Li1 O5 2.275744 1_555
Li2 O5 2.093271 1_564
Li2 O3 2.095164 1_555
Li2 O4 2.153088 1_665
Li2 O1 2.158808 1_655
Li2 O6 2.231699 1_555
Li2 O2 2.290166 1_554
Li3 O4 2.082053 1_565
Li3 O1 2.093711 1_555
Li3 O6 2.151322 1_555
Li3 O0 2.152651 1_555
Li3 O7 2.232088 1_455
Li3 O3 2.275744 1_555
Mn0 O1 1.950444 1_655
Mn0 O4 1.952949 1_655
Mn0 O5 1.964805 1_554
Mn0 O3 1.965248 1_555
Mn0 O0 2.279973 1_555
Mn0 O7 2.314992 1_554
Mn1 O7 1.950444 1_455
Mn1 O2 1.952949 1_455
Mn1 O3 1.964805 1_556
Mn1 O5 1.965248 1_555
Mn1 O6 2.279973 1_555
Mn1 O1 2.314992 1_556
Co0 O6 1.916884 1_555
Co0 O0 1.920293 1_565
Co0 O2 1.925911 1_555
Co0 O7 1.927985 1_555
Co0 O4 2.256646 1_665
Co0 O3 2.288420 1_556
Co1 O0 1.916884 1_555
Co1 O6 1.920293 1_545
Co1 O4 1.925911 1_555
Co1 O1 1.927985 1_555
Co1 O2 2.256646 1_445
Co1 O5 2.288420 1_554
