# generated using pymatgen
data_YB2Ru
_symmetry_space_group_name_H-M   'P 1'
_cell_length_a   5.32639900
_cell_length_b   5.92445900
_cell_length_c   6.36267700
_cell_angle_alpha   90.00000000
_cell_angle_beta   90.00000000
_cell_angle_gamma   90.00000000
_symmetry_Int_Tables_number   1
_chemical_formula_structural   YB2Ru
_chemical_formula_sum   'Y4 B8 Ru4'
_cell_volume   200.78084216
_cell_formula_units_Z   4
loop_
 _symmetry_equiv_pos_site_id
 _symmetry_equiv_pos_as_xyz
  1  'x, y, z'
loop_
 _atom_site_type_symbol
 _atom_site_label
 _atom_site_symmetry_multiplicity
 _atom_site_fract_x
 _atom_site_fract_y
 _atom_site_fract_z
 _atom_site_occupancy
  Y  Y0  1  0.75000000  0.48881000  0.16312700  1
  Y  Y1  1  0.75000000  0.98881000  0.33687300  1
  Y  Y2  1  0.25000000  0.51119000  0.83687300  1
  Y  Y3  1  0.25000000  0.01119000  0.66312700  1
  B  B0  1  0.91560000  0.13016800  0.96145100  1
  B  B1  1  0.58440000  0.63016800  0.53854900  1
  B  B2  1  0.41560000  0.86983200  0.03854900  1
  B  B3  1  0.08440000  0.36983200  0.46145100  1
  B  B4  1  0.08440000  0.86983200  0.03854900  1
  B  B5  1  0.41560000  0.36983200  0.46145100  1
  B  B6  1  0.58440000  0.13016800  0.96145100  1
  B  B7  1  0.91560000  0.63016800  0.53854900  1
  Ru  Ru0  1  0.75000000  0.31874000  0.68164800  1
  Ru  Ru1  1  0.75000000  0.81874000  0.81835200  1
  Ru  Ru2  1  0.25000000  0.68126000  0.31835200  1
  Ru  Ru3  1  0.25000000  0.18126000  0.18164800  1
loop_
_geom_bond_atom_site_label_1
_geom_bond_atom_site_label_2
_geom_bond_distance
_geom_bond_site_symmetry_2
B0 B6 1.764103 1_555
B0 B4 1.851447 1_646
B0 Ru1 2.238570 1_545
B0 Ru0 2.279381 1_555
B0 Ru3 2.286270 1_656
B0 Y0 2.634240 1_556
B0 Y1 2.680523 1_546
B0 Y3 2.696716 1_655
B0 Y2 2.982684 1_655
B1 B7 1.764103 1_555
B1 B5 1.851447 1_555
B1 Ru0 2.238570 1_555
B1 Ru1 2.279381 1_555
B1 Ru2 2.286270 1_555
B1 Y1 2.634240 1_555
B1 Y0 2.680523 1_555
B1 Y2 2.696716 1_555
B1 Y3 2.982684 1_565
B2 B4 1.764103 1_555
B2 B6 1.851447 1_564
B2 Ru3 2.238570 1_565
B2 Ru2 2.279381 1_555
B2 Ru1 2.286270 1_554
B2 Y2 2.634240 1_554
B2 Y3 2.680523 1_564
B2 Y1 2.696716 1_555
B2 Y0 2.982684 1_555
B3 B5 1.764103 1_555
B3 B7 1.851447 1_455
B3 Ru2 2.238570 1_555
B3 Ru3 2.279381 1_555
B3 Ru0 2.286270 1_455
B3 Y3 2.634240 1_555
B3 Y2 2.680523 1_555
B3 Y0 2.696716 1_455
B3 Y1 2.982684 1_445
B4 Ru3 2.238570 1_565
B4 Ru2 2.279381 1_555
B4 Ru1 2.286270 1_454
B4 Y2 2.634240 1_554
B4 Y3 2.680523 1_564
B4 Y1 2.696716 1_455
B4 Y0 2.982684 1_455
B5 Ru2 2.238570 1_555
B5 Ru3 2.279381 1_555
B5 Ru0 2.286270 1_555
B5 Y3 2.634240 1_555
B5 Y2 2.680523 1_555
B5 Y0 2.696716 1_555
B5 Y1 2.982684 1_545
B6 Ru1 2.238570 1_545
B6 Ru0 2.279381 1_555
B6 Ru3 2.286270 1_556
B6 Y0 2.634240 1_556
B6 Y1 2.680523 1_546
B6 Y3 2.696716 1_555
B6 Y2 2.982684 1_555
B7 Ru0 2.238570 1_555
B7 Ru1 2.279381 1_555
B7 Ru2 2.286270 1_655
B7 Y1 2.634240 1_555
B7 Y0 2.680523 1_555
B7 Y2 2.696716 1_655
B7 Y3 2.982684 1_665
Ru0 Y1 2.938191 1_545
Ru1 Y0 2.938191 1_556
Ru2 Y3 2.938191 1_565
Ru3 Y2 2.938191 1_554
