# generated using pymatgen
data_LiSc4(Si2O7)2
_symmetry_space_group_name_H-M   'P 1'
_cell_length_a   6.77295953
_cell_length_b   6.77296025
_cell_length_c   6.77296013
_cell_angle_alpha   58.61158879
_cell_angle_beta   58.61158697
_cell_angle_gamma   58.61158547
_symmetry_Int_Tables_number   1
_chemical_formula_structural   LiSc4(Si2O7)2
_chemical_formula_sum   'Li1 Sc4 Si4 O14'
_cell_volume   212.72179889
_cell_formula_units_Z   1
loop_
 _symmetry_equiv_pos_site_id
 _symmetry_equiv_pos_as_xyz
  1  'x, y, z'
loop_
 _atom_site_type_symbol
 _atom_site_label
 _atom_site_symmetry_multiplicity
 _atom_site_fract_x
 _atom_site_fract_y
 _atom_site_fract_z
 _atom_site_occupancy
  Li  Li0  1  0.24346000  0.24346000  0.24346000  1
  Sc  Sc0  1  0.97475600  0.51204100  0.97475600  1
  Sc  Sc1  1  0.51204100  0.97475600  0.97475600  1
  Sc  Sc2  1  0.97475600  0.97475600  0.51204100  1
  Sc  Sc3  1  0.00172100  0.00172100  0.00172100  1
  Si  Si0  1  0.50129900  0.99806700  0.50129900  1
  Si  Si1  1  0.99806700  0.50129900  0.50129900  1
  Si  Si2  1  0.50129900  0.50129900  0.99806700  1
  Si  Si3  1  0.50447700  0.50447700  0.50447700  1
  O  O0  1  0.42562300  0.82173300  0.82173300  1
  O  O1  1  0.17405800  0.57628300  0.57628300  1
  O  O2  1  0.82173300  0.42562300  0.82173300  1
  O  O3  1  0.82173300  0.82173300  0.42562300  1
  O  O4  1  0.42619100  0.42619100  0.82836500  1
  O  O5  1  0.42619100  0.82836500  0.42619100  1
  O  O6  1  0.18302100  0.57502500  0.18302100  1
  O  O7  1  0.57628300  0.17405800  0.57628300  1
  O  O8  1  0.12756600  0.12756600  0.12756600  1
  O  O9  1  0.88303000  0.88303000  0.88303000  1
  O  O10  1  0.82836500  0.42619100  0.42619100  1
  O  O11  1  0.57628300  0.57628300  0.17405800  1
  O  O12  1  0.18302100  0.18302100  0.57502500  1
  O  O13  1  0.57502500  0.18302100  0.18302100  1
loop_
_geom_bond_atom_site_label_1
_geom_bond_atom_site_label_2
_geom_bond_distance
_geom_bond_site_symmetry_2
Li0 O13 1.907247 1_555
Li0 O12 1.907247 1_555
Li0 O6 1.907247 1_555
Li0 O8 1.942644 1_555
Li0 O10 2.305233 1_455
Li0 O5 2.305233 1_545
Li0 O4 2.305233 1_554
O0 Si0 1.782730 1_555
O0 Si2 1.782730 1_555
O0 Sc1 2.207633 1_555
O0 Sc3 2.339136 1_566
O1 Si3 1.860164 1_555
O1 Si1 1.861860 1_455
O1 Sc2 2.211085 1_455
O1 Sc0 2.211085 1_455
O2 Si2 1.782730 1_555
O2 Si1 1.782730 1_555
O2 Sc0 2.207633 1_555
O2 Sc3 2.339136 1_656
O3 Si0 1.782730 1_555
O3 Si1 1.782730 1_555
O3 Sc2 2.207633 1_555
O3 Sc3 2.339136 1_665
O4 Si3 1.801146 1_555
O4 Si2 1.823824 1_555
O4 Sc0 2.502099 1_455
O4 Sc1 2.502099 1_545
O5 Si3 1.801146 1_555
O5 Si0 1.823824 1_555
O5 Sc2 2.502099 1_455
O5 Sc1 2.502099 1_554
O6 Si2 1.784071 1_554
O6 Si1 1.784072 1_455
O6 Sc3 2.354815 1_565
O7 Si3 1.860164 1_555
O7 Si0 1.861860 1_545
O7 Sc2 2.211085 1_545
O7 Sc1 2.211085 1_545
O8 Sc1 2.103402 1_544
O8 Sc0 2.103402 1_454
O8 Sc2 2.103402 1_445
O8 Sc3 2.109445 1_555
O9 Sc3 1.989528 1_666
O9 Sc1 2.058016 1_555
O9 Sc2 2.058016 1_555
O9 Sc0 2.058016 1_555
O10 Si3 1.801146 1_555
O10 Si1 1.823824 1_555
O10 Sc0 2.502099 1_554
O10 Sc2 2.502099 1_545
O11 Si3 1.860164 1_555
O11 Si2 1.861860 1_554
O11 Sc0 2.211085 1_554
O11 Sc1 2.211085 1_554
O12 Si0 1.784071 1_545
O12 Si1 1.784072 1_455
O12 Sc3 2.354815 1_556
O13 Si2 1.784072 1_554
O13 Si0 1.784072 1_545
O13 Sc3 2.354815 1_655
