# generated using pymatgen
data_CsUPNO9
_symmetry_space_group_name_H-M   'P 1'
_cell_length_a   7.16298100
_cell_length_b   7.68476137
_cell_length_c   9.87133806
_cell_angle_alpha   71.02151228
_cell_angle_beta   74.98508086
_cell_angle_gamma   79.48371583
_symmetry_Int_Tables_number   1
_chemical_formula_structural   CsUPNO9
_chemical_formula_sum   'Cs2 U2 P2 N2 O18'
_cell_volume   493.41447831
_cell_formula_units_Z   2
loop_
 _symmetry_equiv_pos_site_id
 _symmetry_equiv_pos_as_xyz
  1  'x, y, z'
loop_
 _atom_site_type_symbol
 _atom_site_label
 _atom_site_symmetry_multiplicity
 _atom_site_fract_x
 _atom_site_fract_y
 _atom_site_fract_z
 _atom_site_occupancy
  Cs  Cs0  1  0.29124600  0.66920200  0.82043100  1
  Cs  Cs1  1  0.70875400  0.33079800  0.17956900  1
  U  U0  1  0.74210700  0.26831500  0.68586200  1
  U  U1  1  0.25789300  0.73168500  0.31413800  1
  P  P0  1  0.73160400  0.71659800  0.41358800  1
  P  P1  1  0.26839600  0.28340200  0.58641200  1
  N  N0  1  0.76589500  0.86100300  0.83255700  1
  N  N1  1  0.23410500  0.13899700  0.16744300  1
  O  O0  1  0.70768100  0.57620300  0.56899700  1
  O  O1  1  0.29231900  0.42379700  0.43100300  1
  O  O2  1  0.65672200  0.31510800  0.86219700  1
  O  O3  1  0.34327800  0.68489200  0.13780300  1
  O  O4  1  0.94141300  0.68939600  0.32486600  1
  O  O5  1  0.05858700  0.31060400  0.67513400  1
  O  O6  1  0.58308800  0.69166500  0.33410700  1
  O  O7  1  0.41691200  0.30833500  0.66589300  1
  O  O8  1  0.61180000  0.95150900  0.79069200  1
  O  O9  1  0.38820000  0.04849100  0.20930800  1
  O  O10  1  0.82417600  0.21962500  0.51127000  1
  O  O11  1  0.17582400  0.78037500  0.48873000  1
  O  O12  1  0.90517700  0.95859200  0.81125400  1
  O  O13  1  0.09482300  0.04140800  0.18874600  1
  O  O14  1  0.69085600  0.91936300  0.41965300  1
  O  O15  1  0.30914400  0.08063700  0.58034700  1
  O  O16  1  0.78180600  0.69156800  0.88876100  1
  O  O17  1  0.21819400  0.30843200  0.11123900  1
loop_
_geom_bond_atom_site_label_1
_geom_bond_atom_site_label_2
_geom_bond_distance
_geom_bond_site_symmetry_2
Cs0 O12 3.217952 1_455
Cs0 O15 3.278212 1_565
Cs0 O17 3.282618 1_556
Cs0 O3 3.291736 1_556
Cs0 O8 3.334631 1_555
Cs0 O11 3.385266 1_555
Cs0 O2 3.414250 1_555
Cs0 O7 3.457863 1_555
Cs0 O0 3.479697 1_555
Cs0 O16 3.517333 1_455
Cs1 O13 3.217952 1_655
Cs1 O14 3.278212 1_545
Cs1 O16 3.282618 1_554
Cs1 O2 3.291736 1_554
Cs1 O9 3.334631 1_555
Cs1 O10 3.385266 1_555
Cs1 O3 3.414250 1_555
Cs1 O6 3.457863 1_555
Cs1 O1 3.479697 1_555
Cs1 O17 3.517333 1_655
N0 O16 1.234872 1_555
N0 O8 1.281415 1_555
N0 O12 1.289896 1_555
N1 O17 1.234872 1_555
N1 O9 1.281415 1_555
N1 O13 1.289896 1_555
O0 P0 1.549701 1_555
O0 U0 2.269116 1_555
O1 P1 1.549701 1_555
O1 U1 2.269116 1_555
O2 U0 1.818929 1_555
O3 U1 1.818929 1_555
O4 P0 1.546523 1_555
O4 U1 2.319050 1_655
O5 P1 1.546523 1_555
O5 U0 2.319050 1_455
O6 P0 1.545523 1_555
O6 U1 2.344433 1_555
O7 P1 1.545523 1_555
O7 U0 2.344433 1_555
O8 U0 2.561174 1_565
O9 U1 2.561174 1_545
O10 U0 1.808336 1_555
O11 U1 1.808336 1_555
O12 U0 2.525799 1_565
O13 U1 2.525799 1_545
O14 P0 1.549959 1_555
O15 P1 1.549959 1_555
