# generated using pymatgen
data_CuH18C6(SeCl2)2
_symmetry_space_group_name_H-M   'P 1'
_cell_length_a   12.43391900
_cell_length_b   9.81715500
_cell_length_c   15.93918826
_cell_angle_alpha   90.00000000
_cell_angle_beta   107.76750066
_cell_angle_gamma   90.00000000
_symmetry_Int_Tables_number   1
_chemical_formula_structural   CuH18C6(SeCl2)2
_chemical_formula_sum   'Cu4 H72 C24 Se8 Cl16'
_cell_volume   1852.82699078
_cell_formula_units_Z   4
loop_
 _symmetry_equiv_pos_site_id
 _symmetry_equiv_pos_as_xyz
  1  'x, y, z'
loop_
 _atom_site_type_symbol
 _atom_site_label
 _atom_site_symmetry_multiplicity
 _atom_site_fract_x
 _atom_site_fract_y
 _atom_site_fract_z
 _atom_site_occupancy
  Cu  Cu0  1  0.25104200  0.82628800  0.39151900  1
  Cu  Cu1  1  0.74895800  0.32628800  0.10848100  1
  Cu  Cu2  1  0.74895800  0.17371200  0.60848100  1
  Cu  Cu3  1  0.25104200  0.67371200  0.89151900  1
  H  H0  1  0.86357400  0.93911200  0.17731100  1
  H  H1  1  0.13642600  0.43911200  0.32268900  1
  H  H2  1  0.13642600  0.06088800  0.82268900  1
  H  H3  1  0.86357400  0.56088800  0.67731100  1
  H  H4  1  0.87170400  0.75386300  0.19131200  1
  H  H5  1  0.12829600  0.25386300  0.30868800  1
  H  H6  1  0.12829600  0.24613700  0.80868800  1
  H  H7  1  0.87170400  0.74613700  0.69131200  1
  H  H8  1  0.98563500  0.86152500  0.25577500  1
  H  H9  1  0.01436500  0.36152500  0.24422500  1
  H  H10  1  0.01436500  0.13847500  0.74422500  1
  H  H11  1  0.98563500  0.63847500  0.75577500  1
  H  H12  1  0.89668200  0.79841500  0.94457000  1
  H  H13  1  0.10331800  0.29841500  0.55543000  1
  H  H14  1  0.10331800  0.20158500  0.05543000  1
  H  H15  1  0.89668200  0.70158500  0.44457000  1
  H  H16  1  0.80945700  0.89691100  0.99438500  1
  H  H17  1  0.19054300  0.39691100  0.50561500  1
  H  H18  1  0.19054300  0.10308900  0.00561500  1
  H  H19  1  0.80945700  0.60308900  0.49438500  1
  H  H20  1  0.82150400  0.71299900  0.01119300  1
  H  H21  1  0.17849600  0.21299900  0.48880700  1
  H  H22  1  0.17849600  0.28700100  0.98880700  1
  H  H23  1  0.82150400  0.78700100  0.51119300  1
  H  H24  1  0.58337500  0.68801000  0.82767700  1
  H  H25  1  0.41662500  0.18801000  0.67232300  1
  H  H26  1  0.41662500  0.31199000  0.17232300  1
  H  H27  1  0.58337500  0.81199000  0.32767700  1
  H  H28  1  0.69571900  0.74968000  0.78724300  1
  H  H29  1  0.30428100  0.24968000  0.71275700  1
  H  H30  1  0.30428100  0.25032000  0.21275700  1
  H  H31  1  0.69571900  0.75032000  0.28724300  1
  H  H32  1  0.63691100  0.58103800  0.75641300  1
  H  H33  1  0.36308900  0.08103800  0.74358700  1
  H  H34  1  0.36308900  0.41896200  0.24358700  1
  H  H35  1  0.63691100  0.91896200  0.25641300  1
  H  H36  1  0.09479100  0.64067600  0.07191700  1
  H  H37  1  0.90520900  0.14067600  0.42808300  1
  H  H38  1  0.90520900  0.35932400  0.92808300  1
  H  H39  1  0.09479100  0.85932400  0.57191700  1
  H  H40  1  0.12148400  0.66453600  0.18903700  1
  H  H41  1  0.87851600  0.16453600  0.31096300  1
  H  H42  1  0.87851600  0.33546400  0.81096300  1
  H  H43  1  0.12148400  0.83546400  0.68903700  1
  H  H44  1  0.98802500  0.59038600  0.12339300  1
  H  H45  1  0.01197500  0.09038600  0.37660700  1
  H  H46  1  0.01197500  0.40961400  0.87660700  1
  H  H47  1  0.98802500  0.90961400  0.62339300  1
  H  H48  1  0.64547600  0.80711200  0.58844600  1
  H  H49  1  0.35452400  0.30711200  0.91155400  1
  H  H50  1  0.35452400  0.19288800  0.41155400  1
  H  H51  1  0.64547600  0.69288800  0.08844600  1
  H  H52  1  0.61370100  0.62553000  0.59223300  1
  H  H53  1  0.38629900  0.12553000  0.90776700  1
  H  H54  1  0.38629900  0.37447000  0.40776700  1
  H  H55  1  0.61370100  0.87447000  0.09223300  1
  H  H56  1  0.51325400  0.73959700  0.51834700  1
  H  H57  1  0.48674600  0.23959700  0.98165300  1
  H  H58  1  0.48674600  0.26040300  0.48165300  1
  H  H59  1  0.51325400  0.76040300  0.01834700  1
  H  H60  1  0.36205800  0.62036000  0.70046600  1
  H  H61  1  0.63794200  0.12036000  0.79953400  1
  H  H62  1  0.63794200  0.37964000  0.29953400  1
  H  H63  1  0.36205800  0.87964000  0.20046600  1
  H  H64  1  0.43878000  0.53140500  0.63585500  1
  H  H65  1  0.56122000  0.03140500  0.86414500  1
  H  H66  1  0.56122000  0.46859500  0.36414500  1
  H  H67  1  0.43878000  0.96859500  0.13585500  1
  H  H68  1  0.33219800  0.65834800  0.58429600  1
  H  H69  1  0.66780200  0.15834800  0.91570400  1
  H  H70  1  0.66780200  0.34165200  0.41570400  1
  H  H71  1  0.33219800  0.84165200  0.08429600  1
  C  C0  1  0.57997800  0.72955400  0.58170200  1
  C  C1  1  0.42002200  0.22955400  0.91829800  1
  C  C2  1  0.42002200  0.27044600  0.41829800  1
  C  C3  1  0.57997800  0.77044600  0.08170200  1
  C  C4  1  0.91837000  0.84920900  0.19308100  1
  C  C5  1  0.08163000  0.34920900  0.30691900  1
  C  C6  1  0.08163000  0.15079100  0.80691900  1
  C  C7  1  0.91837000  0.65079100  0.69308100  1
  C  C8  1  0.86351400  0.80696000  0.00070100  1
  C  C9  1  0.13648600  0.30696000  0.49929900  1
  C  C10  1  0.13648600  0.19304000  0.99929900  1
  C  C11  1  0.86351400  0.69304000  0.50070100  1
  C  C12  1  0.62016800  0.68551000  0.77332500  1
  C  C13  1  0.37983200  0.18551000  0.72667500  1
  C  C14  1  0.37983200  0.31449000  0.22667500  1
  C  C15  1  0.62016800  0.81449000  0.27332500  1
  C  C16  1  0.05674700  0.66090900  0.12439200  1
  C  C17  1  0.94325300  0.16090900  0.37560800  1
  C  C18  1  0.94325300  0.33909100  0.87560800  1
  C  C19  1  0.05674700  0.83909100  0.62439200  1
  C  C20  1  0.39667900  0.62592400  0.64491400  1
  C  C21  1  0.60332100  0.12592400  0.85508600  1
  C  C22  1  0.60332100  0.37407600  0.35508600  1
  C  C23  1  0.39667900  0.87407600  0.14491400  1
  Se  Se0  1  0.99486900  0.84484100  0.10274500  1
  Se  Se1  1  0.00513100  0.34484100  0.39725500  1
  Se  Se2  1  0.00513100  0.15515900  0.89725500  1
  Se  Se3  1  0.99486900  0.65515900  0.60274500  1
  Se  Se4  1  0.50889000  0.77100600  0.67249300  1
  Se  Se5  1  0.49111000  0.27100600  0.82750700  1
  Se  Se6  1  0.49111000  0.22899400  0.32750700  1
  Se  Se7  1  0.50889000  0.72899400  0.17249300  1
  Cl  Cl0  1  0.22191300  0.99200500  0.28601600  1
  Cl  Cl1  1  0.77808700  0.49200500  0.21398400  1
  Cl  Cl2  1  0.77808700  0.00799500  0.71398400  1
  Cl  Cl3  1  0.22191300  0.50799500  0.78601600  1
  Cl  Cl4  1  0.35032200  0.67189800  0.33715800  1
  Cl  Cl5  1  0.64967800  0.17189800  0.16284200  1
  Cl  Cl6  1  0.64967800  0.32810200  0.66284200  1
  Cl  Cl7  1  0.35032200  0.82810200  0.83715800  1
  Cl  Cl8  1  0.29334300  0.95848300  0.51309200  1
  Cl  Cl9  1  0.70665700  0.45848300  0.98690800  1
  Cl  Cl10  1  0.70665700  0.04151700  0.48690800  1
  Cl  Cl11  1  0.29334300  0.54151700  0.01309200  1
  Cl  Cl12  1  0.12658500  0.68154600  0.42694800  1
  Cl  Cl13  1  0.87341500  0.18154600  0.07305200  1
  Cl  Cl14  1  0.87341500  0.31845400  0.57305200  1
  Cl  Cl15  1  0.12658500  0.81845400  0.92694800  1
loop_
_geom_bond_atom_site_label_1
_geom_bond_atom_site_label_2
_geom_bond_distance
_geom_bond_site_symmetry_2
C0 H48 1.095946 1_555
C0 H52 1.097237 1_555
C0 H56 1.098390 1_555
C0 Se4 1.954929 1_555
C1 H49 1.095946 1_555
C1 H53 1.097237 1_555
C1 H57 1.098390 1_555
C1 Se5 1.954929 1_555
C2 H50 1.095946 1_555
C2 H54 1.097237 1_555
C2 H58 1.098390 1_555
C2 Se6 1.954929 1_555
C3 H51 1.095946 1_555
C3 H55 1.097237 1_555
C3 H59 1.098390 1_555
C3 Se7 1.954929 1_555
C4 H0 1.096284 1_555
C4 H8 1.096645 1_555
C4 H4 1.097103 1_555
C4 Se0 1.953388 1_555
C5 H1 1.096284 1_555
C5 H9 1.096645 1_555
C5 H5 1.097103 1_555
C5 Se1 1.953388 1_555
C6 H2 1.096284 1_555
C6 H10 1.096645 1_555
C6 H6 1.097103 1_555
C6 Se2 1.953388 1_555
C7 H3 1.096284 1_555
C7 H11 1.096645 1_555
C7 H7 1.097103 1_555
C7 Se3 1.953388 1_555
C8 H16 1.095632 1_554
C8 H12 1.096706 1_554
C8 H20 1.097727 1_555
C8 Se0 1.957049 1_555
C9 H17 1.095632 1_555
C9 H13 1.096706 1_555
C9 H21 1.097727 1_555
C9 Se1 1.957049 1_555
C10 H18 1.095632 1_556
C10 H14 1.096706 1_556
C10 H22 1.097727 1_555
C10 Se2 1.957049 1_555
C11 H19 1.095632 1_555
C11 H15 1.096706 1_555
C11 H23 1.097727 1_555
C11 Se3 1.957049 1_555
C12 H28 1.096060 1_555
C12 H32 1.096424 1_555
C12 H24 1.096493 1_555
C12 Se4 1.960802 1_555
C13 H29 1.096060 1_555
C13 H33 1.096424 1_555
C13 H25 1.096493 1_555
C13 Se5 1.960802 1_555
C14 H30 1.096060 1_555
C14 H34 1.096424 1_555
C14 H26 1.096493 1_555
C14 Se6 1.960802 1_555
C15 H31 1.096060 1_555
C15 H35 1.096424 1_555
C15 H27 1.096493 1_555
C15 Se7 1.960802 1_555
C16 H44 1.096093 1_455
C16 H36 1.097391 1_555
C16 H40 1.097588 1_555
C16 Se0 1.951794 1_455
C17 H45 1.096093 1_655
C17 H37 1.097391 1_555
C17 H41 1.097588 1_555
C17 Se1 1.951794 1_655
C18 H46 1.096093 1_655
C18 H38 1.097391 1_555
C18 H42 1.097588 1_555
C18 Se2 1.951794 1_655
C19 H47 1.096093 1_455
C19 H39 1.097391 1_555
C19 H43 1.097588 1_555
C19 Se3 1.951794 1_455
C20 H64 1.096369 1_555
C20 H68 1.097677 1_555
C20 H60 1.097702 1_555
C20 Se4 1.947864 1_555
C21 H65 1.096369 1_555
C21 H69 1.097677 1_555
C21 H61 1.097702 1_555
C21 Se5 1.947864 1_555
C22 H66 1.096369 1_555
C22 H70 1.097677 1_555
C22 H62 1.097702 1_555
C22 Se6 1.947864 1_555
C23 H67 1.096369 1_555
C23 H71 1.097677 1_555
C23 H63 1.097702 1_555
C23 Se7 1.947864 1_555
Cl0 Cu0 2.287805 1_555
Cl1 Cu1 2.287805 1_555
Cl2 Cu2 2.287805 1_555
Cl3 Cu3 2.287805 1_555
Cl4 Cu0 2.285751 1_555
Cl5 Cu1 2.285751 1_555
Cl6 Cu2 2.285751 1_555
Cl7 Cu3 2.285751 1_555
Cl8 Cu0 2.256947 1_555
Cl9 Cu1 2.256947 1_556
Cl10 Cu2 2.256947 1_555
Cl11 Cu3 2.256947 1_554
Cl12 Cu0 2.294791 1_555
Cl13 Cu1 2.294791 1_555
Cl14 Cu2 2.294791 1_555
Cl15 Cu3 2.294791 1_555
