# generated using pymatgen
data_Li2CoO3
_symmetry_space_group_name_H-M   'P 1'
_cell_length_a   6.31436836
_cell_length_b   6.31436836
_cell_length_c   6.00552868
_cell_angle_alpha   75.53658218
_cell_angle_beta   75.53658218
_cell_angle_gamma   27.24871736
_symmetry_Int_Tables_number   1
_chemical_formula_structural   Li2CoO3
_chemical_formula_sum   'Li4 Co2 O6'
_cell_volume   105.94999414
_cell_formula_units_Z   2
loop_
 _symmetry_equiv_pos_site_id
 _symmetry_equiv_pos_as_xyz
  1  'x, y, z'
loop_
 _atom_site_type_symbol
 _atom_site_label
 _atom_site_symmetry_multiplicity
 _atom_site_fract_x
 _atom_site_fract_y
 _atom_site_fract_z
 _atom_site_occupancy
  Li  Li0  1  0.66285400  0.66285400  0.66338200  1
  Li  Li1  1  0.00000000  0.00000000  0.00000000  1
  Li  Li2  1  0.33714600  0.33714600  0.33661800  1
  Li  Li3  1  0.00000000  0.00000000  0.50000000  1
  Co  Co0  1  0.33846200  0.33846200  0.81935100  1
  Co  Co1  1  0.66153800  0.66153800  0.18064900  1
  O  O0  1  0.82134300  0.82134300  0.07247300  1
  O  O1  1  0.16919600  0.16919600  0.39347000  1
  O  O2  1  0.48498500  0.48498500  0.76200500  1
  O  O3  1  0.51501500  0.51501500  0.23799500  1
  O  O4  1  0.83080400  0.83080400  0.60653000  1
  O  O5  1  0.17865700  0.17865700  0.92752700  1
loop_
_geom_bond_atom_site_label_1
_geom_bond_atom_site_label_2
_geom_bond_distance
_geom_bond_site_symmetry_2
Li0 O4 2.000962 1_555
Li0 O2 2.109963 1_555
Li0 O1 2.186559 1_565
Li0 O1 2.186559 1_655
Li0 O5 2.219125 1_565
Li0 O5 2.219125 1_655
Li1 O3 2.103452 1_545
Li1 O2 2.103452 1_454
Li1 O3 2.103452 1_455
Li1 O2 2.103452 1_544
Li1 O0 2.122957 1_445
Li1 O5 2.122957 1_554
Li2 O1 2.000962 1_555
Li2 O3 2.109963 1_555
Li2 O4 2.186559 1_545
Li2 O4 2.186559 1_455
Li2 O0 2.219125 1_545
Li2 O0 2.219125 1_455
Li3 O4 2.009662 1_445
Li3 O1 2.009662 1_555
Li3 O3 2.138472 1_545
Li3 O2 2.138472 1_455
Li3 O3 2.138472 1_455
Li3 O2 2.138472 1_545
Co0 O2 1.741917 1_555
Co0 O5 1.901055 1_555
Co0 O4 1.978998 1_455
Co0 O4 1.978998 1_545
Co0 O0 2.098354 1_456
Co0 O0 2.098354 1_546
Co1 O3 1.741917 1_555
Co1 O0 1.901055 1_555
Co1 O1 1.978998 1_565
Co1 O1 1.978998 1_655
Co1 O5 2.098354 1_654
Co1 O5 2.098354 1_564
