# generated using pymatgen
data_YbInRh
_symmetry_space_group_name_H-M   'P 1'
_cell_length_a   4.19224200
_cell_length_b   7.22546900
_cell_length_c   8.52988100
_cell_angle_alpha   90.00000000
_cell_angle_beta   90.00000000
_cell_angle_gamma   90.00000000
_symmetry_Int_Tables_number   1
_chemical_formula_structural   YbInRh
_chemical_formula_sum   'Yb4 In4 Rh4'
_cell_volume   258.37789702
_cell_formula_units_Z   4
loop_
 _symmetry_equiv_pos_site_id
 _symmetry_equiv_pos_as_xyz
  1  'x, y, z'
loop_
 _atom_site_type_symbol
 _atom_site_label
 _atom_site_symmetry_multiplicity
 _atom_site_fract_x
 _atom_site_fract_y
 _atom_site_fract_z
 _atom_site_occupancy
  Yb  Yb0  1  0.25000000  0.02830600  0.17624300  1
  Yb  Yb1  1  0.75000000  0.97169400  0.82375700  1
  Yb  Yb2  1  0.25000000  0.52830600  0.32375700  1
  Yb  Yb3  1  0.75000000  0.47169400  0.67624300  1
  In  In0  1  0.75000000  0.35184800  0.06252700  1
  In  In1  1  0.25000000  0.64815200  0.93747300  1
  In  In2  1  0.75000000  0.85184800  0.43747300  1
  In  In3  1  0.25000000  0.14815200  0.56252700  1
  Rh  Rh0  1  0.25000000  0.76768400  0.63322800  1
  Rh  Rh1  1  0.75000000  0.23231600  0.36677200  1
  Rh  Rh2  1  0.25000000  0.26768400  0.86677200  1
  Rh  Rh3  1  0.75000000  0.73231600  0.13322800  1
loop_
_geom_bond_atom_site_label_1
_geom_bond_atom_site_label_2
_geom_bond_distance
_geom_bond_site_symmetry_2
In0 Rh1 2.735116 1_555
In0 Rh2 2.748028 1_654
In0 Rh2 2.748028 1_554
In0 Rh3 2.814431 1_555
In0 Yb0 3.286280 1_555
In0 Yb0 3.286280 1_655
In0 Yb2 3.314283 1_555
In0 Yb2 3.314283 1_655
In0 Yb3 3.406846 1_554
In0 Yb1 3.419492 1_544
In1 Rh0 2.735116 1_555
In1 Rh3 2.748028 1_456
In1 Rh3 2.748028 1_556
In1 Rh2 2.814431 1_555
In1 Yb1 3.286280 1_555
In1 Yb1 3.286280 1_455
In1 Yb3 3.314283 1_455
In1 Yb3 3.314283 1_555
In1 Yb2 3.406846 1_556
In1 Yb0 3.419492 1_566
In2 Rh3 2.735116 1_555
In2 Rh0 2.748028 1_655
In2 Rh0 2.748028 1_555
In2 Rh1 2.814431 1_565
In2 Yb2 3.286280 1_555
In2 Yb2 3.286280 1_655
In2 Yb0 3.314283 1_665
In2 Yb0 3.314283 1_565
In2 Yb1 3.406846 1_555
In2 Yb3 3.419492 1_555
In3 Rh2 2.735116 1_555
In3 Rh1 2.748028 1_555
In3 Rh1 2.748028 1_455
In3 Rh0 2.814431 1_545
In3 Yb3 3.286280 1_455
In3 Yb3 3.286280 1_555
In3 Yb1 3.314283 1_445
In3 Yb1 3.314283 1_545
In3 Yb0 3.406846 1_555
In3 Yb2 3.419492 1_555
Rh0 Yb3 3.016992 1_555
Rh0 Yb3 3.016992 1_455
Rh0 Yb1 3.034442 1_455
Rh0 Yb1 3.034442 1_555
Rh0 Yb2 3.155925 1_555
Rh1 Yb2 3.016992 1_555
Rh1 Yb2 3.016992 1_655
Rh1 Yb0 3.034442 1_555
Rh1 Yb0 3.034442 1_655
Rh1 Yb3 3.155925 1_555
Rh2 Yb1 3.016992 1_545
Rh2 Yb1 3.016992 1_445
Rh2 Yb3 3.034442 1_555
Rh2 Yb3 3.034442 1_455
Rh2 Yb0 3.155925 1_556
Rh3 Yb0 3.016992 1_565
Rh3 Yb0 3.016992 1_665
Rh3 Yb2 3.034442 1_655
Rh3 Yb2 3.034442 1_555
Rh3 Yb1 3.155925 1_554
