# generated using pymatgen
data_Ba2NaTi2MnRe2Si8HO26F
_symmetry_space_group_name_H-M   'P 1'
_cell_length_a   7.28867737
_cell_length_b   7.28867737
_cell_length_c   21.34398400
_cell_angle_alpha   90.00000000
_cell_angle_beta   90.00000000
_cell_angle_gamma   95.22598318
_symmetry_Int_Tables_number   1
_chemical_formula_structural   Ba2NaTi2MnRe2Si8HO26F
_chemical_formula_sum   'Ba4 Na2 Ti4 Mn2 Re4 Si16 H2 O52 F2'
_cell_volume   1129.18188111
_cell_formula_units_Z   2
loop_
 _symmetry_equiv_pos_site_id
 _symmetry_equiv_pos_as_xyz
  1  'x, y, z'
loop_
 _atom_site_type_symbol
 _atom_site_label
 _atom_site_symmetry_multiplicity
 _atom_site_fract_x
 _atom_site_fract_y
 _atom_site_fract_z
 _atom_site_occupancy
  Ba  Ba0  1  0.38447600  0.56027200  0.25000000  1
  Ba  Ba1  1  0.56027200  0.38447600  0.75000000  1
  Ba  Ba2  1  0.91632500  0.98317700  0.25000000  1
  Ba  Ba3  1  0.98317700  0.91632500  0.75000000  1
  Na  Na0  1  0.95386600  0.95386600  0.00000000  1
  Na  Na1  1  0.95386600  0.95386600  0.50000000  1
  Ti  Ti0  1  0.87680100  0.49949400  0.18581100  1
  Ti  Ti1  1  0.49949400  0.87680100  0.81418900  1
  Ti  Ti2  1  0.49949400  0.87680100  0.68581100  1
  Ti  Ti3  1  0.87680100  0.49949400  0.31418900  1
  Mn  Mn0  1  0.32176500  0.32176500  0.00000000  1
  Mn  Mn1  1  0.32176500  0.32176500  0.50000000  1
  Re  Re0  1  0.92059500  0.46033000  0.02386900  1
  Re  Re1  1  0.46033000  0.92059500  0.97613100  1
  Re  Re2  1  0.46033000  0.92059500  0.52386900  1
  Re  Re3  1  0.92059500  0.46033000  0.47613100  1
  Si  Si0  1  0.16410000  0.20869800  0.12858100  1
  Si  Si1  1  0.20869800  0.16410000  0.87141900  1
  Si  Si2  1  0.20869800  0.16410000  0.62858100  1
  Si  Si3  1  0.16410000  0.20869800  0.37141900  1
  Si  Si4  1  0.19871800  0.79067300  0.09807900  1
  Si  Si5  1  0.79067300  0.19871800  0.90192100  1
  Si  Si6  1  0.79067300  0.19871800  0.59807900  1
  Si  Si7  1  0.19871800  0.79067300  0.40192100  1
  Si  Si8  1  0.20962600  0.57513700  0.60446400  1
  Si  Si9  1  0.57513700  0.20962600  0.39553600  1
  Si  Si10  1  0.57513700  0.20962600  0.10446400  1
  Si  Si11  1  0.20962600  0.57513700  0.89553600  1
  Si  Si12  1  0.60590000  0.81817700  0.11822600  1
  Si  Si13  1  0.81817700  0.60590000  0.88177400  1
  Si  Si14  1  0.81817700  0.60590000  0.61822600  1
  Si  Si15  1  0.60590000  0.81817700  0.38177400  1
  H  H0  1  0.30543900  0.91814500  0.25000000  1
  H  H1  1  0.91814500  0.30543900  0.75000000  1
  O  O0  1  0.13267400  0.49351400  0.53717800  1
  O  O1  1  0.49351400  0.13267400  0.46282200  1
  O  O2  1  0.49351400  0.13267400  0.03717800  1
  O  O3  1  0.13267400  0.49351400  0.96282200  1
  O  O4  1  0.03023700  0.62665100  0.10001000  1
  O  O5  1  0.62665100  0.03023700  0.89999000  1
  O  O6  1  0.62665100  0.03023700  0.60001000  1
  O  O7  1  0.03023700  0.62665100  0.39999000  1
  O  O8  1  0.08944200  0.26909600  0.06020500  1
  O  O9  1  0.26909600  0.08944200  0.93979500  1
  O  O10  1  0.26909600  0.08944200  0.56020500  1
  O  O11  1  0.08944200  0.26909600  0.43979500  1
  O  O12  1  0.74151400  0.37592300  0.09954600  1
  O  O13  1  0.37592300  0.74151400  0.90045400  1
  O  O14  1  0.37592300  0.74151400  0.59954600  1
  O  O15  1  0.74151400  0.37592300  0.40045400  1
  O  O16  1  0.64544100  0.03565600  0.14463000  1
  O  O17  1  0.03565600  0.64544100  0.85537000  1
  O  O18  1  0.03565600  0.64544100  0.64463000  1
  O  O19  1  0.64544100  0.03565600  0.35537000  1
  O  O20  1  0.38760900  0.73833100  0.13319100  1
  O  O21  1  0.73833100  0.38760900  0.86680900  1
  O  O22  1  0.73833100  0.38760900  0.63319100  1
  O  O23  1  0.38760900  0.73833100  0.36680900  1
  O  O24  1  0.97993300  0.12616900  0.62965200  1
  O  O25  1  0.12616900  0.97993300  0.37034800  1
  O  O26  1  0.12616900  0.97993300  0.12965200  1
  O  O27  1  0.97993300  0.12616900  0.87034800  1
  O  O28  1  0.01884700  0.63110000  0.25000000  1
  O  O29  1  0.63110000  0.01884700  0.75000000  1
  O  O30  1  0.72226400  0.38526600  0.25000000  1
  O  O31  1  0.38526600  0.72226400  0.75000000  1
  O  O32  1  0.64295300  0.82994500  0.04272300  1
  O  O33  1  0.82994500  0.64295300  0.95727700  1
  O  O34  1  0.82994500  0.64295300  0.54272300  1
  O  O35  1  0.64295300  0.82994500  0.45727700  1
  O  O36  1  0.27976300  0.38662800  0.63838300  1
  O  O37  1  0.38662800  0.27976300  0.36161700  1
  O  O38  1  0.38662800  0.27976300  0.13838300  1
  O  O39  1  0.27976300  0.38662800  0.86161700  1
  O  O40  1  0.24297900  0.82757400  0.02466900  1
  O  O41  1  0.82757400  0.24297900  0.97533100  1
  O  O42  1  0.82757400  0.24297900  0.52466900  1
  O  O43  1  0.24297900  0.82757400  0.47533100  1
  O  O44  1  0.04852600  0.29981000  0.18291900  1
  O  O45  1  0.29981000  0.04852600  0.81708100  1
  O  O46  1  0.29981000  0.04852600  0.68291900  1
  O  O47  1  0.04852600  0.29981000  0.31708100  1
  O  O48  1  0.72170500  0.70418000  0.16805100  1
  O  O49  1  0.70418000  0.72170500  0.83194900  1
  O  O50  1  0.70418000  0.72170500  0.66805100  1
  O  O51  1  0.72170500  0.70418000  0.33194900  1
  F  F0  1  0.51491000  0.51491000  0.00000000  1
  F  F1  1  0.51491000  0.51491000  0.50000000  1
loop_
_geom_bond_atom_site_label_1
_geom_bond_atom_site_label_2
_geom_bond_distance
_geom_bond_site_symmetry_2
Ba0 H0 2.722032 1_555
Ba0 O28 2.760271 1_555
Ba0 O20 2.809865 1_555
Ba0 O23 2.809865 1_555
Ba0 O30 2.874149 1_555
Ba0 O48 3.119532 1_555
Ba0 O51 3.119532 1_555
Ba0 O37 3.140355 1_555
Ba0 O38 3.140355 1_555
Ba0 O44 3.286787 1_555
Ba0 O47 3.286787 1_555
Ba1 H1 2.722032 1_555
Ba1 O29 2.760271 1_555
Ba1 O21 2.809865 1_555
Ba1 O22 2.809865 1_555
Ba1 O31 2.874149 1_555
Ba1 O49 3.119532 1_555
Ba1 O50 3.119532 1_555
Ba1 O39 3.140355 1_555
Ba1 O36 3.140355 1_555
Ba1 O45 3.286787 1_555
Ba1 O46 3.286787 1_555
Ba2 O28 2.737327 1_655
Ba2 O47 2.810597 1_665
Ba2 O44 2.810597 1_665
Ba2 H0 2.917735 1_655
Ba2 O51 2.946411 1_555
Ba2 O48 2.946411 1_555
Ba2 O26 2.990773 1_655
Ba2 O25 2.990773 1_655
Ba2 O16 3.039762 1_565
Ba2 O19 3.039762 1_565
Ba2 O30 3.368203 1_565
Ba3 O29 2.737327 1_565
Ba3 O45 2.810597 1_665
Ba3 O46 2.810597 1_665
Ba3 H1 2.917735 1_565
Ba3 O49 2.946411 1_555
Ba3 O50 2.946411 1_555
Ba3 O27 2.990773 1_565
Ba3 O24 2.990773 1_565
Ba3 O18 3.039762 1_655
Ba3 O17 3.039762 1_655
Ba3 O31 3.368203 1_655
Na0 O40 2.432782 1_655
Na0 O41 2.432782 1_564
Na0 O32 2.531773 1_555
Na0 O33 2.531773 1_554
Na0 O8 2.737362 1_665
Na0 O9 2.737362 1_664
Na1 O42 2.432782 1_565
Na1 O43 2.432782 1_655
Na1 O34 2.531773 1_555
Na1 O35 2.531773 1_555
Na1 O10 2.737362 1_665
Na1 O11 2.737362 1_665
Mn0 O2 2.100128 1_555
Mn0 O3 2.100128 1_554
Mn0 O8 2.132504 1_555
Mn0 O9 2.132504 1_554
Mn1 O0 2.100128 1_555
Mn1 O1 2.100128 1_555
Mn1 O10 2.132504 1_555
Mn1 O11 2.132504 1_555
O0 Si8 1.634094 1_555
O0 Re3 2.019304 1_455
O1 Si9 1.634094 1_555
O1 Re2 2.019304 1_545
O2 Si10 1.634094 1_555
O2 Re1 2.019304 1_544
O3 Si11 1.634094 1_555
O3 Re0 2.019304 1_456
O4 Si4 1.634467 1_555
O4 Re0 2.138422 1_455
O4 Ti0 2.296658 1_455
O5 Si5 1.634467 1_555
O5 Re1 2.138422 1_545
O5 Ti1 2.296658 1_545
O6 Si6 1.634467 1_555
O6 Re2 2.138422 1_545
O6 Ti2 2.296658 1_545
O7 Si7 1.634467 1_555
O7 Re3 2.138422 1_455
O7 Ti3 2.296658 1_455
O8 Si0 1.632004 1_555
O8 Re0 2.090770 1_455
O9 Si1 1.632004 1_555
O9 Re1 2.090770 1_545
O10 Si2 1.632004 1_555
O10 Re2 2.090770 1_545
O11 Si3 1.632004 1_555
O11 Re3 2.090770 1_455
O12 Si10 1.637978 1_555
O12 Re0 2.131888 1_555
O12 Ti0 2.238727 1_555
O13 Si11 1.637978 1_555
O13 Re1 2.131888 1_555
O13 Ti1 2.238727 1_555
O14 Si8 1.637978 1_555
O14 Re2 2.131888 1_555
O14 Ti2 2.238727 1_555
O15 Si9 1.637978 1_555
O15 Re3 2.131888 1_555
O15 Ti3 2.238727 1_555
O16 Si10 1.650383 1_555
O16 Si12 1.682289 1_545
O17 Si11 1.650383 1_555
O17 Si13 1.682289 1_455
O18 Si8 1.650383 1_555
O18 Si14 1.682289 1_455
O19 Si9 1.650383 1_555
O19 Si15 1.682289 1_545
O20 Si4 1.642667 1_555
O20 Si12 1.674361 1_555
O21 Si5 1.642667 1_555
O21 Si13 1.674361 1_555
O22 Si6 1.642667 1_555
O22 Si14 1.674361 1_555
O23 Si7 1.642667 1_555
O23 Si15 1.674361 1_555
O24 Si6 1.664189 1_555
O24 Si2 1.665288 1_655
O25 Si7 1.664189 1_555
O25 Si3 1.665288 1_565
O26 Si4 1.664189 1_555
O26 Si0 1.665288 1_565
O27 Si5 1.664189 1_555
O27 Si1 1.665288 1_655
O28 Ti0 1.920456 1_455
O28 Ti3 1.920456 1_455
O29 Ti1 1.920456 1_545
O29 Ti2 1.920456 1_545
O30 Ti0 1.915224 1_555
O30 Ti3 1.915224 1_555
O31 Ti1 1.915224 1_555
O31 Ti2 1.915224 1_555
O32 Si12 1.634967 1_555
O32 Re1 2.094932 1_554
O33 Si13 1.634967 1_555
O33 Re0 2.094932 1_556
O34 Si14 1.634967 1_555
O34 Re3 2.094932 1_555
O35 Si15 1.634967 1_555
O35 Re2 2.094932 1_555
O36 Si2 1.670238 1_555
O36 Si8 1.673689 1_555
O37 Si3 1.670238 1_555
O37 Si9 1.673689 1_555
O38 Si0 1.670238 1_555
O38 Si10 1.673689 1_555
O39 Si1 1.670238 1_555
O39 Si11 1.673689 1_555
O40 Si4 1.617301 1_555
O40 Re1 1.961376 1_554
O41 Si5 1.617301 1_555
O41 Re0 1.961376 1_556
O42 Si6 1.617301 1_555
O42 Re3 1.961376 1_555
O43 Si7 1.617301 1_555
O43 Re2 1.961376 1_555
O44 Si0 1.611718 1_555
O44 Ti0 2.005136 1_455
O45 Si1 1.611718 1_555
O45 Ti1 2.005136 1_545
O46 Si2 1.611718 1_555
O46 Ti2 2.005136 1_545
O47 Si3 1.611718 1_555
O47 Ti3 2.005136 1_455
O48 Si12 1.631421 1_555
O48 Ti0 1.988608 1_555
O49 Si13 1.631421 1_555
O49 Ti1 1.988608 1_555
O50 Si14 1.631421 1_555
O50 Ti2 1.988608 1_555
O51 Si15 1.631421 1_555
O51 Ti3 1.988608 1_555
F0 Mn0 1.898056 1_555
F1 Mn1 1.898056 1_555
