# generated using pymatgen
data_Zn(WO2)2
_symmetry_space_group_name_H-M   'P 1'
_cell_length_a   6.45152073
_cell_length_b   6.45152073
_cell_length_c   15.51628650
_cell_angle_alpha   88.80143123
_cell_angle_beta   88.80143123
_cell_angle_gamma   59.26511032
_symmetry_Int_Tables_number   1
_chemical_formula_structural   Zn(WO2)2
_chemical_formula_sum   'Zn6 W12 O24'
_cell_volume   554.94878356
_cell_formula_units_Z   6
loop_
 _symmetry_equiv_pos_site_id
 _symmetry_equiv_pos_as_xyz
  1  'x, y, z'
loop_
 _atom_site_type_symbol
 _atom_site_label
 _atom_site_symmetry_multiplicity
 _atom_site_fract_x
 _atom_site_fract_y
 _atom_site_fract_z
 _atom_site_occupancy
  Zn  Zn0  1  0.16273100  0.16273100  0.95429200  1
  Zn  Zn1  1  0.49704200  0.49704200  0.62430700  1
  Zn  Zn2  1  0.49958400  0.49958400  0.99553300  1
  Zn  Zn3  1  0.83802800  0.83802800  0.29177200  1
  Zn  Zn4  1  0.16245900  0.16245900  0.71015900  1
  Zn  Zn5  1  0.50192900  0.50192900  0.37573800  1
  W  W0  1  0.16414300  0.65855100  0.83502700  1
  W  W1  1  0.65764600  0.65764600  0.83346600  1
  W  W2  1  0.50045500  0.99871600  0.50046600  1
  W  W3  1  0.65855100  0.16414300  0.83502700  1
  W  W4  1  0.82991000  0.82991000  0.66745500  1
  W  W5  1  0.99974300  0.99974300  0.50010200  1
  W  W6  1  0.83817400  0.33813400  0.16605600  1
  W  W7  1  0.99871600  0.50045500  0.50046600  1
  W  W8  1  0.33813400  0.83817400  0.16605600  1
  W  W9  1  0.17090000  0.17090000  0.33311700  1
  W  W10  1  0.33899000  0.33899000  0.16500100  1
  W  W11  1  0.83253700  0.83253700  0.04334100  1
  O  O0  1  0.34085700  0.34085700  0.91903300  1
  O  O1  1  0.49539700  0.49539700  0.75794300  1
  O  O2  1  0.33093600  0.81133400  0.91317000  1
  O  O3  1  0.81133400  0.33093600  0.91317000  1
  O  O4  1  0.51503200  0.98825400  0.75382000  1
  O  O5  1  0.67466200  0.67466200  0.58228700  1
  O  O6  1  0.98825400  0.51503200  0.75382000  1
  O  O7  1  0.81814200  0.81814200  0.90774900  1
  O  O8  1  0.67239700  0.14511800  0.58022200  1
  O  O9  1  0.83624700  0.83624700  0.42422700  1
  O  O10  1  0.98385100  0.98385100  0.75172000  1
  O  O11  1  0.14511800  0.67239700  0.58022200  1
  O  O12  1  0.85532700  0.32658300  0.41946900  1
  O  O13  1  0.01667800  0.01667800  0.24918500  1
  O  O14  1  0.32658300  0.85532700  0.41946900  1
  O  O15  1  0.16286900  0.16286900  0.57600100  1
  O  O16  1  0.17381900  0.17381900  0.09028000  1
  O  O17  1  0.01207800  0.48579500  0.24589000  1
  O  O18  1  0.32487600  0.32487600  0.41819200  1
  O  O19  1  0.48579500  0.01207800  0.24589000  1
  O  O20  1  0.18300000  0.67640200  0.09132300  1
  O  O21  1  0.50122000  0.50122000  0.24188300  1
  O  O22  1  0.67640200  0.18300000  0.09132300  1
  O  O23  1  0.64822300  0.64822300  0.07736600  1
loop_
_geom_bond_atom_site_label_1
_geom_bond_atom_site_label_2
_geom_bond_distance
_geom_bond_site_symmetry_2
O0 Zn0 2.058592 1_555
O0 Zn2 2.163281 1_555
O0 W0 2.182122 1_555
O0 W3 2.182122 1_555
O1 Zn1 2.073173 1_555
O1 W3 2.179937 1_555
O1 W0 2.179937 1_555
O1 W1 2.187957 1_555
O2 Zn0 2.059412 1_565
O2 Zn2 2.139177 1_555
O2 W1 2.182057 1_555
O2 W0 2.188228 1_555
O3 Zn0 2.059412 1_655
O3 Zn2 2.139177 1_555
O3 W1 2.182057 1_555
O3 W3 2.188228 1_555
O4 Zn4 2.077408 1_565
O4 W4 2.188225 1_555
O4 W1 2.203302 1_555
O4 W3 2.217030 1_565
O5 Zn1 2.081115 1_555
O5 W2 2.189221 1_555
O5 W7 2.189221 1_555
O5 W4 2.211065 1_555
O6 Zn4 2.077408 1_655
O6 W4 2.188225 1_555
O6 W1 2.203302 1_555
O6 W0 2.217030 1_655
O7 W11 2.113940 1_556
O7 W1 2.160669 1_555
O7 W0 2.215902 1_655
O7 W3 2.215902 1_565
O8 Zn1 2.076020 1_555
O8 W5 2.190782 1_545
O8 W4 2.197786 1_545
O8 W2 2.198029 1_545
O9 Zn3 2.054826 1_555
O9 W7 2.194279 1_555
O9 W2 2.194279 1_555
O9 W5 2.202806 1_555
O10 Zn4 2.089596 1_665
O10 W4 2.190672 1_555
O10 W0 2.209645 1_655
O10 W3 2.209645 1_565
O11 Zn1 2.076020 1_555
O11 W5 2.190782 1_455
O11 W4 2.197786 1_455
O11 W7 2.198029 1_455
O12 Zn5 2.081986 1_555
O12 W9 2.191137 1_655
O12 W5 2.193161 1_545
O12 W7 2.204954 1_555
O13 Zn3 2.094645 1_445
O13 W9 2.190027 1_555
O13 W6 2.190886 1_455
O13 W8 2.190886 1_545
O14 Zn5 2.081986 1_555
O14 W9 2.191137 1_565
O14 W5 2.193161 1_455
O14 W2 2.204954 1_555
O15 Zn4 2.081528 1_555
O15 W2 2.196861 1_545
O15 W7 2.196861 1_455
O15 W5 2.199506 1_445
O16 Zn0 2.116676 1_554
O16 W6 2.189643 1_455
O16 W8 2.189643 1_545
O16 W10 2.208898 1_555
O17 Zn3 2.087522 1_455
O17 W10 2.194937 1_555
O17 W9 2.196405 1_555
O17 W6 2.213752 1_455
O18 Zn5 2.077047 1_555
O18 W9 2.198748 1_555
O18 W7 2.202810 1_455
O18 W2 2.202810 1_545
O19 Zn3 2.087522 1_545
O19 W10 2.194937 1_555
O19 W9 2.196405 1_555
O19 W8 2.213752 1_545
O20 W11 2.095772 1_455
O20 W8 2.145331 1_555
O20 W10 2.182454 1_555
O20 Zn2 2.290076 1_554
O21 Zn5 2.077139 1_555
O21 W8 2.196343 1_555
O21 W6 2.196343 1_555
O21 W10 2.199564 1_555
O22 W11 2.095772 1_545
O22 W6 2.145331 1_555
O22 W10 2.182454 1_555
O22 Zn2 2.290076 1_554
O23 Zn2 2.119722 1_554
O23 W11 2.121181 1_555
O23 W6 2.201642 1_555
O23 W8 2.201642 1_555
