# generated using pymatgen
data_Li8MnFe7(BO3)8
_symmetry_space_group_name_H-M   'P 1'
_cell_length_a   5.21371700
_cell_length_b   9.06145708
_cell_length_c   11.46525405
_cell_angle_alpha   111.85051995
_cell_angle_beta   102.51106087
_cell_angle_gamma   89.87352052
_symmetry_Int_Tables_number   1
_chemical_formula_structural   Li8MnFe7(BO3)8
_chemical_formula_sum   'Li8 Mn1 Fe7 B8 O24'
_cell_volume   488.96920722
_cell_formula_units_Z   1
loop_
 _symmetry_equiv_pos_site_id
 _symmetry_equiv_pos_as_xyz
  1  'x, y, z'
loop_
 _atom_site_type_symbol
 _atom_site_label
 _atom_site_symmetry_multiplicity
 _atom_site_fract_x
 _atom_site_fract_y
 _atom_site_fract_z
 _atom_site_occupancy
  Li  Li0  1  0.03038900  0.03901600  0.41647100  1
  Li  Li1  1  0.29548500  0.28524500  0.91664800  1
  Li  Li2  1  0.48274500  0.50744700  0.66799700  1
  Li  Li3  1  0.27140800  0.24374700  0.16741700  1
  Li  Li4  1  0.52908900  0.54057800  0.41695100  1
  Li  Li5  1  0.79659900  0.78464900  0.91659100  1
  Li  Li6  1  0.98136200  0.00635300  0.66704800  1
  Li  Li7  1  0.76901900  0.74413800  0.16686400  1
  Mn  Mn0  1  0.02173300  0.35526900  0.38348500  1
  Fe  Fe0  1  0.26833200  0.94277000  0.88373400  1
  Fe  Fe1  1  0.46986800  0.15592700  0.63131100  1
  Fe  Fe2  1  0.24923400  0.56406000  0.13185500  1
  Fe  Fe3  1  0.53006400  0.85556400  0.38356200  1
  Fe  Fe4  1  0.76674100  0.44110000  0.88280900  1
  Fe  Fe5  1  0.74952700  0.06373500  0.13195600  1
  Fe  Fe6  1  0.97002700  0.65636800  0.63266500  1
  B  B0  1  0.02428500  0.68691000  0.37651700  1
  B  B1  1  0.26598900  0.60424200  0.87600400  1
  B  B2  1  0.23560600  0.89348500  0.12587300  1
  B  B3  1  0.47206800  0.81570700  0.62644400  1
  B  B4  1  0.52434000  0.18300300  0.37505800  1
  B  B5  1  0.76521800  0.10399500  0.87588000  1
  B  B6  1  0.73524400  0.39370600  0.12535000  1
  B  B7  1  0.97267700  0.31523900  0.62768700  1
  O  O0  1  0.02398500  0.10742100  0.86292900  1
  O  O1  1  0.10224300  0.71309300  0.84517200  1
  O  O2  1  0.17123900  0.49264100  0.91677700  1
  O  O3  1  0.07886500  0.17013700  0.61333500  1
  O  O4  1  0.10313800  0.42765000  0.59906400  1
  O  O5  1  0.23690800  0.84634800  0.66606700  1
  O  O6  1  0.26924500  0.65767500  0.34568100  1
  O  O7  1  0.52529900  0.60758300  0.86340900  1
  O  O8  1  0.60159800  0.21340800  0.84595900  1
  O  O9  1  0.40126100  0.08209700  0.41700500  1
  O  O10  1  0.40686200  0.31514500  0.36198400  1
  O  O11  1  0.67075600  0.99174300  0.91607900  1
  O  O12  1  0.33912000  0.01329800  0.09565600  1
  O  O13  1  0.57906900  0.67074400  0.61312300  1
  O  O14  1  0.60141200  0.92732200  0.59666100  1
  O  O15  1  0.39942300  0.79154200  0.16609500  1
  O  O16  1  0.46434300  0.37477400  0.11234700  1
  O  O17  1  0.73643200  0.34556500  0.66627400  1
  O  O18  1  0.76951100  0.15076800  0.34403100  1
  O  O19  1  0.90191100  0.58581700  0.41824200  1
  O  O20  1  0.90030100  0.81712600  0.36251200  1
  O  O21  1  0.83937700  0.51410200  0.09635300  1
  O  O22  1  0.89947600  0.29080200  0.16449700  1
  O  O23  1  0.96437900  0.87415100  0.11217600  1
loop_
_geom_bond_atom_site_label_1
_geom_bond_atom_site_label_2
_geom_bond_distance
_geom_bond_site_symmetry_2
Li0 O18 1.922436 1_455
Li0 O20 1.945187 1_445
Li0 O9 1.971737 1_555
Li0 O3 2.080383 1_555
Li1 O8 1.947019 1_555
Li1 O0 1.968015 1_555
Li1 O2 1.986052 1_555
Li1 O16 2.063964 1_556
Li2 O13 1.915912 1_555
Li2 O17 1.970467 1_555
Li2 O4 1.991930 1_555
Li2 O7 2.040695 1_555
Li3 O16 1.912757 1_555
Li3 O22 1.980422 1_455
Li3 O12 2.001462 1_555
Li3 O10 2.034395 1_555
Li4 O6 1.946369 1_555
Li4 O10 1.962031 1_555
Li4 O19 1.983208 1_555
Li4 O13 2.071362 1_555
Li5 O1 1.948295 1_655
Li5 O7 1.963416 1_555
Li5 O11 1.988250 1_555
Li5 O23 2.061785 1_556
Li6 O3 1.913006 1_655
Li6 O5 1.965513 1_645
Li6 O14 1.992920 1_545
Li6 O0 2.045851 1_655
Li7 O23 1.910597 1_555
Li7 O15 1.972208 1_555
Li7 O21 2.000958 1_555
Li7 O20 2.042087 1_555
Mn0 O10 2.090301 1_555
Mn0 O19 2.096621 1_455
Mn0 O18 2.120578 1_455
Mn0 O4 2.249327 1_555
Mn0 O22 2.295196 1_455
Fe0 O0 2.007666 1_565
Fe0 O11 2.069079 1_555
Fe0 O1 2.105684 1_555
Fe0 O12 2.214707 1_566
Fe0 O5 2.284446 1_555
Fe1 O3 2.012815 1_555
Fe1 O17 2.074008 1_555
Fe1 O14 2.102017 1_545
Fe1 O9 2.238168 1_555
Fe1 O8 2.261549 1_555
Fe2 O16 2.016032 1_555
Fe2 O15 2.070722 1_555
Fe2 O21 2.104074 1_455
Fe2 O2 2.245833 1_554
Fe2 O6 2.254378 1_555
Fe3 O20 2.010463 1_555
Fe3 O9 2.081163 1_565
Fe3 O6 2.104373 1_555
Fe3 O14 2.226052 1_555
Fe3 O15 2.281746 1_555
Fe4 O7 2.007477 1_555
Fe4 O2 2.080991 1_655
Fe4 O8 2.092388 1_555
Fe4 O21 2.229164 1_556
Fe4 O17 2.273472 1_555
Fe5 O23 2.017176 1_545
Fe5 O22 2.072015 1_555
Fe5 O12 2.106538 1_555
Fe5 O18 2.237897 1_555
Fe5 O11 2.253702 1_544
Fe6 O13 2.011145 1_555
Fe6 O5 2.082134 1_655
Fe6 O4 2.107260 1_655
Fe6 O1 2.239942 1_655
Fe6 O19 2.243092 1_555
B0 O20 1.388743 1_455
B0 O19 1.391438 1_455
B0 O6 1.396677 1_555
B1 O7 1.391980 1_555
B1 O2 1.392617 1_555
B1 O1 1.397055 1_555
B2 O15 1.392275 1_555
B2 O23 1.392637 1_455
B2 O12 1.397701 1_565
B3 O5 1.390183 1_555
B3 O13 1.394408 1_555
B3 O14 1.397906 1_555
B4 O10 1.386353 1_555
B4 O9 1.393827 1_555
B4 O18 1.401359 1_555
B5 O0 1.390538 1_655
B5 O11 1.392524 1_545
B5 O8 1.396787 1_555
B6 O16 1.391882 1_555
B6 O22 1.394851 1_555
B6 O21 1.395096 1_555
B7 O17 1.390130 1_555
B7 O3 1.391972 1_655
B7 O4 1.398752 1_655
