# generated using pymatgen
data_Dy3Mg2TiS8
_symmetry_space_group_name_H-M   'P 1'
_cell_length_a   7.82014467
_cell_length_b   7.71035879
_cell_length_c   7.81852712
_cell_angle_alpha   59.53164093
_cell_angle_beta   60.02442035
_cell_angle_gamma   59.51742674
_symmetry_Int_Tables_number   1
_chemical_formula_structural   Dy3Mg2TiS8
_chemical_formula_sum   'Dy3 Mg2 Ti1 S8'
_cell_volume   330.99346475
_cell_formula_units_Z   1
loop_
 _symmetry_equiv_pos_site_id
 _symmetry_equiv_pos_as_xyz
  1  'x, y, z'
loop_
 _atom_site_type_symbol
 _atom_site_label
 _atom_site_symmetry_multiplicity
 _atom_site_fract_x
 _atom_site_fract_y
 _atom_site_fract_z
 _atom_site_occupancy
  Dy  Dy0  1  0.50000200  0.50001400  0.49998400  1
  Dy  Dy1  1  0.50000100  0.49999300  0.99999900  1
  Dy  Dy2  1  0.00000000  0.49999300  0.50001000  1
  Mg  Mg0  1  0.87543600  0.87358800  0.87551100  1
  Mg  Mg1  1  0.12456900  0.12641000  0.12449500  1
  Ti  Ti0  1  0.49999300  0.99999900  0.50000600  1
  S  S0  1  0.73308600  0.76556900  0.73314600  1
  S  S1  1  0.26695900  0.23442800  0.73183100  1
  S  S2  1  0.25438200  0.73656800  0.25444900  1
  S  S3  1  0.73188000  0.23437900  0.26692100  1
  S  S4  1  0.74560600  0.26343300  0.74553700  1
  S  S5  1  0.26812200  0.76562100  0.73307400  1
  S  S6  1  0.26691200  0.23442200  0.26686800  1
  S  S7  1  0.73305600  0.76557800  0.26817000  1
loop_
_geom_bond_atom_site_label_1
_geom_bond_atom_site_label_2
_geom_bond_distance
_geom_bond_site_symmetry_2
Dy0 S2 2.698307 1_555
Dy0 S4 2.698309 1_555
Dy0 S5 2.741981 1_555
Dy0 S3 2.741993 1_555
Dy0 S7 2.742426 1_555
Dy0 S1 2.742479 1_555
Dy1 S4 2.698418 1_555
Dy1 S2 2.698430 1_556
Dy1 S3 2.741735 1_556
Dy1 S5 2.741755 1_555
Dy1 S0 2.742709 1_555
Dy1 S6 2.742709 1_556
Dy2 S4 2.698896 1_455
Dy2 S2 2.698907 1_555
Dy2 S1 2.741647 1_555
Dy2 S7 2.741666 1_455
Dy2 S0 2.742145 1_455
Dy2 S6 2.742148 1_555
Mg0 S4 2.436320 1_565
Mg0 S7 2.508085 1_556
Mg0 S0 2.508143 1_555
Mg0 S5 2.508515 1_655
Mg1 S2 2.436301 1_545
Mg1 S6 2.508107 1_555
Mg1 S1 2.508114 1_554
Mg1 S3 2.508533 1_455
S0 Ti0 2.559025 1_555
S1 Ti0 2.559953 1_545
S3 Ti0 2.560847 1_545
S5 Ti0 2.560747 1_555
S6 Ti0 2.558949 1_545
S7 Ti0 2.559971 1_555
