# generated using pymatgen
data_Ca(BiO2)2
_symmetry_space_group_name_H-M   'P 1'
_cell_length_a   7.05530822
_cell_length_b   7.05530822
_cell_length_c   7.05530732
_cell_angle_alpha   59.92079545
_cell_angle_beta   59.92079545
_cell_angle_gamma   59.92079459
_symmetry_Int_Tables_number   1
_chemical_formula_structural   Ca(BiO2)2
_chemical_formula_sum   'Ca2 Bi4 O8'
_cell_volume   247.88596477
_cell_formula_units_Z   2
loop_
 _symmetry_equiv_pos_site_id
 _symmetry_equiv_pos_as_xyz
  1  'x, y, z'
loop_
 _atom_site_type_symbol
 _atom_site_label
 _atom_site_symmetry_multiplicity
 _atom_site_fract_x
 _atom_site_fract_y
 _atom_site_fract_z
 _atom_site_occupancy
  Ca  Ca0  1  0.00214500  0.00214500  0.00214500  1
  Ca  Ca1  1  0.62527000  0.62527000  0.62527000  1
  Bi  Bi0  1  0.24769900  0.24769900  0.24769900  1
  Bi  Bi1  1  0.62584200  0.11835300  0.62584200  1
  Bi  Bi2  1  0.62584200  0.62584200  0.11835300  1
  Bi  Bi3  1  0.11835300  0.62584200  0.62584200  1
  O  O0  1  0.85411100  0.38336800  0.38336800  1
  O  O1  1  0.38336800  0.38336800  0.85411100  1
  O  O2  1  0.38336800  0.85411100  0.38336800  1
  O  O3  1  0.37891500  0.37891500  0.37891500  1
  O  O4  1  0.86629700  0.86629700  0.86629700  1
  O  O5  1  0.86582700  0.40713000  0.86582700  1
  O  O6  1  0.86582700  0.86582700  0.40713000  1
  O  O7  1  0.40713000  0.86582700  0.86582700  1
loop_
_geom_bond_atom_site_label_1
_geom_bond_atom_site_label_2
_geom_bond_distance
_geom_bond_site_symmetry_2
Ca0 O6 2.330681 1_445
Ca0 O7 2.330681 1_544
Ca0 O5 2.330681 1_454
Ca0 O4 2.349116 1_444
Ca1 O7 2.404247 1_555
Ca1 O5 2.404247 1_555
Ca1 O6 2.404248 1_555
Ca1 O0 2.414099 1_555
Ca1 O2 2.414099 1_555
Ca1 O1 2.414099 1_555
Bi0 O1 2.265653 1_554
Bi0 O0 2.265653 1_455
Bi0 O2 2.265653 1_545
Bi0 O3 2.269019 1_555
Bi1 O6 2.352700 1_545
Bi1 O7 2.352700 1_545
Bi1 O4 2.399013 1_545
Bi1 O1 2.463081 1_555
Bi1 O0 2.463081 1_555
Bi1 O3 2.464008 1_555
Bi2 O7 2.352700 1_554
Bi2 O5 2.352700 1_554
Bi2 O4 2.399013 1_554
Bi2 O2 2.463081 1_555
Bi2 O0 2.463081 1_555
Bi2 O3 2.464008 1_555
Bi3 O6 2.352700 1_455
Bi3 O5 2.352700 1_455
Bi3 O4 2.399013 1_455
Bi3 O1 2.463081 1_555
Bi3 O2 2.463081 1_555
Bi3 O3 2.464008 1_555
