# generated using pymatgen
data_LiH2CN5
_symmetry_space_group_name_H-M   'P 1'
_cell_length_a   10.70748300
_cell_length_b   4.83603800
_cell_length_c   7.18046276
_cell_angle_alpha   76.28433295
_cell_angle_beta   90.00000000
_cell_angle_gamma   90.00000000
_symmetry_Int_Tables_number   1
_chemical_formula_structural   LiH2CN5
_chemical_formula_sum   'Li4 H8 C4 N20'
_cell_volume   361.21462757
_cell_formula_units_Z   4
loop_
 _symmetry_equiv_pos_site_id
 _symmetry_equiv_pos_as_xyz
  1  'x, y, z'
loop_
 _atom_site_type_symbol
 _atom_site_label
 _atom_site_symmetry_multiplicity
 _atom_site_fract_x
 _atom_site_fract_y
 _atom_site_fract_z
 _atom_site_occupancy
  Li  Li0  1  0.88436900  0.79504600  0.62916000  1
  Li  Li1  1  0.11563100  0.20495400  0.37084000  1
  Li  Li2  1  0.38436900  0.20495400  0.87084000  1
  Li  Li3  1  0.61563100  0.79504600  0.12916000  1
  H  H0  1  0.45036800  0.81377800  0.67735000  1
  H  H1  1  0.54963200  0.18622200  0.32265000  1
  H  H2  1  0.95036800  0.18622200  0.82265000  1
  H  H3  1  0.04963200  0.81377800  0.17735000  1
  H  H4  1  0.87427100  0.90874000  0.96900500  1
  H  H5  1  0.12572900  0.09126000  0.03099500  1
  H  H6  1  0.37427100  0.09126000  0.53099500  1
  H  H7  1  0.62572900  0.90874000  0.46900500  1
  C  C0  1  0.26166800  0.78073300  0.68107200  1
  C  C1  1  0.73833200  0.21926700  0.31892800  1
  C  C2  1  0.76166800  0.21926700  0.81892800  1
  C  C3  1  0.23833200  0.78073300  0.18107200  1
  N  N0  1  0.37148800  0.93675600  0.65644300  1
  N  N1  1  0.62851200  0.06324400  0.34355700  1
  N  N2  1  0.87148800  0.06324400  0.84355700  1
  N  N3  1  0.12851200  0.93675600  0.15644300  1
  N  N4  1  0.12670500  0.45525000  0.78636200  1
  N  N5  1  0.87329500  0.54475000  0.21363800  1
  N  N6  1  0.62670500  0.54475000  0.71363800  1
  N  N7  1  0.37329500  0.45525000  0.28636200  1
  N  N8  1  0.15096200  0.88459600  0.60899800  1
  N  N9  1  0.84903800  0.11540400  0.39100200  1
  N  N10  1  0.65096200  0.11540400  0.89100200  1
  N  N11  1  0.34903800  0.88459600  0.10899800  1
  N  N12  1  0.25023200  0.51364200  0.79021500  1
  N  N13  1  0.74976800  0.48635800  0.20978500  1
  N  N14  1  0.75023200  0.48635800  0.70978500  1
  N  N15  1  0.24976800  0.51364200  0.29021500  1
  N  N16  1  0.06843900  0.67413000  0.67880400  1
  N  N17  1  0.93156100  0.32587000  0.32119600  1
  N  N18  1  0.56843900  0.32587000  0.82119600  1
  N  N19  1  0.43156100  0.67413000  0.17880400  1
loop_
_geom_bond_atom_site_label_1
_geom_bond_atom_site_label_2
_geom_bond_distance
_geom_bond_site_symmetry_2
Li0 N9 2.052162 1_565
Li0 N14 2.053468 1_555
Li0 N16 2.062695 1_655
Li0 N2 2.240111 1_565
Li1 N8 2.052162 1_545
Li1 N15 2.053468 1_555
Li1 N17 2.062695 1_455
Li1 N3 2.240111 1_545
Li2 N11 2.052162 1_546
Li2 N12 2.053468 1_555
Li2 N18 2.062695 1_555
Li2 N0 2.240111 1_545
Li3 N10 2.052162 1_564
Li3 N13 2.053468 1_555
Li3 N19 2.062695 1_555
Li3 N1 2.240111 1_565
H0 N0 1.023356 1_555
H1 N1 1.023356 1_555
H2 N2 1.023356 1_555
H3 N3 1.023356 1_555
H4 N2 1.025382 1_565
H5 N3 1.025382 1_545
H6 N0 1.025382 1_545
H7 N1 1.025382 1_565
C0 N8 1.342381 1_555
C0 N12 1.348162 1_555
C0 N0 1.385658 1_555
C1 N9 1.342381 1_555
C1 N13 1.348162 1_555
C1 N1 1.385658 1_555
C2 N10 1.342381 1_555
C2 N14 1.348162 1_555
C2 N2 1.385658 1_555
C3 N11 1.342381 1_555
C3 N15 1.348162 1_555
C3 N3 1.385658 1_555
N10 N18 1.351313 1_555
N11 N19 1.351313 1_555
N12 N4 1.354123 1_555
N13 N5 1.354123 1_555
N14 N6 1.354123 1_555
N15 N7 1.354123 1_555
N16 N4 1.310909 1_555
N16 N8 1.351313 1_555
N17 N5 1.310909 1_555
N17 N9 1.351313 1_555
N18 N6 1.310909 1_555
N19 N7 1.310909 1_555
