# generated using pymatgen
data_V3(FeO6)2
_symmetry_space_group_name_H-M   'P 1'
_cell_length_a   8.58407500
_cell_length_b   9.44732400
_cell_length_c   12.28725500
_cell_angle_alpha   90.00000000
_cell_angle_beta   90.00000000
_cell_angle_gamma   90.00000000
_symmetry_Int_Tables_number   1
_chemical_formula_structural   V3(FeO6)2
_chemical_formula_sum   'V12 Fe8 O48'
_cell_volume   996.45383914
_cell_formula_units_Z   4
loop_
 _symmetry_equiv_pos_site_id
 _symmetry_equiv_pos_as_xyz
  1  'x, y, z'
loop_
 _atom_site_type_symbol
 _atom_site_label
 _atom_site_symmetry_multiplicity
 _atom_site_fract_x
 _atom_site_fract_y
 _atom_site_fract_z
 _atom_site_occupancy
  V  V0  1  0.96375800  0.32105400  0.53834800  1
  V  V1  1  0.46375800  0.17894600  0.46165200  1
  V  V2  1  0.53624200  0.67894600  0.03834800  1
  V  V3  1  0.03624200  0.82105400  0.96165200  1
  V  V4  1  0.75538000  0.67217500  0.36421400  1
  V  V5  1  0.25538000  0.82782500  0.63578600  1
  V  V6  1  0.74462000  0.32782500  0.86421400  1
  V  V7  1  0.24462000  0.17217500  0.13578600  1
  V  V8  1  0.74925700  0.74562400  0.64437500  1
  V  V9  1  0.24925700  0.75437600  0.35562500  1
  V  V10  1  0.75074300  0.25437600  0.14437500  1
  V  V11  1  0.25074300  0.24562400  0.85562500  1
  Fe  Fe0  1  0.43483100  0.45316100  0.25724200  1
  Fe  Fe1  1  0.93483100  0.04683900  0.74275800  1
  Fe  Fe2  1  0.06516900  0.54683900  0.75724200  1
  Fe  Fe3  1  0.56516900  0.95316100  0.24275800  1
  Fe  Fe4  1  0.55997300  0.05617800  0.71547600  1
  Fe  Fe5  1  0.05997300  0.44382200  0.28452400  1
  Fe  Fe6  1  0.94002700  0.94382200  0.21547600  1
  Fe  Fe7  1  0.44002700  0.55617800  0.78452400  1
  O  O0  1  0.06570100  0.43341400  0.62359000  1
  O  O1  1  0.56570100  0.06658600  0.37641000  1
  O  O2  1  0.43429900  0.56658600  0.12359000  1
  O  O3  1  0.93429900  0.93341400  0.87641000  1
  O  O4  1  0.04837200  0.32466000  0.40436200  1
  O  O5  1  0.54837200  0.17534000  0.59563800  1
  O  O6  1  0.45162800  0.67534000  0.90436200  1
  O  O7  1  0.95162800  0.82466000  0.09563800  1
  O  O8  1  0.77645300  0.37912700  0.53270500  1
  O  O9  1  0.27645300  0.12087300  0.46729500  1
  O  O10  1  0.72354700  0.62087300  0.03270500  1
  O  O11  1  0.22354700  0.87912700  0.96729500  1
  O  O12  1  0.94265800  0.15526000  0.60151900  1
  O  O13  1  0.44265800  0.34474000  0.39848100  1
  O  O14  1  0.55734200  0.84474000  0.10151900  1
  O  O15  1  0.05734200  0.65526000  0.89848100  1
  O  O16  1  0.72029600  0.73058400  0.50190900  1
  O  O17  1  0.22029600  0.76941600  0.49809100  1
  O  O18  1  0.77970400  0.26941600  0.00190900  1
  O  O19  1  0.27970400  0.23058400  0.99809100  1
  O  O20  1  0.93166400  0.58978500  0.36093200  1
  O  O21  1  0.43166400  0.91021500  0.63906800  1
  O  O22  1  0.56833600  0.41021500  0.86093200  1
  O  O23  1  0.06833600  0.08978500  0.13906800  1
  O  O24  1  0.75894200  0.82748900  0.28235400  1
  O  O25  1  0.25894200  0.67251100  0.71764600  1
  O  O26  1  0.74105800  0.17251100  0.78235400  1
  O  O27  1  0.24105800  0.32748900  0.21764600  1
  O  O28  1  0.61188800  0.56329700  0.31928900  1
  O  O29  1  0.11188800  0.93670300  0.68071100  1
  O  O30  1  0.88811200  0.43670300  0.81928900  1
  O  O31  1  0.38811200  0.06329700  0.18071100  1
  O  O32  1  0.54979800  0.95374000  0.84060600  1
  O  O33  1  0.04979800  0.54626000  0.15939400  1
  O  O34  1  0.95020200  0.04626000  0.34060600  1
  O  O35  1  0.45020200  0.45374000  0.65939400  1
  O  O36  1  0.92718100  0.68359900  0.67866100  1
  O  O37  1  0.42718100  0.81640100  0.32133900  1
  O  O38  1  0.57281900  0.31640100  0.17866100  1
  O  O39  1  0.07281900  0.18359900  0.82133900  1
  O  O40  1  0.61007500  0.64865300  0.71004000  1
  O  O41  1  0.11007500  0.85134700  0.28996000  1
  O  O42  1  0.88992500  0.35134700  0.21004000  1
  O  O43  1  0.38992500  0.14865300  0.78996000  1
  O  O44  1  0.74833000  0.92954600  0.68352100  1
  O  O45  1  0.24833000  0.57045400  0.31647900  1
  O  O46  1  0.75167000  0.07045400  0.18352100  1
  O  O47  1  0.25167000  0.42954600  0.81647900  1
loop_
_geom_bond_atom_site_label_1
_geom_bond_atom_site_label_2
_geom_bond_distance
_geom_bond_site_symmetry_2
Fe0 O2 1.960903 1_555
Fe0 O28 1.993455 1_555
Fe0 O38 2.001155 1_555
Fe0 O13 2.016291 1_555
Fe0 O45 2.078625 1_555
Fe0 O27 2.100732 1_555
Fe1 O3 1.960903 1_545
Fe1 O29 1.993455 1_645
Fe1 O39 2.001155 1_655
Fe1 O12 2.016291 1_555
Fe1 O44 2.078625 1_545
Fe1 O26 2.100732 1_555
Fe2 O0 1.960903 1_555
Fe2 O30 1.993455 1_455
Fe2 O36 2.001155 1_455
Fe2 O15 2.016291 1_555
Fe2 O47 2.078625 1_555
Fe2 O25 2.100732 1_555
Fe3 O1 1.960903 1_565
Fe3 O31 1.993455 1_565
Fe3 O37 2.001155 1_555
Fe3 O14 2.016291 1_555
Fe3 O46 2.078625 1_565
Fe3 O24 2.100732 1_555
Fe4 O32 1.818823 1_545
Fe4 O5 1.856194 1_555
Fe4 O43 1.931731 1_555
Fe4 O21 1.999018 1_545
Fe4 O44 2.049305 1_545
Fe4 O26 2.073512 1_555
Fe5 O33 1.818823 1_555
Fe5 O4 1.856194 1_555
Fe5 O42 1.931731 1_455
Fe5 O20 1.999018 1_455
Fe5 O45 2.049305 1_555
Fe5 O27 2.073512 1_555
Fe6 O34 1.818823 1_565
Fe6 O7 1.856194 1_555
Fe6 O41 1.931731 1_655
Fe6 O23 1.999018 1_665
Fe6 O46 2.049305 1_565
Fe6 O24 2.073512 1_555
Fe7 O35 1.818823 1_555
Fe7 O6 1.856194 1_555
Fe7 O40 1.931731 1_555
Fe7 O22 1.999018 1_555
Fe7 O47 2.049305 1_555
Fe7 O25 2.073512 1_555
O0 V0 1.729042 1_455
O1 V1 1.729042 1_555
O2 V2 1.729042 1_555
O3 V3 1.729042 1_655
O4 V0 1.799747 1_455
O5 V1 1.799747 1_555
O6 V2 1.799747 1_556
O7 V3 1.799747 1_654
O8 V0 1.700282 1_555
O9 V1 1.700282 1_555
O10 V2 1.700282 1_555
O11 V3 1.700282 1_555
O12 V0 1.757446 1_555
O13 V1 1.757446 1_555
O14 V2 1.757446 1_555
O15 V3 1.757446 1_555
O16 V8 1.773781 1_555
O16 V4 1.804909 1_555
O17 V9 1.773781 1_555
O17 V5 1.804909 1_555
O18 V10 1.773781 1_555
O18 V6 1.804909 1_554
O19 V11 1.773781 1_555
O19 V7 1.804909 1_556
O20 V4 1.702163 1_555
O21 V5 1.702163 1_555
O22 V6 1.702163 1_555
O23 V7 1.702163 1_555
O24 V4 1.779217 1_555
O25 V5 1.779217 1_555
O26 V6 1.779217 1_555
O27 V7 1.779217 1_555
O28 V4 1.697038 1_555
O29 V5 1.697038 1_555
O30 V6 1.697038 1_555
O31 V7 1.697038 1_555
O36 V8 1.689238 1_555
O37 V9 1.689238 1_555
O38 V10 1.689238 1_555
O39 V11 1.689238 1_555
O40 V8 1.708124 1_555
O41 V9 1.708124 1_555
O42 V10 1.708124 1_555
O43 V11 1.708124 1_555
O44 V8 1.802935 1_555
O45 V9 1.802935 1_555
O46 V10 1.802935 1_555
O47 V11 1.802935 1_555
