# generated using pymatgen
data_GePtS
_symmetry_space_group_name_H-M   'P 1'
_cell_length_a   5.89401767
_cell_length_b   5.93671752
_cell_length_c   5.86820870
_cell_angle_alpha   90.00000000
_cell_angle_beta   90.00000000
_cell_angle_gamma   90.00000000
_symmetry_Int_Tables_number   1
_chemical_formula_structural   GePtS
_chemical_formula_sum   'Ge4 Pt4 S4'
_cell_volume   205.33518286
_cell_formula_units_Z   4
loop_
 _symmetry_equiv_pos_site_id
 _symmetry_equiv_pos_as_xyz
  1  'x, y, z'
loop_
 _atom_site_type_symbol
 _atom_site_label
 _atom_site_symmetry_multiplicity
 _atom_site_fract_x
 _atom_site_fract_y
 _atom_site_fract_z
 _atom_site_occupancy
  Ge  Ge0  1  0.88690196  0.86832711  0.61232224  1
  Ge  Ge1  1  0.11309804  0.13167289  0.11232224  1
  Ge  Ge2  1  0.61309804  0.86832711  0.11232224  1
  Ge  Ge3  1  0.38690196  0.13167289  0.61232224  1
  Pt  Pt0  1  0.49727609  0.24996025  0.99887588  1
  Pt  Pt1  1  0.50272391  0.75003975  0.49887588  1
  Pt  Pt2  1  0.00272391  0.24996025  0.49887588  1
  Pt  Pt3  1  -0.00272391  0.75003975  0.99887588  1
  S  S0  1  0.11349892  0.63698750  0.38780288  1
  S  S1  1  0.88650108  0.36301250  0.88780288  1
  S  S2  1  0.38650108  0.63698750  0.88780288  1
  S  S3  1  0.61349892  0.36301250  0.38780288  1
loop_
_geom_bond_atom_site_label_1
_geom_bond_atom_site_label_2
_geom_bond_distance
_geom_bond_site_symmetry_2
Ge0 S0 2.325045 1_655
Ge0 Pt2 2.458124 1_665
Ge0 Pt3 2.462090 1_655
Ge0 Pt1 2.462442 1_555
Ge1 S1 2.325045 1_454
Ge1 Pt3 2.458124 1_544
Ge1 Pt2 2.462090 1_555
Ge1 Pt0 2.462442 1_554
Ge2 S2 2.325045 1_554
Ge2 Pt0 2.458124 1_564
Ge2 Pt1 2.462090 1_555
Ge2 Pt3 2.462442 1_654
Ge3 S3 2.325045 1_555
Ge3 Pt1 2.458124 1_545
Ge3 Pt0 2.462090 1_555
Ge3 Pt2 2.462442 1_555
Pt0 S3 2.475605 1_556
Pt0 S2 2.475970 1_555
Pt0 S1 2.477537 1_555
Pt1 S2 2.475605 1_555
Pt1 S3 2.475970 1_555
Pt1 S0 2.477537 1_555
Pt2 S1 2.475605 1_455
Pt2 S0 2.475970 1_555
Pt2 S3 2.477537 1_455
Pt3 S0 2.475605 1_556
Pt3 S1 2.475970 1_455
Pt3 S2 2.477537 1_555
