# generated using pymatgen
data_U2(Al3Rh)3
_symmetry_space_group_name_H-M   'P 1'
_cell_length_a   7.60554213
_cell_length_b   7.60554213
_cell_length_c   9.40623500
_cell_angle_alpha   90.00000000
_cell_angle_beta   90.00000000
_cell_angle_gamma   119.45965656
_symmetry_Int_Tables_number   1
_chemical_formula_structural   U2(Al3Rh)3
_chemical_formula_sum   'U4 Al18 Rh6'
_cell_volume   473.74629153
_cell_formula_units_Z   2
loop_
 _symmetry_equiv_pos_site_id
 _symmetry_equiv_pos_as_xyz
  1  'x, y, z'
loop_
 _atom_site_type_symbol
 _atom_site_label
 _atom_site_symmetry_multiplicity
 _atom_site_fract_x
 _atom_site_fract_y
 _atom_site_fract_z
 _atom_site_occupancy
  U  U0  1  0.99510400  0.66916700  0.25000000  1
  U  U1  1  0.00489600  0.33083300  0.75000000  1
  U  U2  1  0.66916700  0.99510400  0.25000000  1
  U  U3  1  0.33083300  0.00489600  0.75000000  1
  Al  Al0  1  0.12704800  0.12704800  0.25000000  1
  Al  Al1  1  0.87295200  0.87295200  0.75000000  1
  Al  Al2  1  0.00214400  0.33469500  0.07437600  1
  Al  Al3  1  0.99785600  0.66530500  0.92562400  1
  Al  Al4  1  0.99785600  0.66530500  0.57437600  1
  Al  Al5  1  0.33469500  0.00214400  0.42562400  1
  Al  Al6  1  0.00214400  0.33469500  0.42562400  1
  Al  Al7  1  0.66530500  0.99785600  0.57437600  1
  Al  Al8  1  0.66530500  0.99785600  0.92562400  1
  Al  Al9  1  0.33469500  0.00214400  0.07437600  1
  Al  Al10  1  0.33445300  0.33445300  0.55577300  1
  Al  Al11  1  0.66554700  0.66554700  0.44422700  1
  Al  Al12  1  0.66554700  0.66554700  0.05577300  1
  Al  Al13  1  0.33445300  0.33445300  0.94422700  1
  Al  Al14  1  0.33934600  0.54723100  0.25000000  1
  Al  Al15  1  0.66065400  0.45276900  0.75000000  1
  Al  Al16  1  0.54723100  0.33934600  0.25000000  1
  Al  Al17  1  0.45276900  0.66065400  0.75000000  1
  Rh  Rh0  1  0.67260800  0.32739200  0.00000000  1
  Rh  Rh1  1  0.32739200  0.67260800  0.00000000  1
  Rh  Rh2  1  0.32739200  0.67260800  0.50000000  1
  Rh  Rh3  1  0.67260800  0.32739200  0.50000000  1
  Rh  Rh4  1  0.00000000  0.00000000  0.00000000  1
  Rh  Rh5  1  0.00000000  0.00000000  0.50000000  1
loop_
_geom_bond_atom_site_label_1
_geom_bond_atom_site_label_2
_geom_bond_distance
_geom_bond_site_symmetry_2
Al0 Rh4 2.545348 1_555
Al0 Rh5 2.545348 1_555
Al0 U0 3.113994 1_445
Al0 U2 3.113994 1_445
Al1 Rh4 2.545348 1_666
Al1 Rh5 2.545348 1_665
Al1 U3 3.113994 1_665
Al1 U1 3.113994 1_665
Al2 Rh0 2.576264 1_455
Al2 Rh4 2.632230 1_555
Al2 Rh1 2.638228 1_555
Al2 U1 3.051469 1_554
Al2 U0 3.055641 1_455
Al2 U2 3.062586 1_445
Al3 Rh1 2.576264 1_656
Al3 Rh4 2.632230 1_666
Al3 Rh0 2.638228 1_556
Al3 U0 3.051469 1_556
Al3 U1 3.055641 1_655
Al3 U3 3.062586 1_665
Al4 Rh2 2.576264 1_655
Al4 Rh5 2.632230 1_665
Al4 Rh3 2.638228 1_555
Al4 U0 3.051469 1_555
Al4 U1 3.055641 1_655
Al4 U3 3.062586 1_665
Al5 Rh2 2.576264 1_545
Al5 Rh5 2.632230 1_555
Al5 Rh3 2.638228 1_555
Al5 U3 3.051469 1_555
Al5 U2 3.055641 1_545
Al5 U0 3.062586 1_445
Al6 Rh3 2.576264 1_455
Al6 Rh5 2.632230 1_555
Al6 Rh2 2.638228 1_555
Al6 U1 3.051469 1_555
Al6 U0 3.055641 1_455
Al6 U2 3.062586 1_445
Al7 Rh3 2.576264 1_565
Al7 Rh5 2.632230 1_665
Al7 Rh2 2.638228 1_555
Al7 U2 3.051469 1_555
Al7 U3 3.055641 1_565
Al7 U1 3.062586 1_665
Al8 Rh0 2.576264 1_566
Al8 Rh4 2.632230 1_666
Al8 Rh1 2.638228 1_556
Al8 U2 3.051469 1_556
Al8 U3 3.055641 1_565
Al8 U1 3.062586 1_665
Al9 Rh1 2.576264 1_545
Al9 Rh4 2.632230 1_555
Al9 Rh0 2.638228 1_555
Al9 U3 3.051469 1_554
Al9 U2 3.055641 1_545
Al9 U0 3.062586 1_445
Al10 Rh5 2.617554 1_555
Al10 Rh2 2.651109 1_555
Al10 Rh3 2.651109 1_555
Al10 U1 3.090784 1_555
Al10 U3 3.090784 1_555
Al11 Rh5 2.617554 1_665
Al11 Rh2 2.651109 1_555
Al11 Rh3 2.651109 1_555
Al11 U2 3.090784 1_555
Al11 U0 3.090784 1_555
Al12 Rh4 2.617554 1_665
Al12 Rh0 2.651109 1_555
Al12 Rh1 2.651109 1_555
Al12 U2 3.090784 1_555
Al12 U0 3.090784 1_555
Al13 Rh4 2.617554 1_556
Al13 Rh1 2.651109 1_556
Al13 Rh0 2.651109 1_556
Al13 U3 3.090784 1_555
Al13 U1 3.090784 1_555
Al14 Rh2 2.555904 1_555
Al14 Rh1 2.555904 1_555
Al14 U2 3.080701 1_555
Al14 U0 3.178525 1_455
Al15 Rh0 2.555904 1_556
Al15 Rh3 2.555904 1_555
Al15 U3 3.080701 1_555
Al15 U1 3.178525 1_655
Al16 Rh0 2.555904 1_555
Al16 Rh3 2.555904 1_555
Al16 U0 3.080701 1_555
Al16 U2 3.178525 1_545
Al17 Rh2 2.555904 1_555
Al17 Rh1 2.555904 1_556
Al17 U1 3.080701 1_555
Al17 U3 3.178525 1_565
Rh0 U2 3.442724 1_545
Rh0 U1 3.442724 1_654
Rh0 U3 3.468632 1_554
Rh0 U0 3.468632 1_555
Rh1 U0 3.442724 1_455
Rh1 U3 3.442724 1_564
Rh1 U1 3.468632 1_554
Rh1 U2 3.468632 1_555
Rh2 U0 3.442724 1_455
Rh2 U3 3.442724 1_565
Rh2 U1 3.468632 1_555
Rh2 U2 3.468632 1_555
Rh3 U2 3.442724 1_545
Rh3 U1 3.442724 1_655
Rh3 U3 3.468632 1_555
Rh3 U0 3.468632 1_555
Rh4 U3 3.430764 1_554
Rh4 U1 3.430764 1_554
Rh4 U2 3.430764 1_445
Rh4 U0 3.430764 1_445
Rh5 U1 3.430764 1_555
Rh5 U3 3.430764 1_555
Rh5 U2 3.430764 1_445
Rh5 U0 3.430764 1_445
