# generated using pymatgen
data_Lu3Bi(Ru2O7)2
_symmetry_space_group_name_H-M   'P 1'
_cell_length_a   7.18981313
_cell_length_b   7.18981313
_cell_length_c   7.18981416
_cell_angle_alpha   60.07021217
_cell_angle_beta   60.07021217
_cell_angle_gamma   60.07021198
_symmetry_Int_Tables_number   1
_chemical_formula_structural   Lu3Bi(Ru2O7)2
_chemical_formula_sum   'Lu3 Bi1 Ru4 O14'
_cell_volume   263.22574515
_cell_formula_units_Z   1
loop_
 _symmetry_equiv_pos_site_id
 _symmetry_equiv_pos_as_xyz
  1  'x, y, z'
loop_
 _atom_site_type_symbol
 _atom_site_label
 _atom_site_symmetry_multiplicity
 _atom_site_fract_x
 _atom_site_fract_y
 _atom_site_fract_z
 _atom_site_occupancy
  Lu  Lu0  1  0.00000000  0.50000000  0.00000000  1
  Lu  Lu1  1  0.50000000  0.00000000  0.00000000  1
  Lu  Lu2  1  0.00000000  0.00000000  0.50000000  1
  Bi  Bi0  1  0.00000000  0.00000000  0.00000000  1
  Ru  Ru0  1  0.50000000  0.50000000  0.50000000  1
  Ru  Ru1  1  0.50000000  0.00000000  0.50000000  1
  Ru  Ru2  1  0.00000000  0.50000000  0.50000000  1
  Ru  Ru3  1  0.50000000  0.50000000  0.00000000  1
  O  O0  1  0.13111500  0.13111500  0.13111500  1
  O  O1  1  0.86888500  0.86888500  0.86888500  1
  O  O2  1  0.41177800  0.41177800  0.83834600  1
  O  O3  1  0.83834600  0.41177800  0.41177800  1
  O  O4  1  0.41177800  0.83834600  0.41177800  1
  O  O5  1  0.83624600  0.83624600  0.41764100  1
  O  O6  1  0.41764100  0.83624600  0.83624600  1
  O  O7  1  0.83624600  0.41764100  0.83624600  1
  O  O8  1  0.58822200  0.58822200  0.16165400  1
  O  O9  1  0.16165400  0.58822200  0.58822200  1
  O  O10  1  0.58822200  0.16165400  0.58822200  1
  O  O11  1  0.16375400  0.16375400  0.58235900  1
  O  O12  1  0.58235900  0.16375400  0.16375400  1
  O  O13  1  0.16375400  0.58235900  0.16375400  1
loop_
_geom_bond_atom_site_label_1
_geom_bond_atom_site_label_2
_geom_bond_distance
_geom_bond_site_symmetry_2
Lu0 O1 2.169915 1_454
Lu0 O0 2.169915 1_555
Lu0 O13 2.428499 1_555
Lu0 O7 2.428499 1_454
Lu0 O2 2.438528 1_554
Lu0 O8 2.438528 1_455
Lu0 O9 2.438529 1_554
Lu0 O3 2.438529 1_455
Lu1 O1 2.169915 1_544
Lu1 O0 2.169915 1_555
Lu1 O12 2.428499 1_555
Lu1 O6 2.428499 1_544
Lu1 O2 2.438528 1_554
Lu1 O8 2.438528 1_545
Lu1 O4 2.438529 1_545
Lu1 O10 2.438529 1_554
Lu2 O1 2.169916 1_445
Lu2 O0 2.169916 1_555
Lu2 O11 2.428499 1_555
Lu2 O5 2.428499 1_445
Lu2 O9 2.438528 1_545
Lu2 O10 2.438528 1_455
Lu2 O4 2.438528 1_545
Lu2 O3 2.438528 1_455
Bi0 O0 2.307889 1_555
Bi0 O1 2.307889 1_444
Bi0 O13 2.473158 1_545
Bi0 O12 2.473158 1_455
Bi0 O6 2.473158 1_544
Bi0 O7 2.473158 1_454
Bi0 O11 2.473158 1_554
Bi0 O5 2.473158 1_445
O2 Ru3 2.007068 1_556
O2 Ru0 2.011073 1_555
O3 Ru2 2.007068 1_655
O3 Ru0 2.011073 1_555
O4 Ru1 2.007068 1_565
O4 Ru0 2.011073 1_555
O5 Ru2 2.002062 1_655
O5 Ru1 2.002062 1_565
O6 Ru3 2.002062 1_556
O6 Ru1 2.002062 1_565
O7 Ru3 2.002062 1_556
O7 Ru2 2.002062 1_655
O8 Ru3 2.007068 1_555
O8 Ru0 2.011073 1_555
O9 Ru2 2.007068 1_555
O9 Ru0 2.011073 1_555
O10 Ru1 2.007068 1_555
O10 Ru0 2.011073 1_555
O11 Ru1 2.002062 1_555
O11 Ru2 2.002062 1_555
O12 Ru3 2.002062 1_555
O12 Ru1 2.002062 1_555
O13 Ru3 2.002062 1_555
O13 Ru2 2.002062 1_555
