# generated using pymatgen
data_Nd4MnSn8
_symmetry_space_group_name_H-M   'P 1'
_cell_length_a   4.49378400
_cell_length_b   4.57014800
_cell_length_c   17.31759600
_cell_angle_alpha   90.00000000
_cell_angle_beta   90.00000000
_cell_angle_gamma   90.00000000
_symmetry_Int_Tables_number   1
_chemical_formula_structural   Nd4MnSn8
_chemical_formula_sum   'Nd4 Mn1 Sn8'
_cell_volume   355.65593630
_cell_formula_units_Z   1
loop_
 _symmetry_equiv_pos_site_id
 _symmetry_equiv_pos_as_xyz
  1  'x, y, z'
loop_
 _atom_site_type_symbol
 _atom_site_label
 _atom_site_symmetry_multiplicity
 _atom_site_fract_x
 _atom_site_fract_y
 _atom_site_fract_z
 _atom_site_occupancy
  Nd  Nd0  1  0.25000000  0.00000000  0.09529400  1
  Nd  Nd1  1  0.25000000  0.50000000  0.60501900  1
  Nd  Nd2  1  0.75000000  0.50000000  0.39813900  1
  Nd  Nd3  1  0.75000000  0.00000000  0.89959900  1
  Mn  Mn0  1  0.25000000  0.00000000  0.31363500  1
  Sn  Sn0  1  0.25000000  0.00000000  0.46262500  1
  Sn  Sn1  1  0.25000000  0.50000000  0.93737000  1
  Sn  Sn2  1  0.75000000  0.50000000  0.05674500  1
  Sn  Sn3  1  0.75000000  0.00000000  0.57696000  1
  Sn  Sn4  1  0.25000000  0.50000000  0.23487000  1
  Sn  Sn5  1  0.25000000  0.00000000  0.74895300  1
  Sn  Sn6  1  0.75000000  0.00000000  0.23258400  1
  Sn  Sn7  1  0.75000000  0.50000000  0.75420700  1
loop_
_geom_bond_atom_site_label_1
_geom_bond_atom_site_label_2
_geom_bond_distance
_geom_bond_site_symmetry_2
Nd0 Sn6 3.271267 1_555
Nd0 Sn6 3.271267 1_455
Nd0 Sn2 3.273491 1_445
Nd0 Sn2 3.273491 1_545
Nd0 Sn2 3.273491 1_555
Nd0 Sn2 3.273491 1_455
Nd0 Sn4 3.326265 1_545
Nd0 Sn4 3.326265 1_555
Nd0 Sn1 3.563852 1_544
Nd0 Sn1 3.563852 1_554
Nd1 Sn3 3.241327 1_555
Nd1 Sn3 3.241327 1_565
Nd1 Sn3 3.241327 1_465
Nd1 Sn3 3.241327 1_455
Nd1 Sn0 3.361894 1_565
Nd1 Sn0 3.361894 1_555
Nd1 Sn5 3.381504 1_565
Nd1 Sn5 3.381504 1_555
Nd1 Sn7 3.423945 1_455
Nd1 Sn7 3.423945 1_555
Nd2 Sn0 3.393700 1_665
Nd2 Sn0 3.393700 1_555
Nd2 Sn0 3.393700 1_565
Nd2 Sn0 3.393700 1_655
Nd2 Sn4 3.611491 1_555
Nd2 Sn4 3.611491 1_655
Nd2 Sn6 3.666243 1_565
Nd2 Sn6 3.666243 1_555
Nd2 Sn3 3.848561 1_555
Nd2 Sn3 3.848561 1_565
Nd3 Sn1 3.270770 1_545
Nd3 Sn1 3.270770 1_655
Nd3 Sn1 3.270770 1_645
Nd3 Sn1 3.270770 1_555
Nd3 Sn7 3.400159 1_545
Nd3 Sn7 3.400159 1_555
Nd3 Sn5 3.443036 1_555
Nd3 Sn5 3.443036 1_655
Nd3 Sn2 3.553524 1_556
Nd3 Sn2 3.553524 1_546
Mn0 Sn0 2.580149 1_555
Mn0 Sn6 2.649272 1_455
Mn0 Sn6 2.649272 1_555
Mn0 Sn4 2.661224 1_545
Mn0 Sn4 2.661224 1_555
Mn0 Nd2 3.523016 1_555
Mn0 Nd2 3.523016 1_545
Mn0 Nd2 3.523016 1_445
Mn0 Nd2 3.523016 1_455
Sn0 Sn3 2.994821 1_455
Sn0 Sn3 2.994821 1_555
Sn1 Sn2 3.053228 1_456
Sn1 Sn2 3.053228 1_556
Sn5 Sn7 3.205989 1_555
Sn5 Sn7 3.205989 1_445
Sn5 Sn7 3.205989 1_545
Sn5 Sn7 3.205989 1_455
