# generated using pymatgen
data_Li9Mn2Co5O16
_symmetry_space_group_name_H-M   'P 1'
_cell_length_a   2.91127400
_cell_length_b   6.61929733
_cell_length_c   15.40781884
_cell_angle_alpha   91.86768604
_cell_angle_beta   92.17857476
_cell_angle_gamma   102.53041973
_symmetry_Int_Tables_number   1
_chemical_formula_structural   Li9Mn2Co5O16
_chemical_formula_sum   'Li9 Mn2 Co5 O16'
_cell_volume   289.38199672
_cell_formula_units_Z   1
loop_
 _symmetry_equiv_pos_site_id
 _symmetry_equiv_pos_as_xyz
  1  'x, y, z'
loop_
 _atom_site_type_symbol
 _atom_site_label
 _atom_site_symmetry_multiplicity
 _atom_site_fract_x
 _atom_site_fract_y
 _atom_site_fract_z
 _atom_site_occupancy
  Li  Li0  1  0.56438100  0.62268700  0.68591400  1
  Li  Li1  1  0.81286600  0.12540000  0.43718700  1
  Li  Li2  1  0.07086000  0.62111600  0.18226100  1
  Li  Li3  1  0.18713400  0.87460000  0.56281300  1
  Li  Li4  1  0.43561900  0.37731300  0.31408600  1
  Li  Li5  1  0.67339800  0.85881500  0.06357500  1
  Li  Li6  1  0.32660200  0.14118500  0.93642500  1
  Li  Li7  1  0.92914000  0.37888400  0.81773900  1
  Li  Li8  1  0.00000000  0.50000000  0.00000000  1
  Mn  Mn0  1  0.61252100  0.73750400  0.87835100  1
  Mn  Mn1  1  0.38747900  0.26249600  0.12164900  1
  Co  Co0  1  0.87326200  0.24977600  0.62489800  1
  Co  Co1  1  0.12673800  0.75022400  0.37510200  1
  Co  Co2  1  0.50000000  0.50000000  0.50000000  1
  Co  Co3  1  0.75895500  0.99806600  0.24915800  1
  Co  Co4  1  0.24104500  0.00193400  0.75084200  1
  O  O0  1  0.08012300  0.69967200  0.79088100  1
  O  O1  1  0.36594500  0.19657200  0.53595700  1
  O  O2  1  0.61563400  0.69687900  0.28789900  1
  O  O3  1  0.73094400  0.94476400  0.66242400  1
  O  O4  1  0.98356900  0.44538000  0.41129500  1
  O  O5  1  0.25262700  0.95471600  0.16056600  1
  O  O6  1  0.83945900  0.19164100  0.04257800  1
  O  O7  1  0.48132000  0.46216300  0.90190100  1
  O  O8  1  0.01643100  0.55462000  0.58870500  1
  O  O9  1  0.26905600  0.05523600  0.33757600  1
  O  O10  1  0.51868000  0.53783700  0.09809900  1
  O  O11  1  0.63405500  0.80342800  0.46404300  1
  O  O12  1  0.91987700  0.30032800  0.20911900  1
  O  O13  1  0.16054100  0.80835900  0.95742200  1
  O  O14  1  0.74737300  0.04528400  0.83943400  1
  O  O15  1  0.38436600  0.30312100  0.71210100  1
loop_
_geom_bond_atom_site_label_1
_geom_bond_atom_site_label_2
_geom_bond_distance
_geom_bond_site_symmetry_2
Li0 O8 2.110354 1_555
Li0 O15 2.121942 1_555
Li0 O3 2.127508 1_555
Li0 O8 2.131073 1_655
Li0 O0 2.135283 1_655
Li0 O0 2.300935 1_555
Li1 O4 2.122651 1_555
Li1 O9 2.127788 1_555
Li1 O1 2.137371 1_655
Li1 O11 2.139346 1_545
Li1 O1 2.144896 1_555
Li1 O9 2.170545 1_655
Li2 O10 1.995006 1_455
Li2 O10 2.019636 1_555
Li2 O12 2.130577 1_455
Li2 O2 2.195794 1_555
Li2 O5 2.196002 1_555
Li2 O2 2.248627 1_455
Li3 O8 2.122651 1_555
Li3 O3 2.127788 1_555
Li3 O11 2.137371 1_455
Li3 O1 2.139346 1_565
Li3 O11 2.144896 1_555
Li3 O3 2.170545 1_455
Li4 O4 2.110354 1_555
Li4 O2 2.121942 1_555
Li4 O9 2.127508 1_555
Li4 O4 2.131073 1_455
Li4 O12 2.135283 1_455
Li4 O12 2.300935 1_555
Li5 O5 2.133447 1_555
Li5 O13 2.139694 1_554
Li5 O10 2.162546 1_555
Li5 O5 2.182185 1_655
Li5 O6 2.188177 1_565
Li5 O13 2.268099 1_654
Li6 O14 2.133447 1_555
Li6 O6 2.139694 1_556
Li6 O7 2.162546 1_555
Li6 O14 2.182185 1_455
Li6 O13 2.188177 1_545
Li6 O6 2.268099 1_456
Li7 O7 1.995006 1_655
Li7 O7 2.019636 1_555
Li7 O0 2.130577 1_655
Li7 O15 2.195794 1_555
Li7 O14 2.196002 1_555
Li7 O15 2.248627 1_655
Li8 O10 2.065233 1_555
Li8 O7 2.065233 1_454
Li8 O6 2.124063 1_455
Li8 O13 2.124063 1_554
Li8 O10 2.144640 1_455
Li8 O7 2.144640 1_554
Mn0 O7 1.830539 1_555
Mn0 O13 1.933897 1_655
Mn0 O13 1.946306 1_555
Mn0 O0 1.982976 1_555
Mn0 O0 1.999415 1_655
Mn0 O14 2.101116 1_565
Mn1 O10 1.830539 1_555
Mn1 O6 1.933897 1_455
Mn1 O6 1.946306 1_555
Mn1 O12 1.982976 1_555
Mn1 O12 1.999415 1_455
Mn1 O5 2.101116 1_545
Co0 O15 1.932122 1_655
Co0 O1 1.942241 1_555
Co0 O8 2.069423 1_655
Co0 O15 2.070827 1_555
Co0 O3 2.076903 1_545
Co0 O1 2.096777 1_655
Co1 O2 1.932122 1_455
Co1 O11 1.942241 1_555
Co1 O4 2.069423 1_455
Co1 O2 2.070827 1_555
Co1 O9 2.076903 1_565
Co1 O11 2.096777 1_455
Co2 O4 1.958277 1_455
Co2 O8 1.958277 1_655
Co2 O11 2.059632 1_555
Co2 O1 2.059632 1_555
Co2 O4 2.077393 1_555
Co2 O8 2.077393 1_555
Co3 O5 1.938143 1_555
Co3 O9 1.942480 1_665
Co3 O2 2.059268 1_555
Co3 O12 2.073359 1_565
Co3 O5 2.076956 1_655
Co3 O9 2.093225 1_565
Co4 O14 1.938143 1_555
Co4 O3 1.942480 1_445
Co4 O15 2.059268 1_555
Co4 O0 2.073359 1_545
Co4 O14 2.076956 1_455
Co4 O3 2.093225 1_545
