# generated using pymatgen
data_Cu6Bi(AsO7)3
_symmetry_space_group_name_H-M   'P 1'
_cell_length_a   13.88259617
_cell_length_b   13.88259617
_cell_length_c   5.78265600
_cell_angle_alpha   90.00000000
_cell_angle_beta   90.00000000
_cell_angle_gamma   120.00000080
_symmetry_Int_Tables_number   1
_chemical_formula_structural   Cu6Bi(AsO7)3
_chemical_formula_sum   'Cu12 Bi2 As6 O42'
_cell_volume   965.16011626
_cell_formula_units_Z   2
loop_
 _symmetry_equiv_pos_site_id
 _symmetry_equiv_pos_as_xyz
  1  'x, y, z'
loop_
 _atom_site_type_symbol
 _atom_site_label
 _atom_site_symmetry_multiplicity
 _atom_site_fract_x
 _atom_site_fract_y
 _atom_site_fract_z
 _atom_site_occupancy
  Cu  Cu0  1  0.68684100  0.09813400  0.99834400  1
  Cu  Cu1  1  0.31315900  0.90186600  0.00165600  1
  Cu  Cu2  1  0.41129400  0.31315900  0.99834400  1
  Cu  Cu3  1  0.31315900  0.90186600  0.49834400  1
  Cu  Cu4  1  0.58870600  0.68684100  0.00165600  1
  Cu  Cu5  1  0.68684100  0.09813400  0.50165600  1
  Cu  Cu6  1  0.90186600  0.58870600  0.99834400  1
  Cu  Cu7  1  0.58870600  0.68684100  0.49834400  1
  Cu  Cu8  1  0.09813400  0.41129400  0.00165600  1
  Cu  Cu9  1  0.41129400  0.31315900  0.50165600  1
  Cu  Cu10  1  0.09813400  0.41129400  0.49834400  1
  Cu  Cu11  1  0.90186600  0.58870600  0.50165600  1
  Bi  Bi0  1  0.33333300  0.66666700  0.75000000  1
  Bi  Bi1  1  0.66666700  0.33333300  0.25000000  1
  As  As0  1  0.85155500  0.34363100  0.75000000  1
  As  As1  1  0.14844500  0.65636900  0.25000000  1
  As  As2  1  0.49207600  0.14844500  0.75000000  1
  As  As3  1  0.50792400  0.85155500  0.25000000  1
  As  As4  1  0.65636900  0.50792400  0.75000000  1
  As  As5  1  0.34363100  0.49207600  0.25000000  1
  O  O0  1  0.95517900  0.11921200  0.75000000  1
  O  O1  1  0.04482100  0.88078800  0.25000000  1
  O  O2  1  0.16403300  0.04482100  0.75000000  1
  O  O3  1  0.83596700  0.95517900  0.25000000  1
  O  O4  1  0.88078800  0.83596700  0.75000000  1
  O  O5  1  0.11921200  0.16403300  0.25000000  1
  O  O6  1  0.55793400  0.74778000  0.75000000  1
  O  O7  1  0.44206600  0.25222000  0.25000000  1
  O  O8  1  0.18984600  0.44206600  0.75000000  1
  O  O9  1  0.81015400  0.55793400  0.25000000  1
  O  O10  1  0.25222000  0.81015400  0.75000000  1
  O  O11  1  0.74778000  0.18984600  0.25000000  1
  O  O12  1  0.63144700  0.00712400  0.75000000  1
  O  O13  1  0.36855300  0.99287600  0.25000000  1
  O  O14  1  0.37567700  0.36855300  0.75000000  1
  O  O15  1  0.62432300  0.63144700  0.25000000  1
  O  O16  1  0.99287600  0.62432300  0.75000000  1
  O  O17  1  0.00712400  0.37567700  0.25000000  1
  O  O18  1  0.99396900  0.38385000  0.75000000  1
  O  O19  1  0.00603100  0.61615000  0.25000000  1
  O  O20  1  0.38988100  0.00603100  0.75000000  1
  O  O21  1  0.61011900  0.99396900  0.25000000  1
  O  O22  1  0.61615000  0.61011900  0.75000000  1
  O  O23  1  0.38385000  0.38988100  0.25000000  1
  O  O24  1  0.82283900  0.39525400  0.99039300  1
  O  O25  1  0.17716100  0.60474600  0.00960700  1
  O  O26  1  0.57241500  0.17716100  0.99039300  1
  O  O27  1  0.17716100  0.60474600  0.49039300  1
  O  O28  1  0.42758500  0.82283900  0.00960700  1
  O  O29  1  0.82283900  0.39525400  0.50960700  1
  O  O30  1  0.60474600  0.42758500  0.99039300  1
  O  O31  1  0.42758500  0.82283900  0.49039300  1
  O  O32  1  0.39525400  0.57241500  0.00960700  1
  O  O33  1  0.57241500  0.17716100  0.50960700  1
  O  O34  1  0.39525400  0.57241500  0.49039300  1
  O  O35  1  0.60474600  0.42758500  0.50960700  1
  O  O36  1  0.78370200  0.19538900  0.75000000  1
  O  O37  1  0.21629800  0.80461100  0.25000000  1
  O  O38  1  0.41168700  0.21629800  0.75000000  1
  O  O39  1  0.58831300  0.78370200  0.25000000  1
  O  O40  1  0.80461100  0.58831300  0.75000000  1
  O  O41  1  0.19538900  0.41168700  0.25000000  1
loop_
_geom_bond_atom_site_label_1
_geom_bond_atom_site_label_2
_geom_bond_distance
_geom_bond_site_symmetry_2
Cu0 O12 1.810645 1_555
Cu0 O11 1.837756 1_556
Cu0 O21 1.950151 1_546
Cu0 O36 1.969239 1_555
Cu0 O26 2.339219 1_555
Cu1 O13 1.810645 1_555
Cu1 O10 1.837756 1_554
Cu1 O20 1.950151 1_564
Cu1 O37 1.969239 1_555
Cu1 O28 2.339219 1_555
Cu2 O14 1.810652 1_555
Cu2 O7 1.837750 1_556
Cu2 O23 1.950158 1_556
Cu2 O38 1.969235 1_555
Cu2 O30 2.339208 1_555
Cu3 O13 1.810645 1_555
Cu3 O10 1.837756 1_555
Cu3 O20 1.950151 1_565
Cu3 O37 1.969239 1_555
Cu3 O31 2.339219 1_555
Cu4 O15 1.810652 1_555
Cu4 O6 1.837750 1_554
Cu4 O22 1.950158 1_554
Cu4 O39 1.969235 1_555
Cu4 O32 2.339208 1_555
Cu5 O12 1.810645 1_555
Cu5 O11 1.837756 1_555
Cu5 O21 1.950151 1_545
Cu5 O36 1.969239 1_555
Cu5 O33 2.339219 1_555
Cu6 O16 1.810644 1_555
Cu6 O9 1.837758 1_556
Cu6 O19 1.950149 1_656
Cu6 O40 1.969244 1_555
Cu6 O24 2.339206 1_555
Cu7 O15 1.810652 1_555
Cu7 O6 1.837750 1_555
Cu7 O22 1.950158 1_555
Cu7 O39 1.969235 1_555
Cu7 O34 2.339208 1_555
Cu8 O17 1.810644 1_555
Cu8 O8 1.837758 1_554
Cu8 O18 1.950149 1_454
Cu8 O41 1.969244 1_555
Cu8 O25 2.339206 1_555
Cu9 O14 1.810652 1_555
Cu9 O7 1.837750 1_555
Cu9 O23 1.950158 1_555
Cu9 O38 1.969235 1_555
Cu9 O35 2.339208 1_555
Cu10 O17 1.810644 1_555
Cu10 O8 1.837758 1_555
Cu10 O18 1.950149 1_455
Cu10 O41 1.969244 1_555
Cu10 O27 2.339206 1_555
Cu11 O16 1.810644 1_555
Cu11 O9 1.837758 1_555
Cu11 O19 1.950149 1_655
Cu11 O40 1.969244 1_555
Cu11 O29 2.339206 1_555
Bi0 O25 2.414419 1_556
Bi0 O27 2.414419 1_555
Bi0 O28 2.414421 1_556
Bi0 O31 2.414421 1_555
Bi0 O32 2.414429 1_556
Bi0 O34 2.414429 1_555
Bi0 O10 2.734783 1_555
Bi0 O8 2.734794 1_555
Bi0 O6 2.734796 1_555
Bi1 O24 2.414419 1_554
Bi1 O29 2.414419 1_555
Bi1 O33 2.414421 1_555
Bi1 O26 2.414421 1_554
Bi1 O35 2.414429 1_555
Bi1 O30 2.414429 1_554
Bi1 O11 2.734783 1_555
Bi1 O9 2.734794 1_555
Bi1 O7 2.734796 1_555
As0 O24 1.700186 1_555
As0 O29 1.700186 1_555
As0 O18 1.765415 1_555
As0 O36 1.784389 1_555
As1 O27 1.700186 1_555
As1 O25 1.700186 1_555
As1 O19 1.765415 1_555
As1 O37 1.784389 1_555
As2 O33 1.700186 1_555
As2 O26 1.700186 1_555
As2 O20 1.765415 1_555
As2 O38 1.784389 1_555
As3 O31 1.700186 1_555
As3 O28 1.700186 1_555
As3 O21 1.765415 1_555
As3 O39 1.784389 1_555
As4 O30 1.700186 1_555
As4 O35 1.700186 1_555
As4 O22 1.765415 1_555
As4 O40 1.784389 1_555
As5 O34 1.700186 1_555
As5 O32 1.700186 1_555
As5 O23 1.765415 1_555
As5 O41 1.784389 1_555
