# generated using pymatgen
data_Mg4Si7
_symmetry_space_group_name_H-M   'P 1'
_cell_length_a   3.75404100
_cell_length_b   6.73336200
_cell_length_c   15.73057933
_cell_angle_alpha   77.90533959
_cell_angle_beta   90.00000000
_cell_angle_gamma   90.00000000
_symmetry_Int_Tables_number   1
_chemical_formula_structural   Mg4Si7
_chemical_formula_sum   'Mg8 Si14'
_cell_volume   388.80062506
_cell_formula_units_Z   2
loop_
 _symmetry_equiv_pos_site_id
 _symmetry_equiv_pos_as_xyz
  1  'x, y, z'
loop_
 _atom_site_type_symbol
 _atom_site_label
 _atom_site_symmetry_multiplicity
 _atom_site_fract_x
 _atom_site_fract_y
 _atom_site_fract_z
 _atom_site_occupancy
  Mg  Mg0  1  0.00000000  0.13329200  0.07025900  1
  Mg  Mg1  1  0.00000000  0.23324300  0.48763400  1
  Mg  Mg2  1  0.50000000  0.01966000  0.63457400  1
  Mg  Mg3  1  0.50000000  0.49661700  0.33380400  1
  Mg  Mg4  1  0.00000000  0.57777000  0.15294300  1
  Mg  Mg5  1  0.50000000  0.79878700  0.82016200  1
  Mg  Mg6  1  0.50000000  0.49993800  0.58142300  1
  Mg  Mg7  1  0.50000000  0.94911500  0.41710400  1
  Si  Si0  1  0.50000000  0.47198000  0.02083500  1
  Si  Si1  1  0.50000000  0.83553100  0.03318000  1
  Si  Si2  1  0.00000000  0.96096300  0.91617100  1
  Si  Si3  1  0.00000000  0.51007200  0.91274800  1
  Si  Si4  1  0.00000000  0.63370100  0.44021000  1
  Si  Si5  1  0.00000000  0.81644700  0.55630600  1
  Si  Si6  1  0.50000000  0.38445100  0.76578300  1
  Si  Si7  1  0.50000000  0.87946800  0.18819400  1
  Si  Si8  1  0.00000000  0.20774500  0.30200600  1
  Si  Si9  1  0.50000000  0.21247500  0.91848400  1
  Si  Si10  1  0.00000000  0.14596300  0.74747600  1
  Si  Si11  1  0.50000000  0.25725800  0.19341200  1
  Si  Si12  1  0.00000000  0.83934200  0.29022100  1
  Si  Si13  1  0.00000000  0.63984900  0.71348200  1
loop_
_geom_bond_atom_site_label_1
_geom_bond_atom_site_label_2
_geom_bond_distance
_geom_bond_site_symmetry_2
Mg0 Si1 2.893652 1_545
Mg0 Si1 2.893652 1_445
Mg0 Si2 2.898328 1_544
Mg0 Si7 2.925272 1_445
Mg0 Si7 2.925272 1_545
Mg0 Si0 2.930084 1_455
Mg0 Si0 2.930084 1_555
Mg0 Si11 2.941188 1_555
Mg0 Si11 2.941188 1_455
Mg0 Si9 2.995703 1_554
Mg0 Si9 2.995703 1_454
Mg0 Si3 3.152992 1_554
Mg1 Si4 2.642783 1_555
Mg1 Si5 2.787940 1_545
Mg1 Si8 2.960772 1_555
Mg1 Mg6 3.167782 1_455
Mg1 Mg6 3.167782 1_555
Mg2 Si5 2.759944 1_645
Mg2 Si5 2.759944 1_545
Mg2 Si10 2.834365 1_555
Mg2 Si10 2.834365 1_655
Mg2 Mg5 2.985850 1_545
Mg2 Mg6 3.166073 1_555
Mg2 Si13 3.205310 1_645
Mg2 Si13 3.205310 1_545
Mg3 Si4 2.797203 1_655
Mg3 Si4 2.797203 1_555
Mg3 Si8 2.822136 1_555
Mg3 Si8 2.822136 1_655
Mg3 Si12 2.942053 1_555
Mg3 Si12 2.942053 1_655
Mg3 Si11 2.994385 1_555
Mg3 Si7 3.068806 1_555
Mg4 Si11 2.830237 1_555
Mg4 Si11 2.830237 1_455
Mg4 Si7 2.903361 1_555
Mg4 Si7 2.903361 1_455
Mg4 Si1 2.952038 1_555
Mg4 Si1 2.952038 1_455
Mg4 Si0 2.994926 1_455
Mg4 Si0 2.994926 1_555
Mg4 Si8 3.042652 1_555
Mg4 Si12 3.059270 1_555
Mg5 Si2 2.772669 1_655
Mg5 Si2 2.772669 1_555
Mg5 Si3 2.870041 1_555
Mg5 Si3 2.870041 1_655
Mg5 Si13 2.870060 1_655
Mg5 Si13 2.870060 1_555
Mg5 Si10 3.029049 1_565
Mg5 Si10 3.029049 1_665
Mg5 Si6 3.084672 1_555
Mg6 Si5 2.805056 1_655
Mg6 Si5 2.805056 1_555
Mg6 Si6 2.840805 1_555
Mg6 Si4 2.903525 1_655
Mg6 Si4 2.903525 1_555
Mg6 Si13 3.089701 1_555
Mg6 Si13 3.089701 1_655
Mg7 Si4 2.800419 1_655
Mg7 Si4 2.800419 1_555
Mg7 Si5 2.880346 1_655
Mg7 Si5 2.880346 1_555
Mg7 Si8 2.917652 1_665
Mg7 Si8 2.917652 1_565
Mg7 Si12 2.944750 1_555
Mg7 Si12 2.944750 1_655
Si0 Si1 2.495843 1_555
Si0 Si3 2.509415 1_654
Si0 Si3 2.509415 1_554
Si0 Si9 2.612347 1_554
Si0 Si11 2.795596 1_555
Si1 Si7 2.517125 1_555
Si1 Si2 2.640636 1_654
Si1 Si2 2.640636 1_554
Si1 Si9 2.788947 1_564
Si2 Si9 2.533449 1_565
Si2 Si9 2.533449 1_465
Si3 Si9 2.733296 1_455
Si3 Si9 2.733296 1_555
Si4 Si5 2.406457 1_555
Si6 Si9 2.438289 1_555
Si10 Si6 2.525590 1_555
Si10 Si6 2.525590 1_455
Si10 Si2 2.684853 1_545
Si11 Si8 2.512728 1_655
Si11 Si8 2.512728 1_555
Si11 Si7 2.562253 1_545
Si12 Si7 2.447516 1_455
Si12 Si7 2.447516 1_555
Si12 Si4 2.472865 1_555
Si12 Si8 2.525947 1_565
Si13 Si5 2.508991 1_555
Si13 Si6 2.562131 1_555
Si13 Si6 2.562131 1_455
