# generated using pymatgen
data_KSrBiWO6
_symmetry_space_group_name_H-M   'P 1'
_cell_length_a   8.49195797
_cell_length_b   8.50944484
_cell_length_c   8.48325697
_cell_angle_alpha   90.00000000
_cell_angle_beta   90.00000000
_cell_angle_gamma   90.00000000
_symmetry_Int_Tables_number   1
_chemical_formula_structural   KSrBiWO6
_chemical_formula_sum   'K4 Sr4 Bi4 W4 O24'
_cell_volume   613.01582511
_cell_formula_units_Z   4
loop_
 _symmetry_equiv_pos_site_id
 _symmetry_equiv_pos_as_xyz
  1  'x, y, z'
loop_
 _atom_site_type_symbol
 _atom_site_label
 _atom_site_symmetry_multiplicity
 _atom_site_fract_x
 _atom_site_fract_y
 _atom_site_fract_z
 _atom_site_occupancy
  K  K0  1  0.50000000  -0.00000000  0.50000000  1
  K  K1  1  0.50000000  0.50000000  -0.00000000  1
  K  K2  1  0.00000000  0.50000000  -0.00000000  1
  K  K3  1  0.00000000  -0.00000000  0.50000000  1
  Sr  Sr0  1  0.00000000  0.50000000  0.50000000  1
  Sr  Sr1  1  0.50000000  0.00000000  0.00000000  1
  Sr  Sr2  1  0.00000000  -0.00000000  -0.00000000  1
  Sr  Sr3  1  0.50000000  0.50000000  0.50000000  1
  Bi  Bi0  1  0.75000000  0.75000000  0.75000000  1
  Bi  Bi1  1  0.25000000  0.25000000  0.75000000  1
  Bi  Bi2  1  0.25000000  0.75000000  0.25000000  1
  Bi  Bi3  1  0.75000000  0.25000000  0.25000000  1
  W  W0  1  0.25000000  0.25000000  0.25000000  1
  W  W1  1  0.75000000  0.75000000  0.25000000  1
  W  W2  1  0.75000000  0.25000000  0.75000000  1
  W  W3  1  0.25000000  0.75000000  0.75000000  1
  O  O0  1  0.02325623  0.22196822  0.27371544  1
  O  O1  1  0.97674377  0.77803178  0.27371544  1
  O  O2  1  0.97674377  0.22196822  0.72628456  1
  O  O3  1  0.02325623  0.77803178  0.72628456  1
  O  O4  1  0.27573660  0.02230214  0.21109743  1
  O  O5  1  0.27573660  0.97769786  0.78890257  1
  O  O6  1  0.72426340  0.97769786  0.21109743  1
  O  O7  1  0.72426340  0.02230214  0.78890257  1
  O  O8  1  0.22032938  0.26837663  0.02353551  1
  O  O9  1  0.77967062  0.26837663  0.97646449  1
  O  O10  1  0.22032938  0.73162337  0.97646449  1
  O  O11  1  0.77967062  0.73162337  0.02353551  1
  O  O12  1  0.47674377  0.27803178  0.22628456  1
  O  O13  1  0.52325623  0.72196822  0.22628456  1
  O  O14  1  0.52325623  0.27803178  0.77371544  1
  O  O15  1  0.47674377  0.72196822  0.77371544  1
  O  O16  1  0.22426340  0.47769786  0.28890257  1
  O  O17  1  0.22426340  0.52230214  0.71109743  1
  O  O18  1  0.77573660  0.52230214  0.28890257  1
  O  O19  1  0.77573660  0.47769786  0.71109743  1
  O  O20  1  0.27967062  0.23162337  0.47646449  1
  O  O21  1  0.72032938  0.23162337  0.52353551  1
  O  O22  1  0.27967062  0.76837663  0.52353551  1
  O  O23  1  0.72032938  0.76837663  0.47646449  1
loop_
_geom_bond_atom_site_label_1
_geom_bond_atom_site_label_2
_geom_bond_distance
_geom_bond_site_symmetry_2
K0 O20 2.724958 1_555
K0 O22 2.724958 1_545
K0 O21 2.724958 1_555
K0 O23 2.724958 1_545
K0 O7 3.109579 1_555
K0 O5 3.109579 1_545
K0 O4 3.109579 1_555
K0 O6 3.109579 1_545
K1 O15 2.700305 1_554
K1 O12 2.700305 1_555
K1 O14 2.700305 1_554
K1 O13 2.700305 1_555
K1 O11 3.092740 1_555
K1 O9 3.092740 1_554
K1 O8 3.092740 1_555
K1 O10 3.092740 1_554
K2 O10 2.724958 1_554
K2 O11 2.724958 1_455
K2 O9 2.724958 1_454
K2 O8 2.724958 1_555
K2 O19 3.109579 1_454
K2 O17 3.109579 1_554
K2 O16 3.109579 1_555
K2 O18 3.109579 1_455
K3 O0 2.700305 1_555
K3 O2 2.700305 1_455
K3 O3 2.700305 1_545
K3 O1 2.700305 1_445
K3 O20 3.092740 1_555
K3 O23 3.092740 1_445
K3 O21 3.092740 1_455
K3 O22 3.092740 1_545
Bi0 O23 2.339344 1_555
Bi0 O11 2.339344 1_556
Bi0 O15 2.341368 1_555
Bi0 O3 2.341368 1_655
Bi0 O19 2.350706 1_555
Bi0 O7 2.350706 1_565
Bi1 O20 2.339344 1_555
Bi1 O8 2.339344 1_556
Bi1 O14 2.341368 1_555
Bi1 O2 2.341368 1_455
Bi1 O17 2.350706 1_555
Bi1 O5 2.350706 1_545
Bi2 O22 2.339344 1_555
Bi2 O10 2.339344 1_554
Bi2 O1 2.341368 1_455
Bi2 O13 2.341368 1_555
Bi2 O4 2.350706 1_565
Bi2 O16 2.350706 1_555
Bi3 O21 2.339344 1_555
Bi3 O9 2.339344 1_554
Bi3 O12 2.341368 1_555
Bi3 O0 2.341368 1_655
Bi3 O6 2.350706 1_545
Bi3 O18 2.350706 1_555
O0 W0 1.950620 1_555
O0 Sr2 2.999724 1_555
O0 Sr0 3.053104 1_555
O1 W1 1.950620 1_555
O1 Sr2 2.999724 1_665
O1 Sr0 3.053104 1_655
O2 W2 1.950620 1_555
O2 Sr2 2.999724 1_656
O2 Sr0 3.053104 1_655
O3 W3 1.950620 1_555
O3 Sr2 2.999724 1_566
O3 Sr0 3.053104 1_555
O4 W0 1.977601 1_555
O4 Sr1 2.621036 1_555
O4 Sr2 2.953944 1_555
O5 W3 1.977601 1_555
O5 Sr1 2.621036 1_566
O5 Sr2 2.953944 1_566
O6 W1 1.977601 1_555
O6 Sr1 2.621036 1_565
O6 Sr2 2.953944 1_665
O7 W2 1.977601 1_555
O7 Sr1 2.621036 1_556
O7 Sr2 2.953944 1_656
O8 W0 1.943908 1_555
O8 Sr2 2.959064 1_555
O9 W2 1.943908 1_555
O9 Sr2 2.959064 1_656
O10 W3 1.943908 1_555
O10 Sr2 2.959064 1_566
O11 W1 1.943908 1_555
O11 Sr2 2.959064 1_665
O12 W0 1.950620 1_555
O12 Sr3 2.999724 1_555
O12 Sr1 3.053104 1_555
O13 W1 1.950620 1_555
O13 Sr3 2.999724 1_555
O13 Sr1 3.053104 1_565
O14 W2 1.950620 1_555
O14 Sr3 2.999724 1_555
O14 Sr1 3.053104 1_556
O15 W3 1.950620 1_555
O15 Sr3 2.999724 1_555
O15 Sr1 3.053104 1_566
O16 W0 1.977601 1_555
O16 Sr0 2.621036 1_555
O16 Sr3 2.953944 1_555
O17 W3 1.977601 1_555
O17 Sr0 2.621036 1_555
O17 Sr3 2.953944 1_555
O18 W1 1.977601 1_555
O18 Sr0 2.621036 1_655
O18 Sr3 2.953944 1_555
O19 W2 1.977601 1_555
O19 Sr0 2.621036 1_655
O19 Sr3 2.953944 1_555
O20 W0 1.943908 1_555
O20 Sr3 2.959064 1_555
O21 W2 1.943908 1_555
O21 Sr3 2.959064 1_555
O22 W3 1.943908 1_555
O22 Sr3 2.959064 1_555
O23 W1 1.943908 1_555
O23 Sr3 2.959064 1_555
