# generated using pymatgen
data_Eu2Al6Si3Au2
_symmetry_space_group_name_H-M   'P 1'
_cell_length_a   13.56086181
_cell_length_b   13.56086181
_cell_length_c   13.56086181
_cell_angle_alpha   161.29687231
_cell_angle_beta   161.29687231
_cell_angle_gamma   26.57038573
_symmetry_Int_Tables_number   1
_chemical_formula_structural   Eu2Al6Si3Au2
_chemical_formula_sum   'Eu2 Al6 Si3 Au2'
_cell_volume   256.33293207
_cell_formula_units_Z   1
loop_
 _symmetry_equiv_pos_site_id
 _symmetry_equiv_pos_as_xyz
  1  'x, y, z'
loop_
 _atom_site_type_symbol
 _atom_site_label
 _atom_site_symmetry_multiplicity
 _atom_site_fract_x
 _atom_site_fract_y
 _atom_site_fract_z
 _atom_site_occupancy
  Eu  Eu0  1  0.15183200  0.15183200  0.00000000  1
  Eu  Eu1  1  0.85137900  0.85137900  0.00000000  1
  Al  Al0  1  0.05382000  0.55382000  0.50000000  1
  Al  Al1  1  0.55382000  0.05382000  0.50000000  1
  Al  Al2  1  0.94410800  0.44410800  0.50000000  1
  Al  Al3  1  0.44410800  0.94410800  0.50000000  1
  Al  Al4  1  0.25120400  0.75120400  0.50000000  1
  Al  Al5  1  0.75120400  0.25120400  0.50000000  1
  Si  Si0  1  0.39353300  0.39353300  0.00000000  1
  Si  Si1  1  0.70067000  0.70067000  0.00000000  1
  Si  Si2  1  0.30172900  0.30172900  0.00000000  1
  Au  Au0  1  0.99708100  0.99708100  0.00000000  1
  Au  Au1  1  0.60551100  0.60551100  0.00000000  1
loop_
_geom_bond_atom_site_label_1
_geom_bond_atom_site_label_2
_geom_bond_distance
_geom_bond_site_symmetry_2
Eu0 Si1 3.372377 1_455
Eu0 Si1 3.372377 1_556
Eu0 Si1 3.372377 1_444
Eu0 Si1 3.372377 1_545
Eu1 Si0 3.308954 1_655
Eu1 Si0 3.308954 1_554
Eu1 Si0 3.308954 1_565
Eu1 Si0 3.308954 1_666
Eu1 Si2 3.380628 1_565
Eu1 Si2 3.380628 1_655
Eu1 Si2 3.380628 1_666
Eu1 Si2 3.380628 1_554
Al0 Au1 2.591759 1_455
Al0 Au1 2.591759 1_556
Al0 Au0 2.664316 1_456
Al0 Au0 2.664316 1_445
Al0 Eu0 3.398339 1_566
Al0 Eu0 3.398339 1_555
Al1 Au1 2.591759 1_545
Al1 Au1 2.591759 1_556
Al1 Au0 2.664316 1_546
Al1 Au0 2.664316 1_445
Al1 Eu0 3.398339 1_656
Al1 Eu0 3.398339 1_555
Al2 Si0 2.576373 1_555
Al2 Si0 2.576373 1_656
Al2 Au0 2.609732 1_556
Al2 Au0 2.609732 1_545
Al2 Eu1 3.293419 1_556
Al2 Eu1 3.293419 1_545
Al3 Si0 2.576373 1_555
Al3 Si0 2.576373 1_566
Al3 Au0 2.609732 1_556
Al3 Au0 2.609732 1_455
Al3 Eu1 3.293419 1_556
Al3 Eu1 3.293419 1_455
Al4 Si2 2.575689 1_555
Al4 Si2 2.575689 1_566
Al4 Si1 2.575812 1_455
Al4 Si1 2.575812 1_556
Al4 Eu0 3.425747 1_566
Al4 Eu0 3.425747 1_555
Al4 Eu1 3.442003 1_455
Al4 Eu1 3.442003 1_556
Al5 Si2 2.575689 1_555
Al5 Si2 2.575689 1_656
Al5 Si1 2.575812 1_556
Al5 Si1 2.575812 1_545
Al5 Eu0 3.425747 1_555
Al5 Eu0 3.425747 1_656
Al5 Eu1 3.442003 1_545
Al5 Eu1 3.442003 1_556
Si0 Si2 2.423249 1_555
Au1 Si1 2.511807 1_555
Au1 Eu0 3.347543 1_554
Au1 Eu0 3.347543 1_565
Au1 Eu0 3.347543 1_655
Au1 Eu0 3.347543 1_666
