# generated using pymatgen
data_Sm2ZnSb4
_symmetry_space_group_name_H-M   'P 1'
_cell_length_a   4.34213753
_cell_length_b   4.34213753
_cell_length_c   10.08156724
_cell_angle_alpha   90.00000000
_cell_angle_beta   90.00000000
_cell_angle_gamma   90.00000000
_symmetry_Int_Tables_number   1
_chemical_formula_structural   Sm2ZnSb4
_chemical_formula_sum   'Sm2 Zn1 Sb4'
_cell_volume   190.07946495
_cell_formula_units_Z   1
loop_
 _symmetry_equiv_pos_site_id
 _symmetry_equiv_pos_as_xyz
  1  'x, y, z'
loop_
 _atom_site_type_symbol
 _atom_site_label
 _atom_site_symmetry_multiplicity
 _atom_site_fract_x
 _atom_site_fract_y
 _atom_site_fract_z
 _atom_site_occupancy
  Sm  Sm0  1  0.50000000  0.00000000  0.75190956  1
  Sm  Sm1  1  0.00000000  0.50000000  0.24809044  1
  Zn  Zn0  1  0.50000000  0.50000000  0.50000000  1
  Sb  Sb0  1  0.50000000  0.50000000  -0.00000000  1
  Sb  Sb1  1  0.00000000  0.00000000  -0.00000000  1
  Sb  Sb2  1  0.50000000  -0.00000000  0.34785499  1
  Sb  Sb3  1  -0.00000000  0.50000000  0.65214501  1
loop_
_geom_bond_atom_site_label_1
_geom_bond_atom_site_label_2
_geom_bond_distance
_geom_bond_site_symmetry_2
Sm0 Zn0 3.341157 1_555
Sm0 Zn0 3.341157 1_545
Sm1 Zn0 3.341157 1_555
Sm1 Zn0 3.341157 1_455
Sb0 Sb1 3.070355 1_565
Sb0 Sb1 3.070355 1_655
Sb0 Sb1 3.070355 1_665
Sb0 Sb1 3.070355 1_555
Sb0 Sm1 3.311985 1_655
Sb0 Sm0 3.311985 1_554
Sb0 Sm1 3.311985 1_555
Sb0 Sm0 3.311985 1_564
Sb1 Sm0 3.311985 1_454
Sb1 Sm0 3.311985 1_554
Sb1 Sm1 3.311985 1_555
Sb1 Sm1 3.311985 1_545
Sb2 Zn0 2.658245 1_545
Sb2 Zn0 2.658245 1_555
Sb2 Sm1 3.230894 1_555
Sb2 Sm1 3.230894 1_545
Sb2 Sm1 3.230894 1_645
Sb2 Sm1 3.230894 1_655
Sb3 Zn0 2.658245 1_555
Sb3 Zn0 2.658245 1_455
Sb3 Sm0 3.230894 1_465
Sb3 Sm0 3.230894 1_555
Sb3 Sm0 3.230894 1_455
Sb3 Sm0 3.230894 1_565
