# generated using pymatgen
data_BaMg2
_symmetry_space_group_name_H-M   'P 1'
_cell_length_a   6.64472627
_cell_length_b   6.64472595
_cell_length_c   10.58211921
_cell_angle_alpha   90.00000000
_cell_angle_beta   90.00000000
_cell_angle_gamma   120.00001578
_symmetry_Int_Tables_number   1
_chemical_formula_structural   BaMg2
_chemical_formula_sum   'Ba4 Mg8'
_cell_volume   404.62934983
_cell_formula_units_Z   4
loop_
 _symmetry_equiv_pos_site_id
 _symmetry_equiv_pos_as_xyz
  1  'x, y, z'
loop_
 _atom_site_type_symbol
 _atom_site_label
 _atom_site_symmetry_multiplicity
 _atom_site_fract_x
 _atom_site_fract_y
 _atom_site_fract_z
 _atom_site_occupancy
  Ba  Ba0  1  0.33333300  0.66666700  0.44384484  1
  Ba  Ba1  1  0.66666700  0.33333300  0.94384484  1
  Ba  Ba2  1  0.66666700  0.33333300  0.55615516  1
  Ba  Ba3  1  0.33333300  0.66666700  0.05615516  1
  Mg  Mg0  1  0.16107416  0.32214832  0.75000000  1
  Mg  Mg1  1  0.83892584  0.16107416  0.25000000  1
  Mg  Mg2  1  0.32214932  0.16107416  0.25000000  1
  Mg  Mg3  1  0.67785068  0.83892584  0.75000000  1
  Mg  Mg4  1  -0.00000000  -0.00000000  0.00000000  1
  Mg  Mg5  1  -0.00000000  -0.00000000  0.50000000  1
  Mg  Mg6  1  0.83892584  0.67785168  0.25000000  1
  Mg  Mg7  1  0.16107416  0.83892584  0.75000000  1
loop_
_geom_bond_atom_site_label_1
_geom_bond_atom_site_label_2
_geom_bond_distance
_geom_bond_site_symmetry_2
Ba0 Mg3 3.798227 1_555
Ba0 Mg7 3.798227 1_555
Ba0 Mg0 3.798230 1_555
Ba0 Mg5 3.882081 1_565
Ba0 Mg5 3.882086 1_555
Ba0 Mg5 3.882086 1_665
Ba0 Mg2 3.905122 1_565
Ba0 Mg6 3.905125 1_455
Ba0 Mg1 3.905128 1_455
Ba0 Mg1 3.905128 1_565
Ba0 Mg6 3.905131 1_555
Ba0 Mg2 3.905134 1_555
Ba0 Ba2 4.016206 1_565
Ba0 Ba2 4.016207 1_455
Ba0 Ba2 4.016218 1_555
Ba0 Ba3 4.102578 1_555
Ba1 Mg2 3.798227 1_556
Ba1 Mg1 3.798227 1_556
Ba1 Mg6 3.798230 1_556
Ba1 Mg4 3.882081 1_656
Ba1 Mg4 3.882086 1_666
Ba1 Mg4 3.882086 1_556
Ba1 Mg3 3.905122 1_545
Ba1 Mg0 3.905125 1_655
Ba1 Mg7 3.905128 1_655
Ba1 Mg7 3.905128 1_545
Ba1 Mg0 3.905131 1_555
Ba1 Mg3 3.905134 1_555
Ba1 Ba3 4.016206 1_546
Ba1 Ba3 4.016207 1_656
Ba1 Ba3 4.016218 1_556
Ba1 Ba2 4.102578 1_555
Ba2 Mg2 3.798227 1_555
Ba2 Mg1 3.798227 1_555
Ba2 Mg6 3.798230 1_555
Ba2 Mg5 3.882081 1_655
Ba2 Mg5 3.882086 1_665
Ba2 Mg5 3.882086 1_555
Ba2 Mg3 3.905122 1_545
Ba2 Mg0 3.905125 1_655
Ba2 Mg7 3.905128 1_655
Ba2 Mg7 3.905128 1_545
Ba2 Mg0 3.905131 1_555
Ba2 Mg3 3.905134 1_555
Ba3 Mg3 3.798227 1_554
Ba3 Mg7 3.798227 1_554
Ba3 Mg0 3.798230 1_554
Ba3 Mg4 3.882081 1_565
Ba3 Mg4 3.882086 1_555
Ba3 Mg4 3.882086 1_665
Ba3 Mg2 3.905122 1_565
Ba3 Mg6 3.905125 1_455
Ba3 Mg1 3.905128 1_455
Ba3 Mg1 3.905128 1_565
Ba3 Mg6 3.905131 1_555
Ba3 Mg2 3.905134 1_555
Mg0 Mg7 3.210881 1_545
Mg0 Mg3 3.210884 1_445
Mg0 Mg4 3.230389 1_556
Mg0 Mg5 3.230389 1_555
Mg0 Mg3 3.433841 1_555
Mg0 Mg7 3.433845 1_555
Mg1 Mg6 3.210881 1_545
Mg1 Mg2 3.210888 1_655
Mg1 Mg4 3.230389 1_655
Mg1 Mg5 3.230389 1_655
Mg1 Mg2 3.433839 1_555
Mg1 Mg6 3.433845 1_555
Mg2 Mg6 3.210884 1_445
Mg2 Mg4 3.230392 1_555
Mg2 Mg5 3.230392 1_555
Mg2 Mg6 3.433841 1_555
Mg3 Mg7 3.210888 1_655
Mg3 Mg5 3.230392 1_665
Mg3 Mg4 3.230392 1_666
Mg3 Mg7 3.433839 1_555
Mg4 Mg6 3.230389 1_445
Mg4 Mg7 3.230389 1_544
Mg5 Mg6 3.230389 1_445
Mg5 Mg7 3.230389 1_545
