# generated using pymatgen
data_ZnSb2P2O9
_symmetry_space_group_name_H-M   'P 1'
_cell_length_a   6.29186900
_cell_length_b   7.50302700
_cell_length_c   18.08410300
_cell_angle_alpha   90.00000000
_cell_angle_beta   90.00000000
_cell_angle_gamma   90.00000000
_symmetry_Int_Tables_number   1
_chemical_formula_structural   ZnSb2P2O9
_chemical_formula_sum   'Zn4 Sb8 P8 O36'
_cell_volume   853.71547350
_cell_formula_units_Z   4
loop_
 _symmetry_equiv_pos_site_id
 _symmetry_equiv_pos_as_xyz
  1  'x, y, z'
loop_
 _atom_site_type_symbol
 _atom_site_label
 _atom_site_symmetry_multiplicity
 _atom_site_fract_x
 _atom_site_fract_y
 _atom_site_fract_z
 _atom_site_occupancy
  Zn  Zn0  1  0.55793000  0.56953900  0.00520500  1
  Zn  Zn1  1  0.94207000  0.43046100  0.50520500  1
  Zn  Zn2  1  0.05793000  0.93046100  0.99479500  1
  Zn  Zn3  1  0.44207000  0.06953900  0.49479500  1
  Sb  Sb0  1  0.11007300  0.48179100  0.14532200  1
  Sb  Sb1  1  0.88992700  0.98179100  0.35467800  1
  Sb  Sb2  1  0.61007300  0.01820900  0.85467800  1
  Sb  Sb3  1  0.38992700  0.51820900  0.64532200  1
  Sb  Sb4  1  0.55193600  0.19595000  0.19446400  1
  Sb  Sb5  1  0.05193600  0.30405000  0.80553600  1
  Sb  Sb6  1  0.94806400  0.80405000  0.69446400  1
  Sb  Sb7  1  0.44806400  0.69595000  0.30553600  1
  P  P0  1  0.07008700  0.02855600  0.16922400  1
  P  P1  1  0.92991300  0.52855600  0.33077600  1
  P  P2  1  0.57008700  0.47144400  0.83077600  1
  P  P3  1  0.42991300  0.97144400  0.66922400  1
  P  P4  1  0.05187600  0.52140600  0.97315100  1
  P  P5  1  0.44812400  0.47859400  0.47315100  1
  P  P6  1  0.55187600  0.97859400  0.02684900  1
  P  P7  1  0.94812400  0.02140600  0.52684900  1
  O  O0  1  0.93517800  0.87307900  0.58686100  1
  O  O1  1  0.06482200  0.37307900  0.91313900  1
  O  O2  1  0.43517800  0.62692100  0.41313900  1
  O  O3  1  0.56482200  0.12692100  0.08686100  1
  O  O4  1  0.05977200  0.70616300  0.93819000  1
  O  O5  1  0.94022800  0.20616300  0.56181000  1
  O  O6  1  0.55977200  0.79383700  0.06181000  1
  O  O7  1  0.44022800  0.29383700  0.43819000  1
  O  O8  1  0.21171700  0.95585300  0.71113500  1
  O  O9  1  0.78828300  0.45585300  0.78886500  1
  O  O10  1  0.71171700  0.54414700  0.28886500  1
  O  O11  1  0.28828300  0.04414700  0.21113500  1
  O  O12  1  0.40971800  0.42103600  0.16684000  1
  O  O13  1  0.59028200  0.92103600  0.33316000  1
  O  O14  1  0.90971800  0.07896400  0.83316000  1
  O  O15  1  0.09028200  0.57896400  0.66684000  1
  O  O16  1  0.24957900  0.48959900  0.02677000  1
  O  O17  1  0.75042100  0.98959900  0.47323000  1
  O  O18  1  0.74957900  0.01040100  0.97323000  1
  O  O19  1  0.25042100  0.51040100  0.52677000  1
  O  O20  1  0.41994100  0.09291900  0.60342400  1
  O  O21  1  0.58005900  0.59291900  0.89657600  1
  O  O22  1  0.91994100  0.40708100  0.39657600  1
  O  O23  1  0.08005900  0.90708100  0.10342400  1
  O  O24  1  0.50397800  0.27467500  0.85783100  1
  O  O25  1  0.49602200  0.77467500  0.64216900  1
  O  O26  1  0.00397800  0.22532500  0.14216900  1
  O  O27  1  0.99602200  0.72532500  0.35783100  1
  O  O28  1  0.09322100  0.46349500  0.27355600  1
  O  O29  1  0.35651300  0.01245500  0.97611500  1
  O  O30  1  0.14348700  0.98754500  0.47611500  1
  O  O31  1  0.85651300  0.48754500  0.02388500  1
  O  O32  1  0.40677900  0.53650500  0.77355600  1
  O  O33  1  0.59322100  0.03650500  0.72644400  1
  O  O34  1  0.90677900  0.96349500  0.22644400  1
  O  O35  1  0.64348700  0.51245500  0.52388500  1
loop_
_geom_bond_atom_site_label_1
_geom_bond_atom_site_label_2
_geom_bond_distance
_geom_bond_site_symmetry_2
O0 P7 1.556593 1_565
O0 Sb6 2.015282 1_555
O1 P4 1.556593 1_555
O1 Sb5 2.015282 1_555
O2 P5 1.556593 1_555
O2 Sb7 2.015282 1_555
O3 P6 1.556593 1_545
O3 Sb4 2.015282 1_555
O4 P4 1.524417 1_555
O4 Zn2 1.969821 1_555
O5 P7 1.524417 1_555
O5 Zn1 1.969821 1_555
O6 P6 1.524417 1_555
O6 Zn0 1.969821 1_555
O7 P5 1.524417 1_555
O7 Zn3 1.969821 1_555
O8 P3 1.572539 1_555
O8 Sb6 2.034704 1_455
O9 P2 1.572539 1_555
O9 Sb5 2.034704 1_655
O10 P1 1.572539 1_555
O10 Sb7 2.034704 1_555
O11 P0 1.572539 1_555
O11 Sb4 2.034704 1_555
O12 Sb4 1.975446 1_555
O12 Sb0 1.978302 1_555
O13 Sb7 1.975446 1_555
O13 Sb1 1.978302 1_555
O14 Sb5 1.975446 1_655
O14 Sb2 1.978302 1_555
O15 Sb6 1.975446 1_455
O15 Sb3 1.978302 1_555
O16 P4 1.595154 1_554
O16 Zn0 2.067811 1_555
O16 Sb0 2.317373 1_555
O17 P7 1.595154 1_565
O17 Zn3 2.067811 1_565
O17 Sb1 2.317373 1_555
O18 P6 1.595154 1_546
O18 Zn2 2.067811 1_645
O18 Sb2 2.317373 1_555
O19 P5 1.595154 1_555
O19 Zn1 2.067811 1_455
O19 Sb3 2.317373 1_555
O20 P3 1.500195 1_545
O20 Zn3 1.977183 1_555
O21 P2 1.500195 1_555
O21 Zn0 1.977183 1_556
O22 P1 1.500195 1_555
O22 Zn1 1.977183 1_555
O23 P0 1.500195 1_565
O23 Zn2 1.977183 1_554
O24 P2 1.609982 1_555
O24 Sb2 2.037566 1_555
O25 P3 1.609982 1_555
O25 Sb3 2.037566 1_555
O26 P0 1.609982 1_555
O26 Sb0 2.037566 1_555
O27 P1 1.609982 1_555
O27 Sb1 2.037566 1_555
O28 P1 1.537801 1_455
O28 Sb0 2.325475 1_555
O29 P6 1.554748 1_546
O29 Zn2 2.005467 1_545
O30 P7 1.554748 1_465
O30 Zn3 2.005467 1_565
O31 P4 1.554748 1_654
O31 Zn0 2.005467 1_555
O32 P2 1.537801 1_555
O32 Sb3 2.325475 1_555
O33 P3 1.537801 1_545
O33 Sb2 2.325475 1_555
O34 P0 1.537801 1_665
O34 Sb1 2.325475 1_555
O35 P5 1.554748 1_555
O35 Zn1 2.005467 1_555
