# generated using pymatgen
data_Pr2Al7Cu
_symmetry_space_group_name_H-M   'P 1'
_cell_length_a   4.27454500
_cell_length_b   4.27454500
_cell_length_c   11.01248900
_cell_angle_alpha   90.00000000
_cell_angle_beta   90.00000000
_cell_angle_gamma   90.00000000
_symmetry_Int_Tables_number   1
_chemical_formula_structural   Pr2Al7Cu
_chemical_formula_sum   'Pr2 Al7 Cu1'
_cell_volume   201.21728023
_cell_formula_units_Z   1
loop_
 _symmetry_equiv_pos_site_id
 _symmetry_equiv_pos_as_xyz
  1  'x, y, z'
loop_
 _atom_site_type_symbol
 _atom_site_label
 _atom_site_symmetry_multiplicity
 _atom_site_fract_x
 _atom_site_fract_y
 _atom_site_fract_z
 _atom_site_occupancy
  Pr  Pr0  1  0.00000000  0.00000000  0.99794100  1
  Pr  Pr1  1  0.50000000  0.50000000  0.49752400  1
  Al  Al0  1  0.00000000  0.50000000  0.23796600  1
  Al  Al1  1  0.50000000  0.00000000  0.75423800  1
  Al  Al2  1  0.50000000  0.00000000  0.23796600  1
  Al  Al3  1  0.00000000  0.50000000  0.75423800  1
  Al  Al4  1  0.00000000  0.00000000  0.61402600  1
  Al  Al5  1  0.00000000  0.00000000  0.38349800  1
  Al  Al6  1  0.50000000  0.50000000  0.90201700  1
  Cu  Cu0  1  0.50000000  0.50000000  0.12058600  1
loop_
_geom_bond_atom_site_label_1
_geom_bond_atom_site_label_2
_geom_bond_distance
_geom_bond_site_symmetry_2
Al0 Cu0 2.497772 1_555
Al0 Cu0 2.497772 1_455
Al0 Al5 2.671420 1_565
Al0 Al5 2.671420 1_555
Al0 Pr0 3.399239 1_554
Al0 Pr0 3.399239 1_564
Al0 Pr1 3.569071 1_555
Al0 Pr1 3.569071 1_455
Al1 Al4 2.636689 1_655
Al1 Al4 2.636689 1_555
Al1 Al6 2.686338 1_545
Al1 Al6 2.686338 1_555
Al1 Pr0 3.430829 1_655
Al1 Pr0 3.430829 1_555
Al1 Pr1 3.544038 1_555
Al1 Pr1 3.544038 1_545
Al2 Cu0 2.497772 1_545
Al2 Cu0 2.497772 1_555
Al2 Al5 2.671420 1_655
Al2 Al5 2.671420 1_555
Al2 Pr0 3.399239 1_554
Al2 Pr0 3.399239 1_654
Al2 Pr1 3.569071 1_545
Al2 Pr1 3.569071 1_555
Al3 Al4 2.636689 1_565
Al3 Al4 2.636689 1_555
Al3 Al6 2.686338 1_555
Al3 Al6 2.686338 1_455
Al3 Pr0 3.430829 1_555
Al3 Pr0 3.430829 1_565
Al3 Pr1 3.544038 1_555
Al3 Pr1 3.544038 1_455
Al4 Al5 2.538687 1_555
Al4 Pr1 3.283580 1_545
Al4 Pr1 3.283580 1_555
Al4 Pr1 3.283580 1_445
Al4 Pr1 3.283580 1_455
Al5 Pr1 3.273022 1_455
Al5 Pr1 3.273022 1_555
Al5 Pr1 3.273022 1_545
Al5 Pr1 3.273022 1_445
Al6 Cu0 2.406989 1_556
Al6 Pr0 3.201838 1_665
Al6 Pr0 3.201838 1_555
Al6 Pr0 3.201838 1_655
Al6 Pr0 3.201838 1_565
Cu0 Pr0 3.310598 1_554
Cu0 Pr0 3.310598 1_664
Cu0 Pr0 3.310598 1_564
Cu0 Pr0 3.310598 1_654
