# generated using pymatgen
data_Na3Cl
_symmetry_space_group_name_H-M   'P 1'
_cell_length_a   6.97283270
_cell_length_b   6.97283270
_cell_length_c   18.97393046
_cell_angle_alpha   90.00000000
_cell_angle_beta   90.00000000
_cell_angle_gamma   90.00000000
_symmetry_Int_Tables_number   1
_chemical_formula_structural   Na3Cl
_chemical_formula_sum   'Na24 Cl8'
_cell_volume   922.52001003
_cell_formula_units_Z   8
loop_
 _symmetry_equiv_pos_site_id
 _symmetry_equiv_pos_as_xyz
  1  'x, y, z'
loop_
 _atom_site_type_symbol
 _atom_site_label
 _atom_site_symmetry_multiplicity
 _atom_site_fract_x
 _atom_site_fract_y
 _atom_site_fract_z
 _atom_site_occupancy
  Na  Na0_0  1  0.00000000  0.00000000  0.25000000  1
  Na  Na0_1  1  0.00000000  0.00000000  0.75000000  1
  Na  Na0_2  1  0.00000000  0.50000000  0.25000000  1
  Na  Na0_3  1  0.00000000  0.50000000  0.75000000  1
  Na  Na0_4  1  0.50000000  0.00000000  0.25000000  1
  Na  Na0_5  1  0.50000000  0.00000000  0.75000000  1
  Na  Na0_6  1  0.50000000  0.50000000  0.25000000  1
  Na  Na0_7  1  0.50000000  0.50000000  0.75000000  1
  Na  Na1_0  1  0.25000000  0.25000000  0.41283351  1
  Na  Na1_1  1  0.25000000  0.25000000  0.91283351  1
  Na  Na1_2  1  0.25000000  0.75000000  0.41283351  1
  Na  Na1_3  1  0.25000000  0.75000000  0.91283351  1
  Na  Na1_4  1  0.75000000  0.25000000  0.41283351  1
  Na  Na1_5  1  0.75000000  0.25000000  0.91283351  1
  Na  Na1_6  1  0.75000000  0.75000000  0.41283351  1
  Na  Na1_7  1  0.75000000  0.75000000  0.91283351  1
  Na  Na2_0  1  0.25000000  0.25000000  0.08716649  1
  Na  Na2_1  1  0.25000000  0.25000000  0.58716649  1
  Na  Na2_2  1  0.25000000  0.75000000  0.08716649  1
  Na  Na2_3  1  0.25000000  0.75000000  0.58716649  1
  Na  Na2_4  1  0.75000000  0.25000000  0.08716649  1
  Na  Na2_5  1  0.75000000  0.25000000  0.58716649  1
  Na  Na2_6  1  0.75000000  0.75000000  0.08716649  1
  Na  Na2_7  1  0.75000000  0.75000000  0.58716649  1
  Cl  Cl0_0  1  0.00000000  0.00000000  0.00000000  1
  Cl  Cl0_1  1  0.00000000  0.00000000  0.50000000  1
  Cl  Cl0_2  1  0.00000000  0.50000000  0.00000000  1
  Cl  Cl0_3  1  0.00000000  0.50000000  0.50000000  1
  Cl  Cl0_4  1  0.50000000  0.00000000  0.00000000  1
  Cl  Cl0_5  1  0.50000000  0.00000000  0.50000000  1
  Cl  Cl0_6  1  0.50000000  0.50000000  0.00000000  1
  Cl  Cl0_7  1  0.50000000  0.50000000  0.50000000  1
loop_
_geom_bond_atom_site_label_1
_geom_bond_atom_site_label_2
_geom_bond_distance
_geom_bond_site_symmetry_2
Na0_0 Na0_2 3.486416 1_555
Na0_0 Na0_4 3.486416 1_555
Na0_0 Na0_2 3.486416 1_545
Na0_0 Na0_4 3.486416 1_455
Na0_0 Na1_2 3.952610 1_545
Na0_0 Na1_4 3.952610 1_455
Na0_0 Na1_6 3.952610 1_445
Na0_0 Na1_0 3.952610 1_555
Na0_0 Na2_4 3.952610 1_455
Na0_0 Na2_2 3.952610 1_545
Na0_0 Na2_6 3.952610 1_445
Na0_0 Na2_0 3.952610 1_555
Na0_1 Na0_5 3.486416 1_555
Na0_1 Na0_3 3.486416 1_555
Na0_1 Na0_5 3.486416 1_455
Na0_1 Na0_3 3.486416 1_545
Na0_1 Na2_3 3.952610 1_545
Na0_1 Na2_7 3.952610 1_445
Na0_1 Na1_3 3.952610 1_545
Na0_1 Na1_7 3.952610 1_445
Na0_1 Na1_5 3.952610 1_455
Na0_1 Na1_1 3.952610 1_555
Na0_1 Na2_1 3.952610 1_555
Na0_1 Na2_5 3.952610 1_455
Na0_2 Na0_6 3.486416 1_555
Na0_2 Na0_6 3.486416 1_455
Na0_2 Na1_4 3.952610 1_455
Na0_2 Na2_2 3.952610 1_555
Na0_2 Na1_0 3.952610 1_555
Na0_2 Na1_2 3.952610 1_555
Na0_2 Na2_4 3.952610 1_455
Na0_2 Na2_0 3.952610 1_555
Na0_2 Na1_6 3.952610 1_455
Na0_2 Na2_6 3.952610 1_455
Na0_3 Na0_7 3.486416 1_555
Na0_3 Na0_7 3.486416 1_455
Na0_3 Na1_3 3.952610 1_555
Na0_3 Na1_5 3.952610 1_455
Na0_3 Na1_1 3.952610 1_555
Na0_3 Na2_3 3.952610 1_555
Na0_3 Na2_1 3.952610 1_555
Na0_3 Na2_5 3.952610 1_455
Na0_3 Na2_7 3.952610 1_455
Na0_3 Na1_7 3.952610 1_455
Na0_4 Na0_6 3.486416 1_555
Na0_4 Na0_6 3.486416 1_545
Na0_4 Na2_4 3.952610 1_555
Na0_4 Na1_2 3.952610 1_545
Na0_4 Na1_0 3.952610 1_555
Na0_4 Na2_2 3.952610 1_545
Na0_4 Na1_4 3.952610 1_555
Na0_4 Na2_0 3.952610 1_555
Na0_4 Na2_6 3.952610 1_545
Na0_4 Na1_6 3.952610 1_545
Na0_5 Na0_7 3.486416 1_555
Na0_5 Na0_7 3.486416 1_545
Na0_5 Na2_3 3.952610 1_545
Na0_5 Na2_5 3.952610 1_555
Na0_5 Na1_3 3.952610 1_545
Na0_5 Na1_1 3.952610 1_555
Na0_5 Na1_5 3.952610 1_555
Na0_5 Na2_1 3.952610 1_555
Na0_5 Na1_7 3.952610 1_545
Na0_5 Na2_7 3.952610 1_545
Na0_6 Na2_4 3.952610 1_555
Na0_6 Na2_2 3.952610 1_555
Na0_6 Na1_0 3.952610 1_555
Na0_6 Na1_2 3.952610 1_555
Na0_6 Na1_4 3.952610 1_555
Na0_6 Na2_0 3.952610 1_555
Na0_6 Na2_6 3.952610 1_555
Na0_6 Na1_6 3.952610 1_555
Na0_7 Na2_5 3.952610 1_555
Na0_7 Na1_3 3.952610 1_555
Na0_7 Na1_1 3.952610 1_555
Na0_7 Na1_5 3.952610 1_555
Na0_7 Na2_3 3.952610 1_555
Na0_7 Na2_1 3.952610 1_555
Na0_7 Na2_7 3.952610 1_555
Na0_7 Na1_7 3.952610 1_555
Cl0_0 Na1_3 2.968654 1_544
Cl0_0 Na1_5 2.968654 1_454
Cl0_0 Na2_2 2.968654 1_545
Cl0_0 Na2_4 2.968654 1_455
Cl0_0 Na2_0 2.968654 1_555
Cl0_0 Na1_1 2.968654 1_554
Cl0_0 Na1_7 2.968654 1_444
Cl0_0 Na2_6 2.968654 1_445
Cl0_1 Na1_0 2.968654 1_555
Cl0_1 Na2_1 2.968654 1_555
Cl0_1 Na1_2 2.968654 1_545
Cl0_1 Na2_3 2.968654 1_545
Cl0_1 Na1_4 2.968654 1_455
Cl0_1 Na2_5 2.968654 1_455
Cl0_1 Na2_7 2.968654 1_445
Cl0_1 Na1_6 2.968654 1_445
Cl0_2 Na1_5 2.968654 1_454
Cl0_2 Na2_4 2.968654 1_455
Cl0_2 Na2_0 2.968654 1_555
Cl0_2 Na1_1 2.968654 1_554
Cl0_2 Na1_3 2.968654 1_554
Cl0_2 Na2_2 2.968654 1_555
Cl0_2 Na2_6 2.968654 1_455
Cl0_2 Na1_7 2.968654 1_454
Cl0_3 Na1_0 2.968654 1_555
Cl0_3 Na2_1 2.968654 1_555
Cl0_3 Na1_4 2.968654 1_455
Cl0_3 Na2_5 2.968654 1_455
Cl0_3 Na1_2 2.968654 1_555
Cl0_3 Na2_3 2.968654 1_555
Cl0_3 Na1_6 2.968654 1_455
Cl0_3 Na2_7 2.968654 1_455
Cl0_4 Na1_3 2.968654 1_544
Cl0_4 Na2_2 2.968654 1_545
Cl0_4 Na2_0 2.968654 1_555
Cl0_4 Na1_1 2.968654 1_554
Cl0_4 Na2_4 2.968654 1_555
Cl0_4 Na1_5 2.968654 1_554
Cl0_4 Na2_6 2.968654 1_545
Cl0_4 Na1_7 2.968654 1_544
Cl0_5 Na1_0 2.968654 1_555
Cl0_5 Na2_1 2.968654 1_555
Cl0_5 Na1_2 2.968654 1_545
Cl0_5 Na2_3 2.968654 1_545
Cl0_5 Na2_5 2.968654 1_555
Cl0_5 Na1_4 2.968654 1_555
Cl0_5 Na2_7 2.968654 1_545
Cl0_5 Na1_6 2.968654 1_545
Cl0_6 Na2_0 2.968654 1_555
Cl0_6 Na1_1 2.968654 1_554
Cl0_6 Na1_3 2.968654 1_554
Cl0_6 Na2_4 2.968654 1_555
Cl0_6 Na1_5 2.968654 1_554
Cl0_6 Na2_2 2.968654 1_555
Cl0_6 Na2_6 2.968654 1_555
Cl0_6 Na1_7 2.968654 1_554
Cl0_7 Na1_0 2.968654 1_555
Cl0_7 Na2_1 2.968654 1_555
Cl0_7 Na2_3 2.968654 1_555
Cl0_7 Na2_5 2.968654 1_555
Cl0_7 Na1_4 2.968654 1_555
Cl0_7 Na1_2 2.968654 1_555
Cl0_7 Na1_6 2.968654 1_555
Cl0_7 Na2_7 2.968654 1_555
