# generated using pymatgen
data_Ti5S8
_symmetry_space_group_name_H-M   'P 1'
_cell_length_a   3.41855600
_cell_length_b   5.95784300
_cell_length_c   35.36410892
_cell_angle_alpha   89.60960142
_cell_angle_beta   90.00000000
_cell_angle_gamma   90.00000000
_symmetry_Int_Tables_number   1
_chemical_formula_structural   Ti5S8
_chemical_formula_sum   'Ti15 S24'
_cell_volume   720.25186431
_cell_formula_units_Z   3
loop_
 _symmetry_equiv_pos_site_id
 _symmetry_equiv_pos_as_xyz
  1  'x, y, z'
loop_
 _atom_site_type_symbol
 _atom_site_label
 _atom_site_symmetry_multiplicity
 _atom_site_fract_x
 _atom_site_fract_y
 _atom_site_fract_z
 _atom_site_occupancy
  Ti  Ti0  1  0.50000000  0.66175300  0.66598400  1
  Ti  Ti1  1  0.00000000  0.18355900  0.66646800  1
  Ti  Ti2  1  0.00000000  0.84882000  0.16708100  1
  Ti  Ti3  1  0.50000000  0.32736100  0.16727100  1
  Ti  Ti4  1  0.50000000  0.99458000  0.50050600  1
  Ti  Ti5  1  0.00000000  0.51508500  0.50023900  1
  Ti  Ti6  1  0.50000000  0.99150900  0.99954500  1
  Ti  Ti7  1  0.00000000  0.49344400  0.00185500  1
  Ti  Ti8  1  0.50000000  0.67169900  0.75474900  1
  Ti  Ti9  1  0.50000000  0.33740700  0.07877200  1
  Ti  Ti10  1  0.50000000  0.00405300  0.41187100  1
  Ti  Ti11  1  0.50000000  0.65811800  0.33285200  1
  Ti  Ti12  1  0.00000000  0.16003000  0.33535300  1
  Ti  Ti13  1  0.00000000  0.82594800  0.83148300  1
  Ti  Ti14  1  0.50000000  0.32419400  0.83379600  1
  S  S0  1  0.50000000  0.66230600  0.87155100  1
  S  S1  1  0.00000000  0.15883000  0.87317600  1
  S  S2  1  0.00000000  0.81808300  0.37629700  1
  S  S3  1  0.50000000  0.34035600  0.37617900  1
  S  S4  1  0.50000000  0.67326000  0.04282000  1
  S  S5  1  0.00000000  0.15158100  0.04302500  1
  S  S6  1  0.00000000  0.83367400  0.54111900  1
  S  S7  1  0.50000000  0.33432900  0.53811800  1
  S  S8  1  0.50000000  0.67513100  0.45770500  1
  S  S9  1  0.00000000  0.16958800  0.45692100  1
  S  S10  1  0.00000000  0.83026200  0.96015700  1
  S  S11  1  0.50000000  0.33341300  0.96187500  1
  S  S12  1  0.50000000  0.66778200  0.20476600  1
  S  S13  1  0.00000000  0.16682500  0.20788200  1
  S  S14  1  0.00000000  0.83532100  0.70954100  1
  S  S15  1  0.50000000  0.34080600  0.70911800  1
  S  S16  1  0.50000000  0.00813900  0.12447900  1
  S  S17  1  0.00000000  0.50300100  0.12365500  1
  S  S18  1  0.50000000  0.00568300  0.62869100  1
  S  S19  1  0.00000000  0.50390500  0.62548500  1
  S  S20  1  0.50000000  0.00036300  0.29526900  1
  S  S21  1  0.00000000  0.49707300  0.29345900  1
  S  S22  1  0.50000000  0.00714300  0.79035600  1
  S  S23  1  0.00000000  0.48558800  0.79053200  1
loop_
_geom_bond_atom_site_label_1
_geom_bond_atom_site_label_2
_geom_bond_distance
_geom_bond_site_symmetry_2
S0 Ti13 2.420979 1_655
S0 Ti13 2.420979 1_555
S0 Ti14 2.424297 1_555
S1 Ti14 2.411021 1_555
S1 Ti14 2.411021 1_455
S1 Ti13 2.479340 1_545
S2 Ti10 2.398107 1_565
S2 Ti10 2.398107 1_465
S2 Ti12 2.491347 1_565
S2 Ti11 2.492065 1_455
S2 Ti11 2.492065 1_555
S3 Ti10 2.360784 1_555
S3 Ti11 2.427403 1_555
S3 Ti12 2.486261 1_655
S3 Ti12 2.486261 1_555
S4 Ti9 2.363399 1_555
S4 Ti6 2.428505 1_554
S4 Ti7 2.487811 1_555
S4 Ti7 2.487811 1_655
S5 Ti9 2.400943 1_555
S5 Ti9 2.400943 1_455
S5 Ti6 2.493078 1_544
S5 Ti6 2.493078 1_444
S5 Ti7 2.495550 1_555
S6 Ti5 2.393783 1_555
S6 Ti4 2.425835 1_555
S6 Ti4 2.425835 1_455
S7 Ti5 2.419945 1_655
S7 Ti5 2.419945 1_555
S7 Ti4 2.429643 1_545
S8 Ti4 2.439790 1_555
S8 Ti5 2.464519 1_555
S8 Ti5 2.464519 1_655
S8 Ti10 2.534611 1_565
S9 Ti4 2.522426 1_445
S9 Ti4 2.522426 1_545
S9 Ti10 2.540439 1_555
S9 Ti10 2.540439 1_455
S9 Ti5 2.574253 1_555
S10 Ti6 2.408944 1_555
S10 Ti6 2.408944 1_455
S10 Ti7 2.482144 1_556
S11 Ti7 2.418272 1_556
S11 Ti7 2.418272 1_656
S11 Ti6 2.426334 1_545
S12 Ti2 2.416918 1_655
S12 Ti2 2.416918 1_555
S12 Ti3 2.430711 1_555
S13 Ti2 2.389307 1_545
S13 Ti3 2.424932 1_555
S13 Ti3 2.424932 1_455
S14 Ti0 2.526930 1_455
S14 Ti0 2.526930 1_555
S14 Ti8 2.531139 1_455
S14 Ti8 2.531139 1_555
S14 Ti1 2.565495 1_565
S15 Ti0 2.437911 1_555
S15 Ti1 2.468499 1_555
S15 Ti1 2.468499 1_655
S15 Ti8 2.556136 1_555
S16 Ti3 2.438530 1_555
S16 Ti2 2.464327 1_645
S16 Ti2 2.464327 1_545
S16 Ti9 2.533351 1_555
S17 Ti3 2.524636 1_455
S17 Ti3 2.524636 1_555
S17 Ti9 2.536862 1_455
S17 Ti9 2.536862 1_555
S17 Ti2 2.578089 1_555
S18 Ti1 2.418424 1_655
S18 Ti1 2.418424 1_555
S18 Ti0 2.429244 1_545
S19 Ti1 2.388618 1_555
S19 Ti0 2.423970 1_455
S19 Ti0 2.423970 1_555
S20 Ti12 2.419572 1_655
S20 Ti12 2.419572 1_555
S20 Ti11 2.426363 1_545
S21 Ti11 2.408562 1_455
S21 Ti11 2.408562 1_555
S21 Ti12 2.487306 1_555
S22 Ti8 2.369387 1_545
S22 Ti14 2.442867 1_555
S22 Ti13 2.486154 1_645
S22 Ti13 2.486154 1_545
S23 Ti8 2.394434 1_455
S23 Ti8 2.394434 1_555
S23 Ti14 2.483356 1_555
S23 Ti14 2.483356 1_455
S23 Ti13 2.499862 1_555
