# generated using pymatgen
data_UP2C2(NO4)2
_symmetry_space_group_name_H-M   'P 1'
_cell_length_a   5.52083651
_cell_length_b   5.63538831
_cell_length_c   10.13763265
_cell_angle_alpha   93.57108830
_cell_angle_beta   73.24864716
_cell_angle_gamma   120.79254574
_symmetry_Int_Tables_number   1
_chemical_formula_structural   UP2C2(NO4)2
_chemical_formula_sum   'U1 P2 C2 N2 O8'
_cell_volume   258.04432835
_cell_formula_units_Z   1
loop_
 _symmetry_equiv_pos_site_id
 _symmetry_equiv_pos_as_xyz
  1  'x, y, z'
loop_
 _atom_site_type_symbol
 _atom_site_label
 _atom_site_symmetry_multiplicity
 _atom_site_fract_x
 _atom_site_fract_y
 _atom_site_fract_z
 _atom_site_occupancy
  U  U0  1  0.50000000  0.00000000  0.00000000  1
  P  P0  1  0.05572700  0.29936600  0.18869900  1
  P  P1  1  0.94427300  0.70063400  0.81130100  1
  C  C0  1  0.35738400  0.40778000  0.53786200  1
  C  C1  1  0.64261600  0.59222000  0.46213800  1
  N  N0  1  0.11412100  0.25266800  0.60361900  1
  N  N1  1  0.88587900  0.74733200  0.39638100  1
  O  O0  1  0.24987900  0.61459900  0.12130000  1
  O  O1  1  0.75012100  0.38540100  0.87870000  1
  O  O2  1  0.79673700  0.16412300  0.11790300  1
  O  O3  1  0.25189800  0.16818500  0.11795300  1
  O  O4  1  0.20326300  0.83587700  0.88209700  1
  O  O5  1  0.74810200  0.83181500  0.88204700  1
  O  O6  1  0.95766200  0.26587700  0.34068500  1
  O  O7  1  0.04233800  0.73412300  0.65931500  1
loop_
_geom_bond_atom_site_label_1
_geom_bond_atom_site_label_2
_geom_bond_distance
_geom_bond_site_symmetry_2
C0 N0 1.169061 1_555
C1 N1 1.169061 1_555
O0 P0 1.597197 1_555
O0 U0 2.102204 1_565
O1 P1 1.597197 1_555
O1 U0 2.102204 1_556
O2 P0 1.596265 1_655
O2 U0 2.099417 1_555
O3 P0 1.593665 1_555
O3 U0 2.109074 1_555
O4 P1 1.596265 1_455
O4 U0 2.099417 1_566
O5 P1 1.593665 1_555
O5 U0 2.109074 1_566
O6 P0 1.467477 1_655
O7 P1 1.467477 1_455
