# generated using pymatgen
data_Ba2V3BiO11
_symmetry_space_group_name_H-M   'P 1'
_cell_length_a   5.87761573
_cell_length_b   7.86735300
_cell_length_c   24.53300090
_cell_angle_alpha   90.00000000
_cell_angle_beta   90.92830989
_cell_angle_gamma   90.00000000
_symmetry_Int_Tables_number   1
_chemical_formula_structural   Ba2V3BiO11
_chemical_formula_sum   'Ba8 V12 Bi4 O44'
_cell_volume   1134.28841335
_cell_formula_units_Z   4
loop_
 _symmetry_equiv_pos_site_id
 _symmetry_equiv_pos_as_xyz
  1  'x, y, z'
loop_
 _atom_site_type_symbol
 _atom_site_label
 _atom_site_symmetry_multiplicity
 _atom_site_fract_x
 _atom_site_fract_y
 _atom_site_fract_z
 _atom_site_occupancy
  Ba  Ba0  1  0.75112000  0.75853800  0.52740200  1
  Ba  Ba1  1  0.74888000  0.25853800  0.97259800  1
  Ba  Ba2  1  0.24888000  0.24146200  0.47259800  1
  Ba  Ba3  1  0.25112000  0.74146200  0.02740200  1
  Ba  Ba4  1  0.25407300  0.25181000  0.13059500  1
  Ba  Ba5  1  0.24592700  0.75181000  0.36940500  1
  Ba  Ba6  1  0.74592700  0.74819000  0.86940500  1
  Ba  Ba7  1  0.75407300  0.24819000  0.63059500  1
  V  V0  1  0.74535000  0.01743000  0.40770800  1
  V  V1  1  0.75465000  0.51743000  0.09229200  1
  V  V2  1  0.25465000  0.98257000  0.59229200  1
  V  V3  1  0.24535000  0.48257000  0.90770800  1
  V  V4  1  0.25113800  0.74453600  0.20108700  1
  V  V5  1  0.24886200  0.24453600  0.29891300  1
  V  V6  1  0.74886200  0.25546400  0.79891300  1
  V  V7  1  0.75113800  0.75546400  0.70108700  1
  V  V8  1  0.74732200  0.97868300  0.09065900  1
  V  V9  1  0.75267800  0.47868300  0.40934100  1
  V  V10  1  0.25267800  0.02131700  0.90934100  1
  V  V11  1  0.24732200  0.52131700  0.59065900  1
  Bi  Bi0  1  0.74010100  0.99745600  0.24752200  1
  Bi  Bi1  1  0.75989900  0.49745600  0.25247800  1
  Bi  Bi2  1  0.25989900  0.00254400  0.75247800  1
  Bi  Bi3  1  0.24010100  0.50254400  0.74752200  1
  O  O0  1  0.74524700  0.74791800  0.08402300  1
  O  O1  1  0.75475300  0.24791800  0.41597700  1
  O  O2  1  0.25475300  0.25208200  0.91597700  1
  O  O3  1  0.24524700  0.75208200  0.58402300  1
  O  O4  1  0.23767000  0.44184200  0.65637100  1
  O  O5  1  0.26233000  0.94184200  0.84362900  1
  O  O6  1  0.76233000  0.55815800  0.34362900  1
  O  O7  1  0.73767000  0.05815800  0.15637100  1
  O  O8  1  0.51282300  0.55242700  0.43995900  1
  O  O9  1  0.98717700  0.05242700  0.06004100  1
  O  O10  1  0.48717700  0.44757300  0.56004100  1
  O  O11  1  0.01282300  0.94757300  0.93995900  1
  O  O12  1  0.02040400  0.56025800  0.94314900  1
  O  O13  1  0.47959600  0.06025800  0.55685100  1
  O  O14  1  0.97959600  0.43974200  0.05685100  1
  O  O15  1  0.52040400  0.93974200  0.44314900  1
  O  O16  1  0.98566600  0.55454000  0.44347600  1
  O  O17  1  0.51433400  0.05454000  0.05652400  1
  O  O18  1  0.01433400  0.44546000  0.55652400  1
  O  O19  1  0.48566600  0.94546000  0.94347600  1
  O  O20  1  0.50561300  0.70818000  0.24150500  1
  O  O21  1  0.99438700  0.20818000  0.25849500  1
  O  O22  1  0.49438700  0.29182000  0.75849500  1
  O  O23  1  0.00561300  0.79182000  0.74150500  1
  O  O24  1  0.76861800  0.44219900  0.15887400  1
  O  O25  1  0.73138200  0.94219900  0.34112600  1
  O  O26  1  0.23138200  0.55780100  0.84112600  1
  O  O27  1  0.26861800  0.05780100  0.65887400  1
  O  O28  1  0.00444500  0.71334000  0.24306100  1
  O  O29  1  0.49555500  0.21334000  0.25693900  1
  O  O30  1  0.99555500  0.28666000  0.75693900  1
  O  O31  1  0.50444500  0.78666000  0.74306100  1
  O  O32  1  0.75182500  0.54755000  0.68457800  1
  O  O33  1  0.74817500  0.04755000  0.81542200  1
  O  O34  1  0.24817500  0.45245000  0.31542200  1
  O  O35  1  0.25182500  0.95245000  0.18457800  1
  O  O36  1  0.74475500  0.87794100  0.64399600  1
  O  O37  1  0.75524500  0.37794100  0.85600400  1
  O  O38  1  0.25524500  0.12205900  0.35600400  1
  O  O39  1  0.24475500  0.62205900  0.14399600  1
  O  O40  1  0.51892200  0.43839200  0.05946900  1
  O  O41  1  0.98107800  0.93839200  0.44053100  1
  O  O42  1  0.48107800  0.56160800  0.94053100  1
  O  O43  1  0.01892200  0.06160800  0.55946900  1
loop_
_geom_bond_atom_site_label_1
_geom_bond_atom_site_label_2
_geom_bond_distance
_geom_bond_site_symmetry_2
Ba0 O15 2.837746 1_555
Ba0 O41 2.909359 1_555
Ba0 O13 2.956501 1_565
Ba0 O43 2.956608 1_665
Ba0 O16 2.967746 1_555
Ba0 O18 2.989129 1_655
Ba0 O36 3.011512 1_555
Ba0 O10 3.012200 1_555
Ba0 O8 3.015931 1_555
Ba0 O3 3.199422 1_655
Ba0 O3 3.302520 1_555
Ba1 O14 2.837746 1_556
Ba1 O40 2.909359 1_556
Ba1 O12 2.956501 1_655
Ba1 O42 2.956608 1_555
Ba1 O17 2.967746 1_556
Ba1 O19 2.989129 1_545
Ba1 O37 3.011512 1_555
Ba1 O11 3.012200 1_645
Ba1 O9 3.015931 1_556
Ba1 O2 3.199422 1_555
Ba1 O2 3.302520 1_655
Ba2 O13 2.837746 1_555
Ba2 O43 2.909359 1_555
Ba2 O15 2.956501 1_545
Ba2 O41 2.956608 1_445
Ba2 O18 2.967746 1_555
Ba2 O16 2.989129 1_455
Ba2 O38 3.011512 1_555
Ba2 O8 3.012200 1_555
Ba2 O10 3.015931 1_555
Ba2 O1 3.199422 1_455
Ba2 O1 3.302520 1_555
Ba3 O12 2.837746 1_554
Ba3 O42 2.909359 1_554
Ba3 O14 2.956501 1_455
Ba3 O40 2.956608 1_555
Ba3 O19 2.967746 1_554
Ba3 O17 2.989129 1_565
Ba3 O39 3.011512 1_555
Ba3 O9 3.012200 1_465
Ba3 O11 3.015931 1_554
Ba3 O0 3.199422 1_555
Ba3 O0 3.302520 1_455
Ba4 O35 2.702131 1_545
Ba4 O40 2.776835 1_555
Ba4 O9 2.798116 1_455
Ba4 O14 2.822619 1_455
Ba4 O17 2.853233 1_555
Ba4 O39 2.931985 1_555
Ba5 O34 2.702131 1_555
Ba5 O41 2.776835 1_455
Ba5 O8 2.798116 1_555
Ba5 O15 2.822619 1_555
Ba5 O16 2.853233 1_455
Ba5 O38 2.931985 1_565
Ba6 O33 2.702131 1_565
Ba6 O42 2.776835 1_555
Ba6 O11 2.798116 1_655
Ba6 O12 2.822619 1_655
Ba6 O19 2.853233 1_555
Ba6 O37 2.931985 1_555
Ba7 O32 2.702131 1_555
Ba7 O43 2.776835 1_655
Ba7 O10 2.798116 1_555
Ba7 O13 2.822619 1_555
Ba7 O18 2.853233 1_655
Ba7 O36 2.931985 1_545
Bi0 O29 2.239371 1_565
Bi0 O21 2.245369 1_565
Bi0 O7 2.286452 1_565
Bi0 O25 2.338551 1_555
Bi0 O20 2.663484 1_555
Bi0 O28 2.725401 1_655
Bi1 O28 2.239371 1_655
Bi1 O20 2.245369 1_555
Bi1 O6 2.286452 1_555
Bi1 O24 2.338551 1_555
Bi1 O21 2.663484 1_555
Bi1 O29 2.725401 1_555
Bi2 O31 2.239371 1_545
Bi2 O23 2.245369 1_545
Bi2 O5 2.286452 1_545
Bi2 O27 2.338551 1_555
Bi2 O22 2.663484 1_555
Bi2 O30 2.725401 1_455
Bi3 O30 2.239371 1_455
Bi3 O22 2.245369 1_555
Bi3 O4 2.286452 1_555
Bi3 O26 2.338551 1_555
Bi3 O23 2.663484 1_555
Bi3 O31 2.725401 1_555
O0 V8 1.822818 1_555
O0 V1 1.825380 1_555
O1 V9 1.822818 1_555
O1 V0 1.825380 1_555
O2 V10 1.822818 1_555
O2 V3 1.825380 1_555
O3 V11 1.822818 1_555
O3 V2 1.825380 1_555
O4 V11 1.730906 1_555
O5 V10 1.730906 1_565
O6 V9 1.730906 1_555
O7 V8 1.730906 1_545
O8 V9 1.709563 1_555
O9 V8 1.709563 1_545
O10 V11 1.709563 1_555
O11 V10 1.709563 1_565
O12 V3 1.707299 1_555
O13 V2 1.707299 1_545
O14 V1 1.707299 1_555
O15 V0 1.707299 1_565
O16 V9 1.701644 1_555
O17 V8 1.701644 1_545
O18 V11 1.701644 1_555
O19 V10 1.701644 1_565
O20 V4 1.803916 1_555
O21 V5 1.803916 1_655
O22 V6 1.803916 1_555
O23 V7 1.803916 1_455
O24 V1 1.738069 1_555
O25 V0 1.738069 1_565
O26 V3 1.738069 1_555
O27 V2 1.738069 1_545
O28 V4 1.808701 1_555
O29 V5 1.808701 1_555
O30 V6 1.808701 1_555
O31 V7 1.808701 1_555
O32 V7 1.685149 1_555
O33 V6 1.685149 1_555
O34 V5 1.685149 1_555
O35 V4 1.685149 1_555
O36 V7 1.699968 1_555
O37 V6 1.699968 1_555
O38 V5 1.699968 1_555
O39 V4 1.699968 1_555
O40 V1 1.708389 1_555
O41 V0 1.708389 1_565
O42 V3 1.708389 1_555
O43 V2 1.708389 1_545
