# generated using pymatgen
data_CaCd4(TcO3)4
_symmetry_space_group_name_H-M   'P 1'
_cell_length_a   5.46719585
_cell_length_b   5.60736533
_cell_length_c   9.11254329
_cell_angle_alpha   97.76551041
_cell_angle_beta   93.69437198
_cell_angle_gamma   88.06120795
_symmetry_Int_Tables_number   1
_chemical_formula_structural   CaCd4(TcO3)4
_chemical_formula_sum   'Ca1 Cd4 Tc4 O12'
_cell_volume   276.13297346
_cell_formula_units_Z   1
loop_
 _symmetry_equiv_pos_site_id
 _symmetry_equiv_pos_as_xyz
  1  'x, y, z'
loop_
 _atom_site_type_symbol
 _atom_site_label
 _atom_site_symmetry_multiplicity
 _atom_site_fract_x
 _atom_site_fract_y
 _atom_site_fract_z
 _atom_site_occupancy
  Ca  Ca0  1  0.98729800  0.81978400  0.37212500  1
  Cd  Cd0  1  0.52636200  0.54312700  0.21182500  1
  Cd  Cd1  1  0.14644100  0.12242800  0.15565900  1
  Cd  Cd2  1  0.47221500  0.47604600  0.75992300  1
  Cd  Cd3  1  0.01021300  0.98113100  0.75999600  1
  Tc  Tc0  1  0.01276900  0.55314100  0.98077300  1
  Tc  Tc1  1  0.48591800  0.94343700  0.53381800  1
  Tc  Tc2  1  0.96544300  0.42098100  0.56272100  1
  Tc  Tc3  1  0.54440900  0.03578600  0.97557300  1
  O  O0  1  0.82002500  0.86364800  0.07449100  1
  O  O1  1  0.76814200  0.14263900  0.50356400  1
  O  O2  1  0.25516100  0.21988100  0.56698700  1
  O  O3  1  0.30857900  0.75787800  0.95190300  1
  O  O4  1  0.22238300  0.26148000  0.90640000  1
  O  O5  1  0.20593400  0.72923100  0.58855300  1
  O  O6  1  0.69025900  0.63527900  0.47853300  1
  O  O7  1  0.73209000  0.34499800  0.01729000  1
  O  O8  1  0.38741800  0.90868600  0.32009400  1
  O  O9  1  0.11375500  0.51961300  0.19262200  1
  O  O10  1  0.60031000  0.04300500  0.76222500  1
  O  O11  1  0.86987500  0.57661200  0.76659500  1
loop_
_geom_bond_atom_site_label_1
_geom_bond_atom_site_label_2
_geom_bond_distance
_geom_bond_site_symmetry_2
Ca0 O6 2.288138 1_555
Ca0 O9 2.304262 1_655
Ca0 O5 2.345633 1_655
Ca0 O8 2.351582 1_655
Ca0 O1 2.366394 1_565
Ca0 O0 2.845750 1_555
Cd0 O9 2.258246 1_555
Cd0 O8 2.279673 1_555
Cd0 O7 2.298266 1_555
Cd0 O6 2.527453 1_555
Cd1 O9 2.209918 1_555
Cd1 O8 2.354047 1_545
Cd1 O0 2.356373 1_445
Cd1 O4 2.561554 1_554
Cd1 O3 2.734166 1_544
Cd2 O11 2.259423 1_555
Cd2 O3 2.391070 1_555
Cd2 O2 2.393018 1_555
Cd2 O4 2.423832 1_555
Cd2 O10 2.506780 1_555
Cd2 O5 2.596129 1_555
Cd3 O4 2.225723 1_565
Cd3 O10 2.257058 1_465
Cd3 O5 2.257806 1_555
Cd3 O11 2.428576 1_455
Cd3 O3 2.715150 1_555
O0 Tc3 1.994106 1_564
O0 Tc0 2.112174 1_654
O1 Tc2 1.923995 1_555
O1 Tc1 1.989753 1_545
O2 Tc2 1.914425 1_455
O2 Tc1 1.968770 1_545
O3 Tc3 2.036313 1_565
O3 Tc0 2.065133 1_555
O4 Tc0 2.030042 1_555
O4 Tc3 2.240622 1_555
O5 Tc1 2.102216 1_555
O5 Tc2 2.185334 1_455
O6 Tc1 2.048015 1_555
O6 Tc2 2.067373 1_555
O7 Tc3 2.023771 1_554
O7 Tc0 2.029692 1_654
O8 Tc1 1.972406 1_555
O9 Tc0 2.005153 1_554
O10 Tc3 1.993341 1_555
O10 Tc1 2.139342 1_545
O11 Tc2 2.035223 1_555
O11 Tc0 2.074311 1_655
