# generated using pymatgen
data_Nb2Co4O9
_symmetry_space_group_name_H-M   'P 1'
_cell_length_a   5.21339782
_cell_length_b   5.22538277
_cell_length_c   14.30369990
_cell_angle_alpha   90.38363271
_cell_angle_beta   89.75719055
_cell_angle_gamma   60.06447382
_symmetry_Int_Tables_number   1
_chemical_formula_structural   Nb2Co4O9
_chemical_formula_sum   'Nb4 Co8 O18'
_cell_volume   337.65519538
_cell_formula_units_Z   2
loop_
 _symmetry_equiv_pos_site_id
 _symmetry_equiv_pos_as_xyz
  1  'x, y, z'
loop_
 _atom_site_type_symbol
 _atom_site_label
 _atom_site_symmetry_multiplicity
 _atom_site_fract_x
 _atom_site_fract_y
 _atom_site_fract_z
 _atom_site_occupancy
  Nb  Nb0  1  0.99520300  0.00789500  0.64227200  1
  Nb  Nb1  1  0.00482800  0.99528000  0.85897000  1
  Nb  Nb2  1  0.00032500  0.99616300  0.35837000  1
  Nb  Nb3  1  0.99872200  0.00254200  0.14162100  1
  Co  Co0  1  0.33563300  0.33160900  0.01364200  1
  Co  Co1  1  0.32859000  0.33461900  0.51064700  1
  Co  Co2  1  0.66732800  0.66729800  0.98781800  1
  Co  Co3  1  0.33425400  0.33458000  0.80417500  1
  Co  Co4  1  0.66407000  0.67040500  0.48876400  1
  Co  Co5  1  0.67164400  0.66486400  0.69148900  1
  Co  Co6  1  0.33056900  0.33445400  0.30485300  1
  Co  Co7  1  0.66701800  0.66519700  0.19435700  1
  O  O0  1  0.70919800  0.28964700  0.25045500  1
  O  O1  1  0.99942700  0.71074500  0.24975900  1
  O  O2  1  0.28926900  0.99957400  0.24974400  1
  O  O3  1  0.29459100  0.70867500  0.74924100  1
  O  O4  1  0.99892900  0.28914300  0.75104600  1
  O  O5  1  0.71233700  0.99880500  0.75038600  1
  O  O6  1  0.34061000  0.98471300  0.58450800  1
  O  O7  1  0.67685700  0.34460300  0.58251700  1
  O  O8  1  0.97691600  0.67853900  0.58549300  1
  O  O9  1  0.32252100  0.02060200  0.91700700  1
  O  O10  1  0.02158200  0.65547900  0.91606500  1
  O  O11  1  0.65797900  0.31971400  0.91666400  1
  O  O12  1  0.65711800  0.01806500  0.41672800  1
  O  O13  1  0.32230100  0.65717300  0.41600300  1
  O  O14  1  0.02184600  0.32241200  0.41487700  1
  O  O15  1  0.67796800  0.97619300  0.08450400  1
  O  O16  1  0.97955600  0.34318200  0.08417700  1
  O  O17  1  0.34281200  0.67783200  0.08384800  1
loop_
_geom_bond_atom_site_label_1
_geom_bond_atom_site_label_2
_geom_bond_distance
_geom_bond_site_symmetry_2
Nb0 O7 1.923125 1_555
Nb0 O6 1.925712 1_645
Nb0 O8 1.943258 1_545
Nb0 O4 2.139871 1_555
Nb0 O5 2.149415 1_545
Nb0 O3 2.199663 1_645
Nb1 O9 1.918007 1_565
Nb1 O10 1.921597 1_555
Nb1 O11 1.932332 1_465
Nb1 O3 2.163057 1_555
Nb1 O4 2.174146 1_465
Nb1 O5 2.174921 1_455
Nb2 O12 1.921736 1_465
Nb2 O13 1.923184 1_555
Nb2 O14 1.935290 1_565
Nb2 O1 2.147985 1_455
Nb2 O2 2.165867 1_555
Nb2 O0 2.183250 1_465
Nb3 O16 1.922549 1_555
Nb3 O17 1.926304 1_645
Nb3 O15 1.929403 1_545
Nb3 O0 2.154338 1_555
Nb3 O2 2.164080 1_645
Nb3 O1 2.177940 1_545
Co0 O17 2.080003 1_555
Co0 O16 2.083012 1_455
Co0 O15 2.096231 1_545
Co0 O11 2.151049 1_554
Co0 O9 2.153578 1_554
Co0 O10 2.185927 1_554
Co1 O6 2.091694 1_545
Co1 O8 2.099126 1_455
Co1 O7 2.113235 1_555
Co1 O14 2.134754 1_555
Co1 O12 2.144173 1_555
Co1 O13 2.156460 1_555
Co2 O10 2.082628 1_655
Co2 O9 2.096151 1_565
Co2 O11 2.097865 1_555
Co2 O15 2.140349 1_556
Co2 O17 2.153695 1_556
Co2 O16 2.171753 1_556
Co3 O5 2.018179 1_545
Co3 O3 2.024822 1_555
Co3 O4 2.028083 1_455
Co3 O10 2.290029 1_555
Co3 O11 2.310226 1_555
Co3 O9 2.331308 1_555
Co4 O12 2.079161 1_565
Co4 O13 2.097710 1_555
Co4 O14 2.115428 1_655
Co4 O6 2.145399 1_555
Co4 O7 2.149215 1_555
Co4 O8 2.159575 1_555
Co5 O3 2.033089 1_555
Co5 O5 2.037386 1_555
Co5 O4 2.045215 1_555
Co5 O8 2.220621 1_555
Co5 O7 2.269398 1_555
Co5 O6 2.300264 1_555
Co6 O0 2.019895 1_555
Co6 O2 2.022075 1_545
Co6 O1 2.027801 1_455
Co6 O14 2.269816 1_555
Co6 O13 2.294380 1_555
Co6 O12 2.332744 1_555
Co7 O2 2.023086 1_555
Co7 O1 2.026973 1_555
Co7 O0 2.033493 1_555
Co7 O16 2.275151 1_555
Co7 O15 2.288917 1_555
Co7 O17 2.296176 1_555
