# generated using pymatgen
data_Li4Mn3(CoO4)3
_symmetry_space_group_name_H-M   'P 1'
_cell_length_a   5.74863691
_cell_length_b   10.11562843
_cell_length_c   7.97536405
_cell_angle_alpha   99.47189692
_cell_angle_beta   78.64940931
_cell_angle_gamma   96.82105331
_symmetry_Int_Tables_number   1
_chemical_formula_structural   Li4Mn3(CoO4)3
_chemical_formula_sum   'Li8 Mn6 Co6 O24'
_cell_volume   446.71311398
_cell_formula_units_Z   2
loop_
 _symmetry_equiv_pos_site_id
 _symmetry_equiv_pos_as_xyz
  1  'x, y, z'
loop_
 _atom_site_type_symbol
 _atom_site_label
 _atom_site_symmetry_multiplicity
 _atom_site_fract_x
 _atom_site_fract_y
 _atom_site_fract_z
 _atom_site_occupancy
  Li  Li0  1  0.16901000  0.49847100  0.84611100  1
  Li  Li1  1  0.16406400  0.00151300  0.32054700  1
  Li  Li2  1  0.66607800  0.49955800  0.83845100  1
  Li  Li3  1  0.66720800  0.00047900  0.32794300  1
  Li  Li4  1  0.47666700  0.50416400  0.46792200  1
  Li  Li5  1  0.44844100  0.99767000  0.95590300  1
  Li  Li6  1  0.88435300  0.50233600  0.21080400  1
  Li  Li7  1  0.85665500  0.99577100  0.69882900  1
  Mn  Mn0  1  0.66686100  0.74996200  0.08326200  1
  Mn  Mn1  1  0.66657600  0.24988600  0.58341300  1
  Mn  Mn2  1  0.00005100  0.25385700  0.24825100  1
  Mn  Mn3  1  0.99645800  0.74899700  0.74763200  1
  Mn  Mn4  1  0.33341900  0.24638600  0.91831700  1
  Mn  Mn5  1  0.33691000  0.75087200  0.41893900  1
  Co  Co0  1  0.16675100  0.74996800  0.08330700  1
  Co  Co1  1  0.50066200  0.75148300  0.74542000  1
  Co  Co2  1  0.83272200  0.74841300  0.42114200  1
  Co  Co3  1  0.16663400  0.25005000  0.58338000  1
  Co  Co4  1  0.50223800  0.25842500  0.24712500  1
  Co  Co5  1  0.83103300  0.24163800  0.91970800  1
  O  O0  1  0.25454100  0.14521600  0.11557800  1
  O  O1  1  0.26492000  0.64856100  0.61863700  1
  O  O2  1  0.07875600  0.35482000  0.05109800  1
  O  O3  1  0.06858400  0.85131200  0.54798500  1
  O  O4  1  0.75750800  0.14574200  0.13807200  1
  O  O5  1  0.74987400  0.64357600  0.63965500  1
  O  O6  1  0.57588800  0.35447000  0.02905300  1
  O  O7  1  0.58367100  0.85627500  0.52683500  1
  O  O8  1  0.40841500  0.35717200  0.72945800  1
  O  O9  1  0.40909700  0.85868800  0.22867300  1
  O  O10  1  0.92430300  0.64113300  0.93788300  1
  O  O11  1  0.92488400  0.14302600  0.43732900  1
  O  O12  1  0.90652700  0.35164000  0.70972600  1
  O  O13  1  0.90997400  0.85573300  0.20053500  1
  O  O14  1  0.42360500  0.64431300  0.96592500  1
  O  O15  1  0.42676800  0.14842500  0.45700400  1
  O  O16  1  0.09350000  0.65201500  0.29994500  1
  O  O17  1  0.09117500  0.14565600  0.79344800  1
  O  O18  1  0.23983000  0.84792900  0.86665600  1
  O  O19  1  0.24213500  0.35441000  0.37333500  1
  O  O20  1  0.59376400  0.64169700  0.30795300  1
  O  O21  1  0.57664800  0.13292800  0.80420100  1
  O  O22  1  0.75659400  0.36710800  0.36261600  1
  O  O23  1  0.73958500  0.85826100  0.85866300  1
loop_
_geom_bond_atom_site_label_1
_geom_bond_atom_site_label_2
_geom_bond_distance
_geom_bond_site_symmetry_2
Li0 O10 2.080019 1_455
Li0 O8 2.080434 1_555
Li0 O14 2.192085 1_555
Li0 O12 2.290852 1_455
Li0 O2 2.307030 1_556
Li0 O1 2.492859 1_555
Li1 O11 2.081296 1_455
Li1 O9 2.082578 1_545
Li1 O13 2.190525 1_445
Li1 O15 2.292399 1_555
Li1 O0 2.307313 1_555
Li1 O3 2.493411 1_545
Li2 O10 2.113763 1_555
Li2 O14 2.134879 1_555
Li2 O8 2.147580 1_555
Li2 O12 2.151879 1_555
Li2 O6 2.230897 1_556
Li2 O5 2.271785 1_555
Li3 O9 2.113953 1_545
Li3 O13 2.135772 1_545
Li3 O11 2.149832 1_555
Li3 O15 2.152677 1_555
Li3 O4 2.227893 1_555
Li3 O7 2.273747 1_545
Li4 O20 2.009983 1_555
Li4 O19 2.054432 1_555
Li4 O1 2.080537 1_555
Li4 O22 2.198122 1_555
Li4 O5 2.452804 1_555
Li5 O18 1.946490 1_555
Li5 O21 1.957889 1_565
Li5 O0 2.074289 1_566
Li5 O23 2.254133 1_555
Li6 O16 1.947620 1_655
Li6 O22 1.957797 1_555
Li6 O2 2.075632 1_655
Li6 O20 2.251356 1_555
Li7 O23 2.009052 1_555
Li7 O17 2.055277 1_665
Li7 O3 2.081899 1_655
Li7 O21 2.199198 1_565
Li7 O7 2.453505 1_555
Mn0 O13 1.950054 1_555
Mn0 O14 1.950464 1_554
Mn0 O10 2.009465 1_554
Mn0 O9 2.010263 1_555
Mn0 O23 2.196778 1_554
Mn0 O20 2.197137 1_555
Mn1 O15 1.959754 1_555
Mn1 O12 1.960986 1_555
Mn1 O11 2.004155 1_555
Mn1 O8 2.005759 1_555
Mn1 O21 2.224791 1_555
Mn1 O22 2.226553 1_555
Mn2 O22 1.907234 1_455
Mn2 O4 1.927698 1_455
Mn2 O19 1.960294 1_555
Mn2 O0 1.964048 1_555
Mn2 O2 1.964396 1_555
Mn2 O11 1.975467 1_455
Mn3 O5 1.925446 1_555
Mn3 O23 1.933177 1_555
Mn3 O18 1.933258 1_655
Mn3 O10 1.963286 1_555
Mn3 O1 1.968709 1_655
Mn3 O3 1.989716 1_655
Mn4 O21 1.907113 1_555
Mn4 O6 1.929501 1_556
Mn4 O17 1.960646 1_555
Mn4 O2 1.963839 1_556
Mn4 O0 1.966439 1_556
Mn4 O8 1.973741 1_555
Mn5 O7 1.925823 1_555
Mn5 O20 1.932491 1_555
Mn5 O16 1.933027 1_555
Mn5 O9 1.963064 1_555
Mn5 O3 1.968265 1_555
Mn5 O1 1.990043 1_555
Co0 O14 1.923627 1_554
Co0 O13 1.923632 1_455
Co0 O16 2.079004 1_555
Co0 O18 2.079160 1_554
Co0 O9 2.084862 1_555
Co0 O10 2.085974 1_454
Co1 O5 1.883657 1_555
Co1 O18 1.897719 1_555
Co1 O23 1.919277 1_555
Co1 O1 1.949524 1_555
Co1 O7 2.133325 1_555
Co1 O14 2.161238 1_555
Co2 O7 1.882583 1_555
Co2 O16 1.897148 1_655
Co2 O20 1.918952 1_555
Co2 O3 1.950217 1_655
Co2 O5 2.133106 1_555
Co2 O13 2.162845 1_555
Co3 O12 1.933479 1_455
Co3 O15 1.933850 1_555
Co3 O19 2.072696 1_555
Co3 O17 2.073067 1_555
Co3 O11 2.079652 1_455
Co3 O8 2.080257 1_555
Co4 O19 1.903267 1_555
Co4 O4 1.943656 1_555
Co4 O22 2.002522 1_555
Co4 O0 2.060323 1_555
Co4 O6 2.077640 1_555
Co4 O15 2.107290 1_555
Co5 O17 1.903533 1_655
Co5 O6 1.944508 1_556
Co5 O21 2.002819 1_555
Co5 O2 2.059632 1_656
Co5 O4 2.078812 1_556
Co5 O12 2.107992 1_555
