# generated using pymatgen
data_SmGa2Ni
_symmetry_space_group_name_H-M   'P 1'
_cell_length_a   4.10748079
_cell_length_b   4.13985510
_cell_length_c   8.90554555
_cell_angle_alpha   103.43543666
_cell_angle_beta   89.99999905
_cell_angle_gamma   90.00000028
_symmetry_Int_Tables_number   1
_chemical_formula_structural   SmGa2Ni
_chemical_formula_sum   'Sm2 Ga4 Ni2'
_cell_volume   147.28886846
_cell_formula_units_Z   2
loop_
 _symmetry_equiv_pos_site_id
 _symmetry_equiv_pos_as_xyz
  1  'x, y, z'
loop_
 _atom_site_type_symbol
 _atom_site_label
 _atom_site_symmetry_multiplicity
 _atom_site_fract_x
 _atom_site_fract_y
 _atom_site_fract_z
 _atom_site_occupancy
  Sm  Sm0  1  0.49999999  0.35792378  0.71586504  1
  Sm  Sm1  1  0.50000001  0.64206109  0.28409953  1
  Ga  Ga0  1  0.00000001  0.20939972  0.41884011  1
  Ga  Ga1  1  0.00000000  0.79048468  0.58094612  1
  Ga  Ga2  1  0.49999999  0.00003421  0.00006601  1
  Ga  Ga3  1  -0.00000000  0.50003415  0.00006567  1
  Ni  Ni0  1  0.00000002  0.07364247  0.14623066  1
  Ni  Ni1  1  -0.00000001  0.92641990  0.85388686  1
loop_
_geom_bond_atom_site_label_1
_geom_bond_atom_site_label_2
_geom_bond_distance
_geom_bond_site_symmetry_2
Ga0 Ni0 2.361295 1_555
Ga0 Ga1 2.501031 1_545
Ga0 Ga1 2.501445 1_555
Ga0 Sm1 3.140770 1_545
Ga0 Sm1 3.140770 1_445
Ga0 Sm1 3.140813 1_555
Ga0 Sm1 3.140813 1_455
Ga0 Sm0 3.291965 1_555
Ga0 Sm0 3.291965 1_455
Ga1 Ni1 2.364165 1_555
Ga1 Sm0 3.141356 1_555
Ga1 Sm0 3.141356 1_455
Ga1 Sm0 3.141375 1_565
Ga1 Sm0 3.141375 1_465
Ga1 Sm1 3.290758 1_455
Ga1 Sm1 3.290758 1_555
Ga2 Ni0 2.412621 1_555
Ga2 Ni0 2.412622 1_655
Ga2 Ni1 2.412687 1_644
Ga2 Ni1 2.412687 1_544
Ga2 Sm1 3.215026 1_545
Ga2 Sm1 3.215346 1_555
Ga2 Sm0 3.216136 1_554
Ga2 Sm0 3.216455 1_544
Ga3 Ni0 2.424469 1_555
Ga3 Ni1 2.424535 1_554
Ga3 Ni0 2.428364 1_565
Ga3 Ni1 2.428423 1_544
Ga3 Sm1 3.204791 1_455
Ga3 Sm1 3.204791 1_555
Ga3 Sm0 3.205900 1_554
Ga3 Sm0 3.205900 1_454
Ni0 Ni1 2.532234 1_544
Ni0 Sm1 3.149624 1_555
Ni0 Sm1 3.149624 1_455
Ni0 Sm1 3.152298 1_545
Ni0 Sm1 3.152298 1_445
Ni1 Sm0 3.150130 1_555
Ni1 Sm0 3.150130 1_455
Ni1 Sm0 3.152797 1_565
Ni1 Sm0 3.152797 1_465
