# generated using pymatgen
data_Li7Co5O12
_symmetry_space_group_name_H-M   'P 1'
_cell_length_a   3.00081200
_cell_length_b   5.13629249
_cell_length_c   14.66907812
_cell_angle_alpha   95.21818804
_cell_angle_beta   95.44400063
_cell_angle_gamma   105.89285899
_symmetry_Int_Tables_number   1
_chemical_formula_structural   Li7Co5O12
_chemical_formula_sum   'Li7 Co5 O12'
_cell_volume   214.85157983
_cell_formula_units_Z   1
loop_
 _symmetry_equiv_pos_site_id
 _symmetry_equiv_pos_as_xyz
  1  'x, y, z'
loop_
 _atom_site_type_symbol
 _atom_site_label
 _atom_site_symmetry_multiplicity
 _atom_site_fract_x
 _atom_site_fract_y
 _atom_site_fract_z
 _atom_site_occupancy
  Li  Li0  1  0.99672000  0.25430600  0.74924800  1
  Li  Li1  1  0.66627700  0.41563800  0.91694400  1
  Li  Li2  1  0.33372300  0.58436200  0.08305600  1
  Li  Li3  1  0.00328000  0.74569400  0.25075200  1
  Li  Li4  1  0.66159600  0.91018100  0.41693500  1
  Li  Li5  1  0.33840400  0.08981900  0.58306500  1
  Li  Li6  1  0.00000000  0.50000000  0.50000000  1
  Co  Co0  1  0.66051900  0.66019700  0.65964800  1
  Co  Co1  1  0.33948100  0.33980300  0.34035200  1
  Co  Co2  1  0.33322100  0.83292100  0.83125600  1
  Co  Co3  1  0.00000000  0.00000000  0.00000000  1
  Co  Co4  1  0.66677900  0.16707900  0.16874400  1
  O  O0  1  0.36201400  0.93793100  0.71092400  1
  O  O1  1  0.99597900  0.11176700  0.87818800  1
  O  O2  1  0.65546400  0.27728100  0.04615800  1
  O  O3  1  0.32073100  0.43681900  0.21607900  1
  O  O4  1  0.01706500  0.59787700  0.37204200  1
  O  O5  1  0.67459700  0.79013400  0.55401700  1
  O  O6  1  0.67926900  0.56318100  0.78392100  1
  O  O7  1  0.34453600  0.72271900  0.95384200  1
  O  O8  1  0.00402100  0.88823300  0.12181200  1
  O  O9  1  0.63798600  0.06206900  0.28907600  1
  O  O10  1  0.32540300  0.20986600  0.44598300  1
  O  O11  1  0.98293500  0.40212300  0.62795800  1
loop_
_geom_bond_atom_site_label_1
_geom_bond_atom_site_label_2
_geom_bond_distance
_geom_bond_site_symmetry_2
Li0 O11 1.998171 1_555
Li0 O1 2.089332 1_555
Li0 O6 2.110905 1_555
Li0 O0 2.125997 1_545
Li0 O6 2.201508 1_655
Li0 O0 2.254904 1_645
Li1 O2 2.083951 1_556
Li1 O7 2.119139 1_555
Li1 O1 2.128172 1_555
Li1 O6 2.156553 1_555
Li1 O1 2.169640 1_455
Li1 O7 2.191065 1_655
Li2 O7 2.083951 1_554
Li2 O2 2.119139 1_555
Li2 O8 2.128172 1_555
Li2 O3 2.156553 1_555
Li2 O8 2.169640 1_655
Li2 O2 2.191065 1_455
Li3 O4 1.998171 1_555
Li3 O8 2.089332 1_555
Li3 O3 2.110905 1_555
Li3 O9 2.125997 1_565
Li3 O3 2.201508 1_455
Li3 O9 2.254904 1_465
Li4 O10 2.093192 1_565
Li4 O9 2.098244 1_565
Li4 O10 2.135226 1_665
Li4 O4 2.148157 1_555
Li4 O5 2.156182 1_555
Li4 O4 2.241173 1_655
Li5 O5 2.093192 1_545
Li5 O0 2.098244 1_545
Li5 O5 2.135226 1_445
Li5 O11 2.148157 1_555
Li5 O10 2.156182 1_555
Li5 O11 2.241173 1_455
Li6 O4 1.988558 1_555
Li6 O11 1.988558 1_455
Li6 O5 2.128634 1_455
Li6 O10 2.128634 1_555
Li6 O5 2.185228 1_555
Li6 O10 2.185228 1_455
Co0 O5 1.741627 1_555
Co0 O11 1.893378 1_555
Co0 O6 1.932827 1_555
Co0 O0 2.008884 1_555
Co0 O11 2.083249 1_455
Co0 O0 2.211729 1_655
Co1 O10 1.741627 1_555
Co1 O4 1.893378 1_555
Co1 O3 1.932827 1_555
Co1 O9 2.008884 1_555
Co1 O4 2.083249 1_655
Co1 O9 2.211729 1_455
Co2 O0 1.894930 1_555
Co2 O7 1.933710 1_555
Co2 O6 2.056634 1_555
Co2 O1 2.072694 1_465
Co2 O6 2.080874 1_455
Co2 O1 2.116942 1_565
Co3 O8 1.925849 1_545
Co3 O1 1.925849 1_454
Co3 O7 2.078359 1_544
Co3 O2 2.078359 1_455
Co3 O2 2.096013 1_555
Co3 O7 2.096013 1_444
Co4 O9 1.894930 1_555
Co4 O2 1.933710 1_555
Co4 O3 2.056634 1_555
Co4 O8 2.072694 1_645
Co4 O3 2.080874 1_655
Co4 O8 2.116942 1_545
