# generated using pymatgen
data_KCo2H3(SeO5)2
_symmetry_space_group_name_H-M   'P 1'
_cell_length_a   6.49674657
_cell_length_b   7.80512262
_cell_length_c   9.04221560
_cell_angle_alpha   100.14667169
_cell_angle_beta   89.98081470
_cell_angle_gamma   114.56603017
_symmetry_Int_Tables_number   1
_chemical_formula_structural   KCo2H3(SeO5)2
_chemical_formula_sum   'K2 Co4 H6 Se4 O20'
_cell_volume   409.12317771
_cell_formula_units_Z   2
loop_
 _symmetry_equiv_pos_site_id
 _symmetry_equiv_pos_as_xyz
  1  'x, y, z'
loop_
 _atom_site_type_symbol
 _atom_site_label
 _atom_site_symmetry_multiplicity
 _atom_site_fract_x
 _atom_site_fract_y
 _atom_site_fract_z
 _atom_site_occupancy
  K  K0  1  0.25184669  0.50436686  0.74579826  1
  K  K1  1  0.75185434  0.50437202  0.24580578  1
  Co  Co0  1  0.74979982  0.00835019  0.75206535  1
  Co  Co1  1  0.75857837  0.00858597  0.25211573  1
  Co  Co2  1  0.24979681  0.00836164  0.25205994  1
  Co  Co3  1  0.25858143  0.00859303  0.75212107  1
  H  H0  1  0.11006976  0.22009148  0.42264919  1
  H  H1  1  0.61007474  0.22008314  0.92265602  1
  H  H2  1  0.39089118  0.78134993  0.07600501  1
  H  H3  1  0.89088874  0.78133993  0.57600362  1
  H  H4  1  0.49280316  0.98545745  0.01429392  1
  H  H5  1  0.99279663  0.98544828  0.51429333  1
  Se  Se0  1  0.14340394  0.28783496  0.05715763  1
  Se  Se1  1  0.64340633  0.28782493  0.55715974  1
  Se  Se2  1  0.36080574  0.72055134  0.43633856  1
  Se  Se3  1  0.86081307  0.72054969  0.93633642  1
  O  O0  1  0.08055555  0.16192480  0.87794931  1
  O  O1  1  0.58056146  0.16193265  0.37795568  1
  O  O2  1  0.42414482  0.84774404  0.61452264  1
  O  O3  1  0.92414585  0.84772460  0.11451098  1
  O  O4  1  0.25773623  0.51638230  0.05313578  1
  O  O5  1  0.75773553  0.51637425  0.55313830  1
  O  O6  1  0.24684877  0.49237198  0.44032577  1
  O  O7  1  0.74687275  0.49235753  0.94032778  1
  O  O8  1  0.04102406  0.08220679  0.38451782  1
  O  O9  1  0.54102729  0.08220077  0.88452082  1
  O  O10  1  0.46057218  0.92091324  0.10973061  1
  O  O11  1  0.96057030  0.92090480  0.60973182  1
  O  O12  1  0.40183325  0.22849996  0.64078889  1
  O  O13  1  0.90183909  0.22851052  0.14078700  1
  O  O14  1  0.82563433  0.22839600  0.64067463  1
  O  O15  1  0.32563686  0.22841426  0.14067444  1
  O  O16  1  0.10109734  0.77860356  0.85092735  1
  O  O17  1  0.60105768  0.77859615  0.35093395  1
  O  O18  1  0.67835769  0.77838514  0.85099873  1
  O  O19  1  0.17834325  0.77839482  0.35099111  1
loop_
_geom_bond_atom_site_label_1
_geom_bond_atom_site_label_2
_geom_bond_distance
_geom_bond_site_symmetry_2
K0 O16 2.733108 1_555
K0 O12 2.740588 1_555
K0 O18 2.741256 1_555
K0 O14 2.744379 1_455
K0 O6 2.746944 1_555
K0 O4 2.763771 1_556
K0 O0 2.908851 1_555
K0 O2 2.910412 1_555
K1 O17 2.733231 1_555
K1 O13 2.740561 1_555
K1 O19 2.741139 1_655
K1 O15 2.744385 1_555
K1 O7 2.746971 1_554
K1 O5 2.763741 1_555
K1 O1 2.908827 1_555
K1 O3 2.910351 1_555
Co0 O9 2.003026 1_555
Co0 O18 2.027349 1_545
Co0 O14 2.027948 1_555
Co0 O11 2.112746 1_545
Co0 O0 2.174668 1_655
Co0 O2 2.200361 1_545
Co1 O8 2.003246 1_655
Co1 O17 2.026111 1_545
Co1 O13 2.026306 1_555
Co1 O10 2.112793 1_545
Co1 O1 2.176029 1_555
Co1 O3 2.202996 1_545
Co2 O8 2.003020 1_555
Co2 O19 2.027339 1_545
Co2 O15 2.027957 1_555
Co2 O10 2.112761 1_545
Co2 O1 2.174756 1_555
Co2 O3 2.200385 1_445
Co3 O9 2.003256 1_555
Co3 O16 2.026012 1_545
Co3 O12 2.026218 1_555
Co3 O11 2.112819 1_445
Co3 O0 2.175949 1_555
Co3 O2 2.202885 1_545
H0 O8 0.972769 1_555
H1 O9 0.972759 1_555
H2 O10 0.978544 1_555
H3 O11 0.978557 1_555
H4 O10 1.052462 1_555
H4 O9 1.469869 1_564
H5 O11 1.052474 1_555
H5 O8 1.469955 1_665
O0 Se0 1.692347 1_556
O1 Se1 1.692271 1_555
O2 Se2 1.687600 1_555
O3 Se3 1.687482 1_554
O4 Se0 1.629801 1_555
O5 Se1 1.629815 1_555
O6 Se2 1.627122 1_555
O7 Se3 1.627221 1_555
O12 Se1 1.663640 1_555
O13 Se0 1.663597 1_655
O14 Se1 1.663622 1_555
O15 Se0 1.663615 1_555
O16 Se3 1.665236 1_455
O17 Se2 1.665045 1_555
O18 Se3 1.665100 1_555
O19 Se2 1.665224 1_555
