# generated using pymatgen
data_K2Sn3O7
_symmetry_space_group_name_H-M   'P 1'
_cell_length_a   3.19823500
_cell_length_b   12.94156000
_cell_length_c   17.11324300
_cell_angle_alpha   90.00000000
_cell_angle_beta   90.00000000
_cell_angle_gamma   90.00000000
_symmetry_Int_Tables_number   1
_chemical_formula_structural   K2Sn3O7
_chemical_formula_sum   'K8 Sn12 O28'
_cell_volume   708.31969727
_cell_formula_units_Z   4
loop_
 _symmetry_equiv_pos_site_id
 _symmetry_equiv_pos_as_xyz
  1  'x, y, z'
loop_
 _atom_site_type_symbol
 _atom_site_label
 _atom_site_symmetry_multiplicity
 _atom_site_fract_x
 _atom_site_fract_y
 _atom_site_fract_z
 _atom_site_occupancy
  K  K0  1  0.25000000  0.44203400  0.30555600  1
  K  K1  1  0.75000000  0.55796600  0.69444400  1
  K  K2  1  0.75000000  0.94203400  0.19444400  1
  K  K3  1  0.25000000  0.05796600  0.80555600  1
  K  K4  1  0.25000000  0.89426900  0.43405600  1
  K  K5  1  0.75000000  0.10573100  0.56594400  1
  K  K6  1  0.75000000  0.39426900  0.06594400  1
  K  K7  1  0.25000000  0.60573100  0.93405600  1
  Sn  Sn0  1  0.25000000  0.11164500  0.01881900  1
  Sn  Sn1  1  0.75000000  0.88835500  0.98118100  1
  Sn  Sn2  1  0.75000000  0.61164500  0.48118100  1
  Sn  Sn3  1  0.25000000  0.38835500  0.51881900  1
  Sn  Sn4  1  0.25000000  0.70978600  0.29191100  1
  Sn  Sn5  1  0.75000000  0.29021400  0.70808900  1
  Sn  Sn6  1  0.75000000  0.20978600  0.20808900  1
  Sn  Sn7  1  0.25000000  0.79021400  0.79191100  1
  Sn  Sn8  1  0.25000000  0.16733200  0.37551000  1
  Sn  Sn9  1  0.75000000  0.83266800  0.62449000  1
  Sn  Sn10  1  0.75000000  0.66733200  0.12449000  1
  Sn  Sn11  1  0.25000000  0.33266800  0.87551000  1
  O  O0  1  0.25000000  0.57206600  0.09498600  1
  O  O1  1  0.75000000  0.42793400  0.90501400  1
  O  O2  1  0.75000000  0.07206600  0.40501400  1
  O  O3  1  0.25000000  0.92793400  0.59498600  1
  O  O4  1  0.25000000  0.76130900  0.17404700  1
  O  O5  1  0.75000000  0.23869100  0.82595300  1
  O  O6  1  0.75000000  0.26130900  0.32595300  1
  O  O7  1  0.25000000  0.73869100  0.67404700  1
  O  O8  1  0.25000000  0.30393600  0.17827700  1
  O  O9  1  0.75000000  0.69606400  0.82172300  1
  O  O10  1  0.75000000  0.80393600  0.32172300  1
  O  O11  1  0.25000000  0.19606400  0.67827700  1
  O  O12  1  0.25000000  0.11238400  0.25092400  1
  O  O13  1  0.75000000  0.88761600  0.74907600  1
  O  O14  1  0.75000000  0.61238400  0.24907600  1
  O  O15  1  0.25000000  0.38761600  0.75092400  1
  O  O16  1  0.25000000  0.63069900  0.40038700  1
  O  O17  1  0.75000000  0.36930100  0.59961300  1
  O  O18  1  0.75000000  0.13069900  0.09961300  1
  O  O19  1  0.25000000  0.86930100  0.90038700  1
  O  O20  1  0.25000000  0.24211200  0.48088800  1
  O  O21  1  0.75000000  0.75788800  0.51911200  1
  O  O22  1  0.75000000  0.74211200  0.01911200  1
  O  O23  1  0.25000000  0.25788800  0.98088800  1
  O  O24  1  0.25000000  0.55315900  0.55138400  1
  O  O25  1  0.75000000  0.44684100  0.44861600  1
  O  O26  1  0.75000000  0.05315900  0.94861600  1
  O  O27  1  0.25000000  0.94684100  0.05138400  1
loop_
_geom_bond_atom_site_label_1
_geom_bond_atom_site_label_2
_geom_bond_distance
_geom_bond_site_symmetry_2
K0 O8 2.817528 1_555
K0 O6 2.854698 1_455
K0 O6 2.854698 1_555
K0 O14 2.889921 1_555
K0 O14 2.889921 1_455
K0 O25 2.924864 1_455
K0 O25 2.924864 1_555
K0 O16 2.931757 1_555
K1 O9 2.817528 1_555
K1 O7 2.854698 1_655
K1 O7 2.854698 1_555
K1 O15 2.889921 1_555
K1 O15 2.889921 1_655
K1 O24 2.924864 1_655
K1 O24 2.924864 1_555
K1 O17 2.931757 1_555
K2 O10 2.817528 1_555
K2 O4 2.854698 1_555
K2 O4 2.854698 1_655
K2 O12 2.889921 1_665
K2 O12 2.889921 1_565
K2 O27 2.924864 1_655
K2 O27 2.924864 1_555
K2 O18 2.931757 1_565
K3 O11 2.817528 1_555
K3 O5 2.854698 1_555
K3 O5 2.854698 1_455
K3 O13 2.889921 1_445
K3 O13 2.889921 1_545
K3 O26 2.924864 1_455
K3 O26 2.924864 1_555
K3 O19 2.931757 1_545
K4 O10 2.760327 1_555
K4 O10 2.760327 1_455
K4 O3 2.788283 1_555
K4 O21 2.791248 1_455
K4 O21 2.791248 1_555
K4 O2 2.845813 1_565
K4 O2 2.845813 1_465
K5 O11 2.760327 1_555
K5 O11 2.760327 1_655
K5 O2 2.788283 1_555
K5 O20 2.791248 1_555
K5 O20 2.791248 1_655
K5 O3 2.845813 1_645
K5 O3 2.845813 1_545
K6 O8 2.760327 1_655
K6 O8 2.760327 1_555
K6 O1 2.788283 1_554
K6 O23 2.791248 1_654
K6 O23 2.791248 1_554
K6 O0 2.845813 1_555
K6 O0 2.845813 1_655
K7 O9 2.760327 1_455
K7 O9 2.760327 1_555
K7 O0 2.788283 1_556
K7 O22 2.791248 1_456
K7 O22 2.791248 1_556
K7 O1 2.845813 1_555
K7 O1 2.845813 1_455
O0 Sn10 2.081377 1_455
O0 Sn10 2.081377 1_555
O1 Sn11 2.081377 1_555
O1 Sn11 2.081377 1_655
O2 Sn8 2.081377 1_555
O2 Sn8 2.081377 1_655
O3 Sn9 2.081377 1_555
O3 Sn9 2.081377 1_455
O4 Sn4 2.124391 1_555
O4 Sn10 2.180730 1_455
O4 Sn10 2.180730 1_555
O5 Sn5 2.124391 1_555
O5 Sn11 2.180730 1_655
O5 Sn11 2.180730 1_555
O6 Sn6 2.124391 1_555
O6 Sn8 2.180730 1_555
O6 Sn8 2.180730 1_655
O7 Sn7 2.124391 1_555
O7 Sn9 2.180730 1_455
O7 Sn9 2.180730 1_555
O8 Sn6 2.074145 1_555
O8 Sn6 2.074145 1_455
O9 Sn7 2.074145 1_655
O9 Sn7 2.074145 1_555
O10 Sn4 2.074145 1_655
O10 Sn4 2.074145 1_555
O11 Sn5 2.074145 1_555
O11 Sn5 2.074145 1_455
O12 Sn6 2.164135 1_455
O12 Sn6 2.164135 1_555
O12 Sn8 2.247533 1_555
O13 Sn7 2.164135 1_655
O13 Sn7 2.164135 1_555
O13 Sn9 2.247533 1_555
O14 Sn4 2.164135 1_555
O14 Sn4 2.164135 1_655
O14 Sn10 2.247533 1_555
O15 Sn5 2.164135 1_555
O15 Sn5 2.164135 1_455
O15 Sn11 2.247533 1_555
O16 Sn4 2.119836 1_555
O16 Sn2 2.128308 1_555
O16 Sn2 2.128308 1_455
O17 Sn5 2.119836 1_555
O17 Sn3 2.128308 1_655
O17 Sn3 2.128308 1_555
O18 Sn6 2.119836 1_555
O18 Sn0 2.128308 1_655
O18 Sn0 2.128308 1_555
O19 Sn7 2.119836 1_555
O19 Sn1 2.128308 1_455
O19 Sn1 2.128308 1_555
O20 Sn3 2.000835 1_555
O20 Sn8 2.046627 1_555
O21 Sn2 2.000835 1_555
O21 Sn9 2.046627 1_555
O22 Sn1 2.000835 1_554
O22 Sn10 2.046627 1_555
O23 Sn0 2.000835 1_556
O23 Sn11 2.046627 1_555
O24 Sn2 2.138560 1_555
O24 Sn2 2.138560 1_455
O24 Sn3 2.204427 1_555
O25 Sn3 2.138560 1_555
O25 Sn3 2.138560 1_655
O25 Sn2 2.204427 1_555
O26 Sn0 2.138560 1_556
O26 Sn0 2.138560 1_656
O26 Sn1 2.204427 1_545
O27 Sn1 2.138560 1_454
O27 Sn1 2.138560 1_554
O27 Sn0 2.204427 1_565
