# generated using pymatgen
data_CaSmAl4
_symmetry_space_group_name_H-M   'P 1'
_cell_length_a   5.64997976
_cell_length_b   5.64997976
_cell_length_c   5.64997976
_cell_angle_alpha   60.00000000
_cell_angle_beta   60.00000000
_cell_angle_gamma   60.00000000
_symmetry_Int_Tables_number   1
_chemical_formula_structural   CaSmAl4
_chemical_formula_sum   'Ca1 Sm1 Al4'
_cell_volume   127.53391087
_cell_formula_units_Z   1
loop_
 _symmetry_equiv_pos_site_id
 _symmetry_equiv_pos_as_xyz
  1  'x, y, z'
loop_
 _atom_site_type_symbol
 _atom_site_label
 _atom_site_symmetry_multiplicity
 _atom_site_fract_x
 _atom_site_fract_y
 _atom_site_fract_z
 _atom_site_occupancy
  Ca  Ca0  1  0.25000000  0.25000000  0.25000000  1
  Sm  Sm0  1  0.00000000  0.00000000  0.00000000  1
  Al  Al0  1  0.62500000  0.62500000  0.12500000  1
  Al  Al1  1  0.62500000  0.12500000  0.62500000  1
  Al  Al2  1  0.12500000  0.62500000  0.62500000  1
  Al  Al3  1  0.62500000  0.62500000  0.62500000  1
loop_
_geom_bond_atom_site_label_1
_geom_bond_atom_site_label_2
_geom_bond_distance
_geom_bond_site_symmetry_2
Ca0 Sm0 3.459892 1_555
Ca0 Sm0 3.459892 1_565
Ca0 Sm0 3.459892 1_655
Ca0 Sm0 3.459892 1_556
Al0 Al2 2.824990 1_654
Al0 Al1 2.824990 1_555
Al0 Al1 2.824990 1_564
Al0 Al2 2.824990 1_555
Al0 Al3 2.824990 1_554
Al0 Al3 2.824990 1_555
Al0 Sm0 3.312594 1_665
Al0 Ca0 3.312594 1_555
Al0 Ca0 3.312594 1_565
Al0 Ca0 3.312594 1_655
Al0 Sm0 3.312594 1_565
Al0 Sm0 3.312594 1_655
Al1 Al3 2.824990 1_545
Al1 Al2 2.824990 1_645
Al1 Al2 2.824990 1_555
Al1 Al3 2.824990 1_555
Al1 Ca0 3.312594 1_556
Al1 Sm0 3.312594 1_655
Al1 Sm0 3.312594 1_656
Al1 Ca0 3.312594 1_555
Al1 Ca0 3.312594 1_655
Al1 Sm0 3.312594 1_556
Al2 Al3 2.824990 1_455
Al2 Al3 2.824990 1_555
Al2 Ca0 3.312594 1_556
Al2 Ca0 3.312594 1_565
Al2 Sm0 3.312594 1_565
Al2 Sm0 3.312594 1_556
Al2 Sm0 3.312594 1_566
Al2 Ca0 3.312594 1_555
Al3 Sm0 3.312594 1_665
Al3 Ca0 3.312594 1_556
Al3 Ca0 3.312594 1_565
Al3 Sm0 3.312594 1_566
Al3 Sm0 3.312594 1_656
Al3 Ca0 3.312594 1_655
