# generated using pymatgen
data_Tl2CuPb(NO2)6
_symmetry_space_group_name_H-M   'P 1'
_cell_length_a   7.64705578
_cell_length_b   7.64705578
_cell_length_c   7.64705578
_cell_angle_alpha   60.00000000
_cell_angle_beta   60.00000000
_cell_angle_gamma   60.00000000
_symmetry_Int_Tables_number   1
_chemical_formula_structural   Tl2CuPb(NO2)6
_chemical_formula_sum   'Tl2 Cu1 Pb1 N6 O12'
_cell_volume   316.20430388
_cell_formula_units_Z   1
loop_
 _symmetry_equiv_pos_site_id
 _symmetry_equiv_pos_as_xyz
  1  'x, y, z'
loop_
 _atom_site_type_symbol
 _atom_site_label
 _atom_site_symmetry_multiplicity
 _atom_site_fract_x
 _atom_site_fract_y
 _atom_site_fract_z
 _atom_site_occupancy
  Tl  Tl0  1  0.75000000  0.75000000  0.75000000  1
  Tl  Tl1  1  0.25000000  0.25000000  0.25000000  1
  Cu  Cu0  1  0.00000000  0.00000000  0.00000000  1
  Pb  Pb0  1  0.50000000  0.50000000  0.50000000  1
  N  N0  1  0.79967000  0.20033000  0.20033000  1
  N  N1  1  0.20033000  0.79967000  0.20033000  1
  N  N2  1  0.79967000  0.79967000  0.20033000  1
  N  N3  1  0.20033000  0.79967000  0.79967000  1
  N  N4  1  0.79967000  0.20033000  0.79967000  1
  N  N5  1  0.20033000  0.20033000  0.79967000  1
  O  O0  1  0.83916300  0.16083700  0.36007900  1
  O  O1  1  0.16083700  0.63992100  0.36007900  1
  O  O2  1  0.63992100  0.83916300  0.36007900  1
  O  O3  1  0.16083700  0.83916300  0.63992100  1
  O  O4  1  0.83916300  0.36007900  0.63992100  1
  O  O5  1  0.36007900  0.16083700  0.63992100  1
  O  O6  1  0.63992100  0.36007900  0.16083700  1
  O  O7  1  0.16083700  0.36007900  0.83916300  1
  O  O8  1  0.36007900  0.63992100  0.83916300  1
  O  O9  1  0.83916300  0.63992100  0.16083700  1
  O  O10  1  0.36007900  0.83916300  0.16083700  1
  O  O11  1  0.63992100  0.16083700  0.83916300  1
loop_
_geom_bond_atom_site_label_1
_geom_bond_atom_site_label_2
_geom_bond_distance
_geom_bond_site_symmetry_2
Cu0 N1 2.166483 1_545
Cu0 N0 2.166483 1_455
Cu0 N2 2.166483 1_445
Cu0 N3 2.166483 1_544
Cu0 N5 2.166483 1_554
Cu0 N4 2.166483 1_454
N0 O0 1.258387 1_555
N0 O6 1.258387 1_555
N1 O10 1.258387 1_555
N1 O1 1.258387 1_555
N2 O2 1.258387 1_555
N2 O9 1.258387 1_555
N3 O8 1.258387 1_555
N3 O3 1.258387 1_555
N4 O4 1.258387 1_555
N4 O11 1.258387 1_555
N5 O7 1.258387 1_555
N5 O5 1.258387 1_555
O0 Pb0 2.805640 1_555
O1 Pb0 2.805640 1_555
O2 Pb0 2.805640 1_555
O3 Pb0 2.805640 1_555
O4 Pb0 2.805640 1_555
O5 Pb0 2.805640 1_555
O6 Pb0 2.805640 1_555
O7 Pb0 2.805640 1_555
O8 Pb0 2.805640 1_555
O9 Pb0 2.805640 1_555
O10 Pb0 2.805640 1_555
O11 Pb0 2.805640 1_555
