# generated using pymatgen
data_BaNd(CoO3)4
_symmetry_space_group_name_H-M   'P 1'
_cell_length_a   5.40297657
_cell_length_b   5.40297657
_cell_length_c   7.59848726
_cell_angle_alpha   90.00000000
_cell_angle_beta   90.00000000
_cell_angle_gamma   90.00000000
_symmetry_Int_Tables_number   1
_chemical_formula_structural   BaNd(CoO3)4
_chemical_formula_sum   'Ba1 Nd1 Co4 O12'
_cell_volume   221.81622406
_cell_formula_units_Z   1
loop_
 _symmetry_equiv_pos_site_id
 _symmetry_equiv_pos_as_xyz
  1  'x, y, z'
loop_
 _atom_site_type_symbol
 _atom_site_label
 _atom_site_symmetry_multiplicity
 _atom_site_fract_x
 _atom_site_fract_y
 _atom_site_fract_z
 _atom_site_occupancy
  Ba  Ba0  1  0.50000000  0.50000000  -0.00000000  1
  Nd  Nd0  1  0.00000000  -0.00000000  0.50000000  1
  Co  Co0  1  0.00000000  0.50000000  0.75153321  1
  Co  Co1  1  0.00000000  0.50000000  0.24846679  1
  Co  Co2  1  0.50000000  -0.00000000  0.24846679  1
  Co  Co3  1  0.50000000  -0.00000000  0.75153321  1
  O  O0  1  0.24035366  0.24035366  0.26330797  1
  O  O1  1  0.24035366  0.24035366  0.73669203  1
  O  O2  1  0.75964634  0.75964634  0.26330797  1
  O  O3  1  0.75964634  0.75964634  0.73669203  1
  O  O4  1  0.75964634  0.24035366  0.73669203  1
  O  O5  1  0.75964634  0.24035366  0.26330797  1
  O  O6  1  0.24035366  0.75964634  0.73669203  1
  O  O7  1  0.24035366  0.75964634  0.26330797  1
  O  O8  1  0.00000000  0.50000000  0.50000000  1
  O  O9  1  0.00000000  0.50000000  0.00000000  1
  O  O10  1  0.50000000  -0.00000000  0.50000000  1
  O  O11  1  0.50000000  -0.00000000  0.00000000  1
loop_
_geom_bond_atom_site_label_1
_geom_bond_atom_site_label_2
_geom_bond_distance
_geom_bond_site_symmetry_2
Ba0 O11 2.701488 1_555
Ba0 O11 2.701488 1_565
Ba0 O9 2.701488 1_555
Ba0 O9 2.701488 1_655
Ba0 O1 2.817627 1_554
Ba0 O6 2.817627 1_554
Ba0 O3 2.817627 1_554
Ba0 O4 2.817627 1_554
Ba0 O7 2.817627 1_555
Ba0 O0 2.817627 1_555
Ba0 O5 2.817627 1_555
Ba0 O2 2.817627 1_555
Nd0 O5 2.570498 1_455
Nd0 O0 2.570498 1_555
Nd0 O7 2.570498 1_545
Nd0 O2 2.570498 1_445
Nd0 O4 2.570498 1_455
Nd0 O1 2.570498 1_555
Nd0 O3 2.570498 1_445
Nd0 O6 2.570498 1_545
Nd0 O10 2.701488 1_555
Nd0 O8 2.701488 1_545
Nd0 O8 2.701488 1_555
Nd0 O10 2.701488 1_455
Co0 O9 1.887972 1_556
Co0 O8 1.911272 1_555
Co0 O6 1.914985 1_555
Co0 O1 1.914985 1_555
Co0 O3 1.914985 1_455
Co0 O4 1.914985 1_455
Co1 O9 1.887972 1_555
Co1 O8 1.911272 1_555
Co1 O0 1.914985 1_555
Co1 O7 1.914985 1_555
Co1 O5 1.914985 1_455
Co1 O2 1.914985 1_455
Co2 O11 1.887972 1_555
Co2 O10 1.911272 1_555
Co2 O0 1.914985 1_555
Co2 O5 1.914985 1_555
Co2 O2 1.914985 1_545
Co2 O7 1.914985 1_545
Co3 O11 1.887972 1_556
Co3 O10 1.911272 1_555
Co3 O1 1.914985 1_555
Co3 O4 1.914985 1_555
Co3 O6 1.914985 1_545
Co3 O3 1.914985 1_545
