# generated using pymatgen
data_Ba3Y4(CoO5)3
_symmetry_space_group_name_H-M   'P 1'
_cell_length_a   5.68902700
_cell_length_b   12.05962900
_cell_length_c   21.45447000
_cell_angle_alpha   90.00000000
_cell_angle_beta   90.00000000
_cell_angle_gamma   90.00000000
_symmetry_Int_Tables_number   1
_chemical_formula_structural   Ba3Y4(CoO5)3
_chemical_formula_sum   'Ba12 Y16 Co12 O60'
_cell_volume   1471.93873033
_cell_formula_units_Z   4
loop_
 _symmetry_equiv_pos_site_id
 _symmetry_equiv_pos_as_xyz
  1  'x, y, z'
loop_
 _atom_site_type_symbol
 _atom_site_label
 _atom_site_symmetry_multiplicity
 _atom_site_fract_x
 _atom_site_fract_y
 _atom_site_fract_z
 _atom_site_occupancy
  Ba  Ba0  1  0.75000000  0.10723200  0.97707700  1
  Ba  Ba1  1  0.75000000  0.11024400  0.31191600  1
  Ba  Ba2  1  0.75000000  0.10388900  0.64107100  1
  Ba  Ba3  1  0.25000000  0.88975600  0.68808400  1
  Ba  Ba4  1  0.25000000  0.89276800  0.02292300  1
  Ba  Ba5  1  0.25000000  0.89611100  0.35892900  1
  Ba  Ba6  1  0.25000000  0.38975600  0.81191600  1
  Ba  Ba7  1  0.25000000  0.39611100  0.14107100  1
  Ba  Ba8  1  0.25000000  0.39276800  0.47707700  1
  Ba  Ba9  1  0.75000000  0.60388900  0.85892900  1
  Ba  Ba10  1  0.75000000  0.61024400  0.18808400  1
  Ba  Ba11  1  0.75000000  0.60723200  0.52292300  1
  Y  Y0  1  0.75000000  0.70161900  0.70916400  1
  Y  Y1  1  0.75000000  0.69317800  0.36932700  1
  Y  Y2  1  0.25000000  0.29838100  0.29083600  1
  Y  Y3  1  0.25000000  0.30682200  0.63067300  1
  Y  Y4  1  0.25000000  0.80682200  0.86932700  1
  Y  Y5  1  0.25000000  0.79838100  0.20916400  1
  Y  Y6  1  0.75000000  0.20161900  0.79083600  1
  Y  Y7  1  0.75000000  0.19317800  0.13067300  1
  Y  Y8  1  0.75000000  0.91187000  0.12577800  1
  Y  Y9  1  0.75000000  0.93461400  0.46561200  1
  Y  Y10  1  0.25000000  0.08813000  0.87422200  1
  Y  Y11  1  0.25000000  0.06538600  0.53438800  1
  Y  Y12  1  0.25000000  0.56538600  0.96561200  1
  Y  Y13  1  0.25000000  0.58813000  0.62577800  1
  Y  Y14  1  0.75000000  0.43461400  0.03438800  1
  Y  Y15  1  0.75000000  0.41187000  0.37422200  1
  Co  Co0  1  0.75000000  0.34490200  0.89916100  1
  Co  Co1  1  0.75000000  0.35148700  0.23060400  1
  Co  Co2  1  0.75000000  0.34313100  0.56069100  1
  Co  Co3  1  0.25000000  0.64851300  0.76939600  1
  Co  Co4  1  0.25000000  0.65509800  0.10083900  1
  Co  Co5  1  0.25000000  0.65686900  0.43930900  1
  Co  Co6  1  0.25000000  0.14851300  0.73060400  1
  Co  Co7  1  0.25000000  0.15686900  0.06069100  1
  Co  Co8  1  0.25000000  0.15509800  0.39916100  1
  Co  Co9  1  0.75000000  0.84313100  0.93930900  1
  Co  Co10  1  0.75000000  0.85148700  0.26939600  1
  Co  Co11  1  0.75000000  0.84490200  0.60083900  1
  O  O0  1  0.03458200  0.57307700  0.72162100  1
  O  O1  1  0.03158000  0.56224400  0.05803700  1
  O  O2  1  0.00472900  0.56008100  0.40518300  1
  O  O3  1  0.53158000  0.43775600  0.94196300  1
  O  O4  1  0.53458200  0.42692300  0.27837900  1
  O  O5  1  0.50472900  0.43991900  0.59481700  1
  O  O6  1  0.99527100  0.93991900  0.90518300  1
  O  O7  1  0.96541800  0.92692300  0.22162100  1
  O  O8  1  0.96842000  0.93775600  0.55803700  1
  O  O9  1  0.46541800  0.07307700  0.77837900  1
  O  O10  1  0.49527100  0.06008100  0.09481700  1
  O  O11  1  0.46842000  0.06224400  0.44196300  1
  O  O12  1  0.96842000  0.43775600  0.94196300  1
  O  O13  1  0.96541800  0.42692300  0.27837900  1
  O  O14  1  0.99527100  0.43991900  0.59481700  1
  O  O15  1  0.46541800  0.57307700  0.72162100  1
  O  O16  1  0.46842000  0.56224400  0.05803700  1
  O  O17  1  0.49527100  0.56008100  0.40518300  1
  O  O18  1  0.03458200  0.07307700  0.77837900  1
  O  O19  1  0.00472900  0.06008100  0.09481700  1
  O  O20  1  0.03158000  0.06224400  0.44196300  1
  O  O21  1  0.50472900  0.93991900  0.90518300  1
  O  O22  1  0.53458200  0.92692300  0.22162100  1
  O  O23  1  0.53158000  0.93775600  0.55803700  1
  O  O24  1  0.47567000  0.75873400  0.78214800  1
  O  O25  1  0.47517100  0.76932400  0.11989000  1
  O  O26  1  0.49199200  0.76848100  0.43872800  1
  O  O27  1  0.97517100  0.23067600  0.88011000  1
  O  O28  1  0.97567000  0.24126600  0.21785200  1
  O  O29  1  0.99199200  0.23151900  0.56127200  1
  O  O30  1  0.50800800  0.73151900  0.93872800  1
  O  O31  1  0.52433000  0.74126600  0.28214800  1
  O  O32  1  0.52482900  0.73067600  0.61989000  1
  O  O33  1  0.02433000  0.25873400  0.71785200  1
  O  O34  1  0.00800800  0.26848100  0.06127200  1
  O  O35  1  0.02482900  0.26932400  0.38011000  1
  O  O36  1  0.52482900  0.23067600  0.88011000  1
  O  O37  1  0.52433000  0.24126600  0.21785200  1
  O  O38  1  0.50800800  0.23151900  0.56127200  1
  O  O39  1  0.02433000  0.75873400  0.78214800  1
  O  O40  1  0.02482900  0.76932400  0.11989000  1
  O  O41  1  0.00800800  0.76848100  0.43872800  1
  O  O42  1  0.47567000  0.25873400  0.71785200  1
  O  O43  1  0.49199200  0.26848100  0.06127200  1
  O  O44  1  0.47517100  0.26932400  0.38011000  1
  O  O45  1  0.99199200  0.73151900  0.93872800  1
  O  O46  1  0.97567000  0.74126600  0.28214800  1
  O  O47  1  0.97517100  0.73067600  0.61989000  1
  O  O48  1  0.75000000  0.89602100  0.68016000  1
  O  O49  1  0.75000000  0.89481100  0.01824100  1
  O  O50  1  0.75000000  0.90297100  0.35255200  1
  O  O51  1  0.25000000  0.10518900  0.98175900  1
  O  O52  1  0.25000000  0.10397900  0.31984000  1
  O  O53  1  0.25000000  0.09702900  0.64744800  1
  O  O54  1  0.25000000  0.59702900  0.85255200  1
  O  O55  1  0.25000000  0.60397900  0.18016000  1
  O  O56  1  0.25000000  0.60518900  0.51824100  1
  O  O57  1  0.75000000  0.39602100  0.81984000  1
  O  O58  1  0.75000000  0.40297100  0.14744800  1
  O  O59  1  0.75000000  0.39481100  0.48175900  1
loop_
_geom_bond_atom_site_label_1
_geom_bond_atom_site_label_2
_geom_bond_distance
_geom_bond_site_symmetry_2
Ba0 O49 2.709679 1_546
Ba0 O51 2.846393 1_555
Ba0 O51 2.846393 1_655
Ba0 O27 2.860966 1_555
Ba0 O36 2.860966 1_555
Ba0 O6 2.897827 1_545
Ba0 O21 2.897827 1_545
Ba0 O10 2.967208 1_556
Ba0 O19 2.967208 1_656
Ba0 O34 3.032968 1_656
Ba0 O43 3.032968 1_556
Ba1 O50 2.647311 1_545
Ba1 O52 2.850591 1_555
Ba1 O52 2.850591 1_655
Ba1 O37 2.866635 1_555
Ba1 O28 2.866635 1_555
Ba1 O35 2.874989 1_655
Ba1 O44 2.874989 1_555
Ba1 O7 3.184702 1_545
Ba1 O22 3.184702 1_545
Ba1 O20 3.268917 1_655
Ba1 O11 3.268917 1_555
Ba2 O48 2.643371 1_545
Ba2 O38 2.682433 1_555
Ba2 O29 2.682433 1_555
Ba2 O53 2.849003 1_655
Ba2 O53 2.849003 1_555
Ba2 O42 2.938768 1_555
Ba2 O33 2.938768 1_655
Ba2 O23 2.954934 1_545
Ba2 O8 2.954934 1_545
Ba3 O53 2.647311 1_565
Ba3 O48 2.850591 1_455
Ba3 O48 2.850591 1_555
Ba3 O39 2.866635 1_555
Ba3 O24 2.866635 1_555
Ba3 O32 2.874989 1_555
Ba3 O47 2.874989 1_455
Ba3 O18 3.184702 1_565
Ba3 O9 3.184702 1_565
Ba3 O8 3.268917 1_455
Ba3 O23 3.268917 1_555
Ba4 O51 2.709679 1_564
Ba4 O49 2.846393 1_455
Ba4 O49 2.846393 1_555
Ba4 O40 2.860966 1_555
Ba4 O25 2.860966 1_555
Ba4 O19 2.897827 1_565
Ba4 O10 2.897827 1_565
Ba4 O21 2.967208 1_554
Ba4 O6 2.967208 1_454
Ba4 O30 3.032968 1_554
Ba4 O45 3.032968 1_454
Ba5 O52 2.643371 1_565
Ba5 O41 2.682433 1_555
Ba5 O26 2.682433 1_555
Ba5 O50 2.849003 1_555
Ba5 O50 2.849003 1_455
Ba5 O31 2.938768 1_555
Ba5 O46 2.938768 1_455
Ba5 O20 2.954934 1_565
Ba5 O11 2.954934 1_565
Ba6 O54 2.647311 1_555
Ba6 O57 2.850591 1_455
Ba6 O57 2.850591 1_555
Ba6 O42 2.866635 1_555
Ba6 O33 2.866635 1_555
Ba6 O27 2.874989 1_455
Ba6 O36 2.874989 1_555
Ba6 O0 3.184702 1_555
Ba6 O15 3.184702 1_555
Ba6 O12 3.268917 1_455
Ba6 O3 3.268917 1_555
Ba7 O55 2.643371 1_555
Ba7 O43 2.682433 1_555
Ba7 O34 2.682433 1_555
Ba7 O58 2.849003 1_455
Ba7 O58 2.849003 1_555
Ba7 O37 2.938768 1_555
Ba7 O28 2.938768 1_455
Ba7 O1 2.954934 1_555
Ba7 O16 2.954934 1_555
Ba8 O56 2.709679 1_555
Ba8 O59 2.846393 1_455
Ba8 O59 2.846393 1_555
Ba8 O44 2.860966 1_555
Ba8 O35 2.860966 1_555
Ba8 O17 2.897827 1_555
Ba8 O2 2.897827 1_555
Ba8 O5 2.967208 1_555
Ba8 O14 2.967208 1_455
Ba8 O29 3.032968 1_455
Ba8 O38 3.032968 1_555
Ba9 O57 2.643371 1_555
Ba9 O45 2.682433 1_555
Ba9 O30 2.682433 1_555
Ba9 O54 2.849003 1_655
Ba9 O54 2.849003 1_555
Ba9 O24 2.938768 1_555
Ba9 O39 2.938768 1_655
Ba9 O3 2.954934 1_555
Ba9 O12 2.954934 1_555
Ba10 O58 2.647311 1_555
Ba10 O55 2.850591 1_555
Ba10 O55 2.850591 1_655
Ba10 O46 2.866635 1_555
Ba10 O31 2.866635 1_555
Ba10 O25 2.874989 1_555
Ba10 O40 2.874989 1_655
Ba10 O13 3.184702 1_555
Ba10 O4 3.184702 1_555
Ba10 O1 3.268917 1_655
Ba10 O16 3.268917 1_555
Ba11 O59 2.709679 1_555
Ba11 O56 2.846393 1_655
Ba11 O56 2.846393 1_555
Ba11 O47 2.860966 1_555
Ba11 O32 2.860966 1_555
Ba11 O5 2.897827 1_555
Ba11 O14 2.897827 1_555
Ba11 O17 2.967208 1_555
Ba11 O2 2.967208 1_655
Ba11 O26 3.032968 1_555
Ba11 O41 3.032968 1_655
Co0 O57 1.810009 1_555
Co0 O3 1.908201 1_555
Co0 O12 1.908201 1_555
Co0 O27 1.924994 1_555
Co0 O36 1.924994 1_555
Co1 O4 1.838506 1_555
Co1 O13 1.838506 1_555
Co1 O37 1.868138 1_555
Co1 O28 1.868138 1_555
Co1 O58 1.889018 1_555
Co2 O59 1.804490 1_555
Co2 O38 1.925401 1_555
Co2 O29 1.925401 1_555
Co2 O14 1.960990 1_555
Co2 O5 1.960990 1_555
Co3 O15 1.838506 1_555
Co3 O0 1.838506 1_555
Co3 O39 1.868138 1_555
Co3 O24 1.868138 1_555
Co3 O54 1.889018 1_555
Co4 O55 1.810009 1_555
Co4 O16 1.908201 1_555
Co4 O1 1.908201 1_555
Co4 O40 1.924994 1_555
Co4 O25 1.924994 1_555
Co5 O56 1.804490 1_555
Co5 O26 1.925401 1_555
Co5 O41 1.925401 1_555
Co5 O2 1.960990 1_555
Co5 O17 1.960990 1_555
Co6 O18 1.838506 1_555
Co6 O9 1.838506 1_555
Co6 O42 1.868138 1_555
Co6 O33 1.868138 1_555
Co6 O53 1.889018 1_555
Co7 O51 1.804490 1_554
Co7 O43 1.925401 1_555
Co7 O34 1.925401 1_555
Co7 O19 1.960990 1_555
Co7 O10 1.960990 1_555
Co8 O52 1.810009 1_555
Co8 O11 1.908201 1_555
Co8 O20 1.908201 1_555
Co8 O44 1.924994 1_555
Co8 O35 1.924994 1_555
Co9 O49 1.804490 1_556
Co9 O45 1.925401 1_555
Co9 O30 1.925401 1_555
Co9 O21 1.960990 1_555
Co9 O6 1.960990 1_555
Co10 O22 1.838506 1_555
Co10 O7 1.838506 1_555
Co10 O46 1.868138 1_555
Co10 O31 1.868138 1_555
Co10 O50 1.889018 1_555
Co11 O48 1.810009 1_555
Co11 O8 1.908201 1_555
Co11 O23 1.908201 1_555
Co11 O47 1.924994 1_555
Co11 O32 1.924994 1_555
O0 Y0 2.257342 1_455
O0 Y13 2.400637 1_555
O1 Y14 2.278730 1_455
O1 Y12 2.340404 1_554
O2 Y1 2.295254 1_455
O2 Y15 2.394992 1_455
O3 Y12 2.278730 1_555
O3 Y14 2.340404 1_556
O4 Y2 2.257342 1_555
O4 Y15 2.400637 1_555
O5 Y3 2.295254 1_555
O5 Y13 2.394992 1_555
O6 Y4 2.295254 1_655
O6 Y10 2.394992 1_665
O7 Y5 2.257342 1_655
O7 Y8 2.400637 1_555
O8 Y11 2.278730 1_665
O8 Y9 2.340404 1_555
O9 Y6 2.257342 1_555
O9 Y10 2.400637 1_555
O10 Y7 2.295254 1_555
O10 Y8 2.394992 1_545
O11 Y9 2.278730 1_545
O11 Y11 2.340404 1_555
O12 Y12 2.278730 1_655
O12 Y14 2.340404 1_556
O13 Y2 2.257342 1_655
O13 Y15 2.400637 1_555
O14 Y3 2.295254 1_655
O14 Y13 2.394992 1_655
O15 Y0 2.257342 1_555
O15 Y13 2.400637 1_555
O16 Y14 2.278730 1_555
O16 Y12 2.340404 1_554
O17 Y1 2.295254 1_555
O17 Y15 2.394992 1_555
O18 Y6 2.257342 1_455
O18 Y10 2.400637 1_555
O19 Y7 2.295254 1_455
O19 Y8 2.394992 1_445
O20 Y9 2.278730 1_445
O20 Y11 2.340404 1_555
O21 Y4 2.295254 1_555
O21 Y10 2.394992 1_565
O22 Y5 2.257342 1_555
O22 Y8 2.400637 1_555
O23 Y11 2.278730 1_565
O23 Y9 2.340404 1_555
O24 Y0 2.315589 1_555
O24 Y4 2.341555 1_555
O25 Y8 2.327157 1_555
O25 Y5 2.330716 1_555
O26 Y1 2.279513 1_555
O26 Y9 2.549741 1_555
O27 Y10 2.327157 1_655
O27 Y6 2.330716 1_555
O28 Y2 2.315589 1_655
O28 Y7 2.341555 1_555
O29 Y3 2.279513 1_655
O29 Y11 2.549741 1_655
O30 Y4 2.279513 1_555
O30 Y12 2.549741 1_555
O31 Y5 2.315589 1_555
O31 Y1 2.341555 1_555
O32 Y13 2.327157 1_555
O32 Y0 2.330716 1_555
O33 Y6 2.315589 1_455
O33 Y3 2.341555 1_555
O34 Y7 2.279513 1_455
O34 Y14 2.549741 1_455
O35 Y15 2.327157 1_455
O35 Y2 2.330716 1_555
O36 Y10 2.327157 1_555
O36 Y6 2.330716 1_555
O37 Y2 2.315589 1_555
O37 Y7 2.341555 1_555
O38 Y3 2.279513 1_555
O38 Y11 2.549741 1_555
O39 Y0 2.315589 1_455
O39 Y4 2.341555 1_555
O40 Y8 2.327157 1_455
O40 Y5 2.330716 1_555
O41 Y1 2.279513 1_455
O41 Y9 2.549741 1_455
O42 Y6 2.315589 1_555
O42 Y3 2.341555 1_555
O43 Y7 2.279513 1_555
O43 Y14 2.549741 1_555
O44 Y15 2.327157 1_555
O44 Y2 2.330716 1_555
O45 Y4 2.279513 1_655
O45 Y12 2.549741 1_655
O46 Y5 2.315589 1_655
O46 Y1 2.341555 1_555
O47 Y13 2.327157 1_655
O47 Y0 2.330716 1_555
O48 Y0 2.425593 1_555
O49 Y8 2.316303 1_555
O50 Y9 2.455476 1_555
O50 Y1 2.555496 1_555
O51 Y10 2.316303 1_555
O52 Y2 2.425593 1_555
O53 Y11 2.455476 1_555
O53 Y3 2.555496 1_555
O54 Y12 2.455476 1_555
O54 Y4 2.555496 1_555
O55 Y5 2.425593 1_555
O56 Y13 2.316303 1_555
O57 Y6 2.425593 1_555
O58 Y14 2.455476 1_555
O58 Y7 2.555496 1_555
O59 Y15 2.316303 1_555
