# generated using pymatgen
data_LiMg2
_symmetry_space_group_name_H-M   'P 1'
_cell_length_a   5.40066097
_cell_length_b   5.40066097
_cell_length_c   5.05233229
_cell_angle_alpha   90.00000000
_cell_angle_beta   90.00000000
_cell_angle_gamma   120.35372931
_symmetry_Int_Tables_number   1
_chemical_formula_structural   LiMg2
_chemical_formula_sum   'Li2 Mg4'
_cell_volume   127.16198594
_cell_formula_units_Z   2
loop_
 _symmetry_equiv_pos_site_id
 _symmetry_equiv_pos_as_xyz
  1  'x, y, z'
loop_
 _atom_site_type_symbol
 _atom_site_label
 _atom_site_symmetry_multiplicity
 _atom_site_fract_x
 _atom_site_fract_y
 _atom_site_fract_z
 _atom_site_occupancy
  Li  Li0  1  0.66715839  0.66715839  0.75000000  1
  Li  Li1  1  0.33284161  0.33284161  0.25000000  1
  Mg  Mg0  1  0.00566986  0.33432943  0.75000000  1
  Mg  Mg1  1  0.33432943  0.00566986  0.75000000  1
  Mg  Mg2  1  0.66567057  0.99433014  0.25000000  1
  Mg  Mg3  1  0.99433014  0.66567057  0.25000000  1
loop_
_geom_bond_atom_site_label_1
_geom_bond_atom_site_label_2
_geom_bond_distance
_geom_bond_site_symmetry_2
Li0 Mg0 3.082778 1_555
Li0 Mg1 3.082778 1_555
Li0 Mg2 3.085129 1_555
Li0 Mg2 3.085129 1_556
Li0 Mg3 3.085129 1_556
Li0 Mg3 3.085129 1_555
Li0 Li1 3.099462 1_555
Li0 Li1 3.099462 1_556
Li0 Mg0 3.109259 1_665
Li0 Mg1 3.109259 1_665
Li0 Mg0 3.145551 1_655
Li0 Mg1 3.145551 1_565
Li1 Mg2 3.082778 1_555
Li1 Mg3 3.082778 1_555
Li1 Mg0 3.085129 1_555
Li1 Mg0 3.085129 1_554
Li1 Mg1 3.085129 1_555
Li1 Mg1 3.085129 1_554
Li1 Mg3 3.109259 1_445
Li1 Mg2 3.109259 1_445
Li1 Mg2 3.145551 1_545
Li1 Mg3 3.145551 1_455
Mg0 Mg1 3.079818 1_555
Mg0 Mg3 3.114193 1_456
Mg0 Mg3 3.114193 1_455
Mg0 Mg2 3.117248 1_445
Mg0 Mg2 3.117248 1_446
Mg0 Mg1 3.129204 1_565
Mg0 Mg1 3.129204 1_455
Mg1 Mg2 3.114193 1_545
Mg1 Mg2 3.114193 1_546
Mg1 Mg3 3.117248 1_446
Mg1 Mg3 3.117248 1_445
Mg2 Mg3 3.079818 1_555
Mg2 Mg3 3.129204 1_455
Mg2 Mg3 3.129204 1_565
