# generated using pymatgen
data_MgCo2(PO4)2
_symmetry_space_group_name_H-M   'P 1'
_cell_length_a   8.79836301
_cell_length_b   8.79836301
_cell_length_c   16.47690147
_cell_angle_alpha   60.88531828
_cell_angle_beta   60.88531828
_cell_angle_gamma   33.58185604
_symmetry_Int_Tables_number   1
_chemical_formula_structural   MgCo2(PO4)2
_chemical_formula_sum   'Mg4 Co8 P8 O32'
_cell_volume   607.60358143
_cell_formula_units_Z   4
loop_
 _symmetry_equiv_pos_site_id
 _symmetry_equiv_pos_as_xyz
  1  'x, y, z'
loop_
 _atom_site_type_symbol
 _atom_site_label
 _atom_site_symmetry_multiplicity
 _atom_site_fract_x
 _atom_site_fract_y
 _atom_site_fract_z
 _atom_site_occupancy
  Mg  Mg0  1  0.73297900  0.81884000  0.12436900  1
  Mg  Mg1  1  0.18116000  0.26702100  0.37563100  1
  Mg  Mg2  1  0.81884000  0.73297900  0.62436900  1
  Mg  Mg3  1  0.26702100  0.18116000  0.87563100  1
  Co  Co0  1  0.56932500  0.67064300  0.03456400  1
  Co  Co1  1  0.32935700  0.43067500  0.46543600  1
  Co  Co2  1  0.43067500  0.32935700  0.96543600  1
  Co  Co3  1  0.00000000  0.00000000  0.00000000  1
  Co  Co4  1  0.67064300  0.56932500  0.53456400  1
  Co  Co5  1  0.69343700  0.30656300  0.75000000  1
  Co  Co6  1  0.30656300  0.69343700  0.25000000  1
  Co  Co7  1  0.00000000  0.00000000  0.50000000  1
  P  P0  1  0.36723700  0.42681300  0.14339800  1
  P  P1  1  0.78807500  0.88839500  0.38984000  1
  P  P2  1  0.63276300  0.57318700  0.85660200  1
  P  P3  1  0.88839500  0.78807500  0.88984000  1
  P  P4  1  0.42681300  0.36723700  0.64339800  1
  P  P5  1  0.57318700  0.63276300  0.35660200  1
  P  P6  1  0.21192500  0.11160500  0.61016000  1
  P  P7  1  0.11160500  0.21192500  0.11016000  1
  O  O0  1  0.90680000  0.31221000  0.89883000  1
  O  O1  1  0.34478600  0.16211700  0.08194100  1
  O  O2  1  0.31221000  0.90680000  0.39883000  1
  O  O3  1  0.90010000  0.84118300  0.46072600  1
  O  O4  1  0.39999300  0.77244200  0.93251100  1
  O  O5  1  0.94015100  0.87215400  0.28958200  1
  O  O6  1  0.15881700  0.09990000  0.03927400  1
  O  O7  1  0.17560800  0.46802300  0.89936800  1
  O  O8  1  0.09990000  0.15881700  0.53927400  1
  O  O9  1  0.83788300  0.65521400  0.41805900  1
  O  O10  1  0.53522500  0.48558100  0.85284800  1
  O  O11  1  0.28508800  0.33776500  0.73720700  1
  O  O12  1  0.65521400  0.83788300  0.91805900  1
  O  O13  1  0.46802300  0.17560800  0.39936800  1
  O  O14  1  0.09320000  0.68779000  0.10117000  1
  O  O15  1  0.46477500  0.51441900  0.14715200  1
  O  O16  1  0.33776500  0.28508800  0.23720700  1
  O  O17  1  0.84118300  0.90010000  0.96072600  1
  O  O18  1  0.48558100  0.53522500  0.35284800  1
  O  O19  1  0.71491200  0.66223500  0.26279300  1
  O  O20  1  0.53197700  0.82439200  0.60063200  1
  O  O21  1  0.77244200  0.39999300  0.43251100  1
  O  O22  1  0.82439200  0.53197700  0.10063200  1
  O  O23  1  0.87215400  0.94015100  0.78958200  1
  O  O24  1  0.16211700  0.34478600  0.58194100  1
  O  O25  1  0.68779000  0.09320000  0.60117000  1
  O  O26  1  0.66223500  0.71491200  0.76279300  1
  O  O27  1  0.22755800  0.60000700  0.56748900  1
  O  O28  1  0.60000700  0.22755800  0.06748900  1
  O  O29  1  0.12784600  0.05984900  0.21041800  1
  O  O30  1  0.05984900  0.12784600  0.71041800  1
  O  O31  1  0.51441900  0.46477500  0.64715200  1
loop_
_geom_bond_atom_site_label_1
_geom_bond_atom_site_label_2
_geom_bond_distance
_geom_bond_site_symmetry_2
Mg0 O19 2.019851 1_555
Mg0 O1 2.087382 1_565
Mg0 O22 2.107661 1_555
Mg0 O14 2.163684 1_655
Mg0 O17 2.334074 1_554
Mg0 O28 2.440515 1_565
Mg1 O16 2.019851 1_555
Mg1 O9 2.087382 1_455
Mg1 O13 2.107661 1_555
Mg1 O2 2.163684 1_545
Mg1 O8 2.334074 1_555
Mg1 O21 2.440515 1_455
Mg2 O26 2.019851 1_555
Mg2 O24 2.087382 1_655
Mg2 O20 2.107661 1_555
Mg2 O25 2.163684 1_565
Mg2 O3 2.334074 1_555
Mg2 O27 2.440515 1_655
Mg3 O11 2.019851 1_555
Mg3 O12 2.087382 1_545
Mg3 O7 2.107661 1_555
Mg3 O0 2.163684 1_455
Mg3 O6 2.334074 1_556
Mg3 O4 2.440515 1_545
Co0 O12 2.028194 1_554
Co0 O15 2.035103 1_555
Co0 O22 2.057366 1_555
Co0 O4 2.144353 1_554
Co0 O6 2.144556 1_565
Co1 O24 2.028194 1_555
Co1 O18 2.035103 1_555
Co1 O13 2.057366 1_555
Co1 O27 2.144353 1_555
Co1 O3 2.144556 1_455
Co2 O1 2.028194 1_556
Co2 O10 2.035103 1_555
Co2 O7 2.057366 1_555
Co2 O28 2.144353 1_556
Co2 O17 2.144556 1_545
Co3 O14 2.029276 1_545
Co3 O0 2.029276 1_454
Co3 O4 2.061214 1_544
Co3 O28 2.061214 1_455
Co3 O6 2.573650 1_555
Co3 O17 2.573650 1_444
Co4 O9 2.028194 1_555
Co4 O31 2.035103 1_555
Co4 O20 2.057366 1_555
Co4 O21 2.144353 1_555
Co4 O8 2.144556 1_655
Co5 O23 1.948476 1_545
Co5 O30 1.948476 1_655
Co5 O10 1.984687 1_555
Co5 O31 1.984687 1_555
Co6 O5 1.948476 1_455
Co6 O29 1.948476 1_565
Co6 O18 1.984687 1_555
Co6 O15 1.984687 1_555
Co7 O25 2.029276 1_455
Co7 O2 2.029276 1_545
Co7 O21 2.061214 1_455
Co7 O27 2.061214 1_545
Co7 O8 2.573650 1_555
Co7 O3 2.573650 1_445
O0 P2 1.556651 1_555
O1 P7 1.545741 1_555
O2 P5 1.556651 1_555
O3 P1 1.572949 1_555
O4 P2 1.578261 1_555
O5 P1 1.516526 1_555
O6 P7 1.572949 1_555
O7 P3 1.561831 1_455
O8 P6 1.572949 1_555
O9 P1 1.545741 1_555
O10 P2 1.592041 1_555
O11 P4 1.511421 1_555
O12 P3 1.545741 1_555
O13 P1 1.561831 1_545
O14 P0 1.556651 1_555
O15 P0 1.592041 1_555
O16 P0 1.511421 1_555
O17 P3 1.572949 1_555
O18 P5 1.592041 1_555
O19 P5 1.511421 1_555
O20 P6 1.561831 1_565
O21 P5 1.578261 1_555
O22 P7 1.561831 1_655
O23 P3 1.516526 1_555
O24 P6 1.545741 1_555
O25 P4 1.556651 1_555
O26 P2 1.511421 1_555
O27 P4 1.578261 1_555
O28 P0 1.578261 1_555
O29 P7 1.516526 1_555
O30 P6 1.516526 1_555
O31 P4 1.592041 1_555
