# generated using pymatgen
data_TmUTe6
_symmetry_space_group_name_H-M   'P 1'
_cell_length_a   13.19815916
_cell_length_b   13.19815916
_cell_length_c   4.35994577
_cell_angle_alpha   90.00000000
_cell_angle_beta   90.00000000
_cell_angle_gamma   160.98884504
_symmetry_Int_Tables_number   1
_chemical_formula_structural   TmUTe6
_chemical_formula_sum   'Tm1 U1 Te6'
_cell_volume   247.39744489
_cell_formula_units_Z   1
loop_
 _symmetry_equiv_pos_site_id
 _symmetry_equiv_pos_as_xyz
  1  'x, y, z'
loop_
 _atom_site_type_symbol
 _atom_site_label
 _atom_site_symmetry_multiplicity
 _atom_site_fract_x
 _atom_site_fract_y
 _atom_site_fract_z
 _atom_site_occupancy
  Tm  Tm0  1  0.16986827  0.83013173  0.50000000  1
  U  U0  1  0.83067132  0.16932868  0.00000000  1
  Te  Te0  1  0.42485548  0.57514452  -0.00000000  1
  Te  Te1  1  0.57600626  0.42399374  0.50000000  1
  Te  Te2  1  0.70535390  0.29464610  -0.00000000  1
  Te  Te3  1  0.29254663  0.70745337  0.50000000  1
  Te  Te4  1  0.07588836  0.92411164  -0.00000000  1
  Te  Te5  1  0.92480979  0.07519021  0.50000000  1
loop_
_geom_bond_atom_site_label_1
_geom_bond_atom_site_label_2
_geom_bond_distance
_geom_bond_site_symmetry_2
Te0 Te5 3.082678 1_565
Te0 Te5 3.082678 1_564
Te0 Te5 3.082678 1_455
Te0 Te5 3.082678 1_454
Te0 U0 3.280674 1_455
Te0 U0 3.280674 1_565
Te1 Te4 3.082679 1_655
Te1 Te4 3.082679 1_546
Te1 Te4 3.082679 1_656
Te1 Te4 3.082679 1_545
Te1 Tm0 3.274411 1_545
Te1 Tm0 3.274411 1_655
Te2 Tm0 3.218130 1_655
Te2 Tm0 3.218130 1_544
Te2 Tm0 3.218130 1_545
Te2 Tm0 3.218130 1_654
Te2 U0 3.262499 1_555
Te3 Tm0 3.193794 1_555
Te3 U0 3.238522 1_455
Te3 U0 3.238522 1_456
Te3 U0 3.238522 1_566
Te3 U0 3.238522 1_565
Te4 Tm0 3.276955 1_555
Te4 Tm0 3.276955 1_554
Te5 U0 3.280039 1_556
Te5 U0 3.280039 1_555
