# generated using pymatgen
data_Dy2P7Rh12
_symmetry_space_group_name_H-M   'P 1'
_cell_length_a   9.51992518
_cell_length_b   9.51998700
_cell_length_c   3.85712141
_cell_angle_alpha   90.00007635
_cell_angle_beta   89.99994602
_cell_angle_gamma   120.00016679
_symmetry_Int_Tables_number   1
_chemical_formula_structural   Dy2P7Rh12
_chemical_formula_sum   'Dy2 P7 Rh12'
_cell_volume   302.73532606
_cell_formula_units_Z   1
loop_
 _symmetry_equiv_pos_site_id
 _symmetry_equiv_pos_as_xyz
  1  'x, y, z'
loop_
 _atom_site_type_symbol
 _atom_site_label
 _atom_site_symmetry_multiplicity
 _atom_site_fract_x
 _atom_site_fract_y
 _atom_site_fract_z
 _atom_site_occupancy
  Dy  Dy0  1  0.33334718  0.66667330  0.74956723  1
  Dy  Dy1  1  0.66668773  0.33335491  0.25043319  1
  P  P0  1  -0.00002580  -0.00004589  0.49999936  1
  P  P1  1  0.40563902  0.28572140  0.75559892  1
  P  P2  1  0.71428535  0.11993045  0.75558815  1
  P  P3  1  0.88006712  0.59437083  0.75560075  1
  P  P4  1  0.59436599  0.71430138  0.24439930  1
  P  P5  1  0.28570432  0.88007672  0.24441234  1
  P  P6  1  0.11992608  0.40564796  0.24440499  1
  Rh  Rh0  1  0.45027313  0.06829320  0.75035631  1
  Rh  Rh1  1  0.93169968  0.38200913  0.75032705  1
  Rh  Rh2  1  0.61805539  0.54976249  0.75035813  1
  Rh  Rh3  1  0.54972517  0.93170793  0.24965777  1
  Rh  Rh4  1  0.06829514  0.61804833  0.24963812  1
  Rh  Rh5  1  0.38201420  0.45029890  0.24966096  1
  Rh  Rh6  1  0.15191449  0.26093246  0.75041329  1
  Rh  Rh7  1  0.73907192  0.89096528  0.75042021  1
  Rh  Rh8  1  0.10898538  0.84803477  0.75040584  1
  Rh  Rh9  1  0.84805483  0.73903920  0.24959208  1
  Rh  Rh10  1  0.26093996  0.10899270  0.24959648  1
  Rh  Rh11  1  0.89097271  0.15188358  0.24957152  1
loop_
_geom_bond_atom_site_label_1
_geom_bond_atom_site_label_2
_geom_bond_distance
_geom_bond_site_symmetry_2
Dy0 P4 2.982681 1_556
Dy0 P6 2.982807 1_556
Dy0 P5 2.982883 1_556
Dy0 P4 3.008345 1_555
Dy0 P6 3.008443 1_555
Dy0 P5 3.008488 1_555
Dy0 Rh3 3.021580 1_555
Dy0 Rh5 3.021600 1_555
Dy0 Rh4 3.021829 1_555
Dy0 Rh3 3.022024 1_556
Dy0 Rh5 3.022065 1_556
Dy0 Rh4 3.022176 1_556
Dy1 P3 2.982645 1_554
Dy1 P2 2.982822 1_554
Dy1 P1 2.982888 1_554
Dy1 P3 3.008308 1_555
Dy1 P2 3.008428 1_555
Dy1 P1 3.008540 1_555
Dy1 Rh1 3.021379 1_555
Dy1 Rh2 3.021722 1_555
Dy1 Rh0 3.021834 1_555
Dy1 Rh1 3.021899 1_554
Dy1 Rh2 3.022096 1_554
Dy1 Rh0 3.022210 1_554
P0 Rh7 2.366756 1_445
P0 Rh9 2.366840 1_445
P0 Rh8 2.366953 1_545
P0 Rh11 2.366998 1_455
P0 Rh10 2.367189 1_555
P0 Rh6 2.367317 1_555
P1 Rh6 2.306602 1_555
P1 Rh2 2.307606 1_555
P1 Rh0 2.311934 1_555
P1 Rh10 2.457881 1_556
P1 Rh10 2.493947 1_555
P1 Rh5 2.547404 1_556
P1 Rh5 2.581854 1_555
P2 Rh7 2.306885 1_545
P2 Rh0 2.307288 1_555
P2 Rh1 2.311977 1_555
P2 Rh11 2.457750 1_556
P2 Rh11 2.493902 1_555
P2 Rh3 2.547456 1_546
P2 Rh3 2.581857 1_545
P3 Rh8 2.306206 1_655
P3 Rh1 2.307153 1_555
P3 Rh2 2.311530 1_555
P3 Rh9 2.457615 1_556
P3 Rh9 2.493727 1_555
P3 Rh4 2.547357 1_656
P3 Rh4 2.581944 1_655
P4 Rh9 2.306469 1_555
P4 Rh5 2.307163 1_555
P4 Rh3 2.311772 1_555
P4 Rh7 2.457591 1_554
P4 Rh7 2.493771 1_555
P4 Rh2 2.547345 1_554
P4 Rh2 2.581916 1_555
P5 Rh10 2.306297 1_565
P5 Rh3 2.307389 1_555
P5 Rh4 2.311656 1_555
P5 Rh8 2.457821 1_554
P5 Rh8 2.493835 1_555
P5 Rh0 2.547416 1_564
P5 Rh0 2.581895 1_565
P6 Rh11 2.306895 1_455
P6 Rh4 2.307503 1_555
P6 Rh5 2.312104 1_555
P6 Rh6 2.457804 1_554
P6 Rh6 2.493911 1_555
P6 Rh1 2.547561 1_454
P6 Rh1 2.581912 1_455
