# generated using pymatgen
data_Sr10Mg5Mo4WO30
_symmetry_space_group_name_H-M   'P 1'
_cell_length_a   5.57271650
_cell_length_b   5.58730231
_cell_length_c   23.05540551
_cell_angle_alpha   83.60131776
_cell_angle_beta   83.15982483
_cell_angle_gamma   60.06213163
_symmetry_Int_Tables_number   1
_chemical_formula_structural   Sr10Mg5Mo4WO30
_chemical_formula_sum   'Sr10 Mg5 Mo4 W1 O30'
_cell_volume   616.51971398
_cell_formula_units_Z   1
loop_
 _symmetry_equiv_pos_site_id
 _symmetry_equiv_pos_as_xyz
  1  'x, y, z'
loop_
 _atom_site_type_symbol
 _atom_site_label
 _atom_site_symmetry_multiplicity
 _atom_site_fract_x
 _atom_site_fract_y
 _atom_site_fract_z
 _atom_site_occupancy
  Sr  Sr0  1  0.84865765  0.84966814  0.94957291  1
  Sr  Sr1  1  0.44865365  0.45030439  0.15095243  1
  Sr  Sr2  1  0.04860825  0.05020684  0.35027483  1
  Sr  Sr3  1  0.64849769  0.64963698  0.55014543  1
  Sr  Sr4  1  0.24817082  0.24931678  0.75005936  1
  Sr  Sr5  1  0.55134635  0.54969561  0.84904757  1
  Sr  Sr6  1  0.15134235  0.15033186  0.05042709  1
  Sr  Sr7  1  0.75182918  0.75068322  0.24994064  1
  Sr  Sr8  1  0.35150231  0.35036302  0.44985457  1
  Sr  Sr9  1  0.95139175  0.94979316  0.64972517  1
  Mg  Mg0  1  0.19953421  0.19880634  0.90008419  1
  Mg  Mg1  1  0.80046579  0.80119366  0.09991581  1
  Mg  Mg2  1  0.40034229  0.40071376  0.30023955  1
  Mg  Mg3  1  0.00000000  0.00000000  0.50000000  1
  Mg  Mg4  1  0.59965771  0.59928624  0.69976045  1
  Mo  Mo0  1  0.89964069  0.89946324  0.79981177  1
  Mo  Mo1  1  0.10035931  0.10053676  0.20018823  1
  Mo  Mo2  1  0.70003369  0.70024975  0.40009928  1
  Mo  Mo3  1  0.29996631  0.29975025  0.59990072  1
  W  W0  1  0.50000000  0.50000000  0.00000000  1
  O  O0  1  0.54099281  0.03219975  0.84071441  1
  O  O1  1  0.13900774  0.63317394  0.04077869  1
  O  O2  1  0.74150587  0.23264894  0.24122742  1
  O  O3  1  0.34114285  0.83268551  0.44099925  1
  O  O4  1  0.94104665  0.43218048  0.64082825  1
  O  O5  1  0.86099226  0.36682606  0.95922131  1
  O  O6  1  0.45900719  0.96780025  0.15928559  1
  O  O7  1  0.05895335  0.56781952  0.35917175  1
  O  O8  1  0.65885715  0.16731449  0.55900075  1
  O  O9  1  0.25849413  0.76735106  0.75877258  1
  O  O10  1  0.36961215  0.84437533  0.95365213  1
  O  O11  1  0.96923505  0.44354200  0.15395605  1
  O  O12  1  0.56887692  0.04365952  0.35390682  1
  O  O13  1  0.16916291  0.64313124  0.55370446  1
  O  O14  1  0.76856093  0.24304449  0.75356224  1
  O  O15  1  0.03076495  0.55645800  0.84604395  1
  O  O16  1  0.63038785  0.15562467  0.04634787  1
  O  O17  1  0.23143907  0.75695551  0.24643776  1
  O  O18  1  0.83083709  0.35686876  0.44629554  1
  O  O19  1  0.43112308  0.95634048  0.64609318  1
  O  O20  1  0.00826011  0.04552847  0.85662823  1
  O  O21  1  0.60736880  0.64582826  0.05752411  1
  O  O22  1  0.20831472  0.24643370  0.25706659  1
  O  O23  1  0.80824201  0.84583568  0.45699137  1
  O  O24  1  0.40786649  0.44557632  0.65682059  1
  O  O25  1  0.39263120  0.35417174  0.94247589  1
  O  O26  1  0.99173989  0.95447153  0.14337177  1
  O  O27  1  0.59213351  0.55442368  0.34317941  1
  O  O28  1  0.19175799  0.15416432  0.54300863  1
  O  O29  1  0.79168528  0.75356630  0.74293341  1
loop_
_geom_bond_atom_site_label_1
_geom_bond_atom_site_label_2
_geom_bond_distance
_geom_bond_site_symmetry_2
Mg0 O5 2.050442 1_455
Mg0 O10 2.050742 1_545
Mg0 O20 2.056742 1_555
Mg0 O25 2.058810 1_555
Mg0 O0 2.063145 1_555
Mg0 O15 2.068428 1_555
Mg1 O1 2.050442 1_655
Mg1 O16 2.050742 1_565
Mg1 O26 2.056742 1_555
Mg1 O21 2.058810 1_555
Mg1 O6 2.063145 1_555
Mg1 O11 2.068428 1_555
Mg2 O27 2.053713 1_555
Mg2 O7 2.057010 1_555
Mg2 O2 2.057703 1_555
Mg2 O17 2.060154 1_555
Mg2 O22 2.060255 1_555
Mg2 O12 2.061414 1_555
Mg3 O23 2.056361 1_445
Mg3 O28 2.056361 1_555
Mg3 O3 2.057189 1_545
Mg3 O8 2.057189 1_455
Mg3 O13 2.061344 1_545
Mg3 O18 2.061344 1_455
Mg4 O24 2.053713 1_555
Mg4 O4 2.057010 1_555
Mg4 O9 2.057703 1_555
Mg4 O14 2.060154 1_555
Mg4 O29 2.060255 1_555
Mg4 O19 2.061414 1_555
Mo0 O0 1.913465 1_565
Mo0 O29 1.913571 1_555
Mo0 O20 1.915348 1_665
Mo0 O9 1.915948 1_655
Mo0 O15 1.917135 1_655
Mo0 O14 1.919750 1_565
Mo1 O6 1.913465 1_545
Mo1 O22 1.913571 1_555
Mo1 O26 1.915348 1_445
Mo1 O2 1.915948 1_455
Mo1 O11 1.917135 1_455
Mo1 O17 1.919750 1_545
Mo2 O23 1.913528 1_555
Mo2 O27 1.913860 1_555
Mo2 O3 1.914646 1_555
Mo2 O7 1.915038 1_655
Mo2 O12 1.918368 1_565
Mo2 O18 1.918394 1_555
Mo3 O28 1.913528 1_555
Mo3 O24 1.913860 1_555
Mo3 O8 1.914646 1_555
Mo3 O4 1.915038 1_455
Mo3 O19 1.918368 1_545
Mo3 O13 1.918394 1_555
O0 Sr4 2.602756 1_555
O0 Sr5 2.653307 1_545
O0 Sr5 2.948464 1_555
O0 Sr0 2.997980 1_545
O1 W0 1.922469 1_555
O1 Sr0 2.606322 1_454
O1 Sr6 2.648970 1_555
O1 Sr6 2.957816 1_565
O1 Sr1 3.029763 1_555
O2 Sr1 2.595803 1_555
O2 Sr7 2.650068 1_545
O2 Sr7 2.952939 1_555
O2 Sr2 3.000208 1_655
O3 Sr2 2.603438 1_565
O3 Sr8 2.651847 1_555
O3 Sr8 2.951645 1_565
O3 Sr3 3.002760 1_555
O4 Sr3 2.602662 1_555
O4 Sr9 2.652214 1_545
O4 Sr9 2.951416 1_555
O4 Sr4 3.003856 1_655
O5 W0 1.922469 1_556
O5 Sr6 2.606322 1_656
O5 Sr0 2.648970 1_555
O5 Sr0 2.957816 1_545
O5 Sr5 3.029763 1_555
O6 Sr7 2.602756 1_555
O6 Sr1 2.653307 1_565
O6 Sr1 2.948464 1_555
O6 Sr6 2.997980 1_565
O7 Sr8 2.602662 1_555
O7 Sr2 2.652214 1_565
O7 Sr2 2.951416 1_555
O7 Sr7 3.003856 1_455
O8 Sr9 2.603438 1_545
O8 Sr3 2.651847 1_555
O8 Sr3 2.951645 1_545
O8 Sr8 3.002760 1_555
O9 Sr5 2.595803 1_555
O9 Sr4 2.650068 1_565
O9 Sr4 2.952939 1_555
O9 Sr9 3.000208 1_455
O10 W0 1.924389 1_556
O10 Sr0 2.674841 1_555
O10 Sr6 2.740123 1_566
O10 Sr5 2.862123 1_555
O10 Sr0 2.901141 1_455
O11 Sr1 2.683303 1_655
O11 Sr7 2.728118 1_555
O11 Sr6 2.836587 1_655
O11 Sr1 2.891400 1_555
O12 Sr2 2.683107 1_655
O12 Sr8 2.726191 1_555
O12 Sr7 2.844510 1_545
O12 Sr2 2.892340 1_555
O13 Sr3 2.680930 1_555
O13 Sr9 2.727546 1_455
O13 Sr8 2.841723 1_555
O13 Sr3 2.894416 1_455
O14 Sr4 2.681917 1_655
O14 Sr5 2.717188 1_555
O14 Sr9 2.842712 1_545
O14 Sr4 2.893335 1_555
O15 Sr5 2.683303 1_455
O15 Sr4 2.728118 1_555
O15 Sr0 2.836587 1_455
O15 Sr5 2.891400 1_555
O16 W0 1.924389 1_555
O16 Sr6 2.674841 1_555
O16 Sr0 2.740123 1_544
O16 Sr1 2.862123 1_555
O16 Sr6 2.901141 1_655
O17 Sr7 2.681917 1_455
O17 Sr1 2.717188 1_555
O17 Sr2 2.842712 1_565
O17 Sr7 2.893335 1_555
O18 Sr8 2.680930 1_555
O18 Sr2 2.727546 1_655
O18 Sr3 2.841723 1_555
O18 Sr8 2.894416 1_655
O19 Sr9 2.683107 1_455
O19 Sr3 2.726191 1_555
O19 Sr4 2.844510 1_565
O19 Sr9 2.892340 1_555
O20 Sr0 2.564247 1_445
O20 Sr5 2.699293 1_455
O20 Sr5 2.911741 1_545
O20 Sr4 3.038770 1_555
O21 W0 1.922831 1_555
O21 Sr1 2.569376 1_555
O21 Sr6 2.697584 1_565
O21 Sr6 2.913230 1_655
O21 Sr0 3.065805 1_554
O22 Sr2 2.570091 1_555
O22 Sr7 2.697912 1_455
O22 Sr7 2.912447 1_545
O22 Sr1 3.032793 1_555
O23 Sr3 2.569175 1_555
O23 Sr8 2.699414 1_565
O23 Sr8 2.910985 1_655
O23 Sr2 3.044191 1_665
O24 Sr4 2.570682 1_555
O24 Sr9 2.697742 1_455
O24 Sr9 2.912534 1_545
O24 Sr3 3.043419 1_555
O25 W0 1.922831 1_556
O25 Sr5 2.569376 1_555
O25 Sr0 2.697584 1_545
O25 Sr0 2.913230 1_455
O25 Sr6 3.065805 1_556
O26 Sr6 2.564247 1_665
O26 Sr1 2.699293 1_655
O26 Sr1 2.911741 1_565
O26 Sr7 3.038770 1_555
O27 Sr7 2.570682 1_555
O27 Sr2 2.697742 1_655
O27 Sr2 2.912534 1_565
O27 Sr8 3.043419 1_555
O28 Sr8 2.569175 1_555
O28 Sr3 2.699414 1_545
O28 Sr3 2.910985 1_455
O28 Sr9 3.044191 1_445
O29 Sr9 2.570091 1_555
O29 Sr4 2.697912 1_655
O29 Sr4 2.912447 1_565
O29 Sr5 3.032793 1_555
