# generated using pymatgen
data_VWC2
_symmetry_space_group_name_H-M   'P 1'
_cell_length_a   5.23563321
_cell_length_b   5.23563321
_cell_length_c   5.23563285
_cell_angle_alpha   33.68635769
_cell_angle_beta   33.68635769
_cell_angle_gamma   33.68635120
_symmetry_Int_Tables_number   1
_chemical_formula_structural   VWC2
_chemical_formula_sum   'V1 W1 C2'
_cell_volume   39.33463207
_cell_formula_units_Z   1
loop_
 _symmetry_equiv_pos_site_id
 _symmetry_equiv_pos_as_xyz
  1  'x, y, z'
loop_
 _atom_site_type_symbol
 _atom_site_label
 _atom_site_symmetry_multiplicity
 _atom_site_fract_x
 _atom_site_fract_y
 _atom_site_fract_z
 _atom_site_occupancy
  V  V0  1  0.50000000  0.50000000  0.50000000  1
  W  W0  1  0.00000000  0.00000000  0.00000000  1
  C  C0  1  0.24649400  0.24649400  0.24649400  1
  C  C1  1  0.75350600  0.75350600  0.75350600  1
loop_
_geom_bond_atom_site_label_1
_geom_bond_atom_site_label_2
_geom_bond_distance
_geom_bond_site_symmetry_2
C0 V0 2.112979 1_554
C0 V0 2.112979 1_545
C0 V0 2.112979 1_455
C0 W0 2.172722 1_556
C0 W0 2.172722 1_655
C0 W0 2.172722 1_565
C1 V0 2.112979 1_556
C1 V0 2.112979 1_565
C1 V0 2.112979 1_655
C1 W0 2.172722 1_665
C1 W0 2.172722 1_656
C1 W0 2.172722 1_566
