# generated using pymatgen
data_BaSrNb4O12
_symmetry_space_group_name_H-M   'P 1'
_cell_length_a   5.70869477
_cell_length_b   5.70869477
_cell_length_c   8.07109075
_cell_angle_alpha   90.00000000
_cell_angle_beta   90.00000000
_cell_angle_gamma   90.00000000
_symmetry_Int_Tables_number   1
_chemical_formula_structural   BaSrNb4O12
_chemical_formula_sum   'Ba1 Sr1 Nb4 O12'
_cell_volume   263.03035820
_cell_formula_units_Z   1
loop_
 _symmetry_equiv_pos_site_id
 _symmetry_equiv_pos_as_xyz
  1  'x, y, z'
loop_
 _atom_site_type_symbol
 _atom_site_label
 _atom_site_symmetry_multiplicity
 _atom_site_fract_x
 _atom_site_fract_y
 _atom_site_fract_z
 _atom_site_occupancy
  Ba  Ba0  1  0.50000000  0.50000000  0.50000000  1
  Sr  Sr0  1  0.00000000  0.00000000  -0.00000000  1
  Nb  Nb0  1  0.00000000  0.50000000  0.75180478  1
  Nb  Nb1  1  0.00000000  0.50000000  0.24819522  1
  Nb  Nb2  1  0.50000000  0.00000000  0.24819522  1
  Nb  Nb3  1  0.50000000  -0.00000000  0.75180478  1
  O  O0  1  0.24787699  0.24787699  0.75360472  1
  O  O1  1  0.24787699  0.24787699  0.24639528  1
  O  O2  1  0.75212301  0.75212301  0.75360472  1
  O  O3  1  0.75212301  0.75212301  0.24639528  1
  O  O4  1  0.75212301  0.24787699  0.75360472  1
  O  O5  1  0.75212301  0.24787699  0.24639528  1
  O  O6  1  0.24787699  0.75212301  0.24639528  1
  O  O7  1  0.24787699  0.75212301  0.75360472  1
  O  O8  1  0.00000000  0.50000000  0.50000000  1
  O  O9  1  0.00000000  0.50000000  -0.00000000  1
  O  O10  1  0.50000000  0.00000000  0.50000000  1
  O  O11  1  0.50000000  0.00000000  -0.00000000  1
loop_
_geom_bond_atom_site_label_1
_geom_bond_atom_site_label_2
_geom_bond_distance
_geom_bond_site_symmetry_2
Ba0 O8 2.854347 1_655
Ba0 O10 2.854347 1_555
Ba0 O10 2.854347 1_565
Ba0 O8 2.854347 1_555
Ba0 O6 2.886658 1_555
Ba0 O3 2.886658 1_555
Ba0 O5 2.886658 1_555
Ba0 O1 2.886658 1_555
Ba0 O7 2.886658 1_555
Ba0 O4 2.886658 1_555
Ba0 O0 2.886658 1_555
Ba0 O2 2.886658 1_555
Nb0 O9 2.003206 1_556
Nb0 O4 2.018453 1_455
Nb0 O7 2.018453 1_555
Nb0 O0 2.018453 1_555
Nb0 O2 2.018453 1_455
Nb0 O8 2.032339 1_555
Nb1 O9 2.003206 1_555
Nb1 O1 2.018453 1_555
Nb1 O5 2.018453 1_455
Nb1 O3 2.018453 1_455
Nb1 O6 2.018453 1_555
Nb1 O8 2.032339 1_555
Nb2 O11 2.003206 1_555
Nb2 O1 2.018453 1_555
Nb2 O6 2.018453 1_545
Nb2 O3 2.018453 1_545
Nb2 O5 2.018453 1_555
Nb2 O10 2.032339 1_555
Nb3 O11 2.003206 1_556
Nb3 O2 2.018453 1_545
Nb3 O0 2.018453 1_555
Nb3 O4 2.018453 1_555
Nb3 O7 2.018453 1_545
Nb3 O10 2.032339 1_555
O0 Sr0 2.821276 1_556
O1 Sr0 2.821276 1_555
O2 Sr0 2.821276 1_666
O3 Sr0 2.821276 1_665
O4 Sr0 2.821276 1_656
O5 Sr0 2.821276 1_655
O6 Sr0 2.821276 1_565
O7 Sr0 2.821276 1_566
O9 Sr0 2.854347 1_565
O9 Sr0 2.854347 1_555
O11 Sr0 2.854347 1_655
O11 Sr0 2.854347 1_555
