# generated using pymatgen
data_Nb5V5Si6
_symmetry_space_group_name_H-M   'P 1'
_cell_length_a   5.23086600
_cell_length_b   7.26995190
_cell_length_c   7.41751552
_cell_angle_alpha   119.34406218
_cell_angle_beta   89.99846292
_cell_angle_gamma   90.00314681
_symmetry_Int_Tables_number   1
_chemical_formula_structural   Nb5V5Si6
_chemical_formula_sum   'Nb5 V5 Si6'
_cell_volume   245.88214160
_cell_formula_units_Z   1
loop_
 _symmetry_equiv_pos_site_id
 _symmetry_equiv_pos_as_xyz
  1  'x, y, z'
loop_
 _atom_site_type_symbol
 _atom_site_label
 _atom_site_symmetry_multiplicity
 _atom_site_fract_x
 _atom_site_fract_y
 _atom_site_fract_z
 _atom_site_occupancy
  Nb  Nb0  1  0.49842900  0.33495500  0.67080900  1
  Nb  Nb1  1  0.49842900  0.66414700  0.32919200  1
  Nb  Nb2  1  0.00156400  0.66418600  0.32924000  1
  Nb  Nb3  1  0.00156400  0.33494700  0.67076000  1
  Nb  Nb4  1  0.74995300  0.22449400  0.00000000  1
  V  V0  1  0.75006800  0.74915700  0.74510300  1
  V  V1  1  0.75006800  0.00405400  0.25489700  1
  V  V2  1  0.25001700  0.75371800  0.00000000  1
  V  V3  1  0.24995200  0.26560300  0.26766100  1
  V  V4  1  0.24995200  0.99794200  0.73233900  1
  Si  Si0  1  0.75003100  0.62089600  0.00000000  1
  Si  Si1  1  0.74996900  0.39079400  0.39620300  1
  Si  Si2  1  0.74996900  0.99459100  0.60379700  1
  Si  Si3  1  0.24992600  0.37800500  0.00000000  1
  Si  Si4  1  0.25005500  0.62073100  0.61895100  1
  Si  Si5  1  0.25005500  0.00178000  0.38104900  1
loop_
_geom_bond_atom_site_label_1
_geom_bond_atom_site_label_2
_geom_bond_distance
_geom_bond_site_symmetry_2
Nb0 Si1 2.618245 1_555
Nb0 Si2 2.626019 1_545
Nb0 Si4 2.633595 1_555
Nb0 Si3 2.645905 1_556
Nb0 Si0 2.653422 1_556
Nb0 Si5 2.659274 1_555
Nb1 Si2 2.618238 1_555
Nb1 Si1 2.626021 1_555
Nb1 Si5 2.633591 1_565
Nb1 Si3 2.645911 1_555
Nb1 Si0 2.653426 1_555
Nb1 Si4 2.659271 1_555
Nb2 Si2 2.618192 1_455
Nb2 Si1 2.626084 1_455
Nb2 Si5 2.633637 1_565
Nb2 Si3 2.645883 1_555
Nb2 Si0 2.653508 1_455
Nb2 Si4 2.659481 1_555
Nb3 Si1 2.618188 1_455
Nb3 Si2 2.626090 1_445
Nb3 Si4 2.633630 1_555
Nb3 Si3 2.645885 1_556
Nb3 Si0 2.653506 1_456
Nb3 Si5 2.659485 1_555
Nb4 Si1 2.572178 1_555
Nb4 Si2 2.572178 1_544
Nb4 Si3 2.843400 1_655
Nb4 Si3 2.843773 1_555
Nb4 Si0 2.881823 1_555
Si0 V0 2.484378 1_554
Si0 V1 2.484379 1_565
Si0 V2 2.787872 1_655
Si0 V2 2.788109 1_555
Si1 V1 2.472910 1_555
Si1 V0 2.622371 1_555
Si1 V3 2.779761 1_655
Si1 V3 2.779882 1_555
Si2 V0 2.472910 1_555
Si2 V1 2.622370 1_565
Si2 V4 2.779761 1_655
Si2 V4 2.779882 1_555
Si3 V3 2.489894 1_555
Si3 V4 2.489894 1_544
Si3 V2 2.731415 1_555
Si4 V4 2.442758 1_555
Si4 V2 2.499041 1_556
Si4 V3 2.619486 1_555
Si4 V0 2.780522 1_455
Si4 V0 2.780601 1_555
Si5 V3 2.442758 1_555
Si5 V2 2.499041 1_545
Si5 V4 2.619485 1_545
Si5 V1 2.780522 1_455
Si5 V1 2.780601 1_555
