# generated using pymatgen
data_Li2VCr3O8
_symmetry_space_group_name_H-M   'P 1'
_cell_length_a   5.96172588
_cell_length_b   10.17654519
_cell_length_c   5.99379992
_cell_angle_alpha   72.87440591
_cell_angle_beta   59.81946770
_cell_angle_gamma   72.96285663
_symmetry_Int_Tables_number   1
_chemical_formula_structural   Li2VCr3O8
_chemical_formula_sum   'Li4 V2 Cr6 O16'
_cell_volume   295.75070529
_cell_formula_units_Z   2
loop_
 _symmetry_equiv_pos_site_id
 _symmetry_equiv_pos_as_xyz
  1  'x, y, z'
loop_
 _atom_site_type_symbol
 _atom_site_label
 _atom_site_symmetry_multiplicity
 _atom_site_fract_x
 _atom_site_fract_y
 _atom_site_fract_z
 _atom_site_occupancy
  Li  Li0  1  0.43568000  0.69446600  0.43490600  1
  Li  Li1  1  0.93568200  0.19446100  0.93490600  1
  Li  Li2  1  0.06435300  0.80553100  0.06504900  1
  Li  Li3  1  0.56435300  0.30553600  0.56504900  1
  V  V0  1  0.25003900  0.25001500  0.24992600  1
  V  V1  1  0.75007800  0.74999300  0.74991400  1
  Cr  Cr0  1  0.49994200  0.99992700  0.50008400  1
  Cr  Cr1  1  0.50005000  0.99993200  0.99997800  1
  Cr  Cr2  1  0.49999000  0.50004700  0.00004700  1
  Cr  Cr3  1  0.99989000  0.50005100  0.00004500  1
  Cr  Cr4  1  0.99991700  0.50003000  0.50003400  1
  Cr  Cr5  1  0.00000300  0.99999400  0.50000500  1
  O  O0  1  0.36971000  0.89521700  0.36754100  1
  O  O1  1  0.86965300  0.39520100  0.86759800  1
  O  O2  1  0.13032400  0.60478500  0.13244000  1
  O  O3  1  0.63027700  0.10479000  0.63244300  1
  O  O4  1  0.58433900  0.12704400  0.14409800  1
  O  O5  1  0.08441400  0.62719900  0.64395200  1
  O  O6  1  0.14353800  0.12785000  0.58372200  1
  O  O7  1  0.64344100  0.62785200  0.08376700  1
  O  O8  1  0.14361300  0.12787000  0.14463000  1
  O  O9  1  0.64356100  0.62779900  0.64469700  1
  O  O10  1  0.35640300  0.37217200  0.35530600  1
  O  O11  1  0.85646300  0.87218300  0.85530400  1
  O  O12  1  0.35648500  0.37217200  0.91635100  1
  O  O13  1  0.85652300  0.87213200  0.41623600  1
  O  O14  1  0.91568700  0.37292400  0.35592200  1
  O  O15  1  0.41559200  0.87282600  0.85604900  1
loop_
_geom_bond_atom_site_label_1
_geom_bond_atom_site_label_2
_geom_bond_distance
_geom_bond_site_symmetry_2
Li0 O0 1.922082 1_555
Li0 O5 2.029947 1_555
Li0 O9 2.036947 1_555
Li0 O7 2.037268 1_555
Li1 O1 1.921976 1_555
Li1 O4 2.031022 1_556
Li1 O8 2.036881 1_656
Li1 O6 2.037471 1_655
Li2 O2 1.922034 1_555
Li2 O15 2.029946 1_554
Li2 O11 2.036767 1_454
Li2 O13 2.037441 1_455
Li3 O3 1.922035 1_555
Li3 O14 2.030843 1_555
Li3 O10 2.037056 1_555
Li3 O12 2.038171 1_555
Cr0 O0 1.993223 1_555
Cr0 O3 1.994046 1_565
Cr0 O6 2.037946 1_565
Cr0 O13 2.038078 1_555
Cr0 O15 2.038424 1_555
Cr0 O4 2.038556 1_565
Cr1 O0 1.993581 1_556
Cr1 O3 1.993932 1_565
Cr1 O15 2.036286 1_555
Cr1 O4 2.036527 1_566
Cr1 O11 2.037059 1_555
Cr1 O8 2.038021 1_566
Cr2 O2 1.996496 1_555
Cr2 O1 1.996843 1_554
Cr2 O7 2.035299 1_555
Cr2 O12 2.036036 1_554
Cr2 O9 2.036561 1_554
Cr2 O10 2.036784 1_555
Cr3 O2 1.993643 1_655
Cr3 O1 1.993905 1_554
Cr3 O7 2.037594 1_555
Cr3 O14 2.038224 1_555
Cr3 O12 2.038568 1_654
Cr3 O5 2.039082 1_654
Cr4 O2 1.993848 1_655
Cr4 O1 1.993965 1_555
Cr4 O14 2.036214 1_555
Cr4 O5 2.036921 1_655
Cr4 O9 2.036928 1_555
Cr4 O10 2.037876 1_655
Cr5 O0 1.996809 1_555
Cr5 O3 1.996957 1_465
Cr5 O6 2.036086 1_565
Cr5 O13 2.036099 1_455
Cr5 O11 2.036620 1_455
Cr5 O8 2.037249 1_565
O4 V0 1.917131 1_555
O5 V1 1.916476 1_455
O6 V0 1.916247 1_555
O7 V1 1.916372 1_554
O8 V0 1.916443 1_555
O9 V1 1.916910 1_555
O10 V0 1.916638 1_555
O11 V1 1.917048 1_555
O12 V0 1.915303 1_556
O13 V1 1.915647 1_555
O14 V0 1.917062 1_655
O15 V1 1.917263 1_555
