# generated using pymatgen
data_Sm2ZrFe16
_symmetry_space_group_name_H-M   'P 1'
_cell_length_a   6.50503748
_cell_length_b   6.50503748
_cell_length_c   6.50503803
_cell_angle_alpha   83.26235077
_cell_angle_beta   83.26235077
_cell_angle_gamma   83.26234907
_symmetry_Int_Tables_number   1
_chemical_formula_structural   Sm2ZrFe16
_chemical_formula_sum   'Sm2 Zr1 Fe16'
_cell_volume   269.97430760
_cell_formula_units_Z   1
loop_
 _symmetry_equiv_pos_site_id
 _symmetry_equiv_pos_as_xyz
  1  'x, y, z'
loop_
 _atom_site_type_symbol
 _atom_site_label
 _atom_site_symmetry_multiplicity
 _atom_site_fract_x
 _atom_site_fract_y
 _atom_site_fract_z
 _atom_site_occupancy
  Sm  Sm0  1  0.34129100  0.34129100  0.34129100  1
  Sm  Sm1  1  0.64825100  0.64825100  0.64825100  1
  Zr  Zr0  1  0.90516800  0.90516800  0.90516800  1
  Fe  Fe0  1  0.16427000  0.65451000  0.65451000  1
  Fe  Fe1  1  0.65451000  0.65451000  0.16427000  1
  Fe  Fe2  1  0.65451000  0.16427000  0.65451000  1
  Fe  Fe3  1  0.84330000  0.34001600  0.34001600  1
  Fe  Fe4  1  0.34001600  0.34001600  0.84330000  1
  Fe  Fe5  1  0.34001600  0.84330000  0.34001600  1
  Fe  Fe6  1  0.69913900  0.30286600  0.00062900  1
  Fe  Fe7  1  0.30286600  0.00062900  0.69913900  1
  Fe  Fe8  1  0.00062900  0.69913900  0.30286600  1
  Fe  Fe9  1  0.69913900  0.00062900  0.30286600  1
  Fe  Fe10  1  0.00062900  0.30286600  0.69913900  1
  Fe  Fe11  1  0.30286600  0.69913900  0.00062900  1
  Fe  Fe12  1  0.00384600  0.00384600  0.48996300  1
  Fe  Fe13  1  0.00384600  0.48996300  0.00384600  1
  Fe  Fe14  1  0.48996300  0.00384600  0.00384600  1
  Fe  Fe15  1  0.10574600  0.10574600  0.10574600  1
loop_
_geom_bond_atom_site_label_1
_geom_bond_atom_site_label_2
_geom_bond_distance
_geom_bond_site_symmetry_2
Sm1 Zr0 3.216434 1_555
Fe0 Fe4 2.488287 1_555
Fe0 Fe5 2.488287 1_555
Fe0 Fe12 2.556101 1_565
Fe0 Fe13 2.556101 1_556
Fe0 Fe7 2.580222 1_565
Fe0 Fe11 2.580222 1_556
Fe0 Fe10 2.606320 1_555
Fe0 Fe8 2.606320 1_555
Fe0 Zr0 2.737197 1_455
Fe0 Sm0 3.082512 1_555
Fe0 Sm1 3.139336 1_555
Fe0 Sm1 3.366813 1_455
Fe1 Fe5 2.488287 1_555
Fe1 Fe3 2.488287 1_555
Fe1 Fe13 2.556101 1_655
Fe1 Fe14 2.556101 1_565
Fe1 Fe8 2.580222 1_655
Fe1 Fe9 2.580222 1_565
Fe1 Fe11 2.606320 1_555
Fe1 Fe6 2.606320 1_555
Fe1 Zr0 2.737197 1_554
Fe1 Sm0 3.082512 1_555
Fe1 Sm1 3.139337 1_555
Fe1 Sm1 3.366813 1_554
Fe2 Fe4 2.488287 1_555
Fe2 Fe3 2.488287 1_555
Fe2 Fe6 2.580222 1_556
Fe2 Fe7 2.606320 1_555
Fe2 Fe9 2.606320 1_555
Fe2 Zr0 2.737197 1_545
Fe2 Sm0 3.082512 1_555
Fe2 Sm1 3.139336 1_555
Fe2 Sm1 3.366813 1_545
Fe3 Fe9 2.544805 1_555
Fe3 Fe6 2.544805 1_555
Fe3 Fe8 2.633195 1_655
Fe3 Sm1 3.065943 1_555
Fe3 Sm0 3.241419 1_655
Fe3 Sm0 3.263664 1_555
Fe4 Fe7 2.544805 1_555
Fe4 Fe6 2.633195 1_556
Fe4 Sm1 3.065943 1_555
Fe4 Sm0 3.241420 1_556
Fe4 Sm0 3.263664 1_555
Fe5 Fe8 2.544805 1_555
Fe5 Fe9 2.633195 1_565
Fe5 Fe7 2.633195 1_565
Fe5 Sm1 3.065943 1_555
Fe5 Sm0 3.241419 1_565
Fe5 Sm0 3.263664 1_555
Fe6 Fe9 2.612241 1_555
Fe6 Zr0 2.871010 1_544
Fe6 Sm0 3.029020 1_555
Fe6 Sm1 3.034279 1_554
Fe7 Zr0 2.871010 1_445
Fe7 Sm0 3.029020 1_555
Fe7 Sm1 3.034279 1_545
Fe8 Fe9 2.605785 1_465
Fe8 Zr0 2.871010 1_454
Fe8 Sm0 3.029020 1_555
Fe8 Sm1 3.034279 1_455
Fe9 Zr0 2.871010 1_544
Fe9 Sm0 3.029020 1_555
Fe9 Sm1 3.034279 1_545
Fe10 Fe13 2.447921 1_556
Fe10 Fe12 2.498061 1_555
Fe10 Fe4 2.544805 1_555
Fe10 Fe2 2.580222 1_455
Fe10 Fe6 2.605785 1_456
Fe10 Fe7 2.612241 1_555
Fe10 Fe3 2.633195 1_455
Fe10 Zr0 2.871010 1_445
Fe10 Sm0 3.029020 1_555
Fe10 Sm1 3.034279 1_455
Fe11 Fe14 2.447921 1_565
Fe11 Fe13 2.498061 1_555
Fe11 Fe5 2.544805 1_555
Fe11 Fe7 2.605785 1_564
Fe11 Fe8 2.612241 1_555
Fe11 Fe4 2.633195 1_554
Fe11 Zr0 2.871010 1_454
Fe11 Sm0 3.029020 1_555
Fe11 Sm1 3.034279 1_554
Fe12 Fe9 2.447921 1_455
Fe12 Fe8 2.447921 1_545
Fe12 Fe5 2.454961 1_545
Fe12 Fe3 2.454961 1_455
Fe12 Fe7 2.498061 1_555
Fe12 Fe15 2.539905 1_555
Fe12 Fe2 2.556101 1_455
Fe12 Zr0 2.720685 1_445
Fe12 Sm0 3.272085 1_555
Fe12 Sm1 3.449550 1_445
Fe13 Fe6 2.447921 1_455
Fe13 Fe4 2.454961 1_554
Fe13 Fe3 2.454961 1_455
Fe13 Fe8 2.498061 1_555
Fe13 Fe15 2.539905 1_555
Fe13 Zr0 2.720685 1_454
Fe13 Sm0 3.272085 1_555
Fe13 Sm1 3.449550 1_454
Fe14 Fe7 2.447921 1_554
Fe14 Fe4 2.454961 1_554
Fe14 Fe5 2.454961 1_545
Fe14 Fe6 2.498061 1_555
Fe14 Fe9 2.498061 1_555
Fe14 Fe15 2.539905 1_555
Fe14 Fe2 2.556101 1_554
Fe14 Zr0 2.720685 1_544
Fe14 Sm0 3.272085 1_555
Fe14 Sm1 3.449550 1_544
Fe15 Zr0 2.511106 1_444
Fe15 Fe3 2.623612 1_455
Fe15 Fe5 2.623612 1_545
Fe15 Fe4 2.623612 1_554
Fe15 Sm0 2.948870 1_555
