# generated using pymatgen
data_Mo3W(Se3S)2
_symmetry_space_group_name_H-M   'P 1'
_cell_length_a   3.29131354
_cell_length_b   3.29131354
_cell_length_c   36.85691400
_cell_angle_alpha   90.00000000
_cell_angle_beta   90.00000000
_cell_angle_gamma   119.99999067
_symmetry_Int_Tables_number   1
_chemical_formula_structural   Mo3W(Se3S)2
_chemical_formula_sum   'Mo3 W1 Se6 S2'
_cell_volume   345.77067165
_cell_formula_units_Z   1
loop_
 _symmetry_equiv_pos_site_id
 _symmetry_equiv_pos_as_xyz
  1  'x, y, z'
loop_
 _atom_site_type_symbol
 _atom_site_label
 _atom_site_symmetry_multiplicity
 _atom_site_fract_x
 _atom_site_fract_y
 _atom_site_fract_z
 _atom_site_occupancy
  Mo  Mo0  1  0.00000000  0.00000000  0.09391100  1
  Mo  Mo1  1  0.33333300  0.66666700  0.28180000  1
  Mo  Mo2  1  0.33333300  0.66666700  0.65756800  1
  W  W0  1  0.00000000  0.00000000  0.46963500  1
  Se  Se0  1  0.00000000  0.00000000  0.70325200  1
  Se  Se1  1  0.33333300  0.66666700  0.04821100  1
  Se  Se2  1  0.33333300  0.66666700  0.42369400  1
  Se  Se3  1  0.33333300  0.66666700  0.13961500  1
  Se  Se4  1  0.33333300  0.66666700  0.51559500  1
  Se  Se5  1  0.00000000  0.00000000  0.61186900  1
  S  S0  1  0.00000000  0.00000000  0.32337600  1
  S  S1  1  0.00000000  0.00000000  0.24022300  1
loop_
_geom_bond_atom_site_label_1
_geom_bond_atom_site_label_2
_geom_bond_distance
_geom_bond_site_symmetry_2
Mo0 Se1 2.539287 1_545
Mo0 Se1 2.539289 1_555
Mo0 Se1 2.539289 1_445
Mo0 Se3 2.539385 1_545
Mo0 Se3 2.539387 1_445
Mo0 Se3 2.539387 1_555
Mo1 S0 2.441115 1_565
Mo1 S0 2.441118 1_555
Mo1 S0 2.441118 1_665
Mo1 S1 2.441138 1_565
Mo1 S1 2.441141 1_555
Mo1 S1 2.441141 1_665
Mo2 Se0 2.538896 1_565
Mo2 Se0 2.538898 1_555
Mo2 Se0 2.538898 1_665
Mo2 Se5 2.539263 1_565
Mo2 Se5 2.539265 1_555
Mo2 Se5 2.539265 1_665
Se2 W0 2.545188 1_565
Se2 W0 2.545190 1_555
Se2 W0 2.545190 1_665
Se4 W0 2.545654 1_565
Se4 W0 2.545656 1_665
Se4 W0 2.545656 1_555
