# generated using pymatgen
data_Y2Mn3N4
_symmetry_space_group_name_H-M   'P 1'
_cell_length_a   6.14438374
_cell_length_b   7.11926183
_cell_length_c   6.52837060
_cell_angle_alpha   90.00000079
_cell_angle_beta   77.77175936
_cell_angle_gamma   125.40348584
_symmetry_Int_Tables_number   1
_chemical_formula_structural   Y2Mn3N4
_chemical_formula_sum   'Y4 Mn6 N8'
_cell_volume   224.77272585
_cell_formula_units_Z   2
loop_
 _symmetry_equiv_pos_site_id
 _symmetry_equiv_pos_as_xyz
  1  'x, y, z'
loop_
 _atom_site_type_symbol
 _atom_site_label
 _atom_site_symmetry_multiplicity
 _atom_site_fract_x
 _atom_site_fract_y
 _atom_site_fract_z
 _atom_site_occupancy
  Y  Y0  1  0.58363612  0.18851540  0.74611223  1
  Y  Y1  1  0.41636388  0.60488027  0.75388777  1
  Y  Y2  1  0.41636388  0.81148460  0.25388777  1
  Y  Y3  1  0.58363612  0.39511973  0.24611223  1
  Mn  Mn0  1  0.05529686  0.89743821  0.08117150  1
  Mn  Mn1  1  0.94470314  0.84214035  0.41882850  1
  Mn  Mn2  1  0.94470314  0.10256179  0.91882850  1
  Mn  Mn3  1  0.05529686  0.15785965  0.58117150  1
  Mn  Mn4  1  0.00000000  0.75755250  0.75000000  1
  Mn  Mn5  1  -0.00000000  0.24244750  0.25000000  1
  N  N0  1  0.25699103  0.03046780  0.52625972  1
  N  N1  1  0.74300897  0.77347677  0.97374028  1
  N  N2  1  0.74300897  0.96953220  0.47374028  1
  N  N3  1  0.25699103  0.22652323  0.02625972  1
  N  N4  1  0.76460187  0.20780483  0.07177320  1
  N  N5  1  0.23539813  0.44320296  0.42822680  1
  N  N6  1  0.23539813  0.79219517  0.92822680  1
  N  N7  1  0.76460187  0.55679704  0.57177320  1
loop_
_geom_bond_atom_site_label_1
_geom_bond_atom_site_label_2
_geom_bond_distance
_geom_bond_site_symmetry_2
Mn0 N6 1.809848 1_554
Mn0 N1 1.886957 1_454
Mn0 N3 1.897614 1_565
Mn1 N7 1.809843 1_555
Mn1 N0 1.886958 1_665
Mn1 N2 1.897619 1_555
Mn2 N4 1.809848 1_556
Mn2 N3 1.886957 1_656
Mn2 N1 1.897614 1_545
Mn3 N5 1.809843 1_555
Mn3 N2 1.886958 1_445
Mn3 N0 1.897619 1_555
Mn4 N6 1.950953 1_555
Mn4 N7 1.950953 1_455
Mn4 N1 1.967271 1_455
Mn4 N0 1.967271 1_565
Mn5 N4 1.950953 1_455
Mn5 N5 1.950953 1_555
Mn5 N3 1.967271 1_555
Mn5 N2 1.967271 1_445
N0 Y0 2.440890 1_555
N0 Y3 2.553542 1_555
N0 Y2 2.753626 1_545
N1 Y1 2.440890 1_555
N1 Y2 2.553546 1_556
N1 Y3 2.753631 1_556
N2 Y2 2.440890 1_555
N2 Y1 2.553542 1_555
N2 Y0 2.753626 1_565
N3 Y3 2.440890 1_555
N3 Y0 2.553546 1_554
N3 Y1 2.753631 1_554
N4 Y3 2.343515 1_555
N4 Y2 2.424882 1_545
N4 Y0 2.568998 1_554
N5 Y2 2.343521 1_555
N5 Y3 2.424886 1_555
N5 Y1 2.568999 1_555
N6 Y1 2.343515 1_555
N6 Y0 2.424882 1_565
N6 Y2 2.568998 1_556
N7 Y0 2.343521 1_555
N7 Y1 2.424886 1_555
N7 Y3 2.568999 1_555
