# generated using pymatgen
data_CsMg14B
_symmetry_space_group_name_H-M   'P 1'
_cell_length_a   6.38507369
_cell_length_b   6.38507318
_cell_length_c   10.84740078
_cell_angle_alpha   90.00000000
_cell_angle_beta   90.00000000
_cell_angle_gamma   120.00000269
_symmetry_Int_Tables_number   1
_chemical_formula_structural   CsMg14B
_chemical_formula_sum   'Cs1 Mg14 B1'
_cell_volume   382.99058624
_cell_formula_units_Z   1
loop_
 _symmetry_equiv_pos_site_id
 _symmetry_equiv_pos_as_xyz
  1  'x, y, z'
loop_
 _atom_site_type_symbol
 _atom_site_label
 _atom_site_symmetry_multiplicity
 _atom_site_fract_x
 _atom_site_fract_y
 _atom_site_fract_z
 _atom_site_occupancy
  Cs  Cs0  1  0.16666700  0.33333300  0.12500000  1
  Mg  Mg0  1  0.17122369  0.83561135  0.12500000  1
  Mg  Mg1  1  0.15532984  0.82766442  0.62500000  1
  Mg  Mg2  1  0.66438865  0.32877631  0.12500000  1
  Mg  Mg3  1  0.67233558  0.34467016  0.62500000  1
  Mg  Mg4  1  0.66438865  0.83561135  0.12500000  1
  Mg  Mg5  1  0.67233558  0.82766442  0.62500000  1
  Mg  Mg6  1  0.32933048  0.17066952  0.40860086  1
  Mg  Mg7  1  0.32933048  0.17066952  0.84139914  1
  Mg  Mg8  1  0.32933048  0.65866197  0.40860086  1
  Mg  Mg9  1  0.32933048  0.65866197  0.84139914  1
  Mg  Mg10  1  0.84133803  0.17066952  0.40860086  1
  Mg  Mg11  1  0.84133803  0.17066952  0.84139914  1
  Mg  Mg12  1  0.83333300  0.66666700  0.36656246  1
  Mg  Mg13  1  0.83333300  0.66666700  0.88343754  1
  B  B0  1  0.16666700  0.33333300  0.62500000  1
loop_
_geom_bond_atom_site_label_1
_geom_bond_atom_site_label_2
_geom_bond_distance
_geom_bond_site_symmetry_2
Cs0 Mg0 3.192636 1_545
Cs0 Mg4 3.192636 1_555
Cs0 Mg4 3.192636 1_445
Cs0 Mg0 3.192636 1_555
Cs0 Mg2 3.192636 1_555
Cs0 Mg2 3.192636 1_455
Cs0 Mg7 3.563706 1_554
Cs0 Mg6 3.563706 1_555
Cs0 Mg9 3.563712 1_554
Cs0 Mg8 3.563712 1_555
Cs0 Mg11 3.563712 1_454
Cs0 Mg10 3.563712 1_455
Mg0 Mg12 3.218240 1_455
Mg0 Mg13 3.218240 1_454
Mg1 Mg8 3.017912 1_555
Mg1 Mg9 3.017912 1_555
Mg1 Mg6 3.017919 1_565
Mg1 Mg7 3.017919 1_565
Mg1 Mg3 3.083954 1_455
Mg1 Mg5 3.083954 1_455
Mg1 Mg3 3.301119 1_565
Mg1 Mg5 3.301120 1_555
Mg1 Mg12 3.321022 1_455
Mg1 Mg13 3.321022 1_455
Mg3 Mg6 3.017919 1_555
Mg3 Mg7 3.017919 1_555
Mg3 Mg5 3.083954 1_555
Mg3 Mg5 3.301119 1_545
Mg5 Mg8 3.017919 1_555
Mg5 Mg9 3.017919 1_555
Mg6 Mg8 3.115868 1_555
Mg6 Mg8 3.269206 1_545
Mg7 Mg9 3.115868 1_555
Mg7 Mg9 3.269206 1_545
Mg10 Mg3 3.017912 1_555
Mg10 Mg5 3.017919 1_545
Mg10 Mg8 3.115868 1_655
Mg10 Mg6 3.115868 1_655
Mg10 Mg12 3.225243 1_555
Mg10 Mg12 3.225243 1_545
Mg10 Mg8 3.269206 1_545
Mg10 Mg6 3.269206 1_555
Mg11 Mg3 3.017912 1_555
Mg11 Mg5 3.017919 1_545
Mg11 Mg9 3.115868 1_655
Mg11 Mg7 3.115868 1_655
Mg11 Mg13 3.225243 1_555
Mg11 Mg13 3.225243 1_545
Mg11 Mg9 3.269206 1_545
Mg11 Mg7 3.269206 1_555
Mg12 Mg4 3.218233 1_555
Mg12 Mg2 3.218240 1_555
Mg12 Mg6 3.225243 1_665
Mg12 Mg6 3.225243 1_555
Mg12 Mg8 3.225243 1_655
Mg12 Mg8 3.225243 1_555
Mg12 Mg5 3.321016 1_555
Mg12 Mg3 3.321022 1_555
Mg13 Mg4 3.218233 1_556
Mg13 Mg2 3.218240 1_556
Mg13 Mg7 3.225243 1_665
Mg13 Mg7 3.225243 1_555
Mg13 Mg9 3.225243 1_655
Mg13 Mg9 3.225243 1_555
Mg13 Mg5 3.321016 1_555
Mg13 Mg3 3.321022 1_555
B0 Mg6 2.957418 1_555
B0 Mg7 2.957418 1_555
B0 Mg8 2.957425 1_555
B0 Mg9 2.957425 1_555
B0 Mg10 2.957425 1_455
B0 Mg11 2.957425 1_455
