# generated using pymatgen
data_CeThCN
_symmetry_space_group_name_H-M   'P 1'
_cell_length_a   3.70322600
_cell_length_b   3.70322600
_cell_length_c   5.17521400
_cell_angle_alpha   90.00000000
_cell_angle_beta   90.00000000
_cell_angle_gamma   90.00000000
_symmetry_Int_Tables_number   1
_chemical_formula_structural   CeThCN
_chemical_formula_sum   'Ce1 Th1 C1 N1'
_cell_volume   70.97227830
_cell_formula_units_Z   1
loop_
 _symmetry_equiv_pos_site_id
 _symmetry_equiv_pos_as_xyz
  1  'x, y, z'
loop_
 _atom_site_type_symbol
 _atom_site_label
 _atom_site_symmetry_multiplicity
 _atom_site_fract_x
 _atom_site_fract_y
 _atom_site_fract_z
 _atom_site_occupancy
  Ce  Ce0  1  0.00000000  0.00000000  0.50000000  1
  Th  Th0  1  0.50000000  0.50000000  0.00000000  1
  C  C0  1  0.00000000  0.00000000  0.00000000  1
  N  N0  1  0.50000000  0.50000000  0.50000000  1
loop_
_geom_bond_atom_site_label_1
_geom_bond_atom_site_label_2
_geom_bond_distance
_geom_bond_site_symmetry_2
Ce0 N0 2.618576 1_445
Ce0 N0 2.618576 1_555
Ce0 N0 2.618576 1_545
Ce0 N0 2.618576 1_455
C0 Ce0 2.587607 1_554
C0 Ce0 2.587607 1_555
C0 Th0 2.618576 1_555
C0 Th0 2.618576 1_545
C0 Th0 2.618576 1_455
C0 Th0 2.618576 1_445
N0 Th0 2.587607 1_555
N0 Th0 2.587607 1_556
