# generated using pymatgen
data_Li7Mn4CoO12
_symmetry_space_group_name_H-M   'P 1'
_cell_length_a   6.68586749
_cell_length_b   8.74847377
_cell_length_c   8.27571008
_cell_angle_alpha   103.10989710
_cell_angle_beta   71.65945708
_cell_angle_gamma   80.64174566
_symmetry_Int_Tables_number   1
_chemical_formula_structural   Li7Mn4CoO12
_chemical_formula_sum   'Li14 Mn8 Co2 O24'
_cell_volume   432.92201207
_cell_formula_units_Z   2
loop_
 _symmetry_equiv_pos_site_id
 _symmetry_equiv_pos_as_xyz
  1  'x, y, z'
loop_
 _atom_site_type_symbol
 _atom_site_label
 _atom_site_symmetry_multiplicity
 _atom_site_fract_x
 _atom_site_fract_y
 _atom_site_fract_z
 _atom_site_occupancy
  Li  Li0  1  0.91518700  0.25145700  0.33530000  1
  Li  Li1  1  0.41516100  0.75135300  0.33525000  1
  Li  Li2  1  0.68210700  0.99572000  0.82543200  1
  Li  Li3  1  0.18191100  0.49582500  0.82558000  1
  Li  Li4  1  0.41474000  0.74898900  0.83139500  1
  Li  Li5  1  0.91472600  0.24908700  0.83140100  1
  Li  Li6  1  0.83133300  0.49775400  0.15878600  1
  Li  Li7  1  0.33116600  0.99773900  0.15886600  1
  Li  Li8  1  0.49597100  0.50614100  0.51268900  1
  Li  Li9  1  0.99584600  0.00613300  0.51270200  1
  Li  Li10  1  0.74685700  0.74990400  0.99405800  1
  Li  Li11  1  0.24673400  0.24995000  0.99405600  1
  Li  Li12  1  0.58103700  0.24880900  0.67437600  1
  Li  Li13  1  0.08103200  0.74879000  0.67427400  1
  Mn  Mn0  1  0.99771700  0.00010600  0.99528100  1
  Mn  Mn1  1  0.32963800  0.00087200  0.66802100  1
  Mn  Mn2  1  0.58464400  0.25050100  0.16427000  1
  Mn  Mn3  1  0.75271000  0.75162200  0.50277500  1
  Mn  Mn4  1  0.49776900  0.50003800  0.99524000  1
  Mn  Mn5  1  0.82981300  0.50088400  0.66793500  1
  Mn  Mn6  1  0.08472800  0.75051800  0.16422900  1
  Mn  Mn7  1  0.25280200  0.25174300  0.50289600  1
  Co  Co0  1  0.16931000  0.50001500  0.33644700  1
  Co  Co1  1  0.66928300  0.00003400  0.33652900  1
  O  O0  1  0.50695600  0.48496100  0.22939900  1
  O  O1  1  0.00693400  0.98493000  0.22944000  1
  O  O2  1  0.83066800  0.51430400  0.43138100  1
  O  O3  1  0.33065000  0.01433900  0.43153300  1
  O  O4  1  0.06638800  0.75107600  0.40619300  1
  O  O5  1  0.56650400  0.25111500  0.40622200  1
  O  O6  1  0.77660800  0.74707900  0.25680200  1
  O  O7  1  0.27667800  0.24709100  0.25685800  1
  O  O8  1  0.89495200  0.23697300  0.08950000  1
  O  O9  1  0.39496400  0.73694600  0.08947600  1
  O  O10  1  0.44501500  0.76136800  0.57397200  1
  O  O11  1  0.94524900  0.26138000  0.57395300  1
  O  O12  1  0.68116800  0.98495100  0.57862000  1
  O  O13  1  0.18134600  0.48501700  0.57858600  1
  O  O14  1  0.17749000  0.51407600  0.08312500  1
  O  O15  1  0.67741300  0.01410900  0.08320400  1
  O  O16  1  0.75694500  0.73880600  0.72954400  1
  O  O17  1  0.25695300  0.23894300  0.72961000  1
  O  O18  1  0.56964600  0.26457100  0.93891700  1
  O  O19  1  0.06958500  0.76461800  0.93892200  1
  O  O20  1  0.29739900  0.00513800  0.91465800  1
  O  O21  1  0.79763000  0.50506800  0.91462100  1
  O  O22  1  0.49544000  0.49454000  0.76880600  1
  O  O23  1  0.99519800  0.99461900  0.76887200  1
loop_
_geom_bond_atom_site_label_1
_geom_bond_atom_site_label_2
_geom_bond_distance
_geom_bond_site_symmetry_2
Li0 O11 2.031345 1_555
Li0 O8 2.057679 1_555
Li0 O2 2.168987 1_555
Li0 O1 2.202409 1_645
Li0 O5 2.218374 1_555
Li0 O7 2.288128 1_655
Li1 O10 2.031210 1_555
Li1 O9 2.057469 1_555
Li1 O3 2.170200 1_565
Li1 O0 2.201307 1_555
Li1 O4 2.218813 1_555
Li1 O6 2.288019 1_555
Li2 O23 1.993941 1_555
Li2 O12 2.025308 1_555
Li2 O15 2.092402 1_566
Li2 O16 2.122989 1_555
Li2 O18 2.226622 1_565
Li2 O20 2.424044 1_565
Li3 O22 1.996274 1_555
Li3 O13 2.025931 1_555
Li3 O14 2.091300 1_556
Li3 O17 2.122695 1_555
Li3 O19 2.226043 1_555
Li3 O21 2.421679 1_455
Li4 O22 2.103599 1_555
Li4 O10 2.105122 1_555
Li4 O20 2.121214 1_565
Li4 O9 2.125824 1_556
Li4 O16 2.153848 1_555
Li4 O19 2.164651 1_555
Li5 O23 2.103785 1_545
Li5 O11 2.104750 1_555
Li5 O21 2.119713 1_555
Li5 O8 2.126155 1_556
Li5 O17 2.154036 1_655
Li5 O18 2.164439 1_555
Li6 O6 2.073786 1_555
Li6 O0 2.090092 1_555
Li6 O21 2.116213 1_554
Li6 O8 2.156882 1_555
Li6 O2 2.226085 1_555
Li6 O14 2.237134 1_655
Li7 O7 2.074174 1_565
Li7 O1 2.089214 1_555
Li7 O20 2.116910 1_564
Li7 O9 2.156883 1_555
Li7 O3 2.226934 1_565
Li7 O15 2.237833 1_565
Li8 O13 2.051010 1_555
Li8 O5 2.116848 1_555
Li8 O10 2.118738 1_555
Li8 O2 2.142783 1_555
Li8 O22 2.143775 1_555
Li8 O0 2.286091 1_555
Li9 O12 2.051504 1_545
Li9 O4 2.117131 1_645
Li9 O11 2.119129 1_555
Li9 O3 2.143575 1_655
Li9 O23 2.143770 1_545
Li9 O1 2.285619 1_645
Li10 O21 2.029689 1_555
Li10 O19 2.092339 1_655
Li10 O16 2.148119 1_555
Li10 O15 2.182713 1_566
Li10 O6 2.250141 1_556
Li10 O9 2.264909 1_556
Li11 O20 2.029555 1_555
Li11 O18 2.093307 1_555
Li11 O17 2.147450 1_555
Li11 O14 2.182127 1_556
Li11 O7 2.251188 1_556
Li11 O8 2.264270 1_456
Li12 O22 2.028808 1_555
Li12 O17 2.089676 1_555
Li12 O18 2.138318 1_555
Li12 O12 2.176786 1_545
Li12 O5 2.256083 1_555
Li12 O11 2.342504 1_555
Li13 O23 2.029663 1_455
Li13 O16 2.089935 1_455
Li13 O19 2.138990 1_555
Li13 O13 2.176106 1_555
Li13 O4 2.255701 1_555
Li13 O10 2.341052 1_555
Mn0 O23 1.868861 1_545
Mn0 O20 1.913727 1_655
Mn0 O19 1.947772 1_645
Mn0 O8 1.959848 1_556
Mn0 O1 1.991437 1_646
Mn0 O15 2.006023 1_556
Mn1 O17 1.966524 1_555
Mn1 O20 1.974812 1_555
Mn1 O3 1.985124 1_555
Mn1 O10 1.986908 1_545
Mn1 O23 2.141354 1_445
Mn1 O12 2.200702 1_545
Mn2 O18 1.929010 1_554
Mn2 O0 1.934785 1_555
Mn2 O8 1.944274 1_555
Mn2 O15 1.950199 1_555
Mn2 O7 1.965967 1_555
Mn2 O5 1.966246 1_555
Mn3 O16 1.913933 1_555
Mn3 O12 1.924021 1_555
Mn3 O10 1.934912 1_555
Mn3 O2 1.956793 1_555
Mn3 O6 1.981749 1_555
Mn3 O4 1.994305 1_655
Mn4 O22 1.868632 1_555
Mn4 O21 1.914848 1_555
Mn4 O18 1.947619 1_555
Mn4 O9 1.960195 1_556
Mn4 O0 1.991127 1_556
Mn4 O14 2.005801 1_556
Mn5 O16 1.965255 1_555
Mn5 O21 1.975465 1_555
Mn5 O2 1.985865 1_555
Mn5 O11 1.986929 1_555
Mn5 O22 2.141176 1_555
Mn5 O13 2.200815 1_655
Mn6 O19 1.929038 1_554
Mn6 O1 1.934359 1_555
Mn6 O9 1.943746 1_555
Mn6 O14 1.950606 1_555
Mn6 O4 1.966115 1_555
Mn6 O6 1.966983 1_455
Mn7 O17 1.913264 1_555
Mn7 O13 1.923571 1_555
Mn7 O11 1.934236 1_455
Mn7 O3 1.957514 1_555
Mn7 O7 1.982106 1_555
Mn7 O5 1.994321 1_555
Co0 O13 2.063133 1_555
Co0 O4 2.077079 1_555
Co0 O7 2.090434 1_555
Co0 O14 2.111899 1_555
Co0 O0 2.118980 1_555
Co0 O2 2.122037 1_455
Co1 O12 2.062606 1_545
Co1 O5 2.077204 1_555
Co1 O6 2.090628 1_545
Co1 O15 2.112052 1_555
Co1 O1 2.118944 1_645
Co1 O3 2.121965 1_555
