# generated using pymatgen
data_LaMnO3
_symmetry_space_group_name_H-M   'P 1'
_cell_length_a   5.54486496
_cell_length_b   7.98485282
_cell_length_c   5.65231817
_cell_angle_alpha   89.38115012
_cell_angle_beta   90.04509009
_cell_angle_gamma   91.49769421
_symmetry_Int_Tables_number   1
_chemical_formula_structural   LaMnO3
_chemical_formula_sum   'La4 Mn4 O12'
_cell_volume   250.15587732
_cell_formula_units_Z   4
loop_
 _symmetry_equiv_pos_site_id
 _symmetry_equiv_pos_as_xyz
  1  'x, y, z'
loop_
 _atom_site_type_symbol
 _atom_site_label
 _atom_site_symmetry_multiplicity
 _atom_site_fract_x
 _atom_site_fract_y
 _atom_site_fract_z
 _atom_site_occupancy
  La  La0  1  0.49863000  0.75005000  0.00376600  1
  La  La1  1  0.99667900  0.25009400  0.49416900  1
  La  La2  1  0.50131600  0.24997900  0.99624600  1
  La  La3  1  0.00329000  0.74991000  0.50588400  1
  Mn  Mn0  1  0.50014900  0.99997500  0.49991300  1
  Mn  Mn1  1  0.50002400  0.49998900  0.50000400  1
  Mn  Mn2  1  0.00009100  0.49988100  0.99993900  1
  Mn  Mn3  1  0.00010700  0.00012000  0.99987400  1
  O  O0  1  0.78538300  0.46595600  0.69487900  1
  O  O1  1  0.30283100  0.95905600  0.22331500  1
  O  O2  1  0.99678900  0.25869800  0.06442300  1
  O  O3  1  0.49555300  0.76261000  0.58058100  1
  O  O4  1  0.69883900  0.53634300  0.21750900  1
  O  O5  1  0.21671300  0.03404700  0.69115200  1
  O  O6  1  0.21458800  0.53403100  0.30515900  1
  O  O7  1  0.69708500  0.04094600  0.77674200  1
  O  O8  1  0.30110900  0.46365200  0.78251100  1
  O  O9  1  0.78325600  0.96595200  0.30887300  1
  O  O10  1  0.00318000  0.74132100  0.93559300  1
  O  O11  1  0.50438700  0.23738900  0.41947000  1
loop_
_geom_bond_atom_site_label_1
_geom_bond_atom_site_label_2
_geom_bond_distance
_geom_bond_site_symmetry_2
La0 O1 2.376009 1_555
La0 O4 2.378287 1_555
La0 O3 2.393061 1_554
La0 O10 2.772972 1_554
La0 O8 2.814586 1_554
La0 O10 2.827140 1_654
La0 O7 2.838481 1_564
La0 O6 2.855984 1_555
La0 O9 2.890428 1_555
La1 O5 2.402208 1_655
La1 O0 2.404264 1_555
La1 O2 2.429291 1_555
La1 O6 2.747358 1_655
La1 O9 2.748457 1_545
La1 O11 2.761235 1_555
La1 O7 2.810895 1_555
La1 O11 2.851576 1_655
La1 O8 2.884219 1_655
La2 O7 2.375951 1_555
La2 O8 2.378062 1_555
La2 O11 2.393289 1_556
La2 O2 2.773101 1_556
La2 O4 2.814391 1_556
La2 O2 2.827013 1_456
La2 O1 2.838828 1_546
La2 O0 2.855776 1_555
La2 O5 2.890457 1_555
La3 O9 2.402251 1_455
La3 O6 2.404410 1_555
La3 O10 2.429080 1_555
La3 O0 2.747431 1_455
La3 O5 2.748362 1_565
La3 O3 2.761074 1_555
La3 O1 2.810704 1_555
La3 O3 2.851730 1_455
La3 O4 2.884433 1_455
Mn0 O9 1.932706 1_555
Mn0 O7 1.933265 1_565
Mn0 O1 1.933326 1_555
Mn0 O5 1.934891 1_565
Mn0 O3 1.944127 1_555
Mn0 O11 1.944248 1_565
Mn1 O0 1.950387 1_555
Mn1 O6 1.950650 1_555
Mn1 O4 1.955812 1_555
Mn1 O8 1.956161 1_555
Mn1 O11 2.151220 1_555
Mn1 O3 2.151460 1_555
Mn2 O2 1.955744 1_456
Mn2 O10 1.957643 1_555
Mn2 O8 2.101455 1_555
Mn2 O4 2.103269 1_456
Mn2 O0 2.110434 1_455
Mn2 O6 2.110740 1_556
Mn3 O2 2.101128 1_456
Mn3 O10 2.102541 1_545
Mn3 O7 2.129899 1_455
Mn3 O1 2.129940 1_546
Mn3 O5 2.130023 1_555
Mn3 O9 2.132267 1_446
