# generated using pymatgen
data_Li9Mn2Co5O16
_symmetry_space_group_name_H-M   'P 1'
_cell_length_a   5.93419600
_cell_length_b   6.44824556
_cell_length_c   7.87921425
_cell_angle_alpha   88.65578414
_cell_angle_beta   103.86166196
_cell_angle_gamma   104.86146508
_symmetry_Int_Tables_number   1
_chemical_formula_structural   Li9Mn2Co5O16
_chemical_formula_sum   'Li9 Mn2 Co5 O16'
_cell_volume   282.69504916
_cell_formula_units_Z   1
loop_
 _symmetry_equiv_pos_site_id
 _symmetry_equiv_pos_as_xyz
  1  'x, y, z'
loop_
 _atom_site_type_symbol
 _atom_site_label
 _atom_site_symmetry_multiplicity
 _atom_site_fract_x
 _atom_site_fract_y
 _atom_site_fract_z
 _atom_site_occupancy
  Li  Li0  1  0.12636500  0.61905000  0.87077000  1
  Li  Li1  1  0.74643000  0.24787600  0.74769700  1
  Li  Li2  1  0.00823700  0.49234900  0.50367200  1
  Li  Li3  1  0.62128400  0.12622500  0.37968600  1
  Li  Li4  1  0.87749000  0.37662800  0.12364700  1
  Li  Li5  1  0.49706300  0.01167900  0.99200300  1
  Li  Li6  1  0.37436900  0.87958300  0.62321500  1
  Li  Li7  1  0.24912200  0.74817800  0.25601500  1
  Li  Li8  1  0.24813300  0.25120500  0.74775300  1
  Mn  Mn0  1  0.00538500  0.00116100  0.99799000  1
  Mn  Mn1  1  0.61858700  0.62038000  0.87341500  1
  Co  Co0  1  0.87234600  0.88035700  0.62514300  1
  Co  Co1  1  0.49035000  0.49831600  0.50408700  1
  Co  Co2  1  0.12332600  0.12653700  0.38225200  1
  Co  Co3  1  0.75490700  0.74783800  0.25091500  1
  Co  Co4  1  0.38068400  0.37135800  0.12028300  1
  O  O0  1  0.92972900  0.69911800  0.05111400  1
  O  O1  1  0.56892600  0.33160200  0.93315400  1
  O  O2  1  0.78323500  0.57886600  0.69191300  1
  O  O3  1  0.42463500  0.19877500  0.54548600  1
  O  O4  1  0.67403100  0.45057700  0.30083000  1
  O  O5  1  0.30617700  0.06909300  0.17183100  1
  O  O6  1  0.15076700  0.94118000  0.81882800  1
  O  O7  1  0.05273700  0.82062600  0.42879900  1
  O  O8  1  0.32932000  0.57208200  0.69852100  1
  O  O9  1  0.93084200  0.16716400  0.56120500  1
  O  O10  1  0.20034600  0.42449700  0.32380400  1
  O  O11  1  0.84184600  0.04439600  0.18700700  1
  O  O12  1  0.07675300  0.30223400  0.95738000  1
  O  O13  1  0.69582500  0.93191100  0.83109100  1
  O  O14  1  0.57707300  0.79756500  0.44193000  1
  O  O15  1  0.46368600  0.67159000  0.05856300  1
loop_
_geom_bond_atom_site_label_1
_geom_bond_atom_site_label_2
_geom_bond_distance
_geom_bond_site_symmetry_2
Li0 O6 2.082626 1_555
Li0 O8 2.091364 1_555
Li0 O12 2.109070 1_555
Li0 O15 2.137179 1_556
Li0 O2 2.137939 1_455
Li0 O0 2.187525 1_456
Li1 O13 2.095447 1_545
Li1 O3 2.130958 1_555
Li1 O2 2.135185 1_555
Li1 O1 2.145350 1_555
Li1 O9 2.173970 1_555
Li1 O12 2.194942 1_655
Li2 O9 2.091520 1_455
Li2 O8 2.093958 1_555
Li2 O10 2.135103 1_555
Li2 O7 2.151270 1_555
Li2 O4 2.188049 1_455
Li2 O2 2.379852 1_455
Li3 O9 1.999949 1_555
Li3 O3 2.080007 1_555
Li3 O5 2.126501 1_555
Li3 O14 2.127999 1_545
Li3 O4 2.134196 1_555
Li3 O11 2.374931 1_555
Li4 O1 2.029977 1_554
Li4 O12 2.099359 1_654
Li4 O0 2.108427 1_555
Li4 O10 2.127158 1_655
Li4 O11 2.156722 1_555
Li4 O4 2.183645 1_555
Li5 O1 2.061840 1_555
Li5 O13 2.078845 1_545
Li5 O5 2.106322 1_556
Li5 O6 2.120799 1_545
Li5 O11 2.208827 1_556
Li5 O15 2.212786 1_546
Li6 O8 2.025855 1_555
Li6 O7 2.094786 1_555
Li6 O3 2.100911 1_565
Li6 O13 2.152697 1_555
Li6 O14 2.225303 1_555
Li6 O6 2.360712 1_555
Li7 O14 2.091084 1_555
Li7 O10 2.106477 1_555
Li7 O7 2.121110 1_555
Li7 O5 2.126165 1_565
Li7 O0 2.132854 1_455
Li7 O15 2.365012 1_555
Li8 O6 2.038120 1_545
Li8 O9 2.046266 1_455
Li8 O8 2.050433 1_555
Li8 O1 2.055099 1_555
Li8 O3 2.181281 1_555
Li8 O12 2.207420 1_555
Mn0 O12 1.914361 1_555
Mn0 O6 1.914939 1_545
Mn0 O5 1.926056 1_556
Mn0 O13 1.937140 1_445
Mn0 O0 1.942512 1_446
Mn0 O11 2.021974 1_456
Mn1 O1 1.876089 1_555
Mn1 O8 1.885477 1_555
Mn1 O2 1.973094 1_555
Mn1 O15 1.975599 1_556
Mn1 O13 1.981460 1_555
Mn1 O0 1.985202 1_556
Co0 O9 1.872258 1_565
Co0 O6 1.923557 1_655
Co0 O14 1.945112 1_555
Co0 O2 1.973285 1_555
Co0 O7 2.172684 1_655
Co0 O13 2.204401 1_555
Co1 O3 1.906366 1_555
Co1 O10 1.909498 1_555
Co1 O14 1.948128 1_555
Co1 O2 1.954800 1_555
Co1 O8 2.110731 1_555
Co1 O4 2.208928 1_555
Co2 O3 1.888697 1_555
Co2 O10 1.929075 1_555
Co2 O11 1.946889 1_455
Co2 O7 1.953687 1_545
Co2 O9 2.074609 1_455
Co2 O5 2.271648 1_555
Co3 O4 1.908496 1_555
Co3 O7 1.930488 1_655
Co3 O11 1.936429 1_565
Co3 O15 1.967074 1_555
Co3 O14 2.106871 1_555
Co3 O0 2.150870 1_555
Co4 O12 1.898503 1_554
Co4 O4 1.925183 1_555
Co4 O5 1.940672 1_555
Co4 O15 1.951546 1_555
Co4 O1 2.107442 1_554
Co4 O10 2.206876 1_555
