# generated using pymatgen
data_HfU3Sb5
_symmetry_space_group_name_H-M   'P 1'
_cell_length_a   9.32457437
_cell_length_b   9.32541991
_cell_length_c   6.25658930
_cell_angle_alpha   89.57792551
_cell_angle_beta   90.21480202
_cell_angle_gamma   119.99605017
_symmetry_Int_Tables_number   1
_chemical_formula_structural   HfU3Sb5
_chemical_formula_sum   'Hf2 U6 Sb10'
_cell_volume   471.16301439
_cell_formula_units_Z   2
loop_
 _symmetry_equiv_pos_site_id
 _symmetry_equiv_pos_as_xyz
  1  'x, y, z'
loop_
 _atom_site_type_symbol
 _atom_site_label
 _atom_site_symmetry_multiplicity
 _atom_site_fract_x
 _atom_site_fract_y
 _atom_site_fract_z
 _atom_site_occupancy
  Hf  Hf0  1  -0.00001874  0.00000137  0.50000109  1
  Hf  Hf1  1  -0.00001301  0.00000489  -0.00000013  1
  U  U0  1  0.38632441  0.00023129  0.74526272  1
  U  U1  1  0.38655571  0.38626166  0.25447097  1
  U  U2  1  0.00006556  0.61394813  0.24481742  1
  U  U3  1  -0.00003257  0.38606198  0.75519215  1
  U  U4  1  0.61347321  0.61375611  0.74552268  1
  U  U5  1  0.61367334  0.99973924  0.25475811  1
  Sb  Sb0  1  0.33164133  0.66577699  0.50000463  1
  Sb  Sb1  1  0.66553853  0.33268655  0.00000079  1
  Sb  Sb2  1  0.66834427  0.33424489  0.49999527  1
  Sb  Sb3  1  0.33446227  0.66730436  -0.00002685  1
  Sb  Sb4  1  0.73405655  -0.00025491  0.74889634  1
  Sb  Sb5  1  0.73405406  0.73421708  0.25123338  1
  Sb  Sb6  1  0.00008096  0.26578380  0.24814892  1
  Sb  Sb7  1  -0.00005898  0.73424680  0.75185598  1
  Sb  Sb8  1  0.26588355  0.00022235  0.25110057  1
  Sb  Sb9  1  0.26596855  0.26576642  0.74876696  1
loop_
_geom_bond_atom_site_label_1
_geom_bond_atom_site_label_2
_geom_bond_distance
_geom_bond_site_symmetry_2
Hf0 Sb6 2.926813 1_555
Hf0 Sb7 2.926837 1_545
Hf0 Sb8 2.931968 1_555
Hf0 Sb4 2.931987 1_455
Hf0 Sb5 2.932079 1_445
Hf0 Sb9 2.932232 1_555
Hf1 Sb8 2.929377 1_555
Hf1 Sb4 2.929488 1_454
Hf1 Sb5 2.930783 1_445
Hf1 Sb9 2.930872 1_554
Hf1 Sb6 2.933929 1_555
Hf1 Sb7 2.933936 1_544
Sb0 Sb3 3.128187 1_556
Sb0 Sb3 3.128568 1_555
Sb0 U4 3.276372 1_555
Sb0 U5 3.277218 1_555
Sb0 U1 3.288757 1_555
Sb0 U0 3.288895 1_565
Sb0 U2 3.289707 1_555
Sb0 U3 3.290518 1_555
Sb1 Sb2 3.128351 1_555
Sb1 Sb2 3.128403 1_554
Sb1 U3 3.284936 1_654
Sb1 U2 3.286117 1_655
Sb1 U4 3.293309 1_554
Sb1 U5 3.293349 1_545
Sb1 U1 3.300607 1_555
Sb1 U0 3.301715 1_554
Sb2 U1 3.276016 1_555
Sb2 U0 3.277503 1_555
Sb2 U4 3.288481 1_555
Sb2 U5 3.289288 1_545
Sb2 U3 3.290153 1_655
Sb2 U2 3.290695 1_655
Sb3 U2 3.284836 1_555
Sb3 U3 3.285790 1_554
Sb3 U0 3.293054 1_564
Sb3 U1 3.293293 1_555
Sb3 U4 3.300636 1_554
Sb3 U5 3.301744 1_555
Sb4 U4 3.189881 1_545
Sb4 U3 3.193404 1_655
Sb4 U0 3.244718 1_555
Sb4 U5 3.285132 1_545
Sb4 U5 3.362092 1_546
Sb5 U5 3.189306 1_555
Sb5 U2 3.192984 1_655
Sb5 U1 3.242738 1_555
Sb5 U4 3.286648 1_555
Sb5 U4 3.361539 1_554
Sb6 U5 3.193852 1_445
Sb6 U1 3.194034 1_555
Sb6 U2 3.246764 1_555
Sb6 U3 3.274255 1_554
Sb6 U3 3.372773 1_555
Sb7 U0 3.193564 1_565
Sb7 U4 3.193947 1_455
Sb7 U3 3.247006 1_555
Sb7 U2 3.274364 1_556
Sb7 U2 3.372828 1_555
Sb8 U1 3.190152 1_555
Sb8 U2 3.192924 1_545
Sb8 U5 3.245241 1_545
Sb8 U0 3.285449 1_555
Sb8 U0 3.362127 1_554
Sb9 U0 3.189248 1_555
Sb9 U3 3.193077 1_555
Sb9 U4 3.242928 1_555
Sb9 U1 3.286750 1_555
Sb9 U1 3.361565 1_556
