# generated using pymatgen
data_Mg2IrWO6
_symmetry_space_group_name_H-M   'P 1'
_cell_length_a   5.37662900
_cell_length_b   5.26618500
_cell_length_c   9.26889505
_cell_angle_alpha   55.70732388
_cell_angle_beta   90.00000000
_cell_angle_gamma   90.00000000
_symmetry_Int_Tables_number   1
_chemical_formula_structural   Mg2IrWO6
_chemical_formula_sum   'Mg4 Ir2 W2 O12'
_cell_volume   216.82219476
_cell_formula_units_Z   2
loop_
 _symmetry_equiv_pos_site_id
 _symmetry_equiv_pos_as_xyz
  1  'x, y, z'
loop_
 _atom_site_type_symbol
 _atom_site_label
 _atom_site_symmetry_multiplicity
 _atom_site_fract_x
 _atom_site_fract_y
 _atom_site_fract_z
 _atom_site_occupancy
  Mg  Mg0  1  0.95946100  0.26501000  0.74176100  1
  Mg  Mg1  1  0.45946100  0.73499000  0.75823900  1
  Mg  Mg2  1  0.54053900  0.26501000  0.24176100  1
  Mg  Mg3  1  0.04053900  0.73499000  0.25823900  1
  Ir  Ir0  1  0.50000000  0.50000000  0.50000000  1
  Ir  Ir1  1  0.00000000  0.50000000  0.00000000  1
  W  W0  1  0.50000000  0.00000000  0.00000000  1
  W  W1  1  0.00000000  0.00000000  0.50000000  1
  O  O0  1  0.40882200  0.62635400  0.24660100  1
  O  O1  1  0.18186500  0.90918300  0.92093700  1
  O  O2  1  0.17087600  0.26412000  0.55627300  1
  O  O3  1  0.67087600  0.73588000  0.94372700  1
  O  O4  1  0.68186500  0.09081700  0.57906300  1
  O  O5  1  0.90882200  0.37364600  0.25339900  1
  O  O6  1  0.09117800  0.62635400  0.74660100  1
  O  O7  1  0.31813500  0.90918300  0.42093700  1
  O  O8  1  0.32912400  0.26412000  0.05627300  1
  O  O9  1  0.81813500  0.09081700  0.07906300  1
  O  O10  1  0.82912400  0.73588000  0.44372700  1
  O  O11  1  0.59117800  0.37364600  0.75339900  1
loop_
_geom_bond_atom_site_label_1
_geom_bond_atom_site_label_2
_geom_bond_distance
_geom_bond_site_symmetry_2
Mg0 O1 2.047583 1_645
Mg0 O6 2.054456 1_655
Mg0 O2 2.063268 1_655
Mg0 O11 2.080709 1_555
Mg1 O4 2.047583 1_565
Mg1 O11 2.054456 1_555
Mg1 O3 2.063268 1_555
Mg1 O6 2.080709 1_555
Mg2 O7 2.047583 1_545
Mg2 O0 2.054456 1_555
Mg2 O8 2.063268 1_555
Mg2 O5 2.080709 1_555
Mg3 O9 2.047583 1_465
Mg3 O5 2.054456 1_455
Mg3 O10 2.063268 1_455
Mg3 O0 2.080709 1_555
Ir0 O2 2.053387 1_555
Ir0 O10 2.053387 1_555
Ir0 O7 2.087357 1_555
Ir0 O4 2.087357 1_555
Ir0 O11 2.106781 1_555
Ir0 O0 2.106781 1_555
Ir1 O3 2.053387 1_454
Ir1 O8 2.053387 1_555
Ir1 O1 2.087357 1_554
Ir1 O9 2.087357 1_455
Ir1 O5 2.106781 1_455
Ir1 O6 2.106781 1_554
O0 W0 2.066053 1_565
O1 W0 2.021507 1_566
O2 W1 1.966786 1_555
O3 W0 1.966786 1_566
O4 W1 2.021507 1_655
O5 W1 2.066053 1_655
O6 W1 2.066053 1_565
O7 W1 2.021507 1_565
O8 W0 1.966786 1_555
O9 W0 2.021507 1_555
O10 W1 1.966786 1_665
O11 W0 2.066053 1_556
