# generated using pymatgen
data_CaW3O7
_symmetry_space_group_name_H-M   'P 1'
_cell_length_a   5.35645400
_cell_length_b   10.18767700
_cell_length_c   10.64195700
_cell_angle_alpha   90.00000000
_cell_angle_beta   90.00000000
_cell_angle_gamma   90.00000000
_symmetry_Int_Tables_number   1
_chemical_formula_structural   CaW3O7
_chemical_formula_sum   'Ca4 W12 O28'
_cell_volume   580.72971218
_cell_formula_units_Z   4
loop_
 _symmetry_equiv_pos_site_id
 _symmetry_equiv_pos_as_xyz
  1  'x, y, z'
loop_
 _atom_site_type_symbol
 _atom_site_label
 _atom_site_symmetry_multiplicity
 _atom_site_fract_x
 _atom_site_fract_y
 _atom_site_fract_z
 _atom_site_occupancy
  Ca  Ca0  1  0.33691200  0.13685900  0.25000000  1
  Ca  Ca1  1  0.83691200  0.36314100  0.75000000  1
  Ca  Ca2  1  0.66308800  0.86314100  0.75000000  1
  Ca  Ca3  1  0.16308800  0.63685900  0.25000000  1
  W  W0  1  0.62208600  0.64291700  0.01590500  1
  W  W1  1  0.12208600  0.85708300  0.98409500  1
  W  W2  1  0.37791400  0.35708300  0.51590500  1
  W  W3  1  0.87791400  0.14291700  0.48409500  1
  W  W4  1  0.65686200  0.85339400  0.25000000  1
  W  W5  1  0.15686200  0.64660600  0.75000000  1
  W  W6  1  0.34313800  0.14660600  0.75000000  1
  W  W7  1  0.84313800  0.35339400  0.25000000  1
  W  W8  1  0.12208600  0.85708300  0.51590500  1
  W  W9  1  0.62208600  0.64291700  0.48409500  1
  W  W10  1  0.87791400  0.14291700  0.01590500  1
  W  W11  1  0.37791400  0.35708300  0.98409500  1
  O  O0  1  0.11104100  0.23421400  0.88510500  1
  O  O1  1  0.61104100  0.26578600  0.11489500  1
  O  O2  1  0.88895900  0.76578600  0.38510500  1
  O  O3  1  0.38895900  0.73421400  0.61489500  1
  O  O4  1  0.88895900  0.76578600  0.11489500  1
  O  O5  1  0.38895900  0.73421400  0.88510500  1
  O  O6  1  0.11104100  0.23421400  0.61489500  1
  O  O7  1  0.61104100  0.26578600  0.38510500  1
  O  O8  1  0.59085900  0.20949600  0.88186700  1
  O  O9  1  0.09085900  0.29050400  0.11813300  1
  O  O10  1  0.40914100  0.79050400  0.38186700  1
  O  O11  1  0.90914100  0.70949600  0.61813300  1
  O  O12  1  0.40914100  0.79050400  0.11813300  1
  O  O13  1  0.90914100  0.70949600  0.88186700  1
  O  O14  1  0.59085900  0.20949600  0.61813300  1
  O  O15  1  0.09085900  0.29050400  0.38186700  1
  O  O16  1  0.75425200  0.53796100  0.25000000  1
  O  O17  1  0.25425200  0.96203900  0.75000000  1
  O  O18  1  0.24574800  0.46203900  0.75000000  1
  O  O19  1  0.74574800  0.03796100  0.25000000  1
  O  O20  1  0.81477700  0.96700000  0.56933900  1
  O  O21  1  0.31477700  0.53300000  0.43066100  1
  O  O22  1  0.18522300  0.03300000  0.06933900  1
  O  O23  1  0.68522300  0.46700000  0.93066100  1
  O  O24  1  0.18522300  0.03300000  0.43066100  1
  O  O25  1  0.68522300  0.46700000  0.56933900  1
  O  O26  1  0.81477700  0.96700000  0.93066100  1
  O  O27  1  0.31477700  0.53300000  0.06933900  1
loop_
_geom_bond_atom_site_label_1
_geom_bond_atom_site_label_2
_geom_bond_distance
_geom_bond_site_symmetry_2
Ca0 O22 2.340098 1_555
Ca0 O24 2.340098 1_555
Ca0 O19 2.410570 1_555
Ca0 O7 2.438953 1_555
Ca0 O1 2.438953 1_555
Ca0 O9 2.481226 1_555
Ca0 O15 2.481226 1_555
Ca1 O25 2.340098 1_555
Ca1 O23 2.340098 1_555
Ca1 O18 2.410570 1_655
Ca1 O6 2.438953 1_655
Ca1 O0 2.438953 1_655
Ca1 O8 2.481226 1_555
Ca1 O14 2.481226 1_555
Ca2 O20 2.340098 1_555
Ca2 O26 2.340098 1_555
Ca2 O17 2.410570 1_555
Ca2 O3 2.438953 1_555
Ca2 O5 2.438953 1_555
Ca2 O13 2.481226 1_555
Ca2 O11 2.481226 1_555
Ca3 O27 2.340098 1_555
Ca3 O21 2.340098 1_555
Ca3 O16 2.410570 1_455
Ca3 O2 2.438953 1_455
Ca3 O4 2.438953 1_455
Ca3 O12 2.481226 1_555
Ca3 O10 2.481226 1_555
O0 W10 2.088542 1_456
O0 W6 2.099857 1_555
O0 W11 2.172574 1_555
O1 W11 2.088542 1_554
O1 W7 2.099857 1_555
O1 W10 2.172574 1_555
O2 W8 2.088542 1_655
O2 W4 2.099857 1_555
O2 W9 2.172574 1_555
O3 W9 2.088542 1_555
O3 W5 2.099857 1_555
O3 W8 2.172574 1_555
O4 W1 2.088542 1_654
O4 W4 2.099857 1_555
O4 W0 2.172574 1_555
O5 W0 2.088542 1_556
O5 W5 2.099857 1_555
O5 W1 2.172574 1_555
O6 W3 2.088542 1_455
O6 W6 2.099857 1_555
O6 W2 2.172574 1_555
O7 W2 2.088542 1_555
O7 W7 2.099857 1_555
O7 W3 2.172574 1_555
O8 W6 2.034821 1_555
O8 W11 2.178370 1_555
O8 W10 2.204307 1_556
O9 W7 2.034821 1_455
O9 W10 2.178370 1_455
O9 W11 2.204307 1_554
O10 W4 2.034821 1_555
O10 W9 2.178370 1_555
O10 W8 2.204307 1_555
O11 W5 2.034821 1_655
O11 W8 2.178370 1_655
O11 W9 2.204307 1_555
O12 W4 2.034821 1_555
O12 W0 2.178370 1_555
O12 W1 2.204307 1_554
O13 W5 2.034821 1_655
O13 W1 2.178370 1_655
O13 W0 2.204307 1_556
O14 W6 2.034821 1_555
O14 W2 2.178370 1_555
O14 W3 2.204307 1_555
O15 W7 2.034821 1_455
O15 W3 2.178370 1_455
O15 W2 2.204307 1_555
O16 W7 1.939651 1_555
O16 W9 2.801913 1_555
O16 W0 2.801913 1_555
O17 W6 1.939651 1_565
O17 W8 2.801913 1_555
O17 W1 2.801913 1_555
O18 W5 1.939651 1_555
O18 W2 2.801913 1_555
O18 W11 2.801913 1_555
O19 W4 1.939651 1_545
O19 W3 2.801913 1_555
O19 W10 2.801913 1_555
O20 W3 2.036970 1_565
O20 W8 2.070484 1_655
O21 W2 2.036970 1_555
O21 W9 2.070484 1_555
O22 W1 2.036970 1_544
O22 W10 2.070484 1_455
O23 W0 2.036970 1_556
O23 W11 2.070484 1_555
O24 W8 2.036970 1_545
O24 W3 2.070484 1_455
O25 W9 2.036970 1_555
O25 W2 2.070484 1_555
O26 W10 2.036970 1_566
O26 W1 2.070484 1_655
O27 W11 2.036970 1_554
O27 W0 2.070484 1_555
