# generated using pymatgen
data_Ca4Al6SO16
_symmetry_space_group_name_H-M   'P 1'
_cell_length_a   9.25465600
_cell_length_b   13.09727500
_cell_length_c   13.26663000
_cell_angle_alpha   90.00000000
_cell_angle_beta   90.00000000
_cell_angle_gamma   90.00000000
_symmetry_Int_Tables_number   1
_chemical_formula_structural   Ca4Al6SO16
_chemical_formula_sum   'Ca16 Al24 S4 O64'
_cell_volume   1608.05849946
_cell_formula_units_Z   4
loop_
 _symmetry_equiv_pos_site_id
 _symmetry_equiv_pos_as_xyz
  1  'x, y, z'
loop_
 _atom_site_type_symbol
 _atom_site_label
 _atom_site_symmetry_multiplicity
 _atom_site_fract_x
 _atom_site_fract_y
 _atom_site_fract_z
 _atom_site_occupancy
  Ca  Ca0  1  0.65195400  0.94318100  0.24922900  1
  Ca  Ca1  1  0.65195400  0.05681900  0.75077100  1
  Ca  Ca2  1  0.15195400  0.94318100  0.75077100  1
  Ca  Ca3  1  0.15195400  0.05681900  0.24922900  1
  Ca  Ca4  1  0.79249800  0.74661900  0.93557900  1
  Ca  Ca5  1  0.79249800  0.25338100  0.06442100  1
  Ca  Ca6  1  0.29249800  0.74661900  0.06442100  1
  Ca  Ca7  1  0.29249800  0.25338100  0.93557900  1
  Ca  Ca8  1  0.73977000  0.74170400  0.52432000  1
  Ca  Ca9  1  0.73977000  0.25829600  0.47568000  1
  Ca  Ca10  1  0.23977000  0.74170400  0.47568000  1
  Ca  Ca11  1  0.23977000  0.25829600  0.52432000  1
  Ca  Ca12  1  0.71898900  0.50912000  0.25404000  1
  Ca  Ca13  1  0.71898900  0.49088000  0.74596000  1
  Ca  Ca14  1  0.21898900  0.50912000  0.74596000  1
  Ca  Ca15  1  0.21898900  0.49088000  0.25404000  1
  Al  Al0  1  0.72894900  0.50000000  0.50000000  1
  Al  Al1  1  0.22894900  0.50000000  0.50000000  1
  Al  Al2  1  0.74511100  0.50000000  0.00000000  1
  Al  Al3  1  0.24511100  0.50000000  0.00000000  1
  Al  Al4  1  0.72429200  0.00000000  0.00000000  1
  Al  Al5  1  0.22429200  0.00000000  0.00000000  1
  Al  Al6  1  0.69931700  0.00000000  0.50000000  1
  Al  Al7  1  0.19931700  0.00000000  0.50000000  1
  Al  Al8  1  0.49154500  0.37316300  0.12095700  1
  Al  Al9  1  0.49154500  0.62683700  0.87904300  1
  Al  Al10  1  0.99154500  0.37316300  0.87904300  1
  Al  Al11  1  0.99154500  0.62683700  0.12095700  1
  Al  Al12  1  0.45221300  0.88028100  0.63014400  1
  Al  Al13  1  0.45221300  0.11971900  0.36985600  1
  Al  Al14  1  0.95221300  0.88028100  0.36985600  1
  Al  Al15  1  0.95221300  0.11971900  0.63014400  1
  Al  Al16  1  0.47722300  0.62961400  0.63125400  1
  Al  Al17  1  0.47722300  0.37038600  0.36874600  1
  Al  Al18  1  0.97722300  0.62961400  0.36874600  1
  Al  Al19  1  0.97722300  0.37038600  0.63125400  1
  Al  Al20  1  0.47223200  0.87761600  0.87828900  1
  Al  Al21  1  0.47223200  0.12238400  0.12171100  1
  Al  Al22  1  0.97223200  0.87761600  0.12171100  1
  Al  Al23  1  0.97223200  0.12238400  0.87828900  1
  S  S0  1  0.47008700  0.72311400  0.26561400  1
  S  S1  1  0.47008700  0.27688600  0.73438600  1
  S  S2  1  0.97008700  0.72311400  0.73438600  1
  S  S3  1  0.97008700  0.27688600  0.26561400  1
  O  O0  1  0.11042400  0.33025000  0.26514400  1
  O  O1  1  0.11042400  0.66975000  0.73485600  1
  O  O2  1  0.61042400  0.33025000  0.73485600  1
  O  O3  1  0.61042400  0.66975000  0.26514400  1
  O  O4  1  0.97819700  0.18521300  0.19677200  1
  O  O5  1  0.97819700  0.81478700  0.80322800  1
  O  O6  1  0.47819700  0.18521300  0.80322800  1
  O  O7  1  0.47819700  0.81478700  0.19677200  1
  O  O8  1  0.93697500  0.24195000  0.36973000  1
  O  O9  1  0.93697500  0.75805000  0.63027000  1
  O  O10  1  0.43697500  0.24195000  0.63027000  1
  O  O11  1  0.43697500  0.75805000  0.36973000  1
  O  O12  1  0.85165400  0.34305700  0.22536200  1
  O  O13  1  0.85165400  0.65694300  0.77463800  1
  O  O14  1  0.35165400  0.34305700  0.77463800  1
  O  O15  1  0.35165400  0.65694300  0.22536200  1
  O  O16  1  0.94352800  0.59023300  0.24473600  1
  O  O17  1  0.94352800  0.40976700  0.75526400  1
  O  O18  1  0.44352800  0.59023300  0.75526400  1
  O  O19  1  0.44352800  0.40976700  0.24473600  1
  O  O20  1  0.63863000  0.43151100  0.40552300  1
  O  O21  1  0.63863000  0.56848900  0.59447700  1
  O  O22  1  0.13863000  0.43151100  0.59447700  1
  O  O23  1  0.13863000  0.56848900  0.40552300  1
  O  O24  1  0.64457000  0.45055600  0.10060400  1
  O  O25  1  0.64457000  0.54944400  0.89939600  1
  O  O26  1  0.14457000  0.45055600  0.89939600  1
  O  O27  1  0.14457000  0.54944400  0.10060400  1
  O  O28  1  0.01727700  0.24291800  0.60458900  1
  O  O29  1  0.01727700  0.75708200  0.39541100  1
  O  O30  1  0.51727700  0.24291800  0.39541100  1
  O  O31  1  0.51727700  0.75708200  0.60458900  1
  O  O32  1  0.32180900  0.40293100  0.43672400  1
  O  O33  1  0.32180900  0.59706900  0.56327600  1
  O  O34  1  0.82180900  0.40293100  0.56327600  1
  O  O35  1  0.82180900  0.59706900  0.43672400  1
  O  O36  1  0.29584700  0.10463300  0.44666600  1
  O  O37  1  0.29584700  0.89536700  0.55333400  1
  O  O38  1  0.79584700  0.10463300  0.55333400  1
  O  O39  1  0.79584700  0.89536700  0.44666600  1
  O  O40  1  0.04889400  0.24531200  0.89639100  1
  O  O41  1  0.04889400  0.75468800  0.10360900  1
  O  O42  1  0.54889400  0.24531200  0.10360900  1
  O  O43  1  0.54889400  0.75468800  0.89639100  1
  O  O44  1  0.32797000  0.10901300  0.03461800  1
  O  O45  1  0.32797000  0.89098700  0.96538200  1
  O  O46  1  0.82797000  0.10901300  0.96538200  1
  O  O47  1  0.82797000  0.89098700  0.03461800  1
  O  O48  1  0.34495900  0.39187500  0.03933500  1
  O  O49  1  0.34495900  0.60812500  0.96066500  1
  O  O50  1  0.84495900  0.39187500  0.96066500  1
  O  O51  1  0.84495900  0.60812500  0.03933500  1
  O  O52  1  0.89718100  0.90356000  0.24347700  1
  O  O53  1  0.89718100  0.09644000  0.75652300  1
  O  O54  1  0.39718100  0.90356000  0.75652300  1
  O  O55  1  0.39718100  0.09644000  0.24347700  1
  O  O56  1  0.62016100  0.03659600  0.10719000  1
  O  O57  1  0.62016100  0.96340400  0.89281000  1
  O  O58  1  0.12016100  0.03659600  0.89281000  1
  O  O59  1  0.12016100  0.96340400  0.10719000  1
  O  O60  1  0.59863100  0.03757100  0.39289700  1
  O  O61  1  0.59863100  0.96242900  0.60710300  1
  O  O62  1  0.09863100  0.03757100  0.60710300  1
  O  O63  1  0.09863100  0.96242900  0.39289700  1
loop_
_geom_bond_atom_site_label_1
_geom_bond_atom_site_label_2
_geom_bond_distance
_geom_bond_site_symmetry_2
Ca0 O56 2.265914 1_565
Ca0 O60 2.324789 1_565
Ca0 O52 2.329313 1_555
Ca0 O7 2.428579 1_555
Ca1 O57 2.265914 1_545
Ca1 O61 2.324789 1_545
Ca1 O53 2.329313 1_555
Ca1 O6 2.428579 1_555
Ca2 O58 2.265914 1_565
Ca2 O62 2.324789 1_565
Ca2 O54 2.329313 1_555
Ca2 O5 2.428579 1_455
Ca3 O59 2.265914 1_545
Ca3 O63 2.324789 1_545
Ca3 O55 2.329313 1_555
Ca3 O4 2.428579 1_455
Ca4 O43 2.316052 1_555
Ca4 O47 2.325804 1_556
Ca4 O51 2.328231 1_556
Ca4 O13 2.497607 1_555
Ca4 O5 2.614126 1_555
Ca5 O42 2.316052 1_555
Ca5 O46 2.325804 1_554
Ca5 O50 2.328231 1_554
Ca5 O12 2.497607 1_555
Ca5 O4 2.614126 1_555
Ca6 O41 2.316052 1_555
Ca6 O45 2.325804 1_554
Ca6 O49 2.328231 1_554
Ca6 O15 2.497607 1_555
Ca6 O7 2.614126 1_555
Ca7 O40 2.316052 1_555
Ca7 O44 2.325804 1_556
Ca7 O48 2.328231 1_556
Ca7 O14 2.497607 1_555
Ca7 O6 2.614126 1_555
Ca8 O9 2.313526 1_555
Ca8 O39 2.319716 1_555
Ca8 O31 2.326898 1_555
Ca8 O35 2.348489 1_555
Ca8 O21 2.624722 1_555
Ca9 O8 2.313526 1_555
Ca9 O38 2.319716 1_555
Ca9 O30 2.326898 1_555
Ca9 O34 2.348489 1_555
Ca9 O20 2.624722 1_555
Ca10 O11 2.313526 1_555
Ca10 O37 2.319716 1_555
Ca10 O29 2.326898 1_555
Ca10 O33 2.348489 1_555
Ca10 O23 2.624722 1_555
Ca11 O10 2.313526 1_555
Ca11 O36 2.319716 1_555
Ca11 O28 2.326898 1_555
Ca11 O32 2.348489 1_555
Ca11 O22 2.624722 1_555
Ca12 O24 2.281721 1_555
Ca12 O3 2.336071 1_555
Ca12 O16 2.337104 1_555
Ca12 O20 2.371720 1_555
Ca12 O12 2.526395 1_555
Ca12 O35 2.847134 1_555
Ca12 O19 2.864858 1_555
Ca13 O25 2.281721 1_555
Ca13 O2 2.336071 1_555
Ca13 O17 2.337104 1_555
Ca13 O21 2.371720 1_555
Ca13 O13 2.526395 1_555
Ca13 O34 2.847134 1_555
Ca13 O18 2.864858 1_555
Ca14 O26 2.281721 1_555
Ca14 O1 2.336071 1_555
Ca14 O18 2.337104 1_555
Ca14 O22 2.371720 1_555
Ca14 O14 2.526395 1_555
Ca14 O33 2.847134 1_555
Ca14 O17 2.864858 1_455
Ca15 O27 2.281721 1_555
Ca15 O0 2.336071 1_555
Ca15 O19 2.337104 1_555
Ca15 O23 2.371720 1_555
Ca15 O15 2.526395 1_555
Ca15 O32 2.847134 1_555
Ca15 O16 2.864858 1_455
Al0 O35 1.749155 1_555
Al0 O34 1.749155 1_555
Al0 O21 1.753372 1_555
Al0 O20 1.753372 1_555
Al1 O33 1.749155 1_555
Al1 O32 1.749155 1_555
Al1 O22 1.753372 1_555
Al1 O23 1.753372 1_555
Al2 O25 1.751143 1_554
Al2 O24 1.751143 1_555
Al2 O51 1.769651 1_555
Al2 O50 1.769651 1_554
Al3 O27 1.751143 1_555
Al3 O26 1.751143 1_554
Al3 O48 1.769651 1_555
Al3 O49 1.769651 1_554
Al4 O47 1.780480 1_545
Al4 O46 1.780480 1_554
Al4 O56 1.783444 1_555
Al4 O57 1.783444 1_544
Al5 O44 1.780480 1_555
Al5 O45 1.780480 1_544
Al5 O58 1.783444 1_554
Al5 O59 1.783444 1_545
Al6 O61 1.769001 1_545
Al6 O60 1.769001 1_555
Al6 O38 1.782341 1_555
Al6 O39 1.782341 1_545
Al7 O62 1.769001 1_555
Al7 O63 1.769001 1_545
Al7 O36 1.782341 1_555
Al7 O37 1.782341 1_545
Al8 O48 1.752996 1_555
Al8 O24 1.762377 1_555
Al8 O19 1.767456 1_555
Al8 O42 1.771612 1_555
Al9 O49 1.752996 1_555
Al9 O25 1.762377 1_555
Al9 O18 1.767456 1_555
Al9 O43 1.771612 1_555
Al10 O50 1.752996 1_555
Al10 O26 1.762377 1_655
Al10 O17 1.767456 1_555
Al10 O40 1.771612 1_655
Al11 O51 1.752996 1_555
Al11 O27 1.762377 1_655
Al11 O16 1.767456 1_555
Al11 O41 1.771612 1_655
Al12 O31 1.755315 1_555
Al12 O61 1.757039 1_555
Al12 O54 1.778599 1_555
Al12 O37 1.780887 1_555
Al13 O30 1.755315 1_555
Al13 O60 1.757039 1_555
Al13 O55 1.778599 1_555
Al13 O36 1.780887 1_555
Al14 O29 1.755315 1_655
Al14 O63 1.757039 1_655
Al14 O52 1.778599 1_555
Al14 O39 1.780887 1_555
Al15 O28 1.755315 1_655
Al15 O62 1.757039 1_655
Al15 O53 1.778599 1_555
Al15 O38 1.780887 1_555
Al16 O31 1.746346 1_555
Al16 O33 1.750348 1_555
Al16 O18 1.752124 1_555
Al16 O21 1.763606 1_555
Al17 O30 1.746346 1_555
Al17 O32 1.750348 1_555
Al17 O19 1.752124 1_555
Al17 O20 1.763606 1_555
Al18 O29 1.746346 1_655
Al18 O35 1.750348 1_555
Al18 O16 1.752124 1_555
Al18 O23 1.763606 1_655
Al19 O28 1.746346 1_655
Al19 O34 1.750348 1_555
Al19 O17 1.752124 1_555
Al19 O22 1.763606 1_655
Al20 O45 1.774308 1_555
Al20 O43 1.775727 1_555
Al20 O57 1.781520 1_555
Al20 O54 1.790946 1_555
Al21 O44 1.774308 1_555
Al21 O42 1.775727 1_555
Al21 O56 1.781520 1_555
Al21 O55 1.790946 1_555
Al22 O47 1.774308 1_555
Al22 O41 1.775727 1_655
Al22 O59 1.781520 1_655
Al22 O52 1.790946 1_555
Al23 O46 1.774308 1_555
Al23 O40 1.775727 1_655
Al23 O58 1.781520 1_655
Al23 O53 1.790946 1_555
O0 S3 1.474903 1_455
O1 S2 1.474903 1_455
O2 S1 1.474903 1_555
O3 S0 1.474903 1_555
O4 S3 1.510415 1_555
O5 S2 1.510415 1_555
O6 S1 1.510415 1_555
O7 S0 1.510415 1_555
O8 S3 1.487002 1_555
O9 S2 1.487002 1_555
O10 S1 1.487002 1_555
O11 S0 1.487002 1_555
O12 S3 1.495862 1_555
O13 S2 1.495862 1_555
O14 S1 1.495862 1_555
O15 S0 1.495862 1_555
