# generated using pymatgen
data_KNb(PO4)2
_symmetry_space_group_name_H-M   'P 1'
_cell_length_a   12.00639700
_cell_length_b   5.25871300
_cell_length_c   13.05666591
_cell_angle_alpha   67.48248033
_cell_angle_beta   90.00000000
_cell_angle_gamma   90.00000000
_symmetry_Int_Tables_number   1
_chemical_formula_structural   KNb(PO4)2
_chemical_formula_sum   'K4 Nb4 P8 O32'
_cell_volume   761.52607145
_cell_formula_units_Z   4
loop_
 _symmetry_equiv_pos_site_id
 _symmetry_equiv_pos_as_xyz
  1  'x, y, z'
loop_
 _atom_site_type_symbol
 _atom_site_label
 _atom_site_symmetry_multiplicity
 _atom_site_fract_x
 _atom_site_fract_y
 _atom_site_fract_z
 _atom_site_occupancy
  K  K0  1  0.36592800  0.68471000  0.05252700  1
  K  K1  1  0.63407200  0.31529000  0.94747300  1
  K  K2  1  0.13407200  0.68471000  0.55252700  1
  K  K3  1  0.86592800  0.31529000  0.44747300  1
  Nb  Nb0  1  0.37734900  0.91161000  0.33100100  1
  Nb  Nb1  1  0.87734900  0.08839000  0.16899900  1
  Nb  Nb2  1  0.62265100  0.08839000  0.66899900  1
  Nb  Nb3  1  0.12265100  0.91161000  0.83100100  1
  P  P0  1  0.56384200  0.38457200  0.36548000  1
  P  P1  1  0.93615800  0.38457200  0.86548000  1
  P  P2  1  0.43615800  0.61542800  0.63452000  1
  P  P3  1  0.06384200  0.61542800  0.13452000  1
  P  P4  1  0.18905400  0.39511400  0.34802000  1
  P  P5  1  0.31094600  0.39511400  0.84802000  1
  P  P6  1  0.81094600  0.60488600  0.65198000  1
  P  P7  1  0.68905400  0.60488600  0.15198000  1
  O  O0  1  0.51347900  0.66707000  0.34758700  1
  O  O1  1  0.01347900  0.33293000  0.15241300  1
  O  O2  1  0.48652100  0.33293000  0.65241300  1
  O  O3  1  0.98652100  0.66707000  0.84758700  1
  O  O4  1  0.67182300  0.44464400  0.28551300  1
  O  O5  1  0.17182300  0.55535600  0.21448700  1
  O  O6  1  0.32817700  0.55535600  0.71448700  1
  O  O7  1  0.82817700  0.44464400  0.78551300  1
  O  O8  1  0.27702200  0.57464900  0.37590800  1
  O  O9  1  0.77702200  0.42535100  0.12409200  1
  O  O10  1  0.72297800  0.42535100  0.62409200  1
  O  O11  1  0.22297800  0.57464900  0.87590800  1
  O  O12  1  0.08325900  0.36444500  0.41125700  1
  O  O13  1  0.58325900  0.63555500  0.08874300  1
  O  O14  1  0.91674100  0.63555500  0.58874300  1
  O  O15  1  0.41674100  0.36444500  0.91125700  1
  O  O16  1  0.89058400  0.22876700  0.97931000  1
  O  O17  1  0.39058400  0.77123300  0.52069000  1
  O  O18  1  0.10941600  0.77123300  0.02069000  1
  O  O19  1  0.60941600  0.22876700  0.47931000  1
  O  O20  1  0.01939800  0.22419200  0.82314900  1
  O  O21  1  0.51939800  0.77580800  0.67685100  1
  O  O22  1  0.98060200  0.77580800  0.17685100  1
  O  O23  1  0.48060200  0.22419200  0.32314900  1
  O  O24  1  0.64078500  0.98222400  0.81288200  1
  O  O25  1  0.14078500  0.01777600  0.68711800  1
  O  O26  1  0.35921500  0.01777600  0.18711800  1
  O  O27  1  0.85921500  0.98222400  0.31288200  1
  O  O28  1  0.25595900  0.11894100  0.86105600  1
  O  O29  1  0.75595900  0.88105900  0.63894400  1
  O  O30  1  0.74404100  0.88105900  0.13894400  1
  O  O31  1  0.24404100  0.11894100  0.36105600  1
loop_
_geom_bond_atom_site_label_1
_geom_bond_atom_site_label_2
_geom_bond_distance
_geom_bond_site_symmetry_2
K0 O13 2.646803 1_555
K0 O26 2.918880 1_565
K0 O28 2.972379 1_564
K0 O15 2.998378 1_554
K0 O5 3.043677 1_555
K0 O11 3.101757 1_554
K0 O18 3.117696 1_555
K0 O26 3.267193 1_555
K0 O15 3.391417 1_564
K1 O15 2.646803 1_555
K1 O24 2.918880 1_545
K1 O30 2.972379 1_546
K1 O13 2.998378 1_556
K1 O7 3.043677 1_555
K1 O9 3.101757 1_556
K1 O16 3.117696 1_555
K1 O24 3.267193 1_555
K1 O13 3.391417 1_546
K2 O14 2.646803 1_455
K2 O25 2.918880 1_565
K2 O31 2.972379 1_565
K2 O12 2.998378 1_555
K2 O6 3.043677 1_555
K2 O8 3.101757 1_555
K2 O17 3.117696 1_555
K2 O25 3.267193 1_555
K2 O12 3.391417 1_565
K3 O12 2.646803 1_655
K3 O27 2.918880 1_545
K3 O29 2.972379 1_545
K3 O14 2.998378 1_555
K3 O4 3.043677 1_555
K3 O10 3.101757 1_555
K3 O19 3.117696 1_555
K3 O27 3.267193 1_555
K3 O14 3.391417 1_545
Nb0 O26 1.756423 1_565
Nb0 O23 2.029850 1_565
Nb0 O8 2.034429 1_555
Nb0 O0 2.039281 1_555
Nb0 O31 2.057230 1_565
Nb0 O17 2.303021 1_555
Nb1 O27 1.756423 1_545
Nb1 O22 2.029850 1_545
Nb1 O9 2.034429 1_555
Nb1 O1 2.039281 1_655
Nb1 O30 2.057230 1_545
Nb1 O16 2.303021 1_554
Nb2 O24 1.756423 1_545
Nb2 O21 2.029850 1_545
Nb2 O10 2.034429 1_555
Nb2 O2 2.039281 1_555
Nb2 O29 2.057230 1_545
Nb2 O19 2.303021 1_555
Nb3 O25 1.756423 1_565
Nb3 O20 2.029850 1_565
Nb3 O11 2.034429 1_555
Nb3 O3 2.039281 1_455
Nb3 O28 2.057230 1_565
Nb3 O18 2.303021 1_556
O0 P0 1.536660 1_555
O1 P3 1.536660 1_555
O2 P2 1.536660 1_555
O3 P1 1.536660 1_555
O4 P0 1.618063 1_555
O4 P7 1.633208 1_555
O5 P3 1.618063 1_555
O5 P4 1.633208 1_555
O6 P2 1.618063 1_555
O6 P5 1.633208 1_555
O7 P1 1.618063 1_555
O7 P6 1.633208 1_555
O8 P4 1.550090 1_555
O9 P7 1.550090 1_555
O10 P6 1.550090 1_555
O11 P5 1.550090 1_555
O12 P4 1.489695 1_555
O13 P7 1.489695 1_555
O14 P6 1.489695 1_555
O15 P5 1.489695 1_555
O16 P1 1.498976 1_555
O17 P2 1.498976 1_555
O18 P3 1.498976 1_555
O19 P0 1.498976 1_555
O20 P1 1.540341 1_455
O21 P2 1.540341 1_555
O22 P3 1.540341 1_655
O23 P0 1.540341 1_555
O28 P5 1.544252 1_555
O29 P6 1.544252 1_555
O30 P7 1.544252 1_555
O31 P4 1.544252 1_555
