# generated using pymatgen
data_Na3NdCl6
_symmetry_space_group_name_H-M   'P 1'
_cell_length_a   7.66328954
_cell_length_b   7.66328954
_cell_length_c   7.66328954
_cell_angle_alpha   60.00000000
_cell_angle_beta   60.00000000
_cell_angle_gamma   60.00000000
_symmetry_Int_Tables_number   1
_chemical_formula_structural   Na3NdCl6
_chemical_formula_sum   'Na3 Nd1 Cl6'
_cell_volume   318.22237029
_cell_formula_units_Z   1
loop_
 _symmetry_equiv_pos_site_id
 _symmetry_equiv_pos_as_xyz
  1  'x, y, z'
loop_
 _atom_site_type_symbol
 _atom_site_label
 _atom_site_symmetry_multiplicity
 _atom_site_fract_x
 _atom_site_fract_y
 _atom_site_fract_z
 _atom_site_occupancy
  Na  Na0  1  0.75000000  0.75000000  0.75000000  1
  Na  Na1  1  0.25000000  0.25000000  0.25000000  1
  Na  Na2  1  0.50000000  0.50000000  0.50000000  1
  Nd  Nd0  1  0.00000000  0.00000000  0.00000000  1
  Cl  Cl0  1  0.74983000  0.25017000  0.25017000  1
  Cl  Cl1  1  0.25017000  0.25017000  0.74983000  1
  Cl  Cl2  1  0.25017000  0.74983000  0.74983000  1
  Cl  Cl3  1  0.25017000  0.74983000  0.25017000  1
  Cl  Cl4  1  0.74983000  0.25017000  0.74983000  1
  Cl  Cl5  1  0.74983000  0.74983000  0.25017000  1
loop_
_geom_bond_atom_site_label_1
_geom_bond_atom_site_label_2
_geom_bond_distance
_geom_bond_site_symmetry_2
Cl0 Na2 2.707540 1_555
Cl0 Nd0 2.711224 1_655
Cl1 Na2 2.707540 1_555
Cl1 Nd0 2.711224 1_556
Cl2 Na2 2.707540 1_555
Cl2 Nd0 2.711224 1_566
Cl3 Na2 2.707540 1_555
Cl3 Nd0 2.711224 1_565
Cl4 Na2 2.707540 1_555
Cl4 Nd0 2.711224 1_656
Cl5 Na2 2.707540 1_555
Cl5 Nd0 2.711224 1_665
