# generated using pymatgen
data_BaTh2S5
_symmetry_space_group_name_H-M   'P 1'
_cell_length_a   7.69463499
_cell_length_b   8.67252433
_cell_length_c   12.19217947
_cell_angle_alpha   89.60721672
_cell_angle_beta   90.00000000
_cell_angle_gamma   90.00000000
_symmetry_Int_Tables_number   1
_chemical_formula_structural   BaTh2S5
_chemical_formula_sum   'Ba4 Th8 S20'
_cell_volume   813.58829507
_cell_formula_units_Z   4
loop_
 _symmetry_equiv_pos_site_id
 _symmetry_equiv_pos_as_xyz
  1  'x, y, z'
loop_
 _atom_site_type_symbol
 _atom_site_label
 _atom_site_symmetry_multiplicity
 _atom_site_fract_x
 _atom_site_fract_y
 _atom_site_fract_z
 _atom_site_occupancy
  Ba  Ba0  1  0.05068581  0.49036796  0.33186592  1
  Ba  Ba1  1  0.55068581  0.50963204  0.16813408  1
  Ba  Ba2  1  0.94931419  0.50963204  0.66813408  1
  Ba  Ba3  1  0.44931419  0.49036796  0.83186592  1
  Th  Th0  1  0.01955898  0.99785788  0.32131545  1
  Th  Th1  1  0.51955898  0.00214212  0.17868455  1
  Th  Th2  1  0.98044102  0.00214212  0.67868455  1
  Th  Th3  1  0.48044102  0.99785788  0.82131545  1
  Th  Th4  1  0.06821712  0.75289082  0.00816217  1
  Th  Th5  1  0.56821712  0.24710918  0.49183783  1
  Th  Th6  1  0.93178288  0.24710918  0.99183783  1
  Th  Th7  1  0.43178288  0.75289082  0.50816217  1
  S  S0  1  0.65967036  0.96018237  0.39849897  1
  S  S1  1  0.15967036  0.03981763  0.10150103  1
  S  S2  1  0.34032964  0.03981763  0.60150103  1
  S  S3  1  0.84032964  0.96018237  0.89849897  1
  S  S4  1  0.45045917  0.79062162  0.00225830  1
  S  S5  1  0.95045917  0.20937838  0.49774170  1
  S  S6  1  0.54954083  0.20937838  0.99774170  1
  S  S7  1  0.04954083  0.79062162  0.50225830  1
  S  S8  1  0.83442727  0.78465263  0.18730045  1
  S  S9  1  0.33442727  0.21534737  0.31269955  1
  S  S10  1  0.16557273  0.21534737  0.81269955  1
  S  S11  1  0.66557273  0.78465263  0.68730045  1
  S  S12  1  0.30912357  0.77397904  0.28482263  1
  S  S13  1  0.80912357  0.22602096  0.21517737  1
  S  S14  1  0.69087643  0.22602096  0.71517737  1
  S  S15  1  0.19087643  0.77397904  0.78482263  1
  S  S16  1  0.17538342  0.46459502  0.07712020  1
  S  S17  1  0.67538342  0.53540498  0.42287980  1
  S  S18  1  0.82461658  0.53540498  0.92287980  1
  S  S19  1  0.32461658  0.46459502  0.57712020  1
loop_
_geom_bond_atom_site_label_1
_geom_bond_atom_site_label_2
_geom_bond_distance
_geom_bond_site_symmetry_2
Ba0 S17 3.119185 1_455
Ba0 S12 3.211518 1_555
Ba0 S9 3.243116 1_555
Ba0 S5 3.248949 1_455
Ba0 S16 3.259873 1_555
Ba0 S13 3.283209 1_455
Ba0 S7 3.342253 1_555
Ba0 S8 3.511075 1_455
Ba0 S19 3.663988 1_555
Ba1 S16 3.119185 1_555
Ba1 S13 3.211518 1_555
Ba1 S8 3.243116 1_555
Ba1 S4 3.248949 1_555
Ba1 S17 3.259873 1_555
Ba1 S12 3.283209 1_555
Ba1 S6 3.342253 1_554
Ba1 S9 3.511075 1_555
Ba1 S18 3.663988 1_554
Ba2 S19 3.119185 1_655
Ba2 S14 3.211518 1_555
Ba2 S11 3.243116 1_555
Ba2 S7 3.248949 1_655
Ba2 S18 3.259873 1_555
Ba2 S15 3.283209 1_655
Ba2 S5 3.342253 1_555
Ba2 S10 3.511075 1_655
Ba2 S17 3.663988 1_555
Ba3 S18 3.119185 1_555
Ba3 S15 3.211518 1_555
Ba3 S10 3.243116 1_555
Ba3 S6 3.248949 1_555
Ba3 S19 3.259873 1_555
Ba3 S14 3.283209 1_555
Ba3 S4 3.342253 1_556
Ba3 S11 3.511075 1_555
Ba3 S16 3.663988 1_556
S0 Th5 2.832156 1_565
S0 Th7 2.839256 1_555
S0 Th1 2.909270 1_565
S0 Th0 2.942214 1_655
S1 Th4 2.832156 1_545
S1 Th6 2.839256 1_454
S1 Th0 2.909270 1_545
S1 Th1 2.942214 1_555
S2 Th7 2.832156 1_545
S2 Th5 2.839256 1_555
S2 Th3 2.909270 1_545
S2 Th2 2.942214 1_455
S3 Th6 2.832156 1_565
S3 Th4 2.839256 1_656
S3 Th2 2.909270 1_565
S3 Th3 2.942214 1_555
S4 Th3 2.845318 1_554
S4 Th1 2.885962 1_565
S4 Th4 2.960180 1_555
S5 Th2 2.845318 1_555
S5 Th0 2.885962 1_645
S5 Th5 2.960180 1_555
S6 Th1 2.845318 1_556
S6 Th3 2.885962 1_545
S6 Th6 2.960180 1_555
S7 Th0 2.845318 1_555
S7 Th2 2.885962 1_465
S7 Th7 2.960180 1_555
S8 Th4 2.844380 1_655
S8 Th0 2.856454 1_655
S8 Th1 3.071799 1_565
S9 Th5 2.844380 1_555
S9 Th1 2.856454 1_555
S9 Th0 3.071799 1_545
S10 Th6 2.844380 1_455
S10 Th2 2.856454 1_455
S10 Th3 3.071799 1_545
S11 Th7 2.844380 1_555
S11 Th3 2.856454 1_555
S11 Th2 3.071799 1_565
S12 Th1 2.859511 1_565
S12 Th7 2.886541 1_555
S12 Th0 2.990651 1_555
S13 Th0 2.859511 1_645
S13 Th6 2.886541 1_554
S13 Th1 2.990651 1_555
S14 Th3 2.859511 1_545
S14 Th5 2.886541 1_555
S14 Th2 2.990651 1_555
S15 Th2 2.859511 1_465
S15 Th4 2.886541 1_556
S15 Th3 2.990651 1_555
S16 Th4 2.758491 1_555
S16 Th6 2.859901 1_454
S17 Th5 2.758491 1_555
S17 Th7 2.859901 1_555
S18 Th6 2.758491 1_555
S18 Th4 2.859901 1_656
S19 Th7 2.758491 1_555
S19 Th5 2.859901 1_555
