# generated using pymatgen
data_KRb(SO4)2
_symmetry_space_group_name_H-M   'P 1'
_cell_length_a   7.29519105
_cell_length_b   8.42501021
_cell_length_c   14.61126100
_cell_angle_alpha   90.00000000
_cell_angle_beta   90.00000000
_cell_angle_gamma   103.26873213
_symmetry_Int_Tables_number   1
_chemical_formula_structural   KRb(SO4)2
_chemical_formula_sum   'K4 Rb4 S8 O32'
_cell_volume   874.06440326
_cell_formula_units_Z   4
loop_
 _symmetry_equiv_pos_site_id
 _symmetry_equiv_pos_as_xyz
  1  'x, y, z'
loop_
 _atom_site_type_symbol
 _atom_site_label
 _atom_site_symmetry_multiplicity
 _atom_site_fract_x
 _atom_site_fract_y
 _atom_site_fract_z
 _atom_site_occupancy
  K  K0  1  0.59018300  0.77550500  0.95600300  1
  K  K1  1  0.40981700  0.22449500  0.04399700  1
  K  K2  1  0.40981700  0.72449500  0.45600300  1
  K  K3  1  0.59018300  0.27550500  0.54399700  1
  Rb  Rb0  1  0.96566200  0.65233100  0.71240500  1
  Rb  Rb1  1  0.03433800  0.34766900  0.28759500  1
  Rb  Rb2  1  0.03433800  0.84766900  0.21240500  1
  Rb  Rb3  1  0.96566200  0.15233100  0.78759500  1
  S  S0  1  0.91803300  0.73329300  0.46185200  1
  S  S1  1  0.08196700  0.26670700  0.53814800  1
  S  S2  1  0.08196700  0.76670700  0.96185200  1
  S  S3  1  0.91803300  0.23329300  0.03814800  1
  S  S4  1  0.50297400  0.85333200  0.69310500  1
  S  S5  1  0.49702600  0.14666800  0.30689500  1
  S  S6  1  0.49702600  0.64666800  0.19310500  1
  S  S7  1  0.50297400  0.35333200  0.80689500  1
  O  O0  1  0.56256800  0.96137000  0.61437600  1
  O  O1  1  0.43743200  0.03863000  0.38562400  1
  O  O2  1  0.43743200  0.53863000  0.11437600  1
  O  O3  1  0.56256800  0.46137000  0.88562400  1
  O  O4  1  0.34065800  0.89595500  0.74328600  1
  O  O5  1  0.65934200  0.10404500  0.25671400  1
  O  O6  1  0.65934200  0.60404500  0.24328600  1
  O  O7  1  0.34065800  0.39595500  0.75671400  1
  O  O8  1  0.41415900  0.68375200  0.65957300  1
  O  O9  1  0.58584100  0.31624800  0.34042700  1
  O  O10  1  0.58584100  0.81624800  0.15957300  1
  O  O11  1  0.41415900  0.18375200  0.84042700  1
  O  O12  1  0.98980200  0.85438600  0.89368800  1
  O  O13  1  0.01019800  0.14561400  0.10631200  1
  O  O14  1  0.01019800  0.64561400  0.39368800  1
  O  O15  1  0.98980200  0.35438600  0.60631200  1
  O  O16  1  0.75746500  0.62213900  0.50842500  1
  O  O17  1  0.24253500  0.37786100  0.49157500  1
  O  O18  1  0.24253500  0.87786100  0.00842500  1
  O  O19  1  0.75746500  0.12213900  0.99157500  1
  O  O20  1  0.93980600  0.18833300  0.46998800  1
  O  O21  1  0.06019400  0.81166700  0.53001200  1
  O  O22  1  0.06019400  0.31166700  0.96998800  1
  O  O23  1  0.93980600  0.68833300  0.03001200  1
  O  O24  1  0.84399600  0.85947800  0.41086900  1
  O  O25  1  0.15600400  0.14052200  0.58913100  1
  O  O26  1  0.15600400  0.64052200  0.91086900  1
  O  O27  1  0.84399600  0.35947800  0.08913100  1
  O  O28  1  0.65957700  0.85195700  0.75623100  1
  O  O29  1  0.34042300  0.14804300  0.24376900  1
  O  O30  1  0.34042300  0.64804300  0.25623100  1
  O  O31  1  0.65957700  0.35195700  0.74376900  1
loop_
_geom_bond_atom_site_label_1
_geom_bond_atom_site_label_2
_geom_bond_distance
_geom_bond_site_symmetry_2
K0 O3 2.803165 1_555
K0 O19 2.941453 1_565
K0 O18 2.960806 1_556
K0 O12 2.979979 1_555
K0 O10 2.995157 1_556
K0 O28 3.006921 1_555
K0 O23 3.012306 1_556
K0 O2 3.091662 1_556
K0 O26 3.179188 1_555
K1 O2 2.803165 1_555
K1 O18 2.941453 1_545
K1 O19 2.960806 1_554
K1 O13 2.979979 1_555
K1 O11 2.995157 1_554
K1 O29 3.006921 1_555
K1 O22 3.012306 1_554
K1 O3 3.091662 1_554
K1 O27 3.179188 1_555
K2 O1 2.803165 1_565
K2 O17 2.941453 1_555
K2 O16 2.960806 1_555
K2 O14 2.979979 1_555
K2 O8 2.995157 1_555
K2 O30 3.006921 1_555
K2 O21 3.012306 1_555
K2 O0 3.091662 1_555
K2 O24 3.179188 1_555
K3 O0 2.803165 1_545
K3 O16 2.941453 1_555
K3 O17 2.960806 1_555
K3 O15 2.979979 1_555
K3 O9 2.995157 1_555
K3 O31 3.006921 1_555
K3 O20 3.012306 1_555
K3 O1 3.091662 1_555
K3 O25 3.179188 1_555
O0 S4 1.469394 1_555
O1 S5 1.469394 1_555
O2 S6 1.469394 1_555
O3 S7 1.469394 1_555
O4 S4 1.504624 1_555
O4 Rb0 3.053334 1_455
O5 S5 1.504624 1_555
O5 Rb1 3.053334 1_655
O6 S6 1.504624 1_555
O6 Rb2 3.053334 1_655
O7 S7 1.504624 1_555
O7 Rb3 3.053334 1_455
O8 S4 1.508689 1_555
O8 Rb0 3.312631 1_455
O9 S5 1.508689 1_555
O9 Rb1 3.312631 1_655
O10 S6 1.508689 1_555
O10 Rb2 3.312631 1_655
O11 S7 1.508689 1_555
O11 Rb3 3.312631 1_455
O12 S2 1.489185 1_655
O12 Rb3 2.989642 1_565
O12 Rb0 3.131657 1_555
O13 S3 1.489185 1_455
O13 Rb2 2.989642 1_545
O13 Rb1 3.131657 1_555
O14 S0 1.489185 1_455
O14 Rb1 2.989642 1_555
O14 Rb2 3.131657 1_555
O15 S1 1.489185 1_655
O15 Rb0 2.989642 1_555
O15 Rb3 3.131657 1_555
O16 S0 1.486143 1_555
O16 Rb0 3.328218 1_555
O17 S1 1.486143 1_555
O17 Rb1 3.328218 1_555
O18 S2 1.486143 1_554
O18 Rb2 3.328218 1_555
O19 S3 1.486143 1_556
O19 Rb3 3.328218 1_555
O20 S1 1.479539 1_655
O20 Rb1 2.992468 1_655
O21 S0 1.479539 1_455
O21 Rb0 2.992468 1_455
O22 S3 1.479539 1_456
O22 Rb3 2.992468 1_455
O23 S2 1.479539 1_654
O23 Rb2 2.992468 1_655
O24 S0 1.496803 1_555
O24 Rb2 3.226510 1_655
O25 S1 1.496803 1_555
O25 Rb3 3.226510 1_455
O26 S2 1.496803 1_555
O26 Rb0 3.226510 1_455
O27 S3 1.496803 1_555
O27 Rb1 3.226510 1_655
O28 S4 1.470418 1_555
O28 Rb3 3.001057 1_565
O28 Rb0 3.154147 1_555
O29 S5 1.470418 1_555
O29 Rb2 3.001057 1_545
O29 Rb1 3.154147 1_555
O30 S6 1.470418 1_555
O30 Rb1 3.001057 1_555
O30 Rb2 3.154147 1_555
O31 S7 1.470418 1_555
O31 Rb0 3.001057 1_555
O31 Rb3 3.154147 1_555
