# generated using pymatgen
data_Yb3Ni7B2
_symmetry_space_group_name_H-M   'P 1'
_cell_length_a   5.06520423
_cell_length_b   5.06162530
_cell_length_c   7.09160300
_cell_angle_alpha   90.00000000
_cell_angle_beta   90.00000000
_cell_angle_gamma   59.87398581
_symmetry_Int_Tables_number   1
_chemical_formula_structural   Yb3Ni7B2
_chemical_formula_sum   'Yb3 Ni7 B2'
_cell_volume   157.25668983
_cell_formula_units_Z   1
loop_
 _symmetry_equiv_pos_site_id
 _symmetry_equiv_pos_as_xyz
  1  'x, y, z'
loop_
 _atom_site_type_symbol
 _atom_site_label
 _atom_site_symmetry_multiplicity
 _atom_site_fract_x
 _atom_site_fract_y
 _atom_site_fract_z
 _atom_site_occupancy
  Yb  Yb0  1  0.99995500  0.99973100  0.00000000  1
  Yb  Yb1  1  0.00001400  0.00009500  0.50000000  1
  Yb  Yb2  1  0.66675100  0.66708100  0.00000000  1
  Ni  Ni0  1  0.49612600  0.00745800  0.30626800  1
  Ni  Ni1  1  0.00742200  0.49606400  0.30624100  1
  Ni  Ni2  1  0.49629000  0.49614200  0.30630600  1
  Ni  Ni3  1  0.49612600  0.00745800  0.69373200  1
  Ni  Ni4  1  0.00742200  0.49606400  0.69375900  1
  Ni  Ni5  1  0.49629000  0.49614200  0.69369400  1
  Ni  Ni6  1  0.33338700  0.33345800  0.00000000  1
  B  B0  1  0.66663200  0.66660700  0.50000000  1
  B  B1  1  0.33338300  0.33370200  0.50000000  1
loop_
_geom_bond_atom_site_label_1
_geom_bond_atom_site_label_2
_geom_bond_distance
_geom_bond_site_symmetry_2
Yb0 Yb2 2.921265 1_655
Yb0 Yb2 2.921614 1_565
Yb0 Yb2 2.921654 1_555
Ni0 Ni6 2.598885 1_555
Ni0 Yb2 2.633972 1_545
Ni0 Yb1 2.880560 1_555
Ni0 Yb1 2.882298 1_655
Ni1 Ni6 2.599198 1_555
Ni1 Yb2 2.635140 1_455
Ni1 Yb1 2.878570 1_555
Ni1 Yb1 2.881330 1_565
Ni2 Ni6 2.599887 1_555
Ni2 Yb2 2.638649 1_555
Ni2 Yb1 2.875808 1_655
Ni2 Yb1 2.876777 1_565
Ni3 Ni6 2.598885 1_556
Ni3 Yb2 2.633972 1_546
Ni3 Yb1 2.880560 1_555
Ni3 Yb1 2.882298 1_655
Ni4 Ni6 2.599198 1_556
Ni4 Yb2 2.635140 1_456
Ni4 Yb1 2.878570 1_555
Ni4 Yb1 2.881330 1_565
Ni5 Ni6 2.599887 1_556
Ni5 Yb2 2.638649 1_556
Ni5 Yb1 2.875808 1_655
Ni5 Yb1 2.876777 1_565
Ni6 Yb0 2.916892 1_455
Ni6 Yb2 2.917348 1_545
Ni6 Yb0 2.920249 1_545
Ni6 Yb2 2.920549 1_455
Ni6 Yb2 2.926623 1_555
Ni6 Yb0 2.927378 1_445
B0 Ni0 2.028359 1_565
B0 Ni3 2.028359 1_565
B0 Ni4 2.029070 1_655
B0 Ni1 2.029070 1_655
B0 Ni2 2.030519 1_555
B0 Ni5 2.030519 1_555
B0 Yb1 2.917939 1_655
B0 Yb1 2.920471 1_565
B0 Yb1 2.926110 1_665
B1 Ni2 1.981093 1_555
B1 Ni5 1.981093 1_555
B1 Ni4 1.981765 1_555
B1 Ni1 1.981765 1_555
B1 Ni0 1.981791 1_555
B1 Ni3 1.981791 1_555
B1 Yb1 2.917418 1_565
B1 Yb1 2.920527 1_655
B1 Yb1 2.926575 1_555
