# generated using pymatgen
data_Rb2SeO4
_symmetry_space_group_name_H-M   'P 1'
_cell_length_a   5.20278159
_cell_length_b   5.00810490
_cell_length_c   17.28715645
_cell_angle_alpha   78.89333827
_cell_angle_beta   95.31975841
_cell_angle_gamma   118.76975823
_symmetry_Int_Tables_number   1
_chemical_formula_structural   Rb2SeO4
_chemical_formula_sum   'Rb4 Se2 O8'
_cell_volume   387.43895025
_cell_formula_units_Z   2
loop_
 _symmetry_equiv_pos_site_id
 _symmetry_equiv_pos_as_xyz
  1  'x, y, z'
loop_
 _atom_site_type_symbol
 _atom_site_label
 _atom_site_symmetry_multiplicity
 _atom_site_fract_x
 _atom_site_fract_y
 _atom_site_fract_z
 _atom_site_occupancy
  Rb  Rb0  1  0.91864800  0.04655000  0.47568500  1
  Rb  Rb1  1  0.08135200  0.12790300  0.97568500  1
  Rb  Rb2  1  0.34568200  0.76682800  0.66581500  1
  Rb  Rb3  1  0.65431800  0.42114400  0.16581500  1
  Se  Se0  1  0.29753400  0.63555500  0.29850400  1
  Se  Se1  1  0.70246600  0.33802000  0.79850400  1
  O  O0  1  0.21423000  0.83303600  0.21709000  1
  O  O1  1  0.01659900  0.26541900  0.31164200  1
  O  O2  1  0.38251900  0.76400900  0.02871900  1
  O  O3  1  0.43491500  0.49366800  0.54000200  1
  O  O4  1  0.56508500  0.05875200  0.04000200  1
  O  O5  1  0.61748100  0.38148900  0.52872000  1
  O  O6  1  0.78577100  0.61880500  0.71709000  1
  O  O7  1  0.98340200  0.24882200  0.81164200  1
loop_
_geom_bond_atom_site_label_1
_geom_bond_atom_site_label_2
_geom_bond_distance
_geom_bond_site_symmetry_2
Rb2 Se1 3.676608 1_565
Rb3 Se0 3.676618 1_555
O0 Se0 1.705879 1_555
O0 Rb3 2.753580 1_565
O0 Rb3 2.822827 1_455
O1 Se0 1.707463 1_555
O1 Rb0 2.834758 1_455
O1 Rb3 3.208192 1_455
O2 O4 1.358713 1_565
O2 Rb1 2.907845 1_564
O2 Rb1 3.081932 1_554
O2 Rb3 3.273079 1_555
O3 O5 1.358715 1_555
O3 Rb0 2.803917 1_565
O3 Rb0 2.842699 1_455
O3 Rb2 2.960120 1_555
O4 Rb1 2.803922 1_554
O4 Rb1 2.842694 1_654
O4 Rb3 2.960116 1_555
O5 Rb0 2.907847 1_565
O5 Rb0 3.081939 1_555
O5 Rb2 3.273060 1_545
O6 Se1 1.705878 1_555
O6 Rb2 2.753594 1_555
O6 Rb2 2.822817 1_655
O7 Se1 1.707458 1_555
O7 Rb1 2.834757 1_655
O7 Rb2 3.208191 1_655
