# generated using pymatgen
data_K3Nd3Br10
_symmetry_space_group_name_H-M   'P 1'
_cell_length_a   13.60867800
_cell_length_b   8.34411700
_cell_length_c   9.16831935
_cell_angle_alpha   86.70961099
_cell_angle_beta   90.00000000
_cell_angle_gamma   90.00000000
_symmetry_Int_Tables_number   1
_chemical_formula_structural   K3Nd3Br10
_chemical_formula_sum   'K6 Nd6 Br20'
_cell_volume   1039.36840869
_cell_formula_units_Z   2
loop_
 _symmetry_equiv_pos_site_id
 _symmetry_equiv_pos_as_xyz
  1  'x, y, z'
loop_
 _atom_site_type_symbol
 _atom_site_label
 _atom_site_symmetry_multiplicity
 _atom_site_fract_x
 _atom_site_fract_y
 _atom_site_fract_z
 _atom_site_occupancy
  K  K0  1  0.83199300  0.30042400  0.74942900  1
  K  K1  1  0.33199300  0.69957600  0.25057100  1
  K  K2  1  0.82212100  0.29452700  0.24586200  1
  K  K3  1  0.32212100  0.70547300  0.75413800  1
  K  K4  1  0.17294400  0.20859100  0.75713100  1
  K  K5  1  0.67294400  0.79140900  0.24286900  1
  Nd  Nd0  1  0.00395700  0.68921100  0.99742400  1
  Nd  Nd1  1  0.50395700  0.31078900  0.00257600  1
  Nd  Nd2  1  0.00537400  0.83628000  0.48584100  1
  Nd  Nd3  1  0.50537400  0.16372000  0.51415900  1
  Nd  Nd4  1  0.17266100  0.19545300  0.26128000  1
  Nd  Nd5  1  0.67266100  0.80454700  0.73872000  1
  Br  Br0  1  0.08813600  0.58269200  0.29490100  1
  Br  Br1  1  0.58813600  0.41730800  0.70509900  1
  Br  Br2  1  0.90106300  0.91522300  0.77216200  1
  Br  Br3  1  0.40106300  0.08477700  0.22783800  1
  Br  Br4  1  0.90304400  0.90793100  0.20017000  1
  Br  Br5  1  0.40304400  0.09206900  0.79983000  1
  Br  Br6  1  0.08518800  0.58727400  0.71352600  1
  Br  Br7  1  0.58518800  0.41272600  0.28647400  1
  Br  Br8  1  0.17200800  0.92726000  0.03326300  1
  Br  Br9  1  0.67200800  0.07274000  0.96673700  1
  Br  Br10  1  0.81134800  0.62910800  0.52104400  1
  Br  Br11  1  0.31134800  0.37089200  0.47895600  1
  Br  Br12  1  0.50784400  0.80094300  0.51693700  1
  Br  Br13  1  0.00784400  0.19905700  0.48306300  1
  Br  Br14  1  0.51584300  0.68901000  0.97004500  1
  Br  Br15  1  0.01584300  0.31099000  0.02995500  1
  Br  Br16  1  0.28903200  0.41760700  0.02355900  1
  Br  Br17  1  0.78903200  0.58239300  0.97644100  1
  Br  Br18  1  0.71744400  0.06783400  0.50591800  1
  Br  Br19  1  0.21744400  0.93216600  0.49408200  1
loop_
_geom_bond_atom_site_label_1
_geom_bond_atom_site_label_2
_geom_bond_distance
_geom_bond_site_symmetry_2
Br0 Nd2 3.039020 1_555
Br0 Nd0 3.043442 1_554
Br0 Nd4 3.460191 1_555
Br0 K1 3.476176 1_555
Br1 Nd3 3.039020 1_555
Br1 Nd1 3.043442 1_556
Br1 Nd5 3.460191 1_555
Br1 K0 3.476176 1_555
Br2 Nd0 3.055400 1_655
Br2 Nd2 3.088451 1_655
Br2 Nd5 3.261988 1_555
Br2 K0 3.343783 1_565
Br3 Nd1 3.055400 1_555
Br3 Nd3 3.088451 1_555
Br3 Nd4 3.261988 1_555
Br3 K1 3.343783 1_545
Br4 Nd2 2.996125 1_655
Br4 Nd0 3.010210 1_654
Br4 K5 3.295493 1_555
Br4 K2 3.456759 1_565
Br5 Nd3 2.996125 1_555
Br5 Nd1 3.010210 1_556
Br5 K4 3.295493 1_555
Br5 K3 3.456759 1_545
Br6 Nd0 2.995756 1_555
Br6 Nd2 3.058833 1_555
Br6 K4 3.380120 1_555
Br6 K3 3.398517 1_555
Br7 Nd1 2.995756 1_555
Br7 Nd3 3.058833 1_555
Br7 K5 3.380120 1_555
Br7 K2 3.398517 1_555
Br8 Nd0 3.059160 1_554
Br8 Nd4 3.148863 1_565
Br8 K4 3.352290 1_564
Br8 K1 3.447377 1_555
Br8 K3 3.832839 1_554
Br9 Nd1 3.059160 1_556
Br9 Nd5 3.148863 1_545
Br9 K5 3.352290 1_546
Br9 K0 3.447377 1_555
Br9 K2 3.832839 1_556
Br10 Nd2 3.162329 1_655
Br10 Nd5 3.165961 1_555
Br10 K0 3.365396 1_555
Br10 K5 3.389633 1_555
Br10 K2 3.871615 1_555
Br11 Nd3 3.162329 1_555
Br11 Nd4 3.165961 1_555
Br11 K1 3.365396 1_555
Br11 K4 3.389633 1_555
Br11 K3 3.871615 1_555
Br12 Nd3 3.025885 1_565
Br12 Nd5 3.028751 1_555
Br12 K5 3.375090 1_555
Br12 K3 3.398995 1_555
Br12 K1 3.555762 1_555
Br13 Nd2 3.025885 1_545
Br13 Nd4 3.028751 1_555
Br13 K4 3.375090 1_555
Br13 K2 3.398995 1_455
Br13 K0 3.555762 1_455
Br14 Nd5 3.122029 1_555
Br14 Nd1 3.157040 1_556
Br14 K3 3.294871 1_555
Br14 K5 3.435528 1_556
Br14 K1 3.592843 1_556
Br15 Nd4 3.122029 1_555
Br15 Nd0 3.157040 1_554
Br15 K2 3.294871 1_455
Br15 K4 3.435528 1_554
Br15 K0 3.592843 1_454
Br16 Nd1 3.066893 1_555
Br16 Nd4 3.198522 1_555
Br16 K1 3.281982 1_555
Br16 K3 3.375322 1_554
Br16 K4 3.463137 1_554
Br17 Nd0 3.066893 1_655
Br17 Nd5 3.198522 1_555
Br17 K0 3.281982 1_555
Br17 K2 3.375322 1_556
Br17 K5 3.463137 1_556
Br18 Nd3 2.996954 1_555
Br18 Nd5 3.035651 1_545
Br18 K2 3.282419 1_555
Br18 K0 3.417370 1_555
Br18 K5 3.484497 1_545
Br19 Nd2 2.996954 1_555
Br19 Nd4 3.035651 1_565
Br19 K3 3.282419 1_555
Br19 K1 3.417370 1_555
Br19 K4 3.484497 1_565
