# generated using pymatgen
data_Te2MoW3(Se2S)2
_symmetry_space_group_name_H-M   'P 1'
_cell_length_a   3.34299783
_cell_length_b   3.34299783
_cell_length_c   38.12419300
_cell_angle_alpha   90.00000000
_cell_angle_beta   90.00000000
_cell_angle_gamma   119.99999670
_symmetry_Int_Tables_number   1
_chemical_formula_structural   Te2MoW3(Se2S)2
_chemical_formula_sum   'Te2 Mo1 W3 Se4 S2'
_cell_volume   368.98056859
_cell_formula_units_Z   1
loop_
 _symmetry_equiv_pos_site_id
 _symmetry_equiv_pos_as_xyz
  1  'x, y, z'
loop_
 _atom_site_type_symbol
 _atom_site_label
 _atom_site_symmetry_multiplicity
 _atom_site_fract_x
 _atom_site_fract_y
 _atom_site_fract_z
 _atom_site_occupancy
  Te  Te0  1  0.66666700  0.33333300  0.41962100  1
  Te  Te1  1  0.66666700  0.33333300  0.51967300  1
  Mo  Mo0  1  0.66666700  0.33333300  0.28177700  1
  W  W0  1  0.33333300  0.66666700  0.09393700  1
  W  W1  1  0.33333300  0.66666700  0.46966200  1
  W  W2  1  0.66666700  0.33333300  0.65757100  1
  Se  Se0  1  0.33333300  0.66666700  0.32546800  1
  Se  Se1  1  0.33333300  0.66666700  0.70146700  1
  Se  Se2  1  0.33333300  0.66666700  0.23805700  1
  Se  Se3  1  0.33333300  0.66666700  0.61365100  1
  S  S0  1  0.66666700  0.33333300  0.05396900  1
  S  S1  1  0.66666700  0.33333300  0.13389500  1
loop_
_geom_bond_atom_site_label_1
_geom_bond_atom_site_label_2
_geom_bond_distance
_geom_bond_site_symmetry_2
Te0 W1 2.713817 1_545
Te0 W1 2.713817 1_655
Te0 W1 2.713821 1_555
Te1 W1 2.713013 1_545
Te1 W1 2.713013 1_655
Te1 W1 2.713017 1_555
Mo0 Se0 2.549452 1_545
Mo0 Se0 2.549452 1_655
Mo0 Se0 2.549457 1_555
Mo0 Se2 2.550175 1_545
Mo0 Se2 2.550175 1_655
Mo0 Se2 2.550179 1_555
Se1 W2 2.554566 1_455
Se1 W2 2.554566 1_565
Se1 W2 2.554570 1_555
Se3 W2 2.555165 1_455
Se3 W2 2.555165 1_565
Se3 W2 2.555169 1_555
S0 W0 2.459067 1_545
S0 W0 2.459067 1_655
S0 W0 2.459072 1_555
S1 W0 2.458831 1_545
S1 W0 2.458831 1_655
S1 W0 2.458835 1_555
