# generated using pymatgen
data_Li2HN
_symmetry_space_group_name_H-M   'P 1'
_cell_length_a   4.90985600
_cell_length_b   4.90985600
_cell_length_c   5.35010500
_cell_angle_alpha   90.00000000
_cell_angle_beta   90.00000000
_cell_angle_gamma   90.00000000
_symmetry_Int_Tables_number   1
_chemical_formula_structural   Li2HN
_chemical_formula_sum   'Li8 H4 N4'
_cell_volume   128.97330098
_cell_formula_units_Z   4
loop_
 _symmetry_equiv_pos_site_id
 _symmetry_equiv_pos_as_xyz
  1  'x, y, z'
loop_
 _atom_site_type_symbol
 _atom_site_label
 _atom_site_symmetry_multiplicity
 _atom_site_fract_x
 _atom_site_fract_y
 _atom_site_fract_z
 _atom_site_occupancy
  Li  Li0  1  0.00000000  0.00000000  0.50192500  1
  Li  Li1  1  0.00000000  0.00000000  0.00192500  1
  Li  Li2  1  0.50000000  0.50000000  0.50870100  1
  Li  Li3  1  0.50000000  0.50000000  0.00870100  1
  Li  Li4  1  0.50000000  0.00000000  0.47118100  1
  Li  Li5  1  0.00000000  0.50000000  0.97118100  1
  Li  Li6  1  0.50000000  0.00000000  0.04580300  1
  Li  Li7  1  0.00000000  0.50000000  0.54580300  1
  H  H0  1  0.22800000  0.46064500  0.25666100  1
  H  H1  1  0.77200000  0.53935500  0.25666100  1
  H  H2  1  0.46064500  0.77200000  0.75666100  1
  H  H3  1  0.53935500  0.22800000  0.75666100  1
  N  N0  1  0.25018800  0.74457900  0.75763500  1
  N  N1  1  0.74981200  0.25542100  0.75763500  1
  N  N2  1  0.74457900  0.74981200  0.25763500  1
  N  N3  1  0.25542100  0.25018800  0.25763500  1
loop_
_geom_bond_atom_site_label_1
_geom_bond_atom_site_label_2
_geom_bond_distance
_geom_bond_site_symmetry_2
Li0 N3 2.188571 1_555
Li0 N2 2.188571 1_445
Li0 N0 2.225597 1_545
Li0 N1 2.225597 1_455
Li1 N0 2.188571 1_544
Li1 N1 2.188571 1_454
Li1 N3 2.225597 1_555
Li1 N2 2.225597 1_445
Li4 N3 2.063071 1_555
Li4 N2 2.063071 1_545
Li5 N0 2.063071 1_555
Li5 N1 2.063071 1_455
Li6 N3 2.058007 1_555
Li6 N2 2.058007 1_545
Li7 N0 2.058007 1_555
Li7 N1 2.058007 1_455
H0 N3 1.042061 1_555
H0 Li3 1.892286 1_555
H0 Li5 1.903494 1_554
H0 Li2 1.907652 1_555
H0 Li7 1.919250 1_555
H1 N2 1.042061 1_555
H1 Li3 1.892286 1_555
H1 Li5 1.903494 1_654
H1 Li2 1.907652 1_555
H1 Li7 1.919250 1_655
H2 N0 1.042061 1_555
H2 Li2 1.892286 1_555
H2 Li4 1.903494 1_565
H2 Li3 1.907652 1_556
H2 Li6 1.919250 1_566
H3 N1 1.042061 1_555
H3 Li2 1.892286 1_555
H3 Li4 1.903494 1_555
H3 Li3 1.907652 1_556
H3 Li6 1.919250 1_556
