# generated using pymatgen
data_Y4Zn5Ge6
_symmetry_space_group_name_H-M   'P 1'
_cell_length_a   9.59955652
_cell_length_b   9.59955652
_cell_length_c   15.34892800
_cell_angle_alpha   90.00000000
_cell_angle_beta   90.00000000
_cell_angle_gamma   154.46434057
_symmetry_Int_Tables_number   1
_chemical_formula_structural   Y4Zn5Ge6
_chemical_formula_sum   'Y8 Zn10 Ge12'
_cell_volume   609.72074082
_cell_formula_units_Z   2
loop_
 _symmetry_equiv_pos_site_id
 _symmetry_equiv_pos_as_xyz
  1  'x, y, z'
loop_
 _atom_site_type_symbol
 _atom_site_label
 _atom_site_symmetry_multiplicity
 _atom_site_fract_x
 _atom_site_fract_y
 _atom_site_fract_z
 _atom_site_occupancy
  Y  Y0  1  0.01833500  0.98166500  0.76299000  1
  Y  Y1  1  0.98166500  0.01833500  0.26299000  1
  Y  Y2  1  0.17524600  0.82475400  0.31790100  1
  Y  Y3  1  0.82475400  0.17524600  0.81790100  1
  Y  Y4  1  0.16777400  0.83222600  0.95932500  1
  Y  Y5  1  0.83222600  0.16777400  0.45932500  1
  Y  Y6  1  0.03292100  0.96707900  0.49967300  1
  Y  Y7  1  0.96707900  0.03292100  0.99967300  1
  Zn  Zn0  1  0.34484400  0.65515600  0.98966000  1
  Zn  Zn1  1  0.65515600  0.34484400  0.48966000  1
  Zn  Zn2  1  0.30054400  0.69945600  0.63837800  1
  Zn  Zn3  1  0.69945600  0.30054400  0.13837800  1
  Zn  Zn4  1  0.64988800  0.35011200  0.78184300  1
  Zn  Zn5  1  0.35011200  0.64988800  0.28184300  1
  Zn  Zn6  1  0.15167800  0.84832200  0.63585800  1
  Zn  Zn7  1  0.84832200  0.15167800  0.13585800  1
  Zn  Zn8  1  0.43444200  0.56555800  0.57876000  1
  Zn  Zn9  1  0.56555800  0.43444200  0.07876000  1
  Ge  Ge0  1  0.22766100  0.77233900  0.49807900  1
  Ge  Ge1  1  0.77233900  0.22766100  0.99807900  1
  Ge  Ge2  1  0.43081600  0.56918400  0.85648600  1
  Ge  Ge3  1  0.56918400  0.43081600  0.35648600  1
  Ge  Ge4  1  0.22246500  0.77753500  0.77644500  1
  Ge  Ge5  1  0.77753500  0.22246500  0.27644500  1
  Ge  Ge6  1  0.55989900  0.44010100  0.90852700  1
  Ge  Ge7  1  0.44010100  0.55989900  0.40852700  1
  Ge  Ge8  1  0.56746600  0.43253400  0.63345000  1
  Ge  Ge9  1  0.43253400  0.56746600  0.13345000  1
  Ge  Ge10  1  0.11339700  0.88660300  0.14538600  1
  Ge  Ge11  1  0.88660300  0.11339700  0.64538600  1
loop_
_geom_bond_atom_site_label_1
_geom_bond_atom_site_label_2
_geom_bond_distance
_geom_bond_site_symmetry_2
Y0 Zn6 3.168843 1_555
Y0 Zn4 3.263762 1_565
Y0 Zn4 3.263762 1_455
Y1 Zn7 3.168843 1_555
Y1 Zn5 3.263762 1_545
Y1 Zn5 3.263762 1_655
Y6 Zn6 3.051878 1_555
Y6 Zn8 3.061788 1_565
Y6 Zn8 3.061788 1_455
Y6 Zn1 3.124568 1_565
Y6 Zn1 3.124568 1_455
Y7 Zn7 3.051878 1_556
Y7 Zn9 3.061788 1_656
Y7 Zn9 3.061788 1_546
Y7 Zn0 3.124568 1_655
Y7 Zn0 3.124568 1_545
Ge0 Zn1 2.522026 1_565
Ge0 Zn1 2.522026 1_455
Ge0 Zn6 2.548801 1_555
Ge0 Zn2 2.549447 1_555
Ge0 Y2 2.934524 1_555
Ge0 Y5 2.947553 1_565
Ge0 Y5 2.947553 1_455
Ge1 Zn0 2.522026 1_655
Ge1 Zn0 2.522026 1_545
Ge1 Zn7 2.548801 1_556
Ge1 Zn3 2.549447 1_556
Ge1 Y3 2.934524 1_555
Ge1 Y4 2.947553 1_655
Ge1 Y4 2.947553 1_545
Ge2 Ge6 2.545570 1_555
Ge2 Zn0 2.601850 1_555
Ge2 Y3 2.965727 1_565
Ge2 Y3 2.965727 1_455
Ge2 Y0 3.040672 1_545
Ge2 Y0 3.040672 1_655
Ge2 Y7 3.129222 1_455
Ge2 Y7 3.129222 1_565
Ge3 Ge7 2.545570 1_555
Ge3 Zn1 2.601850 1_555
Ge3 Y2 2.965727 1_655
Ge3 Y2 2.965727 1_545
Ge3 Y1 3.040672 1_455
Ge3 Y1 3.040672 1_565
Ge3 Y6 3.129222 1_545
Ge3 Y6 3.129222 1_655
Ge4 Zn4 2.520803 1_565
Ge4 Zn4 2.520803 1_455
Ge4 Zn6 2.532421 1_555
Ge4 Zn2 2.574552 1_555
Ge4 Y3 2.928150 1_455
Ge4 Y3 2.928150 1_565
Ge4 Y4 2.987977 1_555
Ge5 Zn5 2.520803 1_545
Ge5 Zn5 2.520803 1_655
Ge5 Zn7 2.532421 1_555
Ge5 Zn3 2.574552 1_555
Ge5 Y2 2.928150 1_655
Ge5 Y2 2.928150 1_545
Ge5 Y5 2.987977 1_555
Ge6 Zn4 2.572961 1_555
Ge6 Zn9 2.615042 1_556
Ge6 Y4 3.031287 1_545
Ge6 Y4 3.031287 1_655
Ge6 Y7 3.078738 1_565
Ge6 Y7 3.078738 1_455
Ge6 Y0 3.177503 1_545
Ge6 Y0 3.177503 1_655
Ge7 Zn5 2.572961 1_555
Ge7 Zn8 2.615042 1_555
Ge7 Y5 3.031287 1_455
Ge7 Y5 3.031287 1_565
Ge7 Y6 3.078738 1_655
Ge7 Y6 3.078738 1_545
Ge7 Y1 3.177503 1_565
Ge7 Y1 3.177503 1_455
Ge8 Zn8 2.628440 1_555
Ge8 Zn6 2.643583 1_655
Ge8 Zn6 2.643583 1_545
Ge8 Zn1 2.750803 1_555
Ge8 Zn4 2.751286 1_555
Ge8 Y6 3.022479 1_655
Ge8 Y6 3.022479 1_545
Ge8 Y0 3.049664 1_545
Ge8 Y0 3.049664 1_655
Ge9 Zn9 2.628440 1_555
Ge9 Zn7 2.643583 1_455
Ge9 Zn7 2.643583 1_565
Ge9 Zn0 2.750803 1_554
Ge9 Zn5 2.751286 1_555
Ge9 Y7 3.022479 1_564
Ge9 Y7 3.022479 1_454
Ge9 Y1 3.049664 1_565
Ge9 Y1 3.049664 1_455
Ge10 Zn9 2.519717 1_455
Ge10 Zn9 2.519717 1_565
Ge10 Zn3 2.666270 1_565
Ge10 Zn3 2.666270 1_455
Ge10 Y2 2.890094 1_555
Ge10 Y4 3.031911 1_554
Ge10 Y1 3.056549 1_465
Ge11 Zn8 2.519717 1_545
Ge11 Zn8 2.519717 1_655
Ge11 Zn2 2.666270 1_655
Ge11 Zn2 2.666270 1_545
Ge11 Y3 2.890094 1_555
Ge11 Y5 3.031911 1_555
Ge11 Y0 3.056549 1_645
