# generated using pymatgen
data_Mg14CoCuO16
_symmetry_space_group_name_H-M   'P 1'
_cell_length_a   8.51223425
_cell_length_b   8.51223425
_cell_length_c   4.25484452
_cell_angle_alpha   90.00000000
_cell_angle_beta   90.00000000
_cell_angle_gamma   90.00000000
_symmetry_Int_Tables_number   1
_chemical_formula_structural   Mg14CoCuO16
_chemical_formula_sum   'Mg14 Co1 Cu1 O16'
_cell_volume   308.29808556
_cell_formula_units_Z   1
loop_
 _symmetry_equiv_pos_site_id
 _symmetry_equiv_pos_as_xyz
  1  'x, y, z'
loop_
 _atom_site_type_symbol
 _atom_site_label
 _atom_site_symmetry_multiplicity
 _atom_site_fract_x
 _atom_site_fract_y
 _atom_site_fract_z
 _atom_site_occupancy
  Mg  Mg0  1  0.00000000  0.50000000  0.00000000  1
  Mg  Mg1  1  0.50000000  0.00000000  0.00000000  1
  Mg  Mg2  1  0.00000000  0.24991563  0.50000000  1
  Mg  Mg3  1  0.00000000  0.75008437  0.50000000  1
  Mg  Mg4  1  0.50000000  0.25206333  0.50000000  1
  Mg  Mg5  1  0.50000000  0.74793667  0.50000000  1
  Mg  Mg6  1  0.24991563  0.00000000  0.50000000  1
  Mg  Mg7  1  0.25206333  0.50000000  0.50000000  1
  Mg  Mg8  1  0.75008437  0.00000000  0.50000000  1
  Mg  Mg9  1  0.74793667  0.50000000  0.50000000  1
  Mg  Mg10  1  0.24932328  0.24932328  0.00000000  1
  Mg  Mg11  1  0.24932328  0.75067672  0.00000000  1
  Mg  Mg12  1  0.75067672  0.24932328  0.00000000  1
  Mg  Mg13  1  0.75067672  0.75067672  0.00000000  1
  Co  Co0  1  0.50000000  0.50000000  0.00000000  1
  Cu  Cu0  1  0.00000000  0.00000000  0.00000000  1
  O  O0  1  0.25427596  0.00000000  0.00000000  1
  O  O1  1  0.24951440  0.50000000  0.00000000  1
  O  O2  1  0.74572404  0.00000000  0.00000000  1
  O  O3  1  0.75048560  0.50000000  0.00000000  1
  O  O4  1  0.24941661  0.24941661  0.50000000  1
  O  O5  1  0.24941661  0.75058339  0.50000000  1
  O  O6  1  0.75058339  0.24941661  0.50000000  1
  O  O7  1  0.75058339  0.75058339  0.50000000  1
  O  O8  1  0.00000000  0.00000000  0.50000000  1
  O  O9  1  0.00000000  0.50000000  0.50000000  1
  O  O10  1  0.50000000  0.00000000  0.50000000  1
  O  O11  1  0.50000000  0.50000000  0.50000000  1
  O  O12  1  0.00000000  0.25427596  0.00000000  1
  O  O13  1  0.00000000  0.74572404  0.00000000  1
  O  O14  1  0.50000000  0.24951440  0.00000000  1
  O  O15  1  0.50000000  0.75048560  0.00000000  1
loop_
_geom_bond_atom_site_label_1
_geom_bond_atom_site_label_2
_geom_bond_distance
_geom_bond_site_symmetry_2
Mg0 O12 2.091661 1_555
Mg0 O13 2.091661 1_555
Mg0 O1 2.123925 1_555
Mg0 O3 2.123925 1_455
Mg0 O9 2.127422 1_554
Mg0 O9 2.127422 1_555
Mg1 O0 2.091661 1_555
Mg1 O2 2.091661 1_555
Mg1 O14 2.123925 1_555
Mg1 O15 2.123925 1_545
Mg1 O10 2.127422 1_555
Mg1 O10 2.127422 1_554
Mg2 O4 2.123097 1_555
Mg2 O6 2.123097 1_455
Mg2 O8 2.127340 1_555
Mg2 O12 2.127746 1_555
Mg2 O12 2.127746 1_556
Mg2 O9 2.128777 1_555
Mg3 O5 2.123097 1_555
Mg3 O7 2.123097 1_455
Mg3 O8 2.127340 1_565
Mg3 O13 2.127746 1_555
Mg3 O13 2.127746 1_556
Mg3 O9 2.128777 1_555
Mg4 O11 2.110495 1_555
Mg4 O14 2.127533 1_556
Mg4 O14 2.127533 1_555
Mg4 O6 2.133143 1_555
Mg4 O4 2.133143 1_555
Mg4 O10 2.145622 1_555
Mg5 O11 2.110495 1_555
Mg5 O15 2.127533 1_556
Mg5 O15 2.127533 1_555
Mg5 O5 2.133143 1_555
Mg5 O7 2.133143 1_555
Mg5 O10 2.145622 1_565
Mg6 O4 2.123097 1_555
Mg6 O5 2.123097 1_545
Mg6 O8 2.127340 1_555
Mg6 O0 2.127746 1_555
Mg6 O0 2.127746 1_556
Mg6 O10 2.128777 1_555
Mg7 O11 2.110495 1_555
Mg7 O1 2.127533 1_556
Mg7 O1 2.127533 1_555
Mg7 O5 2.133143 1_555
Mg7 O4 2.133143 1_555
Mg7 O9 2.145622 1_555
Mg8 O6 2.123097 1_555
Mg8 O7 2.123097 1_545
Mg8 O8 2.127340 1_655
Mg8 O2 2.127746 1_555
Mg8 O2 2.127746 1_556
Mg8 O10 2.128777 1_555
Mg9 O11 2.110495 1_555
Mg9 O3 2.127533 1_556
Mg9 O3 2.127533 1_555
Mg9 O6 2.133143 1_555
Mg9 O7 2.133143 1_555
Mg9 O9 2.145622 1_655
Mg10 O12 2.122717 1_555
Mg10 O0 2.122717 1_555
Mg10 O4 2.127423 1_554
Mg10 O4 2.127423 1_555
Mg10 O1 2.133820 1_555
Mg10 O14 2.133820 1_555
Mg11 O0 2.122717 1_565
Mg11 O13 2.122717 1_555
Mg11 O5 2.127423 1_554
Mg11 O5 2.127423 1_555
Mg11 O1 2.133820 1_555
Mg11 O15 2.133820 1_555
Mg12 O2 2.122717 1_555
Mg12 O12 2.122717 1_655
Mg12 O6 2.127423 1_554
Mg12 O6 2.127423 1_555
Mg12 O3 2.133820 1_555
Mg12 O14 2.133820 1_555
Mg13 O13 2.122717 1_655
Mg13 O2 2.122717 1_565
Mg13 O7 2.127423 1_555
Mg13 O7 2.127423 1_554
Mg13 O3 2.133820 1_555
Mg13 O15 2.133820 1_555
Co0 O11 2.127422 1_554
Co0 O11 2.127422 1_555
Co0 O3 2.132192 1_555
Co0 O1 2.132192 1_555
Co0 O14 2.132192 1_555
Co0 O15 2.132192 1_555
Cu0 O8 2.127422 1_555
Cu0 O8 2.127422 1_554
Cu0 O13 2.164457 1_545
Cu0 O2 2.164457 1_455
Cu0 O0 2.164457 1_555
Cu0 O12 2.164457 1_555
