# generated using pymatgen
data_Rb2Bi(IO3)5
_symmetry_space_group_name_H-M   'P 1'
_cell_length_a   8.41553300
_cell_length_b   8.49424000
_cell_length_c   12.67283491
_cell_angle_alpha   109.58079288
_cell_angle_beta   90.00000000
_cell_angle_gamma   90.00000000
_symmetry_Int_Tables_number   1
_chemical_formula_structural   Rb2Bi(IO3)5
_chemical_formula_sum   'Rb4 Bi2 I10 O30'
_cell_volume   853.51102605
_cell_formula_units_Z   2
loop_
 _symmetry_equiv_pos_site_id
 _symmetry_equiv_pos_as_xyz
  1  'x, y, z'
loop_
 _atom_site_type_symbol
 _atom_site_label
 _atom_site_symmetry_multiplicity
 _atom_site_fract_x
 _atom_site_fract_y
 _atom_site_fract_z
 _atom_site_occupancy
  Rb  Rb0  1  0.00000000  0.64804300  0.00000000  1
  Rb  Rb1  1  0.00000000  0.14804300  0.00000000  1
  Rb  Rb2  1  0.52549000  0.38332100  0.50000000  1
  Rb  Rb3  1  0.47451000  0.88332100  0.50000000  1
  Bi  Bi0  1  0.50000000  0.74697700  0.00000000  1
  Bi  Bi1  1  0.50000000  0.24697700  0.00000000  1
  I  I0  1  0.75711800  0.74330100  0.73357400  1
  I  I1  1  0.24288200  0.00972700  0.26642600  1
  I  I2  1  0.24288200  0.24330100  0.73357400  1
  I  I3  1  0.75711800  0.50972700  0.26642600  1
  I  I4  1  0.72870500  0.99360000  0.21126300  1
  I  I5  1  0.27129500  0.78233800  0.78873700  1
  I  I6  1  0.27129500  0.49360000  0.21126300  1
  I  I7  1  0.72870500  0.28233800  0.78873700  1
  I  I8  1  0.06072700  0.44038200  0.50000000  1
  I  I9  1  0.93927300  0.94038200  0.50000000  1
  O  O0  1  0.93174900  0.98706900  0.16191500  1
  O  O1  1  0.06825100  0.82515400  0.83808500  1
  O  O2  1  0.06825100  0.48706900  0.16191500  1
  O  O3  1  0.93174900  0.32515400  0.83808500  1
  O  O4  1  0.55785700  0.73523500  0.67494500  1
  O  O5  1  0.44214300  0.06029000  0.32505500  1
  O  O6  1  0.44214300  0.23523500  0.67494500  1
  O  O7  1  0.55785700  0.56029000  0.32505500  1
  O  O8  1  0.62031700  0.01153400  0.08451900  1
  O  O9  1  0.37968300  0.92701500  0.91548100  1
  O  O10  1  0.37968300  0.51153400  0.08451900  1
  O  O11  1  0.62031700  0.42701500  0.91548100  1
  O  O12  1  0.68603800  0.76708200  0.16138700  1
  O  O13  1  0.31396200  0.60569600  0.83861300  1
  O  O14  1  0.31396200  0.26708200  0.16138700  1
  O  O15  1  0.68603800  0.10569600  0.83861300  1
  O  O16  1  0.71431800  0.74764600  0.87742100  1
  O  O17  1  0.28568200  0.87022600  0.12257900  1
  O  O18  1  0.28568200  0.24764600  0.87742100  1
  O  O19  1  0.71431800  0.37022600  0.12257900  1
  O  O20  1  0.80968600  0.52213300  0.67211100  1
  O  O21  1  0.19031300  0.85002100  0.32788900  1
  O  O22  1  0.19031300  0.02213300  0.67211100  1
  O  O23  1  0.80968600  0.35002100  0.32788900  1
  O  O24  1  0.10181400  0.22754000  0.50000000  1
  O  O25  1  0.89818600  0.72754000  0.50000000  1
  O  O26  1  0.19587200  0.55431000  0.61384900  1
  O  O27  1  0.80412800  0.94046100  0.38615100  1
  O  O28  1  0.80412800  0.05431000  0.61384900  1
  O  O29  1  0.19587200  0.44046100  0.38615100  1
loop_
_geom_bond_atom_site_label_1
_geom_bond_atom_site_label_2
_geom_bond_distance
_geom_bond_site_symmetry_2
Bi0 O8 2.368352 1_565
Bi0 O9 2.368352 1_554
Bi0 O16 2.381606 1_554
Bi0 O17 2.381608 1_555
Bi0 O13 2.535576 1_554
Bi0 O12 2.535578 1_555
Bi0 O11 2.758240 1_554
Bi0 O10 2.758240 1_555
Bi1 O10 2.368352 1_555
Bi1 O11 2.368352 1_554
Bi1 O18 2.381606 1_554
Bi1 O19 2.381608 1_555
Bi1 O15 2.535576 1_554
Bi1 O14 2.535578 1_555
Bi1 O9 2.758240 1_544
Bi1 O8 2.758240 1_555
I0 O4 1.826080 1_555
I0 O20 1.830557 1_555
I0 O16 1.846387 1_555
I1 O5 1.826080 1_555
I1 O21 1.830567 1_545
I1 O17 1.846384 1_545
I2 O6 1.826080 1_555
I2 O22 1.830559 1_555
I2 O18 1.846387 1_555
I3 O7 1.826080 1_555
I3 O23 1.830565 1_555
I3 O19 1.846384 1_555
I4 O0 1.814017 1_555
I4 O12 1.848089 1_555
I4 O8 1.897132 1_565
I4 O27 2.487822 1_555
I5 O1 1.814016 1_555
I5 O13 1.848089 1_555
I5 O9 1.897129 1_555
I5 O26 2.487826 1_555
I6 O2 1.814017 1_555
I6 O14 1.848089 1_555
I6 O10 1.897132 1_555
I6 O29 2.487822 1_555
I7 O3 1.814016 1_555
I7 O15 1.848089 1_555
I7 O11 1.897129 1_555
I7 O28 2.487826 1_555
I8 O26 1.837330 1_555
I8 O29 1.837330 1_555
I8 O24 1.840698 1_555
I9 O28 1.837330 1_565
I9 O27 1.837330 1_555
I9 O25 1.840698 1_555
O0 Rb1 2.879325 1_665
O0 Rb0 2.978703 1_655
O1 Rb1 2.879325 1_566
O1 Rb0 2.978703 1_556
O2 Rb0 2.879325 1_555
O2 Rb1 2.978703 1_555
O3 Rb0 2.879325 1_656
O3 Rb1 2.978703 1_656
O4 Rb3 2.976370 1_555
O4 Rb2 3.079445 1_555
O5 Rb2 2.976370 1_555
O5 Rb3 3.079445 1_545
O6 Rb2 2.976370 1_555
O6 Rb3 3.079445 1_545
O7 Rb3 2.976370 1_555
O7 Rb2 3.079445 1_555
O12 Rb0 3.286372 1_655
O13 Rb0 3.286373 1_556
O14 Rb1 3.286372 1_555
O15 Rb1 3.286373 1_656
O16 Rb0 3.128876 1_656
O17 Rb0 3.128880 1_555
O18 Rb1 3.128876 1_556
O19 Rb1 3.128880 1_655
O20 Rb2 3.184946 1_555
O21 Rb3 3.184951 1_555
O22 Rb3 3.184952 1_545
O23 Rb2 3.184945 1_555
O26 Rb2 3.237464 1_555
O27 Rb3 3.237464 1_555
O28 Rb3 3.237464 1_545
O29 Rb2 3.237464 1_555
