# generated using pymatgen
data_ZrB4Ir3
_symmetry_space_group_name_H-M   'P 1'
_cell_length_a   7.60611987
_cell_length_b   7.60611986
_cell_length_c   3.52590972
_cell_angle_alpha   90.00000000
_cell_angle_beta   90.00000000
_cell_angle_gamma   120.00000022
_symmetry_Int_Tables_number   1
_chemical_formula_structural   ZrB4Ir3
_chemical_formula_sum   'Zr2 B8 Ir6'
_cell_volume   176.65590104
_cell_formula_units_Z   2
loop_
 _symmetry_equiv_pos_site_id
 _symmetry_equiv_pos_as_xyz
  1  'x, y, z'
loop_
 _atom_site_type_symbol
 _atom_site_label
 _atom_site_symmetry_multiplicity
 _atom_site_fract_x
 _atom_site_fract_y
 _atom_site_fract_z
 _atom_site_occupancy
  Zr  Zr0  1  0.33333300  0.66666700  0.25000000  1
  Zr  Zr1  1  0.66666700  0.33333300  0.75000000  1
  B  B0  1  0.39654971  0.94918147  0.75000000  1
  B  B1  1  0.05081853  0.44736724  0.75000000  1
  B  B2  1  0.55263276  0.60345029  0.75000000  1
  B  B3  1  0.60345029  0.05081853  0.25000000  1
  B  B4  1  0.94918147  0.55263276  0.25000000  1
  B  B5  1  0.44736724  0.39654971  0.25000000  1
  B  B6  1  -0.00000000  -0.00000000  0.50000000  1
  B  B7  1  -0.00000000  -0.00000000  -0.00000000  1
  Ir  Ir0  1  0.07433070  0.74277806  0.75000000  1
  Ir  Ir1  1  0.25722194  0.33155264  0.75000000  1
  Ir  Ir2  1  0.66844736  0.92566930  0.75000000  1
  Ir  Ir3  1  0.92566930  0.25722194  0.25000000  1
  Ir  Ir4  1  0.74277806  0.66844736  0.25000000  1
  Ir  Ir5  1  0.33155264  0.07433070  0.25000000  1
loop_
_geom_bond_atom_site_label_1
_geom_bond_atom_site_label_2
_geom_bond_distance
_geom_bond_site_symmetry_2
B0 Ir0 2.150264 1_555
B0 Ir2 2.163056 1_555
B0 Ir5 2.174656 1_565
B0 Ir5 2.174656 1_566
B0 B3 2.228368 1_565
B0 B3 2.228368 1_566
B0 Zr1 2.599132 1_565
B0 Zr0 2.631252 1_555
B0 Zr0 2.631252 1_556
B1 Ir1 2.150259 1_555
B1 Ir0 2.163064 1_555
B1 Ir3 2.174652 1_455
B1 Ir3 2.174652 1_456
B1 B4 2.228376 1_455
B1 B4 2.228376 1_456
B1 Zr1 2.599132 1_455
B1 Zr0 2.631255 1_555
B1 Zr0 2.631255 1_556
B2 Ir2 2.150266 1_555
B2 Ir1 2.163060 1_555
B2 Ir4 2.174651 1_555
B2 Ir4 2.174651 1_556
B2 B5 2.228368 1_555
B2 B5 2.228368 1_556
B2 Zr1 2.599132 1_555
B2 Zr0 2.631263 1_555
B2 Zr0 2.631263 1_556
B3 Ir3 2.150264 1_555
B3 Ir5 2.163056 1_555
B3 Ir2 2.174656 1_544
B3 Ir2 2.174656 1_545
B3 Zr0 2.599132 1_545
B3 Zr1 2.631252 1_554
B3 Zr1 2.631252 1_555
B4 Ir4 2.150259 1_555
B4 Ir3 2.163064 1_555
B4 Ir0 2.174652 1_655
B4 Ir0 2.174652 1_654
B4 Zr0 2.599132 1_655
B4 Zr1 2.631255 1_555
B4 Zr1 2.631255 1_554
B5 Ir5 2.150266 1_555
B5 Ir4 2.163060 1_555
B5 Ir1 2.174651 1_554
B5 Ir1 2.174651 1_555
B5 Zr0 2.599132 1_555
B5 Zr1 2.631263 1_554
B5 Zr1 2.631263 1_555
B6 B7 1.762955 1_556
B6 B7 1.762955 1_555
B6 Ir4 2.455708 1_445
B6 Ir1 2.455708 1_555
B6 Ir2 2.455708 1_445
B6 Ir5 2.455708 1_555
B6 Ir0 2.455708 1_545
B6 Ir3 2.455708 1_455
B7 Ir4 2.455708 1_445
B7 Ir1 2.455708 1_554
B7 Ir2 2.455708 1_444
B7 Ir5 2.455708 1_555
B7 Ir0 2.455708 1_544
B7 Ir3 2.455708 1_455
