# generated using pymatgen
data_Li4Ti3V6O18
_symmetry_space_group_name_H-M   'P 1'
_cell_length_a   2.98734700
_cell_length_b   9.01153100
_cell_length_c   25.35725400
_cell_angle_alpha   90.00000000
_cell_angle_beta   90.00000000
_cell_angle_gamma   90.00000000
_symmetry_Int_Tables_number   1
_chemical_formula_structural   Li4Ti3V6O18
_chemical_formula_sum   'Li8 Ti6 V12 O36'
_cell_volume   682.63173381
_cell_formula_units_Z   2
loop_
 _symmetry_equiv_pos_site_id
 _symmetry_equiv_pos_as_xyz
  1  'x, y, z'
loop_
 _atom_site_type_symbol
 _atom_site_label
 _atom_site_symmetry_multiplicity
 _atom_site_fract_x
 _atom_site_fract_y
 _atom_site_fract_z
 _atom_site_occupancy
  Li  Li0  1  0.00000000  0.94513100  0.99100800  1
  Li  Li1  1  0.00000000  0.93670600  0.19712400  1
  Li  Li2  1  0.00000000  0.06329400  0.69712400  1
  Li  Li3  1  0.00000000  0.05486900  0.49100800  1
  Li  Li4  1  0.00000000  0.43994800  0.50871700  1
  Li  Li5  1  0.00000000  0.42755800  0.29785400  1
  Li  Li6  1  0.00000000  0.57244200  0.79785400  1
  Li  Li7  1  0.00000000  0.56005200  0.00871700  1
  Ti  Ti0  1  0.00000000  0.74634800  0.10168100  1
  Ti  Ti1  1  0.00000000  0.25365200  0.60168100  1
  Ti  Ti2  1  0.00000000  0.23890100  0.39823300  1
  Ti  Ti3  1  0.50000000  0.39174000  0.69693200  1
  Ti  Ti4  1  0.50000000  0.60826000  0.19693200  1
  Ti  Ti5  1  0.00000000  0.76109900  0.89823300  1
  V  V0  1  0.00000000  0.74760800  0.49958100  1
  V  V1  1  0.00000000  0.77730900  0.31152200  1
  V  V2  1  0.50000000  0.89688900  0.58553800  1
  V  V3  1  0.50000000  0.89235400  0.80346700  1
  V  V4  1  0.50000000  0.10764600  0.30346700  1
  V  V5  1  0.50000000  0.10311100  0.08553800  1
  V  V6  1  0.00000000  0.22269100  0.81152200  1
  V  V7  1  0.00000000  0.25239200  0.99958100  1
  V  V8  1  0.00000000  0.27264900  0.19038800  1
  V  V9  1  0.50000000  0.40292700  0.91408300  1
  V  V10  1  0.50000000  0.59707300  0.41408300  1
  V  V11  1  0.00000000  0.72735100  0.69038800  1
  O  O0  1  0.00000000  0.74728000  0.42559300  1
  O  O1  1  0.00000000  0.74871000  0.57461200  1
  O  O2  1  0.50000000  0.81809200  0.94106900  1
  O  O3  1  0.50000000  0.80069900  0.15778000  1
  O  O4  1  0.50000000  0.85426800  0.66318300  1
  O  O5  1  0.00000000  0.83466000  0.75837000  1
  O  O6  1  0.50000000  0.89681700  0.50399000  1
  O  O7  1  0.50000000  0.90812800  0.28132200  1
  O  O8  1  0.00000000  0.94235800  0.85344900  1
  O  O9  1  0.00000000  0.94780400  0.08163500  1
  O  O10  1  0.00000000  0.05219600  0.58163500  1
  O  O11  1  0.00000000  0.05764200  0.35344900  1
  O  O12  1  0.50000000  0.09187200  0.78132200  1
  O  O13  1  0.50000000  0.10318300  0.00399000  1
  O  O14  1  0.00000000  0.16534000  0.25837000  1
  O  O15  1  0.50000000  0.14573200  0.16318300  1
  O  O16  1  0.50000000  0.19930100  0.65778000  1
  O  O17  1  0.50000000  0.18190800  0.44106900  1
  O  O18  1  0.00000000  0.25129000  0.07461200  1
  O  O19  1  0.00000000  0.25272000  0.92559300  1
  O  O20  1  0.50000000  0.31535700  0.55945800  1
  O  O21  1  0.50000000  0.29520000  0.34119400  1
  O  O22  1  0.50000000  0.34874600  0.83787900  1
  O  O23  1  0.00000000  0.33456300  0.74336600  1
  O  O24  1  0.50000000  0.40188200  0.99563900  1
  O  O25  1  0.50000000  0.40425000  0.22008600  1
  O  O26  1  0.00000000  0.43869200  0.64816000  1
  O  O27  1  0.00000000  0.44326100  0.41708700  1
  O  O28  1  0.00000000  0.55673900  0.91708700  1
  O  O29  1  0.00000000  0.56130800  0.14816000  1
  O  O30  1  0.50000000  0.59575000  0.72008600  1
  O  O31  1  0.50000000  0.59811800  0.49563900  1
  O  O32  1  0.00000000  0.66543700  0.24336600  1
  O  O33  1  0.50000000  0.65125400  0.33787900  1
  O  O34  1  0.50000000  0.70480000  0.84119400  1
  O  O35  1  0.50000000  0.68464300  0.05945800  1
loop_
_geom_bond_atom_site_label_1
_geom_bond_atom_site_label_2
_geom_bond_distance
_geom_bond_site_symmetry_2
Li0 O13 2.089983 1_566
Li0 O13 2.089983 1_466
Li0 O2 2.268308 1_555
Li0 O2 2.268308 1_455
Li0 O9 2.298178 1_556
Li1 O3 2.174523 1_455
Li1 O3 2.174523 1_555
Li1 O15 2.553409 1_565
Li1 O15 2.553409 1_465
Li1 O14 2.580100 1_565
Li2 O16 2.174523 1_555
Li2 O16 2.174523 1_455
Li2 O4 2.553409 1_545
Li2 O4 2.553409 1_445
Li2 O5 2.580100 1_545
Li3 O6 2.089983 1_545
Li3 O6 2.089983 1_445
Li3 O17 2.268308 1_455
Li3 O17 2.268308 1_555
Li3 O10 2.298178 1_555
Li4 O31 2.091092 1_455
Li4 O31 2.091092 1_555
Li4 O20 2.268725 1_455
Li4 O20 2.268725 1_555
Li4 O27 2.323677 1_555
Li5 O21 2.204875 1_455
Li5 O21 2.204875 1_555
Li5 O25 2.482719 1_455
Li5 O25 2.482719 1_555
Li5 O32 2.550344 1_555
Li5 O14 2.566343 1_555
Li6 O34 2.204875 1_455
Li6 O34 2.204875 1_555
Li6 O30 2.482719 1_555
Li6 O30 2.482719 1_455
Li6 O23 2.550344 1_555
Li6 O5 2.566343 1_555
Li7 O24 2.091092 1_454
Li7 O24 2.091092 1_554
Li7 O35 2.268725 1_455
Li7 O35 2.268725 1_555
Li7 O28 2.323677 1_554
O0 V0 1.876135 1_555
O0 V10 2.036778 1_455
O0 V10 2.036778 1_555
O1 V0 1.902606 1_555
O1 V2 2.022597 1_555
O1 V2 2.022597 1_455
O2 Ti5 1.916945 1_555
O2 Ti5 1.916945 1_655
O3 Ti4 1.998242 1_555
O3 Ti0 2.120025 1_655
O3 Ti0 2.120025 1_555
O4 V11 2.003755 1_655
O4 V11 2.003755 1_555
O4 V2 2.005977 1_555
O5 V3 1.951677 1_455
O5 V3 1.951677 1_555
O5 V11 1.976547 1_555
O6 V0 2.012837 1_555
O6 V0 2.012837 1_655
O6 V2 2.067833 1_555
O7 V4 1.883612 1_565
O7 V1 2.051158 1_655
O7 V1 2.051158 1_555
O8 Ti5 1.989384 1_555
O8 V3 2.010082 1_455
O8 V3 2.010082 1_555
O9 Ti0 1.885247 1_555
O9 V5 2.049294 1_565
O9 V5 2.049294 1_465
O10 Ti1 1.885247 1_555
O10 V2 2.049294 1_445
O10 V2 2.049294 1_545
O11 Ti2 1.989384 1_555
O11 V4 2.010082 1_455
O11 V4 2.010082 1_555
O12 V3 1.883612 1_545
O12 V6 2.051158 1_555
O12 V6 2.051158 1_655
O13 V7 2.012837 1_654
O13 V7 2.012837 1_554
O13 V5 2.067833 1_555
O14 V4 1.951677 1_555
O14 V4 1.951677 1_455
O14 V8 1.976547 1_555
O15 V8 2.003755 1_655
O15 V8 2.003755 1_555
O15 V5 2.005977 1_555
O16 Ti3 1.998242 1_555
O16 Ti1 2.120025 1_555
O16 Ti1 2.120025 1_655
O17 Ti2 1.916945 1_655
O17 Ti2 1.916945 1_555
O18 V7 1.902606 1_554
O18 V5 2.022597 1_555
O18 V5 2.022597 1_455
O19 V7 1.876135 1_555
O19 V9 2.036778 1_555
O19 V9 2.036778 1_455
O20 Ti1 1.920044 1_655
O20 Ti1 1.920044 1_555
O21 V4 1.942109 1_555
O21 Ti2 2.140185 1_655
O21 Ti2 2.140185 1_555
O22 V6 1.992014 1_655
O22 V6 1.992014 1_555
O22 V9 1.993055 1_555
O23 Ti3 1.970509 1_555
O23 Ti3 1.970509 1_455
O23 V6 2.000797 1_555
O24 V7 2.013907 1_655
O24 V7 2.013907 1_555
O24 V9 2.068058 1_555
O25 Ti4 1.929918 1_555
O25 V8 2.050508 1_655
O25 V8 2.050508 1_555
O26 Ti3 1.984835 1_555
O26 Ti3 1.984835 1_455
O26 Ti1 2.041956 1_555
O27 Ti2 1.902641 1_555
O27 V10 2.039138 1_455
O27 V10 2.039138 1_555
O28 Ti5 1.902641 1_555
O28 V9 2.039138 1_555
O28 V9 2.039138 1_455
O29 Ti4 1.984835 1_555
O29 Ti4 1.984835 1_455
O29 Ti0 2.041956 1_555
O30 Ti3 1.929918 1_555
O30 V11 2.050508 1_555
O30 V11 2.050508 1_655
O31 V0 2.013907 1_655
O31 V0 2.013907 1_555
O31 V10 2.068058 1_555
O32 Ti4 1.970509 1_555
O32 Ti4 1.970509 1_455
O32 V1 2.000797 1_555
O33 V1 1.992014 1_555
O33 V1 1.992014 1_655
O33 V10 1.993055 1_555
O34 V3 1.942109 1_555
O34 Ti5 2.140185 1_655
O34 Ti5 2.140185 1_555
O35 Ti0 1.920044 1_555
O35 Ti0 1.920044 1_655
