# generated using pymatgen
data_SrLaGaO4
_symmetry_space_group_name_H-M   'P 1'
_cell_length_a   6.87261225
_cell_length_b   6.87261225
_cell_length_c   6.87261225
_cell_angle_alpha   147.03467953
_cell_angle_beta   147.03467953
_cell_angle_gamma   47.31243625
_symmetry_Int_Tables_number   1
_chemical_formula_structural   SrLaGaO4
_chemical_formula_sum   'Sr1 La1 Ga1 O4'
_cell_volume   95.74193710
_cell_formula_units_Z   1
loop_
 _symmetry_equiv_pos_site_id
 _symmetry_equiv_pos_as_xyz
  1  'x, y, z'
loop_
 _atom_site_type_symbol
 _atom_site_label
 _atom_site_symmetry_multiplicity
 _atom_site_fract_x
 _atom_site_fract_y
 _atom_site_fract_z
 _atom_site_occupancy
  Sr  Sr0  1  0.64176400  0.64176400  0.00000000  1
  La  La0  1  0.35792000  0.35792000  0.00000000  1
  Ga  Ga0  1  0.00459000  0.00459000  0.00000000  1
  O  O0  1  0.99491300  0.49491300  0.50000000  1
  O  O1  1  0.49491300  0.99491300  0.50000000  1
  O  O2  1  0.83507600  0.83507600  0.00000000  1
  O  O3  1  0.17082400  0.17082400  0.00000000  1
loop_
_geom_bond_atom_site_label_1
_geom_bond_atom_site_label_2
_geom_bond_distance
_geom_bond_site_symmetry_2
La0 O3 2.355577 1_555
La0 O1 2.603281 1_555
La0 O0 2.603281 1_555
La0 O1 2.603281 1_544
La0 O0 2.603281 1_454
La0 O2 2.772580 1_455
La0 O2 2.772580 1_545
La0 O2 2.772580 1_556
La0 O2 2.772580 1_444
Ga0 O0 1.953736 1_444
Ga0 O1 1.953736 1_444
Ga0 O1 1.953736 1_545
Ga0 O0 1.953736 1_455
Ga0 O3 2.092920 1_555
Ga0 O2 2.134216 1_445
O0 Sr0 2.687120 1_555
O0 Sr0 2.687120 1_656
O1 Sr0 2.687120 1_555
O1 Sr0 2.687120 1_566
O2 Sr0 2.433838 1_555
O3 Sr0 2.781787 1_545
O3 Sr0 2.781787 1_455
O3 Sr0 2.781787 1_556
O3 Sr0 2.781787 1_444
