# generated using pymatgen
data_TiCuS4
_symmetry_space_group_name_H-M   'P 1'
_cell_length_a   6.93450018
_cell_length_b   6.93450018
_cell_length_c   6.93450018
_cell_angle_alpha   119.15888498
_cell_angle_beta   119.11687521
_cell_angle_gamma   91.49984013
_symmetry_Int_Tables_number   1
_chemical_formula_structural   TiCuS4
_chemical_formula_sum   'Ti2 Cu2 S8'
_cell_volume   238.77680161
_cell_formula_units_Z   2
loop_
 _symmetry_equiv_pos_site_id
 _symmetry_equiv_pos_as_xyz
  1  'x, y, z'
loop_
 _atom_site_type_symbol
 _atom_site_label
 _atom_site_symmetry_multiplicity
 _atom_site_fract_x
 _atom_site_fract_y
 _atom_site_fract_z
 _atom_site_occupancy
  Ti  Ti0  1  0.00000000  0.00000000  0.00000000  1
  Ti  Ti1  1  0.50000000  0.00000000  0.50000000  1
  Cu  Cu0  1  0.87787200  0.62787200  0.25000000  1
  Cu  Cu1  1  0.12212800  0.37212800  0.75000000  1
  S  S0  1  0.26618000  0.75791700  0.50826300  1
  S  S1  1  0.74965400  0.75791700  0.99173700  1
  S  S2  1  0.74383400  0.75648000  0.51264600  1
  S  S3  1  0.74383400  0.23118800  0.98735400  1
  S  S4  1  0.73382000  0.24208300  0.49173700  1
  S  S5  1  0.25034600  0.24208300  0.00826300  1
  S  S6  1  0.25616600  0.24352000  0.48735400  1
  S  S7  1  0.25616600  0.76881200  0.01264600  1
loop_
_geom_bond_atom_site_label_1
_geom_bond_atom_site_label_2
_geom_bond_distance
_geom_bond_site_symmetry_2
Cu0 S1 2.208466 1_554
Cu0 S0 2.208466 1_655
Cu0 S3 2.254898 1_554
Cu0 S2 2.254898 1_555
Cu1 S5 2.208466 1_556
Cu1 S4 2.208466 1_455
Cu1 S6 2.254898 1_555
Cu1 S7 2.254898 1_556
S0 Ti1 2.343519 1_565
S1 Ti0 2.343519 1_666
S2 Ti0 2.422369 1_666
S2 Ti1 2.422369 1_565
S3 Ti1 2.422369 1_555
S3 Ti0 2.422369 1_656
S4 Ti1 2.343519 1_555
S5 Ti0 2.343519 1_555
S6 Ti0 2.422369 1_555
S6 Ti1 2.422369 1_555
S7 Ti0 2.422369 1_565
S7 Ti1 2.422369 1_565
