# generated using pymatgen
data_Mg(MoO2)2
_symmetry_space_group_name_H-M   'P 1'
_cell_length_a   3.11760502
_cell_length_b   10.31986262
_cell_length_c   10.37958965
_cell_angle_alpha   90.01353760
_cell_angle_beta   89.99773110
_cell_angle_gamma   89.98732370
_symmetry_Int_Tables_number   1
_chemical_formula_structural   Mg(MoO2)2
_chemical_formula_sum   'Mg4 Mo8 O16'
_cell_volume   333.94517191
_cell_formula_units_Z   4
loop_
 _symmetry_equiv_pos_site_id
 _symmetry_equiv_pos_as_xyz
  1  'x, y, z'
loop_
 _atom_site_type_symbol
 _atom_site_label
 _atom_site_symmetry_multiplicity
 _atom_site_fract_x
 _atom_site_fract_y
 _atom_site_fract_z
 _atom_site_occupancy
  Mg  Mg0  1  0.26154200  0.74997700  0.14231300  1
  Mg  Mg1  1  0.26143300  0.25018700  0.35750300  1
  Mg  Mg2  1  0.73857000  0.74981700  0.64249000  1
  Mg  Mg3  1  0.73842800  0.25004000  0.85767700  1
  Mo  Mo0  1  0.75270700  0.57362700  0.38208600  1
  Mo  Mo1  1  0.75276100  0.07365000  0.11795500  1
  Mo  Mo2  1  0.24721500  0.07372000  0.61794300  1
  Mo  Mo3  1  0.75280200  0.42641400  0.11790100  1
  Mo  Mo4  1  0.24726200  0.42637400  0.61791200  1
  Mo  Mo5  1  0.75281900  0.92628400  0.38206100  1
  Mo  Mo6  1  0.24727600  0.92634900  0.88204900  1
  Mo  Mo7  1  0.24717700  0.57358200  0.88209800  1
  O  O0  1  0.25307300  0.88431200  0.52102100  1
  O  O1  1  0.74696900  0.11568600  0.47898500  1
  O  O2  1  0.25309600  0.99993000  0.24996000  1
  O  O3  1  0.74709600  0.88426000  0.02100400  1
  O  O4  1  0.74689300  0.61568400  0.02096800  1
  O  O5  1  0.75900800  0.25010900  0.22758600  1
  O  O6  1  0.25294000  0.11573200  0.97900200  1
  O  O7  1  0.24095600  0.25012900  0.72768100  1
  O  O8  1  0.25305600  0.49994300  0.25002300  1
  O  O9  1  0.74693600  0.00007500  0.75004800  1
  O  O10  1  0.25284500  0.61567000  0.52098200  1
  O  O11  1  0.24099100  0.74988800  0.77241200  1
  O  O12  1  0.75902300  0.74987500  0.27231700  1
  O  O13  1  0.74691900  0.50004300  0.74998100  1
  O  O14  1  0.25308400  0.38431300  0.97903000  1
  O  O15  1  0.74712300  0.38433200  0.47901400  1
loop_
_geom_bond_atom_site_label_1
_geom_bond_atom_site_label_2
_geom_bond_distance
_geom_bond_site_symmetry_2
Mg0 O12 2.055835 1_555
Mg0 O12 2.067630 1_455
Mg0 O4 2.407221 1_555
Mg0 O3 2.408092 1_555
Mg0 O3 2.465385 1_455
Mg0 O4 2.466110 1_455
Mg1 O5 2.055383 1_555
Mg1 O5 2.066899 1_455
Mg1 O15 2.408357 1_555
Mg1 O1 2.409969 1_555
Mg1 O15 2.464981 1_455
Mg1 O1 2.467938 1_455
Mg2 O11 2.055426 1_555
Mg2 O11 2.066924 1_655
Mg2 O10 2.408421 1_555
Mg2 O0 2.409786 1_555
Mg2 O10 2.464906 1_655
Mg2 O0 2.467913 1_655
Mg3 O7 2.055760 1_555
Mg3 O7 2.067597 1_655
Mg3 O14 2.407132 1_555
Mg3 O6 2.408198 1_555
Mg3 O6 2.465748 1_655
Mg3 O14 2.466050 1_655
Mo0 O12 2.146567 1_555
Mo0 O10 2.166669 1_555
Mo0 O10 2.167508 1_655
Mo0 O15 2.197631 1_555
Mo0 O8 2.209950 1_555
Mo0 O8 2.211171 1_655
Mo1 O5 2.147196 1_555
Mo1 O6 2.167270 1_554
Mo1 O6 2.168128 1_654
Mo1 O3 2.198192 1_545
Mo1 O2 2.209882 1_545
Mo1 O2 2.211194 1_645
Mo2 O7 2.147339 1_555
Mo2 O1 2.166970 1_555
Mo2 O1 2.168017 1_455
Mo2 O0 2.198217 1_545
Mo2 O9 2.210222 1_555
Mo2 O9 2.211609 1_455
Mo3 O5 2.146593 1_555
Mo3 O14 2.166513 1_554
Mo3 O14 2.167558 1_654
Mo3 O4 2.197428 1_555
Mo3 O8 2.209676 1_555
Mo3 O8 2.211106 1_655
Mo4 O7 2.146540 1_555
Mo4 O15 2.166678 1_555
Mo4 O15 2.167522 1_455
Mo4 O10 2.197650 1_555
Mo4 O13 2.209949 1_555
Mo4 O13 2.211143 1_455
Mo5 O12 2.147371 1_555
Mo5 O0 2.166978 1_555
Mo5 O0 2.168062 1_655
Mo5 O1 2.198171 1_565
Mo5 O2 2.210204 1_555
Mo5 O2 2.211582 1_655
Mo6 O11 2.147247 1_555
Mo6 O3 2.167296 1_556
Mo6 O3 2.168159 1_456
Mo6 O6 2.198138 1_565
Mo6 O9 2.209866 1_565
Mo6 O9 2.211200 1_465
Mo7 O11 2.146607 1_555
Mo7 O4 2.166504 1_556
Mo7 O4 2.167557 1_456
Mo7 O14 2.197414 1_555
Mo7 O13 2.209670 1_555
Mo7 O13 2.211118 1_455
