# generated using pymatgen
data_ZnFe(SiO3)2
_symmetry_space_group_name_H-M   'P 1'
_cell_length_a   5.38170133
_cell_length_b   6.85015364
_cell_length_c   13.33921667
_cell_angle_alpha   93.40630736
_cell_angle_beta   97.70335317
_cell_angle_gamma   74.75448121
_symmetry_Int_Tables_number   1
_chemical_formula_structural   ZnFe(SiO3)2
_chemical_formula_sum   'Zn4 Fe4 Si8 O24'
_cell_volume   470.01869705
_cell_formula_units_Z   4
loop_
 _symmetry_equiv_pos_site_id
 _symmetry_equiv_pos_as_xyz
  1  'x, y, z'
loop_
 _atom_site_type_symbol
 _atom_site_label
 _atom_site_symmetry_multiplicity
 _atom_site_fract_x
 _atom_site_fract_y
 _atom_site_fract_z
 _atom_site_occupancy
  Zn  Zn0  1  0.13487300  0.23335300  0.38271000  1
  Zn  Zn1  1  0.62997300  0.23919300  0.88113600  1
  Zn  Zn2  1  0.37063100  0.76101800  0.11872400  1
  Zn  Zn3  1  0.86484100  0.76662000  0.61729500  1
  Fe  Fe0  1  0.19725900  0.10335300  0.94783300  1
  Fe  Fe1  1  0.80291300  0.89694800  0.05218900  1
  Fe  Fe2  1  0.69912400  0.10522800  0.44824300  1
  Fe  Fe3  1  0.30053100  0.89484000  0.55168300  1
  Si  Si0  1  0.42240800  0.21843500  0.19381100  1
  Si  Si1  1  0.91299900  0.22171000  0.69268900  1
  Si  Si2  1  0.66885600  0.61284900  0.38954400  1
  Si  Si3  1  0.16220300  0.61443800  0.89028100  1
  Si  Si4  1  0.83811900  0.38531900  0.10981500  1
  Si  Si5  1  0.33086400  0.38731200  0.61045700  1
  Si  Si6  1  0.08678900  0.77830500  0.30722400  1
  Si  Si7  1  0.57776700  0.78164900  0.80627200  1
  O  O0  1  0.65928100  0.32731900  0.18900000  1
  O  O1  1  0.14961000  0.33215500  0.68963600  1
  O  O2  1  0.37406100  0.61846500  0.33442800  1
  O  O3  1  0.86581900  0.62440000  0.83553300  1
  O  O4  1  0.84978300  0.66810900  0.31020800  1
  O  O5  1  0.34139900  0.67241000  0.81129500  1
  O  O6  1  0.13445900  0.37571600  0.16451100  1
  O  O7  1  0.62556600  0.38145600  0.66572300  1
  O  O8  1  0.43569300  0.14835600  0.30957700  1
  O  O9  1  0.92660900  0.14584900  0.80719400  1
  O  O10  1  0.80556900  0.38170000  0.42589300  1
  O  O11  1  0.30335700  0.38497500  0.92662300  1
  O  O12  1  0.07390100  0.85396700  0.19274200  1
  O  O13  1  0.56404100  0.85124500  0.69038500  1
  O  O14  1  0.69693900  0.61457200  0.07320200  1
  O  O15  1  0.19436600  0.61857600  0.57420600  1
  O  O16  1  0.86783200  0.21009500  0.01828900  1
  O  O17  1  0.36033600  0.20927600  0.52080900  1
  O  O18  1  0.05832400  0.95755100  0.39649900  1
  O  O19  1  0.54318100  0.96509700  0.89348200  1
  O  O20  1  0.45690700  0.03530300  0.10641700  1
  O  O21  1  0.94123500  0.04262100  0.60334900  1
  O  O22  1  0.63925400  0.79088500  0.47918800  1
  O  O23  1  0.13231800  0.78933400  0.98190400  1
loop_
_geom_bond_atom_site_label_1
_geom_bond_atom_site_label_2
_geom_bond_distance
_geom_bond_site_symmetry_2
Fe0 O19 2.059444 1_545
Fe0 O16 2.060169 1_456
Fe0 O11 2.194352 1_555
Fe0 O9 2.198881 1_455
Fe0 O23 2.347332 1_545
Fe0 O20 2.372109 1_556
Fe1 O20 2.059225 1_565
Fe1 O23 2.059432 1_654
Fe1 O14 2.198382 1_555
Fe1 O12 2.198961 1_655
Fe1 O16 2.340895 1_565
Fe1 O19 2.373715 1_554
Fe2 O17 2.115884 1_555
Fe2 O18 2.117298 1_645
Fe2 O8 2.158749 1_555
Fe2 O10 2.165009 1_555
Fe2 O21 2.291556 1_555
Fe2 O22 2.327456 1_545
Fe3 O22 2.115015 1_555
Fe3 O21 2.117447 1_465
Fe3 O13 2.159388 1_555
Fe3 O15 2.163399 1_555
Fe3 O18 2.292698 1_555
Fe3 O17 2.327696 1_565
O0 Si0 1.647172 1_555
O0 Si4 1.650267 1_555
O1 Si1 1.649163 1_455
O1 Si5 1.651439 1_555
O2 Si2 1.648499 1_555
O2 Si6 1.651444 1_555
O3 Si3 1.648807 1_655
O3 Si7 1.650869 1_555
O4 Si6 1.649796 1_655
O4 Si2 1.651977 1_555
O5 Si7 1.646817 1_555
O5 Si3 1.649653 1_555
O6 Si4 1.648837 1_455
O6 Si0 1.650631 1_555
O7 Si5 1.648355 1_555
O7 Si1 1.651382 1_555
O8 Si0 1.631148 1_555
O8 Zn0 1.942103 1_555
O9 Si1 1.628709 1_555
O9 Zn1 1.934053 1_555
O10 Si2 1.632945 1_555
O10 Zn0 1.939641 1_655
O11 Si3 1.626856 1_555
O11 Zn1 1.935425 1_555
O12 Si6 1.628567 1_555
O12 Zn2 1.934847 1_555
O13 Si7 1.631199 1_555
O13 Zn3 1.941545 1_555
O14 Si4 1.626704 1_555
O14 Zn2 1.935447 1_555
O15 Si5 1.633066 1_555
O15 Zn3 1.939574 1_455
O16 Si4 1.653521 1_555
O16 Zn1 2.075276 1_554
O17 Si5 1.648742 1_555
O17 Zn0 2.055373 1_555
O18 Si6 1.650904 1_555
O18 Zn0 2.060069 1_565
O19 Si7 1.651794 1_555
O19 Zn1 2.071055 1_565
O20 Si0 1.651956 1_555
O20 Zn2 2.070910 1_545
O21 Si1 1.650783 1_555
O21 Zn3 2.061378 1_545
O22 Si2 1.648704 1_555
O22 Zn3 2.055733 1_555
O23 Si3 1.652969 1_555
O23 Zn2 2.072948 1_556
