# generated using pymatgen
data_K3Tm
_symmetry_space_group_name_H-M   'P 1'
_cell_length_a   8.58552546
_cell_length_b   8.58552546
_cell_length_c   7.07913800
_cell_angle_alpha   90.00000000
_cell_angle_beta   90.00000000
_cell_angle_gamma   119.99999586
_symmetry_Int_Tables_number   1
_chemical_formula_structural   K3Tm
_chemical_formula_sum   'K6 Tm2'
_cell_volume   451.90254737
_cell_formula_units_Z   2
loop_
 _symmetry_equiv_pos_site_id
 _symmetry_equiv_pos_as_xyz
  1  'x, y, z'
loop_
 _atom_site_type_symbol
 _atom_site_label
 _atom_site_symmetry_multiplicity
 _atom_site_fract_x
 _atom_site_fract_y
 _atom_site_fract_z
 _atom_site_occupancy
  K  K0  1  0.17158400  0.34316800  0.25000000  1
  K  K1  1  0.65683200  0.82841600  0.25000000  1
  K  K2  1  0.17158400  0.82841600  0.25000000  1
  K  K3  1  0.82841600  0.65683200  0.75000000  1
  K  K4  1  0.34316800  0.17158400  0.75000000  1
  K  K5  1  0.82841600  0.17158400  0.75000000  1
  Tm  Tm0  1  0.33333300  0.66666700  0.75000000  1
  Tm  Tm1  1  0.66666700  0.33333300  0.25000000  1
loop_
_geom_bond_atom_site_label_1
_geom_bond_atom_site_label_2
_geom_bond_distance
_geom_bond_site_symmetry_2
K0 K2 4.166109 1_555
K0 K1 4.166109 1_555
K0 Tm0 4.279492 1_554
K0 Tm0 4.279492 1_555
K0 Tm1 4.293381 1_455
K0 Tm1 4.293390 1_555
K0 K4 4.363366 1_554
K0 K4 4.363366 1_555
K0 K5 4.363366 1_454
K0 K5 4.363366 1_455
K0 K2 4.419416 1_545
K0 K1 4.419417 1_445
K1 K2 4.166109 1_555
K1 Tm0 4.279492 1_554
K1 Tm0 4.279492 1_555
K1 Tm1 4.293381 1_565
K1 Tm1 4.293390 1_555
K1 K3 4.363366 1_555
K1 K3 4.363366 1_554
K1 K5 4.363366 1_565
K1 K5 4.363366 1_564
K1 K2 4.419416 1_655
K2 Tm0 4.279487 1_555
K2 Tm0 4.279487 1_554
K2 Tm1 4.293386 1_455
K2 Tm1 4.293386 1_565
K2 K3 4.363366 1_455
K2 K4 4.363366 1_565
K2 K4 4.363366 1_564
K2 K3 4.363366 1_454
K3 K5 4.166109 1_555
K3 K4 4.166109 1_555
K3 Tm1 4.279492 1_555
K3 Tm1 4.279492 1_556
K3 Tm0 4.293381 1_655
K3 Tm0 4.293390 1_555
K3 K5 4.419416 1_565
K3 K4 4.419417 1_665
K4 K5 4.166109 1_555
K4 Tm1 4.279492 1_555
K4 Tm1 4.279492 1_556
K4 Tm0 4.293381 1_545
K4 Tm0 4.293390 1_555
K4 K5 4.419416 1_455
K5 Tm1 4.279487 1_556
K5 Tm1 4.279487 1_555
K5 Tm0 4.293386 1_545
K5 Tm0 4.293386 1_655
