# generated using pymatgen
data_SrMgMn(PO4)2
_symmetry_space_group_name_H-M   'P 1'
_cell_length_a   5.56536800
_cell_length_b   7.00574819
_cell_length_c   9.53612480
_cell_angle_alpha   110.95375668
_cell_angle_beta   101.53567765
_cell_angle_gamma   97.82171782
_symmetry_Int_Tables_number   1
_chemical_formula_structural   SrMgMn(PO4)2
_chemical_formula_sum   'Sr2 Mg2 Mn2 P4 O16'
_cell_volume   331.33511183
_cell_formula_units_Z   2
loop_
 _symmetry_equiv_pos_site_id
 _symmetry_equiv_pos_as_xyz
  1  'x, y, z'
loop_
 _atom_site_type_symbol
 _atom_site_label
 _atom_site_symmetry_multiplicity
 _atom_site_fract_x
 _atom_site_fract_y
 _atom_site_fract_z
 _atom_site_occupancy
  Sr  Sr0  1  0.20018400  0.75340400  0.04898500  1
  Sr  Sr1  1  0.79981600  0.24659600  0.95101500  1
  Mg  Mg0  1  0.33966600  0.72983800  0.65205400  1
  Mg  Mg1  1  0.66033400  0.27016200  0.34794600  1
  Mn  Mn0  1  0.07161800  0.27909600  0.55890600  1
  Mn  Mn1  1  0.92838200  0.72090400  0.44109400  1
  P  P0  1  0.15983400  0.19174900  0.22942300  1
  P  P1  1  0.84016600  0.80825100  0.77057700  1
  P  P2  1  0.53902400  0.72146200  0.30110100  1
  P  P3  1  0.46097600  0.27853800  0.69889900  1
  O  O0  1  0.92607200  0.65742100  0.89146400  1
  O  O1  1  0.44715300  0.26288100  0.21148500  1
  O  O2  1  0.89254400  0.02704200  0.77590600  1
  O  O3  1  0.26603800  0.42293800  0.69571100  1
  O  O4  1  0.55284700  0.73711900  0.78851500  1
  O  O5  1  0.43408900  0.17453400  0.57654300  1
  O  O6  1  0.56591100  0.82546600  0.42345700  1
  O  O7  1  0.39051300  0.12869900  0.86456800  1
  O  O8  1  0.10745600  0.97295800  0.22409400  1
  O  O9  1  0.60948700  0.87130100  0.13543200  1
  O  O10  1  0.07392800  0.34257900  0.10853600  1
  O  O11  1  0.97368200  0.18693200  0.39044800  1
  O  O12  1  0.02631800  0.81306800  0.60955200  1
  O  O13  1  0.25610100  0.58840000  0.35999000  1
  O  O14  1  0.73396200  0.57706200  0.30428900  1
  O  O15  1  0.74389900  0.41160000  0.64001000  1
loop_
_geom_bond_atom_site_label_1
_geom_bond_atom_site_label_2
_geom_bond_distance
_geom_bond_site_symmetry_2
Mg0 O4 1.556335 1_555
Mg0 O12 1.925758 1_555
Mg0 O3 2.330804 1_555
Mg0 O13 2.517518 1_555
Mg1 O1 1.556335 1_555
Mg1 O11 1.925758 1_555
Mg1 O14 2.330804 1_555
Mg1 O15 2.517518 1_555
Mn0 O3 1.444500 1_555
Mn0 O11 1.451471 1_455
Mn0 O15 2.301724 1_455
Mn1 O14 1.444500 1_555
Mn1 O12 1.451471 1_655
Mn1 O13 2.301724 1_655
O0 Sr0 1.765691 1_656
O0 P1 1.860750 1_555
O1 P0 1.669728 1_555
O2 P1 1.501254 1_545
O2 Sr1 2.035756 1_555
O3 P3 1.583939 1_555
O4 P1 1.669728 1_555
O5 P3 1.098702 1_555
O6 P2 1.098702 1_555
O7 Sr1 2.191019 1_555
O7 P3 2.252445 1_555
O8 P0 1.501254 1_565
O8 Sr0 2.035756 1_555
O9 Sr0 2.191019 1_555
O9 P2 2.252445 1_555
O10 Sr1 1.765691 1_454
O10 P0 1.860750 1_555
O11 P0 2.023904 1_655
O12 P1 2.023904 1_455
O13 P2 1.998048 1_555
O14 P2 1.583939 1_555
O15 P3 1.998048 1_555
