# generated using pymatgen
data_Mg6MnV
_symmetry_space_group_name_H-M   'P 1'
_cell_length_a   4.91783000
_cell_length_b   6.23967500
_cell_length_c   10.59787200
_cell_angle_alpha   90.00000000
_cell_angle_beta   90.00000000
_cell_angle_gamma   90.00000000
_symmetry_Int_Tables_number   1
_chemical_formula_structural   Mg6MnV
_chemical_formula_sum   'Mg12 Mn2 V2'
_cell_volume   325.20270651
_cell_formula_units_Z   2
loop_
 _symmetry_equiv_pos_site_id
 _symmetry_equiv_pos_as_xyz
  1  'x, y, z'
loop_
 _atom_site_type_symbol
 _atom_site_label
 _atom_site_symmetry_multiplicity
 _atom_site_fract_x
 _atom_site_fract_y
 _atom_site_fract_z
 _atom_site_occupancy
  Mg  Mg0  1  0.00000000  0.25078200  0.58236000  1
  Mg  Mg1  1  0.00000000  0.74921800  0.58236000  1
  Mg  Mg2  1  0.50000000  0.24918500  0.41175400  1
  Mg  Mg3  1  0.50000000  0.75081500  0.41175400  1
  Mg  Mg4  1  0.50000000  0.00000000  0.67141700  1
  Mg  Mg5  1  0.50000000  0.00000000  0.17197500  1
  Mg  Mg6  1  0.00000000  0.75078200  0.08236000  1
  Mg  Mg7  1  0.00000000  0.24921800  0.08236000  1
  Mg  Mg8  1  0.50000000  0.74918500  0.91175400  1
  Mg  Mg9  1  0.50000000  0.25081500  0.91175400  1
  Mg  Mg10  1  0.50000000  0.50000000  0.17141700  1
  Mg  Mg11  1  0.50000000  0.50000000  0.67197500  1
  Mn  Mn0  1  0.00000000  0.00000000  0.83447800  1
  Mn  Mn1  1  0.00000000  0.50000000  0.33447800  1
  V  V0  1  0.00000000  0.00000000  0.33390700  1
  V  V1  1  0.00000000  0.50000000  0.83390700  1
loop_
_geom_bond_atom_site_label_1
_geom_bond_atom_site_label_2
_geom_bond_distance
_geom_bond_site_symmetry_2
Mg0 Mg2 3.052121 1_555
Mg0 Mg2 3.052121 1_455
Mg0 Mn1 3.052768 1_555
Mg0 Mg11 3.060457 1_455
Mg0 Mg11 3.060457 1_555
Mg0 V0 3.062951 1_555
Mg0 Mg4 3.063600 1_455
Mg0 Mg4 3.063600 1_555
Mg0 V1 3.086255 1_555
Mg0 Mn0 3.096404 1_555
Mg0 Mg1 3.110079 1_555
Mg0 Mg1 3.129596 1_545
Mg1 Mg3 3.052121 1_555
Mg1 Mg3 3.052121 1_455
Mg1 Mn1 3.052768 1_555
Mg1 Mg11 3.060457 1_455
Mg1 Mg11 3.060457 1_555
Mg1 V0 3.062951 1_565
Mg1 Mg4 3.063600 1_465
Mg1 Mg4 3.063600 1_565
Mg1 V1 3.086255 1_555
Mg1 Mn0 3.096404 1_565
Mg2 Mg5 2.979083 1_555
Mg2 V0 3.023973 1_655
Mg2 V0 3.023973 1_555
Mg2 Mn1 3.027573 1_655
Mg2 Mn1 3.027573 1_555
Mg2 Mg3 3.109667 1_545
Mg2 Mg3 3.130008 1_555
Mg2 Mg4 3.160747 1_555
Mg3 Mg5 2.979083 1_565
Mg3 V0 3.023973 1_565
Mg3 V0 3.023973 1_665
Mg3 Mn1 3.027573 1_655
Mg3 Mn1 3.027573 1_555
Mg3 Mg4 3.160747 1_565
Mg4 Mg8 2.989441 1_545
Mg4 Mg9 2.989441 1_555
Mg4 Mn0 3.005427 1_655
Mg4 Mn0 3.005427 1_555
Mg5 V0 2.998563 1_555
Mg5 V0 2.998563 1_655
Mg5 Mg7 3.060457 1_655
Mg5 Mg6 3.060457 1_645
Mg5 Mg6 3.060457 1_545
Mg5 Mg7 3.060457 1_555
Mg5 Mg8 3.170905 1_544
Mg5 Mg9 3.170905 1_554
Mg6 Mg8 3.052121 1_554
Mg6 Mg8 3.052121 1_454
Mg6 Mn0 3.052768 1_564
Mg6 V1 3.062951 1_554
Mg6 V0 3.086255 1_565
Mg6 Mn1 3.096404 1_555
Mg6 Mg7 3.110079 1_565
Mg6 Mg7 3.129596 1_555
Mg7 Mg9 3.052121 1_454
Mg7 Mg9 3.052121 1_554
Mg7 Mn0 3.052768 1_554
Mg7 V1 3.062951 1_554
Mg7 V0 3.086255 1_555
Mg7 Mn1 3.096404 1_555
Mg8 V1 3.023973 1_555
Mg8 V1 3.023973 1_655
Mg8 Mn0 3.027573 1_665
Mg8 Mn0 3.027573 1_565
Mg8 Mg9 3.109667 1_555
Mg8 Mg9 3.130008 1_565
Mg9 V1 3.023973 1_555
Mg9 V1 3.023973 1_655
Mg9 Mn0 3.027573 1_655
Mg9 Mn0 3.027573 1_555
Mg10 Mg2 2.989441 1_555
Mg10 Mg3 2.989441 1_555
Mg10 Mn1 3.005427 1_555
Mg10 Mn1 3.005427 1_655
Mg10 Mg7 3.063600 1_655
Mg10 Mg6 3.063600 1_555
Mg10 Mg7 3.063600 1_555
Mg10 Mg6 3.063600 1_655
Mg10 Mg5 3.119843 1_555
Mg10 Mg5 3.119843 1_565
Mg10 Mg8 3.160747 1_554
Mg10 Mg9 3.160747 1_554
Mg11 Mg8 2.979083 1_555
Mg11 Mg9 2.979083 1_555
Mg11 V1 2.998563 1_555
Mg11 V1 2.998563 1_655
Mg11 Mg4 3.119843 1_565
Mg11 Mg4 3.119843 1_555
Mg11 Mg2 3.170905 1_555
Mg11 Mg3 3.170905 1_555
Mn0 V1 3.119843 1_555
Mn0 V1 3.119843 1_545
Mn1 V0 3.119843 1_565
Mn1 V0 3.119843 1_555
