# generated using pymatgen
data_Ta13Al23
_symmetry_space_group_name_H-M   'P 1'
_cell_length_a   13.60557552
_cell_length_b   13.60557552
_cell_length_c   13.60557571
_cell_angle_alpha   59.82687949
_cell_angle_beta   59.82687949
_cell_angle_gamma   59.82687906
_symmetry_Int_Tables_number   1
_chemical_formula_structural   Ta13Al23
_chemical_formula_sum   'Ta39 Al69'
_cell_volume   1773.88684038
_cell_formula_units_Z   3
loop_
 _symmetry_equiv_pos_site_id
 _symmetry_equiv_pos_as_xyz
  1  'x, y, z'
loop_
 _atom_site_type_symbol
 _atom_site_label
 _atom_site_symmetry_multiplicity
 _atom_site_fract_x
 _atom_site_fract_y
 _atom_site_fract_z
 _atom_site_occupancy
  Ta  Ta0  1  0.52870800  0.78108800  0.52870800  1
  Ta  Ta1  1  0.52870800  0.52870800  0.78108800  1
  Ta  Ta2  1  0.78108800  0.52870800  0.52870800  1
  Ta  Ta3  1  0.52428000  0.16696700  0.52428000  1
  Ta  Ta4  1  0.78174000  0.16233800  0.52889400  1
  Ta  Ta5  1  0.52889400  0.16233800  0.78174000  1
  Ta  Ta6  1  0.16233800  0.52889400  0.78174000  1
  Ta  Ta7  1  0.16233800  0.78174000  0.52889400  1
  Ta  Ta8  1  0.16696700  0.52428000  0.52428000  1
  Ta  Ta9  1  0.78174000  0.52889400  0.16233800  1
  Ta  Ta10  1  0.52428000  0.52428000  0.16696700  1
  Ta  Ta11  1  0.52889400  0.78174000  0.16233800  1
  Ta  Ta12  1  0.91370600  0.91370600  0.91370600  1
  Ta  Ta13  1  0.91003300  0.27054200  0.91003300  1
  Ta  Ta14  1  0.27054200  0.91003300  0.91003300  1
  Ta  Ta15  1  0.91003300  0.91003300  0.27054200  1
  Ta  Ta16  1  0.40673000  0.40673000  0.40673000  1
  Ta  Ta17  1  0.40773500  0.77856800  0.40773500  1
  Ta  Ta18  1  0.77856800  0.40773500  0.40773500  1
  Ta  Ta19  1  0.40773500  0.40773500  0.77856800  1
  Ta  Ta20  1  0.00027200  0.00027200  0.00027200  1
  Ta  Ta21  1  0.00787400  0.36358800  0.00787400  1
  Ta  Ta22  1  0.00787400  0.00787400  0.36358800  1
  Ta  Ta23  1  0.36358800  0.00787400  0.00787400  1
  Ta  Ta24  1  0.00645900  0.62527800  0.00645900  1
  Ta  Ta25  1  0.37475300  0.61975900  0.00340700  1
  Ta  Ta26  1  0.00340700  0.61975900  0.37475300  1
  Ta  Ta27  1  0.61975900  0.00340700  0.37475300  1
  Ta  Ta28  1  0.61975900  0.37475300  0.00340700  1
  Ta  Ta29  1  0.62527800  0.00645900  0.00645900  1
  Ta  Ta30  1  0.37475300  0.00340700  0.61975900  1
  Ta  Ta31  1  0.00645900  0.00645900  0.62527800  1
  Ta  Ta32  1  0.00340700  0.37475300  0.61975900  1
  Ta  Ta33  1  0.15655800  0.15655800  0.15655800  1
  Ta  Ta34  1  0.15672400  0.53152700  0.15672400  1
  Ta  Ta35  1  0.53152700  0.15672400  0.15672400  1
  Ta  Ta36  1  0.15672400  0.15672400  0.53152700  1
  Ta  Ta37  1  0.75464700  0.75464700  0.75464700  1
  Ta  Ta38  1  0.25018100  0.25018100  0.25018100  1
  Al  Al0  1  0.83537000  0.83537000  0.83537000  1
  Al  Al1  1  0.81612100  0.51527500  0.81612100  1
  Al  Al2  1  0.51527500  0.81612100  0.81612100  1
  Al  Al3  1  0.81612100  0.81612100  0.51527500  1
  Al  Al4  1  0.55232200  0.55232200  0.55232200  1
  Al  Al5  1  0.55178200  0.34469400  0.55178200  1
  Al  Al6  1  0.34469400  0.55178200  0.55178200  1
  Al  Al7  1  0.55178200  0.55178200  0.34469400  1
  Al  Al8  1  0.66197100  0.66197100  0.33772000  1
  Al  Al9  1  0.33772000  0.66197100  0.66197100  1
  Al  Al10  1  0.66197100  0.33772000  0.66197100  1
  Al  Al11  1  0.33730200  0.33730200  0.66263000  1
  Al  Al12  1  0.66263000  0.33730200  0.33730200  1
  Al  Al13  1  0.33730200  0.66263000  0.33730200  1
  Al  Al14  1  0.67367500  0.67367500  0.67367500  1
  Al  Al15  1  0.65769100  0.99057800  0.65769100  1
  Al  Al16  1  0.99057800  0.65769100  0.65769100  1
  Al  Al17  1  0.65769100  0.65769100  0.99057800  1
  Al  Al18  1  0.39434300  0.19627500  0.39434300  1
  Al  Al19  1  0.39434300  0.39434300  0.19627500  1
  Al  Al20  1  0.19627500  0.39434300  0.39434300  1
  Al  Al21  1  0.39576500  0.01341500  0.39576500  1
  Al  Al22  1  0.19600700  0.01385500  0.39590800  1
  Al  Al23  1  0.39590800  0.01385500  0.19600700  1
  Al  Al24  1  0.01385500  0.39590800  0.19600700  1
  Al  Al25  1  0.01385500  0.19600700  0.39590800  1
  Al  Al26  1  0.01341500  0.39576500  0.39576500  1
  Al  Al27  1  0.19600700  0.39590800  0.01385500  1
  Al  Al28  1  0.39576500  0.39576500  0.01341500  1
  Al  Al29  1  0.39590800  0.19600700  0.01385500  1
  Al  Al30  1  0.14078000  0.95172900  0.14078000  1
  Al  Al31  1  0.14078000  0.14078000  0.95172900  1
  Al  Al32  1  0.95172900  0.14078000  0.14078000  1
  Al  Al33  1  0.14214900  0.76477000  0.14214900  1
  Al  Al34  1  0.95381200  0.76579000  0.14371600  1
  Al  Al35  1  0.14371600  0.76579000  0.95381200  1
  Al  Al36  1  0.76579000  0.14371600  0.95381200  1
  Al  Al37  1  0.76579000  0.95381200  0.14371600  1
  Al  Al38  1  0.76477000  0.14214900  0.14214900  1
  Al  Al39  1  0.95381200  0.14371600  0.76579000  1
  Al  Al40  1  0.14214900  0.14214900  0.76477000  1
  Al  Al41  1  0.14371600  0.95381200  0.76579000  1
  Al  Al42  1  0.76685600  0.08605400  0.76685600  1
  Al  Al43  1  0.76685600  0.76685600  0.08605400  1
  Al  Al44  1  0.08605400  0.76685600  0.76685600  1
  Al  Al45  1  0.76605600  0.38009900  0.76605600  1
  Al  Al46  1  0.07920400  0.38855900  0.76700300  1
  Al  Al47  1  0.76700300  0.38855900  0.07920400  1
  Al  Al48  1  0.38855900  0.76700300  0.07920400  1
  Al  Al49  1  0.38855900  0.07920400  0.76700300  1
  Al  Al50  1  0.38009900  0.76605600  0.76605600  1
  Al  Al51  1  0.07920400  0.76700300  0.38855900  1
  Al  Al52  1  0.76605600  0.76605600  0.38009900  1
  Al  Al53  1  0.76700300  0.07920400  0.38855900  1
  Al  Al54  1  0.89969100  0.89969100  0.59779800  1
  Al  Al55  1  0.59779800  0.89969100  0.89969100  1
  Al  Al56  1  0.89969100  0.59779800  0.89969100  1
  Al  Al57  1  0.26336200  0.58090100  0.26336200  1
  Al  Al58  1  0.26336200  0.26336200  0.58090100  1
  Al  Al59  1  0.58090100  0.26336200  0.26336200  1
  Al  Al60  1  0.26378100  0.89154900  0.26378100  1
  Al  Al61  1  0.58178400  0.89164300  0.26461200  1
  Al  Al62  1  0.26461200  0.89164300  0.58178400  1
  Al  Al63  1  0.89164300  0.26461200  0.58178400  1
  Al  Al64  1  0.89164300  0.58178400  0.26461200  1
  Al  Al65  1  0.89154900  0.26378100  0.26378100  1
  Al  Al66  1  0.58178400  0.26461200  0.89164300  1
  Al  Al67  1  0.26378100  0.26378100  0.89154900  1
  Al  Al68  1  0.26461200  0.58178400  0.89164300  1
loop_
_geom_bond_atom_site_label_1
_geom_bond_atom_site_label_2
_geom_bond_distance
_geom_bond_site_symmetry_2
Ta0 Ta17 2.873295 1_555
Ta0 Ta30 3.140184 1_565
Ta0 Ta27 3.140184 1_565
Ta1 Ta19 2.873295 1_555
Ta1 Ta25 3.140184 1_556
Ta1 Ta28 3.140184 1_556
Ta2 Ta32 3.140184 1_655
Ta2 Ta26 3.140184 1_655
Ta3 Ta30 3.125181 1_555
Ta10 Ta16 2.799892 1_555
Ta10 Ta28 3.125181 1_555
Ta10 Ta25 3.125181 1_555
Ta11 Ta17 2.874147 1_555
Ta12 Ta20 2.888729 1_666
Ta12 Ta29 3.198328 1_566
Ta12 Ta24 3.198328 1_656
Ta12 Ta31 3.198328 1_665
Ta13 Ta20 2.995849 1_656
Ta13 Ta21 3.211862 1_656
Ta13 Ta28 3.218673 1_556
Ta13 Ta32 3.218673 1_655
Ta14 Ta20 2.995849 1_566
Ta14 Ta23 3.211862 1_566
Ta14 Ta25 3.218673 1_556
Ta14 Ta30 3.218673 1_565
Ta15 Ta20 2.995849 1_665
Ta15 Ta22 3.211862 1_665
Ta15 Ta26 3.218673 1_655
Ta15 Ta27 3.218673 1_565
Ta16 Ta3 2.799892 1_555
Ta16 Ta8 2.799892 1_555
Ta17 Ta7 2.874146 1_555
Ta18 Ta2 2.873295 1_555
Ta18 Ta4 2.874146 1_555
Ta18 Ta9 2.874147 1_555
Ta19 Ta5 2.874146 1_555
Ta19 Ta6 2.874146 1_555
Ta21 Ta33 2.962512 1_555
Ta22 Ta33 2.962512 1_555
Ta23 Ta33 2.962512 1_555
Ta24 Ta34 2.990867 1_555
Ta25 Ta34 3.071512 1_555
Ta25 Ta28 3.324721 1_555
Ta26 Ta34 3.071512 1_555
Ta26 Ta8 3.125181 1_555
Ta26 Ta32 3.324721 1_555
Ta27 Ta35 3.071512 1_555
Ta27 Ta3 3.125181 1_555
Ta27 Ta30 3.324721 1_555
Ta28 Ta35 3.071512 1_555
Ta29 Ta35 2.990867 1_555
Ta30 Ta36 3.071512 1_555
Ta31 Ta36 2.990867 1_555
Ta32 Ta36 3.071512 1_555
Ta32 Ta8 3.125181 1_555
Ta33 Ta38 3.124223 1_555
Ta34 Ta38 3.118658 1_555
Ta35 Ta38 3.118658 1_555
Ta36 Ta38 3.118658 1_555
Al0 Ta12 2.614092 1_555
Al0 Al55 2.657518 1_555
Al0 Al56 2.657518 1_555
Al0 Al54 2.657518 1_555
Al0 Ta37 2.693747 1_555
Al0 Al42 2.802193 1_565
Al0 Al44 2.802193 1_655
Al0 Al43 2.802193 1_556
Al1 Ta37 2.689354 1_555
Al1 Al45 2.701011 1_555
Al1 Ta13 2.727627 1_555
Al1 Al14 2.745037 1_555
Al1 Al56 2.777118 1_555
Al1 Al46 2.963329 1_655
Al1 Al47 2.963329 1_556
Al1 Al16 3.052271 1_555
Al1 Al17 3.052271 1_555
Al1 Ta28 3.268013 1_556
Al1 Ta32 3.268013 1_655
Al2 Ta37 2.689354 1_555
Al2 Al50 2.701011 1_555
Al2 Ta14 2.727627 1_555
Al2 Al55 2.777118 1_555
Al2 Al49 2.963329 1_565
Al2 Al48 2.963329 1_556
Al2 Ta25 3.268013 1_556
Al2 Ta30 3.268013 1_565
Al3 Ta37 2.689354 1_555
Al3 Al52 2.701011 1_555
Al3 Ta15 2.727627 1_555
Al3 Al54 2.777118 1_555
Al3 Al51 2.963329 1_655
Al3 Al53 2.963329 1_565
Al3 Ta27 3.268013 1_565
Al3 Ta26 3.268013 1_655
Al4 Al9 2.540920 1_555
Al4 Al8 2.540920 1_555
Al4 Ta2 2.826196 1_555
Al4 Ta0 2.826196 1_555
Al4 Ta1 2.826196 1_555
Al4 Al6 2.832303 1_555
Al4 Al5 2.832303 1_555
Al4 Al7 2.832303 1_555
Al4 Ta18 2.988467 1_555
Al4 Ta17 2.988467 1_555
Al4 Ta19 2.988467 1_555
Al5 Al6 2.810175 1_555
Al5 Al7 2.810175 1_555
Al5 Ta4 2.834716 1_555
Al5 Ta5 2.834716 1_555
Al5 Ta3 2.843752 1_555
Al5 Ta18 2.998175 1_555
Al5 Ta19 2.998175 1_555
Al5 Ta16 3.011346 1_555
Al6 Al9 2.545080 1_555
Al6 Al7 2.810175 1_555
Al6 Ta7 2.834716 1_555
Al6 Ta6 2.834716 1_555
Al6 Ta8 2.843752 1_555
Al6 Ta17 2.998175 1_555
Al6 Ta19 2.998175 1_555
Al6 Ta16 3.011346 1_555
Al7 Al8 2.545080 1_555
Al7 Ta11 2.834716 1_555
Al7 Ta9 2.834716 1_555
Al7 Ta10 2.843752 1_555
Al7 Ta17 2.998175 1_555
Al7 Ta18 2.998175 1_555
Al7 Ta16 3.011346 1_555
Al8 Ta18 2.842477 1_555
Al8 Ta17 2.842477 1_555
Al8 Ta9 3.015939 1_555
Al8 Ta11 3.015939 1_555
Al8 Ta0 3.034732 1_555
Al8 Ta2 3.034732 1_555
Al9 Ta19 2.842477 1_555
Al9 Ta17 2.842477 1_555
Al9 Ta6 3.015939 1_555
Al9 Ta7 3.015939 1_555
Al9 Ta1 3.034732 1_555
Al9 Ta0 3.034732 1_555
Al10 Al4 2.540920 1_555
Al10 Al5 2.545080 1_555
Al10 Al63 2.546289 1_555
Al10 Al66 2.546289 1_555
Al10 Al45 2.828581 1_555
Al10 Al42 2.832048 1_555
Al10 Ta19 2.842477 1_555
Al10 Ta18 2.842477 1_555
Al10 Ta5 3.015939 1_555
Al10 Ta4 3.015939 1_555
Al10 Ta1 3.034732 1_555
Al10 Ta2 3.034732 1_555
Al11 Al67 2.538505 1_555
Al11 Al6 2.553163 1_555
Al11 Al5 2.553163 1_555
Al11 Al58 2.554766 1_555
Al11 Ta16 2.862081 1_555
Al11 Ta19 2.878700 1_555
Al11 Al46 2.890523 1_555
Al11 Al49 2.890523 1_555
Al11 Ta8 3.005123 1_555
Al11 Ta3 3.005123 1_555
Al11 Ta6 3.036240 1_555
Al11 Ta5 3.036240 1_555
Al12 Al65 2.538505 1_555
Al12 Al7 2.553163 1_555
Al12 Al5 2.553163 1_555
Al12 Al59 2.554766 1_555
Al12 Ta16 2.862081 1_555
Al12 Ta18 2.878700 1_555
Al12 Al53 2.890523 1_555
Al12 Al47 2.890523 1_555
Al12 Ta10 3.005123 1_555
Al12 Ta3 3.005123 1_555
Al12 Ta9 3.036240 1_555
Al12 Ta4 3.036240 1_555
Al13 Al60 2.538505 1_555
Al13 Al7 2.553163 1_555
Al13 Al6 2.553163 1_555
Al13 Al57 2.554766 1_555
Al13 Ta16 2.862081 1_555
Al13 Ta17 2.878700 1_555
Al13 Al51 2.890523 1_555
Al13 Al48 2.890523 1_555
Al13 Ta10 3.005123 1_555
Al13 Ta8 3.005123 1_555
Al13 Ta11 3.036240 1_555
Al13 Ta7 3.036240 1_555
Al14 Ta37 2.702056 1_555
Al14 Al2 2.745037 1_555
Al14 Al3 2.745037 1_555
Al14 Ta1 2.834019 1_555
Al14 Ta0 2.834019 1_555
Al14 Ta2 2.834019 1_555
Al15 Ta3 2.627359 1_565
Al15 Ta37 2.649593 1_555
Al15 Al54 2.693905 1_555
Al15 Al55 2.693905 1_555
Al15 Ta5 2.873253 1_565
Al15 Ta4 2.873253 1_565
Al15 Al49 2.993977 1_565
Al15 Al53 2.993977 1_565
Al15 Al3 3.052271 1_555
Al15 Al2 3.052271 1_555
Al16 Ta8 2.627359 1_655
Al16 Ta37 2.649593 1_555
Al16 Al54 2.693905 1_555
Al16 Al56 2.693905 1_555
Al16 Ta6 2.873253 1_655
Al16 Ta7 2.873253 1_655
Al16 Al46 2.993977 1_655
Al16 Al51 2.993977 1_655
Al16 Al3 3.052271 1_555
Al17 Ta10 2.627359 1_556
Al17 Ta37 2.649593 1_555
Al17 Al56 2.693905 1_555
Al17 Al55 2.693905 1_555
Al17 Ta9 2.873253 1_556
Al17 Ta11 2.873253 1_556
Al17 Al48 2.993977 1_556
Al17 Al47 2.993977 1_556
Al17 Al2 3.052271 1_555
Al18 Al21 2.468618 1_555
Al18 Al59 2.568726 1_555
Al18 Al58 2.568726 1_555
Al18 Al20 2.687774 1_555
Al18 Al19 2.687774 1_555
Al18 Ta3 2.852045 1_555
Al18 Ta27 2.855564 1_555
Al18 Ta30 2.855564 1_555
Al18 Ta36 2.983055 1_555
Al18 Ta35 2.983055 1_555
Al18 Ta38 3.034346 1_555
Al18 Ta16 3.042101 1_555
Al19 Al28 2.468619 1_555
Al19 Al57 2.568726 1_555
Al19 Al59 2.568726 1_555
Al19 Al20 2.687774 1_555
Al19 Ta10 2.852045 1_555
Al19 Ta25 2.855564 1_555
Al19 Ta28 2.855564 1_555
Al19 Ta34 2.983055 1_555
Al19 Ta35 2.983055 1_555
Al19 Ta38 3.034346 1_555
Al19 Ta16 3.042101 1_555
Al20 Al26 2.468618 1_555
Al20 Al57 2.568726 1_555
Al20 Al58 2.568726 1_555
Al20 Ta8 2.852045 1_555
Al20 Ta26 2.855564 1_555
Al20 Ta32 2.855564 1_555
Al20 Ta36 2.983055 1_555
Al20 Ta34 2.983055 1_555
Al20 Ta38 3.034346 1_555
Al20 Ta16 3.042101 1_555
Al21 Al61 2.559585 1_545
Al21 Al62 2.559585 1_545
Al21 Al22 2.713842 1_555
Al21 Al23 2.713842 1_555
Al21 Ta27 2.852039 1_555
Al21 Ta30 2.852040 1_555
Al21 Ta0 2.885995 1_545
Al21 Ta36 2.999677 1_555
Al21 Ta35 2.999677 1_555
Al21 Ta17 3.040232 1_545
Al21 Ta38 3.056077 1_555
Al22 Al25 2.471795 1_555
Al22 Al62 2.572417 1_545
Al22 Al60 2.578604 1_545
Al22 Al23 2.712648 1_555
Al22 Ta22 2.851076 1_555
Al22 Ta31 2.873120 1_555
Al22 Ta7 2.886878 1_545
Al22 Ta33 3.002698 1_555
Al22 Ta36 3.006408 1_555
Al22 Ta17 3.041422 1_545
Al22 Ta38 3.052497 1_555
Al23 Al29 2.471795 1_555
Al23 Al61 2.572417 1_545
Al23 Al60 2.578604 1_545
Al23 Ta23 2.851076 1_555
Al23 Ta29 2.873120 1_555
Al23 Ta11 2.886878 1_545
Al23 Ta33 3.002698 1_555
Al23 Ta35 3.006408 1_555
Al23 Ta17 3.041422 1_545
Al23 Ta38 3.052497 1_555
Al24 Al27 2.471795 1_555
Al24 Al64 2.572417 1_455
Al24 Al65 2.578604 1_455
Al24 Al25 2.712648 1_555
Al24 Al26 2.713842 1_555
Al24 Ta21 2.851076 1_555
Al24 Ta24 2.873120 1_555
Al24 Ta9 2.886878 1_455
Al24 Ta33 3.002698 1_555
Al24 Ta34 3.006408 1_555
Al24 Ta18 3.041422 1_455
Al24 Ta38 3.052497 1_555
Al25 Al63 2.572417 1_455
Al25 Al65 2.578604 1_455
Al25 Al26 2.713842 1_555
Al25 Ta22 2.851076 1_555
Al25 Ta31 2.873120 1_555
Al25 Ta4 2.886878 1_455
Al25 Ta33 3.002698 1_555
Al25 Ta36 3.006408 1_555
Al25 Ta18 3.041422 1_455
Al25 Ta38 3.052497 1_555
Al26 Al64 2.559585 1_455
Al26 Al63 2.559585 1_455
Al26 Ta26 2.852039 1_555
Al26 Ta32 2.852040 1_555
Al26 Ta2 2.885995 1_455
Al26 Ta36 2.999677 1_555
Al26 Ta34 2.999677 1_555
Al26 Ta18 3.040232 1_455
Al26 Ta38 3.056077 1_555
Al27 Al68 2.572417 1_554
Al27 Al67 2.578604 1_554
Al27 Al29 2.712648 1_555
Al27 Al28 2.713842 1_555
Al27 Ta21 2.851076 1_555
Al27 Ta24 2.873120 1_555
Al27 Ta6 2.886878 1_554
Al27 Ta33 3.002698 1_555
Al27 Ta34 3.006408 1_555
Al27 Ta19 3.041422 1_554
Al27 Ta38 3.052497 1_555
Al28 Al66 2.559585 1_554
Al28 Al68 2.559585 1_554
Al28 Al29 2.713842 1_555
Al28 Ta28 2.852039 1_555
Al28 Ta25 2.852039 1_555
Al28 Ta1 2.885995 1_554
Al28 Ta34 2.999677 1_555
Al28 Ta35 2.999677 1_555
Al28 Ta19 3.040232 1_554
Al28 Ta38 3.056077 1_555
Al29 Al66 2.572417 1_554
Al29 Al67 2.578604 1_554
Al29 Ta23 2.851076 1_555
Al29 Ta29 2.873120 1_555
Al29 Ta5 2.886878 1_554
Al29 Ta33 3.002698 1_555
Al29 Ta35 3.006408 1_555
Al29 Ta19 3.041422 1_554
Al29 Ta38 3.052497 1_555
Al30 Al60 2.516357 1_555
Al30 Al33 2.525098 1_555
Al30 Al32 2.565414 1_465
Al30 Al31 2.565414 1_564
Al30 Ta23 2.910647 1_565
Al30 Ta22 2.910647 1_565
Al30 Ta15 2.916638 1_455
Al30 Ta14 2.916638 1_554
Al30 Ta20 2.980039 1_565
Al30 Ta33 3.017876 1_565
Al30 Al48 3.023878 1_555
Al30 Al51 3.023878 1_555
Al31 Al67 2.516357 1_555
Al31 Al40 2.525098 1_555
Al31 Al32 2.565414 1_456
Al31 Ta23 2.910647 1_556
Al31 Ta21 2.910647 1_556
Al31 Ta13 2.916638 1_455
Al31 Ta14 2.916638 1_545
Al31 Ta20 2.980039 1_556
Al31 Ta33 3.017876 1_556
Al31 Al49 3.023878 1_555
Al31 Al46 3.023878 1_555
Al32 Al65 2.516357 1_555
Al32 Al38 2.525098 1_555
Al32 Ta21 2.910647 1_655
Al32 Ta22 2.910647 1_655
Al32 Ta15 2.916638 1_545
Al32 Ta13 2.916638 1_554
Al32 Ta20 2.980039 1_655
Al32 Ta33 3.017876 1_655
Al32 Al47 3.023878 1_555
Al32 Al53 3.023878 1_555
Al33 Al57 2.477362 1_555
Al33 Al34 2.544867 1_455
Al33 Al35 2.544867 1_554
Al33 Ta15 2.929472 1_455
Al33 Ta14 2.929472 1_554
Al33 Ta34 2.987225 1_555
Al33 Ta25 2.988872 1_555
Al33 Ta26 2.988872 1_555
Al33 Ta20 3.004943 1_565
Al33 Al48 3.027214 1_555
Al33 Al51 3.027214 1_555
Al34 Al64 2.505833 1_555
Al34 Al37 2.551451 1_555
Al34 Al35 2.576989 1_654
Al34 Ta15 2.894751 1_555
Al34 Ta12 2.902228 1_554
Al34 Ta24 2.919395 1_655
Al34 Al52 2.934768 1_555
Al34 Ta26 2.964822 1_655
Al34 Ta34 2.981713 1_655
Al34 Ta20 2.985714 1_665
Al34 Al43 3.007204 1_555
Al35 Al68 2.505833 1_555
Al35 Al41 2.551451 1_555
Al35 Ta14 2.894751 1_555
Al35 Ta12 2.902228 1_455
Al35 Ta24 2.919395 1_556
Al35 Al50 2.934768 1_555
Al35 Ta25 2.964822 1_556
Al35 Ta34 2.981713 1_556
Al35 Ta20 2.985714 1_566
Al35 Al44 3.007204 1_555
Al36 Al66 2.505833 1_555
Al36 Al38 2.544867 1_556
Al36 Al39 2.551451 1_555
Al36 Al37 2.576989 1_546
Al36 Ta13 2.894751 1_555
Al36 Ta12 2.902228 1_545
Al36 Ta29 2.919395 1_556
Al36 Al45 2.934768 1_555
Al36 Ta28 2.964822 1_556
Al36 Ta35 2.981713 1_556
Al36 Ta20 2.985714 1_656
Al36 Al42 3.007204 1_555
Al37 Al61 2.505833 1_555
Al37 Al38 2.544867 1_565
Al37 Ta15 2.894751 1_555
Al37 Ta12 2.902228 1_554
Al37 Ta29 2.919395 1_565
Al37 Al52 2.934768 1_555
Al37 Ta27 2.964822 1_565
Al37 Ta35 2.981713 1_565
Al37 Ta20 2.985714 1_665
Al37 Al43 3.007204 1_555
Al38 Al59 2.477362 1_555
Al38 Ta15 2.929472 1_545
Al38 Ta13 2.929472 1_554
Al38 Ta35 2.987225 1_555
Al38 Ta28 2.988872 1_555
Al38 Ta27 2.988872 1_555
Al38 Ta20 3.004943 1_655
Al38 Al47 3.027214 1_555
Al38 Al53 3.027214 1_555
Al39 Al63 2.505833 1_555
Al39 Al40 2.544867 1_655
Al39 Al41 2.576989 1_645
Al39 Ta13 2.894751 1_555
Al39 Ta12 2.902228 1_545
Al39 Ta31 2.919395 1_655
Al39 Al45 2.934768 1_555
Al39 Ta32 2.964822 1_655
Al39 Ta36 2.981713 1_655
Al39 Ta20 2.985714 1_656
Al39 Al42 3.007204 1_555
Al40 Al58 2.477362 1_555
Al40 Al41 2.544867 1_545
Al40 Ta14 2.929472 1_545
Al40 Ta13 2.929472 1_455
Al40 Ta36 2.987225 1_555
Al40 Ta32 2.988872 1_555
Al40 Ta30 2.988872 1_555
Al40 Ta20 3.004943 1_556
Al40 Al49 3.027214 1_555
Al40 Al46 3.027214 1_555
Al41 Al62 2.505833 1_555
Al41 Ta14 2.894751 1_555
Al41 Ta12 2.902228 1_455
Al41 Ta31 2.919395 1_565
Al41 Al50 2.934768 1_555
Al41 Ta30 2.964822 1_565
Al41 Ta36 2.981713 1_565
Al41 Ta20 2.985714 1_566
Al41 Al44 3.007204 1_555
Al42 Ta31 2.783207 1_655
Al42 Ta29 2.783207 1_556
Al42 Ta5 2.788316 1_555
Al42 Ta4 2.788316 1_555
Al42 Ta12 2.841842 1_545
Al42 Al66 2.970581 1_555
Al42 Al63 2.970581 1_555
Al43 Ta29 2.783207 1_565
Al43 Ta24 2.783207 1_655
Al43 Ta11 2.788316 1_555
Al43 Ta9 2.788316 1_555
Al43 Al8 2.832048 1_555
Al43 Ta12 2.841842 1_554
Al43 Al61 2.970581 1_555
Al43 Al64 2.970581 1_555
Al44 Ta31 2.783207 1_565
Al44 Ta24 2.783207 1_556
Al44 Ta6 2.788316 1_555
Al44 Ta7 2.788316 1_555
Al44 Al9 2.832048 1_555
Al44 Ta12 2.841842 1_455
Al44 Al68 2.970581 1_555
Al44 Al62 2.970581 1_555
Al45 Ta1 2.783239 1_555
Al45 Ta2 2.783240 1_555
Al45 Ta32 2.800643 1_655
Al45 Ta28 2.800643 1_556
Al45 Ta13 2.807728 1_555
Al45 Al66 2.937517 1_555
Al45 Al63 2.937517 1_555
Al46 Ta13 2.781087 1_455
Al46 Ta6 2.783677 1_555
Al46 Ta32 2.786022 1_555
Al46 Ta21 2.795058 1_556
Al46 Ta8 2.804274 1_555
Al46 Al67 3.026591 1_555
Al47 Ta13 2.781087 1_554
Al47 Ta9 2.783677 1_555
Al47 Ta28 2.786022 1_555
Al47 Ta21 2.795058 1_655
Al47 Ta10 2.804274 1_555
Al47 Al65 3.026591 1_555
Al48 Ta14 2.781087 1_554
Al48 Ta11 2.783677 1_555
Al48 Ta25 2.786022 1_555
Al48 Ta23 2.795058 1_565
Al48 Ta10 2.804274 1_555
Al48 Al60 3.026591 1_555
Al49 Ta14 2.781087 1_545
Al49 Ta5 2.783677 1_555
Al49 Ta30 2.786022 1_555
Al49 Ta23 2.795058 1_556
Al49 Ta3 2.804274 1_555
Al49 Al67 3.026591 1_555
Al50 Ta1 2.783239 1_555
Al50 Ta0 2.783240 1_555
Al50 Ta30 2.800643 1_565
Al50 Ta25 2.800643 1_556
Al50 Ta14 2.807728 1_555
Al50 Al9 2.828581 1_555
Al50 Al68 2.937517 1_555
Al50 Al62 2.937517 1_555
Al51 Ta15 2.781087 1_455
Al51 Ta7 2.783677 1_555
Al51 Ta26 2.786022 1_555
Al51 Ta22 2.795058 1_565
Al51 Ta8 2.804274 1_555
Al51 Al60 3.026591 1_555
Al52 Ta0 2.783239 1_555
Al52 Ta2 2.783239 1_555
Al52 Ta27 2.800643 1_565
Al52 Ta26 2.800643 1_655
Al52 Ta15 2.807728 1_555
Al52 Al8 2.828581 1_555
Al52 Al61 2.937517 1_555
Al52 Al64 2.937517 1_555
Al53 Ta15 2.781087 1_545
Al53 Ta4 2.783677 1_555
Al53 Ta27 2.786022 1_555
Al53 Ta22 2.795058 1_655
Al53 Ta3 2.804274 1_555
Al53 Al65 3.026591 1_555
Al54 Ta22 2.689852 1_665
Al54 Ta31 2.751948 1_665
Al54 Ta37 2.791199 1_555
Al54 Ta7 2.933253 1_655
Al54 Ta4 2.933253 1_565
Al55 Ta23 2.689852 1_566
Al55 Ta29 2.751948 1_566
Al55 Ta37 2.791199 1_555
Al55 Ta5 2.933253 1_565
Al55 Ta11 2.933253 1_556
Al56 Ta21 2.689852 1_656
Al56 Ta24 2.751948 1_656
Al56 Ta37 2.791199 1_555
Al56 Ta6 2.933253 1_655
Al56 Ta9 2.933253 1_556
Al57 Ta16 2.785123 1_555
Al57 Ta10 2.915826 1_555
Al57 Ta8 2.915827 1_555
Al57 Ta26 2.936516 1_555
Al57 Ta25 2.936516 1_555
Al57 Ta34 2.955812 1_555
Al58 Ta16 2.785123 1_555
Al58 Ta3 2.915826 1_555
Al58 Ta8 2.915826 1_555
Al58 Ta32 2.936516 1_555
Al58 Ta30 2.936516 1_555
Al58 Ta36 2.955812 1_555
Al59 Ta16 2.785123 1_555
Al59 Ta10 2.915826 1_555
Al59 Ta3 2.915827 1_555
Al59 Ta27 2.936516 1_555
Al59 Ta28 2.936516 1_555
Al59 Ta35 2.955812 1_555
Al60 Ta17 2.799679 1_555
Al60 Ta22 2.887884 1_565
Al60 Ta23 2.887884 1_565
Al60 Ta11 2.966287 1_555
Al60 Ta7 2.966287 1_555
Al60 Ta33 2.970036 1_565
Al61 Al8 2.546289 1_555
Al61 Ta17 2.789567 1_555
Al61 Ta29 2.907121 1_565
Al61 Ta27 2.946774 1_565
Al61 Ta0 2.957278 1_555
Al61 Ta35 2.972859 1_565
Al61 Ta11 2.978214 1_555
Al62 Al9 2.546289 1_555
Al62 Ta17 2.789567 1_555
Al62 Ta31 2.907121 1_565
Al62 Ta30 2.946774 1_565
Al62 Ta0 2.957278 1_555
Al62 Ta36 2.972859 1_565
Al62 Ta7 2.978214 1_555
Al63 Ta18 2.789567 1_555
Al63 Ta31 2.907121 1_655
Al63 Ta32 2.946774 1_655
Al63 Ta2 2.957278 1_555
Al63 Ta36 2.972859 1_655
Al63 Ta4 2.978214 1_555
Al64 Al8 2.546289 1_555
Al64 Ta18 2.789567 1_555
Al64 Ta24 2.907121 1_655
Al64 Ta26 2.946774 1_655
Al64 Ta2 2.957278 1_555
Al64 Ta34 2.972859 1_655
Al64 Ta9 2.978214 1_555
Al65 Ta18 2.799679 1_555
Al65 Ta22 2.887884 1_655
Al65 Ta21 2.887884 1_655
Al65 Ta9 2.966287 1_555
Al65 Ta4 2.966287 1_555
Al65 Ta33 2.970036 1_655
Al66 Ta19 2.789567 1_555
Al66 Ta29 2.907121 1_556
Al66 Ta28 2.946774 1_556
Al66 Ta1 2.957278 1_555
Al66 Ta35 2.972859 1_556
Al66 Ta5 2.978214 1_555
Al67 Ta19 2.799679 1_555
Al67 Ta23 2.887884 1_556
Al67 Ta21 2.887884 1_556
Al67 Ta6 2.966287 1_555
Al67 Ta5 2.966287 1_555
Al67 Ta33 2.970036 1_556
Al68 Al9 2.546289 1_555
Al68 Ta19 2.789567 1_555
Al68 Ta24 2.907121 1_556
Al68 Ta25 2.946774 1_556
Al68 Ta1 2.957278 1_555
Al68 Ta34 2.972859 1_556
Al68 Ta6 2.978214 1_555
