# generated using pymatgen
data_Te2MoW3(Se2S)2
_symmetry_space_group_name_H-M   'P 1'
_cell_length_a   3.34315238
_cell_length_b   3.34315238
_cell_length_c   38.16007800
_cell_angle_alpha   90.00000000
_cell_angle_beta   90.00000000
_cell_angle_gamma   120.00000753
_symmetry_Int_Tables_number   1
_chemical_formula_structural   Te2MoW3(Se2S)2
_chemical_formula_sum   'Te2 Mo1 W3 Se4 S2'
_cell_volume   369.36198605
_cell_formula_units_Z   1
loop_
 _symmetry_equiv_pos_site_id
 _symmetry_equiv_pos_as_xyz
  1  'x, y, z'
loop_
 _atom_site_type_symbol
 _atom_site_label
 _atom_site_symmetry_multiplicity
 _atom_site_fract_x
 _atom_site_fract_y
 _atom_site_fract_z
 _atom_site_occupancy
  Te  Te0  1  0.00000000  0.00000000  0.33177700  1
  Te  Te1  1  0.00000000  0.00000000  0.23176400  1
  Mo  Mo0  1  0.00000000  0.00000000  0.46970300  1
  W  W0  1  0.00000000  0.00000000  0.09391000  1
  W  W1  1  0.33333300  0.66666700  0.28175100  1
  W  W2  1  0.33333300  0.66666700  0.65754400  1
  Se  Se0  1  0.00000000  0.00000000  0.70148700  1
  Se  Se1  1  0.33333300  0.66666700  0.42596900  1
  Se  Se2  1  0.33333300  0.66666700  0.51341700  1
  Se  Se3  1  0.00000000  0.00000000  0.61359200  1
  S  S0  1  0.33333300  0.66666700  0.05404400  1
  S  S1  1  0.33333300  0.66666700  0.13378900  1
loop_
_geom_bond_atom_site_label_1
_geom_bond_atom_site_label_2
_geom_bond_distance
_geom_bond_site_symmetry_2
Te0 W1 2.714740 1_545
Te0 W1 2.714742 1_445
Te0 W1 2.714742 1_555
Te1 W1 2.713694 1_545
Te1 W1 2.713696 1_445
Te1 W1 2.713696 1_555
Mo0 Se2 2.551118 1_545
Mo0 Se2 2.551120 1_555
Mo0 Se2 2.551120 1_445
Mo0 Se1 2.551618 1_545
Mo0 Se1 2.551620 1_445
Mo0 Se1 2.551620 1_555
Se0 W2 2.556841 1_545
Se0 W2 2.556843 1_555
Se0 W2 2.556843 1_445
Se3 W2 2.557066 1_545
Se3 W2 2.557068 1_445
Se3 W2 2.557068 1_555
S0 W0 2.457615 1_565
S0 W0 2.457617 1_555
S0 W0 2.457617 1_665
S1 W0 2.457922 1_565
S1 W0 2.457924 1_665
S1 W0 2.457924 1_555
