# generated using pymatgen
data_Ba3LaIrRuO9
_symmetry_space_group_name_H-M   'P 1'
_cell_length_a   6.00476299
_cell_length_b   6.00476299
_cell_length_c   15.22899200
_cell_angle_alpha   90.00000000
_cell_angle_beta   90.00000000
_cell_angle_gamma   119.99998886
_symmetry_Int_Tables_number   1
_chemical_formula_structural   Ba3LaIrRuO9
_chemical_formula_sum   'Ba6 La2 Ir2 Ru2 O18'
_cell_volume   475.54714585
_cell_formula_units_Z   2
loop_
 _symmetry_equiv_pos_site_id
 _symmetry_equiv_pos_as_xyz
  1  'x, y, z'
loop_
 _atom_site_type_symbol
 _atom_site_label
 _atom_site_symmetry_multiplicity
 _atom_site_fract_x
 _atom_site_fract_y
 _atom_site_fract_z
 _atom_site_occupancy
  Ba  Ba0  1  0.66666700  0.33333300  0.39423100  1
  Ba  Ba1  1  0.33333300  0.66666700  0.60614900  1
  Ba  Ba2  1  0.33333300  0.66666700  0.89423100  1
  Ba  Ba3  1  0.66666700  0.33333300  0.10614900  1
  Ba  Ba4  1  0.00000000  0.00000000  0.74972400  1
  Ba  Ba5  1  0.00000000  0.00000000  0.24972400  1
  La  La0  1  0.00000000  0.00000000  0.50097300  1
  La  La1  1  0.00000000  0.00000000  0.00097300  1
  Ir  Ir0  1  0.66666700  0.33333300  0.66808000  1
  Ir  Ir1  1  0.33333300  0.66666700  0.16808000  1
  Ru  Ru0  1  0.33333300  0.66666700  0.33370900  1
  Ru  Ru1  1  0.66666700  0.33333300  0.83370900  1
  O  O0  1  0.82196100  0.64392200  0.90527200  1
  O  O1  1  0.82196100  0.17803900  0.90527200  1
  O  O2  1  0.35607800  0.17803900  0.90527200  1
  O  O3  1  0.17797200  0.35594400  0.09355500  1
  O  O4  1  0.17797200  0.82202800  0.09355500  1
  O  O5  1  0.64405600  0.82202800  0.09355500  1
  O  O6  1  0.17803900  0.35607800  0.40527200  1
  O  O7  1  0.17803900  0.82196100  0.40527200  1
  O  O8  1  0.64392200  0.82196100  0.40527200  1
  O  O9  1  0.82202800  0.64405600  0.59355500  1
  O  O10  1  0.82202800  0.17797200  0.59355500  1
  O  O11  1  0.35594400  0.17797200  0.59355500  1
  O  O12  1  0.50904400  0.01808700  0.75016600  1
  O  O13  1  0.50904400  0.49095600  0.75016600  1
  O  O14  1  0.98191300  0.49095600  0.75016600  1
  O  O15  1  0.49095600  0.98191300  0.25016600  1
  O  O16  1  0.49095600  0.50904400  0.25016600  1
  O  O17  1  0.01808700  0.50904400  0.25016600  1
loop_
_geom_bond_atom_site_label_1
_geom_bond_atom_site_label_2
_geom_bond_distance
_geom_bond_site_symmetry_2
Ba0 O17 2.855376 1_655
Ba0 O15 2.855376 1_545
Ba0 O16 2.855382 1_555
Ba0 O6 3.009408 1_655
Ba0 O8 3.009408 1_545
Ba0 O7 3.009412 1_655
Ba0 O7 3.009412 1_545
Ba0 O8 3.009414 1_555
Ba0 O6 3.009414 1_555
Ba0 O10 3.438782 1_555
Ba0 O9 3.438785 1_555
Ba0 O11 3.438785 1_555
Ba1 O12 2.854814 1_565
Ba1 O14 2.854814 1_455
Ba1 O13 2.854821 1_555
Ba1 O11 3.010795 1_565
Ba1 O9 3.010795 1_455
Ba1 O10 3.010798 1_565
Ba1 O10 3.010798 1_455
Ba1 O9 3.010801 1_555
Ba1 O11 3.010801 1_555
Ba2 O12 2.855376 1_565
Ba2 O14 2.855376 1_455
Ba2 O13 2.855382 1_555
Ba2 O2 3.009408 1_565
Ba2 O0 3.009408 1_455
Ba2 O1 3.009412 1_565
Ba2 O1 3.009412 1_455
Ba2 O0 3.009414 1_555
Ba2 O2 3.009414 1_555
Ba2 O4 3.438782 1_556
Ba2 O5 3.438785 1_556
Ba2 O3 3.438785 1_556
Ba3 O17 2.854814 1_655
Ba3 O15 2.854814 1_545
Ba3 O16 2.854821 1_555
Ba3 O3 3.010795 1_655
Ba3 O5 3.010795 1_545
Ba3 O4 3.010798 1_545
Ba3 O4 3.010798 1_655
Ba3 O3 3.010801 1_555
Ba3 O5 3.010801 1_555
Ba4 O14 3.003859 1_455
Ba4 O12 3.003859 1_455
Ba4 O13 3.003863 1_555
Ba4 O13 3.003863 1_445
Ba4 O12 3.003865 1_555
Ba4 O14 3.003865 1_445
Ba4 O1 3.006694 1_455
Ba4 O0 3.006694 1_445
Ba4 O2 3.006694 1_555
Ba4 O10 3.013722 1_455
Ba4 O11 3.013723 1_555
Ba4 O9 3.013723 1_445
Ba5 O15 3.003859 1_545
Ba5 O17 3.003859 1_545
Ba5 O16 3.003863 1_555
Ba5 O16 3.003863 1_445
Ba5 O17 3.003865 1_555
Ba5 O15 3.003865 1_445
Ba5 O7 3.006694 1_545
Ba5 O8 3.006694 1_445
Ba5 O6 3.006694 1_555
Ba5 O4 3.013722 1_545
Ba5 O3 3.013723 1_555
Ba5 O5 3.013723 1_445
La0 O10 2.326829 1_455
La0 O11 2.326829 1_555
La0 O9 2.326829 1_445
La0 O7 2.356461 1_545
La0 O8 2.356462 1_445
La0 O6 2.356462 1_555
La1 O4 2.326829 1_545
La1 O3 2.326829 1_555
La1 O5 2.326829 1_445
La1 O1 2.356461 1_454
La1 O0 2.356462 1_444
La1 O2 2.356462 1_554
Ir0 O10 1.974596 1_555
Ir0 O9 1.974601 1_555
Ir0 O11 1.974601 1_555
Ir0 O13 2.061611 1_555
Ir0 O14 2.061611 1_555
Ir0 O12 2.061611 1_555
Ir1 O4 1.974596 1_555
Ir1 O5 1.974601 1_555
Ir1 O3 1.974601 1_555
Ir1 O16 2.061611 1_555
Ir1 O15 2.061611 1_555
Ir1 O17 2.061611 1_555
O0 Ru1 1.948446 1_555
O1 Ru1 1.948441 1_555
O2 Ru1 1.948446 1_555
O6 Ru0 1.948446 1_555
O7 Ru0 1.948441 1_555
O8 Ru0 1.948446 1_555
O12 Ru1 2.075141 1_555
O13 Ru1 2.075140 1_555
O14 Ru1 2.075141 1_555
O15 Ru0 2.075141 1_555
O16 Ru0 2.075140 1_555
O17 Ru0 2.075141 1_555
