# generated using pymatgen
data_UFeC2
_symmetry_space_group_name_H-M   'P 1'
_cell_length_a   3.47106306
_cell_length_b   3.47106306
_cell_length_c   7.62058884
_cell_angle_alpha   90.00000000
_cell_angle_beta   90.00000000
_cell_angle_gamma   90.00000000
_symmetry_Int_Tables_number   1
_chemical_formula_structural   UFeC2
_chemical_formula_sum   'U2 Fe2 C4'
_cell_volume   91.81497871
_cell_formula_units_Z   2
loop_
 _symmetry_equiv_pos_site_id
 _symmetry_equiv_pos_as_xyz
  1  'x, y, z'
loop_
 _atom_site_type_symbol
 _atom_site_label
 _atom_site_symmetry_multiplicity
 _atom_site_fract_x
 _atom_site_fract_y
 _atom_site_fract_z
 _atom_site_occupancy
  U  U0  1  -0.00000000  0.50000000  0.67406415  1
  U  U1  1  0.50000000  0.00000000  0.32593585  1
  Fe  Fe0  1  0.00000000  0.00000000  0.00000000  1
  Fe  Fe1  1  0.50000000  0.50000000  0.00000000  1
  C  C0  1  0.00000000  0.50000000  0.17048952  1
  C  C1  1  0.50000000  0.00000000  0.82951048  1
  C  C2  1  -0.00000000  0.50000000  0.36199300  1
  C  C3  1  0.50000000  0.00000000  0.63800700  1
loop_
_geom_bond_atom_site_label_1
_geom_bond_atom_site_label_2
_geom_bond_distance
_geom_bond_site_symmetry_2
C0 C2 1.459369 1_555
C0 Fe1 2.167964 1_455
C0 Fe0 2.167964 1_555
C0 Fe0 2.167964 1_565
C0 Fe1 2.167964 1_555
C1 C3 1.459369 1_555
C1 Fe0 2.167964 1_556
C1 Fe1 2.167964 1_556
C1 Fe0 2.167964 1_656
C1 Fe1 2.167964 1_546
C2 U0 2.378166 1_555
C2 U1 2.469745 1_565
C2 U1 2.469745 1_465
C2 U1 2.469745 1_455
C2 U1 2.469745 1_555
C3 U1 2.378166 1_555
C3 U0 2.469745 1_645
C3 U0 2.469745 1_545
C3 U0 2.469745 1_655
C3 U0 2.469745 1_555
