# generated using pymatgen
data_LiZn4(SnO2)4
_symmetry_space_group_name_H-M   'P 1'
_cell_length_a   3.46724165
_cell_length_b   9.39661466
_cell_length_c   9.28803673
_cell_angle_alpha   101.85736571
_cell_angle_beta   79.30878212
_cell_angle_gamma   79.50946339
_symmetry_Int_Tables_number   1
_chemical_formula_structural   LiZn4(SnO2)4
_chemical_formula_sum   'Li1 Zn4 Sn4 O8'
_cell_volume   283.27859337
_cell_formula_units_Z   1
loop_
 _symmetry_equiv_pos_site_id
 _symmetry_equiv_pos_as_xyz
  1  'x, y, z'
loop_
 _atom_site_type_symbol
 _atom_site_label
 _atom_site_symmetry_multiplicity
 _atom_site_fract_x
 _atom_site_fract_y
 _atom_site_fract_z
 _atom_site_occupancy
  Li  Li0  1  0.10416800  0.49052900  0.01460600  1
  Zn  Zn0  1  0.60570600  0.00404700  0.33322800  1
  Zn  Zn1  1  0.43779900  0.97596300  0.69509200  1
  Zn  Zn2  1  0.35586200  0.79347100  0.04631900  1
  Zn  Zn3  1  0.69697800  0.18696900  0.98176500  1
  Sn  Sn0  1  0.81722000  0.26965800  0.64259500  1
  Sn  Sn1  1  0.98581300  0.31336900  0.27472300  1
  Sn  Sn2  1  0.05955700  0.66637500  0.75332700  1
  Sn  Sn3  1  0.22241500  0.71045300  0.38577500  1
  O  O0  1  0.61152300  0.83131100  0.48977100  1
  O  O1  1  0.11352600  0.29967400  0.03577900  1
  O  O2  1  0.93753200  0.68049900  0.99238100  1
  O  O3  1  0.42879000  0.14907800  0.53837400  1
  O  O4  1  0.84759200  0.08787600  0.76600500  1
  O  O5  1  0.59607500  0.16198600  0.20387500  1
  O  O6  1  0.19622100  0.89227500  0.26215000  1
  O  O7  1  0.45149900  0.81799400  0.82413700  1
loop_
_geom_bond_atom_site_label_1
_geom_bond_atom_site_label_2
_geom_bond_distance
_geom_bond_site_symmetry_2
Li0 O1 1.839046 1_555
Li0 O2 1.839303 1_454
O0 Zn1 2.014334 1_555
O0 Sn3 2.150180 1_655
O0 Sn3 2.152559 1_555
O0 Zn0 2.391197 1_565
O1 Zn3 2.016597 1_454
O1 Zn3 2.022527 1_554
O1 Sn1 2.152970 1_455
O2 Zn2 2.017989 1_556
O2 Zn2 2.023223 1_656
O2 Sn2 2.153240 1_655
O3 Zn0 2.014665 1_555
O3 Sn0 2.150187 1_555
O3 Sn0 2.151738 1_455
O3 Zn1 2.395270 1_545
O4 Zn3 1.955378 1_555
O4 Zn1 2.039368 1_645
O4 Zn1 2.040878 1_545
O4 Sn0 2.242002 1_555
O5 Zn0 2.092050 1_555
O5 Zn3 2.096301 1_554
O5 Sn1 2.219858 1_555
O5 Sn1 2.221781 1_455
O6 Zn2 1.955320 1_555
O6 Zn0 2.039739 1_565
O6 Zn0 2.039971 1_465
O6 Sn3 2.243676 1_555
O7 Zn1 2.090165 1_555
O7 Zn2 2.095470 1_556
O7 Sn2 2.216728 1_655
O7 Sn2 2.227259 1_555
