# generated using pymatgen
data_BaSm2(CoO3)2
_symmetry_space_group_name_H-M   'P 1'
_cell_length_a   5.61099400
_cell_length_b   5.67742200
_cell_length_c   19.98211400
_cell_angle_alpha   90.00000000
_cell_angle_beta   90.00000000
_cell_angle_gamma   90.00000000
_symmetry_Int_Tables_number   1
_chemical_formula_structural   BaSm2(CoO3)2
_chemical_formula_sum   'Ba4 Sm8 Co8 O24'
_cell_volume   636.54983948
_cell_formula_units_Z   4
loop_
 _symmetry_equiv_pos_site_id
 _symmetry_equiv_pos_as_xyz
  1  'x, y, z'
loop_
 _atom_site_type_symbol
 _atom_site_label
 _atom_site_symmetry_multiplicity
 _atom_site_fract_x
 _atom_site_fract_y
 _atom_site_fract_z
 _atom_site_occupancy
  Ba  Ba0  1  0.22637700  0.73892600  0.00000000  1
  Ba  Ba1  1  0.77362300  0.26107400  0.00000000  1
  Ba  Ba2  1  0.27362300  0.23892600  0.50000000  1
  Ba  Ba3  1  0.72637700  0.76107400  0.50000000  1
  Sm  Sm0  1  0.24565900  0.26020200  0.31507100  1
  Sm  Sm1  1  0.75434100  0.73979800  0.68492900  1
  Sm  Sm2  1  0.75434100  0.73979800  0.31507100  1
  Sm  Sm3  1  0.25434100  0.76020200  0.18492900  1
  Sm  Sm4  1  0.24565900  0.26020200  0.68492900  1
  Sm  Sm5  1  0.74565900  0.23979800  0.81507100  1
  Sm  Sm6  1  0.74565900  0.23979800  0.18492900  1
  Sm  Sm7  1  0.25434100  0.76020200  0.81507100  1
  Co  Co0  1  0.24918600  0.25678700  0.10054100  1
  Co  Co1  1  0.75081400  0.74321300  0.89945900  1
  Co  Co2  1  0.75081400  0.74321300  0.10054100  1
  Co  Co3  1  0.25081400  0.75678700  0.39945900  1
  Co  Co4  1  0.24918600  0.25678700  0.89945900  1
  Co  Co5  1  0.74918600  0.24321300  0.60054100  1
  Co  Co6  1  0.74918600  0.24321300  0.39945900  1
  Co  Co7  1  0.25081400  0.75678700  0.60054100  1
  O  O0  1  0.00000000  0.00000000  0.11003000  1
  O  O1  1  0.00000000  0.00000000  0.88997000  1
  O  O2  1  0.50000000  0.50000000  0.38997000  1
  O  O3  1  0.50000000  0.50000000  0.61003000  1
  O  O4  1  0.28782700  0.22489600  0.00000000  1
  O  O5  1  0.71217300  0.77510400  0.00000000  1
  O  O6  1  0.21217300  0.72489600  0.50000000  1
  O  O7  1  0.78782700  0.27510400  0.50000000  1
  O  O8  1  0.31552800  0.17328000  0.20807000  1
  O  O9  1  0.68447200  0.82672000  0.79193000  1
  O  O10  1  0.68447200  0.82672000  0.20807000  1
  O  O11  1  0.18447200  0.67328000  0.29193000  1
  O  O12  1  0.31552800  0.17328000  0.79193000  1
  O  O13  1  0.81552800  0.32672000  0.70807000  1
  O  O14  1  0.81552800  0.32672000  0.29193000  1
  O  O15  1  0.18447200  0.67328000  0.70807000  1
  O  O16  1  0.00000000  0.00000000  0.38465400  1
  O  O17  1  0.00000000  0.00000000  0.61534600  1
  O  O18  1  0.50000000  0.50000000  0.11534600  1
  O  O19  1  0.50000000  0.50000000  0.88465400  1
  O  O20  1  0.00000000  0.50000000  0.12440400  1
  O  O21  1  0.00000000  0.50000000  0.87559600  1
  O  O22  1  0.50000000  0.00000000  0.37559600  1
  O  O23  1  0.50000000  0.00000000  0.62440400  1
loop_
_geom_bond_atom_site_label_1
_geom_bond_atom_site_label_2
_geom_bond_distance
_geom_bond_site_symmetry_2
Ba0 O5 2.733526 1_555
Ba0 O4 2.780518 1_565
Ba0 O5 2.892497 1_455
Ba0 O4 2.938663 1_555
Ba0 O1 2.940134 1_564
Ba0 O0 2.940134 1_565
Ba0 O18 3.083756 1_555
Ba0 O19 3.083756 1_554
Ba0 O20 3.103696 1_555
Ba0 O21 3.103696 1_554
Ba1 O4 2.733526 1_555
Ba1 O5 2.780518 1_545
Ba1 O4 2.892497 1_655
Ba1 O5 2.938663 1_555
Ba1 O1 2.940134 1_654
Ba1 O0 2.940134 1_655
Ba1 O18 3.083756 1_555
Ba1 O19 3.083756 1_554
Ba1 O20 3.103696 1_655
Ba1 O21 3.103696 1_654
Ba2 O7 2.733526 1_455
Ba2 O6 2.780518 1_555
Ba2 O7 2.892497 1_555
Ba2 O6 2.938663 1_545
Ba2 O2 2.940134 1_555
Ba2 O3 2.940134 1_555
Ba2 O17 3.083756 1_555
Ba2 O16 3.083756 1_555
Ba2 O23 3.103696 1_555
Ba2 O22 3.103696 1_555
Ba3 O6 2.733526 1_655
Ba3 O7 2.780518 1_555
Ba3 O6 2.892497 1_555
Ba3 O7 2.938663 1_565
Ba3 O2 2.940134 1_555
Ba3 O3 2.940134 1_555
Ba3 O17 3.083756 1_665
Ba3 O16 3.083756 1_665
Ba3 O23 3.103696 1_565
Ba3 O22 3.103696 1_565
Co0 O18 1.993672 1_555
Co0 O20 2.022116 1_555
Co0 O4 2.028783 1_555
Co0 O0 2.028867 1_555
Co0 O8 2.231606 1_555
Co1 O19 1.993672 1_555
Co1 O21 2.022116 1_655
Co1 O5 2.028783 1_556
Co1 O1 2.028867 1_665
Co1 O9 2.231606 1_555
Co2 O18 1.993672 1_555
Co2 O20 2.022116 1_655
Co2 O5 2.028783 1_555
Co2 O0 2.028867 1_665
Co2 O10 2.231606 1_555
Co3 O16 1.993672 1_565
Co3 O22 2.022116 1_565
Co3 O6 2.028783 1_555
Co3 O2 2.028867 1_555
Co3 O11 2.231606 1_555
Co4 O19 1.993672 1_555
Co4 O21 2.022116 1_555
Co4 O4 2.028783 1_556
Co4 O1 2.028867 1_555
Co4 O12 2.231606 1_555
Co5 O17 1.993672 1_655
Co5 O23 2.022116 1_555
Co5 O7 2.028783 1_555
Co5 O3 2.028867 1_555
Co5 O13 2.231606 1_555
Co6 O16 1.993672 1_655
Co6 O22 2.022116 1_555
Co6 O7 2.028783 1_555
Co6 O2 2.028867 1_555
Co6 O14 2.231606 1_555
Co7 O17 1.993672 1_565
Co7 O23 2.022116 1_565
Co7 O6 2.028783 1_555
Co7 O3 2.028867 1_555
Co7 O15 2.231606 1_555
O0 Sm6 2.475897 1_455
O0 Sm3 2.475897 1_545
O1 Sm5 2.475897 1_455
O1 Sm7 2.475897 1_545
O2 Sm2 2.475897 1_555
O2 Sm0 2.475897 1_555
O3 Sm1 2.475897 1_555
O3 Sm4 2.475897 1_555
O8 Sm0 2.229064 1_555
O8 Sm3 2.414899 1_545
O8 Sm6 2.486210 1_555
O9 Sm1 2.229064 1_555
O9 Sm5 2.414899 1_565
O9 Sm7 2.486210 1_555
O10 Sm2 2.229064 1_555
O10 Sm6 2.414899 1_565
O10 Sm3 2.486210 1_555
O11 Sm3 2.229064 1_555
O11 Sm0 2.414899 1_555
O11 Sm2 2.486210 1_455
O12 Sm4 2.229064 1_555
O12 Sm7 2.414899 1_545
O12 Sm5 2.486210 1_555
O13 Sm5 2.229064 1_555
O13 Sm1 2.414899 1_555
O13 Sm4 2.486210 1_655
O14 Sm6 2.229064 1_555
O14 Sm2 2.414899 1_555
O14 Sm0 2.486210 1_655
O15 Sm7 2.229064 1_555
O15 Sm4 2.414899 1_555
O15 Sm1 2.486210 1_455
O16 Sm0 2.452665 1_555
O16 Sm2 2.452665 1_445
O17 Sm4 2.452665 1_555
O17 Sm1 2.452665 1_445
O18 Sm3 2.452665 1_555
O18 Sm6 2.452665 1_555
O19 Sm7 2.452665 1_555
O19 Sm5 2.452665 1_555
O20 Sm3 2.383625 1_555
O20 Sm6 2.383625 1_455
O21 Sm7 2.383625 1_555
O21 Sm5 2.383625 1_455
O22 Sm2 2.383625 1_545
O22 Sm0 2.383625 1_555
O23 Sm1 2.383625 1_545
O23 Sm4 2.383625 1_555
