# generated using pymatgen
data_KMg6Mn
_symmetry_space_group_name_H-M   'P 1'
_cell_length_a   5.07336600
_cell_length_b   6.57717500
_cell_length_c   11.54186100
_cell_angle_alpha   90.00000000
_cell_angle_beta   90.00000000
_cell_angle_gamma   90.00000000
_symmetry_Int_Tables_number   1
_chemical_formula_structural   KMg6Mn
_chemical_formula_sum   'K2 Mg12 Mn2'
_cell_volume   385.13361951
_cell_formula_units_Z   2
loop_
 _symmetry_equiv_pos_site_id
 _symmetry_equiv_pos_as_xyz
  1  'x, y, z'
loop_
 _atom_site_type_symbol
 _atom_site_label
 _atom_site_symmetry_multiplicity
 _atom_site_fract_x
 _atom_site_fract_y
 _atom_site_fract_z
 _atom_site_occupancy
  K  K0  1  0.50000000  0.50000000  0.16609900  1
  K  K1  1  0.50000000  0.00000000  0.66609900  1
  Mg  Mg0  1  0.00000000  0.77369700  0.06982300  1
  Mg  Mg1  1  0.00000000  0.22630300  0.06982300  1
  Mg  Mg2  1  0.00000000  0.00000000  0.33565700  1
  Mg  Mg3  1  0.50000000  0.27560200  0.40917100  1
  Mg  Mg4  1  0.50000000  0.72439800  0.40917100  1
  Mg  Mg5  1  0.50000000  0.00000000  0.16924300  1
  Mg  Mg6  1  0.00000000  0.27369700  0.56982300  1
  Mg  Mg7  1  0.00000000  0.72630300  0.56982300  1
  Mg  Mg8  1  0.00000000  0.50000000  0.83565700  1
  Mg  Mg9  1  0.50000000  0.77560200  0.90917100  1
  Mg  Mg10  1  0.50000000  0.22439800  0.90917100  1
  Mg  Mg11  1  0.50000000  0.50000000  0.66924300  1
  Mn  Mn0  1  0.00000000  0.50000000  0.37101100  1
  Mn  Mn1  1  0.00000000  0.00000000  0.87101100  1
loop_
_geom_bond_atom_site_label_1
_geom_bond_atom_site_label_2
_geom_bond_distance
_geom_bond_site_symmetry_2
K0 Mg3 3.170038 1_555
K0 Mg4 3.170038 1_555
K0 Mg5 3.288788 1_555
K0 Mg5 3.288788 1_565
K0 Mg1 3.303042 1_555
K0 Mg0 3.303042 1_655
K0 Mg1 3.303042 1_655
K0 Mg0 3.303042 1_555
K0 Mn0 3.468184 1_555
K0 Mn0 3.468184 1_655
K0 Mg9 3.475569 1_554
K0 Mg10 3.475569 1_554
K1 Mg9 3.170038 1_545
K1 Mg10 3.170038 1_555
K1 Mg11 3.288788 1_545
K1 Mg11 3.288788 1_555
K1 Mg7 3.303042 1_645
K1 Mg7 3.303042 1_545
K1 Mg6 3.303042 1_655
K1 Mg6 3.303042 1_555
K1 Mn1 3.468184 1_555
K1 Mn1 3.468184 1_655
K1 Mg3 3.475569 1_555
K1 Mg4 3.475569 1_545
Mg0 Mn1 2.735124 1_564
Mg0 Mg9 3.142143 1_554
Mg0 Mg9 3.142143 1_454
Mg0 Mg5 3.157045 1_565
Mg0 Mg5 3.157045 1_465
Mg0 Mg8 3.247337 1_554
Mg0 Mg2 3.410191 1_565
Mg1 Mn1 2.735124 1_554
Mg1 Mg10 3.142143 1_454
Mg1 Mg10 3.142143 1_554
Mg1 Mg5 3.157045 1_555
Mg1 Mg5 3.157045 1_455
Mg1 Mg8 3.247337 1_554
Mg1 Mg2 3.410191 1_555
Mg2 Mg5 3.181816 1_455
Mg2 Mg5 3.181816 1_555
Mg2 Mg3 3.231178 1_555
Mg2 Mg4 3.231178 1_545
Mg2 Mg3 3.231178 1_455
Mg2 Mg4 3.231178 1_445
Mg2 Mg7 3.247337 1_545
Mg2 Mg6 3.247337 1_555
Mg2 Mn0 3.313806 1_555
Mg2 Mn0 3.313806 1_545
Mg3 Mg4 2.951810 1_555
Mg3 Mn0 2.967666 1_655
Mg3 Mn0 2.967666 1_555
Mg3 Mg6 3.142143 1_555
Mg3 Mg6 3.142143 1_655
Mg3 Mg5 3.309739 1_555
Mg4 Mn0 2.967666 1_655
Mg4 Mn0 2.967666 1_555
Mg4 Mg7 3.142143 1_555
Mg4 Mg7 3.142143 1_655
Mg4 Mg5 3.309739 1_565
Mg5 Mg9 3.344935 1_544
Mg6 Mn0 2.735124 1_555
Mg6 Mg8 3.410191 1_555
Mg7 Mn0 2.735124 1_555
Mg7 Mg8 3.410191 1_555
Mg8 Mg9 3.231178 1_455
Mg8 Mg9 3.231178 1_555
Mg8 Mn1 3.313806 1_555
Mg8 Mn1 3.313806 1_565
Mg9 Mn1 2.967666 1_665
Mg9 Mn1 2.967666 1_565
Mg10 Mg9 2.951810 1_545
Mg10 Mn1 2.967666 1_555
Mg10 Mn1 2.967666 1_655
Mg10 Mg8 3.231178 1_555
Mg10 Mg8 3.231178 1_655
Mg10 Mg11 3.309739 1_555
Mg10 Mg5 3.344935 1_556
Mg11 Mg6 3.157045 1_655
Mg11 Mg6 3.157045 1_555
Mg11 Mg7 3.157045 1_555
Mg11 Mg7 3.157045 1_655
Mg11 Mg8 3.181816 1_555
Mg11 Mg8 3.181816 1_655
Mg11 Mg9 3.309739 1_555
Mg11 Mg3 3.344935 1_555
Mg11 Mg4 3.344935 1_555
