# generated using pymatgen
data_BaEuNbBiO6
_symmetry_space_group_name_H-M   'P 1'
_cell_length_a   6.01176724
_cell_length_b   6.07694587
_cell_length_c   8.54528682
_cell_angle_alpha   90.57775674
_cell_angle_beta   90.42237264
_cell_angle_gamma   90.25159529
_symmetry_Int_Tables_number   1
_chemical_formula_structural   BaEuNbBiO6
_chemical_formula_sum   'Ba2 Eu2 Nb2 Bi2 O12'
_cell_volume   312.15906988
_cell_formula_units_Z   2
loop_
 _symmetry_equiv_pos_site_id
 _symmetry_equiv_pos_as_xyz
  1  'x, y, z'
loop_
 _atom_site_type_symbol
 _atom_site_label
 _atom_site_symmetry_multiplicity
 _atom_site_fract_x
 _atom_site_fract_y
 _atom_site_fract_z
 _atom_site_occupancy
  Ba  Ba0  1  0.50628375  0.53296287  0.25035196  1
  Ba  Ba1  1  0.49371625  0.46703713  0.74964804  1
  Eu  Eu0  1  0.99024494  0.04246436  0.25254541  1
  Eu  Eu1  1  0.00975506  0.95753564  0.74745459  1
  Nb  Nb0  1  0.50000000  0.00000000  0.00000000  1
  Nb  Nb1  1  0.00000000  0.50000000  0.50000000  1
  Bi  Bi0  1  0.00000000  0.50000000  0.00000000  1
  Bi  Bi1  1  0.50000000  0.00000000  0.50000000  1
  O  O0  1  0.22900032  0.18771195  0.94814917  1
  O  O1  1  0.26724871  0.69468283  0.53691212  1
  O  O2  1  0.77099968  0.81228805  0.05185083  1
  O  O3  1  0.73275129  0.30531717  0.46308788  1
  O  O4  1  0.30795064  0.73331038  0.95620618  1
  O  O5  1  0.18115664  0.22303623  0.54849533  1
  O  O6  1  0.69204936  0.26668962  0.04379382  1
  O  O7  1  0.81884336  0.77696377  0.45150467  1
  O  O8  1  0.40026175  0.99099298  0.22855048  1
  O  O9  1  0.07141753  0.46037636  0.27036584  1
  O  O10  1  0.59973825  0.00900702  0.77144952  1
  O  O11  1  0.92858247  0.53962364  0.72963416  1
loop_
_geom_bond_atom_site_label_1
_geom_bond_atom_site_label_2
_geom_bond_distance
_geom_bond_site_symmetry_2
Ba0 O6 2.639780 1_555
Ba0 O9 2.656398 1_555
Ba0 O3 2.665119 1_555
Ba0 O8 2.865781 1_555
Ba0 O2 2.892284 1_555
Ba0 O7 2.925844 1_555
Ba0 O1 3.007147 1_555
Ba0 O4 3.041748 1_554
Ba1 O4 2.639780 1_555
Ba1 O11 2.656398 1_555
Ba1 O1 2.665119 1_555
Ba1 O10 2.865781 1_555
Ba1 O0 2.892284 1_555
Ba1 O5 2.925844 1_555
Ba1 O3 3.007147 1_555
Ba1 O6 3.041748 1_556
Eu0 O8 2.495730 1_645
Eu0 O2 2.556779 1_545
Eu0 O7 2.573334 1_545
Eu0 O9 2.586747 1_655
Eu0 O3 2.861735 1_555
Eu0 O6 2.876772 1_555
Eu0 O5 2.967706 1_655
Eu0 O0 3.113763 1_654
Eu1 O10 2.495730 1_465
Eu1 O0 2.556779 1_565
Eu1 O5 2.573334 1_565
Eu1 O11 2.586747 1_455
Eu1 O1 2.861735 1_555
Eu1 O4 2.876772 1_555
Eu1 O7 2.967706 1_455
Eu1 O2 3.113763 1_456
Nb0 O4 2.016072 1_544
Nb0 O6 2.016072 1_555
Nb0 O0 2.041488 1_554
Nb0 O2 2.041488 1_545
Nb0 O8 2.048408 1_545
Nb0 O10 2.048408 1_554
Nb1 O3 2.012152 1_455
Nb1 O1 2.012152 1_555
Nb1 O9 2.024030 1_555
Nb1 O11 2.024030 1_455
Nb1 O5 2.052833 1_555
Nb1 O7 2.052833 1_455
Bi0 O6 2.361255 1_455
Bi0 O4 2.361255 1_554
Bi0 O11 2.361685 1_454
Bi0 O9 2.361685 1_555
Bi0 O0 2.389158 1_554
Bi0 O2 2.389158 1_455
Bi1 O1 2.344224 1_545
Bi1 O3 2.344224 1_555
Bi1 O5 2.388756 1_555
Bi1 O7 2.388756 1_545
Bi1 O8 2.391605 1_545
Bi1 O10 2.391605 1_555
