# generated using pymatgen
data_Cr2FeSeS3
_symmetry_space_group_name_H-M   'P 1'
_cell_length_a   7.16640459
_cell_length_b   7.16640459
_cell_length_c   7.16640459
_cell_angle_alpha   119.94264863
_cell_angle_beta   119.76140209
_cell_angle_gamma   90.25656260
_symmetry_Int_Tables_number   1
_chemical_formula_structural   Cr2FeSeS3
_chemical_formula_sum   'Cr4 Fe2 Se2 S6'
_cell_volume   260.82738004
_cell_formula_units_Z   2
loop_
 _symmetry_equiv_pos_site_id
 _symmetry_equiv_pos_as_xyz
  1  'x, y, z'
loop_
 _atom_site_type_symbol
 _atom_site_label
 _atom_site_symmetry_multiplicity
 _atom_site_fract_x
 _atom_site_fract_y
 _atom_site_fract_z
 _atom_site_occupancy
  Cr  Cr0  1  0.24391900  0.49491500  0.74900400  1
  Cr  Cr1  1  0.74591100  0.49491500  0.25099600  1
  Cr  Cr2  1  0.74952900  0.49088900  0.74135900  1
  Cr  Cr3  1  0.74952900  0.00817000  0.25864100  1
  Fe  Fe0  1  0.39126400  0.89126400  0.50000000  1
  Fe  Fe1  1  0.12104500  0.12104500  0.00000000  1
  Se  Se0  1  0.98223200  0.74401400  0.23821800  1
  Se  Se1  1  0.50579700  0.74401400  0.76178200  1
  S  S0  1  0.51065400  0.73914400  0.22849000  1
  S  S1  1  0.51065400  0.28216400  0.77151000  1
  S  S2  1  0.52014300  0.25609300  0.26405000  1
  S  S3  1  0.99204400  0.25609300  0.73595000  1
  S  S4  1  0.98863900  0.25874600  0.27010700  1
  S  S5  1  0.98863900  0.71853200  0.72989300  1
loop_
_geom_bond_atom_site_label_1
_geom_bond_atom_site_label_2
_geom_bond_distance
_geom_bond_site_symmetry_2
Cr0 S3 2.416813 1_455
Cr0 S5 2.435224 1_455
Cr0 S4 2.435224 1_455
Cr0 S1 2.443370 1_555
Cr0 S0 2.443370 1_556
Cr0 Se1 2.520598 1_555
Cr1 S2 2.416819 1_555
Cr1 S4 2.435224 1_555
Cr1 S5 2.435224 1_555
Cr1 S1 2.443370 1_554
Cr1 S0 2.443370 1_555
Cr1 Se0 2.520592 1_555
Cr2 S5 2.419300 1_555
Cr2 S2 2.425120 1_555
Cr2 S3 2.425131 1_555
Cr2 S1 2.425197 1_555
Cr2 Se1 2.525874 1_555
Cr2 Se0 2.525884 1_556
Cr3 S4 2.419305 1_555
Cr3 S2 2.425120 1_555
Cr3 S3 2.425120 1_555
Cr3 S0 2.425192 1_545
Cr3 Se0 2.525884 1_545
Cr3 Se1 2.525884 1_544
Fe0 S0 2.291298 1_555
Fe0 S1 2.291298 1_565
Fe0 Se1 2.400431 1_555
Fe0 Se0 2.400432 1_455
Fe1 S2 2.339131 1_555
Fe1 S3 2.339131 1_454
Fe1 S4 2.355012 1_455
Fe1 S5 2.355012 1_444
