# generated using pymatgen
data_Ba2CaV2(Si2O7)2
_symmetry_space_group_name_H-M   'P 1'
_cell_length_a   5.57341459
_cell_length_b   7.44487751
_cell_length_c   8.22876328
_cell_angle_alpha   87.63290106
_cell_angle_beta   109.76003967
_cell_angle_gamma   89.96149396
_symmetry_Int_Tables_number   1
_chemical_formula_structural   Ba2CaV2(Si2O7)2
_chemical_formula_sum   'Ba2 Ca1 V2 Si4 O14'
_cell_volume   321.02115248
_cell_formula_units_Z   1
loop_
 _symmetry_equiv_pos_site_id
 _symmetry_equiv_pos_as_xyz
  1  'x, y, z'
loop_
 _atom_site_type_symbol
 _atom_site_label
 _atom_site_symmetry_multiplicity
 _atom_site_fract_x
 _atom_site_fract_y
 _atom_site_fract_z
 _atom_site_occupancy
  Ba  Ba0  1  0.80296200  0.75808500  0.58218200  1
  Ba  Ba1  1  0.21929000  0.24199900  0.41646100  1
  Ca  Ca0  1  0.07704500  0.50031100  0.99873600  1
  V  V0  1  0.11131300  0.79328000  0.21755500  1
  V  V1  1  0.89380400  0.20574800  0.78244400  1
  Si  Si0  1  0.42922700  0.52176600  0.78876400  1
  Si  Si1  1  0.63855600  0.47831800  0.21063900  1
  Si  Si2  1  0.40532100  0.96219300  0.79418200  1
  Si  Si3  1  0.61028300  0.03769100  0.20509900  1
  O  O0  1  0.14473000  0.43847900  0.72998900  1
  O  O1  1  0.41169300  0.56135400  0.26882800  1
  O  O2  1  0.11538300  0.04240700  0.69875800  1
  O  O3  1  0.41617700  0.95690000  0.30057100  1
  O  O4  1  0.54534100  0.50039000  0.99975200  1
  O  O5  1  0.50658900  0.99992200  0.99963000  1
  O  O6  1  0.99411100  0.78414700  0.98482000  1
  O  O7  1  0.01028300  0.21626100  0.01511000  1
  O  O8  1  0.39177000  0.74395100  0.74214000  1
  O  O9  1  0.64752700  0.25606400  0.25687600  1
  O  O10  1  0.63590900  0.43898100  0.71087800  1
  O  O11  1  0.92254300  0.56129200  0.28955800  1
  O  O12  1  0.58933600  0.04846600  0.69457600  1
  O  O13  1  0.89430400  0.95199300  0.30463800  1
loop_
_geom_bond_atom_site_label_1
_geom_bond_atom_site_label_2
_geom_bond_distance
_geom_bond_site_symmetry_2
Ba0 O2 2.734233 1_665
Ba0 O12 2.802290 1_565
Ba0 O13 2.841471 1_555
Ba0 O10 2.845016 1_555
Ba0 O3 2.922759 1_555
Ba0 O0 2.992932 1_655
Ba0 O8 3.004037 1_555
Ba0 O8 3.095216 1_655
Ba0 O11 3.124752 1_555
Ba0 O6 3.133162 1_555
Ba0 O1 3.172315 1_555
Ba1 O3 2.736844 1_545
Ba1 O13 2.798464 1_445
Ba1 O11 2.845751 1_455
Ba1 O12 2.845905 1_555
Ba1 O2 2.926628 1_555
Ba1 O1 2.987344 1_555
Ba1 O9 3.008149 1_455
Ba1 O9 3.088721 1_555
Ba1 O7 3.122858 1_555
Ba1 O10 3.147385 1_555
Ba1 O0 3.162965 1_555
Ca0 O6 2.152898 1_455
Ca0 O7 2.154079 1_556
Ca0 O0 2.427486 1_555
Ca0 O1 2.430336 1_556
Ca0 O4 2.607194 1_555
Ca0 O10 2.831462 1_455
Ca0 O11 2.856075 1_456
Ca0 O4 2.966244 1_455
O0 Si0 1.624850 1_555
O0 V1 2.343906 1_455
O1 Si1 1.625704 1_555
O1 V0 2.328187 1_555
O2 Si2 1.639048 1_545
O2 V1 2.029850 1_455
O3 Si3 1.638856 1_565
O3 V0 2.030822 1_555
O4 Si1 1.635556 1_556
O4 Si0 1.635770 1_555
O5 Si2 1.627815 1_555
O5 Si3 1.628038 1_566
O6 V0 1.806640 1_656
O7 V1 1.806966 1_454
O8 Si0 1.679259 1_555
O8 Si2 1.692570 1_555
O9 Si1 1.679334 1_555
O9 Si3 1.692803 1_555
O10 Si0 1.627395 1_555
O10 V1 2.183502 1_555
O11 Si1 1.627253 1_555
O11 V0 2.186392 1_655
O12 Si2 1.631553 1_545
O12 V1 2.004109 1_555
O13 Si3 1.631721 1_565
O13 V0 2.006630 1_655
