# generated using pymatgen
data_La6Si3Ni2
_symmetry_space_group_name_H-M   'P 1'
_cell_length_a   4.56544800
_cell_length_b   11.85743000
_cell_length_c   11.90667187
_cell_angle_alpha   60.20118604
_cell_angle_beta   90.00000000
_cell_angle_gamma   90.00000000
_symmetry_Int_Tables_number   1
_chemical_formula_structural   La6Si3Ni2
_chemical_formula_sum   'La12 Si6 Ni4'
_cell_volume   559.33482534
_cell_formula_units_Z   2
loop_
 _symmetry_equiv_pos_site_id
 _symmetry_equiv_pos_as_xyz
  1  'x, y, z'
loop_
 _atom_site_type_symbol
 _atom_site_label
 _atom_site_symmetry_multiplicity
 _atom_site_fract_x
 _atom_site_fract_y
 _atom_site_fract_z
 _atom_site_occupancy
  La  La0  1  0.00000000  0.76889500  0.22286800  1
  La  La1  1  0.00000000  0.23519500  0.99555900  1
  La  La2  1  0.00000000  0.99913800  0.76978100  1
  La  La3  1  0.50000000  0.23306500  0.77283400  1
  La  La4  1  0.50000000  0.76716700  0.99434700  1
  La  La5  1  0.50000000  0.99324900  0.23180800  1
  La  La6  1  0.00000000  0.14252300  0.37323200  1
  La  La7  1  0.00000000  0.37894100  0.48619900  1
  La  La8  1  0.00000000  0.48634100  0.13727100  1
  La  La9  1  0.50000000  0.86291100  0.62337100  1
  La  La10  1  0.50000000  0.61573500  0.52063200  1
  La  La11  1  0.50000000  0.52133100  0.86223800  1
  Si  Si0  1  0.50000000  0.33410700  0.33359500  1
  Si  Si1  1  0.00000000  0.66271300  0.67253300  1
  Si  Si2  1  0.00000000  0.84452300  0.44267200  1
  Si  Si3  1  0.50000000  0.55895600  0.28834800  1
  Si  Si4  1  0.50000000  0.28789800  0.15444400  1
  Si  Si5  1  0.50000000  0.15484900  0.55656100  1
  Ni  Ni0  1  0.74955300  0.00041400  0.99831200  1
  Ni  Ni1  1  0.25044700  0.00041400  0.99831200  1
  Ni  Ni2  1  0.00000000  0.43884100  0.71697500  1
  Ni  Ni3  1  0.00000000  0.71279300  0.84810800  1
loop_
_geom_bond_atom_site_label_1
_geom_bond_atom_site_label_2
_geom_bond_distance
_geom_bond_site_symmetry_2
La0 Ni1 2.949085 1_564
La0 Ni0 2.949085 1_464
La0 Si2 3.160094 1_555
La0 Si3 3.175923 1_555
La0 Si3 3.175923 1_455
La1 Ni2 2.978679 1_555
La1 Ni1 2.994635 1_555
La1 Ni0 2.994635 1_455
La1 Si4 3.217958 1_556
La1 Si4 3.217958 1_456
La2 Ni1 2.958479 1_565
La2 Ni0 2.958479 1_465
La2 Ni3 3.041496 1_555
La2 Si5 3.225857 1_565
La2 Si5 3.225857 1_465
La3 Ni0 2.958837 1_555
La3 Ni1 2.958837 1_555
La3 Si5 3.140852 1_555
La3 Ni2 3.161285 1_555
La3 Ni2 3.161285 1_655
La4 Ni0 3.013172 1_565
La4 Ni1 3.013172 1_565
La4 Si3 3.124013 1_556
La4 Ni3 3.126364 1_555
La4 Ni3 3.126364 1_655
La5 Ni0 2.966446 1_564
La5 Ni1 2.966446 1_564
La5 Si4 3.139477 1_565
La5 Si2 3.197449 1_555
La5 Si2 3.197449 1_655
La6 Si0 3.086838 1_555
La6 Si0 3.086838 1_455
La6 Si2 3.203997 1_545
La6 Si5 3.211551 1_555
La6 Si5 3.211551 1_455
La6 Si4 3.241186 1_555
La6 Si4 3.241186 1_455
La7 Si0 3.123303 1_555
La7 Si0 3.123303 1_455
La7 Ni2 3.161405 1_555
La7 Si3 3.212283 1_555
La7 Si3 3.212283 1_455
La7 Si5 3.280339 1_455
La7 Si5 3.280339 1_555
La8 Si0 3.120830 1_555
La8 Si0 3.120830 1_455
La8 Ni3 3.142521 1_554
La8 Si4 3.211099 1_555
La8 Si4 3.211099 1_455
La8 Si3 3.275267 1_455
La8 Si3 3.275267 1_555
La9 Si1 3.131690 1_655
La9 Si1 3.131690 1_555
La9 Si5 3.143055 1_565
La9 Si2 3.217712 1_555
La9 Si2 3.217712 1_655
La9 Ni3 3.287167 1_555
La9 Ni3 3.287167 1_655
La10 Si1 3.129477 1_655
La10 Si1 3.129477 1_555
La10 Si3 3.154874 1_555
La10 Ni2 3.194050 1_555
La10 Ni2 3.194050 1_655
La10 Si2 3.305920 1_555
La10 Si2 3.305920 1_655
La11 Si1 3.059351 1_555
La11 Si1 3.059351 1_655
La11 Ni3 3.164417 1_555
La11 Ni3 3.164417 1_655
La11 Si4 3.192912 1_556
La11 Ni2 3.292494 1_555
La11 Ni2 3.292494 1_655
Si0 Si5 2.440758 1_555
Si0 Si3 2.443540 1_555
Si0 Si4 2.451927 1_555
Si1 Si2 2.504743 1_555
Ni0 Ni1 2.278642 1_555
Ni0 Ni1 2.286806 1_655
Ni2 Si1 2.435263 1_555
Ni3 Si1 2.440636 1_555
