# generated using pymatgen
data_Mg(ScSe2)2
_symmetry_space_group_name_H-M   'P 1'
_cell_length_a   3.80803000
_cell_length_b   12.66135500
_cell_length_c   13.29263000
_cell_angle_alpha   90.00000000
_cell_angle_beta   90.00000000
_cell_angle_gamma   90.00000000
_symmetry_Int_Tables_number   1
_chemical_formula_structural   Mg(ScSe2)2
_chemical_formula_sum   'Mg4 Sc8 Se16'
_cell_volume   640.90175853
_cell_formula_units_Z   4
loop_
 _symmetry_equiv_pos_site_id
 _symmetry_equiv_pos_as_xyz
  1  'x, y, z'
loop_
 _atom_site_type_symbol
 _atom_site_label
 _atom_site_symmetry_multiplicity
 _atom_site_fract_x
 _atom_site_fract_y
 _atom_site_fract_z
 _atom_site_occupancy
  Mg  Mg0  1  0.75000000  0.12662400  0.42325500  1
  Mg  Mg1  1  0.25000000  0.87337600  0.57674500  1
  Mg  Mg2  1  0.25000000  0.37337600  0.92325500  1
  Mg  Mg3  1  0.75000000  0.62662400  0.07674500  1
  Sc  Sc0  1  0.25000000  0.10896300  0.08029300  1
  Sc  Sc1  1  0.75000000  0.89103700  0.91970700  1
  Sc  Sc2  1  0.75000000  0.39103700  0.58029300  1
  Sc  Sc3  1  0.25000000  0.60896300  0.41970700  1
  Sc  Sc4  1  0.25000000  0.14705000  0.70285500  1
  Sc  Sc5  1  0.75000000  0.85295000  0.29714500  1
  Sc  Sc6  1  0.75000000  0.35295000  0.20285500  1
  Sc  Sc7  1  0.25000000  0.64705000  0.79714500  1
  Se  Se0  1  0.75000000  0.02647900  0.61187700  1
  Se  Se1  1  0.25000000  0.97352100  0.38812300  1
  Se  Se2  1  0.25000000  0.47352100  0.11187700  1
  Se  Se3  1  0.75000000  0.52647900  0.88812300  1
  Se  Se4  1  0.25000000  0.03457800  0.88020500  1
  Se  Se5  1  0.75000000  0.96542200  0.11979500  1
  Se  Se6  1  0.75000000  0.46542200  0.38020500  1
  Se  Se7  1  0.25000000  0.53457800  0.61979500  1
  Se  Se8  1  0.25000000  0.21510200  0.26028000  1
  Se  Se9  1  0.75000000  0.78489800  0.73972000  1
  Se  Se10  1  0.75000000  0.28489800  0.76028000  1
  Se  Se11  1  0.25000000  0.71510200  0.23972000  1
  Se  Se12  1  0.75000000  0.24770100  0.02307400  1
  Se  Se13  1  0.25000000  0.75229900  0.97692600  1
  Se  Se14  1  0.25000000  0.25229900  0.52307400  1
  Se  Se15  1  0.75000000  0.74770100  0.47692600  1
loop_
_geom_bond_atom_site_label_1
_geom_bond_atom_site_label_2
_geom_bond_distance
_geom_bond_site_symmetry_2
Mg0 Se1 2.757011 1_545
Mg0 Se1 2.757011 1_645
Mg0 Se0 2.809665 1_555
Mg0 Se14 2.813857 1_655
Mg0 Se14 2.813857 1_555
Mg0 Se8 3.094088 1_555
Mg0 Se8 3.094088 1_655
Mg1 Se0 2.757011 1_465
Mg1 Se0 2.757011 1_565
Mg1 Se1 2.809665 1_555
Mg1 Se15 2.813857 1_455
Mg1 Se15 2.813857 1_555
Mg1 Se9 3.094088 1_455
Mg1 Se9 3.094088 1_555
Mg2 Se3 2.757011 1_455
Mg2 Se3 2.757011 1_555
Mg2 Se2 2.809665 1_556
Mg2 Se12 2.813857 1_456
Mg2 Se12 2.813857 1_556
Mg2 Se10 3.094088 1_455
Mg2 Se10 3.094088 1_555
Mg3 Se2 2.757011 1_655
Mg3 Se2 2.757011 1_555
Mg3 Se3 2.809665 1_554
Mg3 Se13 2.813857 1_654
Mg3 Se13 2.813857 1_554
Mg3 Se11 3.094088 1_555
Mg3 Se11 3.094088 1_655
Sc0 Se5 2.684030 1_545
Sc0 Se5 2.684030 1_445
Sc0 Se12 2.699899 1_455
Sc0 Se12 2.699899 1_555
Sc0 Se8 2.744090 1_555
Sc0 Se4 2.821524 1_554
Sc1 Se4 2.684030 1_565
Sc1 Se4 2.684030 1_665
Sc1 Se13 2.699899 1_655
Sc1 Se13 2.699899 1_555
Sc1 Se9 2.744090 1_555
Sc1 Se5 2.821524 1_556
Sc2 Se7 2.684030 1_555
Sc2 Se7 2.684030 1_655
Sc2 Se14 2.699899 1_655
Sc2 Se14 2.699899 1_555
Sc2 Se10 2.744090 1_555
Sc2 Se6 2.821524 1_555
Sc3 Se6 2.684030 1_555
Sc3 Se6 2.684030 1_455
Sc3 Se15 2.699899 1_455
Sc3 Se15 2.699899 1_555
Sc3 Se11 2.744090 1_555
Sc3 Se7 2.821524 1_555
Sc4 Se10 2.693356 1_455
Sc4 Se10 2.693356 1_555
Sc4 Se0 2.723647 1_555
Sc4 Se0 2.723647 1_455
Sc4 Se14 2.736197 1_555
Sc4 Se4 2.754174 1_555
Sc5 Se11 2.693356 1_655
Sc5 Se11 2.693356 1_555
Sc5 Se1 2.723647 1_555
Sc5 Se1 2.723647 1_655
Sc5 Se15 2.736197 1_555
Sc5 Se5 2.754174 1_555
Sc6 Se8 2.693356 1_655
Sc6 Se8 2.693356 1_555
Sc6 Se2 2.723647 1_555
Sc6 Se2 2.723647 1_655
Sc6 Se12 2.736197 1_555
Sc6 Se6 2.754174 1_555
Sc7 Se9 2.693356 1_555
Sc7 Se9 2.693356 1_455
Sc7 Se3 2.723647 1_555
Sc7 Se3 2.723647 1_455
Sc7 Se13 2.736197 1_555
Sc7 Se7 2.754174 1_555
