# generated using pymatgen
data_MgZn
_symmetry_space_group_name_H-M   'P 1'
_cell_length_a   6.05640400
_cell_length_b   9.86923000
_cell_length_c   9.96499400
_cell_angle_alpha   90.00000000
_cell_angle_beta   90.00000000
_cell_angle_gamma   90.00000000
_symmetry_Int_Tables_number   1
_chemical_formula_structural   MgZn
_chemical_formula_sum   'Mg16 Zn16'
_cell_volume   595.62806032
_cell_formula_units_Z   16
loop_
 _symmetry_equiv_pos_site_id
 _symmetry_equiv_pos_as_xyz
  1  'x, y, z'
loop_
 _atom_site_type_symbol
 _atom_site_label
 _atom_site_symmetry_multiplicity
 _atom_site_fract_x
 _atom_site_fract_y
 _atom_site_fract_z
 _atom_site_occupancy
  Mg  Mg0_0  1  0.00000000  0.00000000  0.05041750  1
  Mg  Mg0_1  1  0.00000000  0.00000000  0.55041750  1
  Mg  Mg0_2  1  0.00000000  0.50000000  0.05041750  1
  Mg  Mg0_3  1  0.00000000  0.50000000  0.55041750  1
  Mg  Mg0_4  1  0.50000000  0.00000000  0.05041750  1
  Mg  Mg0_5  1  0.50000000  0.00000000  0.55041750  1
  Mg  Mg0_6  1  0.50000000  0.50000000  0.05041750  1
  Mg  Mg0_7  1  0.50000000  0.50000000  0.55041750  1
  Mg  Mg1_0  1  0.25000000  0.25000000  0.44958250  1
  Mg  Mg1_1  1  0.25000000  0.25000000  0.94958250  1
  Mg  Mg1_2  1  0.25000000  0.75000000  0.44958250  1
  Mg  Mg1_3  1  0.25000000  0.75000000  0.94958250  1
  Mg  Mg1_4  1  0.75000000  0.25000000  0.44958250  1
  Mg  Mg1_5  1  0.75000000  0.25000000  0.94958250  1
  Mg  Mg1_6  1  0.75000000  0.75000000  0.44958250  1
  Mg  Mg1_7  1  0.75000000  0.75000000  0.94958250  1
  Zn  Zn0_0  1  0.25000000  0.00000000  0.29744800  1
  Zn  Zn0_1  1  0.25000000  0.00000000  0.79744800  1
  Zn  Zn0_2  1  0.25000000  0.50000000  0.29744800  1
  Zn  Zn0_3  1  0.25000000  0.50000000  0.79744800  1
  Zn  Zn0_4  1  0.75000000  0.00000000  0.29744800  1
  Zn  Zn0_5  1  0.75000000  0.00000000  0.79744800  1
  Zn  Zn0_6  1  0.75000000  0.50000000  0.29744800  1
  Zn  Zn0_7  1  0.75000000  0.50000000  0.79744800  1
  Zn  Zn1_0  1  0.00000000  0.25000000  0.20255200  1
  Zn  Zn1_1  1  0.00000000  0.25000000  0.70255200  1
  Zn  Zn1_2  1  0.00000000  0.75000000  0.20255200  1
  Zn  Zn1_3  1  0.00000000  0.75000000  0.70255200  1
  Zn  Zn1_4  1  0.50000000  0.25000000  0.20255200  1
  Zn  Zn1_5  1  0.50000000  0.25000000  0.70255200  1
  Zn  Zn1_6  1  0.50000000  0.75000000  0.20255200  1
  Zn  Zn1_7  1  0.50000000  0.75000000  0.70255200  1
loop_
_geom_bond_atom_site_label_1
_geom_bond_atom_site_label_2
_geom_bond_distance
_geom_bond_site_symmetry_2
Mg0_0 Zn0_0 2.890028 1_555
Mg0_0 Zn0_4 2.890028 1_455
Mg0_0 Zn1_2 2.895845 1_545
Mg0_0 Zn1_0 2.895845 1_555
Mg0_0 Zn0_5 2.940601 1_454
Mg0_0 Zn0_1 2.940601 1_554
Mg0_0 Mg0_4 3.028202 1_555
Mg0_0 Mg0_4 3.028202 1_455
Mg0_0 Mg1_1 3.064273 1_554
Mg0_0 Mg1_3 3.064273 1_544
Mg0_0 Mg1_5 3.064273 1_454
Mg0_0 Mg1_7 3.064273 1_444
Mg0_1 Zn0_1 2.890028 1_555
Mg0_1 Zn0_5 2.890028 1_455
Mg0_1 Zn1_3 2.895845 1_545
Mg0_1 Zn1_1 2.895845 1_555
Mg0_1 Zn0_0 2.940601 1_555
Mg0_1 Zn0_4 2.940601 1_455
Mg0_1 Mg0_5 3.028202 1_555
Mg0_1 Mg0_5 3.028202 1_455
Mg0_1 Mg1_0 3.064273 1_555
Mg0_1 Mg1_2 3.064273 1_545
Mg0_1 Mg1_4 3.064273 1_455
Mg0_1 Mg1_6 3.064273 1_445
Mg0_2 Zn0_2 2.890028 1_555
Mg0_2 Zn0_6 2.890028 1_455
Mg0_2 Zn1_2 2.895845 1_555
Mg0_2 Zn1_0 2.895845 1_555
Mg0_2 Zn0_7 2.940601 1_454
Mg0_2 Zn0_3 2.940601 1_554
Mg0_2 Mg0_6 3.028202 1_555
Mg0_2 Mg0_6 3.028202 1_455
Mg0_2 Mg1_1 3.064273 1_554
Mg0_2 Mg1_3 3.064273 1_554
Mg0_2 Mg1_5 3.064273 1_454
Mg0_2 Mg1_7 3.064273 1_454
Mg0_3 Zn0_3 2.890028 1_555
Mg0_3 Zn0_7 2.890028 1_455
Mg0_3 Zn1_3 2.895845 1_555
Mg0_3 Zn1_1 2.895845 1_555
Mg0_3 Zn0_2 2.940601 1_555
Mg0_3 Zn0_6 2.940601 1_455
Mg0_3 Mg0_7 3.028202 1_555
Mg0_3 Mg0_7 3.028202 1_455
Mg0_3 Mg1_2 3.064273 1_555
Mg0_3 Mg1_0 3.064273 1_555
Mg0_3 Mg1_6 3.064273 1_455
Mg0_3 Mg1_4 3.064273 1_455
Mg0_4 Zn0_4 2.890028 1_555
Mg0_4 Zn0_0 2.890028 1_555
Mg0_4 Zn1_4 2.895845 1_555
Mg0_4 Zn1_6 2.895845 1_545
Mg0_4 Zn0_5 2.940601 1_554
Mg0_4 Zn0_1 2.940601 1_554
Mg0_4 Mg1_1 3.064273 1_554
Mg0_4 Mg1_3 3.064273 1_544
Mg0_4 Mg1_5 3.064273 1_554
Mg0_4 Mg1_7 3.064273 1_544
Mg0_5 Zn0_1 2.890028 1_555
Mg0_5 Zn0_5 2.890028 1_555
Mg0_5 Zn1_7 2.895845 1_545
Mg0_5 Zn1_5 2.895845 1_555
Mg0_5 Zn0_0 2.940601 1_555
Mg0_5 Zn0_4 2.940601 1_555
Mg0_5 Mg1_6 3.064273 1_545
Mg0_5 Mg1_4 3.064273 1_555
Mg0_5 Mg1_2 3.064273 1_545
Mg0_5 Mg1_0 3.064273 1_555
Mg0_6 Zn0_6 2.890028 1_555
Mg0_6 Zn0_2 2.890028 1_555
Mg0_6 Zn1_4 2.895845 1_555
Mg0_6 Zn1_6 2.895845 1_555
Mg0_6 Zn0_7 2.940601 1_554
Mg0_6 Zn0_3 2.940601 1_554
Mg0_6 Mg1_1 3.064273 1_554
Mg0_6 Mg1_5 3.064273 1_554
Mg0_6 Mg1_3 3.064273 1_554
Mg0_6 Mg1_7 3.064273 1_554
Mg0_7 Zn0_3 2.890028 1_555
Mg0_7 Zn0_7 2.890028 1_555
Mg0_7 Zn1_7 2.895845 1_555
Mg0_7 Zn1_5 2.895845 1_555
Mg0_7 Zn0_2 2.940601 1_555
Mg0_7 Zn0_6 2.940601 1_555
Mg0_7 Mg1_6 3.064273 1_555
Mg0_7 Mg1_4 3.064273 1_555
Mg0_7 Mg1_2 3.064273 1_555
Mg0_7 Mg1_0 3.064273 1_555
Mg1_0 Zn1_0 2.890028 1_555
Mg1_0 Zn1_4 2.890028 1_555
Mg1_0 Zn0_2 2.895845 1_555
Mg1_0 Zn0_0 2.895845 1_555
Mg1_0 Zn1_1 2.940601 1_555
Mg1_0 Zn1_5 2.940601 1_555
Mg1_0 Mg1_4 3.028202 1_555
Mg1_0 Mg1_4 3.028202 1_455
Mg1_1 Zn1_1 2.890028 1_555
Mg1_1 Zn1_5 2.890028 1_555
Mg1_1 Zn0_1 2.895845 1_555
Mg1_1 Zn0_3 2.895845 1_555
Mg1_1 Zn1_0 2.940601 1_556
Mg1_1 Zn1_4 2.940601 1_556
Mg1_1 Mg1_5 3.028202 1_555
Mg1_1 Mg1_5 3.028202 1_455
Mg1_2 Zn1_6 2.890028 1_555
Mg1_2 Zn1_2 2.890028 1_555
Mg1_2 Zn0_0 2.895845 1_565
Mg1_2 Zn0_2 2.895845 1_555
Mg1_2 Zn1_7 2.940601 1_555
Mg1_2 Zn1_3 2.940601 1_555
Mg1_2 Mg1_6 3.028202 1_555
Mg1_2 Mg1_6 3.028202 1_455
Mg1_3 Zn1_3 2.890028 1_555
Mg1_3 Zn1_7 2.890028 1_555
Mg1_3 Zn0_3 2.895845 1_555
Mg1_3 Zn0_1 2.895845 1_565
Mg1_3 Zn1_6 2.940601 1_556
Mg1_3 Zn1_2 2.940601 1_556
Mg1_3 Mg1_7 3.028202 1_555
Mg1_3 Mg1_7 3.028202 1_455
Mg1_4 Zn1_4 2.890028 1_555
Mg1_4 Zn1_0 2.890028 1_655
Mg1_4 Zn0_6 2.895845 1_555
Mg1_4 Zn0_4 2.895845 1_555
Mg1_4 Zn1_5 2.940601 1_555
Mg1_4 Zn1_1 2.940601 1_655
Mg1_5 Zn1_5 2.890028 1_555
Mg1_5 Zn1_1 2.890028 1_655
Mg1_5 Zn0_5 2.895845 1_555
Mg1_5 Zn0_7 2.895845 1_555
Mg1_5 Zn1_4 2.940601 1_556
Mg1_5 Zn1_0 2.940601 1_656
Mg1_6 Zn1_6 2.890028 1_555
Mg1_6 Zn1_2 2.890028 1_655
Mg1_6 Zn0_4 2.895845 1_565
Mg1_6 Zn0_6 2.895845 1_555
Mg1_6 Zn1_7 2.940601 1_555
Mg1_6 Zn1_3 2.940601 1_655
Mg1_7 Zn1_7 2.890028 1_555
Mg1_7 Zn1_3 2.890028 1_655
Mg1_7 Zn0_5 2.895845 1_565
Mg1_7 Zn0_7 2.895845 1_555
Mg1_7 Zn1_6 2.940601 1_556
Mg1_7 Zn1_2 2.940601 1_656
