# generated using pymatgen
data_LuAlCo
_symmetry_space_group_name_H-M   'P 1'
_cell_length_a   5.25436967
_cell_length_b   5.25374087
_cell_length_c   8.33075300
_cell_angle_alpha   90.00000000
_cell_angle_beta   90.00000000
_cell_angle_gamma   60.94154819
_symmetry_Int_Tables_number   1
_chemical_formula_structural   LuAlCo
_chemical_formula_sum   'Lu4 Al4 Co4'
_cell_volume   201.02353364
_cell_formula_units_Z   4
loop_
 _symmetry_equiv_pos_site_id
 _symmetry_equiv_pos_as_xyz
  1  'x, y, z'
loop_
 _atom_site_type_symbol
 _atom_site_label
 _atom_site_symmetry_multiplicity
 _atom_site_fract_x
 _atom_site_fract_y
 _atom_site_fract_z
 _atom_site_occupancy
  Lu  Lu0  1  0.33336100  0.33340300  0.54696100  1
  Lu  Lu1  1  0.67040100  0.67043600  0.42517200  1
  Lu  Lu2  1  0.67040100  0.67043600  0.07482800  1
  Lu  Lu3  1  0.33336100  0.33340300  0.95303900  1
  Al  Al0  1  0.99580100  0.99569400  0.47877800  1
  Al  Al1  1  0.99580100  0.99569400  0.02122200  1
  Al  Al2  1  0.83410600  0.34023700  0.75000000  1
  Al  Al3  1  0.34019900  0.83410700  0.75000000  1
  Co  Co0  1  0.83331400  0.83334500  0.75000000  1
  Co  Co1  1  0.17522900  0.64305300  0.25000000  1
  Co  Co2  1  0.64306400  0.17524100  0.25000000  1
  Co  Co3  1  0.17496200  0.17495300  0.25000000  1
loop_
_geom_bond_atom_site_label_1
_geom_bond_atom_site_label_2
_geom_bond_distance
_geom_bond_site_symmetry_2
Lu0 Lu1 3.210206 1_545
Lu0 Lu1 3.210510 1_455
Lu0 Lu1 3.216678 1_555
Lu1 Lu2 2.918629 1_555
Lu2 Lu3 3.210206 1_564
Lu2 Lu3 3.210510 1_654
Lu2 Lu3 3.216678 1_554
Al0 Co1 2.501395 1_655
Al0 Co2 2.501809 1_565
Al0 Co3 2.503356 1_665
Al0 Co0 2.696122 1_555
Al0 Al3 2.758313 1_655
Al0 Al2 2.758582 1_565
Al0 Lu1 2.980095 1_555
Al0 Lu0 3.095237 1_655
Al0 Lu0 3.096267 1_565
Al0 Lu0 3.110201 1_665
Al0 Lu1 3.130464 1_655
Al0 Lu1 3.130739 1_565
Al1 Co1 2.501395 1_655
Al1 Co2 2.501809 1_565
Al1 Co3 2.503356 1_665
Al1 Co0 2.696122 1_554
Al1 Al3 2.758313 1_654
Al1 Al2 2.758582 1_564
Al1 Lu2 2.980095 1_555
Al1 Lu3 3.095237 1_654
Al1 Lu3 3.096267 1_564
Al1 Lu3 3.110201 1_664
Al1 Lu2 3.130464 1_655
Al1 Lu2 3.130739 1_565
Al2 Co0 2.588643 1_555
Al2 Al3 2.631759 1_555
Al2 Co0 2.665103 1_545
Al2 Al3 2.696891 1_645
Al2 Lu2 3.102030 1_556
Al2 Lu1 3.102030 1_555
Al2 Lu0 3.106832 1_655
Al2 Lu3 3.106832 1_655
Al2 Lu3 3.142738 1_555
Al2 Lu0 3.142738 1_555
Al3 Co0 2.589066 1_555
Al3 Co0 2.665308 1_455
Al3 Lu2 3.102123 1_556
Al3 Lu1 3.102123 1_555
Al3 Lu3 3.106740 1_565
Al3 Lu0 3.106740 1_565
Al3 Lu3 3.142302 1_555
Al3 Lu0 3.142302 1_555
Co0 Lu2 3.082164 1_556
Co0 Lu1 3.082164 1_555
Co0 Lu0 3.155873 1_655
Co0 Lu3 3.155873 1_655
Co0 Lu3 3.155923 1_565
Co0 Lu0 3.155923 1_565
Co1 Co3 2.459958 1_555
Co1 Co2 2.492868 1_555
Co1 Co3 2.793784 1_565
Co1 Co2 2.835782 1_465
Co1 Lu0 2.853786 1_555
Co1 Lu3 2.853786 1_554
Co1 Lu1 2.969114 1_455
Co1 Lu2 2.969114 1_455
Co1 Lu1 3.046859 1_555
Co1 Lu2 3.046859 1_555
Co2 Co3 2.460316 1_555
Co2 Co3 2.794054 1_655
Co2 Lu0 2.853990 1_555
Co2 Lu3 2.853990 1_554
Co2 Lu1 2.968820 1_545
Co2 Lu2 2.968820 1_545
Co2 Lu1 3.046588 1_555
Co2 Lu2 3.046588 1_555
Co3 Lu0 2.859884 1_555
Co3 Lu3 2.859884 1_554
Co3 Lu1 3.037970 1_545
Co3 Lu2 3.037970 1_545
Co3 Lu1 3.038186 1_455
Co3 Lu2 3.038186 1_455
