# generated using pymatgen
data_KSbO3
_symmetry_space_group_name_H-M   'P 1'
_cell_length_a   9.59970638
_cell_length_b   9.59970638
_cell_length_c   9.59970638
_cell_angle_alpha   90.00000000
_cell_angle_beta   90.00000000
_cell_angle_gamma   90.00000000
_symmetry_Int_Tables_number   1
_chemical_formula_structural   KSbO3
_chemical_formula_sum   'K12 Sb12 O36'
_cell_volume   884.65482243
_cell_formula_units_Z   12
loop_
 _symmetry_equiv_pos_site_id
 _symmetry_equiv_pos_as_xyz
  1  'x, y, z'
loop_
 _atom_site_type_symbol
 _atom_site_label
 _atom_site_symmetry_multiplicity
 _atom_site_fract_x
 _atom_site_fract_y
 _atom_site_fract_z
 _atom_site_occupancy
  K  K0  1  0.00000000  0.00000000  0.00000000  1
  K  K1  1  0.50000000  0.50000000  0.00000000  1
  K  K2  1  0.00000000  0.50000000  0.50000000  1
  K  K3  1  0.50000000  0.00000000  0.50000000  1
  K  K4  1  0.40328209  0.40328209  0.40328209  1
  K  K5  1  0.09671791  0.09671791  0.40328209  1
  K  K6  1  0.40328209  0.09671791  0.09671791  1
  K  K7  1  0.09671791  0.40328209  0.09671791  1
  K  K8  1  0.59671791  0.59671791  0.59671791  1
  K  K9  1  0.90328209  0.90328209  0.59671791  1
  K  K10  1  0.59671791  0.90328209  0.90328209  1
  K  K11  1  0.90328209  0.59671791  0.90328209  1
  Sb  Sb0  1  0.59245748  0.75000000  0.25000000  1
  Sb  Sb1  1  0.25000000  0.59245748  0.75000000  1
  Sb  Sb2  1  0.75000000  0.25000000  0.59245748  1
  Sb  Sb3  1  0.25000000  0.90754252  0.75000000  1
  Sb  Sb4  1  0.75000000  0.25000000  0.90754252  1
  Sb  Sb5  1  0.90754252  0.75000000  0.25000000  1
  Sb  Sb6  1  0.40754252  0.25000000  0.75000000  1
  Sb  Sb7  1  0.75000000  0.40754252  0.25000000  1
  Sb  Sb8  1  0.25000000  0.75000000  0.40754252  1
  Sb  Sb9  1  0.75000000  0.09245748  0.25000000  1
  Sb  Sb10  1  0.25000000  0.75000000  0.09245748  1
  Sb  Sb11  1  0.09245748  0.25000000  0.75000000  1
  O  O0  1  0.04052040  0.75335709  0.40596186  1
  O  O1  1  0.04052040  0.74664291  0.09403814  1
  O  O2  1  0.45947960  0.75335709  0.09403814  1
  O  O3  1  0.74664291  0.09403814  0.04052040  1
  O  O4  1  0.09403814  0.45947960  0.75335709  1
  O  O5  1  0.09403814  0.04052040  0.74664291  1
  O  O6  1  0.75335709  0.40596186  0.04052040  1
  O  O7  1  0.40596186  0.04052040  0.75335709  1
  O  O8  1  0.75335709  0.09403814  0.45947960  1
  O  O9  1  0.74664291  0.40596186  0.45947960  1
  O  O10  1  0.40596186  0.45947960  0.74664291  1
  O  O11  1  0.45947960  0.74664291  0.40596186  1
  O  O12  1  0.95947960  0.24664291  0.59403814  1
  O  O13  1  0.95947960  0.25335709  0.90596186  1
  O  O14  1  0.11188460  0.75000000  0.75000000  1
  O  O15  1  0.54052040  0.24664291  0.90596186  1
  O  O16  1  0.90596186  0.54052040  0.24664291  1
  O  O17  1  0.90596186  0.95947960  0.25335709  1
  O  O18  1  0.24664291  0.59403814  0.95947960  1
  O  O19  1  0.59403814  0.95947960  0.24664291  1
  O  O20  1  0.24664291  0.90596186  0.54052040  1
  O  O21  1  0.25335709  0.59403814  0.54052040  1
  O  O22  1  0.59403814  0.54052040  0.25335709  1
  O  O23  1  0.54052040  0.25335709  0.59403814  1
  O  O24  1  0.61188460  0.25000000  0.25000000  1
  O  O25  1  0.25000000  0.61188460  0.25000000  1
  O  O26  1  0.25000000  0.25000000  0.61188460  1
  O  O27  1  0.25000000  0.88811540  0.25000000  1
  O  O28  1  0.25000000  0.25000000  0.88811540  1
  O  O29  1  0.88811540  0.25000000  0.25000000  1
  O  O30  1  0.38811540  0.75000000  0.75000000  1
  O  O31  1  0.75000000  0.38811540  0.75000000  1
  O  O32  1  0.75000000  0.75000000  0.38811540  1
  O  O33  1  0.75000000  0.11188460  0.75000000  1
  O  O34  1  0.75000000  0.75000000  0.11188460  1
  O  O35  1  0.25335709  0.90596186  0.95947960  1
loop_
_geom_bond_atom_site_label_1
_geom_bond_atom_site_label_2
_geom_bond_distance
_geom_bond_site_symmetry_2
K0 O3 2.623284 1_455
K0 O1 2.623284 1_545
K0 O5 2.623284 1_554
K0 O13 2.623284 1_454
K0 O35 2.623284 1_544
K0 O17 2.623284 1_445
K1 O10 2.623284 1_554
K1 O6 2.623284 1_555
K1 O2 2.623284 1_555
K1 O15 2.623284 1_554
K1 O22 2.623284 1_555
K1 O18 2.623284 1_554
K2 O0 2.623284 1_555
K2 O4 2.623284 1_555
K2 O9 2.623284 1_455
K2 O12 2.623284 1_455
K2 O21 2.623284 1_555
K2 O16 2.623284 1_455
K3 O7 2.623284 1_555
K3 O11 2.623284 1_545
K3 O8 2.623284 1_555
K3 O20 2.623284 1_545
K3 O19 2.623284 1_545
K3 O23 2.623284 1_555
K4 O22 2.675887 1_555
K4 O23 2.675887 1_555
K4 O21 2.675887 1_555
K4 O26 2.887993 1_555
K4 O24 2.887993 1_555
K4 O25 2.887993 1_555
K5 O12 2.675887 1_455
K5 O17 2.675887 1_445
K5 O20 2.675887 1_545
K5 O26 2.887993 1_555
K5 O29 2.887993 1_455
K5 O27 2.887993 1_545
K6 O35 2.675887 1_544
K6 O19 2.675887 1_545
K6 O15 2.675887 1_554
K6 O24 2.887993 1_555
K6 O28 2.887993 1_554
K6 O27 2.887993 1_545
K7 O13 2.675887 1_454
K7 O18 2.675887 1_554
K7 O16 2.675887 1_455
K7 O28 2.887993 1_554
K7 O29 2.887993 1_455
K7 O25 2.887993 1_555
K8 O10 2.675887 1_555
K8 O11 2.675887 1_555
K8 O9 2.675887 1_555
K8 O32 2.887993 1_555
K8 O30 2.887993 1_555
K8 O31 2.887993 1_555
K9 O0 2.675887 1_655
K9 O5 2.675887 1_665
K9 O8 2.675887 1_565
K9 O33 2.887993 1_565
K9 O32 2.887993 1_555
K9 O14 2.887993 1_655
K10 O7 2.675887 1_565
K10 O3 2.675887 1_566
K10 O2 2.675887 1_556
K10 O33 2.887993 1_565
K10 O30 2.887993 1_555
K10 O34 2.887993 1_556
K11 O6 2.675887 1_556
K11 O1 2.675887 1_656
K11 O4 2.675887 1_655
K11 O31 2.887993 1_555
K11 O34 2.887993 1_556
K11 O14 2.887993 1_655
O0 Sb5 1.967787 1_455
O0 Sb8 2.011258 1_555
O1 Sb5 1.967787 1_455
O1 Sb10 2.011258 1_555
O2 Sb0 1.967787 1_555
O2 Sb10 2.011258 1_555
O3 Sb4 1.967787 1_554
O3 Sb9 2.011258 1_555
O4 Sb1 1.967787 1_555
O4 Sb11 2.011258 1_555
O5 Sb3 1.967787 1_545
O5 Sb11 2.011258 1_555
O6 Sb4 1.967787 1_554
O6 Sb7 2.011258 1_555
O7 Sb3 1.967787 1_545
O7 Sb6 2.011258 1_555
O8 Sb2 1.967787 1_555
O8 Sb9 2.011258 1_555
O9 Sb2 1.967787 1_555
O9 Sb7 2.011258 1_555
O10 Sb1 1.967787 1_555
O10 Sb6 2.011258 1_555
O11 Sb0 1.967787 1_555
O11 Sb8 2.011258 1_555
O12 Sb11 1.967787 1_655
O12 Sb2 2.011258 1_555
O13 Sb11 1.967787 1_655
O13 Sb4 2.011258 1_555
O14 Sb1 2.011259 1_555
O14 Sb3 2.011259 1_555
O15 Sb6 1.967787 1_555
O15 Sb4 2.011258 1_555
O16 Sb7 1.967787 1_555
O16 Sb5 2.011258 1_555
O17 Sb9 1.967787 1_565
O17 Sb5 2.011258 1_555
O18 Sb10 1.967787 1_556
O18 Sb1 2.011258 1_555
O19 Sb9 1.967787 1_565
O19 Sb0 2.011258 1_555
O20 Sb8 1.967787 1_555
O20 Sb3 2.011258 1_555
O21 Sb8 1.967787 1_555
O21 Sb1 2.011258 1_555
O22 Sb7 1.967787 1_555
O22 Sb0 2.011258 1_555
O23 Sb6 1.967787 1_555
O23 Sb2 2.011258 1_555
O24 Sb7 2.011259 1_555
O24 Sb9 2.011259 1_555
O25 Sb8 2.011259 1_555
O25 Sb10 2.011259 1_555
O26 Sb11 2.011259 1_555
O26 Sb6 2.011259 1_555
O27 Sb8 2.011259 1_555
O27 Sb10 2.011259 1_555
O28 Sb6 2.011259 1_555
O28 Sb11 2.011259 1_555
O29 Sb9 2.011259 1_555
O29 Sb7 2.011259 1_555
O30 Sb3 2.011259 1_555
O30 Sb1 2.011259 1_555
O31 Sb2 2.011259 1_555
O31 Sb4 2.011259 1_555
O32 Sb5 2.011259 1_555
O32 Sb0 2.011259 1_555
O33 Sb2 2.011259 1_555
O33 Sb4 2.011259 1_555
O34 Sb5 2.011259 1_555
O34 Sb0 2.011259 1_555
O35 Sb10 1.967787 1_556
O35 Sb3 2.011258 1_555
