# generated using pymatgen
data_ZnAg2SnSe4
_symmetry_space_group_name_H-M   'P 1'
_cell_length_a   7.53739044
_cell_length_b   7.53739044
_cell_length_c   7.53739044
_cell_angle_alpha   133.78269488
_cell_angle_beta   133.78269488
_cell_angle_gamma   67.42761623
_symmetry_Int_Tables_number   1
_chemical_formula_structural   ZnAg2SnSe4
_chemical_formula_sum   'Zn1 Ag2 Sn1 Se4'
_cell_volume   219.47185789
_cell_formula_units_Z   1
loop_
 _symmetry_equiv_pos_site_id
 _symmetry_equiv_pos_as_xyz
  1  'x, y, z'
loop_
 _atom_site_type_symbol
 _atom_site_label
 _atom_site_symmetry_multiplicity
 _atom_site_fract_x
 _atom_site_fract_y
 _atom_site_fract_z
 _atom_site_occupancy
  Zn  Zn0  1  0.00000000  0.00000000  0.00000000  1
  Ag  Ag0  1  0.75000000  0.25000000  0.50000000  1
  Ag  Ag1  1  0.25000000  0.75000000  0.50000000  1
  Sn  Sn0  1  0.50000000  0.50000000  0.00000000  1
  Se  Se0  1  0.63742000  0.12421000  0.00000000  1
  Se  Se1  1  0.12421000  0.63742000  0.00000000  1
  Se  Se2  1  0.36258000  0.36258000  0.48679000  1
  Se  Se3  1  0.87579000  0.87579000  0.51321000  1
loop_
_geom_bond_atom_site_label_1
_geom_bond_atom_site_label_2
_geom_bond_distance
_geom_bond_site_symmetry_2
Ag0 Se3 2.658840 1_545
Ag0 Se0 2.658840 1_555
Ag0 Se1 2.658840 1_656
Ag0 Se2 2.658840 1_555
Ag1 Se3 2.658840 1_455
Ag1 Se0 2.658840 1_566
Ag1 Se2 2.658840 1_555
Ag1 Se1 2.658840 1_555
Se0 Zn0 2.526074 1_655
Se0 Sn0 2.616001 1_555
Se1 Zn0 2.526074 1_565
Se1 Sn0 2.616001 1_555
Se2 Zn0 2.526074 1_555
Se2 Sn0 2.616001 1_556
Se3 Zn0 2.526074 1_666
Se3 Sn0 2.616001 1_555
