# generated using pymatgen
data_Li6Mn3CoO10
_symmetry_space_group_name_H-M   'P 1'
_cell_length_a   2.94080200
_cell_length_b   6.45762129
_cell_length_c   9.83303640
_cell_angle_alpha   99.85841342
_cell_angle_beta   92.66194128
_cell_angle_gamma   102.90781262
_symmetry_Int_Tables_number   1
_chemical_formula_structural   Li6Mn3CoO10
_chemical_formula_sum   'Li6 Mn3 Co1 O10'
_cell_volume   178.63010558
_cell_formula_units_Z   1
loop_
 _symmetry_equiv_pos_site_id
 _symmetry_equiv_pos_as_xyz
  1  'x, y, z'
loop_
 _atom_site_type_symbol
 _atom_site_label
 _atom_site_symmetry_multiplicity
 _atom_site_fract_x
 _atom_site_fract_y
 _atom_site_fract_z
 _atom_site_occupancy
  Li  Li0  1  0.91780500  0.81815600  0.69703400  1
  Li  Li1  1  0.10077300  0.20469800  0.30108000  1
  Li  Li2  1  0.48967900  0.00067500  0.50982500  1
  Li  Li3  1  0.70452400  0.39282700  0.08898700  1
  Li  Li4  1  0.28633200  0.58342900  0.90251100  1
  Li  Li5  1  0.60084500  0.20105200  0.79919000  1
  Mn  Mn0  1  0.01548300  0.00698100  0.99300000  1
  Mn  Mn1  1  0.18671100  0.39485100  0.60527400  1
  Mn  Mn2  1  0.40236800  0.79331900  0.19966400  1
  Co  Co0  1  0.79057300  0.60354300  0.40365400  1
  O  O0  1  0.44938000  0.91022400  0.86802600  1
  O  O1  1  0.63794500  0.32354000  0.46403400  1
  O  O2  1  0.06306500  0.12051500  0.64270200  1
  O  O3  1  0.28531500  0.50937200  0.26171300  1
  O  O4  1  0.89973400  0.71348300  0.05252000  1
  O  O5  1  0.30084200  0.68368500  0.54412300  1
  O  O6  1  0.56797300  0.08012200  0.13501000  1
  O  O7  1  0.91009900  0.88584100  0.34506700  1
  O  O8  1  0.13716100  0.28137400  0.95644000  1
  O  O9  1  0.75339100  0.49231200  0.73014700  1
loop_
_geom_bond_atom_site_label_1
_geom_bond_atom_site_label_2
_geom_bond_distance
_geom_bond_site_symmetry_2
Li0 O2 2.070265 1_665
Li0 O5 2.104970 1_655
Li0 O9 2.135896 1_555
Li0 O0 2.150018 1_655
Li0 O5 2.214125 1_555
Li0 O0 2.305830 1_555
Li1 O3 2.029428 1_555
Li1 O1 2.110476 1_555
Li1 O6 2.125599 1_455
Li1 O7 2.133749 1_445
Li1 O1 2.292847 1_455
Li1 O6 2.335348 1_555
Li2 O2 2.003869 1_655
Li2 O2 2.029736 1_555
Li2 O5 2.087648 1_545
Li2 O1 2.161800 1_555
Li2 O7 2.201606 1_445
Li2 O7 2.210753 1_545
Li3 O8 1.985167 1_554
Li3 O8 2.019247 1_654
Li3 O6 2.100303 1_555
Li3 O4 2.118521 1_555
Li3 O3 2.255401 1_655
Li3 O3 2.267635 1_555
Li4 O8 2.066841 1_555
Li4 O4 2.081297 1_456
Li4 O0 2.146254 1_555
Li4 O9 2.162151 1_455
Li4 O4 2.187904 1_556
Li4 O9 2.311095 1_555
Li5 O2 2.066846 1_555
Li5 O0 2.067175 1_545
Li5 O8 2.069015 1_655
Li5 O9 2.070825 1_555
Li5 O2 2.173019 1_655
Li5 O8 2.180947 1_555
Mn0 O8 1.828608 1_555
Mn0 O0 1.937628 1_445
Mn0 O0 1.941041 1_545
Mn0 O6 2.008335 1_556
Mn0 O6 2.031625 1_456
Mn0 O4 2.039772 1_446
Mn1 O2 1.831387 1_555
Mn1 O9 1.938484 1_555
Mn1 O9 1.940793 1_455
Mn1 O1 1.996513 1_455
Mn1 O5 2.018964 1_555
Mn1 O1 2.031495 1_555
Mn2 O7 1.934231 1_555
Mn2 O4 1.936390 1_455
Mn2 O3 1.993371 1_555
Mn2 O6 2.024962 1_565
Mn2 O4 2.185550 1_555
Mn2 O7 2.187023 1_455
Co0 O3 1.907525 1_555
Co0 O5 1.908714 1_655
Co0 O1 1.962946 1_555
Co0 O7 1.967437 1_555
Co0 O5 2.126693 1_555
Co0 O3 2.174382 1_655
