# generated using pymatgen
data_Nd2SeO2
_symmetry_space_group_name_H-M   'P 1'
_cell_length_a   4.00093465
_cell_length_b   4.00093532
_cell_length_c   7.03823685
_cell_angle_alpha   90.00000000
_cell_angle_beta   90.00000000
_cell_angle_gamma   119.99999439
_symmetry_Int_Tables_number   1
_chemical_formula_structural   Nd2SeO2
_chemical_formula_sum   'Nd2 Se1 O2'
_cell_volume   97.57027340
_cell_formula_units_Z   1
loop_
 _symmetry_equiv_pos_site_id
 _symmetry_equiv_pos_as_xyz
  1  'x, y, z'
loop_
 _atom_site_type_symbol
 _atom_site_label
 _atom_site_symmetry_multiplicity
 _atom_site_fract_x
 _atom_site_fract_y
 _atom_site_fract_z
 _atom_site_occupancy
  Nd  Nd0  1  0.66666700  0.33333300  0.71152331  1
  Nd  Nd1  1  0.33333300  0.66666700  0.28847669  1
  Se  Se0  1  -0.00000000  0.00000000  -0.00000000  1
  O  O0  1  0.66666700  0.33333300  0.37438995  1
  O  O1  1  0.33333300  0.66666700  0.62561005  1
loop_
_geom_bond_atom_site_label_1
_geom_bond_atom_site_label_2
_geom_bond_distance
_geom_bond_site_symmetry_2
Nd0 O0 2.372824 1_555
Nd0 O1 2.387771 1_655
Nd0 O1 2.387772 1_545
Nd0 O1 2.387778 1_555
Nd0 Se0 3.075420 1_656
Nd0 Se0 3.075422 1_556
Nd0 Se0 3.075423 1_666
Nd1 O1 2.372824 1_555
Nd1 O0 2.387771 1_455
Nd1 O0 2.387772 1_565
Nd1 O0 2.387778 1_555
Nd1 Se0 3.075420 1_565
Nd1 Se0 3.075422 1_665
Nd1 Se0 3.075423 1_555
