# generated using pymatgen
data_V2H2Se2O13
_symmetry_space_group_name_H-M   'P 1'
_cell_length_a   6.34776000
_cell_length_b   10.18180943
_cell_length_c   10.60197457
_cell_angle_alpha   119.64302702
_cell_angle_beta   90.00000000
_cell_angle_gamma   108.16295398
_symmetry_Int_Tables_number   1
_chemical_formula_structural   V2H2Se2O13
_chemical_formula_sum   'V4 H4 Se4 O26'
_cell_volume   555.92122273
_cell_formula_units_Z   2
loop_
 _symmetry_equiv_pos_site_id
 _symmetry_equiv_pos_as_xyz
  1  'x, y, z'
loop_
 _atom_site_type_symbol
 _atom_site_label
 _atom_site_symmetry_multiplicity
 _atom_site_fract_x
 _atom_site_fract_y
 _atom_site_fract_z
 _atom_site_occupancy
  V  V0  1  0.64576500  0.24950800  0.90746500  1
  V  V1  1  0.89625500  0.75049200  0.59253500  1
  V  V2  1  0.35423600  0.75049200  0.09253500  1
  V  V3  1  0.10374400  0.24950800  0.40746500  1
  H  H0  1  0.83251900  0.56521000  0.05870800  1
  H  H1  1  0.76730900  0.43479000  0.44129200  1
  H  H2  1  0.16748100  0.43479000  0.94129200  1
  H  H3  1  0.23269100  0.56521000  0.55870800  1
  Se  Se0  1  0.07244900  0.10468800  0.89144300  1
  Se  Se1  1  0.46776100  0.89531200  0.60855700  1
  Se  Se2  1  0.92755100  0.89531200  0.10855700  1
  Se  Se3  1  0.53223900  0.10468800  0.39144300  1
  O  O0  1  0.97750300  0.25676800  0.91276800  1
  O  O1  1  0.22073500  0.74323200  0.58723200  1
  O  O2  1  0.02249700  0.74323200  0.08723200  1
  O  O3  1  0.77926500  0.25676800  0.41276800  1
  O  O4  1  0.56451100  0.00560500  0.79849800  1
  O  O5  1  0.05890500  0.99439500  0.70150200  1
  O  O6  1  0.43548900  0.99439500  0.20150200  1
  O  O7  1  0.94109500  0.00560500  0.29849800  1
  O  O8  1  0.35364600  0.22643500  0.95868000  1
  O  O9  1  0.62721100  0.77356500  0.54132000  1
  O  O10  1  0.64635400  0.77356500  0.04132000  1
  O  O11  1  0.37278900  0.22643500  0.45868000  1
  O  O12  1  0.76416000  0.46002000  0.05466100  1
  O  O13  1  0.80414000  0.53998000  0.44533900  1
  O  O14  1  0.23584000  0.53998000  0.94533900  1
  O  O15  1  0.19586000  0.46002000  0.55466100  1
  O  O16  1  0.72375200  0.18637000  0.06309400  1
  O  O17  1  0.03738200  0.81363000  0.43690600  1
  O  O18  1  0.27624800  0.81363000  0.93690600  1
  O  O19  1  0.96261800  0.18637000  0.56309400  1
  O  O20  1  0.62136900  0.25289100  0.75666000  1
  O  O21  1  0.86847800  0.74710900  0.74334000  1
  O  O22  1  0.37863100  0.74710900  0.24334000  1
  O  O23  1  0.13152200  0.25289100  0.25666000  1
  O  O24  1  0.62069700  0.50000000  0.25000000  1
  O  O25  1  0.37930300  0.50000000  0.75000000  1
loop_
_geom_bond_atom_site_label_1
_geom_bond_atom_site_label_2
_geom_bond_distance
_geom_bond_site_symmetry_2
H0 O12 1.001014 1_555
H0 O2 1.710621 1_655
H1 O13 1.001014 1_555
H1 O3 1.710621 1_555
H2 O14 1.001014 1_555
H2 O0 1.710621 1_455
H3 O15 1.001014 1_555
H3 O1 1.710621 1_555
O0 Se0 1.745730 1_655
O0 V0 2.083707 1_555
O1 Se1 1.745730 1_555
O1 V1 2.083720 1_455
O2 Se2 1.745730 1_455
O2 V2 2.083713 1_555
O3 Se3 1.745730 1_555
O3 V3 2.083713 1_655
O4 Se1 1.739690 1_545
O4 V0 2.032565 1_555
O5 Se0 1.739689 1_565
O5 V1 2.032566 1_455
O6 Se3 1.739690 1_565
O6 V2 2.032566 1_555
O7 Se2 1.739689 1_545
O7 V3 2.032565 1_655
O8 Se0 1.725495 1_555
O8 V0 1.908677 1_555
O9 Se1 1.725495 1_555
O9 V1 1.908665 1_555
O10 Se2 1.725495 1_555
O10 V2 1.908671 1_555
O11 Se3 1.725495 1_555
O11 V3 1.908671 1_555
O12 V0 1.811436 1_554
O13 V1 1.811437 1_555
O14 V2 1.811437 1_556
O15 V3 1.811437 1_555
O16 V0 2.151370 1_554
O17 V1 2.151374 1_455
O18 V2 2.151372 1_556
O19 V3 2.151372 1_655
O20 V0 1.624571 1_555
O21 V1 1.624569 1_555
O22 V2 1.624570 1_555
O23 V3 1.624570 1_555
