# generated using pymatgen
data_SrDy(NiO3)4
_symmetry_space_group_name_H-M   'P 1'
_cell_length_a   5.37804386
_cell_length_b   5.37804386
_cell_length_c   7.59385210
_cell_angle_alpha   90.00000000
_cell_angle_beta   90.00000000
_cell_angle_gamma   90.98034432
_symmetry_Int_Tables_number   1
_chemical_formula_structural   SrDy(NiO3)4
_chemical_formula_sum   'Sr1 Dy1 Ni4 O12'
_cell_volume   219.60753540
_cell_formula_units_Z   1
loop_
 _symmetry_equiv_pos_site_id
 _symmetry_equiv_pos_as_xyz
  1  'x, y, z'
loop_
 _atom_site_type_symbol
 _atom_site_label
 _atom_site_symmetry_multiplicity
 _atom_site_fract_x
 _atom_site_fract_y
 _atom_site_fract_z
 _atom_site_occupancy
  Sr  Sr0  1  -0.00000000  -0.00000000  0.00000000  1
  Dy  Dy0  1  0.50000000  0.50000000  0.50000000  1
  Ni  Ni0  1  -0.00000000  0.50000000  0.24974797  1
  Ni  Ni1  1  -0.00000000  0.50000000  0.75025203  1
  Ni  Ni2  1  0.50000000  -0.00000000  0.24974797  1
  Ni  Ni3  1  0.50000000  -0.00000000  0.75025203  1
  O  O0  1  0.25324461  0.25324461  0.26567615  1
  O  O1  1  0.25324461  0.25324461  0.73432385  1
  O  O2  1  0.74675539  0.74675539  0.26567615  1
  O  O3  1  0.74675539  0.74675539  0.73432385  1
  O  O4  1  0.72332021  0.27667979  0.27079387  1
  O  O5  1  0.72332021  0.27667979  0.72920613  1
  O  O6  1  0.27667979  0.72332021  0.72920613  1
  O  O7  1  0.27667979  0.72332021  0.27079387  1
  O  O8  1  -0.00000000  0.50000000  0.00000000  1
  O  O9  1  -0.00000000  0.50000000  0.50000000  1
  O  O10  1  0.50000000  -0.00000000  0.00000000  1
  O  O11  1  0.50000000  -0.00000000  0.50000000  1
loop_
_geom_bond_atom_site_label_1
_geom_bond_atom_site_label_2
_geom_bond_distance
_geom_bond_site_symmetry_2
Dy0 O5 2.442095 1_555
Dy0 O6 2.442095 1_555
Dy0 O7 2.442095 1_555
Dy0 O4 2.442095 1_555
Dy0 O0 2.574541 1_555
Dy0 O2 2.574541 1_555
Dy0 O3 2.574541 1_555
Dy0 O1 2.574541 1_555
Dy0 O11 2.689022 1_565
Dy0 O9 2.689022 1_555
Dy0 O9 2.689022 1_655
Dy0 O11 2.689022 1_555
Ni0 O8 1.896549 1_555
Ni0 O9 1.900377 1_555
Ni0 O4 1.902888 1_455
Ni0 O7 1.902888 1_555
Ni0 O0 1.921589 1_555
Ni0 O2 1.921589 1_455
Ni1 O8 1.896549 1_556
Ni1 O9 1.900377 1_555
Ni1 O5 1.902888 1_455
Ni1 O6 1.902888 1_555
Ni1 O3 1.921589 1_455
Ni1 O1 1.921589 1_555
Ni2 O10 1.896549 1_555
Ni2 O11 1.900377 1_555
Ni2 O4 1.902888 1_555
Ni2 O7 1.902888 1_545
Ni2 O0 1.921589 1_555
Ni2 O2 1.921589 1_545
Ni3 O10 1.896549 1_556
Ni3 O11 1.900377 1_555
Ni3 O6 1.902888 1_545
Ni3 O5 1.902888 1_555
Ni3 O3 1.921589 1_545
Ni3 O1 1.921589 1_555
O0 Sr0 2.777900 1_555
O1 Sr0 2.777900 1_556
O2 Sr0 2.777900 1_665
O3 Sr0 2.777900 1_666
O4 Sr0 2.955111 1_655
O5 Sr0 2.955111 1_656
O6 Sr0 2.955111 1_566
O7 Sr0 2.955111 1_565
O8 Sr0 2.689022 1_565
O8 Sr0 2.689022 1_555
O10 Sr0 2.689022 1_655
O10 Sr0 2.689022 1_555
