# generated using pymatgen
data_Ca(WO2)2
_symmetry_space_group_name_H-M   'P 1'
_cell_length_a   6.53619644
_cell_length_b   6.53619644
_cell_length_c   22.13376211
_cell_angle_alpha   79.85222796
_cell_angle_beta   79.85222796
_cell_angle_gamma   60.18051273
_symmetry_Int_Tables_number   1
_chemical_formula_structural   Ca(WO2)2
_chemical_formula_sum   'Ca8 W16 O32'
_cell_volume   803.20642213
_cell_formula_units_Z   8
loop_
 _symmetry_equiv_pos_site_id
 _symmetry_equiv_pos_as_xyz
  1  'x, y, z'
loop_
 _atom_site_type_symbol
 _atom_site_label
 _atom_site_symmetry_multiplicity
 _atom_site_fract_x
 _atom_site_fract_y
 _atom_site_fract_z
 _atom_site_occupancy
  Ca  Ca0  1  0.65167300  0.65167300  0.02892600  1
  Ca  Ca1  1  0.12225200  0.12225200  0.12521400  1
  Ca  Ca2  1  0.89855400  0.89855400  0.28123900  1
  Ca  Ca3  1  0.37006600  0.37006600  0.37485800  1
  Ca  Ca4  1  0.62405200  0.62405200  0.62609300  1
  Ca  Ca5  1  0.49822100  0.49822100  0.49881500  1
  Ca  Ca6  1  0.88409400  0.88409400  0.87346600  1
  Ca  Ca7  1  0.75231800  0.75231800  0.75127100  1
  W  W0  1  0.62753200  0.11948500  0.12482000  1
  W  W1  1  0.24669000  0.24669000  0.25166200  1
  W  W2  1  0.11948500  0.62753200  0.12482000  1
  W  W3  1  0.16077100  0.16077100  0.52880000  1
  W  W4  1  0.87083500  0.36651500  0.37492500  1
  W  W5  1  0.58799200  0.58799200  0.22082100  1
  W  W6  1  0.42218800  0.42218800  0.77717300  1
  W  W7  1  0.36651500  0.87083500  0.37492500  1
  W  W8  1  0.12379700  0.62434000  0.62506200  1
  W  W9  1  0.83155200  0.83155200  0.47063500  1
  W  W10  1  0.62434000  0.12379700  0.62506200  1
  W  W11  1  0.88548800  0.38560100  0.87426300  1
  W  W12  1  0.38560100  0.88548800  0.87426300  1
  W  W13  1  0.08567700  0.08567700  0.72319500  1
  W  W14  1  0.00249400  0.00249400  0.00136300  1
  W  W15  1  0.36139800  0.36139800  0.96940200  1
  O  O0  1  0.27262000  0.81823400  0.06298900  1
  O  O1  1  0.92443300  0.92443300  0.17754600  1
  O  O2  1  0.81823400  0.27262000  0.06298900  1
  O  O3  1  0.82851300  0.82851300  0.06711200  1
  O  O4  1  0.42759400  0.42759400  0.18269100  1
  O  O5  1  0.51539200  0.06709400  0.31427700  1
  O  O6  1  0.42644700  0.96303700  0.18974400  1
  O  O7  1  0.16549000  0.16549000  0.43690800  1
  O  O8  1  0.06709400  0.51539200  0.31427700  1
  O  O9  1  0.32124900  0.32124900  0.06618700  1
  O  O10  1  0.07636800  0.07636800  0.31783900  1
  O  O11  1  0.96303700  0.42644700  0.18974400  1
  O  O12  1  0.81273800  0.29594500  0.56557800  1
  O  O13  1  0.68033100  0.68033100  0.42504400  1
  O  O14  1  0.68486100  0.19434500  0.43572500  1
  O  O15  1  0.42122700  0.42122700  0.67815400  1
  O  O16  1  0.29594500  0.81273800  0.56557800  1
  O  O17  1  0.57432200  0.57432200  0.31615700  1
  O  O18  1  0.30691600  0.30691600  0.57166000  1
  O  O19  1  0.19434500  0.68486100  0.43572500  1
  O  O20  1  0.94096700  0.94096700  0.67762300  1
  O  O21  1  0.05895900  0.56572500  0.81449200  1
  O  O22  1  0.95206200  0.43791800  0.68455400  1
  O  O23  1  0.68849300  0.68849300  0.92586100  1
  O  O24  1  0.56572500  0.05895900  0.81449200  1
  O  O25  1  0.82660400  0.82660400  0.57069500  1
  O  O26  1  0.57070900  0.57070900  0.82551500  1
  O  O27  1  0.43791800  0.95206200  0.68455400  1
  O  O28  1  0.17618700  0.17618700  0.93402500  1
  O  O29  1  0.19689700  0.71926000  0.93801200  1
  O  O30  1  0.08542600  0.08542600  0.81516300  1
  O  O31  1  0.71926000  0.19689700  0.93801200  1
loop_
_geom_bond_atom_site_label_1
_geom_bond_atom_site_label_2
_geom_bond_distance
_geom_bond_site_symmetry_2
Ca0 O2 2.200103 1_555
Ca0 O0 2.200103 1_555
Ca0 O23 2.233937 1_554
Ca0 O3 2.324565 1_555
Ca1 O1 2.300538 1_445
Ca1 O0 2.314422 1_545
Ca1 O2 2.314422 1_455
Ca1 O11 2.344217 1_455
Ca1 O6 2.344217 1_545
Ca1 O9 2.361230 1_555
Ca2 O8 2.217005 1_655
Ca2 O5 2.217005 1_565
Ca2 O1 2.253806 1_555
Ca2 O10 2.316188 1_665
Ca3 O5 2.288640 1_555
Ca3 O8 2.288640 1_555
Ca3 O19 2.334297 1_555
Ca3 O14 2.334297 1_555
Ca3 O17 2.408952 1_555
Ca3 O7 2.438469 1_555
Ca4 O15 2.348211 1_555
Ca4 O27 2.362135 1_555
Ca4 O22 2.362135 1_555
Ca4 O25 2.368153 1_555
Ca4 O16 2.390382 1_555
Ca4 O12 2.390382 1_555
Ca5 O14 2.313103 1_555
Ca5 O19 2.313103 1_555
Ca5 O13 2.353541 1_555
Ca5 O16 2.415915 1_555
Ca5 O12 2.415915 1_555
Ca5 O18 2.420910 1_555
Ca6 O23 2.279178 1_555
Ca6 O21 2.325178 1_655
Ca6 O24 2.325178 1_565
Ca6 O30 2.377853 1_665
Ca6 O31 2.382875 1_565
Ca6 O29 2.382875 1_655
Ca7 O24 2.327757 1_565
Ca7 O21 2.327757 1_655
Ca7 O26 2.354815 1_555
Ca7 O20 2.406993 1_555
Ca7 O22 2.414495 1_555
Ca7 O27 2.414495 1_555
O0 W14 2.140866 1_565
O0 W2 2.141370 1_555
O1 W2 2.136926 1_655
O1 W0 2.136926 1_565
O2 W14 2.140866 1_655
O2 W0 2.141370 1_555
O3 W0 2.180416 1_565
O3 W2 2.180416 1_655
O3 W14 2.196352 1_665
O4 W5 2.151096 1_555
O4 W2 2.259619 1_555
O4 W0 2.259619 1_555
O4 W1 2.290216 1_555
O5 W7 2.137470 1_545
O5 W1 2.148788 1_555
O6 W5 2.164433 1_555
O6 W1 2.203982 1_565
O6 W0 2.234157 1_565
O7 W3 2.023722 1_555
O7 W7 2.257631 1_545
O7 W4 2.257631 1_455
O8 W4 2.137470 1_455
O8 W1 2.148788 1_555
O9 W15 2.097409 1_554
O9 W0 2.262258 1_555
O9 W2 2.262258 1_555
O10 W1 2.169689 1_555
O10 W7 2.170308 1_545
O10 W4 2.170308 1_455
O11 W5 2.164433 1_555
O11 W1 2.203982 1_655
O11 W2 2.234157 1_655
O12 W3 2.054283 1_655
O12 W10 2.191017 1_555
O13 W9 2.155628 1_555
O13 W4 2.182493 1_555
O13 W7 2.182493 1_555
O14 W9 2.119808 1_545
O14 W4 2.192113 1_555
O15 W8 2.147380 1_555
O15 W10 2.147380 1_555
O15 W6 2.193902 1_555
O16 W3 2.054283 1_565
O16 W8 2.191017 1_555
O17 W5 2.084164 1_555
O17 W7 2.222764 1_555
O17 W4 2.222764 1_555
O18 W3 2.066640 1_555
O18 W8 2.242801 1_555
O18 W10 2.242801 1_555
O19 W9 2.119808 1_455
O19 W7 2.192113 1_555
O20 W13 2.090177 1_665
O20 W8 2.227861 1_655
O20 W10 2.227861 1_565
O21 W6 2.136782 1_555
O21 W11 2.161505 1_455
O22 W13 2.089136 1_655
O22 W8 2.180065 1_655
O23 W11 2.150580 1_555
O23 W12 2.150580 1_555
O24 W6 2.136782 1_555
O24 W12 2.161505 1_545
O25 W10 2.162922 1_565
O25 W8 2.162922 1_655
O25 W9 2.203989 1_555
O26 W6 2.167695 1_555
O26 W12 2.169724 1_555
O26 W11 2.169724 1_555
O27 W13 2.089136 1_565
O27 W10 2.180065 1_565
O28 W14 2.211005 1_556
O28 W11 2.212366 1_455
O28 W12 2.212366 1_545
O28 W15 2.381102 1_555
O29 W15 2.073480 1_555
O29 W12 2.207265 1_555
O29 W14 2.226057 1_566
O30 W13 2.035022 1_555
O30 W11 2.240624 1_455
O30 W12 2.240624 1_545
O31 W15 2.073480 1_555
O31 W11 2.207265 1_555
O31 W14 2.226057 1_656
