# generated using pymatgen
data_Ho2Fe17C3
_symmetry_space_group_name_H-M   'P 1'
_cell_length_a   6.48975473
_cell_length_b   6.48975473
_cell_length_c   6.48975453
_cell_angle_alpha   83.40227336
_cell_angle_beta   83.40227336
_cell_angle_gamma   83.40227408
_symmetry_Int_Tables_number   1
_chemical_formula_structural   Ho2Fe17C3
_chemical_formula_sum   'Ho2 Fe17 C3'
_cell_volume   268.28397644
_cell_formula_units_Z   1
loop_
 _symmetry_equiv_pos_site_id
 _symmetry_equiv_pos_as_xyz
  1  'x, y, z'
loop_
 _atom_site_type_symbol
 _atom_site_label
 _atom_site_symmetry_multiplicity
 _atom_site_fract_x
 _atom_site_fract_y
 _atom_site_fract_z
 _atom_site_occupancy
  Ho  Ho0  1  0.65819500  0.65819500  0.65819500  1
  Ho  Ho1  1  0.34180500  0.34180500  0.34180500  1
  Fe  Fe0  1  0.00000000  0.00000000  0.50000000  1
  Fe  Fe1  1  0.50000000  0.00000000  0.00000000  1
  Fe  Fe2  1  0.00000000  0.50000000  0.00000000  1
  Fe  Fe3  1  0.71616000  0.28384000  0.00000000  1
  Fe  Fe4  1  0.00000000  0.71616000  0.28384000  1
  Fe  Fe5  1  0.28384000  0.00000000  0.71616000  1
  Fe  Fe6  1  0.00000000  0.28384000  0.71616000  1
  Fe  Fe7  1  0.71616000  0.00000000  0.28384000  1
  Fe  Fe8  1  0.28384000  0.71616000  0.00000000  1
  Fe  Fe9  1  0.34295100  0.85383200  0.34295100  1
  Fe  Fe10  1  0.34295100  0.34295100  0.85383200  1
  Fe  Fe11  1  0.85383200  0.34295100  0.34295100  1
  Fe  Fe12  1  0.65704900  0.14616800  0.65704900  1
  Fe  Fe13  1  0.65704900  0.65704900  0.14616800  1
  Fe  Fe14  1  0.14616800  0.65704900  0.65704900  1
  Fe  Fe15  1  0.90461600  0.90461600  0.90461600  1
  Fe  Fe16  1  0.09538400  0.09538400  0.09538400  1
  C  C0  1  0.50000000  0.50000000  0.00000000  1
  C  C1  1  0.00000000  0.50000000  0.50000000  1
  C  C2  1  0.50000000  0.00000000  0.50000000  1
loop_
_geom_bond_atom_site_label_1
_geom_bond_atom_site_label_2
_geom_bond_distance
_geom_bond_site_symmetry_2
Fe0 Fe4 2.440263 1_545
Fe0 Fe7 2.440263 1_455
Fe0 Fe5 2.440263 1_555
Fe0 Fe6 2.440263 1_555
Fe0 Fe12 2.471428 1_455
Fe0 Fe14 2.471428 1_545
Fe0 Fe11 2.471428 1_455
Fe0 Fe9 2.471428 1_545
Fe0 Fe15 2.646226 1_445
Fe0 Fe16 2.646226 1_555
Fe0 Ho1 3.313483 1_555
Fe0 Ho0 3.313483 1_445
Fe1 Fe7 2.440263 1_555
Fe1 Fe5 2.440263 1_554
Fe1 Fe8 2.440263 1_545
Fe1 Fe3 2.440263 1_555
Fe1 Fe12 2.471428 1_554
Fe1 Fe9 2.471428 1_545
Fe1 Fe13 2.471428 1_545
Fe1 Fe10 2.471428 1_554
Fe1 Fe15 2.646226 1_544
Fe1 Fe16 2.646226 1_555
Fe1 Ho1 3.313483 1_555
Fe1 Ho0 3.313483 1_544
Fe2 Fe4 2.440263 1_555
Fe2 Fe6 2.440263 1_554
Fe2 Fe3 2.440263 1_455
Fe2 Fe8 2.440263 1_555
Fe2 Ho1 3.313483 1_555
Fe2 Ho0 3.313483 1_454
Fe10 Fe2 2.471428 1_556
Fe10 Fe16 2.656257 1_556
Fe11 Fe2 2.471428 1_655
Fe11 Fe16 2.656257 1_655
Fe12 Fe15 2.656257 1_545
Fe13 Fe2 2.471428 1_655
Fe13 Fe15 2.656257 1_554
Fe14 Fe2 2.471428 1_556
Fe14 Fe15 2.656257 1_455
Fe15 Fe16 2.377995 1_666
Fe15 Fe2 2.646226 1_656
Fe15 Fe7 2.724022 1_566
Fe15 Fe4 2.724022 1_656
Fe15 Fe6 2.724022 1_665
Fe15 Fe5 2.724022 1_665
Fe15 Fe3 2.724022 1_566
Fe15 Fe8 2.724022 1_656
Fe15 Ho0 3.071730 1_555
Fe16 Fe2 2.646226 1_555
Fe16 Fe9 2.656257 1_545
Fe16 Fe6 2.724022 1_554
Fe16 Fe5 2.724022 1_554
Fe16 Fe4 2.724022 1_545
Fe16 Fe7 2.724022 1_455
Fe16 Fe3 2.724022 1_455
Fe16 Fe8 2.724022 1_545
Fe16 Ho1 3.071730 1_555
C0 Fe8 1.866446 1_555
C0 Fe3 1.866446 1_555
C0 Fe13 1.913232 1_555
C0 Fe10 1.913232 1_554
C0 Ho1 2.494818 1_555
C0 Ho0 2.494818 1_554
C1 Fe4 1.866446 1_555
C1 Fe6 1.866446 1_555
C1 Fe14 1.913232 1_555
C1 Fe11 1.913232 1_455
C1 Ho1 2.494818 1_555
C1 Ho0 2.494818 1_455
C2 Fe7 1.866446 1_555
C2 Fe5 1.866446 1_555
C2 Fe12 1.913232 1_555
C2 Fe9 1.913232 1_545
C2 Ho1 2.494818 1_555
C2 Ho0 2.494818 1_545
