# generated using pymatgen
data_La2(SbPd)3
_symmetry_space_group_name_H-M   'P 1'
_cell_length_a   6.16777800
_cell_length_b   6.16777800
_cell_length_c   44.41148400
_cell_angle_alpha   90.00000000
_cell_angle_beta   90.00000000
_cell_angle_gamma   90.00000000
_symmetry_Int_Tables_number   1
_chemical_formula_structural   La2(SbPd)3
_chemical_formula_sum   'La16 Sb24 Pd24'
_cell_volume   1689.47882272
_cell_formula_units_Z   8
loop_
 _symmetry_equiv_pos_site_id
 _symmetry_equiv_pos_as_xyz
  1  'x, y, z'
loop_
 _atom_site_type_symbol
 _atom_site_label
 _atom_site_symmetry_multiplicity
 _atom_site_fract_x
 _atom_site_fract_y
 _atom_site_fract_z
 _atom_site_occupancy
  La  La0_0  1  0.25000000  0.25000000  0.38008600  1
  La  La0_1  1  0.25000000  0.25000000  0.88008600  1
  La  La0_2  1  0.25000000  0.75000000  0.38008600  1
  La  La0_3  1  0.25000000  0.75000000  0.88008600  1
  La  La0_4  1  0.75000000  0.25000000  0.38008600  1
  La  La0_5  1  0.75000000  0.25000000  0.88008600  1
  La  La0_6  1  0.75000000  0.75000000  0.38008600  1
  La  La0_7  1  0.75000000  0.75000000  0.88008600  1
  La  La1_0  1  0.25000000  0.25000000  0.11991400  1
  La  La1_1  1  0.25000000  0.25000000  0.61991400  1
  La  La1_2  1  0.25000000  0.75000000  0.11991400  1
  La  La1_3  1  0.25000000  0.75000000  0.61991400  1
  La  La1_4  1  0.75000000  0.25000000  0.11991400  1
  La  La1_5  1  0.75000000  0.25000000  0.61991400  1
  La  La1_6  1  0.75000000  0.75000000  0.11991400  1
  La  La1_7  1  0.75000000  0.75000000  0.61991400  1
  Sb  Sb0_0  1  0.25000000  0.25000000  0.19183850  1
  Sb  Sb0_1  1  0.25000000  0.25000000  0.69183850  1
  Sb  Sb0_2  1  0.25000000  0.75000000  0.19183850  1
  Sb  Sb0_3  1  0.25000000  0.75000000  0.69183850  1
  Sb  Sb0_4  1  0.75000000  0.25000000  0.19183850  1
  Sb  Sb0_5  1  0.75000000  0.25000000  0.69183850  1
  Sb  Sb0_6  1  0.75000000  0.75000000  0.19183850  1
  Sb  Sb0_7  1  0.75000000  0.75000000  0.69183850  1
  Sb  Sb1_0  1  0.25000000  0.25000000  0.30816150  1
  Sb  Sb1_1  1  0.25000000  0.25000000  0.80816150  1
  Sb  Sb1_2  1  0.25000000  0.75000000  0.30816150  1
  Sb  Sb1_3  1  0.25000000  0.75000000  0.80816150  1
  Sb  Sb1_4  1  0.75000000  0.25000000  0.30816150  1
  Sb  Sb1_5  1  0.75000000  0.25000000  0.80816150  1
  Sb  Sb1_6  1  0.75000000  0.75000000  0.30816150  1
  Sb  Sb1_7  1  0.75000000  0.75000000  0.80816150  1
  Sb  Sb2_0  1  0.25000000  0.25000000  0.00000000  1
  Sb  Sb2_1  1  0.25000000  0.25000000  0.50000000  1
  Sb  Sb2_2  1  0.25000000  0.75000000  0.00000000  1
  Sb  Sb2_3  1  0.25000000  0.75000000  0.50000000  1
  Sb  Sb2_4  1  0.75000000  0.25000000  0.00000000  1
  Sb  Sb2_5  1  0.75000000  0.25000000  0.50000000  1
  Sb  Sb2_6  1  0.75000000  0.75000000  0.00000000  1
  Sb  Sb2_7  1  0.75000000  0.75000000  0.50000000  1
  Pd  Pd0_0  1  0.25000000  0.25000000  0.06028400  1
  Pd  Pd0_1  1  0.25000000  0.25000000  0.56028400  1
  Pd  Pd0_2  1  0.25000000  0.75000000  0.06028400  1
  Pd  Pd0_3  1  0.25000000  0.75000000  0.56028400  1
  Pd  Pd0_4  1  0.75000000  0.25000000  0.06028400  1
  Pd  Pd0_5  1  0.75000000  0.25000000  0.56028400  1
  Pd  Pd0_6  1  0.75000000  0.75000000  0.06028400  1
  Pd  Pd0_7  1  0.75000000  0.75000000  0.56028400  1
  Pd  Pd1_0  1  0.25000000  0.25000000  0.43971600  1
  Pd  Pd1_1  1  0.25000000  0.25000000  0.93971600  1
  Pd  Pd1_2  1  0.25000000  0.75000000  0.43971600  1
  Pd  Pd1_3  1  0.25000000  0.75000000  0.93971600  1
  Pd  Pd1_4  1  0.75000000  0.25000000  0.43971600  1
  Pd  Pd1_5  1  0.75000000  0.25000000  0.93971600  1
  Pd  Pd1_6  1  0.75000000  0.75000000  0.43971600  1
  Pd  Pd1_7  1  0.75000000  0.75000000  0.93971600  1
  Pd  Pd2_0  1  0.25000000  0.25000000  0.25000000  1
  Pd  Pd2_1  1  0.25000000  0.25000000  0.75000000  1
  Pd  Pd2_2  1  0.25000000  0.75000000  0.25000000  1
  Pd  Pd2_3  1  0.25000000  0.75000000  0.75000000  1
  Pd  Pd2_4  1  0.75000000  0.25000000  0.25000000  1
  Pd  Pd2_5  1  0.75000000  0.25000000  0.75000000  1
  Pd  Pd2_6  1  0.75000000  0.75000000  0.25000000  1
  Pd  Pd2_7  1  0.75000000  0.75000000  0.75000000  1
loop_
_geom_bond_atom_site_label_1
_geom_bond_atom_site_label_2
_geom_bond_distance
_geom_bond_site_symmetry_2
La0_0 Pd1_0 2.648257 1_555
La0_0 Sb1_0 3.194274 1_555
La0_1 Pd1_1 2.648257 1_555
La0_1 Sb1_1 3.194274 1_555
La0_2 Pd1_2 2.648257 1_555
La0_2 Sb1_2 3.194274 1_555
La0_3 Pd1_3 2.648257 1_555
La0_3 Sb1_3 3.194274 1_555
La0_4 Pd1_4 2.648257 1_555
La0_4 Sb1_4 3.194274 1_555
La0_5 Pd1_5 2.648257 1_555
La0_5 Sb1_5 3.194274 1_555
La0_6 Pd1_6 2.648257 1_555
La0_6 Sb1_6 3.194274 1_555
La0_7 Pd1_7 2.648257 1_555
La0_7 Sb1_7 3.194274 1_555
La1_0 Pd0_0 2.648257 1_555
La1_0 Sb0_0 3.194274 1_555
La1_1 Pd0_1 2.648257 1_555
La1_1 Sb0_1 3.194274 1_555
La1_2 Pd0_2 2.648257 1_555
La1_2 Sb0_2 3.194274 1_555
La1_3 Pd0_3 2.648257 1_555
La1_3 Sb0_3 3.194274 1_555
La1_4 Pd0_4 2.648257 1_555
La1_4 Sb0_4 3.194274 1_555
La1_5 Pd0_5 2.648257 1_555
La1_5 Sb0_5 3.194274 1_555
La1_6 Pd0_6 2.648257 1_555
La1_6 Sb0_6 3.194274 1_555
La1_7 Pd0_7 2.648257 1_555
La1_7 Sb0_7 3.194274 1_555
Sb0_0 Sb0_2 3.083889 1_545
Sb0_0 Sb0_2 3.083889 1_555
Sb0_0 Sb0_4 3.083889 1_455
Sb0_0 Sb0_4 3.083889 1_555
Sb0_1 Sb0_5 3.083889 1_455
Sb0_1 Sb0_5 3.083889 1_555
Sb0_1 Sb0_3 3.083889 1_555
Sb0_1 Sb0_3 3.083889 1_545
Sb0_2 Sb0_6 3.083889 1_455
Sb0_2 Sb0_6 3.083889 1_555
Sb0_3 Sb0_7 3.083889 1_555
Sb0_3 Sb0_7 3.083889 1_455
Sb0_4 Sb0_6 3.083889 1_545
Sb0_4 Sb0_6 3.083889 1_555
Sb0_5 Sb0_7 3.083889 1_545
Sb0_5 Sb0_7 3.083889 1_555
Sb1_0 Sb1_2 3.083889 1_545
Sb1_0 Sb1_4 3.083889 1_455
Sb1_0 Sb1_4 3.083889 1_555
Sb1_0 Sb1_2 3.083889 1_555
Sb1_1 Sb1_3 3.083889 1_545
Sb1_1 Sb1_3 3.083889 1_555
Sb1_1 Sb1_5 3.083889 1_455
Sb1_1 Sb1_5 3.083889 1_555
Sb1_2 Sb1_6 3.083889 1_555
Sb1_2 Sb1_6 3.083889 1_455
Sb1_3 Sb1_7 3.083889 1_455
Sb1_3 Sb1_7 3.083889 1_555
Sb1_4 Sb1_6 3.083889 1_555
Sb1_4 Sb1_6 3.083889 1_545
Sb1_5 Sb1_7 3.083889 1_545
Sb1_5 Sb1_7 3.083889 1_555
Sb2_0 Sb2_2 3.083889 1_555
Sb2_0 Sb2_2 3.083889 1_545
Sb2_0 Sb2_4 3.083889 1_455
Sb2_0 Sb2_4 3.083889 1_555
Sb2_1 Sb2_5 3.083889 1_555
Sb2_1 Sb2_5 3.083889 1_455
Sb2_1 Sb2_3 3.083889 1_545
Sb2_1 Sb2_3 3.083889 1_555
Sb2_2 Sb2_6 3.083889 1_455
Sb2_2 Sb2_6 3.083889 1_555
Sb2_3 Sb2_7 3.083889 1_455
Sb2_3 Sb2_7 3.083889 1_555
Sb2_4 Sb2_6 3.083889 1_545
Sb2_4 Sb2_6 3.083889 1_555
Sb2_5 Sb2_7 3.083889 1_545
Sb2_5 Sb2_7 3.083889 1_555
Pd0_0 Sb2_0 2.677302 1_555
Pd0_1 Sb2_1 2.677302 1_555
Pd0_2 Sb2_2 2.677302 1_555
Pd0_3 Sb2_3 2.677302 1_555
Pd0_4 Sb2_4 2.677302 1_555
Pd0_5 Sb2_5 2.677302 1_555
Pd0_6 Sb2_6 2.677302 1_555
Pd0_7 Sb2_7 2.677302 1_555
Pd1_0 Sb2_1 2.677302 1_555
Pd1_1 Sb2_0 2.677302 1_556
Pd1_2 Sb2_3 2.677302 1_555
Pd1_3 Sb2_2 2.677302 1_556
Pd1_4 Sb2_5 2.677302 1_555
Pd1_5 Sb2_4 2.677302 1_556
Pd1_6 Sb2_7 2.677302 1_555
Pd1_7 Sb2_6 2.677302 1_556
Pd2_0 Sb1_0 2.583039 1_555
Pd2_0 Sb0_0 2.583039 1_555
Pd2_0 Pd2_4 3.083889 1_455
Pd2_0 Pd2_2 3.083889 1_545
Pd2_0 Pd2_4 3.083889 1_555
Pd2_0 Pd2_2 3.083889 1_555
Pd2_1 Sb1_1 2.583039 1_555
Pd2_1 Sb0_1 2.583039 1_555
Pd2_1 Pd2_3 3.083889 1_555
Pd2_1 Pd2_5 3.083889 1_455
Pd2_1 Pd2_5 3.083889 1_555
Pd2_1 Pd2_3 3.083889 1_545
Pd2_2 Sb1_2 2.583039 1_555
Pd2_2 Sb0_2 2.583039 1_555
Pd2_2 Pd2_6 3.083889 1_555
Pd2_2 Pd2_6 3.083889 1_455
Pd2_3 Sb1_3 2.583039 1_555
Pd2_3 Sb0_3 2.583039 1_555
Pd2_3 Pd2_7 3.083889 1_555
Pd2_3 Pd2_7 3.083889 1_455
Pd2_4 Sb1_4 2.583039 1_555
Pd2_4 Sb0_4 2.583039 1_555
Pd2_4 Pd2_6 3.083889 1_555
Pd2_4 Pd2_6 3.083889 1_545
Pd2_5 Sb1_5 2.583039 1_555
Pd2_5 Sb0_5 2.583039 1_555
Pd2_5 Pd2_7 3.083889 1_545
Pd2_5 Pd2_7 3.083889 1_555
Pd2_6 Sb1_6 2.583039 1_555
Pd2_6 Sb0_6 2.583039 1_555
Pd2_7 Sb1_7 2.583039 1_555
Pd2_7 Sb0_7 2.583039 1_555
