# generated using pymatgen
data_BaSrPrVO6
_symmetry_space_group_name_H-M   'P 1'
_cell_length_a   8.44077751
_cell_length_b   8.44570604
_cell_length_c   8.46212407
_cell_angle_alpha   90.00000000
_cell_angle_beta   90.00000000
_cell_angle_gamma   90.00000000
_symmetry_Int_Tables_number   1
_chemical_formula_structural   BaSrPrVO6
_chemical_formula_sum   'Ba4 Sr4 Pr4 V4 O24'
_cell_volume   603.25065596
_cell_formula_units_Z   4
loop_
 _symmetry_equiv_pos_site_id
 _symmetry_equiv_pos_as_xyz
  1  'x, y, z'
loop_
 _atom_site_type_symbol
 _atom_site_label
 _atom_site_symmetry_multiplicity
 _atom_site_fract_x
 _atom_site_fract_y
 _atom_site_fract_z
 _atom_site_occupancy
  Ba  Ba0  1  -0.00000000  -0.00000000  -0.00000000  1
  Ba  Ba1  1  0.50000000  0.50000000  0.50000000  1
  Ba  Ba2  1  0.50000000  -0.00000000  -0.00000000  1
  Ba  Ba3  1  0.00000000  -0.00000000  0.50000000  1
  Sr  Sr0  1  0.00000000  0.50000000  0.50000000  1
  Sr  Sr1  1  0.50000000  -0.00000000  0.50000000  1
  Sr  Sr2  1  0.50000000  0.50000000  -0.00000000  1
  Sr  Sr3  1  0.00000000  0.50000000  -0.00000000  1
  Pr  Pr0  1  0.74840677  0.74722796  0.75038111  1
  Pr  Pr1  1  0.25159323  0.25277204  0.75038111  1
  Pr  Pr2  1  0.25159323  0.74722796  0.24961889  1
  Pr  Pr3  1  0.74840677  0.25277204  0.24961889  1
  V  V0  1  0.24918996  0.25360333  0.25171879  1
  V  V1  1  0.75081004  0.74639667  0.25171879  1
  V  V2  1  0.75081004  0.25360333  0.74828121  1
  V  V3  1  0.24918996  0.74639667  0.74828121  1
  O  O0  1  0.02504880  0.23003378  0.27321990  1
  O  O1  1  0.97495120  0.76996622  0.27321990  1
  O  O2  1  0.97495120  0.23003378  0.72678010  1
  O  O3  1  0.02504880  0.76996622  0.72678010  1
  O  O4  1  0.27000309  0.02702585  0.22738088  1
  O  O5  1  0.27000309  0.97297415  0.77261912  1
  O  O6  1  0.72999691  0.97297415  0.22738088  1
  O  O7  1  0.72999691  0.02702585  0.77261912  1
  O  O8  1  0.22096060  0.28156549  0.02519648  1
  O  O9  1  0.77903940  0.28156549  0.97480352  1
  O  O10  1  0.22096060  0.71843451  0.97480352  1
  O  O11  1  0.77903940  0.71843451  0.02519648  1
  O  O12  1  0.47247762  0.28598600  0.21723603  1
  O  O13  1  0.52752238  0.71401400  0.21723603  1
  O  O14  1  0.52752238  0.28598600  0.78276397  1
  O  O15  1  0.47247762  0.71401400  0.78276397  1
  O  O16  1  0.21915888  0.47483662  0.28795372  1
  O  O17  1  0.21915888  0.52516338  0.71204628  1
  O  O18  1  0.78084112  0.52516338  0.28795372  1
  O  O19  1  0.78084112  0.47483662  0.71204628  1
  O  O20  1  0.28624584  0.22220486  0.47388142  1
  O  O21  1  0.71375416  0.22220486  0.52611858  1
  O  O22  1  0.28624584  0.77779514  0.52611858  1
  O  O23  1  0.71375416  0.77779514  0.47388142  1
loop_
_geom_bond_atom_site_label_1
_geom_bond_atom_site_label_2
_geom_bond_distance
_geom_bond_site_symmetry_2
Ba0 O5 2.991381 1_544
Ba0 O7 2.991381 1_454
Ba0 O6 2.991381 1_445
Ba0 O4 2.991381 1_555
Ba0 O2 3.027310 1_454
Ba0 O3 3.027310 1_544
Ba0 O0 3.027310 1_555
Ba0 O1 3.027310 1_445
Ba0 O9 3.029679 1_454
Ba0 O11 3.029679 1_445
Ba0 O10 3.029679 1_544
Ba0 O8 3.029679 1_555
Ba1 O23 2.967948 1_555
Ba1 O21 2.967948 1_555
Ba1 O22 2.967948 1_555
Ba1 O20 2.967948 1_555
Ba1 O16 2.980646 1_555
Ba1 O18 2.980646 1_555
Ba1 O19 2.980646 1_555
Ba1 O17 2.980646 1_555
Ba1 O13 3.007729 1_555
Ba1 O14 3.007729 1_555
Ba1 O15 3.007729 1_555
Ba1 O12 3.007729 1_555
Ba2 O7 2.742847 1_554
Ba2 O5 2.742847 1_544
Ba2 O4 2.742847 1_555
Ba2 O6 2.742847 1_545
Ba2 O13 3.044202 1_545
Ba2 O15 3.044202 1_544
Ba2 O12 3.044202 1_555
Ba2 O14 3.044202 1_554
Ba3 O1 2.738957 1_445
Ba3 O0 2.738957 1_555
Ba3 O2 2.738957 1_455
Ba3 O3 2.738957 1_545
Ba3 O22 3.067325 1_545
Ba3 O23 3.067325 1_445
Ba3 O20 3.067325 1_555
Ba3 O21 3.067325 1_455
Ba3 O5 3.250856 1_545
Ba3 O7 3.250856 1_455
Ba3 O6 3.250856 1_445
Ba3 O4 3.250856 1_555
O0 V0 1.911050 1_555
O0 Pr3 2.351454 1_455
O0 Sr0 2.987654 1_555
O1 V1 1.911050 1_555
O1 Pr2 2.351454 1_655
O1 Sr0 2.987654 1_655
O2 V2 1.911050 1_555
O2 Pr1 2.351454 1_655
O2 Sr0 2.987654 1_655
O3 V3 1.911050 1_555
O3 Pr0 2.351454 1_455
O3 Sr0 2.987654 1_555
O4 V0 1.932659 1_555
O4 Pr2 2.375659 1_545
O4 Sr1 3.023724 1_555
O5 V3 1.932659 1_555
O5 Pr1 2.375659 1_565
O5 Sr1 3.023724 1_565
O6 V1 1.932659 1_555
O6 Pr3 2.375659 1_565
O6 Sr1 3.023724 1_565
O7 V2 1.932659 1_555
O7 Pr0 2.375659 1_545
O7 Sr1 3.023724 1_555
O8 V0 1.945996 1_555
O8 Pr1 2.352455 1_554
O8 Sr3 2.631994 1_555
O8 Sr2 2.999392 1_555
O9 V2 1.945996 1_555
O9 Pr3 2.352455 1_556
O9 Sr3 2.631994 1_656
O9 Sr2 2.999392 1_556
O10 V3 1.945996 1_555
O10 Pr2 2.352455 1_556
O10 Sr3 2.631994 1_556
O10 Sr2 2.999392 1_556
O11 V1 1.945996 1_555
O11 Pr0 2.352455 1_554
O11 Sr3 2.631994 1_655
O11 Sr2 2.999392 1_555
O12 V0 1.926686 1_555
O12 Pr3 2.361839 1_555
O12 Sr2 2.588492 1_555
O13 V1 1.926686 1_555
O13 Pr2 2.361839 1_555
O13 Sr2 2.588492 1_555
O14 V2 1.926686 1_555
O14 Pr1 2.361839 1_555
O14 Sr2 2.588492 1_556
O15 V3 1.926686 1_555
O15 Pr0 2.361839 1_555
O15 Sr2 2.588492 1_556
O16 V0 1.910356 1_555
O16 Pr2 2.339370 1_555
O16 Sr0 2.585909 1_555
O16 Sr3 3.066708 1_555
O17 V3 1.910356 1_555
O17 Pr1 2.339370 1_555
O17 Sr0 2.585909 1_555
O17 Sr3 3.066708 1_556
O18 V1 1.910356 1_555
O18 Pr3 2.339370 1_555
O18 Sr0 2.585909 1_655
O18 Sr3 3.066708 1_655
O19 V2 1.910356 1_555
O19 Pr0 2.339370 1_555
O19 Sr0 2.585909 1_655
O19 Sr3 3.066708 1_656
O20 V0 1.924170 1_555
O20 Pr1 2.372076 1_555
O20 Sr1 2.612678 1_555
O21 V2 1.924170 1_555
O21 Pr3 2.372076 1_555
O21 Sr1 2.612678 1_555
O22 V3 1.924170 1_555
O22 Pr2 2.372076 1_555
O22 Sr1 2.612678 1_565
O23 V1 1.924170 1_555
O23 Pr0 2.372076 1_555
O23 Sr1 2.612678 1_565
