# generated using pymatgen
data_Dy2Al17
_symmetry_space_group_name_H-M   'P 1'
_cell_length_a   9.47267508
_cell_length_b   9.47267508
_cell_length_c   8.87644700
_cell_angle_alpha   90.00000000
_cell_angle_beta   90.00000000
_cell_angle_gamma   119.99999360
_symmetry_Int_Tables_number   1
_chemical_formula_structural   Dy2Al17
_chemical_formula_sum   'Dy4 Al34'
_cell_volume   689.78716041
_cell_formula_units_Z   2
loop_
 _symmetry_equiv_pos_site_id
 _symmetry_equiv_pos_as_xyz
  1  'x, y, z'
loop_
 _atom_site_type_symbol
 _atom_site_label
 _atom_site_symmetry_multiplicity
 _atom_site_fract_x
 _atom_site_fract_y
 _atom_site_fract_z
 _atom_site_occupancy
  Dy  Dy0  1  0.00000000  0.00000000  0.25000000  1
  Dy  Dy1  1  0.00000000  0.00000000  0.75000000  1
  Dy  Dy2  1  0.33333300  0.66666700  0.75000000  1
  Dy  Dy3  1  0.66666700  0.33333300  0.25000000  1
  Al  Al0  1  0.33333300  0.66666700  0.39925000  1
  Al  Al1  1  0.66666700  0.33333300  0.60075000  1
  Al  Al2  1  0.66666700  0.33333300  0.89925000  1
  Al  Al3  1  0.33333300  0.66666700  0.10075000  1
  Al  Al4  1  0.50000000  0.50000000  0.50000000  1
  Al  Al5  1  0.50000000  0.00000000  0.50000000  1
  Al  Al6  1  0.00000000  0.50000000  0.50000000  1
  Al  Al7  1  0.50000000  0.50000000  0.00000000  1
  Al  Al8  1  0.50000000  0.00000000  0.00000000  1
  Al  Al9  1  0.00000000  0.50000000  0.00000000  1
  Al  Al10  1  0.32697400  0.36341800  0.25000000  1
  Al  Al11  1  0.63658200  0.96355600  0.25000000  1
  Al  Al12  1  0.03644400  0.67302600  0.25000000  1
  Al  Al13  1  0.63658200  0.67302600  0.25000000  1
  Al  Al14  1  0.03644400  0.36341800  0.25000000  1
  Al  Al15  1  0.32697400  0.96355600  0.25000000  1
  Al  Al16  1  0.67302600  0.63658200  0.75000000  1
  Al  Al17  1  0.36341800  0.03644400  0.75000000  1
  Al  Al18  1  0.96355600  0.32697400  0.75000000  1
  Al  Al19  1  0.36341800  0.32697400  0.75000000  1
  Al  Al20  1  0.96355600  0.63658200  0.75000000  1
  Al  Al21  1  0.67302600  0.03644400  0.75000000  1
  Al  Al22  1  0.16298900  0.83701100  0.52583200  1
  Al  Al23  1  0.16298900  0.32597900  0.52583200  1
  Al  Al24  1  0.67402100  0.83701100  0.52583200  1
  Al  Al25  1  0.83701100  0.16298900  0.47416800  1
  Al  Al26  1  0.83701100  0.67402100  0.47416800  1
  Al  Al27  1  0.32597900  0.16298900  0.47416800  1
  Al  Al28  1  0.83701100  0.16298900  0.02583200  1
  Al  Al29  1  0.83701100  0.67402100  0.02583200  1
  Al  Al30  1  0.32597900  0.16298900  0.02583200  1
  Al  Al31  1  0.16298900  0.83701100  0.97416800  1
  Al  Al32  1  0.16298900  0.32597900  0.97416800  1
  Al  Al33  1  0.67402100  0.83701100  0.97416800  1
loop_
_geom_bond_atom_site_label_1
_geom_bond_atom_site_label_2
_geom_bond_distance
_geom_bond_site_symmetry_2
Al0 Al3 2.649619 1_555
Al0 Al5 2.877046 1_565
Al0 Al6 2.877046 1_555
Al0 Al4 2.877053 1_555
Al0 Al22 3.012261 1_555
Al0 Al24 3.012261 1_555
Al0 Al23 3.012261 1_555
Al0 Dy2 3.113414 1_555
Al0 Al15 3.136459 1_555
Al0 Al12 3.136459 1_555
Al0 Al11 3.136463 1_555
Al0 Al14 3.136463 1_555
Al0 Al10 3.136467 1_555
Al0 Al13 3.136467 1_555
Al1 Al2 2.649619 1_555
Al1 Al6 2.877046 1_655
Al1 Al5 2.877046 1_555
Al1 Al4 2.877053 1_555
Al1 Al25 3.012261 1_555
Al1 Al27 3.012261 1_555
Al1 Al26 3.012261 1_555
Al1 Dy3 3.113414 1_555
Al1 Al18 3.136459 1_555
Al1 Al21 3.136459 1_555
Al1 Al20 3.136463 1_555
Al1 Al17 3.136463 1_555
Al1 Al16 3.136467 1_555
Al1 Al19 3.136467 1_555
Al2 Al9 2.877046 1_656
Al2 Al8 2.877046 1_556
Al2 Al7 2.877053 1_556
Al2 Al28 3.012261 1_556
Al2 Al29 3.012261 1_556
Al2 Al30 3.012261 1_556
Al2 Dy3 3.113414 1_556
Al2 Al21 3.136459 1_555
Al2 Al20 3.136463 1_555
Al3 Al8 2.877046 1_565
Al3 Al9 2.877046 1_555
Al3 Al7 2.877053 1_555
Al3 Al31 3.012261 1_554
Al3 Al33 3.012261 1_554
Al3 Al32 3.012261 1_554
Al3 Dy2 3.113414 1_554
Al4 Dy2 3.521664 1_555
Al4 Dy3 3.521664 1_555
Al5 Dy3 3.521658 1_555
Al5 Dy2 3.521658 1_545
Al6 Dy3 3.521658 1_455
Al6 Dy2 3.521658 1_555
Al7 Dy3 3.521664 1_555
Al7 Dy2 3.521664 1_554
Al8 Dy3 3.521658 1_555
Al8 Dy2 3.521658 1_544
Al9 Dy3 3.521658 1_455
Al9 Dy2 3.521658 1_554
Al10 Al7 2.676601 1_555
Al10 Al4 2.676601 1_555
Al10 Al27 2.747041 1_555
Al10 Al30 2.747041 1_555
Al10 Al14 2.752096 1_555
Al10 Al23 2.825342 1_555
Al10 Al32 2.825342 1_554
Al10 Al13 2.932816 1_555
Al10 Al3 3.136467 1_555
Al10 Dy0 3.283569 1_555
Al10 Dy3 3.369345 1_555
Al11 Al5 2.676601 1_565
Al11 Al8 2.676601 1_565
Al11 Al25 2.747038 1_565
Al11 Al28 2.747038 1_565
Al11 Al13 2.752096 1_555
Al11 Al24 2.825337 1_555
Al11 Al33 2.825337 1_554
Al11 Al15 2.932816 1_555
Al11 Al3 3.136463 1_555
Al11 Dy0 3.283569 1_665
Al11 Dy3 3.369336 1_565
Al12 Al9 2.676601 1_555
Al12 Al6 2.676601 1_555
Al12 Al26 2.747035 1_455
Al12 Al29 2.747035 1_455
Al12 Al15 2.752097 1_555
Al12 Al31 2.825340 1_554
Al12 Al22 2.825340 1_555
Al12 Al14 2.932816 1_555
Al12 Al3 3.136459 1_555
Al12 Dy0 3.283569 1_565
Al12 Dy3 3.369341 1_455
Al13 Al7 2.676601 1_555
Al13 Al4 2.676601 1_555
Al13 Al29 2.747041 1_555
Al13 Al26 2.747041 1_555
Al13 Al24 2.825342 1_555
Al13 Al33 2.825342 1_554
Al13 Al3 3.136467 1_555
Al13 Dy0 3.283569 1_665
Al13 Dy3 3.369345 1_555
Al14 Al9 2.676601 1_555
Al14 Al6 2.676601 1_555
Al14 Al25 2.747038 1_455
Al14 Al28 2.747038 1_455
Al14 Al23 2.825337 1_555
Al14 Al32 2.825337 1_554
Al14 Al3 3.136463 1_555
Al14 Dy0 3.283569 1_555
Al14 Dy3 3.369336 1_455
Al15 Al5 2.676601 1_565
Al15 Al8 2.676601 1_565
Al15 Al30 2.747035 1_565
Al15 Al27 2.747035 1_565
Al15 Al31 2.825340 1_554
Al15 Al22 2.825340 1_555
Al15 Al3 3.136459 1_555
Al15 Dy0 3.283569 1_565
Al15 Dy3 3.369341 1_565
Al16 Al7 2.676601 1_556
Al16 Al4 2.676601 1_555
Al16 Al24 2.747041 1_555
Al16 Al33 2.747041 1_555
Al16 Al20 2.752096 1_555
Al16 Al29 2.825342 1_556
Al16 Al26 2.825342 1_555
Al16 Al19 2.932816 1_555
Al16 Al2 3.136467 1_555
Al16 Dy1 3.283569 1_665
Al16 Dy2 3.369345 1_555
Al17 Al5 2.676601 1_555
Al17 Al8 2.676601 1_556
Al17 Al31 2.747038 1_545
Al17 Al22 2.747038 1_545
Al17 Al19 2.752096 1_555
Al17 Al27 2.825337 1_555
Al17 Al30 2.825337 1_556
Al17 Al21 2.932816 1_555
Al17 Al2 3.136463 1_555
Al17 Dy1 3.283569 1_555
Al17 Dy2 3.369336 1_545
Al18 Al6 2.676601 1_655
Al18 Al9 2.676601 1_656
Al18 Al23 2.747035 1_655
Al18 Al32 2.747035 1_655
Al18 Al21 2.752097 1_555
Al18 Al25 2.825340 1_555
Al18 Al28 2.825340 1_556
Al18 Al20 2.932816 1_555
Al18 Al2 3.136459 1_555
Al18 Dy1 3.283569 1_655
Al18 Dy2 3.369341 1_655
Al19 Al7 2.676601 1_556
Al19 Al4 2.676601 1_555
Al19 Al32 2.747041 1_555
Al19 Al23 2.747041 1_555
Al19 Al27 2.825342 1_555
Al19 Al30 2.825342 1_556
Al19 Al2 3.136467 1_555
Al19 Dy1 3.283569 1_555
Al19 Dy2 3.369345 1_555
Al20 Al9 2.676601 1_656
Al20 Al6 2.676601 1_655
Al20 Al31 2.747038 1_655
Al20 Al22 2.747038 1_655
Al20 Al26 2.825337 1_555
Al20 Al29 2.825337 1_556
Al20 Dy1 3.283569 1_665
Al20 Dy2 3.369336 1_655
Al21 Al5 2.676601 1_555
Al21 Al8 2.676601 1_556
Al21 Al24 2.747035 1_545
Al21 Al33 2.747035 1_545
Al21 Al25 2.825340 1_555
Al21 Al28 2.825340 1_556
Al21 Dy1 3.283569 1_655
Al21 Dy2 3.369341 1_545
Al22 Al26 2.713223 1_455
Al22 Al27 2.713223 1_565
Al22 Al6 2.774680 1_555
Al22 Al5 2.774680 1_565
Al22 Dy1 3.333262 1_565
Al22 Dy2 3.430832 1_555
Al22 Dy0 3.625737 1_565
Al23 Al25 2.713223 1_455
Al23 Al27 2.713239 1_555
Al23 Al6 2.774672 1_555
Al23 Al4 2.774680 1_555
Al23 Dy1 3.333269 1_555
Al23 Dy2 3.430832 1_555
Al23 Dy0 3.625744 1_555
Al24 Al25 2.713223 1_565
Al24 Al26 2.713239 1_555
Al24 Al5 2.774672 1_565
Al24 Al4 2.774680 1_555
Al24 Dy1 3.333269 1_665
Al24 Dy2 3.430832 1_555
Al24 Dy0 3.625744 1_665
Al25 Al5 2.774680 1_555
Al25 Al6 2.774680 1_655
Al25 Dy0 3.333262 1_655
Al25 Dy3 3.430832 1_555
Al25 Dy1 3.625737 1_655
Al26 Al6 2.774672 1_655
Al26 Al4 2.774680 1_555
Al26 Dy0 3.333269 1_665
Al26 Dy3 3.430832 1_555
Al26 Dy1 3.625744 1_665
Al27 Al5 2.774672 1_555
Al27 Al4 2.774680 1_555
Al27 Dy0 3.333269 1_555
Al27 Dy3 3.430832 1_555
Al27 Dy1 3.625744 1_555
Al28 Al33 2.713223 1_544
Al28 Al32 2.713223 1_654
Al28 Al8 2.774680 1_555
Al28 Al9 2.774680 1_655
Al28 Dy0 3.333262 1_655
Al28 Dy3 3.430832 1_555
Al28 Dy1 3.625737 1_654
Al29 Al31 2.713223 1_654
Al29 Al33 2.713239 1_554
Al29 Al9 2.774672 1_655
Al29 Al7 2.774680 1_555
Al29 Dy0 3.333269 1_665
Al29 Dy3 3.430832 1_555
Al29 Dy1 3.625744 1_664
Al30 Al31 2.713223 1_544
Al30 Al32 2.713239 1_554
Al30 Al8 2.774672 1_555
Al30 Al7 2.774680 1_555
Al30 Dy0 3.333269 1_555
Al30 Dy3 3.430832 1_555
Al30 Dy1 3.625744 1_554
Al31 Al9 2.774680 1_556
Al31 Al8 2.774680 1_566
Al31 Dy1 3.333262 1_565
Al31 Dy2 3.430832 1_555
Al31 Dy0 3.625737 1_566
Al32 Al9 2.774672 1_556
Al32 Al7 2.774680 1_556
Al32 Dy1 3.333269 1_555
Al32 Dy2 3.430832 1_555
Al32 Dy0 3.625744 1_556
Al33 Al8 2.774672 1_566
Al33 Al7 2.774680 1_556
Al33 Dy1 3.333269 1_665
Al33 Dy2 3.430832 1_555
Al33 Dy0 3.625744 1_666
