# generated using pymatgen
data_Li9Mn2Co5O16
_symmetry_space_group_name_H-M   'P 1'
_cell_length_a   2.97866800
_cell_length_b   5.08635098
_cell_length_c   19.63100474
_cell_angle_alpha   91.74869229
_cell_angle_beta   92.74092176
_cell_angle_gamma   104.41629361
_symmetry_Int_Tables_number   1
_chemical_formula_structural   Li9Mn2Co5O16
_chemical_formula_sum   'Li9 Mn2 Co5 O16'
_cell_volume   287.44917290
_cell_formula_units_Z   1
loop_
 _symmetry_equiv_pos_site_id
 _symmetry_equiv_pos_as_xyz
  1  'x, y, z'
loop_
 _atom_site_type_symbol
 _atom_site_label
 _atom_site_symmetry_multiplicity
 _atom_site_fract_x
 _atom_site_fract_y
 _atom_site_fract_z
 _atom_site_occupancy
  Li  Li0  1  0.31254000  0.55772700  0.06461400  1
  Li  Li1  1  0.93773900  0.69044400  0.18801600  1
  Li  Li2  1  0.56327600  0.81040600  0.31371800  1
  Li  Li3  1  0.18754100  0.94031600  0.43799900  1
  Li  Li4  1  0.81696000  0.05975500  0.56354000  1
  Li  Li5  1  0.43558600  0.17728900  0.68793900  1
  Li  Li6  1  0.03324600  0.30248100  0.80551100  1
  Li  Li7  1  0.70074700  0.45075700  0.93815800  1
  Li  Li8  1  0.76503200  0.76424800  0.74807500  1
  Mn  Mn0  1  0.99115900  0.99540900  0.00094400  1
  Mn  Mn1  1  0.36810200  0.87459000  0.86995300  1
  Co  Co0  1  0.63186200  0.12531000  0.12629800  1
  Co  Co1  1  0.24637800  0.25190200  0.25153800  1
  Co  Co2  1  0.87587100  0.37605300  0.37569600  1
  Co  Co3  1  0.50484500  0.49756400  0.50105300  1
  Co  Co4  1  0.13190200  0.62888500  0.62926700  1
  O  O0  1  0.67918700  0.26583200  0.03501300  1
  O  O1  1  0.31391700  0.38557800  0.15915000  1
  O  O2  1  0.89127800  0.51424900  0.28535800  1
  O  O3  1  0.55509200  0.63642100  0.40903500  1
  O  O4  1  0.14388700  0.75827200  0.53645300  1
  O  O5  1  0.79534600  0.88099600  0.65243100  1
  O  O6  1  0.41407100  0.03345100  0.78764100  1
  O  O7  1  0.99000800  0.12021900  0.90592600  1
  O  O8  1  0.94798300  0.86188400  0.09323700  1
  O  O9  1  0.60906200  0.98799300  0.21591500  1
  O  O10  1  0.19379200  0.11315500  0.34216200  1
  O  O11  1  0.85756600  0.23519300  0.46492500  1
  O  O12  1  0.44625700  0.36381800  0.59052000  1
  O  O13  1  0.09080600  0.47550100  0.70757800  1
  O  O14  1  0.75724500  0.63339900  0.84656900  1
  O  O15  1  0.31171600  0.73090600  0.96576900  1
loop_
_geom_bond_atom_site_label_1
_geom_bond_atom_site_label_2
_geom_bond_distance
_geom_bond_site_symmetry_2
Li0 O1 2.076313 1_555
Li0 O0 2.132803 1_455
Li0 O0 2.133093 1_555
Li0 O15 2.155480 1_554
Li0 O8 2.163068 1_555
Li0 O8 2.174868 1_455
Li1 O9 2.070605 1_555
Li1 O8 2.077109 1_555
Li1 O2 2.131193 1_555
Li1 O1 2.142276 1_555
Li1 O1 2.203055 1_655
Li1 O9 2.219642 1_655
Li2 O2 2.065738 1_555
Li2 O3 2.092769 1_555
Li2 O9 2.142506 1_555
Li2 O10 2.148832 1_665
Li2 O10 2.178180 1_565
Li2 O2 2.219589 1_455
Li3 O11 2.056782 1_465
Li3 O10 2.099743 1_565
Li3 O3 2.157646 1_455
Li3 O4 2.164048 1_555
Li3 O3 2.181669 1_555
Li3 O11 2.207334 1_565
Li4 O5 1.988560 1_545
Li4 O4 2.079862 1_645
Li4 O12 2.144199 1_655
Li4 O11 2.152379 1_555
Li4 O12 2.178976 1_555
Li4 O4 2.229607 1_545
Li5 O13 2.069269 1_555
Li5 O6 2.108610 1_555
Li5 O12 2.158721 1_555
Li5 O13 2.162573 1_655
Li5 O5 2.171841 1_545
Li5 O5 2.184412 1_445
Li6 O6 2.012267 1_455
Li6 O6 2.015923 1_555
Li6 O13 2.135326 1_555
Li6 O14 2.197308 1_455
Li6 O7 2.199587 1_455
Li6 O14 2.465151 1_555
Li7 O14 2.043798 1_555
Li7 O15 2.050236 1_655
Li7 O15 2.121831 1_555
Li7 O0 2.143540 1_556
Li7 O7 2.162820 1_555
Li7 O7 2.396566 1_455
Li8 O5 1.985869 1_555
Li8 O14 2.063296 1_555
Li8 O6 2.072805 1_565
Li8 O13 2.107790 1_655
Li8 O6 2.165430 1_665
Li8 O13 2.264872 1_555
Mn0 O8 1.953028 1_555
Mn0 O0 1.960223 1_565
Mn0 O15 1.960740 1_654
Mn0 O7 1.988743 1_564
Mn0 O15 2.199227 1_554
Mn0 O0 2.224508 1_665
Mn1 O6 1.824399 1_565
Mn1 O14 1.945219 1_555
Mn1 O14 1.949545 1_455
Mn1 O7 2.012655 1_465
Mn1 O15 2.037974 1_555
Mn1 O7 2.039561 1_565
Co0 O9 1.910568 1_545
Co0 O1 1.922469 1_555
Co0 O8 1.933064 1_545
Co0 O0 1.947874 1_555
Co0 O1 2.186155 1_655
Co0 O8 2.197157 1_445
Co1 O10 1.932819 1_555
Co1 O1 1.958114 1_555
Co1 O2 2.013963 1_455
Co1 O9 2.048174 1_545
Co1 O9 2.107498 1_445
Co1 O2 2.111640 1_555
Co2 O11 1.910724 1_555
Co2 O2 1.925885 1_555
Co2 O3 1.931871 1_555
Co2 O10 1.937691 1_655
Co2 O3 2.182142 1_655
Co2 O10 2.194266 1_555
Co3 O12 1.902903 1_555
Co3 O3 1.958422 1_555
Co3 O11 2.024700 1_555
Co3 O4 2.030391 1_555
Co3 O4 2.103579 1_655
Co3 O11 2.128735 1_455
Co4 O13 1.740876 1_555
Co4 O5 1.871959 1_455
Co4 O4 1.954964 1_555
Co4 O12 1.976659 1_555
Co4 O5 2.091192 1_555
Co4 O12 2.232734 1_455
