# generated using pymatgen
data_CoPd3
_symmetry_space_group_name_H-M   'P 1'
_cell_length_a   5.49291394
_cell_length_b   5.49291394
_cell_length_c   4.46521600
_cell_angle_alpha   90.00000000
_cell_angle_beta   90.00000000
_cell_angle_gamma   119.99999932
_symmetry_Int_Tables_number   1
_chemical_formula_structural   CoPd3
_chemical_formula_sum   'Co2 Pd6'
_cell_volume   116.67523844
_cell_formula_units_Z   2
loop_
 _symmetry_equiv_pos_site_id
 _symmetry_equiv_pos_as_xyz
  1  'x, y, z'
loop_
 _atom_site_type_symbol
 _atom_site_label
 _atom_site_symmetry_multiplicity
 _atom_site_fract_x
 _atom_site_fract_y
 _atom_site_fract_z
 _atom_site_occupancy
  Co  Co0  1  0.33333300  0.66666700  0.75000000  1
  Co  Co1  1  0.66666700  0.33333300  0.25000000  1
  Pd  Pd0  1  0.16977700  0.33955300  0.25000000  1
  Pd  Pd1  1  0.66044700  0.83022300  0.25000000  1
  Pd  Pd2  1  0.16977700  0.83022300  0.25000000  1
  Pd  Pd3  1  0.83022300  0.66044700  0.75000000  1
  Pd  Pd4  1  0.33955300  0.16977700  0.75000000  1
  Pd  Pd5  1  0.83022300  0.16977700  0.75000000  1
loop_
_geom_bond_atom_site_label_1
_geom_bond_atom_site_label_2
_geom_bond_distance
_geom_bond_site_symmetry_2
Co0 Pd2 2.721378 1_556
Co0 Pd2 2.721378 1_555
Co0 Pd0 2.721384 1_555
Co0 Pd1 2.721384 1_556
Co0 Pd1 2.721384 1_555
Co0 Pd0 2.721384 1_556
Co0 Pd4 2.746616 1_555
Co0 Pd3 2.746616 1_555
Co0 Pd3 2.746616 1_455
Co0 Pd4 2.746616 1_565
Co0 Pd5 2.746616 1_455
Co0 Pd5 2.746616 1_565
Co1 Pd5 2.721378 1_555
Co1 Pd5 2.721378 1_554
Co1 Pd4 2.721384 1_555
Co1 Pd4 2.721384 1_554
Co1 Pd3 2.721384 1_555
Co1 Pd3 2.721384 1_554
Co1 Pd0 2.746616 1_555
Co1 Pd1 2.746616 1_555
Co1 Pd1 2.746616 1_545
Co1 Pd0 2.746616 1_655
Co1 Pd2 2.746616 1_545
Co1 Pd2 2.746616 1_655
Pd0 Pd2 2.695208 1_555
Pd0 Pd1 2.695208 1_555
Pd0 Pd4 2.755643 1_555
Pd0 Pd4 2.755643 1_554
Pd0 Pd5 2.755649 1_454
Pd0 Pd5 2.755649 1_455
Pd0 Pd2 2.797706 1_545
Pd0 Pd1 2.797706 1_445
Pd1 Pd2 2.695208 1_555
Pd1 Pd3 2.755643 1_555
Pd1 Pd3 2.755643 1_554
Pd1 Pd5 2.755649 1_565
Pd1 Pd5 2.755649 1_564
Pd1 Pd2 2.797706 1_655
Pd2 Pd4 2.755649 1_565
Pd2 Pd4 2.755649 1_564
Pd2 Pd3 2.755649 1_455
Pd2 Pd3 2.755649 1_454
Pd3 Pd5 2.695208 1_555
Pd3 Pd4 2.695208 1_555
Pd3 Pd5 2.797706 1_565
Pd3 Pd4 2.797706 1_665
Pd4 Pd5 2.695208 1_555
Pd4 Pd5 2.797706 1_455
