# generated using pymatgen
data_YbSm3S4
_symmetry_space_group_name_H-M   'P 1'
_cell_length_a   13.23581269
_cell_length_b   13.23581269
_cell_length_c   13.23581245
_cell_angle_alpha   17.10397453
_cell_angle_beta   17.10397453
_cell_angle_gamma   17.10397125
_symmetry_Int_Tables_number   1
_chemical_formula_structural   YbSm3S4
_chemical_formula_sum   'Yb1 Sm3 S4'
_cell_volume   174.98660462
_cell_formula_units_Z   1
loop_
 _symmetry_equiv_pos_site_id
 _symmetry_equiv_pos_as_xyz
  1  'x, y, z'
loop_
 _atom_site_type_symbol
 _atom_site_label
 _atom_site_symmetry_multiplicity
 _atom_site_fract_x
 _atom_site_fract_y
 _atom_site_fract_z
 _atom_site_occupancy
  Yb  Yb0  1  0.00000000  0.00000000  0.00000000  1
  Sm  Sm0  1  0.25135557  0.25135557  0.25135557  1
  Sm  Sm1  1  0.50000000  0.50000000  0.50000000  1
  Sm  Sm2  1  0.74864443  0.74864443  0.74864443  1
  S  S0  1  0.37105251  0.37105251  0.37105251  1
  S  S1  1  0.12416149  0.12416149  0.12416149  1
  S  S2  1  0.62894749  0.62894749  0.62894749  1
  S  S3  1  0.87583851  0.87583851  0.87583851  1
loop_
_geom_bond_atom_site_label_1
_geom_bond_atom_site_label_2
_geom_bond_distance
_geom_bond_site_symmetry_2
S0 Yb0 2.709691 1_655
S0 Yb0 2.709691 1_565
S0 Yb0 2.709692 1_556
S0 Sm2 2.857051 1_545
S0 Sm2 2.857051 1_455
S0 Sm2 2.857052 1_554
S1 Sm2 2.808610 1_544
S1 Sm2 2.808610 1_454
S1 Sm2 2.808611 1_445
S1 Sm1 2.816017 1_455
S1 Sm1 2.816017 1_545
S1 Sm1 2.816017 1_554
S2 Yb0 2.709691 1_656
S2 Yb0 2.709691 1_566
S2 Yb0 2.709692 1_665
S2 Sm0 2.857051 1_565
S2 Sm0 2.857051 1_655
S2 Sm0 2.857052 1_556
S3 Sm0 2.808610 1_656
S3 Sm0 2.808610 1_566
S3 Sm0 2.808611 1_665
S3 Sm1 2.816017 1_565
S3 Sm1 2.816017 1_655
S3 Sm1 2.816017 1_556
