# generated using pymatgen
data_Li7Mn2(CoO4)3
_symmetry_space_group_name_H-M   'P 1'
_cell_length_a   3.01019700
_cell_length_b   7.64111335
_cell_length_c   10.14217715
_cell_angle_alpha   107.32644604
_cell_angle_beta   87.83637913
_cell_angle_gamma   98.18481194
_symmetry_Int_Tables_number   1
_chemical_formula_structural   Li7Mn2(CoO4)3
_chemical_formula_sum   'Li7 Mn2 Co3 O12'
_cell_volume   220.42618823
_cell_formula_units_Z   1
loop_
 _symmetry_equiv_pos_site_id
 _symmetry_equiv_pos_as_xyz
  1  'x, y, z'
loop_
 _atom_site_type_symbol
 _atom_site_label
 _atom_site_symmetry_multiplicity
 _atom_site_fract_x
 _atom_site_fract_y
 _atom_site_fract_z
 _atom_site_occupancy
  Li  Li0  1  0.83155800  0.66351900  0.74215100  1
  Li  Li1  1  0.17193600  0.33250800  0.25298600  1
  Li  Li2  1  0.49194600  0.99902800  0.74494300  1
  Li  Li3  1  0.16555500  0.33276700  0.74734400  1
  Li  Li4  1  0.50218400  0.00174600  0.25373100  1
  Li  Li5  1  0.83529400  0.67071000  0.25884000  1
  Li  Li6  1  0.33304500  0.66667400  0.50017700  1
  Mn  Mn0  1  0.00434100  0.00064900  0.00127600  1
  Mn  Mn1  1  0.32817200  0.66518300  0.99747900  1
  Co  Co0  1  0.66620700  0.33377000  0.00106000  1
  Co  Co1  1  0.99062400  0.99022500  0.49796400  1
  Co  Co2  1  0.67648800  0.34345800  0.50190400  1
  O  O0  1  0.38742700  0.83390800  0.88122300  1
  O  O1  1  0.73670800  0.47535900  0.38591200  1
  O  O2  1  0.07776300  0.17242700  0.88666800  1
  O  O3  1  0.72225100  0.50495500  0.88213800  1
  O  O4  1  0.05747700  0.16231200  0.39346200  1
  O  O5  1  0.40108000  0.84771900  0.38529400  1
  O  O6  1  0.26600500  0.48455800  0.61411300  1
  O  O7  1  0.61173600  0.16054200  0.11868300  1
  O  O8  1  0.93186100  0.85935800  0.61478500  1
  O  O9  1  0.60838700  0.17052000  0.60689700  1
  O  O10  1  0.94298400  0.83137600  0.11511900  1
  O  O11  1  0.25897200  0.49673100  0.11585100  1
loop_
_geom_bond_atom_site_label_1
_geom_bond_atom_site_label_2
_geom_bond_distance
_geom_bond_site_symmetry_2
Li0 O3 2.113724 1_555
Li0 O6 2.142382 1_655
Li0 O0 2.175169 1_555
Li0 O6 2.213796 1_555
Li0 O0 2.224528 1_655
Li0 O8 2.234369 1_555
Li1 O1 2.030448 1_455
Li1 O11 2.120417 1_555
Li1 O7 2.151221 1_555
Li1 O1 2.160420 1_555
Li1 O4 2.186048 1_555
Li1 O7 2.214066 1_455
Li2 O8 2.016547 1_555
Li2 O0 2.119939 1_555
Li2 O8 2.130885 1_455
Li2 O2 2.139333 1_565
Li2 O9 2.173745 1_565
Li2 O2 2.307173 1_665
Li3 O6 2.016275 1_555
Li3 O2 2.116221 1_555
Li3 O9 2.149010 1_555
Li3 O3 2.161381 1_455
Li3 O3 2.209543 1_555
Li3 O9 2.217081 1_455
Li4 O5 2.015193 1_545
Li4 O7 2.073386 1_555
Li4 O4 2.143463 1_555
Li4 O10 2.166249 1_545
Li4 O4 2.206131 1_655
Li4 O10 2.229178 1_445
Li5 O5 2.127497 1_555
Li5 O10 2.157282 1_555
Li5 O11 2.166039 1_655
Li5 O5 2.202427 1_655
Li5 O1 2.228910 1_555
Li5 O11 2.294574 1_555
Li6 O6 2.042728 1_555
Li6 O5 2.043208 1_555
Li6 O1 2.084926 1_555
Li6 O8 2.087621 1_455
Li6 O1 2.259034 1_455
Li6 O8 2.269632 1_555
Mn0 O7 1.935365 1_455
Mn0 O0 1.955488 1_544
Mn0 O10 1.961027 1_445
Mn0 O2 1.982315 1_554
Mn0 O7 2.217067 1_555
Mn0 O0 2.264385 1_444
Mn1 O3 1.931397 1_555
Mn1 O10 1.947547 1_456
Mn1 O0 1.976944 1_555
Mn1 O11 1.991657 1_556
Mn1 O3 2.205986 1_455
Mn1 O10 2.248639 1_556
Co0 O11 1.967758 1_555
Co0 O2 1.968531 1_654
Co0 O3 2.013876 1_554
Co0 O7 2.016446 1_555
Co0 O2 2.164481 1_554
Co0 O11 2.179578 1_655
Co1 O8 1.753434 1_555
Co1 O5 1.885055 1_655
Co1 O4 1.905665 1_665
Co1 O9 1.972619 1_565
Co1 O5 2.121939 1_555
Co1 O9 2.257370 1_665
Co2 O1 1.752343 1_555
Co2 O6 1.877945 1_555
Co2 O9 1.914855 1_555
Co2 O4 1.972510 1_655
Co2 O6 2.117434 1_655
Co2 O4 2.260796 1_555
