# generated using pymatgen
data_Zr9NiMo4O3
_symmetry_space_group_name_H-M   'P 1'
_cell_length_a   8.74895587
_cell_length_b   8.74895587
_cell_length_c   8.71386600
_cell_angle_alpha   90.00000000
_cell_angle_beta   90.00000000
_cell_angle_gamma   119.99999900
_symmetry_Int_Tables_number   1
_chemical_formula_structural   Zr9NiMo4O3
_chemical_formula_sum   'Zr18 Ni2 Mo8 O6'
_cell_volume   577.63561823
_cell_formula_units_Z   2
loop_
 _symmetry_equiv_pos_site_id
 _symmetry_equiv_pos_as_xyz
  1  'x, y, z'
loop_
 _atom_site_type_symbol
 _atom_site_label
 _atom_site_symmetry_multiplicity
 _atom_site_fract_x
 _atom_site_fract_y
 _atom_site_fract_z
 _atom_site_occupancy
  Zr  Zr0  1  0.20411400  0.40822700  0.05282000  1
  Zr  Zr1  1  0.79588600  0.59177300  0.94718000  1
  Zr  Zr2  1  0.59177300  0.79588600  0.05282000  1
  Zr  Zr3  1  0.79588600  0.59177300  0.55282000  1
  Zr  Zr4  1  0.40822700  0.20411400  0.94718000  1
  Zr  Zr5  1  0.20411400  0.40822700  0.44718000  1
  Zr  Zr6  1  0.20411400  0.79588600  0.05282000  1
  Zr  Zr7  1  0.40822700  0.20411400  0.55282000  1
  Zr  Zr8  1  0.79588600  0.20411400  0.94718000  1
  Zr  Zr9  1  0.59177300  0.79588600  0.44718000  1
  Zr  Zr10  1  0.79588600  0.20411400  0.55282000  1
  Zr  Zr11  1  0.20411400  0.79588600  0.44718000  1
  Zr  Zr12  1  0.54099000  0.08198000  0.25000000  1
  Zr  Zr13  1  0.45901000  0.91802000  0.75000000  1
  Zr  Zr14  1  0.91802000  0.45901000  0.25000000  1
  Zr  Zr15  1  0.08198000  0.54099000  0.75000000  1
  Zr  Zr16  1  0.54099000  0.45901000  0.25000000  1
  Zr  Zr17  1  0.45901000  0.54099000  0.75000000  1
  Ni  Ni0  1  0.33333300  0.66666700  0.25000000  1
  Ni  Ni1  1  0.66666700  0.33333300  0.75000000  1
  Mo  Mo0  1  0.89155000  0.78309900  0.25000000  1
  Mo  Mo1  1  0.10845000  0.21690100  0.75000000  1
  Mo  Mo2  1  0.21690100  0.10845000  0.25000000  1
  Mo  Mo3  1  0.78309900  0.89155000  0.75000000  1
  Mo  Mo4  1  0.89155000  0.10845000  0.25000000  1
  Mo  Mo5  1  0.10845000  0.89155000  0.75000000  1
  Mo  Mo6  1  0.00000000  0.00000000  0.00000000  1
  Mo  Mo7  1  0.00000000  0.00000000  0.50000000  1
  O  O0  1  0.50000000  0.00000000  0.00000000  1
  O  O1  1  0.00000000  0.50000000  0.00000000  1
  O  O2  1  0.50000000  0.00000000  0.50000000  1
  O  O3  1  0.50000000  0.50000000  0.00000000  1
  O  O4  1  0.00000000  0.50000000  0.50000000  1
  O  O5  1  0.50000000  0.50000000  0.50000000  1
loop_
_geom_bond_atom_site_label_1
_geom_bond_atom_site_label_2
_geom_bond_distance
_geom_bond_site_symmetry_2
Ni0 Zr11 2.605094 1_555
Ni0 Zr6 2.605094 1_555
Ni0 Zr2 2.605105 1_555
Ni0 Zr9 2.605105 1_555
Ni0 Zr5 2.605105 1_555
Ni0 Zr0 2.605105 1_555
Ni1 Zr10 2.605094 1_555
Ni1 Zr8 2.605094 1_555
Ni1 Zr3 2.605105 1_555
Ni1 Zr7 2.605105 1_555
Ni1 Zr1 2.605105 1_555
Ni1 Zr4 2.605105 1_555
Mo0 Mo6 2.728836 1_665
Mo0 Mo7 2.728836 1_665
Mo0 Mo4 2.846482 1_565
Mo0 Mo2 2.846482 1_665
Mo0 Zr14 2.958040 1_555
Mo0 Zr16 2.958045 1_555
Mo0 Zr1 3.010710 1_554
Mo0 Zr3 3.010710 1_555
Mo0 Zr2 3.183847 1_555
Mo0 Zr9 3.183847 1_555
Mo0 Zr11 3.183847 1_655
Mo0 Zr6 3.183847 1_655
Mo1 Mo7 2.728836 1_555
Mo1 Mo6 2.728836 1_556
Mo1 Mo5 2.846482 1_545
Mo1 Mo3 2.846482 1_445
Mo1 Zr15 2.958040 1_555
Mo1 Zr17 2.958045 1_555
Mo1 Zr5 3.010710 1_555
Mo1 Zr0 3.010710 1_556
Mo1 Zr7 3.183847 1_555
Mo1 Zr4 3.183847 1_555
Mo1 Zr10 3.183847 1_455
Mo1 Zr8 3.183847 1_455
Mo2 Mo6 2.728836 1_555
Mo2 Mo7 2.728836 1_555
Mo2 Mo4 2.846482 1_455
Mo2 Zr12 2.958040 1_555
Mo2 Zr16 2.958045 1_555
Mo2 Zr4 3.010710 1_554
Mo2 Zr7 3.010710 1_555
Mo2 Zr0 3.183847 1_555
Mo2 Zr5 3.183847 1_555
Mo2 Zr6 3.183847 1_545
Mo2 Zr11 3.183847 1_545
Mo3 Mo6 2.728836 1_666
Mo3 Mo7 2.728836 1_665
Mo3 Mo5 2.846482 1_655
Mo3 Zr13 2.958040 1_555
Mo3 Zr17 2.958045 1_555
Mo3 Zr9 3.010710 1_555
Mo3 Zr2 3.010710 1_556
Mo3 Zr3 3.183847 1_555
Mo3 Zr1 3.183847 1_555
Mo3 Zr10 3.183847 1_565
Mo3 Zr8 3.183847 1_565
Mo4 Mo6 2.728831 1_655
Mo4 Mo7 2.728831 1_655
Mo4 Zr12 2.958048 1_555
Mo4 Zr14 2.958048 1_555
Mo4 Zr8 3.010717 1_554
Mo4 Zr10 3.010717 1_555
Mo4 Zr0 3.183847 1_655
Mo4 Zr5 3.183847 1_655
Mo4 Zr9 3.183847 1_545
Mo4 Zr2 3.183847 1_545
Mo5 Mo6 2.728831 1_566
Mo5 Mo7 2.728831 1_565
Mo5 Zr15 2.958048 1_555
Mo5 Zr13 2.958048 1_555
Mo5 Zr11 3.010717 1_555
Mo5 Zr6 3.010717 1_556
Mo5 Zr7 3.183847 1_565
Mo5 Zr3 3.183847 1_455
Mo5 Zr4 3.183847 1_565
Mo5 Zr1 3.183847 1_455
Mo6 Zr4 3.127119 1_554
Mo6 Zr1 3.127119 1_444
Mo6 Zr2 3.127119 1_445
Mo6 Zr0 3.127119 1_555
Mo6 Zr8 3.127127 1_454
Mo6 Zr6 3.127127 1_545
Mo7 Zr9 3.127119 1_445
Mo7 Zr7 3.127119 1_555
Mo7 Zr5 3.127119 1_555
Mo7 Zr3 3.127119 1_445
Mo7 Zr11 3.127127 1_545
Mo7 Zr10 3.127127 1_455
O0 Zr13 2.265290 1_544
O0 Zr12 2.265290 1_555
O0 Zr8 2.340803 1_554
O0 Zr6 2.340803 1_545
O0 Zr2 2.340809 1_545
O0 Zr4 2.340809 1_554
O1 Zr14 2.265290 1_455
O1 Zr15 2.265290 1_554
O1 Zr8 2.340803 1_454
O1 Zr6 2.340803 1_555
O1 Zr0 2.340809 1_555
O1 Zr1 2.340809 1_454
O2 Zr13 2.265290 1_545
O2 Zr12 2.265290 1_555
O2 Zr11 2.340803 1_545
O2 Zr10 2.340803 1_555
O2 Zr9 2.340809 1_545
O2 Zr7 2.340809 1_555
O3 Zr16 2.265290 1_555
O3 Zr17 2.265290 1_554
O3 Zr4 2.340801 1_554
O3 Zr1 2.340801 1_554
O3 Zr0 2.340801 1_555
O3 Zr2 2.340801 1_555
O4 Zr14 2.265290 1_455
O4 Zr15 2.265290 1_555
O4 Zr11 2.340803 1_555
O4 Zr10 2.340803 1_455
O4 Zr5 2.340809 1_555
O4 Zr3 2.340809 1_455
O5 Zr16 2.265290 1_555
O5 Zr17 2.265290 1_555
O5 Zr5 2.340801 1_555
O5 Zr9 2.340801 1_555
O5 Zr3 2.340801 1_555
O5 Zr7 2.340801 1_555
