# generated using pymatgen
data_Te4Mo3WS4
_symmetry_space_group_name_H-M   'P 1'
_cell_length_a   3.35543169
_cell_length_b   3.35543169
_cell_length_c   39.75299500
_cell_angle_alpha   90.00000000
_cell_angle_beta   90.00000000
_cell_angle_gamma   119.99999398
_symmetry_Int_Tables_number   1
_chemical_formula_structural   Te4Mo3WS4
_chemical_formula_sum   'Te4 Mo3 W1 S4'
_cell_volume   387.61209211
_cell_formula_units_Z   1
loop_
 _symmetry_equiv_pos_site_id
 _symmetry_equiv_pos_as_xyz
  1  'x, y, z'
loop_
 _atom_site_type_symbol
 _atom_site_label
 _atom_site_symmetry_multiplicity
 _atom_site_fract_x
 _atom_site_fract_y
 _atom_site_fract_z
 _atom_site_occupancy
  Te  Te0  1  0.33333300  0.66666700  0.70677900  1
  Te  Te1  1  0.66666700  0.33333300  0.42063900  1
  Te  Te2  1  0.66666700  0.33333300  0.51577200  1
  Te  Te3  1  0.33333300  0.66666700  0.61166000  1
  Mo  Mo0  1  0.33333300  0.66666700  0.09398400  1
  Mo  Mo1  1  0.33333300  0.66666700  0.46814700  1
  Mo  Mo2  1  0.66666700  0.33333300  0.65924600  1
  W  W0  1  0.66666700  0.33333300  0.28150600  1
  S  S0  1  0.33333300  0.66666700  0.31973200  1
  S  S1  1  0.66666700  0.33333300  0.05593200  1
  S  S2  1  0.66666700  0.33333300  0.13204200  1
  S  S3  1  0.33333300  0.66666700  0.24330900  1
loop_
_geom_bond_atom_site_label_1
_geom_bond_atom_site_label_2
_geom_bond_distance
_geom_bond_site_symmetry_2
Mo0 S1 2.457879 1_455
Mo0 S1 2.457879 1_565
Mo0 S1 2.457884 1_555
Mo0 S2 2.458026 1_565
Mo0 S2 2.458026 1_455
Mo0 S2 2.458031 1_555
Mo1 Te1 2.705498 1_455
Mo1 Te1 2.705498 1_565
Mo1 Te1 2.705502 1_555
Mo1 Te2 2.708747 1_455
Mo1 Te2 2.708747 1_565
Mo1 Te2 2.708751 1_555
Mo2 Te0 2.706192 1_545
Mo2 Te0 2.706192 1_655
Mo2 Te0 2.706196 1_555
Mo2 Te3 2.707664 1_545
Mo2 Te3 2.707664 1_655
Mo2 Te3 2.707668 1_555
S0 W0 2.462142 1_455
S0 W0 2.462142 1_565
S0 W0 2.462147 1_555
S3 W0 2.461431 1_455
S3 W0 2.461431 1_565
S3 W0 2.461435 1_555
