# generated using pymatgen
data_Li8Fe(O2F)2
_symmetry_space_group_name_H-M   'P 1'
_cell_length_a   5.63739948
_cell_length_b   6.01831705
_cell_length_c   8.41335028
_cell_angle_alpha   79.95758508
_cell_angle_beta   89.85613932
_cell_angle_gamma   92.48565372
_symmetry_Int_Tables_number   1
_chemical_formula_structural   Li8Fe(O2F)2
_chemical_formula_sum   'Li16 Fe2 O8 F4'
_cell_volume   280.79276108
_cell_formula_units_Z   2
loop_
 _symmetry_equiv_pos_site_id
 _symmetry_equiv_pos_as_xyz
  1  'x, y, z'
loop_
 _atom_site_type_symbol
 _atom_site_label
 _atom_site_symmetry_multiplicity
 _atom_site_fract_x
 _atom_site_fract_y
 _atom_site_fract_z
 _atom_site_occupancy
  Li  Li0  1  0.35320500  0.23095400  0.11672800  1
  Li  Li1  1  0.85313600  0.73086400  0.61683500  1
  Li  Li2  1  0.64678800  0.76906700  0.88326300  1
  Li  Li3  1  0.14691900  0.26918700  0.38314200  1
  Li  Li4  1  0.16310500  0.59460900  0.04939100  1
  Li  Li5  1  0.66305100  0.09456100  0.54939600  1
  Li  Li6  1  0.83691500  0.40539900  0.95060700  1
  Li  Li7  1  0.33696100  0.90540100  0.45057200  1
  Li  Li8  1  0.69603800  0.43193400  0.20731000  1
  Li  Li9  1  0.19594000  0.93195700  0.70744900  1
  Li  Li10  1  0.30392100  0.56809700  0.79270900  1
  Li  Li11  1  0.80406500  0.06804100  0.29254300  1
  Li  Li12  1  0.44927000  0.15794100  0.86230800  1
  Li  Li13  1  0.94922700  0.65800500  0.36226400  1
  Li  Li14  1  0.55071700  0.84204200  0.13769400  1
  Li  Li15  1  0.05076500  0.34199700  0.63771200  1
  Fe  Fe0  1  0.50007900  0.49997200  0.50017200  1
  Fe  Fe1  1  0.99988400  0.00000400  0.99991400  1
  O  O0  1  0.15655800  0.31134100  0.92850000  1
  O  O1  1  0.65668500  0.81131400  0.42857400  1
  O  O2  1  0.84343200  0.68865300  0.07147400  1
  O  O3  1  0.34332900  0.18863500  0.57147300  1
  O  O4  1  0.66825000  0.16256700  0.08322000  1
  O  O5  1  0.16820900  0.66254800  0.58327300  1
  O  O6  1  0.33175900  0.83744200  0.91675500  1
  O  O7  1  0.83180800  0.33744200  0.41676000  1
  F  F0  1  0.35040500  0.48419700  0.23510900  1
  F  F1  1  0.84985500  0.98452200  0.73537300  1
  F  F2  1  0.64958700  0.51580800  0.76487900  1
  F  F3  1  0.15013500  0.01549300  0.26460200  1
loop_
_geom_bond_atom_site_label_1
_geom_bond_atom_site_label_2
_geom_bond_distance
_geom_bond_site_symmetry_2
Li0 O4 1.872037 1_555
Li0 O0 1.938818 1_554
Li1 O5 1.872150 1_655
Li1 O1 1.938438 1_555
Li2 O6 1.871905 1_555
Li2 O2 1.938719 1_556
Li3 O7 1.872338 1_455
Li3 O3 1.938840 1_555
Li4 O6 1.894844 1_554
Li4 O2 1.930279 1_455
Li4 O0 2.131111 1_554
Li5 O7 1.895302 1_555
Li5 O3 1.930596 1_555
Li5 O1 2.130658 1_545
Li6 O4 1.894781 1_556
Li6 O0 1.930177 1_655
Li6 O2 2.130915 1_556
Li7 O5 1.895428 1_555
Li7 O1 1.930538 1_555
Li7 O3 2.130999 1_565
Li8 O2 1.910931 1_555
Li8 O7 1.926011 1_555
Li8 O4 2.076449 1_555
Li9 O3 1.911288 1_565
Li9 O6 1.925100 1_555
Li9 O5 2.077116 1_555
Li10 O0 1.910842 1_555
Li10 O5 1.925737 1_555
Li10 O6 2.076110 1_555
Li11 O1 1.911681 1_545
Li11 O4 1.925224 1_555
Li11 O7 2.077298 1_555
Li12 O6 1.987133 1_545
Li12 O0 2.047492 1_555
Li12 O4 2.237349 1_556
Li12 O3 2.497475 1_555
Li13 O7 1.987360 1_555
Li13 O1 2.046756 1_555
Li13 O5 2.237969 1_655
Li13 O2 2.496931 1_555
Li14 O4 1.987326 1_565
Li14 O2 2.047553 1_555
Li14 O6 2.237449 1_554
Li14 O1 2.497861 1_555
Li15 O5 1.987306 1_555
Li15 O3 2.046820 1_555
Li15 O7 2.237501 1_455
Li15 O0 2.496908 1_555
Fe0 O3 2.028122 1_555
Fe0 O1 2.028162 1_555
Fe0 O5 2.310226 1_555
Fe0 O7 2.310408 1_555
Fe1 O2 2.027823 1_546
Fe1 O0 2.028080 1_655
Fe1 O4 2.309732 1_556
Fe1 O6 2.310389 1_645
F0 Li4 1.924818 1_555
F0 Li3 1.960488 1_555
F0 Li0 1.961251 1_555
F0 Li8 2.006664 1_555
F0 Li14 2.398714 1_555
F0 Fe0 2.402188 1_555
F1 Li5 1.924372 1_565
F1 Li2 1.959960 1_555
F1 Li1 1.964375 1_555
F1 Li9 2.009703 1_655
F1 Fe1 2.398456 1_565
F1 Li15 2.398731 1_665
F2 Li6 1.924966 1_555
F2 Li1 1.960878 1_555
F2 Li2 1.961350 1_555
F2 Li10 2.006917 1_555
F2 Li12 2.398856 1_555
F2 Fe0 2.399123 1_555
F3 Li7 1.924469 1_545
F3 Li0 1.959919 1_555
F3 Li3 1.964558 1_555
F3 Li11 2.009618 1_455
F3 Li13 2.398792 1_445
F3 Fe1 2.400063 1_454
