# generated using pymatgen
data_Cu3N
_symmetry_space_group_name_H-M   'P 1'
_cell_length_a   7.44672800
_cell_length_b   7.44672800
_cell_length_c   7.41026200
_cell_angle_alpha   90.00000000
_cell_angle_beta   90.00000000
_cell_angle_gamma   90.00000000
_symmetry_Int_Tables_number   1
_chemical_formula_structural   Cu3N
_chemical_formula_sum   'Cu24 N8'
_cell_volume   410.92687497
_cell_formula_units_Z   8
loop_
 _symmetry_equiv_pos_site_id
 _symmetry_equiv_pos_as_xyz
  1  'x, y, z'
loop_
 _atom_site_type_symbol
 _atom_site_label
 _atom_site_symmetry_multiplicity
 _atom_site_fract_x
 _atom_site_fract_y
 _atom_site_fract_z
 _atom_site_occupancy
  Cu  Cu0  1  0.25135400  0.50000000  0.50000000  1
  Cu  Cu1  1  0.74864600  0.50000000  0.50000000  1
  Cu  Cu2  1  0.50000000  0.74864600  0.50000000  1
  Cu  Cu3  1  0.50000000  0.25135400  0.50000000  1
  Cu  Cu4  1  0.00000000  0.50000000  0.74495400  1
  Cu  Cu5  1  0.50000000  0.00000000  0.74495400  1
  Cu  Cu6  1  0.00000000  0.50000000  0.25504600  1
  Cu  Cu7  1  0.50000000  0.00000000  0.25504600  1
  Cu  Cu8  1  0.24516000  0.00000000  0.00000000  1
  Cu  Cu9  1  0.75484000  0.00000000  0.00000000  1
  Cu  Cu10  1  0.00000000  0.75484000  0.00000000  1
  Cu  Cu11  1  0.00000000  0.24516000  0.00000000  1
  Cu  Cu12  1  0.25528800  0.50000000  0.00000000  1
  Cu  Cu13  1  0.74471200  0.50000000  0.00000000  1
  Cu  Cu14  1  0.50000000  0.74471200  0.00000000  1
  Cu  Cu15  1  0.50000000  0.25528800  0.00000000  1
  Cu  Cu16  1  0.23925300  0.23925300  0.73157900  1
  Cu  Cu17  1  0.76074700  0.76074700  0.73157900  1
  Cu  Cu18  1  0.23925300  0.76074700  0.73157900  1
  Cu  Cu19  1  0.76074700  0.23925300  0.73157900  1
  Cu  Cu20  1  0.76074700  0.76074700  0.26842100  1
  Cu  Cu21  1  0.23925300  0.23925300  0.26842100  1
  Cu  Cu22  1  0.76074700  0.23925300  0.26842100  1
  Cu  Cu23  1  0.23925300  0.76074700  0.26842100  1
  N  N0  1  0.00000000  0.00000000  0.00000000  1
  N  N1  1  0.00000000  0.00000000  0.50000000  1
  N  N2  1  0.50000000  0.50000000  0.00000000  1
  N  N3  1  0.50000000  0.50000000  0.50000000  1
  N  N4  1  0.00000000  0.50000000  0.50000000  1
  N  N5  1  0.50000000  0.00000000  0.50000000  1
  N  N6  1  0.00000000  0.50000000  0.00000000  1
  N  N7  1  0.50000000  0.00000000  0.00000000  1
loop_
_geom_bond_atom_site_label_1
_geom_bond_atom_site_label_2
_geom_bond_distance
_geom_bond_site_symmetry_2
Cu0 N3 1.851599 1_555
Cu0 N4 1.871765 1_555
Cu1 N3 1.851599 1_555
Cu1 N4 1.871765 1_655
Cu2 N3 1.851599 1_555
Cu2 N5 1.871765 1_565
Cu3 N3 1.851599 1_555
Cu3 N5 1.871765 1_555
Cu4 N4 1.815173 1_555
Cu4 N6 1.889958 1_556
Cu5 N5 1.815173 1_555
Cu5 N7 1.889958 1_556
Cu6 N4 1.815173 1_555
Cu6 N6 1.889958 1_555
Cu7 N5 1.815173 1_555
Cu7 N7 1.889958 1_555
Cu8 N0 1.825640 1_555
Cu8 N7 1.897724 1_555
Cu9 N0 1.825640 1_655
Cu9 N7 1.897724 1_555
Cu10 N0 1.825640 1_565
Cu10 N6 1.897724 1_555
Cu11 N0 1.825640 1_555
Cu11 N6 1.897724 1_555
Cu12 N2 1.822304 1_555
Cu12 N6 1.901060 1_555
Cu13 N2 1.822304 1_555
Cu13 N6 1.901060 1_655
Cu14 N2 1.822304 1_555
Cu14 N7 1.901060 1_565
Cu15 N2 1.822304 1_555
Cu15 N7 1.901060 1_555
