# generated using pymatgen
data_Tc3Pb
_symmetry_space_group_name_H-M   'P 1'
_cell_length_a   5.82466710
_cell_length_b   5.82466710
_cell_length_c   4.53861300
_cell_angle_alpha   90.00000000
_cell_angle_beta   90.00000000
_cell_angle_gamma   120.00001255
_symmetry_Int_Tables_number   1
_chemical_formula_structural   Tc3Pb
_chemical_formula_sum   'Tc6 Pb2'
_cell_volume   133.35089908
_cell_formula_units_Z   2
loop_
 _symmetry_equiv_pos_site_id
 _symmetry_equiv_pos_as_xyz
  1  'x, y, z'
loop_
 _atom_site_type_symbol
 _atom_site_label
 _atom_site_symmetry_multiplicity
 _atom_site_fract_x
 _atom_site_fract_y
 _atom_site_fract_z
 _atom_site_occupancy
  Tc  Tc0  1  0.84416600  0.15583400  0.75000000  1
  Tc  Tc1  1  0.31166800  0.15583400  0.75000000  1
  Tc  Tc2  1  0.84416600  0.68833200  0.75000000  1
  Tc  Tc3  1  0.15583400  0.84416600  0.25000000  1
  Tc  Tc4  1  0.68833200  0.84416600  0.25000000  1
  Tc  Tc5  1  0.15583400  0.31166800  0.25000000  1
  Pb  Pb0  1  0.66666700  0.33333300  0.25000000  1
  Pb  Pb1  1  0.33333300  0.66666700  0.75000000  1
loop_
_geom_bond_atom_site_label_1
_geom_bond_atom_site_label_2
_geom_bond_distance
_geom_bond_site_symmetry_2
Tc0 Tc1 2.723044 1_655
Tc0 Tc2 2.723044 1_545
Tc0 Tc4 2.760690 1_546
Tc0 Tc5 2.760690 1_656
Tc0 Tc5 2.760690 1_655
Tc0 Tc4 2.760690 1_545
Tc0 Tc2 3.101624 1_555
Tc0 Tc1 3.101624 1_555
Tc1 Tc2 2.723043 1_445
Tc1 Tc3 2.760690 1_546
Tc1 Tc3 2.760690 1_545
Tc1 Tc5 2.760690 1_555
Tc1 Tc5 2.760690 1_556
Tc1 Tc2 3.101623 1_555
Tc2 Tc3 2.760690 1_656
Tc2 Tc3 2.760690 1_655
Tc2 Tc4 2.760690 1_556
Tc2 Tc4 2.760690 1_555
Tc3 Tc5 2.723044 1_565
Tc3 Tc4 2.723044 1_455
Tc3 Tc4 3.101624 1_555
Tc3 Tc5 3.101624 1_555
Tc4 Tc5 2.723043 1_665
Tc4 Tc5 3.101623 1_555
Pb0 Tc0 2.890749 1_554
Pb0 Tc0 2.890749 1_555
Pb0 Tc2 2.890752 1_554
Pb0 Tc2 2.890752 1_555
Pb0 Tc1 2.890752 1_555
Pb0 Tc1 2.890752 1_554
Pb0 Tc4 2.914380 1_545
Pb0 Tc5 2.914380 1_655
Pb0 Tc3 2.914383 1_545
Pb0 Tc3 2.914383 1_655
Pb0 Tc5 2.914386 1_555
Pb0 Tc4 2.914386 1_555
Pb1 Tc3 2.890749 1_556
Pb1 Tc3 2.890749 1_555
Pb1 Tc4 2.890752 1_556
Pb1 Tc4 2.890752 1_555
Pb1 Tc5 2.890752 1_555
Pb1 Tc5 2.890752 1_556
Pb1 Tc2 2.914380 1_455
Pb1 Tc1 2.914380 1_565
Pb1 Tc0 2.914383 1_455
Pb1 Tc0 2.914383 1_565
Pb1 Tc1 2.914386 1_555
Pb1 Tc2 2.914386 1_555
