# generated using pymatgen
data_Fe5(O4F)2
_symmetry_space_group_name_H-M   'P 1'
_cell_length_a   4.65522200
_cell_length_b   4.65658700
_cell_length_c   15.09149100
_cell_angle_alpha   90.00000000
_cell_angle_beta   90.00000000
_cell_angle_gamma   90.00000000
_symmetry_Int_Tables_number   1
_chemical_formula_structural   Fe5(O4F)2
_chemical_formula_sum   'Fe10 O16 F4'
_cell_volume   327.14498494
_cell_formula_units_Z   2
loop_
 _symmetry_equiv_pos_site_id
 _symmetry_equiv_pos_as_xyz
  1  'x, y, z'
loop_
 _atom_site_type_symbol
 _atom_site_label
 _atom_site_symmetry_multiplicity
 _atom_site_fract_x
 _atom_site_fract_y
 _atom_site_fract_z
 _atom_site_occupancy
  Fe  Fe0  1  0.75497200  0.98668700  0.70531100  1
  Fe  Fe1  1  0.76999900  0.01571200  0.90076100  1
  Fe  Fe2  1  0.76999900  0.01571200  0.09923900  1
  Fe  Fe3  1  0.75497200  0.98668700  0.29468900  1
  Fe  Fe4  1  0.75997800  0.98625200  0.50000000  1
  Fe  Fe5  1  0.24502800  0.48668700  0.79468900  1
  Fe  Fe6  1  0.24502800  0.48668700  0.20531100  1
  Fe  Fe7  1  0.24002200  0.48625200  0.00000000  1
  Fe  Fe8  1  0.23000100  0.51571200  0.40076100  1
  Fe  Fe9  1  0.23000100  0.51571200  0.59923900  1
  O  O0  1  0.95091500  0.80327800  0.80452700  1
  O  O1  1  0.94771400  0.80913000  0.00000000  1
  O  O2  1  0.95091500  0.80327800  0.19547300  1
  O  O3  1  0.92953300  0.81287600  0.39719200  1
  O  O4  1  0.92953300  0.81287600  0.60280800  1
  O  O5  1  0.04908500  0.30327800  0.69547300  1
  O  O6  1  0.07046700  0.31287600  0.89719200  1
  O  O7  1  0.07046700  0.31287600  0.10280800  1
  O  O8  1  0.04908500  0.30327800  0.30452700  1
  O  O9  1  0.05228600  0.30913000  0.50000000  1
  O  O10  1  0.43773600  0.68894800  0.69839900  1
  O  O11  1  0.43773600  0.68894800  0.30160100  1
  O  O12  1  0.43534400  0.69378500  0.50000000  1
  O  O13  1  0.56226400  0.18894800  0.80160100  1
  O  O14  1  0.56226400  0.18894800  0.19839900  1
  O  O15  1  0.56465600  0.19378500  0.00000000  1
  F  F0  1  0.45406000  0.69791500  0.90042100  1
  F  F1  1  0.45406000  0.69791500  0.09957900  1
  F  F2  1  0.54594000  0.19791500  0.59957900  1
  F  F3  1  0.54594000  0.19791500  0.40042100  1
loop_
_geom_bond_atom_site_label_1
_geom_bond_atom_site_label_2
_geom_bond_distance
_geom_bond_site_symmetry_2
Fe0 O4 1.925720 1_555
Fe0 O0 1.950233 1_555
Fe0 O13 1.950265 1_565
Fe0 O5 2.017427 1_665
Fe0 O10 2.028317 1_555
Fe1 O0 1.948609 1_545
Fe1 O13 1.955854 1_555
Fe1 O15 1.960706 1_556
Fe1 O1 1.962857 1_546
Fe1 O6 1.968301 1_655
Fe2 O2 1.948609 1_545
Fe2 O14 1.955854 1_555
Fe2 O15 1.960706 1_555
Fe2 O1 1.962857 1_545
Fe2 O7 1.968301 1_655
Fe3 O3 1.925720 1_555
Fe3 O2 1.950233 1_555
Fe3 O14 1.950265 1_565
Fe3 O8 2.017427 1_665
Fe3 O11 2.028317 1_555
Fe4 O3 1.918867 1_555
Fe4 O4 1.918867 1_555
Fe4 O9 2.027857 1_665
Fe4 O12 2.034361 1_555
Fe5 O6 1.925720 1_555
Fe5 O5 1.950233 1_555
Fe5 O10 1.950265 1_555
Fe5 O0 2.017427 1_455
Fe5 O13 2.028317 1_555
Fe6 O7 1.925720 1_555
Fe6 O8 1.950233 1_555
Fe6 O11 1.950265 1_555
Fe6 O2 2.017427 1_455
Fe6 O14 2.028317 1_555
Fe7 O7 1.918867 1_555
Fe7 O6 1.918867 1_554
Fe7 O1 2.027857 1_455
Fe7 O15 2.034361 1_555
Fe8 O8 1.948609 1_555
Fe8 O11 1.955854 1_555
Fe8 O12 1.960706 1_555
Fe8 O9 1.962857 1_555
Fe8 O3 1.968301 1_455
Fe9 O5 1.948609 1_555
Fe9 O10 1.955854 1_555
Fe9 O12 1.960706 1_555
Fe9 O9 1.962857 1_555
Fe9 O4 1.968301 1_455
F0 Fe7 2.054911 1_556
F0 Fe1 2.086416 1_565
F0 Fe5 2.111987 1_555
F1 Fe7 2.054911 1_555
F1 Fe2 2.086416 1_565
F1 Fe6 2.111987 1_555
F2 Fe4 2.054911 1_545
F2 Fe9 2.086416 1_555
F2 Fe0 2.111987 1_545
F3 Fe4 2.054911 1_545
F3 Fe8 2.086416 1_555
F3 Fe3 2.111987 1_545
