# generated using pymatgen
data_RbMg14BO15
_symmetry_space_group_name_H-M   'P 1'
_cell_length_a   4.52423300
_cell_length_b   8.26901400
_cell_length_c   8.92255700
_cell_angle_alpha   90.00000000
_cell_angle_beta   90.00000000
_cell_angle_gamma   90.00000000
_symmetry_Int_Tables_number   1
_chemical_formula_structural   RbMg14BO15
_chemical_formula_sum   'Rb1 Mg14 B1 O15'
_cell_volume   333.80129825
_cell_formula_units_Z   1
loop_
 _symmetry_equiv_pos_site_id
 _symmetry_equiv_pos_as_xyz
  1  'x, y, z'
loop_
 _atom_site_type_symbol
 _atom_site_label
 _atom_site_symmetry_multiplicity
 _atom_site_fract_x
 _atom_site_fract_y
 _atom_site_fract_z
 _atom_site_occupancy
  Rb  Rb0  1  0.00000000  0.00000000  0.96417800  1
  Mg  Mg0  1  0.00000000  0.00000000  0.49634300  1
  Mg  Mg1  1  0.00000000  0.50000000  0.49477300  1
  Mg  Mg2  1  0.50000000  0.74015900  0.00945200  1
  Mg  Mg3  1  0.50000000  0.25984100  0.00945200  1
  Mg  Mg4  1  0.50000000  0.74646500  0.48949800  1
  Mg  Mg5  1  0.50000000  0.25353500  0.48949800  1
  Mg  Mg6  1  0.50000000  0.00000000  0.72436300  1
  Mg  Mg7  1  0.50000000  0.50000000  0.77115100  1
  Mg  Mg8  1  0.50000000  0.00000000  0.25215900  1
  Mg  Mg9  1  0.50000000  0.50000000  0.24672700  1
  Mg  Mg10  1  0.00000000  0.73471000  0.72771100  1
  Mg  Mg11  1  0.00000000  0.26529000  0.72771100  1
  Mg  Mg12  1  0.00000000  0.75694500  0.25454500  1
  Mg  Mg13  1  0.00000000  0.24305500  0.25454500  1
  B  B0  1  0.00000000  0.50000000  0.06770500  1
  O  O0  1  0.00000000  0.50000000  0.71943100  1
  O  O1  1  0.00000000  0.00000000  0.26871500  1
  O  O2  1  0.00000000  0.50000000  0.23548800  1
  O  O3  1  0.50000000  0.75010100  0.75747700  1
  O  O4  1  0.50000000  0.24989900  0.75747700  1
  O  O5  1  0.50000000  0.74739200  0.25132900  1
  O  O6  1  0.50000000  0.25260800  0.25132900  1
  O  O7  1  0.50000000  0.00000000  0.02867200  1
  O  O8  1  0.50000000  0.50000000  0.01341500  1
  O  O9  1  0.50000000  0.00000000  0.49293900  1
  O  O10  1  0.50000000  0.50000000  0.48413600  1
  O  O11  1  0.00000000  0.66559600  0.01625000  1
  O  O12  1  0.00000000  0.33440400  0.01625000  1
  O  O13  1  0.00000000  0.74443100  0.48864000  1
  O  O14  1  0.00000000  0.25556900  0.48864000  1
loop_
_geom_bond_atom_site_label_1
_geom_bond_atom_site_label_2
_geom_bond_distance
_geom_bond_site_symmetry_2
Mg0 O1 2.031024 1_555
Mg0 O14 2.114421 1_555
Mg0 O13 2.114421 1_545
Mg0 O9 2.262320 1_555
Mg0 O9 2.262320 1_455
Mg1 O0 2.004524 1_555
Mg1 O13 2.021944 1_555
Mg1 O14 2.021944 1_555
Mg1 O10 2.264107 1_455
Mg1 O10 2.264107 1_555
Mg1 O2 2.313485 1_555
Mg2 O8 1.986193 1_555
Mg2 O7 2.155462 1_565
Mg2 O5 2.158990 1_555
Mg2 O3 2.249764 1_554
Mg2 O11 2.345421 1_555
Mg2 O11 2.345421 1_655
Mg3 O8 1.986193 1_555
Mg3 O7 2.155462 1_555
Mg3 O6 2.158990 1_555
Mg3 O4 2.249764 1_554
Mg3 O12 2.345421 1_655
Mg3 O12 2.345421 1_555
Mg4 O10 2.038584 1_555
Mg4 O9 2.096709 1_565
Mg4 O5 2.125090 1_555
Mg4 O13 2.262192 1_555
Mg4 O13 2.262192 1_655
Mg4 O3 2.391247 1_555
Mg5 O10 2.038584 1_555
Mg5 O9 2.096709 1_555
Mg5 O6 2.125090 1_555
Mg5 O14 2.262192 1_655
Mg5 O14 2.262192 1_555
Mg5 O4 2.391247 1_555
Mg6 O9 2.064894 1_555
Mg6 O4 2.087434 1_555
Mg6 O3 2.087434 1_545
Mg7 O3 2.071684 1_555
Mg7 O4 2.071684 1_555
Mg7 O8 2.161614 1_556
Mg7 O0 2.308707 1_555
Mg7 O0 2.308707 1_655
Mg7 O10 2.560908 1_555
Mg8 O7 1.994075 1_555
Mg8 O6 2.088832 1_555
Mg8 O5 2.088832 1_545
Mg8 O9 2.148373 1_555
Mg8 O1 2.266935 1_655
Mg8 O1 2.266935 1_555
Mg9 O5 2.046100 1_555
Mg9 O6 2.046100 1_555
Mg9 O8 2.081740 1_555
Mg9 O10 2.118295 1_555
Mg9 O2 2.264338 1_655
Mg9 O2 2.264338 1_555
Mg10 O0 1.942226 1_555
Mg10 O13 2.134639 1_555
Mg10 O3 2.281207 1_455
Mg10 O3 2.281207 1_555
Mg10 O11 2.637176 1_556
Mg11 O0 1.942226 1_555
Mg11 O14 2.134639 1_555
Mg11 O4 2.281207 1_555
Mg11 O4 2.281207 1_455
Mg11 O12 2.637176 1_556
Mg12 O1 2.013798 1_565
Mg12 O13 2.091288 1_555
Mg12 O2 2.131475 1_555
Mg12 O11 2.256393 1_555
Mg12 O5 2.263677 1_555
Mg12 O5 2.263677 1_455
Mg13 O1 2.013798 1_555
Mg13 O14 2.091288 1_555
Mg13 O2 2.131475 1_555
Mg13 O12 2.256393 1_555
Mg13 O6 2.263677 1_455
Mg13 O6 2.263677 1_555
B0 O11 1.444232 1_555
B0 O12 1.444232 1_555
B0 O2 1.497053 1_555
O1 Rb0 2.717249 1_554
O7 Rb0 2.334163 1_654
O7 Rb0 2.334163 1_554
O11 Rb0 2.803953 1_564
O12 Rb0 2.803953 1_554
