# generated using pymatgen
data_BaSrNdFeO6
_symmetry_space_group_name_H-M   'P 1'
_cell_length_a   5.92063701
_cell_length_b   5.90202176
_cell_length_c   8.35416221
_cell_angle_alpha   90.12452591
_cell_angle_beta   89.99290872
_cell_angle_gamma   89.79601096
_symmetry_Int_Tables_number   1
_chemical_formula_structural   BaSrNdFeO6
_chemical_formula_sum   'Ba2 Sr2 Nd2 Fe2 O12'
_cell_volume   291.92303374
_cell_formula_units_Z   2
loop_
 _symmetry_equiv_pos_site_id
 _symmetry_equiv_pos_as_xyz
  1  'x, y, z'
loop_
 _atom_site_type_symbol
 _atom_site_label
 _atom_site_symmetry_multiplicity
 _atom_site_fract_x
 _atom_site_fract_y
 _atom_site_fract_z
 _atom_site_occupancy
  Ba  Ba0  1  0.99847847  0.00695000  0.24933033  1
  Ba  Ba1  1  0.00152153  0.99305000  0.75066967  1
  Sr  Sr0  1  0.49927280  0.50927094  0.25104356  1
  Sr  Sr1  1  0.50072720  0.49072906  0.74895644  1
  Nd  Nd0  1  0.50000000  -0.00000000  -0.00000000  1
  Nd  Nd1  1  -0.00000000  0.50000000  0.50000000  1
  Fe  Fe0  1  -0.00000000  0.50000000  -0.00000000  1
  Fe  Fe1  1  0.50000000  -0.00000000  0.50000000  1
  O  O0  1  0.21157063  0.25767538  0.97966073  1
  O  O1  1  0.29508569  0.74918321  0.51982297  1
  O  O2  1  0.78842937  0.74232462  0.02033927  1
  O  O3  1  0.70491431  0.25081679  0.48017703  1
  O  O4  1  0.24803461  0.70689463  0.97811307  1
  O  O5  1  0.25979591  0.21368623  0.51897811  1
  O  O6  1  0.75196539  0.29310537  0.02188693  1
  O  O7  1  0.74020409  0.78631377  0.48102189  1
  O  O8  1  0.46538533  0.99427256  0.27396712  1
  O  O9  1  0.04623029  0.49891865  0.22607800  1
  O  O10  1  0.53461467  0.00572744  0.72603288  1
  O  O11  1  0.95376971  0.50108135  0.77392200  1
loop_
_geom_bond_atom_site_label_1
_geom_bond_atom_site_label_2
_geom_bond_distance
_geom_bond_site_symmetry_2
Ba0 O2 2.765322 1_545
Ba0 O8 2.772819 1_645
Ba0 O7 2.793730 1_545
Ba0 O9 2.925218 1_655
Ba0 O6 2.930872 1_555
Ba0 O3 2.963288 1_555
Ba0 O0 2.980601 1_654
Ba0 O5 2.993233 1_655
Ba0 O9 3.016548 1_645
Ba0 O8 3.164090 1_545
Ba0 O4 3.227417 1_644
Ba0 O1 3.240635 1_645
Ba1 O0 2.765322 1_565
Ba1 O10 2.772819 1_465
Ba1 O5 2.793730 1_565
Ba1 O11 2.925218 1_455
Ba1 O4 2.930872 1_555
Ba1 O1 2.963288 1_555
Ba1 O2 2.980601 1_456
Ba1 O7 2.993233 1_455
Ba1 O11 3.016548 1_465
Ba1 O10 3.164090 1_565
Ba1 O6 3.227417 1_466
Ba1 O3 3.240635 1_465
Nd0 O0 2.289239 1_554
Nd0 O2 2.289239 1_545
Nd0 O6 2.295334 1_555
Nd0 O4 2.295334 1_544
Nd0 O10 2.298230 1_554
Nd0 O8 2.298230 1_545
Nd1 O7 2.286768 1_455
Nd1 O5 2.286768 1_555
Nd1 O1 2.293467 1_555
Nd1 O3 2.293467 1_455
Nd1 O11 2.304659 1_455
Nd1 O9 2.304659 1_555
Fe0 O2 1.905146 1_455
Fe0 O0 1.905146 1_554
Fe0 O9 1.908477 1_555
Fe0 O11 1.908477 1_454
Fe0 O4 1.922171 1_554
Fe0 O6 1.922171 1_455
Fe1 O8 1.899670 1_545
Fe1 O10 1.899670 1_555
Fe1 O7 1.903828 1_545
Fe1 O5 1.903828 1_555
Fe1 O1 1.924709 1_545
Fe1 O3 1.924709 1_555
O0 Sr1 2.926602 1_555
O0 Sr0 3.201706 1_556
O1 Sr1 2.733771 1_555
O1 Sr0 2.912337 1_555
O2 Sr0 2.926602 1_555
O2 Sr1 3.201706 1_554
O3 Sr0 2.733771 1_555
O3 Sr1 2.912337 1_555
O4 Sr1 2.739722 1_555
O4 Sr0 2.961755 1_556
O5 Sr1 2.898851 1_555
O5 Sr0 3.177712 1_555
O6 Sr0 2.739722 1_555
O6 Sr1 2.961755 1_554
O7 Sr0 2.898851 1_555
O7 Sr1 3.177712 1_555
O8 Sr0 2.874769 1_555
O8 Sr0 3.053284 1_565
O9 Sr0 2.691323 1_555
O9 Sr0 3.245370 1_455
O10 Sr1 2.874769 1_555
O10 Sr1 3.053284 1_545
O11 Sr1 2.691323 1_555
O11 Sr1 3.245370 1_655
