# generated using pymatgen
data_MnCoSn
_symmetry_space_group_name_H-M   'P 1'
_cell_length_a   4.36623934
_cell_length_b   4.36623934
_cell_length_c   5.40121200
_cell_angle_alpha   90.00000000
_cell_angle_beta   90.00000000
_cell_angle_gamma   119.99999004
_symmetry_Int_Tables_number   1
_chemical_formula_structural   MnCoSn
_chemical_formula_sum   'Mn2 Co2 Sn2'
_cell_volume   89.17373892
_cell_formula_units_Z   2
loop_
 _symmetry_equiv_pos_site_id
 _symmetry_equiv_pos_as_xyz
  1  'x, y, z'
loop_
 _atom_site_type_symbol
 _atom_site_label
 _atom_site_symmetry_multiplicity
 _atom_site_fract_x
 _atom_site_fract_y
 _atom_site_fract_z
 _atom_site_occupancy
  Mn  Mn0  1  0.00000000  0.00000000  0.00000000  1
  Mn  Mn1  1  0.00000000  0.00000000  0.50000000  1
  Co  Co0  1  0.66666700  0.33333300  0.25000000  1
  Co  Co1  1  0.33333300  0.66666700  0.75000000  1
  Sn  Sn0  1  0.66666700  0.33333300  0.75000000  1
  Sn  Sn1  1  0.33333300  0.66666700  0.25000000  1
loop_
_geom_bond_atom_site_label_1
_geom_bond_atom_site_label_2
_geom_bond_distance
_geom_bond_site_symmetry_2
Mn0 Mn1 2.700606 1_555
Mn0 Mn1 2.700606 1_554
Mn0 Sn0 2.859718 1_454
Mn0 Sn1 2.859718 1_545
Mn0 Sn1 2.859722 1_445
Mn0 Sn1 2.859722 1_555
Mn0 Sn0 2.859722 1_554
Mn0 Sn0 2.859722 1_444
Mn1 Sn0 2.859718 1_455
Mn1 Sn1 2.859718 1_545
Mn1 Sn1 2.859722 1_445
Mn1 Sn1 2.859722 1_555
Mn1 Sn0 2.859722 1_445
Mn1 Sn0 2.859722 1_555
Co0 Sn1 2.520847 1_545
Co0 Sn1 2.520847 1_655
Co0 Sn1 2.520854 1_555
Co0 Sn0 2.700606 1_555
Co0 Sn0 2.700606 1_554
Co0 Mn0 2.859718 1_655
Co0 Mn1 2.859718 1_655
Co0 Mn1 2.859722 1_555
Co0 Mn0 2.859722 1_665
Co0 Mn0 2.859722 1_555
Co0 Mn1 2.859722 1_665
Co1 Sn0 2.520847 1_455
Co1 Sn0 2.520847 1_565
Co1 Sn0 2.520854 1_555
Co1 Sn1 2.700606 1_556
Co1 Sn1 2.700606 1_555
Co1 Mn0 2.859718 1_566
Co1 Mn1 2.859718 1_565
Co1 Mn1 2.859722 1_555
Co1 Mn0 2.859722 1_666
Co1 Mn0 2.859722 1_556
Co1 Mn1 2.859722 1_665
