# generated using pymatgen
data_Li7Mn4CoO12
_symmetry_space_group_name_H-M   'P 1'
_cell_length_a   5.84368248
_cell_length_b   7.59283505
_cell_length_c   5.92957668
_cell_angle_alpha   110.47823665
_cell_angle_beta   60.82312502
_cell_angle_gamma   100.47116021
_symmetry_Int_Tables_number   1
_chemical_formula_structural   Li7Mn4CoO12
_chemical_formula_sum   'Li7 Mn4 Co1 O12'
_cell_volume   215.17723104
_cell_formula_units_Z   1
loop_
 _symmetry_equiv_pos_site_id
 _symmetry_equiv_pos_as_xyz
  1  'x, y, z'
loop_
 _atom_site_type_symbol
 _atom_site_label
 _atom_site_symmetry_multiplicity
 _atom_site_fract_x
 _atom_site_fract_y
 _atom_site_fract_z
 _atom_site_occupancy
  Li  Li0  1  0.33333400  0.66667300  0.16666000  1
  Li  Li1  1  0.83333000  0.66667300  0.66665200  1
  Li  Li2  1  0.83331200  0.66666600  0.16666600  1
  Li  Li3  1  0.16878300  0.34565500  0.34699900  1
  Li  Li4  1  0.49787900  0.98767200  0.98634400  1
  Li  Li5  1  0.99733800  0.99275300  0.49106700  1
  Li  Li6  1  0.66933800  0.34058500  0.84230200  1
  Mn  Mn0  1  0.00124600  0.99286200  0.99387200  1
  Mn  Mn1  1  0.66541200  0.34047400  0.33946100  1
  Mn  Mn2  1  0.16296100  0.33984900  0.83759300  1
  Mn  Mn3  1  0.50373300  0.99348500  0.49572500  1
  Co  Co0  1  0.33332200  0.66666400  0.66666800  1
  O  O0  1  0.32880200  0.15677600  0.88536100  1
  O  O1  1  0.33788300  0.17654900  0.44795700  1
  O  O2  1  0.47006900  0.50543700  0.76736800  1
  O  O3  1  0.19659300  0.82792700  0.56598700  1
  O  O4  1  0.00457800  0.47437800  0.21719400  1
  O  O5  1  0.66209400  0.85894100  0.11612700  1
  O  O6  1  0.16838800  0.83109700  0.04758200  1
  O  O7  1  0.49827300  0.50223500  0.28573200  1
  O  O8  1  0.64189600  0.83478600  0.58468300  1
  O  O9  1  0.02478000  0.49851100  0.74864300  1
  O  O10  1  0.80243600  0.16555400  0.42876600  1
  O  O11  1  0.86422100  0.16779900  0.90459200  1
loop_
_geom_bond_atom_site_label_1
_geom_bond_atom_site_label_2
_geom_bond_distance
_geom_bond_site_symmetry_2
Li0 O2 2.055671 1_554
Li0 O3 2.055862 1_555
Li0 O5 2.153422 1_555
Li0 O4 2.153521 1_555
Li0 O6 2.168877 1_555
Li0 O7 2.168903 1_555
Li1 O8 2.144828 1_555
Li1 O9 2.145274 1_655
Li1 O2 2.166221 1_555
Li1 O3 2.166297 1_655
Li1 O4 2.333234 1_655
Li1 O5 2.333245 1_556
Li2 O7 2.066628 1_555
Li2 O6 2.066783 1_655
Li2 O5 2.086059 1_555
Li2 O4 2.086291 1_655
Li2 O8 2.150878 1_555
Li2 O9 2.150999 1_654
Li3 O7 2.010192 1_555
Li3 O4 2.013903 1_555
Li3 O9 2.047922 1_555
Li3 O1 2.135244 1_555
Li3 O10 2.252986 1_455
Li3 O0 2.380962 1_554
Li4 O6 2.010192 1_556
Li4 O5 2.013887 1_556
Li4 O8 2.048048 1_555
Li4 O0 2.135243 1_565
Li4 O11 2.253068 1_565
Li4 O1 2.380855 1_566
Li5 O10 2.108954 1_565
Li5 O8 2.120655 1_555
Li5 O3 2.131294 1_655
Li5 O11 2.149367 1_565
Li5 O1 2.171928 1_665
Li5 O6 2.246230 1_655
Li6 O11 2.108740 1_555
Li6 O9 2.120501 1_655
Li6 O2 2.131563 1_555
Li6 O10 2.149393 1_555
Li6 O0 2.171972 1_555
Li6 O7 2.245969 1_556
Mn0 O6 1.891318 1_556
Mn0 O5 1.967187 1_456
Mn0 O11 1.994402 1_465
Mn0 O0 2.029885 1_565
Mn0 O3 2.186592 1_555
Mn0 O10 2.232858 1_466
Mn1 O7 1.891354 1_555
Mn1 O4 1.967191 1_655
Mn1 O10 1.994393 1_555
Mn1 O1 2.029818 1_555
Mn1 O2 2.186738 1_555
Mn1 O11 2.232719 1_554
Mn2 O9 1.896033 1_555
Mn2 O4 1.915752 1_556
Mn2 O11 1.941641 1_455
Mn2 O2 1.947418 1_555
Mn2 O0 1.996103 1_555
Mn2 O1 2.018347 1_555
Mn3 O8 1.896223 1_555
Mn3 O5 1.915761 1_555
Mn3 O10 1.941578 1_565
Mn3 O3 1.947421 1_555
Mn3 O1 1.996081 1_565
Mn3 O0 2.018329 1_565
Co0 O2 1.956006 1_555
Co0 O3 1.956075 1_555
Co0 O8 1.964748 1_555
Co0 O9 1.964753 1_555
Co0 O6 1.982669 1_556
Co0 O7 1.982753 1_555
