# generated using pymatgen
data_Rb3Cu3Cl8O
_symmetry_space_group_name_H-M   'P 1'
_cell_length_a   9.60696400
_cell_length_b   13.39431400
_cell_length_c   13.55138923
_cell_angle_alpha   66.85589762
_cell_angle_beta   90.00000000
_cell_angle_gamma   90.00000000
_symmetry_Int_Tables_number   1
_chemical_formula_structural   Rb3Cu3Cl8O
_chemical_formula_sum   'Rb12 Cu12 Cl32 O4'
_cell_volume   1603.43468918
_cell_formula_units_Z   4
loop_
 _symmetry_equiv_pos_site_id
 _symmetry_equiv_pos_as_xyz
  1  'x, y, z'
loop_
 _atom_site_type_symbol
 _atom_site_label
 _atom_site_symmetry_multiplicity
 _atom_site_fract_x
 _atom_site_fract_y
 _atom_site_fract_z
 _atom_site_occupancy
  Rb  Rb0  1  0.87596200  0.20210000  0.43497800  1
  Rb  Rb1  1  0.37596200  0.29790000  0.56502200  1
  Rb  Rb2  1  0.12403800  0.79790000  0.56502200  1
  Rb  Rb3  1  0.62403800  0.70210000  0.43497800  1
  Rb  Rb4  1  0.60451800  0.92380400  0.68825500  1
  Rb  Rb5  1  0.10451800  0.57619600  0.31174500  1
  Rb  Rb6  1  0.39548200  0.07619600  0.31174500  1
  Rb  Rb7  1  0.89548200  0.42380400  0.68825500  1
  Rb  Rb8  1  0.10421000  0.31118100  0.06956600  1
  Rb  Rb9  1  0.60421000  0.18881900  0.93043400  1
  Rb  Rb10  1  0.89579000  0.68881900  0.93043400  1
  Rb  Rb11  1  0.39579000  0.81118100  0.06956600  1
  Cu  Cu0  1  0.65718500  0.36219000  0.13726400  1
  Cu  Cu1  1  0.15718500  0.13781000  0.86273600  1
  Cu  Cu2  1  0.34281500  0.63781000  0.86273600  1
  Cu  Cu3  1  0.84281500  0.86219000  0.13726400  1
  Cu  Cu4  1  0.65769700  0.49617600  0.27224000  1
  Cu  Cu5  1  0.15769700  0.00382400  0.72776000  1
  Cu  Cu6  1  0.34230300  0.50382400  0.72776000  1
  Cu  Cu7  1  0.84230300  0.99617600  0.27224000  1
  Cu  Cu8  1  0.39088500  0.40868600  0.23408000  1
  Cu  Cu9  1  0.89088500  0.09131400  0.76592000  1
  Cu  Cu10  1  0.60911500  0.59131400  0.76592000  1
  Cu  Cu11  1  0.10911500  0.90868600  0.23408000  1
  Cl  Cl0  1  0.45715500  0.55122400  0.33271200  1
  Cl  Cl1  1  0.95715500  0.94877600  0.66728800  1
  Cl  Cl2  1  0.54284500  0.44877600  0.66728800  1
  Cl  Cl3  1  0.04284500  0.05122400  0.33271200  1
  Cl  Cl4  1  0.46222600  0.29958600  0.08947700  1
  Cl  Cl5  1  0.96222600  0.20041400  0.91052300  1
  Cl  Cl6  1  0.53777400  0.70041400  0.91052300  1
  Cl  Cl7  1  0.03777400  0.79958600  0.08947700  1
  Cl  Cl8  1  0.74044100  0.46550700  0.89699700  1
  Cl  Cl9  1  0.24044100  0.03449300  0.10300300  1
  Cl  Cl10  1  0.25955900  0.53449300  0.10300300  1
  Cl  Cl11  1  0.75955900  0.96550700  0.89699700  1
  Cl  Cl12  1  0.53514200  0.27622300  0.36116100  1
  Cl  Cl13  1  0.03514200  0.22377700  0.63883900  1
  Cl  Cl14  1  0.46485800  0.72377700  0.63883900  1
  Cl  Cl15  1  0.96485800  0.77622300  0.36116100  1
  Cl  Cl16  1  0.84334400  0.43638800  0.18390700  1
  Cl  Cl17  1  0.34334400  0.06361200  0.81609300  1
  Cl  Cl18  1  0.15665600  0.56361200  0.81609300  1
  Cl  Cl19  1  0.65665600  0.93638800  0.18390700  1
  Cl  Cl20  1  0.20069200  0.32265200  0.32303500  1
  Cl  Cl21  1  0.70069200  0.17734800  0.67696500  1
  Cl  Cl22  1  0.79930800  0.67734800  0.67696500  1
  Cl  Cl23  1  0.29930800  0.82265200  0.32303500  1
  Cl  Cl24  1  0.72175800  0.71756600  0.14176100  1
  Cl  Cl25  1  0.22175800  0.78243400  0.85823900  1
  Cl  Cl26  1  0.27824200  0.28243400  0.85823900  1
  Cl  Cl27  1  0.77824200  0.21756600  0.14176100  1
  Cl  Cl28  1  0.79422500  0.48372500  0.41249400  1
  Cl  Cl29  1  0.29422500  0.01627500  0.58750600  1
  Cl  Cl30  1  0.20577500  0.51627500  0.58750600  1
  Cl  Cl31  1  0.70577500  0.98372500  0.41249400  1
  O  O0  1  0.55645400  0.47213700  0.16183300  1
  O  O1  1  0.05645400  0.02786300  0.83816700  1
  O  O2  1  0.44354600  0.52786300  0.83816700  1
  O  O3  1  0.94354600  0.97213700  0.16183300  1
loop_
_geom_bond_atom_site_label_1
_geom_bond_atom_site_label_2
_geom_bond_distance
_geom_bond_site_symmetry_2
Cu0 O0 1.897763 1_555
Cu1 O1 1.897763 1_555
Cu2 O2 1.897763 1_555
Cu3 O3 1.897763 1_555
Cu4 O0 1.914919 1_555
Cu5 O1 1.914919 1_555
Cu6 O2 1.914919 1_555
Cu7 O3 1.914919 1_555
Cu8 O0 1.885949 1_555
Cu9 O1 1.885949 1_655
Cu10 O2 1.885949 1_555
Cu11 O3 1.885949 1_455
Cl0 Cu4 2.324213 1_555
Cl0 Cu8 2.800507 1_555
Cl0 Rb3 3.282750 1_555
Cl0 Rb5 3.405128 1_555
Cl0 Rb1 3.692602 1_555
Cl0 Rb11 3.927753 1_555
Cl1 Cu5 2.324213 1_665
Cl1 Cu9 2.800507 1_565
Cl1 Rb2 3.282750 1_655
Cl1 Rb4 3.405128 1_555
Cl1 Rb0 3.692602 1_565
Cl1 Rb10 3.927753 1_555
Cl2 Cu6 2.324213 1_555
Cl2 Cu10 2.800507 1_555
Cl2 Rb1 3.282750 1_555
Cl2 Rb7 3.405128 1_555
Cl2 Rb3 3.692602 1_555
Cl2 Rb9 3.927753 1_555
Cl3 Cu7 2.324213 1_445
Cl3 Cu11 2.800507 1_545
Cl3 Rb0 3.282750 1_455
Cl3 Rb6 3.405128 1_555
Cl3 Rb2 3.692602 1_545
Cl3 Rb8 3.927753 1_555
Cl4 Cu0 2.248858 1_555
Cl4 Cu8 2.948919 1_555
Cl4 Rb9 3.349709 1_554
Cl4 Rb6 3.369258 1_555
Cl4 Rb8 3.448736 1_555
Cl5 Cu1 2.248858 1_655
Cl5 Cu9 2.948919 1_555
Cl5 Rb8 3.349709 1_656
Cl5 Rb7 3.369258 1_555
Cl5 Rb9 3.448736 1_555
Cl6 Cu2 2.248858 1_555
Cl6 Cu10 2.948919 1_555
Cl6 Rb11 3.349709 1_556
Cl6 Rb4 3.369258 1_555
Cl6 Rb10 3.448736 1_555
Cl7 Cu3 2.248858 1_455
Cl7 Cu11 2.948919 1_555
Cl7 Rb10 3.349709 1_454
Cl7 Rb5 3.369258 1_555
Cl7 Rb11 3.448736 1_555
Cl8 Cu10 2.287692 1_555
Cl8 Rb7 3.431389 1_555
Cl8 Rb10 3.527722 1_555
Cl8 Rb9 3.785882 1_555
Cl9 Cu11 2.287692 1_545
Cl9 Rb6 3.431389 1_555
Cl9 Rb11 3.527722 1_545
Cl9 Rb8 3.785882 1_555
Cl10 Cu8 2.287692 1_555
Cl10 Rb5 3.431389 1_555
Cl10 Rb8 3.527722 1_555
Cl10 Rb11 3.785882 1_555
Cl11 Cu9 2.287692 1_565
Cl11 Rb4 3.431389 1_555
Cl11 Rb9 3.527722 1_565
Cl11 Rb10 3.785882 1_555
Cl12 Cu8 2.373275 1_555
Cl12 Cu4 2.954183 1_555
Cl12 Cu0 3.026558 1_555
Cl12 Rb1 3.268847 1_555
Cl12 Rb6 3.291995 1_555
Cl12 Rb0 3.453452 1_555
Cl13 Cu9 2.373275 1_455
Cl13 Cu5 2.954183 1_555
Cl13 Cu1 3.026558 1_555
Cl13 Rb0 3.268847 1_455
Cl13 Rb7 3.291995 1_455
Cl13 Rb1 3.453452 1_555
Cl14 Cu10 2.373275 1_555
Cl14 Cu6 2.954183 1_555
Cl14 Cu2 3.026558 1_555
Cl14 Rb3 3.268847 1_555
Cl14 Rb4 3.291995 1_555
Cl14 Rb2 3.453452 1_555
Cl15 Cu11 2.373275 1_655
Cl15 Cu7 2.954183 1_555
Cl15 Cu3 3.026558 1_555
Cl15 Rb2 3.268847 1_655
Cl15 Rb5 3.291995 1_655
Cl15 Rb3 3.453452 1_555
Cl16 Cu0 2.253771 1_555
Cl16 Cu4 2.451253 1_555
Cl16 Rb0 3.623393 1_555
Cl16 Rb8 3.679242 1_655
Cl16 Rb10 3.788799 1_554
Cl17 Cu1 2.253771 1_555
Cl17 Cu5 2.451253 1_555
Cl17 Rb1 3.623393 1_555
Cl17 Rb9 3.679242 1_555
Cl17 Rb11 3.788799 1_546
Cl18 Cu2 2.253771 1_555
Cl18 Cu6 2.451253 1_555
Cl18 Rb2 3.623393 1_555
Cl18 Rb10 3.679242 1_455
Cl18 Rb8 3.788799 1_556
Cl19 Cu3 2.253771 1_555
Cl19 Cu7 2.451253 1_555
Cl19 Rb3 3.623393 1_555
Cl19 Rb11 3.679242 1_555
Cl19 Rb9 3.788799 1_564
Cl20 Cu8 2.242249 1_555
Cl20 Rb5 3.464358 1_555
Cl20 Rb0 3.565859 1_455
Cl20 Rb1 3.583860 1_555
Cl20 Rb8 3.618819 1_555
Cl21 Cu9 2.242249 1_555
Cl21 Rb4 3.464358 1_545
Cl21 Rb1 3.565859 1_555
Cl21 Rb0 3.583860 1_555
Cl21 Rb9 3.618819 1_555
Cl22 Cu10 2.242249 1_555
Cl22 Rb7 3.464358 1_555
Cl22 Rb2 3.565859 1_655
Cl22 Rb3 3.583860 1_555
Cl22 Rb10 3.618819 1_555
Cl23 Cu11 2.242249 1_555
Cl23 Rb6 3.464358 1_565
Cl23 Rb3 3.565859 1_555
Cl23 Rb2 3.583860 1_555
Cl23 Rb11 3.618819 1_555
Cl24 Cu3 2.239636 1_555
Cl24 Cu4 2.859528 1_555
Cl24 Rb11 3.372208 1_555
Cl24 Rb10 3.465774 1_554
Cl25 Cu2 2.239636 1_555
Cl25 Cu5 2.859528 1_565
Cl25 Rb10 3.372208 1_455
Cl25 Rb11 3.465774 1_556
Cl26 Cu1 2.239636 1_555
Cl26 Cu6 2.859528 1_555
Cl26 Rb9 3.372208 1_555
Cl26 Rb8 3.465774 1_556
Cl27 Cu0 2.239636 1_555
Cl27 Cu7 2.859528 1_545
Cl27 Rb8 3.372208 1_655
Cl27 Rb9 3.465774 1_554
Cl28 Cu4 2.260842 1_555
Cl28 Rb5 3.309836 1_655
Cl28 Rb3 3.467289 1_555
Cl28 Rb7 3.632838 1_555
Cl28 Rb0 3.746365 1_555
Cl29 Cu5 2.260842 1_555
Cl29 Rb4 3.309836 1_545
Cl29 Rb2 3.467289 1_545
Cl29 Rb6 3.632838 1_555
Cl29 Rb1 3.746365 1_555
Cl30 Cu6 2.260842 1_555
Cl30 Rb7 3.309836 1_455
Cl30 Rb1 3.467289 1_555
Cl30 Rb5 3.632838 1_555
Cl30 Rb2 3.746365 1_555
Cl31 Cu7 2.260842 1_555
Cl31 Rb6 3.309836 1_565
Cl31 Rb0 3.467289 1_565
Cl31 Rb4 3.632838 1_555
Cl31 Rb3 3.746365 1_555
