# generated using pymatgen
data_LaVZnCrO6
_symmetry_space_group_name_H-M   'P 1'
_cell_length_a   5.44874600
_cell_length_b   5.35564200
_cell_length_c   9.44730929
_cell_angle_alpha   55.34264690
_cell_angle_beta   90.00000000
_cell_angle_gamma   90.00000000
_symmetry_Int_Tables_number   1
_chemical_formula_structural   LaVZnCrO6
_chemical_formula_sum   'La2 V2 Zn2 Cr2 O12'
_cell_volume   226.77115144
_cell_formula_units_Z   2
loop_
 _symmetry_equiv_pos_site_id
 _symmetry_equiv_pos_as_xyz
  1  'x, y, z'
loop_
 _atom_site_type_symbol
 _atom_site_label
 _atom_site_symmetry_multiplicity
 _atom_site_fract_x
 _atom_site_fract_y
 _atom_site_fract_z
 _atom_site_occupancy
  La  La0  1  0.21287700  0.74472800  0.24888700  1
  La  La1  1  0.78712300  0.74472800  0.74888700  1
  V  V0  1  0.26456000  0.50253700  0.99976000  1
  V  V1  1  0.73544000  0.50253700  0.49976000  1
  Zn  Zn0  1  0.73396400  0.25615500  0.25182000  1
  Zn  Zn1  1  0.26603600  0.25615500  0.75182000  1
  Cr  Cr0  1  0.25202900  0.00137900  0.49848500  1
  Cr  Cr1  1  0.74797100  0.00137900  0.99848500  1
  O  O0  1  0.70690100  0.17488900  0.74887100  1
  O  O1  1  0.46832300  0.72913800  0.05273300  1
  O  O2  1  0.47588300  0.33572800  0.45426400  1
  O  O3  1  0.95412600  0.62938800  0.05356700  1
  O  O4  1  0.94341500  0.25151500  0.43939400  1
  O  O5  1  0.22946700  0.87454300  0.75221900  1
  O  O6  1  0.29309900  0.17488900  0.24887100  1
  O  O7  1  0.53167700  0.72913800  0.55273300  1
  O  O8  1  0.52411700  0.33572800  0.95426400  1
  O  O9  1  0.04587400  0.62938800  0.55356700  1
  O  O10  1  0.05658500  0.25151500  0.93939400  1
  O  O11  1  0.77053300  0.87454300  0.25221900  1
loop_
_geom_bond_atom_site_label_1
_geom_bond_atom_site_label_2
_geom_bond_distance
_geom_bond_site_symmetry_2
La0 O6 2.344805 1_565
La0 O1 2.356757 1_555
La0 O2 2.404707 1_555
La0 O11 2.513644 1_455
La0 O4 2.639188 1_455
La0 O3 2.659067 1_455
La0 O9 2.733603 1_555
La0 O10 2.759567 1_564
La1 O0 2.344805 1_565
La1 O7 2.356757 1_555
La1 O8 2.404707 1_555
La1 O5 2.513644 1_655
La1 O10 2.639188 1_655
La1 O9 2.659067 1_655
La1 O3 2.733603 1_556
La1 O4 2.759567 1_565
Cr0 O7 1.964788 1_545
Cr0 O6 1.995572 1_555
Cr0 O2 2.004465 1_555
Cr0 O4 2.020732 1_455
Cr0 O9 2.079069 1_545
Cr0 O5 2.090622 1_545
Cr1 O1 1.964788 1_546
Cr1 O0 1.995572 1_555
Cr1 O8 2.004465 1_555
Cr1 O10 2.020732 1_655
Cr1 O3 2.079069 1_546
Cr1 O11 2.090622 1_546
O0 V1 1.986238 1_555
O0 Zn1 2.444253 1_555
O1 V0 1.909628 1_554
O1 Zn0 2.574988 1_555
O2 V1 1.849243 1_555
O2 Zn0 2.596905 1_555
O3 V0 1.993441 1_654
O3 Zn0 2.164397 1_555
O4 V1 2.070929 1_555
O4 Zn0 2.095997 1_555
O5 V0 2.043488 1_555
O5 Zn1 2.051336 1_565
O6 V0 1.986238 1_554
O6 Zn0 2.444253 1_555
O7 V1 1.909628 1_555
O7 Zn1 2.574988 1_555
O8 V0 1.849243 1_555
O8 Zn1 2.596905 1_555
O9 V1 1.993441 1_455
O9 Zn1 2.164397 1_555
O10 V0 2.070929 1_555
O10 Zn1 2.095997 1_555
O11 V1 2.043488 1_555
O11 Zn0 2.051336 1_565
