# generated using pymatgen
data_PrEuCuS3
_symmetry_space_group_name_H-M   'P 1'
_cell_length_a   4.07213600
_cell_length_b   11.12850700
_cell_length_c   11.50266800
_cell_angle_alpha   90.00000000
_cell_angle_beta   90.00000000
_cell_angle_gamma   90.00000000
_symmetry_Int_Tables_number   1
_chemical_formula_structural   PrEuCuS3
_chemical_formula_sum   'Pr4 Eu4 Cu4 S12'
_cell_volume   521.26403599
_cell_formula_units_Z   4
loop_
 _symmetry_equiv_pos_site_id
 _symmetry_equiv_pos_as_xyz
  1  'x, y, z'
loop_
 _atom_site_type_symbol
 _atom_site_label
 _atom_site_symmetry_multiplicity
 _atom_site_fract_x
 _atom_site_fract_y
 _atom_site_fract_z
 _atom_site_occupancy
  Pr  Pr0  1  0.25000000  0.48809600  0.68336800  1
  Pr  Pr1  1  0.25000000  0.98809600  0.81663200  1
  Pr  Pr2  1  0.75000000  0.51190400  0.31663200  1
  Pr  Pr3  1  0.75000000  0.01190400  0.18336800  1
  Eu  Eu0  1  0.25000000  0.31750500  0.00542700  1
  Eu  Eu1  1  0.25000000  0.81750500  0.49457300  1
  Eu  Eu2  1  0.75000000  0.68249500  0.99457300  1
  Eu  Eu3  1  0.75000000  0.18249500  0.50542700  1
  Cu  Cu0  1  0.25000000  0.24443300  0.28616100  1
  Cu  Cu1  1  0.25000000  0.74443300  0.21383900  1
  Cu  Cu2  1  0.75000000  0.75556700  0.71383900  1
  Cu  Cu3  1  0.75000000  0.25556700  0.78616100  1
  S  S0  1  0.25000000  0.22220100  0.69194800  1
  S  S1  1  0.25000000  0.72220100  0.80805200  1
  S  S2  1  0.75000000  0.77779900  0.30805200  1
  S  S3  1  0.75000000  0.27779900  0.19194800  1
  S  S4  1  0.25000000  0.38355500  0.44297500  1
  S  S5  1  0.25000000  0.88355500  0.05702500  1
  S  S6  1  0.75000000  0.61644500  0.55702500  1
  S  S7  1  0.75000000  0.11644500  0.94297500  1
  S  S8  1  0.25000000  0.05013300  0.36284300  1
  S  S9  1  0.25000000  0.55013300  0.13715700  1
  S  S10  1  0.75000000  0.94986700  0.63715700  1
  S  S11  1  0.75000000  0.44986700  0.86284300  1
loop_
_geom_bond_atom_site_label_1
_geom_bond_atom_site_label_2
_geom_bond_distance
_geom_bond_site_symmetry_2
Pr0 S6 2.880579 1_555
Pr0 S6 2.880579 1_455
Pr0 S11 2.930611 1_455
Pr0 S11 2.930611 1_555
Pr0 S0 2.960660 1_555
Pr0 S1 2.973919 1_555
Pr0 S4 2.999930 1_555
Pr1 S7 2.880579 1_565
Pr1 S7 2.880579 1_465
Pr1 S10 2.930611 1_555
Pr1 S10 2.930611 1_455
Pr1 S1 2.960660 1_555
Pr1 S0 2.973919 1_565
Pr1 S5 2.999930 1_556
Pr2 S4 2.880579 1_555
Pr2 S4 2.880579 1_655
Pr2 S9 2.930611 1_555
Pr2 S9 2.930611 1_655
Pr2 S2 2.960660 1_555
Pr2 S3 2.973919 1_555
Pr2 S6 2.999930 1_555
Pr3 S5 2.880579 1_545
Pr3 S5 2.880579 1_645
Pr3 S8 2.930611 1_555
Pr3 S8 2.930611 1_655
Pr3 S3 2.960660 1_555
Pr3 S2 2.973919 1_545
Pr3 S7 2.999930 1_554
Eu0 S3 2.990643 1_555
Eu0 S3 2.990643 1_455
Eu0 S9 2.999645 1_555
Eu0 S11 3.000865 1_454
Eu0 S11 3.000865 1_554
Eu0 S7 3.109343 1_554
Eu0 S7 3.109343 1_454
Eu1 S2 2.990643 1_555
Eu1 S2 2.990643 1_455
Eu1 S8 2.999645 1_565
Eu1 S10 3.000865 1_455
Eu1 S10 3.000865 1_555
Eu1 S6 3.109343 1_455
Eu1 S6 3.109343 1_555
Eu2 S1 2.990643 1_555
Eu2 S1 2.990643 1_655
Eu2 S11 2.999645 1_555
Eu2 S9 3.000865 1_556
Eu2 S9 3.000865 1_656
Eu2 S5 3.109343 1_656
Eu2 S5 3.109343 1_556
Eu3 S0 2.990643 1_555
Eu3 S0 2.990643 1_655
Eu3 S10 2.999645 1_545
Eu3 S8 3.000865 1_555
Eu3 S8 3.000865 1_655
Eu3 S4 3.109343 1_555
Eu3 S4 3.109343 1_655
Cu0 S8 2.335255 1_555
Cu0 S3 2.336205 1_455
Cu0 S3 2.336205 1_555
Cu0 S4 2.377100 1_555
Cu1 S9 2.335255 1_555
Cu1 S2 2.336205 1_555
Cu1 S2 2.336205 1_455
Cu1 S5 2.377100 1_555
Cu2 S10 2.335255 1_555
Cu2 S1 2.336205 1_655
Cu2 S1 2.336205 1_555
Cu2 S6 2.377100 1_555
Cu3 S11 2.335255 1_555
Cu3 S0 2.336205 1_555
Cu3 S0 2.336205 1_655
Cu3 S7 2.377100 1_555
