# generated using pymatgen
data_CoCuNiS4
_symmetry_space_group_name_H-M   'P 1'
_cell_length_a   6.71774209
_cell_length_b   6.71774209
_cell_length_c   6.71774209
_cell_angle_alpha   120.27411138
_cell_angle_beta   119.62714154
_cell_angle_gamma   90.08645058
_symmetry_Int_Tables_number   1
_chemical_formula_structural   CoCuNiS4
_chemical_formula_sum   'Co2 Cu2 Ni2 S8'
_cell_volume   214.51672455
_cell_formula_units_Z   2
loop_
 _symmetry_equiv_pos_site_id
 _symmetry_equiv_pos_as_xyz
  1  'x, y, z'
loop_
 _atom_site_type_symbol
 _atom_site_label
 _atom_site_symmetry_multiplicity
 _atom_site_fract_x
 _atom_site_fract_y
 _atom_site_fract_z
 _atom_site_occupancy
  Co  Co0  1  0.50000000  0.00000000  0.00000000  1
  Co  Co1  1  0.50000000  0.50000000  0.50000000  1
  Cu  Cu0  1  0.87652200  0.62652200  0.25000000  1
  Cu  Cu1  1  0.12347800  0.37347800  0.75000000  1
  Ni  Ni0  1  0.50000000  0.00000000  0.50000000  1
  Ni  Ni1  1  0.00000000  0.00000000  0.00000000  1
  S  S0  1  0.73553200  0.75908500  0.52355300  1
  S  S1  1  0.73553200  0.21197900  0.97644700  1
  S  S2  1  0.73253000  0.76032200  0.97220800  1
  S  S3  1  0.28811400  0.76032200  0.52779200  1
  S  S4  1  0.26446800  0.24091500  0.47644700  1
  S  S5  1  0.26446800  0.78802100  0.02355300  1
  S  S6  1  0.26747000  0.23967800  0.02779200  1
  S  S7  1  0.71188600  0.23967800  0.47220800  1
loop_
_geom_bond_atom_site_label_1
_geom_bond_atom_site_label_2
_geom_bond_distance
_geom_bond_site_symmetry_2
Co0 S5 2.241486 1_545
Co0 S1 2.241486 1_554
Co0 S7 2.249487 1_555
Co0 S6 2.249487 1_555
Co0 S3 2.249487 1_544
Co0 S2 2.249487 1_544
Co1 S4 2.241486 1_555
Co1 S0 2.241486 1_555
Co1 S3 2.249487 1_555
Co1 S2 2.249487 1_555
Co1 S7 2.249487 1_555
Co1 S6 2.249487 1_555
Cu0 S2 2.266088 1_554
Cu0 S3 2.266088 1_655
Cu0 S0 2.267259 1_555
Cu0 S1 2.267259 1_554
Cu1 S7 2.266088 1_455
Cu1 S6 2.266088 1_556
Cu1 S5 2.267259 1_556
Cu1 S4 2.267259 1_555
Ni0 S0 2.272918 1_545
Ni0 S1 2.272918 1_555
Ni0 S4 2.272918 1_555
Ni0 S5 2.272918 1_545
Ni0 S3 2.283033 1_545
Ni0 S7 2.283033 1_555
Ni1 S4 2.272918 1_555
Ni1 S5 2.272918 1_545
Ni1 S1 2.272918 1_454
Ni1 S0 2.272918 1_444
Ni1 S2 2.283033 1_444
Ni1 S6 2.283033 1_555
