# generated using pymatgen
data_Nb3Sb3O13
_symmetry_space_group_name_H-M   'P 1'
_cell_length_a   7.56466453
_cell_length_b   7.56466453
_cell_length_c   7.57725513
_cell_angle_alpha   60.30096574
_cell_angle_beta   60.30096574
_cell_angle_gamma   59.46649604
_symmetry_Int_Tables_number   1
_chemical_formula_structural   Nb3Sb3O13
_chemical_formula_sum   'Nb3 Sb3 O13'
_cell_volume   306.71832617
_cell_formula_units_Z   1
loop_
 _symmetry_equiv_pos_site_id
 _symmetry_equiv_pos_as_xyz
  1  'x, y, z'
loop_
 _atom_site_type_symbol
 _atom_site_label
 _atom_site_symmetry_multiplicity
 _atom_site_fract_x
 _atom_site_fract_y
 _atom_site_fract_z
 _atom_site_occupancy
  Nb  Nb0  1  0.49658000  0.99502600  0.98632600  1
  Nb  Nb1  1  0.99502600  0.49658000  0.98632600  1
  Nb  Nb2  1  0.49801000  0.49801000  0.51471300  1
  Sb  Sb0  1  0.49652000  0.49652000  0.01338600  1
  Sb  Sb1  1  0.01159800  0.48202800  0.43117100  1
  Sb  Sb2  1  0.48202800  0.01159800  0.43117100  1
  O  O0  1  0.42560100  0.80755800  0.95405800  1
  O  O1  1  0.82492300  0.44615700  0.33495600  1
  O  O2  1  0.80755800  0.42560100  0.95405800  1
  O  O3  1  0.44615700  0.82492300  0.33495600  1
  O  O4  1  0.79799800  0.79799800  0.96375400  1
  O  O5  1  0.43929500  0.43929500  0.32424900  1
  O  O6  1  0.55192800  0.17746000  0.10399000  1
  O  O7  1  0.19120900  0.56091800  0.69718700  1
  O  O8  1  0.17746000  0.55192800  0.10399000  1
  O  O9  1  0.56091800  0.19120900  0.69718700  1
  O  O10  1  0.19680600  0.19680600  0.06034600  1
  O  O11  1  0.55637900  0.55637900  0.70845200  1
  O  O12  1  0.16900400  0.16900400  0.52472200  1
loop_
_geom_bond_atom_site_label_1
_geom_bond_atom_site_label_2
_geom_bond_distance
_geom_bond_site_symmetry_2
Nb0 O0 1.899086 1_555
Nb0 O9 1.922190 1_565
Nb0 O10 1.964136 1_566
Nb0 O4 1.965392 1_555
Nb0 O3 2.216229 1_556
Nb0 O6 2.247429 1_566
Nb1 O2 1.899086 1_555
Nb1 O7 1.922190 1_655
Nb1 O10 1.964136 1_656
Nb1 O4 1.965392 1_555
Nb1 O1 2.216229 1_556
Nb1 O8 2.247429 1_656
Nb2 O9 1.968402 1_555
Nb2 O7 1.968402 1_555
Nb2 O5 1.986995 1_555
Nb2 O11 2.006896 1_555
Nb2 O3 2.081067 1_555
Nb2 O1 2.081067 1_555
O0 Sb0 1.983514 1_556
O1 Sb1 2.050552 1_655
O2 Sb0 1.983514 1_556
O3 Sb2 2.050552 1_565
O5 Sb0 2.023060 1_555
O6 Sb0 2.021808 1_555
O6 Sb2 2.071935 1_555
O8 Sb0 2.021808 1_555
O8 Sb1 2.071935 1_555
O11 Sb0 1.970705 1_556
O12 Sb1 1.958469 1_555
O12 Sb2 1.958469 1_555
