# generated using pymatgen
data_Eu2H3Br
_symmetry_space_group_name_H-M   'P 1'
_cell_length_a   4.06916698
_cell_length_b   4.06917311
_cell_length_c   7.09345706
_cell_angle_alpha   89.99983518
_cell_angle_beta   90.00014704
_cell_angle_gamma   120.00010799
_symmetry_Int_Tables_number   1
_chemical_formula_structural   Eu2H3Br
_chemical_formula_sum   'Eu2 H3 Br1'
_cell_volume   101.71846115
_cell_formula_units_Z   1
loop_
 _symmetry_equiv_pos_site_id
 _symmetry_equiv_pos_as_xyz
  1  'x, y, z'
loop_
 _atom_site_type_symbol
 _atom_site_label
 _atom_site_symmetry_multiplicity
 _atom_site_fract_x
 _atom_site_fract_y
 _atom_site_fract_z
 _atom_site_occupancy
  Eu  Eu0  1  0.66666068  0.33333482  0.69023443  1
  Eu  Eu1  1  0.33333932  0.66666518  0.30976557  1
  H  H0  1  0.66667244  0.33333243  0.35293429  1
  H  H1  1  0.33332756  0.66666757  0.64706571  1
  H  H2  1  0.00000000  0.00000000  0.50000000  1
  Br  Br0  1  0.00000000  0.00000000  0.00000000  1
loop_
_geom_bond_atom_site_label_1
_geom_bond_atom_site_label_2
_geom_bond_distance
_geom_bond_site_symmetry_2
Eu0 H1 2.369205 1_655
Eu0 H1 2.369206 1_555
Eu0 H1 2.369210 1_545
Eu0 H0 2.392624 1_555
Eu0 H2 2.709278 1_555
Eu0 H2 2.709294 1_665
Eu0 H2 2.709329 1_655
Eu1 H0 2.369205 1_455
Eu1 H0 2.369206 1_555
Eu1 H0 2.369210 1_565
Eu1 H1 2.392624 1_555
Eu1 H2 2.709278 1_665
Eu1 H2 2.709294 1_555
Eu1 H2 2.709329 1_565
Br0 Eu0 3.216744 1_554
Br0 Eu1 3.216744 1_445
Br0 Eu1 3.216759 1_555
Br0 Eu0 3.216759 1_444
Br0 Eu0 3.216776 1_454
Br0 Eu1 3.216776 1_545
