# generated using pymatgen
data_Ca10VP5(O12F)2
_symmetry_space_group_name_H-M   'P 1'
_cell_length_a   6.97893500
_cell_length_b   9.50546500
_cell_length_c   9.51700708
_cell_angle_alpha   60.28858879
_cell_angle_beta   90.00000000
_cell_angle_gamma   90.00000000
_symmetry_Int_Tables_number   1
_chemical_formula_structural   Ca10VP5(O12F)2
_chemical_formula_sum   'Ca10 V1 P5 O24 F2'
_cell_volume   548.33901454
_cell_formula_units_Z   1
loop_
 _symmetry_equiv_pos_site_id
 _symmetry_equiv_pos_as_xyz
  1  'x, y, z'
loop_
 _atom_site_type_symbol
 _atom_site_label
 _atom_site_symmetry_multiplicity
 _atom_site_fract_x
 _atom_site_fract_y
 _atom_site_fract_z
 _atom_site_occupancy
  Ca  Ca0  1  0.50000000  0.00891300  0.48820800  1
  Ca  Ca1  1  0.74983700  0.67260800  0.90547400  1
  Ca  Ca2  1  0.25016300  0.67260800  0.90547400  1
  Ca  Ca3  1  0.74805500  0.33449000  0.58164800  1
  Ca  Ca4  1  0.25194500  0.33449000  0.58164800  1
  Ca  Ca5  1  0.50000000  0.24782000  0.99672400  1
  Ca  Ca6  1  0.00000000  0.76464200  0.49735600  1
  Ca  Ca7  1  0.00000000  0.24836800  0.23806200  1
  Ca  Ca8  1  0.00000000  0.00166600  0.99783700  1
  Ca  Ca9  1  0.50000000  0.76404400  0.24622000  1
  V  V0  1  0.00000000  0.60766400  0.27432800  1
  P  P0  1  0.50000000  0.63403000  0.64573100  1
  P  P1  1  0.50000000  0.97525900  0.87720300  1
  P  P2  1  0.00000000  0.37294700  0.84581000  1
  P  P3  1  0.00000000  0.03233000  0.60991200  1
  P  P4  1  0.50000000  0.40318100  0.21483500  1
  O  O0  1  0.50000000  0.53542300  0.83506900  1
  O  O1  1  0.00000000  0.69571300  0.06443100  1
  O  O2  1  0.50000000  0.51787400  0.57494200  1
  O  O3  1  0.50000000  0.16203000  0.76207000  1
  O  O4  1  0.67958800  0.34680600  0.15909700  1
  O  O5  1  0.32041200  0.34680600  0.15909700  1
  O  O6  1  0.82078500  0.26063700  0.90170900  1
  O  O7  1  0.17921500  0.26063700  0.90170900  1
  O  O8  1  0.00000000  0.48695100  0.91891800  1
  O  O9  1  0.67882800  0.92113000  0.98903600  1
  O  O10  1  0.32117200  0.92113000  0.98903600  1
  O  O11  1  0.50000000  0.88444400  0.77843300  1
  O  O12  1  0.00000000  0.39641000  0.37889900  1
  O  O13  1  0.50000000  0.33054500  0.40188800  1
  O  O14  1  0.00000000  0.12064500  0.71165700  1
  O  O15  1  0.67873900  0.74608500  0.59189700  1
  O  O16  1  0.32126100  0.74608500  0.59189700  1
  O  O17  1  0.50000000  0.59268500  0.12462000  1
  O  O18  1  0.00000000  0.47093400  0.65682400  1
  O  O19  1  0.82032400  0.08712500  0.49890900  1
  O  O20  1  0.17967600  0.08712500  0.49890900  1
  O  O21  1  0.00000000  0.84536900  0.72068100  1
  O  O22  1  0.80575100  0.66943300  0.34159600  1
  O  O23  1  0.19424900  0.66943300  0.34159600  1
  F  F0  1  0.50000000  0.00822700  0.24474300  1
  F  F1  1  0.00000000  0.00181100  0.24332900  1
loop_
_geom_bond_atom_site_label_1
_geom_bond_atom_site_label_2
_geom_bond_distance
_geom_bond_site_symmetry_2
Ca0 F0 2.320297 1_555
Ca0 O19 2.373959 1_555
Ca0 O20 2.373959 1_555
Ca0 O11 2.406139 1_545
Ca0 O15 2.515457 1_545
Ca0 O16 2.515457 1_545
Ca0 O13 2.744468 1_555
Ca1 O1 2.390438 1_656
Ca1 O8 2.440283 1_655
Ca1 O21 2.444366 1_655
Ca1 O0 2.460819 1_555
Ca1 O11 2.478556 1_555
Ca1 O17 2.529122 1_556
Ca1 O15 2.752092 1_555
Ca1 O4 2.871841 1_556
Ca1 O9 2.884582 1_555
Ca2 O1 2.390438 1_556
Ca2 O8 2.440283 1_555
Ca2 O21 2.444366 1_555
Ca2 O0 2.460819 1_555
Ca2 O11 2.478556 1_555
Ca2 O17 2.529122 1_556
Ca2 O16 2.752092 1_555
Ca2 O5 2.871841 1_556
Ca2 O10 2.884582 1_555
Ca3 O3 2.417102 1_555
Ca3 O2 2.435012 1_555
Ca3 O13 2.447176 1_555
Ca3 O12 2.456727 1_655
Ca3 O18 2.491071 1_655
Ca3 O14 2.502265 1_655
Ca3 O6 2.812304 1_555
Ca3 O19 2.870269 1_555
Ca3 O22 2.882338 1_555
Ca4 O3 2.417102 1_555
Ca4 O2 2.435012 1_555
Ca4 O13 2.447176 1_555
Ca4 O12 2.456727 1_555
Ca4 O18 2.491071 1_555
Ca4 O14 2.502265 1_555
Ca4 O7 2.812304 1_555
Ca4 O20 2.870269 1_555
Ca4 O23 2.882338 1_555
Ca5 F0 2.330133 1_556
Ca5 O0 2.381476 1_555
Ca5 O6 2.394842 1_555
Ca5 O7 2.394842 1_555
Ca5 O4 2.507071 1_556
Ca5 O5 2.507071 1_556
Ca5 O3 2.730825 1_555
Ca6 F1 2.350411 1_565
Ca6 O16 2.389596 1_555
Ca6 O15 2.389596 1_455
Ca6 O18 2.428493 1_555
Ca6 O22 2.486780 1_455
Ca6 O23 2.486780 1_555
Ca6 O21 2.592826 1_555
Ca7 F1 2.319204 1_555
Ca7 O12 2.376222 1_555
Ca7 O5 2.396571 1_555
Ca7 O4 2.396571 1_455
Ca7 O20 2.512490 1_555
Ca7 O19 2.512490 1_455
Ca7 O8 2.745969 1_554
Ca8 F1 2.337033 1_556
Ca8 O14 2.375626 1_555
Ca8 O9 2.383414 1_445
Ca8 O10 2.383414 1_545
Ca8 O7 2.495714 1_555
Ca8 O6 2.495714 1_455
Ca8 O1 2.651865 1_546
Ca9 F0 2.314138 1_565
Ca9 O23 2.318768 1_555
Ca9 O22 2.318768 1_555
Ca9 O17 2.420941 1_555
Ca9 O10 2.480968 1_554
Ca9 O9 2.480968 1_554
Ca9 O2 2.829509 1_555
O0 P0 1.565661 1_555
O1 V0 1.741717 1_555
O2 P0 1.552511 1_555
O3 P1 1.556974 1_545
O4 P4 1.556008 1_555
O5 P4 1.556008 1_555
O6 P2 1.556937 1_655
O7 P2 1.556937 1_555
O8 P2 1.551066 1_555
O9 P1 1.553141 1_555
O10 P1 1.553141 1_555
O11 P1 1.559847 1_555
O12 V0 1.744073 1_555
O13 P4 1.558009 1_555
O14 P3 1.564643 1_555
O15 P0 1.553090 1_555
O16 P0 1.553090 1_555
O17 P4 1.564883 1_555
O18 P2 1.562638 1_555
O19 P3 1.553788 1_655
O20 P3 1.553788 1_555
O21 P3 1.553221 1_565
O22 V0 1.721909 1_655
O23 V0 1.721909 1_555
