# generated using pymatgen
data_SrLa2Mn2O7
_symmetry_space_group_name_H-M   'P 1'
_cell_length_a   3.93998300
_cell_length_b   3.94002800
_cell_length_c   20.52060900
_cell_angle_alpha   89.99994020
_cell_angle_beta   89.99991170
_cell_angle_gamma   89.99534654
_symmetry_Int_Tables_number   1
_chemical_formula_structural   SrLa2Mn2O7
_chemical_formula_sum   'Sr2 La4 Mn4 O14'
_cell_volume   318.55461470
_cell_formula_units_Z   2
loop_
 _symmetry_equiv_pos_site_id
 _symmetry_equiv_pos_as_xyz
  1  'x, y, z'
loop_
 _atom_site_type_symbol
 _atom_site_label
 _atom_site_symmetry_multiplicity
 _atom_site_fract_x
 _atom_site_fract_y
 _atom_site_fract_z
 _atom_site_occupancy
  Sr  Sr0  1  0.49999600  0.49999900  0.18345700  1
  Sr  Sr1  1  0.99999600  0.99999600  0.68348900  1
  La  La0  1  0.50002000  0.49999100  0.00432400  1
  La  La1  1  0.99999200  0.00000300  0.50431300  1
  La  La2  1  0.99999800  0.00000200  0.31784400  1
  La  La3  1  0.50000700  0.50001000  0.81786100  1
  Mn  Mn0  1  0.00000000  0.00000200  0.90231600  1
  Mn  Mn1  1  0.00000300  0.00000200  0.09867600  1
  Mn  Mn2  1  0.49999900  0.49999800  0.40231000  1
  Mn  Mn3  1  0.49999700  0.50000100  0.59867800  1
  O  O0  1  0.50000100  0.49999900  0.30317300  1
  O  O1  1  0.99999900  0.99999900  0.80318100  1
  O  O2  1  0.00000000  0.99999900  0.20673600  1
  O  O3  1  0.50000000  0.50000000  0.70674800  1
  O  O4  1  0.50000100  0.50000100  0.49613200  1
  O  O5  1  0.99999900  0.00000300  0.99614200  1
  O  O6  1  0.99999900  0.49999800  0.40227000  1
  O  O7  1  0.49999900  0.99999800  0.90227800  1
  O  O8  1  0.49999800  0.00000000  0.40227100  1
  O  O9  1  0.99999800  0.49999900  0.90227800  1
  O  O10  1  0.50000100  0.00000000  0.09138100  1
  O  O11  1  0.99999800  0.50000000  0.59138100  1
  O  O12  1  0.00000000  0.50000000  0.09138100  1
  O  O13  1  0.49999900  0.00000000  0.59138100  1
loop_
_geom_bond_atom_site_label_1
_geom_bond_atom_site_label_2
_geom_bond_distance
_geom_bond_site_symmetry_2
La0 O12 2.659326 1_655
La0 O10 2.659372 1_555
La0 O10 2.659427 1_565
La0 O12 2.659439 1_555
La0 O5 2.790855 1_554
La0 O5 2.791038 1_464
La0 O5 2.791147 1_564
La0 O5 2.791198 1_454
La0 O9 2.874985 1_554
La0 O7 2.875045 1_544
La0 O7 2.875080 1_554
La0 O9 2.875109 1_454
La1 O13 2.659512 1_555
La1 O11 2.659543 1_555
La1 O13 2.659557 1_655
La1 O11 2.659558 1_545
La1 O4 2.790915 1_555
La1 O4 2.790976 1_645
La1 O4 2.791152 1_545
La1 O4 2.791190 1_655
La1 O8 2.874973 1_555
La1 O8 2.875001 1_655
La1 O6 2.875003 1_555
La1 O6 2.875033 1_545
La2 O2 2.280004 1_645
La2 O6 2.623426 1_555
La2 O8 2.623431 1_555
La2 O8 2.623435 1_655
La2 O6 2.623447 1_545
La2 O0 2.802095 1_555
La2 O0 2.802128 1_645
La2 O0 2.802336 1_655
La2 O0 2.802337 1_545
La3 O3 2.280106 1_555
La3 O9 2.623273 1_555
La3 O7 2.623280 1_555
La3 O9 2.623322 1_455
La3 O7 2.623348 1_545
La3 O1 2.802123 1_455
La3 O1 2.802139 1_545
La3 O1 2.802303 1_555
La3 O1 2.802409 1_445
Mn0 O5 1.925367 1_455
Mn0 O7 1.969988 1_545
Mn0 O7 1.969996 1_445
Mn0 O9 1.970002 1_455
Mn0 O9 1.970026 1_445
Mn0 O1 2.034311 1_445
Mn1 O10 1.975663 1_555
Mn1 O10 1.975679 1_455
Mn1 O12 1.975685 1_555
Mn1 O12 1.975701 1_545
Mn1 O5 2.104060 1_454
Mn1 O2 2.217457 1_545
Mn2 O4 1.925285 1_555
Mn2 O6 1.969992 1_555
Mn2 O6 1.969992 1_455
Mn2 O8 1.970006 1_555
Mn2 O8 1.970022 1_565
Mn2 O0 2.034352 1_555
Mn3 O11 1.975670 1_455
Mn3 O11 1.975678 1_555
Mn3 O13 1.975692 1_565
Mn3 O13 1.975701 1_555
Mn3 O4 2.104306 1_555
Mn3 O3 2.217662 1_555
O0 Sr0 2.456645 1_555
O1 Sr1 2.456153 1_555
O2 Sr0 2.826539 1_555
O2 Sr0 2.826562 1_465
O2 Sr0 2.826762 1_565
O2 Sr0 2.826785 1_455
O3 Sr1 2.826481 1_545
O3 Sr1 2.826481 1_455
O3 Sr1 2.826681 1_555
O3 Sr1 2.826727 1_445
O10 Sr0 2.729650 1_555
O10 Sr0 2.729653 1_545
O11 Sr1 2.730096 1_555
O11 Sr1 2.730116 1_545
O12 Sr0 2.729626 1_555
O12 Sr0 2.729645 1_455
O13 Sr1 2.730083 1_545
O13 Sr1 2.730096 1_445
