# generated using pymatgen
data_CaCr2O6
_symmetry_space_group_name_H-M   'P 1'
_cell_length_a   5.33295000
_cell_length_b   5.38743638
_cell_length_c   7.37193480
_cell_angle_alpha   90.24255469
_cell_angle_beta   90.10872466
_cell_angle_gamma   90.45029363
_symmetry_Int_Tables_number   1
_chemical_formula_structural   CaCr2O6
_chemical_formula_sum   'Ca2 Cr4 O12'
_cell_volume   211.79370042
_cell_formula_units_Z   2
loop_
 _symmetry_equiv_pos_site_id
 _symmetry_equiv_pos_as_xyz
  1  'x, y, z'
loop_
 _atom_site_type_symbol
 _atom_site_label
 _atom_site_symmetry_multiplicity
 _atom_site_fract_x
 _atom_site_fract_y
 _atom_site_fract_z
 _atom_site_occupancy
  Ca  Ca0  1  0.49044900  0.54620200  0.73795100  1
  Ca  Ca1  1  0.98545800  0.95246200  0.25973500  1
  Cr  Cr0  1  0.44867900  0.01754800  0.99112600  1
  Cr  Cr1  1  0.95753600  0.48271800  0.00888300  1
  Cr  Cr2  1  0.97412200  0.49175200  0.49887200  1
  Cr  Cr3  1  0.48056300  0.01470100  0.49787500  1
  O  O0  1  0.06134000  0.50821700  0.24944600  1
  O  O1  1  0.56495300  0.99617400  0.76952100  1
  O  O2  1  0.45071400  0.01208700  0.23318500  1
  O  O3  1  0.95277900  0.48850900  0.75072600  1
  O  O4  1  0.29405100  0.28543300  0.53214200  1
  O  O5  1  0.79359900  0.21113000  0.46889900  1
  O  O6  1  0.23216400  0.78973600  0.97024300  1
  O  O7  1  0.73999500  0.71155000  0.02886600  1
  O  O8  1  0.29347500  0.28606200  0.96617400  1
  O  O9  1  0.80213700  0.20952400  0.03467500  1
  O  O10  1  0.72934300  0.71408000  0.47388500  1
  O  O11  1  0.23240100  0.78211700  0.52779500  1
loop_
_geom_bond_atom_site_label_1
_geom_bond_atom_site_label_2
_geom_bond_distance
_geom_bond_site_symmetry_2
Ca0 O4 2.307684 1_555
Ca0 O8 2.429356 1_555
Ca0 O11 2.438331 1_555
Ca0 O1 2.463430 1_555
Ca0 O3 2.489174 1_555
Ca0 O10 2.497370 1_555
Ca0 O6 2.563101 1_555
Ca0 O7 2.668014 1_556
Ca1 O5 2.318768 1_565
Ca1 O9 2.379292 1_565
Ca1 O0 2.431338 1_655
Ca1 O10 2.450501 1_555
Ca1 O7 2.498180 1_555
Ca1 O2 2.507515 1_665
Ca1 O11 2.550698 1_655
Ca1 O6 2.658373 1_654
Cr0 O8 1.682875 1_555
Cr0 O6 1.684850 1_545
Cr0 O1 1.752134 1_545
Cr0 O2 1.784824 1_556
Cr0 O9 2.165671 1_556
Cr0 O7 2.291548 1_546
Cr1 O9 1.694990 1_555
Cr1 O7 1.705593 1_555
Cr1 O0 1.861005 1_655
Cr1 O3 1.903629 1_554
Cr1 O8 2.111965 1_654
Cr1 O6 2.220241 1_654
Cr2 O10 1.788348 1_555
Cr2 O5 1.798549 1_555
Cr2 O3 1.860500 1_555
Cr2 O0 1.899790 1_655
Cr2 O4 2.058442 1_655
Cr2 O11 2.086136 1_655
Cr3 O4 1.789181 1_555
Cr3 O11 1.829645 1_545
Cr3 O2 1.957441 1_555
Cr3 O5 1.981901 1_555
Cr3 O1 2.054682 1_545
Cr3 O10 2.108734 1_545
