# generated using pymatgen
data_Li4MnCo2O7
_symmetry_space_group_name_H-M   'P 1'
_cell_length_a   6.46338500
_cell_length_b   6.62677656
_cell_length_c   6.65497378
_cell_angle_alpha   72.07414207
_cell_angle_beta   72.14537813
_cell_angle_gamma   71.52358525
_symmetry_Int_Tables_number   1
_chemical_formula_structural   Li4MnCo2O7
_chemical_formula_sum   'Li8 Mn2 Co4 O14'
_cell_volume   250.22733404
_cell_formula_units_Z   2
loop_
 _symmetry_equiv_pos_site_id
 _symmetry_equiv_pos_as_xyz
  1  'x, y, z'
loop_
 _atom_site_type_symbol
 _atom_site_label
 _atom_site_symmetry_multiplicity
 _atom_site_fract_x
 _atom_site_fract_y
 _atom_site_fract_z
 _atom_site_occupancy
  Li  Li0  1  0.56328800  0.64946000  0.29471400  1
  Li  Li1  1  0.43671200  0.35054000  0.70528600  1
  Li  Li2  1  0.28756000  0.06685100  0.14938200  1
  Li  Li3  1  0.71244000  0.93314900  0.85061800  1
  Li  Li4  1  0.85213400  0.20531400  0.43251000  1
  Li  Li5  1  0.00000000  0.50000000  0.00000000  1
  Li  Li6  1  0.14786600  0.79468600  0.56749000  1
  Li  Li7  1  0.50000000  0.00000000  0.50000000  1
  Mn  Mn0  1  0.78240000  0.57699900  0.63963100  1
  Mn  Mn1  1  0.21760000  0.42300100  0.36036900  1
  Co  Co0  1  0.64650800  0.28008100  0.07480200  1
  Co  Co1  1  0.35349200  0.71991900  0.92519800  1
  Co  Co2  1  0.08399700  0.13689600  0.77785300  1
  Co  Co3  1  0.91600300  0.86310400  0.22214700  1
  O  O0  1  0.48242200  0.66776600  0.61856900  1
  O  O1  1  0.32337000  0.39694800  0.06193600  1
  O  O2  1  0.17744100  0.13152600  0.46025200  1
  O  O3  1  0.63037000  0.96155800  0.17055500  1
  O  O4  1  0.76126100  0.26503900  0.75131000  1
  O  O5  1  0.89896800  0.53878700  0.34307000  1
  O  O6  1  0.05236300  0.81979100  0.89462800  1
  O  O7  1  0.67663000  0.60305200  0.93806400  1
  O  O8  1  0.51757800  0.33223400  0.38143100  1
  O  O9  1  0.36963000  0.03844200  0.82944500  1
  O  O10  1  0.82255900  0.86847400  0.53974800  1
  O  O11  1  0.94763700  0.18020900  0.10537200  1
  O  O12  1  0.10103200  0.46121300  0.65693000  1
  O  O13  1  0.23873900  0.73496100  0.24869000  1
loop_
_geom_bond_atom_site_label_1
_geom_bond_atom_site_label_2
_geom_bond_distance
_geom_bond_site_symmetry_2
Li0 O13 2.085414 1_555
Li0 O0 2.088774 1_555
Li0 O8 2.093281 1_555
Li0 O3 2.108297 1_555
Li0 O5 2.150124 1_555
Li0 O7 2.346282 1_554
Li1 O4 2.085414 1_555
Li1 O8 2.088774 1_555
Li1 O0 2.093281 1_555
Li1 O9 2.108297 1_555
Li1 O12 2.150124 1_555
Li1 O1 2.346282 1_556
Li2 O9 2.083525 1_554
Li2 O2 2.102347 1_555
Li2 O3 2.137080 1_545
Li2 O1 2.152205 1_555
Li2 O11 2.165685 1_455
Li2 O13 2.188785 1_545
Li3 O3 2.083525 1_556
Li3 O10 2.102347 1_555
Li3 O9 2.137080 1_565
Li3 O7 2.152205 1_555
Li3 O6 2.165685 1_655
Li3 O4 2.188785 1_565
Li4 O2 2.055447 1_655
Li4 O11 2.117132 1_555
Li4 O4 2.146685 1_555
Li4 O8 2.149597 1_555
Li4 O10 2.175911 1_545
Li4 O5 2.198448 1_555
Li5 O1 2.110675 1_555
Li5 O7 2.110675 1_454
Li5 O11 2.119318 1_455
Li5 O6 2.119318 1_554
Li5 O5 2.246277 1_455
Li5 O12 2.246277 1_554
Li6 O10 2.055447 1_455
Li6 O6 2.117132 1_555
Li6 O13 2.146685 1_555
Li6 O0 2.149597 1_555
Li6 O2 2.175911 1_565
Li6 O12 2.198448 1_555
Li7 O2 2.054420 1_555
Li7 O10 2.054420 1_545
Li7 O8 2.125307 1_555
Li7 O0 2.125307 1_545
Li7 O9 2.157928 1_555
Li7 O3 2.157928 1_545
Mn0 O0 1.875163 1_555
Mn0 O10 1.913555 1_555
Mn0 O7 1.935278 1_555
Mn0 O5 1.949818 1_555
Mn0 O12 1.983111 1_655
Mn0 O4 2.003919 1_555
Mn1 O8 1.875163 1_555
Mn1 O2 1.913555 1_555
Mn1 O1 1.935278 1_555
Mn1 O12 1.949818 1_555
Mn1 O5 1.983111 1_455
Mn1 O13 2.003919 1_555
Co0 O11 1.900266 1_555
Co0 O1 2.003207 1_555
Co0 O3 2.035473 1_545
Co0 O8 2.046165 1_555
Co0 O4 2.073845 1_554
Co0 O7 2.098394 1_554
Co1 O6 1.900266 1_555
Co1 O7 2.003207 1_555
Co1 O9 2.035473 1_565
Co1 O0 2.046165 1_555
Co1 O13 2.073845 1_556
Co1 O1 2.098394 1_556
Co2 O9 1.854508 1_555
Co2 O2 2.020728 1_555
Co2 O4 2.028408 1_455
Co2 O6 2.056984 1_545
Co2 O12 2.075979 1_555
Co2 O11 2.157948 1_456
Co3 O3 1.854508 1_555
Co3 O10 2.020728 1_555
Co3 O13 2.028408 1_655
Co3 O11 2.056984 1_565
Co3 O5 2.075979 1_555
Co3 O6 2.157948 1_654
