# generated using pymatgen
data_Be2Tl2Zn(O3F4)2
_symmetry_space_group_name_H-M   'P 1'
_cell_length_a   5.24673832
_cell_length_b   7.96462827
_cell_length_c   12.39847800
_cell_angle_alpha   90.00000000
_cell_angle_beta   90.00000000
_cell_angle_gamma   92.94029807
_symmetry_Int_Tables_number   1
_chemical_formula_structural   Be2Tl2Zn(O3F4)2
_chemical_formula_sum   'Be4 Tl4 Zn2 O12 F16'
_cell_volume   517.42949036
_cell_formula_units_Z   2
loop_
 _symmetry_equiv_pos_site_id
 _symmetry_equiv_pos_as_xyz
  1  'x, y, z'
loop_
 _atom_site_type_symbol
 _atom_site_label
 _atom_site_symmetry_multiplicity
 _atom_site_fract_x
 _atom_site_fract_y
 _atom_site_fract_z
 _atom_site_occupancy
  Be  Be0  1  0.75465800  0.58670700  0.87852100  1
  Be  Be1  1  0.24534200  0.41329300  0.12147900  1
  Be  Be2  1  0.24534200  0.91329300  0.37852100  1
  Be  Be3  1  0.75465800  0.08670700  0.62147900  1
  Tl  Tl0  1  0.78050200  0.66945600  0.17444500  1
  Tl  Tl1  1  0.21949800  0.33054400  0.82555500  1
  Tl  Tl2  1  0.21949800  0.83054400  0.67444500  1
  Tl  Tl3  1  0.78050200  0.16945600  0.32555500  1
  Zn  Zn0  1  0.50000000  0.00000000  0.00000000  1
  Zn  Zn1  1  0.50000000  0.50000000  0.50000000  1
  O  O0  1  0.28742900  0.92708800  0.84174100  1
  O  O1  1  0.71257100  0.07291200  0.15825900  1
  O  O2  1  0.71257100  0.57291200  0.34174100  1
  O  O3  1  0.28742900  0.42708800  0.65825900  1
  O  O4  1  0.43294400  0.58241400  0.64252200  1
  O  O5  1  0.56705600  0.41758600  0.35747800  1
  O  O6  1  0.56705600  0.91758600  0.14252200  1
  O  O7  1  0.43294400  0.08241400  0.85747800  1
  O  O8  1  0.92806800  0.00631500  0.95978600  1
  O  O9  1  0.07193200  0.99368500  0.04021400  1
  O  O10  1  0.07193200  0.49368500  0.45978600  1
  O  O11  1  0.92806800  0.50631500  0.54021400  1
  F  F0  1  0.45930800  0.57378200  0.85868700  1
  F  F1  1  0.54069200  0.42621800  0.14131300  1
  F  F2  1  0.54069200  0.92621800  0.35868700  1
  F  F3  1  0.45930800  0.07378200  0.64131300  1
  F  F4  1  0.83438600  0.89862200  0.61238300  1
  F  F5  1  0.16561400  0.10137800  0.38761700  1
  F  F6  1  0.16561400  0.60137800  0.11238300  1
  F  F7  1  0.83438600  0.39862200  0.88761700  1
  F  F8  1  0.77882200  0.69143400  0.98662900  1
  F  F9  1  0.22117800  0.30856600  0.01337100  1
  F  F10  1  0.22117800  0.80856600  0.48662900  1
  F  F11  1  0.77882200  0.19143400  0.51337100  1
  F  F12  1  0.92336700  0.66559600  0.78542500  1
  F  F13  1  0.07663300  0.33440400  0.21457500  1
  F  F14  1  0.07663300  0.83440400  0.28542500  1
  F  F15  1  0.92336700  0.16559600  0.71457500  1
loop_
_geom_bond_atom_site_label_1
_geom_bond_atom_site_label_2
_geom_bond_distance
_geom_bond_site_symmetry_2
Be0 F12 1.566381 1_555
Be0 F0 1.567176 1_555
Be0 F7 1.579898 1_555
Be0 F8 1.580371 1_555
Be1 F13 1.566381 1_555
Be1 F1 1.567176 1_555
Be1 F6 1.579898 1_555
Be1 F9 1.580371 1_555
Be2 F14 1.566381 1_555
Be2 F2 1.567176 1_555
Be2 F5 1.579898 1_565
Be2 F10 1.580371 1_555
Be3 F15 1.566381 1_555
Be3 F3 1.567176 1_555
Be3 F4 1.579898 1_545
Be3 F11 1.580371 1_555
O0 O7 1.433361 1_565
O0 Tl2 2.234402 1_555
O0 Zn0 2.316205 1_566
O1 O6 1.433361 1_545
O1 Tl3 2.234402 1_555
O1 Zn0 2.316205 1_555
O2 O5 1.433361 1_555
O2 Tl0 2.234402 1_555
O2 Zn1 2.316205 1_555
O3 O4 1.433361 1_555
O3 Tl1 2.234402 1_555
O3 Zn1 2.316205 1_555
O4 Zn1 1.923751 1_555
O4 Tl2 2.354462 1_555
O5 Zn1 1.923751 1_555
O5 Tl3 2.354462 1_555
O6 Zn0 1.923751 1_565
O6 Tl0 2.354462 1_555
O7 Zn0 1.923751 1_556
O7 Tl1 2.354462 1_555
O8 O9 1.257790 1_646
O8 Zn0 2.298668 1_556
O9 Zn0 2.298668 1_565
O10 O11 1.257790 1_455
O10 Zn1 2.298668 1_555
O11 Zn1 2.298668 1_555
F0 Tl1 2.292363 1_555
F1 Tl0 2.292363 1_555
F2 Tl3 2.292363 1_565
F3 Tl2 2.292363 1_545
F4 Tl2 2.254160 1_655
F5 Tl3 2.254160 1_455
F6 Tl0 2.254160 1_455
F7 Tl1 2.254160 1_655
F8 Tl0 2.335253 1_556
F9 Tl1 2.335253 1_554
F10 Tl2 2.335253 1_555
F11 Tl3 2.335253 1_555
F12 Tl2 2.413278 1_655
F13 Tl3 2.413278 1_455
F14 Tl0 2.413278 1_455
F15 Tl1 2.413278 1_655
