# generated using pymatgen
data_NaTl2RhF6
_symmetry_space_group_name_H-M   'P 1'
_cell_length_a   6.13232416
_cell_length_b   6.13232416
_cell_length_c   6.13232416
_cell_angle_alpha   60.00000000
_cell_angle_beta   60.00000000
_cell_angle_gamma   60.00000000
_symmetry_Int_Tables_number   1
_chemical_formula_structural   NaTl2RhF6
_chemical_formula_sum   'Na1 Tl2 Rh1 F6'
_cell_volume   163.06483476
_cell_formula_units_Z   1
loop_
 _symmetry_equiv_pos_site_id
 _symmetry_equiv_pos_as_xyz
  1  'x, y, z'
loop_
 _atom_site_type_symbol
 _atom_site_label
 _atom_site_symmetry_multiplicity
 _atom_site_fract_x
 _atom_site_fract_y
 _atom_site_fract_z
 _atom_site_occupancy
  Na  Na0  1  0.50000000  0.50000000  0.50000000  1
  Tl  Tl0  1  0.75000000  0.75000000  0.75000000  1
  Tl  Tl1  1  0.25000000  0.25000000  0.25000000  1
  Rh  Rh0  1  0.00000000  0.00000000  0.00000000  1
  F  F0  1  0.76688300  0.23311700  0.23311700  1
  F  F1  1  0.23311700  0.76688300  0.23311700  1
  F  F2  1  0.76688300  0.23311700  0.76688300  1
  F  F3  1  0.76688300  0.76688300  0.23311700  1
  F  F4  1  0.23311700  0.76688300  0.76688300  1
  F  F5  1  0.23311700  0.23311700  0.76688300  1
loop_
_geom_bond_atom_site_label_1
_geom_bond_atom_site_label_2
_geom_bond_distance
_geom_bond_site_symmetry_2
F0 Rh0 2.021688 1_655
F0 Na0 2.314520 1_555
F1 Rh0 2.021688 1_565
F1 Na0 2.314520 1_555
F2 Rh0 2.021688 1_656
F2 Na0 2.314520 1_555
F3 Rh0 2.021688 1_665
F3 Na0 2.314520 1_555
F4 Rh0 2.021688 1_566
F4 Na0 2.314520 1_555
F5 Rh0 2.021688 1_556
F5 Na0 2.314520 1_555
