# generated using pymatgen
data_NaBe2N3F8
_symmetry_space_group_name_H-M   'P 1'
_cell_length_a   5.65459619
_cell_length_b   5.65459619
_cell_length_c   7.35522200
_cell_angle_alpha   90.00000000
_cell_angle_beta   90.00000000
_cell_angle_gamma   120.00000219
_symmetry_Int_Tables_number   1
_chemical_formula_structural   NaBe2N3F8
_chemical_formula_sum   'Na1 Be2 N3 F8'
_cell_volume   203.67118936
_cell_formula_units_Z   1
loop_
 _symmetry_equiv_pos_site_id
 _symmetry_equiv_pos_as_xyz
  1  'x, y, z'
loop_
 _atom_site_type_symbol
 _atom_site_label
 _atom_site_symmetry_multiplicity
 _atom_site_fract_x
 _atom_site_fract_y
 _atom_site_fract_z
 _atom_site_occupancy
  Na  Na0  1  0.00000000  0.00000000  0.50000000  1
  Be  Be0  1  0.33333300  0.66666700  0.30080700  1
  Be  Be1  1  0.66666700  0.33333300  0.69919300  1
  N  N0  1  0.33333300  0.66666700  0.72078300  1
  N  N1  1  0.66666700  0.33333300  0.27921700  1
  N  N2  1  0.00000000  0.00000000  0.00000000  1
  F  F0  1  0.33333300  0.66666700  0.89755700  1
  F  F1  1  0.66666700  0.33333300  0.10244300  1
  F  F2  1  0.18360700  0.81639300  0.30217200  1
  F  F3  1  0.81639300  0.18360700  0.69782800  1
  F  F4  1  0.18360700  0.36721400  0.30217200  1
  F  F5  1  0.81639300  0.63278600  0.69782800  1
  F  F6  1  0.63278600  0.81639300  0.30217200  1
  F  F7  1  0.36721400  0.18360700  0.69782800  1
loop_
_geom_bond_atom_site_label_1
_geom_bond_atom_site_label_2
_geom_bond_distance
_geom_bond_site_symmetry_2
Be0 F2 1.466458 1_555
Be0 F4 1.466463 1_555
Be0 F6 1.466463 1_555
Be1 F3 1.466458 1_555
Be1 F5 1.466463 1_555
Be1 F7 1.466463 1_555
F0 N0 1.300212 1_555
F1 N1 1.300212 1_555
F2 Na0 2.313212 1_565
F3 Na0 2.313212 1_655
F4 Na0 2.313212 1_555
F5 Na0 2.313212 1_665
F6 Na0 2.313212 1_665
F7 Na0 2.313212 1_555
