# generated using pymatgen
data_La6Fe13Sn
_symmetry_space_group_name_H-M   'P 1'
_cell_length_a   8.09441300
_cell_length_b   8.09441300
_cell_length_c   13.46767248
_cell_angle_alpha   107.48840137
_cell_angle_beta   107.48840137
_cell_angle_gamma   90.00000000
_symmetry_Int_Tables_number   1
_chemical_formula_structural   La6Fe13Sn
_chemical_formula_sum   'La12 Fe26 Sn2'
_cell_volume   798.74298680
_cell_formula_units_Z   2
loop_
 _symmetry_equiv_pos_site_id
 _symmetry_equiv_pos_as_xyz
  1  'x, y, z'
loop_
 _atom_site_type_symbol
 _atom_site_label
 _atom_site_symmetry_multiplicity
 _atom_site_fract_x
 _atom_site_fract_y
 _atom_site_fract_z
 _atom_site_occupancy
  La  La0  1  0.60432400  0.60432400  0.20864700  1
  La  La1  1  0.10432400  0.10432400  0.20864700  1
  La  La2  1  0.39567600  0.39567600  0.79135300  1
  La  La3  1  0.89567600  0.89567600  0.79135300  1
  La  La4  1  0.97988700  0.47988700  0.63483600  1
  La  La5  1  0.65495000  0.15495000  0.63483600  1
  La  La6  1  0.15495000  0.97988700  0.63483600  1
  La  La7  1  0.47988700  0.65495000  0.63483600  1
  La  La8  1  0.02011300  0.52011300  0.36516400  1
  La  La9  1  0.34505000  0.84505000  0.36516400  1
  La  La10  1  0.84505000  0.02011300  0.36516400  1
  La  La11  1  0.52011300  0.34505000  0.36516400  1
  Fe  Fe0  1  0.00000000  0.50000000  0.00000000  1
  Fe  Fe1  1  0.50000000  0.00000000  0.00000000  1
  Fe  Fe2  1  0.70902400  0.56717000  0.00000000  1
  Fe  Fe3  1  0.29097600  0.43283000  0.00000000  1
  Fe  Fe4  1  0.79097600  0.06717000  0.00000000  1
  Fe  Fe5  1  0.20902400  0.93283000  0.00000000  1
  Fe  Fe6  1  0.56717000  0.29097600  0.00000000  1
  Fe  Fe7  1  0.43283000  0.70902400  0.00000000  1
  Fe  Fe8  1  0.06717000  0.20902400  0.00000000  1
  Fe  Fe9  1  0.93283000  0.79097600  0.00000000  1
  Fe  Fe10  1  0.12128000  0.62128000  0.88611500  1
  Fe  Fe11  1  0.76483600  0.26483600  0.88611500  1
  Fe  Fe12  1  0.26483600  0.12128000  0.88611500  1
  Fe  Fe13  1  0.62128000  0.76483600  0.88611500  1
  Fe  Fe14  1  0.87872000  0.37872000  0.11388500  1
  Fe  Fe15  1  0.23516400  0.73516400  0.11388500  1
  Fe  Fe16  1  0.73516400  0.87872000  0.11388500  1
  Fe  Fe17  1  0.37872000  0.23516400  0.11388500  1
  Fe  Fe18  1  0.29679200  0.79679200  0.81954700  1
  Fe  Fe19  1  0.52275500  0.02275500  0.81954700  1
  Fe  Fe20  1  0.02275500  0.29679200  0.81954700  1
  Fe  Fe21  1  0.79679200  0.52275500  0.81954700  1
  Fe  Fe22  1  0.70320800  0.20320800  0.18045300  1
  Fe  Fe23  1  0.47724500  0.97724500  0.18045300  1
  Fe  Fe24  1  0.97724500  0.70320800  0.18045300  1
  Fe  Fe25  1  0.20320800  0.47724500  0.18045300  1
  Sn  Sn0  1  0.25000000  0.25000000  0.50000000  1
  Sn  Sn1  1  0.75000000  0.75000000  0.50000000  1
loop_
_geom_bond_atom_site_label_1
_geom_bond_atom_site_label_2
_geom_bond_distance
_geom_bond_site_symmetry_2
La0 Sn1 3.551860 1_555
La0 La10 3.582549 1_565
La0 La8 3.582555 1_655
La0 La9 3.582561 1_555
La0 La11 3.582567 1_555
La1 Sn0 3.551860 1_555
La1 La11 3.582549 1_555
La1 La8 3.582555 1_555
La1 La9 3.582561 1_545
La1 La10 3.582567 1_455
La2 Sn0 3.551860 1_555
La2 La6 3.582549 1_545
La2 La4 3.582555 1_455
La2 La5 3.582561 1_555
La2 La7 3.582567 1_555
La3 Sn1 3.551860 1_555
La3 La7 3.582549 1_555
La3 La4 3.582555 1_555
La3 La5 3.582561 1_565
La3 La6 3.582567 1_655
La4 Sn0 3.449045 1_655
La4 Sn1 3.449045 1_555
La4 La5 3.719628 1_555
La4 La8 3.850181 1_655
La4 La6 4.288107 1_645
La4 La7 4.288107 1_655
La4 La6 4.288107 1_655
La4 La7 4.288107 1_555
La5 Sn1 3.449049 1_545
La5 Sn0 3.449049 1_555
La5 La9 3.850192 1_545
La5 La6 4.288107 1_645
La5 La6 4.288107 1_545
La5 La7 4.288107 1_555
La5 La7 4.288107 1_545
La6 Sn0 3.449042 1_565
La6 Sn1 3.449052 1_455
La6 La7 3.719628 1_555
La6 La9 4.210196 1_555
La6 La8 4.210206 1_555
La7 Sn1 3.449042 1_555
La7 Sn0 3.449052 1_555
La7 La9 4.210196 1_555
La7 La8 4.210206 1_555
La8 Sn0 3.449045 1_555
La8 Sn1 3.449045 1_455
La8 La9 3.719628 1_555
La9 Sn0 3.449049 1_565
La9 Sn1 3.449049 1_555
La10 Sn1 3.449042 1_545
La10 Sn0 3.449052 1_655
La10 La11 3.719628 1_555
La10 La6 3.850187 1_645
La10 La5 4.210196 1_555
La10 La4 4.210206 1_555
La10 La8 4.288107 1_655
La10 La9 4.288107 1_545
La10 La9 4.288107 1_645
La10 La8 4.288107 1_645
La11 Sn0 3.449042 1_555
La11 Sn1 3.449052 1_555
La11 La7 3.850187 1_555
La11 La5 4.210196 1_555
La11 La4 4.210206 1_555
La11 La8 4.288107 1_555
La11 La9 4.288107 1_545
La11 La9 4.288107 1_555
La11 La8 4.288107 1_655
Fe0 Fe9 2.417221 1_455
Fe0 Fe3 2.417221 1_555
Fe0 Fe2 2.417221 1_455
Fe0 Fe8 2.417221 1_555
Fe0 Fe15 2.467738 1_555
Fe0 Fe11 2.467738 1_454
Fe0 Fe14 2.467748 1_455
Fe0 Fe10 2.467748 1_554
Fe0 Fe25 2.551900 1_555
Fe0 Fe24 2.551900 1_455
Fe0 Fe20 2.551900 1_554
Fe0 Fe21 2.551900 1_454
Fe1 Fe7 2.417221 1_545
Fe1 Fe5 2.417221 1_545
Fe1 Fe4 2.417221 1_555
Fe1 Fe6 2.417221 1_555
Fe1 Fe17 2.467743 1_555
Fe1 Fe16 2.467743 1_545
Fe1 Fe13 2.467743 1_544
Fe1 Fe12 2.467743 1_554
Fe1 Fe22 2.551900 1_555
Fe1 Fe18 2.551900 1_544
Fe1 Fe23 2.551900 1_545
Fe1 Fe19 2.551900 1_554
Fe2 Fe7 2.513256 1_555
Fe2 Fe6 2.513256 1_555
Fe2 Fe9 2.561958 1_555
Fe2 Fe24 2.655711 1_555
Fe2 Fe21 2.655711 1_554
Fe2 La0 3.102918 1_555
Fe2 La2 3.102924 1_554
Fe3 Fe7 2.513256 1_555
Fe3 Fe6 2.513256 1_555
Fe3 Fe8 2.561958 1_555
Fe3 La2 3.102918 1_554
Fe3 La0 3.102924 1_555
Fe4 Fe8 2.513256 1_655
Fe4 Fe9 2.513256 1_545
Fe4 Fe6 2.561958 1_555
Fe4 La3 3.102919 1_544
Fe4 La1 3.102922 1_655
Fe5 Fe8 2.513256 1_565
Fe5 Fe9 2.513256 1_455
Fe5 Fe7 2.561958 1_555
Fe5 La1 3.102919 1_565
Fe5 La3 3.102922 1_454
Fe6 La2 3.102919 1_554
Fe6 La0 3.102922 1_555
Fe7 La0 3.102919 1_555
Fe7 La2 3.102922 1_554
Fe8 La1 3.102918 1_555
Fe8 La3 3.102924 1_444
Fe9 La3 3.102918 1_554
Fe9 La1 3.102924 1_665
Fe10 Fe5 2.497401 1_556
Fe10 Fe7 2.497401 1_556
Fe10 Fe18 2.524148 1_555
Fe10 Fe21 2.548233 1_455
Fe10 Fe20 2.548233 1_555
Fe10 Fe9 2.589584 1_456
Fe10 Fe3 2.589584 1_556
Fe10 Fe15 2.776725 1_556
Fe10 La4 3.068625 1_455
Fe10 La3 3.193684 1_455
Fe10 La2 3.193684 1_555
Fe11 Fe4 2.497409 1_556
Fe11 Fe6 2.497409 1_556
Fe11 Fe19 2.524158 1_555
Fe11 Fe20 2.548224 1_655
Fe11 Fe21 2.548224 1_555
Fe11 Fe8 2.589580 1_656
Fe11 Fe2 2.589580 1_556
Fe11 Fe14 2.776725 1_556
Fe11 La5 3.068625 1_555
Fe11 La3 3.193689 1_545
Fe11 La2 3.193689 1_555
Fe12 Fe3 2.497402 1_556
Fe12 Fe8 2.497408 1_556
Fe12 Fe20 2.524153 1_555
Fe12 Fe19 2.548225 1_555
Fe12 Fe18 2.548231 1_545
Fe12 Fe6 2.589577 1_556
Fe12 Fe5 2.589587 1_546
Fe12 Fe17 2.776725 1_556
Fe12 La6 3.068625 1_545
Fe12 La2 3.193676 1_555
Fe12 La3 3.193697 1_445
Fe13 Fe9 2.497402 1_556
Fe13 Fe2 2.497408 1_556
Fe13 Fe21 2.524153 1_555
Fe13 Fe19 2.548225 1_565
Fe13 Fe18 2.548231 1_555
Fe13 Fe4 2.589577 1_566
Fe13 Fe7 2.589587 1_556
Fe13 Fe16 2.776725 1_556
Fe13 La7 3.068625 1_555
Fe13 La3 3.193676 1_555
Fe13 La2 3.193697 1_555
Fe14 Fe6 2.497401 1_555
Fe14 Fe4 2.497401 1_555
Fe14 Fe22 2.524148 1_555
Fe14 Fe24 2.548233 1_555
Fe14 Fe25 2.548233 1_655
Fe14 Fe8 2.589584 1_655
Fe14 Fe2 2.589584 1_555
Fe14 La8 3.068625 1_655
Fe14 La0 3.193684 1_555
Fe14 La1 3.193684 1_655
Fe15 Fe7 2.497409 1_555
Fe15 Fe5 2.497409 1_555
Fe15 Fe23 2.524158 1_555
Fe15 Fe25 2.548224 1_555
Fe15 Fe24 2.548224 1_455
Fe15 Fe9 2.589580 1_455
Fe15 Fe3 2.589580 1_555
Fe15 La9 3.068625 1_555
Fe15 La0 3.193689 1_555
Fe15 La1 3.193689 1_565
Fe16 Fe2 2.497402 1_555
Fe16 Fe9 2.497408 1_555
Fe16 Fe24 2.524153 1_555
Fe16 Fe23 2.548225 1_555
Fe16 Fe22 2.548231 1_565
Fe16 Fe7 2.589577 1_555
Fe16 Fe4 2.589587 1_565
Fe16 La10 3.068625 1_565
Fe16 La0 3.193676 1_555
Fe16 La1 3.193697 1_665
Fe17 Fe8 2.497402 1_555
Fe17 Fe3 2.497408 1_555
Fe17 Fe25 2.524153 1_555
Fe17 Fe23 2.548225 1_545
Fe17 Fe22 2.548231 1_555
Fe17 Fe5 2.589577 1_545
Fe17 Fe6 2.589587 1_555
Fe17 La11 3.068625 1_555
Fe17 La1 3.193676 1_555
Fe17 La0 3.193697 1_555
Fe18 Fe19 2.586650 1_565
Fe18 Fe7 2.655711 1_556
Fe18 Fe5 2.655711 1_556
Fe18 La7 3.194088 1_555
Fe18 La6 3.194088 1_555
Fe18 La2 3.281498 1_555
Fe18 La3 3.281498 1_455
Fe18 La4 3.417294 1_455
Fe19 Fe4 2.655711 1_556
Fe19 Fe6 2.655711 1_556
Fe19 La7 3.194084 1_545
Fe19 La6 3.194084 1_545
Fe19 La3 3.281493 1_545
Fe19 La2 3.281493 1_555
Fe19 La5 3.417303 1_555
Fe20 Fe21 2.586650 1_455
Fe20 Fe3 2.655711 1_556
Fe20 Fe8 2.655711 1_556
Fe20 La5 3.194082 1_455
Fe20 La4 3.194089 1_455
Fe20 La2 3.281491 1_555
Fe20 La3 3.281501 1_445
Fe20 La6 3.417299 1_545
Fe21 Fe9 2.655711 1_556
Fe21 La5 3.194082 1_555
Fe21 La4 3.194089 1_555
Fe21 La3 3.281491 1_555
Fe21 La2 3.281501 1_555
Fe21 La7 3.417299 1_555
Fe22 Fe23 2.586650 1_545
Fe22 Fe6 2.655711 1_555
Fe22 Fe4 2.655711 1_555
Fe22 La11 3.194088 1_555
Fe22 La10 3.194088 1_555
Fe22 La0 3.281498 1_555
Fe22 La1 3.281498 1_655
Fe22 La8 3.417294 1_655
Fe23 Fe7 2.655711 1_555
Fe23 Fe5 2.655711 1_555
Fe23 La10 3.194084 1_565
Fe23 La11 3.194084 1_565
Fe23 La0 3.281493 1_555
Fe23 La1 3.281493 1_565
Fe23 La9 3.417303 1_555
Fe24 Fe25 2.586650 1_655
Fe24 Fe9 2.655711 1_555
Fe24 La9 3.194082 1_655
Fe24 La8 3.194089 1_655
Fe24 La0 3.281491 1_555
Fe24 La1 3.281501 1_665
Fe24 La10 3.417299 1_565
Fe25 Fe8 2.655711 1_555
Fe25 Fe3 2.655711 1_555
Fe25 La9 3.194082 1_555
Fe25 La8 3.194089 1_555
Fe25 La1 3.281491 1_555
Fe25 La0 3.281501 1_555
Fe25 La11 3.417299 1_555
