# generated using pymatgen
data_Y20Si12C
_symmetry_space_group_name_H-M   'P 1'
_cell_length_a   14.63623177
_cell_length_b   6.42868682
_cell_length_c   8.45235693
_cell_angle_alpha   89.95566051
_cell_angle_beta   90.00000000
_cell_angle_gamma   90.00000000
_symmetry_Int_Tables_number   1
_chemical_formula_structural   Y20Si12C
_chemical_formula_sum   'Y20 Si12 C1'
_cell_volume   795.29681967
_cell_formula_units_Z   1
loop_
 _symmetry_equiv_pos_site_id
 _symmetry_equiv_pos_as_xyz
  1  'x, y, z'
loop_
 _atom_site_type_symbol
 _atom_site_label
 _atom_site_symmetry_multiplicity
 _atom_site_fract_x
 _atom_site_fract_y
 _atom_site_fract_z
 _atom_site_occupancy
  Y  Y0  1  0.66309297  0.50000000  0.50000000  1
  Y  Y1  1  0.17105576  0.50000000  -0.00000000  1
  Y  Y2  1  0.82894424  0.50000000  -0.00000000  1
  Y  Y3  1  0.33690703  0.50000000  0.50000000  1
  Y  Y4  1  0.83777138  0.00000000  -0.00000000  1
  Y  Y5  1  0.32891571  0.00000000  0.50000000  1
  Y  Y6  1  0.67108429  0.00000000  0.50000000  1
  Y  Y7  1  0.16222862  0.00000000  -0.00000000  1
  Y  Y8  1  0.50000000  0.24648389  0.75640853  1
  Y  Y9  1  0.00000000  0.27405604  0.26510209  1
  Y  Y10  1  0.62128082  0.24751715  0.12132383  1
  Y  Y11  1  0.11753081  0.27249844  0.61814379  1
  Y  Y12  1  0.88246919  0.27249844  0.61814379  1
  Y  Y13  1  0.37871918  0.24751715  0.12132383  1
  Y  Y14  1  0.00000000  0.72594396  0.73489791  1
  Y  Y15  1  0.50000000  0.75351611  0.24359147  1
  Y  Y16  1  0.88246919  0.72750156  0.38185621  1
  Y  Y17  1  0.37871918  0.75248285  0.87867617  1
  Y  Y18  1  0.62128082  0.75248285  0.87867617  1
  Y  Y19  1  0.11753081  0.72750156  0.38185621  1
  Si  Si0  1  0.00000000  0.26331238  0.89931239  1
  Si  Si1  1  0.50000000  0.24204819  0.39500164  1
  Si  Si2  1  0.80038918  0.25629529  0.30078460  1
  Si  Si3  1  0.30309329  0.24637066  0.80296037  1
  Si  Si4  1  0.69690671  0.24637066  0.80296037  1
  Si  Si5  1  0.19961082  0.25629529  0.30078460  1
  Si  Si6  1  0.50000000  0.75795181  0.60499836  1
  Si  Si7  1  0.00000000  0.73668762  0.10068761  1
  Si  Si8  1  0.69690671  0.75362934  0.19703963  1
  Si  Si9  1  0.19961082  0.74370471  0.69921540  1
  Si  Si10  1  0.80038918  0.74370471  0.69921540  1
  Si  Si11  1  0.30309329  0.75362934  0.19703963  1
  C  C0  1  0.00000000  0.50000000  0.50000000  1
loop_
_geom_bond_atom_site_label_1
_geom_bond_atom_site_label_2
_geom_bond_distance
_geom_bond_site_symmetry_2
Si0 Y12 2.934334 1_455
Si0 Y11 2.934334 1_555
Si0 Y4 3.037320 1_456
Si0 Y7 3.037320 1_556
Si0 Y2 3.051163 1_456
Si0 Y1 3.051163 1_556
Si0 Y9 3.092610 1_556
Si0 Y14 3.281797 1_555
Si1 Y13 2.916002 1_555
Si1 Y10 2.916002 1_555
Si1 Y0 3.039395 1_555
Si1 Y3 3.039395 1_555
Si1 Y8 3.054895 1_555
Si1 Y5 3.078466 1_555
Si1 Y6 3.078466 1_555
Si1 Y15 3.392275 1_545
Si1 Y15 3.527420 1_555
Si2 Y9 2.939286 1_655
Si2 Y12 2.941080 1_555
Si2 Y2 3.014390 1_555
Si2 Y6 3.021165 1_555
Si2 Y10 3.029243 1_555
Si2 Y0 3.054839 1_555
Si2 Y4 3.079619 1_555
Si2 Y16 3.330507 1_555
Si2 Y16 3.669528 1_545
Si3 Y8 2.908708 1_555
Si3 Y13 2.909695 1_556
Si3 Y1 3.028390 1_556
Si3 Y5 3.035622 1_555
Si3 Y3 3.074792 1_555
Si3 Y7 3.086893 1_556
Si3 Y11 3.137576 1_555
Si3 Y17 3.422360 1_545
Si3 Y17 3.496302 1_555
Si4 Y8 2.908708 1_555
Si4 Y10 2.909695 1_556
Si4 Y2 3.028390 1_556
Si4 Y6 3.035622 1_555
Si4 Y0 3.074792 1_555
Si4 Y4 3.086893 1_556
Si4 Y12 3.137576 1_555
Si4 Y18 3.422360 1_545
Si4 Y18 3.496302 1_555
Si5 Y9 2.939286 1_555
Si5 Y11 2.941080 1_555
Si5 Y1 3.014390 1_555
Si5 Y5 3.021165 1_555
Si5 Y13 3.029243 1_555
Si5 Y3 3.054839 1_555
Si5 Y7 3.079619 1_555
Si5 Y19 3.330507 1_555
Si5 Y19 3.669528 1_545
Si6 Y17 2.916002 1_555
Si6 Y18 2.916002 1_555
Si6 Y0 3.039395 1_555
Si6 Y3 3.039395 1_555
Si6 Y15 3.054895 1_555
Si6 Y5 3.078466 1_565
Si6 Y6 3.078466 1_565
Si6 Y8 3.392275 1_565
Si6 Y8 3.527420 1_555
Si7 Y19 2.934334 1_555
Si7 Y16 2.934334 1_455
Si7 Y4 3.037320 1_465
Si7 Y7 3.037320 1_565
Si7 Y1 3.051163 1_555
Si7 Y2 3.051163 1_455
Si7 Y14 3.092610 1_554
Si7 Y9 3.281797 1_555
Si8 Y15 2.908708 1_555
Si8 Y18 2.909695 1_554
Si8 Y2 3.028390 1_555
Si8 Y6 3.035622 1_565
Si8 Y0 3.074792 1_555
Si8 Y4 3.086893 1_565
Si8 Y16 3.137576 1_555
Si8 Y10 3.422360 1_565
Si8 Y10 3.496302 1_555
Si9 Y14 2.939286 1_555
Si9 Y19 2.941080 1_555
Si9 Y1 3.014390 1_556
Si9 Y5 3.021165 1_565
Si9 Y17 3.029243 1_555
Si9 Y3 3.054839 1_555
Si9 Y7 3.079619 1_566
Si9 Y11 3.330507 1_555
Si9 Y11 3.669528 1_565
Si10 Y14 2.939286 1_655
Si10 Y16 2.941080 1_555
Si10 Y2 3.014390 1_556
Si10 Y6 3.021165 1_565
Si10 Y18 3.029243 1_555
Si10 Y0 3.054839 1_555
Si10 Y4 3.079619 1_566
Si10 Y12 3.330507 1_555
Si10 Y12 3.669528 1_565
Si11 Y15 2.908708 1_555
Si11 Y17 2.909695 1_554
Si11 Y1 3.028390 1_555
Si11 Y5 3.035622 1_565
Si11 Y3 3.074792 1_555
Si11 Y7 3.086893 1_565
Si11 Y19 3.137576 1_555
Si11 Y13 3.422360 1_565
Si11 Y13 3.496302 1_555
C0 Y9 2.460947 1_555
C0 Y14 2.460947 1_555
C0 Y12 2.468412 1_455
C0 Y16 2.468412 1_455
C0 Y11 2.468412 1_555
C0 Y19 2.468412 1_555
