# generated using pymatgen
data_Mg6ZrCr
_symmetry_space_group_name_H-M   'P 1'
_cell_length_a   5.04904800
_cell_length_b   6.23121100
_cell_length_c   11.00838400
_cell_angle_alpha   90.00000000
_cell_angle_beta   90.00000000
_cell_angle_gamma   90.00000000
_symmetry_Int_Tables_number   1
_chemical_formula_structural   Mg6ZrCr
_chemical_formula_sum   'Mg12 Zr2 Cr2'
_cell_volume   346.34229256
_cell_formula_units_Z   2
loop_
 _symmetry_equiv_pos_site_id
 _symmetry_equiv_pos_as_xyz
  1  'x, y, z'
loop_
 _atom_site_type_symbol
 _atom_site_label
 _atom_site_symmetry_multiplicity
 _atom_site_fract_x
 _atom_site_fract_y
 _atom_site_fract_z
 _atom_site_occupancy
  Mg  Mg0  1  0.50000000  0.24590800  0.41757000  1
  Mg  Mg1  1  0.50000000  0.75409200  0.41757000  1
  Mg  Mg2  1  0.00000000  0.74597500  0.08707700  1
  Mg  Mg3  1  0.00000000  0.25402500  0.08707700  1
  Mg  Mg4  1  0.00000000  0.00000000  0.33080900  1
  Mg  Mg5  1  0.00000000  0.50000000  0.32755800  1
  Mg  Mg6  1  0.50000000  0.74590800  0.91757000  1
  Mg  Mg7  1  0.50000000  0.25409200  0.91757000  1
  Mg  Mg8  1  0.00000000  0.24597500  0.58707700  1
  Mg  Mg9  1  0.00000000  0.75402500  0.58707700  1
  Mg  Mg10  1  0.00000000  0.50000000  0.83080900  1
  Mg  Mg11  1  0.00000000  0.00000000  0.82755800  1
  Zr  Zr0  1  0.50000000  0.00000000  0.16769500  1
  Zr  Zr1  1  0.50000000  0.50000000  0.66769500  1
  Cr  Cr0  1  0.50000000  0.50000000  0.16464000  1
  Cr  Cr1  1  0.50000000  0.00000000  0.66464000  1
loop_
_geom_bond_atom_site_label_1
_geom_bond_atom_site_label_2
_geom_bond_distance
_geom_bond_site_symmetry_2
Mg0 Mg1 3.064609 1_545
Mg0 Mg4 3.103771 1_655
Mg0 Mg4 3.103771 1_555
Mg0 Mg8 3.139295 1_655
Mg0 Mg8 3.139295 1_555
Mg0 Mg5 3.140369 1_655
Mg0 Mg5 3.140369 1_555
Mg0 Zr0 3.148717 1_555
Mg0 Mg1 3.166602 1_555
Mg0 Zr1 3.176232 1_555
Mg1 Mg4 3.103771 1_565
Mg1 Mg4 3.103771 1_665
Mg1 Mg9 3.139295 1_655
Mg1 Mg9 3.139295 1_555
Mg1 Mg5 3.140369 1_655
Mg1 Mg5 3.140369 1_555
Mg1 Zr0 3.148717 1_565
Mg1 Zr1 3.176232 1_555
Mg2 Mg5 3.058999 1_555
Mg2 Mg3 3.065444 1_555
Mg2 Zr0 3.109076 1_565
Mg2 Zr0 3.109076 1_465
Mg2 Mg4 3.115208 1_565
Mg2 Mg6 3.139295 1_554
Mg2 Mg6 3.139295 1_454
Mg2 Mg3 3.165767 1_565
Mg3 Mg5 3.058999 1_555
Mg3 Zr0 3.109076 1_455
Mg3 Zr0 3.109076 1_555
Mg3 Mg4 3.115208 1_555
Mg3 Mg7 3.139295 1_454
Mg3 Mg7 3.139295 1_554
Mg4 Zr0 3.097980 1_455
Mg4 Zr0 3.097980 1_555
Mg4 Mg5 3.115811 1_545
Mg4 Mg5 3.115811 1_555
Mg4 Mg8 3.210580 1_555
Mg4 Mg9 3.210580 1_545
Mg5 Mg8 3.266085 1_555
Mg5 Mg9 3.266085 1_555
Mg6 Mg7 3.064609 1_555
Mg6 Zr1 3.148717 1_555
Mg6 Mg7 3.166602 1_565
Mg6 Zr0 3.176232 1_566
Mg7 Zr1 3.148717 1_555
Mg7 Zr0 3.176232 1_556
Mg8 Mg9 3.065444 1_545
Mg8 Zr1 3.109076 1_455
Mg8 Zr1 3.109076 1_555
Mg8 Mg9 3.165767 1_555
Mg9 Zr1 3.109076 1_455
Mg9 Zr1 3.109076 1_555
Mg10 Zr1 3.097980 1_455
Mg10 Zr1 3.097980 1_555
Mg10 Mg6 3.103771 1_555
Mg10 Mg7 3.103771 1_455
Mg10 Mg7 3.103771 1_555
Mg10 Mg6 3.103771 1_455
Mg10 Mg8 3.115208 1_555
Mg10 Mg9 3.115208 1_555
Mg10 Mg11 3.115811 1_565
Mg10 Mg11 3.115811 1_555
Mg10 Mg2 3.210580 1_556
Mg10 Mg3 3.210580 1_556
Mg11 Mg8 3.058999 1_555
Mg11 Mg9 3.058999 1_545
Mg11 Mg7 3.140369 1_455
Mg11 Mg6 3.140369 1_545
Mg11 Mg7 3.140369 1_555
Mg11 Mg6 3.140369 1_445
Mg11 Mg3 3.266085 1_556
Mg11 Mg2 3.266085 1_546
Cr0 Mg2 3.074330 1_555
Cr0 Mg2 3.074330 1_655
Cr0 Mg3 3.074330 1_555
Cr0 Mg3 3.074330 1_655
Cr0 Mg5 3.096730 1_655
Cr0 Mg5 3.096730 1_555
Cr0 Zr0 3.115787 1_565
Cr0 Zr0 3.115787 1_555
Cr0 Mg7 3.121778 1_554
Cr0 Mg6 3.121778 1_554
Cr0 Mg1 3.203038 1_555
Cr0 Mg0 3.203038 1_555
Cr1 Mg8 3.074330 1_555
Cr1 Mg8 3.074330 1_655
Cr1 Mg9 3.074330 1_645
Cr1 Mg9 3.074330 1_545
Cr1 Mg11 3.096730 1_555
Cr1 Mg11 3.096730 1_655
Cr1 Zr1 3.115787 1_555
Cr1 Zr1 3.115787 1_545
Cr1 Mg0 3.121778 1_555
Cr1 Mg1 3.121778 1_545
Cr1 Mg6 3.203038 1_545
Cr1 Mg7 3.203038 1_555
