# generated using pymatgen
data_VCr3O8
_symmetry_space_group_name_H-M   'P 1'
_cell_length_a   5.81607157
_cell_length_b   5.82204352
_cell_length_c   5.94911726
_cell_angle_alpha   61.25933161
_cell_angle_beta   61.28923883
_cell_angle_gamma   60.88710394
_symmetry_Int_Tables_number   1
_chemical_formula_structural   VCr3O8
_chemical_formula_sum   'V1 Cr3 O8'
_cell_volume   146.11007193
_cell_formula_units_Z   1
loop_
 _symmetry_equiv_pos_site_id
 _symmetry_equiv_pos_as_xyz
  1  'x, y, z'
loop_
 _atom_site_type_symbol
 _atom_site_label
 _atom_site_symmetry_multiplicity
 _atom_site_fract_x
 _atom_site_fract_y
 _atom_site_fract_z
 _atom_site_occupancy
  V  V0  1  0.50002000  0.50035600  0.49990500  1
  Cr  Cr0  1  0.50003900  0.49988600  0.99999800  1
  Cr  Cr1  1  0.99991100  0.49995800  0.50013400  1
  Cr  Cr2  1  0.50003300  0.00004800  0.50006500  1
  O  O0  1  0.73654700  0.73681600  0.71813500  1
  O  O1  1  0.27113900  0.27152300  0.70346900  1
  O  O2  1  0.26636100  0.69944000  0.27961000  1
  O  O3  1  0.69944600  0.26658600  0.27995900  1
  O  O4  1  0.73365200  0.30050900  0.72038900  1
  O  O5  1  0.30053200  0.73331200  0.72006000  1
  O  O6  1  0.26338200  0.26310700  0.28191900  1
  O  O7  1  0.72893300  0.72846500  0.29634700  1
loop_
_geom_bond_atom_site_label_1
_geom_bond_atom_site_label_2
_geom_bond_distance
_geom_bond_site_symmetry_2
Cr0 O0 2.003123 1_555
Cr0 O6 2.003176 1_556
Cr0 O4 2.027623 1_555
Cr0 O3 2.027647 1_556
Cr0 O5 2.027911 1_555
Cr0 O2 2.028296 1_556
Cr1 O0 1.919842 1_555
Cr1 O6 1.920704 1_655
Cr1 O4 1.949462 1_555
Cr1 O2 1.950441 1_655
Cr1 O1 1.991294 1_655
Cr1 O7 1.991981 1_555
Cr2 O0 1.917068 1_545
Cr2 O6 1.917752 1_555
Cr2 O3 1.950864 1_555
Cr2 O5 1.952079 1_545
Cr2 O1 1.994685 1_555
Cr2 O7 1.996409 1_545
O1 V0 1.907579 1_555
O2 V0 1.904057 1_555
O3 V0 1.904790 1_555
O4 V0 1.904466 1_555
O5 V0 1.902139 1_555
O7 V0 1.904631 1_555
