# generated using pymatgen
data_MgZr
_symmetry_space_group_name_H-M   'P 1'
_cell_length_a   6.53081400
_cell_length_b   10.21702600
_cell_length_c   10.63985000
_cell_angle_alpha   90.00000000
_cell_angle_beta   90.00000000
_cell_angle_gamma   90.00000000
_symmetry_Int_Tables_number   1
_chemical_formula_structural   MgZr
_chemical_formula_sum   'Mg16 Zr16'
_cell_volume   709.94927329
_cell_formula_units_Z   16
loop_
 _symmetry_equiv_pos_site_id
 _symmetry_equiv_pos_as_xyz
  1  'x, y, z'
loop_
 _atom_site_type_symbol
 _atom_site_label
 _atom_site_symmetry_multiplicity
 _atom_site_fract_x
 _atom_site_fract_y
 _atom_site_fract_z
 _atom_site_occupancy
  Mg  Mg0_0  1  0.00000000  0.37500000  0.09403500  1
  Mg  Mg0_1  1  0.00000000  0.37500000  0.59403500  1
  Mg  Mg0_2  1  0.00000000  0.87500000  0.09403500  1
  Mg  Mg0_3  1  0.00000000  0.87500000  0.59403500  1
  Mg  Mg0_4  1  0.50000000  0.37500000  0.09403500  1
  Mg  Mg0_5  1  0.50000000  0.37500000  0.59403500  1
  Mg  Mg0_6  1  0.50000000  0.87500000  0.09403500  1
  Mg  Mg0_7  1  0.50000000  0.87500000  0.59403500  1
  Mg  Mg1_0  1  0.00000000  0.12500000  0.40596500  1
  Mg  Mg1_1  1  0.00000000  0.12500000  0.90596500  1
  Mg  Mg1_2  1  0.00000000  0.62500000  0.40596500  1
  Mg  Mg1_3  1  0.00000000  0.62500000  0.90596500  1
  Mg  Mg1_4  1  0.50000000  0.12500000  0.40596500  1
  Mg  Mg1_5  1  0.50000000  0.12500000  0.90596500  1
  Mg  Mg1_6  1  0.50000000  0.62500000  0.40596500  1
  Mg  Mg1_7  1  0.50000000  0.62500000  0.90596500  1
  Zr  Zr0_0  1  0.25000000  0.12500000  0.15366550  1
  Zr  Zr0_1  1  0.25000000  0.12500000  0.65366550  1
  Zr  Zr0_2  1  0.25000000  0.62500000  0.15366550  1
  Zr  Zr0_3  1  0.25000000  0.62500000  0.65366550  1
  Zr  Zr0_4  1  0.75000000  0.12500000  0.15366550  1
  Zr  Zr0_5  1  0.75000000  0.12500000  0.65366550  1
  Zr  Zr0_6  1  0.75000000  0.62500000  0.15366550  1
  Zr  Zr0_7  1  0.75000000  0.62500000  0.65366550  1
  Zr  Zr1_0  1  0.25000000  0.37500000  0.34633450  1
  Zr  Zr1_1  1  0.25000000  0.37500000  0.84633450  1
  Zr  Zr1_2  1  0.25000000  0.87500000  0.34633450  1
  Zr  Zr1_3  1  0.25000000  0.87500000  0.84633450  1
  Zr  Zr1_4  1  0.75000000  0.37500000  0.34633450  1
  Zr  Zr1_5  1  0.75000000  0.37500000  0.84633450  1
  Zr  Zr1_6  1  0.75000000  0.87500000  0.34633450  1
  Zr  Zr1_7  1  0.75000000  0.87500000  0.84633450  1
loop_
_geom_bond_atom_site_label_1
_geom_bond_atom_site_label_2
_geom_bond_distance
_geom_bond_site_symmetry_2
Mg0_0 Zr0_6 3.097174 1_455
Mg0_0 Zr0_2 3.097174 1_555
Mg0_0 Zr0_4 3.097174 1_455
Mg0_0 Zr0_0 3.097174 1_555
Mg0_0 Zr1_1 3.100252 1_554
Mg0_0 Zr1_5 3.100252 1_454
Mg0_0 Zr1_4 3.141955 1_455
Mg0_0 Zr1_0 3.141955 1_555
Mg0_0 Mg1_3 3.244746 1_554
Mg0_0 Mg1_1 3.244746 1_554
Mg0_0 Mg0_4 3.265407 1_455
Mg0_0 Mg0_4 3.265407 1_555
Mg0_1 Zr0_7 3.097174 1_455
Mg0_1 Zr0_1 3.097174 1_555
Mg0_1 Zr0_5 3.097174 1_455
Mg0_1 Zr0_3 3.097174 1_555
Mg0_1 Zr1_0 3.100252 1_555
Mg0_1 Zr1_4 3.100252 1_455
Mg0_1 Zr1_5 3.141955 1_455
Mg0_1 Zr1_1 3.141955 1_555
Mg0_1 Mg1_2 3.244746 1_555
Mg0_1 Mg1_0 3.244746 1_555
Mg0_1 Mg0_5 3.265407 1_455
Mg0_1 Mg0_5 3.265407 1_555
Mg0_2 Zr0_6 3.097174 1_455
Mg0_2 Zr0_2 3.097174 1_555
Mg0_2 Zr0_4 3.097174 1_465
Mg0_2 Zr0_0 3.097174 1_565
Mg0_2 Zr1_7 3.100252 1_454
Mg0_2 Zr1_3 3.100252 1_554
Mg0_2 Zr1_2 3.141955 1_555
Mg0_2 Zr1_6 3.141955 1_455
Mg0_2 Mg1_3 3.244746 1_554
Mg0_2 Mg1_1 3.244746 1_564
Mg0_2 Mg0_6 3.265407 1_455
Mg0_2 Mg0_6 3.265407 1_555
Mg0_3 Zr0_3 3.097174 1_555
Mg0_3 Zr0_7 3.097174 1_455
Mg0_3 Zr0_1 3.097174 1_565
Mg0_3 Zr0_5 3.097174 1_465
Mg0_3 Zr1_2 3.100252 1_555
Mg0_3 Zr1_6 3.100252 1_455
Mg0_3 Zr1_7 3.141955 1_455
Mg0_3 Zr1_3 3.141955 1_555
Mg0_3 Mg1_2 3.244746 1_555
Mg0_3 Mg1_0 3.244746 1_565
Mg0_3 Mg0_7 3.265407 1_455
Mg0_3 Mg0_7 3.265407 1_555
Mg0_4 Zr0_4 3.097174 1_555
Mg0_4 Zr0_2 3.097174 1_555
Mg0_4 Zr0_6 3.097174 1_555
Mg0_4 Zr0_0 3.097174 1_555
Mg0_4 Zr1_1 3.100252 1_554
Mg0_4 Zr1_5 3.100252 1_554
Mg0_4 Zr1_4 3.141955 1_555
Mg0_4 Zr1_0 3.141955 1_555
Mg0_4 Mg1_5 3.244746 1_554
Mg0_4 Mg1_7 3.244746 1_554
Mg0_5 Zr0_7 3.097174 1_555
Mg0_5 Zr0_1 3.097174 1_555
Mg0_5 Zr0_5 3.097174 1_555
Mg0_5 Zr0_3 3.097174 1_555
Mg0_5 Zr1_0 3.100252 1_555
Mg0_5 Zr1_4 3.100252 1_555
Mg0_5 Zr1_1 3.141955 1_555
Mg0_5 Zr1_5 3.141955 1_555
Mg0_5 Mg1_6 3.244746 1_555
Mg0_5 Mg1_4 3.244746 1_555
Mg0_6 Zr0_2 3.097174 1_555
Mg0_6 Zr0_6 3.097174 1_555
Mg0_6 Zr0_4 3.097174 1_565
Mg0_6 Zr0_0 3.097174 1_565
Mg0_6 Zr1_7 3.100252 1_554
Mg0_6 Zr1_3 3.100252 1_554
Mg0_6 Zr1_2 3.141955 1_555
Mg0_6 Zr1_6 3.141955 1_555
Mg0_6 Mg1_7 3.244746 1_554
Mg0_6 Mg1_5 3.244746 1_564
Mg0_7 Zr0_3 3.097174 1_555
Mg0_7 Zr0_7 3.097174 1_555
Mg0_7 Zr0_1 3.097174 1_565
Mg0_7 Zr0_5 3.097174 1_565
Mg0_7 Zr1_6 3.100252 1_555
Mg0_7 Zr1_2 3.100252 1_555
Mg0_7 Zr1_3 3.141955 1_555
Mg0_7 Zr1_7 3.141955 1_555
Mg0_7 Mg1_6 3.244746 1_555
Mg0_7 Mg1_4 3.244746 1_565
Mg1_0 Zr1_4 3.097174 1_455
Mg1_0 Zr1_0 3.097174 1_555
Mg1_0 Zr1_2 3.097174 1_545
Mg1_0 Zr1_6 3.097174 1_445
Mg1_0 Zr0_5 3.100252 1_455
Mg1_0 Zr0_1 3.100252 1_555
Mg1_0 Zr0_0 3.141955 1_555
Mg1_0 Zr0_4 3.141955 1_455
Mg1_0 Mg1_4 3.265407 1_455
Mg1_0 Mg1_4 3.265407 1_555
Mg1_1 Zr1_5 3.097174 1_455
Mg1_1 Zr1_1 3.097174 1_555
Mg1_1 Zr1_3 3.097174 1_545
Mg1_1 Zr1_7 3.097174 1_445
Mg1_1 Zr0_4 3.100252 1_456
Mg1_1 Zr0_0 3.100252 1_556
Mg1_1 Zr0_1 3.141955 1_555
Mg1_1 Zr0_5 3.141955 1_455
Mg1_1 Mg1_5 3.265407 1_455
Mg1_1 Mg1_5 3.265407 1_555
Mg1_2 Zr1_6 3.097174 1_455
Mg1_2 Zr1_2 3.097174 1_555
Mg1_2 Zr1_4 3.097174 1_455
Mg1_2 Zr1_0 3.097174 1_555
Mg1_2 Zr0_3 3.100252 1_555
Mg1_2 Zr0_7 3.100252 1_455
Mg1_2 Zr0_6 3.141955 1_455
Mg1_2 Zr0_2 3.141955 1_555
Mg1_2 Mg1_6 3.265407 1_455
Mg1_2 Mg1_6 3.265407 1_555
Mg1_3 Zr1_3 3.097174 1_555
Mg1_3 Zr1_7 3.097174 1_455
Mg1_3 Zr1_5 3.097174 1_455
Mg1_3 Zr1_1 3.097174 1_555
Mg1_3 Zr0_6 3.100252 1_456
Mg1_3 Zr0_2 3.100252 1_556
Mg1_3 Zr0_7 3.141955 1_455
Mg1_3 Zr0_3 3.141955 1_555
Mg1_3 Mg1_7 3.265407 1_455
Mg1_3 Mg1_7 3.265407 1_555
Mg1_4 Zr1_0 3.097174 1_555
Mg1_4 Zr1_4 3.097174 1_555
Mg1_4 Zr1_2 3.097174 1_545
Mg1_4 Zr1_6 3.097174 1_545
Mg1_4 Zr0_1 3.100252 1_555
Mg1_4 Zr0_5 3.100252 1_555
Mg1_4 Zr0_4 3.141955 1_555
Mg1_4 Zr0_0 3.141955 1_555
Mg1_5 Zr1_1 3.097174 1_555
Mg1_5 Zr1_5 3.097174 1_555
Mg1_5 Zr1_3 3.097174 1_545
Mg1_5 Zr1_7 3.097174 1_545
Mg1_5 Zr0_4 3.100252 1_556
Mg1_5 Zr0_0 3.100252 1_556
Mg1_5 Zr0_1 3.141955 1_555
Mg1_5 Zr0_5 3.141955 1_555
Mg1_6 Zr1_6 3.097174 1_555
Mg1_6 Zr1_2 3.097174 1_555
Mg1_6 Zr1_0 3.097174 1_555
Mg1_6 Zr1_4 3.097174 1_555
Mg1_6 Zr0_3 3.100252 1_555
Mg1_6 Zr0_7 3.100252 1_555
Mg1_6 Zr0_2 3.141955 1_555
Mg1_6 Zr0_6 3.141955 1_555
Mg1_7 Zr1_3 3.097174 1_555
Mg1_7 Zr1_7 3.097174 1_555
Mg1_7 Zr1_1 3.097174 1_555
Mg1_7 Zr1_5 3.097174 1_555
Mg1_7 Zr0_2 3.100252 1_556
Mg1_7 Zr0_6 3.100252 1_556
Mg1_7 Zr0_7 3.141955 1_555
Mg1_7 Zr0_3 3.141955 1_555
Zr0_0 Zr0_4 3.265407 1_555
Zr0_0 Zr0_4 3.265407 1_455
Zr0_0 Zr1_0 3.275149 1_555
Zr0_0 Zr1_2 3.275149 1_545
Zr0_1 Zr0_5 3.265407 1_555
Zr0_1 Zr0_5 3.265407 1_455
Zr0_1 Zr1_1 3.275149 1_555
Zr0_1 Zr1_3 3.275149 1_545
Zr0_2 Zr0_6 3.265407 1_455
Zr0_2 Zr0_6 3.265407 1_555
Zr0_2 Zr1_2 3.275149 1_555
Zr0_2 Zr1_0 3.275149 1_555
Zr0_3 Zr0_7 3.265407 1_455
Zr0_3 Zr0_7 3.265407 1_555
Zr0_3 Zr1_3 3.275149 1_555
Zr0_3 Zr1_1 3.275149 1_555
Zr0_4 Zr1_4 3.275149 1_555
Zr0_4 Zr1_6 3.275149 1_545
Zr0_5 Zr1_5 3.275149 1_555
Zr0_5 Zr1_7 3.275149 1_545
Zr0_6 Zr1_6 3.275149 1_555
Zr0_6 Zr1_4 3.275149 1_555
Zr0_7 Zr1_7 3.275149 1_555
Zr0_7 Zr1_5 3.275149 1_555
Zr1_0 Zr1_4 3.265407 1_455
Zr1_0 Zr1_4 3.265407 1_555
Zr1_1 Zr1_5 3.265407 1_555
Zr1_1 Zr1_5 3.265407 1_455
Zr1_2 Zr1_6 3.265407 1_455
Zr1_2 Zr1_6 3.265407 1_555
Zr1_3 Zr1_7 3.265407 1_455
Zr1_3 Zr1_7 3.265407 1_555
