# generated using pymatgen
data_KVPO6
_symmetry_space_group_name_H-M   'P 1'
_cell_length_a   6.78008500
_cell_length_b   9.43938100
_cell_length_c   17.73080400
_cell_angle_alpha   90.00000000
_cell_angle_beta   90.00000000
_cell_angle_gamma   90.00000000
_symmetry_Int_Tables_number   1
_chemical_formula_structural   KVPO6
_chemical_formula_sum   'K8 V8 P8 O48'
_cell_volume   1134.76800784
_cell_formula_units_Z   8
loop_
 _symmetry_equiv_pos_site_id
 _symmetry_equiv_pos_as_xyz
  1  'x, y, z'
loop_
 _atom_site_type_symbol
 _atom_site_label
 _atom_site_symmetry_multiplicity
 _atom_site_fract_x
 _atom_site_fract_y
 _atom_site_fract_z
 _atom_site_occupancy
  K  K0  1  0.22326300  0.31075700  0.40001400  1
  K  K1  1  0.77673700  0.68924300  0.59998600  1
  K  K2  1  0.27673700  0.68924300  0.90001400  1
  K  K3  1  0.77673700  0.81075700  0.09998600  1
  K  K4  1  0.72326300  0.31075700  0.09998600  1
  K  K5  1  0.22326300  0.18924300  0.90001400  1
  K  K6  1  0.72326300  0.18924300  0.59998600  1
  K  K7  1  0.27673700  0.81075700  0.40001400  1
  V  V0  1  0.47636600  0.05127800  0.24082800  1
  V  V1  1  0.52363400  0.94872200  0.75917200  1
  V  V2  1  0.02363400  0.94872200  0.74082800  1
  V  V3  1  0.52363400  0.55127800  0.25917200  1
  V  V4  1  0.97636600  0.05127800  0.25917200  1
  V  V5  1  0.47636600  0.44872200  0.74082800  1
  V  V6  1  0.97636600  0.44872200  0.75917200  1
  V  V7  1  0.02363400  0.55127800  0.24082800  1
  P  P0  1  0.19522400  0.10761400  0.09765000  1
  P  P1  1  0.80477600  0.89238600  0.90235000  1
  P  P2  1  0.30477600  0.89238600  0.59765000  1
  P  P3  1  0.80477600  0.60761400  0.40235000  1
  P  P4  1  0.69522400  0.10761400  0.40235000  1
  P  P5  1  0.19522400  0.39238600  0.59765000  1
  P  P6  1  0.69522400  0.39238600  0.90235000  1
  P  P7  1  0.30477600  0.60761400  0.09765000  1
  O  O0  1  0.38666300  0.13176100  0.14480100  1
  O  O1  1  0.61333700  0.86823900  0.85519900  1
  O  O2  1  0.11333700  0.86823900  0.64480100  1
  O  O3  1  0.61333700  0.63176100  0.35519900  1
  O  O4  1  0.88666300  0.13176100  0.35519900  1
  O  O5  1  0.38666300  0.36823900  0.64480100  1
  O  O6  1  0.88666300  0.36823900  0.85519900  1
  O  O7  1  0.11333700  0.63176100  0.14480100  1
  O  O8  1  0.03026100  0.04927000  0.15022300  1
  O  O9  1  0.96973900  0.95073000  0.84977700  1
  O  O10  1  0.46973900  0.95073000  0.65022300  1
  O  O11  1  0.96973900  0.54927000  0.34977700  1
  O  O12  1  0.53026100  0.04927000  0.34977700  1
  O  O13  1  0.03026100  0.45073000  0.65022300  1
  O  O14  1  0.53026100  0.45073000  0.84977700  1
  O  O15  1  0.46973900  0.54927000  0.15022300  1
  O  O16  1  0.22063100  0.10865700  0.27691500  1
  O  O17  1  0.77936900  0.89134300  0.72308500  1
  O  O18  1  0.27936900  0.89134300  0.77691500  1
  O  O19  1  0.77936900  0.60865700  0.22308500  1
  O  O20  1  0.72063100  0.10865700  0.22308500  1
  O  O21  1  0.22063100  0.39134300  0.77691500  1
  O  O22  1  0.72063100  0.39134300  0.72308500  1
  O  O23  1  0.27936900  0.60865700  0.27691500  1
  O  O24  1  0.12661400  0.24234700  0.05674600  1
  O  O25  1  0.87338600  0.75765300  0.94325400  1
  O  O26  1  0.37338600  0.75765300  0.55674600  1
  O  O27  1  0.87338600  0.74234700  0.44325400  1
  O  O28  1  0.62661400  0.24234700  0.44325400  1
  O  O29  1  0.12661400  0.25765300  0.55674600  1
  O  O30  1  0.62661400  0.25765300  0.94325400  1
  O  O31  1  0.37338600  0.74234700  0.05674600  1
  O  O32  1  0.27127200  0.50993300  0.02932500  1
  O  O33  1  0.72872800  0.49006700  0.97067500  1
  O  O34  1  0.22872800  0.49006700  0.52932500  1
  O  O35  1  0.72872800  0.00993300  0.47067500  1
  O  O36  1  0.77127200  0.50993300  0.47067500  1
  O  O37  1  0.27127200  0.99006700  0.52932500  1
  O  O38  1  0.77127200  0.99006700  0.97067500  1
  O  O39  1  0.22872800  0.00993300  0.02932500  1
  O  O40  1  0.02626900  0.38184000  0.22410900  1
  O  O41  1  0.97373100  0.61816000  0.77589100  1
  O  O42  1  0.47373100  0.61816000  0.72410900  1
  O  O43  1  0.97373100  0.88184000  0.27589100  1
  O  O44  1  0.52626900  0.38184000  0.27589100  1
  O  O45  1  0.02626900  0.11816000  0.72410900  1
  O  O46  1  0.52626900  0.11816000  0.77589100  1
  O  O47  1  0.47373100  0.88184000  0.22410900  1
loop_
_geom_bond_atom_site_label_1
_geom_bond_atom_site_label_2
_geom_bond_distance
_geom_bond_site_symmetry_2
K0 O34 2.850098 1_555
K0 O29 2.898867 1_555
K0 O16 2.898891 1_555
K0 O28 2.912674 1_555
K0 O4 2.948646 1_455
K0 O11 2.969336 1_455
K0 O44 3.084530 1_555
K1 O36 2.850098 1_555
K1 O27 2.898867 1_555
K1 O17 2.898891 1_555
K1 O26 2.912674 1_555
K1 O2 2.948646 1_655
K1 O13 2.969336 1_655
K1 O42 3.084530 1_555
K2 O32 2.850098 1_556
K2 O31 2.898867 1_556
K2 O18 2.898891 1_555
K2 O25 2.912674 1_455
K2 O1 2.948646 1_555
K2 O14 2.969336 1_555
K2 O41 3.084530 1_455
K3 O38 2.850098 1_554
K3 O25 2.898867 1_554
K3 O19 2.898891 1_555
K3 O31 2.912674 1_555
K3 O7 2.948646 1_655
K3 O8 2.969336 1_665
K3 O47 3.084530 1_555
K4 O33 2.850098 1_554
K4 O30 2.898867 1_554
K4 O20 2.898891 1_555
K4 O24 2.912674 1_655
K4 O0 2.948646 1_555
K4 O15 2.969336 1_555
K4 O40 3.084530 1_655
K5 O39 2.850098 1_556
K5 O24 2.898867 1_556
K5 O21 2.898891 1_555
K5 O30 2.912674 1_555
K5 O6 2.948646 1_455
K5 O9 2.969336 1_445
K5 O46 3.084530 1_555
K6 O35 2.850098 1_555
K6 O28 2.898867 1_555
K6 O22 2.898891 1_555
K6 O29 2.912674 1_655
K6 O5 2.948646 1_555
K6 O10 2.969336 1_545
K6 O45 3.084530 1_655
K7 O37 2.850098 1_555
K7 O26 2.898867 1_555
K7 O23 2.898891 1_555
K7 O27 2.912674 1_455
K7 O3 2.948646 1_555
K7 O12 2.969336 1_565
K7 O43 3.084530 1_455
O0 P0 1.560649 1_555
O0 V0 1.961129 1_555
O1 P1 1.560649 1_555
O1 V1 1.961129 1_555
O2 P2 1.560649 1_555
O2 V2 1.961129 1_555
O3 P3 1.560649 1_555
O3 V3 1.961129 1_555
O4 P4 1.560649 1_555
O4 V4 1.961129 1_555
O5 P5 1.560649 1_555
O5 V5 1.961129 1_555
O6 P6 1.560649 1_555
O6 V6 1.961129 1_555
O7 P7 1.560649 1_555
O7 V7 1.961129 1_555
O8 P0 1.556660 1_555
O8 V4 1.966102 1_455
O9 P1 1.556660 1_555
O9 V2 1.966102 1_655
O10 P2 1.556660 1_555
O10 V1 1.966102 1_555
O11 P3 1.556660 1_555
O11 V7 1.966102 1_655
O12 P4 1.556660 1_555
O12 V0 1.966102 1_555
O13 P5 1.556660 1_555
O13 V6 1.966102 1_455
O14 P6 1.556660 1_555
O14 V5 1.966102 1_555
O15 P7 1.556660 1_555
O15 V3 1.966102 1_555
O16 V4 1.770626 1_455
O16 V0 1.925926 1_555
O17 V2 1.770626 1_655
O17 V1 1.925926 1_555
O18 V1 1.770626 1_555
O18 V2 1.925926 1_555
O19 V7 1.770626 1_655
O19 V3 1.925926 1_555
O20 V0 1.770626 1_555
O20 V4 1.925926 1_555
O21 V6 1.770626 1_455
O21 V5 1.925926 1_555
O22 V5 1.770626 1_555
O22 V6 1.925926 1_555
O23 V3 1.770626 1_555
O23 V7 1.925926 1_555
O24 P0 1.536184 1_555
O25 P1 1.536184 1_555
O26 P2 1.536184 1_555
O27 P3 1.536184 1_555
O28 P4 1.536184 1_555
O29 P5 1.536184 1_555
O30 P6 1.536184 1_555
O31 P7 1.536184 1_555
O32 P7 1.539287 1_555
O33 P6 1.539287 1_555
O34 P5 1.539287 1_555
O35 P4 1.539287 1_555
O36 P3 1.539287 1_555
O37 P2 1.539287 1_555
O38 P1 1.539287 1_555
O39 P0 1.539287 1_555
O40 V7 1.626728 1_555
O41 V6 1.626728 1_555
O42 V5 1.626728 1_555
O43 V4 1.626728 1_565
O44 V3 1.626728 1_555
O45 V2 1.626728 1_545
O46 V1 1.626728 1_545
O47 V0 1.626728 1_565
