# generated using pymatgen
data_Eu3DySb3
_symmetry_space_group_name_H-M   'P 1'
_cell_length_a   8.28002526
_cell_length_b   8.28026270
_cell_length_c   8.34160132
_cell_angle_alpha   70.58376382
_cell_angle_beta   70.59070762
_cell_angle_gamma   109.07688122
_symmetry_Int_Tables_number   1
_chemical_formula_structural   Eu3DySb3
_chemical_formula_sum   'Eu6 Dy2 Sb6'
_cell_volume   443.00621767
_cell_formula_units_Z   2
loop_
 _symmetry_equiv_pos_site_id
 _symmetry_equiv_pos_as_xyz
  1  'x, y, z'
loop_
 _atom_site_type_symbol
 _atom_site_label
 _atom_site_symmetry_multiplicity
 _atom_site_fract_x
 _atom_site_fract_y
 _atom_site_fract_z
 _atom_site_occupancy
  Eu  Eu0  1  0.00173601  0.36148008  0.49322213  1
  Eu  Eu1  1  0.49530921  0.49416088  0.14808183  1
  Eu  Eu2  1  0.64308242  0.14748876  0.35915841  1
  Eu  Eu3  1  0.36148122  0.00173682  0.99322078  1
  Eu  Eu4  1  0.49414989  0.49530151  0.64808821  1
  Eu  Eu5  1  0.14748373  0.64308282  0.85915624  1
  Dy  Dy0  1  0.85745107  0.00112545  0.99865950  1
  Dy  Dy1  1  0.00112563  0.85744724  0.49865247  1
  Sb  Sb0  1  0.64160967  0.87461956  0.74881433  1
  Sb  Sb1  1  0.87463712  0.64160844  0.24879220  1
  Sb  Sb2  1  0.23035549  0.11303019  0.63298283  1
  Sb  Sb3  1  0.76006562  0.37845755  0.86911710  1
  Sb  Sb4  1  0.37846967  0.76006874  0.36908726  1
  Sb  Sb5  1  0.11304125  0.23038896  0.13296472  1
loop_
_geom_bond_atom_site_label_1
_geom_bond_atom_site_label_2
_geom_bond_distance
_geom_bond_site_symmetry_2
Eu0 Sb3 3.187867 1_455
Eu0 Sb1 3.243827 1_455
Eu0 Sb4 3.247579 1_555
Eu0 Sb2 3.404773 1_555
Eu0 Sb0 3.448368 1_445
Eu0 Sb5 3.469916 1_555
Eu1 Sb0 3.214414 1_554
Eu1 Sb3 3.256258 1_554
Eu1 Sb5 3.276294 1_555
Eu1 Sb1 3.462691 1_555
Eu1 Sb4 3.476802 1_555
Eu1 Sb2 3.496127 1_555
Eu2 Sb4 3.194771 1_545
Eu2 Sb2 3.273929 1_555
Eu2 Sb0 3.277643 1_545
Eu2 Sb5 3.418530 1_655
Eu2 Sb3 3.502171 1_554
Eu2 Sb1 3.529625 1_555
Eu3 Sb4 3.187501 1_546
Eu3 Sb0 3.244072 1_545
Eu3 Sb3 3.247587 1_555
Eu3 Sb5 3.405068 1_556
Eu3 Sb1 3.448309 1_446
Eu3 Sb2 3.469744 1_555
Eu4 Sb1 3.214833 1_555
Eu4 Sb4 3.256095 1_555
Eu4 Sb2 3.276376 1_555
Eu4 Sb0 3.462848 1_555
Eu4 Sb3 3.476758 1_555
Eu4 Sb5 3.496051 1_556
Eu5 Sb3 3.194606 1_455
Eu5 Sb5 3.273567 1_556
Eu5 Sb1 3.277673 1_456
Eu5 Sb2 3.418415 1_565
Eu5 Sb4 3.502495 1_555
Eu5 Sb0 3.529686 1_555
Dy0 Sb1 3.095202 1_546
Dy0 Sb2 3.112501 1_655
Dy0 Sb5 3.114683 1_656
Dy0 Sb0 3.367195 1_545
Dy0 Sb3 3.400160 1_555
Dy0 Sb4 3.441066 1_546
Dy1 Sb0 3.095397 1_455
Dy1 Sb5 3.112513 1_565
Dy1 Sb2 3.114689 1_565
Dy1 Sb1 3.367320 1_455
Dy1 Sb4 3.400306 1_555
Dy1 Sb3 3.441087 1_455
