# generated using pymatgen
data_Rb2CuP4(HO2)8
_symmetry_space_group_name_H-M   'P 1'
_cell_length_a   7.02671897
_cell_length_b   7.60879151
_cell_length_c   7.92098554
_cell_angle_alpha   84.99383043
_cell_angle_beta   72.95202490
_cell_angle_gamma   85.31349978
_symmetry_Int_Tables_number   1
_chemical_formula_structural   Rb2CuP4(HO2)8
_chemical_formula_sum   'Rb2 Cu1 P4 H8 O16'
_cell_volume   402.64037447
_cell_formula_units_Z   1
loop_
 _symmetry_equiv_pos_site_id
 _symmetry_equiv_pos_as_xyz
  1  'x, y, z'
loop_
 _atom_site_type_symbol
 _atom_site_label
 _atom_site_symmetry_multiplicity
 _atom_site_fract_x
 _atom_site_fract_y
 _atom_site_fract_z
 _atom_site_occupancy
  Rb  Rb0  1  0.39040300  0.27833600  0.22172100  1
  Rb  Rb1  1  0.60959700  0.72166400  0.77827900  1
  Cu  Cu0  1  0.00000000  0.50000000  0.00000000  1
  P  P0  1  0.75319500  0.80662800  0.23913000  1
  P  P1  1  0.24680500  0.19337200  0.76087000  1
  P  P2  1  0.16722300  0.73640600  0.23647000  1
  P  P3  1  0.83277700  0.26359400  0.76353000  1
  H  H0  1  0.44563200  0.73574900  0.39015500  1
  H  H1  1  0.55436800  0.26425100  0.60984500  1
  H  H2  1  0.23908900  0.95887200  0.03194900  1
  H  H3  1  0.76091100  0.04112800  0.96805100  1
  H  H4  1  0.87374400  0.30586900  0.37837300  1
  H  H5  1  0.12625600  0.69413100  0.62162700  1
  H  H6  1  0.88899100  0.18245100  0.22482300  1
  H  H7  1  0.11100900  0.81754900  0.77517700  1
  O  O0  1  0.76840000  0.66277600  0.11297600  1
  O  O1  1  0.23160000  0.33722400  0.88702400  1
  O  O2  1  0.57214300  0.78265600  0.40954700  1
  O  O3  1  0.42785700  0.21734400  0.59045300  1
  O  O4  1  0.75758200  0.99507900  0.15687000  1
  O  O5  1  0.24241800  0.00492100  0.84313000  1
  O  O6  1  0.93205500  0.77469000  0.33203200  1
  O  O7  1  0.06794500  0.22531000  0.66796800  1
  O  O8  1  0.19298200  0.61426100  0.08764100  1
  O  O9  1  0.80701800  0.38573900  0.91235900  1
  O  O10  1  0.25651100  0.66624700  0.38271600  1
  O  O11  1  0.74348900  0.33375300  0.61728400  1
  O  O12  1  0.25429300  0.91994900  0.15699500  1
  O  O13  1  0.74570700  0.08005100  0.84300500  1
  O  O14  1  0.94847400  0.28373000  0.25493400  1
  O  O15  1  0.05152600  0.71627000  0.74506600  1
loop_
_geom_bond_atom_site_label_1
_geom_bond_atom_site_label_2
_geom_bond_distance
_geom_bond_site_symmetry_2
Cu0 O8 1.981542 1_555
Cu0 O9 1.981542 1_454
Cu0 O1 1.998331 1_554
Cu0 O0 1.998331 1_455
Cu0 O15 2.450583 1_554
Cu0 O14 2.450583 1_455
H0 O2 1.040527 1_555
H0 O10 1.488386 1_555
H1 O3 1.040527 1_555
H1 O11 1.488386 1_555
H2 O12 1.042050 1_555
H2 O5 1.499865 1_564
H3 O13 1.042050 1_555
H3 O4 1.499865 1_546
H4 O14 0.986595 1_555
H5 O15 0.986595 1_555
H6 O14 0.984169 1_555
H7 O15 0.984169 1_555
O0 P0 1.522215 1_555
O0 Rb1 3.149599 1_554
O1 P1 1.522215 1_555
O1 Rb0 3.149599 1_556
O2 P0 1.569054 1_555
O2 Rb1 3.001571 1_555
O3 P1 1.569054 1_555
O3 Rb0 3.001571 1_555
O4 P0 1.521157 1_555
O4 Rb0 3.173820 1_565
O5 P1 1.521157 1_555
O5 Rb1 3.173820 1_545
O6 P2 1.617051 1_655
O6 P0 1.625199 1_555
O7 P3 1.617051 1_455
O7 P1 1.625199 1_555
O8 P2 1.524747 1_555
O8 Rb0 3.065302 1_555
O8 Rb1 3.328316 1_554
O9 P3 1.524747 1_555
O9 Rb1 3.065302 1_555
O9 Rb0 3.328316 1_556
O10 P2 1.511296 1_555
O10 Rb0 3.274537 1_555
O11 P3 1.511296 1_555
O11 Rb1 3.274537 1_555
O12 P2 1.575212 1_555
O12 Rb0 3.093733 1_565
O13 P3 1.575212 1_555
O13 Rb1 3.093733 1_545
O14 Rb0 3.035770 1_655
O15 Rb1 3.035770 1_455
