# generated using pymatgen
data_Ca5(TiN3)2
_symmetry_space_group_name_H-M   'P 1'
_cell_length_a   6.10657579
_cell_length_b   6.55391325
_cell_length_c   12.89618820
_cell_angle_alpha   90.00000041
_cell_angle_beta   101.44650745
_cell_angle_gamma   122.45435244
_symmetry_Int_Tables_number   1
_chemical_formula_structural   Ca5(TiN3)2
_chemical_formula_sum   'Ca10 Ti4 N12'
_cell_volume   423.30511411
_cell_formula_units_Z   2
loop_
 _symmetry_equiv_pos_site_id
 _symmetry_equiv_pos_as_xyz
  1  'x, y, z'
loop_
 _atom_site_type_symbol
 _atom_site_label
 _atom_site_symmetry_multiplicity
 _atom_site_fract_x
 _atom_site_fract_y
 _atom_site_fract_z
 _atom_site_occupancy
  Ca  Ca0  1  0.05613924  0.77284026  0.00733459  1
  Ca  Ca1  1  0.94386076  0.71670103  0.49266541  1
  Ca  Ca2  1  0.94386076  0.22715974  0.99266541  1
  Ca  Ca3  1  0.05613924  0.28329897  0.50733459  1
  Ca  Ca4  1  0.31309764  0.00886702  0.72567284  1
  Ca  Ca5  1  0.68690236  0.69576938  0.77432716  1
  Ca  Ca6  1  0.68690236  0.99113298  0.27432716  1
  Ca  Ca7  1  0.31309764  0.30423062  0.22567284  1
  Ca  Ca8  1  0.00000000  0.34208503  0.75000000  1
  Ca  Ca9  1  0.00000000  0.65791497  0.25000000  1
  Ti  Ti0  1  0.54875819  0.86386425  0.56843729  1
  Ti  Ti1  1  0.45124181  0.31510606  0.93156271  1
  Ti  Ti2  1  0.45124181  0.13613575  0.43156271  1
  Ti  Ti3  1  0.54875819  0.68489394  0.06843729  1
  N  N0  1  0.90049406  0.93991739  0.62378675  1
  N  N1  1  0.09950594  0.03942333  0.87621325  1
  N  N2  1  0.09950594  0.06008261  0.37621325  1
  N  N3  1  0.90049406  0.96057667  0.12378675  1
  N  N4  1  0.28485659  0.64281540  0.64257691  1
  N  N5  1  0.71514341  0.35795881  0.85742309  1
  N  N6  1  0.71514341  0.35718460  0.35742309  1
  N  N7  1  0.28485659  0.64204119  0.14257691  1
  N  N8  1  0.57961913  0.17329496  0.58614610  1
  N  N9  1  0.42038087  0.59367583  0.91385390  1
  N  N10  1  0.42038087  0.82670504  0.41385390  1
  N  N11  1  0.57961913  0.40632417  0.08614610  1
loop_
_geom_bond_atom_site_label_1
_geom_bond_atom_site_label_2
_geom_bond_distance
_geom_bond_site_symmetry_2
Ca0 N1 2.379753 1_564
Ca0 N7 2.458793 1_555
Ca0 N3 2.548393 1_455
Ca0 N5 2.791506 1_454
Ca0 N11 2.990418 1_455
Ca1 N0 2.379753 1_555
Ca1 N6 2.458793 1_555
Ca1 N2 2.548393 1_665
Ca1 N4 2.791506 1_655
Ca1 N10 2.990418 1_655
Ca2 N3 2.379753 1_546
Ca2 N5 2.458793 1_555
Ca2 N1 2.548393 1_655
Ca2 N7 2.791506 1_656
Ca2 N9 2.990418 1_655
Ca3 N2 2.379753 1_555
Ca3 N4 2.458793 1_555
Ca3 N0 2.548393 1_445
Ca3 N6 2.791506 1_455
Ca3 N8 2.990418 1_455
Ca4 N0 2.396461 1_445
Ca4 N8 2.515523 1_555
Ca4 N4 2.533033 1_545
Ca4 N5 2.542594 1_555
Ca4 N1 2.606865 1_555
Ca5 N1 2.396461 1_665
Ca5 N9 2.515523 1_555
Ca5 N5 2.533033 1_555
Ca5 N4 2.542594 1_555
Ca5 N0 2.606865 1_555
Ca6 N2 2.396461 1_665
Ca6 N10 2.515523 1_555
Ca6 N6 2.533033 1_565
Ca6 N7 2.542594 1_555
Ca6 N3 2.606865 1_555
Ca7 N3 2.396461 1_445
Ca7 N11 2.515523 1_555
Ca7 N7 2.533033 1_555
Ca7 N6 2.542594 1_555
Ca7 N2 2.606865 1_555
Ca8 N5 2.471146 1_455
Ca8 N4 2.471146 1_555
Ca8 N8 2.660452 1_455
Ca8 N9 2.660452 1_555
Ca8 N0 2.802561 1_445
Ca8 N1 2.802561 1_555
Ca9 N7 2.471146 1_555
Ca9 N6 2.471146 1_455
Ca9 N10 2.660452 1_555
Ca9 N11 2.660452 1_455
Ca9 N2 2.802561 1_565
Ca9 N3 2.802561 1_455
N0 Ti0 1.901019 1_555
N1 Ti1 1.901019 1_555
N2 Ti2 1.901019 1_555
N3 Ti3 1.901019 1_555
N4 Ti0 1.927663 1_555
N5 Ti1 1.927663 1_555
N6 Ti2 1.927663 1_555
N7 Ti3 1.927663 1_555
N8 Ti0 1.942452 1_545
N8 Ti2 1.955216 1_555
N9 Ti1 1.942452 1_555
N9 Ti3 1.955216 1_556
N10 Ti2 1.942452 1_565
N10 Ti0 1.955216 1_555
N11 Ti3 1.942452 1_555
N11 Ti1 1.955216 1_554
