# generated using pymatgen
data_LaYCo10
_symmetry_space_group_name_H-M   'P 1'
_cell_length_a   3.86522119
_cell_length_b   4.94356024
_cell_length_c   8.95987145
_cell_angle_alpha   89.99998028
_cell_angle_beta   90.00000000
_cell_angle_gamma   90.00000000
_symmetry_Int_Tables_number   1
_chemical_formula_structural   LaYCo10
_chemical_formula_sum   'La1 Y1 Co10'
_cell_volume   171.20480966
_cell_formula_units_Z   1
loop_
 _symmetry_equiv_pos_site_id
 _symmetry_equiv_pos_as_xyz
  1  'x, y, z'
loop_
 _atom_site_type_symbol
 _atom_site_label
 _atom_site_symmetry_multiplicity
 _atom_site_fract_x
 _atom_site_fract_y
 _atom_site_fract_z
 _atom_site_occupancy
  La  La0  1  0.00000000  0.50000000  0.00000000  1
  Y  Y0  1  -0.00000000  0.00000000  0.50000000  1
  Co  Co0  1  -0.00000000  0.50000000  0.34483709  1
  Co  Co1  1  -0.00000000  -0.00000000  0.82690167  1
  Co  Co2  1  0.00000000  0.00000000  0.17309833  1
  Co  Co3  1  0.00000000  0.50000000  0.65516291  1
  Co  Co4  1  0.50000000  0.50000000  0.50000000  1
  Co  Co5  1  0.50000000  0.00000000  0.00000000  1
  Co  Co6  1  0.50000000  0.75674664  0.25955615  1
  Co  Co7  1  0.50000000  0.24325336  0.74044385  1
  Co  Co8  1  0.50000000  0.24325336  0.25955615  1
  Co  Co9  1  0.50000000  0.75674664  0.74044385  1
loop_
_geom_bond_atom_site_label_1
_geom_bond_atom_site_label_2
_geom_bond_distance
_geom_bond_site_symmetry_2
Co0 Co4 2.380704 1_455
Co0 Co4 2.380704 1_555
Co0 Co6 2.435122 1_555
Co0 Co6 2.435122 1_455
Co0 Co8 2.435122 1_455
Co0 Co8 2.435122 1_555
Co0 Co3 2.780479 1_555
Co0 Y0 2.835923 1_555
Co0 Y0 2.835924 1_565
Co0 Co2 2.911609 1_565
Co0 Co2 2.911610 1_555
Co0 La0 3.089696 1_555
Co1 Co7 2.404405 1_455
Co1 Co7 2.404405 1_555
Co1 Co9 2.404405 1_545
Co1 Co9 2.404405 1_445
Co1 Co5 2.477982 1_556
Co1 Co5 2.477982 1_456
Co1 Co3 2.911609 1_555
Co1 Co3 2.911610 1_545
Co1 La0 2.918065 1_546
Co1 La0 2.918066 1_556
Co1 Y0 2.928997 1_555
Co2 Co6 2.404405 1_445
Co2 Co6 2.404405 1_545
Co2 Co8 2.404405 1_555
Co2 Co8 2.404405 1_455
Co2 Co5 2.477982 1_455
Co2 Co5 2.477982 1_555
Co2 La0 2.918065 1_555
Co2 La0 2.918066 1_545
Co2 Y0 2.928997 1_555
Co3 Co4 2.380704 1_455
Co3 Co4 2.380704 1_555
Co3 Co7 2.435122 1_455
Co3 Co7 2.435122 1_555
Co3 Co9 2.435122 1_455
Co3 Co9 2.435122 1_555
Co3 Y0 2.835923 1_565
Co3 Y0 2.835924 1_555
Co3 La0 3.089696 1_556
Co4 Co6 2.500436 1_555
Co4 Co7 2.500436 1_555
Co4 Co8 2.500437 1_555
Co4 Co9 2.500437 1_555
Co4 Y0 3.137623 1_565
Co4 Y0 3.137623 1_665
Co4 Y0 3.137623 1_555
Co4 Y0 3.137623 1_655
Co5 Co6 2.618103 1_545
Co5 Co7 2.618103 1_554
Co5 Co9 2.618104 1_544
Co5 Co8 2.618104 1_555
Co5 La0 3.137623 1_645
Co5 La0 3.137623 1_545
Co5 La0 3.137623 1_555
Co5 La0 3.137623 1_655
Co6 Co8 2.405075 1_565
Co6 Co8 2.538485 1_555
Co6 Y0 3.134053 1_565
Co6 Y0 3.134053 1_665
Co6 La0 3.279379 1_655
Co6 La0 3.279379 1_555
Co7 Co9 2.405075 1_545
Co7 Co9 2.538485 1_555
Co7 Y0 3.134053 1_555
Co7 Y0 3.134053 1_655
Co7 La0 3.279379 1_656
Co7 La0 3.279379 1_556
Co8 Y0 3.134053 1_555
Co8 Y0 3.134053 1_655
Co8 La0 3.279379 1_555
Co8 La0 3.279379 1_655
Co9 Y0 3.134053 1_665
Co9 Y0 3.134053 1_565
Co9 La0 3.279379 1_556
Co9 La0 3.279379 1_656
