# generated using pymatgen
data_Mg14SbW
_symmetry_space_group_name_H-M   'P 1'
_cell_length_a   6.28673722
_cell_length_b   6.25044051
_cell_length_c   10.21156976
_cell_angle_alpha   90.00000000
_cell_angle_beta   90.00000000
_cell_angle_gamma   119.80920121
_symmetry_Int_Tables_number   1
_chemical_formula_structural   Mg14SbW
_chemical_formula_sum   'Mg14 Sb1 W1'
_cell_volume   348.16960009
_cell_formula_units_Z   1
loop_
 _symmetry_equiv_pos_site_id
 _symmetry_equiv_pos_as_xyz
  1  'x, y, z'
loop_
 _atom_site_type_symbol
 _atom_site_label
 _atom_site_symmetry_multiplicity
 _atom_site_fract_x
 _atom_site_fract_y
 _atom_site_fract_z
 _atom_site_occupancy
  Mg  Mg0  1  0.16622238  0.33311069  0.62500000  1
  Mg  Mg1  1  0.16892761  0.83446330  0.62500000  1
  Mg  Mg2  1  0.66867244  0.33420268  0.12500000  1
  Mg  Mg3  1  0.66542797  0.33028329  0.62500000  1
  Mg  Mg4  1  0.66867244  0.83446876  0.12500000  1
  Mg  Mg5  1  0.66542797  0.83514368  0.62500000  1
  Mg  Mg6  1  0.33044735  0.17323049  0.36717391  1
  Mg  Mg7  1  0.33044735  0.17323049  0.88282609  1
  Mg  Mg8  1  0.33044735  0.65721786  0.36717391  1
  Mg  Mg9  1  0.33044735  0.65721786  0.88282609  1
  Mg  Mg10  1  0.84458521  0.17229311  0.36724843  1
  Mg  Mg11  1  0.84458521  0.17229311  0.88275157  1
  Mg  Mg12  1  0.83083864  0.66541982  0.38021540  1
  Mg  Mg13  1  0.83083864  0.66541982  0.86978460  1
  Sb  Sb0  1  0.15368026  0.82683963  0.12500000  1
  W  W0  1  0.17033183  0.33516541  0.12500000  1
loop_
_geom_bond_atom_site_label_1
_geom_bond_atom_site_label_2
_geom_bond_distance
_geom_bond_site_symmetry_2
Mg0 Mg1 3.125255 1_555
Mg0 Mg1 3.125255 1_545
Mg0 Mg5 3.139615 1_445
Mg0 Mg3 3.139615 1_455
Mg0 Mg5 3.147197 1_555
Mg0 Mg3 3.147197 1_555
Mg0 Mg10 3.163219 1_455
Mg0 Mg11 3.163219 1_455
Mg0 Mg6 3.165761 1_555
Mg0 Mg7 3.165761 1_555
Mg0 Mg8 3.165767 1_555
Mg0 Mg9 3.165767 1_555
Mg1 Mg12 3.106351 1_455
Mg1 Mg13 3.106351 1_455
Mg1 Mg3 3.119255 1_565
Mg1 Mg5 3.119255 1_555
Mg1 Mg3 3.167486 1_455
Mg1 Mg5 3.167486 1_455
Mg1 Mg9 3.210702 1_555
Mg1 Mg8 3.210702 1_555
Mg1 Mg6 3.210708 1_565
Mg1 Mg7 3.210708 1_565
Mg2 Sb0 3.073100 1_655
Mg2 Mg7 3.085803 1_554
Mg2 Mg6 3.085803 1_555
Mg2 Mg4 3.123557 1_545
Mg2 Mg4 3.126883 1_555
Mg2 W0 3.135932 1_555
Mg2 W0 3.150814 1_655
Mg2 Sb0 3.214182 1_545
Mg3 Mg5 3.094841 1_545
Mg3 Mg5 3.155600 1_555
Mg3 Mg7 3.205453 1_555
Mg3 Mg6 3.205453 1_555
Mg4 Sb0 3.073100 1_655
Mg4 Mg8 3.085803 1_555
Mg4 Mg9 3.085803 1_554
Mg4 W0 3.135932 1_555
Mg4 W0 3.150813 1_665
Mg4 Sb0 3.214182 1_555
Mg5 Mg9 3.205453 1_555
Mg5 Mg8 3.205453 1_555
Mg6 W0 3.027591 1_555
Mg6 Sb0 3.105810 1_545
Mg7 W0 3.027591 1_556
Mg7 Sb0 3.105810 1_546
Mg8 W0 3.027597 1_555
Mg8 Sb0 3.105803 1_555
Mg9 W0 3.027597 1_556
Mg9 Sb0 3.105803 1_556
Mg10 W0 3.045786 1_655
Mg10 Mg2 3.078850 1_555
Mg10 Mg4 3.078856 1_545
Mg10 Mg12 3.128923 1_555
Mg10 Mg12 3.128923 1_545
Mg10 Mg3 3.205816 1_555
Mg10 Mg5 3.205822 1_545
Mg11 W0 3.045786 1_656
Mg11 Mg2 3.078850 1_556
Mg11 Mg4 3.078856 1_546
Mg11 Mg13 3.128923 1_555
Mg11 Mg13 3.128923 1_545
Mg11 Mg3 3.205816 1_555
Mg11 Mg5 3.205822 1_545
Mg12 Mg5 3.090591 1_555
Mg12 Mg3 3.090598 1_555
Mg12 Mg6 3.123501 1_555
Mg12 Mg8 3.123501 1_555
Mg12 Sb0 3.145377 1_655
Mg12 Mg4 3.165260 1_555
Mg12 Mg2 3.165266 1_555
Mg12 Mg6 3.169505 1_665
Mg12 Mg8 3.169505 1_655
Mg13 Mg5 3.090591 1_555
Mg13 Mg3 3.090598 1_555
Mg13 Mg7 3.123501 1_555
Mg13 Mg9 3.123501 1_555
Mg13 Sb0 3.145377 1_656
Mg13 Mg4 3.165260 1_556
Mg13 Mg2 3.165266 1_556
Mg13 Mg7 3.169505 1_665
Mg13 Mg9 3.169505 1_655
Sb0 W0 3.126540 1_565
Sb0 W0 3.126540 1_555
