# generated using pymatgen
data_ZnAsNO4
_symmetry_space_group_name_H-M   'P 1'
_cell_length_a   5.71586800
_cell_length_b   9.10470800
_cell_length_c   9.29526883
_cell_angle_alpha   89.75666413
_cell_angle_beta   90.00000000
_cell_angle_gamma   90.00000000
_symmetry_Int_Tables_number   1
_chemical_formula_structural   ZnAsNO4
_chemical_formula_sum   'Zn4 As4 N4 O16'
_cell_volume   483.73359579
_cell_formula_units_Z   4
loop_
 _symmetry_equiv_pos_site_id
 _symmetry_equiv_pos_as_xyz
  1  'x, y, z'
loop_
 _atom_site_type_symbol
 _atom_site_label
 _atom_site_symmetry_multiplicity
 _atom_site_fract_x
 _atom_site_fract_y
 _atom_site_fract_z
 _atom_site_occupancy
  Zn  Zn0  1  0.46994400  0.67825800  0.90009300  1
  Zn  Zn1  1  0.96994400  0.32174200  0.09990700  1
  Zn  Zn2  1  0.42310800  0.17763100  0.58161400  1
  Zn  Zn3  1  0.92310800  0.82236900  0.41838600  1
  As  As0  1  0.46590700  0.30684600  0.90753200  1
  As  As1  1  0.96590700  0.69315400  0.09246800  1
  As  As2  1  0.42987800  0.80563100  0.56472000  1
  As  As3  1  0.92987800  0.19436900  0.43528000  1
  N  N0  1  0.93861500  0.99622100  0.80998300  1
  N  N1  1  0.43861500  0.00377900  0.19001700  1
  N  N2  1  0.46593400  0.49302200  0.31715300  1
  N  N3  1  0.96593400  0.50697800  0.68284700  1
  O  O0  1  0.20692600  0.71704900  0.47566900  1
  O  O1  1  0.70692600  0.28295100  0.52433100  1
  O  O2  1  0.68510700  0.71402300  0.52531900  1
  O  O3  1  0.18510700  0.28597700  0.47468100  1
  O  O4  1  0.30173100  0.28844000  0.06220400  1
  O  O5  1  0.80173100  0.71156000  0.93779600  1
  O  O6  1  0.42400100  0.47758000  0.83118300  1
  O  O7  1  0.92400100  0.52242000  0.16881700  1
  O  O8  1  0.75761100  0.27666300  0.94060000  1
  O  O9  1  0.25761100  0.72333700  0.05940000  1
  O  O10  1  0.45515600  0.98100100  0.49378700  1
  O  O11  1  0.95515600  0.01899900  0.50621300  1
  O  O12  1  0.37334800  0.81073000  0.74539100  1
  O  O13  1  0.87334800  0.18927000  0.25460900  1
  O  O14  1  0.37403500  0.17561800  0.78706600  1
  O  O15  1  0.87403500  0.82438200  0.21293400  1
loop_
_geom_bond_atom_site_label_1
_geom_bond_atom_site_label_2
_geom_bond_distance
_geom_bond_site_symmetry_2
As0 O8 1.717355 1_555
As0 O6 1.722810 1_555
As0 O14 1.722941 1_555
As0 O4 1.724436 1_556
As1 O9 1.717355 1_655
As1 O7 1.722810 1_555
As1 O15 1.722941 1_555
As1 O5 1.724436 1_554
As2 O12 1.711011 1_555
As2 O2 1.720654 1_555
As2 O0 1.722009 1_555
As2 O10 1.730922 1_555
As3 O13 1.711011 1_555
As3 O3 1.720654 1_655
As3 O1 1.722009 1_555
As3 O11 1.730922 1_555
O0 Zn3 1.957148 1_455
O1 Zn2 1.957148 1_555
O2 Zn3 1.950228 1_555
O3 Zn2 1.950228 1_555
O4 Zn1 1.952481 1_455
O5 Zn0 1.952481 1_555
O6 Zn0 1.956409 1_555
O7 Zn1 1.956409 1_555
O8 Zn1 1.959433 1_556
O9 Zn0 1.959433 1_554
O10 Zn2 1.979259 1_565
O11 Zn3 1.979259 1_545
O12 Zn0 1.952607 1_555
O13 Zn1 1.952607 1_555
O14 Zn2 1.930231 1_555
O15 Zn3 1.930231 1_555
