# generated using pymatgen
data_MoH9S2(ClO)4
_symmetry_space_group_name_H-M   'P 1'
_cell_length_a   7.56481500
_cell_length_b   22.69408000
_cell_length_c   7.33274915
_cell_angle_alpha   90.00000000
_cell_angle_beta   95.27527899
_cell_angle_gamma   90.00000000
_symmetry_Int_Tables_number   1
_chemical_formula_structural   MoH9S2(ClO)4
_chemical_formula_sum   'Mo4 H36 S8 Cl16 O16'
_cell_volume   1253.52887759
_cell_formula_units_Z   4
loop_
 _symmetry_equiv_pos_site_id
 _symmetry_equiv_pos_as_xyz
  1  'x, y, z'
loop_
 _atom_site_type_symbol
 _atom_site_label
 _atom_site_symmetry_multiplicity
 _atom_site_fract_x
 _atom_site_fract_y
 _atom_site_fract_z
 _atom_site_occupancy
  Mo  Mo0  1  0.40379700  0.93718500  0.91507700  1
  Mo  Mo1  1  0.59620300  0.43718500  0.58492300  1
  Mo  Mo2  1  0.59620300  0.06281500  0.08492300  1
  Mo  Mo3  1  0.40379700  0.56281500  0.41507700  1
  H  H0  1  0.85423800  0.82168400  0.69553400  1
  H  H1  1  0.14576200  0.32168400  0.80446600  1
  H  H2  1  0.14576200  0.17831600  0.30446600  1
  H  H3  1  0.85423800  0.67831600  0.19553400  1
  H  H4  1  0.75667400  0.81114200  0.87316800  1
  H  H5  1  0.24332600  0.31114200  0.62683200  1
  H  H6  1  0.24332600  0.18885800  0.12683200  1
  H  H7  1  0.75667400  0.68885800  0.37316800  1
  H  H8  1  0.01725600  0.59817400  0.04711300  1
  H  H9  1  0.98274400  0.09817400  0.45288700  1
  H  H10  1  0.98274400  0.40182600  0.95288700  1
  H  H11  1  0.01725600  0.90182600  0.54711300  1
  H  H12  1  0.85534700  0.61496600  0.90512900  1
  H  H13  1  0.14465300  0.11496600  0.59487100  1
  H  H14  1  0.14465300  0.38503400  0.09487100  1
  H  H15  1  0.85534700  0.88503400  0.40512900  1
  H  H16  1  0.03596400  0.68920300  0.94267400  1
  H  H17  1  0.96403600  0.18920300  0.55732600  1
  H  H18  1  0.96403600  0.31079700  0.05732600  1
  H  H19  1  0.03596400  0.81079700  0.44267400  1
  H  H20  1  0.97714200  0.75816600  0.86502100  1
  H  H21  1  0.02285800  0.25816600  0.63497900  1
  H  H22  1  0.02285800  0.24183400  0.13497900  1
  H  H23  1  0.97714200  0.74183400  0.36502100  1
  H  H24  1  0.42696100  0.71259400  0.74182100  1
  H  H25  1  0.57303900  0.21259400  0.75817900  1
  H  H26  1  0.57303900  0.28740600  0.25817900  1
  H  H27  1  0.42696100  0.78740600  0.24182100  1
  H  H28  1  0.40828500  0.78089700  0.77481300  1
  H  H29  1  0.59171500  0.28089700  0.72518700  1
  H  H30  1  0.59171500  0.21910300  0.22518700  1
  H  H31  1  0.40828500  0.71910300  0.27481300  1
  H  H32  1  0.20209300  0.73509800  0.87647200  1
  H  H33  1  0.79790700  0.23509800  0.62352800  1
  H  H34  1  0.79790700  0.26490200  0.12352800  1
  H  H35  1  0.20209300  0.76490200  0.37647200  1
  S  S0  1  0.44845300  0.97769100  0.23655900  1
  S  S1  1  0.55154700  0.47769100  0.26344100  1
  S  S2  1  0.55154700  0.02230900  0.76344100  1
  S  S3  1  0.44845300  0.52230900  0.73655900  1
  S  S4  1  0.27761600  0.02506900  0.07343100  1
  S  S5  1  0.72238400  0.52506900  0.42656900  1
  S  S6  1  0.72238400  0.97493100  0.92656900  1
  S  S7  1  0.27761600  0.47493100  0.57343100  1
  Cl  Cl0  1  0.16073300  0.97563500  0.67861800  1
  Cl  Cl1  1  0.83926700  0.47563500  0.82138200  1
  Cl  Cl2  1  0.83926700  0.02436500  0.32138200  1
  Cl  Cl3  1  0.16073300  0.52436500  0.17861800  1
  Cl  Cl4  1  0.46477000  0.87540900  0.66249900  1
  Cl  Cl5  1  0.53523000  0.37540900  0.83750100  1
  Cl  Cl6  1  0.53523000  0.12459100  0.33750100  1
  Cl  Cl7  1  0.46477000  0.62459100  0.16249900  1
  Cl  Cl8  1  0.59397700  0.85718000  0.09413400  1
  Cl  Cl9  1  0.40602300  0.35718000  0.40586600  1
  Cl  Cl10  1  0.40602300  0.14282000  0.90586600  1
  Cl  Cl11  1  0.59397700  0.64282000  0.59413400  1
  Cl  Cl12  1  0.16454300  0.88090500  0.01355500  1
  Cl  Cl13  1  0.83545700  0.38090500  0.48644500  1
  Cl  Cl14  1  0.83545700  0.11909500  0.98644500  1
  Cl  Cl15  1  0.16454300  0.61909500  0.51355500  1
  O  O0  1  0.82534500  0.79116800  0.78326000  1
  O  O1  1  0.17465500  0.29116800  0.71674000  1
  O  O2  1  0.17465500  0.20883200  0.21674000  1
  O  O3  1  0.82534500  0.70883200  0.28326000  1
  O  O4  1  0.93954400  0.63126200  0.00140600  1
  O  O5  1  0.06045600  0.13126200  0.49859400  1
  O  O6  1  0.06045600  0.36873800  0.99859400  1
  O  O7  1  0.93954400  0.86873800  0.50140600  1
  O  O8  1  0.07838400  0.73141500  0.93019800  1
  O  O9  1  0.92161600  0.23141500  0.56980200  1
  O  O10  1  0.92161600  0.26858500  0.06980200  1
  O  O11  1  0.07838400  0.76858500  0.43019800  1
  O  O12  1  0.38303900  0.74203200  0.82535100  1
  O  O13  1  0.61696100  0.24203200  0.67464900  1
  O  O14  1  0.61696100  0.25796800  0.17464900  1
  O  O15  1  0.38303900  0.75796800  0.32535200  1
loop_
_geom_bond_atom_site_label_1
_geom_bond_atom_site_label_2
_geom_bond_distance
_geom_bond_site_symmetry_2
Mo0 S0 2.523843 1_556
Mo0 S4 2.537929 1_566
Mo0 S2 2.538901 1_565
Mo0 S6 2.551840 1_555
Mo1 S1 2.523843 1_555
Mo1 S5 2.537929 1_555
Mo1 S3 2.538901 1_555
Mo1 S7 2.551840 1_555
Mo2 S2 2.523843 1_554
Mo2 S6 2.537929 1_544
Mo2 S0 2.538901 1_545
Mo2 S4 2.551840 1_555
Mo3 S3 2.523843 1_555
Mo3 S7 2.537929 1_555
Mo3 S1 2.538901 1_555
Mo3 S5 2.551840 1_555
H0 O0 0.983376 1_555
H1 O1 0.983376 1_555
H2 O2 0.983376 1_555
H3 O3 0.983376 1_555
H4 O0 0.986384 1_555
H5 O1 0.986384 1_555
H6 O2 0.986384 1_555
H7 O3 0.986384 1_555
H8 O4 0.992750 1_455
H9 O5 0.992750 1_655
H10 O6 0.992750 1_655
H11 O7 0.992750 1_455
H12 O4 0.978862 1_556
H13 O5 0.978862 1_555
H14 O6 0.978862 1_554
H15 O7 0.978862 1_555
H16 O8 1.017072 1_555
H16 O4 1.582488 1_456
H17 O9 1.017072 1_555
H17 O5 1.582488 1_655
H18 O10 1.017072 1_555
H18 O6 1.582488 1_654
H19 O11 1.017072 1_555
H19 O7 1.582488 1_455
H20 O8 1.056519 1_655
H20 O0 1.453410 1_555
H21 O9 1.056519 1_455
H21 O1 1.453410 1_555
H22 O10 1.056519 1_455
H22 O2 1.453410 1_555
H23 O11 1.056519 1_655
H23 O3 1.453410 1_555
H24 O12 0.984529 1_555
H25 O13 0.984529 1_555
H26 O14 0.984529 1_555
H27 O15 0.984534 1_555
H28 O12 0.982218 1_555
H29 O13 0.982218 1_555
H30 O14 0.982218 1_555
H31 O15 0.982221 1_555
H32 O8 1.051557 1_555
H32 O12 1.460585 1_555
H33 O9 1.051557 1_555
H33 O13 1.460585 1_555
H34 O10 1.051557 1_555
H34 O14 1.460585 1_555
H35 O11 1.051557 1_555
H35 O15 1.460583 1_555
S0 S4 1.993189 1_565
S1 S5 1.993189 1_555
S2 S6 1.993189 1_545
S3 S7 1.993189 1_555
Cl0 Mo0 2.561737 1_555
Cl1 Mo1 2.561737 1_555
Cl2 Mo2 2.561737 1_555
Cl3 Mo3 2.561737 1_555
Cl4 Mo0 2.401154 1_555
Cl5 Mo1 2.401154 1_555
Cl6 Mo2 2.401154 1_555
Cl7 Mo3 2.401154 1_555
Cl8 Mo0 2.596711 1_554
Cl9 Mo1 2.596711 1_555
Cl10 Mo2 2.596711 1_556
Cl11 Mo3 2.596711 1_555
Cl12 Mo0 2.380936 1_554
Cl13 Mo1 2.380936 1_555
Cl14 Mo2 2.380936 1_556
Cl15 Mo3 2.380936 1_555
