# generated using pymatgen
data_AlCrN2
_symmetry_space_group_name_H-M   'P 1'
_cell_length_a   5.14022800
_cell_length_b   10.67971800
_cell_length_c   13.23254500
_cell_angle_alpha   90.00000000
_cell_angle_beta   90.00000000
_cell_angle_gamma   90.00000000
_symmetry_Int_Tables_number   1
_chemical_formula_structural   AlCrN2
_chemical_formula_sum   'Al16 Cr16 N32'
_cell_volume   726.41624490
_cell_formula_units_Z   16
loop_
 _symmetry_equiv_pos_site_id
 _symmetry_equiv_pos_as_xyz
  1  'x, y, z'
loop_
 _atom_site_type_symbol
 _atom_site_label
 _atom_site_symmetry_multiplicity
 _atom_site_fract_x
 _atom_site_fract_y
 _atom_site_fract_z
 _atom_site_occupancy
  Al  Al0  1  0.63748400  0.03572400  0.18511400  1
  Al  Al1  1  0.13748400  0.46427600  0.81488600  1
  Al  Al2  1  0.36251600  0.53572400  0.31488600  1
  Al  Al3  1  0.86251600  0.96427600  0.68511400  1
  Al  Al4  1  0.36251600  0.96427600  0.81488600  1
  Al  Al5  1  0.86251600  0.53572400  0.18511400  1
  Al  Al6  1  0.63748400  0.46427600  0.68511400  1
  Al  Al7  1  0.13748400  0.03572400  0.31488600  1
  Al  Al8  1  0.81509700  0.28896400  0.06286500  1
  Al  Al9  1  0.31509700  0.21103600  0.93713500  1
  Al  Al10  1  0.18490300  0.78896400  0.43713500  1
  Al  Al11  1  0.68490300  0.71103600  0.56286500  1
  Al  Al12  1  0.18490300  0.71103600  0.93713500  1
  Al  Al13  1  0.68490300  0.78896400  0.06286500  1
  Al  Al14  1  0.81509700  0.21103600  0.56286500  1
  Al  Al15  1  0.31509700  0.28896400  0.43713500  1
  Cr  Cr0  1  0.67197100  0.95837400  0.44142200  1
  Cr  Cr1  1  0.17197100  0.54162600  0.55857800  1
  Cr  Cr2  1  0.32802900  0.45837400  0.05857800  1
  Cr  Cr3  1  0.82802900  0.04162600  0.94142200  1
  Cr  Cr4  1  0.32802900  0.04162600  0.55857800  1
  Cr  Cr5  1  0.82802900  0.45837400  0.44142200  1
  Cr  Cr6  1  0.67197100  0.54162600  0.94142200  1
  Cr  Cr7  1  0.17197100  0.95837400  0.05857800  1
  Cr  Cr8  1  0.80875700  0.28742800  0.30108900  1
  Cr  Cr9  1  0.30875700  0.21257200  0.69891100  1
  Cr  Cr10  1  0.19124300  0.78742800  0.19891100  1
  Cr  Cr11  1  0.69124300  0.71257200  0.80108900  1
  Cr  Cr12  1  0.19124300  0.71257200  0.69891100  1
  Cr  Cr13  1  0.69124300  0.78742800  0.30108900  1
  Cr  Cr14  1  0.80875700  0.21257200  0.80108900  1
  Cr  Cr15  1  0.30875700  0.28742800  0.19891100  1
  N  N0  1  0.71063800  0.47590200  0.30678200  1
  N  N1  1  0.21063800  0.02409800  0.69321800  1
  N  N2  1  0.28936200  0.97590200  0.19321800  1
  N  N3  1  0.78936200  0.52409800  0.80678200  1
  N  N4  1  0.28936200  0.52409800  0.69321800  1
  N  N5  1  0.78936200  0.97590200  0.30678200  1
  N  N6  1  0.71063800  0.02409800  0.80678200  1
  N  N7  1  0.21063800  0.47590200  0.19321800  1
  N  N8  1  0.68698900  0.29237600  0.44567500  1
  N  N9  1  0.18698900  0.20762400  0.55432500  1
  N  N10  1  0.31301100  0.79237600  0.05432500  1
  N  N11  1  0.81301100  0.70762400  0.94567500  1
  N  N12  1  0.31301100  0.70762400  0.55432500  1
  N  N13  1  0.81301100  0.79237600  0.44567500  1
  N  N14  1  0.68698900  0.20762400  0.94567500  1
  N  N15  1  0.18698900  0.29237600  0.05432500  1
  N  N16  1  0.70100000  0.45798900  0.07062200  1
  N  N17  1  0.20100000  0.04201100  0.92937800  1
  N  N18  1  0.29900000  0.95798900  0.42937800  1
  N  N19  1  0.79900000  0.54201100  0.57062200  1
  N  N20  1  0.29900000  0.54201100  0.92937800  1
  N  N21  1  0.79900000  0.95798900  0.07062200  1
  N  N22  1  0.70100000  0.04201100  0.57062200  1
  N  N23  1  0.20100000  0.45798900  0.42937800  1
  N  N24  1  0.66468800  0.21148300  0.17825700  1
  N  N25  1  0.16468800  0.28851700  0.82174300  1
  N  N26  1  0.33531200  0.71148300  0.32174300  1
  N  N27  1  0.83531200  0.78851700  0.67825700  1
  N  N28  1  0.33531200  0.78851700  0.82174300  1
  N  N29  1  0.83531200  0.71148300  0.17825700  1
  N  N30  1  0.66468800  0.28851700  0.67825700  1
  N  N31  1  0.16468800  0.21148300  0.32174300  1
loop_
_geom_bond_atom_site_label_1
_geom_bond_atom_site_label_2
_geom_bond_distance
_geom_bond_site_symmetry_2
Al0 N24 1.884444 1_555
Al0 N5 1.899913 1_545
Al0 N2 1.903081 1_545
Al0 N21 1.916711 1_545
Al1 N25 1.884444 1_555
Al1 N4 1.899913 1_555
Al1 N3 1.903081 1_455
Al1 N20 1.916711 1_555
Al2 N26 1.884444 1_555
Al2 N7 1.899913 1_555
Al2 N0 1.903081 1_555
Al2 N23 1.916711 1_555
Al3 N27 1.884444 1_555
Al3 N6 1.899913 1_565
Al3 N1 1.903081 1_665
Al3 N22 1.916711 1_565
Al4 N28 1.884444 1_555
Al4 N1 1.899913 1_565
Al4 N6 1.903081 1_565
Al4 N17 1.916711 1_565
Al5 N29 1.884444 1_555
Al5 N0 1.899913 1_555
Al5 N7 1.903081 1_655
Al5 N16 1.916711 1_555
Al6 N30 1.884444 1_555
Al6 N3 1.899913 1_555
Al6 N4 1.903081 1_555
Al6 N19 1.916711 1_555
Al7 N31 1.884444 1_555
Al7 N2 1.899913 1_545
Al7 N5 1.903081 1_445
Al7 N18 1.916711 1_545
Al8 N14 1.895517 1_554
Al8 N16 1.900797 1_555
Al8 N24 1.901044 1_555
Al8 N15 1.915294 1_655
Al9 N15 1.895517 1_556
Al9 N17 1.900797 1_555
Al9 N25 1.901044 1_555
Al9 N14 1.915294 1_555
Al10 N12 1.895517 1_555
Al10 N18 1.900797 1_555
Al10 N26 1.901044 1_555
Al10 N13 1.915294 1_455
Al11 N13 1.895517 1_555
Al11 N19 1.900797 1_555
Al11 N27 1.901044 1_555
Al11 N12 1.915294 1_555
Al12 N10 1.895517 1_556
Al12 N20 1.900797 1_555
Al12 N28 1.901044 1_555
Al12 N11 1.915294 1_455
Al13 N11 1.895517 1_554
Al13 N21 1.900797 1_555
Al13 N29 1.901044 1_555
Al13 N10 1.915294 1_555
Al14 N8 1.895517 1_555
Al14 N22 1.900797 1_555
Al14 N30 1.901044 1_555
Al14 N9 1.915294 1_655
Al15 N9 1.895517 1_555
Al15 N23 1.900797 1_555
Al15 N31 1.901044 1_555
Al15 N8 1.915294 1_555
Cr0 N5 1.890333 1_555
Cr0 N13 1.916148 1_555
Cr0 N18 1.923773 1_555
Cr0 N22 1.934681 1_565
Cr1 N4 1.890333 1_555
Cr1 N12 1.916148 1_555
Cr1 N19 1.923773 1_455
Cr1 N23 1.934681 1_555
Cr2 N7 1.890333 1_555
Cr2 N15 1.916148 1_555
Cr2 N16 1.923773 1_555
Cr2 N20 1.934681 1_554
Cr3 N6 1.890333 1_555
Cr3 N14 1.916148 1_555
Cr3 N17 1.923773 1_655
Cr3 N21 1.934681 1_546
Cr4 N1 1.890333 1_555
Cr4 N9 1.916148 1_555
Cr4 N22 1.923773 1_555
Cr4 N18 1.934681 1_545
Cr5 N0 1.890333 1_555
Cr5 N8 1.916148 1_555
Cr5 N23 1.923773 1_655
Cr5 N19 1.934681 1_555
Cr6 N3 1.890333 1_555
Cr6 N11 1.916148 1_555
Cr6 N20 1.923773 1_555
Cr6 N16 1.934681 1_556
Cr7 N2 1.890333 1_555
Cr7 N10 1.916148 1_555
Cr7 N21 1.923773 1_455
Cr7 N17 1.934681 1_564
Cr8 N24 1.961659 1_555
Cr8 N8 2.013716 1_555
Cr8 N31 2.019863 1_655
Cr8 N0 2.076442 1_555
Cr9 N25 1.961659 1_555
Cr9 N9 2.013716 1_555
Cr9 N30 2.019863 1_555
Cr9 N1 2.076442 1_555
Cr10 N26 1.961659 1_555
Cr10 N10 2.013716 1_555
Cr10 N29 2.019863 1_455
Cr10 N2 2.076442 1_555
Cr11 N27 1.961659 1_555
Cr11 N11 2.013716 1_555
Cr11 N28 2.019863 1_555
Cr11 N3 2.076442 1_555
Cr12 N28 1.961659 1_555
Cr12 N12 2.013716 1_555
Cr12 N27 2.019863 1_455
Cr12 N4 2.076442 1_555
Cr13 N29 1.961659 1_555
Cr13 N13 2.013716 1_555
Cr13 N26 2.019863 1_555
Cr13 N5 2.076442 1_555
Cr14 N30 1.961659 1_555
Cr14 N14 2.013716 1_555
Cr14 N25 2.019863 1_655
Cr14 N6 2.076442 1_555
Cr15 N31 1.961659 1_555
Cr15 N15 2.013716 1_555
Cr15 N24 2.019863 1_555
Cr15 N7 2.076442 1_555
