# generated using pymatgen
data_Ca4Mn3CrO10
_symmetry_space_group_name_H-M   'P 1'
_cell_length_a   7.86773879
_cell_length_b   7.85172458
_cell_length_c   7.60953004
_cell_angle_alpha   88.48225415
_cell_angle_beta   88.52597539
_cell_angle_gamma   90.67200751
_symmetry_Int_Tables_number   1
_chemical_formula_structural   Ca4Mn3CrO10
_chemical_formula_sum   'Ca8 Mn6 Cr2 O20'
_cell_volume   469.72449644
_cell_formula_units_Z   2
loop_
 _symmetry_equiv_pos_site_id
 _symmetry_equiv_pos_as_xyz
  1  'x, y, z'
loop_
 _atom_site_type_symbol
 _atom_site_label
 _atom_site_symmetry_multiplicity
 _atom_site_fract_x
 _atom_site_fract_y
 _atom_site_fract_z
 _atom_site_occupancy
  Ca  Ca0  1  0.25140300  0.26233800  0.26553900  1
  Ca  Ca1  1  0.27069600  0.27893900  0.69750800  1
  Ca  Ca2  1  0.25095400  0.73096100  0.26564500  1
  Ca  Ca3  1  0.25637900  0.71975700  0.70724300  1
  Ca  Ca4  1  0.73283900  0.25358900  0.26004600  1
  Ca  Ca5  1  0.72011300  0.26205400  0.71224100  1
  Ca  Ca6  1  0.74170400  0.74388800  0.26761500  1
  Ca  Ca7  1  0.72806700  0.73339300  0.72648400  1
  Mn  Mn0  1  0.00306100  0.00296000  0.51856000  1
  Mn  Mn1  1  0.99898800  0.48777800  0.00309100  1
  Mn  Mn2  1  0.99900600  0.50804500  0.49099900  1
  Mn  Mn3  1  0.50806200  0.00186300  0.48975900  1
  Mn  Mn4  1  0.50022400  0.50236200  0.99929400  1
  Mn  Mn5  1  0.50348600  0.50368700  0.48709600  1
  Cr  Cr0  1  0.03038700  0.01925600  0.98373300  1
  Cr  Cr1  1  0.47375900  0.99792600  0.00673300  1
  O  O0  1  0.94157400  0.93034300  0.79444700  1
  O  O1  1  0.99670200  0.55364600  0.23969900  1
  O  O2  1  0.02046600  0.51051800  0.74880700  1
  O  O3  1  0.55981600  0.99880300  0.23896200  1
  O  O4  1  0.51543700  0.01642000  0.75173200  1
  O  O5  1  0.49020700  0.49448700  0.74356300  1
  O  O6  1  0.23486100  0.95679900  0.06459200  1
  O  O7  1  0.25170500  0.00835800  0.49827200  1
  O  O8  1  0.25319500  0.50349900  0.02909300  1
  O  O9  1  0.26152900  0.49891500  0.46883100  1
  O  O10  1  0.76202700  0.01008000  0.48803300  1
  O  O11  1  0.74880600  0.51263700  0.01449100  1
  O  O12  1  0.74366600  0.50159600  0.48564200  1
  O  O13  1  0.96157200  0.21969200  0.06295700  1
  O  O14  1  0.01004100  0.25148000  0.50212300  1
  O  O15  1  0.01077400  0.76230100  0.48215300  1
  O  O16  1  0.49874100  0.25500800  0.03111700  1
  O  O17  1  0.49758200  0.26280200  0.46941100  1
  O  O18  1  0.52222100  0.74928200  0.02180600  1
  O  O19  1  0.49994900  0.74454100  0.48268000  1
loop_
_geom_bond_atom_site_label_1
_geom_bond_atom_site_label_2
_geom_bond_distance
_geom_bond_site_symmetry_2
Ca0 O9 2.450501 1_555
Ca0 O17 2.512560 1_555
Ca0 O8 2.576921 1_555
Ca0 O14 2.581978 1_555
Ca0 O16 2.608018 1_555
Ca0 O7 2.631807 1_555
Ca0 O13 2.806889 1_455
Ca0 O6 2.882291 1_545
Ca1 O9 2.422105 1_555
Ca1 O5 2.442096 1_555
Ca1 O17 2.464307 1_555
Ca1 O14 2.574128 1_555
Ca1 O7 2.647510 1_555
Ca1 O2 2.723337 1_555
Ca1 O4 2.866288 1_555
Ca2 O6 2.317867 1_555
Ca2 O9 2.361777 1_555
Ca2 O1 2.438932 1_455
Ca2 O15 2.493585 1_555
Ca2 O8 2.568965 1_555
Ca2 O19 2.597615 1_555
Ca2 O18 2.791693 1_555
Ca2 O7 2.842874 1_565
Ca3 O2 2.472846 1_555
Ca3 O19 2.536823 1_555
Ca3 O9 2.542481 1_555
Ca3 O5 2.581854 1_555
Ca3 O15 2.633340 1_555
Ca3 O7 2.734759 1_565
Ca3 O8 2.942380 1_556
Ca3 O0 3.062428 1_455
Ca3 O4 3.108133 1_565
Ca4 O13 2.335000 1_555
Ca4 O17 2.413905 1_555
Ca4 O3 2.417700 1_545
Ca4 O10 2.563829 1_555
Ca4 O16 2.567424 1_555
Ca4 O12 2.631895 1_555
Ca4 O11 2.724874 1_555
Ca4 O14 2.890684 1_655
Ca5 O4 2.504942 1_555
Ca5 O12 2.519654 1_555
Ca5 O17 2.577973 1_555
Ca5 O5 2.595695 1_555
Ca5 O10 2.664383 1_555
Ca5 O14 2.755090 1_655
Ca5 O16 2.949179 1_556
Ca5 O2 3.069528 1_655
Ca5 O11 3.077007 1_556
Ca6 O19 2.477232 1_555
Ca6 O3 2.482267 1_555
Ca6 O12 2.491339 1_555
Ca6 O1 2.523212 1_555
Ca6 O18 2.578020 1_555
Ca6 O11 2.681816 1_555
Ca6 O15 2.711230 1_655
Ca6 O10 2.720086 1_565
Ca7 O0 2.346640 1_555
Ca7 O19 2.614795 1_555
Ca7 O12 2.618514 1_555
Ca7 O5 2.632499 1_555
Ca7 O18 2.742447 1_556
Ca7 O11 2.767293 1_556
Ca7 O10 2.799295 1_565
Ca7 O4 2.804861 1_565
Ca7 O15 2.865084 1_655
Ca7 O2 2.912451 1_655
Mn0 O10 1.917773 1_455
Mn0 O15 1.918472 1_545
Mn0 O14 1.952044 1_555
Mn0 O7 1.958259 1_555
Mn0 O0 2.200988 1_445
Mn1 O1 1.886104 1_555
Mn1 O2 1.941329 1_654
Mn1 O11 1.980206 1_555
Mn1 O8 2.017520 1_655
Mn1 O13 2.157016 1_555
Mn2 O1 1.936746 1_555
Mn2 O2 1.973960 1_655
Mn2 O15 1.996681 1_655
Mn2 O12 2.010482 1_555
Mn2 O14 2.016996 1_655
Mn2 O9 2.070246 1_655
Mn3 O3 1.941965 1_545
Mn3 O10 1.998109 1_555
Mn3 O4 2.002075 1_555
Mn3 O7 2.017610 1_555
Mn3 O19 2.022868 1_545
Mn3 O17 2.053352 1_555
Mn4 O16 1.950680 1_556
Mn4 O8 1.951093 1_556
Mn4 O5 1.952197 1_555
Mn4 O18 1.956857 1_556
Mn4 O11 1.963003 1_556
Mn5 O12 1.889688 1_555
Mn5 O19 1.891072 1_555
Mn5 O17 1.899807 1_555
Mn5 O9 1.912286 1_555
Mn5 O5 1.951080 1_555
Cr0 O0 1.773112 1_445
Cr0 O13 1.785153 1_456
Cr0 O6 1.805713 1_546
Cr1 O3 1.908769 1_555
Cr1 O6 1.940780 1_555
Cr1 O4 1.960901 1_564
Cr1 O18 1.994442 1_555
Cr1 O16 2.039599 1_565
