# generated using pymatgen
data_Ba2Mg2Tl2Ni3O10
_symmetry_space_group_name_H-M   'P 1'
_cell_length_a   3.64887600
_cell_length_b   3.73375600
_cell_length_c   20.38461740
_cell_angle_alpha   95.13251308
_cell_angle_beta   95.04598465
_cell_angle_gamma   89.99969309
_symmetry_Int_Tables_number   1
_chemical_formula_structural   Ba2Mg2Tl2Ni3O10
_chemical_formula_sum   'Ba2 Mg2 Tl2 Ni3 O10'
_cell_volume   275.52609193
_cell_formula_units_Z   1
loop_
 _symmetry_equiv_pos_site_id
 _symmetry_equiv_pos_as_xyz
  1  'x, y, z'
loop_
 _atom_site_type_symbol
 _atom_site_label
 _atom_site_symmetry_multiplicity
 _atom_site_fract_x
 _atom_site_fract_y
 _atom_site_fract_z
 _atom_site_occupancy
  Ba  Ba0  1  0.89593500  0.87192100  0.71533000  1
  Ba  Ba1  1  0.19742100  0.13268400  0.28681400  1
  Mg  Mg0  1  0.11409600  0.03602700  0.08810000  1
  Mg  Mg1  1  0.01798900  0.96822700  0.91713100  1
  Tl  Tl0  1  0.32701200  0.28280000  0.55940100  1
  Tl  Tl1  1  0.77179600  0.71556500  0.43935700  1
  Ni  Ni0  1  0.64510300  0.56761300  0.15968100  1
  Ni  Ni1  1  0.47583800  0.43554300  0.84406600  1
  Ni  Ni2  1  0.57134100  0.50321600  0.00513100  1
  O  O0  1  0.65672200  0.08658400  0.19787700  1
  O  O1  1  0.71794900  0.65887500  0.33765800  1
  O  O2  1  0.12791800  0.55394800  0.12504900  1
  O  O3  1  0.24179200  0.22620400  0.45460500  1
  O  O4  1  0.04762900  0.48803400  0.95918100  1
  O  O5  1  0.95502900  0.41548900  0.80070600  1
  O  O6  1  0.36560000  0.34100600  0.66035300  1
  O  O7  1  0.49660200  0.95031900  0.87428400  1
  O  O8  1  0.78291800  0.77255800  0.54366000  1
  O  O9  1  0.59022300  0.02038600  0.04065300  1
loop_
_geom_bond_atom_site_label_1
_geom_bond_atom_site_label_2
_geom_bond_distance
_geom_bond_site_symmetry_2
Ba0 O5 2.538562 1_555
Ba0 O5 2.548811 1_565
Ba0 O6 2.819488 1_665
Ba0 O6 2.835116 1_565
Ba0 O6 2.839498 1_655
Ba0 O6 2.855042 1_555
Ba1 O0 2.554188 1_455
Ba1 O0 2.569786 1_555
Ba1 O1 2.791613 1_545
Ba1 O1 2.798401 1_555
Ba1 O1 2.812792 1_445
Ba1 O1 2.819504 1_455
Ba1 O3 3.396450 1_555
Mg0 O2 2.010499 1_555
Mg0 O2 2.011367 1_545
Mg0 O9 2.059771 1_555
Mg0 O9 2.063382 1_455
Mg1 O7 2.018692 1_555
Mg1 O7 2.020891 1_455
Mg1 O4 2.049223 1_565
Mg1 O4 2.054186 1_555
Ni0 O2 1.953719 1_655
Ni0 O2 1.954864 1_555
Ni0 O0 2.019457 1_555
Ni0 O0 2.021636 1_565
Ni1 O7 1.964413 1_545
Ni1 O7 1.964537 1_555
Ni1 O5 2.022604 1_455
Ni1 O5 2.025870 1_555
Ni2 O9 1.999709 1_565
Ni2 O9 2.000957 1_555
Ni2 O4 2.043961 1_654
Ni2 O4 2.051334 1_554
O1 Tl1 2.056932 1_555
O3 Tl0 2.123015 1_555
O3 Tl1 2.526657 1_455
O3 Tl1 2.544220 1_445
O3 Tl1 2.717083 1_555
O3 Tl1 2.733396 1_545
O6 Tl0 2.042275 1_555
O8 Tl1 2.114575 1_555
O8 Tl0 2.532423 1_555
O8 Tl0 2.546431 1_565
O8 Tl0 2.716854 1_655
O8 Tl0 2.729942 1_665
