# generated using pymatgen
data_Mo2O3
_symmetry_space_group_name_H-M   'P 1'
_cell_length_a   5.66696239
_cell_length_b   5.66696239
_cell_length_c   16.22485300
_cell_angle_alpha   90.00000000
_cell_angle_beta   90.00000000
_cell_angle_gamma   146.27899781
_symmetry_Int_Tables_number   1
_chemical_formula_structural   Mo2O3
_chemical_formula_sum   'Mo8 O12'
_cell_volume   289.26192125
_cell_formula_units_Z   4
loop_
 _symmetry_equiv_pos_site_id
 _symmetry_equiv_pos_as_xyz
  1  'x, y, z'
loop_
 _atom_site_type_symbol
 _atom_site_label
 _atom_site_symmetry_multiplicity
 _atom_site_fract_x
 _atom_site_fract_y
 _atom_site_fract_z
 _atom_site_occupancy
  Mo  Mo0  1  0.63284400  0.36715600  0.04533800  1
  Mo  Mo1  1  0.36715600  0.63284400  0.95466200  1
  Mo  Mo2  1  0.63284400  0.36715600  0.45466200  1
  Mo  Mo3  1  0.36715600  0.63284400  0.54533800  1
  Mo  Mo4  1  0.09993200  0.90006800  0.64356200  1
  Mo  Mo5  1  0.90006800  0.09993200  0.35643800  1
  Mo  Mo6  1  0.90006800  0.09993200  0.14356200  1
  Mo  Mo7  1  0.09993200  0.90006800  0.85643800  1
  O  O0  1  0.00000000  0.00000000  0.50000000  1
  O  O1  1  0.00000000  0.00000000  0.00000000  1
  O  O2  1  0.48253400  0.51746600  0.85242100  1
  O  O3  1  0.51746600  0.48253400  0.14757900  1
  O  O4  1  0.51746600  0.48253400  0.35242100  1
  O  O5  1  0.48253400  0.51746600  0.64757900  1
  O  O6  1  0.74107000  0.25893000  0.92671000  1
  O  O7  1  0.25893000  0.74107000  0.07329000  1
  O  O8  1  0.25893000  0.74107000  0.42671000  1
  O  O9  1  0.74107000  0.25893000  0.57329000  1
  O  O10  1  0.18629500  0.81370500  0.75000000  1
  O  O11  1  0.81370500  0.18629500  0.25000000  1
loop_
_geom_bond_atom_site_label_1
_geom_bond_atom_site_label_2
_geom_bond_distance
_geom_bond_site_symmetry_2
Mo0 O3 2.077968 1_555
Mo0 O7 2.185790 1_655
Mo0 O7 2.185790 1_545
Mo0 O6 2.254460 1_554
Mo0 O1 2.306292 1_555
Mo0 O1 2.306292 1_665
Mo1 O2 2.077968 1_555
Mo1 O6 2.185790 1_565
Mo1 O6 2.185790 1_455
Mo1 O7 2.254460 1_556
Mo1 O1 2.306292 1_556
Mo1 O1 2.306292 1_666
Mo2 O4 2.077968 1_555
Mo2 O8 2.185790 1_655
Mo2 O8 2.185790 1_545
Mo2 O9 2.254460 1_555
Mo2 O0 2.306292 1_665
Mo2 O0 2.306292 1_555
Mo3 O5 2.077968 1_555
Mo3 O9 2.185790 1_455
Mo3 O9 2.185790 1_565
Mo3 O8 2.254460 1_555
Mo3 O0 2.306292 1_665
Mo3 O0 2.306292 1_555
Mo4 O10 1.964646 1_555
Mo4 O5 2.080234 1_455
Mo4 O5 2.080234 1_565
Mo4 O9 2.518963 1_455
Mo4 O9 2.518963 1_565
Mo4 O0 2.569129 1_565
Mo5 O11 1.964646 1_555
Mo5 O4 2.080234 1_655
Mo5 O4 2.080234 1_545
Mo5 O8 2.518963 1_655
Mo5 O8 2.518963 1_545
Mo5 O0 2.569129 1_655
Mo6 O11 1.964646 1_555
Mo6 O3 2.080234 1_655
Mo6 O3 2.080234 1_545
Mo6 O7 2.518963 1_655
Mo6 O7 2.518963 1_545
Mo6 O1 2.569129 1_655
Mo7 O10 1.964646 1_555
Mo7 O2 2.080234 1_455
Mo7 O2 2.080234 1_565
Mo7 O6 2.518963 1_565
Mo7 O6 2.518963 1_455
Mo7 O1 2.569129 1_566
