# generated using pymatgen
data_CoMoO4
_symmetry_space_group_name_H-M   'P 1'
_cell_length_a   6.52010525
_cell_length_b   6.52010525
_cell_length_c   7.64827370
_cell_angle_alpha   72.71556722
_cell_angle_beta   72.71556722
_cell_angle_gamma   85.47814404
_symmetry_Int_Tables_number   1
_chemical_formula_structural   CoMoO4
_chemical_formula_sum   'Co4 Mo4 O16'
_cell_volume   296.42306254
_cell_formula_units_Z   4
loop_
 _symmetry_equiv_pos_site_id
 _symmetry_equiv_pos_as_xyz
  1  'x, y, z'
loop_
 _atom_site_type_symbol
 _atom_site_label
 _atom_site_symmetry_multiplicity
 _atom_site_fract_x
 _atom_site_fract_y
 _atom_site_fract_z
 _atom_site_occupancy
  Co  Co0  1  0.30866911  0.30866911  0.84111540  1
  Co  Co1  1  0.69133089  0.69133089  0.15888460  1
  Co  Co2  1  0.68863375  0.31136625  0.50000000  1
  Co  Co3  1  0.31136625  0.68863375  0.50000000  1
  Mo  Mo0  1  0.71860082  0.71860082  0.64038383  1
  Mo  Mo1  1  0.28139918  0.28139918  0.35961617  1
  Mo  Mo2  1  0.28218063  0.71781937  0.00000000  1
  Mo  Mo3  1  0.71781937  0.28218063  0.00000000  1
  O  O0  1  0.68518214  -0.00638374  0.57878186  1
  O  O1  1  0.64917845  0.34645612  0.23754793  1
  O  O2  1  -0.00664604  0.31921489  0.92363524  1
  O  O3  1  0.65338426  0.65338426  0.91350802  1
  O  O4  1  0.34645612  0.64917845  0.23754793  1
  O  O5  1  0.35010291  0.35010291  0.55987849  1
  O  O6  1  -0.00638374  0.68518214  0.57878186  1
  O  O7  1  0.35082155  0.65354388  0.76245207  1
  O  O8  1  0.31921489  -0.00664604  0.92363524  1
  O  O9  1  0.64989709  0.64989709  0.44012151  1
  O  O10  1  0.65354388  0.35082155  0.76245207  1
  O  O11  1  0.34661574  0.34661574  0.08649198  1
  O  O12  1  0.31481786  0.00638374  0.42121814  1
  O  O13  1  0.68078511  0.00664604  0.07636476  1
  O  O14  1  0.00638374  0.31481786  0.42121814  1
  O  O15  1  0.00664604  0.68078511  0.07636476  1
loop_
_geom_bond_atom_site_label_1
_geom_bond_atom_site_label_2
_geom_bond_distance
_geom_bond_site_symmetry_2
Co0 O8 1.965246 1_555
Co0 O2 1.965246 1_555
Co0 O5 2.023257 1_555
Co0 O11 2.050841 1_556
Co0 O10 2.165427 1_555
Co0 O7 2.165427 1_555
Co1 O15 1.965246 1_655
Co1 O13 1.965246 1_565
Co1 O9 2.023257 1_555
Co1 O3 2.050841 1_554
Co1 O4 2.165427 1_555
Co1 O1 2.165427 1_555
Co2 O14 1.978198 1_655
Co2 O0 1.978198 1_555
Co2 O1 2.042662 1_555
Co2 O10 2.042662 1_555
Co2 O9 2.127359 1_555
Co2 O5 2.127359 1_555
Co3 O12 1.978198 1_565
Co3 O6 1.978198 1_555
Co3 O7 2.042662 1_555
Co3 O4 2.042662 1_555
Co3 O9 2.127359 1_555
Co3 O5 2.127359 1_555
Mo0 O6 1.726889 1_655
Mo0 O0 1.726889 1_565
Mo0 O9 1.895884 1_555
Mo0 O3 1.923045 1_555
Mo0 O7 2.323033 1_555
Mo0 O10 2.323033 1_555
Mo1 O12 1.726889 1_555
Mo1 O14 1.726889 1_555
Mo1 O5 1.895884 1_555
Mo1 O11 1.923045 1_555
Mo1 O1 2.323033 1_555
Mo1 O4 2.323033 1_555
Mo2 O8 1.728578 1_564
Mo2 O15 1.728578 1_555
Mo2 O7 1.901710 1_554
Mo2 O4 1.901710 1_555
Mo2 O11 2.350599 1_555
Mo2 O3 2.350599 1_554
Mo3 O2 1.728578 1_654
Mo3 O13 1.728578 1_555
Mo3 O10 1.901710 1_554
Mo3 O1 1.901710 1_555
Mo3 O11 2.350599 1_555
Mo3 O3 2.350599 1_554
