# generated using pymatgen
data_KAl2P2H9O13
_symmetry_space_group_name_H-M   'P 1'
_cell_length_a   5.59781600
_cell_length_b   9.47636300
_cell_length_c   9.89692100
_cell_angle_alpha   90.00000000
_cell_angle_beta   90.00000000
_cell_angle_gamma   90.00000000
_symmetry_Int_Tables_number   1
_chemical_formula_structural   KAl2P2H9O13
_chemical_formula_sum   'K2 Al4 P4 H18 O26'
_cell_volume   525.00133907
_cell_formula_units_Z   2
loop_
 _symmetry_equiv_pos_site_id
 _symmetry_equiv_pos_as_xyz
  1  'x, y, z'
loop_
 _atom_site_type_symbol
 _atom_site_label
 _atom_site_symmetry_multiplicity
 _atom_site_fract_x
 _atom_site_fract_y
 _atom_site_fract_z
 _atom_site_occupancy
  K  K0  1  0.00827800  0.50000000  0.50000000  1
  K  K1  1  0.00827800  0.00000000  0.00000000  1
  Al  Al0  1  0.04949500  0.13783400  0.61147800  1
  Al  Al1  1  0.04949500  0.86216600  0.38852200  1
  Al  Al2  1  0.04949500  0.36216600  0.11147800  1
  Al  Al3  1  0.04949500  0.63783400  0.88852200  1
  P  P0  1  0.79945900  0.34961200  0.82765100  1
  P  P1  1  0.79945900  0.65038800  0.17234900  1
  P  P2  1  0.79945900  0.15038800  0.32765100  1
  P  P3  1  0.79945900  0.84961200  0.67234900  1
  H  H0  1  0.41980200  0.76266500  0.52432000  1
  H  H1  1  0.41980200  0.23733500  0.47568000  1
  H  H2  1  0.41980200  0.73733500  0.02432000  1
  H  H3  1  0.41980200  0.26266500  0.97568000  1
  H  H4  1  0.42930300  0.70747700  0.36866500  1
  H  H5  1  0.42930300  0.29252300  0.63133500  1
  H  H6  1  0.42930300  0.79252300  0.86866500  1
  H  H7  1  0.42930300  0.20747700  0.13133500  1
  H  H8  1  0.40215300  0.65311600  0.72030100  1
  H  H9  1  0.40215300  0.34688400  0.27969900  1
  H  H10  1  0.40215300  0.84688400  0.22030100  1
  H  H11  1  0.40215300  0.15311600  0.77969900  1
  H  H12  1  0.38209500  0.50937200  0.23189700  1
  H  H13  1  0.38209500  0.49062800  0.76810300  1
  H  H14  1  0.38209500  0.99062800  0.73189700  1
  H  H15  1  0.38209500  0.00937200  0.26810300  1
  H  H16  1  0.36672700  0.00000000  0.50000000  1
  H  H17  1  0.36672700  0.50000000  0.00000000  1
  O  O0  1  0.82444900  0.48754500  0.17763300  1
  O  O1  1  0.82444900  0.51245500  0.82236700  1
  O  O2  1  0.82444900  0.01245500  0.67763300  1
  O  O3  1  0.82444900  0.98754500  0.32236700  1
  O  O4  1  0.86436100  0.20915500  0.46910500  1
  O  O5  1  0.86436100  0.79084500  0.53089500  1
  O  O6  1  0.86436100  0.29084500  0.96910500  1
  O  O7  1  0.86436100  0.70915500  0.03089500  1
  O  O8  1  0.96433600  0.28614100  0.71920400  1
  O  O9  1  0.96433600  0.71385900  0.28079600  1
  O  O10  1  0.96433600  0.21385900  0.21920400  1
  O  O11  1  0.96433600  0.78614100  0.78079600  1
  O  O12  1  0.53161600  0.31453200  0.79960000  1
  O  O13  1  0.53161600  0.68546800  0.20040000  1
  O  O14  1  0.53161600  0.18546800  0.29960000  1
  O  O15  1  0.53161600  0.81453200  0.70040000  1
  O  O16  1  0.32233400  0.26994200  0.55334600  1
  O  O17  1  0.32233400  0.73005800  0.44665400  1
  O  O18  1  0.32233400  0.23005800  0.05334600  1
  O  O19  1  0.32233400  0.76994200  0.94665400  1
  O  O20  1  0.28701500  0.07541000  0.75680700  1
  O  O21  1  0.28701500  0.92459000  0.24319300  1
  O  O22  1  0.28701500  0.42459000  0.25680700  1
  O  O23  1  0.28701500  0.57541000  0.74319300  1
  O  O24  1  0.19304500  0.00000000  0.50000000  1
  O  O25  1  0.19304500  0.50000000  0.00000000  1
loop_
_geom_bond_atom_site_label_1
_geom_bond_atom_site_label_2
_geom_bond_distance
_geom_bond_site_symmetry_2
K0 O17 2.849964 1_555
K0 O16 2.849964 1_555
K0 O4 2.887715 1_455
K0 O5 2.887715 1_455
K0 O22 2.956053 1_555
K0 O23 2.956053 1_555
K0 O8 2.978947 1_455
K0 O9 2.978947 1_455
K0 O0 3.354365 1_455
K0 O1 3.354365 1_455
K1 O19 2.849964 1_544
K1 O18 2.849964 1_555
K1 O6 2.887715 1_454
K1 O7 2.887715 1_445
K1 O20 2.956053 1_554
K1 O21 2.956053 1_545
K1 O10 2.978947 1_455
K1 O11 2.978947 1_444
K1 O2 3.354365 1_454
K1 O3 3.354365 1_445
Al0 O8 1.827325 1_455
Al0 O2 1.851311 1_455
Al0 O4 1.875164 1_455
Al0 O24 1.889188 1_555
Al0 O20 2.046091 1_555
Al0 O16 2.056919 1_555
Al1 O9 1.827325 1_455
Al1 O3 1.851311 1_455
Al1 O5 1.875164 1_455
Al1 O24 1.889188 1_565
Al1 O21 2.046091 1_555
Al1 O17 2.056919 1_555
Al2 O10 1.827325 1_455
Al2 O0 1.851311 1_455
Al2 O6 1.875164 1_454
Al2 O25 1.889188 1_555
Al2 O22 2.046091 1_555
Al2 O18 2.056919 1_555
Al3 O11 1.827325 1_455
Al3 O1 1.851311 1_455
Al3 O7 1.875164 1_456
Al3 O25 1.889188 1_556
Al3 O23 2.046091 1_555
Al3 O19 2.056919 1_555
H0 O17 0.991966 1_555
H1 O16 0.991966 1_555
H2 O19 0.991966 1_554
H3 O18 0.991966 1_556
H4 O17 1.000048 1_555
H5 O16 1.000048 1_555
H6 O19 1.000048 1_555
H7 O18 1.000048 1_555
H8 O23 1.004479 1_555
H9 O22 1.004479 1_555
H10 O21 1.004479 1_555
H11 O20 1.004479 1_555
H12 O22 0.994761 1_555
H13 O23 0.994761 1_555
H14 O20 0.994761 1_565
H15 O21 0.994761 1_545
H16 O24 0.972240 1_555
H17 O25 0.972240 1_555
O0 P1 1.550369 1_555
O1 P0 1.550369 1_555
O2 P3 1.550369 1_545
O3 P2 1.550369 1_565
O4 P2 1.549843 1_555
O5 P3 1.549843 1_555
O6 P0 1.549843 1_555
O7 P1 1.549843 1_555
O8 P0 1.538039 1_555
O9 P1 1.538039 1_555
O10 P2 1.538039 1_555
O11 P3 1.538039 1_555
O12 P0 1.560638 1_555
O13 P1 1.560638 1_555
O14 P2 1.560638 1_555
O15 P3 1.560638 1_555
