# generated using pymatgen
data_VSi3Mo4
_symmetry_space_group_name_H-M   'P 1'
_cell_length_a   7.21019585
_cell_length_b   7.21019585
_cell_length_c   7.21019585
_cell_angle_alpha   96.40998537
_cell_angle_beta   96.40998537
_cell_angle_gamma   140.96084894
_symmetry_Int_Tables_number   1
_chemical_formula_structural   VSi3Mo4
_chemical_formula_sum   'V2 Si6 Mo8'
_cell_volume   222.52211540
_cell_formula_units_Z   2
loop_
 _symmetry_equiv_pos_site_id
 _symmetry_equiv_pos_as_xyz
  1  'x, y, z'
loop_
 _atom_site_type_symbol
 _atom_site_label
 _atom_site_symmetry_multiplicity
 _atom_site_fract_x
 _atom_site_fract_y
 _atom_site_fract_z
 _atom_site_occupancy
  V  V0  1  0.25000000  0.75000000  0.50000000  1
  V  V1  1  0.75000000  0.25000000  0.50000000  1
  Si  Si0  1  0.25000000  0.25000000  0.00000000  1
  Si  Si1  1  0.75000000  0.75000000  0.00000000  1
  Si  Si2  1  0.16269798  0.66269798  0.82539397  1
  Si  Si3  1  0.83730202  0.33730202  0.17460603  1
  Si  Si4  1  0.33730202  0.16269798  0.50000000  1
  Si  Si5  1  0.66269798  0.83730202  0.50000000  1
  Mo  Mo0  1  0.07829671  0.22583807  0.30413478  1
  Mo  Mo1  1  0.92170329  0.77416193  0.69586522  1
  Mo  Mo2  1  0.77416193  0.07829671  0.85245864  1
  Mo  Mo3  1  0.42170329  0.72583807  0.14754136  1
  Mo  Mo4  1  0.22583807  0.92170329  0.14754136  1
  Mo  Mo5  1  0.57829671  0.27416193  0.85245864  1
  Mo  Mo6  1  0.72583807  0.57829671  0.30413478  1
  Mo  Mo7  1  0.27416193  0.42170329  0.69586522  1
loop_
_geom_bond_atom_site_label_1
_geom_bond_atom_site_label_2
_geom_bond_distance
_geom_bond_site_symmetry_2
V0 V1 2.409135 1_565
V0 V1 2.409135 1_455
Si0 Si1 2.409135 1_445
Si0 Si1 2.409135 1_555
Si2 V0 2.518111 1_555
Si2 V1 2.518116 1_455
Si3 V1 2.518111 1_555
Si3 V0 2.518116 1_655
Si4 V1 2.518125 1_555
Si4 V0 2.518125 1_545
Si5 V0 2.518125 1_555
Si5 V1 2.518125 1_565
Mo0 Si3 2.551867 1_455
Mo0 Si4 2.562126 1_555
Mo0 Si0 2.593867 1_555
Mo0 Si1 2.593867 1_445
Mo0 Si5 2.758529 1_445
Mo0 Si5 2.758529 1_555
Mo0 V0 2.993307 1_555
Mo0 V1 2.993307 1_455
Mo1 Si2 2.551867 1_655
Mo1 Si5 2.562126 1_555
Mo1 Si0 2.593867 1_666
Mo1 Si1 2.593867 1_556
Mo1 Si4 2.758529 1_555
Mo1 Si4 2.758529 1_665
Mo1 V1 2.993307 1_555
Mo1 V0 2.993307 1_655
Mo2 Si5 2.551871 1_545
Mo2 Si3 2.562138 1_556
Mo2 Si0 2.593867 1_656
Mo2 Si1 2.593867 1_546
Mo2 Si2 2.758526 1_545
Mo2 Si2 2.758534 1_655
Mo2 V0 2.993307 1_545
Mo2 V1 2.993307 1_555
Mo3 Si5 2.551871 1_555
Mo3 Si2 2.562138 1_554
Mo3 Si0 2.593867 1_555
Mo3 Si1 2.593867 1_555
Mo3 Si3 2.758526 1_565
Mo3 Si3 2.758534 1_455
Mo3 V1 2.993307 1_565
Mo3 V0 2.993307 1_555
Mo4 Si4 2.551871 1_565
Mo4 Si2 2.562138 1_554
Mo4 Si0 2.593867 1_565
Mo4 Si1 2.593867 1_455
Mo4 Si3 2.758526 1_565
Mo4 Si3 2.758534 1_455
Mo4 V1 2.993307 1_565
Mo4 V0 2.993307 1_555
Mo5 Si4 2.551871 1_555
Mo5 Si3 2.562138 1_556
Mo5 Si0 2.593867 1_556
Mo5 Si1 2.593867 1_556
Mo5 Si2 2.758526 1_545
Mo5 Si2 2.758534 1_655
Mo5 V0 2.993307 1_545
Mo5 V1 2.993307 1_555
Mo6 Si3 2.551867 1_555
Mo6 Si5 2.562126 1_555
Mo6 Si0 2.593867 1_555
Mo6 Si1 2.593867 1_555
Mo6 Si4 2.758529 1_555
Mo6 Si4 2.758529 1_665
Mo6 V0 2.993307 1_655
Mo6 V1 2.993307 1_555
Mo7 Si2 2.551867 1_555
Mo7 Si4 2.562126 1_555
Mo7 Si0 2.593867 1_556
Mo7 Si1 2.593867 1_556
Mo7 Si5 2.758529 1_445
Mo7 Si5 2.758529 1_555
Mo7 V0 2.993307 1_555
Mo7 V1 2.993307 1_455
