# generated using pymatgen
data_BaPm
_symmetry_space_group_name_H-M   'P 1'
_cell_length_a   7.93510800
_cell_length_b   7.93493557
_cell_length_c   13.04524800
_cell_angle_alpha   90.00000000
_cell_angle_beta   90.00000000
_cell_angle_gamma   120.00071886
_symmetry_Int_Tables_number   1
_chemical_formula_structural   BaPm
_chemical_formula_sum   'Ba8 Pm8'
_cell_volume   711.33810254
_cell_formula_units_Z   8
loop_
 _symmetry_equiv_pos_site_id
 _symmetry_equiv_pos_as_xyz
  1  'x, y, z'
loop_
 _atom_site_type_symbol
 _atom_site_label
 _atom_site_symmetry_multiplicity
 _atom_site_fract_x
 _atom_site_fract_y
 _atom_site_fract_z
 _atom_site_occupancy
  Ba  Ba0_0  1  0.33332800  0.16665400  0.37499950  1
  Ba  Ba0_1  1  0.33332800  0.16665400  0.87499950  1
  Ba  Ba0_2  1  0.33332800  0.66665400  0.37499950  1
  Ba  Ba0_3  1  0.33332800  0.66665400  0.87499950  1
  Ba  Ba0_4  1  0.83332800  0.16665400  0.37499950  1
  Ba  Ba0_5  1  0.83332800  0.16665400  0.87499950  1
  Ba  Ba0_6  1  0.83332800  0.66665400  0.37499950  1
  Ba  Ba0_7  1  0.83332800  0.66665400  0.87499950  1
  Pm  Pm0_0  1  0.16667350  0.33334650  0.12499900  1
  Pm  Pm0_1  1  0.16667350  0.33334650  0.62499900  1
  Pm  Pm0_2  1  0.16667350  0.83334650  0.12499900  1
  Pm  Pm0_3  1  0.16667350  0.83334650  0.62499900  1
  Pm  Pm0_4  1  0.66667350  0.33334650  0.12499900  1
  Pm  Pm0_5  1  0.66667350  0.33334650  0.62499900  1
  Pm  Pm0_6  1  0.66667350  0.83334650  0.12499900  1
  Pm  Pm0_7  1  0.66667350  0.83334650  0.62499900  1
loop_
_geom_bond_atom_site_label_1
_geom_bond_atom_site_label_2
_geom_bond_distance
_geom_bond_site_symmetry_2
Ba0_0 Ba0_6 3.967468 1_445
Ba0_0 Ba0_2 3.967468 1_545
Ba0_0 Ba0_2 3.967468 1_555
Ba0_0 Ba0_6 3.967468 1_555
Ba0_0 Ba0_4 3.967554 1_455
Ba0_0 Ba0_4 3.967554 1_555
Ba0_0 Pm0_3 3.985242 1_545
Ba0_0 Pm0_2 3.985253 1_545
Ba0_0 Pm0_5 3.985421 1_555
Ba0_0 Pm0_1 3.985427 1_555
Ba0_0 Pm0_4 3.985432 1_555
Ba0_0 Pm0_0 3.985438 1_555
Ba0_1 Ba0_7 3.967468 1_445
Ba0_1 Ba0_3 3.967468 1_545
Ba0_1 Ba0_3 3.967468 1_555
Ba0_1 Ba0_7 3.967468 1_555
Ba0_1 Ba0_5 3.967554 1_455
Ba0_1 Ba0_5 3.967554 1_555
Ba0_1 Pm0_2 3.985242 1_546
Ba0_1 Pm0_3 3.985253 1_545
Ba0_1 Pm0_4 3.985421 1_556
Ba0_1 Pm0_0 3.985427 1_556
Ba0_1 Pm0_5 3.985432 1_555
Ba0_1 Pm0_1 3.985438 1_555
Ba0_2 Ba0_4 3.967468 1_455
Ba0_2 Ba0_4 3.967468 1_565
Ba0_2 Ba0_6 3.967554 1_455
Ba0_2 Ba0_6 3.967554 1_555
Ba0_2 Pm0_1 3.985242 1_555
Ba0_2 Pm0_0 3.985253 1_555
Ba0_2 Pm0_7 3.985421 1_555
Ba0_2 Pm0_3 3.985427 1_555
Ba0_2 Pm0_6 3.985432 1_555
Ba0_2 Pm0_2 3.985438 1_555
Ba0_3 Ba0_5 3.967468 1_455
Ba0_3 Ba0_5 3.967468 1_565
Ba0_3 Ba0_7 3.967554 1_455
Ba0_3 Ba0_7 3.967554 1_555
Ba0_3 Pm0_0 3.985242 1_556
Ba0_3 Pm0_1 3.985253 1_555
Ba0_3 Pm0_6 3.985421 1_556
Ba0_3 Pm0_2 3.985427 1_556
Ba0_3 Pm0_7 3.985432 1_555
Ba0_3 Pm0_3 3.985438 1_555
Ba0_4 Ba0_6 3.967468 1_545
Ba0_4 Ba0_6 3.967468 1_555
Ba0_4 Pm0_7 3.985242 1_545
Ba0_4 Pm0_6 3.985253 1_545
Ba0_4 Pm0_1 3.985421 1_655
Ba0_4 Pm0_5 3.985427 1_555
Ba0_4 Pm0_0 3.985432 1_655
Ba0_4 Pm0_4 3.985438 1_555
Ba0_5 Ba0_7 3.967468 1_555
Ba0_5 Ba0_7 3.967468 1_545
Ba0_5 Pm0_6 3.985242 1_546
Ba0_5 Pm0_7 3.985253 1_545
Ba0_5 Pm0_0 3.985421 1_656
Ba0_5 Pm0_4 3.985427 1_556
Ba0_5 Pm0_1 3.985432 1_655
Ba0_5 Pm0_5 3.985438 1_555
Ba0_6 Pm0_5 3.985242 1_555
Ba0_6 Pm0_4 3.985253 1_555
Ba0_6 Pm0_3 3.985421 1_655
Ba0_6 Pm0_7 3.985427 1_555
Ba0_6 Pm0_2 3.985432 1_655
Ba0_6 Pm0_6 3.985438 1_555
Ba0_7 Pm0_4 3.985242 1_556
Ba0_7 Pm0_5 3.985253 1_555
Ba0_7 Pm0_2 3.985421 1_656
Ba0_7 Pm0_6 3.985427 1_556
Ba0_7 Pm0_3 3.985432 1_655
Ba0_7 Pm0_7 3.985438 1_555
Pm0_0 Pm0_6 3.967468 1_555
Pm0_0 Pm0_2 3.967468 1_545
Pm0_0 Pm0_2 3.967468 1_555
Pm0_0 Pm0_6 3.967468 1_445
Pm0_0 Pm0_4 3.967554 1_555
Pm0_0 Pm0_4 3.967554 1_455
Pm0_1 Pm0_7 3.967468 1_555
Pm0_1 Pm0_3 3.967468 1_555
Pm0_1 Pm0_3 3.967468 1_545
Pm0_1 Pm0_7 3.967468 1_445
Pm0_1 Pm0_5 3.967554 1_455
Pm0_1 Pm0_5 3.967554 1_555
Pm0_2 Pm0_4 3.967468 1_565
Pm0_2 Pm0_4 3.967468 1_455
Pm0_2 Pm0_6 3.967554 1_555
Pm0_2 Pm0_6 3.967554 1_455
Pm0_3 Pm0_5 3.967468 1_565
Pm0_3 Pm0_5 3.967468 1_455
Pm0_3 Pm0_7 3.967554 1_555
Pm0_3 Pm0_7 3.967554 1_455
Pm0_4 Pm0_6 3.967468 1_545
Pm0_4 Pm0_6 3.967468 1_555
Pm0_5 Pm0_7 3.967468 1_545
Pm0_5 Pm0_7 3.967468 1_555
