# generated using pymatgen
data_Mg5CoN4
_symmetry_space_group_name_H-M   'P 1'
_cell_length_a   7.09222900
_cell_length_b   6.70292200
_cell_length_c   5.18327600
_cell_angle_alpha   90.00000000
_cell_angle_beta   90.00000000
_cell_angle_gamma   90.00000000
_symmetry_Int_Tables_number   1
_chemical_formula_structural   Mg5CoN4
_chemical_formula_sum   'Mg10 Co2 N8'
_cell_volume   246.40598401
_cell_formula_units_Z   2
loop_
 _symmetry_equiv_pos_site_id
 _symmetry_equiv_pos_as_xyz
  1  'x, y, z'
loop_
 _atom_site_type_symbol
 _atom_site_label
 _atom_site_symmetry_multiplicity
 _atom_site_fract_x
 _atom_site_fract_y
 _atom_site_fract_z
 _atom_site_occupancy
  Mg  Mg0  1  0.54992200  0.50378200  0.24840900  1
  Mg  Mg1  1  0.95007800  0.50378200  0.24840900  1
  Mg  Mg2  1  0.54992200  0.99621800  0.24840900  1
  Mg  Mg3  1  0.95007800  0.99621800  0.24840900  1
  Mg  Mg4  1  0.45007800  0.49621800  0.75159100  1
  Mg  Mg5  1  0.04992200  0.49621800  0.75159100  1
  Mg  Mg6  1  0.45007800  0.00378200  0.75159100  1
  Mg  Mg7  1  0.04992200  0.00378200  0.75159100  1
  Mg  Mg8  1  0.75000000  0.75000000  0.71934500  1
  Mg  Mg9  1  0.25000000  0.25000000  0.28065500  1
  Co  Co0  1  0.75000000  0.25000000  0.71185300  1
  Co  Co1  1  0.25000000  0.75000000  0.28814700  1
  N  N0  1  0.75000000  0.00531300  0.94714400  1
  N  N1  1  0.75000000  0.49468700  0.94714400  1
  N  N2  1  0.25000000  0.99468700  0.05285600  1
  N  N3  1  0.25000000  0.50531300  0.05285600  1
  N  N4  1  0.49970100  0.75000000  0.50268600  1
  N  N5  1  0.00029900  0.75000000  0.50268600  1
  N  N6  1  0.50029900  0.25000000  0.49731400  1
  N  N7  1  0.99970100  0.25000000  0.49731400  1
loop_
_geom_bond_atom_site_label_1
_geom_bond_atom_site_label_2
_geom_bond_distance
_geom_bond_site_symmetry_2
Mg0 N1 2.110848 1_554
Mg0 N4 2.141894 1_555
Mg0 N6 2.163794 1_555
Mg0 N3 2.356294 1_555
Mg1 N1 2.110848 1_554
Mg1 N5 2.141894 1_655
Mg1 N7 2.163794 1_555
Mg1 N3 2.356294 1_655
Mg2 N0 2.110848 1_564
Mg2 N4 2.141894 1_555
Mg2 N6 2.163794 1_565
Mg2 N2 2.356294 1_555
Mg3 N0 2.110848 1_564
Mg3 N5 2.141894 1_655
Mg3 N7 2.163794 1_565
Mg3 N2 2.356294 1_655
Mg4 N3 2.110848 1_556
Mg4 N6 2.141894 1_555
Mg4 N4 2.163794 1_555
Mg4 N1 2.356294 1_555
Mg5 N3 2.110848 1_556
Mg5 N7 2.141894 1_455
Mg5 N5 2.163794 1_555
Mg5 N1 2.356294 1_455
Mg6 N2 2.110848 1_546
Mg6 N6 2.141894 1_555
Mg6 N4 2.163794 1_545
Mg6 N0 2.356294 1_555
Mg7 N2 2.110848 1_546
Mg7 N7 2.141894 1_455
Mg7 N5 2.163794 1_545
Mg7 N0 2.356294 1_455
Mg8 N0 2.079147 1_565
Mg8 N1 2.079147 1_555
Mg8 N5 2.100570 1_655
Mg8 N4 2.100570 1_555
Mg9 N3 2.079147 1_555
Mg9 N2 2.079147 1_545
Mg9 N6 2.100570 1_555
Mg9 N7 2.100570 1_455
Co0 N0 2.043859 1_555
Co0 N1 2.043859 1_555
Co0 N7 2.091123 1_555
Co0 N6 2.091123 1_555
Co1 N3 2.043859 1_555
Co1 N2 2.043859 1_555
Co1 N4 2.091123 1_555
Co1 N5 2.091123 1_555
