# generated using pymatgen
data_Ba2CoMoO6
_symmetry_space_group_name_H-M   'P 1'
_cell_length_a   5.80204972
_cell_length_b   5.80511546
_cell_length_c   10.05797779
_cell_angle_alpha   73.23331919
_cell_angle_beta   90.02110813
_cell_angle_gamma   119.96271517
_symmetry_Int_Tables_number   1
_chemical_formula_structural   Ba2CoMoO6
_chemical_formula_sum   'Ba4 Co2 Mo2 O12'
_cell_volume   276.76606788
_cell_formula_units_Z   2
loop_
 _symmetry_equiv_pos_site_id
 _symmetry_equiv_pos_as_xyz
  1  'x, y, z'
loop_
 _atom_site_type_symbol
 _atom_site_label
 _atom_site_symmetry_multiplicity
 _atom_site_fract_x
 _atom_site_fract_y
 _atom_site_fract_z
 _atom_site_occupancy
  Ba  Ba0  1  0.62483500  0.24951500  0.12466700  1
  Ba  Ba1  1  0.12496500  0.25000400  0.62504400  1
  Ba  Ba2  1  0.87503500  0.74999600  0.37495700  1
  Ba  Ba3  1  0.37516500  0.75048500  0.87533200  1
  Co  Co0  1  0.50000000  0.99999900  0.50000100  1
  Co  Co1  1  0.00000000  0.00000000  0.00000000  1
  Mo  Mo0  1  0.75018900  0.50026600  0.74992600  1
  Mo  Mo1  1  0.24981100  0.49973400  0.25007300  1
  O  O0  1  0.13037300  0.26099400  0.13065100  1
  O  O1  1  0.63082000  0.26157500  0.63065400  1
  O  O2  1  0.36931400  0.26127000  0.36944900  1
  O  O3  1  0.86918800  0.26100500  0.86950900  1
  O  O4  1  0.60781400  0.73865000  0.13068600  1
  O  O5  1  0.10796800  0.73865800  0.63056300  1
  O  O6  1  0.36918000  0.73842300  0.36934700  1
  O  O7  1  0.86962800  0.73900800  0.86934800  1
  O  O8  1  0.13081300  0.73899500  0.13049100  1
  O  O9  1  0.63068600  0.73873000  0.63055200  1
  O  O10  1  0.89203300  0.26134200  0.36943700  1
  O  O11  1  0.39218400  0.26135000  0.86931300  1
loop_
_geom_bond_atom_site_label_1
_geom_bond_atom_site_label_2
_geom_bond_distance
_geom_bond_site_symmetry_2
Ba0 O3 2.900033 1_554
Ba0 O11 2.900257 1_554
Ba0 O4 2.900389 1_545
Ba0 O8 2.901241 1_545
Ba0 O0 2.901451 1_655
Ba0 O0 2.903792 1_555
Ba0 O7 2.906478 1_554
Ba0 O6 2.907494 1_545
Ba0 O4 2.907813 1_555
Ba0 O10 2.908166 1_555
Ba0 O8 2.908505 1_655
Ba0 O2 2.909429 1_555
Ba1 O1 2.902131 1_455
Ba1 O1 2.902936 1_555
Ba1 O10 2.903270 1_455
Ba1 O5 2.903432 1_555
Ba1 O11 2.903930 1_555
Ba1 O2 2.904504 1_555
Ba1 O5 2.904629 1_545
Ba1 O9 2.904677 1_555
Ba1 O9 2.905114 1_445
Ba1 O7 2.905115 1_445
Ba1 O3 2.905201 1_455
Ba1 O6 2.905788 1_555
Ba2 O6 2.902137 1_655
Ba2 O6 2.902930 1_555
Ba2 O5 2.903264 1_655
Ba2 O10 2.903438 1_555
Ba2 O4 2.903953 1_555
Ba2 O9 2.904504 1_555
Ba2 O10 2.904623 1_565
Ba2 O2 2.904677 1_555
Ba2 O2 2.905114 1_665
Ba2 O0 2.905132 1_665
Ba2 O8 2.905212 1_655
Ba2 O1 2.905794 1_555
Ba3 O8 2.900039 1_556
Ba3 O4 2.900252 1_556
Ba3 O11 2.900395 1_565
Ba3 O3 2.901247 1_565
Ba3 O7 2.901451 1_455
Ba3 O7 2.903792 1_555
Ba3 O0 2.906473 1_556
Ba3 O1 2.907477 1_565
Ba3 O11 2.907807 1_555
Ba3 O5 2.908154 1_555
Ba3 O3 2.908499 1_455
Ba3 O9 2.909411 1_555
Co0 O9 2.144403 1_555
Co0 O2 2.144415 1_565
Co0 O5 2.146090 1_555
Co0 O10 2.146103 1_565
Co0 O1 2.146634 1_565
Co0 O6 2.146643 1_555
Co1 O3 2.143589 1_454
Co1 O8 2.143593 1_545
Co1 O0 2.144229 1_555
Co1 O7 2.144229 1_444
Co1 O11 2.147228 1_554
Co1 O4 2.147232 1_445
Mo0 O9 1.959042 1_555
Mo0 O1 1.959236 1_555
Mo0 O5 1.959437 1_655
Mo0 O11 1.960466 1_555
Mo0 O7 1.960677 1_555
Mo0 O3 1.961108 1_555
Mo1 O2 1.959051 1_555
Mo1 O6 1.959244 1_555
Mo1 O10 1.959437 1_455
Mo1 O4 1.960458 1_555
Mo1 O0 1.960668 1_555
Mo1 O8 1.961099 1_555
