# generated using pymatgen
data_V8Ga3(MoS6)4
_symmetry_space_group_name_H-M   'P 1'
_cell_length_a   6.86194740
_cell_length_b   9.75543292
_cell_length_c   12.01546154
_cell_angle_alpha   65.65525933
_cell_angle_beta   72.93233069
_cell_angle_gamma   89.01106788
_symmetry_Int_Tables_number   1
_chemical_formula_structural   V8Ga3(MoS6)4
_chemical_formula_sum   'V8 Ga3 Mo4 S24'
_cell_volume   695.55055780
_cell_formula_units_Z   1
loop_
 _symmetry_equiv_pos_site_id
 _symmetry_equiv_pos_as_xyz
  1  'x, y, z'
loop_
 _atom_site_type_symbol
 _atom_site_label
 _atom_site_symmetry_multiplicity
 _atom_site_fract_x
 _atom_site_fract_y
 _atom_site_fract_z
 _atom_site_occupancy
  V  V0  1  0.41232600  0.00606700  0.19215900  1
  V  V1  1  0.74583100  0.33914200  0.52500800  1
  V  V2  1  0.93067000  0.53621400  0.14001000  1
  V  V3  1  0.27054800  0.86496000  0.47404600  1
  V  V4  1  0.60379500  0.19794100  0.80817500  1
  V  V5  1  0.79104200  0.39537500  0.99885800  1
  V  V6  1  0.12799900  0.72309500  0.33362300  1
  V  V7  1  0.46252500  0.05757700  0.66633500  1
  Ga  Ga0  1  0.00448700  0.99900200  0.00012100  1
  Ga  Ga1  1  0.33805200  0.33199700  0.33274800  1
  Ga  Ga2  1  0.67197500  0.66464200  0.66531600  1
  Mo  Mo0  1  0.20696600  0.40002500  0.99762300  1
  Mo  Mo1  1  0.52969500  0.73532200  0.33346700  1
  Mo  Mo2  1  0.86327500  0.06889200  0.66617000  1
  Mo  Mo3  1  0.07067000  0.66866100  0.86387300  1
  S  S0  1  0.72790300  0.13628600  0.00039800  1
  S  S1  1  0.06078500  0.46908500  0.33326300  1
  S  S2  1  0.39608200  0.80314900  0.66568900  1
  S  S3  1  0.57834600  0.43849300  0.84779000  1
  S  S4  1  0.90865500  0.77288800  0.18257900  1
  S  S5  1  0.24189600  0.10551400  0.51543700  1
  S  S6  1  0.42625200  0.28695400  0.15102100  1
  S  S7  1  0.75738000  0.62058200  0.48391700  1
  S  S8  1  0.09171300  0.95598000  0.81741800  1
  S  S9  1  0.27511600  0.13619000  0.00014800  1
  S  S10  1  0.60678800  0.47014300  0.33363800  1
  S  S11  1  0.93997500  0.80397300  0.66540600  1
  S  S12  1  0.73466800  0.62619400  0.00438300  1
  S  S13  1  0.08442100  0.95790800  0.33297900  1
  S  S14  1  0.41858300  0.29158800  0.66641900  1
  S  S15  1  0.90863300  0.28626500  0.17309200  1
  S  S16  1  0.23389500  0.61657200  0.51114000  1
  S  S17  1  0.56708900  0.95014800  0.84401200  1
  S  S18  1  0.08257200  0.45207200  0.82505100  1
  S  S19  1  0.41118100  0.79484900  0.15605000  1
  S  S20  1  0.74526400  0.12768100  0.48859100  1
  S  S21  1  0.26071100  0.63152400  0.00456600  1
  S  S22  1  0.58975300  0.97188900  0.33321000  1
  S  S23  1  0.92248200  0.30516200  0.66627200  1
loop_
_geom_bond_atom_site_label_1
_geom_bond_atom_site_label_2
_geom_bond_distance
_geom_bond_site_symmetry_2
Ga0 S0 2.303891 1_465
Ga0 S4 2.306786 1_455
Ga0 S9 2.307862 1_565
Ga0 S8 2.309374 1_554
Ga1 S1 2.306618 1_555
Ga1 S10 2.307837 1_555
Ga1 S6 2.309399 1_555
Ga1 S5 2.310198 1_555
Ga2 S7 2.300589 1_555
Ga2 S11 2.306103 1_555
Ga2 S3 2.306779 1_555
Ga2 S2 2.306844 1_555
Mo0 S18 2.332797 1_555
Mo0 S21 2.333528 1_556
Mo0 S15 2.341654 1_456
Mo0 S3 2.580532 1_555
Mo0 S9 2.597419 1_556
Mo0 S6 2.602435 1_556
Mo1 S16 2.349055 1_555
Mo1 S22 2.349906 1_555
Mo1 S19 2.350244 1_555
Mo1 S7 2.625080 1_555
Mo1 S4 2.626981 1_555
Mo1 S10 2.630800 1_555
Mo1 V3 2.745015 1_555
Mo1 V0 2.745826 1_565
Mo1 V6 2.760470 1_555
Mo2 S23 2.347902 1_555
Mo2 S20 2.350882 1_555
Mo2 S17 2.351570 1_545
Mo2 S5 2.625699 1_655
Mo2 S11 2.631726 1_545
Mo2 S8 2.633498 1_645
Mo2 V1 2.742133 1_555
Mo2 V4 2.752594 1_555
Mo2 V7 2.753430 1_555
Mo3 S21 2.337170 1_556
Mo3 S18 2.339434 1_555
Mo3 S12 2.347181 1_456
Mo3 S2 2.604227 1_555
Mo3 S11 2.617767 1_455
Mo3 S8 2.620221 1_555
S0 V0 2.522871 1_555
S0 V4 2.532411 1_554
S0 V5 2.563391 1_554
S1 V1 2.519844 1_455
S1 V6 2.530331 1_555
S1 V2 2.561430 1_455
S2 V3 2.531723 1_555
S2 V7 2.534867 1_565
S3 V5 2.550746 1_555
S3 V4 2.573323 1_555
S4 V2 2.555680 1_555
S4 V6 2.578079 1_655
S5 V3 2.584942 1_545
S5 V7 2.585709 1_555
S6 V5 2.556933 1_554
S6 V0 2.574228 1_555
S7 V6 2.575254 1_655
S7 V1 2.579756 1_555
S8 V7 2.577685 1_565
S9 V4 2.572495 1_554
S9 V0 2.576797 1_555
S10 V2 2.558414 1_555
S10 V1 2.579491 1_555
S11 V3 2.577471 1_655
S12 V2 2.302511 1_555
S12 V5 2.302711 1_554
S13 V3 2.300011 1_555
S13 V0 2.300598 1_565
S13 V6 2.302150 1_555
S14 V7 2.297915 1_555
S14 V1 2.300251 1_555
S14 V4 2.301882 1_555
S15 V5 2.300348 1_554
S15 V2 2.303221 1_555
S16 V3 2.279980 1_555
S16 V6 2.283356 1_555
S17 V4 2.278489 1_565
S17 V7 2.280227 1_565
S18 V5 2.302744 1_455
S19 V0 2.274570 1_565
S19 V6 2.280391 1_555
S20 V1 2.278702 1_555
S20 V7 2.280865 1_555
S21 V2 2.302966 1_455
S22 V0 2.279718 1_565
S22 V3 2.279738 1_555
S23 V1 2.278209 1_555
S23 V4 2.281070 1_555
