# generated using pymatgen
data_Cu3H8S4(NO8)2
_symmetry_space_group_name_H-M   'P 1'
_cell_length_a   9.24933300
_cell_length_b   9.62325000
_cell_length_c   16.17278000
_cell_angle_alpha   90.00000000
_cell_angle_beta   90.00000000
_cell_angle_gamma   90.00000000
_symmetry_Int_Tables_number   1
_chemical_formula_structural   Cu3H8S4(NO8)2
_chemical_formula_sum   'Cu12 H32 S16 N8 O64'
_cell_volume   1439.51721415
_cell_formula_units_Z   4
loop_
 _symmetry_equiv_pos_site_id
 _symmetry_equiv_pos_as_xyz
  1  'x, y, z'
loop_
 _atom_site_type_symbol
 _atom_site_label
 _atom_site_symmetry_multiplicity
 _atom_site_fract_x
 _atom_site_fract_y
 _atom_site_fract_z
 _atom_site_occupancy
  Cu  Cu0  1  0.35074300  0.12631900  0.09736800  1
  Cu  Cu1  1  0.64925700  0.87368100  0.90263200  1
  Cu  Cu2  1  0.85074300  0.37368100  0.90263200  1
  Cu  Cu3  1  0.64925700  0.87368100  0.59736800  1
  Cu  Cu4  1  0.14925700  0.62631900  0.09736800  1
  Cu  Cu5  1  0.35074300  0.12631900  0.40263200  1
  Cu  Cu6  1  0.14925700  0.62631900  0.40263200  1
  Cu  Cu7  1  0.85074300  0.37368100  0.59736800  1
  Cu  Cu8  1  0.02110900  0.33982000  0.25000000  1
  Cu  Cu9  1  0.97889100  0.66018000  0.75000000  1
  Cu  Cu10  1  0.52110900  0.16018000  0.75000000  1
  Cu  Cu11  1  0.47889100  0.83982000  0.25000000  1
  H  H0  1  0.10017300  0.12064400  0.59537600  1
  H  H1  1  0.89982700  0.87935600  0.40462400  1
  H  H2  1  0.60017300  0.37935600  0.40462400  1
  H  H3  1  0.89982700  0.87935600  0.09537600  1
  H  H4  1  0.39982700  0.62064400  0.59537600  1
  H  H5  1  0.10017300  0.12064400  0.90462400  1
  H  H6  1  0.39982700  0.62064400  0.90462400  1
  H  H7  1  0.60017300  0.37935600  0.09537600  1
  H  H8  1  0.23840800  0.05510800  0.65118100  1
  H  H9  1  0.76159200  0.94489200  0.34881900  1
  H  H10  1  0.73840800  0.44489200  0.34881900  1
  H  H11  1  0.76159200  0.94489200  0.15118100  1
  H  H12  1  0.26159200  0.55510800  0.65118100  1
  H  H13  1  0.23840800  0.05510800  0.84881900  1
  H  H14  1  0.26159200  0.55510800  0.84881900  1
  H  H15  1  0.73840800  0.44489200  0.15118100  1
  H  H16  1  0.30755900  0.48113100  0.56013100  1
  H  H17  1  0.69244100  0.51886900  0.43986900  1
  H  H18  1  0.80755900  0.01886900  0.43986900  1
  H  H19  1  0.69244100  0.51886900  0.06013100  1
  H  H20  1  0.19244100  0.98113100  0.56013100  1
  H  H21  1  0.30755900  0.48113100  0.93986900  1
  H  H22  1  0.19244100  0.98113100  0.93986900  1
  H  H23  1  0.80755900  0.01886900  0.06013100  1
  H  H24  1  0.58177800  0.52971300  0.14524100  1
  H  H25  1  0.41822200  0.47028700  0.85475900  1
  H  H26  1  0.08177800  0.97028700  0.85475900  1
  H  H27  1  0.41822200  0.47028700  0.64524100  1
  H  H28  1  0.91822200  0.02971300  0.14524100  1
  H  H29  1  0.58177800  0.52971300  0.35475900  1
  H  H30  1  0.91822200  0.02971300  0.35475900  1
  H  H31  1  0.08177800  0.97028700  0.64524100  1
  S  S0  1  0.17740900  0.05602400  0.25000000  1
  S  S1  1  0.82259100  0.94397600  0.75000000  1
  S  S2  1  0.67740900  0.44397600  0.75000000  1
  S  S3  1  0.32259100  0.55602400  0.25000000  1
  S  S4  1  0.05587700  0.29649500  0.04906400  1
  S  S5  1  0.94412300  0.70350500  0.95093600  1
  S  S6  1  0.55587700  0.20350500  0.95093600  1
  S  S7  1  0.94412300  0.70350500  0.54906400  1
  S  S8  1  0.44412300  0.79649500  0.04906400  1
  S  S9  1  0.05587700  0.29649500  0.45093600  1
  S  S10  1  0.44412300  0.79649500  0.45093600  1
  S  S11  1  0.55587700  0.20350500  0.54906400  1
  S  S12  1  0.59142600  0.14824000  0.25000000  1
  S  S13  1  0.40857400  0.85176000  0.75000000  1
  S  S14  1  0.09142600  0.35176000  0.75000000  1
  S  S15  1  0.90857400  0.64824000  0.25000000  1
  N  N0  1  0.15346400  0.03090200  0.61205900  1
  N  N1  1  0.84653600  0.96909800  0.38794100  1
  N  N2  1  0.65346400  0.46909800  0.38794100  1
  N  N3  1  0.84653600  0.96909800  0.11205900  1
  N  N4  1  0.34653600  0.53090200  0.61205900  1
  N  N5  1  0.15346400  0.03090200  0.88794100  1
  N  N6  1  0.34653600  0.53090200  0.88794100  1
  N  N7  1  0.65346400  0.46909800  0.11205900  1
  O  O0  1  0.15036400  0.17103200  0.05245700  1
  O  O1  1  0.84963600  0.82896800  0.94754300  1
  O  O2  1  0.65036400  0.32896800  0.94754300  1
  O  O3  1  0.84963600  0.82896800  0.55245700  1
  O  O4  1  0.34963600  0.67103200  0.05245700  1
  O  O5  1  0.15036400  0.17103200  0.44754300  1
  O  O6  1  0.34963600  0.67103200  0.44754300  1
  O  O7  1  0.65036400  0.32896800  0.55245700  1
  O  O8  1  0.13538300  0.42234100  0.02430200  1
  O  O9  1  0.86461700  0.57765900  0.97569800  1
  O  O10  1  0.63538300  0.07765900  0.97569800  1
  O  O11  1  0.86461700  0.57765900  0.52430200  1
  O  O12  1  0.36461700  0.92234100  0.02430200  1
  O  O13  1  0.13538300  0.42234100  0.47569800  1
  O  O14  1  0.36461700  0.92234100  0.47569800  1
  O  O15  1  0.63538300  0.07765900  0.52430200  1
  O  O16  1  0.47643700  0.18445900  0.62922600  1
  O  O17  1  0.52356300  0.81554100  0.37077400  1
  O  O18  1  0.97643700  0.31554100  0.37077400  1
  O  O19  1  0.52356300  0.81554100  0.12922600  1
  O  O20  1  0.02356300  0.68445900  0.62922600  1
  O  O21  1  0.47643700  0.18445900  0.87077400  1
  O  O22  1  0.02356300  0.68445900  0.87077400  1
  O  O23  1  0.97643700  0.31554100  0.12922600  1
  O  O24  1  0.73093300  0.21861300  0.25000000  1
  O  O25  1  0.26906700  0.78138700  0.75000000  1
  O  O26  1  0.23093300  0.28138700  0.75000000  1
  O  O27  1  0.76906700  0.71861300  0.25000000  1
  O  O28  1  0.18317700  0.21184400  0.25000000  1
  O  O29  1  0.81682300  0.78815600  0.75000000  1
  O  O30  1  0.68317700  0.28815600  0.75000000  1
  O  O31  1  0.31682300  0.71184400  0.25000000  1
  O  O32  1  0.44146200  0.24217300  0.01363900  1
  O  O33  1  0.55853800  0.75782700  0.98636100  1
  O  O34  1  0.94146200  0.25782700  0.98636100  1
  O  O35  1  0.55853800  0.75782700  0.51363900  1
  O  O36  1  0.05853800  0.74217300  0.01363900  1
  O  O37  1  0.44146200  0.24217300  0.48636100  1
  O  O38  1  0.05853800  0.74217300  0.48636100  1
  O  O39  1  0.94146200  0.25782700  0.51363900  1
  O  O40  1  0.87968000  0.49199500  0.25000000  1
  O  O41  1  0.12032000  0.50800500  0.75000000  1
  O  O42  1  0.37968000  0.00800500  0.75000000  1
  O  O43  1  0.62032000  0.99199500  0.25000000  1
  O  O44  1  0.51007300  0.18640200  0.17340700  1
  O  O45  1  0.48992700  0.81359800  0.82659300  1
  O  O46  1  0.01007300  0.31359800  0.82659300  1
  O  O47  1  0.48992700  0.81359800  0.67340700  1
  O  O48  1  0.98992700  0.68640200  0.17340700  1
  O  O49  1  0.51007300  0.18640200  0.32659300  1
  O  O50  1  0.98992700  0.68640200  0.32659300  1
  O  O51  1  0.01007300  0.31359800  0.67340700  1
  O  O52  1  0.02882200  0.00460900  0.25000000  1
  O  O53  1  0.97117800  0.99539100  0.75000000  1
  O  O54  1  0.52882200  0.49539100  0.75000000  1
  O  O55  1  0.47117800  0.50460900  0.25000000  1
  O  O56  1  0.24138600  0.50297900  0.17592000  1
  O  O57  1  0.75861400  0.49702100  0.82408000  1
  O  O58  1  0.74138600  0.99702100  0.82408000  1
  O  O59  1  0.75861400  0.49702100  0.67592000  1
  O  O60  1  0.25861400  0.00297900  0.17592000  1
  O  O61  1  0.24138600  0.50297900  0.32408000  1
  O  O62  1  0.25861400  0.00297900  0.32408000  1
  O  O63  1  0.74138600  0.99702100  0.67592000  1
loop_
_geom_bond_atom_site_label_1
_geom_bond_atom_site_label_2
_geom_bond_distance
_geom_bond_site_symmetry_2
Cu0 O60 1.936198 1_555
Cu0 O32 1.944409 1_555
Cu0 O44 2.004596 1_555
Cu0 O0 2.036589 1_555
Cu0 O12 2.294763 1_545
Cu1 O58 1.936198 1_555
Cu1 O33 1.944409 1_555
Cu1 O45 2.004596 1_555
Cu1 O1 2.036589 1_555
Cu1 O10 2.294763 1_565
Cu2 O57 1.936198 1_555
Cu2 O34 1.944409 1_555
Cu2 O46 2.004596 1_655
Cu2 O2 2.036589 1_555
Cu2 O9 2.294763 1_555
Cu3 O63 1.936198 1_555
Cu3 O35 1.944409 1_555
Cu3 O47 2.004596 1_555
Cu3 O3 2.036589 1_555
Cu3 O15 2.294763 1_565
Cu4 O56 1.936198 1_555
Cu4 O36 1.944409 1_555
Cu4 O48 2.004596 1_455
Cu4 O4 2.036589 1_555
Cu4 O8 2.294763 1_555
Cu5 O62 1.936198 1_555
Cu5 O37 1.944409 1_555
Cu5 O49 2.004596 1_555
Cu5 O5 2.036589 1_555
Cu5 O14 2.294763 1_545
Cu6 O61 1.936198 1_555
Cu6 O38 1.944409 1_555
Cu6 O50 2.004596 1_455
Cu6 O6 2.036589 1_555
Cu6 O13 2.294763 1_555
Cu7 O59 1.936198 1_555
Cu7 O39 1.944409 1_555
Cu7 O51 2.004596 1_655
Cu7 O7 2.036589 1_555
Cu7 O11 2.294763 1_555
Cu8 O28 1.940043 1_555
Cu8 O40 1.963596 1_455
Cu8 O18 2.010100 1_455
Cu8 O23 2.010100 1_455
Cu9 O29 1.940043 1_555
Cu9 O41 1.963596 1_655
Cu9 O22 2.010100 1_655
Cu9 O20 2.010100 1_655
Cu10 O30 1.940043 1_555
Cu10 O42 1.963596 1_555
Cu10 O21 2.010100 1_555
Cu10 O16 2.010100 1_555
Cu11 O31 1.940043 1_555
Cu11 O43 1.963596 1_555
Cu11 O17 2.010100 1_555
Cu11 O19 2.010100 1_555
H0 N0 1.030328 1_555
H1 N1 1.030328 1_555
H2 N2 1.030328 1_555
H3 N3 1.030328 1_555
H4 N4 1.030328 1_555
H5 N5 1.030328 1_555
H6 N6 1.030328 1_555
H7 N7 1.030328 1_555
H8 N0 1.035312 1_555
H9 N1 1.035312 1_555
H10 N2 1.035312 1_555
H11 N3 1.035312 1_555
H12 N4 1.035312 1_555
H13 N5 1.035312 1_555
H14 N6 1.035312 1_555
H15 N7 1.035312 1_555
H16 N4 1.031827 1_555
H17 N2 1.031827 1_555
H18 N1 1.031827 1_545
H19 N7 1.031827 1_555
H20 N0 1.031827 1_565
H21 N6 1.031827 1_555
H22 N5 1.031827 1_565
H23 N3 1.031827 1_545
H24 N7 1.033380 1_555
H25 N6 1.033380 1_555
H26 N5 1.033380 1_565
H27 N4 1.033380 1_555
H28 N3 1.033380 1_545
H29 N2 1.033380 1_555
H30 N1 1.033380 1_545
H31 N0 1.033380 1_565
O0 S4 1.491478 1_555
O1 S5 1.491478 1_555
O2 S6 1.491478 1_555
O3 S7 1.491478 1_555
O4 S8 1.491478 1_555
O5 S9 1.491478 1_555
O6 S10 1.491478 1_555
O7 S11 1.491478 1_555
O8 S4 1.472343 1_555
O9 S5 1.472343 1_555
O10 S6 1.472343 1_555
O11 S7 1.472343 1_555
O12 S8 1.472343 1_555
O13 S9 1.472343 1_555
O14 S10 1.472343 1_555
O15 S11 1.472343 1_555
O16 S11 1.501412 1_555
O17 S10 1.501412 1_555
O18 S9 1.501412 1_655
O19 S8 1.501412 1_555
O20 S7 1.501412 1_455
O21 S6 1.501412 1_555
O22 S5 1.501412 1_455
O23 S4 1.501412 1_655
O24 S12 1.457264 1_555
O25 S13 1.457264 1_555
O26 S14 1.457264 1_555
O27 S15 1.457264 1_555
O28 S0 1.500444 1_555
O29 S1 1.500444 1_555
O30 S2 1.500444 1_555
O31 S3 1.500444 1_555
O32 S6 1.512200 1_554
O33 S8 1.512200 1_556
O34 S4 1.512200 1_656
O35 S10 1.512200 1_555
O36 S5 1.512200 1_454
O37 S11 1.512200 1_555
O38 S7 1.512200 1_455
O39 S9 1.512200 1_655
O40 S15 1.527151 1_555
O41 S14 1.527151 1_555
O42 S13 1.527151 1_545
O43 S12 1.527151 1_565
O44 S12 1.495158 1_555
O45 S13 1.495158 1_555
O46 S14 1.495158 1_555
O47 S13 1.495158 1_555
O48 S15 1.495158 1_555
O49 S12 1.495158 1_555
O50 S15 1.495158 1_555
O51 S14 1.495158 1_555
O52 S0 1.460682 1_555
O53 S1 1.460682 1_555
O54 S2 1.460682 1_555
O55 S3 1.460682 1_555
O56 S3 1.503366 1_555
O57 S2 1.503366 1_555
O58 S1 1.503366 1_555
O59 S2 1.503366 1_555
O60 S0 1.503366 1_555
O61 S3 1.503366 1_555
O62 S0 1.503366 1_555
O63 S1 1.503366 1_555
