# generated using pymatgen
data_LaMgFeAgO6
_symmetry_space_group_name_H-M   'P 1'
_cell_length_a   5.52577500
_cell_length_b   10.00117585
_cell_length_c   10.28734212
_cell_angle_alpha   62.10410875
_cell_angle_beta   89.99827519
_cell_angle_gamma   89.99863209
_symmetry_Int_Tables_number   1
_chemical_formula_structural   LaMgFeAgO6
_chemical_formula_sum   'La4 Mg4 Fe4 Ag4 O24'
_cell_volume   502.45947468
_cell_formula_units_Z   4
loop_
 _symmetry_equiv_pos_site_id
 _symmetry_equiv_pos_as_xyz
  1  'x, y, z'
loop_
 _atom_site_type_symbol
 _atom_site_label
 _atom_site_symmetry_multiplicity
 _atom_site_fract_x
 _atom_site_fract_y
 _atom_site_fract_z
 _atom_site_occupancy
  La  La0  1  0.06349600  0.61560700  0.63948000  1
  La  La1  1  0.06349300  0.11561100  0.13950600  1
  La  La2  1  0.43652300  0.61562200  0.13946600  1
  La  La3  1  0.43652600  0.11562000  0.63949400  1
  Mg  Mg0  1  0.56761200  0.39271500  0.85151200  1
  Mg  Mg1  1  0.56760600  0.89272400  0.35150900  1
  Mg  Mg2  1  0.93238500  0.39272100  0.35151200  1
  Mg  Mg3  1  0.93239400  0.89272100  0.85151200  1
  Fe  Fe0  1  0.51073400  0.50418400  0.49865800  1
  Fe  Fe1  1  0.98927700  0.00418300  0.49867200  1
  Fe  Fe2  1  0.51072300  0.00417500  0.99866700  1
  Fe  Fe3  1  0.98928300  0.50417600  0.99865600  1
  Ag  Ag0  1  0.49825300  0.74830500  0.75642700  1
  Ag  Ag1  1  0.49825700  0.24831000  0.25642800  1
  Ag  Ag2  1  0.00176000  0.24830300  0.75643600  1
  Ag  Ag3  1  0.00174500  0.74830800  0.25642600  1
  O  O0  1  0.03490200  0.67941600  0.01440300  1
  O  O1  1  0.03489900  0.17941400  0.51440500  1
  O  O2  1  0.46510200  0.17941700  0.01440700  1
  O  O3  1  0.46510400  0.67941900  0.51440400  1
  O  O4  1  0.20046300  0.54924800  0.36342300  1
  O  O5  1  0.20045900  0.04924600  0.86342100  1
  O  O6  1  0.29954600  0.54924700  0.86342000  1
  O  O7  1  0.29955000  0.04924800  0.36342400  1
  O  O8  1  0.18949500  0.38163400  0.18414300  1
  O  O9  1  0.18948300  0.88163500  0.68414300  1
  O  O10  1  0.31056400  0.38155800  0.68418100  1
  O  O11  1  0.31050800  0.88163500  0.18414600  1
  O  O12  1  0.56806700  0.84713400  0.95436900  1
  O  O13  1  0.56806400  0.34712600  0.45437400  1
  O  O14  1  0.93194500  0.34712800  0.95437300  1
  O  O15  1  0.93194000  0.84712200  0.45437500  1
  O  O16  1  0.72804300  0.43303400  0.15988900  1
  O  O17  1  0.72793800  0.93303100  0.65996700  1
  O  O18  1  0.77195800  0.43305500  0.65984400  1
  O  O19  1  0.77196700  0.93303400  0.15989300  1
  O  O20  1  0.72855600  0.59873100  0.32765400  1
  O  O21  1  0.72841600  0.09873000  0.82766200  1
  O  O22  1  0.77152400  0.59873600  0.82765700  1
  O  O23  1  0.77144100  0.09873300  0.32766000  1
loop_
_geom_bond_atom_site_label_1
_geom_bond_atom_site_label_2
_geom_bond_distance
_geom_bond_site_symmetry_2
La0 O15 2.321639 1_455
La0 O18 2.369526 1_455
La0 O6 2.453269 1_555
La0 O22 2.464366 1_455
La0 O3 2.493837 1_555
La0 O10 2.558747 1_555
La0 O9 2.986388 1_555
La1 O14 2.321739 1_454
La1 O19 2.369599 1_445
La1 O7 2.453100 1_555
La1 O23 2.464457 1_455
La1 O2 2.493935 1_555
La1 O11 2.558140 1_545
La1 O8 2.986206 1_555
La2 O12 2.321569 1_554
La2 O16 2.369505 1_555
La2 O4 2.453360 1_555
La2 O20 2.464683 1_555
La2 O0 2.493887 1_555
La2 O8 2.558228 1_555
La2 O11 2.986343 1_555
La3 O13 2.321606 1_555
La3 O17 2.368967 1_545
La3 O5 2.453130 1_555
La3 O21 2.464014 1_555
La3 O1 2.494022 1_555
La3 O9 2.558319 1_545
La3 O10 2.985594 1_555
Mg0 O2 2.081985 1_556
Mg0 O18 2.140356 1_555
Mg0 O6 2.199843 1_555
Mg0 O14 2.220201 1_555
Mg0 O22 2.258816 1_555
Mg0 O10 2.274430 1_555
Mg1 O3 2.082018 1_555
Mg1 O19 2.140027 1_555
Mg1 O7 2.199774 1_565
Mg1 O15 2.220223 1_555
Mg1 O23 2.258520 1_565
Mg1 O11 2.274585 1_555
Mg2 O1 2.082042 1_655
Mg2 O16 2.140076 1_555
Mg2 O4 2.199918 1_655
Mg2 O13 2.220105 1_555
Mg2 O20 2.258441 1_555
Mg2 O8 2.274599 1_655
Mg3 O0 2.082014 1_656
Mg3 O17 2.139748 1_555
Mg3 O5 2.199847 1_665
Mg3 O12 2.220117 1_555
Mg3 O21 2.258869 1_565
Mg3 O9 2.274522 1_655
Fe0 O3 1.851185 1_555
Fe0 O13 1.856007 1_555
Fe0 O20 1.970013 1_555
Fe0 O10 2.044445 1_555
Fe0 O18 2.058036 1_555
Fe0 O4 2.119304 1_555
Fe1 O1 1.851081 1_655
Fe1 O15 1.856146 1_545
Fe1 O23 1.970154 1_555
Fe1 O9 2.044107 1_645
Fe1 O17 2.059150 1_545
Fe1 O7 2.119336 1_655
Fe2 O2 1.851215 1_556
Fe2 O12 1.855949 1_545
Fe2 O21 1.969590 1_555
Fe2 O11 2.044144 1_546
Fe2 O19 2.058374 1_546
Fe2 O5 2.119329 1_555
Fe3 O0 1.851244 1_656
Fe3 O14 1.855929 1_555
Fe3 O22 1.969811 1_555
Fe3 O8 2.044222 1_656
Fe3 O16 2.058359 1_556
Fe3 O6 2.119217 1_655
Ag0 O22 2.007249 1_555
Ag0 O17 2.072022 1_555
Ag0 O9 2.077085 1_555
Ag0 O6 2.080882 1_555
Ag1 O23 2.006933 1_555
Ag1 O16 2.072401 1_555
Ag1 O8 2.077020 1_555
Ag1 O7 2.080913 1_555
Ag2 O21 2.007595 1_455
Ag2 O18 2.072658 1_455
Ag2 O10 2.076882 1_555
Ag2 O5 2.080829 1_555
Ag3 O20 2.006974 1_455
Ag3 O19 2.072366 1_455
Ag3 O11 2.077052 1_555
Ag3 O4 2.080916 1_555
