# generated using pymatgen
data_SrAl2Au3
_symmetry_space_group_name_H-M   'P 1'
_cell_length_a   5.49379100
_cell_length_b   7.02270800
_cell_length_c   13.33228100
_cell_angle_alpha   90.00000000
_cell_angle_beta   90.00000000
_cell_angle_gamma   90.00000000
_symmetry_Int_Tables_number   1
_chemical_formula_structural   SrAl2Au3
_chemical_formula_sum   'Sr4 Al8 Au12'
_cell_volume   514.37659970
_cell_formula_units_Z   4
loop_
 _symmetry_equiv_pos_site_id
 _symmetry_equiv_pos_as_xyz
  1  'x, y, z'
loop_
 _atom_site_type_symbol
 _atom_site_label
 _atom_site_symmetry_multiplicity
 _atom_site_fract_x
 _atom_site_fract_y
 _atom_site_fract_z
 _atom_site_occupancy
  Sr  Sr0  1  0.25000000  0.65312900  0.91049200  1
  Sr  Sr1  1  0.25000000  0.84687100  0.41049200  1
  Sr  Sr2  1  0.75000000  0.34687100  0.08950800  1
  Sr  Sr3  1  0.75000000  0.15312900  0.58950800  1
  Al  Al0  1  0.99927000  0.14254100  0.84906400  1
  Al  Al1  1  0.50073000  0.35745900  0.34906400  1
  Al  Al2  1  0.49927000  0.85745900  0.15093600  1
  Al  Al3  1  0.00073000  0.64254100  0.65093600  1
  Al  Al4  1  0.00073000  0.85745900  0.15093600  1
  Al  Al5  1  0.49927000  0.64254100  0.65093600  1
  Al  Al6  1  0.50073000  0.14254100  0.84906400  1
  Al  Al7  1  0.99927000  0.35745900  0.34906400  1
  Au  Au0  1  0.25000000  0.34790100  0.71780900  1
  Au  Au1  1  0.25000000  0.15209900  0.21780900  1
  Au  Au2  1  0.75000000  0.65209900  0.28219100  1
  Au  Au3  1  0.75000000  0.84790100  0.78219100  1
  Au  Au4  1  0.25000000  0.94145000  0.69324000  1
  Au  Au5  1  0.25000000  0.55855000  0.19324000  1
  Au  Au6  1  0.75000000  0.05855000  0.30676000  1
  Au  Au7  1  0.75000000  0.44145000  0.80676000  1
  Au  Au8  1  0.25000000  0.40299300  0.50793200  1
  Au  Au9  1  0.25000000  0.09700700  0.00793200  1
  Au  Au10  1  0.75000000  0.59700700  0.49206800  1
  Au  Au11  1  0.75000000  0.90299300  0.99206800  1
loop_
_geom_bond_atom_site_label_1
_geom_bond_atom_site_label_2
_geom_bond_distance
_geom_bond_site_symmetry_2
Al0 Au9 2.546739 1_656
Al0 Au7 2.569027 1_555
Al0 Au3 2.636612 1_545
Al0 Au0 2.653212 1_655
Al0 Au4 2.864903 1_645
Al0 Au11 2.887978 1_545
Al1 Au8 2.546739 1_555
Al1 Au6 2.569027 1_555
Al1 Au2 2.636612 1_555
Al1 Au1 2.653212 1_555
Al1 Au5 2.864903 1_555
Al1 Au10 2.887978 1_555
Al2 Au11 2.546739 1_554
Al2 Au5 2.569027 1_555
Al2 Au1 2.636612 1_565
Al2 Au2 2.653212 1_555
Al2 Au6 2.864903 1_565
Al2 Au9 2.887978 1_565
Al3 Au10 2.546739 1_455
Al3 Au4 2.569027 1_555
Al3 Au0 2.636612 1_555
Al3 Au3 2.653212 1_455
Al3 Au7 2.864903 1_455
Al3 Au8 2.887978 1_555
Al4 Au11 2.546739 1_454
Al4 Au5 2.569027 1_555
Al4 Au1 2.636612 1_565
Al4 Au2 2.653212 1_455
Al4 Au6 2.864903 1_465
Al4 Au9 2.887978 1_565
Al5 Au10 2.546739 1_555
Al5 Au4 2.569027 1_555
Al5 Au0 2.636612 1_555
Al5 Au3 2.653212 1_555
Al5 Au7 2.864903 1_555
Al5 Au8 2.887978 1_555
Al6 Au9 2.546739 1_556
Al6 Au7 2.569027 1_555
Al6 Au3 2.636612 1_545
Al6 Au0 2.653212 1_555
Al6 Au4 2.864903 1_545
Al6 Au11 2.887978 1_545
Al7 Au8 2.546739 1_655
Al7 Au6 2.569027 1_555
Al7 Au2 2.636612 1_555
Al7 Au1 2.653212 1_655
Al7 Au5 2.864903 1_655
Al7 Au10 2.887978 1_555
Au0 Sr0 3.345740 1_555
Au0 Sr3 3.513168 1_455
Au0 Sr3 3.513168 1_555
Au1 Sr1 3.345740 1_545
Au1 Sr2 3.513168 1_455
Au1 Sr2 3.513168 1_555
Au2 Sr2 3.345740 1_555
Au2 Sr1 3.513168 1_555
Au2 Sr1 3.513168 1_655
Au3 Sr3 3.345740 1_565
Au3 Sr0 3.513168 1_655
Au3 Sr0 3.513168 1_555
Au4 Sr3 3.415837 1_465
Au4 Sr3 3.415837 1_565
Au4 Sr0 3.534020 1_555
Au4 Sr1 3.827743 1_555
Au5 Sr2 3.415837 1_455
Au5 Sr2 3.415837 1_555
Au5 Sr1 3.534020 1_555
Au5 Sr0 3.827743 1_554
Au6 Sr1 3.415837 1_645
Au6 Sr1 3.415837 1_545
Au6 Sr2 3.534020 1_555
Au6 Sr3 3.827743 1_555
Au7 Sr0 3.415837 1_555
Au7 Sr0 3.415837 1_655
Au7 Sr3 3.534020 1_555
Au7 Sr2 3.827743 1_556
Au8 Sr1 3.377092 1_555
Au8 Sr3 3.436182 1_555
Au8 Sr3 3.436182 1_455
Au9 Sr0 3.377092 1_544
Au9 Sr2 3.436182 1_555
Au9 Sr2 3.436182 1_455
Au10 Sr3 3.377092 1_555
Au10 Sr1 3.436182 1_555
Au10 Sr1 3.436182 1_655
Au11 Sr2 3.377092 1_566
Au11 Sr0 3.436182 1_555
Au11 Sr0 3.436182 1_655
