# generated using pymatgen
data_Sr2Mg17
_symmetry_space_group_name_H-M   'P 1'
_cell_length_a   10.46610780
_cell_length_b   10.46610780
_cell_length_c   10.27107336
_cell_angle_alpha   90.00000000
_cell_angle_beta   90.00000000
_cell_angle_gamma   120.00000229
_symmetry_Int_Tables_number   1
_chemical_formula_structural   Sr2Mg17
_chemical_formula_sum   'Sr4 Mg34'
_cell_volume   974.35419706
_cell_formula_units_Z   2
loop_
 _symmetry_equiv_pos_site_id
 _symmetry_equiv_pos_as_xyz
  1  'x, y, z'
loop_
 _atom_site_type_symbol
 _atom_site_label
 _atom_site_symmetry_multiplicity
 _atom_site_fract_x
 _atom_site_fract_y
 _atom_site_fract_z
 _atom_site_occupancy
  Sr  Sr0  1  0.66666700  0.33333300  0.25000000  1
  Sr  Sr1  1  0.33333300  0.66666700  0.75000000  1
  Sr  Sr2  1  0.00000000  0.00000000  0.75000000  1
  Sr  Sr3  1  0.00000000  0.00000000  0.25000000  1
  Mg  Mg0  1  0.16628802  0.33257705  0.52160480  1
  Mg  Mg1  1  0.66742295  0.83371198  0.52160480  1
  Mg  Mg2  1  0.16628802  0.83371198  0.52160480  1
  Mg  Mg3  1  0.83371198  0.16628802  0.02160480  1
  Mg  Mg4  1  0.33333300  0.66666700  0.10268629  1
  Mg  Mg5  1  0.66666700  0.33333300  0.60268629  1
  Mg  Mg6  1  0.66666700  0.33333300  0.89731371  1
  Mg  Mg7  1  0.33333300  0.66666700  0.39731371  1
  Mg  Mg8  1  0.50000000  0.00000000  0.00000000  1
  Mg  Mg9  1  0.50000000  0.50000000  0.50000000  1
  Mg  Mg10  1  0.00000000  0.50000000  0.50000000  1
  Mg  Mg11  1  0.00000000  0.50000000  0.00000000  1
  Mg  Mg12  1  0.50000000  0.50000000  0.00000000  1
  Mg  Mg13  1  0.50000000  0.00000000  0.50000000  1
  Mg  Mg14  1  0.32880738  0.96116798  0.25000000  1
  Mg  Mg15  1  0.36764040  0.32880738  0.75000000  1
  Mg  Mg16  1  0.96116798  0.63235960  0.75000000  1
  Mg  Mg17  1  0.03883202  0.36764040  0.25000000  1
  Mg  Mg18  1  0.63235960  0.67119262  0.25000000  1
  Mg  Mg19  1  0.36764040  0.03883202  0.75000000  1
  Mg  Mg20  1  0.67119262  0.63235960  0.75000000  1
  Mg  Mg21  1  0.67119262  0.03883202  0.75000000  1
  Mg  Mg22  1  0.96116798  0.32880738  0.75000000  1
  Mg  Mg23  1  0.03883202  0.67119262  0.25000000  1
  Mg  Mg24  1  0.63235960  0.96116798  0.25000000  1
  Mg  Mg25  1  0.32880738  0.36764040  0.25000000  1
  Mg  Mg26  1  0.16628802  0.83371198  0.97839520  1
  Mg  Mg27  1  0.33257705  0.16628802  0.47839520  1
  Mg  Mg28  1  0.83371198  0.66742295  0.47839520  1
  Mg  Mg29  1  0.16628802  0.33257705  0.97839520  1
  Mg  Mg30  1  0.66742295  0.83371198  0.97839520  1
  Mg  Mg31  1  0.33257705  0.16628802  0.02160480  1
  Mg  Mg32  1  0.83371198  0.66742295  0.02160480  1
  Mg  Mg33  1  0.83371198  0.16628802  0.47839520  1
loop_
_geom_bond_atom_site_label_1
_geom_bond_atom_site_label_2
_geom_bond_distance
_geom_bond_site_symmetry_2
Mg0 Mg10 3.032863 1_555
Mg0 Mg9 3.032872 1_555
Mg0 Mg33 3.046936 1_455
Mg0 Mg27 3.046955 1_555
Mg0 Mg22 3.166816 1_455
Mg0 Mg15 3.166830 1_555
Mg0 Mg17 3.191544 1_555
Mg0 Mg25 3.191544 1_555
Mg0 Mg7 3.286257 1_555
Mg0 Sr2 3.819684 1_555
Mg0 Sr1 3.830515 1_555
Mg1 Mg13 3.032863 1_565
Mg1 Mg9 3.032872 1_555
Mg1 Mg33 3.046936 1_565
Mg1 Mg28 3.046955 1_555
Mg1 Mg21 3.166816 1_565
Mg1 Mg20 3.166830 1_555
Mg1 Mg24 3.191544 1_555
Mg1 Mg18 3.191544 1_555
Mg1 Mg7 3.286257 1_555
Mg1 Sr2 3.819684 1_665
Mg1 Sr1 3.830515 1_555
Mg2 Mg28 3.046936 1_455
Mg2 Mg27 3.046936 1_565
Mg2 Mg23 3.191544 1_555
Mg2 Mg7 3.286257 1_555
Mg2 Sr2 3.819677 1_565
Mg2 Sr1 3.830516 1_555
Mg3 Mg8 3.032872 1_555
Mg3 Mg30 3.046936 1_544
Mg3 Mg6 3.286257 1_554
Mg3 Sr3 3.819677 1_655
Mg3 Sr0 3.830516 1_555
Mg4 Mg7 3.026140 1_555
Mg4 Mg8 3.200102 1_565
Mg4 Sr1 3.622467 1_554
Mg5 Mg6 3.026140 1_555
Mg5 Mg9 3.200111 1_555
Mg5 Sr0 3.622467 1_555
Mg6 Mg8 3.200102 1_556
Mg6 Sr0 3.622467 1_556
Mg7 Mg9 3.200111 1_555
Mg7 Sr1 3.622467 1_555
Mg8 Sr1 3.965060 1_544
Mg8 Sr0 3.965060 1_555
Mg9 Sr1 3.965067 1_555
Mg9 Sr0 3.965067 1_555
Mg10 Mg28 3.032863 1_455
Mg10 Mg2 3.032872 1_555
Mg10 Mg33 3.032872 1_455
Mg10 Mg17 3.039844 1_555
Mg10 Mg16 3.039844 1_455
Mg10 Mg23 3.039849 1_555
Mg10 Mg22 3.039849 1_455
Mg10 Mg5 3.200102 1_455
Mg10 Mg7 3.200102 1_555
Mg10 Sr1 3.965060 1_555
Mg10 Sr0 3.965060 1_455
Mg11 Mg32 3.032863 1_455
Mg11 Mg29 3.032863 1_554
Mg11 Mg26 3.032872 1_554
Mg11 Mg3 3.032872 1_455
Mg11 Mg17 3.039844 1_555
Mg11 Mg16 3.039844 1_454
Mg11 Mg23 3.039849 1_555
Mg11 Mg22 3.039849 1_454
Mg11 Mg6 3.200102 1_454
Mg11 Mg4 3.200102 1_555
Mg11 Sr1 3.965060 1_554
Mg11 Sr0 3.965060 1_455
Mg12 Mg29 3.032872 1_554
Mg12 Mg32 3.032872 1_555
Mg12 Mg31 3.032872 1_555
Mg12 Mg30 3.032872 1_554
Mg12 Mg20 3.039847 1_554
Mg12 Mg18 3.039847 1_555
Mg12 Mg25 3.039847 1_555
Mg12 Mg15 3.039847 1_554
Mg12 Mg6 3.200111 1_554
Mg12 Mg4 3.200111 1_555
Mg12 Sr1 3.965067 1_554
Mg12 Sr0 3.965067 1_555
Mg13 Mg27 3.032863 1_555
Mg13 Mg33 3.032872 1_555
Mg13 Mg2 3.032872 1_545
Mg13 Mg19 3.039844 1_555
Mg13 Mg24 3.039844 1_545
Mg13 Mg14 3.039849 1_545
Mg13 Mg21 3.039849 1_555
Mg13 Mg5 3.200102 1_555
Mg13 Mg7 3.200102 1_545
Mg13 Sr1 3.965060 1_545
Mg13 Sr0 3.965060 1_555
Mg14 Mg23 3.034913 1_555
Mg14 Mg8 3.039849 1_565
Mg14 Mg31 3.166816 1_565
Mg14 Mg27 3.166816 1_565
Mg14 Mg24 3.177010 1_555
Mg14 Mg2 3.191544 1_555
Mg14 Mg26 3.191544 1_554
Mg14 Mg4 3.455150 1_555
Mg14 Mg7 3.455150 1_555
Mg14 Sr3 3.661500 1_565
Mg14 Sr0 3.728585 1_565
Mg15 Mg19 3.034913 1_555
Mg15 Mg9 3.039847 1_555
Mg15 Mg29 3.166830 1_555
Mg15 Mg20 3.177010 1_555
Mg15 Mg31 3.191544 1_556
Mg15 Mg27 3.191544 1_555
Mg15 Mg6 3.455150 1_555
Mg15 Mg5 3.455150 1_555
Mg15 Sr2 3.661506 1_555
Mg15 Sr1 3.728597 1_555
Mg16 Mg20 3.034913 1_555
Mg16 Mg26 3.166822 1_655
Mg16 Mg2 3.166822 1_655
Mg16 Mg22 3.177010 1_555
Mg16 Mg32 3.191544 1_556
Mg16 Mg28 3.191544 1_555
Mg16 Mg5 3.455150 1_555
Mg16 Mg6 3.455150 1_555
Mg16 Sr2 3.661510 1_665
Mg16 Sr1 3.728576 1_655
Mg17 Mg25 3.034913 1_555
Mg17 Mg33 3.166822 1_455
Mg17 Mg3 3.166822 1_455
Mg17 Mg23 3.177010 1_555
Mg17 Mg29 3.191544 1_554
Mg17 Mg4 3.455150 1_555
Mg17 Mg7 3.455150 1_555
Mg17 Sr3 3.661510 1_555
Mg17 Sr0 3.728576 1_455
Mg18 Mg24 3.034913 1_555
Mg18 Mg9 3.039847 1_555
Mg18 Mg32 3.166830 1_555
Mg18 Mg28 3.166830 1_555
Mg18 Mg25 3.177010 1_555
Mg18 Mg30 3.191544 1_554
Mg18 Mg4 3.455150 1_555
Mg18 Mg7 3.455150 1_555
Mg18 Sr3 3.661506 1_665
Mg18 Sr0 3.728597 1_555
Mg19 Mg8 3.039844 1_556
Mg19 Mg26 3.166822 1_545
Mg19 Mg2 3.166822 1_545
Mg19 Mg21 3.177010 1_555
Mg19 Mg31 3.191544 1_556
Mg19 Mg27 3.191544 1_555
Mg19 Mg6 3.455150 1_555
Mg19 Mg5 3.455150 1_555
Mg19 Sr2 3.661510 1_555
Mg19 Sr1 3.728576 1_545
Mg20 Mg9 3.039847 1_555
Mg20 Mg30 3.166830 1_555
Mg20 Mg32 3.191544 1_556
Mg20 Mg28 3.191544 1_555
Mg20 Mg6 3.455150 1_555
Mg20 Mg5 3.455150 1_555
Mg20 Sr2 3.661506 1_665
Mg20 Sr1 3.728597 1_555
Mg21 Mg22 3.034913 1_555
Mg21 Mg8 3.039849 1_556
Mg21 Mg30 3.166816 1_545
Mg21 Mg33 3.191544 1_555
Mg21 Mg3 3.191544 1_556
Mg21 Mg5 3.455150 1_555
Mg21 Mg6 3.455150 1_555
Mg21 Sr2 3.661500 1_655
Mg21 Sr1 3.728585 1_545
Mg22 Mg29 3.166816 1_655
Mg22 Mg3 3.191544 1_556
Mg22 Mg33 3.191544 1_555
Mg22 Mg5 3.455150 1_555
Mg22 Mg6 3.455150 1_555
Mg22 Sr2 3.661500 1_655
Mg22 Sr1 3.728585 1_655
Mg23 Mg28 3.166816 1_455
Mg23 Mg32 3.166816 1_455
Mg23 Mg26 3.191544 1_554
Mg23 Mg4 3.455150 1_555
Mg23 Mg7 3.455150 1_555
Mg23 Sr3 3.661500 1_565
Mg23 Sr0 3.728585 1_455
Mg24 Mg8 3.039844 1_565
Mg24 Mg3 3.166822 1_565
Mg24 Mg33 3.166822 1_565
Mg24 Mg30 3.191544 1_554
Mg24 Mg4 3.455150 1_555
Mg24 Mg7 3.455150 1_555
Mg24 Sr3 3.661510 1_665
Mg24 Sr0 3.728576 1_565
Mg25 Mg9 3.039847 1_555
Mg25 Mg27 3.166830 1_555
Mg25 Mg31 3.166830 1_555
Mg25 Mg29 3.191544 1_554
Mg25 Mg4 3.455150 1_555
Mg25 Mg7 3.455150 1_555
Mg25 Sr3 3.661506 1_555
Mg25 Sr0 3.728597 1_555
Mg26 Mg8 3.032872 1_566
Mg26 Mg32 3.046936 1_456
Mg26 Mg31 3.046936 1_566
Mg26 Mg4 3.286257 1_556
Mg26 Sr2 3.819677 1_565
Mg26 Sr1 3.830516 1_555
Mg27 Mg9 3.032872 1_555
Mg27 Mg5 3.286257 1_555
Mg27 Sr3 3.819684 1_555
Mg27 Sr0 3.830515 1_555
Mg28 Mg9 3.032872 1_555
Mg28 Mg5 3.286257 1_555
Mg28 Sr3 3.819684 1_665
Mg28 Sr0 3.830515 1_555
Mg29 Mg3 3.046936 1_456
Mg29 Mg31 3.046955 1_556
Mg29 Mg4 3.286257 1_556
Mg29 Sr2 3.819684 1_555
Mg29 Sr1 3.830515 1_555
Mg30 Mg8 3.032863 1_566
Mg30 Mg32 3.046955 1_556
Mg30 Mg4 3.286257 1_556
Mg30 Sr2 3.819684 1_665
Mg30 Sr1 3.830515 1_555
Mg31 Mg8 3.032863 1_555
Mg31 Mg6 3.286257 1_554
Mg31 Sr3 3.819684 1_555
Mg31 Sr0 3.830515 1_555
Mg32 Mg6 3.286257 1_554
Mg32 Sr3 3.819684 1_665
Mg32 Sr0 3.830515 1_555
Mg33 Mg5 3.286257 1_555
Mg33 Sr3 3.819677 1_655
Mg33 Sr0 3.830516 1_555
