# generated using pymatgen
data_Rb3Cd(NO2)3
_symmetry_space_group_name_H-M   'P 1'
_cell_length_a   11.81447712
_cell_length_b   7.38124804
_cell_length_c   12.74711782
_cell_angle_alpha   107.17323834
_cell_angle_beta   62.34996358
_cell_angle_gamma   129.57309493
_symmetry_Int_Tables_number   1
_chemical_formula_structural   Rb3Cd(NO2)3
_chemical_formula_sum   'Rb3 Cd1 N3 O6'
_cell_volume   758.99687484
_cell_formula_units_Z   1
loop_
 _symmetry_equiv_pos_site_id
 _symmetry_equiv_pos_as_xyz
  1  'x, y, z'
loop_
 _atom_site_type_symbol
 _atom_site_label
 _atom_site_symmetry_multiplicity
 _atom_site_fract_x
 _atom_site_fract_y
 _atom_site_fract_z
 _atom_site_occupancy
  Rb  Rb0  1  0.00994100  0.96804200  0.59732900  1
  Rb  Rb1  1  0.59050300  0.64258400  0.03235200  1
  Rb  Rb2  1  0.95803200  0.42107800  0.01643300  1
  Cd  Cd0  1  0.03213500  0.99131000  0.99502500  1
  N  N0  1  0.62947300  0.78752400  0.79254800  1
  N  N1  1  0.98957000  0.38725500  0.77010500  1
  N  N2  1  0.61867100  0.80507400  0.67733400  1
  O  O0  1  0.71821500  0.73814300  0.78428800  1
  O  O1  1  0.84212000  0.00323000  0.07806700  1
  O  O2  1  0.04893700  0.29923500  0.78137400  1
  O  O3  1  0.54279500  0.81732000  0.89034000  1
  O  O4  1  0.98220200  0.36075600  0.67099800  1
  O  O5  1  0.71201600  0.77845000  0.58841800  1
loop_
_geom_bond_atom_site_label_1
_geom_bond_atom_site_label_2
_geom_bond_distance
_geom_bond_site_symmetry_2
Cd0 O1 2.039371 1_466
Cd0 Rb2 3.783950 1_456
N0 O3 1.261440 1_555
N0 O0 1.266867 1_555
N0 N2 1.580304 1_555
N1 O4 1.255504 1_555
N1 O2 1.289931 1_655
N1 Rb2 2.937737 1_556
N2 O5 1.234482 1_555
O0 Rb0 2.784025 1_655
O0 Rb1 2.881984 1_556
O1 Rb1 2.621463 1_545
O1 Rb2 2.656313 1_555
O2 Rb2 2.755510 1_456
O2 Rb0 2.806020 1_545
O3 Rb1 2.917225 1_556
O4 Rb0 2.951120 1_645
O5 Rb0 2.891660 1_655
