# generated using pymatgen
data_TmInO3
_symmetry_space_group_name_H-M   'P 1'
_cell_length_a   5.45997200
_cell_length_b   5.78780900
_cell_length_c   8.29024700
_cell_angle_alpha   90.00000000
_cell_angle_beta   90.00000000
_cell_angle_gamma   90.00000000
_symmetry_Int_Tables_number   1
_chemical_formula_structural   TmInO3
_chemical_formula_sum   'Tm4 In4 O12'
_cell_volume   261.98237594
_cell_formula_units_Z   4
loop_
 _symmetry_equiv_pos_site_id
 _symmetry_equiv_pos_as_xyz
  1  'x, y, z'
loop_
 _atom_site_type_symbol
 _atom_site_label
 _atom_site_symmetry_multiplicity
 _atom_site_fract_x
 _atom_site_fract_y
 _atom_site_fract_z
 _atom_site_occupancy
  Tm  Tm0  1  0.97429500  0.06501100  0.75000000  1
  Tm  Tm1  1  0.47429500  0.43498900  0.25000000  1
  Tm  Tm2  1  0.52570500  0.56501100  0.75000000  1
  Tm  Tm3  1  0.02570500  0.93498900  0.25000000  1
  In  In0  1  0.50000000  0.00000000  0.00000000  1
  In  In1  1  0.50000000  0.00000000  0.50000000  1
  In  In2  1  0.00000000  0.50000000  0.00000000  1
  In  In3  1  0.00000000  0.50000000  0.50000000  1
  O  O0  1  0.65321300  0.07773600  0.25000000  1
  O  O1  1  0.18665700  0.18993200  0.08056000  1
  O  O2  1  0.18665700  0.18993200  0.41944000  1
  O  O3  1  0.68665700  0.31006800  0.58056000  1
  O  O4  1  0.68665700  0.31006800  0.91944000  1
  O  O5  1  0.15321300  0.42226400  0.75000000  1
  O  O6  1  0.84678700  0.57773600  0.25000000  1
  O  O7  1  0.31334300  0.68993200  0.08056000  1
  O  O8  1  0.31334300  0.68993200  0.41944000  1
  O  O9  1  0.81334300  0.81006800  0.58056000  1
  O  O10  1  0.81334300  0.81006800  0.91944000  1
  O  O11  1  0.34678700  0.92226400  0.75000000  1
loop_
_geom_bond_atom_site_label_1
_geom_bond_atom_site_label_2
_geom_bond_distance
_geom_bond_site_symmetry_2
In0 O10 2.140436 1_544
In0 O1 2.140436 1_555
In0 O4 2.169178 1_554
In0 O7 2.169178 1_545
In0 O11 2.279855 1_544
In0 O0 2.279855 1_555
In1 O9 2.140436 1_545
In1 O2 2.140436 1_555
In1 O3 2.169178 1_555
In1 O8 2.169178 1_545
In1 O11 2.279855 1_545
In1 O0 2.279855 1_555
In2 O7 2.140436 1_555
In2 O4 2.140436 1_454
In2 O1 2.169178 1_555
In2 O10 2.169178 1_454
In2 O5 2.279855 1_554
In2 O6 2.279855 1_455
In3 O8 2.140436 1_555
In3 O3 2.140436 1_455
In3 O2 2.169178 1_555
In3 O9 2.169178 1_455
In3 O5 2.279855 1_555
In3 O6 2.279855 1_455
O0 Tm3 2.195204 1_645
O0 Tm1 2.286863 1_555
O1 Tm3 2.218725 1_545
O1 Tm1 2.539948 1_555
O2 Tm3 2.218725 1_545
O2 Tm1 2.539948 1_555
O3 Tm2 2.218725 1_555
O3 Tm0 2.539948 1_555
O4 Tm2 2.218725 1_555
O4 Tm0 2.539948 1_555
O5 Tm2 2.195204 1_555
O5 Tm0 2.286863 1_455
O6 Tm1 2.195204 1_555
O6 Tm3 2.286863 1_655
O7 Tm1 2.218725 1_555
O7 Tm3 2.539948 1_555
O8 Tm1 2.218725 1_555
O8 Tm3 2.539948 1_555
O9 Tm0 2.218725 1_565
O9 Tm2 2.539948 1_555
O10 Tm0 2.218725 1_565
O10 Tm2 2.539948 1_555
O11 Tm0 2.195204 1_465
O11 Tm2 2.286863 1_555
