# generated using pymatgen
data_FeGe3
_symmetry_space_group_name_H-M   'P 1'
_cell_length_a   5.66113052
_cell_length_b   5.66113052
_cell_length_c   4.79037300
_cell_angle_alpha   90.00000000
_cell_angle_beta   90.00000000
_cell_angle_gamma   120.00000613
_symmetry_Int_Tables_number   1
_chemical_formula_structural   FeGe3
_chemical_formula_sum   'Fe2 Ge6'
_cell_volume   132.95548915
_cell_formula_units_Z   2
loop_
 _symmetry_equiv_pos_site_id
 _symmetry_equiv_pos_as_xyz
  1  'x, y, z'
loop_
 _atom_site_type_symbol
 _atom_site_label
 _atom_site_symmetry_multiplicity
 _atom_site_fract_x
 _atom_site_fract_y
 _atom_site_fract_z
 _atom_site_occupancy
  Fe  Fe0  1  0.33333300  0.66666700  0.75000000  1
  Fe  Fe1  1  0.66666700  0.33333300  0.25000000  1
  Ge  Ge0  1  0.17499000  0.34998100  0.25000000  1
  Ge  Ge1  1  0.65001900  0.82501000  0.25000000  1
  Ge  Ge2  1  0.17499000  0.82501000  0.25000000  1
  Ge  Ge3  1  0.82501000  0.65001900  0.75000000  1
  Ge  Ge4  1  0.34998100  0.17499000  0.75000000  1
  Ge  Ge5  1  0.82501000  0.17499000  0.75000000  1
loop_
_geom_bond_atom_site_label_1
_geom_bond_atom_site_label_2
_geom_bond_distance
_geom_bond_site_symmetry_2
Fe0 Ge3 2.831736 1_455
Fe0 Ge4 2.831736 1_565
Fe0 Ge5 2.831741 1_455
Fe0 Ge5 2.831741 1_565
Fe0 Ge3 2.831747 1_555
Fe0 Ge4 2.831747 1_555
Fe0 Ge0 2.854386 1_555
Fe0 Ge0 2.854386 1_556
Fe0 Ge1 2.854386 1_555
Fe0 Ge1 2.854386 1_556
Fe0 Ge2 2.854386 1_556
Fe0 Ge2 2.854386 1_555
Fe1 Ge1 2.831736 1_545
Fe1 Ge0 2.831736 1_655
Fe1 Ge2 2.831741 1_655
Fe1 Ge2 2.831741 1_545
Fe1 Ge0 2.831747 1_555
Fe1 Ge1 2.831747 1_555
Fe1 Ge4 2.854386 1_555
Fe1 Ge4 2.854386 1_554
Fe1 Ge3 2.854386 1_555
Fe1 Ge3 2.854386 1_554
Fe1 Ge5 2.854386 1_555
Fe1 Ge5 2.854386 1_554
Ge0 Ge1 2.689201 1_555
Ge0 Ge2 2.689201 1_555
Ge0 Ge5 2.946358 1_454
Ge0 Ge5 2.946358 1_455
Ge0 Ge4 2.946364 1_555
Ge0 Ge4 2.946364 1_554
Ge0 Ge1 2.971929 1_445
Ge0 Ge2 2.971929 1_545
Ge1 Ge2 2.689201 1_555
Ge1 Ge5 2.946358 1_565
Ge1 Ge5 2.946358 1_564
Ge1 Ge3 2.946364 1_554
Ge1 Ge3 2.946364 1_555
Ge1 Ge2 2.971929 1_655
Ge2 Ge3 2.946358 1_455
Ge2 Ge3 2.946358 1_454
Ge2 Ge4 2.946358 1_564
Ge2 Ge4 2.946358 1_565
Ge3 Ge4 2.689201 1_555
Ge3 Ge5 2.689201 1_555
Ge3 Ge4 2.971929 1_665
Ge3 Ge5 2.971929 1_565
Ge4 Ge5 2.689201 1_555
Ge4 Ge5 2.971929 1_455
