# generated using pymatgen
data_DyTlPd
_symmetry_space_group_name_H-M   'P 1'
_cell_length_a   7.78759091
_cell_length_b   7.78759172
_cell_length_c   3.77353925
_cell_angle_alpha   90.00000000
_cell_angle_beta   90.00000000
_cell_angle_gamma   119.99999662
_symmetry_Int_Tables_number   1
_chemical_formula_structural   DyTlPd
_chemical_formula_sum   'Dy3 Tl3 Pd3'
_cell_volume   198.19186393
_cell_formula_units_Z   3
loop_
 _symmetry_equiv_pos_site_id
 _symmetry_equiv_pos_as_xyz
  1  'x, y, z'
loop_
 _atom_site_type_symbol
 _atom_site_label
 _atom_site_symmetry_multiplicity
 _atom_site_fract_x
 _atom_site_fract_y
 _atom_site_fract_z
 _atom_site_occupancy
  Dy  Dy0  1  0.59762177  -0.00000000  0.50000000  1
  Dy  Dy1  1  0.40237823  0.40237823  0.50000000  1
  Dy  Dy2  1  -0.00000000  0.59762177  0.50000000  1
  Tl  Tl0  1  0.26791694  -0.00000000  -0.00000000  1
  Tl  Tl1  1  0.73208306  0.73208306  0.00000000  1
  Tl  Tl2  1  -0.00000000  0.26791694  -0.00000000  1
  Pd  Pd0  1  0.33333300  0.66666700  -0.00000000  1
  Pd  Pd1  1  0.66666700  0.33333300  -0.00000000  1
  Pd  Pd2  1  -0.00000000  -0.00000000  0.50000000  1
loop_
_geom_bond_atom_site_label_1
_geom_bond_atom_site_label_2
_geom_bond_distance
_geom_bond_site_symmetry_2
Dy0 Pd1 3.031786 1_556
Dy0 Pd1 3.031786 1_555
Dy0 Pd0 3.031788 1_546
Dy0 Pd0 3.031788 1_545
Dy0 Pd2 3.133557 1_655
Dy0 Tl0 3.186299 1_555
Dy0 Tl0 3.186299 1_556
Dy0 Tl2 3.345791 1_656
Dy0 Tl2 3.345791 1_655
Dy0 Tl1 3.345791 1_546
Dy0 Tl1 3.345791 1_545
Dy1 Pd1 3.031792 1_555
Dy1 Pd1 3.031792 1_556
Dy1 Pd0 3.031792 1_556
Dy1 Pd0 3.031792 1_555
Dy1 Pd2 3.133557 1_555
Dy1 Tl1 3.186299 1_555
Dy1 Tl1 3.186299 1_556
Dy1 Tl2 3.345791 1_555
Dy1 Tl2 3.345791 1_556
Dy1 Tl0 3.345792 1_555
Dy1 Tl0 3.345792 1_556
Dy2 Pd0 3.031786 1_555
Dy2 Pd0 3.031786 1_556
Dy2 Pd1 3.031788 1_456
Dy2 Pd1 3.031788 1_455
Dy2 Pd2 3.133557 1_565
Dy2 Tl2 3.186299 1_555
Dy2 Tl2 3.186299 1_556
Dy2 Tl1 3.345791 1_456
Dy2 Tl1 3.345791 1_455
Dy2 Tl0 3.345792 1_566
Dy2 Tl0 3.345792 1_565
Pd0 Tl0 2.884517 1_565
Pd0 Tl2 2.884522 1_555
Pd0 Tl1 2.884524 1_555
Pd1 Tl2 2.884517 1_655
Pd1 Tl0 2.884522 1_555
Pd1 Tl1 2.884525 1_555
Pd2 Tl0 2.813020 1_556
Pd2 Tl0 2.813020 1_555
Pd2 Tl1 2.813020 1_446
Pd2 Tl1 2.813020 1_445
Pd2 Tl2 2.813020 1_555
Pd2 Tl2 2.813020 1_556
