# generated using pymatgen
data_Tb2Ge6Au
_symmetry_space_group_name_H-M   'P 1'
_cell_length_a   4.14714500
_cell_length_b   4.13054900
_cell_length_c   11.29223855
_cell_angle_alpha   90.00000000
_cell_angle_beta   100.58115654
_cell_angle_gamma   90.00000000
_symmetry_Int_Tables_number   1
_chemical_formula_structural   Tb2Ge6Au
_chemical_formula_sum   'Tb2 Ge6 Au1'
_cell_volume   190.14666051
_cell_formula_units_Z   1
loop_
 _symmetry_equiv_pos_site_id
 _symmetry_equiv_pos_as_xyz
  1  'x, y, z'
loop_
 _atom_site_type_symbol
 _atom_site_label
 _atom_site_symmetry_multiplicity
 _atom_site_fract_x
 _atom_site_fract_y
 _atom_site_fract_z
 _atom_site_occupancy
  Tb  Tb0  1  0.77800400  0.50000000  0.55600900  1
  Tb  Tb1  1  0.12014300  0.50000000  0.24028600  1
  Ge  Ge0  1  0.49005600  0.50000000  0.98011200  1
  Ge  Ge1  1  0.37687000  0.50000000  0.75374100  1
  Ge  Ge2  1  0.99069100  0.00000000  0.98138100  1
  Ge  Ge3  1  0.87699800  0.00000000  0.75399700  1
  Ge  Ge4  1  0.67286200  0.00000000  0.34572500  1
  Ge  Ge5  1  0.24020800  0.00000000  0.48041700  1
  Au  Au0  1  0.56116700  0.00000000  0.12233300  1
loop_
_geom_bond_atom_site_label_1
_geom_bond_atom_site_label_2
_geom_bond_distance
_geom_bond_site_symmetry_2
Ge0 Ge1 2.512769 1_555
Ge0 Tb1 3.555304 1_556
Ge0 Tb1 3.555304 1_656
Ge1 Ge3 2.926614 1_465
Ge1 Ge3 2.926614 1_455
Ge1 Ge3 2.926614 1_555
Ge1 Ge3 2.926614 1_565
Ge1 Tb0 3.019462 1_555
Ge1 Tb0 3.019463 1_455
Ge2 Ge3 2.524013 1_555
Ge2 Tb1 3.539022 1_656
Ge2 Tb1 3.539022 1_646
Ge3 Tb0 3.015840 1_555
Ge3 Tb0 3.015840 1_545
Ge4 Ge5 2.556376 1_555
Ge4 Ge5 2.556376 1_655
Ge4 Tb0 3.116704 1_555
Ge4 Tb0 3.116704 1_545
Ge4 Tb1 3.151965 1_545
Ge4 Tb1 3.151965 1_555
Ge4 Tb1 3.151967 1_645
Ge4 Tb1 3.151967 1_655
Ge5 Tb0 3.044525 1_455
Ge5 Tb0 3.044525 1_445
Ge5 Tb0 3.044525 1_545
Ge5 Tb0 3.044525 1_555
Ge5 Tb1 3.371986 1_555
Ge5 Tb1 3.371986 1_545
Au0 Ge4 2.479701 1_555
Au0 Ge2 2.597628 1_554
Au0 Ge2 2.597628 1_454
Au0 Ge0 2.599539 1_544
Au0 Ge0 2.599539 1_554
Au0 Tb1 3.206140 1_645
Au0 Tb1 3.206140 1_655
Au0 Tb1 3.206142 1_555
Au0 Tb1 3.206142 1_545
