# generated using pymatgen
data_ErCuPb
_symmetry_space_group_name_H-M   'P 1'
_cell_length_a   4.54801063
_cell_length_b   4.54801010
_cell_length_c   7.30233223
_cell_angle_alpha   90.00000000
_cell_angle_beta   90.00000000
_cell_angle_gamma   119.99998894
_symmetry_Int_Tables_number   1
_chemical_formula_structural   ErCuPb
_chemical_formula_sum   'Er2 Cu2 Pb2'
_cell_volume   130.80825733
_cell_formula_units_Z   2
loop_
 _symmetry_equiv_pos_site_id
 _symmetry_equiv_pos_as_xyz
  1  'x, y, z'
loop_
 _atom_site_type_symbol
 _atom_site_label
 _atom_site_symmetry_multiplicity
 _atom_site_fract_x
 _atom_site_fract_y
 _atom_site_fract_z
 _atom_site_occupancy
  Er  Er0  1  0.00000000  0.00000000  0.00259857  1
  Er  Er1  1  0.00000000  0.00000000  0.50259857  1
  Cu  Cu0  1  0.66666700  0.33333300  0.33600193  1
  Cu  Cu1  1  0.33333300  0.66666700  0.83600193  1
  Pb  Pb0  1  0.33333300  0.66666700  0.23339950  1
  Pb  Pb1  1  0.66666700  0.33333300  0.73339950  1
loop_
_geom_bond_atom_site_label_1
_geom_bond_atom_site_label_2
_geom_bond_distance
_geom_bond_site_symmetry_2
Er0 Pb0 3.120145 1_545
Er0 Pb0 3.120149 1_555
Er0 Pb0 3.120149 1_445
Er0 Pb1 3.280104 1_454
Er0 Pb1 3.280107 1_444
Er0 Pb1 3.280107 1_554
Er0 Er1 3.651166 1_555
Er0 Er1 3.651166 1_554
Er1 Pb1 3.120145 1_455
Er1 Pb1 3.120149 1_445
Er1 Pb1 3.120149 1_555
Er1 Pb0 3.280104 1_545
Er1 Pb0 3.280107 1_555
Er1 Pb0 3.280107 1_445
Cu0 Pb0 2.730594 1_545
Cu0 Pb0 2.730594 1_655
Cu0 Pb0 2.730601 1_555
Cu0 Er1 2.893918 1_655
Cu0 Er1 2.893922 1_665
Cu0 Er1 2.893923 1_555
Cu0 Pb1 2.901929 1_555
Cu0 Er0 3.580806 1_655
Cu0 Er0 3.580809 1_665
Cu0 Er0 3.580809 1_555
Cu1 Pb1 2.730594 1_565
Cu1 Pb1 2.730594 1_455
Cu1 Pb1 2.730601 1_555
Cu1 Er0 2.893918 1_566
Cu1 Er0 2.893922 1_556
Cu1 Er0 2.893923 1_666
Cu1 Pb0 2.901929 1_556
Cu1 Er1 3.580806 1_565
Cu1 Er1 3.580809 1_555
Cu1 Er1 3.580809 1_665
