# generated using pymatgen
data_YFe2
_symmetry_space_group_name_H-M   'P 1'
_cell_length_a   8.90838417
_cell_length_b   8.90838417
_cell_length_c   8.90838417
_cell_angle_alpha   99.68268341
_cell_angle_beta   99.68268341
_cell_angle_gamma   131.57631863
_symmetry_Int_Tables_number   1
_chemical_formula_structural   YFe2
_chemical_formula_sum   'Y10 Fe20'
_cell_volume   482.33875151
_cell_formula_units_Z   10
loop_
 _symmetry_equiv_pos_site_id
 _symmetry_equiv_pos_as_xyz
  1  'x, y, z'
loop_
 _atom_site_type_symbol
 _atom_site_label
 _atom_site_symmetry_multiplicity
 _atom_site_fract_x
 _atom_site_fract_y
 _atom_site_fract_z
 _atom_site_occupancy
  Y  Y0  1  0.00000000  0.00000000  0.00000000  1
  Y  Y1  1  0.25000000  0.75000000  0.50000000  1
  Y  Y2  1  0.04671900  0.14718500  0.69901200  1
  Y  Y3  1  0.44817300  0.34770800  0.30098800  1
  Y  Y4  1  0.65229200  0.95328100  0.10046600  1
  Y  Y5  1  0.85281500  0.55182700  0.89953400  1
  Y  Y6  1  0.20454400  0.60174400  0.80088700  1
  Y  Y7  1  0.80085700  0.40365700  0.19911300  1
  Y  Y8  1  0.59634300  0.79545600  0.39720000  1
  Y  Y9  1  0.39825600  0.19914300  0.60280000  1
  Fe  Fe0  1  0.72255500  0.67534200  0.14982000  1
  Fe  Fe1  1  0.52552200  0.57273600  0.85018000  1
  Fe  Fe2  1  0.42726400  0.27744500  0.95278600  1
  Fe  Fe3  1  0.32465800  0.47447800  0.04721400  1
  Fe  Fe4  1  0.72361200  0.17348600  0.64790300  1
  Fe  Fe5  1  0.52558300  0.07570900  0.35209700  1
  Fe  Fe6  1  0.92429100  0.27638800  0.44987400  1
  Fe  Fe7  1  0.82651400  0.47441700  0.55012600  1
  Fe  Fe8  1  0.92331900  0.77292000  0.45242000  1
  Fe  Fe9  1  0.32050100  0.47089900  0.54758000  1
  Fe  Fe10  1  0.52910100  0.07668100  0.84960200  1
  Fe  Fe11  1  0.22708000  0.67949900  0.15039800  1
  Fe  Fe12  1  0.92336100  0.27348500  0.94554100  1
  Fe  Fe13  1  0.32794400  0.97782000  0.05445900  1
  Fe  Fe14  1  0.02218000  0.07663900  0.35012500  1
  Fe  Fe15  1  0.72651500  0.67205600  0.64987500  1
  Fe  Fe16  1  0.12370600  0.37704900  0.24554500  1
  Fe  Fe17  1  0.13150400  0.87816100  0.75445500  1
  Fe  Fe18  1  0.12183900  0.87629400  0.25334300  1
  Fe  Fe19  1  0.62295100  0.86849600  0.74665700  1
loop_
_geom_bond_atom_site_label_1
_geom_bond_atom_site_label_2
_geom_bond_distance
_geom_bond_site_symmetry_2
Fe0 Fe1 2.552528 1_554
Fe0 Fe3 2.558016 1_555
Fe0 Fe2 2.558018 1_554
Fe0 Fe18 2.568505 1_655
Fe0 Fe14 2.583803 1_665
Fe0 Fe8 2.597609 1_555
Fe0 Y8 2.983734 1_555
Fe0 Y7 3.005377 1_555
Fe0 Y4 3.007684 1_555
Fe0 Y0 3.029092 1_665
Fe0 Y3 3.044267 1_555
Fe0 Y5 3.044381 1_554
Fe1 Fe2 2.558016 1_555
Fe1 Fe3 2.558024 1_556
Fe1 Fe19 2.568498 1_555
Fe1 Fe15 2.583808 1_555
Fe1 Fe9 2.597604 1_555
Fe1 Y9 2.983741 1_555
Fe1 Y6 3.005371 1_555
Fe1 Y5 3.007684 1_555
Fe1 Y0 3.029090 1_666
Fe1 Y2 3.044274 1_555
Fe1 Y4 3.044379 1_556
Fe2 Fe3 2.552523 1_556
Fe2 Y7 2.983745 1_556
Fe2 Y9 3.005371 1_555
Fe2 Y3 3.007684 1_556
Fe2 Y0 3.029090 1_556
Fe2 Y5 3.044274 1_555
Fe2 Y2 3.044370 1_555
Fe3 Y6 2.983741 1_554
Fe3 Y8 3.005371 1_555
Fe3 Y2 3.007684 1_554
Fe3 Y0 3.029090 1_555
Fe3 Y4 3.044274 1_555
Fe3 Y3 3.044368 1_555
Fe4 Fe5 2.537628 1_555
Fe4 Fe7 2.564799 1_555
Fe4 Fe6 2.564799 1_555
Fe4 Y2 3.006209 1_655
Fe4 Y1 3.016916 1_545
Fe4 Y9 3.022049 1_555
Fe4 Y5 3.025099 1_555
Fe4 Y8 3.027381 1_545
Fe4 Y6 3.059553 1_655
Fe5 Fe6 2.564799 1_555
Fe5 Fe7 2.564799 1_555
Fe5 Y3 3.006217 1_555
Fe5 Y1 3.016916 1_545
Fe5 Y8 3.022049 1_545
Fe5 Y4 3.025093 1_545
Fe5 Y9 3.027381 1_555
Fe5 Y7 3.059553 1_555
Fe6 Fe7 2.537628 1_555
Fe6 Fe9 2.561251 1_655
Fe6 Y4 3.006209 1_545
Fe6 Y1 3.016916 1_655
Fe6 Y6 3.022049 1_655
Fe6 Y2 3.025099 1_655
Fe6 Y7 3.027381 1_555
Fe6 Y8 3.059553 1_545
Fe7 Fe8 2.561244 1_555
Fe7 Y5 3.006209 1_555
Fe7 Y1 3.016916 1_655
Fe7 Y7 3.022049 1_555
Fe7 Y3 3.025104 1_555
Fe7 Y6 3.027381 1_655
Fe7 Y9 3.059553 1_555
Fe8 Y2 3.001625 1_665
Fe8 Y7 3.002524 1_555
Fe8 Y1 3.015533 1_655
Fe8 Y8 3.015662 1_555
Fe8 Y3 3.027353 1_555
Fe8 Y9 3.028708 1_665
Fe9 Y3 3.001613 1_555
Fe9 Y6 3.002530 1_555
Fe9 Y1 3.015539 1_555
Fe9 Y9 3.015655 1_555
Fe9 Y2 3.027357 1_555
Fe9 Y8 3.028706 1_555
Fe10 Fe12 2.540365 1_555
Fe10 Fe4 2.561251 1_555
Fe10 Fe17 2.561953 1_545
Fe10 Fe19 2.592920 1_545
Fe10 Fe2 2.597612 1_555
Fe10 Fe13 2.619796 1_546
Fe10 Y4 3.001614 1_546
Fe10 Y9 3.002530 1_555
Fe10 Y1 3.015539 1_545
Fe10 Y7 3.015655 1_556
Fe10 Y5 3.027357 1_555
Fe10 Y6 3.028706 1_545
Fe11 Fe13 2.540367 1_555
Fe11 Fe5 2.561251 1_565
Fe11 Fe16 2.561951 1_555
Fe11 Fe18 2.592928 1_555
Fe11 Fe3 2.597596 1_555
Fe11 Fe12 2.619796 1_454
Fe11 Y5 3.001624 1_454
Fe11 Y8 3.002523 1_555
Fe11 Y1 3.015541 1_555
Fe11 Y6 3.015653 1_554
Fe11 Y4 3.027344 1_555
Fe11 Y7 3.028713 1_455
Fe12 Fe4 2.550442 1_555
Fe12 Fe16 2.561196 1_656
Fe12 Fe3 2.583800 1_656
Fe12 Fe19 2.599511 1_545
Fe12 Y2 2.986368 1_655
Fe12 Y5 3.005771 1_555
Fe12 Y6 3.019571 1_655
Fe12 Y0 3.021738 1_656
Fe12 Y4 3.029165 1_546
Fe12 Y7 3.044029 1_556
Fe13 Fe5 2.550442 1_565
Fe13 Fe17 2.561196 1_554
Fe13 Fe2 2.583808 1_564
Fe13 Fe18 2.599511 1_555
Fe13 Y3 2.986374 1_565
Fe13 Y4 3.005762 1_555
Fe13 Y7 3.019571 1_565
Fe13 Y0 3.021738 1_565
Fe13 Y5 3.029163 1_454
Fe13 Y6 3.044029 1_554
Fe14 Fe9 2.540362 1_555
Fe14 Fe6 2.550439 1_455
Fe14 Fe18 2.561198 1_545
Fe14 Fe16 2.599516 1_555
Fe14 Fe8 2.619798 1_445
Fe14 Y4 2.986379 1_445
Fe14 Y2 3.005762 1_555
Fe14 Y8 3.019566 1_445
Fe14 Y0 3.021747 1_555
Fe14 Y3 3.029167 1_555
Fe14 Y9 3.044025 1_555
Fe15 Fe8 2.540357 1_555
Fe15 Fe7 2.550439 1_555
Fe15 Fe19 2.561198 1_555
Fe15 Fe17 2.599511 1_655
Fe15 Fe9 2.619796 1_555
Fe15 Y5 2.986374 1_555
Fe15 Y3 3.005762 1_555
Fe15 Y9 3.019573 1_555
Fe15 Y0 3.021745 1_666
Fe15 Y2 3.029160 1_665
Fe15 Y8 3.044023 1_555
Fe16 Fe3 2.568498 1_555
Fe16 Fe9 2.592920 1_555
Fe16 Fe6 2.606862 1_455
Fe16 Y8 3.001568 1_555
Fe16 Y7 3.006099 1_455
Fe16 Y4 3.008210 1_445
Fe16 Y0 3.014327 1_555
Fe16 Y1 3.014968 1_555
Fe16 Y3 3.038595 1_555
Fe17 Fe2 2.568503 1_565
Fe17 Fe8 2.592917 1_455
Fe17 Fe7 2.606862 1_455
Fe17 Y9 3.001568 1_565
Fe17 Y6 3.006099 1_555
Fe17 Y5 3.008206 1_455
Fe17 Y0 3.014327 1_566
Fe17 Y1 3.014968 1_555
Fe17 Y2 3.038602 1_565
Fe18 Fe8 2.561954 1_455
Fe18 Fe5 2.606862 1_565
Fe18 Y7 3.001568 1_455
Fe18 Y9 3.006099 1_565
Fe18 Y3 3.008212 1_565
Fe18 Y0 3.014327 1_565
Fe18 Y1 3.014968 1_555
Fe18 Y5 3.038602 1_454
Fe19 Fe9 2.561953 1_555
Fe19 Fe4 2.606862 1_565
Fe19 Y6 3.001568 1_555
Fe19 Y8 3.006099 1_555
Fe19 Y2 3.008206 1_665
Fe19 Y0 3.014327 1_666
Fe19 Y1 3.014968 1_555
Fe19 Y4 3.038604 1_556
