# generated using pymatgen
data_Mg2V3FeS8
_symmetry_space_group_name_H-M   'P 1'
_cell_length_a   7.22196736
_cell_length_b   7.22356675
_cell_length_c   7.22507160
_cell_angle_alpha   58.80633516
_cell_angle_beta   58.84257608
_cell_angle_gamma   58.85915692
_symmetry_Int_Tables_number   1
_chemical_formula_structural   Mg2V3FeS8
_chemical_formula_sum   'Mg2 V3 Fe1 S8'
_cell_volume   259.43953555
_cell_formula_units_Z   1
loop_
 _symmetry_equiv_pos_site_id
 _symmetry_equiv_pos_as_xyz
  1  'x, y, z'
loop_
 _atom_site_type_symbol
 _atom_site_label
 _atom_site_symmetry_multiplicity
 _atom_site_fract_x
 _atom_site_fract_y
 _atom_site_fract_z
 _atom_site_occupancy
  Mg  Mg0  1  0.87503900  0.87501900  0.87473900  1
  Mg  Mg1  1  0.12496700  0.12497700  0.12527200  1
  V  V0  1  0.50001800  0.50000200  0.99998100  1
  V  V1  1  0.99997500  0.49999500  0.50003400  1
  V  V2  1  0.49999600  0.99999800  0.50000200  1
  Fe  Fe0  1  0.50002500  0.49999700  0.49998000  1
  S  S0  1  0.74032200  0.73909600  0.73908600  1
  S  S1  1  0.27108000  0.27007900  0.71047200  1
  S  S2  1  0.27088100  0.71089200  0.26995900  1
  S  S3  1  0.71054300  0.27103200  0.27115500  1
  S  S4  1  0.72911200  0.28907600  0.73004800  1
  S  S5  1  0.28947100  0.72896400  0.72881900  1
  S  S6  1  0.25965700  0.26092800  0.26092700  1
  S  S7  1  0.72891800  0.72993800  0.28952500  1
loop_
_geom_bond_atom_site_label_1
_geom_bond_atom_site_label_2
_geom_bond_distance
_geom_bond_site_symmetry_2
Mg0 S4 2.406318 1_565
Mg0 S5 2.409087 1_655
Mg0 S7 2.410614 1_556
Mg0 S0 2.417184 1_555
Mg1 S2 2.406475 1_545
Mg1 S3 2.409036 1_455
Mg1 S1 2.410696 1_554
Mg1 S6 2.417202 1_555
Fe0 S3 2.326163 1_555
Fe0 S5 2.326228 1_555
Fe0 S7 2.329430 1_555
Fe0 S1 2.329563 1_555
Fe0 S4 2.331711 1_555
Fe0 S2 2.331779 1_555
S0 V1 2.423097 1_555
S0 V0 2.427054 1_555
S0 V2 2.427984 1_555
S1 V2 2.446939 1_545
S1 V1 2.450490 1_455
S2 V0 2.448376 1_554
S2 V1 2.450718 1_455
S3 V2 2.450163 1_545
S3 V0 2.451670 1_554
S4 V0 2.448322 1_555
S4 V1 2.450613 1_555
S5 V2 2.450067 1_555
S5 V0 2.451716 1_555
S6 V1 2.423208 1_455
S6 V0 2.427250 1_554
S6 V2 2.428012 1_545
S7 V2 2.446854 1_555
S7 V1 2.450563 1_555
