# generated using pymatgen
data_Y15Ni32
_symmetry_space_group_name_H-M   'P 1'
_cell_length_a   10.04646830
_cell_length_b   10.04647407
_cell_length_c   10.04646685
_cell_angle_alpha   59.99997621
_cell_angle_beta   59.99995721
_cell_angle_gamma   59.99998100
_symmetry_Int_Tables_number   1
_chemical_formula_structural   Y15Ni32
_chemical_formula_sum   'Y15 Ni32'
_cell_volume   717.00991737
_cell_formula_units_Z   1
loop_
 _symmetry_equiv_pos_site_id
 _symmetry_equiv_pos_as_xyz
  1  'x, y, z'
loop_
 _atom_site_type_symbol
 _atom_site_label
 _atom_site_symmetry_multiplicity
 _atom_site_fract_x
 _atom_site_fract_y
 _atom_site_fract_z
 _atom_site_occupancy
  Y  Y0  1  0.50000000  0.50000000  0.49999900  1
  Y  Y1  1  0.09864954  0.09865154  0.70404737  1
  Y  Y2  1  0.09865054  0.70404737  0.09865154  1
  Y  Y3  1  0.70404637  0.09865054  0.09865154  1
  Y  Y4  1  0.09865054  0.09865154  0.09865154  1
  Y  Y5  1  0.62693748  0.62693848  0.11918555  1
  Y  Y6  1  0.62693948  0.11918455  0.62693748  1
  Y  Y7  1  0.11918455  0.62693848  0.62693848  1
  Y  Y8  1  0.62693948  0.62693848  0.62693748  1
  Y  Y9  1  0.01368945  0.01368945  0.48630955  1
  Y  Y10  1  0.48631055  0.01369045  0.48630855  1
  Y  Y11  1  0.01368945  0.48631055  0.48630955  1
  Y  Y12  1  0.48630955  0.48630955  0.01369045  1
  Y  Y13  1  0.01369045  0.48630955  0.01369045  1
  Y  Y14  1  0.48630955  0.01369045  0.01369045  1
  Ni  Ni0  1  0.31147113  0.31147113  0.06558661  1
  Ni  Ni1  1  0.31147213  0.06558661  0.31147113  1
  Ni  Ni2  1  0.06558761  0.31147113  0.31147113  1
  Ni  Ni3  1  0.31147213  0.31147013  0.31147113  1
  Ni  Ni4  1  0.81185345  0.81185345  0.56443966  1
  Ni  Ni5  1  0.81185445  0.56444066  0.81185245  1
  Ni  Ni6  1  0.56444166  0.81185245  0.81185345  1
  Ni  Ni7  1  0.81185445  0.81185245  0.81185245  1
  Ni  Ni8  1  0.80728311  0.32618208  0.05925071  1
  Ni  Ni9  1  0.80728311  0.80728311  0.05925071  1
  Ni  Ni10  1  0.32618208  0.80728311  0.05925171  1
  Ni  Ni11  1  0.80728211  0.05925071  0.32618308  1
  Ni  Ni12  1  0.32618108  0.05925171  0.80728311  1
  Ni  Ni13  1  0.80728411  0.05924971  0.80728311  1
  Ni  Ni14  1  0.05925271  0.80728311  0.80728211  1
  Ni  Ni15  1  0.05925271  0.32618208  0.80728211  1
  Ni  Ni16  1  0.05925171  0.80728211  0.32618208  1
  Ni  Ni17  1  0.32618108  0.80728311  0.80728311  1
  Ni  Ni18  1  0.80728211  0.80728311  0.32618308  1
  Ni  Ni19  1  0.80728411  0.32618208  0.80728311  1
  Ni  Ni20  1  0.31264860  0.81194356  0.56275825  1
  Ni  Ni21  1  0.31264860  0.31264960  0.56275825  1
  Ni  Ni22  1  0.81194356  0.31264960  0.56275825  1
  Ni  Ni23  1  0.31264860  0.56275825  0.81194356  1
  Ni  Ni24  1  0.81194256  0.56275825  0.31264960  1
  Ni  Ni25  1  0.31264960  0.56275725  0.31264960  1
  Ni  Ni26  1  0.56275725  0.31264860  0.31265060  1
  Ni  Ni27  1  0.56275725  0.81194356  0.31265060  1
  Ni  Ni28  1  0.56275725  0.31264960  0.81194456  1
  Ni  Ni29  1  0.81194256  0.31264960  0.31264960  1
  Ni  Ni30  1  0.31264860  0.31265060  0.81194356  1
  Ni  Ni31  1  0.31264960  0.81194356  0.31264960  1
loop_
_geom_bond_atom_site_label_1
_geom_bond_atom_site_label_2
_geom_bond_distance
_geom_bond_site_symmetry_2
Y0 Y5 3.123775 1_555
Y0 Y7 3.123792 1_555
Y0 Y6 3.123795 1_555
Y0 Y8 3.123803 1_555
Y1 Y11 3.271865 1_555
Y1 Y9 3.271872 1_555
Y1 Y10 3.271879 1_555
Y4 Y9 3.271849 1_555
Y6 Y9 3.179011 1_655
Y7 Y9 3.179022 1_565
Y10 Y6 3.179030 1_555
Y10 Y8 3.179030 1_545
Y10 Y3 3.271843 1_555
Y11 Y8 3.179011 1_455
Y11 Y7 3.179030 1_555
Y11 Y2 3.271853 1_555
Y12 Y5 3.179030 1_555
Y12 Y8 3.179036 1_554
Y12 Y3 3.271863 1_555
Y12 Y2 3.271863 1_555
Y13 Y7 3.179028 1_554
Y13 Y5 3.179036 1_455
Y13 Y4 3.271856 1_555
Y13 Y2 3.271865 1_555
Y14 Y5 3.179030 1_545
Y14 Y6 3.179036 1_554
Y14 Y3 3.271855 1_555
Y14 Y4 3.271861 1_555
Ni0 Ni2 2.470264 1_555
Ni0 Ni1 2.470271 1_555
Ni0 Ni3 2.470271 1_555
Ni0 Ni28 2.536426 1_554
Ni0 Ni30 2.536432 1_554
Ni0 Ni23 2.536437 1_554
Ni0 Y13 2.774203 1_555
Ni0 Y12 2.774204 1_555
Ni0 Y14 2.774204 1_555
Ni1 Ni3 2.470262 1_555
Ni1 Ni2 2.470271 1_555
Ni1 Ni27 2.536428 1_545
Ni1 Ni20 2.536437 1_545
Ni1 Ni31 2.536439 1_545
Ni1 Y10 2.774195 1_555
Ni1 Y14 2.774202 1_555
Ni1 Y9 2.774224 1_555
Ni2 Ni3 2.470266 1_555
Ni2 Ni22 2.536441 1_455
Ni2 Ni24 2.536448 1_455
Ni2 Ni29 2.536453 1_455
Ni2 Y11 2.774204 1_555
Ni2 Y13 2.774207 1_555
Ni2 Y9 2.774221 1_555
Ni3 Y10 2.774195 1_555
Ni3 Y12 2.774202 1_555
Ni3 Y11 2.774220 1_555
Ni4 Ni6 2.485623 1_555
Ni4 Ni5 2.485624 1_555
Ni4 Ni7 2.485624 1_555
Ni4 Y6 2.900849 1_565
Ni4 Y8 2.900849 1_555
Ni4 Y7 2.900852 1_655
Ni4 Y9 3.125384 1_665
Ni4 Y11 3.125393 1_655
Ni4 Y10 3.125396 1_565
Ni5 Ni8 2.440431 1_556
Ni5 Ni7 2.485616 1_555
Ni5 Ni6 2.485620 1_555
Ni5 Y7 2.900838 1_655
Ni5 Y8 2.900857 1_555
Ni5 Y5 2.900864 1_556
Ni5 Y11 3.125390 1_655
Ni5 Y13 3.125396 1_656
Ni5 Y12 3.125412 1_556
Ni6 Ni7 2.485620 1_555
Ni6 Y5 2.900847 1_556
Ni6 Y6 2.900857 1_565
Ni6 Y8 2.900857 1_555
Ni6 Y14 3.125402 1_566
Ni6 Y12 3.125402 1_556
Ni6 Y10 3.125413 1_565
Ni7 Ni9 2.440427 1_556
Ni7 Y7 2.900838 1_655
Ni7 Y6 2.900857 1_565
Ni7 Y5 2.900864 1_556
Ni7 Y9 3.125386 1_665
Ni7 Y13 3.125396 1_656
Ni7 Y14 3.125412 1_566
Ni8 Y4 2.741007 1_655
Ni8 Y3 2.741011 1_555
Ni8 Y5 2.833530 1_555
Ni8 Y12 2.957692 1_555
Ni8 Y13 2.957702 1_655
Ni9 Y3 2.741011 1_565
Ni9 Y2 2.741011 1_655
Ni9 Y5 2.833521 1_555
Ni9 Y14 2.957693 1_565
Ni9 Y13 2.957694 1_655
Ni10 Ni6 2.440435 1_554
Ni10 Ni25 2.503650 1_555
Ni10 Ni31 2.503650 1_555
Ni10 Ni12 2.531394 1_564
Ni10 Ni17 2.531399 1_554
Ni10 Ni16 2.681706 1_555
Ni10 Y2 2.741007 1_555
Ni10 Y4 2.741014 1_565
Ni10 Y5 2.833516 1_555
Ni10 Y14 2.957698 1_565
Ni10 Y12 2.957698 1_555
Ni11 Ni4 2.440417 1_545
Ni11 Ni26 2.503645 1_555
Ni11 Ni29 2.503657 1_555
Ni11 Ni18 2.531386 1_545
Ni11 Ni16 2.531400 1_645
Ni11 Ni8 2.681722 1_555
Ni11 Y3 2.741007 1_555
Ni11 Y4 2.741015 1_655
Ni11 Y6 2.833506 1_555
Ni11 Y10 2.957675 1_555
Ni11 Y9 2.957689 1_655
Ni12 Ni6 2.440447 1_545
Ni12 Ni21 2.503645 1_555
Ni12 Ni30 2.503661 1_555
Ni12 Ni17 2.531396 1_545
Ni12 Ni15 2.681697 1_555
Ni12 Y1 2.741007 1_555
Ni12 Y4 2.741010 1_556
Ni12 Y6 2.833536 1_555
Ni12 Y10 2.957703 1_555
Ni12 Y14 2.957705 1_556
Ni13 Ni7 2.440423 1_545
Ni13 Ni22 2.503655 1_555
Ni13 Ni28 2.503666 1_555
Ni13 Ni9 2.531379 1_546
Ni13 Ni14 2.531385 1_645
Ni13 Ni19 2.681729 1_555
Ni13 Y1 2.740997 1_655
Ni13 Y3 2.741016 1_556
Ni13 Y6 2.833520 1_555
Ni13 Y9 2.957690 1_655
Ni13 Y14 2.957697 1_556
Ni14 Ni7 2.440432 1_455
Ni14 Ni20 2.503628 1_555
Ni14 Ni23 2.503635 1_555
Ni14 Ni9 2.531398 1_456
Ni14 Ni17 2.681692 1_555
Ni14 Y1 2.741005 1_565
Ni14 Y2 2.741015 1_556
Ni14 Y7 2.833517 1_555
Ni14 Y9 2.957694 1_565
Ni14 Y13 2.957702 1_556
Ni15 Ni5 2.440432 1_455
Ni15 Ni21 2.503628 1_555
Ni15 Ni30 2.503640 1_555
Ni15 Ni19 2.531390 1_455
Ni15 Ni8 2.531398 1_456
Ni15 Y1 2.741005 1_555
Ni15 Y4 2.741013 1_556
Ni15 Y7 2.833517 1_555
Ni15 Y11 2.957695 1_555
Ni15 Y13 2.957702 1_556
Ni16 Ni4 2.440425 1_455
Ni16 Ni25 2.503645 1_555
Ni16 Ni31 2.503655 1_555
Ni16 Ni18 2.531395 1_455
Ni16 Y2 2.740995 1_555
Ni16 Y4 2.741016 1_565
Ni16 Y7 2.833519 1_555
Ni16 Y11 2.957684 1_555
Ni16 Y9 2.957693 1_565
Ni17 Ni6 2.440452 1_555
Ni17 Ni20 2.503640 1_555
Ni17 Ni23 2.503641 1_555
Ni17 Y2 2.741005 1_556
Ni17 Y1 2.741012 1_565
Ni17 Y8 2.833532 1_555
Ni17 Y12 2.957700 1_556
Ni17 Y10 2.957707 1_565
Ni18 Ni4 2.440422 1_555
Ni18 Ni27 2.503640 1_555
Ni18 Ni24 2.503647 1_555
Ni18 Ni9 2.681722 1_555
Ni18 Y3 2.741007 1_565
Ni18 Y2 2.741010 1_655
Ni18 Y8 2.833502 1_555
Ni18 Y10 2.957679 1_565
Ni18 Y11 2.957689 1_655
Ni19 Ni5 2.440433 1_555
Ni19 Ni22 2.503645 1_555
Ni19 Ni28 2.503655 1_555
Ni19 Ni8 2.531379 1_556
Ni19 Y1 2.740992 1_655
Ni19 Y3 2.741016 1_556
Ni19 Y8 2.833525 1_555
Ni19 Y11 2.957690 1_655
Ni19 Y12 2.957700 1_556
Ni20 Ni23 2.503432 1_555
Ni20 Ni27 2.512702 1_555
Ni20 Ni31 2.512703 1_555
Ni20 Y9 2.895064 1_565
Ni20 Y10 2.895070 1_565
Ni20 Y0 2.941478 1_555
Ni20 Y7 2.967979 1_555
Ni20 Y8 2.967990 1_555
Ni20 Y1 3.126978 1_565
Ni21 Ni30 2.503437 1_555
Ni21 Ni26 2.512702 1_555
Ni21 Ni25 2.512703 1_555
Ni21 Ni3 2.536437 1_555
Ni21 Y11 2.895064 1_555
Ni21 Y10 2.895070 1_555
Ni21 Y0 2.941469 1_555
Ni21 Y7 2.967978 1_555
Ni21 Y6 2.967990 1_555
Ni21 Y1 3.126978 1_555
Ni22 Ni28 2.503441 1_555
Ni22 Ni24 2.512708 1_555
Ni22 Ni29 2.512713 1_555
Ni22 Y11 2.895057 1_655
Ni22 Y9 2.895073 1_655
Ni22 Y0 2.941476 1_555
Ni22 Y8 2.967974 1_555
Ni22 Y6 2.967983 1_555
Ni22 Y1 3.126961 1_655
Ni23 Ni30 2.512700 1_555
Ni23 Ni28 2.512709 1_555
Ni23 Y13 2.895055 1_556
Ni23 Y12 2.895065 1_556
Ni23 Y0 2.941479 1_555
Ni23 Y7 2.967978 1_555
Ni23 Y8 2.967994 1_555
Ni23 Y2 3.126976 1_556
Ni24 Ni27 2.503432 1_555
Ni24 Ni9 2.503650 1_555
Ni24 Ni29 2.512710 1_555
Ni24 Y11 2.895060 1_655
Ni24 Y13 2.895064 1_655
Ni24 Y0 2.941463 1_555
Ni24 Y8 2.967968 1_555
Ni24 Y5 2.967978 1_555
Ni24 Y2 3.126976 1_655
Ni25 Ni31 2.503444 1_555
Ni25 Ni26 2.512704 1_555
Ni25 Ni3 2.536439 1_555
Ni25 Y12 2.895059 1_555
Ni25 Y11 2.895063 1_555
Ni25 Y0 2.941460 1_555
Ni25 Y5 2.967972 1_555
Ni25 Y7 2.967980 1_555
Ni25 Y2 3.126975 1_555
Ni26 Ni29 2.503432 1_555
Ni26 Ni8 2.503659 1_555
Ni26 Ni3 2.536428 1_555
Ni26 Y10 2.895049 1_555
Ni26 Y12 2.895068 1_555
Ni26 Y0 2.941460 1_555
Ni26 Y6 2.967968 1_555
Ni26 Y5 2.967987 1_555
Ni26 Y3 3.126978 1_555
Ni27 Ni9 2.503659 1_555
Ni27 Ni31 2.512704 1_555
Ni27 Y10 2.895049 1_565
Ni27 Y14 2.895068 1_565
Ni27 Y0 2.941469 1_555
Ni27 Y8 2.967968 1_555
Ni27 Y5 2.967987 1_555
Ni27 Y3 3.126969 1_565
Ni28 Ni30 2.512709 1_555
Ni28 Y12 2.895052 1_556
Ni28 Y14 2.895060 1_556
Ni28 Y0 2.941484 1_555
Ni28 Y8 2.967987 1_555
Ni28 Y6 2.967996 1_555
Ni28 Y3 3.126969 1_556
Ni29 Ni8 2.503655 1_555
Ni29 Y13 2.895064 1_655
Ni29 Y9 2.895064 1_655
Ni29 Y0 2.941458 1_555
Ni29 Y6 2.967968 1_555
Ni29 Y5 2.967978 1_555
Ni29 Y4 3.126971 1_655
Ni30 Y13 2.895051 1_556
Ni30 Y14 2.895069 1_556
Ni30 Y0 2.941471 1_555
Ni30 Y7 2.967973 1_555
Ni30 Y6 2.967998 1_555
Ni30 Y4 3.126976 1_556
Ni31 Y9 2.895059 1_565
Ni31 Y14 2.895059 1_565
Ni31 Y0 2.941464 1_555
Ni31 Y5 2.967972 1_555
Ni31 Y7 2.967981 1_555
Ni31 Y4 3.126977 1_565
