# generated using pymatgen
data_K3YbV2O8
_symmetry_space_group_name_H-M   'P 1'
_cell_length_a   6.00707908
_cell_length_b   6.00898926
_cell_length_c   7.79382306
_cell_angle_alpha   89.98795825
_cell_angle_beta   90.00213073
_cell_angle_gamma   120.03519368
_symmetry_Int_Tables_number   1
_chemical_formula_structural   K3YbV2O8
_chemical_formula_sum   'K3 Yb1 V2 O8'
_cell_volume   243.55206389
_cell_formula_units_Z   1
loop_
 _symmetry_equiv_pos_site_id
 _symmetry_equiv_pos_as_xyz
  1  'x, y, z'
loop_
 _atom_site_type_symbol
 _atom_site_label
 _atom_site_symmetry_multiplicity
 _atom_site_fract_x
 _atom_site_fract_y
 _atom_site_fract_z
 _atom_site_occupancy
  K  K0  1  0.66665800  0.33330000  0.30866700  1
  K  K1  1  0.33334200  0.66670000  0.69133300  1
  K  K2  1  0.00000000  0.00000000  0.00000000  1
  Yb  Yb0  1  0.00000000  0.00000000  0.50000000  1
  V  V0  1  0.66648400  0.33335500  0.75617300  1
  V  V1  1  0.33351600  0.66664500  0.24382700  1
  O  O0  1  0.66645800  0.33338600  0.97726300  1
  O  O1  1  0.33354200  0.66661400  0.02273700  1
  O  O2  1  0.82457900  0.64922900  0.67950700  1
  O  O3  1  0.35064200  0.17535700  0.67940800  1
  O  O4  1  0.82448400  0.17527400  0.67953900  1
  O  O5  1  0.17542100  0.35077100  0.32049300  1
  O  O6  1  0.64935800  0.82464300  0.32059200  1
  O  O7  1  0.17551600  0.82472600  0.32046100  1
loop_
_geom_bond_atom_site_label_1
_geom_bond_atom_site_label_2
_geom_bond_distance
_geom_bond_site_symmetry_2
K0 O0 2.582904 1_554
K0 O7 3.004360 1_545
K0 O7 3.006029 1_655
K0 O5 3.006239 1_555
K0 O5 3.006417 1_655
K0 O6 3.007261 1_545
K0 O6 3.007294 1_555
K1 O1 2.582904 1_556
K1 O4 3.004360 1_565
K1 O4 3.006029 1_455
K1 O2 3.006239 1_555
K1 O2 3.006417 1_455
K1 O3 3.007261 1_565
K1 O3 3.007294 1_555
K2 O6 3.093153 1_445
K2 O3 3.093153 1_554
K2 O4 3.093431 1_454
K2 O7 3.093431 1_545
K2 O5 3.093709 1_555
K2 O2 3.093709 1_444
O0 V0 1.723136 1_555
O1 V1 1.723136 1_555
O2 V0 1.748348 1_555
O2 Yb0 2.299106 1_665
O3 V0 1.748133 1_555
O3 Yb0 2.297976 1_555
O4 V0 1.750056 1_555
O4 Yb0 2.300280 1_655
O5 V1 1.748348 1_555
O5 Yb0 2.299106 1_555
O6 V1 1.748133 1_555
O6 Yb0 2.297976 1_665
O7 V1 1.750056 1_555
O7 Yb0 2.300280 1_565
