# generated using pymatgen
data_TcF6
_symmetry_space_group_name_H-M   'P 1'
_cell_length_a   4.86251795
_cell_length_b   8.49027582
_cell_length_c   9.19752280
_cell_angle_alpha   89.99964603
_cell_angle_beta   90.00487163
_cell_angle_gamma   90.00066228
_symmetry_Int_Tables_number   1
_chemical_formula_structural   TcF6
_chemical_formula_sum   'Tc4 F24'
_cell_volume   379.71161998
_cell_formula_units_Z   4
loop_
 _symmetry_equiv_pos_site_id
 _symmetry_equiv_pos_as_xyz
  1  'x, y, z'
loop_
 _atom_site_type_symbol
 _atom_site_label
 _atom_site_symmetry_multiplicity
 _atom_site_fract_x
 _atom_site_fract_y
 _atom_site_fract_z
 _atom_site_occupancy
  Tc  Tc0  1  0.91967943  0.74995388  0.62928459  1
  Tc  Tc1  1  0.08032057  0.25004612  0.37071541  1
  Tc  Tc2  1  0.41965032  0.25006212  0.87073415  1
  Tc  Tc3  1  0.58034968  0.74993788  0.12926585  1
  F  F0  1  0.22490198  0.74992524  0.51124959  1
  F  F1  1  0.77509802  0.25007476  0.48875041  1
  F  F2  1  0.72492569  0.25007448  0.98876411  1
  F  F3  1  0.27507431  0.74992552  0.01123589  1
  F  F4  1  0.61420649  0.74993395  0.74760898  1
  F  F5  1  0.38579351  0.25006605  0.25239102  1
  F  F6  1  0.11411495  0.25007035  0.75242697  1
  F  F7  1  0.88588505  0.74992965  0.24757303  1
  F  F8  1  0.76711896  0.59613316  0.51746741  1
  F  F9  1  0.23288104  0.40386684  0.48253259  1
  F  F10  1  0.26705722  0.40392167  0.98245821  1
  F  F11  1  0.23287117  0.09624169  0.48251291  1
  F  F12  1  0.73294278  0.59607833  0.01754179  1
  F  F13  1  0.76712883  0.90375831  0.51748709  1
  F  F14  1  0.73296239  0.90379161  0.01756671  1
  F  F15  1  0.26703761  0.09620839  0.98243329  1
  F  F16  1  0.07025427  0.59592759  0.74134869  1
  F  F17  1  0.92974573  0.40407241  0.25865131  1
  F  F18  1  0.57028005  0.40408511  0.75869994  1
  F  F19  1  0.92976798  0.09602463  0.25865943  1
  F  F20  1  0.42971995  0.59591489  0.24130006  1
  F  F21  1  0.07023202  0.90397537  0.74134057  1
  F  F22  1  0.42971782  0.90395977  0.24129557  1
  F  F23  1  0.57028218  0.09604023  0.75870443  1
loop_
_geom_bond_atom_site_label_1
_geom_bond_atom_site_label_2
_geom_bond_distance
_geom_bond_site_symmetry_2
F0 Tc0 1.838904 1_455
F1 Tc1 1.838904 1_655
F2 Tc2 1.838935 1_555
F3 Tc3 1.838935 1_555
F4 Tc0 1.841459 1_555
F5 Tc1 1.841459 1_555
F6 Tc2 1.841461 1_555
F7 Tc3 1.841461 1_555
F8 Tc0 1.820288 1_555
F9 Tc1 1.820288 1_555
F10 Tc2 1.820189 1_555
F11 Tc1 1.820070 1_555
F12 Tc3 1.820189 1_555
F13 Tc0 1.820070 1_555
F14 Tc3 1.820042 1_555
F15 Tc2 1.820042 1_555
F16 Tc0 1.818920 1_455
F17 Tc1 1.818920 1_655
F18 Tc2 1.818909 1_555
F19 Tc1 1.818801 1_655
F20 Tc3 1.818909 1_555
F21 Tc0 1.818801 1_455
F22 Tc3 1.818905 1_555
F23 Tc2 1.818905 1_555
