# generated using pymatgen
data_NaVF6
_symmetry_space_group_name_H-M   'P 1'
_cell_length_a   5.83556655
_cell_length_b   7.58603532
_cell_length_c   9.39569113
_cell_angle_alpha   90.00000000
_cell_angle_beta   90.00000000
_cell_angle_gamma   90.00000000
_symmetry_Int_Tables_number   1
_chemical_formula_structural   NaVF6
_chemical_formula_sum   'Na4 V4 F24'
_cell_volume   415.93610266
_cell_formula_units_Z   4
loop_
 _symmetry_equiv_pos_site_id
 _symmetry_equiv_pos_as_xyz
  1  'x, y, z'
loop_
 _atom_site_type_symbol
 _atom_site_label
 _atom_site_symmetry_multiplicity
 _atom_site_fract_x
 _atom_site_fract_y
 _atom_site_fract_z
 _atom_site_occupancy
  Na  Na0  1  0.75000000  0.16595211  0.00503434  1
  Na  Na1  1  0.25000000  0.66595211  0.49496566  1
  Na  Na2  1  0.25000000  0.83404789  0.99496566  1
  Na  Na3  1  0.75000000  0.33404789  0.50503434  1
  V  V0  1  0.25000000  0.11609551  0.27117409  1
  V  V1  1  0.25000000  0.38390449  0.77117409  1
  V  V2  1  0.75000000  0.61609551  0.22882591  1
  V  V3  1  0.75000000  0.88390449  0.72882591  1
  F  F0  1  0.53781300  0.95199086  0.86021921  1
  F  F1  1  0.25000000  0.17230652  0.69645173  1
  F  F2  1  0.53781300  0.54800914  0.36021921  1
  F  F3  1  0.97077632  0.82724605  0.60739840  1
  F  F4  1  0.75000000  0.82769348  0.30354827  1
  F  F5  1  0.46218700  0.04800914  0.13978079  1
  F  F6  1  0.52922368  0.82724605  0.60739840  1
  F  F7  1  0.25000000  0.89261571  0.33555922  1
  F  F8  1  0.25000000  0.60738429  0.83555922  1
  F  F9  1  0.02922368  0.32724605  0.89260160  1
  F  F10  1  0.96218700  0.54800914  0.36021921  1
  F  F11  1  0.75000000  0.39261571  0.16444078  1
  F  F12  1  0.46218700  0.45199086  0.63978079  1
  F  F13  1  0.02922368  0.17275395  0.39260160  1
  F  F14  1  0.03781300  0.45199086  0.63978079  1
  F  F15  1  0.03781300  0.04800914  0.13978079  1
  F  F16  1  0.75000000  0.67230652  0.80354827  1
  F  F17  1  0.97077632  0.67275395  0.10739840  1
  F  F18  1  0.96218700  0.95199086  0.86021921  1
  F  F19  1  0.52922368  0.67275395  0.10739840  1
  F  F20  1  0.47077632  0.17275395  0.39260160  1
  F  F21  1  0.25000000  0.32769348  0.19645173  1
  F  F22  1  0.75000000  0.10738429  0.66444078  1
  F  F23  1  0.47077632  0.32724605  0.89260160  1
loop_
_geom_bond_atom_site_label_1
_geom_bond_atom_site_label_2
_geom_bond_distance
_geom_bond_site_symmetry_2
F0 V3 1.823201 1_555
F0 Na2 2.285665 1_555
F0 Na0 2.453378 1_566
F1 V1 1.752008 1_555
F2 V2 1.823201 1_555
F2 Na1 2.285665 1_555
F2 Na3 2.453378 1_555
F3 V3 1.773764 1_555
F3 Na1 2.295242 1_655
F4 V2 1.752008 1_555
F5 V0 1.823201 1_555
F5 Na0 2.285665 1_555
F5 Na2 2.453378 1_544
F6 V3 1.773764 1_555
F6 Na1 2.295242 1_555
F7 V0 1.800024 1_565
F7 Na1 2.280309 1_555
F8 V1 1.800024 1_555
F8 Na2 2.280309 1_555
F9 V1 1.773764 1_555
F9 Na0 2.295242 1_456
F10 V2 1.823201 1_555
F10 Na1 2.285665 1_655
F10 Na3 2.453378 1_555
F11 V2 1.800024 1_555
F11 Na0 2.280309 1_555
F12 V1 1.823201 1_555
F12 Na3 2.285665 1_555
F12 Na1 2.453378 1_555
F13 V0 1.773764 1_555
F13 Na3 2.295242 1_455
F14 V1 1.823201 1_555
F14 Na3 2.285665 1_455
F14 Na1 2.453378 1_555
F15 V0 1.823201 1_555
F15 Na0 2.285665 1_455
F15 Na2 2.453378 1_544
F16 V3 1.752008 1_555
F17 V2 1.773764 1_555
F17 Na2 2.295242 1_654
F18 V3 1.823201 1_555
F18 Na2 2.285665 1_655
F18 Na0 2.453378 1_566
F19 V2 1.773764 1_555
F19 Na2 2.295242 1_554
F20 V0 1.773764 1_555
F20 Na3 2.295242 1_555
F21 V0 1.752008 1_555
F22 V3 1.800024 1_545
F22 Na3 2.280309 1_555
F23 V1 1.773764 1_555
F23 Na0 2.295242 1_556
