# generated using pymatgen
data_EuGaSn
_symmetry_space_group_name_H-M   'P 1'
_cell_length_a   4.52612070
_cell_length_b   4.52612070
_cell_length_c   18.12711021
_cell_angle_alpha   90.00000000
_cell_angle_beta   90.00000000
_cell_angle_gamma   119.99999188
_symmetry_Int_Tables_number   1
_chemical_formula_structural   EuGaSn
_chemical_formula_sum   'Eu4 Ga4 Sn4'
_cell_volume   321.59664236
_cell_formula_units_Z   4
loop_
 _symmetry_equiv_pos_site_id
 _symmetry_equiv_pos_as_xyz
  1  'x, y, z'
loop_
 _atom_site_type_symbol
 _atom_site_label
 _atom_site_symmetry_multiplicity
 _atom_site_fract_x
 _atom_site_fract_y
 _atom_site_fract_z
 _atom_site_occupancy
  Eu  Eu0  1  -0.00000000  -0.00000000  0.50000000  1
  Eu  Eu1  1  -0.00000000  -0.00000000  -0.00000000  1
  Eu  Eu2  1  -0.00000000  -0.00000000  0.25000000  1
  Eu  Eu3  1  -0.00000000  -0.00000000  0.75000000  1
  Ga  Ga0  1  0.66666700  0.33333300  0.33732334  1
  Ga  Ga1  1  0.33333300  0.66666700  0.66267666  1
  Ga  Ga2  1  0.33333300  0.66666700  0.83732334  1
  Ga  Ga3  1  0.66666700  0.33333300  0.16267666  1
  Sn  Sn0  1  0.33333300  0.66666700  0.38442874  1
  Sn  Sn1  1  0.66666700  0.33333300  0.61557126  1
  Sn  Sn2  1  0.66666700  0.33333300  0.88442874  1
  Sn  Sn3  1  0.33333300  0.66666700  0.11557126  1
loop_
_geom_bond_atom_site_label_1
_geom_bond_atom_site_label_2
_geom_bond_distance
_geom_bond_site_symmetry_2
Eu0 Sn1 3.349252 1_455
Eu0 Sn0 3.349252 1_545
Eu0 Sn1 3.349255 1_555
Eu0 Sn1 3.349255 1_445
Eu0 Sn0 3.349255 1_555
Eu0 Sn0 3.349255 1_445
Eu1 Sn2 3.349252 1_454
Eu1 Sn3 3.349252 1_545
Eu1 Sn2 3.349255 1_554
Eu1 Sn3 3.349255 1_445
Eu1 Sn2 3.349255 1_444
Eu1 Sn3 3.349255 1_555
Eu2 Ga0 3.055194 1_455
Eu2 Ga3 3.055194 1_455
Eu2 Ga3 3.055198 1_555
Eu2 Ga0 3.055198 1_555
Eu2 Ga3 3.055198 1_445
Eu2 Ga0 3.055198 1_445
Eu2 Sn3 3.573037 1_545
Eu2 Sn0 3.573037 1_545
Eu2 Sn0 3.573040 1_445
Eu2 Sn3 3.573040 1_445
Eu2 Sn0 3.573040 1_555
Eu2 Sn3 3.573040 1_555
Eu3 Ga1 3.055194 1_545
Eu3 Ga2 3.055194 1_545
Eu3 Ga1 3.055198 1_445
Eu3 Ga2 3.055198 1_555
Eu3 Ga1 3.055198 1_555
Eu3 Ga2 3.055198 1_445
Eu3 Sn1 3.573037 1_455
Eu3 Sn2 3.573037 1_455
Eu3 Sn1 3.573040 1_445
Eu3 Sn1 3.573040 1_555
Eu3 Sn2 3.573040 1_445
Eu3 Sn2 3.573040 1_555
Ga0 Sn0 2.749126 1_545
Ga0 Sn0 2.749126 1_655
Ga0 Sn0 2.749134 1_555
Ga1 Sn1 2.749126 1_455
Ga1 Sn1 2.749126 1_565
Ga1 Sn1 2.749134 1_555
Ga2 Sn2 2.749126 1_455
Ga2 Sn2 2.749126 1_565
Ga2 Sn2 2.749134 1_555
Ga3 Sn3 2.749126 1_655
Ga3 Sn3 2.749126 1_545
Ga3 Sn3 2.749134 1_555
