# generated using pymatgen
data_Mn3Cd2O8
_symmetry_space_group_name_H-M   'P 1'
_cell_length_a   4.93582950
_cell_length_b   5.80710065
_cell_length_c   6.13984001
_cell_angle_alpha   118.22808610
_cell_angle_beta   106.71966552
_cell_angle_gamma   89.99152386
_symmetry_Int_Tables_number   1
_chemical_formula_structural   Mn3Cd2O8
_chemical_formula_sum   'Mn3 Cd2 O8'
_cell_volume   146.56131454
_cell_formula_units_Z   1
loop_
 _symmetry_equiv_pos_site_id
 _symmetry_equiv_pos_as_xyz
  1  'x, y, z'
loop_
 _atom_site_type_symbol
 _atom_site_label
 _atom_site_symmetry_multiplicity
 _atom_site_fract_x
 _atom_site_fract_y
 _atom_site_fract_z
 _atom_site_occupancy
  Mn  Mn0  1  0.50000000  -0.00000000  -0.00000000  1
  Mn  Mn1  1  0.00001412  0.74135539  0.99998830  1
  Mn  Mn2  1  0.99998588  0.25864661  0.00000870  1
  Cd  Cd0  1  0.66174481  0.72175780  0.44343172  1
  Cd  Cd1  1  0.33825619  0.27824120  0.55656928  1
  O  O0  1  0.04783915  0.39691830  0.79386742  1
  O  O1  1  0.95216185  0.60308270  0.20613358  1
  O  O2  1  0.09917165  0.90282471  0.80567867  1
  O  O3  1  0.90082835  0.09717429  0.19432233  1
  O  O4  1  0.38879999  0.32456850  0.20412730  1
  O  O5  1  0.38878241  0.87956159  0.20413156  1
  O  O6  1  0.61121859  0.12043741  0.79587144  1
  O  O7  1  0.61120101  0.67543050  0.79587270  1
loop_
_geom_bond_atom_site_label_1
_geom_bond_atom_site_label_2
_geom_bond_distance
_geom_bond_site_symmetry_2
Mn0 O4 1.893518 1_555
Mn0 O7 1.893525 1_544
Mn0 O6 1.893801 1_554
Mn0 O5 1.893820 1_545
Mn0 O2 1.913468 1_544
Mn0 O3 1.913469 1_555
Mn1 O0 1.853446 1_555
Mn1 O1 1.853642 1_456
Mn1 O5 1.887404 1_556
Mn1 O7 1.887507 1_455
Mn1 O2 1.984036 1_555
Mn1 O3 1.984044 1_466
Mn2 O1 1.853445 1_555
Mn2 O0 1.853616 1_654
Mn2 O6 1.887396 1_554
Mn2 O4 1.887518 1_655
Mn2 O2 1.984052 1_644
Mn2 O3 1.984071 1_555
Cd0 O1 2.214506 1_555
Cd0 O5 2.224412 1_555
Cd0 O4 2.224855 1_555
Cd0 O6 2.382429 1_565
Cd0 O7 2.382971 1_555
Cd0 O2 2.395696 1_655
Cd1 O0 2.214506 1_555
Cd1 O6 2.224421 1_555
Cd1 O7 2.224855 1_555
Cd1 O5 2.382424 1_545
Cd1 O4 2.382977 1_555
Cd1 O3 2.395700 1_455
