# generated using pymatgen
data_Na3Zn
_symmetry_space_group_name_H-M   'P 1'
_cell_length_a   7.04579349
_cell_length_b   7.04579349
_cell_length_c   5.44558300
_cell_angle_alpha   90.00000000
_cell_angle_beta   90.00000000
_cell_angle_gamma   119.99999517
_symmetry_Int_Tables_number   1
_chemical_formula_structural   Na3Zn
_chemical_formula_sum   'Na6 Zn2'
_cell_volume   234.11802626
_cell_formula_units_Z   2
loop_
 _symmetry_equiv_pos_site_id
 _symmetry_equiv_pos_as_xyz
  1  'x, y, z'
loop_
 _atom_site_type_symbol
 _atom_site_label
 _atom_site_symmetry_multiplicity
 _atom_site_fract_x
 _atom_site_fract_y
 _atom_site_fract_z
 _atom_site_occupancy
  Na  Na0  1  0.17310900  0.34621800  0.25000000  1
  Na  Na1  1  0.65378200  0.82689100  0.25000000  1
  Na  Na2  1  0.17310900  0.82689100  0.25000000  1
  Na  Na3  1  0.82689100  0.65378200  0.75000000  1
  Na  Na4  1  0.34621800  0.17310900  0.75000000  1
  Na  Na5  1  0.82689100  0.17310900  0.75000000  1
  Zn  Zn0  1  0.33333300  0.66666700  0.75000000  1
  Zn  Zn1  1  0.66666700  0.33333300  0.25000000  1
loop_
_geom_bond_atom_site_label_1
_geom_bond_atom_site_label_2
_geom_bond_distance
_geom_bond_site_symmetry_2
Na0 Zn0 3.352148 1_554
Na0 Zn0 3.352148 1_555
Na0 Na2 3.386723 1_555
Na0 Na1 3.386723 1_555
Na0 Na4 3.446234 1_555
Na0 Na4 3.446234 1_554
Na0 Na5 3.446234 1_454
Na0 Na5 3.446234 1_455
Na0 Zn1 3.523770 1_455
Na0 Zn1 3.523777 1_555
Na0 Na2 3.659071 1_545
Na0 Na1 3.659071 1_445
Na1 Zn0 3.352148 1_554
Na1 Zn0 3.352148 1_555
Na1 Na2 3.386723 1_555
Na1 Na3 3.446234 1_555
Na1 Na3 3.446234 1_554
Na1 Na5 3.446234 1_565
Na1 Na5 3.446234 1_564
Na1 Zn1 3.523770 1_565
Na1 Zn1 3.523777 1_555
Na1 Na2 3.659071 1_655
Na2 Zn0 3.352145 1_554
Na2 Zn0 3.352145 1_555
Na2 Na4 3.446234 1_564
Na2 Na3 3.446234 1_454
Na2 Na4 3.446234 1_565
Na2 Na3 3.446234 1_455
Na2 Zn1 3.523774 1_455
Na2 Zn1 3.523774 1_565
Na3 Zn1 3.352148 1_555
Na3 Zn1 3.352148 1_556
Na3 Na5 3.386723 1_555
Na3 Na4 3.386723 1_555
Na3 Zn0 3.523770 1_655
Na3 Zn0 3.523777 1_555
Na3 Na5 3.659071 1_565
Na3 Na4 3.659071 1_665
Na4 Zn1 3.352148 1_555
Na4 Zn1 3.352148 1_556
Na4 Na5 3.386723 1_555
Na4 Zn0 3.523770 1_545
Na4 Zn0 3.523777 1_555
Na4 Na5 3.659071 1_455
Na5 Zn1 3.352145 1_556
Na5 Zn1 3.352145 1_555
Na5 Zn0 3.523774 1_545
Na5 Zn0 3.523774 1_655
