# generated using pymatgen
data_PrMgSe3
_symmetry_space_group_name_H-M   'P 1'
_cell_length_a   7.10036300
_cell_length_b   7.10036348
_cell_length_c   19.63625000
_cell_angle_alpha   90.00000000
_cell_angle_beta   90.00000000
_cell_angle_gamma   120.00000242
_symmetry_Int_Tables_number   1
_chemical_formula_structural   PrMgSe3
_chemical_formula_sum   'Pr6 Mg6 Se18'
_cell_volume   857.33451402
_cell_formula_units_Z   6
loop_
 _symmetry_equiv_pos_site_id
 _symmetry_equiv_pos_as_xyz
  1  'x, y, z'
loop_
 _atom_site_type_symbol
 _atom_site_label
 _atom_site_symmetry_multiplicity
 _atom_site_fract_x
 _atom_site_fract_y
 _atom_site_fract_z
 _atom_site_occupancy
  Pr  Pr0  1  0.00000000  0.00000000  0.35152000  1
  Pr  Pr1  1  0.00000000  0.00000000  0.64848000  1
  Pr  Pr2  1  0.66666700  0.33333300  0.68485300  1
  Pr  Pr3  1  0.66666700  0.33333300  0.98181300  1
  Pr  Pr4  1  0.33333300  0.66666700  0.01818700  1
  Pr  Pr5  1  0.33333300  0.66666700  0.31514700  1
  Mg  Mg0  1  0.00000000  0.00000000  0.16063900  1
  Mg  Mg1  1  0.00000000  0.00000000  0.83936100  1
  Mg  Mg2  1  0.66666700  0.33333300  0.49397200  1
  Mg  Mg3  1  0.66666700  0.33333300  0.17269400  1
  Mg  Mg4  1  0.33333300  0.66666700  0.82730600  1
  Mg  Mg5  1  0.33333300  0.66666700  0.50602800  1
  Se  Se0  1  0.99107000  0.36667600  0.58082000  1
  Se  Se1  1  0.00893000  0.63332400  0.41918000  1
  Se  Se2  1  0.63332400  0.62439400  0.58082000  1
  Se  Se3  1  0.36667600  0.37560500  0.41918000  1
  Se  Se4  1  0.37560500  0.00893000  0.58082000  1
  Se  Se5  1  0.62439400  0.99107000  0.41918000  1
  Se  Se6  1  0.65773700  0.70000900  0.91415300  1
  Se  Se7  1  0.67559700  0.96665700  0.75251300  1
  Se  Se8  1  0.29999100  0.95772700  0.91415300  1
  Se  Se9  1  0.03334300  0.70893900  0.75251300  1
  Se  Se10  1  0.04227200  0.34226300  0.91415300  1
  Se  Se11  1  0.29106100  0.32440300  0.75251300  1
  Se  Se12  1  0.32440300  0.03334300  0.24748700  1
  Se  Se13  1  0.34226300  0.29999100  0.08584700  1
  Se  Se14  1  0.96665700  0.29106100  0.24748700  1
  Se  Se15  1  0.70000900  0.04227200  0.08584700  1
  Se  Se16  1  0.70893900  0.67559700  0.24748700  1
  Se  Se17  1  0.95772700  0.65773700  0.08584700  1
loop_
_geom_bond_atom_site_label_1
_geom_bond_atom_site_label_2
_geom_bond_distance
_geom_bond_site_symmetry_2
Pr0 Se3 2.951713 1_555
Pr0 Se5 2.951717 1_445
Pr0 Se1 2.951717 1_545
Pr0 Se12 2.998231 1_555
Pr0 Se16 2.998233 1_445
Pr0 Se14 2.998237 1_455
Pr1 Se4 2.951710 1_555
Pr1 Se2 2.951717 1_445
Pr1 Se0 2.951717 1_455
Pr1 Se7 2.998231 1_445
Pr1 Se11 2.998233 1_555
Pr1 Se9 2.998237 1_545
Pr2 Se11 2.951717 1_555
Pr2 Se9 2.951717 1_655
Pr2 Se7 2.951717 1_545
Pr2 Se0 2.998231 1_555
Pr2 Se4 2.998236 1_555
Pr2 Se2 2.998237 1_555
Pr3 Se10 2.951710 1_655
Pr3 Se8 2.951717 1_545
Pr3 Se6 2.951717 1_555
Pr3 Se15 2.998247 1_556
Pr3 Se17 2.998248 1_556
Pr3 Se13 2.998252 1_556
Pr4 Se15 2.951713 1_565
Pr4 Se17 2.951717 1_455
Pr4 Se13 2.951717 1_555
Pr4 Se8 2.998242 1_554
Pr4 Se10 2.998250 1_554
Pr4 Se6 2.998252 1_554
Pr5 Se16 2.951717 1_555
Pr5 Se14 2.951717 1_455
Pr5 Se12 2.951717 1_565
Pr5 Se1 2.998231 1_555
Pr5 Se5 2.998233 1_555
Pr5 Se3 2.998242 1_555
Mg0 Se17 2.724588 1_445
Mg0 Se13 2.724590 1_555
Mg0 Se15 2.724590 1_455
Mg0 Se12 2.779311 1_555
Mg0 Se16 2.779313 1_445
Mg0 Se14 2.779317 1_455
Mg1 Se6 2.724590 1_445
Mg1 Se10 2.724590 1_555
Mg1 Se8 2.724594 1_545
Mg1 Se7 2.779311 1_445
Mg1 Se11 2.779313 1_555
Mg1 Se9 2.779317 1_545
Mg2 Se5 2.724588 1_545
Mg2 Se1 2.724590 1_655
Mg2 Se3 2.724590 1_555
Mg2 Se0 2.779311 1_555
Mg2 Se4 2.779316 1_555
Mg2 Se2 2.779317 1_555
Mg3 Se14 2.724595 1_555
Mg3 Se12 2.724602 1_555
Mg3 Se16 2.724607 1_555
Mg3 Se15 2.779301 1_555
Mg3 Se17 2.779302 1_555
Mg3 Se13 2.779307 1_555
Mg4 Se9 2.724595 1_555
Mg4 Se7 2.724602 1_555
Mg4 Se11 2.724607 1_555
Mg4 Se8 2.779296 1_555
Mg4 Se10 2.779304 1_555
Mg4 Se6 2.779307 1_555
Mg5 Se0 2.724590 1_455
Mg5 Se4 2.724590 1_565
Mg5 Se2 2.724594 1_555
Mg5 Se1 2.779311 1_555
Mg5 Se5 2.779313 1_555
Mg5 Se3 2.779322 1_555
