# generated using pymatgen
data_Gd2PdRh
_symmetry_space_group_name_H-M   'P 1'
_cell_length_a   4.97121099
_cell_length_b   4.97121099
_cell_length_c   4.97121099
_cell_angle_alpha   60.00000000
_cell_angle_beta   60.00000000
_cell_angle_gamma   60.00000000
_symmetry_Int_Tables_number   1
_chemical_formula_structural   Gd2PdRh
_chemical_formula_sum   'Gd2 Pd1 Rh1'
_cell_volume   86.87035366
_cell_formula_units_Z   1
loop_
 _symmetry_equiv_pos_site_id
 _symmetry_equiv_pos_as_xyz
  1  'x, y, z'
loop_
 _atom_site_type_symbol
 _atom_site_label
 _atom_site_symmetry_multiplicity
 _atom_site_fract_x
 _atom_site_fract_y
 _atom_site_fract_z
 _atom_site_occupancy
  Gd  Gd0  1  0.75000000  0.75000000  0.75000000  1
  Gd  Gd1  1  0.25000000  0.25000000  0.25000000  1
  Pd  Pd0  1  0.00000000  0.00000000  0.00000000  1
  Rh  Rh0  1  0.50000000  0.50000000  0.50000000  1
loop_
_geom_bond_atom_site_label_1
_geom_bond_atom_site_label_2
_geom_bond_distance
_geom_bond_site_symmetry_2
Gd0 Pd0 3.044233 1_656
Gd0 Pd0 3.044233 1_665
Gd0 Rh0 3.044233 1_555
Gd0 Rh0 3.044233 1_556
Gd0 Pd0 3.044233 1_666
Gd0 Rh0 3.044233 1_565
Gd0 Rh0 3.044233 1_655
Gd0 Pd0 3.044233 1_566
Gd1 Pd0 3.044233 1_565
Gd1 Pd0 3.044233 1_555
Gd1 Rh0 3.044233 1_554
Gd1 Rh0 3.044233 1_555
Gd1 Pd0 3.044233 1_556
Gd1 Rh0 3.044233 1_545
Gd1 Pd0 3.044233 1_655
Gd1 Rh0 3.044233 1_455
