# generated using pymatgen
data_U2Si5Ru2Rh
_symmetry_space_group_name_H-M   'P 1'
_cell_length_a   8.13006240
_cell_length_b   8.13006240
_cell_length_c   5.64648216
_cell_angle_alpha   70.80058198
_cell_angle_beta   70.80058198
_cell_angle_gamma   92.85187660
_symmetry_Int_Tables_number   1
_chemical_formula_structural   U2Si5Ru2Rh
_chemical_formula_sum   'U4 Si10 Ru4 Rh2'
_cell_volume   327.59957639
_cell_formula_units_Z   2
loop_
 _symmetry_equiv_pos_site_id
 _symmetry_equiv_pos_as_xyz
  1  'x, y, z'
loop_
 _atom_site_type_symbol
 _atom_site_label
 _atom_site_symmetry_multiplicity
 _atom_site_fract_x
 _atom_site_fract_y
 _atom_site_fract_z
 _atom_site_occupancy
  U  U0  1  0.86610700  0.59214300  0.76680700  1
  U  U1  1  0.40785700  0.13389300  0.73319300  1
  U  U2  1  0.13389300  0.40785700  0.23319300  1
  U  U3  1  0.59214300  0.86610700  0.26680700  1
  Si  Si0  1  0.06085000  0.26561500  0.83471400  1
  Si  Si1  1  0.73438500  0.93915000  0.66528600  1
  Si  Si2  1  0.93915000  0.73438500  0.16528600  1
  Si  Si3  1  0.26561500  0.06085000  0.33471400  1
  Si  Si4  1  0.51351200  0.48648800  0.75000000  1
  Si  Si5  1  0.48648800  0.51351200  0.25000000  1
  Si  Si6  1  0.20697600  0.79302400  0.75000000  1
  Si  Si7  1  0.79302400  0.20697600  0.25000000  1
  Si  Si8  1  0.77709900  0.22290100  0.75000000  1
  Si  Si9  1  0.22290100  0.77709900  0.25000000  1
  Ru  Ru0  1  0.25422800  0.54095100  0.63407800  1
  Ru  Ru1  1  0.45904900  0.74577200  0.86592200  1
  Ru  Ru2  1  0.74577200  0.45904900  0.36592200  1
  Ru  Ru3  1  0.54095100  0.25422800  0.13407800  1
  Rh  Rh0  1  0.99989300  0.00010700  0.75000000  1
  Rh  Rh1  1  0.00010700  0.99989300  0.25000000  1
loop_
_geom_bond_atom_site_label_1
_geom_bond_atom_site_label_2
_geom_bond_distance
_geom_bond_site_symmetry_2
Si0 Si7 2.504064 1_456
Si0 Si8 2.535066 1_455
Si0 U1 3.012521 1_555
Si0 U2 3.041011 1_555
Si0 U2 3.045382 1_556
Si0 U0 3.138345 1_455
Si1 Si7 2.504064 1_565
Si1 Si8 2.535066 1_565
Si1 U0 3.012521 1_555
Si1 U3 3.041011 1_556
Si1 U3 3.045382 1_555
Si1 U1 3.138345 1_565
Si2 Si6 2.504064 1_654
Si2 Si9 2.535066 1_655
Si2 U3 3.012521 1_555
Si2 U0 3.041011 1_555
Si2 U0 3.045382 1_554
Si2 U2 3.138345 1_655
Si3 Si6 2.504064 1_545
Si3 Si9 2.535066 1_545
Si3 U2 3.012521 1_555
Si3 U1 3.041011 1_554
Si3 U1 3.045382 1_555
Si3 U3 3.138345 1_545
Si4 U0 2.991969 1_555
Si4 U1 2.991969 1_555
Si4 U2 3.239772 1_556
Si4 U3 3.239772 1_555
Si5 U2 2.991969 1_555
Si5 U3 2.991969 1_555
Si5 U1 3.239772 1_555
Si5 U0 3.239772 1_554
Si6 U1 3.103386 1_565
Si6 U0 3.103386 1_455
Si6 U2 3.275993 1_556
Si6 U3 3.275993 1_555
Si7 U2 3.103386 1_655
Si7 U3 3.103386 1_545
Si7 U1 3.275993 1_555
Si7 U0 3.275993 1_554
Si8 U0 3.092055 1_555
Si8 U1 3.092055 1_555
Si8 U3 3.209911 1_546
Si8 U2 3.209911 1_655
Si9 U3 3.092055 1_555
Si9 U2 3.092055 1_555
Si9 U0 3.209911 1_455
Si9 U1 3.209911 1_564
Ru0 Si6 2.360330 1_555
Ru0 Si0 2.361451 1_555
Ru0 Si4 2.424440 1_555
Ru0 Si5 2.446490 1_555
Ru0 Si9 2.475385 1_555
Ru0 U2 2.980316 1_556
Ru0 U0 3.077691 1_455
Ru0 U2 3.195934 1_555
Ru0 U3 3.280375 1_555
Ru1 Si6 2.360330 1_555
Ru1 Si1 2.361451 1_555
Ru1 Si4 2.424440 1_555
Ru1 Si5 2.446490 1_556
Ru1 Si9 2.475385 1_556
Ru1 U3 2.980316 1_555
Ru1 U1 3.077691 1_565
Ru1 U3 3.195934 1_556
Ru1 U2 3.280375 1_556
Ru2 Si7 2.360330 1_555
Ru2 Si2 2.361451 1_555
Ru2 Si5 2.424440 1_555
Ru2 Si4 2.446490 1_555
Ru2 Si8 2.475385 1_555
Ru2 U0 2.980316 1_554
Ru2 U2 3.077691 1_655
Ru2 U0 3.195934 1_555
Ru2 U1 3.280375 1_555
Ru3 Si7 2.360330 1_555
Ru3 Si3 2.361451 1_555
Ru3 Si5 2.424440 1_555
Ru3 Si4 2.446490 1_554
Ru3 Si8 2.475385 1_554
Ru3 U1 2.980316 1_555
Ru3 U3 3.077691 1_545
Ru3 U1 3.195934 1_554
Ru3 U0 3.280375 1_554
Rh0 Si0 2.421265 1_655
Rh0 Si1 2.421265 1_545
Rh0 Si6 2.439479 1_645
Rh0 Si3 2.491961 1_655
Rh0 Si2 2.491961 1_546
Rh0 Si8 2.624558 1_555
Rh0 U1 3.399875 1_655
Rh0 U0 3.399875 1_545
Rh0 U2 3.446590 1_655
Rh0 U3 3.446590 1_546
Rh1 Si3 2.421265 1_565
Rh1 Si2 2.421265 1_455
Rh1 Si7 2.439479 1_465
Rh1 Si0 2.491961 1_564
Rh1 Si1 2.491961 1_455
Rh1 Si9 2.624558 1_555
Rh1 U2 3.399875 1_565
Rh1 U3 3.399875 1_455
Rh1 U1 3.446590 1_564
Rh1 U0 3.446590 1_455
