# generated using pymatgen
data_AlInN2
_symmetry_space_group_name_H-M   'P 1'
_cell_length_a   5.50076700
_cell_length_b   11.02744800
_cell_length_c   14.01175700
_cell_angle_alpha   90.00000000
_cell_angle_beta   90.00000000
_cell_angle_gamma   90.00000000
_symmetry_Int_Tables_number   1
_chemical_formula_structural   AlInN2
_chemical_formula_sum   'Al16 In16 N32'
_cell_volume   849.94508156
_cell_formula_units_Z   16
loop_
 _symmetry_equiv_pos_site_id
 _symmetry_equiv_pos_as_xyz
  1  'x, y, z'
loop_
 _atom_site_type_symbol
 _atom_site_label
 _atom_site_symmetry_multiplicity
 _atom_site_fract_x
 _atom_site_fract_y
 _atom_site_fract_z
 _atom_site_occupancy
  Al  Al0  1  0.66870500  0.02334000  0.18771900  1
  Al  Al1  1  0.16870500  0.47666000  0.81228100  1
  Al  Al2  1  0.33129500  0.52334000  0.31228100  1
  Al  Al3  1  0.83129500  0.97666000  0.68771900  1
  Al  Al4  1  0.33129500  0.97666000  0.81228100  1
  Al  Al5  1  0.83129500  0.52334000  0.18771900  1
  Al  Al6  1  0.66870500  0.47666000  0.68771900  1
  Al  Al7  1  0.16870500  0.02334000  0.31228100  1
  Al  Al8  1  0.78520500  0.28466400  0.06203600  1
  Al  Al9  1  0.28520500  0.21533600  0.93796400  1
  Al  Al10  1  0.21479500  0.78466400  0.43796400  1
  Al  Al11  1  0.71479500  0.71533600  0.56203600  1
  Al  Al12  1  0.21479500  0.71533600  0.93796400  1
  Al  Al13  1  0.71479500  0.78466400  0.06203600  1
  Al  Al14  1  0.78520500  0.21533600  0.56203600  1
  Al  Al15  1  0.28520500  0.28466400  0.43796400  1
  In  In0  1  0.71723900  0.96620300  0.44075300  1
  In  In1  1  0.21723900  0.53379700  0.55924700  1
  In  In2  1  0.28276100  0.46620300  0.05924700  1
  In  In3  1  0.78276100  0.03379700  0.94075300  1
  In  In4  1  0.28276100  0.03379700  0.55924700  1
  In  In5  1  0.78276100  0.46620300  0.44075300  1
  In  In6  1  0.71723900  0.53379700  0.94075300  1
  In  In7  1  0.21723900  0.96620300  0.05924700  1
  In  In8  1  0.78529300  0.26031500  0.30951200  1
  In  In9  1  0.28529300  0.23968500  0.69048800  1
  In  In10  1  0.21470700  0.76031500  0.19048800  1
  In  In11  1  0.71470700  0.73968500  0.80951200  1
  In  In12  1  0.21470700  0.73968500  0.69048800  1
  In  In13  1  0.71470700  0.76031500  0.30951200  1
  In  In14  1  0.78529300  0.23968500  0.80951200  1
  In  In15  1  0.28529300  0.26031500  0.19048800  1
  N  N0  1  0.65807100  0.47136700  0.29646800  1
  N  N1  1  0.15807100  0.02863300  0.70353200  1
  N  N2  1  0.34192900  0.97136700  0.20353200  1
  N  N3  1  0.84192900  0.52863300  0.79646800  1
  N  N4  1  0.34192900  0.52863300  0.70353200  1
  N  N5  1  0.84192900  0.97136700  0.29646800  1
  N  N6  1  0.65807100  0.02863300  0.79646800  1
  N  N7  1  0.15807100  0.47136700  0.20353200  1
  N  N8  1  0.63045100  0.27615000  0.45149600  1
  N  N9  1  0.13045100  0.22385000  0.54850400  1
  N  N10  1  0.36954900  0.77615000  0.04850400  1
  N  N11  1  0.86954900  0.72385000  0.95149600  1
  N  N12  1  0.36954900  0.72385000  0.54850400  1
  N  N13  1  0.86954900  0.77615000  0.45149600  1
  N  N14  1  0.63045100  0.22385000  0.95149600  1
  N  N15  1  0.13045100  0.27615000  0.04850400  1
  N  N16  1  0.69267000  0.44922900  0.07742700  1
  N  N17  1  0.19267000  0.05077100  0.92257300  1
  N  N18  1  0.30733000  0.94922900  0.42257300  1
  N  N19  1  0.80733000  0.55077100  0.57742700  1
  N  N20  1  0.30733000  0.55077100  0.92257300  1
  N  N21  1  0.80733000  0.94922900  0.07742700  1
  N  N22  1  0.69267000  0.05077100  0.57742700  1
  N  N23  1  0.19267000  0.44922900  0.42257300  1
  N  N24  1  0.66454800  0.19746600  0.17215800  1
  N  N25  1  0.16454800  0.30253400  0.82784200  1
  N  N26  1  0.33545200  0.69746600  0.32784200  1
  N  N27  1  0.83545200  0.80253400  0.67215800  1
  N  N28  1  0.33545200  0.80253400  0.82784200  1
  N  N29  1  0.83545200  0.69746600  0.17215800  1
  N  N30  1  0.66454800  0.30253400  0.67215800  1
  N  N31  1  0.16454800  0.19746600  0.32784200  1
loop_
_geom_bond_atom_site_label_1
_geom_bond_atom_site_label_2
_geom_bond_distance
_geom_bond_site_symmetry_2
Al0 N5 1.886342 1_545
Al0 N2 1.899643 1_545
Al0 N21 1.907247 1_545
Al0 N24 1.932640 1_555
Al1 N4 1.886342 1_555
Al1 N3 1.899643 1_455
Al1 N20 1.907247 1_555
Al1 N25 1.932640 1_555
Al2 N7 1.886342 1_555
Al2 N0 1.899643 1_555
Al2 N23 1.907247 1_555
Al2 N26 1.932640 1_555
Al3 N6 1.886342 1_565
Al3 N1 1.899643 1_665
Al3 N22 1.907247 1_565
Al3 N27 1.932640 1_555
Al4 N1 1.886342 1_565
Al4 N6 1.899643 1_565
Al4 N17 1.907247 1_565
Al4 N28 1.932640 1_555
Al5 N0 1.886342 1_555
Al5 N7 1.899643 1_655
Al5 N16 1.907247 1_555
Al5 N29 1.932640 1_555
Al6 N3 1.886342 1_555
Al6 N4 1.899643 1_555
Al6 N19 1.907247 1_555
Al6 N30 1.932640 1_555
Al7 N2 1.886342 1_545
Al7 N5 1.899643 1_445
Al7 N18 1.907247 1_545
Al7 N31 1.932640 1_555
Al8 N14 1.890332 1_554
Al8 N16 1.897065 1_555
Al8 N15 1.910867 1_655
Al8 N24 1.935454 1_555
Al9 N15 1.890332 1_556
Al9 N17 1.897065 1_555
Al9 N14 1.910867 1_555
Al9 N25 1.935454 1_555
Al10 N12 1.890332 1_555
Al10 N18 1.897065 1_555
Al10 N13 1.910867 1_455
Al10 N26 1.935454 1_555
Al11 N13 1.890332 1_555
Al11 N19 1.897065 1_555
Al11 N12 1.910867 1_555
Al11 N27 1.935454 1_555
Al12 N10 1.890332 1_556
Al12 N20 1.897065 1_555
Al12 N11 1.910867 1_455
Al12 N28 1.935454 1_555
Al13 N11 1.890332 1_554
Al13 N21 1.897065 1_555
Al13 N10 1.910867 1_555
Al13 N29 1.935454 1_555
Al14 N8 1.890332 1_555
Al14 N22 1.897065 1_555
Al14 N9 1.910867 1_655
Al14 N30 1.935454 1_555
Al15 N9 1.890332 1_555
Al15 N23 1.897065 1_555
Al15 N8 1.910867 1_555
Al15 N31 1.935454 1_555
In0 N22 2.134324 1_565
In0 N5 2.135627 1_555
In0 N13 2.262074 1_555
In0 N18 2.276864 1_555
In1 N23 2.134324 1_555
In1 N4 2.135627 1_555
In1 N12 2.262074 1_555
In1 N19 2.276864 1_455
In2 N20 2.134324 1_554
In2 N7 2.135627 1_555
In2 N15 2.262074 1_555
In2 N16 2.276864 1_555
In3 N21 2.134324 1_546
In3 N6 2.135627 1_555
In3 N14 2.262074 1_555
In3 N17 2.276864 1_655
In4 N18 2.134324 1_545
In4 N1 2.135627 1_555
In4 N9 2.262074 1_555
In4 N22 2.276864 1_555
In5 N19 2.134324 1_555
In5 N0 2.135627 1_555
In5 N8 2.262074 1_555
In5 N23 2.276864 1_655
In6 N16 2.134324 1_556
In6 N3 2.135627 1_555
In6 N11 2.262074 1_555
In6 N20 2.276864 1_555
In7 N17 2.134324 1_564
In7 N2 2.135627 1_555
In7 N10 2.262074 1_555
In7 N21 2.276864 1_455
In8 N24 2.150688 1_555
In8 N8 2.171143 1_555
In8 N31 2.213257 1_655
In8 N0 2.437166 1_555
In9 N25 2.150688 1_555
In9 N9 2.171143 1_555
In9 N30 2.213257 1_555
In9 N1 2.437166 1_555
In10 N26 2.150688 1_555
In10 N10 2.171143 1_555
In10 N29 2.213257 1_455
In10 N2 2.437166 1_555
In11 N27 2.150688 1_555
In11 N11 2.171143 1_555
In11 N28 2.213257 1_555
In11 N3 2.437166 1_555
In12 N28 2.150688 1_555
In12 N12 2.171143 1_555
In12 N27 2.213257 1_455
In12 N4 2.437166 1_555
In13 N29 2.150688 1_555
In13 N13 2.171143 1_555
In13 N26 2.213257 1_555
In13 N5 2.437166 1_555
In14 N30 2.150688 1_555
In14 N14 2.171143 1_555
In14 N25 2.213257 1_655
In14 N6 2.437166 1_555
In15 N31 2.150688 1_555
In15 N15 2.171143 1_555
In15 N24 2.213257 1_555
In15 N7 2.437166 1_555
