# generated using pymatgen
data_LiAlCrO4
_symmetry_space_group_name_H-M   'P 1'
_cell_length_a   2.89172831
_cell_length_b   10.18821192
_cell_length_c   9.31868368
_cell_angle_alpha   90.00766429
_cell_angle_beta   90.00873510
_cell_angle_gamma   90.00500893
_symmetry_Int_Tables_number   1
_chemical_formula_structural   LiAlCrO4
_chemical_formula_sum   'Li4 Al4 Cr4 O16'
_cell_volume   274.54277321
_cell_formula_units_Z   4
loop_
 _symmetry_equiv_pos_site_id
 _symmetry_equiv_pos_as_xyz
  1  'x, y, z'
loop_
 _atom_site_type_symbol
 _atom_site_label
 _atom_site_symmetry_multiplicity
 _atom_site_fract_x
 _atom_site_fract_y
 _atom_site_fract_z
 _atom_site_occupancy
  Li  Li0  1  0.25361545  0.62138791  0.09104413  1
  Li  Li1  1  0.74735714  0.12137047  0.40882253  1
  Li  Li2  1  0.24710181  0.87860637  0.59107073  1
  Li  Li3  1  0.75401876  0.37861481  0.90881472  1
  Al  Al0  1  0.25620639  0.12455380  0.00640143  1
  Al  Al1  1  0.74393666  0.62458830  0.49358002  1
  Al  Al2  1  0.24386611  0.37541539  0.50644544  1
  Al  Al3  1  0.75611740  0.87541580  0.99355171  1
  Cr  Cr0  1  0.76708738  0.15529085  0.72829820  1
  Cr  Cr1  1  0.23213295  0.65532146  0.77183534  1
  Cr  Cr2  1  0.73224169  0.34469249  0.22824402  1
  Cr  Cr3  1  0.26752588  0.84466631  0.27179769  1
  O  O0  1  0.25444863  0.95971595  0.10236691  1
  O  O1  1  0.74557312  0.45972092  0.39778097  1
  O  O2  1  0.24546934  0.54029017  0.60227147  1
  O  O3  1  0.75445632  0.04023397  0.89770550  1
  O  O4  1  0.26829645  0.43201130  0.13455339  1
  O  O5  1  0.73126702  0.93202141  0.36551199  1
  O  O6  1  0.23112303  0.06789418  0.63439778  1
  O  O7  1  0.76826258  0.56808319  0.86543467  1
  O  O8  1  0.75843701  0.20291371  0.10072309  1
  O  O9  1  0.24175240  0.70301565  0.39932083  1
  O  O10  1  0.74161300  0.29706835  0.60072202  1
  O  O11  1  0.25839277  0.79711832  0.89931392  1
  O  O12  1  0.76230647  0.75521296  0.15187508  1
  O  O13  1  0.23787317  0.25518416  0.34820315  1
  O  O14  1  0.73768224  0.74485109  0.65180293  1
  O  O15  1  0.26183883  0.24474171  0.84811038  1
loop_
_geom_bond_atom_site_label_1
_geom_bond_atom_site_label_2
_geom_bond_distance
_geom_bond_site_symmetry_2
Li0 O4 1.972062 1_555
Li0 O12 2.049184 1_455
Li0 O12 2.084063 1_555
Li0 O11 2.529566 1_554
Li1 O5 1.971386 1_545
Li1 O13 2.046908 1_655
Li1 O13 2.085338 1_555
Li1 O10 2.530127 1_555
Li2 O6 1.970810 1_565
Li2 O14 2.046977 1_555
Li2 O14 2.085056 1_455
Li2 O9 2.528357 1_555
Li3 O7 1.972698 1_555
Li3 O15 2.050646 1_555
Li3 O15 2.082576 1_655
Li3 O8 2.530522 1_556
Al0 O8 1.866073 1_455
Al0 O8 1.875728 1_555
Al0 O0 1.902773 1_545
Al0 O15 1.917281 1_554
Al0 O3 1.959672 1_554
Al0 O3 1.966788 1_454
Al1 O9 1.866189 1_655
Al1 O9 1.875852 1_555
Al1 O1 1.902099 1_555
Al1 O14 1.917046 1_555
Al1 O2 1.960024 1_555
Al1 O2 1.966435 1_655
Al2 O10 1.865663 1_555
Al2 O10 1.875833 1_455
Al2 O2 1.902282 1_555
Al2 O13 1.916967 1_555
Al2 O1 1.959440 1_455
Al2 O1 1.966828 1_555
Al3 O11 1.865019 1_555
Al3 O11 1.875507 1_655
Al3 O3 1.902073 1_565
Al3 O12 1.917622 1_556
Al3 O0 1.959994 1_656
Al3 O0 1.967438 1_556
Cr0 O6 1.832887 1_655
Cr0 O10 1.872348 1_555
Cr0 O3 1.966747 1_555
Cr0 O6 1.989906 1_555
Cr0 O15 2.030512 1_655
Cr0 O15 2.052365 1_555
Cr1 O7 1.830414 1_455
Cr1 O11 1.871758 1_555
Cr1 O2 1.967554 1_555
Cr1 O7 1.988551 1_555
Cr1 O14 2.031636 1_455
Cr1 O14 2.054477 1_555
Cr2 O4 1.831296 1_555
Cr2 O8 1.871883 1_555
Cr2 O1 1.967322 1_555
Cr2 O4 1.989209 1_655
Cr2 O13 2.031123 1_555
Cr2 O13 2.054049 1_655
Cr3 O5 1.830921 1_555
Cr3 O9 1.871075 1_555
Cr3 O0 1.966898 1_555
Cr3 O5 1.989948 1_455
Cr3 O12 2.031501 1_555
Cr3 O12 2.052521 1_455
