# generated using pymatgen
data_Dy20In40Rh19
_symmetry_space_group_name_H-M   'P 1'
_cell_length_a   13.57373600
_cell_length_b   13.57373600
_cell_length_c   9.43680400
_cell_angle_alpha   90.00000000
_cell_angle_beta   90.00000000
_cell_angle_gamma   90.00000000
_symmetry_Int_Tables_number   1
_chemical_formula_structural   Dy20In40Rh19
_chemical_formula_sum   'Dy20 In40 Rh19'
_cell_volume   1738.69630573
_cell_formula_units_Z   1
loop_
 _symmetry_equiv_pos_site_id
 _symmetry_equiv_pos_as_xyz
  1  'x, y, z'
loop_
 _atom_site_type_symbol
 _atom_site_label
 _atom_site_symmetry_multiplicity
 _atom_site_fract_x
 _atom_site_fract_y
 _atom_site_fract_z
 _atom_site_occupancy
  Dy  Dy0  1  0.50000000  0.00000000  0.84996700  1
  Dy  Dy1  1  0.00000000  0.50000000  0.15003300  1
  Dy  Dy2  1  0.50000000  0.00000000  0.35568400  1
  Dy  Dy3  1  0.00000000  0.50000000  0.64431600  1
  Dy  Dy4  1  0.77494200  0.00000000  0.76923400  1
  Dy  Dy5  1  0.22505800  0.00000000  0.76923400  1
  Dy  Dy6  1  0.50000000  0.72234300  0.76602600  1
  Dy  Dy7  1  0.50000000  0.27765700  0.76602600  1
  Dy  Dy8  1  0.72234300  0.50000000  0.23397400  1
  Dy  Dy9  1  0.27765700  0.50000000  0.23397400  1
  Dy  Dy10  1  0.00000000  0.77494200  0.23076600  1
  Dy  Dy11  1  0.00000000  0.22505800  0.23076600  1
  Dy  Dy12  1  0.70403500  0.79872600  0.26345100  1
  Dy  Dy13  1  0.29596500  0.79872600  0.26345100  1
  Dy  Dy14  1  0.70403500  0.20127400  0.26345100  1
  Dy  Dy15  1  0.29596500  0.20127400  0.26345100  1
  Dy  Dy16  1  0.79872600  0.70403500  0.73654900  1
  Dy  Dy17  1  0.20127400  0.70403500  0.73654900  1
  Dy  Dy18  1  0.79872600  0.29596500  0.73654900  1
  Dy  Dy19  1  0.20127400  0.29596500  0.73654900  1
  In  In0  1  0.15116400  0.15116400  0.00000000  1
  In  In1  1  0.84883600  0.15116400  0.00000000  1
  In  In2  1  0.15116400  0.84883600  0.00000000  1
  In  In3  1  0.84883600  0.84883600  0.00000000  1
  In  In4  1  0.34913400  0.34913400  0.00000000  1
  In  In5  1  0.65086600  0.34913400  0.00000000  1
  In  In6  1  0.34913400  0.65086600  0.00000000  1
  In  In7  1  0.65086600  0.65086600  0.00000000  1
  In  In8  1  0.11360400  0.00000000  0.23765100  1
  In  In9  1  0.88639600  0.00000000  0.23765100  1
  In  In10  1  0.50000000  0.38536400  0.23929800  1
  In  In11  1  0.50000000  0.61463600  0.23929800  1
  In  In12  1  0.38536400  0.50000000  0.76070200  1
  In  In13  1  0.61463600  0.50000000  0.76070200  1
  In  In14  1  0.00000000  0.11360400  0.76234900  1
  In  In15  1  0.00000000  0.88639600  0.76234900  1
  In  In16  1  0.64049400  0.64049400  0.50000000  1
  In  In17  1  0.35950600  0.64049400  0.50000000  1
  In  In18  1  0.64049400  0.35950600  0.50000000  1
  In  In19  1  0.35950600  0.35950600  0.50000000  1
  In  In20  1  0.86830100  0.86830100  0.50000000  1
  In  In21  1  0.13169900  0.86830100  0.50000000  1
  In  In22  1  0.86830100  0.13169900  0.50000000  1
  In  In23  1  0.13169900  0.13169900  0.50000000  1
  In  In24  1  0.33067600  0.00000000  0.09840400  1
  In  In25  1  0.66932400  0.00000000  0.09840400  1
  In  In26  1  0.50000000  0.16967600  0.09846300  1
  In  In27  1  0.50000000  0.83032400  0.09846300  1
  In  In28  1  0.16967600  0.50000000  0.90153700  1
  In  In29  1  0.83032400  0.50000000  0.90153700  1
  In  In30  1  0.00000000  0.33067600  0.90159600  1
  In  In31  1  0.00000000  0.66932400  0.90159600  1
  In  In32  1  0.62998000  0.87006500  0.59407800  1
  In  In33  1  0.37002000  0.87006500  0.59407800  1
  In  In34  1  0.62998000  0.12993500  0.59407800  1
  In  In35  1  0.37002000  0.12993500  0.59407800  1
  In  In36  1  0.87006500  0.62998000  0.40592200  1
  In  In37  1  0.12993500  0.62998000  0.40592200  1
  In  In38  1  0.87006500  0.37002000  0.40592200  1
  In  In39  1  0.12993500  0.37002000  0.40592200  1
  Rh  Rh0  1  0.00000000  0.00000000  0.00000000  1
  Rh  Rh1  1  0.50000000  0.50000000  0.00000000  1
  Rh  Rh2  1  0.84590800  0.65338900  0.10668900  1
  Rh  Rh3  1  0.15409200  0.65338900  0.10668900  1
  Rh  Rh4  1  0.84590800  0.34661100  0.10668900  1
  Rh  Rh5  1  0.15409200  0.34661100  0.10668900  1
  Rh  Rh6  1  0.65338900  0.84590800  0.89331100  1
  Rh  Rh7  1  0.34661100  0.84590800  0.89331100  1
  Rh  Rh8  1  0.65338900  0.15409200  0.89331100  1
  Rh  Rh9  1  0.34661100  0.15409200  0.89331100  1
  Rh  Rh10  1  0.27677700  0.00000000  0.40720000  1
  Rh  Rh11  1  0.72322300  0.00000000  0.40720000  1
  Rh  Rh12  1  0.50000000  0.22074600  0.40620500  1
  Rh  Rh13  1  0.50000000  0.77925400  0.40620500  1
  Rh  Rh14  1  0.22074600  0.50000000  0.59379500  1
  Rh  Rh15  1  0.77925400  0.50000000  0.59379500  1
  Rh  Rh16  1  0.00000000  0.27677700  0.59280000  1
  Rh  Rh17  1  0.00000000  0.72322300  0.59280000  1
  Rh  Rh18  1  0.50000000  0.50000000  0.50000000  1
loop_
_geom_bond_atom_site_label_1
_geom_bond_atom_site_label_2
_geom_bond_distance
_geom_bond_site_symmetry_2
Dy0 Rh6 2.979445 1_545
Dy0 Rh8 2.979445 1_555
Dy0 Rh7 2.979445 1_545
Dy0 Rh9 2.979445 1_555
Dy0 In25 3.283125 1_556
Dy0 In24 3.283125 1_556
Dy0 In26 3.286868 1_556
Dy0 In27 3.286868 1_546
Dy0 In33 3.471972 1_545
Dy0 In35 3.471972 1_555
Dy0 In34 3.471972 1_555
Dy0 In32 3.471972 1_545
Dy1 Rh3 2.979445 1_555
Dy1 Rh4 2.979445 1_455
Dy1 Rh2 2.979445 1_455
Dy1 Rh5 2.979445 1_555
Dy1 In31 3.283125 1_554
Dy1 In30 3.283125 1_554
Dy1 In28 3.286868 1_554
Dy1 In29 3.286868 1_454
Dy1 In39 3.471972 1_555
Dy1 In38 3.471972 1_455
Dy1 In37 3.471972 1_555
Dy1 In36 3.471972 1_455
Dy2 Rh12 3.034040 1_555
Dy2 Rh13 3.034040 1_545
Dy2 Rh11 3.068722 1_555
Dy2 Rh10 3.068722 1_555
Dy2 In25 3.343226 1_555
Dy2 In24 3.343226 1_555
Dy2 In26 3.346108 1_555
Dy2 In27 3.346108 1_545
Dy2 In35 3.359241 1_555
Dy2 In33 3.359241 1_545
Dy2 In34 3.359241 1_555
Dy2 In32 3.359241 1_545
Dy3 Rh14 3.034040 1_555
Dy3 Rh15 3.034040 1_455
Dy3 Rh17 3.068722 1_555
Dy3 Rh16 3.068722 1_555
Dy3 In31 3.343226 1_555
Dy3 In30 3.343226 1_555
Dy3 In28 3.346108 1_555
Dy3 In29 3.346108 1_455
Dy3 In39 3.359241 1_555
Dy3 In38 3.359241 1_455
Dy3 In37 3.359241 1_555
Dy3 In36 3.359241 1_455
Dy4 Rh8 2.909992 1_555
Dy4 Rh6 2.909992 1_545
Dy4 In34 3.116812 1_555
Dy4 In32 3.116812 1_545
Dy4 In1 3.155713 1_556
Dy4 In3 3.155713 1_546
Dy4 In22 3.355109 1_555
Dy4 In20 3.355109 1_545
Dy4 In25 3.421181 1_556
Dy4 In14 3.422625 1_655
Dy4 In15 3.422625 1_645
Dy4 Rh11 3.487825 1_555
Dy5 Rh7 2.909992 1_545
Dy5 Rh9 2.909992 1_555
Dy5 In35 3.116812 1_555
Dy5 In33 3.116812 1_545
Dy5 In0 3.155713 1_556
Dy5 In2 3.155713 1_546
Dy5 In23 3.355109 1_555
Dy5 In21 3.355109 1_545
Dy5 In24 3.421181 1_556
Dy5 In14 3.422625 1_555
Dy5 In15 3.422625 1_545
Dy5 Rh10 3.487825 1_555
Dy6 Rh6 2.931025 1_555
Dy6 Rh7 2.931025 1_555
Dy6 In33 3.125116 1_555
Dy6 In32 3.125116 1_555
Dy6 In7 3.163854 1_556
Dy6 In6 3.163854 1_556
Dy6 In16 3.342657 1_555
Dy6 In17 3.342657 1_555
Dy6 In12 3.395918 1_555
Dy6 In13 3.395918 1_555
Dy6 In27 3.462652 1_556
Dy7 Rh9 2.931025 1_555
Dy7 Rh8 2.931025 1_555
Dy7 In35 3.125116 1_555
Dy7 In34 3.125116 1_555
Dy7 In5 3.163854 1_556
Dy7 In4 3.163854 1_556
Dy7 In18 3.342657 1_555
Dy7 In19 3.342657 1_555
Dy7 In13 3.395918 1_555
Dy7 In12 3.395918 1_555
Dy7 In26 3.462652 1_556
Dy8 Rh2 2.931025 1_555
Dy8 Rh4 2.931025 1_555
Dy8 In38 3.125116 1_555
Dy8 In36 3.125116 1_555
Dy8 In7 3.163854 1_555
Dy8 In5 3.163854 1_555
Dy8 In16 3.342657 1_555
Dy8 In18 3.342657 1_555
Dy8 In11 3.395918 1_555
Dy8 In10 3.395918 1_555
Dy8 In29 3.462652 1_554
Dy9 Rh3 2.931025 1_555
Dy9 Rh5 2.931025 1_555
Dy9 In39 3.125116 1_555
Dy9 In37 3.125116 1_555
Dy9 In6 3.163854 1_555
Dy9 In4 3.163854 1_555
Dy9 In19 3.342657 1_555
Dy9 In17 3.342657 1_555
Dy9 In10 3.395918 1_555
Dy9 In11 3.395918 1_555
Dy9 In28 3.462652 1_554
Dy10 Rh3 2.909992 1_555
Dy10 Rh2 2.909992 1_455
Dy10 In36 3.116812 1_455
Dy10 In37 3.116812 1_555
Dy10 In2 3.155713 1_555
Dy10 In3 3.155713 1_455
Dy10 In21 3.355109 1_555
Dy10 In20 3.355109 1_455
Dy10 In31 3.421181 1_554
Dy10 In8 3.422625 1_565
Dy10 In9 3.422625 1_465
Dy10 Rh17 3.487825 1_555
Dy11 Rh5 2.909992 1_555
Dy11 Rh4 2.909992 1_455
Dy11 In39 3.116812 1_555
Dy11 In38 3.116812 1_455
Dy11 In0 3.155713 1_555
Dy11 In1 3.155713 1_455
Dy11 In23 3.355109 1_555
Dy11 In22 3.355109 1_455
Dy11 In30 3.421181 1_554
Dy11 In8 3.422625 1_555
Dy11 In9 3.422625 1_455
Dy11 Rh16 3.487825 1_555
Dy12 Rh11 3.061381 1_565
Dy12 Rh13 3.091096 1_555
Dy12 Rh2 3.128695 1_555
Dy12 In25 3.179920 1_565
Dy12 In27 3.205980 1_555
Dy12 In16 3.215578 1_555
Dy12 In3 3.241399 1_555
Dy12 In7 3.275641 1_555
Dy12 In20 3.293398 1_555
Dy12 In32 3.418025 1_555
Dy12 In36 3.483243 1_555
Dy13 Rh10 3.061381 1_565
Dy13 Rh13 3.091096 1_555
Dy13 Rh3 3.128695 1_555
Dy13 In24 3.179920 1_565
Dy13 In27 3.205980 1_555
Dy13 In17 3.215578 1_555
Dy13 In2 3.241399 1_555
Dy13 In6 3.275641 1_555
Dy13 In21 3.293398 1_555
Dy13 In33 3.418025 1_555
Dy13 In37 3.483243 1_555
Dy14 Rh11 3.061381 1_555
Dy14 Rh12 3.091096 1_555
Dy14 Rh4 3.128695 1_555
Dy14 In25 3.179920 1_555
Dy14 In26 3.205980 1_555
Dy14 In18 3.215578 1_555
Dy14 In1 3.241399 1_555
Dy14 In5 3.275641 1_555
Dy14 In22 3.293398 1_555
Dy14 In34 3.418025 1_555
Dy14 In38 3.483243 1_555
Dy15 Rh10 3.061381 1_555
Dy15 Rh12 3.091096 1_555
Dy15 Rh5 3.128695 1_555
Dy15 In24 3.179920 1_555
Dy15 In26 3.205980 1_555
Dy15 In19 3.215578 1_555
Dy15 In0 3.241399 1_555
Dy15 In4 3.275641 1_555
Dy15 In23 3.293398 1_555
Dy15 In35 3.418025 1_555
Dy15 In39 3.483243 1_555
Dy16 Rh17 3.061381 1_655
Dy16 Rh15 3.091096 1_555
Dy16 Rh6 3.128695 1_555
Dy16 In31 3.179920 1_655
Dy16 In29 3.205980 1_555
Dy16 In16 3.215578 1_555
Dy16 In3 3.241399 1_556
Dy16 In7 3.275641 1_556
Dy16 In20 3.293398 1_555
Dy16 In36 3.418025 1_555
Dy16 In32 3.483243 1_555
Dy17 Rh17 3.061381 1_555
Dy17 Rh14 3.091096 1_555
Dy17 Rh7 3.128695 1_555
Dy17 In31 3.179920 1_555
Dy17 In28 3.205980 1_555
Dy17 In17 3.215578 1_555
Dy17 In2 3.241399 1_556
Dy17 In6 3.275641 1_556
Dy17 In21 3.293398 1_555
Dy17 In37 3.418025 1_555
Dy17 In33 3.483243 1_555
Dy18 Rh16 3.061381 1_655
Dy18 Rh15 3.091096 1_555
Dy18 Rh8 3.128695 1_555
Dy18 In30 3.179920 1_655
Dy18 In29 3.205980 1_555
Dy18 In18 3.215578 1_555
Dy18 In1 3.241399 1_556
Dy18 In5 3.275641 1_556
Dy18 In22 3.293398 1_555
Dy18 In38 3.418025 1_555
Dy18 In34 3.483243 1_555
Dy19 Rh16 3.061381 1_555
Dy19 Rh14 3.091096 1_555
Dy19 Rh9 3.128695 1_555
Dy19 In30 3.179920 1_555
Dy19 In28 3.205980 1_555
Dy19 In19 3.215578 1_555
Dy19 In0 3.241399 1_556
Dy19 In4 3.275641 1_556
Dy19 In23 3.293398 1_555
Dy19 In39 3.418025 1_555
Dy19 In35 3.483243 1_555
In0 Rh5 2.837843 1_555
In0 Rh9 2.837843 1_554
In0 Rh0 2.901769 1_555
In0 In8 3.082143 1_555
In0 In14 3.082143 1_554
In0 In24 3.318090 1_555
In0 In30 3.318090 1_554
In1 Rh8 2.837843 1_554
In1 Rh4 2.837843 1_555
In1 Rh0 2.901769 1_655
In1 In9 3.082143 1_555
In1 In14 3.082143 1_654
In1 In25 3.318090 1_555
In1 In30 3.318090 1_654
In2 Rh3 2.837843 1_555
In2 Rh7 2.837843 1_554
In2 Rh0 2.901769 1_565
In2 In8 3.082143 1_565
In2 In24 3.318090 1_565
In2 In31 3.318090 1_554
In3 Rh2 2.837843 1_555
In3 Rh6 2.837843 1_554
In3 Rh0 2.901769 1_665
In3 In9 3.082143 1_565
In3 In31 3.318090 1_654
In4 Rh5 2.832633 1_555
In4 Rh9 2.832633 1_554
In4 Rh1 2.896048 1_555
In5 Rh4 2.832633 1_555
In5 Rh8 2.832633 1_554
In5 Rh1 2.896048 1_555
In6 Rh3 2.832633 1_555
In6 Rh7 2.832633 1_554
In6 Rh1 2.896048 1_555
In7 Rh2 2.832633 1_555
In7 Rh6 2.832633 1_554
In7 Rh1 2.896048 1_555
In8 Rh0 2.721656 1_555
In8 Rh10 2.732332 1_555
In8 In9 3.084061 1_455
In9 Rh0 2.721656 1_655
In9 Rh11 2.732332 1_555
In10 Rh12 2.733816 1_555
In10 Rh1 2.742401 1_555
In10 Rh18 2.910981 1_555
In10 In5 3.087863 1_555
In10 In4 3.087863 1_555
In10 In11 3.112078 1_555
In10 In19 3.132492 1_555
In10 In18 3.132492 1_555
In10 In26 3.215230 1_555
In11 Rh13 2.733816 1_555
In11 Rh1 2.742401 1_555
In11 Rh18 2.910981 1_555
In11 In7 3.087863 1_555
In11 In6 3.087863 1_555
In11 In16 3.132492 1_555
In11 In17 3.132492 1_555
In11 In27 3.215230 1_555
In12 Rh14 2.733816 1_555
In12 Rh1 2.742401 1_556
In12 Rh18 2.910981 1_555
In12 In6 3.087863 1_556
In12 In4 3.087863 1_556
In12 In13 3.112078 1_555
In12 In19 3.132492 1_555
In12 In17 3.132492 1_555
In12 In28 3.215230 1_555
In13 Rh15 2.733816 1_555
In13 Rh1 2.742401 1_556
In13 Rh18 2.910981 1_555
In13 In7 3.087863 1_556
In13 In5 3.087863 1_556
In13 In18 3.132492 1_555
In13 In16 3.132492 1_555
In13 In29 3.215230 1_555
In14 Rh0 2.721656 1_556
In14 Rh16 2.732332 1_555
In14 In23 3.063540 1_555
In14 In22 3.063540 1_455
In14 In15 3.084061 1_545
In14 In30 3.226213 1_555
In15 Rh0 2.721656 1_566
In15 Rh17 2.732332 1_555
In15 In21 3.063540 1_555
In15 In20 3.063540 1_455
In15 In2 3.082143 1_556
In15 In3 3.082143 1_456
In15 In31 3.226213 1_555
In16 Rh18 2.696946 1_555
In16 Rh15 2.822719 1_555
In16 Rh13 2.822719 1_555
In16 In32 3.243278 1_555
In16 In36 3.243278 1_555
In17 Rh18 2.696946 1_555
In17 Rh14 2.822719 1_555
In17 Rh13 2.822719 1_555
In17 In33 3.243278 1_555
In17 In37 3.243278 1_555
In18 Rh18 2.696946 1_555
In18 Rh15 2.822719 1_555
In18 Rh12 2.822719 1_555
In18 In34 3.243278 1_555
In18 In38 3.243278 1_555
In19 Rh18 2.696946 1_555
In19 Rh14 2.822719 1_555
In19 Rh12 2.822719 1_555
In19 In35 3.243278 1_555
In19 In39 3.243278 1_555
In20 Rh11 2.800097 1_565
In20 Rh17 2.800097 1_655
In20 In9 3.063540 1_565
In20 In32 3.354605 1_555
In20 In36 3.354605 1_555
In21 Rh17 2.800097 1_555
In21 Rh10 2.800097 1_565
In21 In8 3.063540 1_565
In21 In37 3.354605 1_555
In21 In33 3.354605 1_555
In22 Rh11 2.800097 1_555
In22 Rh16 2.800097 1_655
In22 In9 3.063540 1_555
In22 In34 3.354605 1_555
In22 In38 3.354605 1_555
In23 Rh16 2.800097 1_555
In23 Rh10 2.800097 1_555
In23 In8 3.063540 1_555
In23 In35 3.354605 1_555
In23 In39 3.354605 1_555
In24 Rh9 2.857876 1_554
In24 Rh7 2.857876 1_544
In24 Rh10 3.004484 1_555
In24 In8 3.226213 1_555
In24 In26 3.253751 1_555
In24 In27 3.253751 1_545
In25 Rh6 2.857876 1_544
In25 Rh8 2.857876 1_554
In25 Rh11 3.004484 1_555
In25 In9 3.226213 1_555
In25 In26 3.253751 1_555
In25 In27 3.253751 1_545
In25 In3 3.318090 1_545
In26 Rh9 2.850920 1_554
In26 Rh8 2.850920 1_554
In26 Rh12 2.985690 1_555
In26 In5 3.315207 1_555
In26 In4 3.315207 1_555
In27 Rh6 2.850920 1_554
In27 Rh7 2.850920 1_554
In27 Rh13 2.985690 1_555
In27 In7 3.315207 1_555
In27 In6 3.315207 1_555
In28 Rh3 2.850920 1_556
In28 Rh5 2.850920 1_556
In28 Rh14 2.985690 1_555
In28 In31 3.253751 1_555
In28 In30 3.253751 1_555
In28 In6 3.315207 1_556
In28 In4 3.315207 1_556
In29 Rh2 2.850920 1_556
In29 Rh4 2.850920 1_556
In29 Rh15 2.985690 1_555
In29 In31 3.253751 1_655
In29 In30 3.253751 1_655
In29 In7 3.315207 1_556
In29 In5 3.315207 1_556
In30 Rh4 2.857876 1_456
In30 Rh5 2.857876 1_556
In30 Rh16 3.004484 1_555
In31 Rh3 2.857876 1_556
In31 Rh2 2.857876 1_456
In31 Rh17 3.004484 1_555
In32 Rh13 2.788452 1_555
In32 Rh11 2.796887 1_565
In32 Rh6 2.860480 1_555
In32 In34 3.527407 1_565
In32 In33 3.528628 1_555
In33 Rh13 2.788452 1_555
In33 Rh10 2.796887 1_565
In33 Rh7 2.860480 1_555
In33 In35 3.527407 1_565
In34 Rh12 2.788452 1_555
In34 Rh11 2.796887 1_555
In34 Rh8 2.860480 1_555
In34 In35 3.528628 1_555
In35 Rh12 2.788452 1_555
In35 Rh10 2.796887 1_555
In35 Rh9 2.860480 1_555
In36 Rh15 2.788452 1_555
In36 Rh17 2.796887 1_655
In36 Rh2 2.860480 1_555
In36 In37 3.527407 1_655
In36 In38 3.528628 1_555
In37 Rh14 2.788452 1_555
In37 Rh17 2.796887 1_555
In37 Rh3 2.860480 1_555
In37 In39 3.528628 1_555
In38 Rh15 2.788452 1_555
In38 Rh16 2.796887 1_655
In38 Rh4 2.860480 1_555
In38 In39 3.527407 1_655
In39 Rh14 2.788452 1_555
In39 Rh16 2.796887 1_555
In39 Rh5 2.860480 1_555
