# generated using pymatgen
data_Ag4Hg5S5IBrCl2
_symmetry_space_group_name_H-M   'P 1'
_cell_length_a   4.38134700
_cell_length_b   12.53347981
_cell_length_c   17.65428944
_cell_angle_alpha   90.41077817
_cell_angle_beta   90.00000000
_cell_angle_gamma   90.00000000
_symmetry_Int_Tables_number   1
_chemical_formula_structural   Ag4Hg5S5IBrCl2
_chemical_formula_sum   'Ag8 Hg10 S10 I2 Br2 Cl4'
_cell_volume   969.43433482
_cell_formula_units_Z   2
loop_
 _symmetry_equiv_pos_site_id
 _symmetry_equiv_pos_as_xyz
  1  'x, y, z'
loop_
 _atom_site_type_symbol
 _atom_site_label
 _atom_site_symmetry_multiplicity
 _atom_site_fract_x
 _atom_site_fract_y
 _atom_site_fract_z
 _atom_site_occupancy
  Ag  Ag0  1  0.41866900  0.31305200  0.57822300  1
  Ag  Ag1  1  0.41866900  0.68694800  0.42177700  1
  Ag  Ag2  1  0.57406800  0.18703900  0.08115100  1
  Ag  Ag3  1  0.57406800  0.81296100  0.91884900  1
  Ag  Ag4  1  0.12978000  0.10486400  0.68721000  1
  Ag  Ag5  1  0.12978000  0.89513600  0.31279000  1
  Ag  Ag6  1  0.87528500  0.39243100  0.18634200  1
  Ag  Ag7  1  0.87528500  0.60756900  0.81365800  1
  Hg  Hg0  1  0.99636400  0.57998300  0.59247300  1
  Hg  Hg1  1  0.99636400  0.42001700  0.40752700  1
  Hg  Hg2  1  0.00286500  0.92222500  0.09177700  1
  Hg  Hg3  1  0.00286500  0.07777500  0.90822300  1
  Hg  Hg4  1  0.34605500  0.50000000  0.00000000  1
  Hg  Hg5  1  0.65105300  0.00000000  0.50000000  1
  Hg  Hg6  1  0.37609300  0.32709000  0.84212800  1
  Hg  Hg7  1  0.37609300  0.67291000  0.15787200  1
  Hg  Hg8  1  0.62574300  0.17189800  0.33946600  1
  Hg  Hg9  1  0.62574300  0.82810200  0.66053400  1
  S  S0  1  0.62303100  0.64016500  0.68281100  1
  S  S1  1  0.62303100  0.35983500  0.31718900  1
  S  S2  1  0.37971000  0.86226000  0.18019800  1
  S  S3  1  0.37971000  0.13774000  0.81980200  1
  S  S4  1  0.36335100  0.51685200  0.86446400  1
  S  S5  1  0.36335100  0.48314800  0.13553600  1
  S  S6  1  0.63569000  0.98386800  0.36389200  1
  S  S7  1  0.63569000  0.01613200  0.63610800  1
  S  S8  1  0.33403000  0.50000000  0.50000000  1
  S  S9  1  0.66346400  0.00000000  0.00000000  1
  I  I0  1  0.87903800  0.32849700  0.68425500  1
  I  I1  1  0.87903800  0.67150300  0.31574500  1
  Br  Br0  1  0.12750300  0.17509900  0.18051300  1
  Br  Br1  1  0.12750300  0.82490100  0.81948700  1
  Cl  Cl0  1  0.14502200  0.19240800  0.48116700  1
  Cl  Cl1  1  0.14502200  0.80759200  0.51883300  1
  Cl  Cl2  1  0.85048800  0.30508500  0.98478500  1
  Cl  Cl3  1  0.85048800  0.69491500  0.01521500  1
loop_
_geom_bond_atom_site_label_1
_geom_bond_atom_site_label_2
_geom_bond_distance
_geom_bond_site_symmetry_2
Ag0 Cl0 2.573452 1_555
Ag0 S8 2.753390 1_555
Ag0 I0 2.757679 1_555
Ag0 I0 3.020981 1_455
Ag1 Cl1 2.573452 1_555
Ag1 S8 2.753390 1_555
Ag1 I1 2.757679 1_555
Ag1 I1 3.020981 1_455
Ag2 Cl2 2.566353 1_554
Ag2 Br0 2.632749 1_555
Ag2 S9 2.766457 1_555
Ag2 Br0 2.997143 1_655
Ag3 Cl3 2.566353 1_556
Ag3 Br1 2.632749 1_555
Ag3 S9 2.766457 1_566
Ag3 Br1 2.997143 1_655
Ag4 S7 2.592799 1_455
Ag4 S3 2.614283 1_555
Ag4 S7 2.636192 1_555
Ag4 I0 3.011305 1_455
Ag5 S6 2.592799 1_455
Ag5 S2 2.614283 1_555
Ag5 S6 2.636192 1_555
Ag5 I1 3.011305 1_455
Ag6 S5 2.585459 1_655
Ag6 S1 2.595782 1_555
Ag6 S5 2.672596 1_555
Ag6 Br0 2.940662 1_655
Ag7 S4 2.585459 1_655
Ag7 S0 2.595782 1_555
Ag7 S4 2.672596 1_555
Ag7 Br1 2.940662 1_655
Hg0 S0 2.402245 1_555
Hg0 S8 2.415656 1_655
Hg1 S1 2.402245 1_555
Hg1 S8 2.415656 1_655
Hg2 S2 2.396774 1_555
Hg2 S9 2.410263 1_465
Hg3 S3 2.396774 1_555
Hg3 S9 2.410263 1_456
Hg4 S4 2.404798 1_554
Hg4 S5 2.404798 1_555
Hg5 S7 2.410877 1_555
Hg5 S6 2.410877 1_545
Hg6 S3 2.402985 1_555
Hg6 S4 2.408702 1_555
Hg7 S2 2.402985 1_555
Hg7 S5 2.408702 1_555
Hg8 S1 2.390920 1_555
Hg8 S6 2.399233 1_545
Hg9 S0 2.390920 1_555
Hg9 S7 2.399233 1_565
