# generated using pymatgen
data_Zr6FeSe2
_symmetry_space_group_name_H-M   'P 1'
_cell_length_a   3.50965300
_cell_length_b   12.93083700
_cell_length_c   16.04220800
_cell_angle_alpha   90.00000000
_cell_angle_beta   90.00000000
_cell_angle_gamma   90.00000000
_symmetry_Int_Tables_number   1
_chemical_formula_structural   Zr6FeSe2
_chemical_formula_sum   'Zr24 Fe4 Se8'
_cell_volume   728.03952906
_cell_formula_units_Z   4
loop_
 _symmetry_equiv_pos_site_id
 _symmetry_equiv_pos_as_xyz
  1  'x, y, z'
loop_
 _atom_site_type_symbol
 _atom_site_label
 _atom_site_symmetry_multiplicity
 _atom_site_fract_x
 _atom_site_fract_y
 _atom_site_fract_z
 _atom_site_occupancy
  Zr  Zr0  1  0.00000000  0.33339000  0.48743100  1
  Zr  Zr1  1  0.00000000  0.66661000  0.51256900  1
  Zr  Zr2  1  0.50000000  0.16661000  0.98743100  1
  Zr  Zr3  1  0.50000000  0.83339000  0.01256900  1
  Zr  Zr4  1  0.00000000  0.09109100  0.57886200  1
  Zr  Zr5  1  0.00000000  0.90890900  0.42113800  1
  Zr  Zr6  1  0.50000000  0.40890900  0.07886200  1
  Zr  Zr7  1  0.50000000  0.59109100  0.92113800  1
  Zr  Zr8  1  0.00000000  0.69961000  0.30250400  1
  Zr  Zr9  1  0.00000000  0.30039000  0.69749600  1
  Zr  Zr10  1  0.50000000  0.80039000  0.80250400  1
  Zr  Zr11  1  0.50000000  0.19961000  0.19749600  1
  Zr  Zr12  1  0.00000000  0.02737900  0.10478400  1
  Zr  Zr13  1  0.00000000  0.97262100  0.89521600  1
  Zr  Zr14  1  0.50000000  0.47262100  0.60478400  1
  Zr  Zr15  1  0.50000000  0.52737900  0.39521700  1
  Zr  Zr16  1  0.00000000  0.61856400  0.07916800  1
  Zr  Zr17  1  0.00000000  0.38143600  0.92083200  1
  Zr  Zr18  1  0.50000000  0.88143600  0.57916800  1
  Zr  Zr19  1  0.50000000  0.11856400  0.42083200  1
  Zr  Zr20  1  0.00000000  0.41365200  0.24517300  1
  Zr  Zr21  1  0.00000000  0.58634800  0.75482700  1
  Zr  Zr22  1  0.50000000  0.08634800  0.74517300  1
  Zr  Zr23  1  0.50000000  0.91365200  0.25482700  1
  Fe  Fe0  1  0.00000000  0.25816000  0.08738500  1
  Fe  Fe1  1  0.00000000  0.74184000  0.91261500  1
  Fe  Fe2  1  0.50000000  0.24184000  0.58738500  1
  Fe  Fe3  1  0.50000000  0.75816000  0.41261500  1
  Se  Se0  1  0.00000000  0.81310300  0.15197400  1
  Se  Se1  1  0.00000000  0.18689700  0.84802600  1
  Se  Se2  1  0.50000000  0.68689700  0.65197400  1
  Se  Se3  1  0.50000000  0.31310300  0.34802600  1
  Se  Se4  1  0.00000000  0.07056300  0.29048200  1
  Se  Se5  1  0.00000000  0.92943700  0.70951800  1
  Se  Se6  1  0.50000000  0.42943700  0.79048200  1
  Se  Se7  1  0.50000000  0.57056300  0.20951800  1
loop_
_geom_bond_atom_site_label_1
_geom_bond_atom_site_label_2
_geom_bond_distance
_geom_bond_site_symmetry_2
Fe0 Zr11 2.602474 1_455
Fe0 Zr11 2.602474 1_555
Fe0 Zr6 2.626390 1_455
Fe0 Zr6 2.626390 1_555
Fe0 Zr2 2.655560 1_454
Fe0 Zr2 2.655560 1_554
Fe0 Zr12 2.997216 1_555
Fe0 Zr17 3.111264 1_554
Fe0 Zr20 3.232646 1_555
Fe1 Zr10 2.602474 1_555
Fe1 Zr10 2.602474 1_455
Fe1 Zr7 2.626390 1_455
Fe1 Zr7 2.626390 1_555
Fe1 Zr3 2.655560 1_456
Fe1 Zr3 2.655560 1_556
Fe1 Zr13 2.997216 1_555
Fe1 Zr16 3.111264 1_556
Fe1 Zr21 3.232646 1_555
Fe2 Zr9 2.602474 1_555
Fe2 Zr9 2.602474 1_655
Fe2 Zr4 2.626390 1_555
Fe2 Zr4 2.626390 1_655
Fe2 Zr0 2.655560 1_655
Fe2 Zr0 2.655560 1_555
Fe2 Zr14 2.997216 1_555
Fe2 Zr19 3.111264 1_555
Fe2 Zr22 3.232646 1_555
Fe3 Zr8 2.602474 1_555
Fe3 Zr8 2.602474 1_655
Fe3 Zr5 2.626390 1_555
Fe3 Zr5 2.626390 1_655
Fe3 Zr1 2.655560 1_555
Fe3 Zr1 2.655560 1_655
Fe3 Zr15 2.997215 1_555
Fe3 Zr18 3.111264 1_555
Fe3 Zr23 3.232646 1_555
Se0 Zr23 2.737217 1_455
Se0 Zr23 2.737217 1_555
Se0 Zr16 2.773473 1_555
Se0 Zr8 2.825801 1_555
Se0 Zr3 2.854743 1_455
Se0 Zr3 2.854743 1_555
Se0 Zr12 2.872325 1_565
Se1 Zr22 2.737217 1_455
Se1 Zr22 2.737217 1_555
Se1 Zr17 2.773473 1_555
Se1 Zr9 2.825801 1_555
Se1 Zr2 2.854743 1_455
Se1 Zr2 2.854743 1_555
Se1 Zr13 2.872325 1_545
Se2 Zr21 2.737217 1_655
Se2 Zr21 2.737217 1_555
Se2 Zr18 2.773473 1_555
Se2 Zr10 2.825801 1_555
Se2 Zr1 2.854743 1_655
Se2 Zr1 2.854743 1_555
Se2 Zr14 2.872325 1_555
Se3 Zr20 2.737217 1_555
Se3 Zr20 2.737217 1_655
Se3 Zr19 2.773473 1_555
Se3 Zr11 2.825801 1_555
Se3 Zr0 2.854743 1_555
Se3 Zr0 2.854743 1_655
Se3 Zr15 2.872330 1_555
Se4 Zr23 2.742879 1_445
Se4 Zr23 2.742879 1_545
Se4 Zr19 2.799533 1_455
Se4 Zr19 2.799533 1_555
Se4 Zr11 2.844134 1_455
Se4 Zr11 2.844134 1_555
Se4 Zr5 2.960187 1_545
Se4 Zr12 3.030890 1_555
Se5 Zr22 2.742879 1_565
Se5 Zr22 2.742879 1_465
Se5 Zr18 2.799533 1_555
Se5 Zr18 2.799533 1_455
Se5 Zr10 2.844134 1_555
Se5 Zr10 2.844134 1_455
Se5 Zr4 2.960187 1_565
Se5 Zr13 3.030890 1_555
Se6 Zr21 2.742879 1_555
Se6 Zr21 2.742879 1_655
Se6 Zr17 2.799533 1_655
Se6 Zr17 2.799533 1_555
Se6 Zr9 2.844134 1_655
Se6 Zr9 2.844134 1_555
Se6 Zr7 2.960187 1_555
Se6 Zr14 3.030890 1_555
Se7 Zr20 2.742879 1_555
Se7 Zr20 2.742879 1_655
Se7 Zr16 2.799533 1_555
Se7 Zr16 2.799533 1_655
Se7 Zr8 2.844134 1_655
Se7 Zr8 2.844134 1_555
Se7 Zr6 2.960187 1_555
Se7 Zr15 3.030906 1_555
