# generated using pymatgen
data_Na3B2PO5F4
_symmetry_space_group_name_H-M   'P 1'
_cell_length_a   12.33265500
_cell_length_b   6.61579900
_cell_length_c   9.94132627
_cell_angle_alpha   61.63746021
_cell_angle_beta   90.00000000
_cell_angle_gamma   90.00000000
_symmetry_Int_Tables_number   1
_chemical_formula_structural   Na3B2PO5F4
_chemical_formula_sum   'Na12 B8 P4 O20 F16'
_cell_volume   713.74950832
_cell_formula_units_Z   4
loop_
 _symmetry_equiv_pos_site_id
 _symmetry_equiv_pos_as_xyz
  1  'x, y, z'
loop_
 _atom_site_type_symbol
 _atom_site_label
 _atom_site_symmetry_multiplicity
 _atom_site_fract_x
 _atom_site_fract_y
 _atom_site_fract_z
 _atom_site_occupancy
  Na  Na0  1  0.73034900  0.70219700  0.41105300  1
  Na  Na1  1  0.76965100  0.70219700  0.91105300  1
  Na  Na2  1  0.26965100  0.29780300  0.58894700  1
  Na  Na3  1  0.23034900  0.29780300  0.08894700  1
  Na  Na4  1  0.42055500  0.83111400  0.33664300  1
  Na  Na5  1  0.07944500  0.83111400  0.83664300  1
  Na  Na6  1  0.57944500  0.16888600  0.66335700  1
  Na  Na7  1  0.92055500  0.16888600  0.16335700  1
  Na  Na8  1  0.14304400  0.83050700  0.45896900  1
  Na  Na9  1  0.35695600  0.83050700  0.95896900  1
  Na  Na10  1  0.85695600  0.16949300  0.54103100  1
  Na  Na11  1  0.64304400  0.16949300  0.04103100  1
  B  B0  1  0.43501200  0.33176300  0.87123900  1
  B  B1  1  0.06498800  0.33176300  0.37123900  1
  B  B2  1  0.56498800  0.66823700  0.12876100  1
  B  B3  1  0.93501200  0.66823700  0.62876100  1
  B  B4  1  0.55312300  0.65806200  0.69523500  1
  B  B5  1  0.94687700  0.65806200  0.19523500  1
  B  B6  1  0.44687700  0.34193800  0.30476500  1
  B  B7  1  0.05312300  0.34193800  0.80476500  1
  P  P0  1  0.33882100  0.72472900  0.68980300  1
  P  P1  1  0.16117900  0.72472900  0.18980300  1
  P  P2  1  0.66117900  0.27527100  0.31019700  1
  P  P3  1  0.83882100  0.27527100  0.81019700  1
  O  O0  1  0.34523300  0.49062500  0.85006800  1
  O  O1  1  0.15476700  0.49062500  0.35006800  1
  O  O2  1  0.65476700  0.50937500  0.14993200  1
  O  O3  1  0.84523300  0.50937500  0.64993200  1
  O  O4  1  0.46076800  0.81601000  0.66876500  1
  O  O5  1  0.03923200  0.81601000  0.16876500  1
  O  O6  1  0.53923200  0.18399000  0.33123500  1
  O  O7  1  0.96076800  0.18399000  0.83123500  1
  O  O8  1  0.53918600  0.43468400  0.82505500  1
  O  O9  1  0.96081400  0.43468400  0.32505500  1
  O  O10  1  0.46081400  0.56531600  0.17494500  1
  O  O11  1  0.03918600  0.56531600  0.67494500  1
  O  O12  1  0.30861300  0.67281400  0.56125700  1
  O  O13  1  0.19138700  0.67281400  0.06125700  1
  O  O14  1  0.69138700  0.32718600  0.43874300  1
  O  O15  1  0.80861300  0.32718600  0.93874300  1
  O  O16  1  0.26527800  0.88871900  0.71272900  1
  O  O17  1  0.23472200  0.88871900  0.21272900  1
  O  O18  1  0.73472200  0.11128100  0.28727100  1
  O  O19  1  0.76527800  0.11128100  0.78727100  1
  F  F0  1  0.57080700  0.63523800  0.55762300  1
  F  F1  1  0.92919300  0.63523800  0.05762300  1
  F  F2  1  0.42919300  0.36476200  0.44237700  1
  F  F3  1  0.07080700  0.36476200  0.94237700  1
  F  F4  1  0.64723400  0.77241800  0.71075600  1
  F  F5  1  0.85276600  0.77241800  0.21075600  1
  F  F6  1  0.35276600  0.22758200  0.28924400  1
  F  F7  1  0.14723400  0.22758200  0.78924400  1
  F  F8  1  0.40854300  0.20219400  0.78813300  1
  F  F9  1  0.09145700  0.20219400  0.28813300  1
  F  F10  1  0.59145700  0.79780600  0.21186700  1
  F  F11  1  0.90854300  0.79780600  0.71186700  1
  F  F12  1  0.43561200  0.16102600  0.02963900  1
  F  F13  1  0.06438800  0.16102600  0.52963900  1
  F  F14  1  0.56438800  0.83897400  0.97036100  1
  F  F15  1  0.93561200  0.83897400  0.47036100  1
loop_
_geom_bond_atom_site_label_1
_geom_bond_atom_site_label_2
_geom_bond_distance
_geom_bond_site_symmetry_2
Na0 O18 2.382786 1_565
Na0 O14 2.411044 1_555
Na0 O3 2.529036 1_555
Na1 O19 2.382786 1_565
Na1 O15 2.411044 1_555
Na1 O2 2.529036 1_556
Na2 O16 2.382786 1_545
Na2 O12 2.411044 1_555
Na2 O1 2.529036 1_555
Na3 O17 2.382786 1_545
Na3 O13 2.411044 1_555
Na3 O0 2.529036 1_554
Na4 O12 2.401451 1_555
Na4 O17 2.543445 1_555
Na4 O6 2.734214 1_565
Na4 O10 2.934009 1_555
Na5 O13 2.401451 1_556
Na5 O16 2.543445 1_555
Na5 O7 2.734214 1_465
Na5 O11 2.934009 1_555
Na6 O14 2.401451 1_555
Na6 O19 2.543445 1_555
Na6 O4 2.734214 1_545
Na6 O8 2.934009 1_555
Na7 O15 2.401451 1_554
Na7 O18 2.543445 1_555
Na7 O5 2.734214 1_645
Na7 O9 2.934009 1_555
Na8 O12 2.298671 1_555
Na8 O11 2.397846 1_555
Na8 O17 2.554097 1_555
Na8 O1 2.926093 1_555
Na9 O13 2.298671 1_556
Na9 O10 2.397846 1_556
Na9 O16 2.554097 1_555
Na9 O0 2.926093 1_555
Na10 O14 2.298671 1_555
Na10 O9 2.397846 1_555
Na10 O19 2.554097 1_555
Na10 O3 2.926093 1_555
Na11 O15 2.298671 1_554
Na11 O8 2.397846 1_554
Na11 O18 2.554097 1_555
Na11 O2 2.926093 1_555
B0 O8 1.424068 1_555
B0 F12 1.437254 1_556
B0 O0 1.471276 1_555
B0 F8 1.482161 1_555
B1 O9 1.424068 1_455
B1 F13 1.437254 1_555
B1 O1 1.471276 1_555
B1 F9 1.482161 1_555
B2 O10 1.424068 1_555
B2 F14 1.437254 1_554
B2 O2 1.471276 1_555
B2 F10 1.482161 1_555
B3 O11 1.424068 1_655
B3 F15 1.437254 1_555
B3 O3 1.471276 1_555
B3 F11 1.482161 1_555
B4 F4 1.433240 1_555
B4 O8 1.437718 1_555
B4 F0 1.462251 1_555
B4 O4 1.482295 1_555
B5 F5 1.433240 1_555
B5 O9 1.437718 1_555
B5 F1 1.462251 1_555
B5 O5 1.482295 1_655
B6 F6 1.433240 1_555
B6 O10 1.437718 1_555
B6 F2 1.462251 1_555
B6 O6 1.482295 1_555
B7 F7 1.433240 1_555
B7 O11 1.437718 1_555
B7 F3 1.462251 1_555
B7 O7 1.482295 1_455
O0 P0 1.612130 1_555
O1 P1 1.612130 1_555
O2 P2 1.612130 1_555
O3 P3 1.612130 1_555
O4 P0 1.596947 1_555
O5 P1 1.596947 1_555
O6 P2 1.596947 1_555
O7 P3 1.596947 1_555
O12 P0 1.518828 1_555
O13 P1 1.518828 1_555
O14 P2 1.518828 1_555
O15 P3 1.518828 1_555
O16 P0 1.512135 1_555
O17 P1 1.512135 1_555
O18 P2 1.512135 1_555
O19 P3 1.512135 1_555
F0 Na0 2.361667 1_555
F0 Na4 2.689655 1_555
F0 Na6 2.748460 1_555
F1 Na1 2.361667 1_554
F1 Na5 2.689655 1_654
F1 Na7 2.748460 1_555
F2 Na2 2.361667 1_555
F2 Na6 2.689655 1_555
F2 Na4 2.748460 1_555
F3 Na3 2.361667 1_556
F3 Na7 2.689655 1_456
F3 Na5 2.748460 1_555
F4 Na1 2.362446 1_555
F4 Na6 2.574211 1_565
F5 Na0 2.362446 1_555
F5 Na7 2.574211 1_565
F6 Na3 2.362446 1_555
F6 Na4 2.574211 1_545
F7 Na2 2.362446 1_555
F7 Na5 2.574211 1_545
F8 Na9 2.316894 1_545
F8 Na2 2.462766 1_555
F8 Na6 2.507837 1_555
F9 Na8 2.316894 1_545
F9 Na3 2.462766 1_555
F9 Na7 2.507837 1_455
F10 Na11 2.316894 1_565
F10 Na0 2.462766 1_555
F10 Na4 2.507837 1_555
F11 Na10 2.316894 1_565
F11 Na1 2.462766 1_555
F11 Na5 2.507837 1_655
F12 Na11 2.562482 1_555
F12 Na9 2.770479 1_544
F12 Na4 2.790018 1_545
F12 Na3 2.842803 1_555
F13 Na10 2.562482 1_455
F13 Na8 2.770479 1_545
F13 Na5 2.790018 1_545
F13 Na2 2.842803 1_555
F14 Na9 2.562482 1_555
F14 Na11 2.770479 1_566
F14 Na6 2.790018 1_565
F14 Na1 2.842803 1_555
F15 Na8 2.562482 1_655
F15 Na10 2.770479 1_565
F15 Na7 2.790018 1_565
F15 Na0 2.842803 1_555
