# generated using pymatgen
data_Na2H18SO9
_symmetry_space_group_name_H-M   'P 1'
_cell_length_a   9.38767900
_cell_length_b   9.38767900
_cell_length_c   12.85283200
_cell_angle_alpha   90.00000000
_cell_angle_beta   90.00000000
_cell_angle_gamma   90.00000000
_symmetry_Int_Tables_number   1
_chemical_formula_structural   Na2H18SO9
_chemical_formula_sum   'Na8 H72 S4 O36'
_cell_volume   1132.70102350
_cell_formula_units_Z   4
loop_
 _symmetry_equiv_pos_site_id
 _symmetry_equiv_pos_as_xyz
  1  'x, y, z'
loop_
 _atom_site_type_symbol
 _atom_site_label
 _atom_site_symmetry_multiplicity
 _atom_site_fract_x
 _atom_site_fract_y
 _atom_site_fract_z
 _atom_site_occupancy
  Na  Na0  1  0.69428800  0.50000000  0.75000000  1
  Na  Na1  1  0.30571200  0.50000000  0.25000000  1
  Na  Na2  1  0.50000000  0.69428800  0.50000000  1
  Na  Na3  1  0.50000000  0.30571200  0.00000000  1
  Na  Na4  1  0.00000000  0.85305800  0.00000000  1
  Na  Na5  1  0.00000000  0.14694200  0.50000000  1
  Na  Na6  1  0.14694200  0.00000000  0.75000000  1
  Na  Na7  1  0.85305800  0.00000000  0.25000000  1
  H  H0  1  0.40870900  0.50234100  0.66225500  1
  H  H1  1  0.59129100  0.49765900  0.16225500  1
  H  H2  1  0.49765900  0.40870900  0.41225500  1
  H  H3  1  0.50234100  0.59129100  0.91225500  1
  H  H4  1  0.59129100  0.50234100  0.33774500  1
  H  H5  1  0.40870900  0.49765900  0.83774500  1
  H  H6  1  0.50234100  0.40870900  0.58774500  1
  H  H7  1  0.49765900  0.59129100  0.08774500  1
  H  H8  1  0.11259200  0.79548800  0.21327800  1
  H  H9  1  0.88740800  0.20451200  0.71327800  1
  H  H10  1  0.20451200  0.11259200  0.96327800  1
  H  H11  1  0.79548800  0.88740800  0.46327800  1
  H  H12  1  0.88740800  0.79548800  0.78672200  1
  H  H13  1  0.11259200  0.20451200  0.28672200  1
  H  H14  1  0.79548800  0.11259200  0.03672200  1
  H  H15  1  0.20451200  0.88740800  0.53672200  1
  H  H16  1  0.96176000  0.72249600  0.21820900  1
  H  H17  1  0.03824000  0.27750400  0.71820900  1
  H  H18  1  0.27750400  0.96176000  0.96820900  1
  H  H19  1  0.72249600  0.03824000  0.46820900  1
  H  H20  1  0.03824000  0.72249600  0.78179100  1
  H  H21  1  0.96176000  0.27750400  0.28179100  1
  H  H22  1  0.72249600  0.96176000  0.03179100  1
  H  H23  1  0.27750400  0.03824000  0.53179100  1
  H  H24  1  0.97806600  0.52861900  0.65817300  1
  H  H25  1  0.02193400  0.47138100  0.15817300  1
  H  H26  1  0.47138100  0.97806600  0.40817300  1
  H  H27  1  0.52861900  0.02193400  0.90817300  1
  H  H28  1  0.02193400  0.52861900  0.34182700  1
  H  H29  1  0.97806600  0.47138100  0.84182700  1
  H  H30  1  0.52861900  0.97806600  0.59182700  1
  H  H31  1  0.47138100  0.02193400  0.09182700  1
  H  H32  1  0.87282600  0.45229900  0.57830100  1
  H  H33  1  0.12717400  0.54770100  0.07830100  1
  H  H34  1  0.54770100  0.87282600  0.32830100  1
  H  H35  1  0.45229900  0.12717400  0.82830100  1
  H  H36  1  0.12717400  0.45229900  0.42169900  1
  H  H37  1  0.87282600  0.54770100  0.92169900  1
  H  H38  1  0.45229900  0.87282600  0.67169900  1
  H  H39  1  0.54770100  0.12717400  0.17169900  1
  H  H40  1  0.72116500  0.70790300  0.01121200  1
  H  H41  1  0.27883500  0.29209700  0.51121200  1
  H  H42  1  0.29209700  0.72116500  0.76121200  1
  H  H43  1  0.70790300  0.27883500  0.26121200  1
  H  H44  1  0.27883500  0.70790300  0.98878800  1
  H  H45  1  0.72116500  0.29209700  0.48878800  1
  H  H46  1  0.70790300  0.72116500  0.23878800  1
  H  H47  1  0.29209700  0.27883500  0.73878800  1
  H  H48  1  0.81691200  0.61937700  0.08822200  1
  H  H49  1  0.18308800  0.38062300  0.58822200  1
  H  H50  1  0.38062300  0.81691200  0.83822200  1
  H  H51  1  0.61937700  0.18308800  0.33822200  1
  H  H52  1  0.18308800  0.61937700  0.91177800  1
  H  H53  1  0.81691200  0.38062300  0.41177800  1
  H  H54  1  0.61937700  0.81691200  0.16177800  1
  H  H55  1  0.38062300  0.18308800  0.66177800  1
  H  H56  1  0.81521100  0.65495300  0.52618300  1
  H  H57  1  0.18478900  0.34504700  0.02618300  1
  H  H58  1  0.34504700  0.81521100  0.27618300  1
  H  H59  1  0.65495300  0.18478900  0.77618300  1
  H  H60  1  0.18478900  0.65495300  0.47381700  1
  H  H61  1  0.81521100  0.34504700  0.97381700  1
  H  H62  1  0.65495300  0.81521100  0.72381700  1
  H  H63  1  0.34504700  0.18478900  0.22381700  1
  H  H64  1  0.78655900  0.64610600  0.40601200  1
  H  H65  1  0.21344100  0.35389400  0.90601200  1
  H  H66  1  0.35389400  0.78655900  0.15601200  1
  H  H67  1  0.64610600  0.21344100  0.65601200  1
  H  H68  1  0.21344100  0.64610600  0.59398800  1
  H  H69  1  0.78655900  0.35389400  0.09398800  1
  H  H70  1  0.64610600  0.78655900  0.84398800  1
  H  H71  1  0.35389400  0.21344100  0.34398800  1
  S  S0  1  0.81068200  0.50000000  0.25000000  1
  S  S1  1  0.18931800  0.50000000  0.75000000  1
  S  S2  1  0.50000000  0.81068200  0.00000000  1
  S  S3  1  0.50000000  0.18931800  0.50000000  1
  O  O0  1  0.50134200  0.50134200  0.62500000  1
  O  O1  1  0.49865800  0.49865800  0.12500000  1
  O  O2  1  0.49865800  0.50134200  0.37500000  1
  O  O3  1  0.50134200  0.49865800  0.87500000  1
  O  O4  1  0.00958500  0.81212400  0.19970300  1
  O  O5  1  0.99041500  0.18787600  0.69970300  1
  O  O6  1  0.18787600  0.00958500  0.94970300  1
  O  O7  1  0.81212400  0.99041500  0.44970300  1
  O  O8  1  0.99041500  0.81212400  0.80029700  1
  O  O9  1  0.00958500  0.18787600  0.30029700  1
  O  O10  1  0.81212400  0.00958500  0.05029700  1
  O  O11  1  0.18787600  0.99041500  0.55029700  1
  O  O12  1  0.88205100  0.53524200  0.62565400  1
  O  O13  1  0.11794900  0.46475800  0.12565400  1
  O  O14  1  0.46475800  0.88205100  0.37565400  1
  O  O15  1  0.53524200  0.11794900  0.87565400  1
  O  O16  1  0.11794900  0.53524200  0.37434600  1
  O  O17  1  0.88205100  0.46475800  0.87434600  1
  O  O18  1  0.53524200  0.88205100  0.62434600  1
  O  O19  1  0.46475800  0.11794900  0.12434600  1
  O  O20  1  0.81942700  0.66925100  0.02006800  1
  O  O21  1  0.18057300  0.33074900  0.52006800  1
  O  O22  1  0.33074900  0.81942700  0.77006800  1
  O  O23  1  0.66925100  0.18057300  0.27006800  1
  O  O24  1  0.18057300  0.66925100  0.97993200  1
  O  O25  1  0.81942700  0.33074900  0.47993200  1
  O  O26  1  0.66925100  0.81942700  0.22993200  1
  O  O27  1  0.33074900  0.18057300  0.72993200  1
  O  O28  1  0.76193900  0.70173600  0.46904000  1
  O  O29  1  0.23806100  0.29826400  0.96904000  1
  O  O30  1  0.29826400  0.76193900  0.21904000  1
  O  O31  1  0.70173600  0.23806100  0.71904000  1
  O  O32  1  0.23806100  0.70173600  0.53096000  1
  O  O33  1  0.76193900  0.29826400  0.03096000  1
  O  O34  1  0.70173600  0.76193900  0.78096000  1
  O  O35  1  0.29826400  0.23806100  0.28096000  1
loop_
_geom_bond_atom_site_label_1
_geom_bond_atom_site_label_2
_geom_bond_distance
_geom_bond_site_symmetry_2
Na0 O17 2.402220 1_555
Na0 O12 2.402220 1_555
Na0 O0 2.421198 1_555
Na0 O3 2.421198 1_555
Na0 O34 2.491969 1_555
Na0 O31 2.491969 1_555
Na1 O16 2.402220 1_555
Na1 O13 2.402220 1_555
Na1 O1 2.421198 1_555
Na1 O2 2.421198 1_555
Na1 O30 2.491969 1_555
Na1 O35 2.491969 1_555
Na2 O18 2.402220 1_555
Na2 O14 2.402220 1_555
Na2 O2 2.421198 1_555
Na2 O0 2.421198 1_555
Na2 O28 2.491969 1_555
Na2 O32 2.491969 1_555
Na3 O19 2.402220 1_555
Na3 O15 2.402220 1_554
Na3 O1 2.421198 1_555
Na3 O3 2.421198 1_554
Na3 O33 2.491969 1_555
Na3 O29 2.491969 1_554
Na4 O10 2.384916 1_465
Na4 O6 2.384916 1_564
Na4 O24 2.432596 1_554
Na4 O20 2.432596 1_455
Na4 O4 2.596915 1_555
Na4 O8 2.596915 1_454
Na5 O11 2.384916 1_545
Na5 O7 2.384916 1_445
Na5 O21 2.432596 1_555
Na5 O25 2.432596 1_455
Na5 O9 2.596915 1_555
Na5 O5 2.596915 1_455
Na6 O8 2.384916 1_445
Na6 O5 2.384916 1_455
Na6 O27 2.432596 1_555
Na6 O22 2.432596 1_545
Na6 O6 2.596915 1_555
Na6 O11 2.596915 1_545
Na7 O9 2.384916 1_655
Na7 O4 2.384916 1_645
Na7 O23 2.432596 1_555
Na7 O26 2.432596 1_545
Na7 O7 2.596915 1_545
Na7 O10 2.596915 1_555
H0 O0 0.992768 1_555
H1 O1 0.992768 1_555
H2 O2 0.992768 1_555
H3 O3 0.992768 1_555
H4 O2 0.992768 1_555
H5 O3 0.992768 1_555
H6 O0 0.992768 1_555
H7 O1 0.992768 1_555
H8 O4 0.994945 1_555
H9 O5 0.994945 1_555
H10 O6 0.994945 1_555
H11 O7 0.994945 1_555
H12 O8 0.994945 1_555
H13 O9 0.994945 1_555
H14 O10 0.994945 1_555
H15 O11 0.994945 1_555
H16 O4 0.982902 1_655
H17 O5 0.982902 1_455
H18 O6 0.982902 1_565
H19 O7 0.982902 1_545
H20 O8 0.982902 1_455
H21 O9 0.982902 1_655
H22 O10 0.982902 1_565
H23 O11 0.982902 1_545
H24 O12 0.995492 1_555
H25 O13 0.995492 1_555
H26 O14 0.995492 1_555
H27 O15 0.995492 1_555
H28 O16 0.995492 1_555
H29 O17 0.995492 1_555
H30 O18 0.995492 1_555
H31 O19 0.995492 1_555
H32 O12 0.992070 1_555
H33 O13 0.992070 1_555
H34 O14 0.992070 1_555
H35 O15 0.992070 1_555
H36 O16 0.992070 1_555
H37 O17 0.992070 1_555
H38 O18 0.992070 1_555
H39 O19 0.992070 1_555
H40 O20 0.997765 1_555
H41 O21 0.997765 1_555
H42 O22 0.997765 1_555
H43 O23 0.997765 1_555
H44 O24 0.997765 1_555
H45 O25 0.997765 1_555
H46 O26 0.997765 1_555
H47 O27 0.997765 1_555
H48 O20 0.993527 1_555
H49 O21 0.993527 1_555
H50 O22 0.993527 1_555
H51 O23 0.993527 1_555
H52 O24 0.993527 1_555
H53 O25 0.993527 1_555
H54 O26 0.993527 1_555
H55 O27 0.993527 1_555
H56 O28 0.991160 1_555
H57 O29 0.991160 1_554
H58 O30 0.991160 1_555
H59 O31 0.991160 1_555
H60 O32 0.991160 1_555
H61 O33 0.991160 1_556
H62 O34 0.991160 1_555
H63 O35 0.991160 1_555
H64 O28 0.991157 1_555
H65 O29 0.991157 1_555
H66 O30 0.991157 1_555
H67 O31 0.991157 1_555
H68 O32 0.991157 1_555
H69 O33 0.991157 1_555
H70 O34 0.991157 1_555
H71 O35 0.991157 1_555
