# generated using pymatgen
data_Na2Sm2Ti3O10
_symmetry_space_group_name_H-M   'P 1'
_cell_length_a   14.60320788
_cell_length_b   14.60320788
_cell_length_c   14.60320788
_cell_angle_alpha   164.90286601
_cell_angle_beta   164.90286601
_cell_angle_gamma   21.41326413
_symmetry_Int_Tables_number   1
_chemical_formula_structural   Na2Sm2Ti3O10
_chemical_formula_sum   'Na2 Sm2 Ti3 O10'
_cell_volume   211.22595368
_cell_formula_units_Z   1
loop_
 _symmetry_equiv_pos_site_id
 _symmetry_equiv_pos_as_xyz
  1  'x, y, z'
loop_
 _atom_site_type_symbol
 _atom_site_label
 _atom_site_symmetry_multiplicity
 _atom_site_fract_x
 _atom_site_fract_y
 _atom_site_fract_z
 _atom_site_occupancy
  Na  Na0  1  0.71216600  0.71216600  0.00000000  1
  Na  Na1  1  0.28783400  0.28783400  0.00000000  1
  Sm  Sm0  1  0.57538300  0.57538300  0.00000000  1
  Sm  Sm1  1  0.42461700  0.42461700  0.00000000  1
  Ti  Ti0  1  0.85397600  0.85397600  0.00000000  1
  Ti  Ti1  1  0.14602400  0.14602400  0.00000000  1
  Ti  Ti2  1  0.00000000  0.00000000  0.00000000  1
  O  O0  1  0.36923300  0.86923300  0.50000000  1
  O  O1  1  0.86923300  0.36923300  0.50000000  1
  O  O2  1  0.63076700  0.13076700  0.50000000  1
  O  O3  1  0.13076700  0.63076700  0.50000000  1
  O  O4  1  0.79244200  0.79244200  0.00000000  1
  O  O5  1  0.20755800  0.20755800  0.00000000  1
  O  O6  1  0.50000000  0.00000000  0.50000000  1
  O  O7  1  0.06737700  0.06737700  0.00000000  1
  O  O8  1  0.93262300  0.93262300  0.00000000  1
  O  O9  1  0.00000000  0.50000000  0.50000000  1
loop_
_geom_bond_atom_site_label_1
_geom_bond_atom_site_label_2
_geom_bond_distance
_geom_bond_site_symmetry_2
Na0 O4 2.303758 1_555
Na0 O5 2.716210 1_655
Na0 O5 2.716210 1_565
Na0 O5 2.716210 1_554
Na0 O5 2.716210 1_666
Na1 O5 2.303758 1_555
Na1 O4 2.716210 1_545
Na1 O4 2.716210 1_455
Na1 O4 2.716210 1_444
Na1 O4 2.716210 1_556
O0 Ti0 1.967705 1_455
O0 Ti0 1.967705 1_556
O0 Sm1 2.491260 1_566
O0 Sm1 2.491260 1_555
O1 Ti0 1.967705 1_545
O1 Ti0 1.967705 1_556
O1 Sm1 2.491260 1_656
O1 Sm1 2.491260 1_555
O2 Ti1 1.967705 1_656
O2 Ti1 1.967705 1_555
O2 Sm0 2.491260 1_545
O2 Sm0 2.491260 1_556
O3 Ti1 1.967705 1_566
O3 Ti1 1.967705 1_555
O3 Sm0 2.491260 1_556
O3 Sm0 2.491260 1_455
O4 Ti0 1.765901 1_555
O5 Ti1 1.765901 1_555
O6 Ti2 1.918373 1_656
O6 Ti2 1.918373 1_555
O6 Sm0 2.891399 1_545
O6 Sm0 2.891399 1_556
O6 Sm1 2.891399 1_556
O6 Sm1 2.891399 1_545
O7 Ti2 1.933583 1_555
O7 Ti1 2.257009 1_555
O7 Sm0 2.722700 1_556
O7 Sm0 2.722700 1_545
O7 Sm0 2.722700 1_444
O7 Sm0 2.722700 1_455
O8 Ti2 1.933583 1_665
O8 Ti0 2.257009 1_555
O8 Sm1 2.722700 1_554
O8 Sm1 2.722700 1_655
O8 Sm1 2.722700 1_565
O8 Sm1 2.722700 1_666
O9 Ti2 1.918373 1_566
O9 Ti2 1.918373 1_555
O9 Sm0 2.891399 1_556
O9 Sm1 2.891399 1_455
O9 Sm0 2.891399 1_455
O9 Sm1 2.891399 1_556
