# generated using pymatgen
data_Li7Mn4(P2O7)4
_symmetry_space_group_name_H-M   'P 1'
_cell_length_a   9.90031500
_cell_length_b   9.90395328
_cell_length_c   11.32547272
_cell_angle_alpha   102.66467253
_cell_angle_beta   90.21139158
_cell_angle_gamma   90.34185187
_symmetry_Int_Tables_number   1
_chemical_formula_structural   Li7Mn4(P2O7)4
_chemical_formula_sum   'Li14 Mn8 P16 O56'
_cell_volume   1083.43639027
_cell_formula_units_Z   2
loop_
 _symmetry_equiv_pos_site_id
 _symmetry_equiv_pos_as_xyz
  1  'x, y, z'
loop_
 _atom_site_type_symbol
 _atom_site_label
 _atom_site_symmetry_multiplicity
 _atom_site_fract_x
 _atom_site_fract_y
 _atom_site_fract_z
 _atom_site_occupancy
  Li  Li0  1  0.28708000  0.11349900  0.44976100  1
  Li  Li1  1  0.89307800  0.08599500  0.02832700  1
  Li  Li2  1  0.08961800  0.34454300  0.95738700  1
  Li  Li3  1  0.59092300  0.15497800  0.04352100  1
  Li  Li4  1  0.39209400  0.41458700  0.97044600  1
  Li  Li5  1  0.07966300  0.33588800  0.45761200  1
  Li  Li6  1  0.77577300  0.38236900  0.55209800  1
  Li  Li7  1  0.93025500  0.66327700  0.54108700  1
  Li  Li8  1  0.60788400  0.58425600  0.02936900  1
  Li  Li9  1  0.40917800  0.84563200  0.95499800  1
  Li  Li10  1  0.90894100  0.65483500  0.04317400  1
  Li  Li11  1  0.10701000  0.91477700  0.97164900  1
  Li  Li12  1  0.41906600  0.82871400  0.45478400  1
  Li  Li13  1  0.71951000  0.89482300  0.55285700  1
  Mn  Mn0  1  0.08054400  0.20107600  0.67329000  1
  Mn  Mn1  1  0.78422400  0.25244900  0.82004100  1
  Mn  Mn2  1  0.28399200  0.24781000  0.17820700  1
  Mn  Mn3  1  0.57390800  0.29594400  0.33297000  1
  Mn  Mn4  1  0.41971000  0.69971600  0.67046300  1
  Mn  Mn5  1  0.71465800  0.75517100  0.82267000  1
  Mn  Mn6  1  0.21575900  0.74267700  0.17929200  1
  Mn  Mn7  1  0.92357300  0.79909300  0.32841500  1
  P  P0  1  0.54345000  0.02301600  0.75724500  1
  P  P1  1  0.29637800  0.11865600  0.89169900  1
  P  P2  1  0.06894800  0.05904500  0.24385700  1
  P  P3  1  0.84851100  0.12462000  0.42420100  1
  P  P4  1  0.35261500  0.37788200  0.57395400  1
  P  P5  1  0.56724100  0.44117300  0.75654100  1
  P  P6  1  0.95288600  0.52474000  0.76045600  1
  P  P7  1  0.79478500  0.38090200  0.10752000  1
  P  P8  1  0.20377300  0.61853700  0.89151500  1
  P  P9  1  0.04599500  0.47529900  0.24243100  1
  P  P10  1  0.43276600  0.55960000  0.24333800  1
  P  P11  1  0.64957800  0.62269500  0.42606700  1
  P  P12  1  0.15129300  0.87572800  0.57421400  1
  P  P13  1  0.93296400  0.93986800  0.75553000  1
  P  P14  1  0.70391500  0.88108400  0.10883500  1
  P  P15  1  0.45409600  0.97309100  0.23996700  1
  O  O0  1  0.58451600  0.01868600  0.62984900  1
  O  O1  1  0.16499000  0.02361100  0.55464000  1
  O  O2  1  0.91415200  0.08556100  0.73026900  1
  O  O3  1  0.63492400  0.10893000  0.85708600  1
  O  O4  1  0.39685700  0.09473600  0.77594600  1
  O  O5  1  0.17103700  0.18243800  0.84727600  1
  O  O6  1  0.36723200  0.22323100  0.99755200  1
  O  O7  1  0.72347000  0.01949200  0.07592700  1
  O  O8  1  0.92227300  0.11223300  0.29421300  1
  O  O9  1  0.06577700  0.06373900  0.11114100  1
  O  O10  1  0.46848400  0.12280500  0.21527600  1
  O  O11  1  0.71311900  0.19200500  0.41106000  1
  O  O12  1  0.17461100  0.16279600  0.31338700  1
  O  O13  1  0.93638200  0.22327600  0.51795500  1
  O  O14  1  0.42890300  0.28120300  0.47409200  1
  O  O15  1  0.68049500  0.34760200  0.69400300  1
  O  O16  1  0.21070200  0.31764500  0.58388700  1
  O  O17  1  0.96672300  0.37729200  0.78674700  1
  O  O18  1  0.42348300  0.37914000  0.70326900  1
  O  O19  1  0.56157300  0.44076200  0.88961000  1
  O  O20  1  0.22272800  0.48031100  0.92429900  1
  O  O21  1  0.86466800  0.27665200  0.00159100  1
  O  O22  1  0.66959100  0.31719600  0.15309000  1
  O  O23  1  0.89696700  0.40526400  0.22210200  1
  O  O24  1  0.41618900  0.41351200  0.27099800  1
  O  O25  1  0.13614200  0.38797500  0.14380700  1
  O  O26  1  0.91334900  0.52258600  0.63066600  1
  O  O27  1  0.65786200  0.47429300  0.44518400  1
  O  O28  1  0.34860100  0.53065900  0.56424500  1
  O  O29  1  0.07942300  0.47467800  0.37099500  1
  O  O30  1  0.86340200  0.61544300  0.85691300  1
  O  O31  1  0.57849500  0.58947900  0.72875900  1
  O  O32  1  0.10126300  0.59604400  0.77654000  1
  O  O33  1  0.32884600  0.68258200  0.84559300  1
  O  O34  1  0.13532400  0.72295600  0.99833700  1
  O  O35  1  0.77671600  0.51945300  0.07441900  1
  O  O36  1  0.43778200  0.55880600  0.10974300  1
  O  O37  1  0.58143600  0.61382400  0.29518600  1
  O  O38  1  0.03446100  0.62466500  0.21534800  1
  O  O39  1  0.79032900  0.68593100  0.41879700  1
  O  O40  1  0.33052000  0.66704600  0.30786500  1
  O  O41  1  0.56385200  0.72316500  0.51840000  1
  O  O42  1  0.05949900  0.78229100  0.48325900  1
  O  O43  1  0.82709800  0.83569800  0.68641100  1
  O  O44  1  0.29348200  0.81770000  0.58958000  1
  O  O45  1  0.52553900  0.87154300  0.78379900  1
  O  O46  1  0.93513000  0.93598500  0.88850600  1
  O  O47  1  0.08080100  0.88678700  0.70586100  1
  O  O48  1  0.27654000  0.98030600  0.92499000  1
  O  O49  1  0.63272900  0.77668700  0.00313100  1
  O  O50  1  0.82881300  0.81755400  0.15417900  1
  O  O51  1  0.60179400  0.90421400  0.22433100  1
  O  O52  1  0.36250600  0.88505200  0.14113900  1
  O  O53  1  0.08739400  0.91248900  0.26799700  1
  O  O54  1  0.83713700  0.97643500  0.44278700  1
  O  O55  1  0.41139500  0.97261600  0.36737300  1
loop_
_geom_bond_atom_site_label_1
_geom_bond_atom_site_label_2
_geom_bond_distance
_geom_bond_site_symmetry_2
Li0 O55 1.946882 1_545
Li0 O1 2.031225 1_555
Li0 O12 2.046495 1_555
Li0 O14 2.138862 1_555
Li0 O16 2.376375 1_555
Li1 O7 1.921777 1_555
Li1 O46 1.966936 1_544
Li1 O9 1.983659 1_655
Li1 O21 1.998183 1_555
Li2 O20 1.971956 1_555
Li2 O5 1.981774 1_555
Li2 O25 2.108787 1_556
Li2 O17 2.362759 1_455
Li2 O21 2.408437 1_456
Li3 O22 1.957389 1_555
Li3 O7 1.972479 1_555
Li3 O3 2.107832 1_554
Li3 O10 2.374727 1_555
Li3 O6 2.407522 1_554
Li4 O20 1.914201 1_555
Li4 O36 1.931978 1_556
Li4 O19 1.957268 1_555
Li4 O6 1.999160 1_555
Li5 O29 1.855548 1_555
Li5 O16 1.965545 1_555
Li5 O13 2.011386 1_455
Li5 O12 2.300697 1_555
Li6 O15 1.959901 1_555
Li6 O26 2.000522 1_555
Li6 O27 2.035525 1_555
Li6 O13 2.219870 1_555
Li6 O11 2.269137 1_555
Li7 O26 1.901884 1_555
Li7 O42 1.944798 1_655
Li7 O39 2.003357 1_555
Li7 O43 2.338541 1_555
Li8 O35 1.901632 1_555
Li8 O19 1.932817 1_554
Li8 O36 1.958329 1_555
Li8 O49 2.006056 1_555
Li9 O48 1.958391 1_555
Li9 O33 1.968639 1_555
Li9 O52 2.111541 1_556
Li9 O45 2.320234 1_555
Li9 O49 2.415396 1_556
Li10 O35 1.956322 1_555
Li10 O50 1.985240 1_555
Li10 O30 2.106050 1_554
Li10 O38 2.382835 1_655
Li10 O34 2.424227 1_654
Li11 O48 1.913477 1_555
Li11 O9 1.956770 1_566
Li11 O46 1.976266 1_455
Li11 O34 2.009139 1_555
Li12 O55 1.906936 1_555
Li12 O44 1.993426 1_555
Li12 O41 2.001769 1_555
Li12 O40 2.214744 1_555
Li13 O0 1.900136 1_565
Li13 O54 2.001195 1_555
Li13 O43 2.036964 1_555
Li13 O41 2.256294 1_555
Li13 O39 2.392651 1_555
Mn0 O16 2.126742 1_555
Mn0 O1 2.141039 1_555
Mn0 O2 2.179009 1_455
Mn0 O5 2.206339 1_555
Mn0 O17 2.239999 1_455
Mn0 O13 2.309792 1_455
Mn1 O15 2.137967 1_555
Mn1 O3 2.149941 1_555
Mn1 O21 2.165404 1_556
Mn1 O2 2.172190 1_555
Mn1 O17 2.262363 1_555
Mn2 O25 2.116279 1_555
Mn2 O24 2.172220 1_555
Mn2 O6 2.172780 1_554
Mn2 O12 2.189083 1_555
Mn2 O10 2.300967 1_555
Mn3 O11 2.036792 1_555
Mn3 O27 2.101513 1_555
Mn3 O24 2.158368 1_555
Mn3 O14 2.180246 1_555
Mn3 O10 2.184638 1_555
Mn3 O22 2.300399 1_555
Mn4 O28 1.960264 1_555
Mn4 O44 2.060247 1_555
Mn4 O31 2.104291 1_555
Mn4 O45 2.156928 1_555
Mn4 O33 2.220578 1_555
Mn4 O41 2.290391 1_555
Mn5 O30 2.118842 1_555
Mn5 O49 2.168824 1_556
Mn5 O43 2.190541 1_555
Mn5 O31 2.199790 1_555
Mn5 O45 2.295639 1_555
Mn6 O40 2.109157 1_555
Mn6 O52 2.129114 1_555
Mn6 O34 2.164005 1_554
Mn6 O53 2.178735 1_555
Mn6 O38 2.223546 1_555
Mn7 O54 2.126865 1_555
Mn7 O39 2.130592 1_555
Mn7 O53 2.164119 1_655
Mn7 O38 2.211864 1_655
Mn7 O50 2.225777 1_555
Mn7 O42 2.242152 1_655
O0 P0 1.492069 1_555
O1 P12 1.533912 1_545
O2 P13 1.543512 1_545
O3 P0 1.544056 1_555
O4 P0 1.613792 1_555
O4 P1 1.624980 1_555
O5 P1 1.528442 1_555
O6 P1 1.562895 1_555
O7 P14 1.508916 1_545
O8 P2 1.610876 1_655
O8 P3 1.626484 1_555
O9 P2 1.514160 1_555
O10 P15 1.573739 1_545
O11 P3 1.522181 1_555
O12 P2 1.548080 1_555
O13 P3 1.538526 1_555
O14 P4 1.518705 1_555
O15 P5 1.532356 1_555
O16 P4 1.537251 1_555
O17 P6 1.559713 1_555
O18 P5 1.608662 1_555
O18 P4 1.619151 1_555
O19 P5 1.509217 1_555
O20 P8 1.507523 1_555
O21 P7 1.566997 1_555
O22 P7 1.529341 1_555
O23 P7 1.617324 1_555
O23 P9 1.620572 1_655
O24 P10 1.553939 1_555
O25 P9 1.544373 1_555
O26 P6 1.515348 1_555
O27 P11 1.534490 1_555
O28 P4 1.541678 1_555
O29 P9 1.493330 1_555
O30 P6 1.539982 1_555
O31 P5 1.571557 1_555
O32 P6 1.618341 1_455
O32 P8 1.623438 1_555
O33 P8 1.531716 1_555
O34 P8 1.567853 1_555
O35 P7 1.511119 1_555
O36 P10 1.512322 1_555
O37 P11 1.610848 1_555
O37 P10 1.626516 1_555
O38 P9 1.579940 1_555
O39 P11 1.534224 1_555
O40 P10 1.538980 1_555
O41 P11 1.537635 1_555
O42 P12 1.519356 1_555
O43 P13 1.550038 1_555
O44 P12 1.547236 1_555
O45 P0 1.602335 1_565
O46 P13 1.514989 1_555
O47 P13 1.618831 1_455
O47 P12 1.630647 1_555
O48 P1 1.510655 1_565
O49 P14 1.562440 1_555
O50 P14 1.528039 1_555
O51 P15 1.611128 1_555
O51 P14 1.633027 1_555
O52 P15 1.546097 1_555
O53 P2 1.546513 1_565
O54 P3 1.531193 1_565
O55 P15 1.506072 1_555
