# generated using pymatgen
data_Cs2Zn5P6(HO2)14
_symmetry_space_group_name_H-M   'P 1'
_cell_length_a   8.84692400
_cell_length_b   10.05087927
_cell_length_c   10.09675912
_cell_angle_alpha   114.05136502
_cell_angle_beta   95.04983616
_cell_angle_gamma   112.79884133
_symmetry_Int_Tables_number   1
_chemical_formula_structural   Cs2Zn5P6(HO2)14
_chemical_formula_sum   'Cs2 Zn5 P6 H14 O28'
_cell_volume   722.82152767
_cell_formula_units_Z   1
loop_
 _symmetry_equiv_pos_site_id
 _symmetry_equiv_pos_as_xyz
  1  'x, y, z'
loop_
 _atom_site_type_symbol
 _atom_site_label
 _atom_site_symmetry_multiplicity
 _atom_site_fract_x
 _atom_site_fract_y
 _atom_site_fract_z
 _atom_site_occupancy
  Cs  Cs0  1  0.45867800  0.73431000  0.53811500  1
  Cs  Cs1  1  0.54132200  0.26569000  0.46188500  1
  Zn  Zn0  1  0.61218600  0.46038200  0.82792900  1
  Zn  Zn1  1  0.38781400  0.53961800  0.17207100  1
  Zn  Zn2  1  0.06218300  0.22091200  0.84075000  1
  Zn  Zn3  1  0.93781700  0.77908800  0.15925000  1
  Zn  Zn4  1  0.00000000  0.00000000  0.50000000  1
  P  P0  1  0.40319500  0.08011900  0.92883000  1
  P  P1  1  0.59680500  0.91988100  0.07117000  1
  P  P2  1  0.89827000  0.65284200  0.47986600  1
  P  P3  1  0.10173000  0.34715800  0.52013400  1
  P  P4  1  0.24714000  0.49115800  0.94671600  1
  P  P5  1  0.75286000  0.50884200  0.05328400  1
  H  H0  1  0.05881200  0.21918200  0.23202600  1
  H  H1  1  0.94118800  0.78081800  0.76797400  1
  H  H2  1  0.92569300  0.03809400  0.25668600  1
  H  H3  1  0.07430700  0.96190600  0.74331400  1
  H  H4  1  0.25959700  0.93033100  0.35549500  1
  H  H5  1  0.74040300  0.06966900  0.64450500  1
  H  H6  1  0.37529700  0.11844100  0.25697600  1
  H  H7  1  0.62470300  0.88155900  0.74302400  1
  H  H8  1  0.70349700  0.80032600  0.91996500  1
  H  H9  1  0.29650300  0.19967400  0.08003500  1
  H  H10  1  0.16560100  0.64450100  0.38928200  1
  H  H11  1  0.83439900  0.35549900  0.61071800  1
  H  H12  1  0.11939700  0.64635500  0.96725400  1
  H  H13  1  0.88060300  0.35364500  0.03274600  1
  O  O0  1  0.21336100  0.92961200  0.06242300  1
  O  O1  1  0.78663900  0.07038800  0.93757700  1
  O  O2  1  0.37246100  0.15036100  0.78915100  1
  O  O3  1  0.62753900  0.84963900  0.21084900  1
  O  O4  1  0.42151800  0.22678800  0.99849100  1
  O  O5  1  0.57848200  0.77321200  0.00150900  1
  O  O6  1  0.17326400  0.09017500  0.81109400  1
  O  O7  1  0.82673600  0.90982500  0.18890600  1
  O  O8  1  0.78163600  0.48993100  0.62701200  1
  O  O9  1  0.21836400  0.51006900  0.37298800  1
  O  O10  1  0.86321200  0.77955300  0.51576500  1
  O  O11  1  0.13678800  0.22044700  0.48423500  1
  O  O12  1  0.85047600  0.61641900  0.36343800  1
  O  O13  1  0.14952400  0.38358100  0.63656200  1
  O  O14  1  0.12340700  0.71953100  0.41712100  1
  O  O15  1  0.87659300  0.28046900  0.58287900  1
  O  O16  1  0.21679500  0.42824500  0.10661600  1
  O  O17  1  0.78320500  0.57175500  0.89338400  1
  O  O18  1  0.08071800  0.36060400  0.94662400  1
  O  O19  1  0.91928200  0.63939600  0.05337600  1
  O  O20  1  0.44727300  0.54305200  0.82028900  1
  O  O21  1  0.55272700  0.45694800  0.17971100  1
  O  O22  1  0.24392600  0.65218500  0.90408700  1
  O  O23  1  0.75607400  0.34781500  0.09591300  1
  O  O24  1  0.00859100  0.10323700  0.28875600  1
  O  O25  1  0.99140900  0.89676300  0.71124400  1
  O  O26  1  0.29299500  0.03429600  0.36143500  1
  O  O27  1  0.70700500  0.96570400  0.63856500  1
loop_
_geom_bond_atom_site_label_1
_geom_bond_atom_site_label_2
_geom_bond_distance
_geom_bond_site_symmetry_2
Cs0 H7 1.978046 1_555
Cs0 O9 2.231363 1_555
Cs0 O27 2.233692 1_555
Cs0 H10 2.488041 1_555
Cs1 H6 1.978046 1_555
Cs1 O8 2.231363 1_555
Cs1 O26 2.233692 1_555
Cs1 H11 2.488041 1_555
H0 O24 1.439150 1_555
H1 O25 1.439150 1_555
H2 O24 0.696166 1_655
H2 O7 1.094313 1_545
H3 O25 0.696166 1_455
H3 O6 1.094313 1_565
H4 O26 0.943036 1_565
H5 O27 0.943036 1_545
H6 O26 1.656150 1_555
H7 O27 1.656150 1_555
H8 O5 1.443946 1_556
H9 O4 1.443946 1_554
H10 O14 0.922442 1_555
H10 O9 1.546518 1_555
H11 O15 0.922442 1_555
H11 O8 1.546518 1_555
H12 O22 1.314560 1_555
H13 O23 1.314560 1_555
O2 O6 1.694831 1_555
O2 P0 1.858537 1_555
O2 O4 1.871543 1_555
O3 O7 1.694831 1_555
O3 P1 1.858537 1_555
O3 O5 1.871543 1_555
O4 P0 1.282066 1_555
O5 P1 1.282066 1_555
O6 Zn2 1.874545 1_555
O7 Zn3 1.874545 1_555
O10 P2 1.341331 1_555
O10 Zn4 2.154635 1_665
O11 P3 1.341331 1_555
O11 Zn4 2.154635 1_555
O12 P2 1.066050 1_555
O13 P3 1.066050 1_555
O16 Zn1 1.373813 1_555
O17 Zn0 1.373813 1_555
O18 Zn2 1.306996 1_555
O18 P4 1.546308 1_555
O19 Zn3 1.306996 1_555
O19 P5 1.546308 1_555
O20 Zn0 1.948561 1_555
O20 P4 2.293747 1_555
O21 Zn1 1.948561 1_555
O21 P5 2.293747 1_555
O22 P4 1.845755 1_555
O23 P5 1.845755 1_555
