# generated using pymatgen
data_Ba3LiTi3O8
_symmetry_space_group_name_H-M   'P 1'
_cell_length_a   5.91489329
_cell_length_b   5.91129576
_cell_length_c   7.87422159
_cell_angle_alpha   101.13889003
_cell_angle_beta   78.77694671
_cell_angle_gamma   120.77642270
_symmetry_Int_Tables_number   1
_chemical_formula_structural   Ba3LiTi3O8
_chemical_formula_sum   'Ba3 Li1 Ti3 O8'
_cell_volume   230.58757232
_cell_formula_units_Z   1
loop_
 _symmetry_equiv_pos_site_id
 _symmetry_equiv_pos_as_xyz
  1  'x, y, z'
loop_
 _atom_site_type_symbol
 _atom_site_label
 _atom_site_symmetry_multiplicity
 _atom_site_fract_x
 _atom_site_fract_y
 _atom_site_fract_z
 _atom_site_occupancy
  Ba  Ba0  1  0.06134500  0.93704500  0.05753100  1
  Ba  Ba1  1  0.28962300  0.70749300  0.60480000  1
  Ba  Ba2  1  0.67565900  0.32101300  0.32203900  1
  Li  Li0  1  0.79194300  0.20530100  0.91623500  1
  Ti  Ti0  1  0.96569200  0.03286600  0.49842000  1
  Ti  Ti1  1  0.37392900  0.62055900  0.15462200  1
  Ti  Ti2  1  0.58949700  0.41067700  0.75774500  1
  O  O0  1  0.07038500  0.45447900  0.05194300  1
  O  O1  1  0.18152200  0.31007300  0.34177000  1
  O  O2  1  0.54543000  0.92780900  0.05367000  1
  O  O3  1  0.69333500  0.81940300  0.34372100  1
  O  O4  1  0.28029200  0.20735100  0.65721400  1
  O  O5  1  0.56574400  0.43222100  0.00280700  1
  O  O6  1  0.79483100  0.72198200  0.65911200  1
  O  O7  1  0.77702100  0.22506200  0.67099800  1
loop_
_geom_bond_atom_site_label_1
_geom_bond_atom_site_label_2
_geom_bond_distance
_geom_bond_site_symmetry_2
Ba0 O3 2.728938 1_455
Ba0 O1 2.735934 1_565
Ba0 O0 2.872064 1_555
Ba0 O2 2.885812 1_555
Ba0 O5 2.950357 1_565
Ba0 O5 2.954094 1_455
Ba0 O2 3.030021 1_455
Ba0 O0 3.040425 1_565
Ba1 O1 2.704781 1_555
Ba1 O3 2.713669 1_555
Ba1 O6 2.917299 1_455
Ba1 O4 2.931061 1_565
Ba1 O7 2.950895 1_455
Ba1 O7 2.980892 1_565
Ba1 O4 3.034765 1_555
Ba1 O6 3.056348 1_555
Ba2 O2 2.713867 1_545
Ba2 O0 2.725284 1_655
Ba2 O1 2.864364 1_555
Ba2 O3 2.866557 1_555
Ba2 O5 2.980861 1_555
Ba2 O3 3.058119 1_545
Ba2 O1 3.060065 1_655
Ba2 O4 3.092011 1_555
Ba2 O6 3.122078 1_555
Ba2 O7 3.134154 1_555
Li0 O2 1.900490 1_546
Li0 O0 1.902175 1_656
Li0 O7 1.978495 1_555
Li0 O5 2.276500 1_556
O0 Ti1 1.815379 1_555
O1 Ti0 1.965607 1_455
O1 Ti1 2.256106 1_555
O2 Ti1 1.821573 1_555
O3 Ti0 1.939321 1_565
O3 Ti1 2.305262 1_555
O4 Ti2 1.833717 1_555
O4 Ti0 2.129128 1_455
O5 Ti2 1.891407 1_554
O5 Ti1 2.050917 1_555
O6 Ti2 1.833703 1_555
O6 Ti0 2.121239 1_565
O7 Ti2 1.887260 1_555
O7 Ti0 2.119791 1_555
