# generated using pymatgen
data_Ba2LiV2(Si2O7)2
_symmetry_space_group_name_H-M   'P 1'
_cell_length_a   5.52612199
_cell_length_b   7.27692071
_cell_length_c   8.11648341
_cell_angle_alpha   91.55600432
_cell_angle_beta   108.56838526
_cell_angle_gamma   87.42229970
_symmetry_Int_Tables_number   1
_chemical_formula_structural   Ba2LiV2(Si2O7)2
_chemical_formula_sum   'Ba2 Li1 V2 Si4 O14'
_cell_volume   309.05749165
_cell_formula_units_Z   1
loop_
 _symmetry_equiv_pos_site_id
 _symmetry_equiv_pos_as_xyz
  1  'x, y, z'
loop_
 _atom_site_type_symbol
 _atom_site_label
 _atom_site_symmetry_multiplicity
 _atom_site_fract_x
 _atom_site_fract_y
 _atom_site_fract_z
 _atom_site_occupancy
  Ba  Ba0  1  0.82403900  0.74231500  0.60964800  1
  Ba  Ba1  1  0.20835100  0.27796700  0.39857400  1
  Li  Li0  1  0.26293700  0.88923000  0.47295200  1
  V  V0  1  0.04699800  0.72030000  0.16095800  1
  V  V1  1  0.91102500  0.24634500  0.79091700  1
  Si  Si0  1  0.41104900  0.51910900  0.78573200  1
  Si  Si1  1  0.59580800  0.47760100  0.20175300  1
  Si  Si2  1  0.42136200  0.96852900  0.81648400  1
  Si  Si3  1  0.63784400  0.02444600  0.23230900  1
  O  O0  1  0.13035100  0.43071500  0.70309800  1
  O  O1  1  0.37490800  0.56301200  0.27751800  1
  O  O2  1  0.13278500  0.05456000  0.71582300  1
  O  O3  1  0.47780500  0.96081200  0.35362200  1
  O  O4  1  0.51806900  0.50089400  0.99339600  1
  O  O5  1  0.50425800  0.96822100  0.02673800  1
  O  O6  1  0.98401100  0.74406300  0.94149000  1
  O  O7  1  0.01825900  0.26422400  0.00300000  1
  O  O8  1  0.38407500  0.74729000  0.72881900  1
  O  O9  1  0.64267800  0.25461300  0.25320600  1
  O  O10  1  0.61504600  0.42992300  0.69386700  1
  O  O11  1  0.87226400  0.56529100  0.29465500  1
  O  O12  1  0.62761800  0.05787600  0.73970000  1
  O  O13  1  0.93695600  0.94451600  0.29793000  1
loop_
_geom_bond_atom_site_label_1
_geom_bond_atom_site_label_2
_geom_bond_distance
_geom_bond_site_symmetry_2
Ba0 O6 2.553185 1_555
Ba0 O0 2.740908 1_655
Ba0 O10 2.791434 1_555
Ba0 O3 2.807262 1_555
Ba0 O12 2.817681 1_565
Ba0 O2 2.849986 1_665
Ba0 O8 2.887208 1_555
Ba0 O11 2.913936 1_555
Ba0 O8 2.935397 1_655
Ba1 O1 2.640728 1_555
Ba1 O11 2.698375 1_455
Ba1 O3 2.769108 1_545
Ba1 O0 2.831367 1_555
Ba1 O13 2.871220 1_445
Ba1 Li0 2.890952 1_545
Ba1 O10 2.944007 1_555
Ba1 O9 2.980045 1_455
Ba1 O9 2.989590 1_555
Ba1 O7 3.043996 1_555
Ba1 O2 3.228140 1_555
Ba1 O12 3.379448 1_555
Li0 O3 1.853307 1_555
Li0 O13 1.939334 1_455
Li0 O8 2.235339 1_555
O0 Si0 1.635071 1_555
O0 V1 2.127315 1_455
O1 Si1 1.625945 1_555
O1 V0 2.066184 1_555
O2 Si2 1.646432 1_545
O2 V1 2.024018 1_455
O3 Si3 1.606946 1_565
O4 Si0 1.605765 1_555
O4 Si1 1.618493 1_556
O5 Si2 1.619975 1_554
O5 Si3 1.643758 1_565
O6 V0 1.714804 1_656
O7 V1 1.635946 1_454
O8 Si0 1.722862 1_555
O8 Si2 1.736344 1_555
O9 Si1 1.674707 1_555
O9 Si3 1.679436 1_555
O10 Si0 1.640493 1_555
O10 V1 2.029871 1_555
O11 Si1 1.624075 1_555
O11 V0 2.052819 1_655
O12 Si2 1.628285 1_545
O12 V1 2.062560 1_555
O13 Si3 1.650401 1_565
O13 V0 2.123833 1_655
