# generated using pymatgen
data_Ca(ErS2)2
_symmetry_space_group_name_H-M   'P 1'
_cell_length_a   3.86131540
_cell_length_b   12.86649461
_cell_length_c   13.04036430
_cell_angle_alpha   90.00000000
_cell_angle_beta   90.00000000
_cell_angle_gamma   90.00000000
_symmetry_Int_Tables_number   1
_chemical_formula_structural   Ca(ErS2)2
_chemical_formula_sum   'Ca4 Er8 S16'
_cell_volume   647.86608192
_cell_formula_units_Z   4
loop_
 _symmetry_equiv_pos_site_id
 _symmetry_equiv_pos_as_xyz
  1  'x, y, z'
loop_
 _atom_site_type_symbol
 _atom_site_label
 _atom_site_symmetry_multiplicity
 _atom_site_fract_x
 _atom_site_fract_y
 _atom_site_fract_z
 _atom_site_occupancy
  Ca  Ca0  1  0.25000000  0.36908356  0.58229492  1
  Ca  Ca1  1  0.25000000  0.86908356  0.91770508  1
  Ca  Ca2  1  0.75000000  0.63091644  0.41770508  1
  Ca  Ca3  1  0.75000000  0.13091644  0.08229492  1
  Er  Er0  1  0.25000000  0.10704663  0.41635009  1
  Er  Er1  1  0.25000000  0.60704663  0.08364991  1
  Er  Er2  1  0.75000000  0.89295337  0.58364991  1
  Er  Er3  1  0.75000000  0.39295337  0.91635009  1
  Er  Er4  1  0.25000000  0.14677956  0.79698355  1
  Er  Er5  1  0.25000000  0.64677956  0.70301645  1
  Er  Er6  1  0.75000000  0.85322044  0.20301645  1
  Er  Er7  1  0.75000000  0.35322044  0.29698355  1
  S  S0  1  0.25000000  0.21731315  0.23761113  1
  S  S1  1  0.25000000  0.71731315  0.26238887  1
  S  S2  1  0.75000000  0.78268685  0.76238887  1
  S  S3  1  0.75000000  0.28268685  0.73761113  1
  S  S4  1  0.25000000  0.25787580  0.97311556  1
  S  S5  1  0.25000000  0.75787580  0.52688444  1
  S  S6  1  0.75000000  0.74212420  0.02688444  1
  S  S7  1  0.75000000  0.24212420  0.47311556  1
  S  S8  1  0.25000000  0.46959314  0.38152280  1
  S  S9  1  0.25000000  0.96959314  0.11847720  1
  S  S10  1  0.75000000  0.53040686  0.61847720  1
  S  S11  1  0.75000000  0.03040686  0.88152280  1
  S  S12  1  0.25000000  0.03402598  0.61749061  1
  S  S13  1  0.25000000  0.53402598  0.88250939  1
  S  S14  1  0.75000000  0.96597402  0.38250939  1
  S  S15  1  0.75000000  0.46597402  0.11749061  1
loop_
_geom_bond_atom_site_label_1
_geom_bond_atom_site_label_2
_geom_bond_distance
_geom_bond_site_symmetry_2
Ca0 S10 2.873752 1_455
Ca0 S10 2.873752 1_555
Ca0 S7 2.902217 1_455
Ca0 S7 2.902217 1_555
Ca0 S8 2.920111 1_555
Ca0 S3 3.010865 1_455
Ca0 S3 3.010865 1_555
Ca1 S11 2.873752 1_565
Ca1 S11 2.873752 1_465
Ca1 S6 2.902217 1_456
Ca1 S6 2.902217 1_556
Ca1 S9 2.920111 1_556
Ca1 S2 3.010865 1_455
Ca1 S2 3.010865 1_555
Ca2 S8 2.873752 1_655
Ca2 S8 2.873752 1_555
Ca2 S5 2.902217 1_555
Ca2 S5 2.902217 1_655
Ca2 S10 2.920111 1_555
Ca2 S1 3.010865 1_555
Ca2 S1 3.010865 1_655
Ca3 S9 2.873752 1_545
Ca3 S9 2.873752 1_645
Ca3 S4 2.902217 1_554
Ca3 S4 2.902217 1_654
Ca3 S11 2.920111 1_554
Ca3 S0 3.010865 1_655
Ca3 S0 3.010865 1_555
Er0 S14 2.686411 1_445
Er0 S14 2.686411 1_545
Er0 S7 2.701102 1_455
Er0 S7 2.701102 1_555
Er0 S0 2.728655 1_555
Er0 S12 2.786134 1_555
Er1 S15 2.686411 1_455
Er1 S15 2.686411 1_555
Er1 S6 2.701102 1_455
Er1 S6 2.701102 1_555
Er1 S1 2.728655 1_555
Er1 S13 2.786134 1_554
Er2 S12 2.686411 1_565
Er2 S12 2.686411 1_665
Er2 S5 2.701102 1_555
Er2 S5 2.701102 1_655
Er2 S2 2.728655 1_555
Er2 S14 2.786134 1_555
Er3 S13 2.686411 1_555
Er3 S13 2.686411 1_655
Er3 S4 2.701102 1_555
Er3 S4 2.701102 1_655
Er3 S3 2.728655 1_555
Er3 S15 2.786134 1_556
Er4 S11 2.680431 1_455
Er4 S11 2.680431 1_555
Er4 S4 2.705300 1_555
Er4 S3 2.717473 1_555
Er4 S3 2.717473 1_455
Er4 S12 2.753782 1_555
Er5 S10 2.680431 1_555
Er5 S10 2.680431 1_455
Er5 S5 2.705300 1_555
Er5 S2 2.717473 1_455
Er5 S2 2.717473 1_555
Er5 S13 2.753782 1_555
Er6 S9 2.680431 1_555
Er6 S9 2.680431 1_655
Er6 S6 2.705300 1_555
Er6 S1 2.717473 1_555
Er6 S1 2.717473 1_655
Er6 S14 2.753782 1_555
Er7 S8 2.680431 1_655
Er7 S8 2.680431 1_555
Er7 S7 2.705300 1_555
Er7 S0 2.717473 1_555
Er7 S0 2.717473 1_655
Er7 S15 2.753782 1_555
