# generated using pymatgen
data_Ba2Fe2ClF7
_symmetry_space_group_name_H-M   'P 1'
_cell_length_a   5.82748100
_cell_length_b   8.00335600
_cell_length_c   9.18413336
_cell_angle_alpha   73.30506945
_cell_angle_beta   90.00000000
_cell_angle_gamma   90.00000000
_symmetry_Int_Tables_number   1
_chemical_formula_structural   Ba2Fe2ClF7
_chemical_formula_sum   'Ba4 Fe4 Cl2 F14'
_cell_volume   410.28698593
_cell_formula_units_Z   2
loop_
 _symmetry_equiv_pos_site_id
 _symmetry_equiv_pos_as_xyz
  1  'x, y, z'
loop_
 _atom_site_type_symbol
 _atom_site_label
 _atom_site_symmetry_multiplicity
 _atom_site_fract_x
 _atom_site_fract_y
 _atom_site_fract_z
 _atom_site_occupancy
  Ba  Ba0  1  0.25000000  0.33459700  0.91206800  1
  Ba  Ba1  1  0.75000000  0.66540300  0.08793200  1
  Ba  Ba2  1  0.25000000  0.30505100  0.42551400  1
  Ba  Ba3  1  0.75000000  0.69494900  0.57448600  1
  Fe  Fe0  1  0.25000000  0.81590600  0.32547900  1
  Fe  Fe1  1  0.75000000  0.18409400  0.67452100  1
  Fe  Fe2  1  0.25000000  0.82507100  0.76614500  1
  Fe  Fe3  1  0.75000000  0.17492900  0.23385500  1
  Cl  Cl0  1  0.25000000  0.88284300  0.03018000  1
  Cl  Cl1  1  0.75000000  0.11715700  0.96982000  1
  F  F0  1  0.99847600  0.99497700  0.33062200  1
  F  F1  1  0.00152400  0.00502300  0.66937800  1
  F  F2  1  0.49847600  0.00502300  0.66937800  1
  F  F3  1  0.50152400  0.99497700  0.33062200  1
  F  F4  1  0.99778300  0.36524200  0.15233700  1
  F  F5  1  0.00221700  0.63475800  0.84766300  1
  F  F6  1  0.49778300  0.63475800  0.84766300  1
  F  F7  1  0.50221700  0.36524200  0.15233700  1
  F  F8  1  0.25000000  0.74265600  0.56704700  1
  F  F9  1  0.75000000  0.25734400  0.43295300  1
  F  F10  1  0.49354200  0.62610800  0.33908800  1
  F  F11  1  0.50645800  0.37389200  0.66091200  1
  F  F12  1  0.99354200  0.37389200  0.66091200  1
  F  F13  1  0.00645800  0.62610800  0.33908800  1
loop_
_geom_bond_atom_site_label_1
_geom_bond_atom_site_label_2
_geom_bond_distance
_geom_bond_site_symmetry_2
Ba0 F11 2.690035 1_555
Ba0 F12 2.690035 1_455
Ba0 F6 2.718359 1_555
Ba0 F5 2.718359 1_555
Ba0 F4 2.720432 1_456
Ba0 F7 2.720432 1_556
Ba0 Cl1 3.356985 1_455
Ba0 Cl1 3.356985 1_555
Ba0 Cl0 3.463452 1_546
Ba1 F13 2.690035 1_655
Ba1 F10 2.690035 1_555
Ba1 F4 2.718359 1_555
Ba1 F7 2.718359 1_555
Ba1 F5 2.720432 1_654
Ba1 F6 2.720432 1_554
Ba1 Cl0 3.356985 1_555
Ba1 Cl0 3.356985 1_655
Ba1 Cl1 3.463452 1_564
Ba2 F11 2.809874 1_555
Ba2 F12 2.809874 1_455
Ba2 F7 2.827099 1_555
Ba2 F4 2.827099 1_455
Ba2 F10 2.841643 1_555
Ba2 F13 2.841643 1_555
Ba2 F9 2.936894 1_555
Ba2 F9 2.936894 1_455
Ba2 F1 3.128708 1_555
Ba2 F2 3.128708 1_555
Ba2 F3 3.210771 1_545
Ba2 F0 3.210771 1_445
Ba3 F13 2.809874 1_655
Ba3 F10 2.809874 1_555
Ba3 F5 2.827099 1_655
Ba3 F6 2.827099 1_555
Ba3 F12 2.841643 1_555
Ba3 F11 2.841643 1_555
Ba3 F8 2.936894 1_555
Ba3 F8 2.936894 1_655
Ba3 F0 3.128708 1_555
Ba3 F3 3.128708 1_555
Ba3 F2 3.210771 1_565
Ba3 F1 3.210771 1_665
Cl0 Fe2 2.595820 1_554
Cl0 Fe0 2.609123 1_555
Cl1 Fe3 2.595820 1_556
Cl1 Fe1 2.609123 1_555
F0 Fe3 2.055561 1_565
F0 Fe0 2.059982 1_655
F1 Fe2 2.055561 1_545
F1 Fe1 2.059982 1_455
F2 Fe2 2.055561 1_545
F2 Fe1 2.059982 1_555
F3 Fe3 2.055561 1_565
F3 Fe0 2.059982 1_555
F4 Fe3 2.076123 1_555
F5 Fe2 2.076123 1_555
F6 Fe2 2.076123 1_555
F7 Fe3 2.076123 1_555
F8 Fe2 2.114616 1_555
F8 Fe0 2.125689 1_555
F9 Fe3 2.114616 1_555
F9 Fe1 2.125689 1_555
F10 Fe0 2.056258 1_555
F11 Fe1 2.056258 1_555
F12 Fe1 2.056258 1_555
F13 Fe0 2.056258 1_555
