# generated using pymatgen
data_USe2
_symmetry_space_group_name_H-M   'P 1'
_cell_length_a   10.77331097
_cell_length_b   10.75950058
_cell_length_c   6.63544551
_cell_angle_alpha   89.99793843
_cell_angle_beta   89.98234884
_cell_angle_gamma   90.10774844
_symmetry_Int_Tables_number   1
_chemical_formula_structural   USe2
_chemical_formula_sum   'U10 Se20'
_cell_volume   769.14922606
_cell_formula_units_Z   10
loop_
 _symmetry_equiv_pos_site_id
 _symmetry_equiv_pos_as_xyz
  1  'x, y, z'
loop_
 _atom_site_type_symbol
 _atom_site_label
 _atom_site_symmetry_multiplicity
 _atom_site_fract_x
 _atom_site_fract_y
 _atom_site_fract_z
 _atom_site_occupancy
  U  U0  1  0.83963517  0.15270245  0.24490789  1
  U  U1  1  0.65210188  0.66041419  0.24496540  1
  U  U2  1  0.34771115  0.33930568  0.25111520  1
  U  U3  1  0.15811553  0.84814832  0.25300131  1
  U  U4  1  0.50151114  0.99961828  0.85108450  1
  U  U5  1  0.33989216  0.65309858  0.75593315  1
  U  U6  1  0.15176159  0.16102841  0.75545228  1
  U  U7  1  0.84761275  0.83904356  0.74974649  1
  U  U8  1  0.65895320  0.34808359  0.74794288  1
  U  U9  1  0.00200095  0.50035181  0.14769815  1
  Se  Se0  1  0.71012470  0.09205108  0.62047477  1
  Se  Se1  1  0.59138305  0.78931203  0.62169727  1
  Se  Se2  1  0.40866948  0.20919869  0.61934759  1
  Se  Se3  1  0.28976086  0.90798471  0.62154255  1
  Se  Se4  1  0.70899388  0.91105129  0.10627368  1
  Se  Se5  1  0.58765296  0.20699932  0.10596727  1
  Se  Se6  1  0.41169243  0.79341680  0.10842778  1
  Se  Se7  1  0.29207945  0.08799860  0.10639563  1
  Se  Se8  1  0.50000121  0.49895992  0.00020349  1
  Se  Se9  1  -0.00004799  -0.00104278  0.00024834  1
  Se  Se10  1  0.20950650  0.41124602  0.89300371  1
  Se  Se11  1  0.08762323  0.70736510  0.89404087  1
  Se  Se12  1  0.91176010  0.29301986  0.89198150  1
  Se  Se13  1  0.79193940  0.58789066  0.89258551  1
  Se  Se14  1  0.49963901  0.50129587  0.49966087  1
  Se  Se15  1  -0.00032319  0.00151446  0.50034145  1
  Se  Se16  1  0.20989847  0.59238950  0.37989776  1
  Se  Se17  1  0.09172653  0.28939567  0.37770698  1
  Se  Se18  1  0.90858888  0.70999043  0.38016248  1
  Se  Se19  1  0.79003553  0.40816791  0.37819326  1
loop_
_geom_bond_atom_site_label_1
_geom_bond_atom_site_label_2
_geom_bond_distance
_geom_bond_site_symmetry_2
Se0 U4 2.893274 1_545
Se0 U0 2.928694 1_555
Se0 U8 2.934915 1_555
Se0 U7 3.218086 1_545
Se1 U4 2.895167 1_555
Se1 U1 2.933070 1_555
Se1 U7 2.936700 1_555
Se1 U5 3.203997 1_555
Se2 U2 2.892283 1_555
Se2 U4 2.908435 1_545
Se2 U6 2.955961 1_555
Se2 U8 3.196556 1_555
Se3 U3 2.899122 1_555
Se3 U4 2.913732 1_555
Se3 U5 2.934893 1_555
Se3 U6 3.229101 1_565
Se4 U7 2.903340 1_554
Se4 U1 2.913450 1_555
Se4 U4 2.963447 1_554
Se4 U0 3.094276 1_565
Se5 U8 2.921010 1_554
Se5 U0 2.927154 1_555
Se5 U4 2.948530 1_544
Se5 U2 3.106213 1_555
Se6 U5 2.888842 1_554
Se6 U3 2.955437 1_555
Se6 U4 2.960595 1_554
Se6 U1 3.097114 1_555
Se7 U6 2.886488 1_554
Se7 U2 2.930371 1_555
Se7 U4 2.978397 1_544
Se7 U3 3.110314 1_545
Se8 U1 2.886469 1_555
Se8 U5 2.892263 1_554
Se8 U8 2.894551 1_554
Se8 U2 2.898632 1_555
Se9 U6 2.888178 1_554
Se9 U3 2.891552 1_545
Se9 U0 2.892092 1_455
Se9 U7 2.899674 1_444
Se10 U6 2.909007 1_555
Se10 U2 2.910133 1_556
Se10 U9 2.962890 1_556
Se10 U5 3.091469 1_555
Se11 U3 2.922593 1_556
Se11 U5 2.927708 1_555
Se11 U9 2.938705 1_556
Se11 U7 3.102438 1_455
Se12 U0 2.891617 1_556
Se12 U8 2.947870 1_555
Se12 U9 2.965437 1_656
Se12 U6 3.087947 1_655
Se13 U1 2.889295 1_556
Se13 U7 2.924680 1_555
Se13 U9 2.980662 1_656
Se13 U8 3.101349 1_555
Se14 U8 2.896491 1_555
Se14 U2 2.903077 1_555
Se14 U1 2.910778 1_555
Se14 U5 2.920649 1_555
Se15 U3 2.887759 1_545
Se15 U7 2.909600 1_445
Se15 U6 2.913249 1_555
Se15 U0 2.916137 1_455
Se16 U9 2.892215 1_555
Se16 U3 2.932357 1_555
Se16 U5 2.934728 1_555
Se16 U2 3.219344 1_555
Se17 U9 2.902506 1_555
Se17 U2 2.931281 1_555
Se17 U6 2.934730 1_555
Se17 U0 3.209676 1_455
Se18 U7 2.894188 1_555
Se18 U9 2.913360 1_655
Se18 U1 2.953080 1_555
Se18 U3 3.183035 1_655
Se19 U8 2.902752 1_555
Se19 U9 2.920079 1_655
Se19 U0 2.937408 1_555
Se19 U1 3.220488 1_555
