# generated using pymatgen
data_Mg5Si6
_symmetry_space_group_name_H-M   'P 1'
_cell_length_a   4.03172800
_cell_length_b   6.58314500
_cell_length_c   15.17421018
_cell_angle_alpha   84.84392197
_cell_angle_beta   90.00000000
_cell_angle_gamma   90.00000000
_symmetry_Int_Tables_number   1
_chemical_formula_structural   Mg5Si6
_chemical_formula_sum   'Mg10 Si12'
_cell_volume   401.11586480
_cell_formula_units_Z   2
loop_
 _symmetry_equiv_pos_site_id
 _symmetry_equiv_pos_as_xyz
  1  'x, y, z'
loop_
 _atom_site_type_symbol
 _atom_site_label
 _atom_site_symmetry_multiplicity
 _atom_site_fract_x
 _atom_site_fract_y
 _atom_site_fract_z
 _atom_site_occupancy
  Mg  Mg0  1  0.50000000  0.99492700  0.03711100  1
  Mg  Mg1  1  0.50000000  0.17354800  0.46920700  1
  Mg  Mg2  1  0.00000000  0.10305100  0.32942700  1
  Mg  Mg3  1  0.00000000  0.84468500  0.53370300  1
  Mg  Mg4  1  0.00000000  0.70103700  0.96137500  1
  Mg  Mg5  1  0.00000000  0.29599000  0.12332300  1
  Mg  Mg6  1  0.00000000  0.52087300  0.38733900  1
  Mg  Mg7  1  0.00000000  0.32279800  0.61632000  1
  Mg  Mg8  1  0.00000000  0.23013000  0.88572300  1
  Mg  Mg9  1  0.00000000  0.76318000  0.20614900  1
  Si  Si0  1  0.50000000  0.39262800  0.98962300  1
  Si  Si1  1  0.50000000  0.56687400  0.84044900  1
  Si  Si2  1  0.50000000  0.00422700  0.64638500  1
  Si  Si3  1  0.50000000  0.56542600  0.51125500  1
  Si  Si4  1  0.50000000  0.05985400  0.21069600  1
  Si  Si5  1  0.50000000  0.26501800  0.75120700  1
  Si  Si6  1  0.50000000  0.62226200  0.66590300  1
  Si  Si7  1  0.50000000  0.40959600  0.26319500  1
  Si  Si8  1  0.50000000  0.60313800  0.10996400  1
  Si  Si9  1  0.00000000  0.79347900  0.74757200  1
  Si  Si10  1  0.50000000  0.94209600  0.85319100  1
  Si  Si11  1  0.50000000  0.82545300  0.36438200  1
loop_
_geom_bond_atom_site_label_1
_geom_bond_atom_site_label_2
_geom_bond_distance
_geom_bond_site_symmetry_2
Mg0 Si0 2.652306 1_564
Mg0 Si4 2.706120 1_565
Mg0 Si8 2.713284 1_555
Mg0 Si10 2.843275 1_554
Mg1 Si3 2.712613 1_555
Mg1 Si2 2.816392 1_555
Mg1 Si11 2.904570 1_545
Mg2 Si4 2.735434 1_555
Mg2 Si4 2.735434 1_455
Mg2 Si11 2.740522 1_445
Mg2 Si11 2.740522 1_545
Mg2 Si7 2.963390 1_555
Mg2 Si7 2.963390 1_455
Mg3 Si3 2.769840 1_455
Mg3 Si3 2.769840 1_555
Mg3 Si2 2.900555 1_565
Mg3 Si2 2.900555 1_465
Mg3 Si6 3.115112 1_555
Mg3 Si6 3.115112 1_455
Mg3 Si9 3.232481 1_555
Mg4 Si0 2.865858 1_455
Mg4 Si0 2.865858 1_555
Mg4 Si1 2.915842 1_455
Mg4 Si1 2.915842 1_555
Mg4 Si10 2.967942 1_455
Mg4 Si10 2.967942 1_555
Mg4 Si8 3.049860 1_456
Mg4 Si8 3.049860 1_556
Mg4 Si9 3.246676 1_555
Mg5 Si4 2.804921 1_555
Mg5 Si4 2.804921 1_455
Mg5 Si8 2.849493 1_555
Mg5 Si8 2.849493 1_455
Mg5 Si0 2.890060 1_454
Mg5 Si0 2.890060 1_554
Mg5 Si7 3.068082 1_555
Mg5 Si7 3.068082 1_455
Mg6 Si3 2.790070 1_555
Mg6 Si3 2.790070 1_455
Mg6 Si11 2.842520 1_555
Mg6 Si11 2.842520 1_455
Mg6 Si7 2.897763 1_455
Mg6 Si7 2.897763 1_555
Mg7 Si5 2.873650 1_555
Mg7 Si5 2.873650 1_455
Mg7 Si2 2.915152 1_455
Mg7 Si2 2.915152 1_555
Mg7 Si3 2.949400 1_555
Mg7 Si3 2.949400 1_455
Mg7 Si6 2.963590 1_455
Mg7 Si6 2.963590 1_555
Mg8 Si0 2.827875 1_555
Mg8 Si0 2.827875 1_455
Mg8 Si10 2.840968 1_545
Mg8 Si10 2.840968 1_445
Mg8 Si5 2.863317 1_555
Mg8 Si5 2.863317 1_455
Mg8 Si1 3.029240 1_555
Mg8 Si1 3.029240 1_455
Mg9 Si8 2.753245 1_455
Mg9 Si8 2.753245 1_555
Mg9 Si4 2.811954 1_465
Mg9 Si4 2.811954 1_565
Mg9 Si7 3.141500 1_455
Mg9 Si7 3.141500 1_555
Si0 Si8 2.389541 1_556
Si0 Si1 2.443969 1_555
Si1 Si10 2.494960 1_555
Si1 Si5 2.503253 1_555
Si1 Si6 2.640917 1_555
Si1 Si9 2.810238 1_655
Si1 Si9 2.810238 1_555
Si2 Si5 2.443009 1_555
Si2 Si6 2.505340 1_545
Si2 Si9 2.821917 1_545
Si2 Si9 2.821917 1_645
Si3 Si6 2.409280 1_555
Si4 Si7 2.503067 1_555
Si5 Si6 2.580557 1_555
Si6 Si9 2.668521 1_655
Si6 Si9 2.668521 1_555
Si7 Si8 2.548972 1_555
Si10 Si5 2.514506 1_565
Si10 Si9 2.805591 1_555
Si10 Si9 2.805591 1_655
Si11 Si4 2.678220 1_565
Si11 Si3 2.685434 1_555
