# generated using pymatgen
data_As2S5N4(OF6)2
_symmetry_space_group_name_H-M   'P 1'
_cell_length_a   10.54297281
_cell_length_b   10.72128754
_cell_length_c   11.27774221
_cell_angle_alpha   85.95126889
_cell_angle_beta   83.10638497
_cell_angle_gamma   61.57867315
_symmetry_Int_Tables_number   1
_chemical_formula_structural   As2S5N4(OF6)2
_chemical_formula_sum   'As4 S10 N8 O4 F24'
_cell_volume   1112.88723120
_cell_formula_units_Z   2
loop_
 _symmetry_equiv_pos_site_id
 _symmetry_equiv_pos_as_xyz
  1  'x, y, z'
loop_
 _atom_site_type_symbol
 _atom_site_label
 _atom_site_symmetry_multiplicity
 _atom_site_fract_x
 _atom_site_fract_y
 _atom_site_fract_z
 _atom_site_occupancy
  As  As0  1  0.11436600  0.32690500  0.41814000  1
  As  As1  1  0.36831900  0.84748200  0.91365200  1
  As  As2  1  0.63123200  0.15101800  0.00942900  1
  As  As3  1  0.91987300  0.69248900  0.65517400  1
  S  S0  1  0.79549000  0.45590800  0.11570200  1
  S  S1  1  0.34458200  0.90639200  0.24854900  1
  S  S2  1  0.41351500  0.08481000  0.70394900  1
  S  S3  1  0.68490300  0.95992600  0.56379900  1
  S  S4  1  0.03078600  0.99861000  0.25469300  1
  S  S5  1  0.09452800  0.80894400  0.02326800  1
  S  S6  1  0.03767800  0.39773900  0.93138400  1
  S  S7  1  0.02576600  0.03625300  0.73365000  1
  S  S8  1  0.29815000  0.67315300  0.00217000  1
  S  S9  1  0.80724600  0.79213900  0.33224300  1
  N  N0  1  0.50882900  0.07278600  0.58543700  1
  N  N1  1  0.70238200  0.39609900  0.06935900  1
  N  N2  1  0.45159300  0.54998500  0.54281600  1
  N  N3  1  0.55083000  0.39299000  0.51711900  1
  N  N4  1  0.17448900  0.95414100  0.30101400  1
  N  N5  1  0.64014300  0.91742900  0.40910400  1
  N  N6  1  0.72356900  0.82957000  0.64674300  1
  N  N7  1  0.88979500  0.48921400  0.99727400  1
  O  O0  1  0.92822000  0.80006700  0.37521100  1
  O  O1  1  0.35681700  0.92897000  0.11644200  1
  O  O2  1  0.88483800  0.08983800  0.79812800  1
  O  O3  1  0.26437100  0.19692700  0.69548500  1
  F  F0  1  0.36814900  0.78480600  0.76909800  1
  F  F1  1  0.04756900  0.40448500  0.28010700  1
  F  F2  1  0.46985200  0.22959600  0.10467100  1
  F  F3  1  0.63567000  0.38442600  0.40798900  1
  F  F4  1  0.14954900  0.46354000  0.45608700  1
  F  F5  1  0.17074200  0.37343600  0.01079400  1
  F  F6  1  0.00195000  0.11965000  0.60485000  1
  F  F7  1  0.36713300  0.64170200  0.13424600  1
  F  F8  1  0.54490200  0.16902700  0.87807600  1
  F  F9  1  0.05939100  0.88732400  0.67483600  1
  F  F10  1  0.29137000  0.21398800  0.35663500  1
  F  F11  1  0.64969300  0.36012000  0.60254300  1
  F  F12  1  0.36106500  0.58577800  0.45052400  1
  F  F13  1  0.53276300  0.62212800  0.50844700  1
  F  F14  1  0.00186700  0.13254200  0.15682300  1
  F  F15  1  0.66795500  0.97410900  0.04311800  1
  F  F16  1  0.65062500  0.45035300  0.95335900  1
  F  F17  1  0.91610900  0.10139600  0.36296300  1
  F  F18  1  0.70177700  0.62889600  0.14614100  1
  F  F19  1  0.79349600  0.66268000  0.40976900  1
  F  F20  1  0.91760200  0.70969000  0.81070300  1
  F  F21  1  0.55831800  0.76188800  0.91129000  1
  F  F22  1  0.88254900  0.54620200  0.66948000  1
  F  F23  1  0.61759400  0.04245400  0.33751400  1
loop_
_geom_bond_atom_site_label_1
_geom_bond_atom_site_label_2
_geom_bond_distance
_geom_bond_site_symmetry_2
As0 F10 1.756858 1_555
As0 F4 1.763678 1_555
As0 F1 1.770264 1_555
As1 F21 1.759624 1_555
As1 F0 1.807145 1_555
As1 O1 2.474497 1_556
As2 F2 1.755832 1_555
As2 F15 1.768113 1_545
As2 F8 1.782170 1_554
As3 F20 1.772723 1_555
As3 F22 1.782476 1_555
As3 N6 1.893271 1_555
S5 S8 1.932877 1_555
N0 S2 1.546413 1_555
N0 S3 1.662671 1_545
N1 S0 1.554864 1_555
N4 S4 1.504273 1_555
N4 S1 1.655965 1_555
N5 S9 1.790163 1_555
N5 S3 1.997122 1_555
N6 S3 1.535916 1_555
N7 S6 1.521231 1_655
N7 S0 1.688703 1_556
O0 S9 1.458126 1_555
O1 S1 1.492517 1_555
O2 S7 1.433010 1_655
O3 S2 1.465313 1_555
F3 N3 1.413060 1_555
F5 S6 1.660940 1_554
F6 S7 1.631845 1_555
F7 S8 1.678391 1_555
F9 S7 1.633829 1_565
F11 N3 1.407898 1_555
F12 N2 1.405344 1_555
F13 N2 1.410301 1_555
F14 S4 1.677301 1_545
F16 N1 1.452346 1_556
F17 S4 1.653621 1_645
F18 S0 1.672708 1_555
F19 S9 1.643668 1_555
F23 N5 1.447424 1_545
