# generated using pymatgen
data_NbPRu
_symmetry_space_group_name_H-M   'P 1'
_cell_length_a   3.72629767
_cell_length_b   6.36458974
_cell_length_c   7.18098541
_cell_angle_alpha   90.00000000
_cell_angle_beta   90.00000000
_cell_angle_gamma   90.00000000
_symmetry_Int_Tables_number   1
_chemical_formula_structural   NbPRu
_chemical_formula_sum   'Nb4 P4 Ru4'
_cell_volume   170.30680583
_cell_formula_units_Z   4
loop_
 _symmetry_equiv_pos_site_id
 _symmetry_equiv_pos_as_xyz
  1  'x, y, z'
loop_
 _atom_site_type_symbol
 _atom_site_label
 _atom_site_symmetry_multiplicity
 _atom_site_fract_x
 _atom_site_fract_y
 _atom_site_fract_z
 _atom_site_occupancy
  Nb  Nb0  1  0.75000000  0.47598601  0.67185515  1
  Nb  Nb1  1  0.75000000  0.97598601  0.82814485  1
  Nb  Nb2  1  0.25000000  0.52401399  0.32814485  1
  Nb  Nb3  1  0.25000000  0.02401399  0.17185515  1
  P  P0  1  0.75000000  0.22919828  0.37596710  1
  P  P1  1  0.75000000  0.72919828  0.12403290  1
  P  P2  1  0.25000000  0.77080172  0.62403290  1
  P  P3  1  0.25000000  0.27080172  0.87596710  1
  Ru  Ru0  1  0.75000000  0.35536716  0.06243995  1
  Ru  Ru1  1  0.75000000  0.85536716  0.43756005  1
  Ru  Ru2  1  0.25000000  0.64463284  0.93756005  1
  Ru  Ru3  1  0.25000000  0.14463284  0.56243995  1
loop_
_geom_bond_atom_site_label_1
_geom_bond_atom_site_label_2
_geom_bond_distance
_geom_bond_site_symmetry_2
Nb0 P0 2.642299 1_555
Nb0 P2 2.666470 1_655
Nb0 P2 2.666470 1_555
Nb0 P3 2.706489 1_655
Nb0 P3 2.706489 1_555
Nb0 Ru2 2.874716 1_655
Nb0 Ru2 2.874716 1_555
Nb0 Ru0 2.907948 1_556
Nb0 Ru3 2.921684 1_655
Nb0 Ru3 2.921684 1_555
Nb0 Ru1 2.942962 1_555
Nb1 P1 2.642299 1_556
Nb1 P3 2.666470 1_665
Nb1 P3 2.666470 1_565
Nb1 P2 2.706489 1_555
Nb1 P2 2.706489 1_655
Nb1 Ru3 2.874716 1_665
Nb1 Ru3 2.874716 1_565
Nb1 Ru1 2.907948 1_555
Nb1 Ru2 2.921684 1_655
Nb1 Ru2 2.921684 1_555
Nb1 Ru0 2.942962 1_566
Nb2 P2 2.642299 1_555
Nb2 P0 2.666470 1_455
Nb2 P0 2.666470 1_555
Nb2 P1 2.706489 1_555
Nb2 P1 2.706489 1_455
Nb2 Ru0 2.874716 1_455
Nb2 Ru0 2.874716 1_555
Nb2 Ru2 2.907948 1_554
Nb2 Ru1 2.921684 1_555
Nb2 Ru1 2.921684 1_455
Nb2 Ru3 2.942962 1_555
Nb3 P3 2.642299 1_554
Nb3 P1 2.666470 1_445
Nb3 P1 2.666470 1_545
Nb3 P0 2.706489 1_455
Nb3 P0 2.706489 1_555
Nb3 Ru1 2.874716 1_545
Nb3 Ru1 2.874716 1_445
Nb3 Ru3 2.907948 1_555
Nb3 Ru0 2.921684 1_455
Nb3 Ru0 2.921684 1_555
Nb3 Ru2 2.942962 1_544
P0 Ru3 2.356711 1_655
P0 Ru3 2.356711 1_555
P0 Ru0 2.390352 1_555
P0 Ru1 2.420043 1_545
P1 Ru2 2.356711 1_554
P1 Ru2 2.356711 1_654
P1 Ru1 2.390352 1_555
P1 Ru0 2.420043 1_555
P2 Ru1 2.356711 1_455
P2 Ru1 2.356711 1_555
P2 Ru2 2.390352 1_555
P2 Ru3 2.420043 1_565
P3 Ru0 2.356711 1_456
P3 Ru0 2.356711 1_556
P3 Ru3 2.390352 1_555
P3 Ru2 2.420043 1_555
Ru0 Ru2 2.768573 1_554
Ru0 Ru2 2.768573 1_654
Ru1 Ru3 2.768573 1_665
Ru1 Ru3 2.768573 1_565
