# generated using pymatgen
data_Sm2Si5Pt3
_symmetry_space_group_name_H-M   'P 1'
_cell_length_a   8.18569418
_cell_length_b   8.18264921
_cell_length_c   8.18027335
_cell_angle_alpha   136.51136602
_cell_angle_beta   105.08339832
_cell_angle_gamma   90.83501301
_symmetry_Int_Tables_number   1
_chemical_formula_structural   Sm2Si5Pt3
_chemical_formula_sum   'Sm4 Si10 Pt6'
_cell_volume   346.62256931
_cell_formula_units_Z   2
loop_
 _symmetry_equiv_pos_site_id
 _symmetry_equiv_pos_as_xyz
  1  'x, y, z'
loop_
 _atom_site_type_symbol
 _atom_site_label
 _atom_site_symmetry_multiplicity
 _atom_site_fract_x
 _atom_site_fract_y
 _atom_site_fract_z
 _atom_site_occupancy
  Sm  Sm0  1  0.63975568  0.37070817  0.26861979  1
  Sm  Sm1  1  0.36024451  0.62929184  0.73138027  1
  Sm  Sm2  1  0.10212094  0.87099214  0.23113579  1
  Sm  Sm3  1  0.89787891  0.12900782  0.76886412  1
  Si  Si0  1  0.27138818  0.52150341  0.25025870  1
  Si  Si1  1  0.72861182  0.47849667  0.74974132  1
  Si  Si2  1  0.72852669  0.97867212  0.24993247  1
  Si  Si3  1  0.27147332  0.02132788  0.75006746  1
  Si  Si4  1  0.46379708  0.11300496  0.35067741  1
  Si  Si5  1  0.53620301  0.88699503  0.64932268  1
  Si  Si6  1  0.76241753  0.61318954  0.14946266  1
  Si  Si7  1  0.23758246  0.38681051  0.85053732  1
  Si  Si8  1  0.00009892  0.25011869  0.25003044  1
  Si  Si9  1  -0.00009905  0.74988123  0.74996952  1
  Pt  Pt0  1  0.24790036  0.13658319  0.11152672  1
  Pt  Pt1  1  0.75209966  0.86341685  0.88847339  1
  Pt  Pt2  1  0.02501120  0.63657067  0.38856517  1
  Pt  Pt3  1  0.97498872  0.36342925  0.61143467  1
  Pt  Pt4  1  0.49983980  0.25035498  0.75022345  1
  Pt  Pt5  1  0.50016028  0.74964503  0.24977664  1
loop_
_geom_bond_atom_site_label_1
_geom_bond_atom_site_label_2
_geom_bond_distance
_geom_bond_site_symmetry_2
Si0 Si5 2.502332 1_555
Si0 Si7 2.504805 1_554
Si0 Sm1 3.201763 1_555
Si0 Sm3 3.204071 1_454
Si0 Sm2 3.282409 1_555
Si0 Sm0 3.283143 1_555
Si1 Si4 2.502332 1_555
Si1 Si6 2.504804 1_556
Si1 Sm0 3.201762 1_555
Si1 Sm2 3.204070 1_656
Si1 Sm3 3.282409 1_555
Si1 Sm1 3.283141 1_555
Si2 Si4 2.503542 1_565
Si2 Si6 2.504515 1_555
Si2 Sm0 3.202526 1_565
Si2 Sm2 3.206060 1_655
Si2 Sm1 3.278983 1_554
Si2 Sm3 3.281075 1_565
Si3 Si5 2.503542 1_545
Si3 Si7 2.504515 1_555
Si3 Sm1 3.202527 1_545
Si3 Sm3 3.206061 1_455
Si3 Sm0 3.278984 1_556
Si3 Sm2 3.281075 1_545
Si4 Sm2 3.025772 1_545
Si4 Sm0 3.072508 1_555
Si4 Sm1 3.259029 1_544
Si4 Sm1 3.263775 1_555
Si5 Sm3 3.025771 1_565
Si5 Sm1 3.072507 1_555
Si5 Sm0 3.259029 1_566
Si5 Sm0 3.263776 1_555
Si6 Sm0 3.025341 1_555
Si6 Sm2 3.073405 1_655
Si6 Sm3 3.259667 1_565
Si6 Sm3 3.262801 1_554
Si7 Sm1 3.025341 1_555
Si7 Sm3 3.073406 1_455
Si7 Sm2 3.259668 1_545
Si7 Sm2 3.262801 1_556
Si8 Sm3 3.126767 1_454
Si8 Sm1 3.128389 1_555
Si8 Sm2 3.129259 1_545
Si8 Sm0 3.130148 1_455
Si9 Sm2 3.126766 1_556
Si9 Sm0 3.128388 1_455
Si9 Sm3 3.129260 1_465
Si9 Sm1 3.130150 1_555
Pt0 Si4 2.397054 1_555
Pt0 Si3 2.434236 1_554
Pt0 Si0 2.434641 1_555
Pt0 Si8 2.446424 1_555
Pt0 Si9 2.447329 1_544
Pt0 Sm0 3.116674 1_555
Pt0 Sm1 3.257727 1_555
Pt0 Sm1 3.258215 1_544
Pt0 Sm2 3.274411 1_545
Pt0 Sm3 3.410731 1_454
Pt1 Si5 2.397054 1_555
Pt1 Si2 2.434235 1_556
Pt1 Si1 2.434640 1_555
Pt1 Si9 2.446423 1_655
Pt1 Si8 2.447328 1_666
Pt1 Sm1 3.116673 1_555
Pt1 Sm0 3.257728 1_555
Pt1 Sm0 3.258214 1_566
Pt1 Sm3 3.274411 1_565
Pt1 Sm2 3.410729 1_656
Pt2 Si6 2.395737 1_455
Pt2 Si3 2.434679 1_565
Pt2 Si0 2.435378 1_555
Pt2 Si8 2.446723 1_555
Pt2 Si9 2.446742 1_555
Pt2 Sm2 3.115848 1_555
Pt2 Sm3 3.257119 1_454
Pt2 Sm3 3.258131 1_465
Pt2 Sm0 3.276100 1_455
Pt2 Sm1 3.411745 1_555
Pt3 Si7 2.395738 1_655
Pt3 Si2 2.434678 1_545
Pt3 Si1 2.435378 1_555
Pt3 Si9 2.446722 1_655
Pt3 Si8 2.446741 1_655
Pt3 Sm3 3.115849 1_555
Pt3 Sm2 3.257120 1_656
Pt3 Sm2 3.258131 1_645
Pt3 Sm1 3.276101 1_655
Pt3 Sm0 3.411743 1_555
Pt4 Si7 2.487141 1_555
Pt4 Si4 2.488172 1_555
Pt4 Si6 2.488308 1_556
Pt4 Si5 2.490538 1_545
Pt4 Si3 2.626722 1_555
Pt4 Si1 2.627632 1_555
Pt4 Sm0 3.412346 1_556
Pt4 Sm1 3.413062 1_555
Pt4 Sm2 3.413239 1_545
Pt4 Sm3 3.417695 1_555
Pt5 Si6 2.487140 1_555
Pt5 Si5 2.488172 1_555
Pt5 Si7 2.488309 1_554
Pt5 Si4 2.490537 1_565
Pt5 Si2 2.626722 1_555
Pt5 Si0 2.627632 1_555
Pt5 Sm1 3.412346 1_554
Pt5 Sm0 3.413062 1_555
Pt5 Sm3 3.413237 1_565
Pt5 Sm2 3.417697 1_555
