# generated using pymatgen
data_MgMn2O4
_symmetry_space_group_name_H-M   'P 1'
_cell_length_a   5.17602511
_cell_length_b   5.17602511
_cell_length_c   9.57791400
_cell_angle_alpha   90.00000000
_cell_angle_beta   90.00000000
_cell_angle_gamma   146.34009534
_symmetry_Int_Tables_number   1
_chemical_formula_structural   MgMn2O4
_chemical_formula_sum   'Mg2 Mn4 O8'
_cell_volume   142.22595538
_cell_formula_units_Z   2
loop_
 _symmetry_equiv_pos_site_id
 _symmetry_equiv_pos_as_xyz
  1  'x, y, z'
loop_
 _atom_site_type_symbol
 _atom_site_label
 _atom_site_symmetry_multiplicity
 _atom_site_fract_x
 _atom_site_fract_y
 _atom_site_fract_z
 _atom_site_occupancy
  Mg  Mg0  1  0.60556000  0.39444000  0.75000000  1
  Mg  Mg1  1  0.39444000  0.60556000  0.25000000  1
  Mn  Mn0  1  0.13366900  0.86633100  0.07063700  1
  Mn  Mn1  1  0.86633100  0.13366900  0.92936300  1
  Mn  Mn2  1  0.13366900  0.86633100  0.42936300  1
  Mn  Mn3  1  0.86633100  0.13366900  0.57063700  1
  O  O0  1  0.78105700  0.21894300  0.38611100  1
  O  O1  1  0.21894300  0.78105700  0.61388900  1
  O  O2  1  0.21894300  0.78105700  0.88611100  1
  O  O3  1  0.78105700  0.21894300  0.11388900  1
  O  O4  1  0.04239400  0.95760600  0.25000000  1
  O  O5  1  0.95760600  0.04239400  0.75000000  1
  O  O6  1  0.50000000  0.50000000  0.00000000  1
  O  O7  1  0.50000000  0.50000000  0.50000000  1
loop_
_geom_bond_atom_site_label_1
_geom_bond_atom_site_label_2
_geom_bond_distance
_geom_bond_site_symmetry_2
Mg0 O5 2.096452 1_565
Mg0 O5 2.096452 1_455
Mg0 O2 2.282016 1_655
Mg0 O1 2.282016 1_655
Mg0 O2 2.282016 1_545
Mg0 O1 2.282016 1_545
Mg0 O6 2.612959 1_556
Mg0 O7 2.612959 1_555
Mg1 O4 2.096452 1_545
Mg1 O4 2.096452 1_655
Mg1 O0 2.282016 1_565
Mg1 O3 2.282016 1_565
Mg1 O3 2.282016 1_455
Mg1 O0 2.282016 1_455
Mg1 O7 2.612959 1_555
Mg1 O6 2.612959 1_555
Mn0 O4 1.941449 1_555
Mn0 O2 1.958967 1_554
Mn0 O6 2.111363 1_565
Mn0 O6 2.111363 1_455
Mn0 O3 2.133146 1_455
Mn0 O3 2.133146 1_565
Mn1 O5 1.941449 1_555
Mn1 O3 1.958967 1_556
Mn1 O6 2.111363 1_656
Mn1 O6 2.111363 1_546
Mn1 O2 2.133146 1_545
Mn1 O2 2.133146 1_655
Mn2 O4 1.941449 1_555
Mn2 O1 1.958967 1_555
Mn2 O7 2.111363 1_565
Mn2 O7 2.111363 1_455
Mn2 O0 2.133146 1_565
Mn2 O0 2.133146 1_455
Mn3 O5 1.941449 1_555
Mn3 O0 1.958967 1_555
Mn3 O7 2.111363 1_655
Mn3 O7 2.111363 1_545
Mn3 O1 2.133146 1_655
Mn3 O1 2.133146 1_545
