# generated using pymatgen
data_MgSi2
_symmetry_space_group_name_H-M   'P 1'
_cell_length_a   3.50770432
_cell_length_b   7.92603597
_cell_length_c   7.89573386
_cell_angle_alpha   89.18752960
_cell_angle_beta   77.20799664
_cell_angle_gamma   102.88070200
_symmetry_Int_Tables_number   1
_chemical_formula_structural   MgSi2
_chemical_formula_sum   'Mg4 Si8'
_cell_volume   208.21688093
_cell_formula_units_Z   4
loop_
 _symmetry_equiv_pos_site_id
 _symmetry_equiv_pos_as_xyz
  1  'x, y, z'
loop_
 _atom_site_type_symbol
 _atom_site_label
 _atom_site_symmetry_multiplicity
 _atom_site_fract_x
 _atom_site_fract_y
 _atom_site_fract_z
 _atom_site_occupancy
  Mg  Mg0  1  0.33048000  0.09842600  0.02204300  1
  Mg  Mg1  1  0.83048000  0.59842600  0.52204300  1
  Mg  Mg2  1  0.58899100  0.98485600  0.39451300  1
  Mg  Mg3  1  0.08899100  0.48485600  0.89451300  1
  Si  Si0  1  0.20979900  0.29203800  0.45829600  1
  Si  Si1  1  0.70979900  0.79203800  0.95829600  1
  Si  Si2  1  0.45935200  0.54160900  0.20881600  1
  Si  Si3  1  0.58253300  0.28157000  0.70330200  1
  Si  Si4  1  0.95935200  0.04160800  0.70881600  1
  Si  Si5  1  0.08253300  0.78157000  0.20330200  1
  Si  Si6  1  0.33672000  0.80150200  0.71303000  1
  Si  Si7  1  0.83672000  0.30150200  0.21302900  1
loop_
_geom_bond_atom_site_label_1
_geom_bond_atom_site_label_2
_geom_bond_distance
_geom_bond_site_symmetry_2
Mg0 Si5 2.735857 1_545
Mg0 Si3 2.749812 1_554
Mg0 Si7 2.828130 1_555
Mg0 Si7 2.831897 1_455
Mg0 Si1 3.008890 1_444
Mg0 Si1 3.016570 1_544
Mg0 Si4 3.034787 1_454
Mg0 Si4 3.040385 1_554
Mg1 Si3 2.735857 1_555
Mg1 Si5 2.749812 1_655
Mg1 Si6 2.828135 1_655
Mg1 Si6 2.831901 1_555
Mg1 Si0 3.008890 1_555
Mg1 Si0 3.016570 1_655
Mg1 Si2 3.034786 1_555
Mg1 Si2 3.040382 1_655
Mg2 Si7 2.735243 1_565
Mg2 Si6 2.749073 1_555
Mg2 Si5 2.830539 1_555
Mg2 Si5 2.833329 1_655
Mg2 Si0 3.013327 1_665
Mg2 Si0 3.022034 1_565
Mg2 Si4 3.040956 1_565
Mg2 Si4 3.047340 1_465
Mg3 Si6 2.735240 1_555
Mg3 Si7 2.749066 1_456
Mg3 Si3 2.830539 1_455
Mg3 Si3 2.833329 1_555
Mg3 Si1 3.013327 1_555
Mg3 Si1 3.022034 1_455
Mg3 Si2 3.040956 1_556
Mg3 Si2 3.047343 1_456
Si0 Si3 2.572849 1_455
Si0 Si3 2.573404 1_555
Si0 Si7 2.574541 1_555
Si0 Si7 2.574949 1_455
Si0 Si2 2.629319 1_555
Si0 Si4 2.639320 1_455
Si1 Si5 2.572849 1_556
Si1 Si5 2.573404 1_656
Si1 Si6 2.574536 1_655
Si1 Si6 2.574942 1_555
Si1 Si4 2.629313 1_565
Si1 Si2 2.639315 1_556
Si2 Si5 2.549409 1_655
Si2 Si7 2.550631 1_455
Si2 Si5 2.551528 1_555
Si2 Si7 2.552624 1_555
Si3 Si4 2.549413 1_455
Si3 Si4 2.551535 1_555
Si4 Si6 2.550625 1_545
Si4 Si6 2.552618 1_645
