# generated using pymatgen
data_CaSn2S5
_symmetry_space_group_name_H-M   'P 1'
_cell_length_a   7.50429200
_cell_length_b   9.53189000
_cell_length_c   10.86511400
_cell_angle_alpha   90.00000000
_cell_angle_beta   90.00000000
_cell_angle_gamma   90.00000000
_symmetry_Int_Tables_number   1
_chemical_formula_structural   CaSn2S5
_chemical_formula_sum   'Ca4 Sn8 S20'
_cell_volume   777.18253743
_cell_formula_units_Z   4
loop_
 _symmetry_equiv_pos_site_id
 _symmetry_equiv_pos_as_xyz
  1  'x, y, z'
loop_
 _atom_site_type_symbol
 _atom_site_label
 _atom_site_symmetry_multiplicity
 _atom_site_fract_x
 _atom_site_fract_y
 _atom_site_fract_z
 _atom_site_occupancy
  Ca  Ca0  1  0.50000000  0.37037300  0.17150500  1
  Ca  Ca1  1  0.50000000  0.62962700  0.82849500  1
  Ca  Ca2  1  0.50000000  0.87037300  0.32849500  1
  Ca  Ca3  1  0.50000000  0.12962700  0.67150500  1
  Sn  Sn0  1  0.73585900  0.50000000  0.50000000  1
  Sn  Sn1  1  0.26414100  0.00000000  0.00000000  1
  Sn  Sn2  1  0.26414100  0.50000000  0.50000000  1
  Sn  Sn3  1  0.73585900  0.00000000  0.00000000  1
  Sn  Sn4  1  0.00000000  0.60571300  0.14772700  1
  Sn  Sn5  1  0.00000000  0.39428700  0.85227300  1
  Sn  Sn6  1  0.00000000  0.10571300  0.35227300  1
  Sn  Sn7  1  0.00000000  0.89428700  0.64772700  1
  S  S0  1  0.72708200  0.38547400  0.71361500  1
  S  S1  1  0.72708200  0.61452600  0.28638500  1
  S  S2  1  0.27291800  0.88547400  0.78638500  1
  S  S3  1  0.27291800  0.11452600  0.21361500  1
  S  S4  1  0.27291800  0.61452600  0.28638500  1
  S  S5  1  0.27291800  0.38547400  0.71361500  1
  S  S6  1  0.72708200  0.11452600  0.21361500  1
  S  S7  1  0.72708200  0.88547400  0.78638500  1
  S  S8  1  0.77325300  0.50000000  0.00000000  1
  S  S9  1  0.22674700  0.00000000  0.50000000  1
  S  S10  1  0.22674700  0.50000000  0.00000000  1
  S  S11  1  0.77325300  0.00000000  0.50000000  1
  S  S12  1  0.50000000  0.32009900  0.43823400  1
  S  S13  1  0.50000000  0.67990100  0.56176600  1
  S  S14  1  0.50000000  0.82009900  0.06176600  1
  S  S15  1  0.50000000  0.17990100  0.93823400  1
  S  S16  1  0.00000000  0.85992700  0.09879600  1
  S  S17  1  0.00000000  0.14007300  0.90120400  1
  S  S18  1  0.00000000  0.35992700  0.40120400  1
  S  S19  1  0.00000000  0.64007300  0.59879600  1
loop_
_geom_bond_atom_site_label_1
_geom_bond_atom_site_label_2
_geom_bond_distance
_geom_bond_site_symmetry_2
Ca0 S12 2.937393 1_555
Ca0 S6 3.010073 1_555
Ca0 S3 3.010073 1_555
Ca0 S10 3.033787 1_555
Ca0 S8 3.033787 1_555
Ca0 S15 3.117695 1_554
Ca0 S4 3.142917 1_555
Ca0 S1 3.142917 1_555
Ca1 S13 2.937393 1_555
Ca1 S2 3.010073 1_555
Ca1 S7 3.010073 1_555
Ca1 S10 3.033787 1_556
Ca1 S8 3.033787 1_556
Ca1 S14 3.117695 1_556
Ca1 S5 3.142917 1_555
Ca1 S0 3.142917 1_555
Ca2 S14 2.937393 1_555
Ca2 S4 3.010073 1_555
Ca2 S1 3.010073 1_555
Ca2 S9 3.033787 1_565
Ca2 S11 3.033787 1_565
Ca2 S13 3.117695 1_555
Ca2 S3 3.142917 1_565
Ca2 S6 3.142917 1_565
Ca3 S15 2.937393 1_555
Ca3 S0 3.010073 1_555
Ca3 S5 3.010073 1_555
Ca3 S11 3.033787 1_555
Ca3 S9 3.033787 1_555
Ca3 S12 3.117695 1_555
Ca3 S7 3.142917 1_545
Ca3 S2 3.142917 1_545
S0 Sn5 2.543863 1_655
S0 Sn0 2.565707 1_555
S1 Sn4 2.543863 1_655
S1 Sn0 2.565707 1_555
S2 Sn7 2.543863 1_555
S2 Sn1 2.565707 1_566
S3 Sn6 2.543863 1_555
S3 Sn1 2.565707 1_555
S4 Sn4 2.543863 1_555
S4 Sn2 2.565707 1_555
S5 Sn5 2.543863 1_555
S5 Sn2 2.565707 1_555
S6 Sn6 2.543863 1_655
S6 Sn3 2.565707 1_555
S7 Sn7 2.543863 1_655
S7 Sn3 2.565707 1_566
S8 Sn4 2.546951 1_655
S8 Sn5 2.546951 1_654
S9 Sn6 2.546951 1_555
S9 Sn7 2.546951 1_545
S10 Sn4 2.546951 1_555
S10 Sn5 2.546951 1_554
S11 Sn6 2.546951 1_655
S11 Sn7 2.546951 1_645
S12 Sn2 2.554141 1_555
S12 Sn0 2.554141 1_555
S13 Sn2 2.554141 1_555
S13 Sn0 2.554141 1_555
S14 Sn3 2.554141 1_565
S14 Sn1 2.554141 1_565
S15 Sn1 2.554141 1_556
S15 Sn3 2.554141 1_556
S16 Sn4 2.480776 1_555
S16 Sn3 2.619921 1_465
S16 Sn1 2.619921 1_565
S17 Sn5 2.480776 1_555
S17 Sn3 2.619921 1_456
S17 Sn1 2.619921 1_556
S18 Sn6 2.480776 1_555
S18 Sn0 2.619921 1_455
S18 Sn2 2.619921 1_555
S19 Sn7 2.480776 1_555
S19 Sn0 2.619921 1_455
S19 Sn2 2.619921 1_555
