# generated using pymatgen
data_Co2Pd
_symmetry_space_group_name_H-M   'P 1'
_cell_length_a   5.27586105
_cell_length_b   5.27586105
_cell_length_c   12.63868800
_cell_angle_alpha   90.00000000
_cell_angle_beta   90.00000000
_cell_angle_gamma   120.00001318
_symmetry_Int_Tables_number   1
_chemical_formula_structural   Co2Pd
_chemical_formula_sum   'Co16 Pd8'
_cell_volume   304.66268497
_cell_formula_units_Z   8
loop_
 _symmetry_equiv_pos_site_id
 _symmetry_equiv_pos_as_xyz
  1  'x, y, z'
loop_
 _atom_site_type_symbol
 _atom_site_label
 _atom_site_symmetry_multiplicity
 _atom_site_fract_x
 _atom_site_fract_y
 _atom_site_fract_z
 _atom_site_occupancy
  Co  Co0_0  1  0.16666650  0.33333350  0.32511100  1
  Co  Co0_1  1  0.16666650  0.33333350  0.82511100  1
  Co  Co0_2  1  0.16666650  0.83333350  0.32511100  1
  Co  Co0_3  1  0.16666650  0.83333350  0.82511100  1
  Co  Co0_4  1  0.66666650  0.33333350  0.32511100  1
  Co  Co0_5  1  0.66666650  0.33333350  0.82511100  1
  Co  Co0_6  1  0.66666650  0.83333350  0.32511100  1
  Co  Co0_7  1  0.66666650  0.83333350  0.82511100  1
  Co  Co1_0  1  0.33333350  0.16666650  0.17488900  1
  Co  Co1_1  1  0.33333350  0.16666650  0.67488900  1
  Co  Co1_2  1  0.33333350  0.66666650  0.17488900  1
  Co  Co1_3  1  0.33333350  0.66666650  0.67488900  1
  Co  Co1_4  1  0.83333350  0.16666650  0.17488900  1
  Co  Co1_5  1  0.83333350  0.16666650  0.67488900  1
  Co  Co1_6  1  0.83333350  0.66666650  0.17488900  1
  Co  Co1_7  1  0.83333350  0.66666650  0.67488900  1
  Pd  Pd0_0  1  0.00000000  0.00000000  0.00000000  1
  Pd  Pd0_1  1  0.00000000  0.00000000  0.50000000  1
  Pd  Pd0_2  1  0.00000000  0.50000000  0.00000000  1
  Pd  Pd0_3  1  0.00000000  0.50000000  0.50000000  1
  Pd  Pd0_4  1  0.50000000  0.00000000  0.00000000  1
  Pd  Pd0_5  1  0.50000000  0.00000000  0.50000000  1
  Pd  Pd0_6  1  0.50000000  0.50000000  0.00000000  1
  Pd  Pd0_7  1  0.50000000  0.50000000  0.50000000  1
loop_
_geom_bond_atom_site_label_1
_geom_bond_atom_site_label_2
_geom_bond_distance
_geom_bond_site_symmetry_2
Co0_0 Co1_4 2.433982 1_455
Co0_0 Co1_2 2.433982 1_555
Co0_0 Co1_0 2.433985 1_555
Co0_0 Co0_6 2.637930 1_555
Co0_0 Co0_6 2.637930 1_445
Co0_0 Co0_4 2.637931 1_455
Co0_0 Co0_2 2.637931 1_545
Co0_0 Co0_2 2.637931 1_555
Co0_0 Co0_4 2.637931 1_555
Co0_0 Pd0_3 2.684265 1_555
Co0_0 Pd0_7 2.684266 1_555
Co0_0 Pd0_1 2.684266 1_555
Co0_1 Co1_5 2.433982 1_455
Co0_1 Co1_3 2.433982 1_555
Co0_1 Co1_1 2.433985 1_555
Co0_1 Co0_7 2.637930 1_555
Co0_1 Co0_7 2.637930 1_445
Co0_1 Co0_5 2.637931 1_455
Co0_1 Co0_3 2.637931 1_545
Co0_1 Co0_3 2.637931 1_555
Co0_1 Co0_5 2.637931 1_555
Co0_1 Pd0_2 2.684265 1_556
Co0_1 Pd0_6 2.684266 1_556
Co0_1 Pd0_0 2.684266 1_556
Co0_2 Co1_0 2.433982 1_565
Co0_2 Co1_6 2.433982 1_455
Co0_2 Co1_2 2.433985 1_555
Co0_2 Co0_4 2.637930 1_565
Co0_2 Co0_4 2.637930 1_455
Co0_2 Co0_6 2.637931 1_455
Co0_2 Co0_6 2.637931 1_555
Co0_2 Pd0_1 2.684265 1_565
Co0_2 Pd0_5 2.684266 1_565
Co0_2 Pd0_3 2.684266 1_555
Co0_3 Co1_1 2.433982 1_565
Co0_3 Co1_7 2.433982 1_455
Co0_3 Co1_3 2.433985 1_555
Co0_3 Co0_5 2.637930 1_565
Co0_3 Co0_5 2.637930 1_455
Co0_3 Co0_7 2.637931 1_455
Co0_3 Co0_7 2.637931 1_555
Co0_3 Pd0_0 2.684265 1_566
Co0_3 Pd0_4 2.684266 1_566
Co0_3 Pd0_2 2.684266 1_556
Co0_4 Co1_0 2.433982 1_555
Co0_4 Co1_6 2.433982 1_555
Co0_4 Co1_4 2.433985 1_555
Co0_4 Co0_6 2.637931 1_555
Co0_4 Co0_6 2.637931 1_545
Co0_4 Pd0_7 2.684265 1_555
Co0_4 Pd0_3 2.684266 1_655
Co0_4 Pd0_5 2.684266 1_555
Co0_5 Co1_7 2.433982 1_555
Co0_5 Co1_1 2.433982 1_555
Co0_5 Co1_5 2.433985 1_555
Co0_5 Co0_7 2.637931 1_555
Co0_5 Co0_7 2.637931 1_545
Co0_5 Pd0_6 2.684265 1_556
Co0_5 Pd0_2 2.684266 1_656
Co0_5 Pd0_4 2.684266 1_556
Co0_6 Co1_2 2.433982 1_555
Co0_6 Co1_4 2.433982 1_565
Co0_6 Co1_6 2.433985 1_555
Co0_6 Pd0_5 2.684265 1_565
Co0_6 Pd0_7 2.684266 1_555
Co0_6 Pd0_1 2.684266 1_665
Co0_7 Co1_5 2.433982 1_565
Co0_7 Co1_3 2.433982 1_555
Co0_7 Co1_7 2.433985 1_555
Co0_7 Pd0_4 2.684265 1_566
Co0_7 Pd0_6 2.684266 1_556
Co0_7 Pd0_0 2.684266 1_666
Co1_0 Co1_6 2.637930 1_445
Co1_0 Co1_6 2.637930 1_555
Co1_0 Co1_2 2.637931 1_545
Co1_0 Co1_4 2.637931 1_455
Co1_0 Co1_4 2.637931 1_555
Co1_0 Co1_2 2.637931 1_555
Co1_0 Pd0_4 2.684265 1_555
Co1_0 Pd0_6 2.684266 1_555
Co1_0 Pd0_0 2.684266 1_555
Co1_1 Co1_7 2.637930 1_445
Co1_1 Co1_7 2.637930 1_555
Co1_1 Co1_3 2.637931 1_545
Co1_1 Co1_5 2.637931 1_455
Co1_1 Co1_5 2.637931 1_555
Co1_1 Co1_3 2.637931 1_555
Co1_1 Pd0_5 2.684265 1_555
Co1_1 Pd0_7 2.684266 1_555
Co1_1 Pd0_1 2.684266 1_555
Co1_2 Co1_4 2.637930 1_565
Co1_2 Co1_4 2.637930 1_455
Co1_2 Co1_6 2.637931 1_555
Co1_2 Co1_6 2.637931 1_455
Co1_2 Pd0_6 2.684265 1_555
Co1_2 Pd0_4 2.684266 1_565
Co1_2 Pd0_2 2.684266 1_555
Co1_3 Co1_5 2.637930 1_455
Co1_3 Co1_5 2.637930 1_565
Co1_3 Co1_7 2.637931 1_555
Co1_3 Co1_7 2.637931 1_455
Co1_3 Pd0_7 2.684265 1_555
Co1_3 Pd0_5 2.684266 1_565
Co1_3 Pd0_3 2.684266 1_555
Co1_4 Co1_6 2.637931 1_545
Co1_4 Co1_6 2.637931 1_555
Co1_4 Pd0_0 2.684265 1_655
Co1_4 Pd0_2 2.684266 1_655
Co1_4 Pd0_4 2.684266 1_555
Co1_5 Co1_7 2.637931 1_545
Co1_5 Co1_7 2.637931 1_555
Co1_5 Pd0_1 2.684265 1_655
Co1_5 Pd0_3 2.684266 1_655
Co1_5 Pd0_5 2.684266 1_555
Co1_6 Pd0_2 2.684265 1_655
Co1_6 Pd0_6 2.684266 1_555
Co1_6 Pd0_0 2.684266 1_665
Co1_7 Pd0_3 2.684265 1_655
Co1_7 Pd0_1 2.684266 1_665
Co1_7 Pd0_7 2.684266 1_555
Pd0_0 Pd0_6 2.637930 1_555
Pd0_0 Pd0_6 2.637930 1_445
Pd0_0 Pd0_2 2.637931 1_545
Pd0_0 Pd0_4 2.637931 1_455
Pd0_0 Pd0_4 2.637931 1_555
Pd0_0 Pd0_2 2.637931 1_555
Pd0_1 Pd0_7 2.637930 1_555
Pd0_1 Pd0_7 2.637930 1_445
Pd0_1 Pd0_3 2.637931 1_555
Pd0_1 Pd0_5 2.637931 1_455
Pd0_1 Pd0_3 2.637931 1_545
Pd0_1 Pd0_5 2.637931 1_555
Pd0_2 Pd0_4 2.637930 1_455
Pd0_2 Pd0_4 2.637930 1_565
Pd0_2 Pd0_6 2.637931 1_555
Pd0_2 Pd0_6 2.637931 1_455
Pd0_3 Pd0_5 2.637930 1_455
Pd0_3 Pd0_5 2.637930 1_565
Pd0_3 Pd0_7 2.637931 1_455
Pd0_3 Pd0_7 2.637931 1_555
Pd0_4 Pd0_6 2.637931 1_555
Pd0_4 Pd0_6 2.637931 1_545
Pd0_5 Pd0_7 2.637931 1_555
Pd0_5 Pd0_7 2.637931 1_545
