# generated using pymatgen
data_ErSbO4
_symmetry_space_group_name_H-M   'P 1'
_cell_length_a   5.29258484
_cell_length_b   7.43301158
_cell_length_c   7.54289322
_cell_angle_alpha   81.44249306
_cell_angle_beta   90.00000000
_cell_angle_gamma   90.00000000
_symmetry_Int_Tables_number   1
_chemical_formula_structural   ErSbO4
_chemical_formula_sum   'Er4 Sb4 O16'
_cell_volume   293.43268437
_cell_formula_units_Z   4
loop_
 _symmetry_equiv_pos_site_id
 _symmetry_equiv_pos_as_xyz
  1  'x, y, z'
loop_
 _atom_site_type_symbol
 _atom_site_label
 _atom_site_symmetry_multiplicity
 _atom_site_fract_x
 _atom_site_fract_y
 _atom_site_fract_z
 _atom_site_occupancy
  Er  Er0  1  0.72579465  0.38775164  0.35591363  1
  Er  Er1  1  0.27420535  0.61224836  0.64408637  1
  Er  Er2  1  0.77420535  0.88775164  0.35591363  1
  Er  Er3  1  0.22579465  0.11224836  0.64408637  1
  Sb  Sb0  1  0.76893277  0.80786447  0.83637687  1
  Sb  Sb1  1  0.23106723  0.19213553  0.16362313  1
  Sb  Sb2  1  0.26893277  0.69213553  0.16362313  1
  Sb  Sb3  1  0.73106723  0.30786447  0.83637687  1
  O  O0  1  0.90523598  0.30887412  0.06828843  1
  O  O1  1  0.09476402  0.69112588  0.93171157  1
  O  O2  1  0.38448639  0.43781587  0.17100715  1
  O  O3  1  0.61551361  0.56218413  0.82899285  1
  O  O4  1  0.11551361  0.93781587  0.17100715  1
  O  O5  1  0.88448639  0.06218413  0.82899285  1
  O  O6  1  0.59476402  0.80887412  0.06828843  1
  O  O7  1  0.40523598  0.19112588  0.93171157  1
  O  O8  1  0.97638314  0.82507699  0.61198628  1
  O  O9  1  0.02361686  0.17492301  0.38801372  1
  O  O10  1  0.47638314  0.67492301  0.38801372  1
  O  O11  1  0.52361686  0.32507699  0.61198628  1
  O  O12  1  0.51257552  0.11759930  0.32251598  1
  O  O13  1  0.48742448  0.88240070  0.67748402  1
  O  O14  1  0.98742448  0.61759930  0.32251598  1
  O  O15  1  0.01257552  0.38240070  0.67748402  1
loop_
_geom_bond_atom_site_label_1
_geom_bond_atom_site_label_2
_geom_bond_distance
_geom_bond_site_symmetry_2
Er0 O14 2.184400 1_555
Er0 O11 2.196595 1_555
Er0 O9 2.220762 1_655
Er0 O2 2.278679 1_555
Er0 O12 2.349409 1_555
Er0 O0 2.516164 1_555
Er0 O10 2.551709 1_555
Er0 O15 2.856575 1_655
Er1 O15 2.184400 1_555
Er1 O10 2.196595 1_555
Er1 O8 2.220762 1_455
Er1 O3 2.278679 1_555
Er1 O13 2.349409 1_555
Er1 O1 2.516164 1_555
Er1 O11 2.551709 1_555
Er1 O14 2.856575 1_455
Er2 O12 2.184400 1_565
Er2 O8 2.196595 1_555
Er2 O10 2.220762 1_555
Er2 O4 2.278679 1_655
Er2 O14 2.349409 1_555
Er2 O6 2.516164 1_555
Er2 O9 2.551709 1_665
Er2 O13 2.856575 1_555
Er3 O13 2.184400 1_545
Er3 O9 2.196595 1_555
Er3 O11 2.220762 1_555
Er3 O5 2.278679 1_455
Er3 O15 2.349409 1_555
Er3 O7 2.516164 1_555
Er3 O8 2.551709 1_445
Er3 O12 2.856575 1_555
O0 Sb3 1.978302 1_554
O0 Sb1 2.014499 1_655
O1 Sb2 1.978302 1_556
O1 Sb0 2.014499 1_455
O2 Sb2 1.979712 1_555
O2 Sb1 2.006862 1_555
O3 Sb3 1.979712 1_555
O3 Sb0 2.006862 1_555
O4 Sb1 1.979712 1_565
O4 Sb2 2.006862 1_555
O5 Sb0 1.979712 1_545
O5 Sb3 2.006862 1_555
O6 Sb0 1.978302 1_554
O6 Sb2 2.014499 1_555
O7 Sb1 1.978302 1_556
O7 Sb3 2.014499 1_555
O8 Sb0 2.005531 1_555
O9 Sb1 2.005531 1_555
O10 Sb2 2.005531 1_555
O11 Sb3 2.005531 1_555
O12 Sb1 1.940512 1_555
O13 Sb0 1.940512 1_555
O14 Sb2 1.940512 1_655
O15 Sb3 1.940512 1_455
