# generated using pymatgen
data_Ga2Se2O7
_symmetry_space_group_name_H-M   'P 1'
_cell_length_a   6.60406799
_cell_length_b   12.67628785
_cell_length_c   13.35287637
_cell_angle_alpha   90.00000000
_cell_angle_beta   90.00000000
_cell_angle_gamma   90.00000000
_symmetry_Int_Tables_number   1
_chemical_formula_structural   Ga2Se2O7
_chemical_formula_sum   'Ga16 Se16 O56'
_cell_volume   1117.83693758
_cell_formula_units_Z   8
loop_
 _symmetry_equiv_pos_site_id
 _symmetry_equiv_pos_as_xyz
  1  'x, y, z'
loop_
 _atom_site_type_symbol
 _atom_site_label
 _atom_site_symmetry_multiplicity
 _atom_site_fract_x
 _atom_site_fract_y
 _atom_site_fract_z
 _atom_site_occupancy
  Ga  Ga0  1  0.47640079  0.37849197  0.47253910  1
  Ga  Ga1  1  0.02359921  0.12150803  0.47253910  1
  Ga  Ga2  1  0.97640079  0.62150803  0.02746090  1
  Ga  Ga3  1  0.52359921  0.87849197  0.02746090  1
  Ga  Ga4  1  0.52359921  0.62150803  0.52746090  1
  Ga  Ga5  1  0.97640079  0.87849197  0.52746090  1
  Ga  Ga6  1  0.02359921  0.37849197  0.97253910  1
  Ga  Ga7  1  0.47640079  0.12150803  0.97253910  1
  Ga  Ga8  1  0.25000000  0.25000000  0.29562747  1
  Ga  Ga9  1  0.75000000  0.75000000  0.20437253  1
  Ga  Ga10  1  0.75000000  0.75000000  0.70437253  1
  Ga  Ga11  1  0.25000000  0.25000000  0.79562747  1
  Ga  Ga12  1  0.75000000  0.25000000  0.33125609  1
  Ga  Ga13  1  0.25000000  0.75000000  0.16874391  1
  Ga  Ga14  1  0.25000000  0.75000000  0.66874391  1
  Ga  Ga15  1  0.75000000  0.25000000  0.83125609  1
  Se  Se0  1  0.51791030  0.13354835  0.53561674  1
  Se  Se1  1  0.98208970  0.36645165  0.53561674  1
  Se  Se2  1  0.01791030  0.86645165  0.96438326  1
  Se  Se3  1  0.48208970  0.63354835  0.96438326  1
  Se  Se4  1  0.48208970  0.86645165  0.46438326  1
  Se  Se5  1  0.01791030  0.63354835  0.46438326  1
  Se  Se6  1  0.98208970  0.13354835  0.03561674  1
  Se  Se7  1  0.51791030  0.36645165  0.03561674  1
  Se  Se8  1  0.50724757  0.44810305  0.71862357  1
  Se  Se9  1  0.99275243  0.05189695  0.71862357  1
  Se  Se10  1  0.00724757  0.55189695  0.78137643  1
  Se  Se11  1  0.49275243  0.94810305  0.78137643  1
  Se  Se12  1  0.49275243  0.55189695  0.28137643  1
  Se  Se13  1  0.00724757  0.94810305  0.28137643  1
  Se  Se14  1  0.99275243  0.44810305  0.21862357  1
  Se  Se15  1  0.50724757  0.05189695  0.21862357  1
  O  O0  1  0.51238090  0.47535226  0.58952516  1
  O  O1  1  0.98761910  0.02464774  0.58952516  1
  O  O2  1  0.01238090  0.52464774  0.91047484  1
  O  O3  1  0.48761910  0.97535226  0.91047484  1
  O  O4  1  0.48761910  0.52464774  0.41047484  1
  O  O5  1  0.01238090  0.97535226  0.41047484  1
  O  O6  1  0.98761910  0.47535226  0.08952516  1
  O  O7  1  0.51238090  0.02464774  0.08952516  1
  O  O8  1  0.48694974  0.26206423  0.56412772  1
  O  O9  1  0.01305026  0.23793577  0.56412772  1
  O  O10  1  0.98694974  0.73793577  0.93587228  1
  O  O11  1  0.51305026  0.76206423  0.93587228  1
  O  O12  1  0.51305026  0.73793577  0.43587228  1
  O  O13  1  0.98694974  0.76206423  0.43587228  1
  O  O14  1  0.01305026  0.26206423  0.06412772  1
  O  O15  1  0.48694974  0.23793577  0.06412772  1
  O  O16  1  0.48432853  0.29661858  0.35229364  1
  O  O17  1  0.01567147  0.20338142  0.35229364  1
  O  O18  1  0.98432853  0.70338142  0.14770636  1
  O  O19  1  0.51567147  0.79661858  0.14770636  1
  O  O20  1  0.51567147  0.70338142  0.64770636  1
  O  O21  1  0.98432853  0.79661858  0.64770636  1
  O  O22  1  0.01567147  0.29661858  0.85229364  1
  O  O23  1  0.48432853  0.20338142  0.85229364  1
  O  O24  1  0.71190500  0.13447893  0.44664077  1
  O  O25  1  0.78809500  0.36552107  0.44664077  1
  O  O26  1  0.21190500  0.86552107  0.05335923  1
  O  O27  1  0.28809500  0.63447893  0.05335923  1
  O  O28  1  0.28809500  0.86552107  0.55335923  1
  O  O29  1  0.21190500  0.63447893  0.55335923  1
  O  O30  1  0.78809500  0.13447893  0.94664077  1
  O  O31  1  0.71190500  0.36552107  0.94664077  1
  O  O32  1  0.29394037  0.37201522  0.71889814  1
  O  O33  1  0.20605963  0.12798478  0.71889814  1
  O  O34  1  0.79394037  0.62798478  0.78110186  1
  O  O35  1  0.70605963  0.87201522  0.78110186  1
  O  O36  1  0.70605963  0.62798478  0.28110186  1
  O  O37  1  0.79394037  0.87201522  0.28110186  1
  O  O38  1  0.20605963  0.37201522  0.21889814  1
  O  O39  1  0.29394037  0.12798478  0.21889814  1
  O  O40  1  0.32065125  0.10868131  0.45515263  1
  O  O41  1  0.17934875  0.39131869  0.45515263  1
  O  O42  1  0.82065125  0.89131869  0.04484737  1
  O  O43  1  0.67934875  0.60868131  0.04484737  1
  O  O44  1  0.67934875  0.89131869  0.54484737  1
  O  O45  1  0.82065125  0.60868131  0.54484737  1
  O  O46  1  0.17934875  0.10868131  0.95515263  1
  O  O47  1  0.32065125  0.39131869  0.95515263  1
  O  O48  1  0.69874437  0.36089622  0.72970421  1
  O  O49  1  0.80125563  0.13910378  0.72970421  1
  O  O50  1  0.19874437  0.63910378  0.77029579  1
  O  O51  1  0.30125563  0.86089622  0.77029579  1
  O  O52  1  0.30125563  0.63910378  0.27029579  1
  O  O53  1  0.19874437  0.86089622  0.27029579  1
  O  O54  1  0.80125563  0.36089622  0.22970421  1
  O  O55  1  0.69874437  0.13910378  0.22970421  1
loop_
_geom_bond_atom_site_label_1
_geom_bond_atom_site_label_2
_geom_bond_distance
_geom_bond_site_symmetry_2
Ga0 O16 1.912564 1_555
Ga0 O8 1.917996 1_555
Ga0 O41 1.982121 1_555
Ga0 O0 2.001045 1_555
Ga0 O4 2.030969 1_555
Ga0 O25 2.093762 1_555
Ga1 O17 1.912564 1_555
Ga1 O9 1.917996 1_555
Ga1 O40 1.982121 1_555
Ga1 O1 2.001045 1_455
Ga1 O5 2.030969 1_545
Ga1 O24 2.093762 1_455
Ga2 O18 1.912564 1_555
Ga2 O10 1.917996 1_554
Ga2 O43 1.982121 1_555
Ga2 O2 2.001045 1_654
Ga2 O6 2.030969 1_555
Ga2 O27 2.093762 1_655
Ga3 O19 1.912564 1_555
Ga3 O11 1.917996 1_554
Ga3 O42 1.982121 1_555
Ga3 O3 2.001045 1_554
Ga3 O7 2.030969 1_565
Ga3 O26 2.093762 1_555
Ga4 O20 1.912564 1_555
Ga4 O12 1.917996 1_555
Ga4 O45 1.982121 1_555
Ga4 O4 2.001045 1_555
Ga4 O0 2.030969 1_555
Ga4 O29 2.093762 1_555
Ga5 O21 1.912564 1_555
Ga5 O13 1.917996 1_555
Ga5 O44 1.982121 1_555
Ga5 O5 2.001045 1_655
Ga5 O1 2.030969 1_565
Ga5 O28 2.093762 1_655
Ga6 O22 1.912564 1_555
Ga6 O14 1.917996 1_556
Ga6 O47 1.982121 1_555
Ga6 O6 2.001045 1_456
Ga6 O2 2.030969 1_555
Ga6 O31 2.093762 1_455
Ga7 O23 1.912564 1_555
Ga7 O15 1.917996 1_556
Ga7 O46 1.982121 1_555
Ga7 O7 2.001045 1_556
Ga7 O3 2.030969 1_545
Ga7 O30 2.093762 1_555
Ga8 O17 1.821146 1_555
Ga8 O16 1.821146 1_555
Ga8 O39 1.877819 1_555
Ga8 O38 1.877819 1_555
Ga9 O18 1.821146 1_555
Ga9 O19 1.821146 1_555
Ga9 O37 1.877819 1_555
Ga9 O36 1.877819 1_555
Ga10 O20 1.821146 1_555
Ga10 O21 1.821146 1_555
Ga10 O35 1.877819 1_555
Ga10 O34 1.877819 1_555
Ga11 O22 1.821146 1_555
Ga11 O23 1.821146 1_555
Ga11 O33 1.877819 1_555
Ga11 O32 1.877819 1_555
Ga12 O16 1.872551 1_555
Ga12 O17 1.872551 1_655
Ga12 O54 1.982292 1_555
Ga12 O55 1.982292 1_555
Ga12 O24 2.140446 1_555
Ga12 O25 2.140446 1_555
Ga13 O18 1.872551 1_455
Ga13 O19 1.872551 1_555
Ga13 O52 1.982292 1_555
Ga13 O53 1.982292 1_555
Ga13 O27 2.140446 1_555
Ga13 O26 2.140446 1_555
Ga14 O20 1.872551 1_555
Ga14 O21 1.872551 1_455
Ga14 O50 1.982292 1_555
Ga14 O51 1.982292 1_555
Ga14 O28 2.140446 1_555
Ga14 O29 2.140446 1_555
Ga15 O23 1.872551 1_555
Ga15 O22 1.872551 1_655
Ga15 O48 1.982292 1_555
Ga15 O49 1.982292 1_555
Ga15 O30 2.140446 1_555
Ga15 O31 2.140446 1_555
O0 Se8 1.758429 1_555
O1 Se9 1.758429 1_555
O2 Se10 1.758429 1_555
O3 Se11 1.758429 1_555
O4 Se12 1.758429 1_555
O5 Se13 1.758429 1_555
O6 Se14 1.758429 1_555
O7 Se15 1.758429 1_555
O8 Se0 1.685444 1_555
O9 Se1 1.685444 1_455
O10 Se2 1.685444 1_655
O11 Se3 1.685444 1_555
O12 Se4 1.685444 1_555
O13 Se5 1.685444 1_655
O14 Se6 1.685444 1_455
O15 Se7 1.685444 1_555
O24 Se0 1.747295 1_555
O25 Se1 1.747295 1_555
O26 Se2 1.747295 1_554
O27 Se3 1.747295 1_554
O28 Se4 1.747295 1_555
O29 Se5 1.747295 1_555
O30 Se6 1.747295 1_556
O31 Se7 1.747295 1_556
O32 Se8 1.707254 1_555
O33 Se9 1.707254 1_455
O34 Se10 1.707254 1_655
O35 Se11 1.707254 1_555
O36 Se12 1.707254 1_555
O37 Se13 1.707254 1_655
O38 Se14 1.707254 1_455
O39 Se15 1.707254 1_555
O40 Se0 1.717794 1_555
O41 Se1 1.717794 1_455
O42 Se2 1.717794 1_654
O43 Se3 1.717794 1_554
O44 Se4 1.717794 1_555
O45 Se5 1.717794 1_655
O46 Se6 1.717794 1_456
O47 Se7 1.717794 1_556
O48 Se8 1.686206 1_555
O49 Se9 1.686206 1_555
O50 Se10 1.686206 1_555
O51 Se11 1.686206 1_555
O52 Se12 1.686206 1_555
O53 Se13 1.686206 1_555
O54 Se14 1.686206 1_555
O55 Se15 1.686206 1_555
