# generated using pymatgen
data_Tb(Mg4Al3)4
_symmetry_space_group_name_H-M   'P 1'
_cell_length_a   9.13962335
_cell_length_b   9.13962335
_cell_length_c   9.13962335
_cell_angle_alpha   109.47122063
_cell_angle_beta   109.47122063
_cell_angle_gamma   109.47122063
_symmetry_Int_Tables_number   1
_chemical_formula_structural   Tb(Mg4Al3)4
_chemical_formula_sum   'Tb1 Mg16 Al12'
_cell_volume   587.70989732
_cell_formula_units_Z   1
loop_
 _symmetry_equiv_pos_site_id
 _symmetry_equiv_pos_as_xyz
  1  'x, y, z'
loop_
 _atom_site_type_symbol
 _atom_site_label
 _atom_site_symmetry_multiplicity
 _atom_site_fract_x
 _atom_site_fract_y
 _atom_site_fract_z
 _atom_site_occupancy
  Tb  Tb0  1  0.00000000  0.00000000  0.00000000  1
  Mg  Mg0  1  0.28377500  0.60293500  0.60293500  1
  Mg  Mg1  1  0.64152100  0.00000000  0.00000000  1
  Mg  Mg2  1  0.35847900  0.35847900  0.35847900  1
  Mg  Mg3  1  0.71622500  0.31916000  0.31916000  1
  Mg  Mg4  1  0.00000000  0.68084000  0.39706500  1
  Mg  Mg5  1  0.60293500  0.60293500  0.28377500  1
  Mg  Mg6  1  0.39706500  0.00000000  0.68084000  1
  Mg  Mg7  1  0.00000000  0.00000000  0.64152100  1
  Mg  Mg8  1  0.68084000  0.39706500  0.00000000  1
  Mg  Mg9  1  0.31916000  0.71622500  0.31916000  1
  Mg  Mg10  1  0.68084000  0.00000000  0.39706500  1
  Mg  Mg11  1  0.31916000  0.31916000  0.71622500  1
  Mg  Mg12  1  0.00000000  0.64152100  0.00000000  1
  Mg  Mg13  1  0.60293500  0.28377500  0.60293500  1
  Mg  Mg14  1  0.39706500  0.68084000  0.00000000  1
  Mg  Mg15  1  0.00000000  0.39706500  0.68084000  1
  Al  Al0  1  0.81786000  0.63144500  0.63144500  1
  Al  Al1  1  0.18214000  0.81358500  0.81358500  1
  Al  Al2  1  0.00000000  0.36855500  0.18641500  1
  Al  Al3  1  0.36855500  0.18641500  0.00000000  1
  Al  Al4  1  0.63144500  0.81786000  0.63144500  1
  Al  Al5  1  0.18641500  0.36855500  0.00000000  1
  Al  Al6  1  0.81358500  0.18214000  0.81358500  1
  Al  Al7  1  0.81358500  0.81358500  0.18214000  1
  Al  Al8  1  0.18641500  0.00000000  0.36855500  1
  Al  Al9  1  0.63144500  0.63144500  0.81786000  1
  Al  Al10  1  0.36855500  0.00000000  0.18641500  1
  Al  Al11  1  0.00000000  0.18641500  0.36855500  1
loop_
_geom_bond_atom_site_label_1
_geom_bond_atom_site_label_2
_geom_bond_distance
_geom_bond_site_symmetry_2
Mg0 Mg2 3.025866 1_555
Mg0 Mg4 3.105633 1_555
Mg0 Mg15 3.105633 1_555
Mg0 Mg14 3.166972 1_556
Mg0 Mg11 3.166972 1_555
Mg0 Mg9 3.166972 1_555
Mg0 Mg6 3.166972 1_565
Mg1 Mg14 3.025866 1_545
Mg1 Mg6 3.025866 1_554
Mg1 Mg3 3.025866 1_555
Mg1 Tb0 3.276363 1_655
Mg2 Mg5 3.025866 1_555
Mg2 Tb0 3.276363 1_555
Mg3 Mg4 3.105633 1_655
Mg3 Mg8 3.166972 1_555
Mg3 Mg5 3.166972 1_555
Mg4 Mg7 3.025866 1_565
Mg4 Mg8 3.166972 1_455
Mg4 Mg9 3.166972 1_555
Mg4 Mg6 3.166972 1_565
Mg4 Mg5 3.166972 1_455
Mg5 Mg8 3.105633 1_555
Mg5 Mg9 3.166972 1_555
Mg6 Mg9 3.105633 1_545
Mg6 Mg8 3.166972 1_556
Mg7 Tb0 3.276363 1_556
Mg10 Mg7 3.025866 1_655
Mg10 Mg13 3.105633 1_555
Mg10 Mg9 3.105633 1_545
Mg10 Mg14 3.166972 1_545
Mg10 Mg3 3.166972 1_555
Mg10 Mg5 3.166972 1_545
Mg10 Mg15 3.166972 1_655
Mg11 Mg7 3.025866 1_555
Mg11 Mg14 3.105633 1_556
Mg11 Mg8 3.105633 1_556
Mg11 Mg13 3.166972 1_555
Mg11 Mg15 3.166972 1_555
Mg11 Mg6 3.166972 1_555
Mg12 Mg8 3.025866 1_455
Mg12 Mg9 3.025866 1_555
Mg12 Mg15 3.025866 1_554
Mg12 Tb0 3.276363 1_565
Mg13 Mg2 3.025866 1_555
Mg13 Mg6 3.105633 1_555
Mg13 Mg8 3.166972 1_556
Mg13 Mg3 3.166972 1_555
Mg13 Mg15 3.166972 1_655
Mg14 Mg5 3.105633 1_555
Mg14 Mg9 3.166972 1_555
Mg14 Mg15 3.166972 1_554
Mg15 Mg3 3.105633 1_455
Al0 Al1 2.718429 1_655
Al0 Al9 2.782233 1_555
Al0 Al4 2.782233 1_555
Al0 Mg3 2.861740 1_555
Al0 Mg5 2.994836 1_555
Al0 Mg13 2.994836 1_555
Al0 Mg7 3.174723 1_665
Al0 Mg12 3.174723 1_656
Al0 Mg4 3.175662 1_655
Al0 Mg15 3.175662 1_655
Al0 Tb0 3.228507 1_666
Al1 Al3 2.782233 1_566
Al1 Al10 2.782233 1_566
Al1 Mg0 2.861740 1_555
Al1 Mg14 2.994836 1_556
Al1 Mg6 2.994836 1_565
Al1 Mg12 3.174723 1_556
Al1 Mg7 3.174723 1_565
Al1 Mg15 3.175662 1_555
Al1 Mg4 3.175662 1_555
Al1 Tb0 3.228507 1_566
Al2 Al5 2.782233 1_555
Al2 Al6 2.782233 1_454
Al2 Mg4 2.861740 1_555
Al2 Mg9 2.994836 1_555
Al2 Mg8 2.994836 1_455
Al2 Mg2 3.174723 1_555
Al2 Mg1 3.174723 1_455
Al2 Mg3 3.175662 1_455
Al2 Mg0 3.175662 1_555
Al2 Tb0 3.228507 1_555
Al3 Al5 2.718429 1_555
Al3 Mg8 2.861740 1_555
Al3 Mg6 2.994836 1_554
Al3 Mg3 2.994836 1_555
Al3 Mg2 3.174723 1_555
Al3 Mg7 3.174723 1_554
Al3 Mg11 3.175662 1_554
Al3 Mg5 3.175662 1_555
Al3 Tb0 3.228507 1_555
Al4 Al6 2.718429 1_565
Al4 Al9 2.782233 1_555
Al4 Mg9 2.861740 1_555
Al4 Mg5 2.994836 1_555
Al4 Mg0 2.994836 1_555
Al4 Mg1 3.174723 1_566
Al4 Mg7 3.174723 1_665
Al4 Mg6 3.175662 1_565
Al4 Mg10 3.175662 1_565
Al4 Tb0 3.228507 1_666
Al5 Al6 2.782233 1_454
Al5 Mg14 2.861740 1_555
Al5 Mg9 2.994836 1_555
Al5 Mg15 2.994836 1_554
Al5 Mg2 3.174723 1_555
Al5 Mg7 3.174723 1_554
Al5 Mg11 3.175662 1_554
Al5 Mg5 3.175662 1_555
Al5 Tb0 3.228507 1_555
Al6 Mg13 2.861740 1_555
Al6 Mg8 2.994836 1_556
Al6 Mg15 2.994836 1_655
Al6 Mg7 3.174723 1_655
Al6 Mg1 3.174723 1_556
Al6 Mg10 3.175662 1_555
Al6 Mg6 3.175662 1_555
Al6 Tb0 3.228507 1_656
Al7 Al9 2.718429 1_554
Al7 Al8 2.782233 1_665
Al7 Mg5 2.861740 1_555
Al7 Mg4 2.994836 1_655
Al7 Mg10 2.994836 1_565
Al7 Mg12 3.174723 1_655
Al7 Mg1 3.174723 1_565
Al7 Mg14 3.175662 1_555
Al7 Mg8 3.175662 1_555
Al7 Tb0 3.228507 1_665
Al8 Mg6 2.861740 1_555
Al8 Mg4 2.994836 1_545
Al8 Mg11 2.994836 1_555
Al8 Mg2 3.174723 1_555
Al8 Mg12 3.174723 1_545
Al8 Mg13 3.175662 1_555
Al8 Mg9 3.175662 1_545
Al8 Tb0 3.228507 1_555
Al9 Mg11 2.861740 1_555
Al9 Mg0 2.994836 1_555
Al9 Mg13 2.994836 1_555
Al9 Mg1 3.174723 1_566
Al9 Mg12 3.174723 1_656
Al9 Mg14 3.175662 1_556
Al9 Mg8 3.175662 1_556
Al9 Tb0 3.228507 1_666
Al10 Al8 2.718429 1_555
Al10 Al3 2.782233 1_555
Al10 Mg10 2.861740 1_555
Al10 Mg3 2.994836 1_555
Al10 Mg14 2.994836 1_545
Al10 Mg2 3.174723 1_555
Al10 Mg12 3.174723 1_545
Al10 Mg9 3.175662 1_545
Al10 Mg13 3.175662 1_555
Al10 Tb0 3.228507 1_555
Al11 Al2 2.718429 1_555
Al11 Al7 2.782233 1_445
Al11 Al8 2.782233 1_555
Al11 Mg15 2.861740 1_555
Al11 Mg11 2.994836 1_555
Al11 Mg10 2.994836 1_455
Al11 Mg2 3.174723 1_555
Al11 Mg1 3.174723 1_455
Al11 Mg0 3.175662 1_555
Al11 Mg3 3.175662 1_455
Al11 Tb0 3.228507 1_555
