# generated using pymatgen
data_MgV(Si2O5)2
_symmetry_space_group_name_H-M   'P 1'
_cell_length_a   7.33714300
_cell_length_b   7.33714300
_cell_length_c   14.97201900
_cell_angle_alpha   90.00000000
_cell_angle_beta   90.00000000
_cell_angle_gamma   90.00000000
_symmetry_Int_Tables_number   1
_chemical_formula_structural   MgV(Si2O5)2
_chemical_formula_sum   'Mg4 V4 Si16 O40'
_cell_volume   805.99869119
_cell_formula_units_Z   4
loop_
 _symmetry_equiv_pos_site_id
 _symmetry_equiv_pos_as_xyz
  1  'x, y, z'
loop_
 _atom_site_type_symbol
 _atom_site_label
 _atom_site_symmetry_multiplicity
 _atom_site_fract_x
 _atom_site_fract_y
 _atom_site_fract_z
 _atom_site_occupancy
  Mg  Mg0  1  0.25000000  0.75000000  0.50000000  1
  Mg  Mg1  1  0.75000000  0.25000000  0.50000000  1
  Mg  Mg2  1  0.75000000  0.25000000  0.00000000  1
  Mg  Mg3  1  0.25000000  0.75000000  0.00000000  1
  V  V0  1  0.25000000  0.25000000  0.57178800  1
  V  V1  1  0.75000000  0.75000000  0.92821200  1
  V  V2  1  0.75000000  0.75000000  0.42821200  1
  V  V3  1  0.25000000  0.25000000  0.07178800  1
  Si  Si0  1  0.90955200  0.49083200  0.64562400  1
  Si  Si1  1  0.59044800  0.00916800  0.64562400  1
  Si  Si2  1  0.99083200  0.40955200  0.85437600  1
  Si  Si3  1  0.49083200  0.59044800  0.64562400  1
  Si  Si4  1  0.00916800  0.90955200  0.64562400  1
  Si  Si5  1  0.09044800  0.99083200  0.85437600  1
  Si  Si6  1  0.40955200  0.50916800  0.85437600  1
  Si  Si7  1  0.50916800  0.09044800  0.85437600  1
  Si  Si8  1  0.09044800  0.50916800  0.35437600  1
  Si  Si9  1  0.40955200  0.99083200  0.35437600  1
  Si  Si10  1  0.00916800  0.59044800  0.14562400  1
  Si  Si11  1  0.50916800  0.40955200  0.35437600  1
  Si  Si12  1  0.99083200  0.09044800  0.35437600  1
  Si  Si13  1  0.90955200  0.00916800  0.14562400  1
  Si  Si14  1  0.59044800  0.49083200  0.14562400  1
  Si  Si15  1  0.49083200  0.90955200  0.14562400  1
  O  O0  1  0.97967200  0.33823700  0.57527100  1
  O  O1  1  0.52032800  0.16176300  0.57527100  1
  O  O2  1  0.83823700  0.47967200  0.92472900  1
  O  O3  1  0.33823700  0.52032800  0.57527100  1
  O  O4  1  0.16176300  0.97967200  0.57527100  1
  O  O5  1  0.02032800  0.83823700  0.92472900  1
  O  O6  1  0.47967200  0.66176300  0.92472900  1
  O  O7  1  0.66176300  0.02032800  0.92472900  1
  O  O8  1  0.02032800  0.66176300  0.42472900  1
  O  O9  1  0.47967200  0.83823700  0.42472900  1
  O  O10  1  0.16176300  0.52032800  0.07527100  1
  O  O11  1  0.66176300  0.47967200  0.42472900  1
  O  O12  1  0.83823700  0.02032800  0.42472900  1
  O  O13  1  0.97967200  0.16176300  0.07527100  1
  O  O14  1  0.52032800  0.33823700  0.07527100  1
  O  O15  1  0.00074800  0.30996000  0.37393000  1
  O  O16  1  0.33823700  0.97967200  0.07527100  1
  O  O17  1  0.50074800  0.80996000  0.62607000  1
  O  O18  1  0.19004000  0.49925200  0.87393000  1
  O  O19  1  0.69004000  0.50074800  0.62607000  1
  O  O20  1  0.80996000  0.99925200  0.62607000  1
  O  O21  1  0.00074800  0.19004000  0.87393000  1
  O  O22  1  0.49925200  0.30996000  0.87393000  1
  O  O23  1  0.30996000  0.00074800  0.87393000  1
  O  O24  1  0.44223000  0.94223000  0.25000000  1
  O  O25  1  0.55777000  0.44223000  0.25000000  1
  O  O26  1  0.94223000  0.05777100  0.25000000  1
  O  O27  1  0.05777100  0.55777000  0.25000000  1
  O  O28  1  0.55777000  0.05777100  0.75000000  1
  O  O29  1  0.44223000  0.55777000  0.75000000  1
  O  O30  1  0.05777100  0.94223000  0.75000000  1
  O  O31  1  0.94223000  0.44223000  0.75000000  1
  O  O32  1  0.69004000  0.99925200  0.12607000  1
  O  O33  1  0.50074800  0.69004000  0.12607000  1
  O  O34  1  0.99925200  0.80996000  0.12607000  1
  O  O35  1  0.19004000  0.00074800  0.37393000  1
  O  O36  1  0.30996000  0.49925200  0.37393000  1
  O  O37  1  0.80996000  0.50074800  0.12607000  1
  O  O38  1  0.49925200  0.19004000  0.37393000  1
  O  O39  1  0.99925200  0.69004000  0.62607000  1
loop_
_geom_bond_atom_site_label_1
_geom_bond_atom_site_label_2
_geom_bond_distance
_geom_bond_site_symmetry_2
Mg0 O9 2.128111 1_555
Mg0 O8 2.128111 1_555
Mg0 O3 2.128111 1_555
Mg0 O4 2.128111 1_555
Mg1 O1 2.128111 1_555
Mg1 O0 2.128111 1_555
Mg1 O12 2.128111 1_555
Mg1 O11 2.128111 1_555
Mg2 O7 2.128111 1_554
Mg2 O14 2.128111 1_555
Mg2 O2 2.128111 1_554
Mg2 O13 2.128111 1_555
Mg3 O5 2.128111 1_554
Mg3 O6 2.128111 1_554
Mg3 O16 2.128111 1_555
Mg3 O10 2.128111 1_555
O0 Si0 1.621023 1_555
O0 V0 2.087072 1_655
O1 Si1 1.621023 1_555
O1 V0 2.087072 1_555
O2 Si2 1.621023 1_555
O2 V1 2.087072 1_555
O3 Si3 1.621023 1_555
O3 V0 2.087072 1_555
O4 Si4 1.621023 1_555
O4 V0 2.087072 1_565
O5 Si5 1.621023 1_555
O5 V1 2.087072 1_455
O6 Si6 1.621023 1_555
O6 V1 2.087072 1_555
O7 Si7 1.621023 1_555
O7 V1 2.087072 1_545
O8 Si8 1.621023 1_555
O8 V2 2.087072 1_455
O9 Si9 1.621023 1_555
O9 V2 2.087072 1_555
O10 Si10 1.621023 1_555
O10 V3 2.087072 1_555
O11 Si11 1.621023 1_555
O11 V2 2.087072 1_555
O12 Si12 1.621023 1_555
O12 V2 2.087072 1_545
O13 Si13 1.621023 1_555
O13 V3 2.087072 1_655
O14 Si14 1.621023 1_555
O14 V3 2.087072 1_555
O15 Si8 1.629474 1_555
O15 Si12 1.638599 1_455
O16 Si15 1.621023 1_555
O16 V3 2.087072 1_565
O17 Si1 1.629474 1_565
O17 Si3 1.638599 1_555
O18 Si2 1.629474 1_455
O18 Si6 1.638599 1_555
O19 Si3 1.629474 1_555
O19 Si0 1.638599 1_555
O20 Si4 1.629474 1_655
O20 Si1 1.638599 1_565
O21 Si5 1.629474 1_545
O21 Si2 1.638599 1_455
O22 Si6 1.629474 1_555
O22 Si7 1.638599 1_555
O23 Si7 1.629474 1_555
O23 Si5 1.638599 1_545
O24 Si15 1.620723 1_555
O24 Si9 1.620723 1_555
O25 Si14 1.620723 1_555
O25 Si11 1.620723 1_555
O26 Si12 1.620722 1_555
O26 Si13 1.620724 1_555
O27 Si8 1.620722 1_555
O27 Si10 1.620724 1_555
O28 Si7 1.620722 1_555
O28 Si1 1.620724 1_555
O29 Si3 1.620723 1_555
O29 Si6 1.620723 1_555
O30 Si5 1.620722 1_555
O30 Si4 1.620724 1_555
O31 Si0 1.620723 1_555
O31 Si2 1.620723 1_555
O32 Si15 1.629474 1_555
O32 Si13 1.638599 1_565
O33 Si14 1.629474 1_555
O33 Si15 1.638599 1_555
O34 Si13 1.629474 1_565
O34 Si10 1.638599 1_655
O35 Si12 1.629474 1_455
O35 Si9 1.638599 1_545
O36 Si11 1.629474 1_555
O36 Si8 1.638599 1_555
O37 Si10 1.629474 1_655
O37 Si14 1.638599 1_555
O38 Si9 1.629474 1_545
O38 Si11 1.638599 1_555
O39 Si0 1.629474 1_555
O39 Si4 1.638599 1_655
