# generated using pymatgen
data_Eu2GeS4
_symmetry_space_group_name_H-M   'P 1'
_cell_length_a   6.64854962
_cell_length_b   6.68100730
_cell_length_c   8.08152074
_cell_angle_alpha   72.09791391
_cell_angle_beta   90.00000000
_cell_angle_gamma   90.00000000
_symmetry_Int_Tables_number   1
_chemical_formula_structural   Eu2GeS4
_chemical_formula_sum   'Eu4 Ge2 S8'
_cell_volume   341.59281260
_cell_formula_units_Z   2
loop_
 _symmetry_equiv_pos_site_id
 _symmetry_equiv_pos_as_xyz
  1  'x, y, z'
loop_
 _atom_site_type_symbol
 _atom_site_label
 _atom_site_symmetry_multiplicity
 _atom_site_fract_x
 _atom_site_fract_y
 _atom_site_fract_z
 _atom_site_occupancy
  Eu  Eu0  1  0.25000000  0.72328512  0.94462435  1
  Eu  Eu1  1  0.75000000  0.27671488  0.05537565  1
  Eu  Eu2  1  0.25000000  0.76109306  0.43500916  1
  Eu  Eu3  1  0.75000000  0.23890694  0.56499084  1
  Ge  Ge0  1  0.25000000  0.26906707  0.80287186  1
  Ge  Ge1  1  0.75000000  0.73093293  0.19712814  1
  S  S0  1  0.25000000  0.09029232  0.08236080  1
  S  S1  1  0.75000000  0.90970768  0.91763920  1
  S  S2  1  0.25000000  0.07856426  0.62206757  1
  S  S3  1  0.75000000  0.92143574  0.37793243  1
  S  S4  1  0.50444637  0.49280758  0.74301474  1
  S  S5  1  0.00444637  0.50719242  0.25698526  1
  S  S6  1  0.49555363  0.50719242  0.25698526  1
  S  S7  1  0.99555363  0.49280758  0.74301474  1
loop_
_geom_bond_atom_site_label_1
_geom_bond_atom_site_label_2
_geom_bond_distance
_geom_bond_site_symmetry_2
Eu0 S2 2.936886 1_565
Eu0 S6 2.980172 1_556
Eu0 S5 2.980172 1_556
Eu0 S0 2.988174 1_566
Eu0 S7 3.070823 1_455
Eu0 S4 3.070823 1_555
Eu0 S1 3.533076 1_455
Eu0 S1 3.533076 1_555
Eu1 S3 2.936886 1_545
Eu1 S7 2.980172 1_554
Eu1 S4 2.980172 1_554
Eu1 S1 2.988174 1_544
Eu1 S5 3.070823 1_655
Eu1 S6 3.070823 1_555
Eu1 S0 3.533076 1_555
Eu1 S0 3.533076 1_655
Eu2 S2 2.958932 1_565
Eu2 S0 3.017598 1_565
Eu2 S5 3.018777 1_555
Eu2 S6 3.018777 1_555
Eu2 S7 3.086677 1_455
Eu2 S4 3.086677 1_555
Eu2 S3 3.479564 1_455
Eu2 S3 3.479564 1_555
Eu3 S3 2.958932 1_545
Eu3 S1 3.017598 1_545
Eu3 S4 3.018777 1_555
Eu3 S7 3.018777 1_555
Eu3 S5 3.086677 1_655
Eu3 S6 3.086677 1_555
Eu3 S2 3.479564 1_655
Eu3 S2 3.479564 1_555
Ge0 S0 2.206749 1_556
Ge0 S7 2.210376 1_455
Ge0 S4 2.210376 1_555
Ge0 S2 2.213197 1_555
Ge1 S1 2.206749 1_554
Ge1 S5 2.210376 1_655
Ge1 S6 2.210376 1_555
Ge1 S3 2.213197 1_555
