# generated using pymatgen
data_SrYCoO4
_symmetry_space_group_name_H-M   'P 1'
_cell_length_a   6.70474825
_cell_length_b   6.70474825
_cell_length_c   6.70474825
_cell_angle_alpha   147.24094588
_cell_angle_beta   147.24094588
_cell_angle_gamma   47.00715451
_symmetry_Int_Tables_number   1
_chemical_formula_structural   SrYCoO4
_chemical_formula_sum   'Sr1 Y1 Co1 O4'
_cell_volume   87.91996220
_cell_formula_units_Z   1
loop_
 _symmetry_equiv_pos_site_id
 _symmetry_equiv_pos_as_xyz
  1  'x, y, z'
loop_
 _atom_site_type_symbol
 _atom_site_label
 _atom_site_symmetry_multiplicity
 _atom_site_fract_x
 _atom_site_fract_y
 _atom_site_fract_z
 _atom_site_occupancy
  Sr  Sr0  1  0.64485300  0.64485300  0.00000000  1
  Y  Y0  1  0.36131800  0.36131800  0.00000000  1
  Co  Co0  1  0.00082400  0.00082400  0.00000000  1
  O  O0  1  0.83743100  0.83743100  0.00000000  1
  O  O1  1  0.18012700  0.18012700  0.00000000  1
  O  O2  1  0.98772400  0.48772400  0.50000000  1
  O  O3  1  0.48772400  0.98772400  0.50000000  1
loop_
_geom_bond_atom_site_label_1
_geom_bond_atom_site_label_2
_geom_bond_distance
_geom_bond_site_symmetry_2
Co0 O2 1.897580 1_444
Co0 O3 1.897580 1_444
Co0 O3 1.897580 1_545
Co0 O2 1.897580 1_455
Co0 O0 2.009240 1_445
Co0 O1 2.204885 1_555
O0 Sr0 2.368128 1_555
O0 Y0 2.689982 1_554
O0 Y0 2.689982 1_666
O0 Y0 2.689982 1_565
O0 Y0 2.689982 1_655
O1 Y0 2.228102 1_555
O1 Sr0 2.708850 1_556
O1 Sr0 2.708850 1_444
O1 Sr0 2.708850 1_545
O1 Sr0 2.708850 1_455
O2 Y0 2.447664 1_555
O2 Y0 2.447664 1_656
O2 Sr0 2.703387 1_555
O2 Sr0 2.703387 1_656
O3 Y0 2.447664 1_555
O3 Y0 2.447664 1_566
O3 Sr0 2.703387 1_555
O3 Sr0 2.703387 1_566
