# generated using pymatgen
data_Li7Mn2(CoO4)3
_symmetry_space_group_name_H-M   'P 1'
_cell_length_a   2.97902500
_cell_length_b   7.62432395
_cell_length_c   9.75824421
_cell_angle_alpha   91.59932599
_cell_angle_beta   97.37288407
_cell_angle_gamma   99.89281287
_symmetry_Int_Tables_number   1
_chemical_formula_structural   Li7Mn2(CoO4)3
_chemical_formula_sum   'Li7 Mn2 Co3 O12'
_cell_volume   216.25538126
_cell_formula_units_Z   1
loop_
 _symmetry_equiv_pos_site_id
 _symmetry_equiv_pos_as_xyz
  1  'x, y, z'
loop_
 _atom_site_type_symbol
 _atom_site_label
 _atom_site_symmetry_multiplicity
 _atom_site_fract_x
 _atom_site_fract_y
 _atom_site_fract_z
 _atom_site_occupancy
  Li  Li0  1  0.74228200  0.74310000  0.75551500  1
  Li  Li1  1  0.90949500  0.58856200  0.23897000  1
  Li  Li2  1  0.08511400  0.41559200  0.75278000  1
  Li  Li3  1  0.26224400  0.25217500  0.25271000  1
  Li  Li4  1  0.42743200  0.08774100  0.75037800  1
  Li  Li5  1  0.56440300  0.90685000  0.24307400  1
  Li  Li6  1  0.34956800  0.67074300  0.00986700  1
  Mn  Mn0  1  0.99277000  0.99366900  0.00033000  1
  Mn  Mn1  1  0.16636000  0.83315000  0.50042500  1
  Co  Co0  1  0.49479600  0.49778400  0.50041000  1
  Co  Co1  1  0.66970300  0.34655200  0.99527100  1
  Co  Co2  1  0.83866500  0.16832000  0.49938900  1
  O  O0  1  0.39724600  0.89228500  0.89026400  1
  O  O1  1  0.49853800  0.69886100  0.38321200  1
  O  O2  1  0.69942100  0.52090500  0.88395200  1
  O  O3  1  0.88248000  0.36921200  0.38390900  1
  O  O4  1  0.01377500  0.20961200  0.88889700  1
  O  O5  1  0.23139100  0.04042700  0.38607600  1
  O  O6  1  0.10771100  0.62895800  0.61761100  1
  O  O7  1  0.31289700  0.43947300  0.11322500  1
  O  O8  1  0.45140000  0.29778500  0.61549000  1
  O  O9  1  0.60154700  0.12168700  0.10151200  1
  O  O10  1  0.83570700  0.96690800  0.61840300  1
  O  O11  1  0.96505500  0.80965100  0.11833100  1
loop_
_geom_bond_atom_site_label_1
_geom_bond_atom_site_label_2
_geom_bond_distance
_geom_bond_site_symmetry_2
Li0 O6 2.095113 1_655
Li0 O2 2.131269 1_555
Li0 O0 2.178164 1_555
Li0 O10 2.199820 1_555
Li0 O6 2.204160 1_555
Li0 O0 2.307645 1_655
Li1 O11 2.078363 1_555
Li1 O1 2.135552 1_655
Li1 O7 2.150518 1_555
Li1 O1 2.217463 1_555
Li1 O3 2.217830 1_555
Li1 O7 2.238732 1_655
Li2 O2 2.059225 1_455
Li2 O4 2.085664 1_555
Li2 O8 2.106427 1_555
Li2 O2 2.113928 1_555
Li2 O6 2.120293 1_555
Li2 O8 2.206042 1_455
Li3 O7 2.000463 1_555
Li3 O3 2.090477 1_455
Li3 O5 2.098936 1_555
Li3 O3 2.147536 1_555
Li3 O9 2.198805 1_555
Li3 O9 2.353831 1_455
Li4 O0 2.047239 1_545
Li4 O8 2.098757 1_555
Li4 O10 2.099459 1_445
Li4 O4 2.123152 1_655
Li4 O10 2.169648 1_545
Li4 O4 2.227077 1_555
Li5 O11 2.020389 1_555
Li5 O11 2.038636 1_455
Li5 O1 2.122791 1_555
Li5 O5 2.142845 1_565
Li5 O9 2.169506 1_565
Li5 O5 2.333723 1_665
Li6 O7 2.049317 1_555
Li6 O11 2.054130 1_455
Li6 O0 2.074986 1_554
Li6 O11 2.091868 1_555
Li6 O2 2.135531 1_554
Li6 O2 2.261998 1_454
Mn0 O11 1.837376 1_555
Mn0 O0 1.951623 1_654
Mn0 O0 1.972781 1_554
Mn0 O9 1.979463 1_565
Mn0 O4 1.994750 1_664
Mn0 O9 2.023600 1_665
Mn1 O6 1.954247 1_555
Mn1 O5 1.956746 1_565
Mn1 O10 1.976454 1_455
Mn1 O1 1.977135 1_555
Mn1 O1 2.228273 1_455
Mn1 O10 2.233386 1_555
Co0 O8 1.915226 1_555
Co0 O1 1.937432 1_555
Co0 O3 2.061791 1_555
Co0 O6 2.075777 1_555
Co0 O3 2.090900 1_455
Co0 O6 2.101150 1_655
Co1 O2 1.737754 1_555
Co1 O7 1.866505 1_556
Co1 O4 1.948976 1_655
Co1 O9 2.022120 1_556
Co1 O7 2.102422 1_656
Co1 O4 2.168805 1_555
Co2 O3 1.923096 1_555
Co2 O10 1.950523 1_545
Co2 O5 2.050867 1_655
Co2 O8 2.062323 1_555
Co2 O5 2.065557 1_555
Co2 O8 2.092249 1_655
