# generated using pymatgen
data_Mg14NiCO16
_symmetry_space_group_name_H-M   'P 1'
_cell_length_a   8.49655776
_cell_length_b   8.49229975
_cell_length_c   4.23157291
_cell_angle_alpha   90.00000000
_cell_angle_beta   90.00000000
_cell_angle_gamma   90.00000000
_symmetry_Int_Tables_number   1
_chemical_formula_structural   Mg14NiCO16
_chemical_formula_sum   'Mg14 Ni1 C1 O16'
_cell_volume   305.33047771
_cell_formula_units_Z   1
loop_
 _symmetry_equiv_pos_site_id
 _symmetry_equiv_pos_as_xyz
  1  'x, y, z'
loop_
 _atom_site_type_symbol
 _atom_site_label
 _atom_site_symmetry_multiplicity
 _atom_site_fract_x
 _atom_site_fract_y
 _atom_site_fract_z
 _atom_site_occupancy
  Mg  Mg0  1  0.50000000  0.00000000  0.00000000  1
  Mg  Mg1  1  0.50000000  0.50000000  0.00000000  1
  Mg  Mg2  1  0.00000000  0.25211948  0.50000000  1
  Mg  Mg3  1  0.00000000  0.74788052  0.50000000  1
  Mg  Mg4  1  0.50000000  0.25001999  0.50000000  1
  Mg  Mg5  1  0.50000000  0.74998001  0.50000000  1
  Mg  Mg6  1  0.24847721  0.00000000  0.50000000  1
  Mg  Mg7  1  0.24648372  0.50000000  0.50000000  1
  Mg  Mg8  1  0.75152279  0.00000000  0.50000000  1
  Mg  Mg9  1  0.75351628  0.50000000  0.50000000  1
  Mg  Mg10  1  0.24719507  0.25143452  0.00000000  1
  Mg  Mg11  1  0.24719507  0.74856548  0.00000000  1
  Mg  Mg12  1  0.75280493  0.25143452  0.00000000  1
  Mg  Mg13  1  0.75280493  0.74856548  0.00000000  1
  Ni  Ni0  1  0.00000000  0.00000000  0.00000000  1
  C  C0  1  0.00000000  0.50000000  0.00000000  1
  O  O0  1  0.24981594  0.00000000  0.00000000  1
  O  O1  1  0.25065447  0.50000000  0.00000000  1
  O  O2  1  0.75018406  0.00000000  0.00000000  1
  O  O3  1  0.74934553  0.50000000  0.00000000  1
  O  O4  1  0.24846037  0.25067166  0.50000000  1
  O  O5  1  0.24846037  0.74932834  0.50000000  1
  O  O6  1  0.75153963  0.25067166  0.50000000  1
  O  O7  1  0.75153963  0.74932834  0.50000000  1
  O  O8  1  0.00000000  0.00000000  0.50000000  1
  O  O9  1  0.00000000  0.50000000  0.50000000  1
  O  O10  1  0.50000000  0.00000000  0.50000000  1
  O  O11  1  0.50000000  0.50000000  0.50000000  1
  O  O12  1  0.00000000  0.24998020  0.00000000  1
  O  O13  1  0.00000000  0.75001980  0.00000000  1
  O  O14  1  0.50000000  0.25034582  0.00000000  1
  O  O15  1  0.50000000  0.74965418  0.00000000  1
loop_
_geom_bond_atom_site_label_1
_geom_bond_atom_site_label_2
_geom_bond_distance
_geom_bond_site_symmetry_2
Mg0 O10 2.115786 1_555
Mg0 O10 2.115786 1_554
Mg0 O0 2.125703 1_555
Mg0 O2 2.125703 1_555
Mg0 O14 2.126012 1_555
Mg0 O15 2.126012 1_545
Mg1 O11 2.115786 1_554
Mg1 O11 2.115786 1_555
Mg1 O1 2.118579 1_555
Mg1 O3 2.118579 1_555
Mg1 O15 2.120138 1_555
Mg1 O14 2.120138 1_555
Mg2 O9 2.105076 1_555
Mg2 O6 2.111094 1_455
Mg2 O4 2.111094 1_555
Mg2 O12 2.115864 1_556
Mg2 O12 2.115864 1_555
Mg2 O8 2.141074 1_555
Mg3 O9 2.105076 1_555
Mg3 O7 2.111094 1_455
Mg3 O5 2.111094 1_555
Mg3 O13 2.115864 1_555
Mg3 O13 2.115864 1_556
Mg3 O8 2.141074 1_565
Mg4 O14 2.115788 1_556
Mg4 O14 2.115788 1_555
Mg4 O11 2.122905 1_555
Mg4 O10 2.123245 1_555
Mg4 O4 2.137228 1_555
Mg4 O6 2.137228 1_555
Mg5 O15 2.115788 1_556
Mg5 O15 2.115788 1_555
Mg5 O11 2.122905 1_555
Mg5 O10 2.123245 1_565
Mg5 O5 2.137228 1_555
Mg5 O7 2.137228 1_555
Mg6 O8 2.111201 1_555
Mg6 O0 2.115817 1_555
Mg6 O0 2.115817 1_556
Mg6 O5 2.128779 1_545
Mg6 O4 2.128779 1_555
Mg6 O10 2.137078 1_555
Mg7 O9 2.094263 1_555
Mg7 O1 2.116083 1_555
Mg7 O1 2.116083 1_556
Mg7 O4 2.117438 1_555
Mg7 O5 2.117438 1_555
Mg7 O11 2.154016 1_555
Mg8 O8 2.111201 1_655
Mg8 O2 2.115817 1_556
Mg8 O2 2.115817 1_555
Mg8 O7 2.128779 1_545
Mg8 O6 2.128779 1_555
Mg8 O10 2.137078 1_555
Mg9 O9 2.094263 1_655
Mg9 O3 2.116083 1_556
Mg9 O3 2.116083 1_555
Mg9 O6 2.117438 1_555
Mg9 O7 2.117438 1_555
Mg9 O11 2.154016 1_555
Mg10 O12 2.100344 1_555
Mg10 O1 2.111097 1_555
Mg10 O4 2.115824 1_554
Mg10 O4 2.115824 1_555
Mg10 O0 2.135373 1_555
Mg10 O14 2.147992 1_555
Mg11 O13 2.100344 1_555
Mg11 O1 2.111097 1_555
Mg11 O5 2.115824 1_555
Mg11 O5 2.115824 1_554
Mg11 O0 2.135373 1_565
Mg11 O15 2.147992 1_555
Mg12 O12 2.100344 1_655
Mg12 O3 2.111097 1_555
Mg12 O6 2.115824 1_555
Mg12 O6 2.115824 1_554
Mg12 O2 2.135373 1_555
Mg12 O14 2.147992 1_555
Mg13 O13 2.100344 1_655
Mg13 O3 2.111097 1_555
Mg13 O7 2.115824 1_555
Mg13 O7 2.115824 1_554
Mg13 O2 2.135373 1_565
Mg13 O15 2.147992 1_555
Ni0 O8 2.115786 1_554
Ni0 O8 2.115786 1_555
Ni0 O0 2.122576 1_555
Ni0 O2 2.122576 1_455
Ni0 O13 2.122907 1_545
Ni0 O12 2.122907 1_555
C0 O9 2.115786 1_554
C0 O9 2.115786 1_555
C0 O13 2.123243 1_555
C0 O12 2.123243 1_555
C0 O3 2.129700 1_455
C0 O1 2.129700 1_555
