# generated using pymatgen
data_SrO10
_symmetry_space_group_name_H-M   'P 1'
_cell_length_a   5.23713300
_cell_length_b   5.23713300
_cell_length_c   5.47783400
_cell_angle_alpha   90.00000000
_cell_angle_beta   90.00000000
_cell_angle_gamma   90.00000000
_symmetry_Int_Tables_number   1
_chemical_formula_structural   SrO10
_chemical_formula_sum   'Sr1 O10'
_cell_volume   150.24363199
_cell_formula_units_Z   1
loop_
 _symmetry_equiv_pos_site_id
 _symmetry_equiv_pos_as_xyz
  1  'x, y, z'
loop_
 _atom_site_type_symbol
 _atom_site_label
 _atom_site_symmetry_multiplicity
 _atom_site_fract_x
 _atom_site_fract_y
 _atom_site_fract_z
 _atom_site_occupancy
  Sr  Sr0  1  0.00000000  0.00000000  0.00000000  1
  O  O0  1  0.35468800  0.35468800  0.24794300  1
  O  O1  1  0.64531200  0.64531200  0.75205700  1
  O  O2  1  0.64531200  0.64531200  0.24794300  1
  O  O3  1  0.64531200  0.35468800  0.24794300  1
  O  O4  1  0.64531200  0.35468800  0.75205700  1
  O  O5  1  0.35468800  0.35468800  0.75205700  1
  O  O6  1  0.35468800  0.64531200  0.75205700  1
  O  O7  1  0.35468800  0.64531200  0.24794300  1
  O  O8  1  0.00000000  0.50000000  0.00000000  1
  O  O9  1  0.50000000  0.00000000  0.00000000  1
loop_
_geom_bond_atom_site_label_1
_geom_bond_atom_site_label_2
_geom_bond_distance
_geom_bond_site_symmetry_2
O0 O7 1.522037 1_555
O0 O3 1.522037 1_555
O0 Sr0 2.957305 1_555
O1 O6 1.522037 1_555
O1 O4 1.522037 1_555
O1 Sr0 2.957305 1_666
O2 O7 1.522037 1_555
O2 O3 1.522037 1_555
O2 Sr0 2.957305 1_665
O3 Sr0 2.957305 1_655
O4 O5 1.522037 1_555
O4 Sr0 2.957305 1_656
O5 O6 1.522037 1_555
O5 Sr0 2.957305 1_556
O6 Sr0 2.957305 1_566
O7 Sr0 2.957305 1_565
O8 Sr0 2.618567 1_555
O8 Sr0 2.618567 1_565
O9 Sr0 2.618567 1_655
O9 Sr0 2.618567 1_555
