# generated using pymatgen
data_CsTlO2
_symmetry_space_group_name_H-M   'P 1'
_cell_length_a   3.55718816
_cell_length_b   3.55718172
_cell_length_c   13.38652266
_cell_angle_alpha   89.99916881
_cell_angle_beta   90.00033432
_cell_angle_gamma   120.00066804
_symmetry_Int_Tables_number   1
_chemical_formula_structural   CsTlO2
_chemical_formula_sum   'Cs2 Tl2 O4'
_cell_volume   146.69265710
_cell_formula_units_Z   2
loop_
 _symmetry_equiv_pos_site_id
 _symmetry_equiv_pos_as_xyz
  1  'x, y, z'
loop_
 _atom_site_type_symbol
 _atom_site_label
 _atom_site_symmetry_multiplicity
 _atom_site_fract_x
 _atom_site_fract_y
 _atom_site_fract_z
 _atom_site_occupancy
  Cs  Cs0  1  0.33330401  0.66656959  0.74999783  1
  Cs  Cs1  1  0.66669946  0.33324833  0.24998832  1
  Tl  Tl0  1  0.99999683  -0.00000789  -0.00002675  1
  Tl  Tl1  1  0.00000182  0.00006753  0.50002047  1
  O  O0  1  0.33334812  0.66675840  0.41406342  1
  O  O1  1  0.33334294  0.66663308  0.08596045  1
  O  O2  1  0.66665819  0.33341395  0.58596326  1
  O  O3  1  0.66664963  0.33331600  0.91403300  1
loop_
_geom_bond_atom_site_label_1
_geom_bond_atom_site_label_2
_geom_bond_distance
_geom_bond_site_symmetry_2
Cs0 O2 3.006289 1_555
Cs0 O3 3.006448 1_555
Cs0 O2 3.006547 1_455
Cs0 O3 3.006566 1_455
Cs0 O3 3.006780 1_565
Cs0 O2 3.006940 1_565
Cs1 O1 3.006432 1_545
Cs1 O1 3.006472 1_655
Cs1 O0 3.006590 1_545
Cs1 O1 3.006675 1_555
Cs1 O0 3.006949 1_655
Cs1 O0 3.007425 1_555
O0 Tl1 2.354078 1_665
O0 Tl1 2.354109 1_565
O0 Tl1 2.354159 1_555
O1 Tl0 2.354249 1_455
O1 Tl0 2.354272 1_565
O1 Tl0 2.354416 1_465
O2 Tl1 2.353966 1_665
O2 Tl1 2.353992 1_555
O2 Tl1 2.354109 1_655
O3 Tl0 2.353962 1_456
O3 Tl0 2.354018 1_556
O3 Tl0 2.354037 1_566
