# generated using pymatgen
data_Zr2SeN2
_symmetry_space_group_name_H-M   'P 1'
_cell_length_a   3.65353277
_cell_length_b   3.65353277
_cell_length_c   13.26209006
_cell_angle_alpha   90.00000000
_cell_angle_beta   90.00000000
_cell_angle_gamma   119.99998606
_symmetry_Int_Tables_number   1
_chemical_formula_structural   Zr2SeN2
_chemical_formula_sum   'Zr4 Se2 N4'
_cell_volume   153.30936316
_cell_formula_units_Z   2
loop_
 _symmetry_equiv_pos_site_id
 _symmetry_equiv_pos_as_xyz
  1  'x, y, z'
loop_
 _atom_site_type_symbol
 _atom_site_label
 _atom_site_symmetry_multiplicity
 _atom_site_fract_x
 _atom_site_fract_y
 _atom_site_fract_z
 _atom_site_occupancy
  Zr  Zr0  1  0.33333300  0.66666700  0.59822980  1
  Zr  Zr1  1  0.66666700  0.33333300  0.40177020  1
  Zr  Zr2  1  0.66666700  0.33333300  0.09822980  1
  Zr  Zr3  1  0.33333300  0.66666700  0.90177020  1
  Se  Se0  1  -0.00000000  -0.00000000  0.25000000  1
  Se  Se1  1  -0.00000000  -0.00000000  0.75000000  1
  N  N0  1  0.33333300  0.66666700  0.43410139  1
  N  N1  1  0.66666700  0.33333300  0.56589861  1
  N  N2  1  0.66666700  0.33333300  0.93410139  1
  N  N3  1  0.33333300  0.66666700  0.06589861  1
loop_
_geom_bond_atom_site_label_1
_geom_bond_atom_site_label_2
_geom_bond_distance
_geom_bond_site_symmetry_2
Se0 Zr2 2.915604 1_455
Se0 Zr1 2.915604 1_455
Se0 Zr2 2.915607 1_445
Se0 Zr2 2.915607 1_555
Se0 Zr1 2.915607 1_445
Se0 Zr1 2.915607 1_555
Se1 Zr3 2.915604 1_545
Se1 Zr0 2.915604 1_545
Se1 Zr3 2.915607 1_555
Se1 Zr0 2.915607 1_445
Se1 Zr3 2.915607 1_445
Se1 Zr0 2.915607 1_555
N0 Zr1 2.152505 1_455
N0 Zr1 2.152505 1_565
N0 Zr1 2.152511 1_555
N0 Zr0 2.176686 1_555
N1 Zr0 2.152505 1_545
N1 Zr0 2.152505 1_655
N1 Zr0 2.152511 1_555
N1 Zr1 2.176686 1_555
N2 Zr3 2.152505 1_545
N2 Zr3 2.152505 1_655
N2 Zr3 2.152511 1_555
N2 Zr2 2.176686 1_556
N3 Zr2 2.152505 1_565
N3 Zr2 2.152505 1_455
N3 Zr2 2.152511 1_555
N3 Zr3 2.176686 1_554
