# generated using pymatgen
data_KZnPO4
_symmetry_space_group_name_H-M   'P 1'
_cell_length_a   5.27054678
_cell_length_b   8.52150655
_cell_length_c   8.95962121
_cell_angle_alpha   90.00000000
_cell_angle_beta   90.00000000
_cell_angle_gamma   90.00000000
_symmetry_Int_Tables_number   1
_chemical_formula_structural   KZnPO4
_chemical_formula_sum   'K4 Zn4 P4 O16'
_cell_volume   402.40345762
_cell_formula_units_Z   4
loop_
 _symmetry_equiv_pos_site_id
 _symmetry_equiv_pos_as_xyz
  1  'x, y, z'
loop_
 _atom_site_type_symbol
 _atom_site_label
 _atom_site_symmetry_multiplicity
 _atom_site_fract_x
 _atom_site_fract_y
 _atom_site_fract_z
 _atom_site_occupancy
  K  K0  1  0.52804447  0.99545463  0.76519899  1
  K  K1  1  0.52804447  0.49545463  0.73480101  1
  K  K2  1  0.02804447  0.00454537  0.23480101  1
  K  K3  1  0.02804447  0.50454537  0.26519899  1
  Zn  Zn0  1  0.51889105  0.30706749  0.08836153  1
  Zn  Zn1  1  0.01889105  0.19293251  0.58836153  1
  Zn  Zn2  1  0.51889105  0.80706749  0.41163847  1
  Zn  Zn3  1  0.01889105  0.69293251  0.91163847  1
  P  P0  1  0.52326604  0.71040536  0.07371931  1
  P  P1  1  0.02326604  0.28959464  0.92628069  1
  P  P2  1  0.02326604  0.78959464  0.57371931  1
  P  P3  1  0.52326604  0.21040536  0.42628069  1
  O  O0  1  0.86692112  0.24245283  0.06455182  1
  O  O1  1  0.36692112  0.75754717  0.93544818  1
  O  O2  1  0.36692112  0.25754717  0.56455182  1
  O  O3  1  0.86692112  0.74245283  0.43544818  1
  O  O4  1  0.54920483  0.53303281  0.08388335  1
  O  O5  1  0.04920483  0.46696819  0.91611665  1
  O  O6  1  0.04920483  0.96696719  0.58388335  1
  O  O7  1  0.54920483  0.03303181  0.41611665  1
  O  O8  1  0.38753975  0.77275930  0.21312481  1
  O  O9  1  0.88753975  0.22724070  0.78687519  1
  O  O10  1  0.88753975  0.72724070  0.71312481  1
  O  O11  1  0.38753975  0.27275930  0.28687519  1
  O  O12  1  0.29053475  0.71710536  0.55881707  1
  O  O13  1  0.79053475  0.28289464  0.44118293  1
  O  O14  1  0.79053475  0.78289464  0.05881707  1
  O  O15  1  0.29053475  0.21710536  0.94118293  1
loop_
_geom_bond_atom_site_label_1
_geom_bond_atom_site_label_2
_geom_bond_distance
_geom_bond_site_symmetry_2
K0 O1 2.675438 1_555
K0 O9 2.743907 1_565
K0 O15 2.760564 1_565
K0 O2 2.990174 1_565
K0 O10 3.005265 1_555
K0 O6 3.011194 1_555
K0 O7 3.145972 1_565
K0 O6 3.200454 1_655
K0 O12 3.257664 1_555
K1 O2 2.675438 1_555
K1 O10 2.743907 1_555
K1 O12 2.760564 1_555
K1 O1 2.990174 1_555
K1 O9 3.005265 1_555
K1 O5 3.011194 1_555
K1 O4 3.145973 1_556
K1 O5 3.200453 1_655
K1 O15 3.257664 1_555
K2 O0 2.675438 1_455
K2 O8 2.743907 1_545
K2 O14 2.760564 1_445
K2 O3 2.990174 1_445
K2 O11 3.005265 1_555
K2 O7 3.011194 1_455
K2 O6 3.145973 1_545
K2 O7 3.200453 1_555
K2 O13 3.257664 1_455
K3 O3 2.675438 1_455
K3 O11 2.743907 1_555
K3 O13 2.760564 1_455
K3 O0 2.990174 1_455
K3 O8 3.005265 1_555
K3 O4 3.011194 1_455
K3 O5 3.145972 1_554
K3 O4 3.200454 1_555
K3 O14 3.257664 1_455
O0 P1 1.541155 1_654
O0 Zn0 1.927011 1_555
O1 P0 1.541155 1_556
O1 Zn3 1.927011 1_555
O2 P3 1.541155 1_555
O2 Zn1 1.927011 1_555
O3 P2 1.541155 1_655
O3 Zn2 1.927011 1_555
O4 P0 1.520381 1_555
O4 Zn0 1.932598 1_555
O5 P1 1.520390 1_555
O5 Zn3 1.932590 1_555
O6 P2 1.520381 1_555
O6 Zn1 1.932598 1_565
O7 P3 1.520390 1_555
O7 Zn2 1.932590 1_545
O8 P0 1.534312 1_555
O8 Zn2 1.930851 1_555
O9 P1 1.534312 1_655
O9 Zn1 1.930851 1_655
O10 P2 1.534312 1_655
O10 Zn3 1.930851 1_655
O11 P3 1.534312 1_555
O11 Zn0 1.930851 1_555
O12 P2 1.543925 1_555
O12 Zn2 1.942970 1_555
O13 P3 1.543925 1_555
O13 Zn1 1.942970 1_655
O14 P0 1.543925 1_555
O14 Zn3 1.942970 1_654
O15 P1 1.543925 1_555
O15 Zn0 1.942970 1_556
