# generated using pymatgen
data_Co2P2O11
_symmetry_space_group_name_H-M   'P 1'
_cell_length_a   7.94013100
_cell_length_b   15.78260900
_cell_length_c   12.67746700
_cell_angle_alpha   90.00000000
_cell_angle_beta   90.00000000
_cell_angle_gamma   90.00000000
_symmetry_Int_Tables_number   1
_chemical_formula_structural   Co2P2O11
_chemical_formula_sum   'Co16 P16 O88'
_cell_volume   1588.68923882
_cell_formula_units_Z   8
loop_
 _symmetry_equiv_pos_site_id
 _symmetry_equiv_pos_as_xyz
  1  'x, y, z'
loop_
 _atom_site_type_symbol
 _atom_site_label
 _atom_site_symmetry_multiplicity
 _atom_site_fract_x
 _atom_site_fract_y
 _atom_site_fract_z
 _atom_site_occupancy
  Co  Co0  1  0.46867800  0.75047400  0.37880100  1
  Co  Co1  1  0.96867800  0.74952600  0.62119900  1
  Co  Co2  1  0.53132200  0.25047400  0.12119900  1
  Co  Co3  1  0.03132200  0.24952600  0.87880100  1
  Co  Co4  1  0.53132200  0.24952600  0.62119900  1
  Co  Co5  1  0.03132200  0.25047400  0.37880100  1
  Co  Co6  1  0.46867800  0.74952600  0.87880100  1
  Co  Co7  1  0.96867800  0.75047400  0.12119900  1
  Co  Co8  1  0.84467700  0.74839300  0.37962600  1
  Co  Co9  1  0.34467700  0.75160700  0.62037400  1
  Co  Co10  1  0.15532300  0.24839300  0.12037400  1
  Co  Co11  1  0.65532300  0.25160700  0.87962600  1
  Co  Co12  1  0.15532300  0.25160700  0.62037400  1
  Co  Co13  1  0.65532300  0.24839300  0.37962600  1
  Co  Co14  1  0.84467700  0.75160700  0.87962600  1
  Co  Co15  1  0.34467700  0.74839300  0.12037400  1
  P  P0  1  0.65391200  0.63183300  0.20379900  1
  P  P1  1  0.15391200  0.86816700  0.79620100  1
  P  P2  1  0.34608800  0.13183300  0.29620100  1
  P  P3  1  0.84608800  0.36816700  0.70379900  1
  P  P4  1  0.34608800  0.36816700  0.79620100  1
  P  P5  1  0.84608800  0.13183300  0.20379900  1
  P  P6  1  0.65391200  0.86816700  0.70379900  1
  P  P7  1  0.15391200  0.63183300  0.29620100  1
  P  P8  1  0.65877200  0.63061100  0.55699100  1
  P  P9  1  0.15877200  0.86938900  0.44300900  1
  P  P10  1  0.34122800  0.13061100  0.94300900  1
  P  P11  1  0.84122800  0.36938900  0.05699100  1
  P  P12  1  0.34122800  0.36938900  0.44300900  1
  P  P13  1  0.84122800  0.13061100  0.55699100  1
  P  P14  1  0.65877200  0.86938900  0.05699100  1
  P  P15  1  0.15877200  0.63061100  0.94300900  1
  O  O0  1  0.50341100  0.68694600  0.52573200  1
  O  O1  1  0.00341100  0.81305400  0.47426800  1
  O  O2  1  0.49658900  0.18694600  0.97426800  1
  O  O3  1  0.99658900  0.31305400  0.02573200  1
  O  O4  1  0.49658900  0.31305400  0.47426800  1
  O  O5  1  0.99658900  0.18694600  0.52573200  1
  O  O6  1  0.50341100  0.81305400  0.02573200  1
  O  O7  1  0.00341100  0.68694600  0.97426800  1
  O  O8  1  0.81717100  0.68554800  0.52570200  1
  O  O9  1  0.31717100  0.81445200  0.47429800  1
  O  O10  1  0.18282900  0.18554800  0.97429800  1
  O  O11  1  0.68282900  0.31445200  0.02570200  1
  O  O12  1  0.18282900  0.31445200  0.47429800  1
  O  O13  1  0.68282900  0.18554800  0.52570200  1
  O  O14  1  0.81717100  0.81445200  0.02570200  1
  O  O15  1  0.31717100  0.68554800  0.97429800  1
  O  O16  1  0.65192900  0.67533900  0.31480600  1
  O  O17  1  0.15192900  0.82466100  0.68519400  1
  O  O18  1  0.34807100  0.17533900  0.18519400  1
  O  O19  1  0.84807100  0.32466100  0.81480600  1
  O  O20  1  0.34807100  0.32466100  0.68519400  1
  O  O21  1  0.84807100  0.17533900  0.31480600  1
  O  O22  1  0.65192900  0.82466100  0.81480600  1
  O  O23  1  0.15192900  0.67533900  0.18519400  1
  O  O24  1  0.30796800  0.66090900  0.36142300  1
  O  O25  1  0.80796800  0.83909100  0.63857700  1
  O  O26  1  0.69203200  0.16090900  0.13857700  1
  O  O27  1  0.19203200  0.33909100  0.86142300  1
  O  O28  1  0.69203200  0.33909100  0.63857700  1
  O  O29  1  0.19203200  0.16090900  0.36142300  1
  O  O30  1  0.30796800  0.83909100  0.86142300  1
  O  O31  1  0.80796800  0.66090900  0.13857700  1
  O  O32  1  0.98738200  0.65329800  0.35491700  1
  O  O33  1  0.48738200  0.84670200  0.64508300  1
  O  O34  1  0.01261800  0.15329800  0.14508300  1
  O  O35  1  0.51261800  0.34670200  0.85491700  1
  O  O36  1  0.01261800  0.34670200  0.64508300  1
  O  O37  1  0.51261800  0.15329800  0.35491700  1
  O  O38  1  0.98738200  0.84670200  0.85491700  1
  O  O39  1  0.48738200  0.65329800  0.14508300  1
  O  O40  1  0.65909300  0.81234900  0.40638400  1
  O  O41  1  0.15909300  0.68765100  0.59361600  1
  O  O42  1  0.34090700  0.31234900  0.09361600  1
  O  O43  1  0.84090700  0.18765100  0.90638400  1
  O  O44  1  0.34090700  0.18765100  0.59361600  1
  O  O45  1  0.84090700  0.31234900  0.40638400  1
  O  O46  1  0.65909300  0.68765100  0.90638400  1
  O  O47  1  0.15909300  0.81234900  0.09361600  1
  O  O48  1  0.40626900  0.79348200  0.24801800  1
  O  O49  1  0.90626900  0.70651800  0.75198200  1
  O  O50  1  0.59373100  0.29348200  0.25198200  1
  O  O51  1  0.09373100  0.20651800  0.74801800  1
  O  O52  1  0.59373100  0.20651800  0.75198200  1
  O  O53  1  0.09373100  0.29348200  0.24801800  1
  O  O54  1  0.40626900  0.70651800  0.74801800  1
  O  O55  1  0.90626900  0.79348200  0.25198200  1
  O  O56  1  0.66442800  0.53639600  0.21834700  1
  O  O57  1  0.16442800  0.96360400  0.78165300  1
  O  O58  1  0.33557200  0.03639600  0.28165300  1
  O  O59  1  0.83557200  0.46360400  0.71834700  1
  O  O60  1  0.33557200  0.46360400  0.78165300  1
  O  O61  1  0.83557200  0.03639600  0.21834700  1
  O  O62  1  0.66442800  0.96360400  0.71834700  1
  O  O63  1  0.16442800  0.53639600  0.28165300  1
  O  O64  1  0.65402500  0.61128500  0.67525500  1
  O  O65  1  0.15402500  0.88871500  0.32474500  1
  O  O66  1  0.34597500  0.11128500  0.82474500  1
  O  O67  1  0.84597500  0.38871500  0.17525500  1
  O  O68  1  0.34597500  0.38871500  0.32474500  1
  O  O69  1  0.84597500  0.11128500  0.67525500  1
  O  O70  1  0.65402500  0.88871500  0.17525500  1
  O  O71  1  0.15402500  0.61128500  0.82474500  1
  O  O72  1  0.66178800  0.54488700  0.49770300  1
  O  O73  1  0.16178800  0.95511300  0.50229700  1
  O  O74  1  0.33821200  0.04488700  0.00229700  1
  O  O75  1  0.83821200  0.45511300  0.99770300  1
  O  O76  1  0.33821200  0.45511300  0.50229700  1
  O  O77  1  0.83821200  0.04488700  0.49770300  1
  O  O78  1  0.66178800  0.95511300  0.99770300  1
  O  O79  1  0.16178800  0.54488700  0.00229700  1
  O  O80  1  0.90334000  0.49681900  0.44061800  1
  O  O81  1  0.40334000  0.00318100  0.55938200  1
  O  O82  1  0.09666000  0.99681900  0.05938200  1
  O  O83  1  0.59666000  0.50318100  0.94061800  1
  O  O84  1  0.09666000  0.50318100  0.55938200  1
  O  O85  1  0.59666000  0.99681900  0.44061800  1
  O  O86  1  0.90334000  0.00318100  0.94061800  1
  O  O87  1  0.40334000  0.49681900  0.05938200  1
loop_
_geom_bond_atom_site_label_1
_geom_bond_atom_site_label_2
_geom_bond_distance
_geom_bond_site_symmetry_2
Co0 O40 1.833529 1_555
Co0 O48 1.858830 1_555
Co0 O24 1.917039 1_555
Co0 O9 1.983040 1_555
Co0 O16 2.044875 1_555
Co0 O0 2.133316 1_555
Co1 O41 1.833529 1_655
Co1 O49 1.858830 1_555
Co1 O25 1.917039 1_555
Co1 O8 1.983040 1_555
Co1 O17 2.044875 1_655
Co1 O1 2.133316 1_655
Co2 O42 1.833529 1_555
Co2 O50 1.858830 1_555
Co2 O26 1.917039 1_555
Co2 O11 1.983040 1_555
Co2 O18 2.044875 1_555
Co2 O2 2.133316 1_554
Co3 O43 1.833529 1_455
Co3 O51 1.858830 1_555
Co3 O27 1.917039 1_555
Co3 O10 1.983040 1_555
Co3 O19 2.044875 1_455
Co3 O3 2.133316 1_456
Co4 O44 1.833529 1_555
Co4 O52 1.858830 1_555
Co4 O28 1.917039 1_555
Co4 O13 1.983040 1_555
Co4 O20 2.044875 1_555
Co4 O4 2.133316 1_555
Co5 O45 1.833529 1_455
Co5 O53 1.858830 1_555
Co5 O29 1.917039 1_555
Co5 O12 1.983040 1_555
Co5 O21 2.044875 1_455
Co5 O5 2.133316 1_455
Co6 O46 1.833529 1_555
Co6 O54 1.858830 1_555
Co6 O30 1.917039 1_555
Co6 O15 1.983040 1_555
Co6 O22 2.044875 1_555
Co6 O6 2.133316 1_556
Co7 O47 1.833529 1_655
Co7 O55 1.858830 1_555
Co7 O31 1.917039 1_555
Co7 O14 1.983040 1_555
Co7 O23 2.044875 1_655
Co7 O7 2.133316 1_654
Co8 O40 1.818056 1_555
Co8 O55 1.834163 1_555
Co8 O32 1.906456 1_555
Co8 O1 2.017315 1_655
Co8 O16 2.084924 1_555
Co8 O8 2.112088 1_555
Co9 O41 1.818056 1_555
Co9 O54 1.834163 1_555
Co9 O33 1.906456 1_555
Co9 O0 2.017315 1_555
Co9 O17 2.084924 1_555
Co9 O9 2.112088 1_555
Co10 O42 1.818056 1_555
Co10 O53 1.834163 1_555
Co10 O34 1.906456 1_555
Co10 O3 2.017315 1_455
Co10 O18 2.084924 1_555
Co10 O10 2.112088 1_554
Co11 O43 1.818056 1_555
Co11 O52 1.834163 1_555
Co11 O35 1.906456 1_555
Co11 O2 2.017315 1_555
Co11 O19 2.084924 1_555
Co11 O11 2.112088 1_556
Co12 O44 1.818056 1_555
Co12 O51 1.834163 1_555
Co12 O36 1.906456 1_555
Co12 O5 2.017315 1_455
Co12 O20 2.084924 1_555
Co12 O12 2.112088 1_555
Co13 O45 1.818056 1_555
Co13 O50 1.834163 1_555
Co13 O37 1.906456 1_555
Co13 O4 2.017315 1_555
Co13 O21 2.084924 1_555
Co13 O13 2.112088 1_555
Co14 O46 1.818056 1_555
Co14 O49 1.834163 1_555
Co14 O38 1.906456 1_555
Co14 O7 2.017315 1_655
Co14 O22 2.084924 1_555
Co14 O14 2.112088 1_556
Co15 O47 1.818056 1_555
Co15 O48 1.834163 1_555
Co15 O39 1.906456 1_555
Co15 O6 2.017315 1_555
Co15 O23 2.084924 1_555
Co15 O15 2.112088 1_554
O0 P8 1.571401 1_555
O1 P9 1.571401 1_555
O2 P10 1.571401 1_555
O3 P11 1.571401 1_555
O4 P12 1.571401 1_555
O5 P13 1.571401 1_555
O6 P14 1.571401 1_555
O7 P15 1.571401 1_555
O8 P8 1.578274 1_555
O9 P9 1.578274 1_555
O10 P10 1.578274 1_555
O11 P11 1.578274 1_555
O12 P12 1.578274 1_555
O13 P13 1.578274 1_555
O14 P14 1.578274 1_555
O15 P15 1.578274 1_555
O16 P0 1.565943 1_555
O17 P1 1.565943 1_555
O18 P2 1.565943 1_555
O19 P3 1.565943 1_555
O20 P4 1.565943 1_555
O21 P5 1.565943 1_555
O22 P6 1.565943 1_555
O23 P7 1.565943 1_555
O24 P7 1.546138 1_555
O25 P6 1.546138 1_555
O26 P5 1.546138 1_555
O27 P4 1.546138 1_555
O28 P3 1.546138 1_555
O29 P2 1.546138 1_555
O30 P1 1.546138 1_555
O31 P0 1.546138 1_555
O32 P7 1.554752 1_655
O33 P6 1.554752 1_555
O34 P5 1.554752 1_455
O35 P4 1.554752 1_555
O36 P3 1.554752 1_455
O37 P2 1.554752 1_555
O38 P1 1.554752 1_655
O39 P0 1.554752 1_555
O56 P0 1.519790 1_555
O57 P1 1.519790 1_555
O58 P2 1.519790 1_555
O59 P3 1.519790 1_555
O60 P4 1.519790 1_555
O61 P5 1.519790 1_555
O62 P6 1.519790 1_555
O63 P7 1.519790 1_555
O64 P8 1.530464 1_555
O65 P9 1.530464 1_555
O66 P10 1.530464 1_555
O67 P11 1.530464 1_555
O68 P12 1.530464 1_555
O69 P13 1.530464 1_555
O70 P14 1.530464 1_555
O71 P15 1.530464 1_555
O72 P8 1.547895 1_555
O73 P9 1.547895 1_555
O74 P10 1.547895 1_554
O75 P11 1.547895 1_556
O76 P12 1.547895 1_555
O77 P13 1.547895 1_555
O78 P14 1.547895 1_556
O79 P15 1.547895 1_554
