# generated using pymatgen
data_La20Os12C13
_symmetry_space_group_name_H-M   'P 1'
_cell_length_a   15.96833200
_cell_length_b   6.80585300
_cell_length_c   9.18086384
_cell_angle_alpha   89.93005953
_cell_angle_beta   90.00000000
_cell_angle_gamma   90.00000000
_symmetry_Int_Tables_number   1
_chemical_formula_structural   La20Os12C13
_chemical_formula_sum   'La20 Os12 C13'
_cell_volume   997.75828102
_cell_formula_units_Z   1
loop_
 _symmetry_equiv_pos_site_id
 _symmetry_equiv_pos_as_xyz
  1  'x, y, z'
loop_
 _atom_site_type_symbol
 _atom_site_label
 _atom_site_symmetry_multiplicity
 _atom_site_fract_x
 _atom_site_fract_y
 _atom_site_fract_z
 _atom_site_occupancy
  La  La0  1  0.00000000  0.76585900  0.73919300  1
  La  La1  1  0.50000000  0.74914700  0.25231700  1
  La  La2  1  0.37420800  0.74945400  0.87477400  1
  La  La3  1  0.88098600  0.76494400  0.38050900  1
  La  La4  1  0.11901400  0.76494400  0.38050900  1
  La  La5  1  0.62579200  0.74945400  0.87477400  1
  La  La6  1  0.00000000  0.23414100  0.26080700  1
  La  La7  1  0.50000000  0.25085300  0.74768300  1
  La  La8  1  0.11901400  0.23505600  0.61949100  1
  La  La9  1  0.62579200  0.25054600  0.12522600  1
  La  La10  1  0.37420800  0.25054600  0.12522600  1
  La  La11  1  0.88098600  0.23505600  0.61949100  1
  La  La12  1  0.33350900  0.00000000  0.50000000  1
  La  La13  1  0.83361900  0.00000000  0.00000000  1
  La  La14  1  0.16638100  0.00000000  0.00000000  1
  La  La15  1  0.66649100  0.00000000  0.50000000  1
  La  La16  1  0.16594400  0.50000000  0.00000000  1
  La  La17  1  0.66728800  0.50000000  0.50000000  1
  La  La18  1  0.33271200  0.50000000  0.50000000  1
  La  La19  1  0.83405600  0.50000000  0.00000000  1
  Os  Os0  1  0.00000000  0.74895100  0.09597600  1
  Os  Os1  1  0.50000000  0.74961200  0.59852300  1
  Os  Os2  1  0.20269000  0.74941900  0.70196800  1
  Os  Os3  1  0.70044900  0.74956600  0.20036600  1
  Os  Os4  1  0.29955100  0.74956600  0.20036600  1
  Os  Os5  1  0.79731000  0.74941900  0.70196800  1
  Os  Os6  1  0.00000000  0.25104900  0.90402400  1
  Os  Os7  1  0.50000000  0.25038800  0.40147700  1
  Os  Os8  1  0.29955100  0.25043400  0.79963400  1
  Os  Os9  1  0.79731000  0.25058100  0.29803200  1
  Os  Os10  1  0.20269000  0.25058100  0.29803200  1
  Os  Os11  1  0.70044900  0.25043400  0.79963400  1
  C  C0  1  0.50000000  0.00000000  0.50000000  1
  C  C1  1  0.00000000  0.00000000  0.00000000  1
  C  C2  1  0.25005400  0.00166300  0.75000600  1
  C  C3  1  0.74994600  0.99833700  0.24999400  1
  C  C4  1  0.25005400  0.99833700  0.24999400  1
  C  C5  1  0.74994600  0.00166300  0.75000600  1
  C  C6  1  0.50000000  0.50000000  0.50000000  1
  C  C7  1  0.00000000  0.50000000  0.00000000  1
  C  C8  1  0.25029500  0.49930500  0.75093100  1
  C  C9  1  0.74970500  0.50069500  0.24906900  1
  C  C10  1  0.25029500  0.50069500  0.24906900  1
  C  C11  1  0.74970500  0.49930500  0.75093100  1
  C  C12  1  0.00000000  0.00000000  0.50000000  1
loop_
_geom_bond_atom_site_label_1
_geom_bond_atom_site_label_2
_geom_bond_distance
_geom_bond_site_symmetry_2
La0 Os5 3.256551 1_455
La0 Os2 3.256551 1_555
La1 Os4 3.236177 1_555
La1 Os3 3.236177 1_555
La2 Os4 3.218172 1_556
La2 Os1 3.235313 1_555
La3 Os0 3.232362 1_655
La3 Os5 3.241257 1_555
La4 Os0 3.232362 1_555
La4 Os2 3.241257 1_555
La5 Os3 3.218172 1_556
La5 Os1 3.235313 1_555
La6 Os9 3.256551 1_455
La6 Os10 3.256551 1_555
La7 Os11 3.236177 1_555
La7 Os8 3.236177 1_555
La8 Os6 3.232362 1_555
La8 Os10 3.241257 1_555
La9 Os11 3.218172 1_554
La9 Os7 3.235313 1_555
La10 Os8 3.218172 1_554
La10 Os7 3.235313 1_555
La11 Os6 3.232362 1_655
La11 Os9 3.241257 1_555
C0 Os7 1.928309 1_555
C0 Os1 1.928309 1_545
C0 La15 2.658584 1_555
C0 La12 2.658584 1_555
C0 La7 2.845183 1_555
C0 La1 2.845183 1_545
C1 Os0 1.921473 1_545
C1 Os6 1.921473 1_554
C1 La14 2.656827 1_555
C1 La13 2.656827 1_455
C1 La6 2.877840 1_555
C1 La0 2.877840 1_544
C2 Os8 1.923739 1_555
C2 Os2 1.927580 1_545
C2 La12 2.654126 1_555
C2 La14 2.655756 1_556
C2 La2 2.860790 1_545
C2 La8 2.886656 1_555
C3 Os3 1.923739 1_555
C3 Os9 1.927580 1_565
C3 La15 2.654126 1_565
C3 La13 2.655756 1_565
C3 La9 2.860790 1_565
C3 La3 2.886656 1_555
C4 Os4 1.923739 1_555
C4 Os10 1.927580 1_565
C4 La12 2.654126 1_565
C4 La14 2.655756 1_565
C4 La10 2.860790 1_565
C4 La4 2.886656 1_555
C5 Os11 1.923739 1_555
C5 Os5 1.927580 1_545
C5 La15 2.654126 1_555
C5 La13 2.655756 1_556
C5 La5 2.860790 1_545
C5 La11 2.886656 1_555
C6 Os1 1.925595 1_555
C6 Os7 1.925595 1_555
C6 La17 2.671310 1_555
C6 La18 2.671310 1_555
C6 La7 2.834901 1_555
C6 La1 2.834901 1_555
C7 Os6 1.910704 1_554
C7 Os0 1.910704 1_555
C7 La19 2.649849 1_455
C7 La16 2.649849 1_555
C7 La0 2.999442 1_554
C7 La6 2.999442 1_555
C8 Os2 1.917207 1_555
C8 Os8 1.919794 1_555
C8 La18 2.653176 1_555
C8 La16 2.653896 1_556
C8 La2 2.847996 1_555
C8 La8 3.015050 1_555
C9 Os9 1.917207 1_555
C9 Os3 1.919794 1_555
C9 La17 2.653176 1_555
C9 La19 2.653896 1_555
C9 La9 2.847996 1_555
C9 La3 3.015050 1_555
C10 Os10 1.917207 1_555
C10 Os4 1.919794 1_555
C10 La18 2.653176 1_555
C10 La16 2.653896 1_555
C10 La10 2.847996 1_555
C10 La4 3.015050 1_555
C11 Os5 1.917207 1_555
C11 Os11 1.919794 1_555
C11 La17 2.653176 1_555
C11 La19 2.653896 1_556
C11 La5 2.847996 1_555
C11 La11 3.015050 1_555
C12 La0 2.711679 1_545
C12 La6 2.711679 1_555
C12 La11 2.716378 1_455
C12 La3 2.716378 1_445
C12 La8 2.716378 1_555
C12 La4 2.716378 1_545
