# generated using pymatgen
data_NdAl4Ni
_symmetry_space_group_name_H-M   'P 1'
_cell_length_a   4.14755700
_cell_length_b   6.56122300
_cell_length_c   8.15906719
_cell_angle_alpha   90.00000000
_cell_angle_beta   104.72432142
_cell_angle_gamma   90.00000000
_symmetry_Int_Tables_number   1
_chemical_formula_structural   NdAl4Ni
_chemical_formula_sum   'Nd2 Al8 Ni2'
_cell_volume   214.74149621
_cell_formula_units_Z   2
loop_
 _symmetry_equiv_pos_site_id
 _symmetry_equiv_pos_as_xyz
  1  'x, y, z'
loop_
 _atom_site_type_symbol
 _atom_site_label
 _atom_site_symmetry_multiplicity
 _atom_site_fract_x
 _atom_site_fract_y
 _atom_site_fract_z
 _atom_site_occupancy
  Nd  Nd0  1  0.88574100  0.25000000  0.77148200  1
  Nd  Nd1  1  0.11425900  0.75000000  0.22851800  1
  Al  Al0  1  0.50000000  0.00000000  0.00000000  1
  Al  Al1  1  0.50000000  0.50000000  0.00000000  1
  Al  Al2  1  0.07741000  0.25000000  0.15481900  1
  Al  Al3  1  0.92259000  0.75000000  0.84518100  1
  Al  Al4  1  0.69173900  0.05158700  0.38347800  1
  Al  Al5  1  0.30826100  0.94841300  0.61652200  1
  Al  Al6  1  0.69173900  0.44841300  0.38347800  1
  Al  Al7  1  0.30826100  0.55158700  0.61652200  1
  Ni  Ni0  1  0.22300400  0.25000000  0.44600900  1
  Ni  Ni1  1  0.77699600  0.75000000  0.55399100  1
loop_
_geom_bond_atom_site_label_1
_geom_bond_atom_site_label_2
_geom_bond_distance
_geom_bond_site_symmetry_2
Nd0 Ni0 3.301054 1_655
Nd0 Ni0 3.301057 1_555
Nd1 Ni1 3.301054 1_455
Nd1 Ni1 3.301057 1_555
Al0 Al2 2.912678 1_555
Al0 Al3 2.912678 1_544
Al0 Al3 2.912681 1_444
Al0 Al2 2.912681 1_655
Al0 Al4 3.044943 1_555
Al0 Al5 3.044943 1_544
Al0 Nd1 3.200456 1_545
Al0 Nd0 3.200456 1_554
Al0 Nd0 3.200456 1_454
Al0 Nd1 3.200456 1_645
Al1 Al3 2.912678 1_554
Al1 Al2 2.912678 1_555
Al1 Al2 2.912681 1_655
Al1 Al3 2.912681 1_454
Al1 Al6 3.044943 1_555
Al1 Al7 3.044943 1_554
Al1 Nd1 3.200456 1_555
Al1 Nd0 3.200456 1_554
Al1 Nd0 3.200456 1_454
Al1 Nd1 3.200456 1_655
Al2 Ni0 2.297816 1_555
Al2 Nd0 3.024959 1_454
Al2 Nd1 3.331761 1_555
Al2 Nd1 3.331761 1_545
Al3 Ni1 2.297816 1_555
Al3 Nd1 3.024959 1_656
Al3 Nd0 3.331761 1_565
Al3 Nd0 3.331761 1_555
Al4 Ni1 2.392915 1_545
Al4 Ni0 2.497759 1_655
Al4 Ni0 2.497762 1_555
Al4 Nd1 3.116310 1_645
Al4 Nd1 3.116310 1_545
Al4 Nd0 3.327057 1_555
Al5 Ni0 2.392915 1_565
Al5 Ni1 2.497759 1_455
Al5 Ni1 2.497762 1_555
Al5 Nd0 3.116310 1_465
Al5 Nd0 3.116310 1_565
Al5 Nd1 3.327057 1_555
Al6 Ni1 2.392915 1_555
Al6 Ni0 2.497759 1_655
Al6 Ni0 2.497762 1_555
Al6 Nd1 3.116310 1_655
Al6 Nd1 3.116310 1_555
Al6 Nd0 3.327057 1_555
Al7 Ni0 2.392915 1_555
Al7 Ni1 2.497759 1_455
Al7 Ni1 2.497762 1_555
Al7 Nd0 3.116310 1_455
Al7 Nd0 3.116310 1_555
Al7 Nd1 3.327057 1_555
