# generated using pymatgen
data_BaHo2O4
_symmetry_space_group_name_H-M   'P 1'
_cell_length_a   3.43864023
_cell_length_b   10.40092596
_cell_length_c   12.06641302
_cell_angle_alpha   90.00000000
_cell_angle_beta   90.00000000
_cell_angle_gamma   90.00000000
_symmetry_Int_Tables_number   1
_chemical_formula_structural   BaHo2O4
_chemical_formula_sum   'Ba4 Ho8 O16'
_cell_volume   431.55577370
_cell_formula_units_Z   4
loop_
 _symmetry_equiv_pos_site_id
 _symmetry_equiv_pos_as_xyz
  1  'x, y, z'
loop_
 _atom_site_type_symbol
 _atom_site_label
 _atom_site_symmetry_multiplicity
 _atom_site_fract_x
 _atom_site_fract_y
 _atom_site_fract_z
 _atom_site_occupancy
  Ba  Ba0  1  0.75000000  0.74678612  0.85053321  1
  Ba  Ba1  1  0.25000000  0.25321388  0.14946679  1
  Ba  Ba2  1  0.75000000  0.24678612  0.64946679  1
  Ba  Ba3  1  0.25000000  0.75321388  0.35053321  1
  Ho  Ho0  1  0.25000000  0.42232617  0.89120671  1
  Ho  Ho1  1  0.75000000  0.57767383  0.10879329  1
  Ho  Ho2  1  0.25000000  0.92232617  0.60879329  1
  Ho  Ho3  1  0.75000000  0.07767383  0.39120671  1
  Ho  Ho4  1  0.75000000  0.07345130  0.88932997  1
  Ho  Ho5  1  0.25000000  0.92654870  0.11067003  1
  Ho  Ho6  1  0.75000000  0.57345130  0.61067003  1
  Ho  Ho7  1  0.25000000  0.42654870  0.38932997  1
  O  O0  1  0.25000000  0.43058320  0.57386361  1
  O  O1  1  0.75000000  0.56941680  0.42613639  1
  O  O2  1  0.25000000  0.93058320  0.92613639  1
  O  O3  1  0.75000000  0.06941680  0.07386361  1
  O  O4  1  0.25000000  0.51894701  0.21731438  1
  O  O5  1  0.75000000  0.48105299  0.78268562  1
  O  O6  1  0.25000000  0.01894701  0.28268562  1
  O  O7  1  0.75000000  0.98105299  0.71731438  1
  O  O8  1  0.25000000  0.11433778  0.51753832  1
  O  O9  1  0.75000000  0.88566222  0.48246168  1
  O  O10  1  0.25000000  0.61433778  0.98246168  1
  O  O11  1  0.75000000  0.38566222  0.01753832  1
  O  O12  1  0.75000000  0.29045674  0.34286678  1
  O  O13  1  0.25000000  0.70954326  0.65713322  1
  O  O14  1  0.75000000  0.79045674  0.15713322  1
  O  O15  1  0.25000000  0.20954326  0.84286678  1
loop_
_geom_bond_atom_site_label_1
_geom_bond_atom_site_label_2
_geom_bond_distance
_geom_bond_site_symmetry_2
Ba0 O10 2.718080 1_555
Ba0 O10 2.718080 1_655
Ba0 O2 2.728135 1_655
Ba0 O2 2.728135 1_555
Ba0 O5 2.882571 1_555
Ba0 O7 2.919067 1_555
Ba0 O13 2.924381 1_555
Ba0 O13 2.924381 1_655
Ba1 O11 2.718080 1_555
Ba1 O11 2.718080 1_455
Ba1 O3 2.728135 1_455
Ba1 O3 2.728135 1_555
Ba1 O4 2.882571 1_555
Ba1 O6 2.919067 1_555
Ba1 O12 2.924381 1_455
Ba1 O12 2.924381 1_555
Ba2 O8 2.718080 1_555
Ba2 O8 2.718080 1_655
Ba2 O0 2.728135 1_655
Ba2 O0 2.728135 1_555
Ba2 O7 2.882571 1_545
Ba2 O5 2.919067 1_555
Ba2 O15 2.924381 1_555
Ba2 O15 2.924381 1_655
Ba3 O9 2.718080 1_455
Ba3 O9 2.718080 1_555
Ba3 O1 2.728135 1_455
Ba3 O1 2.728135 1_555
Ba3 O6 2.882571 1_565
Ba3 O4 2.919067 1_555
Ba3 O14 2.924381 1_455
Ba3 O14 2.924381 1_555
Ho0 O5 2.245850 1_455
Ho0 O5 2.245850 1_555
Ho0 O10 2.280541 1_555
Ho0 O15 2.288714 1_555
Ho0 O11 2.329202 1_556
Ho0 O11 2.329202 1_456
Ho1 O4 2.245850 1_655
Ho1 O4 2.245850 1_555
Ho1 O11 2.280541 1_555
Ho1 O14 2.288714 1_555
Ho1 O10 2.329202 1_554
Ho1 O10 2.329202 1_654
Ho2 O7 2.245850 1_455
Ho2 O7 2.245850 1_555
Ho2 O8 2.280541 1_565
Ho2 O13 2.288714 1_555
Ho2 O9 2.329202 1_455
Ho2 O9 2.329202 1_555
Ho3 O6 2.245850 1_655
Ho3 O6 2.245850 1_555
Ho3 O9 2.280541 1_545
Ho3 O12 2.288714 1_555
Ho3 O8 2.329202 1_655
Ho3 O8 2.329202 1_555
Ho4 O3 2.227054 1_556
Ho4 O7 2.287299 1_545
Ho4 O15 2.296513 1_655
Ho4 O15 2.296513 1_555
Ho4 O2 2.315466 1_645
Ho4 O2 2.315466 1_545
Ho5 O2 2.227054 1_554
Ho5 O6 2.287299 1_565
Ho5 O14 2.296513 1_455
Ho5 O14 2.296513 1_555
Ho5 O3 2.315466 1_565
Ho5 O3 2.315466 1_465
Ho6 O1 2.227054 1_555
Ho6 O5 2.287299 1_555
Ho6 O13 2.296513 1_555
Ho6 O13 2.296513 1_655
Ho6 O0 2.315466 1_555
Ho6 O0 2.315466 1_655
Ho7 O0 2.227054 1_555
Ho7 O4 2.287299 1_555
Ho7 O12 2.296513 1_555
Ho7 O12 2.296513 1_455
Ho7 O1 2.315466 1_555
Ho7 O1 2.315466 1_455
