# generated using pymatgen
data_Sc2(SeO4)3
_symmetry_space_group_name_H-M   'P 1'
_cell_length_a   9.23549097
_cell_length_b   8.90844529
_cell_length_c   15.17158657
_cell_angle_alpha   55.23298753
_cell_angle_beta   90.00000000
_cell_angle_gamma   90.00000000
_symmetry_Int_Tables_number   1
_chemical_formula_structural   Sc2(SeO4)3
_chemical_formula_sum   'Sc8 Se12 O48'
_cell_volume   1025.38901398
_cell_formula_units_Z   4
loop_
 _symmetry_equiv_pos_site_id
 _symmetry_equiv_pos_as_xyz
  1  'x, y, z'
loop_
 _atom_site_type_symbol
 _atom_site_label
 _atom_site_symmetry_multiplicity
 _atom_site_fract_x
 _atom_site_fract_y
 _atom_site_fract_z
 _atom_site_occupancy
  Sc  Sc0  1  0.53217099  0.13120709  0.61573541  1
  Sc  Sc1  1  0.03217099  0.86879291  0.88426459  1
  Sc  Sc2  1  0.46782901  0.86879291  0.38426459  1
  Sc  Sc3  1  0.96782901  0.13120709  0.11573541  1
  Sc  Sc4  1  0.03345826  0.63072788  0.61751374  1
  Sc  Sc5  1  0.53345826  0.36927212  0.88248626  1
  Sc  Sc6  1  0.96654174  0.36927212  0.38248626  1
  Sc  Sc7  1  0.46654174  0.63072788  0.11751374  1
  Se  Se0  1  0.25348162  0.04205357  0.99331474  1
  Se  Se1  1  0.75348162  0.95794643  0.50668526  1
  Se  Se2  1  0.74651838  0.95794643  0.00668526  1
  Se  Se3  1  0.24651838  0.04205357  0.49331474  1
  Se  Se4  1  0.88279565  0.53321012  0.85690508  1
  Se  Se5  1  0.38279565  0.46678988  0.64309492  1
  Se  Se6  1  0.11720435  0.46678988  0.14309492  1
  Se  Se7  1  0.61720435  0.53321012  0.35690508  1
  Se  Se8  1  0.37688019  0.75505614  0.84835024  1
  Se  Se9  1  0.87688019  0.24494386  0.65164976  1
  Se  Se10  1  0.62311981  0.24494386  0.15164976  1
  Se  Se11  1  0.12311981  0.75505614  0.34835024  1
  O  O0  1  0.37553421  0.01349115  0.57608683  1
  O  O1  1  0.87553421  0.98650885  0.92391317  1
  O  O2  1  0.62446579  0.98650885  0.42391317  1
  O  O3  1  0.12446579  0.01349115  0.07608683  1
  O  O4  1  0.62901607  0.12251735  0.93542549  1
  O  O5  1  0.12901607  0.87748265  0.56457451  1
  O  O6  1  0.37098393  0.87748265  0.06457451  1
  O  O7  1  0.87098393  0.12251735  0.43542549  1
  O  O8  1  0.33155156  0.24003028  0.94433378  1
  O  O9  1  0.83155156  0.75996972  0.55566622  1
  O  O10  1  0.66844844  0.75996972  0.05566622  1
  O  O11  1  0.16844844  0.24003028  0.44433378  1
  O  O12  1  0.18935314  0.03541992  0.89424234  1
  O  O13  1  0.68935314  0.96458008  0.60575766  1
  O  O14  1  0.81064686  0.96458008  0.10575766  1
  O  O15  1  0.31064686  0.03541992  0.39424234  1
  O  O16  1  0.00068624  0.60729233  0.75986157  1
  O  O17  1  0.42196631  0.67972549  0.54622946  1
  O  O18  1  0.57803369  0.32027451  0.45377054  1
  O  O19  1  0.07803369  0.67972549  0.04622946  1
  O  O20  1  0.08107951  0.61341057  0.31623561  1
  O  O21  1  0.58107951  0.38658943  0.18376439  1
  O  O22  1  0.91892049  0.38658943  0.68376439  1
  O  O23  1  0.41892049  0.61341057  0.81623561  1
  O  O24  1  0.09131819  0.65854182  0.47632068  1
  O  O25  1  0.59131819  0.34145818  0.02367932  1
  O  O26  1  0.90868181  0.34145818  0.52367932  1
  O  O27  1  0.40868181  0.65854182  0.97632068  1
  O  O28  1  0.29702408  0.79850911  0.32464842  1
  O  O29  1  0.79702408  0.20149089  0.17535158  1
  O  O30  1  0.70297592  0.20149089  0.67535158  1
  O  O31  1  0.20297592  0.79850911  0.82464842  1
  O  O32  1  0.52535886  0.05774999  0.22222736  1
  O  O33  1  0.02535886  0.94225001  0.27777264  1
  O  O34  1  0.47464114  0.94225001  0.77777264  1
  O  O35  1  0.97464114  0.05774999  0.72222736  1
  O  O36  1  0.60763103  0.66568588  0.40016477  1
  O  O37  1  0.10763103  0.33431412  0.09983523  1
  O  O38  1  0.39236897  0.33431412  0.59983523  1
  O  O39  1  0.89236897  0.66568588  0.90016477  1
  O  O40  1  0.78094200  0.53739599  0.31368079  1
  O  O41  1  0.28094200  0.46260401  0.18631921  1
  O  O42  1  0.21905800  0.46260401  0.68631921  1
  O  O43  1  0.71905800  0.53739599  0.81368079  1
  O  O44  1  0.49931376  0.60729233  0.25986157  1
  O  O45  1  -0.00068624  0.39270767  0.24013843  1
  O  O46  1  0.50068624  0.39270767  0.74013843  1
  O  O47  1  0.92196631  0.32027451  0.95377054  1
loop_
_geom_bond_atom_site_label_1
_geom_bond_atom_site_label_2
_geom_bond_distance
_geom_bond_site_symmetry_2
O0 Se3 1.642269 1_555
O0 Sc0 2.067285 1_555
O1 Se2 1.642269 1_556
O1 Sc1 2.067285 1_655
O2 Se1 1.642269 1_555
O2 Sc2 2.067285 1_555
O3 Se0 1.642269 1_554
O3 Sc3 2.067285 1_455
O4 Se2 1.639563 1_546
O4 Sc5 2.059724 1_555
O5 Se3 1.639563 1_565
O5 Sc4 2.059724 1_555
O6 Se0 1.639563 1_564
O6 Sc7 2.059724 1_555
O7 Se1 1.639563 1_545
O7 Sc6 2.059724 1_555
O8 Se0 1.639473 1_555
O8 Sc5 2.109758 1_555
O9 Se1 1.639473 1_555
O9 Sc4 2.109758 1_655
O10 Se2 1.639473 1_555
O10 Sc7 2.109758 1_555
O11 Se3 1.639473 1_555
O11 Sc6 2.109758 1_455
O12 Se0 1.647675 1_555
O12 Sc1 2.142404 1_545
O13 Se1 1.647675 1_555
O13 Sc0 2.142404 1_565
O14 Se2 1.647675 1_555
O14 Sc3 2.142404 1_565
O15 Se3 1.647675 1_555
O15 Sc2 2.142404 1_545
O16 Se4 1.637224 1_455
O16 Sc4 2.070032 1_555
O17 Se5 1.646080 1_555
O17 Sc2 2.081881 1_555
O18 Se7 1.646080 1_555
O18 Sc0 2.081881 1_555
O19 Se6 1.646080 1_555
O19 Sc1 2.081881 1_554
O20 Se11 1.637547 1_555
O20 Sc6 2.089562 1_455
O21 Se10 1.637547 1_555
O21 Sc7 2.089562 1_555
O22 Se9 1.637547 1_555
O22 Sc4 2.089562 1_655
O23 Se8 1.637547 1_555
O23 Sc5 2.089562 1_555
O24 Se11 1.640481 1_555
O24 Sc4 2.080936 1_555
O25 Se10 1.640481 1_555
O25 Sc5 2.080936 1_554
O26 Se9 1.640481 1_555
O26 Sc6 2.080936 1_555
O27 Se8 1.640481 1_555
O27 Sc7 2.080936 1_556
O28 Se11 1.643146 1_555
O28 Sc2 2.084313 1_555
O29 Se10 1.643146 1_555
O29 Sc3 2.084313 1_555
O30 Se9 1.643146 1_555
O30 Sc0 2.084313 1_555
O31 Se8 1.643146 1_555
O31 Sc1 2.084313 1_555
O32 Se10 1.645043 1_555
O32 Sc2 2.107096 1_545
O33 Se11 1.645043 1_555
O33 Sc3 2.107096 1_465
O34 Se8 1.645043 1_555
O34 Sc0 2.107096 1_565
O35 Se9 1.645043 1_555
O35 Sc1 2.107096 1_645
O36 Se7 1.647634 1_555
O36 Sc2 2.121616 1_555
O37 Se6 1.647634 1_555
O37 Sc3 2.121616 1_455
O38 Se5 1.647634 1_555
O38 Sc0 2.121616 1_555
O39 Se4 1.647634 1_555
O39 Sc1 2.121616 1_655
O40 Se7 1.640211 1_555
O40 Sc6 2.118476 1_555
O41 Se6 1.640211 1_555
O41 Sc7 2.118476 1_555
O42 Se5 1.640211 1_555
O42 Sc4 2.118476 1_555
O43 Se4 1.640211 1_555
O43 Sc5 2.118476 1_555
O44 Se7 1.637224 1_555
O44 Sc7 2.070032 1_555
O45 Se6 1.637224 1_555
O45 Sc6 2.070032 1_455
O46 Se5 1.637224 1_555
O46 Sc5 2.070032 1_555
O47 Se4 1.646080 1_555
O47 Sc3 2.081881 1_556
