# generated using pymatgen
data_Fe2PH2CO7
_symmetry_space_group_name_H-M   'P 1'
_cell_length_a   5.75750900
_cell_length_b   7.81217700
_cell_length_c   17.19747352
_cell_angle_alpha   63.26872779
_cell_angle_beta   90.00000000
_cell_angle_gamma   90.00000000
_symmetry_Int_Tables_number   1
_chemical_formula_structural   Fe2PH2CO7
_chemical_formula_sum   'Fe8 P4 H8 C4 O28'
_cell_volume   690.85052081
_cell_formula_units_Z   4
loop_
 _symmetry_equiv_pos_site_id
 _symmetry_equiv_pos_as_xyz
  1  'x, y, z'
loop_
 _atom_site_type_symbol
 _atom_site_label
 _atom_site_symmetry_multiplicity
 _atom_site_fract_x
 _atom_site_fract_y
 _atom_site_fract_z
 _atom_site_occupancy
  Fe  Fe0  1  0.96066600  0.78525200  0.33951400  1
  Fe  Fe1  1  0.46066600  0.21474800  0.16048600  1
  Fe  Fe2  1  0.03933400  0.21474800  0.66048600  1
  Fe  Fe3  1  0.53933400  0.78525200  0.83951400  1
  Fe  Fe4  1  0.48466400  0.36199400  0.32221300  1
  Fe  Fe5  1  0.98466400  0.63800600  0.17778700  1
  Fe  Fe6  1  0.51533600  0.63800600  0.67778700  1
  Fe  Fe7  1  0.01533600  0.36199400  0.82221300  1
  P  P0  1  0.50159000  0.78207900  0.14464300  1
  P  P1  1  0.00159000  0.21792100  0.35535700  1
  P  P2  1  0.49841000  0.21792100  0.85535700  1
  P  P3  1  0.99841000  0.78207900  0.64464300  1
  H  H0  1  0.34157800  0.91087000  0.69558100  1
  H  H1  1  0.84157800  0.08913000  0.80441900  1
  H  H2  1  0.65842200  0.08913000  0.30441900  1
  H  H3  1  0.15842200  0.91087000  0.19558100  1
  H  H4  1  0.74258500  0.96866900  0.54630900  1
  H  H5  1  0.24258500  0.03133100  0.95369100  1
  H  H6  1  0.25741500  0.03133100  0.45369100  1
  H  H7  1  0.75741500  0.96866900  0.04630900  1
  C  C0  1  0.87245000  0.52036900  0.50952200  1
  C  C1  1  0.37245000  0.47963100  0.99047800  1
  C  C2  1  0.12755000  0.47963100  0.49047800  1
  C  C3  1  0.62755000  0.52036900  0.00952200  1
  O  O0  1  0.27448400  0.16896500  0.92188200  1
  O  O1  1  0.77448400  0.83103500  0.57811800  1
  O  O2  1  0.72551600  0.83103500  0.07811800  1
  O  O3  1  0.22551600  0.16896500  0.42188200  1
  O  O4  1  0.98882900  0.15702400  0.78141000  1
  O  O5  1  0.48882900  0.84297600  0.71859000  1
  O  O6  1  0.01117100  0.84297600  0.21859000  1
  O  O7  1  0.51117100  0.15702400  0.28141000  1
  O  O8  1  0.70177700  0.27839500  0.89421800  1
  O  O9  1  0.20177700  0.72160500  0.60578200  1
  O  O10  1  0.29822300  0.72160500  0.10578200  1
  O  O11  1  0.79822300  0.27839500  0.39421800  1
  O  O12  1  0.89182400  0.61317300  0.72622900  1
  O  O13  1  0.39182400  0.38682700  0.77377100  1
  O  O14  1  0.10817600  0.38682700  0.27377100  1
  O  O15  1  0.60817600  0.61317300  0.22622900  1
  O  O16  1  0.29782500  0.57552300  0.91327000  1
  O  O17  1  0.79782500  0.42447700  0.58673000  1
  O  O18  1  0.70217500  0.42447700  0.08673000  1
  O  O19  1  0.20217500  0.57552300  0.41327000  1
  O  O20  1  0.04654100  0.95953700  0.65709200  1
  O  O21  1  0.54654100  0.04046300  0.84290800  1
  O  O22  1  0.95345900  0.04046300  0.34290800  1
  O  O23  1  0.45345900  0.95953700  0.15709200  1
  O  O24  1  0.74094000  0.64622200  0.94700400  1
  O  O25  1  0.24094000  0.35377800  0.55299600  1
  O  O26  1  0.25906000  0.35377800  0.05299600  1
  O  O27  1  0.75906000  0.64622200  0.44700400  1
loop_
_geom_bond_atom_site_label_1
_geom_bond_atom_site_label_2
_geom_bond_distance
_geom_bond_site_symmetry_2
Fe0 O6 1.941377 1_655
Fe0 O22 2.021106 1_565
Fe0 O27 2.034197 1_555
Fe0 O19 2.087398 1_655
Fe1 O7 1.941377 1_555
Fe1 O23 2.021106 1_545
Fe1 O26 2.034197 1_555
Fe1 O18 2.087398 1_555
Fe2 O4 1.941377 1_455
Fe2 O20 2.021106 1_545
Fe2 O25 2.034197 1_555
Fe2 O17 2.087398 1_455
Fe3 O5 1.941377 1_555
Fe3 O21 2.021106 1_565
Fe3 O24 2.034197 1_555
Fe3 O16 2.087398 1_555
Fe4 O7 2.022510 1_555
Fe4 O15 2.041321 1_555
Fe4 O11 2.119330 1_555
Fe4 O3 2.261173 1_555
Fe4 O14 2.298891 1_555
Fe5 O6 2.022510 1_655
Fe5 O14 2.041321 1_655
Fe5 O10 2.119330 1_655
Fe5 O2 2.261173 1_555
Fe5 O15 2.298891 1_555
Fe6 O5 2.022510 1_555
Fe6 O13 2.041321 1_555
Fe6 O9 2.119330 1_555
Fe6 O1 2.261173 1_555
Fe6 O12 2.298891 1_555
Fe7 O4 2.022510 1_455
Fe7 O12 2.041321 1_455
Fe7 O8 2.119330 1_455
Fe7 O0 2.261173 1_555
Fe7 O13 2.298891 1_555
H0 O5 0.983796 1_555
H1 O4 0.983796 1_555
H2 O7 0.983796 1_555
H3 O6 0.983796 1_555
H4 O1 0.979766 1_555
H5 O0 0.979766 1_555
H6 O3 0.979766 1_555
H7 O2 0.979766 1_555
C0 O27 1.264062 1_555
C0 O17 1.270423 1_555
C1 O26 1.264062 1_556
C1 O16 1.270423 1_555
C2 O25 1.264062 1_555
C2 O19 1.270423 1_555
C3 O24 1.264062 1_554
C3 O18 1.270423 1_555
O0 P2 1.650365 1_555
O1 P3 1.650365 1_555
O2 P0 1.650365 1_555
O3 P1 1.650365 1_555
O8 P2 1.524745 1_555
O9 P3 1.524745 1_455
O10 P0 1.524745 1_555
O11 P1 1.524745 1_655
O12 P3 1.555897 1_555
O13 P2 1.555897 1_555
O14 P1 1.555897 1_555
O15 P0 1.555897 1_555
O20 P3 1.520380 1_455
O21 P2 1.520380 1_555
O22 P1 1.520380 1_655
O23 P0 1.520380 1_555
