# generated using pymatgen
data_ZnP2
_symmetry_space_group_name_H-M   'P 1'
_cell_length_a   5.05271944
_cell_length_b   5.05271944
_cell_length_c   18.41534157
_cell_angle_alpha   90.00000000
_cell_angle_beta   90.00000000
_cell_angle_gamma   90.00000000
_symmetry_Int_Tables_number   1
_chemical_formula_structural   ZnP2
_chemical_formula_sum   'Zn8 P16'
_cell_volume   470.14318668
_cell_formula_units_Z   8
loop_
 _symmetry_equiv_pos_site_id
 _symmetry_equiv_pos_as_xyz
  1  'x, y, z'
loop_
 _atom_site_type_symbol
 _atom_site_label
 _atom_site_symmetry_multiplicity
 _atom_site_fract_x
 _atom_site_fract_y
 _atom_site_fract_z
 _atom_site_occupancy
  Zn  Zn0  1  0.34500034  0.86303953  0.44916634  1
  Zn  Zn1  1  0.65499966  0.13696047  0.94916634  1
  Zn  Zn2  1  0.86303953  0.34500034  0.55083366  1
  Zn  Zn3  1  0.36303953  0.15499966  0.69916634  1
  Zn  Zn4  1  0.63696047  0.84500034  0.19916634  1
  Zn  Zn5  1  0.15499966  0.36303953  0.30083366  1
  Zn  Zn6  1  0.84500034  0.63696047  0.80083366  1
  Zn  Zn7  1  0.13696047  0.65499966  0.05083366  1
  P  P0  1  0.99050602  0.01836965  0.37596085  1
  P  P1  1  0.00949398  0.98163035  0.87596085  1
  P  P2  1  0.01836965  0.99050602  0.62403915  1
  P  P3  1  0.51836965  0.50949398  0.62596085  1
  P  P4  1  0.48163035  0.49050602  0.12596085  1
  P  P5  1  0.50949398  0.51836965  0.37403915  1
  P  P6  1  0.49050602  0.48163035  0.87403915  1
  P  P7  1  0.98163035  0.00949398  0.12403915  1
  P  P8  1  0.80268802  0.31926596  0.05924689  1
  P  P9  1  0.18073404  0.30268802  0.80924689  1
  P  P10  1  0.81926596  0.69731198  0.30924689  1
  P  P11  1  0.30268802  0.18073404  0.19075311  1
  P  P12  1  0.69731198  0.81926596  0.69075311  1
  P  P13  1  0.19731198  0.68073404  0.55924689  1
  P  P14  1  0.31926596  0.80268802  0.94075311  1
  P  P15  1  0.68073404  0.19731198  0.44075311  1
loop_
_geom_bond_atom_site_label_1
_geom_bond_atom_site_label_2
_geom_bond_distance
_geom_bond_site_symmetry_2
P0 P15 2.165862 1_555
P0 P10 2.211235 1_545
P0 Zn5 2.374392 1_655
P0 Zn0 2.375208 1_645
P1 P14 2.165862 1_555
P1 P9 2.211235 1_565
P1 Zn6 2.374392 1_455
P1 Zn1 2.375208 1_465
P2 Zn3 2.374392 1_565
P2 Zn2 2.375208 1_465
P3 Zn2 2.374392 1_555
P3 Zn3 2.375208 1_555
P4 P8 2.211235 1_555
P4 Zn7 2.374392 1_555
P4 Zn4 2.375208 1_555
P5 Zn0 2.374392 1_555
P5 Zn5 2.375208 1_555
P6 P9 2.165862 1_555
P6 Zn1 2.374392 1_555
P6 Zn6 2.375208 1_555
P7 P8 2.165862 1_555
P7 Zn4 2.374392 1_545
P7 Zn7 2.375208 1_645
P8 Zn1 2.348356 1_554
P8 Zn7 2.398820 1_655
P9 Zn3 2.348356 1_555
P9 Zn6 2.398820 1_455
P10 P5 2.165862 1_555
P10 Zn4 2.348356 1_555
P10 Zn5 2.398820 1_655
P11 P4 2.165862 1_555
P11 P7 2.211235 1_455
P11 Zn5 2.348356 1_555
P11 Zn4 2.398820 1_545
P12 P3 2.165862 1_555
P12 P2 2.211235 1_655
P12 Zn6 2.348356 1_555
P12 Zn3 2.398820 1_565
P13 P2 2.165862 1_555
P13 P3 2.211235 1_555
P13 Zn0 2.348356 1_555
P13 Zn2 2.398820 1_455
P14 P6 2.211235 1_555
P14 Zn7 2.348356 1_556
P14 Zn1 2.398820 1_565
P15 P5 2.211235 1_555
P15 Zn2 2.348356 1_555
P15 Zn0 2.398820 1_545
