# generated using pymatgen
data_YFe2
_symmetry_space_group_name_H-M   'P 1'
_cell_length_a   12.57725057
_cell_length_b   12.57725057
_cell_length_c   12.57725057
_cell_angle_alpha   109.47122063
_cell_angle_beta   109.47122063
_cell_angle_gamma   109.47122063
_symmetry_Int_Tables_number   1
_chemical_formula_structural   YFe2
_chemical_formula_sum   'Y32 Fe64'
_cell_volume   1531.56434907
_cell_formula_units_Z   32
loop_
 _symmetry_equiv_pos_site_id
 _symmetry_equiv_pos_as_xyz
  1  'x, y, z'
loop_
 _atom_site_type_symbol
 _atom_site_label
 _atom_site_symmetry_multiplicity
 _atom_site_fract_x
 _atom_site_fract_y
 _atom_site_fract_z
 _atom_site_occupancy
  Y  Y0  1  0.00000000  0.00000000  0.00000000  1
  Y  Y1  1  0.50000000  0.50000000  0.00000000  1
  Y  Y2  1  0.50000000  0.00000000  0.50000000  1
  Y  Y3  1  0.00000000  0.50000000  0.50000000  1
  Y  Y4  1  0.00000000  0.00000000  0.74818500  1
  Y  Y5  1  0.00000000  0.74818500  0.00000000  1
  Y  Y6  1  0.74818500  0.00000000  0.00000000  1
  Y  Y7  1  0.25181500  0.25181500  0.25181500  1
  Y  Y8  1  0.00000000  0.24771700  0.74588600  1
  Y  Y9  1  0.75228300  0.75228300  0.49816900  1
  Y  Y10  1  0.24771700  0.00000000  0.74588600  1
  Y  Y11  1  0.00000000  0.74588600  0.24771700  1
  Y  Y12  1  0.24771700  0.74588600  0.00000000  1
  Y  Y13  1  0.75228300  0.49816900  0.75228300  1
  Y  Y14  1  0.49816900  0.75228300  0.75228300  1
  Y  Y15  1  0.74588600  0.24771700  0.00000000  1
  Y  Y16  1  0.74588600  0.00000000  0.24771700  1
  Y  Y17  1  0.50183100  0.25411400  0.25411400  1
  Y  Y18  1  0.25411400  0.25411400  0.50183100  1
  Y  Y19  1  0.25411400  0.50183100  0.25411400  1
  Y  Y20  1  0.75054900  0.75054900  0.24643000  1
  Y  Y21  1  0.24945100  0.00000000  0.49588100  1
  Y  Y22  1  0.00000000  0.24945100  0.49588100  1
  Y  Y23  1  0.24945100  0.49588100  0.00000000  1
  Y  Y24  1  0.75054900  0.24643000  0.75054900  1
  Y  Y25  1  0.00000000  0.49588100  0.24945100  1
  Y  Y26  1  0.49588100  0.24945100  0.00000000  1
  Y  Y27  1  0.49588100  0.00000000  0.24945100  1
  Y  Y28  1  0.24643000  0.75054900  0.75054900  1
  Y  Y29  1  0.50411900  0.50411900  0.75357000  1
  Y  Y30  1  0.50411900  0.75357000  0.50411900  1
  Y  Y31  1  0.75357000  0.50411900  0.50411900  1
  Fe  Fe0  1  0.00000000  0.00000000  0.37052700  1
  Fe  Fe1  1  0.00000000  0.37052700  0.00000000  1
  Fe  Fe2  1  0.37052700  0.00000000  0.00000000  1
  Fe  Fe3  1  0.62947300  0.62947300  0.62947300  1
  Fe  Fe4  1  0.00000000  0.49545200  0.87519700  1
  Fe  Fe5  1  0.50454800  0.50454800  0.37974500  1
  Fe  Fe6  1  0.49545200  0.00000000  0.87519700  1
  Fe  Fe7  1  0.00000000  0.87519700  0.49545200  1
  Fe  Fe8  1  0.49545200  0.87519700  0.00000000  1
  Fe  Fe9  1  0.50454800  0.37974500  0.50454800  1
  Fe  Fe10  1  0.37974500  0.50454800  0.50454800  1
  Fe  Fe11  1  0.87519700  0.49545200  0.00000000  1
  Fe  Fe12  1  0.87519700  0.00000000  0.49545200  1
  Fe  Fe13  1  0.62025500  0.12480300  0.12480300  1
  Fe  Fe14  1  0.12480300  0.12480300  0.62025500  1
  Fe  Fe15  1  0.12480300  0.62025500  0.12480300  1
  Fe  Fe16  1  0.00000000  0.24903200  0.12578900  1
  Fe  Fe17  1  0.75096800  0.75096800  0.87675700  1
  Fe  Fe18  1  0.24903200  0.00000000  0.12578900  1
  Fe  Fe19  1  0.00000000  0.12578900  0.24903200  1
  Fe  Fe20  1  0.24903200  0.12578900  0.00000000  1
  Fe  Fe21  1  0.75096800  0.87675700  0.75096800  1
  Fe  Fe22  1  0.87675700  0.75096800  0.75096800  1
  Fe  Fe23  1  0.12578900  0.24903200  0.00000000  1
  Fe  Fe24  1  0.12578900  0.00000000  0.24903200  1
  Fe  Fe25  1  0.12324300  0.87421100  0.87421100  1
  Fe  Fe26  1  0.87421100  0.87421100  0.12324300  1
  Fe  Fe27  1  0.87421100  0.12324300  0.87421100  1
  Fe  Fe28  1  0.00000000  0.75089100  0.62272300  1
  Fe  Fe29  1  0.24910900  0.24910900  0.87183200  1
  Fe  Fe30  1  0.75089100  0.00000000  0.62272300  1
  Fe  Fe31  1  0.00000000  0.62272300  0.75089100  1
  Fe  Fe32  1  0.75089100  0.62272300  0.00000000  1
  Fe  Fe33  1  0.24910900  0.87183200  0.24910900  1
  Fe  Fe34  1  0.87183200  0.24910900  0.24910900  1
  Fe  Fe35  1  0.62272300  0.75089100  0.00000000  1
  Fe  Fe36  1  0.62272300  0.00000000  0.75089100  1
  Fe  Fe37  1  0.12816800  0.37727700  0.37727700  1
  Fe  Fe38  1  0.37727700  0.37727700  0.12816800  1
  Fe  Fe39  1  0.37727700  0.12816800  0.37727700  1
  Fe  Fe40  1  0.74916200  0.49789300  0.12456800  1
  Fe  Fe41  1  0.50210700  0.25126900  0.62667500  1
  Fe  Fe42  1  0.74873100  0.25083800  0.37540600  1
  Fe  Fe43  1  0.25083800  0.74873100  0.37540600  1
  Fe  Fe44  1  0.49789300  0.74916200  0.12456800  1
  Fe  Fe45  1  0.25126900  0.50210700  0.62667500  1
  Fe  Fe46  1  0.25083800  0.37540600  0.74873100  1
  Fe  Fe47  1  0.49789300  0.12456800  0.74916200  1
  Fe  Fe48  1  0.25126900  0.62667500  0.50210700  1
  Fe  Fe49  1  0.74916200  0.12456800  0.49789300  1
  Fe  Fe50  1  0.50210700  0.62667500  0.25126900  1
  Fe  Fe51  1  0.74873100  0.37540600  0.25083800  1
  Fe  Fe52  1  0.62667500  0.50210700  0.25126900  1
  Fe  Fe53  1  0.37540600  0.74873100  0.25083800  1
  Fe  Fe54  1  0.12456800  0.74916200  0.49789300  1
  Fe  Fe55  1  0.62667500  0.25126900  0.50210700  1
  Fe  Fe56  1  0.37540600  0.25083800  0.74873100  1
  Fe  Fe57  1  0.12456800  0.49789300  0.74916200  1
  Fe  Fe58  1  0.37332500  0.62459400  0.87543200  1
  Fe  Fe59  1  0.62459400  0.87543200  0.37332500  1
  Fe  Fe60  1  0.87543200  0.37332500  0.62459400  1
  Fe  Fe61  1  0.37332500  0.87543200  0.62459400  1
  Fe  Fe62  1  0.62459400  0.37332500  0.87543200  1
  Fe  Fe63  1  0.87543200  0.62459400  0.37332500  1
loop_
_geom_bond_atom_site_label_1
_geom_bond_atom_site_label_2
_geom_bond_distance
_geom_bond_site_symmetry_2
Fe0 Fe19 2.539621 1_555
Fe0 Fe26 2.539621 1_445
Fe0 Fe24 2.539621 1_555
Fe0 Fe7 2.564527 1_545
Fe0 Fe14 2.564527 1_555
Fe0 Fe12 2.564527 1_455
Fe0 Y22 3.005225 1_555
Fe0 Y20 3.005225 1_445
Fe0 Y21 3.005225 1_555
Fe0 Y11 3.051145 1_545
Fe0 Y16 3.051145 1_455
Fe0 Y18 3.051145 1_555
Fe1 Fe23 2.539621 1_555
Fe1 Fe27 2.539621 1_454
Fe1 Fe16 2.539621 1_555
Fe1 Fe4 2.564527 1_554
Fe1 Fe11 2.564527 1_455
Fe1 Fe15 2.564527 1_555
Fe1 Y25 3.005225 1_555
Fe1 Y23 3.005225 1_555
Fe1 Y24 3.005225 1_454
Fe1 Y8 3.051145 1_554
Fe1 Y15 3.051145 1_455
Fe1 Y19 3.051145 1_555
Fe2 Fe20 2.539621 1_555
Fe2 Fe25 2.539621 1_544
Fe2 Fe6 2.564527 1_554
Fe2 Fe8 2.564527 1_545
Fe2 Y26 3.005225 1_555
Fe2 Y28 3.005225 1_544
Fe2 Y27 3.005225 1_555
Fe2 Y10 3.051145 1_554
Fe2 Y12 3.051145 1_545
Fe2 Y17 3.051145 1_555
Fe3 Fe5 2.564527 1_555
Fe3 Fe9 2.564527 1_555
Fe3 Y29 3.005225 1_555
Fe3 Y31 3.005225 1_555
Fe3 Y30 3.005225 1_555
Fe3 Y14 3.051145 1_555
Fe3 Y13 3.051145 1_555
Fe3 Y9 3.051145 1_555
Fe4 Fe60 2.573791 1_455
Fe4 Fe57 2.573791 1_555
Fe4 Y8 2.995852 1_555
Fe4 Y13 2.998868 1_455
Fe4 Y12 2.998868 1_556
Fe4 Y24 3.001194 1_455
Fe4 Y23 3.001194 1_556
Fe4 Y5 3.039999 1_556
Fe5 Fe9 2.563274 1_555
Fe5 Fe50 2.573791 1_555
Fe5 Fe52 2.573791 1_555
Fe5 Y9 2.995852 1_555
Fe5 Y17 2.998868 1_555
Fe5 Y19 2.998868 1_555
Fe5 Y31 3.001194 1_555
Fe5 Y30 3.001194 1_555
Fe5 Y7 3.039999 1_555
Fe6 Fe8 2.563274 1_546
Fe6 Fe61 2.573791 1_545
Fe6 Y10 2.995852 1_555
Fe6 Y14 2.998868 1_545
Fe6 Y15 2.998868 1_556
Fe6 Y26 3.001194 1_556
Fe6 Y28 3.001194 1_545
Fe6 Y6 3.039999 1_556
Fe7 Y11 2.995852 1_555
Fe7 Y9 2.998868 1_455
Fe7 Y10 2.998868 1_565
Fe7 Y20 3.001194 1_455
Fe7 Y21 3.001194 1_565
Fe7 Y4 3.039999 1_565
Fe8 Y12 2.995852 1_555
Fe8 Y14 2.998868 1_554
Fe8 Y16 2.998868 1_565
Fe8 Y27 3.001194 1_565
Fe8 Y28 3.001194 1_554
Fe8 Y6 3.039999 1_565
Fe9 Y13 2.995852 1_555
Fe9 Y17 2.998868 1_555
Fe9 Y18 2.998868 1_555
Fe9 Y31 3.001194 1_555
Fe9 Y29 3.001194 1_555
Fe9 Y7 3.039999 1_555
Fe10 Fe5 2.563274 1_555
Fe10 Fe9 2.563274 1_555
Fe10 Fe3 2.564527 1_555
Fe10 Fe45 2.573791 1_555
Fe10 Fe48 2.573791 1_555
Fe10 Fe37 2.583605 1_555
Fe10 Y14 2.995852 1_555
Fe10 Y19 2.998868 1_555
Fe10 Y18 2.998868 1_555
Fe10 Y29 3.001194 1_555
Fe10 Y30 3.001194 1_555
Fe10 Y7 3.039999 1_555
Fe11 Fe4 2.563274 1_654
Fe11 Fe15 2.563274 1_655
Fe11 Fe40 2.573791 1_555
Fe11 Fe62 2.573791 1_554
Fe11 Fe32 2.583605 1_555
Fe11 Y15 2.995852 1_555
Fe11 Y13 2.998868 1_554
Fe11 Y11 2.998868 1_655
Fe11 Y24 3.001194 1_554
Fe11 Y25 3.001194 1_655
Fe11 Y5 3.039999 1_655
Fe12 Fe7 2.563274 1_645
Fe12 Fe14 2.563274 1_655
Fe12 Fe49 2.573791 1_555
Fe12 Fe59 2.573791 1_545
Fe12 Fe30 2.583605 1_555
Fe12 Y16 2.995852 1_555
Fe12 Y9 2.998868 1_545
Fe12 Y8 2.998868 1_655
Fe12 Y20 3.001194 1_545
Fe12 Y22 3.001194 1_655
Fe12 Y4 3.039999 1_655
Fe13 Fe6 2.563274 1_554
Fe13 Fe8 2.563274 1_545
Fe13 Fe2 2.564527 1_555
Fe13 Fe42 2.573791 1_555
Fe13 Fe51 2.573791 1_555
Fe13 Fe34 2.583605 1_555
Fe13 Y17 2.995852 1_555
Fe13 Y15 2.998868 1_555
Fe13 Y16 2.998868 1_555
Fe13 Y27 3.001194 1_555
Fe13 Y26 3.001194 1_555
Fe13 Y6 3.039999 1_555
Fe14 Fe7 2.563274 1_545
Fe14 Fe46 2.573791 1_555
Fe14 Fe56 2.573791 1_555
Fe14 Fe29 2.583605 1_555
Fe14 Y18 2.995852 1_555
Fe14 Y10 2.998868 1_555
Fe14 Y8 2.998868 1_555
Fe14 Y21 3.001194 1_555
Fe14 Y22 3.001194 1_555
Fe14 Y4 3.039999 1_555
Fe15 Fe4 2.563274 1_554
Fe15 Fe53 2.573791 1_555
Fe15 Fe43 2.573791 1_555
Fe15 Fe33 2.583605 1_555
Fe15 Y19 2.995852 1_555
Fe15 Y12 2.998868 1_555
Fe15 Y11 2.998868 1_555
Fe15 Y23 3.001194 1_555
Fe15 Y25 3.001194 1_555
Fe15 Y5 3.039999 1_555
Fe16 Fe19 2.531234 1_555
Fe16 Fe37 2.582849 1_555
Fe16 Fe34 2.582849 1_455
Fe16 Fe23 2.583525 1_555
Fe16 Fe27 2.583525 1_454
Fe16 Y25 2.973028 1_555
Fe16 Y0 3.001622 1_555
Fe16 Y7 3.014430 1_555
Fe16 Y6 3.014430 1_455
Fe16 Y15 3.048671 1_455
Fe16 Y19 3.048671 1_555
Fe17 Fe26 2.531234 1_556
Fe17 Fe3 2.539621 1_555
Fe17 Fe32 2.582849 1_556
Fe17 Fe35 2.582849 1_556
Fe17 Fe21 2.583525 1_555
Fe17 Fe22 2.583525 1_555
Fe17 Y29 2.973028 1_555
Fe17 Y0 3.001622 1_666
Fe17 Y6 3.014430 1_566
Fe17 Y5 3.014430 1_656
Fe17 Y13 3.048671 1_555
Fe17 Y14 3.048671 1_555
Fe18 Fe24 2.531234 1_555
Fe18 Fe2 2.539621 1_555
Fe18 Fe33 2.582849 1_545
Fe18 Fe39 2.582849 1_555
Fe18 Fe20 2.583525 1_555
Fe18 Fe25 2.583525 1_544
Fe18 Y27 2.973028 1_555
Fe18 Y0 3.001622 1_555
Fe18 Y7 3.014430 1_555
Fe18 Y5 3.014430 1_545
Fe18 Y12 3.048671 1_545
Fe18 Y17 3.048671 1_555
Fe19 Fe37 2.582849 1_555
Fe19 Fe34 2.582849 1_455
Fe19 Fe24 2.583525 1_555
Fe19 Fe26 2.583525 1_445
Fe19 Y22 2.973028 1_555
Fe19 Y0 3.001622 1_555
Fe19 Y7 3.014430 1_555
Fe19 Y6 3.014430 1_455
Fe19 Y16 3.048671 1_455
Fe19 Y18 3.048671 1_555
Fe20 Fe23 2.531234 1_555
Fe20 Fe29 2.582849 1_554
Fe20 Fe38 2.582849 1_555
Fe20 Fe25 2.583525 1_544
Fe20 Y26 2.973028 1_555
Fe20 Y0 3.001622 1_555
Fe20 Y4 3.014430 1_554
Fe20 Y7 3.014430 1_555
Fe20 Y10 3.048671 1_554
Fe20 Y17 3.048671 1_555
Fe21 Fe27 2.531234 1_565
Fe21 Fe3 2.539621 1_555
Fe21 Fe36 2.582849 1_565
Fe21 Fe30 2.582849 1_565
Fe21 Fe22 2.583525 1_555
Fe21 Y30 2.973028 1_555
Fe21 Y0 3.001622 1_666
Fe21 Y4 3.014430 1_665
Fe21 Y6 3.014430 1_566
Fe21 Y14 3.048671 1_555
Fe21 Y9 3.048671 1_555
Fe22 Fe25 2.531234 1_655
Fe22 Fe3 2.539621 1_555
Fe22 Fe31 2.582849 1_655
Fe22 Fe28 2.582849 1_655
Fe22 Y31 2.973028 1_555
Fe22 Y0 3.001622 1_666
Fe22 Y4 3.014430 1_665
Fe22 Y5 3.014430 1_656
Fe22 Y13 3.048671 1_555
Fe22 Y9 3.048671 1_555
Fe23 Fe29 2.582849 1_554
Fe23 Fe38 2.582849 1_555
Fe23 Fe27 2.583525 1_454
Fe23 Y23 2.973028 1_555
Fe23 Y0 3.001622 1_555
Fe23 Y4 3.014430 1_554
Fe23 Y7 3.014430 1_555
Fe23 Y8 3.048671 1_554
Fe23 Y19 3.048671 1_555
Fe24 Fe33 2.582849 1_545
Fe24 Fe39 2.582849 1_555
Fe24 Fe26 2.583525 1_445
Fe24 Y21 2.973028 1_555
Fe24 Y0 3.001622 1_555
Fe24 Y7 3.014430 1_555
Fe24 Y5 3.014430 1_545
Fe24 Y11 3.048671 1_545
Fe24 Y18 3.048671 1_555
Fe25 Fe28 2.582849 1_555
Fe25 Fe31 2.582849 1_555
Fe25 Y28 2.973028 1_555
Fe25 Y0 3.001622 1_566
Fe25 Y4 3.014430 1_565
Fe25 Y5 3.014430 1_556
Fe25 Y10 3.048671 1_565
Fe25 Y12 3.048671 1_556
Fe26 Fe35 2.582849 1_555
Fe26 Fe32 2.582849 1_555
Fe26 Y20 2.973028 1_555
Fe26 Y0 3.001622 1_665
Fe26 Y5 3.014430 1_655
Fe26 Y6 3.014430 1_565
Fe26 Y11 3.048671 1_655
Fe26 Y16 3.048671 1_565
Fe27 Fe36 2.582849 1_555
Fe27 Fe30 2.582849 1_555
Fe27 Y24 2.973028 1_555
Fe27 Y0 3.001622 1_656
Fe27 Y6 3.014430 1_556
Fe27 Y4 3.014430 1_655
Fe27 Y15 3.048671 1_556
Fe27 Y8 3.048671 1_655
Fe28 Fe63 2.561222 1_455
Fe28 Fe54 2.561222 1_555
Fe28 Fe7 2.583605 1_555
Fe28 Fe31 2.632387 1_555
Fe28 Y28 2.980372 1_555
Fe28 Y31 2.980372 1_455
Fe28 Y9 2.993687 1_455
Fe28 Y10 2.993687 1_565
Fe28 Y4 3.001729 1_565
Fe28 Y3 3.015407 1_555
Fe29 Fe46 2.561222 1_555
Fe29 Fe56 2.561222 1_555
Fe29 Fe38 2.632387 1_556
Fe29 Y26 2.980372 1_556
Fe29 Y23 2.980372 1_556
Fe29 Y10 2.993687 1_555
Fe29 Y8 2.993687 1_555
Fe29 Y4 3.001729 1_555
Fe29 Y1 3.015407 1_556
Fe30 Fe59 2.561222 1_545
Fe30 Fe49 2.561222 1_555
Fe30 Fe36 2.632387 1_555
Fe30 Y24 2.980372 1_555
Fe30 Y30 2.980372 1_545
Fe30 Y9 2.993687 1_545
Fe30 Y8 2.993687 1_655
Fe30 Y4 3.001729 1_655
Fe30 Y2 3.015407 1_555
Fe31 Fe60 2.561222 1_455
Fe31 Fe57 2.561222 1_555
Fe31 Fe4 2.583605 1_555
Fe31 Y28 2.980372 1_555
Fe31 Y31 2.980372 1_455
Fe31 Y13 2.993687 1_455
Fe31 Y12 2.993687 1_556
Fe31 Y5 3.001729 1_556
Fe31 Y3 3.015407 1_555
Fe32 Fe62 2.561222 1_554
Fe32 Fe40 2.561222 1_555
Fe32 Fe35 2.632387 1_555
Fe32 Y20 2.980372 1_555
Fe32 Y29 2.980372 1_554
Fe32 Y13 2.993687 1_554
Fe32 Y11 2.993687 1_655
Fe32 Y5 3.001729 1_655
Fe32 Y1 3.015407 1_555
Fe33 Fe43 2.561222 1_555
Fe33 Fe53 2.561222 1_555
Fe33 Fe39 2.632387 1_565
Fe33 Y21 2.980372 1_565
Fe33 Y27 2.980372 1_565
Fe33 Y11 2.993687 1_555
Fe33 Y12 2.993687 1_555
Fe33 Y5 3.001729 1_555
Fe33 Y2 3.015407 1_565
Fe34 Fe51 2.561222 1_555
Fe34 Fe42 2.561222 1_555
Fe34 Fe37 2.632387 1_655
Fe34 Y22 2.980372 1_655
Fe34 Y25 2.980372 1_655
Fe34 Y16 2.993687 1_555
Fe34 Y15 2.993687 1_555
Fe34 Y6 3.001729 1_555
Fe34 Y3 3.015407 1_655
Fe35 Fe58 2.561222 1_554
Fe35 Fe44 2.561222 1_555
Fe35 Fe8 2.583605 1_555
Fe35 Y20 2.980372 1_555
Fe35 Y29 2.980372 1_554
Fe35 Y16 2.993687 1_565
Fe35 Y14 2.993687 1_554
Fe35 Y6 3.001729 1_565
Fe35 Y1 3.015407 1_555
Fe36 Fe61 2.561222 1_545
Fe36 Fe47 2.561222 1_555
Fe36 Fe6 2.583605 1_555
Fe36 Y24 2.980372 1_555
Fe36 Y30 2.980372 1_545
Fe36 Y15 2.993687 1_556
Fe36 Y14 2.993687 1_545
Fe36 Y6 3.001729 1_556
Fe36 Y2 3.015407 1_555
Fe37 Fe48 2.561222 1_555
Fe37 Fe45 2.561222 1_555
Fe37 Y25 2.980372 1_555
Fe37 Y22 2.980372 1_555
Fe37 Y18 2.993687 1_555
Fe37 Y19 2.993687 1_555
Fe37 Y7 3.001729 1_555
Fe37 Y3 3.015407 1_555
Fe38 Fe52 2.561222 1_555
Fe38 Fe50 2.561222 1_555
Fe38 Fe5 2.583605 1_555
Fe38 Y26 2.980372 1_555
Fe38 Y23 2.980372 1_555
Fe38 Y19 2.993687 1_555
Fe38 Y17 2.993687 1_555
Fe38 Y7 3.001729 1_555
Fe38 Y1 3.015407 1_555
Fe39 Fe55 2.561222 1_555
Fe39 Fe41 2.561222 1_555
Fe39 Fe9 2.583605 1_555
Fe39 Y27 2.980372 1_555
Fe39 Y21 2.980372 1_555
Fe39 Y18 2.993687 1_555
Fe39 Y17 2.993687 1_555
Fe39 Y7 3.001729 1_555
Fe39 Y2 3.015407 1_555
Fe40 Fe51 2.554743 1_555
Fe40 Fe63 2.554743 1_555
Fe40 Fe62 2.558448 1_554
Fe40 Fe52 2.559348 1_555
Fe40 Y15 2.990149 1_555
Fe40 Y11 3.007028 1_655
Fe40 Y1 3.014254 1_555
Fe40 Y26 3.023140 1_555
Fe40 Y20 3.024166 1_555
Fe40 Y25 3.032653 1_655
Fe41 Fe62 2.554743 1_555
Fe41 Fe56 2.554743 1_555
Fe41 Fe55 2.558448 1_555
Fe41 Fe47 2.559348 1_555
Fe41 Fe9 2.573791 1_555
Fe41 Y13 2.990149 1_555
Fe41 Y18 3.007028 1_555
Fe41 Y2 3.014254 1_555
Fe41 Y24 3.023140 1_555
Fe41 Y21 3.024166 1_555
Fe41 Y29 3.032653 1_555
Fe42 Fe49 2.554743 1_555
Fe42 Fe55 2.554743 1_555
Fe42 Fe51 2.558448 1_555
Fe42 Fe60 2.559348 1_555
Fe42 Y17 2.990149 1_555
Fe42 Y16 3.007028 1_555
Fe42 Y3 3.014254 1_655
Fe42 Y31 3.023140 1_555
Fe42 Y22 3.024166 1_655
Fe42 Y27 3.032653 1_555
Fe43 Fe54 2.554743 1_555
Fe43 Fe48 2.554743 1_555
Fe43 Fe53 2.558448 1_555
Fe43 Fe61 2.559348 1_555
Fe43 Y19 2.990149 1_555
Fe43 Y11 3.007028 1_555
Fe43 Y2 3.014254 1_565
Fe43 Y30 3.023140 1_555
Fe43 Y21 3.024166 1_565
Fe43 Y25 3.032653 1_555
Fe44 Fe53 2.554743 1_555
Fe44 Fe59 2.554743 1_555
Fe44 Fe58 2.558448 1_554
Fe44 Fe50 2.559348 1_555
Fe44 Fe8 2.573791 1_555
Fe44 Y12 2.990149 1_555
Fe44 Y16 3.007028 1_565
Fe44 Y1 3.014254 1_555
Fe44 Y23 3.023140 1_555
Fe44 Y20 3.024166 1_555
Fe44 Y27 3.032653 1_565
Fe45 Fe58 2.554743 1_555
Fe45 Fe46 2.554743 1_555
Fe45 Fe48 2.558448 1_555
Fe45 Fe57 2.559348 1_555
Fe45 Y14 2.990149 1_555
Fe45 Y18 3.007028 1_555
Fe45 Y3 3.014254 1_555
Fe45 Y28 3.023140 1_555
Fe45 Y22 3.024166 1_555
Fe45 Y29 3.032653 1_555
Fe46 Fe57 2.554743 1_555
Fe46 Fe56 2.558448 1_555
Fe46 Fe58 2.559348 1_555
Fe46 Y18 2.990149 1_555
Fe46 Y8 3.007028 1_555
Fe46 Y1 3.014254 1_556
Fe46 Y29 3.023140 1_555
Fe46 Y23 3.024166 1_556
Fe46 Y22 3.032653 1_555
Fe47 Fe56 2.554743 1_555
Fe47 Fe62 2.554743 1_555
Fe47 Fe61 2.558448 1_545
Fe47 Fe6 2.573791 1_555
Fe47 Y10 2.990149 1_555
Fe47 Y15 3.007028 1_556
Fe47 Y2 3.014254 1_555
Fe47 Y21 3.023140 1_555
Fe47 Y24 3.024166 1_555
Fe47 Y26 3.032653 1_556
Fe48 Fe61 2.554743 1_555
Fe48 Fe54 2.559348 1_555
Fe48 Y14 2.990149 1_555
Fe48 Y19 3.007028 1_555
Fe48 Y3 3.014254 1_555
Fe48 Y28 3.023140 1_555
Fe48 Y25 3.024166 1_555
Fe48 Y30 3.032653 1_555
Fe49 Fe60 2.554743 1_555
Fe49 Fe59 2.558448 1_545
Fe49 Fe55 2.559348 1_555
Fe49 Y16 2.990149 1_555
Fe49 Y8 3.007028 1_655
Fe49 Y2 3.014254 1_555
Fe49 Y27 3.023140 1_555
Fe49 Y24 3.024166 1_555
Fe49 Y22 3.032653 1_655
Fe50 Fe59 2.554743 1_555
Fe50 Fe53 2.554743 1_555
Fe50 Fe52 2.558448 1_555
Fe50 Y9 2.990149 1_555
Fe50 Y19 3.007028 1_555
Fe50 Y1 3.014254 1_555
Fe50 Y20 3.023140 1_555
Fe50 Y23 3.024166 1_555
Fe50 Y30 3.032653 1_555
Fe51 Fe52 2.554743 1_555
Fe51 Fe63 2.559348 1_555
Fe51 Y17 2.990149 1_555
Fe51 Y15 3.007028 1_555
Fe51 Y3 3.014254 1_655
Fe51 Y31 3.023140 1_555
Fe51 Y25 3.024166 1_655
Fe51 Y26 3.032653 1_555
Fe52 Fe63 2.554743 1_555
Fe52 Y9 2.990149 1_555
Fe52 Y17 3.007028 1_555
Fe52 Y1 3.014254 1_555
Fe52 Y20 3.023140 1_555
Fe52 Y26 3.024166 1_555
Fe52 Y31 3.032653 1_555
Fe53 Fe59 2.559348 1_555
Fe53 Y19 2.990149 1_555
Fe53 Y12 3.007028 1_555
Fe53 Y2 3.014254 1_565
Fe53 Y30 3.023140 1_555
Fe53 Y27 3.024166 1_565
Fe53 Y23 3.032653 1_555
Fe54 Fe61 2.554743 1_555
Fe54 Fe63 2.558448 1_455
Fe54 Fe7 2.573791 1_555
Fe54 Y11 2.990149 1_555
Fe54 Y10 3.007028 1_565
Fe54 Y3 3.014254 1_555
Fe54 Y25 3.023140 1_555
Fe54 Y28 3.024166 1_555
Fe54 Y21 3.032653 1_565
Fe55 Fe60 2.554743 1_555
Fe55 Fe9 2.573791 1_555
Fe55 Y13 2.990149 1_555
Fe55 Y17 3.007028 1_555
Fe55 Y2 3.014254 1_555
Fe55 Y24 3.023140 1_555
Fe55 Y27 3.024166 1_555
Fe55 Y31 3.032653 1_555
Fe56 Fe62 2.559348 1_555
Fe56 Y18 2.990149 1_555
Fe56 Y10 3.007028 1_555
Fe56 Y1 3.014254 1_556
Fe56 Y29 3.023140 1_555
Fe56 Y26 3.024166 1_556
Fe56 Y21 3.032653 1_555
Fe57 Fe58 2.554743 1_555
Fe57 Fe60 2.558448 1_455
Fe57 Y8 2.990149 1_555
Fe57 Y12 3.007028 1_556
Fe57 Y3 3.014254 1_555
Fe57 Y22 3.023140 1_555
Fe57 Y28 3.024166 1_555
Fe57 Y23 3.032653 1_556
Fe58 Fe8 2.573791 1_556
Fe58 Y12 2.990149 1_556
Fe58 Y14 3.007028 1_555
Fe58 Y1 3.014254 1_556
Fe58 Y23 3.023140 1_556
Fe58 Y29 3.024166 1_555
Fe58 Y28 3.032653 1_555
Fe59 Y16 2.990149 1_565
Fe59 Y9 3.007028 1_555
Fe59 Y2 3.014254 1_565
Fe59 Y27 3.023140 1_565
Fe59 Y30 3.024166 1_555
Fe59 Y20 3.032653 1_555
Fe60 Y8 2.990149 1_655
Fe60 Y13 3.007028 1_555
Fe60 Y3 3.014254 1_655
Fe60 Y22 3.023140 1_655
Fe60 Y31 3.024166 1_555
Fe60 Y24 3.032653 1_555
Fe61 Y10 2.990149 1_565
Fe61 Y14 3.007028 1_555
Fe61 Y2 3.014254 1_565
Fe61 Y21 3.023140 1_565
Fe61 Y30 3.024166 1_555
Fe61 Y28 3.032653 1_555
Fe62 Y15 2.990149 1_556
Fe62 Y13 3.007028 1_555
Fe62 Y1 3.014254 1_556
Fe62 Y26 3.023140 1_556
Fe62 Y29 3.024166 1_555
Fe62 Y24 3.032653 1_555
Fe63 Fe7 2.573791 1_655
Fe63 Y11 2.990149 1_655
Fe63 Y9 3.007028 1_555
Fe63 Y3 3.014254 1_655
Fe63 Y25 3.023140 1_655
Fe63 Y31 3.024166 1_555
Fe63 Y20 3.032653 1_555
