# generated using pymatgen
data_CaV8O24
_symmetry_space_group_name_H-M   'P 1'
_cell_length_a   3.72490400
_cell_length_b   11.59995700
_cell_length_c   11.72218384
_cell_angle_alpha   76.49801179
_cell_angle_beta   90.00000000
_cell_angle_gamma   90.00000000
_symmetry_Int_Tables_number   1
_chemical_formula_structural   CaV8O24
_chemical_formula_sum   'Ca1 V8 O24'
_cell_volume   492.50187614
_cell_formula_units_Z   1
loop_
 _symmetry_equiv_pos_site_id
 _symmetry_equiv_pos_as_xyz
  1  'x, y, z'
loop_
 _atom_site_type_symbol
 _atom_site_label
 _atom_site_symmetry_multiplicity
 _atom_site_fract_x
 _atom_site_fract_y
 _atom_site_fract_z
 _atom_site_occupancy
  Ca  Ca0  1  0.50000000  0.56088400  0.51238000  1
  V  V0  1  0.50000000  0.14509800  0.69339400  1
  V  V1  1  0.00000000  0.14351600  0.19318600  1
  V  V2  1  0.00000000  0.85260900  0.80804900  1
  V  V3  1  0.50000000  0.86139500  0.29846900  1
  V  V4  1  0.00000000  0.14384800  0.89851600  1
  V  V5  1  0.50000000  0.14039600  0.40054000  1
  V  V6  1  0.50000000  0.86245100  0.59648500  1
  V  V7  1  0.00000000  0.85836500  0.09925200  1
  O  O0  1  0.50000000  0.11722300  0.86714700  1
  O  O1  1  0.00000000  0.11588600  0.36901300  1
  O  O2  1  0.00000000  0.88431600  0.63249500  1
  O  O3  1  0.50000000  0.88699800  0.12298000  1
  O  O4  1  0.50000000  0.08614600  0.56152900  1
  O  O5  1  0.00000000  0.09060900  0.05757600  1
  O  O6  1  0.00000000  0.91456100  0.93746000  1
  O  O7  1  0.50000000  0.91826200  0.44359100  1
  O  O8  1  0.00000000  0.28516300  0.87910300  1
  O  O9  1  0.50000000  0.28175000  0.38243800  1
  O  O10  1  0.50000000  0.71718500  0.61091800  1
  O  O11  1  0.00000000  0.71664100  0.12115500  1
  O  O12  1  0.50000000  0.28616800  0.64478300  1
  O  O13  1  0.00000000  0.28447300  0.14697900  1
  O  O14  1  0.00000000  0.71184300  0.85581100  1
  O  O15  1  0.50000000  0.71560800  0.35271900  1
  O  O16  1  0.00000000  0.11198200  0.73382700  1
  O  O17  1  0.50000000  0.10825100  0.23612700  1
  O  O18  1  0.50000000  0.89036700  0.76445000  1
  O  O19  1  0.00000000  0.90408500  0.25473600  1
  O  O20  1  0.50000000  0.49501900  0.82630400  1
  O  O21  1  0.50000000  0.50073000  0.17168500  1
  O  O22  1  0.00000000  0.46271400  0.47300600  1
  O  O23  1  0.00000000  0.46386000  0.58939900  1
loop_
_geom_bond_atom_site_label_1
_geom_bond_atom_site_label_2
_geom_bond_distance
_geom_bond_site_symmetry_2
Ca0 O23 2.253007 1_555
Ca0 O23 2.253007 1_655
Ca0 O15 2.270577 1_555
Ca0 O22 2.285603 1_655
Ca0 O22 2.285603 1_555
Ca0 O10 2.366309 1_555
O0 V4 1.937101 1_655
O0 V4 1.937101 1_555
O0 V0 1.986311 1_555
O1 V5 1.932668 1_555
O1 V5 1.932668 1_455
O1 V1 2.010545 1_555
O2 V6 1.939390 1_555
O2 V6 1.939390 1_455
O2 V2 2.004170 1_555
O3 V7 1.923421 1_655
O3 V7 1.923421 1_555
O3 V3 2.008640 1_555
O4 V0 1.830454 1_555
O4 V5 1.844661 1_555
O4 V6 2.530743 1_545
O5 V4 1.822135 1_554
O5 V1 1.832808 1_555
O6 V2 1.823933 1_555
O6 V7 1.855951 1_556
O7 V6 1.757692 1_555
O7 V3 1.962919 1_555
O7 V5 2.507404 1_565
O8 V4 1.601477 1_555
O9 V5 1.603488 1_555
O10 V6 1.653781 1_555
O11 V7 1.603599 1_555
O12 V0 1.602218 1_555
O13 V1 1.597923 1_555
O14 V2 1.597767 1_555
O15 V3 1.661963 1_555
O16 V0 1.938019 1_555
O16 V0 1.938019 1_455
O16 V4 2.048596 1_555
O17 V1 1.947637 1_655
O17 V1 1.947637 1_555
O17 V5 2.046710 1_555
O18 V2 1.953775 1_655
O18 V2 1.953775 1_555
O18 V6 2.068627 1_555
O19 V3 1.964234 1_555
O19 V3 1.964234 1_455
O19 V7 2.013593 1_555
O22 O23 1.367545 1_555
