# generated using pymatgen
data_NaH4ClO6
_symmetry_space_group_name_H-M   'P 1'
_cell_length_a   7.96713100
_cell_length_b   14.17907300
_cell_length_c   10.49207400
_cell_angle_alpha   90.00000000
_cell_angle_beta   90.00000000
_cell_angle_gamma   90.00000000
_symmetry_Int_Tables_number   1
_chemical_formula_structural   NaH4ClO6
_chemical_formula_sum   'Na8 H32 Cl8 O48'
_cell_volume   1185.25321379
_cell_formula_units_Z   8
loop_
 _symmetry_equiv_pos_site_id
 _symmetry_equiv_pos_as_xyz
  1  'x, y, z'
loop_
 _atom_site_type_symbol
 _atom_site_label
 _atom_site_symmetry_multiplicity
 _atom_site_fract_x
 _atom_site_fract_y
 _atom_site_fract_z
 _atom_site_occupancy
  Na  Na0  1  0.07558600  0.00890600  0.83736100  1
  Na  Na1  1  0.42441400  0.99109400  0.33736100  1
  Na  Na2  1  0.57558600  0.49109400  0.16263900  1
  Na  Na3  1  0.92441400  0.50890600  0.66263900  1
  Na  Na4  1  0.92441400  0.99109400  0.16263900  1
  Na  Na5  1  0.57558600  0.00890600  0.66263900  1
  Na  Na6  1  0.42441400  0.50890600  0.83736100  1
  Na  Na7  1  0.07558600  0.49109400  0.33736100  1
  H  H0  1  0.93858300  0.84499000  0.95500900  1
  H  H1  1  0.56141700  0.15501000  0.45500900  1
  H  H2  1  0.43858300  0.65501000  0.04499100  1
  H  H3  1  0.06141700  0.34499000  0.54499100  1
  H  H4  1  0.06141700  0.15501000  0.04499100  1
  H  H5  1  0.43858300  0.84499000  0.54499100  1
  H  H6  1  0.56141700  0.34499000  0.95500900  1
  H  H7  1  0.93858300  0.65501000  0.45500900  1
  H  H8  1  0.78285200  0.90921000  0.93111900  1
  H  H9  1  0.71714800  0.09079000  0.43111900  1
  H  H10  1  0.28285200  0.59079000  0.06888100  1
  H  H11  1  0.21714800  0.40921000  0.56888100  1
  H  H12  1  0.21714800  0.09079000  0.06888100  1
  H  H13  1  0.28285200  0.90921000  0.56888100  1
  H  H14  1  0.71714800  0.40921000  0.93111900  1
  H  H15  1  0.78285200  0.59079000  0.43111900  1
  H  H16  1  0.84806200  0.14410500  0.71365900  1
  H  H17  1  0.65193800  0.85589500  0.21365900  1
  H  H18  1  0.34806200  0.35589500  0.28634100  1
  H  H19  1  0.15193800  0.64410500  0.78634100  1
  H  H20  1  0.15193800  0.85589500  0.28634100  1
  H  H21  1  0.34806200  0.14410500  0.78634100  1
  H  H22  1  0.65193800  0.64410500  0.71365900  1
  H  H23  1  0.84806200  0.35589500  0.21365900  1
  H  H24  1  0.76761500  0.12266400  0.84511800  1
  H  H25  1  0.73238500  0.87733600  0.34511800  1
  H  H26  1  0.26761500  0.37733600  0.15488200  1
  H  H27  1  0.23238500  0.62266400  0.65488200  1
  H  H28  1  0.23238500  0.87733600  0.15488200  1
  H  H29  1  0.26761500  0.12266400  0.65488200  1
  H  H30  1  0.73238500  0.62266400  0.84511800  1
  H  H31  1  0.76761500  0.37733600  0.34511800  1
  Cl  Cl0  1  0.93221300  0.84939100  0.59143700  1
  Cl  Cl1  1  0.56778700  0.15060900  0.09143700  1
  Cl  Cl2  1  0.43221300  0.65060900  0.40856300  1
  Cl  Cl3  1  0.06778700  0.34939100  0.90856300  1
  Cl  Cl4  1  0.06778700  0.15060900  0.40856300  1
  Cl  Cl5  1  0.43221300  0.84939100  0.90856300  1
  Cl  Cl6  1  0.56778700  0.34939100  0.59143700  1
  Cl  Cl7  1  0.93221300  0.65060900  0.09143700  1
  O  O0  1  0.05702000  0.91826600  0.63735300  1
  O  O1  1  0.44298000  0.08173400  0.13735300  1
  O  O2  1  0.55702000  0.58173400  0.36264700  1
  O  O3  1  0.94298000  0.41826600  0.86264700  1
  O  O4  1  0.94298000  0.08173400  0.36264700  1
  O  O5  1  0.55702000  0.91826600  0.86264700  1
  O  O6  1  0.44298000  0.41826600  0.63735300  1
  O  O7  1  0.05702000  0.58173400  0.13735300  1
  O  O8  1  0.90460200  0.77763400  0.68792000  1
  O  O9  1  0.59539800  0.22236600  0.18792000  1
  O  O10  1  0.40460200  0.72236600  0.31208000  1
  O  O11  1  0.09539800  0.27763400  0.81208000  1
  O  O12  1  0.09539800  0.22236600  0.31208000  1
  O  O13  1  0.40460200  0.77763400  0.81208000  1
  O  O14  1  0.59539800  0.27763400  0.68792000  1
  O  O15  1  0.90460200  0.72236600  0.18792000  1
  O  O16  1  0.77533700  0.89879500  0.56324500  1
  O  O17  1  0.72466300  0.10120500  0.06324500  1
  O  O18  1  0.27533700  0.60120500  0.43675500  1
  O  O19  1  0.22466300  0.39879500  0.93675500  1
  O  O20  1  0.22466300  0.10120500  0.43675500  1
  O  O21  1  0.27533700  0.89879500  0.93675500  1
  O  O22  1  0.72466300  0.39879500  0.56324500  1
  O  O23  1  0.77533700  0.60120500  0.06324500  1
  O  O24  1  0.99467500  0.80600400  0.47389300  1
  O  O25  1  0.50532500  0.19399600  0.97389300  1
  O  O26  1  0.49467500  0.69399600  0.52610700  1
  O  O27  1  0.00532500  0.30600400  0.02610700  1
  O  O28  1  0.00532500  0.19399600  0.52610700  1
  O  O29  1  0.49467500  0.80600400  0.02610700  1
  O  O30  1  0.50532500  0.30600400  0.47389300  1
  O  O31  1  0.99467500  0.69399600  0.97389300  1
  O  O32  1  0.81372700  0.09222000  0.76908100  1
  O  O33  1  0.68627300  0.90778000  0.26908100  1
  O  O34  1  0.31372700  0.40778000  0.23091900  1
  O  O35  1  0.18627300  0.59222000  0.73091900  1
  O  O36  1  0.18627300  0.90778000  0.23091900  1
  O  O37  1  0.31372700  0.09222000  0.73091900  1
  O  O38  1  0.68627300  0.59222000  0.76908100  1
  O  O39  1  0.81372700  0.40778000  0.26908100  1
  O  O40  1  0.89944300  0.91030200  0.96122400  1
  O  O41  1  0.60055700  0.08969800  0.46122400  1
  O  O42  1  0.39944300  0.58969800  0.03877600  1
  O  O43  1  0.10055700  0.41030200  0.53877600  1
  O  O44  1  0.10055700  0.08969800  0.03877600  1
  O  O45  1  0.39944300  0.91030200  0.53877600  1
  O  O46  1  0.60055700  0.41030200  0.96122400  1
  O  O47  1  0.89944300  0.58969800  0.46122400  1
loop_
_geom_bond_atom_site_label_1
_geom_bond_atom_site_label_2
_geom_bond_distance
_geom_bond_site_symmetry_2
Na0 O40 2.369184 1_445
Na0 O44 2.412001 1_556
Na0 O21 2.461258 1_545
Na0 O0 2.465217 1_545
Na0 O37 2.498498 1_555
Na0 O32 2.502246 1_455
Na1 O41 2.369184 1_565
Na1 O45 2.412001 1_555
Na1 O20 2.461258 1_565
Na1 O1 2.465217 1_565
Na1 O36 2.498498 1_555
Na1 O33 2.502246 1_555
Na2 O42 2.369184 1_555
Na2 O46 2.412001 1_554
Na2 O23 2.461258 1_555
Na2 O2 2.465217 1_555
Na2 O39 2.498498 1_555
Na2 O34 2.502246 1_555
Na3 O43 2.369184 1_655
Na3 O47 2.412001 1_555
Na3 O22 2.461258 1_555
Na3 O3 2.465217 1_555
Na3 O38 2.498498 1_555
Na3 O35 2.502246 1_655
Na4 O44 2.369184 1_665
Na4 O40 2.412001 1_554
Na4 O17 2.461258 1_565
Na4 O4 2.465217 1_565
Na4 O33 2.498498 1_555
Na4 O36 2.502246 1_655
Na5 O45 2.369184 1_545
Na5 O41 2.412001 1_555
Na5 O16 2.461258 1_545
Na5 O5 2.465217 1_545
Na5 O32 2.498498 1_555
Na5 O37 2.502246 1_555
Na6 O46 2.369184 1_555
Na6 O42 2.412001 1_556
Na6 O19 2.461258 1_555
Na6 O6 2.465217 1_555
Na6 O35 2.498498 1_555
Na6 O38 2.502246 1_555
Na7 O47 2.369184 1_455
Na7 O43 2.412001 1_555
Na7 O18 2.461258 1_555
Na7 O7 2.465217 1_555
Na7 O34 2.498498 1_555
Na7 O39 2.502246 1_455
H0 O40 0.979329 1_555
H1 O41 0.979329 1_555
H2 O42 0.979329 1_555
H3 O43 0.979329 1_555
H4 O44 0.979329 1_555
H5 O45 0.979329 1_555
H6 O46 0.979329 1_555
H7 O47 0.979329 1_555
H8 O40 0.981253 1_555
H9 O41 0.981253 1_555
H10 O42 0.981253 1_555
H11 O43 0.981253 1_555
H12 O44 0.981253 1_555
H13 O45 0.981253 1_555
H14 O46 0.981253 1_555
H15 O47 0.981253 1_555
H16 O32 0.976826 1_555
H17 O33 0.976826 1_555
H18 O34 0.976826 1_555
H19 O35 0.976826 1_555
H20 O36 0.976826 1_555
H21 O37 0.976826 1_555
H22 O38 0.976826 1_555
H23 O39 0.976826 1_555
H24 O32 0.978656 1_555
H25 O33 0.978656 1_555
H26 O34 0.978656 1_555
H27 O35 0.978656 1_555
H28 O36 0.978656 1_555
H29 O37 0.978656 1_555
H30 O38 0.978656 1_555
H31 O39 0.978656 1_555
Cl0 O8 1.452018 1_555
Cl0 O16 1.462986 1_555
Cl0 O24 1.465293 1_555
Cl0 O0 1.474633 1_655
Cl1 O9 1.452018 1_555
Cl1 O17 1.462986 1_555
Cl1 O25 1.465293 1_554
Cl1 O1 1.474633 1_555
Cl2 O10 1.452018 1_555
Cl2 O18 1.462986 1_555
Cl2 O26 1.465293 1_555
Cl2 O2 1.474633 1_555
Cl3 O11 1.452018 1_555
Cl3 O19 1.462986 1_555
Cl3 O27 1.465293 1_556
Cl3 O3 1.474633 1_455
Cl4 O12 1.452018 1_555
Cl4 O20 1.462986 1_555
Cl4 O28 1.465293 1_555
Cl4 O4 1.474633 1_455
Cl5 O13 1.452018 1_555
Cl5 O21 1.462986 1_555
Cl5 O29 1.465293 1_556
Cl5 O5 1.474633 1_555
Cl6 O14 1.452018 1_555
Cl6 O22 1.462986 1_555
Cl6 O30 1.465293 1_555
Cl6 O6 1.474633 1_555
Cl7 O15 1.452018 1_555
Cl7 O23 1.462986 1_555
Cl7 O31 1.465293 1_554
Cl7 O7 1.474633 1_655
