# generated using pymatgen
data_K4LiMn4O8
_symmetry_space_group_name_H-M   'P 1'
_cell_length_a   3.01895922
_cell_length_b   6.44880510
_cell_length_c   13.84142578
_cell_angle_alpha   90.60720708
_cell_angle_beta   89.92783081
_cell_angle_gamma   90.00143305
_symmetry_Int_Tables_number   1
_chemical_formula_structural   K4LiMn4O8
_chemical_formula_sum   'K4 Li1 Mn4 O8'
_cell_volume   269.45893744
_cell_formula_units_Z   1
loop_
 _symmetry_equiv_pos_site_id
 _symmetry_equiv_pos_as_xyz
  1  'x, y, z'
loop_
 _atom_site_type_symbol
 _atom_site_label
 _atom_site_symmetry_multiplicity
 _atom_site_fract_x
 _atom_site_fract_y
 _atom_site_fract_z
 _atom_site_occupancy
  K  K0  1  0.24930800  0.41063400  0.15497700  1
  K  K1  1  0.24957000  0.04711200  0.68066200  1
  K  K2  1  0.75131300  0.56375700  0.84207600  1
  K  K3  1  0.75035200  0.93346200  0.32392300  1
  Li  Li0  1  0.24962800  0.19956300  0.48834500  1
  Mn  Mn0  1  0.24984700  0.91164300  0.09260100  1
  Mn  Mn1  1  0.75091800  0.05972800  0.91390300  1
  Mn  Mn2  1  0.75025800  0.46298000  0.39740800  1
  Mn  Mn3  1  0.24899100  0.56568600  0.58855700  1
  O  O0  1  0.74952300  0.74826500  0.14348700  1
  O  O1  1  0.25127200  0.22273100  0.86286400  1
  O  O2  1  0.25058500  0.27639000  0.35240000  1
  O  O3  1  0.74860800  0.71004600  0.65710000  1
  O  O4  1  0.74994600  0.11078300  0.07195600  1
  O  O5  1  0.25080000  0.86143000  0.93595000  1
  O  O6  1  0.74928100  0.31943700  0.54625500  1
  O  O7  1  0.25001600  0.65885000  0.42712900  1
loop_
_geom_bond_atom_site_label_1
_geom_bond_atom_site_label_2
_geom_bond_distance
_geom_bond_site_symmetry_2
K0 O0 2.655311 1_455
K0 O0 2.655760 1_555
K0 O4 2.699900 1_455
K0 O4 2.700489 1_555
K0 O2 2.875210 1_555
K1 O3 2.661745 1_545
K1 O3 2.665441 1_445
K1 O1 2.753600 1_555
K2 O1 2.685213 1_555
K2 O1 2.685544 1_655
K2 O3 2.737991 1_555
K2 O5 2.756601 1_555
K2 O5 2.756645 1_655
K3 O2 2.702330 1_565
K3 O2 2.703609 1_665
K3 O7 2.739792 1_555
K3 O7 2.740706 1_655
K3 O0 2.756922 1_555
Li0 O6 1.872248 1_555
Li0 O6 1.872340 1_455
Li0 O2 1.950874 1_555
Mn0 O0 1.974894 1_555
Mn0 O0 1.974993 1_455
Mn0 O4 2.004218 1_565
Mn0 O4 2.004358 1_465
Mn0 O5 2.188921 1_554
Mn1 O1 1.974297 1_555
Mn1 O1 1.974531 1_655
Mn1 O5 2.003755 1_545
Mn1 O5 2.003845 1_645
Mn1 O4 2.208861 1_556
Mn2 O7 2.007860 1_655
Mn2 O7 2.008227 1_555
Mn2 O2 2.024333 1_555
Mn2 O2 2.024680 1_655
Mn2 O6 2.267587 1_555
Mn3 O3 2.006619 1_455
Mn3 O3 2.006643 1_555
Mn3 O6 2.263382 1_455
Mn3 O6 2.263619 1_555
Mn3 O7 2.319896 1_555
