# generated using pymatgen
data_Nd2CdAu2
_symmetry_space_group_name_H-M   'P 1'
_cell_length_a   3.90135400
_cell_length_b   8.05105781
_cell_length_c   8.05105781
_cell_angle_alpha   90.00000000
_cell_angle_beta   90.00000000
_cell_angle_gamma   90.00000000
_symmetry_Int_Tables_number   1
_chemical_formula_structural   Nd2CdAu2
_chemical_formula_sum   'Nd4 Cd2 Au4'
_cell_volume   252.88393990
_cell_formula_units_Z   2
loop_
 _symmetry_equiv_pos_site_id
 _symmetry_equiv_pos_as_xyz
  1  'x, y, z'
loop_
 _atom_site_type_symbol
 _atom_site_label
 _atom_site_symmetry_multiplicity
 _atom_site_fract_x
 _atom_site_fract_y
 _atom_site_fract_z
 _atom_site_occupancy
  Nd  Nd0  1  0.50000000  0.17164559  0.67164559  1
  Nd  Nd1  1  0.50000000  0.82835441  0.32835441  1
  Nd  Nd2  1  0.50000000  0.32835441  0.17164559  1
  Nd  Nd3  1  0.50000000  0.67164559  0.82835441  1
  Cd  Cd0  1  -0.00000000  0.00000000  -0.00000000  1
  Cd  Cd1  1  -0.00000000  0.50000000  0.50000000  1
  Au  Au0  1  -0.00000000  0.62829619  0.12829619  1
  Au  Au1  1  0.00000000  0.37170381  0.87170381  1
  Au  Au2  1  0.00000000  0.87170381  0.62829619  1
  Au  Au3  1  -0.00000000  0.12829619  0.37170381  1
loop_
_geom_bond_atom_site_label_1
_geom_bond_atom_site_label_2
_geom_bond_distance
_geom_bond_site_symmetry_2
Cd0 Nd1 3.564196 1_545
Cd0 Nd0 3.564196 1_554
Cd0 Nd2 3.564196 1_555
Cd0 Nd0 3.564196 1_454
Cd0 Nd3 3.564196 1_444
Cd0 Nd3 3.564196 1_544
Cd0 Nd1 3.564196 1_445
Cd0 Nd2 3.564196 1_455
Cd1 Nd1 3.564196 1_555
Cd1 Nd0 3.564196 1_455
Cd1 Nd2 3.564196 1_555
Cd1 Nd1 3.564196 1_455
Cd1 Nd0 3.564196 1_555
Cd1 Nd3 3.564196 1_455
Cd1 Nd3 3.564196 1_555
Cd1 Nd2 3.564196 1_455
Au0 Au1 2.921539 1_554
Au0 Nd1 2.998954 1_555
Au0 Nd1 2.998954 1_455
Au0 Nd3 3.123850 1_454
Au0 Nd3 3.123850 1_554
Au0 Nd2 3.123850 1_455
Au0 Nd2 3.123850 1_555
Au0 Cd1 3.165854 1_555
Au0 Cd0 3.165854 1_565
Au1 Nd0 2.998954 1_455
Au1 Nd0 2.998954 1_555
Au1 Nd3 3.123850 1_555
Au1 Nd3 3.123850 1_455
Au1 Nd2 3.123850 1_556
Au1 Nd2 3.123850 1_456
Au1 Cd1 3.165854 1_555
Au1 Cd0 3.165854 1_556
Au2 Au3 2.921539 1_565
Au2 Nd3 2.998954 1_455
Au2 Nd3 2.998954 1_555
Au2 Nd1 3.123850 1_455
Au2 Nd0 3.123850 1_465
Au2 Nd1 3.123850 1_555
Au2 Nd0 3.123850 1_565
Au2 Cd0 3.165854 1_566
Au2 Cd1 3.165854 1_555
Au3 Nd2 2.998954 1_555
Au3 Nd2 2.998954 1_455
Au3 Nd0 3.123850 1_455
Au3 Nd0 3.123850 1_555
Au3 Nd1 3.123850 1_445
Au3 Nd1 3.123850 1_545
Au3 Cd1 3.165854 1_555
Au3 Cd0 3.165854 1_555
