# generated using pymatgen
data_Cs(Nb3S4)2
_symmetry_space_group_name_H-M   'P 1'
_cell_length_a   3.41234973
_cell_length_b   9.85134155
_cell_length_c   9.85131442
_cell_angle_alpha   120.00034786
_cell_angle_beta   89.99977483
_cell_angle_gamma   90.00027812
_symmetry_Int_Tables_number   1
_chemical_formula_structural   Cs(Nb3S4)2
_chemical_formula_sum   'Cs1 Nb6 S8'
_cell_volume   286.79541363
_cell_formula_units_Z   1
loop_
 _symmetry_equiv_pos_site_id
 _symmetry_equiv_pos_as_xyz
  1  'x, y, z'
loop_
 _atom_site_type_symbol
 _atom_site_label
 _atom_site_symmetry_multiplicity
 _atom_site_fract_x
 _atom_site_fract_y
 _atom_site_fract_z
 _atom_site_occupancy
  Cs  Cs0  1  0.49998876  0.00000019  0.00000430  1
  Nb  Nb0  1  0.74874892  0.37738769  0.89127852  1
  Nb  Nb1  1  0.74875102  0.10871735  0.48609657  1
  Nb  Nb2  1  0.74874952  0.51389644  0.62261719  1
  Nb  Nb3  1  0.25125130  0.62260841  0.10871600  1
  Nb  Nb4  1  0.25124845  0.89129430  0.51390327  1
  Nb  Nb5  1  0.25124682  0.48609366  0.37738674  1
  S  S0  1  0.75072375  0.66666570  0.33333660  1
  S  S1  1  0.24927918  0.33333643  0.66666546  1
  S  S2  1  0.75361742  0.05993889  0.70873963  1
  S  S3  1  0.75362019  0.29125758  0.35118948  1
  S  S4  1  0.75362427  0.64881623  0.94007855  1
  S  S5  1  0.24638358  0.94006018  0.29126402  1
  S  S6  1  0.24638292  0.70873086  0.64879670  1
  S  S7  1  0.24638388  0.35119608  0.05992697  1
loop_
_geom_bond_atom_site_label_1
_geom_bond_atom_site_label_2
_geom_bond_distance
_geom_bond_site_symmetry_2
Cs0 S3 3.320260 1_555
Cs0 S4 3.320281 1_544
Cs0 S5 3.320345 1_545
Cs0 S7 3.320376 1_555
Cs0 S2 3.320404 1_554
Cs0 S6 3.320412 1_544
Nb0 S4 2.468973 1_555
Nb0 S7 2.477726 1_656
Nb0 S7 2.488805 1_556
Nb0 S1 2.651253 1_555
Nb0 S1 2.653572 1_655
Nb0 S2 2.718500 1_555
Nb1 S2 2.468977 1_555
Nb1 S5 2.477701 1_645
Nb1 S5 2.488801 1_545
Nb1 S1 2.651301 1_555
Nb1 S1 2.653614 1_655
Nb1 S3 2.718502 1_555
Nb2 S3 2.468988 1_555
Nb2 S6 2.477706 1_655
Nb2 S6 2.488815 1_555
Nb2 S1 2.651223 1_555
Nb2 S1 2.653562 1_655
Nb2 S4 2.718599 1_555
Nb3 S7 2.468853 1_555
Nb3 S4 2.477699 1_454
Nb3 S4 2.488816 1_554
Nb3 S0 2.651300 1_555
Nb3 S0 2.653607 1_455
Nb3 S5 2.718532 1_555
Nb4 S5 2.468861 1_555
Nb4 S2 2.477678 1_465
Nb4 S2 2.488786 1_565
Nb4 S0 2.651349 1_555
Nb4 S0 2.653648 1_455
Nb4 S6 2.718599 1_555
Nb5 S6 2.468871 1_555
Nb5 S3 2.477653 1_455
Nb5 S3 2.488793 1_555
Nb5 S0 2.651336 1_555
Nb5 S0 2.653645 1_455
Nb5 S7 2.718604 1_555
