# generated using pymatgen
data_Yb2PbAu2
_symmetry_space_group_name_H-M   'P 1'
_cell_length_a   15.82517734
_cell_length_b   15.82517734
_cell_length_c   7.29976000
_cell_angle_alpha   90.00000000
_cell_angle_beta   90.00000000
_cell_angle_gamma   90.00000000
_symmetry_Int_Tables_number   1
_chemical_formula_structural   Yb2PbAu2
_chemical_formula_sum   'Yb32 Pb16 Au32'
_cell_volume   1828.12443287
_cell_formula_units_Z   16
loop_
 _symmetry_equiv_pos_site_id
 _symmetry_equiv_pos_as_xyz
  1  'x, y, z'
loop_
 _atom_site_type_symbol
 _atom_site_label
 _atom_site_symmetry_multiplicity
 _atom_site_fract_x
 _atom_site_fract_y
 _atom_site_fract_z
 _atom_site_occupancy
  Yb  Yb0_0  1  0.16668249  0.41668249  0.00000000  1
  Yb  Yb0_1  1  0.16668249  0.41668249  0.50000000  1
  Yb  Yb0_2  1  0.16668249  0.91668249  0.00000000  1
  Yb  Yb0_3  1  0.16668249  0.91668249  0.50000000  1
  Yb  Yb0_4  1  0.66668249  0.41668249  0.00000000  1
  Yb  Yb0_5  1  0.66668249  0.41668249  0.50000000  1
  Yb  Yb0_6  1  0.66668249  0.91668249  0.00000000  1
  Yb  Yb0_7  1  0.66668249  0.91668249  0.50000000  1
  Yb  Yb1_0  1  0.33331751  0.08331751  0.00000000  1
  Yb  Yb1_1  1  0.33331751  0.08331751  0.50000000  1
  Yb  Yb1_2  1  0.33331751  0.58331751  0.00000000  1
  Yb  Yb1_3  1  0.33331751  0.58331751  0.50000000  1
  Yb  Yb1_4  1  0.83331751  0.08331751  0.00000000  1
  Yb  Yb1_5  1  0.83331751  0.08331751  0.50000000  1
  Yb  Yb1_6  1  0.83331751  0.58331751  0.00000000  1
  Yb  Yb1_7  1  0.83331751  0.58331751  0.50000000  1
  Yb  Yb2_0  1  0.41668249  0.33331751  0.00000000  1
  Yb  Yb2_1  1  0.41668249  0.33331751  0.50000000  1
  Yb  Yb2_2  1  0.41668249  0.83331751  0.00000000  1
  Yb  Yb2_3  1  0.41668249  0.83331751  0.50000000  1
  Yb  Yb2_4  1  0.91668249  0.33331751  0.00000000  1
  Yb  Yb2_5  1  0.91668249  0.33331751  0.50000000  1
  Yb  Yb2_6  1  0.91668249  0.83331751  0.00000000  1
  Yb  Yb2_7  1  0.91668249  0.83331751  0.50000000  1
  Yb  Yb3_0  1  0.08331751  0.16668249  0.00000000  1
  Yb  Yb3_1  1  0.08331751  0.16668249  0.50000000  1
  Yb  Yb3_2  1  0.08331751  0.66668249  0.00000000  1
  Yb  Yb3_3  1  0.08331751  0.66668249  0.50000000  1
  Yb  Yb3_4  1  0.58331751  0.16668249  0.00000000  1
  Yb  Yb3_5  1  0.58331751  0.16668249  0.50000000  1
  Yb  Yb3_6  1  0.58331751  0.66668249  0.00000000  1
  Yb  Yb3_7  1  0.58331751  0.66668249  0.50000000  1
  Pb  Pb0_0  1  0.00000000  0.00000000  0.25000000  1
  Pb  Pb0_1  1  0.00000000  0.00000000  0.75000000  1
  Pb  Pb0_2  1  0.00000000  0.50000000  0.25000000  1
  Pb  Pb0_3  1  0.00000000  0.50000000  0.75000000  1
  Pb  Pb0_4  1  0.50000000  0.00000000  0.25000000  1
  Pb  Pb0_5  1  0.50000000  0.00000000  0.75000000  1
  Pb  Pb0_6  1  0.50000000  0.50000000  0.25000000  1
  Pb  Pb0_7  1  0.50000000  0.50000000  0.75000000  1
  Pb  Pb1_0  1  0.25000000  0.25000000  0.25000000  1
  Pb  Pb1_1  1  0.25000000  0.25000000  0.75000000  1
  Pb  Pb1_2  1  0.25000000  0.75000000  0.25000000  1
  Pb  Pb1_3  1  0.25000000  0.75000000  0.75000000  1
  Pb  Pb1_4  1  0.75000000  0.25000000  0.25000000  1
  Pb  Pb1_5  1  0.75000000  0.25000000  0.75000000  1
  Pb  Pb1_6  1  0.75000000  0.75000000  0.25000000  1
  Pb  Pb1_7  1  0.75000000  0.75000000  0.75000000  1
  Au  Au0_0  1  0.18651072  0.06348928  0.25000000  1
  Au  Au0_1  1  0.18651072  0.06348928  0.75000000  1
  Au  Au0_2  1  0.18651072  0.56348928  0.25000000  1
  Au  Au0_3  1  0.18651072  0.56348928  0.75000000  1
  Au  Au0_4  1  0.68651072  0.06348928  0.25000000  1
  Au  Au0_5  1  0.68651072  0.06348928  0.75000000  1
  Au  Au0_6  1  0.68651072  0.56348928  0.25000000  1
  Au  Au0_7  1  0.68651072  0.56348928  0.75000000  1
  Au  Au1_0  1  0.31348928  0.43651072  0.25000000  1
  Au  Au1_1  1  0.31348928  0.43651072  0.75000000  1
  Au  Au1_2  1  0.31348928  0.93651072  0.25000000  1
  Au  Au1_3  1  0.31348928  0.93651072  0.75000000  1
  Au  Au1_4  1  0.81348928  0.43651072  0.25000000  1
  Au  Au1_5  1  0.81348928  0.43651072  0.75000000  1
  Au  Au1_6  1  0.81348928  0.93651072  0.25000000  1
  Au  Au1_7  1  0.81348928  0.93651072  0.75000000  1
  Au  Au2_0  1  0.43651072  0.18651072  0.25000000  1
  Au  Au2_1  1  0.43651072  0.18651072  0.75000000  1
  Au  Au2_2  1  0.43651072  0.68651072  0.25000000  1
  Au  Au2_3  1  0.43651072  0.68651072  0.75000000  1
  Au  Au2_4  1  0.93651072  0.18651072  0.25000000  1
  Au  Au2_5  1  0.93651072  0.18651072  0.75000000  1
  Au  Au2_6  1  0.93651072  0.68651072  0.25000000  1
  Au  Au2_7  1  0.93651072  0.68651072  0.75000000  1
  Au  Au3_0  1  0.06348928  0.31348928  0.25000000  1
  Au  Au3_1  1  0.06348928  0.31348928  0.75000000  1
  Au  Au3_2  1  0.06348928  0.81348928  0.25000000  1
  Au  Au3_3  1  0.06348928  0.81348928  0.75000000  1
  Au  Au3_4  1  0.56348928  0.31348928  0.25000000  1
  Au  Au3_5  1  0.56348928  0.31348928  0.75000000  1
  Au  Au3_6  1  0.56348928  0.81348928  0.25000000  1
  Au  Au3_7  1  0.56348928  0.81348928  0.75000000  1
loop_
_geom_bond_atom_site_label_1
_geom_bond_atom_site_label_2
_geom_bond_distance
_geom_bond_site_symmetry_2
Pb0_0 Yb3_0 3.467963 1_555
Pb0_0 Yb3_1 3.467963 1_555
Pb0_0 Yb0_2 3.467963 1_545
Pb0_0 Yb0_3 3.467963 1_545
Pb0_0 Yb1_5 3.467963 1_455
Pb0_0 Yb1_4 3.467963 1_455
Pb0_0 Yb2_6 3.467963 1_445
Pb0_0 Yb2_7 3.467963 1_445
Pb0_0 Pb0_1 3.649880 1_555
Pb0_0 Pb0_1 3.649880 1_554
Pb0_1 Yb3_0 3.467963 1_556
Pb0_1 Yb3_1 3.467963 1_555
Pb0_1 Yb0_3 3.467963 1_545
Pb0_1 Yb0_2 3.467963 1_546
Pb0_1 Yb1_4 3.467963 1_456
Pb0_1 Yb1_5 3.467963 1_455
Pb0_1 Yb2_6 3.467963 1_446
Pb0_1 Yb2_7 3.467963 1_445
Pb0_2 Yb3_2 3.467963 1_555
Pb0_2 Yb3_3 3.467963 1_555
Pb0_2 Yb0_0 3.467963 1_555
Pb0_2 Yb0_1 3.467963 1_555
Pb0_2 Yb1_6 3.467963 1_455
Pb0_2 Yb1_7 3.467963 1_455
Pb0_2 Yb2_4 3.467963 1_455
Pb0_2 Yb2_5 3.467963 1_455
Pb0_2 Pb0_3 3.649880 1_555
Pb0_2 Pb0_3 3.649880 1_554
Pb0_3 Yb3_2 3.467963 1_556
Pb0_3 Yb3_3 3.467963 1_555
Pb0_3 Yb0_0 3.467963 1_556
Pb0_3 Yb0_1 3.467963 1_555
Pb0_3 Yb1_6 3.467963 1_456
Pb0_3 Yb1_7 3.467963 1_455
Pb0_3 Yb2_5 3.467963 1_455
Pb0_3 Yb2_4 3.467963 1_456
Pb0_4 Yb3_4 3.467963 1_555
Pb0_4 Yb3_5 3.467963 1_555
Pb0_4 Yb0_6 3.467963 1_545
Pb0_4 Yb0_7 3.467963 1_545
Pb0_4 Yb1_0 3.467963 1_555
Pb0_4 Yb1_1 3.467963 1_555
Pb0_4 Yb2_2 3.467963 1_545
Pb0_4 Yb2_3 3.467963 1_545
Pb0_4 Pb0_5 3.649880 1_555
Pb0_4 Pb0_5 3.649880 1_554
Pb0_5 Yb3_4 3.467963 1_556
Pb0_5 Yb3_5 3.467963 1_555
Pb0_5 Yb0_6 3.467963 1_546
Pb0_5 Yb0_7 3.467963 1_545
Pb0_5 Yb1_0 3.467963 1_556
Pb0_5 Yb1_1 3.467963 1_555
Pb0_5 Yb2_2 3.467963 1_546
Pb0_5 Yb2_3 3.467963 1_545
Pb0_6 Yb3_7 3.467963 1_555
Pb0_6 Yb3_6 3.467963 1_555
Pb0_6 Yb0_4 3.467963 1_555
Pb0_6 Yb0_5 3.467963 1_555
Pb0_6 Yb1_2 3.467963 1_555
Pb0_6 Yb1_3 3.467963 1_555
Pb0_6 Yb2_1 3.467963 1_555
Pb0_6 Yb2_0 3.467963 1_555
Pb0_6 Pb0_7 3.649880 1_555
Pb0_6 Pb0_7 3.649880 1_554
Pb0_7 Yb3_7 3.467963 1_555
Pb0_7 Yb3_6 3.467963 1_556
Pb0_7 Yb0_4 3.467963 1_556
Pb0_7 Yb0_5 3.467963 1_555
Pb0_7 Yb1_2 3.467963 1_556
Pb0_7 Yb1_3 3.467963 1_555
Pb0_7 Yb2_1 3.467963 1_555
Pb0_7 Yb2_0 3.467963 1_556
Pb1_0 Yb2_0 3.467963 1_555
Pb1_0 Yb2_1 3.467963 1_555
Pb1_0 Yb0_1 3.467963 1_555
Pb1_0 Yb0_0 3.467963 1_555
Pb1_0 Yb1_0 3.467963 1_555
Pb1_0 Yb1_1 3.467963 1_555
Pb1_0 Yb3_0 3.467963 1_555
Pb1_0 Yb3_1 3.467963 1_555
Pb1_0 Pb1_1 3.649880 1_554
Pb1_0 Pb1_1 3.649880 1_555
Pb1_1 Yb2_0 3.467963 1_556
Pb1_1 Yb2_1 3.467963 1_555
Pb1_1 Yb0_1 3.467963 1_555
Pb1_1 Yb0_0 3.467963 1_556
Pb1_1 Yb1_1 3.467963 1_555
Pb1_1 Yb1_0 3.467963 1_556
Pb1_1 Yb3_0 3.467963 1_556
Pb1_1 Yb3_1 3.467963 1_555
Pb1_2 Yb2_2 3.467963 1_555
Pb1_2 Yb2_3 3.467963 1_555
Pb1_2 Yb0_3 3.467963 1_555
Pb1_2 Yb0_2 3.467963 1_555
Pb1_2 Yb1_2 3.467963 1_555
Pb1_2 Yb1_3 3.467963 1_555
Pb1_2 Yb3_3 3.467963 1_555
Pb1_2 Yb3_2 3.467963 1_555
Pb1_2 Pb1_3 3.649880 1_555
Pb1_2 Pb1_3 3.649880 1_554
Pb1_3 Yb2_2 3.467963 1_556
Pb1_3 Yb2_3 3.467963 1_555
Pb1_3 Yb0_2 3.467963 1_556
Pb1_3 Yb0_3 3.467963 1_555
Pb1_3 Yb1_2 3.467963 1_556
Pb1_3 Yb1_3 3.467963 1_555
Pb1_3 Yb3_3 3.467963 1_555
Pb1_3 Yb3_2 3.467963 1_556
Pb1_4 Yb2_4 3.467963 1_555
Pb1_4 Yb2_5 3.467963 1_555
Pb1_4 Yb0_4 3.467963 1_555
Pb1_4 Yb0_5 3.467963 1_555
Pb1_4 Yb1_4 3.467963 1_555
Pb1_4 Yb1_5 3.467963 1_555
Pb1_4 Yb3_4 3.467963 1_555
Pb1_4 Yb3_5 3.467963 1_555
Pb1_4 Pb1_5 3.649880 1_555
Pb1_4 Pb1_5 3.649880 1_554
Pb1_5 Yb2_4 3.467963 1_556
Pb1_5 Yb2_5 3.467963 1_555
Pb1_5 Yb0_4 3.467963 1_556
Pb1_5 Yb0_5 3.467963 1_555
Pb1_5 Yb1_4 3.467963 1_556
Pb1_5 Yb1_5 3.467963 1_555
Pb1_5 Yb3_4 3.467963 1_556
Pb1_5 Yb3_5 3.467963 1_555
Pb1_6 Yb2_6 3.467963 1_555
Pb1_6 Yb2_7 3.467963 1_555
Pb1_6 Yb0_6 3.467963 1_555
Pb1_6 Yb0_7 3.467963 1_555
Pb1_6 Yb1_6 3.467963 1_555
Pb1_6 Yb1_7 3.467963 1_555
Pb1_6 Yb3_6 3.467963 1_555
Pb1_6 Yb3_7 3.467963 1_555
Pb1_6 Pb1_7 3.649880 1_555
Pb1_6 Pb1_7 3.649880 1_554
Pb1_7 Yb2_6 3.467963 1_556
Pb1_7 Yb2_7 3.467963 1_555
Pb1_7 Yb0_6 3.467963 1_556
Pb1_7 Yb0_7 3.467963 1_555
Pb1_7 Yb1_6 3.467963 1_556
Pb1_7 Yb1_7 3.467963 1_555
Pb1_7 Yb3_7 3.467963 1_555
Pb1_7 Yb3_6 3.467963 1_556
Au0_0 Au1_2 2.841803 1_545
Au0_0 Yb3_1 2.943487 1_555
Au0_0 Yb3_0 2.943487 1_555
Au0_0 Yb0_2 2.970914 1_545
Au0_0 Yb0_3 2.970914 1_545
Au0_0 Yb1_0 2.970914 1_555
Au0_0 Yb1_1 2.970914 1_555
Au0_0 Pb0_0 3.117887 1_555
Au0_0 Pb1_0 3.117887 1_555
Au0_1 Au1_3 2.841803 1_545
Au0_1 Yb3_1 2.943487 1_555
Au0_1 Yb3_0 2.943487 1_556
Au0_1 Yb0_3 2.970914 1_545
Au0_1 Yb0_2 2.970914 1_546
Au0_1 Yb1_0 2.970914 1_556
Au0_1 Yb1_1 2.970914 1_555
Au0_1 Pb0_1 3.117887 1_555
Au0_1 Pb1_1 3.117887 1_555
Au0_2 Au1_0 2.841803 1_555
Au0_2 Yb3_2 2.943487 1_555
Au0_2 Yb3_3 2.943487 1_555
Au0_2 Yb0_1 2.970914 1_555
Au0_2 Yb1_2 2.970914 1_555
Au0_2 Yb1_3 2.970914 1_555
Au0_2 Yb0_0 2.970914 1_555
Au0_2 Pb0_2 3.117887 1_555
Au0_2 Pb1_2 3.117887 1_555
Au0_3 Au1_1 2.841803 1_555
Au0_3 Yb3_2 2.943487 1_556
Au0_3 Yb3_3 2.943487 1_555
Au0_3 Yb0_1 2.970914 1_555
Au0_3 Yb1_2 2.970914 1_556
Au0_3 Yb1_3 2.970914 1_555
Au0_3 Yb0_0 2.970914 1_556
Au0_3 Pb0_3 3.117887 1_555
Au0_3 Pb1_3 3.117887 1_555
Au0_4 Au1_6 2.841803 1_545
Au0_4 Yb3_5 2.943487 1_555
Au0_4 Yb3_4 2.943487 1_555
Au0_4 Yb0_7 2.970914 1_545
Au0_4 Yb0_6 2.970914 1_545
Au0_4 Yb1_4 2.970914 1_555
Au0_4 Yb1_5 2.970914 1_555
Au0_4 Pb0_4 3.117887 1_555
Au0_4 Pb1_4 3.117887 1_555
Au0_5 Au1_7 2.841803 1_545
Au0_5 Yb3_4 2.943487 1_556
Au0_5 Yb3_5 2.943487 1_555
Au0_5 Yb0_7 2.970914 1_545
Au0_5 Yb0_6 2.970914 1_546
Au0_5 Yb1_4 2.970914 1_556
Au0_5 Yb1_5 2.970914 1_555
Au0_5 Pb0_5 3.117887 1_555
Au0_5 Pb1_5 3.117887 1_555
Au0_6 Au1_4 2.841803 1_555
Au0_6 Yb3_7 2.943487 1_555
Au0_6 Yb3_6 2.943487 1_555
Au0_6 Yb1_6 2.970914 1_555
Au0_6 Yb1_7 2.970914 1_555
Au0_6 Yb0_4 2.970914 1_555
Au0_6 Yb0_5 2.970914 1_555
Au0_6 Pb0_6 3.117887 1_555
Au0_6 Pb1_6 3.117887 1_555
Au0_7 Au1_5 2.841803 1_555
Au0_7 Yb3_7 2.943487 1_555
Au0_7 Yb3_6 2.943487 1_556
Au0_7 Yb1_6 2.970914 1_556
Au0_7 Yb1_7 2.970914 1_555
Au0_7 Yb0_4 2.970914 1_556
Au0_7 Yb0_5 2.970914 1_555
Au0_7 Pb0_7 3.117887 1_555
Au0_7 Pb1_7 3.117887 1_555
Au1_0 Yb2_0 2.943487 1_555
Au1_0 Yb2_1 2.943487 1_555
Au1_0 Yb0_0 2.970914 1_555
Au1_0 Yb0_1 2.970914 1_555
Au1_0 Yb1_2 2.970914 1_555
Au1_0 Yb1_3 2.970914 1_555
Au1_0 Pb1_0 3.117887 1_555
Au1_0 Pb0_6 3.117887 1_555
Au1_1 Yb2_1 2.943487 1_555
Au1_1 Yb2_0 2.943487 1_556
Au1_1 Yb0_0 2.970914 1_556
Au1_1 Yb0_1 2.970914 1_555
Au1_1 Yb1_2 2.970914 1_556
Au1_1 Yb1_3 2.970914 1_555
Au1_1 Pb1_1 3.117887 1_555
Au1_1 Pb0_7 3.117887 1_555
Au1_2 Yb2_2 2.943487 1_555
Au1_2 Yb2_3 2.943487 1_555
Au1_2 Yb0_2 2.970914 1_555
Au1_2 Yb0_3 2.970914 1_555
Au1_2 Yb1_0 2.970914 1_565
Au1_2 Yb1_1 2.970914 1_565
Au1_2 Pb1_2 3.117887 1_555
Au1_2 Pb0_4 3.117887 1_565
Au1_3 Yb2_2 2.943487 1_556
Au1_3 Yb2_3 2.943487 1_555
Au1_3 Yb0_2 2.970914 1_556
Au1_3 Yb0_3 2.970914 1_555
Au1_3 Yb1_0 2.970914 1_566
Au1_3 Yb1_1 2.970914 1_565
Au1_3 Pb1_3 3.117887 1_555
Au1_3 Pb0_5 3.117887 1_565
Au1_4 Yb2_5 2.943487 1_555
Au1_4 Yb2_4 2.943487 1_555
Au1_4 Yb1_6 2.970914 1_555
Au1_4 Yb1_7 2.970914 1_555
Au1_4 Yb0_5 2.970914 1_555
Au1_4 Yb0_4 2.970914 1_555
Au1_4 Pb1_4 3.117887 1_555
Au1_4 Pb0_2 3.117887 1_655
Au1_5 Yb2_5 2.943487 1_555
Au1_5 Yb2_4 2.943487 1_556
Au1_5 Yb1_6 2.970914 1_556
Au1_5 Yb1_7 2.970914 1_555
Au1_5 Yb0_5 2.970914 1_555
Au1_5 Yb0_4 2.970914 1_556
Au1_5 Pb1_5 3.117887 1_555
Au1_5 Pb0_3 3.117887 1_655
Au1_6 Yb2_7 2.943487 1_555
Au1_6 Yb2_6 2.943487 1_555
Au1_6 Yb0_7 2.970914 1_555
Au1_6 Yb0_6 2.970914 1_555
Au1_6 Yb1_5 2.970914 1_565
Au1_6 Yb1_4 2.970914 1_565
Au1_6 Pb1_6 3.117887 1_555
Au1_6 Pb0_0 3.117887 1_665
Au1_7 Yb2_7 2.943487 1_555
Au1_7 Yb2_6 2.943487 1_556
Au1_7 Yb0_6 2.970914 1_556
Au1_7 Yb0_7 2.970914 1_555
Au1_7 Yb1_5 2.970914 1_565
Au1_7 Yb1_4 2.970914 1_566
Au1_7 Pb1_7 3.117887 1_555
Au1_7 Pb0_1 3.117887 1_665
Au2_0 Au3_4 2.841803 1_555
Au2_0 Yb1_0 2.943487 1_555
Au2_0 Yb1_1 2.943487 1_555
Au2_0 Yb3_4 2.970914 1_555
Au2_0 Yb3_5 2.970914 1_555
Au2_0 Yb2_0 2.970914 1_555
Au2_0 Yb2_1 2.970914 1_555
Au2_0 Pb0_4 3.117887 1_555
Au2_0 Pb1_0 3.117887 1_555
Au2_1 Au3_5 2.841803 1_555
Au2_1 Yb1_0 2.943487 1_556
Au2_1 Yb1_1 2.943487 1_555
Au2_1 Yb3_4 2.970914 1_556
Au2_1 Yb3_5 2.970914 1_555
Au2_1 Yb2_1 2.970914 1_555
Au2_1 Yb2_0 2.970914 1_556
Au2_1 Pb0_5 3.117887 1_555
Au2_1 Pb1_1 3.117887 1_555
Au2_2 Au3_6 2.841803 1_555
Au2_2 Yb1_2 2.943487 1_555
Au2_2 Yb1_3 2.943487 1_555
Au2_2 Yb3_6 2.970914 1_555
Au2_2 Yb3_7 2.970914 1_555
Au2_2 Yb2_2 2.970914 1_555
Au2_2 Yb2_3 2.970914 1_555
Au2_2 Pb0_6 3.117887 1_555
Au2_2 Pb1_2 3.117887 1_555
Au2_3 Au3_7 2.841803 1_555
Au2_3 Yb1_2 2.943487 1_556
Au2_3 Yb1_3 2.943487 1_555
Au2_3 Yb3_6 2.970914 1_556
Au2_3 Yb3_7 2.970914 1_555
Au2_3 Yb2_2 2.970914 1_556
Au2_3 Yb2_3 2.970914 1_555
Au2_3 Pb0_7 3.117887 1_555
Au2_3 Pb1_3 3.117887 1_555
Au2_4 Au3_0 2.841803 1_655
Au2_4 Yb1_4 2.943487 1_555
Au2_4 Yb1_5 2.943487 1_555
Au2_4 Yb2_4 2.970914 1_555
Au2_4 Yb2_5 2.970914 1_555
Au2_4 Yb3_0 2.970914 1_655
Au2_4 Yb3_1 2.970914 1_655
Au2_4 Pb1_4 3.117887 1_555
Au2_4 Pb0_0 3.117887 1_655
Au2_5 Au3_1 2.841803 1_655
Au2_5 Yb1_4 2.943487 1_556
Au2_5 Yb1_5 2.943487 1_555
Au2_5 Yb2_4 2.970914 1_556
Au2_5 Yb2_5 2.970914 1_555
Au2_5 Yb3_0 2.970914 1_656
Au2_5 Yb3_1 2.970914 1_655
Au2_5 Pb0_1 3.117887 1_655
Au2_5 Pb1_5 3.117887 1_555
Au2_6 Au3_2 2.841803 1_655
Au2_6 Yb1_7 2.943487 1_555
Au2_6 Yb1_6 2.943487 1_555
Au2_6 Yb2_7 2.970914 1_555
Au2_6 Yb2_6 2.970914 1_555
Au2_6 Yb3_2 2.970914 1_655
Au2_6 Yb3_3 2.970914 1_655
Au2_6 Pb0_2 3.117887 1_655
Au2_6 Pb1_6 3.117887 1_555
Au2_7 Au3_3 2.841803 1_655
Au2_7 Yb1_7 2.943487 1_555
Au2_7 Yb1_6 2.943487 1_556
Au2_7 Yb2_7 2.970914 1_555
Au2_7 Yb2_6 2.970914 1_556
Au2_7 Yb3_2 2.970914 1_656
Au2_7 Yb3_3 2.970914 1_655
Au2_7 Pb1_7 3.117887 1_555
Au2_7 Pb0_3 3.117887 1_655
Au3_0 Yb0_1 2.943487 1_555
Au3_0 Yb0_0 2.943487 1_555
Au3_0 Yb3_1 2.970914 1_555
Au3_0 Yb3_0 2.970914 1_555
Au3_0 Yb2_5 2.970914 1_455
Au3_0 Yb2_4 2.970914 1_455
Au3_0 Pb1_0 3.117887 1_555
Au3_0 Pb0_2 3.117887 1_555
Au3_1 Yb0_1 2.943487 1_555
Au3_1 Yb0_0 2.943487 1_556
Au3_1 Yb3_0 2.970914 1_556
Au3_1 Yb3_1 2.970914 1_555
Au3_1 Yb2_5 2.970914 1_455
Au3_1 Yb2_4 2.970914 1_456
Au3_1 Pb1_1 3.117887 1_555
Au3_1 Pb0_3 3.117887 1_555
Au3_2 Yb0_2 2.943487 1_555
Au3_2 Yb0_3 2.943487 1_555
Au3_2 Yb2_6 2.970914 1_455
Au3_2 Yb2_7 2.970914 1_455
Au3_2 Yb3_2 2.970914 1_555
Au3_2 Yb3_3 2.970914 1_555
Au3_2 Pb1_2 3.117887 1_555
Au3_2 Pb0_0 3.117887 1_565
Au3_3 Yb0_2 2.943487 1_556
Au3_3 Yb0_3 2.943487 1_555
Au3_3 Yb2_7 2.970914 1_455
Au3_3 Yb2_6 2.970914 1_456
Au3_3 Yb3_2 2.970914 1_556
Au3_3 Yb3_3 2.970914 1_555
Au3_3 Pb1_3 3.117887 1_555
Au3_3 Pb0_1 3.117887 1_565
Au3_4 Yb0_4 2.943487 1_555
Au3_4 Yb0_5 2.943487 1_555
Au3_4 Yb3_4 2.970914 1_555
Au3_4 Yb3_5 2.970914 1_555
Au3_4 Yb2_0 2.970914 1_555
Au3_4 Yb2_1 2.970914 1_555
Au3_4 Pb1_4 3.117887 1_555
Au3_4 Pb0_6 3.117887 1_555
Au3_5 Yb0_4 2.943487 1_556
Au3_5 Yb0_5 2.943487 1_555
Au3_5 Yb3_4 2.970914 1_556
Au3_5 Yb3_5 2.970914 1_555
Au3_5 Yb2_1 2.970914 1_555
Au3_5 Yb2_0 2.970914 1_556
Au3_5 Pb1_5 3.117887 1_555
Au3_5 Pb0_7 3.117887 1_555
Au3_6 Yb0_6 2.943487 1_555
Au3_6 Yb0_7 2.943487 1_555
Au3_6 Yb3_6 2.970914 1_555
Au3_6 Yb3_7 2.970914 1_555
Au3_6 Yb2_2 2.970914 1_555
Au3_6 Yb2_3 2.970914 1_555
Au3_6 Pb1_6 3.117887 1_555
Au3_6 Pb0_4 3.117887 1_565
Au3_7 Yb0_6 2.943487 1_556
Au3_7 Yb0_7 2.943487 1_555
Au3_7 Yb3_6 2.970914 1_556
Au3_7 Yb3_7 2.970914 1_555
Au3_7 Yb2_2 2.970914 1_556
Au3_7 Yb2_3 2.970914 1_555
Au3_7 Pb1_7 3.117887 1_555
Au3_7 Pb0_5 3.117887 1_565
