# generated using pymatgen
data_Li4MnFe3(BO3)4
_symmetry_space_group_name_H-M   'P 1'
_cell_length_a   5.99852023
_cell_length_b   5.22056461
_cell_length_c   16.12151712
_cell_angle_alpha   91.08172260
_cell_angle_beta   98.22489098
_cell_angle_gamma   89.23707343
_symmetry_Int_Tables_number   1
_chemical_formula_structural   Li4MnFe3(BO3)4
_chemical_formula_sum   'Li8 Mn2 Fe6 B8 O24'
_cell_volume   499.54533851
_cell_formula_units_Z   2
loop_
 _symmetry_equiv_pos_site_id
 _symmetry_equiv_pos_as_xyz
  1  'x, y, z'
loop_
 _atom_site_type_symbol
 _atom_site_label
 _atom_site_symmetry_multiplicity
 _atom_site_fract_x
 _atom_site_fract_y
 _atom_site_fract_z
 _atom_site_occupancy
  Li  Li0  1  0.06396794  0.85034729  0.61036864  1
  Li  Li1  1  0.43700730  0.15218813  0.89022555  1
  Li  Li2  1  0.18672105  0.65221770  0.13966368  1
  Li  Li3  1  0.31274091  0.34964436  0.35996728  1
  Li  Li4  1  0.68747384  0.65090333  0.64178981  1
  Li  Li5  1  0.81238204  0.34952342  0.85875351  1
  Li  Li6  1  0.56117418  0.84721831  0.10742092  1
  Li  Li7  1  0.93533543  0.15103196  0.39132646  1
  Mn  Mn0  1  0.02552465  0.16609518  0.20997608  1
  Mn  Mn1  1  0.77599486  0.66742607  0.45957299  1
  Fe  Fe0  1  0.27683293  0.66074994  0.95854245  1
  Fe  Fe1  1  0.22379979  0.32689086  0.53892693  1
  Fe  Fe2  1  0.52494008  0.16082527  0.70888801  1
  Fe  Fe3  1  0.47280454  0.83871402  0.28956226  1
  Fe  Fe4  1  0.97517595  0.84041195  0.79120491  1
  Fe  Fe5  1  0.72407769  0.32669896  0.04001544  1
  B  B0  1  0.03895456  0.33069127  0.70286094  1
  B  B1  1  0.28653790  0.82747359  0.45284291  1
  B  B2  1  0.46122425  0.67080574  0.79765421  1
  B  B3  1  0.21205094  0.17037444  0.04698870  1
  B  B4  1  0.78676724  0.82900248  0.95194851  1
  B  B5  1  0.53708046  0.33184014  0.20236734  1
  B  B6  1  0.71450826  0.16963245  0.54920426  1
  B  B7  1  0.96400043  0.67020446  0.29765237  1
  O  O0  1  0.01408253  0.59069550  0.69113219  1
  O  O1  1  0.17242385  0.18397017  0.65493746  1
  O  O2  1  0.16934710  0.70834735  0.50958042  1
  O  O3  1  0.32926455  0.29231910  0.99025164  1
  O  O4  1  0.08544181  0.78358364  0.24097375  1
  O  O5  1  0.32904875  0.81954585  0.84600329  1
  O  O6  1  0.07907260  0.32116520  0.09423353  1
  O  O7  1  0.26680874  0.09018133  0.44115605  1
  O  O8  1  0.48524286  0.41068450  0.80921356  1
  O  O9  1  0.23499707  0.91076300  0.05945550  1
  O  O10  1  0.41781597  0.68120967  0.40392944  1
  O  O11  1  0.42288134  0.20962192  0.25999838  1
  O  O12  1  0.57646535  0.79302476  0.74049344  1
  O  O13  1  0.57950131  0.32055852  0.59567865  1
  O  O14  1  0.76574600  0.09192642  0.94028403  1
  O  O15  1  0.51507753  0.59134120  0.19064491  1
  O  O16  1  0.73455483  0.90935312  0.56244087  1
  O  O17  1  0.92106099  0.68272769  0.90383460  1
  O  O18  1  0.66835066  0.18373693  0.15358776  1
  O  O19  1  0.92265058  0.20789886  0.75979442  1
  O  O20  1  0.66755782  0.70716980  0.00738703  1
  O  O21  1  0.83320265  0.28563952  0.49204768  1
  O  O22  1  0.82804286  0.82345260  0.34280749  1
  O  O23  1  0.98428403  0.41017001  0.31240876  1
loop_
_geom_bond_atom_site_label_1
_geom_bond_atom_site_label_2
_geom_bond_distance
_geom_bond_site_symmetry_2
Li0 O0 1.952231 1_555
Li0 O1 1.955048 1_565
Li0 O2 1.955815 1_555
Li0 O16 2.037740 1_455
Li1 O3 1.947905 1_555
Li1 O5 1.947938 1_545
Li1 O8 1.948245 1_555
Li1 O14 2.043664 1_555
Li2 O4 1.933263 1_555
Li2 O9 1.939378 1_555
Li2 O6 1.946009 1_555
Li2 O15 2.045986 1_555
Li3 O10 1.936677 1_555
Li3 O7 1.950371 1_555
Li3 O11 1.953351 1_555
Li3 O23 2.032228 1_455
Li4 O16 1.927523 1_555
Li4 O12 1.942014 1_555
Li4 O13 1.946762 1_555
Li4 O0 2.029052 1_655
Li5 O19 1.942612 1_555
Li5 O14 1.948422 1_555
Li5 O17 1.956018 1_555
Li5 O8 2.033507 1_555
Li6 O20 1.944245 1_555
Li6 O15 1.960788 1_555
Li6 O18 1.974204 1_565
Li6 O9 2.023789 1_555
Li7 O23 1.928091 1_555
Li7 O21 1.932848 1_555
Li7 O22 1.945618 1_545
Li7 O7 2.058054 1_655
Mn0 O4 2.081778 1_545
Mn0 O23 2.107338 1_455
Mn0 O6 2.115597 1_555
Mn0 O18 2.205877 1_455
Mn0 O11 2.416781 1_555
Mn1 O21 2.081886 1_555
Mn1 O16 2.106585 1_555
Mn1 O22 2.130107 1_555
Mn1 O10 2.207486 1_555
Mn1 O2 2.392830 1_655
Fe0 O3 2.008679 1_555
Fe0 O5 2.074450 1_555
Fe0 O9 2.107410 1_556
Fe0 O17 2.191851 1_455
Fe0 O20 2.377378 1_556
Fe1 O7 2.027911 1_555
Fe1 O2 2.066472 1_555
Fe1 O1 2.091243 1_555
Fe1 O13 2.198067 1_555
Fe1 O21 2.368095 1_455
Fe2 O12 2.004522 1_545
Fe2 O13 2.090253 1_555
Fe2 O8 2.096766 1_555
Fe2 O1 2.171051 1_555
Fe2 O19 2.423463 1_555
Fe3 O11 2.011182 1_565
Fe3 O15 2.074696 1_555
Fe3 O10 2.103066 1_555
Fe3 O22 2.181433 1_555
Fe3 O4 2.363067 1_555
Fe4 O19 2.002806 1_565
Fe4 O17 2.076587 1_555
Fe4 O0 2.092135 1_655
Fe4 O5 2.181549 1_655
Fe4 O12 2.428653 1_555
Fe5 O14 2.045041 1_554
Fe5 O18 2.062653 1_555
Fe5 O20 2.075430 1_555
Fe5 O6 2.183150 1_655
Fe5 O3 2.397274 1_554
B0 O0 1.377203 1_555
B0 O19 1.399090 1_455
B0 O1 1.401039 1_555
B1 O7 1.389073 1_565
B1 O2 1.390934 1_555
B1 O10 1.401399 1_555
B2 O8 1.377047 1_555
B2 O12 1.396560 1_555
B2 O5 1.405958 1_555
B3 O9 1.376092 1_545
B3 O3 1.397932 1_554
B3 O6 1.403774 1_555
B4 O20 1.389644 1_556
B4 O14 1.390567 1_565
B4 O17 1.404910 1_555
B5 O15 1.373401 1_555
B5 O11 1.398469 1_555
B5 O18 1.405091 1_555
B6 O16 1.380436 1_545
B6 O21 1.393932 1_555
B6 O13 1.404401 1_555
B7 O23 1.383398 1_555
B7 O4 1.392228 1_655
B7 O22 1.402005 1_555
