# generated using pymatgen
data_LaSiP3
_symmetry_space_group_name_H-M   'P 1'
_cell_length_a   5.72223500
_cell_length_b   5.80105000
_cell_length_c   25.79379200
_cell_angle_alpha   90.00000000
_cell_angle_beta   90.00000000
_cell_angle_gamma   90.00000000
_symmetry_Int_Tables_number   1
_chemical_formula_structural   LaSiP3
_chemical_formula_sum   'La8 Si8 P24'
_cell_volume   856.22418636
_cell_formula_units_Z   8
loop_
 _symmetry_equiv_pos_site_id
 _symmetry_equiv_pos_as_xyz
  1  'x, y, z'
loop_
 _atom_site_type_symbol
 _atom_site_label
 _atom_site_symmetry_multiplicity
 _atom_site_fract_x
 _atom_site_fract_y
 _atom_site_fract_z
 _atom_site_occupancy
  La  La0  1  0.00212700  0.99985500  0.59150500  1
  La  La1  1  0.00212700  0.49985500  0.90849500  1
  La  La2  1  0.99787300  0.50014500  0.09150500  1
  La  La3  1  0.49787300  0.49985500  0.40849500  1
  La  La4  1  0.99787300  0.00014500  0.40849500  1
  La  La5  1  0.50212700  0.50014500  0.59150500  1
  La  La6  1  0.50212700  0.00014500  0.90849500  1
  La  La7  1  0.49787300  0.99985500  0.09150500  1
  Si  Si0  1  0.91906000  0.41492700  0.70720600  1
  Si  Si1  1  0.58094000  0.41492700  0.20720600  1
  Si  Si2  1  0.91906000  0.91492700  0.79279400  1
  Si  Si3  1  0.08094000  0.08507300  0.20720600  1
  Si  Si4  1  0.41906000  0.58507300  0.79279400  1
  Si  Si5  1  0.08094000  0.58507300  0.29279400  1
  Si  Si6  1  0.41906000  0.08507300  0.70720600  1
  Si  Si7  1  0.58094000  0.91492700  0.29279400  1
  P  P0  1  0.25174500  0.74849600  0.00012900  1
  P  P1  1  0.02614400  0.54426700  0.78676400  1
  P  P2  1  0.52614400  0.45573300  0.71323600  1
  P  P3  1  0.02614400  0.04426700  0.71323600  1
  P  P4  1  0.49574300  0.00359600  0.37369100  1
  P  P5  1  0.49574300  0.50359600  0.12630900  1
  P  P6  1  0.24825500  0.74849600  0.50012900  1
  P  P7  1  0.74825500  0.75150400  0.50012900  1
  P  P8  1  0.47385600  0.54426700  0.28676400  1
  P  P9  1  0.50425700  0.49640400  0.87369100  1
  P  P10  1  0.74825500  0.25150400  0.99987100  1
  P  P11  1  0.99574300  0.49640400  0.37369100  1
  P  P12  1  0.00425700  0.00359600  0.87369100  1
  P  P13  1  0.52614400  0.95573300  0.78676400  1
  P  P14  1  0.97385600  0.45573300  0.21323600  1
  P  P15  1  0.75174500  0.25150400  0.49987100  1
  P  P16  1  0.50425700  0.99640400  0.62630900  1
  P  P17  1  0.00425700  0.50359600  0.62630900  1
  P  P18  1  0.47385600  0.04426700  0.21323600  1
  P  P19  1  0.97385600  0.95573300  0.28676400  1
  P  P20  1  0.99574300  0.99640400  0.12630900  1
  P  P21  1  0.24825500  0.24849600  0.99987100  1
  P  P22  1  0.25174500  0.24849600  0.49987100  1
  P  P23  1  0.75174500  0.75150400  0.00012900  1
loop_
_geom_bond_atom_site_label_1
_geom_bond_atom_site_label_2
_geom_bond_distance
_geom_bond_site_symmetry_2
La0 P16 2.987091 1_455
La0 P16 3.010349 1_555
La0 P17 3.015574 1_555
La0 P17 3.057036 1_565
La0 P6 3.108846 1_555
La0 P22 3.115647 1_565
La0 P7 3.121077 1_455
La0 P15 3.125765 1_465
La0 P3 3.153452 1_565
La1 P9 2.987091 1_455
La1 P9 3.010349 1_555
La1 P12 3.015574 1_555
La1 P12 3.057036 1_565
La1 P21 3.108846 1_555
La1 P0 3.115647 1_556
La1 P10 3.121077 1_455
La1 P23 3.125765 1_456
La1 P1 3.153452 1_555
La2 P5 2.987091 1_655
La2 P5 3.010349 1_555
La2 P20 3.015574 1_555
La2 P20 3.057036 1_545
La2 P23 3.108846 1_555
La2 P10 3.115647 1_554
La2 P0 3.121077 1_655
La2 P21 3.125765 1_654
La2 P14 3.153452 1_555
La3 P11 2.987091 1_555
La3 P11 3.010349 1_455
La3 P4 3.015574 1_555
La3 P4 3.057036 1_565
La3 P22 3.108846 1_555
La3 P6 3.115647 1_555
La3 P15 3.121077 1_555
La3 P7 3.125765 1_555
La3 P8 3.153452 1_555
La4 P4 2.987091 1_655
La4 P4 3.010349 1_555
La4 P11 3.015574 1_555
La4 P11 3.057036 1_545
La4 P15 3.108846 1_555
La4 P7 3.115647 1_545
La4 P22 3.121077 1_655
La4 P6 3.125765 1_645
La4 P19 3.153452 1_545
La5 P17 2.987091 1_555
La5 P17 3.010349 1_655
La5 P16 3.015574 1_555
La5 P16 3.057036 1_545
La5 P7 3.108846 1_555
La5 P15 3.115647 1_555
La5 P6 3.121077 1_555
La5 P22 3.125765 1_555
La5 P2 3.153452 1_555
La6 P12 2.987091 1_555
La6 P12 3.010349 1_655
La6 P9 3.015574 1_555
La6 P9 3.057036 1_545
La6 P10 3.108846 1_555
La6 P23 3.115647 1_546
La6 P21 3.121077 1_555
La6 P0 3.125765 1_546
La6 P13 3.153452 1_545
La7 P20 2.987091 1_555
La7 P20 3.010349 1_455
La7 P5 3.015574 1_555
La7 P5 3.057036 1_565
La7 P0 3.108846 1_555
La7 P21 3.115647 1_564
La7 P23 3.121077 1_555
La7 P10 3.125765 1_564
La7 P18 3.153452 1_565
P1 Si2 2.241227 1_455
P1 Si4 2.266129 1_555
P1 Si0 2.269264 1_455
P2 Si6 2.241227 1_555
P2 Si0 2.266129 1_555
P2 Si4 2.269264 1_555
P3 Si0 2.241227 1_455
P3 Si6 2.266129 1_555
P3 Si2 2.269264 1_445
P4 Si7 2.203706 1_545
P5 Si1 2.203706 1_555
P8 Si7 2.241227 1_555
P8 Si5 2.266129 1_555
P8 Si1 2.269264 1_555
P9 Si4 2.203706 1_555
P11 Si5 2.203706 1_655
P12 Si2 2.203706 1_445
P13 Si4 2.241227 1_555
P13 Si2 2.266129 1_555
P13 Si6 2.269264 1_565
P14 Si3 2.241227 1_655
P14 Si1 2.266129 1_555
P14 Si5 2.269264 1_655
P16 Si6 2.203706 1_565
P17 Si0 2.203706 1_455
P18 Si1 2.241227 1_555
P18 Si3 2.266129 1_555
P18 Si7 2.269264 1_545
P19 Si5 2.241227 1_655
P19 Si7 2.266129 1_555
P19 Si3 2.269264 1_665
P20 Si3 2.203706 1_665
