# generated using pymatgen
data_Nb3InN6
_symmetry_space_group_name_H-M   'P 1'
_cell_length_a   5.14726690
_cell_length_b   5.52619400
_cell_length_c   8.62393439
_cell_angle_alpha   90.00000000
_cell_angle_beta   89.94892447
_cell_angle_gamma   90.00000000
_symmetry_Int_Tables_number   1
_chemical_formula_structural   Nb3InN6
_chemical_formula_sum   'Nb6 In2 N12'
_cell_volume   245.30595224
_cell_formula_units_Z   2
loop_
 _symmetry_equiv_pos_site_id
 _symmetry_equiv_pos_as_xyz
  1  'x, y, z'
loop_
 _atom_site_type_symbol
 _atom_site_label
 _atom_site_symmetry_multiplicity
 _atom_site_fract_x
 _atom_site_fract_y
 _atom_site_fract_z
 _atom_site_occupancy
  Nb  Nb0  1  0.96551500  0.45861700  0.24263300  1
  Nb  Nb1  1  0.46551500  0.04138300  0.74263300  1
  Nb  Nb2  1  0.03448500  0.54138300  0.75736700  1
  Nb  Nb3  1  0.53448500  0.95861700  0.25736700  1
  Nb  Nb4  1  0.50000000  0.50000000  0.00000000  1
  Nb  Nb5  1  0.00000000  0.00000000  0.50000000  1
  In  In0  1  0.50000000  0.50000000  0.50000000  1
  In  In1  1  0.00000000  0.00000000  0.00000000  1
  N  N0  1  0.17811700  0.29897700  0.60580200  1
  N  N1  1  0.67811700  0.20102300  0.10580200  1
  N  N2  1  0.82188300  0.70102300  0.39419800  1
  N  N3  1  0.32188300  0.79897700  0.89419800  1
  N  N4  1  0.30764400  0.81176000  0.58456500  1
  N  N5  1  0.80764400  0.68824000  0.08456500  1
  N  N6  1  0.69235600  0.18824000  0.41543500  1
  N  N7  1  0.19235600  0.31176000  0.91543500  1
  N  N8  1  0.31483300  0.59228200  0.22256500  1
  N  N9  1  0.81483300  0.90771800  0.72256500  1
  N  N10  1  0.68516700  0.40771800  0.77743500  1
  N  N11  1  0.18516700  0.09228200  0.27743500  1
loop_
_geom_bond_atom_site_label_1
_geom_bond_atom_site_label_2
_geom_bond_distance
_geom_bond_site_symmetry_2
In0 N4 2.116383 1_555
In0 N6 2.116383 1_555
In0 N0 2.192934 1_555
In0 N2 2.192934 1_555
In0 N8 2.626211 1_555
In0 N10 2.626211 1_555
In1 N7 2.116383 1_554
In1 N5 2.116383 1_445
In1 N3 2.192934 1_544
In1 N1 2.192934 1_455
In1 N11 2.626211 1_555
In1 N9 2.626211 1_444
N0 Nb2 2.011919 1_555
N0 Nb5 2.098655 1_555
N0 Nb1 2.368613 1_555
N1 Nb3 2.011919 1_545
N1 Nb4 2.098655 1_555
N1 Nb0 2.368613 1_555
N2 Nb0 2.011919 1_555
N2 Nb5 2.098655 1_665
N2 Nb3 2.368613 1_555
N3 Nb1 2.011919 1_565
N3 Nb4 2.098655 1_556
N3 Nb2 2.368613 1_555
N4 Nb5 2.030662 1_565
N4 Nb1 2.032422 1_565
N4 Nb2 2.535046 1_555
N5 Nb4 2.030662 1_555
N5 Nb0 2.032422 1_555
N5 Nb3 2.535046 1_555
N6 Nb5 2.030662 1_655
N6 Nb3 2.032422 1_545
N6 Nb0 2.535046 1_555
N7 Nb4 2.030662 1_556
N7 Nb2 2.032422 1_555
N7 Nb1 2.535046 1_555
N8 Nb0 1.951393 1_455
N8 Nb4 2.202103 1_555
N8 Nb3 2.338227 1_555
N9 Nb1 1.951393 1_565
N9 Nb5 2.202103 1_665
N9 Nb2 2.338227 1_655
N10 Nb2 1.951393 1_655
N10 Nb4 2.202103 1_556
N10 Nb1 2.338227 1_555
N11 Nb3 1.951393 1_545
N11 Nb5 2.202103 1_555
N11 Nb0 2.338227 1_455
