# generated using pymatgen
data_AlSiCN
_symmetry_space_group_name_H-M   'P 1'
_cell_length_a   3.10951750
_cell_length_b   3.10951750
_cell_length_c   5.05580400
_cell_angle_alpha   90.00000000
_cell_angle_beta   90.00000000
_cell_angle_gamma   119.99998928
_symmetry_Int_Tables_number   1
_chemical_formula_structural   AlSiCN
_chemical_formula_sum   'Al1 Si1 C1 N1'
_cell_volume   42.33571680
_cell_formula_units_Z   1
loop_
 _symmetry_equiv_pos_site_id
 _symmetry_equiv_pos_as_xyz
  1  'x, y, z'
loop_
 _atom_site_type_symbol
 _atom_site_label
 _atom_site_symmetry_multiplicity
 _atom_site_fract_x
 _atom_site_fract_y
 _atom_site_fract_z
 _atom_site_occupancy
  Al  Al0  1  0.33333300  0.66666700  0.50716100  1
  Si  Si0  1  0.66666700  0.33333300  0.99731000  1
  C  C0  1  0.33333300  0.66666700  0.10860500  1
  N  N0  1  0.66666700  0.33333300  0.63692400  1
loop_
_geom_bond_atom_site_label_1
_geom_bond_atom_site_label_2
_geom_bond_distance
_geom_bond_site_symmetry_2
Al0 N0 1.911397 1_455
Al0 N0 1.911397 1_565
Al0 N0 1.911401 1_555
Al0 C0 2.015021 1_555
C0 Si0 1.881394 1_454
C0 Si0 1.881394 1_564
C0 Si0 1.881399 1_554
N0 Si0 1.822041 1_555
