# generated using pymatgen
data_Zn2Sb2O5
_symmetry_space_group_name_H-M   'P 1'
_cell_length_a   3.70907100
_cell_length_b   6.74709600
_cell_length_c   12.16288000
_cell_angle_alpha   90.00000000
_cell_angle_beta   90.00000000
_cell_angle_gamma   90.00000000
_symmetry_Int_Tables_number   1
_chemical_formula_structural   Zn2Sb2O5
_chemical_formula_sum   'Zn4 Sb4 O10'
_cell_volume   304.38164391
_cell_formula_units_Z   2
loop_
 _symmetry_equiv_pos_site_id
 _symmetry_equiv_pos_as_xyz
  1  'x, y, z'
loop_
 _atom_site_type_symbol
 _atom_site_label
 _atom_site_symmetry_multiplicity
 _atom_site_fract_x
 _atom_site_fract_y
 _atom_site_fract_z
 _atom_site_occupancy
  Zn  Zn0  1  0.50000000  0.67282100  0.31346100  1
  Zn  Zn1  1  0.50000000  0.32717900  0.68653900  1
  Zn  Zn2  1  0.50000000  0.17282100  0.18653900  1
  Zn  Zn3  1  0.50000000  0.82717900  0.81346100  1
  Sb  Sb0  1  0.00000000  0.76871200  0.10496800  1
  Sb  Sb1  1  0.00000000  0.23128800  0.89503200  1
  Sb  Sb2  1  0.00000000  0.73128800  0.60496800  1
  Sb  Sb3  1  0.00000000  0.26871200  0.39503200  1
  O  O0  1  0.00000000  0.00000000  0.00000000  1
  O  O1  1  0.00000000  0.76054100  0.78117500  1
  O  O2  1  0.00000000  0.26054100  0.71882500  1
  O  O3  1  0.00000000  0.73945900  0.28117500  1
  O  O4  1  0.50000000  0.62058700  0.65488600  1
  O  O5  1  0.50000000  0.37941300  0.34511400  1
  O  O6  1  0.00000000  0.23945900  0.21882500  1
  O  O7  1  0.50000000  0.87941300  0.15488600  1
  O  O8  1  0.00000000  0.50000000  0.50000000  1
  O  O9  1  0.50000000  0.12058700  0.84511400  1
loop_
_geom_bond_atom_site_label_1
_geom_bond_atom_site_label_2
_geom_bond_distance
_geom_bond_site_symmetry_2
O0 Sb1 2.016241 1_554
O0 Sb0 2.016241 1_545
O1 Zn3 1.948245 1_555
O1 Zn3 1.948245 1_455
O1 Sb2 2.152254 1_555
O2 Zn1 1.948245 1_555
O2 Zn1 1.948245 1_455
O2 Sb1 2.152254 1_555
O3 Zn0 1.948245 1_555
O3 Zn0 1.948245 1_455
O3 Sb0 2.152254 1_555
O4 Zn1 2.016740 1_555
O4 Sb2 2.089451 1_655
O4 Sb2 2.089451 1_555
O4 Zn3 2.379693 1_555
O5 Zn0 2.016740 1_555
O5 Sb3 2.089451 1_555
O5 Sb3 2.089451 1_655
O5 Zn2 2.379693 1_555
O6 Zn2 1.948245 1_555
O6 Zn2 1.948245 1_455
O6 Sb3 2.152254 1_555
O7 Zn2 2.016740 1_565
O7 Sb0 2.089451 1_655
O7 Sb0 2.089451 1_555
O7 Zn0 2.379693 1_555
O8 Sb2 2.016241 1_555
O8 Sb3 2.016241 1_555
O9 Zn3 2.016740 1_545
O9 Sb1 2.089451 1_555
O9 Sb1 2.089451 1_655
O9 Zn1 2.379693 1_555
