# generated using pymatgen
data_Te2MoW3(Se2S)2
_symmetry_space_group_name_H-M   'P 1'
_cell_length_a   3.33995982
_cell_length_b   3.33995982
_cell_length_c   39.66931700
_cell_angle_alpha   90.00000000
_cell_angle_beta   90.00000000
_cell_angle_gamma   119.99999644
_symmetry_Int_Tables_number   1
_chemical_formula_structural   Te2MoW3(Se2S)2
_chemical_formula_sum   'Te2 Mo1 W3 Se4 S2'
_cell_volume   383.23737339
_cell_formula_units_Z   1
loop_
 _symmetry_equiv_pos_site_id
 _symmetry_equiv_pos_as_xyz
  1  'x, y, z'
loop_
 _atom_site_type_symbol
 _atom_site_label
 _atom_site_symmetry_multiplicity
 _atom_site_fract_x
 _atom_site_fract_y
 _atom_site_fract_z
 _atom_site_occupancy
  Te  Te0  1  0.33333300  0.66666700  0.04458300  1
  Te  Te1  1  0.33333300  0.66666700  0.14020400  1
  Mo  Mo0  1  0.00000000  0.00000000  0.09238400  1
  W  W0  1  0.00000000  0.00000000  0.47021600  1
  W  W1  1  0.33333300  0.66666700  0.28265800  1
  W  W2  1  0.33333300  0.66666700  0.65763800  1
  Se  Se0  1  0.00000000  0.00000000  0.32490400  1
  Se  Se1  1  0.33333300  0.66666700  0.42801100  1
  Se  Se2  1  0.33333300  0.66666700  0.51245300  1
  Se  Se3  1  0.00000000  0.00000000  0.24043600  1
  S  S0  1  0.00000000  0.00000000  0.69600900  1
  S  S1  1  0.00000000  0.00000000  0.61925100  1
loop_
_geom_bond_atom_site_label_1
_geom_bond_atom_site_label_2
_geom_bond_distance
_geom_bond_site_symmetry_2
Mo0 Te0 2.704466 1_545
Mo0 Te0 2.704468 1_445
Mo0 Te0 2.704468 1_555
Mo0 Te1 2.704994 1_545
Mo0 Te1 2.704997 1_555
Mo0 Te1 2.704997 1_445
Se0 W1 2.554795 1_545
Se0 W1 2.554797 1_445
Se0 W1 2.554797 1_555
Se1 W0 2.553728 1_565
Se1 W0 2.553730 1_555
Se1 W0 2.553730 1_665
Se2 W0 2.554561 1_565
Se2 W0 2.554563 1_665
Se2 W0 2.554563 1_555
Se3 W1 2.554170 1_545
Se3 W1 2.554173 1_555
Se3 W1 2.554173 1_445
S0 W2 2.456701 1_545
S0 W2 2.456704 1_445
S0 W2 2.456704 1_555
S1 W2 2.457095 1_545
S1 W2 2.457097 1_555
S1 W2 2.457097 1_445
