# generated using pymatgen
data_InO2
_symmetry_space_group_name_H-M   'P 1'
_cell_length_a   3.39497200
_cell_length_b   4.36429900
_cell_length_c   5.26009100
_cell_angle_alpha   90.00000000
_cell_angle_beta   90.00000000
_cell_angle_gamma   90.00000000
_symmetry_Int_Tables_number   1
_chemical_formula_structural   InO2
_chemical_formula_sum   'In2 O4'
_cell_volume   77.93704780
_cell_formula_units_Z   2
loop_
 _symmetry_equiv_pos_site_id
 _symmetry_equiv_pos_as_xyz
  1  'x, y, z'
loop_
 _atom_site_type_symbol
 _atom_site_label
 _atom_site_symmetry_multiplicity
 _atom_site_fract_x
 _atom_site_fract_y
 _atom_site_fract_z
 _atom_site_occupancy
  In  In0  1  0.50000000  0.50000000  0.00000000  1
  In  In1  1  0.00000000  0.00000000  0.50000000  1
  O  O0  1  0.50000000  0.28952100  0.37716600  1
  O  O1  1  0.00000000  0.21047900  0.87716600  1
  O  O2  1  0.50000000  0.71047900  0.62283400  1
  O  O3  1  0.00000000  0.78952100  0.12283400  1
loop_
_geom_bond_atom_site_label_1
_geom_bond_atom_site_label_2
_geom_bond_distance
_geom_bond_site_symmetry_2
In0 O2 2.186271 1_554
In0 O0 2.186271 1_555
In0 O3 2.212578 1_655
In0 O1 2.212578 1_554
In0 O3 2.212578 1_555
In0 O1 2.212578 1_654
In1 O3 2.186271 1_545
In1 O1 2.186271 1_555
In1 O2 2.212578 1_545
In1 O0 2.212578 1_555
In1 O0 2.212578 1_455
In1 O2 2.212578 1_445
