# generated using pymatgen
data_NaMnH3(CO2)3
_symmetry_space_group_name_H-M   'P 1'
_cell_length_a   9.42780000
_cell_length_b   9.42780000
_cell_length_c   9.42780000
_cell_angle_alpha   90.00000000
_cell_angle_beta   90.00000000
_cell_angle_gamma   90.00000000
_symmetry_Int_Tables_number   1
_chemical_formula_structural   NaMnH3(CO2)3
_chemical_formula_sum   'Na4 Mn4 H12 C12 O24'
_cell_volume   837.97503957
_cell_formula_units_Z   4
loop_
 _symmetry_equiv_pos_site_id
 _symmetry_equiv_pos_as_xyz
  1  'x, y, z'
loop_
 _atom_site_type_symbol
 _atom_site_label
 _atom_site_symmetry_multiplicity
 _atom_site_fract_x
 _atom_site_fract_y
 _atom_site_fract_z
 _atom_site_occupancy
  Na  Na0  1  0.81414000  0.68586000  0.31414000  1
  Na  Na1  1  0.68586000  0.31414000  0.81414000  1
  Na  Na2  1  0.18586000  0.18586000  0.18586000  1
  Na  Na3  1  0.31414000  0.81414000  0.68586000  1
  Mn  Mn0  1  0.13636300  0.86363700  0.36363700  1
  Mn  Mn1  1  0.63636300  0.63636300  0.63636300  1
  Mn  Mn2  1  0.36363700  0.13636300  0.86363700  1
  Mn  Mn3  1  0.86363700  0.36363700  0.13636300  1
  H  H0  1  0.24282700  0.53178600  0.29540400  1
  H  H1  1  0.70459600  0.74282700  0.96821400  1
  H  H2  1  0.03178600  0.20459600  0.75717300  1
  H  H3  1  0.74282700  0.96821400  0.70459600  1
  H  H4  1  0.20459600  0.75717300  0.03178600  1
  H  H5  1  0.53178600  0.29540400  0.24282700  1
  H  H6  1  0.75717300  0.03178600  0.20459600  1
  H  H7  1  0.29540400  0.24282700  0.53178600  1
  H  H8  1  0.96821400  0.70459600  0.74282700  1
  H  H9  1  0.25717300  0.46821400  0.79540400  1
  H  H10  1  0.79540400  0.25717300  0.46821400  1
  H  H11  1  0.46821400  0.79540400  0.25717300  1
  C  C0  1  0.12982300  0.53681700  0.26256500  1
  C  C1  1  0.73743500  0.62982200  0.96318300  1
  C  C2  1  0.03681700  0.23743500  0.87017800  1
  C  C3  1  0.62982200  0.96318300  0.73743500  1
  C  C4  1  0.23743500  0.87017800  0.03681700  1
  C  C5  1  0.53681700  0.26256500  0.12982300  1
  C  C6  1  0.87017800  0.03681700  0.23743500  1
  C  C7  1  0.26256500  0.12982300  0.53681700  1
  C  C8  1  0.96318300  0.73743500  0.62982200  1
  C  C9  1  0.37017700  0.46318300  0.76256500  1
  C  C10  1  0.76256500  0.37017700  0.46318300  1
  C  C11  1  0.46318300  0.76256500  0.37017700  1
  O  O0  1  0.07901100  0.42521100  0.20763500  1
  O  O1  1  0.79236500  0.57901100  0.07478900  1
  O  O2  1  0.92521100  0.29236500  0.92098900  1
  O  O3  1  0.57901100  0.07478900  0.79236500  1
  O  O4  1  0.29236500  0.92098900  0.92521100  1
  O  O5  1  0.42521100  0.20763500  0.07901100  1
  O  O6  1  0.92098900  0.92521100  0.29236500  1
  O  O7  1  0.20763500  0.07901100  0.42521100  1
  O  O8  1  0.07478900  0.79236500  0.57901100  1
  O  O9  1  0.42098900  0.57478900  0.70763500  1
  O  O10  1  0.70763500  0.42098900  0.57478900  1
  O  O11  1  0.57478900  0.70763500  0.42098900  1
  O  O12  1  0.06478700  0.65273600  0.28356300  1
  O  O13  1  0.71643700  0.56478700  0.84726400  1
  O  O14  1  0.15273600  0.21643700  0.93521300  1
  O  O15  1  0.56478700  0.84726400  0.71643700  1
  O  O16  1  0.21643700  0.93521300  0.15273600  1
  O  O17  1  0.65273600  0.28356300  0.06478700  1
  O  O18  1  0.93521300  0.15273600  0.21643700  1
  O  O19  1  0.28356300  0.06478700  0.65273600  1
  O  O20  1  0.84726400  0.71643700  0.56478700  1
  O  O21  1  0.43521300  0.34726400  0.78356300  1
  O  O22  1  0.78356300  0.43521300  0.34726400  1
  O  O23  1  0.34726400  0.78356300  0.43521300  1
loop_
_geom_bond_atom_site_label_1
_geom_bond_atom_site_label_2
_geom_bond_distance
_geom_bond_site_symmetry_2
Na0 O12 2.400964 1_655
Na0 O22 2.400964 1_555
Na0 O20 2.400964 1_555
Na0 O1 2.479704 1_555
Na0 O6 2.479704 1_555
Na0 O11 2.479704 1_555
Na1 O21 2.400964 1_555
Na1 O17 2.400964 1_556
Na1 O13 2.400964 1_555
Na1 O3 2.479704 1_555
Na1 O2 2.479704 1_555
Na1 O10 2.479704 1_555
Na2 O18 2.400964 1_455
Na2 O14 2.400964 1_554
Na2 O16 2.400964 1_545
Na2 O7 2.479704 1_555
Na2 O5 2.479704 1_555
Na2 O0 2.479704 1_555
Na3 O23 2.400964 1_555
Na3 O19 2.400964 1_565
Na3 O15 2.400964 1_555
Na3 O4 2.479704 1_555
Na3 O8 2.479704 1_555
Na3 O9 2.479704 1_555
Mn0 O7 2.216175 1_565
Mn0 O8 2.216175 1_555
Mn0 O6 2.216175 1_455
Mn0 O16 2.231308 1_555
Mn0 O23 2.231308 1_555
Mn0 O12 2.231308 1_555
Mn1 O11 2.216175 1_555
Mn1 O10 2.216175 1_555
Mn1 O9 2.216175 1_555
Mn1 O15 2.231308 1_555
Mn1 O13 2.231308 1_555
Mn1 O20 2.231308 1_555
Mn2 O5 2.216175 1_556
Mn2 O4 2.216175 1_545
Mn2 O3 2.216175 1_555
Mn2 O14 2.231308 1_555
Mn2 O19 2.231308 1_555
Mn2 O21 2.231308 1_555
Mn3 O0 2.216175 1_655
Mn3 O1 2.216175 1_555
Mn3 O2 2.216175 1_554
Mn3 O18 2.231308 1_555
Mn3 O22 2.231308 1_555
Mn3 O17 2.231308 1_555
C0 H0 1.110466 1_555
C0 O0 1.266805 1_555
C0 O12 1.268654 1_555
C1 H1 1.110475 1_555
C1 O1 1.266802 1_556
C1 O13 1.268650 1_555
C2 H2 1.110475 1_555
C2 O2 1.266802 1_455
C2 O14 1.268650 1_555
C3 H3 1.110475 1_555
C3 O3 1.266802 1_565
C3 O15 1.268650 1_555
C4 H4 1.110475 1_555
C4 O4 1.266802 1_554
C4 O16 1.268650 1_555
C5 H5 1.110466 1_555
C5 O5 1.266805 1_555
C5 O17 1.268654 1_555
C6 H6 1.110475 1_555
C6 O6 1.266802 1_545
C6 O18 1.268650 1_555
C7 H7 1.110466 1_555
C7 O7 1.266805 1_555
C7 O19 1.268654 1_555
C8 H8 1.110475 1_555
C8 O8 1.266802 1_655
C8 O20 1.268650 1_555
C9 H9 1.110466 1_555
C9 O9 1.266805 1_555
C9 O21 1.268654 1_555
C10 H10 1.110466 1_555
C10 O10 1.266805 1_555
C10 O22 1.268654 1_555
C11 H11 1.110466 1_555
C11 O11 1.266805 1_555
C11 O23 1.268654 1_555
