# generated using pymatgen
data_RbDyBr3
_symmetry_space_group_name_H-M   'P 1'
_cell_length_a   7.70016100
_cell_length_b   8.23599300
_cell_length_c   11.25852100
_cell_angle_alpha   90.00000000
_cell_angle_beta   90.00000000
_cell_angle_gamma   90.00000000
_symmetry_Int_Tables_number   1
_chemical_formula_structural   RbDyBr3
_chemical_formula_sum   'Rb4 Dy4 Br12'
_cell_volume   713.99819987
_cell_formula_units_Z   4
loop_
 _symmetry_equiv_pos_site_id
 _symmetry_equiv_pos_as_xyz
  1  'x, y, z'
loop_
 _atom_site_type_symbol
 _atom_site_label
 _atom_site_symmetry_multiplicity
 _atom_site_fract_x
 _atom_site_fract_y
 _atom_site_fract_z
 _atom_site_occupancy
  Rb  Rb0  1  0.02986400  0.43097000  0.25000000  1
  Rb  Rb1  1  0.97013600  0.56903000  0.75000000  1
  Rb  Rb2  1  0.52986400  0.06903000  0.75000000  1
  Rb  Rb3  1  0.47013600  0.93097000  0.25000000  1
  Dy  Dy0  1  0.00000000  0.00000000  0.00000000  1
  Dy  Dy1  1  0.50000000  0.50000000  0.00000000  1
  Dy  Dy2  1  0.00000000  0.00000000  0.50000000  1
  Dy  Dy3  1  0.50000000  0.50000000  0.50000000  1
  Br  Br0  1  0.29213100  0.21295500  0.03411500  1
  Br  Br1  1  0.70786900  0.78704500  0.96588500  1
  Br  Br2  1  0.79213100  0.28704500  0.96588500  1
  Br  Br3  1  0.70786900  0.78704500  0.53411500  1
  Br  Br4  1  0.20786900  0.71295500  0.03411500  1
  Br  Br5  1  0.29213100  0.21295500  0.46588500  1
  Br  Br6  1  0.20786900  0.71295500  0.46588500  1
  Br  Br7  1  0.79213100  0.28704500  0.53411500  1
  Br  Br8  1  0.57984700  0.51082600  0.25000000  1
  Br  Br9  1  0.42015300  0.48917400  0.75000000  1
  Br  Br10  1  0.07984700  0.98917400  0.75000000  1
  Br  Br11  1  0.92015300  0.01082600  0.25000000  1
loop_
_geom_bond_atom_site_label_1
_geom_bond_atom_site_label_2
_geom_bond_distance
_geom_bond_site_symmetry_2
Br0 Dy0 2.878146 1_555
Br0 Dy1 2.880710 1_555
Br0 Rb3 3.630420 1_545
Br0 Rb0 3.634556 1_555
Br0 Rb2 3.871421 1_554
Br1 Dy0 2.878146 1_666
Br1 Dy1 2.880710 1_556
Br1 Rb2 3.630420 1_565
Br1 Rb1 3.634556 1_555
Br1 Rb3 3.871421 1_556
Br2 Dy1 2.878146 1_556
Br2 Dy0 2.880710 1_656
Br2 Rb1 3.630420 1_555
Br2 Rb2 3.634556 1_555
Br2 Rb0 3.871421 1_656
Br3 Dy2 2.878146 1_665
Br3 Dy3 2.880710 1_555
Br3 Rb2 3.630420 1_565
Br3 Rb1 3.634556 1_555
Br3 Rb3 3.871421 1_555
Br4 Dy1 2.878146 1_555
Br4 Dy0 2.880710 1_565
Br4 Rb0 3.630420 1_555
Br4 Rb3 3.634556 1_555
Br4 Rb1 3.871421 1_454
Br5 Dy2 2.878146 1_555
Br5 Dy3 2.880710 1_555
Br5 Rb3 3.630420 1_545
Br5 Rb0 3.634556 1_555
Br5 Rb2 3.871421 1_555
Br6 Dy3 2.878146 1_555
Br6 Dy2 2.880710 1_565
Br6 Rb0 3.630420 1_555
Br6 Rb3 3.634556 1_555
Br6 Rb1 3.871421 1_455
Br7 Dy3 2.878146 1_555
Br7 Dy2 2.880710 1_655
Br7 Rb1 3.630420 1_555
Br7 Rb2 3.634556 1_555
Br7 Rb0 3.871421 1_655
Br8 Dy3 2.882380 1_555
Br8 Dy1 2.882380 1_555
Br8 Rb0 3.527066 1_655
Br8 Rb3 3.561934 1_555
Br9 Dy3 2.882380 1_555
Br9 Dy1 2.882380 1_556
Br9 Rb1 3.527066 1_455
Br9 Rb2 3.561934 1_555
Br10 Dy2 2.882380 1_565
Br10 Dy0 2.882380 1_566
Br10 Rb2 3.527066 1_565
Br10 Rb1 3.561934 1_455
Br11 Dy2 2.882380 1_655
Br11 Dy0 2.882380 1_655
Br11 Rb3 3.527066 1_545
Br11 Rb0 3.561934 1_655
