# generated using pymatgen
data_Ba2MgMn2(P2O7)2
_symmetry_space_group_name_H-M   'P 1'
_cell_length_a   5.38677976
_cell_length_b   9.84869326
_cell_length_c   7.57483709
_cell_angle_alpha   100.13535951
_cell_angle_beta   90.83184328
_cell_angle_gamma   105.41521650
_symmetry_Int_Tables_number   1
_chemical_formula_structural   Ba2MgMn2(P2O7)2
_chemical_formula_sum   'Ba2 Mg1 Mn2 P4 O14'
_cell_volume   380.56677254
_cell_formula_units_Z   1
loop_
 _symmetry_equiv_pos_site_id
 _symmetry_equiv_pos_as_xyz
  1  'x, y, z'
loop_
 _atom_site_type_symbol
 _atom_site_label
 _atom_site_symmetry_multiplicity
 _atom_site_fract_x
 _atom_site_fract_y
 _atom_site_fract_z
 _atom_site_occupancy
  Ba  Ba0  1  0.15644600  0.81456700  0.97313800  1
  Ba  Ba1  1  0.81019600  0.14866500  0.04365400  1
  Mg  Mg0  1  0.47332900  0.49062200  0.55949700  1
  Mn  Mn0  1  0.09922500  0.64160900  0.43477000  1
  Mn  Mn1  1  0.91717500  0.35053700  0.55447400  1
  P  P0  1  0.66012200  0.76732700  0.24057400  1
  P  P1  1  0.32591400  0.24538800  0.76749100  1
  P  P2  1  0.66795700  0.82391800  0.62590900  1
  P  P3  1  0.32272300  0.17008100  0.38312500  1
  O  O0  1  0.55202700  0.30939300  0.38953600  1
  O  O1  1  0.37445700  0.79329200  0.64471800  1
  O  O2  1  0.83353000  0.93883900  0.76991800  1
  O  O3  1  0.35315900  0.04567600  0.24584100  1
  O  O4  1  0.06411400  0.20644500  0.36242300  1
  O  O5  1  0.74858200  0.67970200  0.60965800  1
  O  O6  1  0.72710200  0.87561100  0.43563700  1
  O  O7  1  0.33527600  0.13072500  0.58250800  1
  O  O8  1  0.05822500  0.27522000  0.76832100  1
  O  O9  1  0.85989200  0.68008600  0.22632400  1
  O  O10  1  0.54318000  0.38189400  0.75373700  1
  O  O11  1  0.37875300  0.67828300  0.23410300  1
  O  O12  1  0.36326100  0.17088700  0.92067900  1
  O  O13  1  0.70035400  0.86337600  0.09896600  1
loop_
_geom_bond_atom_site_label_1
_geom_bond_atom_site_label_2
_geom_bond_distance
_geom_bond_site_symmetry_2
Ba0 O3 2.751377 1_566
Ba0 O1 2.764787 1_555
Ba0 O13 2.776748 1_456
Ba0 O9 2.800424 1_456
Ba0 O2 2.934371 1_455
Ba0 O13 2.955135 1_556
Ba0 O11 2.977043 1_556
Ba0 O5 3.340342 1_455
Ba0 O12 3.484157 1_565
Ba1 O12 2.645491 1_554
Ba1 O4 2.651758 1_655
Ba1 O2 2.687616 1_544
Ba1 O8 2.792642 1_654
Ba1 O13 2.820973 1_545
Ba1 O3 2.960456 1_555
Ba1 O12 3.097932 1_654
Ba1 O0 3.334768 1_555
Mg0 O5 2.019243 1_555
Mg0 O10 2.050787 1_555
Mg0 O0 2.152279 1_555
Mn0 O11 2.163046 1_555
Mn0 O9 2.170253 1_455
Mn0 O1 2.208365 1_555
Mn0 O5 2.395385 1_455
Mn1 O8 2.106714 1_655
Mn1 O4 2.158872 1_655
Mn1 O0 2.218301 1_555
Mn1 O10 2.585990 1_555
O0 P3 1.576208 1_555
O1 P2 1.542416 1_555
O2 P2 1.505661 1_555
O3 P3 1.507574 1_555
O4 P3 1.540179 1_555
O5 P2 1.577688 1_555
O6 P2 1.619671 1_555
O6 P0 1.635878 1_555
O7 P3 1.628741 1_555
O7 P1 1.648224 1_555
O8 P1 1.546129 1_555
O9 P0 1.539545 1_555
O10 P1 1.550609 1_555
O11 P0 1.531280 1_555
O12 P1 1.515474 1_555
O13 P0 1.532083 1_555
