# generated using pymatgen
data_Ca2TiNb2O8
_symmetry_space_group_name_H-M   'P 1'
_cell_length_a   9.80526048
_cell_length_b   9.80526048
_cell_length_c   5.50689544
_cell_angle_alpha   88.42716313
_cell_angle_beta   88.42716313
_cell_angle_gamma   37.75701946
_symmetry_Int_Tables_number   1
_chemical_formula_structural   Ca2TiNb2O8
_chemical_formula_sum   'Ca4 Ti2 Nb4 O16'
_cell_volume   324.05340746
_cell_formula_units_Z   2
loop_
 _symmetry_equiv_pos_site_id
 _symmetry_equiv_pos_as_xyz
  1  'x, y, z'
loop_
 _atom_site_type_symbol
 _atom_site_label
 _atom_site_symmetry_multiplicity
 _atom_site_fract_x
 _atom_site_fract_y
 _atom_site_fract_z
 _atom_site_occupancy
  Ca  Ca0  1  0.88542300  0.52493100  0.76020500  1
  Ca  Ca1  1  0.47506900  0.11457700  0.73979500  1
  Ca  Ca2  1  0.11457700  0.47506900  0.23979500  1
  Ca  Ca3  1  0.52493100  0.88542300  0.26020500  1
  Ti  Ti0  1  0.62321200  0.37678800  0.75000000  1
  Ti  Ti1  1  0.37678800  0.62321200  0.25000000  1
  Nb  Nb0  1  0.03498800  0.74684200  0.75859000  1
  Nb  Nb1  1  0.25315800  0.96501200  0.74141000  1
  Nb  Nb2  1  0.96501200  0.25315800  0.24141000  1
  Nb  Nb3  1  0.74684200  0.03498800  0.25859000  1
  O  O0  1  0.08118100  0.78631500  0.10657700  1
  O  O1  1  0.21368500  0.91881900  0.39342300  1
  O  O2  1  0.91881900  0.21368500  0.89342300  1
  O  O3  1  0.78631500  0.08118100  0.60657700  1
  O  O4  1  0.31769800  0.57441800  0.58126800  1
  O  O5  1  0.42558200  0.68230200  0.91873200  1
  O  O6  1  0.68230200  0.42558200  0.41873200  1
  O  O7  1  0.57441800  0.31769800  0.08126800  1
  O  O8  1  0.88051800  0.76459400  0.48933100  1
  O  O9  1  0.23540600  0.11948200  0.01066900  1
  O  O10  1  0.46982100  0.16002000  0.33643400  1
  O  O11  1  0.83998000  0.53017900  0.16356600  1
  O  O12  1  0.53017900  0.83998000  0.66356600  1
  O  O13  1  0.16002000  0.46982100  0.83643400  1
  O  O14  1  0.76459400  0.88051800  0.98933100  1
  O  O15  1  0.11948200  0.23540600  0.51066900  1
loop_
_geom_bond_atom_site_label_1
_geom_bond_atom_site_label_2
_geom_bond_distance
_geom_bond_site_symmetry_2
Ca0 O15 2.225654 1_655
Ca0 O12 2.226241 1_555
Ca0 O11 2.247421 1_556
Ca0 O13 2.338108 1_655
Ca1 O14 2.225654 1_545
Ca1 O13 2.226241 1_555
Ca1 O10 2.247421 1_555
Ca1 O12 2.338108 1_545
Ca2 O8 2.225654 1_455
Ca2 O10 2.226241 1_555
Ca2 O13 2.247421 1_554
Ca2 O11 2.338108 1_455
Ca3 O9 2.225654 1_565
Ca3 O11 2.226241 1_555
Ca3 O12 2.247421 1_555
Ca3 O10 2.338108 1_565
Nb0 O13 1.940154 1_555
Nb0 O4 2.006881 1_555
Nb0 O8 2.053108 1_455
Nb0 O0 2.095907 1_556
Nb0 O3 2.171440 1_465
Nb0 O14 2.184823 1_455
Nb1 O12 1.940154 1_555
Nb1 O5 2.006881 1_555
Nb1 O9 2.053108 1_566
Nb1 O1 2.095907 1_555
Nb1 O2 2.171440 1_465
Nb1 O15 2.184823 1_565
Nb2 O11 1.940154 1_555
Nb2 O6 2.006881 1_555
Nb2 O15 2.053108 1_655
Nb2 O2 2.095907 1_554
Nb2 O1 2.171440 1_645
Nb2 O9 2.184823 1_655
Nb3 O10 1.940154 1_555
Nb3 O7 2.006881 1_555
Nb3 O14 2.053108 1_544
Nb3 O3 2.095907 1_555
Nb3 O0 2.171440 1_645
Nb3 O8 2.184823 1_545
O0 Ti1 2.075900 1_555
O1 Ti1 2.075900 1_555
O2 Ti0 2.075900 1_555
O3 Ti0 2.075900 1_555
O4 Ti1 2.055457 1_555
O4 Ti0 2.113604 1_555
O5 Ti1 2.055457 1_556
O5 Ti0 2.113604 1_555
O6 Ti0 2.055457 1_555
O6 Ti1 2.113604 1_555
O7 Ti0 2.055457 1_554
O7 Ti1 2.113604 1_555
