# generated using pymatgen
data_Na3GdTi2Nb2O12
_symmetry_space_group_name_H-M   'P 1'
_cell_length_a   5.41770198
_cell_length_b   5.52670858
_cell_length_c   7.73739208
_cell_angle_alpha   89.99305387
_cell_angle_beta   89.94113355
_cell_angle_gamma   89.62733593
_symmetry_Int_Tables_number   1
_chemical_formula_structural   Na3GdTi2Nb2O12
_chemical_formula_sum   'Na3 Gd1 Ti2 Nb2 O12'
_cell_volume   231.66843384
_cell_formula_units_Z   1
loop_
 _symmetry_equiv_pos_site_id
 _symmetry_equiv_pos_as_xyz
  1  'x, y, z'
loop_
 _atom_site_type_symbol
 _atom_site_label
 _atom_site_symmetry_multiplicity
 _atom_site_fract_x
 _atom_site_fract_y
 _atom_site_fract_z
 _atom_site_occupancy
  Na  Na0  1  0.49951353  0.52547506  0.74856268  1
  Na  Na1  1  0.99703375  0.00949716  0.75202189  1
  Na  Na2  1  0.51004063  0.46053413  0.25037812  1
  Gd  Gd0  1  0.99130695  0.94254842  0.25027914  1
  Ti  Ti0  1  0.49389484  0.98564917  0.00577026  1
  Ti  Ti1  1  0.00733268  0.48182873  0.49684183  1
  Nb  Nb0  1  0.49591197  0.99363927  0.51169072  1
  Nb  Nb1  1  0.00641064  0.48193078  0.98776701  1
  O  O0  1  0.56741842  0.97772233  0.75424245  1
  O  O1  1  0.92205316  0.49743542  0.74557829  1
  O  O2  1  0.41137468  0.03205914  0.24691636  1
  O  O3  1  0.07582666  0.52327593  0.25235872  1
  O  O4  1  0.20106192  0.80677903  0.97771812  1
  O  O5  1  0.29348929  0.30447975  0.53845363  1
  O  O6  1  0.80191392  0.21192263  0.45400161  1
  O  O7  1  0.71398293  0.72925398  0.05159975  1
  O  O8  1  0.79775786  0.20714772  0.04578363  1
  O  O9  1  0.71814077  0.72680329  0.44819771  1
  O  O10  1  0.19661664  0.80442446  0.52377652  1
  O  O11  1  0.29891877  0.29759260  0.95806156  1
loop_
_geom_bond_atom_site_label_1
_geom_bond_atom_site_label_2
_geom_bond_distance
_geom_bond_site_symmetry_2
Na0 O1 2.293520 1_555
Na0 O5 2.324316 1_555
Na0 O11 2.325616 1_555
Na0 O0 2.529128 1_555
Na0 O9 2.837786 1_555
Na0 O10 2.840242 1_555
Na0 O4 2.852599 1_555
Na0 O7 2.852968 1_556
Na1 O0 2.335327 1_545
Na1 O4 2.348189 1_645
Na1 O10 2.356517 1_645
Na1 O1 2.724961 1_555
Na1 O8 2.739587 1_556
Na1 O6 2.770420 1_555
Na1 O11 2.791317 1_655
Na1 O5 2.827718 1_655
Na1 O1 2.862084 1_545
Na2 O3 2.375663 1_555
Na2 O9 2.409378 1_555
Na2 O7 2.410240 1_555
Na2 O2 2.431184 1_555
Na2 O6 2.616662 1_555
Na2 O8 2.619905 1_555
Na2 O5 2.663800 1_555
Na2 O11 2.693330 1_554
Gd0 O2 2.332209 1_665
Gd0 O3 2.359139 1_655
Gd0 O8 2.392594 1_565
Gd0 O6 2.394003 1_565
Gd0 O9 2.444358 1_555
Gd0 O7 2.457312 1_555
Gd0 O4 2.507248 1_654
Gd0 O10 2.508282 1_655
Nb0 O0 1.918567 1_555
Nb0 O10 1.937335 1_555
Nb0 O9 1.959991 1_555
Nb0 O5 2.042531 1_565
Nb0 O6 2.104132 1_565
Nb0 O2 2.110077 1_565
Nb1 O11 1.892194 1_555
Nb1 O1 1.931052 1_455
Nb1 O8 1.951093 1_456
Nb1 O4 2.089456 1_555
Nb1 O3 2.094682 1_556
Nb1 O7 2.143048 1_456
O0 Ti0 1.986545 1_556
O1 Ti1 1.980548 1_655
O2 Ti0 1.934926 1_545
O3 Ti1 1.941163 1_555
O4 Ti0 1.887446 1_556
O5 Ti1 1.857153 1_555
O6 Ti1 1.896321 1_655
O7 Ti0 1.879949 1_555
O8 Ti0 2.081315 1_545
O9 Ti1 2.098316 1_655
O10 Ti1 2.073178 1_555
O11 Ti0 2.049704 1_546
