# generated using pymatgen
data_Tl8SnTe6Pb
_symmetry_space_group_name_H-M   'P 1'
_cell_length_a   9.21899781
_cell_length_b   9.21899781
_cell_length_c   9.21899781
_cell_angle_alpha   121.90842472
_cell_angle_beta   121.90842472
_cell_angle_gamma   86.72511998
_symmetry_Int_Tables_number   1
_chemical_formula_structural   Tl8SnTe6Pb
_chemical_formula_sum   'Tl8 Sn1 Te6 Pb1'
_cell_volume   537.09745281
_cell_formula_units_Z   1
loop_
 _symmetry_equiv_pos_site_id
 _symmetry_equiv_pos_as_xyz
  1  'x, y, z'
loop_
 _atom_site_type_symbol
 _atom_site_label
 _atom_site_symmetry_multiplicity
 _atom_site_fract_x
 _atom_site_fract_y
 _atom_site_fract_z
 _atom_site_occupancy
  Tl  Tl0  1  0.51191700  0.30428300  0.49927200  1
  Tl  Tl1  1  0.80501100  0.01264500  0.50072800  1
  Tl  Tl2  1  0.01264500  0.51191700  0.20763400  1
  Tl  Tl3  1  0.30428300  0.80501100  0.79236600  1
  Tl  Tl4  1  0.48808300  0.69571700  0.50072800  1
  Tl  Tl5  1  0.19499000  0.98735500  0.49927200  1
  Tl  Tl6  1  0.98735500  0.48808300  0.79236600  1
  Tl  Tl7  1  0.69571700  0.19499000  0.20763400  1
  Sn  Sn0  1  0.00000000  0.00000000  0.00000000  1
  Te  Te0  1  0.16208100  0.33214700  0.49422900  1
  Te  Te1  1  0.83791900  0.66785300  0.50577100  1
  Te  Te2  1  0.66785300  0.16208100  0.82993400  1
  Te  Te3  1  0.33214700  0.83791900  0.17006600  1
  Te  Te4  1  0.75283100  0.75283100  0.00000000  1
  Te  Te5  1  0.24716900  0.24716900  0.00000000  1
  Pb  Pb0  1  0.50000000  0.50000000  0.00000000  1
loop_
_geom_bond_atom_site_label_1
_geom_bond_atom_site_label_2
_geom_bond_distance
_geom_bond_site_symmetry_2
Sn0 Te3 3.308437 1_545
Sn0 Te2 3.308437 1_454
Sn0 Te0 3.308443 1_555
Sn0 Te1 3.308443 1_444
Sn0 Te5 3.313265 1_555
Sn0 Te4 3.313265 1_445
Te0 Tl5 3.198291 1_545
Te0 Tl0 3.198300 1_555
Te0 Tl7 3.485041 1_455
Te0 Tl2 3.485049 1_555
Te0 Tl6 3.529082 1_455
Te0 Tl3 3.529090 1_555
Te1 Tl1 3.198291 1_565
Te1 Tl4 3.198300 1_555
Te1 Tl3 3.485041 1_655
Te1 Tl6 3.485049 1_555
Te1 Tl2 3.529082 1_655
Te1 Tl7 3.529082 1_555
Te2 Tl7 3.198291 1_556
Te2 Tl2 3.198295 1_656
Te2 Tl1 3.485042 1_555
Te2 Tl4 3.485042 1_545
Te2 Tl5 3.529082 1_545
Te2 Tl0 3.529089 1_555
Te3 Tl6 3.198295 1_454
Te3 Tl3 3.198295 1_554
Te3 Tl5 3.485034 1_555
Te3 Tl0 3.485042 1_565
Te3 Tl1 3.529089 1_565
Te3 Tl4 3.529089 1_555
Pb0 Te0 3.377611 1_554
Pb0 Te1 3.377611 1_555
Pb0 Te2 3.377617 1_554
Pb0 Te3 3.377617 1_555
Pb0 Te4 3.389163 1_555
Pb0 Te5 3.389163 1_555
