# generated using pymatgen
data_Mn2FeGe5
_symmetry_space_group_name_H-M   'P 1'
_cell_length_a   5.68943000
_cell_length_b   5.68943000
_cell_length_c   13.69739100
_cell_angle_alpha   90.00000000
_cell_angle_beta   90.00000000
_cell_angle_gamma   90.00000000
_symmetry_Int_Tables_number   1
_chemical_formula_structural   Mn2FeGe5
_chemical_formula_sum   'Mn8 Fe4 Ge20'
_cell_volume   443.37925571
_cell_formula_units_Z   4
loop_
 _symmetry_equiv_pos_site_id
 _symmetry_equiv_pos_as_xyz
  1  'x, y, z'
loop_
 _atom_site_type_symbol
 _atom_site_label
 _atom_site_symmetry_multiplicity
 _atom_site_fract_x
 _atom_site_fract_y
 _atom_site_fract_z
 _atom_site_occupancy
  Mn  Mn0  1  0.50000000  0.00000000  0.75002100  1
  Mn  Mn1  1  0.00000000  0.50000000  0.24997900  1
  Mn  Mn2  1  0.00000000  0.00000000  0.00000000  1
  Mn  Mn3  1  0.50000000  0.50000000  0.50000000  1
  Mn  Mn4  1  0.00000000  0.00000000  0.32793300  1
  Mn  Mn5  1  0.00000000  0.00000000  0.67206700  1
  Mn  Mn6  1  0.50000000  0.50000000  0.82793700  1
  Mn  Mn7  1  0.50000000  0.50000000  0.17206300  1
  Fe  Fe0  1  0.50000000  0.00000000  0.08676200  1
  Fe  Fe1  1  0.00000000  0.50000000  0.91323800  1
  Fe  Fe2  1  0.00000000  0.50000000  0.58680700  1
  Fe  Fe3  1  0.50000000  0.00000000  0.41319300  1
  Ge  Ge0  1  0.67531100  0.17532400  0.25001700  1
  Ge  Ge1  1  0.82467600  0.67531100  0.74998300  1
  Ge  Ge2  1  0.32468900  0.82467600  0.25001700  1
  Ge  Ge3  1  0.17532400  0.32468900  0.74998300  1
  Ge  Ge4  1  0.15900900  0.19661400  0.15170300  1
  Ge  Ge5  1  0.80338600  0.15900900  0.84829700  1
  Ge  Ge6  1  0.84099100  0.80338600  0.15170300  1
  Ge  Ge7  1  0.19661400  0.84099100  0.84829700  1
  Ge  Ge8  1  0.34110900  0.69662600  0.65177000  1
  Ge  Ge9  1  0.69662600  0.65889100  0.34823000  1
  Ge  Ge10  1  0.65889100  0.30337400  0.65177000  1
  Ge  Ge11  1  0.30337400  0.34110900  0.34823000  1
  Ge  Ge12  1  0.34373900  0.23078500  0.94823300  1
  Ge  Ge13  1  0.76921500  0.34373900  0.05176700  1
  Ge  Ge14  1  0.65626100  0.76921500  0.94823300  1
  Ge  Ge15  1  0.23078500  0.65626100  0.05176700  1
  Ge  Ge16  1  0.15608500  0.73098900  0.44820800  1
  Ge  Ge17  1  0.73098900  0.84391500  0.55179200  1
  Ge  Ge18  1  0.84391500  0.26901100  0.44820800  1
  Ge  Ge19  1  0.26901100  0.15608500  0.55179200  1
loop_
_geom_bond_atom_site_label_1
_geom_bond_atom_site_label_2
_geom_bond_distance
_geom_bond_site_symmetry_2
Fe0 Ge6 2.409634 1_545
Fe0 Ge4 2.409634 1_555
Fe0 Ge14 2.472832 1_544
Fe0 Ge12 2.472832 1_554
Fe0 Ge13 2.529919 1_555
Fe0 Ge15 2.529919 1_545
Fe0 Ge0 2.643915 1_555
Fe0 Ge2 2.643915 1_545
Fe1 Ge7 2.409634 1_555
Fe1 Ge5 2.409634 1_455
Fe1 Ge15 2.472832 1_556
Fe1 Ge13 2.472832 1_456
Fe1 Ge12 2.529919 1_555
Fe1 Ge14 2.529919 1_455
Fe1 Ge3 2.643915 1_555
Fe1 Ge1 2.643915 1_455
Fe2 Ge8 2.410318 1_555
Fe2 Ge10 2.410318 1_455
Fe2 Ge18 2.473825 1_455
Fe2 Ge16 2.473825 1_555
Fe2 Ge19 2.530043 1_555
Fe2 Ge17 2.530043 1_455
Fe2 Ge3 2.643000 1_555
Fe2 Ge1 2.643000 1_455
Fe3 Ge9 2.410318 1_545
Fe3 Ge11 2.410318 1_555
Fe3 Ge17 2.473825 1_545
Fe3 Ge19 2.473825 1_555
Fe3 Ge18 2.530043 1_555
Fe3 Ge16 2.530043 1_545
Fe3 Ge0 2.643000 1_555
Fe3 Ge2 2.643000 1_545
Ge0 Mn4 2.355102 1_655
Ge0 Mn7 2.355249 1_555
Ge0 Mn1 2.612418 1_655
Ge1 Mn5 2.355102 1_665
Ge1 Mn6 2.355249 1_555
Ge1 Mn0 2.612418 1_565
Ge2 Mn4 2.355102 1_565
Ge2 Mn7 2.355249 1_555
Ge2 Mn1 2.612418 1_555
Ge3 Mn5 2.355102 1_555
Ge3 Mn6 2.355249 1_555
Ge3 Mn0 2.612418 1_555
Ge4 Mn1 2.368518 1_555
Ge4 Mn2 2.527362 1_555
Ge4 Mn7 2.611694 1_555
Ge4 Mn4 2.810091 1_555
Ge5 Mn0 2.368518 1_555
Ge5 Mn2 2.527362 1_656
Ge5 Mn6 2.611694 1_555
Ge5 Mn5 2.810091 1_655
Ge6 Mn1 2.368518 1_655
Ge6 Mn2 2.527362 1_665
Ge6 Mn7 2.611694 1_555
Ge6 Mn4 2.810091 1_665
Ge7 Mn0 2.368518 1_565
Ge7 Mn2 2.527362 1_566
Ge7 Mn6 2.611694 1_555
Ge7 Mn5 2.810091 1_565
Ge8 Mn0 2.368018 1_565
Ge8 Mn3 2.527907 1_555
Ge8 Mn5 2.612055 1_565
Ge8 Mn6 2.809161 1_555
Ge9 Mn1 2.368018 1_655
Ge9 Mn3 2.527907 1_555
Ge9 Mn4 2.612055 1_665
Ge9 Mn7 2.809161 1_555
Ge10 Mn0 2.368018 1_555
Ge10 Mn3 2.527907 1_555
Ge10 Mn5 2.612055 1_655
Ge10 Mn6 2.809161 1_555
Ge11 Mn1 2.368018 1_555
Ge11 Mn3 2.527907 1_555
Ge11 Mn4 2.612055 1_555
Ge11 Mn7 2.809161 1_555
Ge12 Mn6 2.418983 1_555
Ge12 Mn2 2.459985 1_556
Ge13 Mn7 2.418983 1_555
Ge13 Mn2 2.459985 1_655
Ge14 Mn6 2.418983 1_555
Ge14 Mn2 2.459985 1_666
Ge15 Mn7 2.418983 1_555
Ge15 Mn2 2.459985 1_565
Ge16 Mn4 2.417685 1_565
Ge16 Mn3 2.461499 1_555
Ge17 Mn5 2.417685 1_665
Ge17 Mn3 2.461499 1_555
Ge18 Mn4 2.417685 1_655
Ge18 Mn3 2.461499 1_555
Ge19 Mn5 2.417685 1_555
Ge19 Mn3 2.461499 1_555
