# generated using pymatgen
data_La4Cu3SeO12
_symmetry_space_group_name_H-M   'P 1'
_cell_length_a   6.77826652
_cell_length_b   6.77826652
_cell_length_c   6.77826652
_cell_angle_alpha   109.47122063
_cell_angle_beta   109.47122063
_cell_angle_gamma   109.47122063
_symmetry_Int_Tables_number   1
_chemical_formula_structural   La4Cu3SeO12
_chemical_formula_sum   'La4 Cu3 Se1 O12'
_cell_volume   239.73642948
_cell_formula_units_Z   1
loop_
 _symmetry_equiv_pos_site_id
 _symmetry_equiv_pos_as_xyz
  1  'x, y, z'
loop_
 _atom_site_type_symbol
 _atom_site_label
 _atom_site_symmetry_multiplicity
 _atom_site_fract_x
 _atom_site_fract_y
 _atom_site_fract_z
 _atom_site_occupancy
  La  La0  1  0.50000000  0.50000000  0.50000000  1
  La  La1  1  0.00000000  0.50000000  0.00000000  1
  La  La2  1  0.50000000  0.00000000  0.00000000  1
  La  La3  1  0.00000000  0.00000000  0.50000000  1
  Cu  Cu0  1  0.50000000  0.50000000  0.00000000  1
  Cu  Cu1  1  0.00000000  0.50000000  0.50000000  1
  Cu  Cu2  1  0.50000000  0.00000000  0.50000000  1
  Se  Se0  1  0.00000000  0.00000000  0.00000000  1
  O  O0  1  0.25000000  0.50000000  0.75000000  1
  O  O1  1  0.23329900  0.23329900  0.00000000  1
  O  O2  1  0.00000000  0.76670100  0.76670100  1
  O  O3  1  0.00000000  0.23329900  0.23329900  1
  O  O4  1  0.23329900  0.00000000  0.23329900  1
  O  O5  1  0.76670100  0.76670100  0.00000000  1
  O  O6  1  0.76670100  0.00000000  0.76670100  1
  O  O7  1  0.75000000  0.50000000  0.25000000  1
  O  O8  1  0.50000000  0.75000000  0.25000000  1
  O  O9  1  0.50000000  0.25000000  0.75000000  1
  O  O10  1  0.75000000  0.25000000  0.50000000  1
  O  O11  1  0.25000000  0.75000000  0.50000000  1
loop_
_geom_bond_atom_site_label_1
_geom_bond_atom_site_label_2
_geom_bond_distance
_geom_bond_site_symmetry_2
La0 O10 2.767216 1_555
La0 O0 2.767216 1_555
La0 O9 2.767216 1_555
La0 O7 2.767216 1_555
La0 O8 2.767216 1_555
La0 O11 2.767216 1_555
La0 O3 2.770301 1_555
La0 O6 2.770301 1_565
La0 O2 2.770301 1_655
La0 O4 2.770301 1_555
La0 O1 2.770301 1_555
La0 O5 2.770301 1_556
La1 O9 2.767216 1_454
La1 O0 2.767216 1_554
La1 O7 2.767216 1_455
La1 O8 2.767216 1_555
La1 O10 2.767216 1_454
La1 O11 2.767216 1_555
La1 O1 2.770301 1_555
La1 O3 2.770301 1_555
La1 O5 2.770301 1_455
La1 O6 2.770301 1_454
La1 O4 2.770301 1_565
La1 O2 2.770301 1_554
La2 O10 2.767216 1_555
La2 O11 2.767216 1_544
La2 O8 2.767216 1_545
La2 O7 2.767216 1_555
La2 O0 2.767216 1_544
La2 O9 2.767216 1_554
La2 O2 2.770301 1_544
La2 O6 2.770301 1_554
La2 O3 2.770301 1_655
La2 O5 2.770301 1_545
La2 O4 2.770301 1_555
La2 O1 2.770301 1_555
La3 O8 2.767216 1_445
La3 O10 2.767216 1_455
La3 O11 2.767216 1_545
La3 O0 2.767216 1_555
La3 O9 2.767216 1_555
La3 O7 2.767216 1_445
La3 O3 2.770301 1_555
La3 O4 2.770301 1_555
La3 O5 2.770301 1_445
La3 O2 2.770301 1_545
La3 O1 2.770301 1_556
La3 O6 2.770301 1_455
Cu0 O0 1.956717 1_554
Cu0 O7 1.956717 1_555
Cu0 O9 1.956717 1_554
Cu0 O8 1.956717 1_555
Cu0 O5 2.087434 1_555
Cu0 O1 2.087434 1_555
Cu1 O11 1.956717 1_555
Cu1 O10 1.956717 1_455
Cu1 O0 1.956717 1_555
Cu1 O7 1.956717 1_455
Cu1 O2 2.087434 1_555
Cu1 O3 2.087434 1_555
Cu2 O9 1.956717 1_555
Cu2 O11 1.956717 1_545
Cu2 O8 1.956717 1_545
Cu2 O10 1.956717 1_555
Cu2 O6 2.087434 1_555
Cu2 O4 2.087434 1_555
O1 Se0 1.826000 1_555
O2 Se0 1.826000 1_566
O3 Se0 1.826000 1_555
O4 Se0 1.826000 1_555
O5 Se0 1.826000 1_665
O6 Se0 1.826000 1_656
