# generated using pymatgen
data_K2SnS3
_symmetry_space_group_name_H-M   'P 1'
_cell_length_a   6.77196448
_cell_length_b   7.48520289
_cell_length_c   8.26016899
_cell_angle_alpha   75.60239185
_cell_angle_beta   73.06158312
_cell_angle_gamma   66.94456496
_symmetry_Int_Tables_number   1
_chemical_formula_structural   K2SnS3
_chemical_formula_sum   'K4 Sn2 S6'
_cell_volume   364.21596580
_cell_formula_units_Z   2
loop_
 _symmetry_equiv_pos_site_id
 _symmetry_equiv_pos_as_xyz
  1  'x, y, z'
loop_
 _atom_site_type_symbol
 _atom_site_label
 _atom_site_symmetry_multiplicity
 _atom_site_fract_x
 _atom_site_fract_y
 _atom_site_fract_z
 _atom_site_occupancy
  K  K0  1  0.14873786  0.46074109  0.19306955  1
  K  K1  1  0.85126214  0.53925891  0.80693045  1
  K  K2  1  0.58885805  0.20838437  0.62491273  1
  K  K3  1  0.41114195  0.79161563  0.37508727  1
  Sn  Sn0  1  0.85363099  0.06488434  0.19375004  1
  Sn  Sn1  1  0.14636901  0.93511566  0.80624996  1
  S  S0  1  0.13423091  0.18211285  0.56714404  1
  S  S1  1  0.86576909  0.81788715  0.43285596  1
  S  S2  1  0.65517778  0.39563440  0.22011090  1
  S  S3  1  0.34482222  0.60436560  0.77988910  1
  S  S4  1  0.22696031  0.04681557  0.03159606  1
  S  S5  1  0.77303969  0.95318443  0.96840394  1
loop_
_geom_bond_atom_site_label_1
_geom_bond_atom_site_label_2
_geom_bond_distance
_geom_bond_site_symmetry_2
K0 S0 3.268912 1_555
K0 S2 3.336563 1_555
K0 S1 3.339303 1_455
K0 S3 3.349615 1_554
K0 S4 3.466570 1_555
K0 S2 3.499354 1_455
K1 S1 3.268912 1_555
K1 S3 3.336563 1_555
K1 S0 3.339303 1_655
K1 S2 3.349615 1_556
K1 S5 3.466570 1_555
K1 S3 3.499354 1_655
K2 S3 3.157967 1_555
K2 S2 3.260998 1_555
K2 S5 3.279561 1_545
K2 S1 3.294890 1_545
K2 S0 3.334931 1_555
K2 S0 3.515304 1_655
K3 S2 3.157967 1_555
K3 S3 3.260998 1_555
K3 S4 3.279561 1_565
K3 S0 3.294890 1_565
K3 S1 3.334931 1_555
K3 S1 3.515304 1_455
S0 Sn1 2.342097 1_545
S1 Sn0 2.342097 1_565
S2 Sn0 2.339734 1_555
S3 Sn1 2.339734 1_555
S4 Sn0 2.460309 1_455
S4 Sn1 2.486966 1_544
S5 Sn1 2.460309 1_655
S5 Sn0 2.486966 1_566
