# generated using pymatgen
data_Ba2Pr3(CoO3)5
_symmetry_space_group_name_H-M   'P 1'
_cell_length_a   8.68442900
_cell_length_b   8.77030930
_cell_length_c   8.83964247
_cell_angle_alpha   89.27408731
_cell_angle_beta   114.27244630
_cell_angle_gamma   101.79328190
_symmetry_Int_Tables_number   1
_chemical_formula_structural   Ba2Pr3(CoO3)5
_chemical_formula_sum   'Ba4 Pr6 Co10 O30'
_cell_volume   598.87698533
_cell_formula_units_Z   2
loop_
 _symmetry_equiv_pos_site_id
 _symmetry_equiv_pos_as_xyz
  1  'x, y, z'
loop_
 _atom_site_type_symbol
 _atom_site_label
 _atom_site_symmetry_multiplicity
 _atom_site_fract_x
 _atom_site_fract_y
 _atom_site_fract_z
 _atom_site_occupancy
  Ba  Ba0  1  0.00153200  0.80187400  0.59917700  1
  Ba  Ba1  1  0.00057200  0.59860500  0.19862500  1
  Ba  Ba2  1  0.99942800  0.40139500  0.80137500  1
  Ba  Ba3  1  0.99846800  0.19812600  0.40082300  1
  Pr  Pr0  1  0.49798000  0.10333100  0.20377500  1
  Pr  Pr1  1  0.50000000  0.50000000  0.00000000  1
  Pr  Pr2  1  0.50194700  0.30253500  0.59806700  1
  Pr  Pr3  1  0.49805300  0.69746500  0.40193300  1
  Pr  Pr4  1  0.50202000  0.89666900  0.79622500  1
  Pr  Pr5  1  0.00000000  0.00000000  0.00000000  1
  Co  Co0  1  0.25390300  0.35022600  0.20216500  1
  Co  Co1  1  0.25052600  0.75029900  0.00116700  1
  Co  Co2  1  0.24901800  0.54924400  0.59954100  1
  Co  Co3  1  0.25044000  0.95062100  0.39951300  1
  Co  Co4  1  0.25486000  0.15133400  0.80251200  1
  Co  Co5  1  0.75098200  0.45075600  0.40045900  1
  Co  Co6  1  0.74514000  0.84866600  0.19748800  1
  Co  Co7  1  0.74609700  0.64977400  0.79783500  1
  Co  Co8  1  0.74956000  0.04937900  0.60048700  1
  Co  Co9  1  0.74947400  0.24970100  0.99883300  1
  O  O0  1  0.50544400  0.40010600  0.30191500  1
  O  O1  1  0.48899300  0.80194900  0.09437200  1
  O  O2  1  0.49455600  0.59989400  0.69808500  1
  O  O3  1  0.50000000  0.00000000  0.50000000  1
  O  O4  1  0.51100700  0.19805100  0.90562800  1
  O  O5  1  0.26629100  0.25086800  0.01390200  1
  O  O6  1  0.27016400  0.65514600  0.80889800  1
  O  O7  1  0.27252700  0.44750800  0.40746400  1
  O  O8  1  0.26433800  0.86421700  0.20106000  1
  O  O9  1  0.27411100  0.05495700  0.60691300  1
  O  O10  1  0.26436900  0.15300400  0.29554900  1
  O  O11  1  0.27267000  0.55013200  0.11272200  1
  O  O12  1  0.26993200  0.34550100  0.71517100  1
  O  O13  1  0.27257500  0.75437900  0.50340500  1
  O  O14  1  0.26114400  0.96735800  0.90868000  1
  O  O15  1  0.72983600  0.34485400  0.19110200  1
  O  O16  1  0.73370900  0.74913200  0.98609800  1
  O  O17  1  0.72747300  0.55249200  0.59253600  1
  O  O18  1  0.72588900  0.94504300  0.39308700  1
  O  O19  1  0.73566200  0.13578300  0.79894000  1
  O  O20  1  0.72742500  0.24562100  0.49659500  1
  O  O21  1  0.73006800  0.65449900  0.28482900  1
  O  O22  1  0.72733000  0.44986800  0.88727800  1
  O  O23  1  0.73563100  0.84699600  0.70445100  1
  O  O24  1  0.73885600  0.03264200  0.09132000  1
  O  O25  1  0.00000000  0.50000000  0.50000000  1
  O  O26  1  0.00800100  0.90618000  0.28641300  1
  O  O27  1  0.01148500  0.71786000  0.90845300  1
  O  O28  1  0.99199900  0.09382000  0.71358700  1
  O  O29  1  0.98851500  0.28214000  0.09154700  1
loop_
_geom_bond_atom_site_label_1
_geom_bond_atom_site_label_2
_geom_bond_distance
_geom_bond_site_symmetry_2
Ba0 O27 2.793788 1_555
Ba0 O28 2.794049 1_465
Ba0 O25 2.795173 1_555
Ba0 O6 2.854164 1_555
Ba0 O18 2.865493 1_455
Ba0 O17 2.865707 1_455
Ba0 O9 2.873672 1_565
Ba0 O14 2.892483 1_555
Ba0 O21 2.899899 1_455
Ba0 O13 2.911858 1_555
Ba0 O23 2.916262 1_455
Ba0 O26 2.919983 1_555
Ba1 O27 2.788113 1_554
Ba1 O25 2.792095 1_555
Ba1 O26 2.797098 1_555
Ba1 O15 2.867332 1_455
Ba1 O11 2.869710 1_555
Ba1 O13 2.871706 1_555
Ba1 O16 2.872541 1_454
Ba1 O21 2.879497 1_455
Ba1 O22 2.891964 1_454
Ba1 O7 2.893918 1_555
Ba1 O8 2.907522 1_555
Ba1 O29 2.911452 1_455
Ba2 O29 2.788113 1_556
Ba2 O25 2.792095 1_655
Ba2 O28 2.797098 1_555
Ba2 O6 2.867332 1_655
Ba2 O22 2.869710 1_555
Ba2 O20 2.871706 1_555
Ba2 O5 2.872541 1_656
Ba2 O12 2.879497 1_655
Ba2 O11 2.891964 1_656
Ba2 O17 2.893918 1_555
Ba2 O19 2.907522 1_555
Ba2 O27 2.911452 1_655
Ba3 O29 2.793788 1_555
Ba3 O26 2.794049 1_645
Ba3 O25 2.795173 1_655
Ba3 O15 2.854164 1_555
Ba3 O9 2.865493 1_655
Ba3 O7 2.865707 1_655
Ba3 O18 2.873672 1_545
Ba3 O24 2.892483 1_555
Ba3 O12 2.899899 1_655
Ba3 O20 2.911858 1_555
Ba3 O10 2.916262 1_655
Ba3 O28 2.919983 1_555
Co0 O10 1.909957 1_555
Co0 O11 1.918213 1_555
Co0 O5 1.939758 1_555
Co0 O0 1.943294 1_555
Co0 O7 1.946534 1_555
Co0 O29 2.055228 1_455
Co1 O1 1.842832 1_555
Co1 O27 1.851444 1_554
Co1 O6 1.986589 1_554
Co1 O8 1.989045 1_555
Co1 O11 2.007358 1_555
Co1 O14 2.061956 1_554
Co2 O2 1.896987 1_555
Co2 O25 1.923776 1_555
Co2 O13 1.988598 1_555
Co2 O6 2.003915 1_555
Co2 O7 2.029405 1_555
Co2 O12 2.050478 1_555
Co3 O26 1.878346 1_555
Co3 O3 1.927962 1_565
Co3 O13 1.947459 1_555
Co3 O9 1.973955 1_565
Co3 O8 1.977717 1_555
Co3 O10 1.992985 1_565
Co4 O14 1.855457 1_545
Co4 O12 1.863265 1_555
Co4 O4 1.979130 1_555
Co4 O9 2.016033 1_555
Co4 O5 2.029038 1_556
Co4 O28 2.036559 1_455
Co5 O0 1.896987 1_555
Co5 O25 1.923776 1_655
Co5 O20 1.988598 1_555
Co5 O15 2.003915 1_555
Co5 O17 2.029405 1_555
Co5 O21 2.050478 1_555
Co6 O24 1.855457 1_565
Co6 O21 1.863265 1_555
Co6 O1 1.979130 1_555
Co6 O18 2.016033 1_555
Co6 O16 2.029038 1_554
Co6 O26 2.036559 1_655
Co7 O23 1.909957 1_555
Co7 O22 1.918213 1_555
Co7 O16 1.939758 1_555
Co7 O2 1.943294 1_555
Co7 O17 1.946534 1_555
Co7 O27 2.055228 1_655
Co8 O28 1.878346 1_555
Co8 O3 1.927962 1_555
Co8 O20 1.947459 1_555
Co8 O18 1.973955 1_545
Co8 O19 1.977717 1_555
Co8 O23 1.992985 1_545
Co9 O4 1.842832 1_555
Co9 O29 1.851444 1_556
Co9 O15 1.986589 1_556
Co9 O19 1.989045 1_555
Co9 O22 2.007358 1_555
Co9 O24 2.061956 1_556
O0 Pr0 2.733757 1_555
O0 Pr2 2.753989 1_555
O0 Pr1 2.783225 1_555
O0 Pr3 2.785785 1_555
O1 Pr4 2.792861 1_554
O1 Pr0 2.801126 1_565
O1 Pr1 2.818324 1_555
O1 Pr3 2.833349 1_555
O2 Pr4 2.733757 1_555
O2 Pr3 2.753989 1_555
O2 Pr1 2.783225 1_556
O2 Pr2 2.785785 1_555
O3 Pr4 2.754424 1_545
O3 Pr0 2.754424 1_555
O3 Pr3 2.796389 1_545
O3 Pr2 2.796389 1_555
O4 Pr0 2.792861 1_556
O4 Pr4 2.801126 1_545
O4 Pr1 2.818324 1_556
O4 Pr2 2.833349 1_555
O5 Pr0 2.602412 1_555
O5 Pr1 2.700759 1_555
O5 Pr5 2.810223 1_555
O6 Pr1 2.639865 1_556
O6 Pr4 2.643822 1_555
O7 Pr2 2.578039 1_555
O7 Pr3 2.639142 1_555
O8 Pr0 2.595642 1_565
O8 Pr5 2.748867 1_565
O8 Pr3 2.756057 1_555
O9 Pr4 2.643153 1_545
O9 Pr2 2.646228 1_555
O10 Pr0 2.585966 1_555
O10 Pr2 2.752192 1_555
O10 Pr5 2.792012 1_555
O11 Pr3 2.640542 1_555
O11 Pr1 2.658380 1_555
O12 Pr1 2.647874 1_556
O12 Pr2 2.703423 1_555
O13 Pr3 2.596724 1_555
O13 Pr4 2.655695 1_555
O14 Pr0 2.668736 1_566
O14 Pr5 2.766455 1_566
O14 Pr4 2.829098 1_555
O15 Pr1 2.639865 1_555
O15 Pr0 2.643822 1_555
O16 Pr4 2.602412 1_555
O16 Pr1 2.700759 1_556
O16 Pr5 2.810223 1_666
O17 Pr3 2.578039 1_555
O17 Pr2 2.639142 1_555
O18 Pr0 2.643153 1_565
O18 Pr3 2.646228 1_555
O19 Pr4 2.595642 1_545
O19 Pr5 2.748867 1_656
O19 Pr2 2.756057 1_555
O20 Pr2 2.596724 1_555
O20 Pr0 2.655695 1_555
O21 Pr1 2.647874 1_555
O21 Pr3 2.703423 1_555
O22 Pr2 2.640542 1_555
O22 Pr1 2.658380 1_556
O23 Pr4 2.585966 1_555
O23 Pr3 2.752192 1_555
O23 Pr5 2.792012 1_666
O24 Pr4 2.668736 1_544
O24 Pr5 2.766455 1_655
O24 Pr0 2.829098 1_555
O26 Pr5 2.630168 1_565
O27 Pr5 2.646834 1_566
O28 Pr5 2.630168 1_656
O29 Pr5 2.646834 1_655
