# generated using pymatgen
data_Co3PW2
_symmetry_space_group_name_H-M   'P 1'
_cell_length_a   4.71118026
_cell_length_b   4.71118422
_cell_length_c   7.25218927
_cell_angle_alpha   90.00000000
_cell_angle_beta   90.00000000
_cell_angle_gamma   120.00003452
_symmetry_Int_Tables_number   1
_chemical_formula_structural   Co3PW2
_chemical_formula_sum   'Co6 P2 W4'
_cell_volume   139.39892303
_cell_formula_units_Z   2
loop_
 _symmetry_equiv_pos_site_id
 _symmetry_equiv_pos_as_xyz
  1  'x, y, z'
loop_
 _atom_site_type_symbol
 _atom_site_label
 _atom_site_symmetry_multiplicity
 _atom_site_fract_x
 _atom_site_fract_y
 _atom_site_fract_z
 _atom_site_occupancy
  Co  Co0  1  0.83165131  0.16835023  0.25000000  1
  Co  Co1  1  0.83165131  0.66330108  0.25000000  1
  Co  Co2  1  0.33669916  0.16834958  0.25000000  1
  Co  Co3  1  0.16834869  0.83164977  0.75000000  1
  Co  Co4  1  0.16834869  0.33669892  0.75000000  1
  Co  Co5  1  0.66330084  0.83165042  0.75000000  1
  P  P0  1  0.00000000  0.00000000  0.50000000  1
  P  P1  1  0.00000000  0.00000000  -0.00000000  1
  W  W0  1  0.33333236  0.66666618  0.43445592  1
  W  W1  1  0.66666764  0.33333382  0.56554408  1
  W  W2  1  0.66666764  0.33333382  0.93445592  1
  W  W3  1  0.33333236  0.66666618  0.06554408  1
loop_
_geom_bond_atom_site_label_1
_geom_bond_atom_site_label_2
_geom_bond_distance
_geom_bond_site_symmetry_2
Co0 P1 2.274705 1_655
Co0 P0 2.274705 1_655
Co0 Co1 2.331805 1_555
Co0 Co2 2.331807 1_555
Co0 Co2 2.379373 1_655
Co0 Co1 2.379380 1_545
Co0 W1 2.655023 1_555
Co0 W2 2.655023 1_554
Co0 W3 2.708953 1_655
Co0 W0 2.708953 1_655
Co0 W3 2.708965 1_545
Co0 W0 2.708965 1_545
Co1 P0 2.274705 1_665
Co1 P1 2.274705 1_665
Co1 Co2 2.331807 1_555
Co1 Co2 2.379373 1_665
Co1 W2 2.655022 1_554
Co1 W1 2.655022 1_555
Co1 W0 2.708953 1_655
Co1 W3 2.708953 1_655
Co1 W3 2.708965 1_555
Co1 W0 2.708965 1_555
Co2 P0 2.274705 1_555
Co2 P1 2.274705 1_555
Co2 W2 2.655024 1_554
Co2 W1 2.655024 1_555
Co2 W0 2.708961 1_545
Co2 W3 2.708961 1_545
Co2 W0 2.708961 1_555
Co2 W3 2.708961 1_555
Co3 P1 2.274705 1_566
Co3 P0 2.274705 1_565
Co3 Co4 2.331805 1_555
Co3 Co5 2.331807 1_555
Co3 Co5 2.379373 1_455
Co3 Co4 2.379380 1_565
Co3 W0 2.655023 1_555
Co3 W3 2.655023 1_556
Co3 W1 2.708953 1_455
Co3 W2 2.708953 1_455
Co3 W1 2.708965 1_565
Co3 W2 2.708965 1_565
Co4 P0 2.274705 1_555
Co4 P1 2.274705 1_556
Co4 Co5 2.331807 1_555
Co4 Co5 2.379373 1_445
Co4 W0 2.655022 1_555
Co4 W3 2.655022 1_556
Co4 W2 2.708953 1_455
Co4 W1 2.708953 1_455
Co4 W1 2.708965 1_555
Co4 W2 2.708965 1_555
Co5 P1 2.274705 1_666
Co5 P0 2.274705 1_665
Co5 W0 2.655024 1_555
Co5 W3 2.655024 1_556
Co5 W1 2.708961 1_565
Co5 W2 2.708961 1_565
Co5 W1 2.708961 1_555
Co5 W2 2.708961 1_555
P0 W1 2.761222 1_445
P0 W0 2.761222 1_555
P0 W0 2.761223 1_545
P0 W1 2.761223 1_455
P0 W1 2.761226 1_555
P0 W0 2.761226 1_445
P1 W3 2.761222 1_555
P1 W2 2.761222 1_444
P1 W2 2.761223 1_454
P1 W3 2.761223 1_545
P1 W3 2.761226 1_445
P1 W2 2.761226 1_554
W0 W3 2.675418 1_555
W0 W1 2.881344 1_455
W0 W1 2.881357 1_565
W0 W1 2.881358 1_555
W1 W2 2.675418 1_555
W2 W3 2.881344 1_656
W2 W3 2.881357 1_546
W2 W3 2.881358 1_556
