# generated using pymatgen
data_CaGa4(WO6)2
_symmetry_space_group_name_H-M   'P 1'
_cell_length_a   4.84486200
_cell_length_b   4.84482300
_cell_length_c   9.20519400
_cell_angle_alpha   90.00099464
_cell_angle_beta   90.00097037
_cell_angle_gamma   89.99981078
_symmetry_Int_Tables_number   1
_chemical_formula_structural   CaGa4(WO6)2
_chemical_formula_sum   'Ca1 Ga4 W2 O12'
_cell_volume   216.06890554
_cell_formula_units_Z   1
loop_
 _symmetry_equiv_pos_site_id
 _symmetry_equiv_pos_as_xyz
  1  'x, y, z'
loop_
 _atom_site_type_symbol
 _atom_site_label
 _atom_site_symmetry_multiplicity
 _atom_site_fract_x
 _atom_site_fract_y
 _atom_site_fract_z
 _atom_site_occupancy
  Ca  Ca0  1  0.50000600  0.00000400  0.25001800  1
  Ga  Ga0  1  0.00000800  0.99999900  0.35336400  1
  Ga  Ga1  1  0.00001700  0.00002000  0.66948700  1
  Ga  Ga2  1  0.50001300  0.50000100  0.14663500  1
  Ga  Ga3  1  0.50003300  0.50002700  0.83049900  1
  W  W0  1  0.00003100  0.00003400  0.99162100  1
  W  W1  1  0.50001100  0.50001300  0.50838000  1
  O  O0  1  0.16487700  0.21526600  0.16171100  1
  O  O1  1  0.18822400  0.19768800  0.83183700  1
  O  O2  1  0.22256700  0.18150400  0.49748700  1
  O  O3  1  0.31852900  0.72257600  0.00251400  1
  O  O4  1  0.28477300  0.66483600  0.33828800  1
  O  O5  1  0.30234600  0.68820900  0.66816400  1
  O  O6  1  0.71524500  0.33519600  0.33827700  1
  O  O7  1  0.69769600  0.31182600  0.66816100  1
  O  O8  1  0.68153800  0.27749300  0.00250300  1
  O  O9  1  0.77745700  0.81852500  0.49749100  1
  O  O10  1  0.83520300  0.78482900  0.16172600  1
  O  O11  1  0.81182700  0.80235800  0.83183800  1
loop_
_geom_bond_atom_site_label_1
_geom_bond_atom_site_label_2
_geom_bond_distance
_geom_bond_site_symmetry_2
Ca0 O4 2.093923 1_545
Ca0 O6 2.093952 1_555
Ca0 O10 2.093957 1_545
Ca0 O0 2.093957 1_555
Ga0 O9 1.922462 1_455
Ga0 O2 1.922481 1_565
Ga0 O4 2.135278 1_555
Ga0 O6 2.135404 1_465
Ga0 O10 2.199108 1_455
Ga0 O0 2.199605 1_565
Ga1 O1 1.995470 1_555
Ga1 O11 1.995474 1_445
Ga1 O7 2.104172 1_455
Ga1 O5 2.104216 1_545
Ga1 O9 2.107715 1_445
Ga1 O2 2.107746 1_555
Ga2 O8 1.922459 1_555
Ga2 O3 1.922486 1_555
Ga2 O0 2.135098 1_555
Ga2 O10 2.135591 1_555
Ga2 O6 2.199302 1_555
Ga2 O4 2.199460 1_555
Ga3 O5 1.995377 1_555
Ga3 O7 1.995384 1_555
Ga3 O11 2.104172 1_555
Ga3 O1 2.104251 1_555
Ga3 O8 2.107749 1_556
Ga3 O3 2.107855 1_556
O0 W0 2.043664 1_554
O1 W0 1.977826 1_555
O2 W1 2.048924 1_555
O3 W0 2.048927 1_564
O4 W1 2.043669 1_555
O5 W1 1.977833 1_555
O6 W1 2.043732 1_555
O7 W1 1.977838 1_555
O8 W0 2.048907 1_654
O9 W1 2.048945 1_555
O10 W0 2.043717 1_664
O11 W0 1.977848 1_665
