# generated using pymatgen
data_Bi2Pd(SeO3)4
_symmetry_space_group_name_H-M   'P 1'
_cell_length_a   7.30977000
_cell_length_b   8.24846100
_cell_length_c   10.93339437
_cell_angle_alpha   70.20615036
_cell_angle_beta   90.00000000
_cell_angle_gamma   90.00000000
_symmetry_Int_Tables_number   1
_chemical_formula_structural   Bi2Pd(SeO3)4
_chemical_formula_sum   'Bi4 Pd2 Se8 O24'
_cell_volume   620.27320992
_cell_formula_units_Z   2
loop_
 _symmetry_equiv_pos_site_id
 _symmetry_equiv_pos_as_xyz
  1  'x, y, z'
loop_
 _atom_site_type_symbol
 _atom_site_label
 _atom_site_symmetry_multiplicity
 _atom_site_fract_x
 _atom_site_fract_y
 _atom_site_fract_z
 _atom_site_occupancy
  Bi  Bi0  1  0.62251100  0.75601200  0.09312400  1
  Bi  Bi1  1  0.12251100  0.74398800  0.90687600  1
  Bi  Bi2  1  0.37748900  0.24398800  0.90687600  1
  Bi  Bi3  1  0.87748900  0.25601200  0.09312400  1
  Pd  Pd0  1  0.50000000  0.50000000  0.50000000  1
  Pd  Pd1  1  0.00000000  0.00000000  0.50000000  1
  Se  Se0  1  0.67317200  0.63773000  0.81385800  1
  Se  Se1  1  0.17317200  0.86227000  0.18614200  1
  Se  Se2  1  0.32682800  0.36227000  0.18614200  1
  Se  Se3  1  0.82682800  0.13773000  0.81385800  1
  Se  Se4  1  0.33236400  0.11190600  0.63478100  1
  Se  Se5  1  0.83236400  0.38809400  0.36521900  1
  Se  Se6  1  0.66763600  0.88809400  0.36521900  1
  Se  Se7  1  0.16763600  0.61190600  0.63478100  1
  O  O0  1  0.40326200  0.30573600  0.65703200  1
  O  O1  1  0.90326200  0.19426400  0.34296800  1
  O  O2  1  0.59673800  0.69426400  0.34296800  1
  O  O3  1  0.09673800  0.80573600  0.65703200  1
  O  O4  1  0.61773100  0.43045400  0.82286900  1
  O  O5  1  0.11773100  0.06954600  0.17713100  1
  O  O6  1  0.38226900  0.56954600  0.17713100  1
  O  O7  1  0.88226900  0.93045400  0.82286900  1
  O  O8  1  0.85496100  0.58132900  0.92786300  1
  O  O9  1  0.35496100  0.91867100  0.07213700  1
  O  O10  1  0.14503900  0.41867100  0.07213700  1
  O  O11  1  0.64503900  0.08132900  0.92786300  1
  O  O12  1  0.12112400  0.18166300  0.56174100  1
  O  O13  1  0.62112400  0.31833700  0.43825900  1
  O  O14  1  0.87887600  0.81833700  0.43825900  1
  O  O15  1  0.37887600  0.68166300  0.56174100  1
  O  O16  1  0.51137500  0.69602800  0.90669400  1
  O  O17  1  0.01137500  0.80397200  0.09330600  1
  O  O18  1  0.48862500  0.30397200  0.09330600  1
  O  O19  1  0.98862500  0.19602800  0.90669400  1
  O  O20  1  0.28463900  0.01850400  0.79741400  1
  O  O21  1  0.78463900  0.48149600  0.20258600  1
  O  O22  1  0.71536100  0.98149600  0.20258600  1
  O  O23  1  0.21536100  0.51850400  0.79741400  1
loop_
_geom_bond_atom_site_label_1
_geom_bond_atom_site_label_2
_geom_bond_distance
_geom_bond_site_symmetry_2
Bi0 O6 2.310064 1_555
Bi0 O9 2.338620 1_555
Bi0 O16 2.396355 1_554
Bi0 O21 2.475612 1_555
Bi0 O2 2.610458 1_555
Bi0 O22 2.619107 1_555
Bi0 O11 2.684879 1_564
Bi0 O17 2.869996 1_655
Bi1 O7 2.310064 1_455
Bi1 O8 2.338620 1_455
Bi1 O17 2.396355 1_556
Bi1 O20 2.475612 1_565
Bi1 O3 2.610458 1_555
Bi1 O23 2.619107 1_555
Bi1 O10 2.684879 1_556
Bi1 O16 2.869996 1_555
Bi2 O4 2.310064 1_555
Bi2 O11 2.338620 1_555
Bi2 O18 2.396355 1_556
Bi2 O23 2.475612 1_555
Bi2 O0 2.610458 1_555
Bi2 O20 2.619107 1_555
Bi2 O9 2.684879 1_546
Bi2 O19 2.869996 1_455
Bi3 O5 2.310064 1_655
Bi3 O10 2.338620 1_655
Bi3 O19 2.396355 1_554
Bi3 O22 2.475612 1_545
Bi3 O1 2.610458 1_555
Bi3 O21 2.619107 1_555
Bi3 O8 2.684879 1_554
Bi3 O18 2.869996 1_555
O0 Se4 1.774078 1_555
O0 Pd0 2.037675 1_555
O1 Se5 1.774078 1_555
O1 Pd1 2.037675 1_655
O2 Se6 1.774078 1_555
O2 Pd0 2.037675 1_555
O3 Se7 1.774078 1_555
O3 Pd1 2.037675 1_565
O4 Se0 1.727126 1_555
O5 Se1 1.727126 1_545
O6 Se2 1.727126 1_555
O7 Se3 1.727126 1_565
O8 Se0 1.772897 1_555
O9 Se1 1.772897 1_555
O10 Se2 1.772897 1_555
O11 Se3 1.772897 1_555
O12 Se4 1.744100 1_555
O12 Pd1 2.042053 1_555
O13 Se5 1.744100 1_555
O13 Pd0 2.042053 1_555
O14 Se6 1.744100 1_555
O14 Pd1 2.042053 1_665
O15 Se7 1.744100 1_555
O15 Pd0 2.042053 1_555
O16 Se0 1.729402 1_555
O17 Se1 1.729402 1_555
O18 Se2 1.729402 1_555
O19 Se3 1.729402 1_555
O20 Se4 1.717323 1_555
O21 Se5 1.717323 1_555
O22 Se6 1.717323 1_555
O23 Se7 1.717323 1_555
