# generated using pymatgen
data_Mn(NiN)3
_symmetry_space_group_name_H-M   'P 1'
_cell_length_a   7.55491721
_cell_length_b   7.56822143
_cell_length_c   3.32901900
_cell_angle_alpha   90.00000000
_cell_angle_beta   90.00000000
_cell_angle_gamma   120.13060955
_symmetry_Int_Tables_number   1
_chemical_formula_structural   Mn(NiN)3
_chemical_formula_sum   'Mn2 Ni6 N6'
_cell_volume   164.62559609
_cell_formula_units_Z   2
loop_
 _symmetry_equiv_pos_site_id
 _symmetry_equiv_pos_as_xyz
  1  'x, y, z'
loop_
 _atom_site_type_symbol
 _atom_site_label
 _atom_site_symmetry_multiplicity
 _atom_site_fract_x
 _atom_site_fract_y
 _atom_site_fract_z
 _atom_site_occupancy
  Mn  Mn0  1  0.66608800  0.33334700  0.75000000  1
  Mn  Mn1  1  0.33391200  0.66665300  0.25000000  1
  Ni  Ni0  1  0.76123900  0.63939000  0.25000000  1
  Ni  Ni1  1  0.87777600  0.23912600  0.25000000  1
  Ni  Ni2  1  0.35985100  0.12100800  0.25000000  1
  Ni  Ni3  1  0.23876100  0.36061000  0.75000000  1
  Ni  Ni4  1  0.12222400  0.76087400  0.75000000  1
  Ni  Ni5  1  0.64014900  0.87899200  0.75000000  1
  N  N0  1  0.84170500  0.59772500  0.75000000  1
  N  N1  1  0.75535500  0.15865400  0.75000000  1
  N  N2  1  0.40119700  0.24336200  0.75000000  1
  N  N3  1  0.15829500  0.40227500  0.25000000  1
  N  N4  1  0.24464500  0.84134600  0.25000000  1
  N  N5  1  0.59880300  0.75663800  0.25000000  1
loop_
_geom_bond_atom_site_label_1
_geom_bond_atom_site_label_2
_geom_bond_distance
_geom_bond_site_symmetry_2
Mn0 N1 1.760105 1_555
Mn0 N0 1.760294 1_555
Mn0 N2 1.760809 1_555
Mn1 N4 1.760105 1_555
Mn1 N3 1.760294 1_555
Mn1 N5 1.760809 1_555
N0 Ni4 1.840897 1_655
N0 Ni0 1.852575 1_555
N0 Ni0 1.852575 1_556
N1 Ni5 1.840613 1_545
N1 Ni1 1.852407 1_555
N1 Ni1 1.852407 1_556
N2 Ni3 1.840287 1_555
N2 Ni2 1.853443 1_556
N2 Ni2 1.853443 1_555
N3 Ni1 1.840897 1_455
N3 Ni3 1.852575 1_554
N3 Ni3 1.852575 1_555
N4 Ni2 1.840613 1_565
N4 Ni4 1.852407 1_554
N4 Ni4 1.852407 1_555
N5 Ni0 1.840287 1_555
N5 Ni5 1.853443 1_555
N5 Ni5 1.853443 1_554
