# generated using pymatgen
data_Li3Ti(NiO3)2
_symmetry_space_group_name_H-M   'P 1'
_cell_length_a   5.85870533
_cell_length_b   5.89096436
_cell_length_c   6.64852054
_cell_angle_alpha   102.85004426
_cell_angle_beta   102.71291123
_cell_angle_gamma   90.05276019
_symmetry_Int_Tables_number   1
_chemical_formula_structural   Li3Ti(NiO3)2
_chemical_formula_sum   'Li6 Ti2 Ni4 O12'
_cell_volume   217.93184709
_cell_formula_units_Z   2
loop_
 _symmetry_equiv_pos_site_id
 _symmetry_equiv_pos_as_xyz
  1  'x, y, z'
loop_
 _atom_site_type_symbol
 _atom_site_label
 _atom_site_symmetry_multiplicity
 _atom_site_fract_x
 _atom_site_fract_y
 _atom_site_fract_z
 _atom_site_occupancy
  Li  Li0  1  0.83268800  0.83340700  0.33381500  1
  Li  Li1  1  0.33311000  0.83363800  0.33341200  1
  Li  Li2  1  0.99680000  0.50697700  0.99145600  1
  Li  Li3  1  0.50009000  0.50407100  0.98552900  1
  Li  Li4  1  0.16749400  0.16172400  0.68115100  1
  Li  Li5  1  0.66961900  0.15906200  0.67481300  1
  Ti  Ti0  1  0.83653400  0.33281700  0.33399600  1
  Ti  Ti1  1  0.33608100  0.33375500  0.33288600  1
  Ni  Ni0  1  0.99736800  0.99383300  0.99644000  1
  Ni  Ni1  1  0.16680000  0.67411500  0.67130800  1
  Ni  Ni2  1  0.49953400  0.99248600  0.99456100  1
  Ni  Ni3  1  0.66823900  0.67289800  0.67006900  1
  O  O0  1  0.76765100  0.23908000  0.02108000  1
  O  O1  1  0.24096800  0.23784300  0.01649600  1
  O  O2  1  0.89770000  0.42758100  0.64582000  1
  O  O3  1  0.42605300  0.42946400  0.65030300  1
  O  O4  1  0.90106500  0.90034700  0.66612600  1
  O  O5  1  0.43270700  0.89953900  0.66833900  1
  O  O6  1  0.23391400  0.76825000  0.99813900  1
  O  O7  1  0.76384000  0.76595000  0.00034500  1
  O  O8  1  0.08399200  0.55990600  0.33300200  1
  O  O9  1  0.57836600  0.55553800  0.31746400  1
  O  O10  1  0.08764000  0.11101900  0.34971800  1
  O  O11  1  0.58174800  0.10669400  0.33374100  1
loop_
_geom_bond_atom_site_label_1
_geom_bond_atom_site_label_2
_geom_bond_distance
_geom_bond_site_symmetry_2
Li0 O4 2.102369 1_555
Li0 O7 2.109570 1_555
Li0 O9 2.180933 1_555
Li0 O11 2.181213 1_565
Li0 O10 2.183095 1_665
Li0 O8 2.183497 1_655
Li1 O5 2.119642 1_555
Li1 O6 2.121880 1_554
Li1 O11 2.168447 1_565
Li1 O8 2.173117 1_555
Li1 O10 2.178126 1_565
Li1 O9 2.180356 1_555
Li2 O7 2.047677 1_556
Li2 O6 2.058946 1_655
Li2 O0 2.140678 1_556
Li2 O1 2.145813 1_656
Li2 O8 2.165368 1_656
Li2 O2 2.184197 1_555
Li3 O9 2.104572 1_556
Li3 O3 2.118282 1_555
Li3 O7 2.153708 1_556
Li3 O6 2.205641 1_555
Li3 O0 2.226107 1_556
Li3 O1 2.254678 1_556
Li4 O10 2.101648 1_555
Li4 O1 2.118914 1_556
Li4 O4 2.162377 1_445
Li4 O5 2.193460 1_545
Li4 O2 2.238577 1_455
Li4 O3 2.258468 1_555
Li5 O4 2.040575 1_545
Li5 O5 2.050920 1_545
Li5 O2 2.137768 1_555
Li5 O3 2.148849 1_555
Li5 O11 2.162650 1_555
Li5 O0 2.187893 1_556
Ni0 O6 1.920905 1_655
Ni0 O7 1.924187 1_556
Ni0 O0 1.980090 1_566
Ni0 O1 1.986984 1_666
Ni0 O4 2.088205 1_555
Ni0 O10 2.237050 1_666
Ni1 O4 2.049830 1_455
Ni1 O5 2.052371 1_555
Ni1 O6 2.066730 1_555
Ni1 O2 2.095777 1_455
Ni1 O3 2.100364 1_555
Ni1 O8 2.143151 1_555
Ni2 O7 2.044666 1_556
Ni2 O6 2.047859 1_555
Ni2 O5 2.062722 1_555
Ni2 O0 2.090168 1_566
Ni2 O1 2.100651 1_566
Ni2 O11 2.148577 1_566
Ni3 O4 1.919546 1_555
Ni3 O5 1.920966 1_555
Ni3 O2 1.979156 1_555
Ni3 O3 1.979249 1_555
Ni3 O7 2.087740 1_556
Ni3 O9 2.232959 1_555
O0 Ti0 1.978646 1_555
O1 Ti1 2.002357 1_555
O2 Ti0 1.973815 1_555
O3 Ti1 2.007470 1_555
O8 Ti0 1.973862 1_455
O8 Ti1 1.989932 1_555
O9 Ti1 1.962814 1_555
O9 Ti0 2.003974 1_555
O10 Ti0 1.969530 1_455
O10 Ti1 1.996572 1_555
O11 Ti1 1.965735 1_555
O11 Ti0 1.999217 1_555
