# generated using pymatgen
data_Li9Mn2Co5O16
_symmetry_space_group_name_H-M   'P 1'
_cell_length_a   5.01537300
_cell_length_b   5.10004197
_cell_length_c   11.72762110
_cell_angle_alpha   90.75937271
_cell_angle_beta   91.04592061
_cell_angle_gamma   108.32859395
_symmetry_Int_Tables_number   1
_chemical_formula_structural   Li9Mn2Co5O16
_chemical_formula_sum   'Li9 Mn2 Co5 O16'
_cell_volume   284.65362093
_cell_formula_units_Z   1
loop_
 _symmetry_equiv_pos_site_id
 _symmetry_equiv_pos_as_xyz
  1  'x, y, z'
loop_
 _atom_site_type_symbol
 _atom_site_label
 _atom_site_symmetry_multiplicity
 _atom_site_fract_x
 _atom_site_fract_y
 _atom_site_fract_z
 _atom_site_occupancy
  Li  Li0  1  0.00120200  0.50172500  0.12867800  1
  Li  Li1  1  0.50344600  0.49895400  0.24690200  1
  Li  Li2  1  0.01540100  0.51005700  0.37062600  1
  Li  Li3  1  0.51569200  0.51189900  0.48946700  1
  Li  Li4  1  0.99253000  0.49567800  0.62076300  1
  Li  Li5  1  0.48761900  0.49199900  0.75369600  1
  Li  Li6  1  0.99624000  0.49630200  0.88207800  1
  Li  Li7  1  0.50136100  0.50207100  0.01023600  1
  Li  Li8  1  0.50849000  0.00545700  0.12054800  1
  Mn  Mn0  1  0.00182900  0.00101500  0.00288000  1
  Mn  Mn1  1  0.98570300  0.98525200  0.75191400  1
  Co  Co0  1  0.00656100  0.01650100  0.24659100  1
  Co  Co1  1  0.50472400  0.01040200  0.36361400  1
  Co  Co2  1  0.00303700  0.00611100  0.49898300  1
  Co  Co3  1  0.48896200  0.98693600  0.62255600  1
  Co  Co4  1  0.49297700  0.99426900  0.87651200  1
  O  O0  1  0.25348200  0.78213500  0.98975300  1
  O  O1  1  0.78709000  0.77252500  0.11573300  1
  O  O2  1  0.26449200  0.77873000  0.25652300  1
  O  O3  1  0.77788600  0.78339400  0.38027100  1
  O  O4  1  0.24744300  0.77462000  0.50662800  1
  O  O5  1  0.74685200  0.75112200  0.63712500  1
  O  O6  1  0.23809800  0.76900300  0.75538500  1
  O  O7  1  0.75402800  0.77834700  0.87442900  1
  O  O8  1  0.76752900  0.24307600  0.25331500  1
  O  O9  1  0.26199800  0.25096300  0.37745900  1
  O  O10  1  0.74526300  0.21586400  0.50280900  1
  O  O11  1  0.21033500  0.21236700  0.63398600  1
  O  O12  1  0.72784600  0.20358800  0.75254500  1
  O  O13  1  0.23265700  0.21081800  0.87298700  1
  O  O14  1  0.74971100  0.21992700  0.98883300  1
  O  O15  1  0.22951700  0.23889100  0.11616900  1
loop_
_geom_bond_atom_site_label_1
_geom_bond_atom_site_label_2
_geom_bond_distance
_geom_bond_site_symmetry_2
Li0 O1 2.003992 1_455
Li0 O15 2.023829 1_555
Li0 O8 2.095582 1_455
Li0 O2 2.164668 1_555
Li0 O14 2.251242 1_454
Li0 O0 2.302084 1_554
Li1 O8 2.132818 1_555
Li1 O2 2.135676 1_555
Li1 O9 2.136852 1_555
Li1 O15 2.172663 1_555
Li1 O3 2.247401 1_555
Li1 O1 2.285873 1_555
Li2 O8 2.028678 1_455
Li2 O2 2.064450 1_555
Li2 O9 2.075846 1_555
Li2 O3 2.102447 1_455
Li2 O4 2.146276 1_555
Li2 O10 2.312945 1_455
Li3 O9 1.985732 1_555
Li3 O3 2.061486 1_555
Li3 O10 2.173160 1_555
Li3 O4 2.186847 1_555
Li3 O5 2.193724 1_555
Li3 O11 2.498723 1_555
Li4 O10 2.063979 1_555
Li4 O5 2.064914 1_555
Li4 O11 2.073041 1_655
Li4 O4 2.102160 1_655
Li4 O6 2.177964 1_655
Li4 O12 2.293923 1_555
Li5 O5 2.082778 1_555
Li5 O11 2.137083 1_555
Li5 O7 2.138154 1_555
Li5 O13 2.148021 1_555
Li5 O6 2.162035 1_555
Li5 O12 2.174861 1_555
Li6 O14 2.022420 1_555
Li6 O0 2.023128 1_655
Li6 O13 2.150222 1_655
Li6 O7 2.156686 1_555
Li6 O6 2.161675 1_655
Li6 O12 2.224786 1_555
Li7 O1 2.033162 1_555
Li7 O15 2.039349 1_555
Li7 O0 2.181379 1_554
Li7 O14 2.194103 1_554
Li7 O7 2.266724 1_554
Li7 O13 2.282946 1_554
Li8 O0 2.061981 1_544
Li8 O14 2.080123 1_554
Li8 O1 2.100458 1_545
Li8 O15 2.103388 1_555
Li8 O8 2.113477 1_555
Li8 O2 2.146560 1_545
Mn0 O15 1.889871 1_555
Mn0 O1 1.890264 1_445
Mn0 O0 1.936867 1_544
Mn0 O14 1.938465 1_454
Mn0 O7 2.025384 1_444
Mn0 O13 2.033276 1_554
Mn1 O5 1.916242 1_555
Mn1 O6 1.922951 1_655
Mn1 O11 1.949937 1_665
Mn1 O12 1.954051 1_565
Mn1 O7 1.964183 1_555
Mn1 O13 1.967216 1_665
Co0 O8 1.910759 1_455
Co0 O1 2.035026 1_445
Co0 O2 2.035281 1_545
Co0 O15 2.046229 1_555
Co0 O9 2.083922 1_555
Co0 O3 2.108097 1_445
Co1 O2 1.853411 1_545
Co1 O8 1.984419 1_555
Co1 O9 1.988673 1_555
Co1 O3 2.061374 1_545
Co1 O10 2.075073 1_555
Co1 O4 2.254032 1_545
Co2 O3 1.896725 1_445
Co2 O10 1.920535 1_455
Co2 O4 1.952797 1_545
Co2 O11 1.975374 1_555
Co2 O9 2.090957 1_555
Co2 O5 2.246699 1_445
Co3 O4 1.887882 1_555
Co3 O12 2.009073 1_565
Co3 O5 2.030817 1_555
Co3 O10 2.037933 1_565
Co3 O11 2.075038 1_565
Co3 O6 2.117296 1_555
Co4 O0 1.912064 1_555
Co4 O14 1.919248 1_565
Co4 O13 1.957584 1_565
Co4 O7 1.958235 1_555
Co4 O6 1.984611 1_555
Co4 O12 1.988373 1_565
