# generated using pymatgen
data_CrFeCoNi
_symmetry_space_group_name_H-M   'P 1'
_cell_length_a   4.01256600
_cell_length_b   4.37047000
_cell_length_c   5.04023072
_cell_angle_alpha   89.63064983
_cell_angle_beta   90.00000000
_cell_angle_gamma   90.00000000
_symmetry_Int_Tables_number   1
_chemical_formula_structural   CrFeCoNi
_chemical_formula_sum   'Cr2 Fe2 Co2 Ni2'
_cell_volume   88.38767824
_cell_formula_units_Z   2
loop_
 _symmetry_equiv_pos_site_id
 _symmetry_equiv_pos_as_xyz
  1  'x, y, z'
loop_
 _atom_site_type_symbol
 _atom_site_label
 _atom_site_symmetry_multiplicity
 _atom_site_fract_x
 _atom_site_fract_y
 _atom_site_fract_z
 _atom_site_occupancy
  Cr  Cr0  1  0.00000000  0.30273700  0.62627600  1
  Cr  Cr1  1  0.50000000  0.62962600  0.12387500  1
  Fe  Fe0  1  0.50000000  0.13618300  0.38199400  1
  Fe  Fe1  1  0.00000000  0.79351000  0.37671400  1
  Co  Co0  1  0.50000000  0.63743000  0.63084700  1
  Co  Co1  1  0.50000000  0.13074900  0.87994700  1
  Ni  Ni0  1  0.00000000  0.80221500  0.87421100  1
  Ni  Ni1  1  0.00000000  0.29688700  0.12405000  1
loop_
_geom_bond_atom_site_label_1
_geom_bond_atom_site_label_2
_geom_bond_distance
_geom_bond_site_symmetry_2
Cr0 Fe0 2.466280 1_555
Cr0 Fe0 2.466280 1_455
Cr0 Fe1 2.479523 1_555
Cr0 Ni1 2.508861 1_556
Cr0 Ni0 2.512291 1_545
Cr0 Ni0 2.522317 1_555
Cr0 Ni1 2.531629 1_555
Cr0 Fe1 2.563475 1_545
Cr1 Ni1 2.477888 1_655
Cr1 Ni1 2.477888 1_555
Cr1 Ni0 2.483017 1_554
Cr1 Ni0 2.483017 1_654
Cr1 Fe1 2.484746 1_555
Cr1 Fe1 2.484746 1_655
Cr1 Fe0 2.511414 1_555
Cr1 Fe0 2.575073 1_565
Fe0 Ni1 2.489367 1_655
Fe0 Ni1 2.489367 1_555
Fe0 Fe1 2.503862 1_545
Fe0 Fe1 2.503862 1_645
Fe1 Ni0 2.508033 1_555
Fe1 Ni1 2.523562 1_555
Fe1 Ni0 2.532772 1_554
Fe1 Ni1 2.534880 1_565
Co0 Ni0 2.461667 1_555
Co0 Ni0 2.461667 1_655
Co0 Fe1 2.473844 1_555
Co0 Fe1 2.473844 1_655
Co0 Cr0 2.483107 1_655
Co0 Cr0 2.483107 1_555
Co0 Cr1 2.484989 1_556
Co0 Co1 2.501944 1_565
Co0 Fe0 2.507872 1_565
Co0 Fe0 2.531351 1_555
Co0 Co1 2.538544 1_555
Co0 Cr1 2.555703 1_555
Co1 Ni1 2.465286 1_656
Co1 Ni1 2.465286 1_556
Co1 Ni0 2.467428 1_645
Co1 Ni0 2.467428 1_545
Co1 Cr0 2.492489 1_655
Co1 Cr0 2.492489 1_555
Co1 Cr1 2.504709 1_546
Co1 Fe0 2.509757 1_555
Co1 Cr1 2.509968 1_556
Co1 Fe0 2.530697 1_556
Ni0 Ni1 2.508949 1_566
Ni0 Ni1 2.535234 1_556
