# generated using pymatgen
data_Li7Mn2(CoO4)3
_symmetry_space_group_name_H-M   'P 1'
_cell_length_a   2.97910104
_cell_length_b   2.97910104
_cell_length_c   29.57195004
_cell_angle_alpha   88.58410143
_cell_angle_beta   88.58410143
_cell_angle_gamma   57.27460492
_symmetry_Int_Tables_number   1
_chemical_formula_structural   Li7Mn2(CoO4)3
_chemical_formula_sum   'Li7 Mn2 Co3 O12'
_cell_volume   220.70607850
_cell_formula_units_Z   1
loop_
 _symmetry_equiv_pos_site_id
 _symmetry_equiv_pos_as_xyz
  1  'x, y, z'
loop_
 _atom_site_type_symbol
 _atom_site_label
 _atom_site_symmetry_multiplicity
 _atom_site_fract_x
 _atom_site_fract_y
 _atom_site_fract_z
 _atom_site_occupancy
  Li  Li0  1  0.65874000  0.65874000  0.57819800  1
  Li  Li1  1  0.34126000  0.34126000  0.42180200  1
  Li  Li2  1  0.99809600  0.99809600  0.24701700  1
  Li  Li3  1  0.66713400  0.66713400  0.08303600  1
  Li  Li4  1  0.33286600  0.33286600  0.91696400  1
  Li  Li5  1  0.00190400  0.00190400  0.75298300  1
  Li  Li6  1  0.00000000  0.00000000  0.50000000  1
  Mn  Mn0  1  0.33131100  0.33131100  0.66740600  1
  Mn  Mn1  1  0.66868900  0.66868900  0.33259400  1
  Co  Co0  1  0.33324800  0.33324800  0.16585000  1
  Co  Co1  1  0.00000000  0.00000000  0.00000000  1
  Co  Co2  1  0.66675200  0.66675200  0.83415000  1
  O  O0  1  0.98383200  0.98383200  0.63110500  1
  O  O1  1  0.66731400  0.66731400  0.45698800  1
  O  O2  1  0.31650700  0.31650700  0.29412800  1
  O  O3  1  0.00224900  0.00224900  0.12755300  1
  O  O4  1  0.64577000  0.64577000  0.96319300  1
  O  O5  1  0.33418100  0.33418100  0.79526300  1
  O  O6  1  0.33268600  0.33268600  0.54301200  1
  O  O7  1  0.01616800  0.01616800  0.36889500  1
  O  O8  1  0.66581900  0.66581900  0.20473700  1
  O  O9  1  0.35423000  0.35423000  0.03680700  1
  O  O10  1  0.99775100  0.99775100  0.87244700  1
  O  O11  1  0.68349300  0.68349300  0.70587200  1
loop_
_geom_bond_atom_site_label_1
_geom_bond_atom_site_label_2
_geom_bond_distance
_geom_bond_site_symmetry_2
Li0 O6 1.973661 1_565
Li0 O6 1.973661 1_655
Li0 O6 2.022316 1_555
Li0 O0 2.289631 1_455
Li0 O0 2.289631 1_545
Li0 O0 2.342580 1_555
Li1 O1 1.973661 1_455
Li1 O1 1.973661 1_545
Li1 O1 2.022316 1_555
Li1 O7 2.289631 1_655
Li1 O7 2.289631 1_565
Li1 O7 2.342580 1_555
Li2 O8 2.075890 1_655
Li2 O8 2.075890 1_565
Li2 O8 2.169056 1_555
Li2 O2 2.192414 1_565
Li2 O2 2.192414 1_655
Li2 O2 2.200912 1_665
Li3 O3 2.109771 1_655
Li3 O3 2.109771 1_565
Li3 O9 2.161547 1_555
Li3 O9 2.188466 1_655
Li3 O9 2.188466 1_565
Li3 O3 2.221253 1_665
Li4 O10 2.109771 1_545
Li4 O10 2.109771 1_455
Li4 O4 2.161547 1_555
Li4 O4 2.188466 1_545
Li4 O4 2.188466 1_455
Li4 O10 2.221253 1_445
Li5 O5 2.075890 1_455
Li5 O5 2.075890 1_545
Li5 O5 2.169056 1_555
Li5 O11 2.192414 1_545
Li5 O11 2.192414 1_455
Li5 O11 2.200912 1_445
Li6 O6 2.087882 1_545
Li6 O6 2.087882 1_455
Li6 O1 2.087882 1_455
Li6 O1 2.087882 1_545
Li6 O6 2.183829 1_555
Li6 O1 2.183829 1_445
Mn0 O0 1.943927 1_545
Mn0 O0 1.943927 1_455
Mn0 O11 1.969894 1_455
Mn0 O11 1.969894 1_545
Mn0 O0 2.136357 1_445
Mn0 O11 2.191731 1_555
Mn1 O7 1.943927 1_565
Mn1 O7 1.943927 1_655
Mn1 O2 1.969894 1_565
Mn1 O2 1.969894 1_655
Mn1 O7 2.136357 1_665
Mn1 O2 2.191731 1_555
Co0 O3 2.011421 1_655
Co0 O3 2.011421 1_565
Co0 O8 2.017632 1_455
Co0 O8 2.017632 1_545
Co0 O3 2.094997 1_555
Co0 O8 2.111775 1_555
Co1 O9 1.938460 1_545
Co1 O9 1.938460 1_455
Co1 O4 1.938460 1_544
Co1 O4 1.938460 1_454
Co1 O9 2.174767 1_555
Co1 O4 2.174767 1_444
Co2 O10 2.011421 1_545
Co2 O10 2.011421 1_455
Co2 O5 2.017632 1_655
Co2 O5 2.017632 1_565
Co2 O10 2.094997 1_555
Co2 O5 2.111775 1_555
