# generated using pymatgen
data_K3Nd(Si2O5)3
_symmetry_space_group_name_H-M   'P 1'
_cell_length_a   7.34582900
_cell_length_b   15.12566000
_cell_length_c   16.07544200
_cell_angle_alpha   90.00000000
_cell_angle_beta   90.00000000
_cell_angle_gamma   90.00000000
_symmetry_Int_Tables_number   1
_chemical_formula_structural   K3Nd(Si2O5)3
_chemical_formula_sum   'K12 Nd4 Si24 O60'
_cell_volume   1786.15058919
_cell_formula_units_Z   4
loop_
 _symmetry_equiv_pos_site_id
 _symmetry_equiv_pos_as_xyz
  1  'x, y, z'
loop_
 _atom_site_type_symbol
 _atom_site_label
 _atom_site_symmetry_multiplicity
 _atom_site_fract_x
 _atom_site_fract_y
 _atom_site_fract_z
 _atom_site_occupancy
  K  K0  1  0.00000000  0.88117000  0.20261900  1
  K  K1  1  0.00000000  0.11883000  0.79738100  1
  K  K2  1  0.00000000  0.61883000  0.70261900  1
  K  K3  1  0.00000000  0.38117000  0.29738100  1
  K  K4  1  0.50000000  0.61867700  0.35232800  1
  K  K5  1  0.50000000  0.38132300  0.64767200  1
  K  K6  1  0.50000000  0.88132300  0.85232800  1
  K  K7  1  0.50000000  0.11867700  0.14767200  1
  K  K8  1  0.50000000  0.91073700  0.43662000  1
  K  K9  1  0.50000000  0.08926300  0.56338000  1
  K  K10  1  0.50000000  0.58926300  0.93662000  1
  K  K11  1  0.50000000  0.41073700  0.06338000  1
  Nd  Nd0  1  0.00000000  0.50000000  0.50000000  1
  Nd  Nd1  1  0.00000000  0.00000000  0.00000000  1
  Nd  Nd2  1  0.00000000  0.50000000  0.00000000  1
  Nd  Nd3  1  0.00000000  0.00000000  0.50000000  1
  Si  Si0  1  0.00000000  0.62786200  0.28940300  1
  Si  Si1  1  0.00000000  0.37213800  0.71059700  1
  Si  Si2  1  0.00000000  0.87213800  0.78940300  1
  Si  Si3  1  0.00000000  0.12786200  0.21059700  1
  Si  Si4  1  0.71233300  0.63489700  0.14477000  1
  Si  Si5  1  0.71233300  0.36510300  0.85522900  1
  Si  Si6  1  0.28766700  0.86510300  0.64477100  1
  Si  Si7  1  0.28766700  0.13489700  0.35522900  1
  Si  Si8  1  0.28766700  0.36510300  0.85522900  1
  Si  Si9  1  0.28766700  0.63489700  0.14477000  1
  Si  Si10  1  0.71233300  0.13489700  0.35522900  1
  Si  Si11  1  0.71233300  0.86510300  0.64477100  1
  Si  Si12  1  0.00000000  0.78143700  0.40783000  1
  Si  Si13  1  0.00000000  0.21856300  0.59217000  1
  Si  Si14  1  0.00000000  0.71856300  0.90783000  1
  Si  Si15  1  0.00000000  0.28143700  0.09217000  1
  Si  Si16  1  0.71823500  0.80013600  0.03729800  1
  Si  Si17  1  0.71823500  0.19986400  0.96270200  1
  Si  Si18  1  0.28176500  0.69986400  0.53729800  1
  Si  Si19  1  0.28176500  0.30013600  0.46270200  1
  Si  Si20  1  0.28176500  0.19986400  0.96270200  1
  Si  Si21  1  0.28176500  0.80013600  0.03729800  1
  Si  Si22  1  0.71823500  0.30013600  0.46270200  1
  Si  Si23  1  0.71823500  0.69986400  0.53729800  1
  O  O0  1  0.81377900  0.74563900  0.45462300  1
  O  O1  1  0.81377900  0.25436100  0.54537700  1
  O  O2  1  0.18622100  0.75436100  0.95462300  1
  O  O3  1  0.18622100  0.24563900  0.04537700  1
  O  O4  1  0.18622100  0.25436100  0.54537700  1
  O  O5  1  0.18622100  0.74563900  0.45462300  1
  O  O6  1  0.81377900  0.24563900  0.04537700  1
  O  O7  1  0.81377900  0.75436100  0.95462300  1
  O  O8  1  0.00000000  0.88650000  0.39746300  1
  O  O9  1  0.00000000  0.11350000  0.60253700  1
  O  O10  1  0.00000000  0.61350000  0.89746300  1
  O  O11  1  0.00000000  0.38650000  0.10253700  1
  O  O12  1  0.00000000  0.73427600  0.31445600  1
  O  O13  1  0.00000000  0.26572400  0.68554400  1
  O  O14  1  0.00000000  0.76572400  0.81445600  1
  O  O15  1  0.00000000  0.23427600  0.18554400  1
  O  O16  1  0.00000000  0.56180600  0.36639100  1
  O  O17  1  0.00000000  0.43819400  0.63360900  1
  O  O18  1  0.00000000  0.93819400  0.86639100  1
  O  O19  1  0.00000000  0.06180600  0.13360900  1
  O  O20  1  0.81793800  0.61129300  0.23202700  1
  O  O21  1  0.81793800  0.38870700  0.76797300  1
  O  O22  1  0.18206200  0.88870700  0.73202700  1
  O  O23  1  0.18206200  0.11129300  0.26797300  1
  O  O24  1  0.18206200  0.38870700  0.76797300  1
  O  O25  1  0.18206200  0.61129300  0.23202700  1
  O  O26  1  0.81793800  0.11129300  0.26797300  1
  O  O27  1  0.81793800  0.88870700  0.73202700  1
  O  O28  1  0.50000000  0.63267600  0.17786100  1
  O  O29  1  0.50000000  0.36732400  0.82213900  1
  O  O30  1  0.50000000  0.86732400  0.67786100  1
  O  O31  1  0.50000000  0.13267600  0.32213900  1
  O  O32  1  0.74796200  0.56676600  0.07040200  1
  O  O33  1  0.74796200  0.43323400  0.92959800  1
  O  O34  1  0.25203800  0.93323400  0.57040200  1
  O  O35  1  0.25203800  0.06676600  0.42959800  1
  O  O36  1  0.25203800  0.43323400  0.92959800  1
  O  O37  1  0.25203800  0.56676600  0.07040200  1
  O  O38  1  0.74796200  0.06676600  0.42959800  1
  O  O39  1  0.74796200  0.93323400  0.57040200  1
  O  O40  1  0.76199100  0.73834400  0.12014300  1
  O  O41  1  0.76199100  0.26165600  0.87985700  1
  O  O42  1  0.23800900  0.76165600  0.62014300  1
  O  O43  1  0.23800900  0.23834400  0.37985700  1
  O  O44  1  0.23800900  0.26165600  0.87985700  1
  O  O45  1  0.23800900  0.73834400  0.12014300  1
  O  O46  1  0.76199100  0.23834400  0.37985700  1
  O  O47  1  0.76199100  0.76165600  0.62014300  1
  O  O48  1  0.78063800  0.89922000  0.05373600  1
  O  O49  1  0.78063800  0.10078000  0.94626400  1
  O  O50  1  0.21936200  0.60078000  0.55373600  1
  O  O51  1  0.21936200  0.39922000  0.44626400  1
  O  O52  1  0.21936200  0.10078000  0.94626400  1
  O  O53  1  0.21936200  0.89922000  0.05373600  1
  O  O54  1  0.78063800  0.39922000  0.44626400  1
  O  O55  1  0.78063800  0.60078000  0.55373600  1
  O  O56  1  0.50000000  0.78845600  0.01270700  1
  O  O57  1  0.50000000  0.21154400  0.98729300  1
  O  O58  1  0.50000000  0.71154400  0.51270700  1
  O  O59  1  0.50000000  0.28845600  0.48729300  1
loop_
_geom_bond_atom_site_label_1
_geom_bond_atom_site_label_2
_geom_bond_distance
_geom_bond_site_symmetry_2
K0 O12 2.858127 1_555
K0 O53 2.898156 1_555
K0 O48 2.898156 1_455
K0 O19 2.948868 1_565
K0 O45 3.079239 1_555
K0 O40 3.079239 1_455
K0 O8 3.133241 1_555
K1 O13 2.858127 1_555
K1 O52 2.898156 1_555
K1 O49 2.898156 1_455
K1 O18 2.948868 1_545
K1 O44 3.079239 1_555
K1 O41 3.079239 1_455
K1 O9 3.133241 1_555
K2 O14 2.858127 1_555
K2 O50 2.898156 1_555
K2 O55 2.898156 1_455
K2 O17 2.948868 1_555
K2 O47 3.079239 1_455
K2 O42 3.079239 1_555
K2 O10 3.133241 1_555
K3 O15 2.858127 1_555
K3 O51 2.898156 1_555
K3 O54 2.898156 1_455
K3 O16 2.948868 1_555
K3 O43 3.079239 1_555
K3 O46 3.079239 1_455
K3 O11 3.133241 1_555
K4 O28 2.812616 1_555
K4 O58 2.935990 1_555
K4 O20 3.034313 1_555
K4 O25 3.034313 1_555
K5 O29 2.812616 1_555
K5 O59 2.935990 1_555
K5 O21 3.034313 1_555
K5 O24 3.034313 1_555
K6 O30 2.812616 1_555
K6 O56 2.935990 1_556
K6 O27 3.034313 1_555
K6 O22 3.034313 1_555
K7 O31 2.812616 1_555
K7 O57 2.935990 1_554
K7 O26 3.034313 1_555
K7 O23 3.034313 1_555
K8 O34 2.838786 1_555
K8 O39 2.838786 1_555
K8 O38 2.983346 1_565
K8 O35 2.983346 1_565
K8 O58 3.251734 1_555
K9 O38 2.838786 1_555
K9 O35 2.838786 1_555
K9 O39 2.983346 1_545
K9 O34 2.983346 1_545
K9 O59 3.251734 1_555
K10 O37 2.838786 1_556
K10 O32 2.838786 1_556
K10 O33 2.983346 1_555
K10 O36 2.983346 1_555
K10 O56 3.251734 1_556
K11 O36 2.838786 1_554
K11 O33 2.838786 1_554
K11 O32 2.983346 1_555
K11 O37 2.983346 1_555
K11 O57 3.251734 1_554
Nd0 O17 2.342457 1_555
Nd0 O16 2.342457 1_555
Nd0 O51 2.380438 1_555
Nd0 O50 2.380438 1_555
Nd0 O54 2.380438 1_455
Nd0 O55 2.380438 1_455
Nd1 O19 2.342457 1_555
Nd1 O18 2.342457 1_544
Nd1 O53 2.380438 1_545
Nd1 O52 2.380438 1_554
Nd1 O48 2.380438 1_445
Nd1 O49 2.380438 1_454
Nd2 O11 2.379970 1_555
Nd2 O10 2.379970 1_554
Nd2 O32 2.393426 1_455
Nd2 O37 2.393426 1_555
Nd2 O33 2.393426 1_454
Nd2 O36 2.393426 1_554
Nd3 O9 2.379970 1_555
Nd3 O8 2.379970 1_545
Nd3 O35 2.393426 1_555
Nd3 O38 2.393426 1_455
Nd3 O39 2.393426 1_445
Nd3 O34 2.393426 1_545
O0 Si12 1.652362 1_655
O0 Si23 1.654787 1_555
O1 Si13 1.652362 1_655
O1 Si22 1.654787 1_555
O2 Si14 1.652362 1_555
O2 Si21 1.654787 1_556
O3 Si15 1.652362 1_555
O3 Si20 1.654787 1_554
O4 Si13 1.652362 1_555
O4 Si19 1.654787 1_555
O5 Si12 1.652362 1_555
O5 Si18 1.654787 1_555
O6 Si15 1.652362 1_655
O6 Si17 1.654787 1_554
O7 Si14 1.652362 1_655
O7 Si16 1.654787 1_556
O8 Si12 1.597862 1_555
O9 Si13 1.597862 1_555
O10 Si14 1.597862 1_555
O11 Si15 1.597862 1_555
O12 Si0 1.659202 1_555
O12 Si12 1.661909 1_555
O13 Si1 1.659202 1_555
O13 Si13 1.661909 1_555
O14 Si2 1.659202 1_555
O14 Si14 1.661909 1_555
O15 Si3 1.659202 1_555
O15 Si15 1.661909 1_555
O16 Si0 1.590590 1_555
O17 Si1 1.590590 1_555
O18 Si2 1.590590 1_555
O19 Si3 1.590590 1_555
O20 Si4 1.642199 1_555
O20 Si0 1.643824 1_655
O21 Si5 1.642185 1_555
O21 Si1 1.643824 1_655
O22 Si6 1.642185 1_555
O22 Si2 1.643824 1_555
O23 Si7 1.642185 1_555
O23 Si3 1.643824 1_555
O24 Si8 1.642185 1_555
O24 Si1 1.643824 1_555
O25 Si9 1.642199 1_555
O25 Si0 1.643824 1_555
O26 Si10 1.642185 1_555
O26 Si3 1.643824 1_655
O27 Si11 1.642185 1_555
O27 Si2 1.643824 1_655
O28 Si4 1.648320 1_555
O28 Si9 1.648320 1_555
O29 Si5 1.648315 1_555
O29 Si8 1.648315 1_555
O30 Si11 1.648315 1_555
O30 Si6 1.648315 1_555
O31 Si10 1.648315 1_555
O31 Si7 1.648315 1_555
O32 Si4 1.599907 1_555
O33 Si5 1.599919 1_555
O34 Si6 1.599919 1_555
O35 Si7 1.599919 1_555
O36 Si8 1.599919 1_555
O37 Si9 1.599907 1_555
O38 Si10 1.599919 1_555
O39 Si11 1.599919 1_555
O40 Si4 1.654718 1_555
O40 Si16 1.658459 1_555
O41 Si5 1.654722 1_555
O41 Si17 1.658459 1_555
O42 Si6 1.654722 1_555
O42 Si18 1.658459 1_555
O43 Si7 1.654722 1_555
O43 Si19 1.658459 1_555
O44 Si8 1.654722 1_555
O44 Si20 1.658459 1_555
O45 Si9 1.654718 1_555
O45 Si21 1.658459 1_555
O46 Si10 1.654722 1_555
O46 Si22 1.658459 1_555
O47 Si11 1.654722 1_555
O47 Si23 1.658459 1_555
O48 Si16 1.589369 1_555
O49 Si17 1.589369 1_555
O50 Si18 1.589369 1_555
O51 Si19 1.589369 1_555
O52 Si20 1.589369 1_555
O53 Si21 1.589369 1_555
O54 Si22 1.589369 1_555
O55 Si23 1.589369 1_555
O56 Si16 1.660562 1_555
O56 Si21 1.660562 1_555
O57 Si17 1.660562 1_555
O57 Si20 1.660562 1_555
O58 Si23 1.660562 1_555
O58 Si18 1.660562 1_555
O59 Si22 1.660562 1_555
O59 Si19 1.660562 1_555
