# generated using pymatgen
data_Nd2MgS4
_symmetry_space_group_name_H-M   'P 1'
_cell_length_a   13.05529593
_cell_length_b   7.81472764
_cell_length_c   13.01256461
_cell_angle_alpha   90.00000000
_cell_angle_beta   90.00000000
_cell_angle_gamma   90.00000000
_symmetry_Int_Tables_number   1
_chemical_formula_structural   Nd2MgS4
_chemical_formula_sum   'Nd16 Mg8 S32'
_cell_volume   1327.58845190
_cell_formula_units_Z   8
loop_
 _symmetry_equiv_pos_site_id
 _symmetry_equiv_pos_as_xyz
  1  'x, y, z'
loop_
 _atom_site_type_symbol
 _atom_site_label
 _atom_site_symmetry_multiplicity
 _atom_site_fract_x
 _atom_site_fract_y
 _atom_site_fract_z
 _atom_site_occupancy
  Nd  Nd0  1  0.10946340  0.88587941  0.68425425  1
  Nd  Nd1  1  0.89053660  0.11412059  0.18425425  1
  Nd  Nd2  1  0.39053660  0.88587941  0.18425425  1
  Nd  Nd3  1  0.60946340  0.11412059  0.68425425  1
  Nd  Nd4  1  0.12682040  0.38403116  0.32613183  1
  Nd  Nd5  1  0.87317960  0.61596884  0.82613183  1
  Nd  Nd6  1  0.37317960  0.38403116  0.82613183  1
  Nd  Nd7  1  0.62682040  0.61596884  0.32613183  1
  Nd  Nd8  1  0.13472700  0.63053932  0.99414675  1
  Nd  Nd9  1  0.86527300  0.36946068  0.49414675  1
  Nd  Nd10  1  0.36527300  0.63053932  0.49414675  1
  Nd  Nd11  1  0.63472700  0.36946068  0.99414675  1
  Nd  Nd12  1  0.13556029  0.13054878  0.99314150  1
  Nd  Nd13  1  0.86443971  0.86945122  0.49314150  1
  Nd  Nd14  1  0.36443971  0.13054878  0.49314150  1
  Nd  Nd15  1  0.63556029  0.86945122  0.99314150  1
  Mg  Mg0  1  0.11146658  0.38513343  0.69308270  1
  Mg  Mg1  1  0.88853342  0.61486657  0.19308270  1
  Mg  Mg2  1  0.38853342  0.38513343  0.19308270  1
  Mg  Mg3  1  0.61146658  0.61486657  0.69308270  1
  Mg  Mg4  1  0.12578423  0.87993693  0.32016120  1
  Mg  Mg5  1  0.87421577  0.12006307  0.82016120  1
  Mg  Mg6  1  0.37421577  0.87993693  0.82016120  1
  Mg  Mg7  1  0.62578423  0.12006307  0.32016120  1
  S  S0  1  0.01076470  0.88196523  0.87927318  1
  S  S1  1  0.98923530  0.11803477  0.37927318  1
  S  S2  1  0.48923530  0.88196523  0.37927318  1
  S  S3  1  0.51076470  0.11803477  0.87927318  1
  S  S4  1  0.02826875  0.38236219  0.12908476  1
  S  S5  1  0.97173125  0.61763781  0.62908476  1
  S  S6  1  0.47173125  0.38236219  0.62908476  1
  S  S7  1  0.52826875  0.61763781  0.12908476  1
  S  S8  1  0.02536283  0.37227091  0.86708544  1
  S  S9  1  0.97463717  0.62772909  0.36708544  1
  S  S10  1  0.47463717  0.37227091  0.36708544  1
  S  S11  1  0.52536283  0.62772909  0.86708544  1
  S  S12  1  0.04679372  0.87386191  0.14014484  1
  S  S13  1  0.95320628  0.12613809  0.64014484  1
  S  S14  1  0.45320628  0.87386191  0.64014484  1
  S  S15  1  0.54679372  0.12613809  0.14014484  1
  S  S16  1  0.20988548  0.88084023  0.49551893  1
  S  S17  1  0.79011452  0.11915977  0.99551893  1
  S  S18  1  0.29011452  0.88084023  0.99551893  1
  S  S19  1  0.70988548  0.11915977  0.49551893  1
  S  S20  1  0.21040136  0.38131856  0.52436293  1
  S  S21  1  0.78959864  0.61868144  0.02436293  1
  S  S22  1  0.28959864  0.38131856  0.02436293  1
  S  S23  1  0.71040136  0.61868144  0.52436293  1
  S  S24  1  0.23259805  0.13278294  0.77388160  1
  S  S25  1  0.76740195  0.86721706  0.27388160  1
  S  S26  1  0.26740195  0.13278294  0.27388160  1
  S  S27  1  0.73259805  0.86721706  0.77388160  1
  S  S28  1  0.23210841  0.63504476  0.77673108  1
  S  S29  1  0.76789159  0.36495524  0.27673108  1
  S  S30  1  0.26789159  0.63504476  0.27673108  1
  S  S31  1  0.73210841  0.36495524  0.77673108  1
loop_
_geom_bond_atom_site_label_1
_geom_bond_atom_site_label_2
_geom_bond_distance
_geom_bond_site_symmetry_2
Nd0 S24 2.769001 1_565
Nd0 S16 2.784236 1_555
Nd0 S28 2.802537 1_555
Nd0 S13 2.831289 1_465
Nd0 S0 2.846256 1_555
Nd0 S5 2.853570 1_455
Nd1 S25 2.769001 1_545
Nd1 S17 2.784236 1_554
Nd1 S29 2.802537 1_555
Nd1 S12 2.831289 1_645
Nd1 S1 2.846256 1_555
Nd1 S4 2.853570 1_655
Nd2 S26 2.769001 1_565
Nd2 S18 2.784236 1_554
Nd2 S30 2.802537 1_555
Nd2 S15 2.831289 1_565
Nd2 S2 2.846256 1_555
Nd2 S7 2.853570 1_555
Nd3 S27 2.769001 1_545
Nd3 S19 2.784236 1_555
Nd3 S31 2.802537 1_555
Nd3 S14 2.831289 1_545
Nd3 S3 2.846256 1_555
Nd3 S6 2.853570 1_555
Nd4 S30 2.766419 1_555
Nd4 S26 2.772329 1_555
Nd4 S20 2.800876 1_555
Nd4 S9 2.803252 1_455
Nd4 S1 2.832934 1_455
Nd4 S4 2.868817 1_555
Nd5 S31 2.766419 1_555
Nd5 S27 2.772329 1_555
Nd5 S21 2.800876 1_556
Nd5 S8 2.803252 1_655
Nd5 S0 2.832934 1_655
Nd5 S5 2.868817 1_555
Nd6 S28 2.766419 1_555
Nd6 S24 2.772329 1_555
Nd6 S22 2.800876 1_556
Nd6 S11 2.803252 1_555
Nd6 S3 2.832934 1_555
Nd6 S6 2.868817 1_555
Nd7 S29 2.766419 1_555
Nd7 S25 2.772329 1_555
Nd7 S23 2.800876 1_555
Nd7 S10 2.803252 1_555
Nd7 S2 2.832934 1_555
Nd7 S7 2.868817 1_555
Nd8 S18 2.818107 1_555
Nd8 S22 2.834744 1_556
Nd8 S12 2.922819 1_556
Nd8 S0 2.951960 1_555
Nd8 S4 2.962470 1_556
Nd8 S8 2.974188 1_555
Nd8 S28 3.101864 1_555
Nd9 S19 2.818107 1_555
Nd9 S23 2.834744 1_555
Nd9 S13 2.922819 1_555
Nd9 S1 2.951960 1_555
Nd9 S5 2.962470 1_555
Nd9 S9 2.974188 1_555
Nd9 S29 3.101864 1_555
Nd10 S16 2.818107 1_555
Nd10 S20 2.834744 1_555
Nd10 S14 2.922819 1_555
Nd10 S2 2.951960 1_555
Nd10 S6 2.962470 1_555
Nd10 S10 2.974188 1_555
Nd10 S30 3.101864 1_555
Nd11 S17 2.818107 1_555
Nd11 S21 2.834744 1_556
Nd11 S15 2.922819 1_556
Nd11 S3 2.951960 1_555
Nd11 S7 2.962470 1_556
Nd11 S11 2.974188 1_555
Nd11 S31 3.101864 1_555
Nd12 S18 2.807179 1_545
Nd12 S22 2.837192 1_556
Nd12 S8 2.885942 1_555
Nd12 S0 2.936608 1_545
Nd12 S4 2.993948 1_556
Nd12 S12 3.004318 1_546
Nd12 S24 3.121795 1_555
Nd13 S19 2.807179 1_565
Nd13 S23 2.837192 1_555
Nd13 S9 2.885942 1_555
Nd13 S1 2.936608 1_565
Nd13 S5 2.993948 1_555
Nd13 S13 3.004318 1_565
Nd13 S25 3.121795 1_555
Nd14 S16 2.807179 1_545
Nd14 S20 2.837192 1_555
Nd14 S10 2.885942 1_555
Nd14 S2 2.936608 1_545
Nd14 S6 2.993948 1_555
Nd14 S14 3.004318 1_545
Nd14 S26 3.121795 1_555
Nd15 S17 2.807179 1_565
Nd15 S21 2.837192 1_556
Nd15 S11 2.885942 1_555
Nd15 S3 2.936608 1_565
Nd15 S7 2.993948 1_556
Nd15 S15 3.004318 1_566
Nd15 S27 3.121795 1_555
Mg0 S8 2.529907 1_555
Mg0 S20 2.547410 1_555
Mg0 S5 2.706081 1_455
Mg0 S28 2.734891 1_555
Mg0 S24 2.737750 1_555
Mg0 S13 2.973201 1_455
Mg1 S9 2.529907 1_555
Mg1 S21 2.547410 1_555
Mg1 S4 2.706081 1_655
Mg1 S29 2.734891 1_555
Mg1 S25 2.737750 1_555
Mg1 S12 2.973201 1_655
Mg2 S10 2.529907 1_555
Mg2 S22 2.547410 1_555
Mg2 S7 2.706081 1_555
Mg2 S30 2.734891 1_555
Mg2 S26 2.737750 1_555
Mg2 S15 2.973201 1_555
Mg3 S11 2.529907 1_555
Mg3 S23 2.547410 1_555
Mg3 S6 2.706081 1_555
Mg3 S31 2.734891 1_555
Mg3 S27 2.737750 1_555
Mg3 S14 2.973201 1_555
Mg4 S16 2.532279 1_555
Mg4 S12 2.559864 1_555
Mg4 S1 2.689188 1_465
Mg4 S30 2.724673 1_555
Mg4 S26 2.772223 1_565
Mg4 S9 2.855034 1_455
Mg5 S17 2.532279 1_555
Mg5 S13 2.559864 1_555
Mg5 S0 2.689188 1_645
Mg5 S31 2.724673 1_555
Mg5 S27 2.772223 1_545
Mg5 S8 2.855034 1_655
Mg6 S18 2.532279 1_555
Mg6 S14 2.559864 1_555
Mg6 S3 2.689188 1_565
Mg6 S28 2.724673 1_555
Mg6 S24 2.772223 1_565
Mg6 S11 2.855034 1_555
Mg7 S19 2.532279 1_555
Mg7 S15 2.559864 1_555
Mg7 S2 2.689188 1_545
Mg7 S29 2.724673 1_555
Mg7 S25 2.772223 1_545
Mg7 S10 2.855034 1_555
