# generated using pymatgen
data_Sr2ScSbO6
_symmetry_space_group_name_H-M   'P 1'
_cell_length_a   5.77199300
_cell_length_b   5.75153300
_cell_length_c   9.96357051
_cell_angle_alpha   90.00000000
_cell_angle_beta   125.33123977
_cell_angle_gamma   90.00000000
_symmetry_Int_Tables_number   1
_chemical_formula_structural   Sr2ScSbO6
_chemical_formula_sum   'Sr4 Sc2 Sb2 O12'
_cell_volume   269.84851687
_cell_formula_units_Z   2
loop_
 _symmetry_equiv_pos_site_id
 _symmetry_equiv_pos_as_xyz
  1  'x, y, z'
loop_
 _atom_site_type_symbol
 _atom_site_label
 _atom_site_symmetry_multiplicity
 _atom_site_fract_x
 _atom_site_fract_y
 _atom_site_fract_z
 _atom_site_occupancy
  Sr  Sr0  1  0.75375300  0.48936400  0.25104100  1
  Sr  Sr1  1  0.75375300  0.01063600  0.75104100  1
  Sr  Sr2  1  0.24624700  0.51063600  0.74895900  1
  Sr  Sr3  1  0.24624700  0.98936400  0.24895900  1
  Sc  Sc0  1  0.50000000  0.50000000  0.50000000  1
  Sc  Sc1  1  0.50000000  0.00000000  0.00000000  1
  Sb  Sb0  1  0.00000000  0.00000000  0.50000000  1
  Sb  Sb1  1  0.00000000  0.50000000  0.00000000  1
  O  O0  1  0.23198600  0.22723600  0.47157100  1
  O  O1  1  0.23198600  0.27276400  0.97157100  1
  O  O2  1  0.76801400  0.77276400  0.52842900  1
  O  O3  1  0.76801400  0.72723600  0.02842900  1
  O  O4  1  0.80062900  0.23738000  0.02671500  1
  O  O5  1  0.80062900  0.26262000  0.52671500  1
  O  O6  1  0.19937100  0.76262000  0.97328500  1
  O  O7  1  0.19937100  0.73738000  0.47328500  1
  O  O8  1  0.70309600  0.00501900  0.25609600  1
  O  O9  1  0.70309600  0.49498100  0.75609600  1
  O  O10  1  0.29690400  0.99498100  0.74390400  1
  O  O11  1  0.29690400  0.50501900  0.24390400  1
loop_
_geom_bond_atom_site_label_1
_geom_bond_atom_site_label_2
_geom_bond_distance
_geom_bond_site_symmetry_2
O0 Sb0 2.005000 1_555
O0 Sc0 2.104216 1_555
O0 Sr3 2.647506 1_545
O0 Sr0 2.775867 1_455
O0 Sr1 2.945544 1_555
O0 Sr2 3.168430 1_555
O1 Sb1 2.005000 1_556
O1 Sc1 2.104216 1_556
O1 Sr2 2.647506 1_555
O1 Sr1 2.775867 1_455
O1 Sr0 2.945544 1_556
O1 Sr3 3.168430 1_546
O2 Sb0 2.005000 1_665
O2 Sc0 2.104216 1_555
O2 Sr1 2.647506 1_565
O2 Sr2 2.775867 1_655
O2 Sr3 2.945544 1_555
O2 Sr0 3.168430 1_555
O3 Sb1 2.005000 1_655
O3 Sc1 2.104216 1_565
O3 Sr0 2.647506 1_555
O3 Sr3 2.775867 1_655
O3 Sr2 2.945544 1_554
O3 Sr1 3.168430 1_564
O4 Sb1 2.007712 1_655
O4 Sc1 2.100405 1_555
O4 Sr3 2.639392 1_645
O4 Sr0 2.805125 1_555
O4 Sr1 2.908392 1_554
O4 Sr2 3.182099 1_554
O5 Sb0 2.007712 1_655
O5 Sc0 2.100405 1_555
O5 Sr2 2.639392 1_655
O5 Sr1 2.805125 1_555
O5 Sr0 2.908392 1_555
O5 Sr3 3.182099 1_545
O6 Sb1 2.007712 1_556
O6 Sc1 2.100405 1_566
O6 Sr1 2.639392 1_465
O6 Sr2 2.805125 1_555
O6 Sr3 2.908392 1_556
O6 Sr0 3.182099 1_556
O7 Sb0 2.007712 1_565
O7 Sc0 2.100405 1_555
O7 Sr0 2.639392 1_455
O7 Sr3 2.805125 1_555
O7 Sr2 2.908392 1_555
O7 Sr1 3.182099 1_565
O8 Sb0 2.006620 1_655
O8 Sc1 2.103861 1_555
O8 Sr3 2.598015 1_545
O8 Sr0 2.804520 1_555
O8 Sr0 2.983466 1_545
O8 Sr3 3.177992 1_645
O9 Sb1 2.006620 1_656
O9 Sc0 2.103861 1_555
O9 Sr2 2.598015 1_555
O9 Sr1 2.804520 1_555
O9 Sr1 2.983466 1_565
O9 Sr2 3.177992 1_655
O10 Sb0 2.006620 1_565
O10 Sc1 2.103861 1_566
O10 Sr1 2.598015 1_565
O10 Sr2 2.804520 1_555
O10 Sr2 2.983466 1_565
O10 Sr1 3.177992 1_465
O11 Sb1 2.006620 1_555
O11 Sc0 2.103861 1_555
O11 Sr0 2.598015 1_555
O11 Sr3 2.804520 1_555
O11 Sr3 2.983466 1_545
O11 Sr0 3.177992 1_455
