# generated using pymatgen
data_Na2GdCl5
_symmetry_space_group_name_H-M   'P 1'
_cell_length_a   7.64597207
_cell_length_b   8.25049370
_cell_length_c   11.98345806
_cell_angle_alpha   90.00000000
_cell_angle_beta   90.00000000
_cell_angle_gamma   90.00000000
_symmetry_Int_Tables_number   1
_chemical_formula_structural   Na2GdCl5
_chemical_formula_sum   'Na8 Gd4 Cl20'
_cell_volume   755.95301679
_cell_formula_units_Z   4
loop_
 _symmetry_equiv_pos_site_id
 _symmetry_equiv_pos_as_xyz
  1  'x, y, z'
loop_
 _atom_site_type_symbol
 _atom_site_label
 _atom_site_symmetry_multiplicity
 _atom_site_fract_x
 _atom_site_fract_y
 _atom_site_fract_z
 _atom_site_occupancy
  Na  Na0  1  0.97407277  -0.00030234  0.82350488  1
  Na  Na1  1  0.02592723  0.00030234  0.17649512  1
  Na  Na2  1  0.47407277  0.00030234  0.67649512  1
  Na  Na3  1  0.02592723  0.49969766  0.17649512  1
  Na  Na4  1  0.52592723  -0.00030234  0.32350488  1
  Na  Na5  1  0.97407277  0.50030234  0.82350488  1
  Na  Na6  1  0.52592723  0.50030234  0.32350488  1
  Na  Na7  1  0.47407277  0.49969766  0.67649512  1
  Gd  Gd0  1  0.91651342  0.75000000  0.50548998  1
  Gd  Gd1  1  0.08348658  0.25000000  0.49451002  1
  Gd  Gd2  1  0.41651342  0.25000000  0.99451002  1
  Gd  Gd3  1  0.58348658  0.75000000  0.00548998  1
  Cl  Cl0  1  0.14381630  0.75000000  0.67981252  1
  Cl  Cl1  1  0.85618370  0.25000000  0.32018748  1
  Cl  Cl2  1  0.64381630  0.25000000  0.82018748  1
  Cl  Cl3  1  0.35618370  0.75000000  0.17981252  1
  Cl  Cl4  1  0.83622202  0.04442506  0.58991421  1
  Cl  Cl5  1  0.16377798  0.95557494  0.41008579  1
  Cl  Cl6  1  0.33622202  0.95557494  0.91008579  1
  Cl  Cl7  1  0.16377798  0.54442506  0.41008579  1
  Cl  Cl8  1  0.66377798  0.04442506  0.08991421  1
  Cl  Cl9  1  0.83622202  0.45557494  0.58991421  1
  Cl  Cl10  1  0.66377798  0.45557494  0.08991421  1
  Cl  Cl11  1  0.33622202  0.54442506  0.91008579  1
  Cl  Cl12  1  0.55715538  0.75000000  0.50370626  1
  Cl  Cl13  1  0.44284462  0.25000000  0.49629374  1
  Cl  Cl14  1  0.05715538  0.25000000  0.99629374  1
  Cl  Cl15  1  0.94284462  0.75000000  0.00370626  1
  Cl  Cl16  1  0.67862073  0.75000000  0.78598819  1
  Cl  Cl17  1  0.32137927  0.25000000  0.21401181  1
  Cl  Cl18  1  0.17862073  0.25000000  0.71401181  1
  Cl  Cl19  1  0.82137927  0.75000000  0.28598819  1
loop_
_geom_bond_atom_site_label_1
_geom_bond_atom_site_label_2
_geom_bond_distance
_geom_bond_site_symmetry_2
Cl0 Gd0 2.717414 1_455
Cl0 Na0 2.982215 1_465
Cl0 Na5 2.982215 1_455
Cl0 Na2 3.262297 1_565
Cl0 Na7 3.262297 1_555
Cl1 Gd1 2.717414 1_655
Cl1 Na3 2.982215 1_655
Cl1 Na1 2.982215 1_655
Cl1 Na4 3.262297 1_555
Cl1 Na6 3.262297 1_555
Cl2 Gd2 2.717414 1_555
Cl2 Na7 2.982215 1_555
Cl2 Na2 2.982215 1_555
Cl2 Na5 3.262297 1_555
Cl2 Na0 3.262297 1_555
Cl3 Gd3 2.717414 1_555
Cl3 Na6 2.982215 1_555
Cl3 Na4 2.982215 1_565
Cl3 Na1 3.262297 1_565
Cl3 Na3 3.262297 1_555
Cl4 Gd0 2.702071 1_545
Cl4 Gd1 2.785335 1_655
Cl4 Na2 2.979308 1_555
Cl4 Na0 3.013761 1_555
Cl5 Gd1 2.702071 1_565
Cl5 Gd0 2.785335 1_455
Cl5 Na4 2.979308 1_565
Cl5 Na1 3.013761 1_565
Cl6 Gd2 2.702071 1_565
Cl6 Gd3 2.785335 1_556
Cl6 Na0 2.979308 1_465
Cl6 Na2 3.013761 1_565
Cl7 Gd1 2.702071 1_555
Cl7 Gd0 2.785335 1_455
Cl7 Na6 2.979308 1_555
Cl7 Na3 3.013761 1_555
Cl8 Gd3 2.702071 1_545
Cl8 Gd2 2.785335 1_554
Cl8 Na1 2.979308 1_655
Cl8 Na4 3.013761 1_555
Cl9 Gd0 2.702071 1_555
Cl9 Gd1 2.785335 1_655
Cl9 Na7 2.979308 1_555
Cl9 Na5 3.013761 1_555
Cl10 Gd3 2.702071 1_555
Cl10 Gd2 2.785335 1_554
Cl10 Na3 2.979308 1_655
Cl10 Na6 3.013761 1_555
Cl11 Gd2 2.702071 1_555
Cl11 Gd3 2.785335 1_556
Cl11 Na5 2.979308 1_455
Cl11 Na7 3.013761 1_555
Cl12 Gd0 2.747725 1_555
Cl12 Na7 2.992602 1_555
Cl12 Na2 2.992602 1_565
Cl12 Na4 2.994045 1_565
Cl12 Na6 2.994045 1_555
Cl13 Gd1 2.747725 1_555
Cl13 Na6 2.992602 1_555
Cl13 Na4 2.992602 1_555
Cl13 Na7 2.994045 1_555
Cl13 Na2 2.994045 1_555
Cl14 Gd2 2.747725 1_555
Cl14 Na5 2.992602 1_455
Cl14 Na0 2.992602 1_455
Cl14 Na1 2.994045 1_556
Cl14 Na3 2.994045 1_556
Cl15 Gd3 2.747725 1_555
Cl15 Na1 2.992602 1_665
Cl15 Na3 2.992602 1_655
Cl15 Na5 2.994045 1_554
Cl15 Na0 2.994045 1_564
Cl16 Gd3 2.729112 1_556
Cl16 Na2 2.903847 1_565
Cl16 Na7 2.903847 1_555
Cl16 Na5 3.090213 1_555
Cl16 Na0 3.090213 1_565
Cl17 Gd2 2.729112 1_554
Cl17 Na6 2.903847 1_555
Cl17 Na4 2.903847 1_555
Cl17 Na3 3.090213 1_555
Cl17 Na1 3.090213 1_555
Cl18 Gd1 2.729112 1_555
Cl18 Na5 2.903847 1_455
Cl18 Na0 2.903847 1_455
Cl18 Na7 3.090213 1_555
Cl18 Na2 3.090213 1_555
Cl19 Gd0 2.729112 1_555
Cl19 Na1 2.903847 1_665
Cl19 Na3 2.903847 1_655
Cl19 Na4 3.090213 1_565
Cl19 Na6 3.090213 1_555
