# generated using pymatgen
data_Li3MnV(PO4)3
_symmetry_space_group_name_H-M   'P 1'
_cell_length_a   9.04538251
_cell_length_b   8.48336906
_cell_length_c   14.70546501
_cell_angle_alpha   89.81961713
_cell_angle_beta   75.00356409
_cell_angle_gamma   61.32572401
_symmetry_Int_Tables_number   1
_chemical_formula_structural   Li3MnV(PO4)3
_chemical_formula_sum   'Li12 Mn4 V4 P12 O48'
_cell_volume   946.52164935
_cell_formula_units_Z   4
loop_
 _symmetry_equiv_pos_site_id
 _symmetry_equiv_pos_as_xyz
  1  'x, y, z'
loop_
 _atom_site_type_symbol
 _atom_site_label
 _atom_site_symmetry_multiplicity
 _atom_site_fract_x
 _atom_site_fract_y
 _atom_site_fract_z
 _atom_site_occupancy
  Li  Li0  1  0.15012548  0.24995129  0.33083288  1
  Li  Li1  1  0.15000904  0.79980092  0.13457204  1
  Li  Li2  1  0.14485407  0.29891201  0.63367403  1
  Li  Li3  1  0.14553850  0.72931044  0.46113289  1
  Li  Li4  1  0.14881063  0.22669809  0.96061299  1
  Li  Li5  1  0.15025857  0.75039676  0.83029354  1
  Li  Li6  1  0.85375568  0.24923489  0.16575042  1
  Li  Li7  1  0.85336924  0.77419116  0.03895453  1
  Li  Li8  1  0.85246262  0.27857669  0.53833659  1
  Li  Li9  1  0.85205161  0.69864475  0.36709892  1
  Li  Li10  1  0.85084378  0.20255612  0.86819136  1
  Li  Li11  1  0.85198649  0.74292918  0.66793110  1
  Mn  Mn0  1  0.04494958  0.97933726  0.32593539  1
  Mn  Mn1  1  0.55870932  0.21884920  0.07289099  1
  Mn  Mn2  1  0.56072649  0.71551599  0.57308837  1
  Mn  Mn3  1  0.95377616  0.52439992  0.17454667  1
  V  V0  1  0.04728015  0.47395064  0.82632357  1
  V  V1  1  0.44090511  0.27986695  0.42876621  1
  V  V2  1  0.43924852  0.78292284  0.92656777  1
  V  V3  1  0.95187881  0.02284167  0.67385642  1
  P  P0  1  0.25326864  0.08416288  0.12244708  1
  P  P1  1  0.25276140  0.01825842  0.48193136  1
  P  P2  1  0.24915217  0.52051070  0.27448915  1
  P  P3  1  0.25177407  0.01707270  0.76880584  1
  P  P4  1  0.24852910  0.58039814  0.62493095  1
  P  P5  1  0.25198734  0.52386214  0.97901026  1
  P  P6  1  0.75019281  0.47764883  0.01875311  1
  P  P7  1  0.74748289  0.41310883  0.37632665  1
  P  P8  1  0.74482077  0.98825388  0.23108898  1
  P  P9  1  0.74815433  0.48174445  0.72962699  1
  P  P10  1  0.75213818  0.97819526  0.52163856  1
  P  P11  1  0.75307073  0.91428736  0.87191249  1
  O  O0  1  0.09574339  0.25390382  0.10066756  1
  O  O1  1  0.20248211  0.06684333  0.22881604  1
  O  O2  1  0.09879512  0.62847777  0.07282669  1
  O  O3  1  0.09868981  0.11601820  0.57837597  1
  O  O4  1  0.09264116  0.48415836  0.28046055  1
  O  O5  1  0.42315387  0.09345796  0.09223341  1
  O  O6  1  0.27268305  0.17445306  0.43410100  1
  O  O7  1  0.19236210  0.72056859  0.25988766  1
  O  O8  1  0.19246157  0.21740540  0.75328214  1
  O  O9  1  0.27779295  0.48838569  0.37666548  1
  O  O10  1  0.41498777  0.39655544  0.19768715  1
  O  O11  1  0.09377740  0.75786965  0.60356635  1
  O  O12  1  0.27543425  0.92057258  0.05981395  1
  O  O13  1  0.26592649  0.42166803  0.56042680  1
  O  O14  1  0.57485152  0.12527782  0.30901440  1
  O  O15  1  0.18917593  0.56169896  0.73142352  1
  O  O16  1  0.20005245  0.92122084  0.41953277  1
  O  O17  1  0.19648856  0.42447044  0.91702749  1
  O  O18  1  0.71933502  0.01242098  0.13001439  1
  O  O19  1  0.58012599  0.60904755  0.99606666  1
  O  O20  1  0.57857327  0.11616311  0.49857886  1
  O  O21  1  0.09907474  0.97519247  0.76715442  1
  O  O22  1  0.73182798  0.32209072  0.06652866  1
  O  O23  1  0.57773295  0.40120474  0.41047101  1
  O  O24  1  0.41710114  0.58645127  0.60120178  1
  O  O25  1  0.27698478  0.67245451  0.92594992  1
  O  O26  1  0.90002301  0.02590637  0.22706415  1
  O  O27  1  0.42639867  0.88481092  0.50051911  1
  O  O28  1  0.42437737  0.38620071  0.99768141  1
  O  O29  1  0.26824476  0.99526755  0.87132100  1
  O  O30  1  0.79837888  0.58116617  0.08023427  1
  O  O31  1  0.80175535  0.08601832  0.58140792  1
  O  O32  1  0.79215766  0.43228538  0.27109551  1
  O  O33  1  0.42187773  0.88823067  0.69404126  1
  O  O34  1  0.73059280  0.57110906  0.43984001  1
  O  O35  1  0.74196599  0.06920168  0.93200548  1
  O  O36  1  0.90614759  0.23891117  0.39662914  1
  O  O37  1  0.58062957  0.61121649  0.80535741  1
  O  O38  1  0.72949791  0.50780511  0.62706011  1
  O  O39  1  0.79398157  0.79501654  0.25150775  1
  O  O40  1  0.80580311  0.28140860  0.74448748  1
  O  O41  1  0.72847045  0.83310650  0.57447597  1
  O  O42  1  0.58295759  0.90512566  0.89807086  1
  O  O43  1  0.90359167  0.51878017  0.72959129  1
  O  O44  1  0.90082660  0.87859138  0.42638583  1
  O  O45  1  0.90502153  0.38026845  0.92199726  1
  O  O46  1  0.80799452  0.92986092  0.76393461  1
  O  O47  1  0.90618002  0.73528654  0.89320049  1
loop_
_geom_bond_atom_site_label_1
_geom_bond_atom_site_label_2
_geom_bond_distance
_geom_bond_site_symmetry_2
Li0 O1 1.956751 1_555
Li0 O4 1.991316 1_555
Li0 O6 2.032009 1_555
Li0 O36 2.215394 1_455
Li1 O12 2.002083 1_555
Li1 O2 2.005875 1_555
Li1 O7 2.026082 1_555
Li1 O26 2.214666 1_465
Li2 O8 1.963626 1_555
Li2 O13 1.980144 1_555
Li2 O3 2.012060 1_555
Li2 O43 2.179068 1_455
Li3 O16 1.968741 1_555
Li3 O11 2.012927 1_555
Li3 O9 2.012936 1_555
Li3 O44 2.157696 1_455
Li4 O0 1.977510 1_556
Li4 O17 1.989042 1_555
Li4 O29 1.998130 1_545
Li4 O45 2.183783 1_455
Li5 O25 1.957333 1_555
Li5 O15 2.002341 1_555
Li5 O21 2.019210 1_555
Li5 O47 2.227193 1_455
Li6 O32 1.964658 1_555
Li6 O22 1.974918 1_555
Li6 O26 2.000290 1_555
Li6 O0 2.169683 1_655
Li7 O30 1.979003 1_555
Li7 O18 2.042767 1_565
Li7 O47 2.062639 1_554
Li7 O2 2.153907 1_655
Li8 O31 1.960148 1_555
Li8 O38 1.977443 1_555
Li8 O36 2.003866 1_555
Li8 O3 2.221480 1_655
Li9 O39 1.968478 1_555
Li9 O34 2.011730 1_555
Li9 O44 2.034426 1_555
Li9 O4 2.109422 1_655
Li10 O35 1.927329 1_555
Li10 O40 2.009232 1_555
Li10 O45 2.014017 1_555
Li10 O21 2.259397 1_645
Li11 O41 1.920927 1_555
Li11 O46 1.945261 1_555
Li11 O43 2.003072 1_555
Li11 O11 2.211169 1_655
Mn0 O7 2.018539 1_555
Mn0 O36 2.047408 1_465
Mn0 O16 2.106447 1_555
Mn0 O26 2.115257 1_465
Mn0 O1 2.139278 1_565
Mn0 O44 2.162562 1_455
Mn1 O28 1.935285 1_554
Mn1 O5 1.945556 1_555
Mn1 O18 2.015934 1_555
Mn1 O10 2.057332 1_555
Mn1 O22 2.113715 1_555
Mn1 O35 2.207143 1_554
Mn2 O27 1.914307 1_555
Mn2 O33 1.995550 1_555
Mn2 O38 2.025374 1_555
Mn2 O24 2.035132 1_555
Mn2 O34 2.086096 1_555
Mn2 O41 2.183226 1_555
Mn3 O30 2.118088 1_555
Mn3 O0 2.135626 1_655
Mn3 O39 2.150778 1_555
Mn3 O4 2.172037 1_655
Mn3 O32 2.186043 1_555
Mn3 O2 2.196699 1_655
O0 P0 1.571824 1_555
O1 P0 1.539744 1_555
O2 P5 1.565020 1_554
O3 P1 1.586452 1_555
O3 V3 2.096462 1_455
O4 P2 1.568916 1_555
O5 P0 1.525689 1_555
O6 P1 1.562259 1_555
O6 V1 2.089225 1_555
O7 P2 1.551932 1_555
O8 P3 1.553761 1_555
O8 V0 2.038828 1_555
O9 P2 1.590648 1_555
O9 V1 1.991192 1_555
O10 P2 1.499481 1_555
O11 P4 1.589650 1_555
O11 V3 2.080376 1_465
O12 P0 1.568428 1_565
O12 V2 2.061548 1_554
O13 P4 1.570100 1_555
O13 V1 2.074223 1_555
O14 P8 1.552310 1_545
O14 V1 1.916896 1_555
O15 P4 1.552702 1_555
O15 V0 2.032843 1_555
O16 P1 1.534530 1_565
O17 P5 1.562565 1_555
O17 V0 2.039934 1_555
O18 P8 1.560275 1_545
O19 P6 1.529034 1_556
O19 V2 1.924779 1_555
O20 P10 1.568213 1_545
O20 V1 1.877849 1_555
O21 P3 1.588377 1_565
O21 V3 2.060068 1_465
O22 P6 1.551393 1_555
O23 P7 1.539294 1_555
O23 V1 1.926728 1_555
O24 P4 1.499694 1_555
O25 P5 1.557245 1_555
O25 V2 2.087947 1_555
O26 P8 1.569579 1_545
O27 P1 1.528742 1_565
O28 P5 1.530593 1_555
O29 P3 1.554703 1_565
O29 V2 2.065138 1_555
O30 P6 1.534548 1_555
O31 P10 1.553644 1_545
O31 V3 2.057138 1_555
O32 P7 1.523915 1_555
O33 P3 1.512974 1_565
O34 P7 1.558784 1_555
O35 P11 1.533887 1_545
O36 P7 1.586307 1_555
O37 P9 1.509954 1_555
O37 V2 1.995848 1_555
O38 P9 1.564010 1_555
O39 P8 1.530249 1_555
O40 P9 1.553773 1_555
O40 V3 2.039341 1_555
O41 P10 1.524892 1_555
O42 P11 1.526429 1_555
O42 V2 1.987128 1_555
O43 P9 1.580843 1_555
O43 V0 2.082411 1_655
O44 P10 1.557823 1_555
O45 P6 1.591907 1_556
O45 V0 2.074683 1_655
O46 P11 1.561731 1_555
O46 V3 2.038907 1_565
O47 P11 1.589065 1_555
O47 V0 2.039603 1_655
