# generated using pymatgen
data_Y2MgMn2S2O5
_symmetry_space_group_name_H-M   'P 1'
_cell_length_a   11.60201140
_cell_length_b   11.60201140
_cell_length_c   11.60201140
_cell_angle_alpha   160.33109292
_cell_angle_beta   160.29152633
_cell_angle_gamma   27.98456661
_symmetry_Int_Tables_number   1
_chemical_formula_structural   Y2MgMn2S2O5
_chemical_formula_sum   'Y2 Mg1 Mn2 S2 O5'
_cell_volume   177.18572223
_cell_formula_units_Z   1
loop_
 _symmetry_equiv_pos_site_id
 _symmetry_equiv_pos_as_xyz
  1  'x, y, z'
loop_
 _atom_site_type_symbol
 _atom_site_label
 _atom_site_symmetry_multiplicity
 _atom_site_fract_x
 _atom_site_fract_y
 _atom_site_fract_z
 _atom_site_occupancy
  Y  Y0  1  0.33675300  0.83675300  0.50000000  1
  Y  Y1  1  0.66324700  0.16324700  0.50000000  1
  Mg  Mg0  1  0.00000000  0.00000000  0.00000000  1
  Mn  Mn0  1  0.09178200  0.59178200  0.50000000  1
  Mn  Mn1  1  0.90821800  0.40821800  0.50000000  1
  S  S0  1  0.20517700  0.70517700  0.50000000  1
  S  S1  1  0.79482300  0.29482300  0.50000000  1
  O  O0  1  0.60543700  0.60543700  0.00000000  1
  O  O1  1  0.39456300  0.39456300  0.00000000  1
  O  O2  1  0.09218800  0.09218800  0.00000000  1
  O  O3  1  0.90781200  0.90781200  0.00000000  1
  O  O4  1  0.00000000  0.50000000  0.50000000  1
loop_
_geom_bond_atom_site_label_1
_geom_bond_atom_site_label_2
_geom_bond_distance
_geom_bond_site_symmetry_2
Mg0 O4 1.981647 1_555
Mg0 O4 1.981647 1_544
Mg0 O2 2.075661 1_555
Mg0 O3 2.075661 1_445
Mn0 O2 1.981668 1_566
Mn0 O2 1.981668 1_555
Mn0 O0 2.009256 1_455
Mn0 O0 2.009256 1_556
Mn0 O4 2.066519 1_555
Mn0 S0 2.553147 1_555
Mn1 O3 1.981668 1_556
Mn1 O3 1.981668 1_545
Mn1 O1 2.009256 1_555
Mn1 O1 2.009256 1_656
Mn1 O4 2.066519 1_655
Mn1 S1 2.553147 1_555
S0 Y1 2.959863 1_555
S0 Y1 2.959863 1_465
S0 Y1 2.959863 1_454
S0 Y1 2.959863 1_566
S0 Y0 2.962502 1_555
S1 Y0 2.959863 1_544
S1 Y0 2.959863 1_555
S1 Y0 2.959863 1_656
S1 Y0 2.959863 1_645
S1 Y1 2.962502 1_555
O0 Y1 2.370895 1_565
O0 Y1 2.370895 1_554
O1 Y0 2.370895 1_544
O1 Y0 2.370895 1_555
O2 Y1 2.549973 1_555
O2 Y1 2.549973 1_454
O3 Y0 2.549973 1_655
O3 Y0 2.549973 1_554
