# generated using pymatgen
data_ZnCoTe3O8
_symmetry_space_group_name_H-M   'P 1'
_cell_length_a   5.30326300
_cell_length_b   12.84966953
_cell_length_c   11.88868656
_cell_angle_alpha   99.34616189
_cell_angle_beta   90.00087574
_cell_angle_gamma   89.99922853
_symmetry_Int_Tables_number   1
_chemical_formula_structural   ZnCoTe3O8
_chemical_formula_sum   'Zn4 Co4 Te12 O32'
_cell_volume   799.40197796
_cell_formula_units_Z   4
loop_
 _symmetry_equiv_pos_site_id
 _symmetry_equiv_pos_as_xyz
  1  'x, y, z'
loop_
 _atom_site_type_symbol
 _atom_site_label
 _atom_site_symmetry_multiplicity
 _atom_site_fract_x
 _atom_site_fract_y
 _atom_site_fract_z
 _atom_site_occupancy
  Zn  Zn0  1  0.78974300  0.27103600  0.15620800  1
  Zn  Zn1  1  0.28975800  0.77102900  0.15620800  1
  Zn  Zn2  1  0.28975900  0.22897300  0.34379100  1
  Zn  Zn3  1  0.78974500  0.72896900  0.34379300  1
  Co  Co0  1  0.20750000  0.72915700  0.84800500  1
  Co  Co1  1  0.20750300  0.27083700  0.65199100  1
  Co  Co2  1  0.70742900  0.22914300  0.84799900  1
  Co  Co3  1  0.70742800  0.77085700  0.65199700  1
  Te  Te0  1  0.85864500  0.50000000  0.74999900  1
  Te  Te1  1  0.35865100  0.00000100  0.75000000  1
  Te  Te2  1  0.63610900  0.00000000  0.25000000  1
  Te  Te3  1  0.13611200  0.49999600  0.25000100  1
  Te  Te4  1  0.19650900  0.36251500  0.94399200  1
  Te  Te5  1  0.69657000  0.86251000  0.94398400  1
  Te  Te6  1  0.69656300  0.13749300  0.55601700  1
  Te  Te7  1  0.19651500  0.63748200  0.55600900  1
  Te  Te8  1  0.30452000  0.13696300  0.05186700  1
  Te  Te9  1  0.80455200  0.63696500  0.05185700  1
  Te  Te10  1  0.80455400  0.36303600  0.44814500  1
  Te  Te11  1  0.30452600  0.86303900  0.44812900  1
  O  O0  1  0.91604800  0.41843000  0.14368300  1
  O  O1  1  0.41605500  0.91843100  0.14368300  1
  O  O2  1  0.41606200  0.08157200  0.35631900  1
  O  O3  1  0.91605700  0.58156900  0.35631600  1
  O  O4  1  0.57944900  0.08126800  0.85645300  1
  O  O5  1  0.07944000  0.58128800  0.85644100  1
  O  O6  1  0.07943200  0.41870200  0.64356200  1
  O  O7  1  0.57945500  0.91873800  0.64355100  1
  O  O8  1  0.48993000  0.26391900  0.03192200  1
  O  O9  1  0.98997800  0.76392700  0.03192500  1
  O  O10  1  0.98997900  0.23607400  0.46807400  1
  O  O11  1  0.48993500  0.73608100  0.46808400  1
  O  O12  1  0.01853700  0.23383000  0.96217600  1
  O  O13  1  0.51863700  0.73381000  0.96215800  1
  O  O14  1  0.51865200  0.26619500  0.53784200  1
  O  O15  1  0.01853000  0.76616600  0.53782500  1
  O  O16  1  0.38013600  0.30446400  0.80965500  1
  O  O17  1  0.88016600  0.80447000  0.80964300  1
  O  O18  1  0.88016700  0.19552700  0.69035700  1
  O  O19  1  0.38014500  0.69553400  0.69034600  1
  O  O20  1  0.12263500  0.19712600  0.18640800  1
  O  O21  1  0.62265300  0.69713200  0.18639900  1
  O  O22  1  0.62265900  0.30286900  0.31359900  1
  O  O23  1  0.12262400  0.80287800  0.31359300  1
  O  O24  1  0.88567900  0.38572300  0.85963500  1
  O  O25  1  0.38571000  0.88569700  0.85961700  1
  O  O26  1  0.38570500  0.11430700  0.64037900  1
  O  O27  1  0.88569000  0.61427400  0.64036500  1
  O  O28  1  0.61178100  0.11338400  0.13899000  1
  O  O29  1  0.11180200  0.61338800  0.13899400  1
  O  O30  1  0.11180500  0.38661300  0.36100700  1
  O  O31  1  0.61177600  0.88661200  0.36100900  1
loop_
_geom_bond_atom_site_label_1
_geom_bond_atom_site_label_2
_geom_bond_distance
_geom_bond_site_symmetry_2
Co0 O5 2.035552 1_555
Co0 O19 2.067653 1_555
Co0 O17 2.073959 1_455
Co0 O13 2.131101 1_555
Co0 O25 2.206399 1_555
Co0 O9 2.448304 1_456
Co1 O6 2.035489 1_555
Co1 O16 2.067660 1_555
Co1 O18 2.073996 1_455
Co1 O14 2.131161 1_555
Co1 O26 2.206244 1_555
Co1 O10 2.448249 1_455
Co2 O4 2.035526 1_555
Co2 O18 2.067690 1_555
Co2 O16 2.073765 1_555
Co2 O12 2.131129 1_655
Co2 O24 2.206929 1_555
Co2 O8 2.448280 1_556
Co3 O7 2.035549 1_555
Co3 O17 2.067709 1_555
Co3 O19 2.073785 1_555
Co3 O15 2.131094 1_655
Co3 O27 2.206974 1_555
Co3 O11 2.448136 1_555
O0 Te3 1.904700 1_655
O0 Zn0 2.037052 1_555
O1 Te2 1.904678 1_565
O1 Zn1 2.037135 1_555
O2 Te2 1.904692 1_555
O2 Zn2 2.037123 1_555
O3 Te3 1.904696 1_655
O3 Zn3 2.037113 1_555
O4 Te1 1.906315 1_555
O5 Te0 1.906349 1_455
O6 Te0 1.906351 1_455
O7 Te1 1.906291 1_565
O8 Te8 1.951930 1_555
O8 Zn0 2.162350 1_555
O8 Te4 2.355712 1_554
O9 Te9 1.951999 1_555
O9 Zn1 2.162211 1_655
O9 Te5 2.355634 1_554
O10 Te10 1.951961 1_555
O10 Zn2 2.162243 1_655
O10 Te6 2.355703 1_555
O11 Te11 1.951954 1_555
O11 Zn3 2.162415 1_555
O11 Te7 2.355744 1_555
O12 Te4 1.946271 1_555
O12 Te8 2.327553 1_556
O12 Zn0 2.581458 1_456
O13 Te5 1.946308 1_555
O13 Te9 2.327198 1_556
O13 Zn1 2.581861 1_556
O14 Te6 1.946252 1_555
O14 Te10 2.327152 1_555
O14 Zn2 2.581881 1_555
O15 Te7 1.946268 1_555
O15 Te11 2.327721 1_555
O15 Zn3 2.581404 1_455
O16 Te4 1.915342 1_555
O17 Te5 1.915259 1_555
O18 Te6 1.915238 1_555
O19 Te7 1.915339 1_555
O20 Te8 1.919614 1_555
O20 Zn2 2.050656 1_555
O20 Zn0 2.063552 1_455
O21 Te9 1.919674 1_555
O21 Zn3 2.050691 1_555
O21 Zn1 2.063458 1_555
O22 Te10 1.919686 1_555
O22 Zn0 2.050659 1_555
O22 Zn2 2.063508 1_555
O23 Te11 1.919593 1_555
O23 Zn1 2.050721 1_555
O23 Zn3 2.063518 1_455
O24 Te4 1.977137 1_655
O24 Te0 2.120704 1_555
O25 Te5 1.977270 1_555
O25 Te1 2.120824 1_565
O26 Te6 1.977259 1_555
O26 Te1 2.120882 1_555
O27 Te7 1.977141 1_655
O27 Te0 2.120666 1_555
O28 Te8 1.980334 1_555
O28 Te2 2.122648 1_555
O28 Zn0 2.213990 1_555
O29 Te9 1.980371 1_455
O29 Te3 2.122697 1_555
O29 Zn1 2.213852 1_555
O30 Te10 1.980415 1_455
O30 Te3 2.122601 1_555
O30 Zn2 2.213814 1_555
O31 Te11 1.980281 1_555
O31 Te2 2.122686 1_565
O31 Zn3 2.213882 1_555
