# generated using pymatgen
data_Na2Eu2Ti3O10
_symmetry_space_group_name_H-M   'P 1'
_cell_length_a   14.56303790
_cell_length_b   14.56303790
_cell_length_c   14.56303790
_cell_angle_alpha   164.76121868
_cell_angle_beta   164.76121868
_cell_angle_gamma   21.61538325
_symmetry_Int_Tables_number   1
_chemical_formula_structural   Na2Eu2Ti3O10
_chemical_formula_sum   'Na2 Eu2 Ti3 O10'
_cell_volume   213.34226965
_cell_formula_units_Z   1
loop_
 _symmetry_equiv_pos_site_id
 _symmetry_equiv_pos_as_xyz
  1  'x, y, z'
loop_
 _atom_site_type_symbol
 _atom_site_label
 _atom_site_symmetry_multiplicity
 _atom_site_fract_x
 _atom_site_fract_y
 _atom_site_fract_z
 _atom_site_occupancy
  Na  Na0  1  0.28865500  0.28865500  0.00000000  1
  Na  Na1  1  0.71134500  0.71134500  0.00000000  1
  Eu  Eu0  1  0.42446300  0.42446300  0.00000000  1
  Eu  Eu1  1  0.57553700  0.57553700  0.00000000  1
  Ti  Ti0  1  0.14661400  0.14661400  0.00000000  1
  Ti  Ti1  1  0.85338600  0.85338600  0.00000000  1
  Ti  Ti2  1  0.00000000  0.00000000  0.00000000  1
  O  O0  1  0.36743700  0.86743700  0.50000000  1
  O  O1  1  0.86743700  0.36743700  0.50000000  1
  O  O2  1  0.63256300  0.13256300  0.50000000  1
  O  O3  1  0.13256300  0.63256300  0.50000000  1
  O  O4  1  0.79176800  0.79176800  0.00000000  1
  O  O5  1  0.20823200  0.20823200  0.00000000  1
  O  O6  1  0.93240600  0.93240600  0.00000000  1
  O  O7  1  0.00000000  0.50000000  0.50000000  1
  O  O8  1  0.50000000  0.00000000  0.50000000  1
  O  O9  1  0.06759400  0.06759400  0.00000000  1
loop_
_geom_bond_atom_site_label_1
_geom_bond_atom_site_label_2
_geom_bond_distance
_geom_bond_site_symmetry_2
Na0 O5 2.300857 1_555
Na0 O4 2.732213 1_455
Na0 O4 2.732213 1_556
Na0 O4 2.732213 1_444
Na0 O4 2.732213 1_545
Na1 O4 2.300857 1_555
Na1 O5 2.732213 1_666
Na1 O5 2.732213 1_554
Na1 O5 2.732213 1_655
Na1 O5 2.732213 1_565
Eu0 O1 2.527897 1_454
Eu0 O0 2.527897 1_544
Eu0 O0 2.527897 1_555
Eu0 O1 2.527897 1_555
Eu0 O6 2.740200 1_455
Eu0 O6 2.740200 1_556
Eu0 O6 2.740200 1_444
Eu0 O6 2.740200 1_545
Eu0 O7 2.898061 1_554
Eu0 O8 2.898061 1_554
Eu0 O7 2.898061 1_655
Eu0 O8 2.898061 1_565
Eu1 O2 2.527897 1_554
Eu1 O3 2.527897 1_655
Eu1 O3 2.527897 1_554
Eu1 O2 2.527897 1_565
Eu1 O9 2.740200 1_655
Eu1 O9 2.740200 1_565
Eu1 O9 2.740200 1_554
Eu1 O9 2.740200 1_666
Eu1 O8 2.898061 1_554
Eu1 O8 2.898061 1_565
Eu1 O7 2.898061 1_655
Eu1 O7 2.898061 1_554
O0 Ti1 1.972340 1_556
O0 Ti1 1.972340 1_455
O1 Ti1 1.972340 1_556
O1 Ti1 1.972340 1_545
O2 Ti0 1.972340 1_656
O2 Ti0 1.972340 1_555
O3 Ti0 1.972340 1_566
O3 Ti0 1.972340 1_555
O4 Ti1 1.762856 1_555
O5 Ti0 1.762856 1_555
O6 Ti2 1.933826 1_665
O6 Ti1 2.260718 1_555
O7 Ti2 1.930940 1_566
O7 Ti2 1.930940 1_555
O8 Ti2 1.930940 1_656
O8 Ti2 1.930940 1_555
O9 Ti2 1.933826 1_555
O9 Ti0 2.260718 1_555
