# generated using pymatgen
data_TmCuSn
_symmetry_space_group_name_H-M   'P 1'
_cell_length_a   4.45744360
_cell_length_b   4.45744360
_cell_length_c   7.27862460
_cell_angle_alpha   90.00000000
_cell_angle_beta   90.00000000
_cell_angle_gamma   120.00000630
_symmetry_Int_Tables_number   1
_chemical_formula_structural   TmCuSn
_chemical_formula_sum   'Tm2 Cu2 Sn2'
_cell_volume   125.24247443
_cell_formula_units_Z   2
loop_
 _symmetry_equiv_pos_site_id
 _symmetry_equiv_pos_as_xyz
  1  'x, y, z'
loop_
 _atom_site_type_symbol
 _atom_site_label
 _atom_site_symmetry_multiplicity
 _atom_site_fract_x
 _atom_site_fract_y
 _atom_site_fract_z
 _atom_site_occupancy
  Tm  Tm0  1  0.00000000  0.00000000  0.50000000  1
  Tm  Tm1  1  0.00000000  0.00000000  -0.00000000  1
  Cu  Cu0  1  0.33333300  0.66666700  0.25000000  1
  Cu  Cu1  1  0.66666700  0.33333300  0.75000000  1
  Sn  Sn0  1  0.33333300  0.66666700  0.75000000  1
  Sn  Sn1  1  0.66666700  0.33333300  0.25000000  1
loop_
_geom_bond_atom_site_label_1
_geom_bond_atom_site_label_2
_geom_bond_distance
_geom_bond_site_symmetry_2
Cu0 Sn1 2.573504 1_455
Cu0 Sn1 2.573504 1_565
Cu0 Sn1 2.573511 1_555
Cu0 Tm1 3.151836 1_565
Cu0 Tm0 3.151836 1_565
Cu0 Tm0 3.151839 1_665
Cu0 Tm1 3.151839 1_665
Cu0 Tm0 3.151839 1_555
Cu0 Tm1 3.151839 1_555
Cu1 Sn0 2.573504 1_545
Cu1 Sn0 2.573504 1_655
Cu1 Sn0 2.573511 1_555
Cu1 Tm1 3.151836 1_656
Cu1 Tm0 3.151836 1_655
Cu1 Tm0 3.151839 1_665
Cu1 Tm0 3.151839 1_555
Cu1 Tm1 3.151839 1_666
Cu1 Tm1 3.151839 1_556
Sn0 Tm1 3.151836 1_566
Sn0 Tm0 3.151836 1_565
Sn0 Tm0 3.151839 1_665
Sn0 Tm0 3.151839 1_555
Sn0 Tm1 3.151839 1_666
Sn0 Tm1 3.151839 1_556
Sn1 Tm1 3.151836 1_655
Sn1 Tm0 3.151836 1_655
Sn1 Tm0 3.151839 1_665
Sn1 Tm1 3.151839 1_665
Sn1 Tm0 3.151839 1_555
Sn1 Tm1 3.151839 1_555
