# generated using pymatgen
data_Zr9Mo4O3
_symmetry_space_group_name_H-M   'P 1'
_cell_length_a   8.72819646
_cell_length_b   8.72819646
_cell_length_c   8.55180300
_cell_angle_alpha   90.00000000
_cell_angle_beta   90.00000000
_cell_angle_gamma   120.00000351
_symmetry_Int_Tables_number   1
_chemical_formula_structural   Zr9Mo4O3
_chemical_formula_sum   'Zr18 Mo8 O6'
_cell_volume   564.20551979
_cell_formula_units_Z   2
loop_
 _symmetry_equiv_pos_site_id
 _symmetry_equiv_pos_as_xyz
  1  'x, y, z'
loop_
 _atom_site_type_symbol
 _atom_site_label
 _atom_site_symmetry_multiplicity
 _atom_site_fract_x
 _atom_site_fract_y
 _atom_site_fract_z
 _atom_site_occupancy
  Zr  Zr0  1  0.45355000  0.90710100  0.25000000  1
  Zr  Zr1  1  0.54645000  0.09289900  0.75000000  1
  Zr  Zr2  1  0.09289900  0.54645000  0.25000000  1
  Zr  Zr3  1  0.90710100  0.45355000  0.75000000  1
  Zr  Zr4  1  0.45355000  0.54645000  0.25000000  1
  Zr  Zr5  1  0.54645000  0.45355000  0.75000000  1
  Zr  Zr6  1  0.20613500  0.41227000  0.56375300  1
  Zr  Zr7  1  0.79386500  0.58773000  0.43624700  1
  Zr  Zr8  1  0.58773000  0.79386500  0.56375300  1
  Zr  Zr9  1  0.79386500  0.58773000  0.06375300  1
  Zr  Zr10  1  0.41227000  0.20613500  0.43624700  1
  Zr  Zr11  1  0.20613500  0.41227000  0.93624700  1
  Zr  Zr12  1  0.20613500  0.79386500  0.56375300  1
  Zr  Zr13  1  0.41227000  0.20613500  0.06375300  1
  Zr  Zr14  1  0.79386500  0.20613500  0.43624700  1
  Zr  Zr15  1  0.58773000  0.79386500  0.93624700  1
  Zr  Zr16  1  0.79386500  0.20613500  0.06375300  1
  Zr  Zr17  1  0.20613500  0.79386500  0.93624700  1
  Mo  Mo0  1  0.10836700  0.21673300  0.25000000  1
  Mo  Mo1  1  0.89163300  0.78326700  0.75000000  1
  Mo  Mo2  1  0.78326700  0.89163300  0.25000000  1
  Mo  Mo3  1  0.21673300  0.10836700  0.75000000  1
  Mo  Mo4  1  0.10836700  0.89163300  0.25000000  1
  Mo  Mo5  1  0.89163300  0.10836700  0.75000000  1
  Mo  Mo6  1  0.00000000  0.00000000  0.00000000  1
  Mo  Mo7  1  0.00000000  0.00000000  0.50000000  1
  O  O0  1  0.50000000  0.00000000  0.00000000  1
  O  O1  1  0.00000000  0.50000000  0.00000000  1
  O  O2  1  0.50000000  0.00000000  0.50000000  1
  O  O3  1  0.50000000  0.50000000  0.00000000  1
  O  O4  1  0.00000000  0.50000000  0.50000000  1
  O  O5  1  0.50000000  0.50000000  0.50000000  1
loop_
_geom_bond_atom_site_label_1
_geom_bond_atom_site_label_2
_geom_bond_distance
_geom_bond_site_symmetry_2
Mo0 Mo6 2.693454 1_555
Mo0 Mo7 2.693454 1_555
Mo0 Mo2 2.837537 1_445
Mo0 Mo4 2.837537 1_545
Mo0 Zr4 2.947649 1_555
Mo0 Zr2 2.947658 1_555
Mo0 Zr6 3.063314 1_555
Mo0 Zr11 3.063314 1_554
Mo0 Zr10 3.134749 1_555
Mo0 Zr13 3.134749 1_555
Mo0 Zr14 3.134757 1_455
Mo0 Zr16 3.134757 1_455
Mo1 Mo6 2.693454 1_666
Mo1 Mo7 2.693454 1_665
Mo1 Mo3 2.837537 1_665
Mo1 Mo5 2.837537 1_565
Mo1 Zr5 2.947649 1_555
Mo1 Zr3 2.947658 1_555
Mo1 Zr9 3.063314 1_556
Mo1 Zr7 3.063314 1_555
Mo1 Zr15 3.134749 1_555
Mo1 Zr8 3.134749 1_555
Mo1 Zr17 3.134757 1_655
Mo1 Zr12 3.134757 1_655
Mo2 Mo6 2.693454 1_665
Mo2 Mo7 2.693454 1_665
Mo2 Mo4 2.837537 1_655
Mo2 Zr4 2.947649 1_555
Mo2 Zr0 2.947658 1_555
Mo2 Zr8 3.063314 1_555
Mo2 Zr15 3.063314 1_554
Mo2 Zr7 3.134749 1_555
Mo2 Zr9 3.134749 1_555
Mo2 Zr14 3.134757 1_565
Mo2 Zr16 3.134757 1_565
Mo3 Mo7 2.693454 1_555
Mo3 Mo6 2.693454 1_556
Mo3 Mo5 2.837537 1_455
Mo3 Zr5 2.947649 1_555
Mo3 Zr1 2.947658 1_555
Mo3 Zr13 3.063314 1_556
Mo3 Zr10 3.063314 1_555
Mo3 Zr11 3.134749 1_555
Mo3 Zr6 3.134749 1_555
Mo3 Zr17 3.134757 1_545
Mo3 Zr12 3.134757 1_545
Mo4 Mo6 2.693459 1_565
Mo4 Mo7 2.693459 1_565
Mo4 Zr2 2.947641 1_555
Mo4 Zr0 2.947641 1_555
Mo4 Zr12 3.063311 1_555
Mo4 Zr17 3.063311 1_554
Mo4 Zr7 3.134753 1_455
Mo4 Zr10 3.134753 1_565
Mo4 Zr9 3.134753 1_455
Mo4 Zr13 3.134753 1_565
Mo5 Mo7 2.693459 1_655
Mo5 Mo6 2.693459 1_656
Mo5 Zr1 2.947641 1_555
Mo5 Zr3 2.947641 1_555
Mo5 Zr16 3.063311 1_556
Mo5 Zr14 3.063311 1_555
Mo5 Zr15 3.134753 1_545
Mo5 Zr11 3.134753 1_655
Mo5 Zr8 3.134753 1_545
Mo5 Zr6 3.134753 1_655
Mo6 Zr9 3.163616 1_445
Mo6 Zr13 3.163616 1_555
Mo6 Zr15 3.163616 1_444
Mo6 Zr11 3.163616 1_554
Mo6 Zr16 3.163616 1_455
Mo6 Zr17 3.163616 1_544
Mo7 Zr7 3.163616 1_445
Mo7 Zr8 3.163616 1_445
Mo7 Zr10 3.163616 1_555
Mo7 Zr6 3.163616 1_555
Mo7 Zr14 3.163616 1_455
Mo7 Zr12 3.163616 1_545
O0 Zr1 2.250318 1_554
O0 Zr0 2.250318 1_545
O0 Zr16 2.344853 1_555
O0 Zr17 2.344853 1_544
O0 Zr13 2.344853 1_555
O0 Zr15 2.344853 1_544
O1 Zr2 2.250318 1_555
O1 Zr3 2.250318 1_454
O1 Zr17 2.344853 1_554
O1 Zr16 2.344853 1_455
O1 Zr11 2.344853 1_554
O1 Zr9 2.344853 1_455
O2 Zr1 2.250318 1_555
O2 Zr0 2.250318 1_545
O2 Zr14 2.344853 1_555
O2 Zr12 2.344853 1_545
O2 Zr10 2.344853 1_555
O2 Zr8 2.344853 1_545
O3 Zr5 2.250320 1_554
O3 Zr4 2.250320 1_555
O3 Zr9 2.344853 1_555
O3 Zr15 2.344853 1_554
O3 Zr13 2.344853 1_555
O3 Zr11 2.344853 1_554
O4 Zr2 2.250318 1_555
O4 Zr3 2.250318 1_455
O4 Zr12 2.344853 1_555
O4 Zr14 2.344853 1_455
O4 Zr6 2.344853 1_555
O4 Zr7 2.344853 1_455
O5 Zr5 2.250320 1_555
O5 Zr4 2.250320 1_555
O5 Zr8 2.344853 1_555
O5 Zr7 2.344853 1_555
O5 Zr6 2.344853 1_555
O5 Zr10 2.344853 1_555
