# generated using pymatgen
data_Li3MgZn5(BH4)15
_symmetry_space_group_name_H-M   'P 1'
_cell_length_a   8.75570815
_cell_length_b   15.50922903
_cell_length_c   15.50922903
_cell_angle_alpha   117.36057947
_cell_angle_beta   90.00000000
_cell_angle_gamma   90.00000000
_symmetry_Int_Tables_number   1
_chemical_formula_structural   Li3MgZn5(BH4)15
_chemical_formula_sum   'Li6 Mg2 Zn10 B30 H120'
_cell_volume   1870.46297738
_cell_formula_units_Z   2
loop_
 _symmetry_equiv_pos_site_id
 _symmetry_equiv_pos_as_xyz
  1  'x, y, z'
loop_
 _atom_site_type_symbol
 _atom_site_label
 _atom_site_symmetry_multiplicity
 _atom_site_fract_x
 _atom_site_fract_y
 _atom_site_fract_z
 _atom_site_occupancy
  Li  Li0  1  0.25000000  0.99321384  0.38694552  1
  Li  Li1  1  0.75000000  0.61305448  0.00678616  1
  Li  Li2  1  0.75000000  0.00678616  0.61305448  1
  Li  Li3  1  0.25000000  0.38694552  0.99321384  1
  Li  Li4  1  0.25000000  0.00301792  0.00301792  1
  Li  Li5  1  0.75000000  0.99698208  0.99698208  1
  Mg  Mg0  1  0.75000000  0.39132373  0.39132373  1
  Mg  Mg1  1  0.25000000  0.60867627  0.60867627  1
  Zn  Zn0  1  0.75000000  0.33603861  0.66906211  1
  Zn  Zn1  1  0.25000000  0.33093789  0.66396139  1
  Zn  Zn2  1  0.25000000  0.66396139  0.33093789  1
  Zn  Zn3  1  0.75000000  0.66906211  0.33603861  1
  Zn  Zn4  1  0.25000000  0.28346476  0.28346476  1
  Zn  Zn5  1  0.75000000  0.71653524  0.71653524  1
  Zn  Zn6  1  0.75000000  0.99708372  0.28898750  1
  Zn  Zn7  1  0.25000000  0.71101250  0.00291628  1
  Zn  Zn8  1  0.25000000  0.00291628  0.71101250  1
  Zn  Zn9  1  0.75000000  0.28898750  0.99708372  1
  B  B0  1  0.25000000  0.14912159  0.14912159  1
  B  B1  1  0.75000000  0.85087841  0.85087841  1
  B  B2  1  0.02119069  0.34521237  0.34521237  1
  B  B3  1  0.97880931  0.65478763  0.65478763  1
  B  B4  1  0.47880931  0.34521237  0.34521237  1
  B  B5  1  0.52119069  0.65478763  0.65478763  1
  B  B6  1  0.75000000  0.18566534  0.64596206  1
  B  B7  1  0.25000000  0.35403794  0.81433466  1
  B  B8  1  0.25000000  0.81433466  0.35403794  1
  B  B9  1  0.75000000  0.64596206  0.18566534  1
  B  B10  1  0.75000000  0.47148150  0.80591111  1
  B  B11  1  0.25000000  0.19408889  0.52851850  1
  B  B12  1  0.25000000  0.52851850  0.19408889  1
  B  B13  1  0.75000000  0.80591111  0.47148150  1
  B  B14  1  0.75000000  0.35716939  0.53026198  1
  B  B15  1  0.25000000  0.46973802  0.64283061  1
  B  B16  1  0.25000000  0.64283061  0.46973802  1
  B  B17  1  0.75000000  0.53026198  0.35716939  1
  B  B18  1  0.75000000  0.99707490  0.14559688  1
  B  B19  1  0.25000000  0.85440312  0.00292510  1
  B  B20  1  0.25000000  0.00292510  0.85440312  1
  B  B21  1  0.75000000  0.14559688  0.99707490  1
  B  B22  1  0.98010171  0.00057392  0.34767875  1
  B  B23  1  0.01989829  0.65232125  0.99942608  1
  B  B24  1  0.51989829  0.00057392  0.34767875  1
  B  B25  1  0.48010171  0.65232125  0.99942608  1
  B  B26  1  0.01989829  0.99942608  0.65232125  1
  B  B27  1  0.98010171  0.34767875  0.00057392  1
  B  B28  1  0.48010171  0.99942608  0.65232125  1
  B  B29  1  0.51989829  0.34767875  0.00057392  1
  H  H0  1  0.36894456  0.11075029  0.11075029  1
  H  H1  1  0.63105544  0.88924971  0.88924971  1
  H  H2  1  0.13105544  0.11075029  0.11075029  1
  H  H3  1  0.86894456  0.88924971  0.88924971  1
  H  H4  1  0.25000000  0.23059620  0.15006576  1
  H  H5  1  0.75000000  0.84993424  0.76940380  1
  H  H6  1  0.75000000  0.76940380  0.84993424  1
  H  H7  1  0.25000000  0.15006576  0.23059620  1
  H  H8  1  0.91358263  0.29637577  0.29637577  1
  H  H9  1  0.08641737  0.70362423  0.70362423  1
  H  H10  1  0.58641737  0.29637577  0.29637577  1
  H  H11  1  0.41358263  0.70362423  0.70362423  1
  H  H12  1  0.98950725  0.41897017  0.41897017  1
  H  H13  1  0.01049275  0.58102983  0.58102983  1
  H  H14  1  0.51049275  0.41897017  0.41897017  1
  H  H15  1  0.48950725  0.58102983  0.58102983  1
  H  H16  1  0.09208957  0.29367688  0.37363993  1
  H  H17  1  0.90791043  0.62636007  0.70632312  1
  H  H18  1  0.40791043  0.29367688  0.37363993  1
  H  H19  1  0.59208957  0.62636007  0.70632312  1
  H  H20  1  0.90791043  0.70632312  0.62636007  1
  H  H21  1  0.09208957  0.37363993  0.29367688  1
  H  H22  1  0.59208957  0.70632312  0.62636007  1
  H  H23  1  0.40791043  0.37363993  0.29367688  1
  H  H24  1  0.75000000  0.29142193  0.44667617  1
  H  H25  1  0.25000000  0.55332383  0.70857807  1
  H  H26  1  0.25000000  0.70857807  0.55332383  1
  H  H27  1  0.75000000  0.44667617  0.29142193  1
  H  H28  1  0.75000000  0.55232744  0.81249437  1
  H  H29  1  0.25000000  0.18750563  0.44767256  1
  H  H30  1  0.25000000  0.44767256  0.18750563  1
  H  H31  1  0.75000000  0.81249437  0.55232744  1
  H  H32  1  0.75000000  0.16696968  0.71369545  1
  H  H33  1  0.25000000  0.28630455  0.83303032  1
  H  H34  1  0.25000000  0.83303032  0.28630455  1
  H  H35  1  0.75000000  0.71369545  0.16696968  1
  H  H36  1  0.75000000  0.11860466  0.56459396  1
  H  H37  1  0.25000000  0.43540604  0.88139534  1
  H  H38  1  0.25000000  0.88139534  0.43540604  1
  H  H39  1  0.75000000  0.56459396  0.11860466  1
  H  H40  1  0.75000000  0.46393346  0.88025260  1
  H  H41  1  0.25000000  0.11974740  0.53606654  1
  H  H42  1  0.25000000  0.53606654  0.11974740  1
  H  H43  1  0.75000000  0.88025260  0.46393346  1
  H  H44  1  0.75000000  0.44035976  0.53948708  1
  H  H45  1  0.25000000  0.46051292  0.55964024  1
  H  H46  1  0.25000000  0.55964024  0.46051292  1
  H  H47  1  0.75000000  0.53948708  0.44035976  1
  H  H48  1  0.63010515  0.34809715  0.56698235  1
  H  H49  1  0.36989485  0.43301765  0.65190285  1
  H  H50  1  0.86989485  0.34809715  0.56698235  1
  H  H51  1  0.13010515  0.43301765  0.65190285  1
  H  H52  1  0.36989485  0.65190285  0.43301765  1
  H  H53  1  0.63010515  0.56698235  0.34809715  1
  H  H54  1  0.13010515  0.65190285  0.43301765  1
  H  H55  1  0.86989485  0.56698235  0.34809715  1
  H  H56  1  0.87092244  0.43139485  0.76133658  1
  H  H57  1  0.12907756  0.23866342  0.56860515  1
  H  H58  1  0.62907756  0.43139485  0.76133658  1
  H  H59  1  0.37092244  0.23866342  0.56860515  1
  H  H60  1  0.12907756  0.56860515  0.23866342  1
  H  H61  1  0.87092244  0.76133658  0.43139485  1
  H  H62  1  0.37092244  0.56860515  0.23866342  1
  H  H63  1  0.62907756  0.76133658  0.43139485  1
  H  H64  1  0.62888116  0.23242687  0.65359013  1
  H  H65  1  0.37111884  0.34640987  0.76757313  1
  H  H66  1  0.87111884  0.23242687  0.65359013  1
  H  H67  1  0.12888116  0.34640987  0.76757313  1
  H  H68  1  0.37111884  0.76757313  0.34640987  1
  H  H69  1  0.62888116  0.65359013  0.23242687  1
  H  H70  1  0.12888116  0.76757313  0.34640987  1
  H  H71  1  0.87111884  0.65359013  0.23242687  1
  H  H72  1  0.63145138  0.99647215  0.10447991  1
  H  H73  1  0.36854862  0.89552009  0.00352785  1
  H  H74  1  0.86854862  0.99647215  0.10447991  1
  H  H75  1  0.13145138  0.89552009  0.00352785  1
  H  H76  1  0.36854862  0.00352785  0.89552009  1
  H  H77  1  0.63145138  0.10447991  0.99647215  1
  H  H78  1  0.13145138  0.00352785  0.89552009  1
  H  H79  1  0.86854862  0.10447991  0.99647215  1
  H  H80  1  0.75000000  0.92080412  0.15384546  1
  H  H81  1  0.25000000  0.84615454  0.07919588  1
  H  H82  1  0.25000000  0.07919588  0.84615454  1
  H  H83  1  0.75000000  0.15384546  0.92080412  1
  H  H84  1  0.75000000  0.07416546  0.22311448  1
  H  H85  1  0.25000000  0.77688552  0.92583454  1
  H  H86  1  0.25000000  0.92583454  0.77688552  1
  H  H87  1  0.75000000  0.22311448  0.07416546  1
  H  H88  1  0.08251497  0.00142631  0.29524142  1
  H  H89  1  0.91748503  0.70475858  0.99857369  1
  H  H90  1  0.41748503  0.00142631  0.29524142  1
  H  H91  1  0.58251497  0.70475858  0.99857369  1
  H  H92  1  0.91748503  0.99857369  0.70475858  1
  H  H93  1  0.08251497  0.29524142  0.00142631  1
  H  H94  1  0.58251497  0.99857369  0.70475858  1
  H  H95  1  0.41748503  0.29524142  0.00142631  1
  H  H96  1  0.01606603  0.00047866  0.42319632  1
  H  H97  1  0.98393397  0.57680368  0.99952134  1
  H  H98  1  0.48393397  0.00047866  0.42319632  1
  H  H99  1  0.51606603  0.57680368  0.99952134  1
  H  H100  1  0.98393397  0.99952134  0.57680368  1
  H  H101  1  0.01606603  0.42319632  0.00047866  1
  H  H102  1  0.51606603  0.99952134  0.57680368  1
  H  H103  1  0.48393397  0.42319632  0.00047866  1
  H  H104  1  0.90350365  0.07651073  0.37285847  1
  H  H105  1  0.09649635  0.62714153  0.92348927  1
  H  H106  1  0.59649635  0.07651073  0.37285847  1
  H  H107  1  0.40350365  0.62714153  0.92348927  1
  H  H108  1  0.09649635  0.92348927  0.62714153  1
  H  H109  1  0.90350365  0.37285847  0.07651073  1
  H  H110  1  0.40350365  0.92348927  0.62714153  1
  H  H111  1  0.59649635  0.37285847  0.07651073  1
  H  H112  1  0.59336363  0.92318782  0.30196188  1
  H  H113  1  0.40663637  0.69803812  0.07681218  1
  H  H114  1  0.90663637  0.92318782  0.30196188  1
  H  H115  1  0.09336363  0.69803812  0.07681218  1
  H  H116  1  0.40663637  0.07681218  0.69803812  1
  H  H117  1  0.59336363  0.30196188  0.92318782  1
  H  H118  1  0.09336363  0.07681218  0.69803812  1
  H  H119  1  0.90663637  0.30196188  0.92318782  1
loop_
_geom_bond_atom_site_label_1
_geom_bond_atom_site_label_2
_geom_bond_distance
_geom_bond_site_symmetry_2
B0 H2 1.211356 1_555
B0 H0 1.211356 1_555
B0 H4 1.256946 1_555
B0 H7 1.256946 1_555
B1 H1 1.211356 1_555
B1 H3 1.211356 1_555
B1 H6 1.256946 1_555
B1 H5 1.256946 1_555
B2 H12 1.221182 1_455
B2 H8 1.227909 1_455
B2 H16 1.241971 1_555
B2 H21 1.241971 1_555
B3 H13 1.221182 1_655
B3 H9 1.227909 1_655
B3 H17 1.241971 1_555
B3 H20 1.241971 1_555
B4 H14 1.221182 1_555
B4 H10 1.227909 1_555
B4 H18 1.241971 1_555
B4 H23 1.241971 1_555
B5 H15 1.221182 1_555
B5 H11 1.227909 1_555
B5 H19 1.241971 1_555
B5 H22 1.241971 1_555
B6 H32 1.211440 1_555
B6 H36 1.211540 1_555
B6 H64 1.259253 1_555
B6 H66 1.259253 1_555
B7 H33 1.211440 1_555
B7 H37 1.211540 1_555
B7 H67 1.259253 1_555
B7 H65 1.259253 1_555
B8 H34 1.211440 1_555
B8 H38 1.211540 1_555
B8 H68 1.259253 1_555
B8 H70 1.259253 1_555
B9 H35 1.211440 1_555
B9 H39 1.211540 1_555
B9 H69 1.259253 1_555
B9 H71 1.259253 1_555
B10 H28 1.210335 1_555
B10 H40 1.211251 1_555
B10 H58 1.261094 1_555
B10 H56 1.261094 1_555
B11 H29 1.210335 1_555
B11 H41 1.211251 1_555
B11 H57 1.261094 1_555
B11 H59 1.261094 1_555
B12 H30 1.210335 1_555
B12 H42 1.211251 1_555
B12 H60 1.261094 1_555
B12 H62 1.261094 1_555
B13 H31 1.210335 1_555
B13 H43 1.211251 1_555
B13 H63 1.261094 1_555
B13 H61 1.261094 1_555
B14 H24 1.226889 1_555
B14 H44 1.231039 1_555
B14 H50 1.232799 1_555
B14 H48 1.232799 1_555
B15 H25 1.226889 1_555
B15 H45 1.231039 1_555
B15 H51 1.232799 1_555
B15 H49 1.232799 1_555
B16 H26 1.226889 1_555
B16 H46 1.231039 1_555
B16 H52 1.232799 1_555
B16 H54 1.232799 1_555
B17 H27 1.226889 1_555
B17 H47 1.231039 1_555
B17 H55 1.232799 1_555
B17 H53 1.232799 1_555
B18 H72 1.216000 1_555
B18 H74 1.216000 1_555
B18 H84 1.246448 1_565
B18 H80 1.246883 1_555
B19 H73 1.216000 1_555
B19 H75 1.216000 1_555
B19 H85 1.246448 1_554
B19 H81 1.246883 1_555
B20 H78 1.216000 1_555
B20 H76 1.216000 1_555
B20 H86 1.246448 1_545
B20 H82 1.246883 1_555
B21 H77 1.216000 1_555
B21 H79 1.216000 1_555
B21 H87 1.246448 1_556
B21 H83 1.246883 1_555
B22 H96 1.213468 1_655
B22 H88 1.214712 1_655
B22 H104 1.251631 1_555
B22 H114 1.254895 1_545
B23 H97 1.213468 1_455
B23 H89 1.214712 1_455
B23 H105 1.251631 1_555
B23 H115 1.254895 1_556
B24 H98 1.213468 1_555
B24 H90 1.214712 1_555
B24 H106 1.251631 1_555
B24 H112 1.254895 1_545
B25 H99 1.213468 1_555
B25 H91 1.214712 1_555
B25 H107 1.251631 1_555
B25 H113 1.254895 1_556
B26 H100 1.213468 1_455
B26 H92 1.214712 1_455
B26 H108 1.251631 1_555
B26 H118 1.254895 1_565
B27 H101 1.213468 1_655
B27 H93 1.214712 1_655
B27 H109 1.251631 1_555
B27 H119 1.254895 1_554
B28 H102 1.213468 1_555
B28 H94 1.214712 1_555
B28 H110 1.251631 1_555
B28 H116 1.254895 1_565
B29 H103 1.213468 1_555
B29 H95 1.214712 1_555
B29 H111 1.251631 1_555
B29 H117 1.254895 1_554
H0 Li4 2.025331 1_555
H1 Li5 2.025331 1_555
H2 Li4 2.025331 1_555
H3 Li5 2.025331 1_555
H4 Zn4 1.842126 1_555
H5 Zn5 1.842126 1_555
H6 Zn5 1.842126 1_555
H7 Zn4 1.842126 1_555
H8 Mg0 2.096462 1_555
H9 Mg1 2.096462 1_555
H10 Mg0 2.096462 1_555
H11 Mg1 2.096462 1_555
H12 Mg0 2.143910 1_555
H13 Mg1 2.143910 1_555
H14 Mg0 2.143910 1_555
H15 Mg1 2.143910 1_555
H16 Zn4 1.920690 1_555
H17 Zn5 1.920690 1_555
H18 Zn4 1.920690 1_555
H19 Zn5 1.920690 1_555
H20 Zn5 1.920690 1_555
H21 Zn4 1.920690 1_555
H22 Zn5 1.920690 1_555
H23 Zn4 1.920690 1_555
H24 Mg0 2.088117 1_555
H25 Mg1 2.088117 1_555
H26 Mg1 2.088117 1_555
H27 Mg0 2.088117 1_555
H32 Li2 2.245856 1_555
H33 Li3 2.245856 1_555
H34 Li0 2.245856 1_555
H35 Li1 2.245856 1_555
H36 Li2 2.184139 1_555
H37 Li3 2.184139 1_555
H38 Li0 2.184139 1_555
H39 Li1 2.184139 1_555
H40 Li1 2.242359 1_556
H41 Li0 2.242359 1_545
H42 Li3 2.242359 1_554
H43 Li2 2.242359 1_565
H44 Mg0 2.062131 1_555
H45 Mg1 2.062131 1_555
H46 Mg1 2.062131 1_555
H47 Mg0 2.062131 1_555
H48 Zn0 1.978785 1_555
H49 Zn1 1.978785 1_555
H50 Zn0 1.978785 1_555
H51 Zn1 1.978785 1_555
H52 Zn2 1.978785 1_555
H53 Zn3 1.978785 1_555
H54 Zn2 1.978785 1_555
H55 Zn3 1.978785 1_555
H56 Zn0 1.846831 1_555
H57 Zn1 1.846831 1_555
H58 Zn0 1.846831 1_555
H59 Zn1 1.846831 1_555
H60 Zn2 1.846831 1_555
H61 Zn3 1.846831 1_555
H62 Zn2 1.846831 1_555
H63 Zn3 1.846831 1_555
H64 Zn0 1.846623 1_555
H65 Zn1 1.846623 1_555
H66 Zn0 1.846623 1_555
H67 Zn1 1.846623 1_555
H68 Zn2 1.846623 1_555
H69 Zn3 1.846623 1_555
H70 Zn2 1.846623 1_555
H71 Zn3 1.846623 1_555
H72 Li5 1.967019 1_554
H73 Li4 1.967019 1_565
H74 Li5 1.967019 1_554
H75 Li4 1.967019 1_565
H76 Li4 1.967019 1_556
H77 Li5 1.967019 1_545
H78 Li4 1.967019 1_556
H79 Li5 1.967019 1_545
H80 Zn6 1.874406 1_555
H81 Zn7 1.874406 1_555
H82 Zn8 1.874406 1_555
H83 Zn9 1.874406 1_555
H84 Zn6 1.896194 1_545
H85 Zn7 1.896194 1_556
H86 Zn8 1.896194 1_565
H87 Zn9 1.896194 1_554
H88 Li0 2.087111 1_545
H89 Li1 2.087111 1_556
H90 Li0 2.087111 1_545
H91 Li1 2.087111 1_556
H92 Li2 2.087111 1_565
H93 Li3 2.087111 1_554
H94 Li2 2.087111 1_565
H95 Li3 2.087111 1_554
H96 Li0 2.113273 1_545
H97 Li1 2.113273 1_556
H98 Li0 2.113273 1_545
H99 Li1 2.113273 1_556
H100 Li2 2.113273 1_565
H101 Li3 2.113273 1_554
H102 Li2 2.113273 1_565
H103 Li3 2.113273 1_554
H104 Zn6 1.882297 1_545
H105 Zn7 1.882297 1_556
H106 Zn6 1.882297 1_545
H107 Zn7 1.882297 1_556
H108 Zn8 1.882297 1_565
H109 Zn9 1.882297 1_554
H110 Zn8 1.882297 1_565
H111 Zn9 1.882297 1_554
H112 Zn6 1.856569 1_555
H113 Zn7 1.856569 1_555
H114 Zn6 1.856569 1_555
H115 Zn7 1.856569 1_555
H116 Zn8 1.856569 1_555
H117 Zn9 1.856569 1_555
H118 Zn8 1.856569 1_555
H119 Zn9 1.856569 1_555
