# generated using pymatgen
data_Li5Mn4(P2O7)4
_symmetry_space_group_name_H-M   'P 1'
_cell_length_a   9.77704800
_cell_length_b   9.85024029
_cell_length_c   11.25761186
_cell_angle_alpha   101.08300061
_cell_angle_beta   90.07674990
_cell_angle_gamma   90.17754307
_symmetry_Int_Tables_number   1
_chemical_formula_structural   Li5Mn4(P2O7)4
_chemical_formula_sum   'Li10 Mn8 P16 O56'
_cell_volume   1063.95124211
_cell_formula_units_Z   2
loop_
 _symmetry_equiv_pos_site_id
 _symmetry_equiv_pos_as_xyz
  1  'x, y, z'
loop_
 _atom_site_type_symbol
 _atom_site_label
 _atom_site_symmetry_multiplicity
 _atom_site_fract_x
 _atom_site_fract_y
 _atom_site_fract_z
 _atom_site_occupancy
  Li  Li0  1  0.28435200  0.11764600  0.45259000  1
  Li  Li1  1  0.89585600  0.08608100  0.02032900  1
  Li  Li2  1  0.40390600  0.41282600  0.97568100  1
  Li  Li3  1  0.05490200  0.40698500  0.51136900  1
  Li  Li4  1  0.77997700  0.39340500  0.55040500  1
  Li  Li5  1  0.41713700  0.84285500  0.95522600  1
  Li  Li6  1  0.88665500  0.64452900  0.04812500  1
  Li  Li7  1  0.11168500  0.90891700  0.97263700  1
  Li  Li8  1  0.40929200  0.81983600  0.45066000  1
  Li  Li9  1  0.71355800  0.89731000  0.54985200  1
  Mn  Mn0  1  0.08202400  0.20721700  0.68109400  1
  Mn  Mn1  1  0.77906500  0.27334100  0.83533700  1
  Mn  Mn2  1  0.28707900  0.22465400  0.16863400  1
  Mn  Mn3  1  0.57593000  0.30745400  0.33122000  1
  Mn  Mn4  1  0.41562100  0.70478100  0.66995900  1
  Mn  Mn5  1  0.70871700  0.76512700  0.83028500  1
  Mn  Mn6  1  0.22452900  0.70830100  0.16518000  1
  Mn  Mn7  1  0.92682500  0.80963800  0.33319300  1
  P  P0  1  0.55669900  0.02898200  0.76110500  1
  P  P1  1  0.29582000  0.11719300  0.89548400  1
  P  P2  1  0.06768900  0.05825200  0.23962000  1
  P  P3  1  0.84802800  0.13752700  0.42379100  1
  P  P4  1  0.36177800  0.37846000  0.56241100  1
  P  P5  1  0.57440900  0.43581200  0.75685000  1
  P  P6  1  0.94334700  0.53111700  0.76439000  1
  P  P7  1  0.78872400  0.37755000  0.11641800  1
  P  P8  1  0.21017200  0.61217000  0.88979400  1
  P  P9  1  0.06184700  0.45879900  0.23976900  1
  P  P10  1  0.43074300  0.56017200  0.24227800  1
  P  P11  1  0.65589000  0.63327800  0.41899300  1
  P  P12  1  0.13874200  0.87964500  0.56268000  1
  P  P13  1  0.92635000  0.94240000  0.75662000  1
  P  P14  1  0.71066400  0.88351700  0.11978900  1
  P  P15  1  0.43861600  0.96249600  0.23576300  1
  O  O0  1  0.57566800  0.01576200  0.62802300  1
  O  O1  1  0.14930600  0.03083500  0.55008300  1
  O  O2  1  0.91057900  0.08902100  0.73079000  1
  O  O3  1  0.66083100  0.11522300  0.84660000  1
  O  O4  1  0.41169200  0.10109900  0.79133400  1
  O  O5  1  0.17270800  0.16852800  0.83759600  1
  O  O6  1  0.35354900  0.22672000  0.00471800  1
  O  O7  1  0.75083700  0.02239100  0.09950800  1
  O  O8  1  0.93055600  0.12622600  0.29696700  1
  O  O9  1  0.06674000  0.06141100  0.10627200  1
  O  O10  1  0.44314900  0.10879500  0.20116100  1
  O  O11  1  0.70937500  0.20047300  0.40164300  1
  O  O12  1  0.18840700  0.15062700  0.29903500  1
  O  O13  1  0.92818700  0.23780200  0.51951400  1
  O  O14  1  0.43961300  0.28125500  0.45913400  1
  O  O15  1  0.69608400  0.34429600  0.69618000  1
  O  O16  1  0.22147100  0.31179400  0.57567100  1
  O  O17  1  0.94597800  0.38721900  0.80511700  1
  O  O18  1  0.43934000  0.36946500  0.68835700  1
  O  O19  1  0.56970700  0.41329300  0.88541900  1
  O  O20  1  0.24040900  0.47213000  0.91251200  1
  O  O21  1  0.83557700  0.26828700  0.00329100  1
  O  O22  1  0.67308300  0.31640900  0.18281100  1
  O  O23  1  0.91407800  0.38900300  0.21189500  1
  O  O24  1  0.42289100  0.41099300  0.26912600  1
  O  O25  1  0.16203000  0.36885900  0.15132800  1
  O  O26  1  0.91942800  0.52015500  0.63127100  1
  O  O27  1  0.66747600  0.48635700  0.44207600  1
  O  O28  1  0.35664000  0.52777100  0.55089600  1
  O  O29  1  0.08819300  0.46643300  0.37048100  1
  O  O30  1  0.84839500  0.62860700  0.85397000  1
  O  O31  1  0.58616600  0.58675000  0.73762100  1
  O  O32  1  0.09195900  0.59981300  0.78734500  1
  O  O33  1  0.32417700  0.69195800  0.84070000  1
  O  O34  1  0.14435100  0.71251000  0.00435000  1
  O  O35  1  0.76451400  0.51484200  0.08389500  1
  O  O36  1  0.41024400  0.56622000  0.11047600  1
  O  O37  1  0.57587400  0.62107300  0.28961200  1
  O  O38  1  0.05633400  0.60436500  0.19893800  1
  O  O39  1  0.79458200  0.69667400  0.39933600  1
  O  O40  1  0.32125900  0.66376500  0.30904600  1
  O  O41  1  0.57158500  0.73290600  0.51172300  1
  O  O42  1  0.05507700  0.78864400  0.46101000  1
  O  O43  1  0.80433000  0.84640500  0.70259800  1
  O  O44  1  0.27829000  0.81708400  0.57890800  1
  O  O45  1  0.54579500  0.88037100  0.80122800  1
  O  O46  1  0.94234700  0.93235600  0.88850500  1
  O  O47  1  0.06090700  0.87446800  0.68894000  1
  O  O48  1  0.28229000  0.97850700  0.93285100  1
  O  O49  1  0.65071600  0.78684600  0.00486600  1
  O  O50  1  0.82381100  0.80376100  0.17689600  1
  O  O51  1  0.59048300  0.90122100  0.22123800  1
  O  O52  1  0.34973900  0.86394900  0.14138600  1
  O  O53  1  0.07671600  0.90916000  0.26657700  1
  O  O54  1  0.83386500  0.98870900  0.44288800  1
  O  O55  1  0.39943500  0.96620400  0.36530300  1
loop_
_geom_bond_atom_site_label_1
_geom_bond_atom_site_label_2
_geom_bond_distance
_geom_bond_site_symmetry_2
Li0 O55 1.976535 1_545
Li0 O1 2.009188 1_555
Li0 O12 2.046271 1_555
Li0 O14 2.201328 1_555
Li0 O16 2.223950 1_555
Li1 O7 1.846972 1_555
Li1 O21 1.934926 1_555
Li1 O46 1.960600 1_544
Li1 O9 1.968524 1_655
Li2 O20 1.888031 1_555
Li2 O19 1.914810 1_555
Li2 O36 1.925418 1_556
Li2 O6 1.983699 1_556
Li3 O29 1.822556 1_555
Li3 O26 2.062642 1_455
Li3 O16 2.079099 1_555
Li3 O13 2.089673 1_455
Li4 O26 1.948232 1_555
Li4 O15 1.976426 1_555
Li4 O27 1.991819 1_555
Li4 O13 2.092879 1_555
Li4 O11 2.378636 1_555
Li5 O48 1.930418 1_555
Li5 O33 1.987295 1_555
Li5 O52 2.169460 1_556
Li5 O45 2.230173 1_555
Li5 O49 2.440273 1_556
Li6 O35 1.846536 1_555
Li6 O50 2.018247 1_555
Li6 O30 2.192614 1_554
Li6 O38 2.458848 1_655
Li7 O48 1.888310 1_555
Li7 O46 1.942598 1_455
Li7 O9 1.962072 1_566
Li7 O34 2.059472 1_556
Li8 O55 1.882703 1_555
Li8 O44 1.935320 1_555
Li8 O41 1.988803 1_555
Li8 O40 2.166023 1_555
Li9 O0 1.889842 1_565
Li9 O54 2.014480 1_555
Li9 O43 2.079925 1_555
Li9 O41 2.109680 1_555
Li9 O39 2.475953 1_555
Mn0 O5 2.071583 1_555
Mn0 O1 2.156633 1_555
Mn0 O2 2.172341 1_455
Mn0 O16 2.189544 1_555
Mn0 O13 2.422383 1_455
Mn0 O17 2.435202 1_455
Mn1 O3 1.960442 1_555
Mn1 O21 1.978963 1_556
Mn1 O15 2.005477 1_555
Mn1 O17 2.043042 1_555
Mn1 O2 2.352001 1_555
Mn1 O19 2.475859 1_555
Mn2 O25 1.914926 1_555
Mn2 O6 1.960987 1_555
Mn2 O10 1.983647 1_555
Mn2 O12 2.007090 1_555
Mn2 O24 2.365279 1_555
Mn2 O9 2.694403 1_555
Mn3 O22 1.939527 1_555
Mn3 O11 1.941179 1_555
Mn3 O24 2.012058 1_555
Mn3 O14 2.015539 1_555
Mn3 O27 2.146101 1_555
Mn3 O10 2.556549 1_555
Mn4 O28 2.064562 1_555
Mn4 O44 2.125709 1_555
Mn4 O33 2.146424 1_555
Mn4 O31 2.249738 1_555
Mn4 O41 2.402000 1_555
Mn4 O45 2.407033 1_555
Mn5 O30 1.972990 1_555
Mn5 O43 2.005624 1_555
Mn5 O49 2.017943 1_556
Mn5 O45 2.021269 1_555
Mn5 O31 2.211342 1_555
Mn6 O34 1.979802 1_555
Mn6 O40 1.995383 1_555
Mn6 O38 2.009384 1_555
Mn6 O52 2.016960 1_555
Mn6 O36 2.307002 1_555
Mn6 O53 2.541629 1_555
Mn7 O39 1.943326 1_555
Mn7 O42 1.948523 1_655
Mn7 O53 1.986901 1_655
Mn7 O50 2.017282 1_555
Mn7 O54 2.153567 1_555
Mn7 O38 2.611918 1_655
O0 P0 1.490571 1_555
O1 P12 1.526090 1_545
O2 P13 1.535225 1_545
O3 P0 1.536944 1_555
O4 P0 1.595310 1_555
O4 P1 1.617555 1_555
O5 P1 1.502521 1_555
O6 P1 1.574491 1_554
O7 P14 1.481436 1_545
O8 P2 1.582536 1_655
O8 P3 1.626166 1_555
O9 P2 1.507488 1_555
O10 P15 1.563932 1_545
O11 P3 1.532333 1_555
O12 P2 1.557435 1_555
O13 P3 1.528005 1_555
O14 P4 1.557742 1_555
O15 P5 1.570485 1_555
O16 P4 1.538819 1_555
O17 P6 1.571632 1_555
O18 P5 1.601174 1_555
O18 P4 1.624514 1_555
O19 P5 1.506577 1_555
O20 P8 1.481075 1_555
O21 P7 1.570905 1_555
O22 P7 1.539734 1_555
O23 P9 1.602532 1_655
O23 P7 1.618359 1_555
O24 P10 1.557768 1_555
O25 P9 1.550626 1_555
O26 P6 1.499616 1_555
O27 P11 1.523249 1_555
O28 P4 1.502056 1_555
O29 P9 1.481099 1_555
O30 P6 1.560996 1_555
O31 P5 1.547036 1_555
O32 P6 1.600471 1_455
O32 P8 1.619379 1_555
O33 P8 1.526030 1_555
O34 P8 1.603208 1_554
O35 P7 1.486967 1_555
O36 P10 1.509493 1_555
O37 P10 1.589668 1_555
O37 P11 1.636146 1_555
O38 P9 1.588695 1_555
O39 P11 1.525235 1_555
O40 P10 1.570379 1_555
O41 P11 1.531561 1_555
O42 P12 1.543095 1_555
O43 P13 1.567540 1_555
O44 P12 1.523959 1_555
O45 P0 1.616053 1_565
O46 P13 1.514781 1_555
O47 P13 1.603473 1_455
O47 P12 1.622522 1_555
O48 P1 1.510174 1_565
O49 P14 1.563636 1_555
O50 P14 1.565864 1_555
O51 P15 1.601238 1_555
O51 P14 1.625945 1_555
O52 P15 1.556268 1_555
O53 P2 1.558436 1_565
O54 P3 1.527815 1_565
O55 P15 1.501951 1_555
