# generated using pymatgen
data_Yb5(Ge5Rh2)2
_symmetry_space_group_name_H-M   'P 1'
_cell_length_a   12.88970313
_cell_length_b   12.88970313
_cell_length_c   4.22000459
_cell_angle_alpha   90.00000000
_cell_angle_beta   90.00000000
_cell_angle_gamma   90.00000000
_symmetry_Int_Tables_number   1
_chemical_formula_structural   Yb5(Ge5Rh2)2
_chemical_formula_sum   'Yb10 Ge20 Rh8'
_cell_volume   701.13032684
_cell_formula_units_Z   2
loop_
 _symmetry_equiv_pos_site_id
 _symmetry_equiv_pos_as_xyz
  1  'x, y, z'
loop_
 _atom_site_type_symbol
 _atom_site_label
 _atom_site_symmetry_multiplicity
 _atom_site_fract_x
 _atom_site_fract_y
 _atom_site_fract_z
 _atom_site_occupancy
  Yb  Yb0  1  0.50000000  0.50000000  0.00000000  1
  Yb  Yb1  1  0.00000000  0.00000000  0.00000000  1
  Yb  Yb2  1  0.67370594  0.17370594  0.50000000  1
  Yb  Yb3  1  0.32629406  0.82629406  0.50000000  1
  Yb  Yb4  1  0.17370594  0.32629406  0.50000000  1
  Yb  Yb5  1  0.82629406  0.67370594  0.50000000  1
  Yb  Yb6  1  0.88758724  0.38758724  0.50000000  1
  Yb  Yb7  1  0.11241276  0.61241276  0.50000000  1
  Yb  Yb8  1  0.38758724  0.11241276  0.50000000  1
  Yb  Yb9  1  0.61241276  0.88758724  0.50000000  1
  Ge  Ge0  1  0.56685158  0.06685158  0.00000000  1
  Ge  Ge1  1  0.43314842  0.93314842  0.00000000  1
  Ge  Ge2  1  0.06685158  0.43314842  0.00000000  1
  Ge  Ge3  1  0.93314842  0.56685158  0.00000000  1
  Ge  Ge4  1  0.66274303  0.70085554  0.00000000  1
  Ge  Ge5  1  0.33725697  0.29914446  0.00000000  1
  Ge  Ge6  1  0.16274303  0.79914446  0.00000000  1
  Ge  Ge7  1  0.83725697  0.20085554  0.00000000  1
  Ge  Ge8  1  0.29914446  0.66274303  0.00000000  1
  Ge  Ge9  1  0.70085554  0.33725697  0.00000000  1
  Ge  Ge10  1  0.20085554  0.16274303  0.00000000  1
  Ge  Ge11  1  0.79914446  0.83725697  0.00000000  1
  Ge  Ge12  1  0.65620131  0.50538949  0.50000000  1
  Ge  Ge13  1  0.34379869  0.49461051  0.50000000  1
  Ge  Ge14  1  0.15620131  0.99461051  0.50000000  1
  Ge  Ge15  1  0.84379869  0.00538949  0.50000000  1
  Ge  Ge16  1  0.49461051  0.65620131  0.50000000  1
  Ge  Ge17  1  0.50538949  0.34379869  0.50000000  1
  Ge  Ge18  1  0.00538949  0.15620131  0.50000000  1
  Ge  Ge19  1  0.99461051  0.84379869  0.50000000  1
  Rh  Rh0  1  0.74550904  0.52064666  0.00000000  1
  Rh  Rh1  1  0.25449096  0.47935334  0.00000000  1
  Rh  Rh2  1  0.24550904  0.97935334  0.00000000  1
  Rh  Rh3  1  0.75449096  0.02064666  0.00000000  1
  Rh  Rh4  1  0.47935334  0.74550904  0.00000000  1
  Rh  Rh5  1  0.52064666  0.25449096  0.00000000  1
  Rh  Rh6  1  0.02064666  0.24550904  0.00000000  1
  Rh  Rh7  1  0.97935334  0.75449096  0.00000000  1
loop_
_geom_bond_atom_site_label_1
_geom_bond_atom_site_label_2
_geom_bond_distance
_geom_bond_site_symmetry_2
Ge0 Ge1 2.437247 1_545
Ge0 Rh3 2.490864 1_555
Ge0 Rh5 2.490864 1_555
Ge0 Yb2 2.871609 1_554
Ge0 Yb2 2.871609 1_555
Ge0 Yb9 3.183734 1_544
Ge0 Yb9 3.183734 1_545
Ge0 Yb8 3.183734 1_555
Ge0 Yb8 3.183734 1_554
Ge1 Rh4 2.490864 1_555
Ge1 Rh2 2.490864 1_555
Ge1 Yb3 2.871609 1_555
Ge1 Yb3 2.871609 1_554
Ge1 Yb8 3.183734 1_564
Ge1 Yb8 3.183734 1_565
Ge1 Yb9 3.183734 1_554
Ge1 Yb9 3.183734 1_555
Ge2 Ge3 2.437247 1_455
Ge2 Rh1 2.490864 1_555
Ge2 Rh6 2.490864 1_555
Ge2 Yb4 2.871609 1_554
Ge2 Yb4 2.871609 1_555
Ge2 Yb6 3.183734 1_454
Ge2 Yb6 3.183734 1_455
Ge2 Yb7 3.183734 1_555
Ge2 Yb7 3.183734 1_554
Ge3 Rh0 2.490864 1_555
Ge3 Rh7 2.490864 1_555
Ge3 Yb5 2.871609 1_554
Ge3 Yb5 2.871609 1_555
Ge3 Yb7 3.183734 1_655
Ge3 Yb7 3.183734 1_654
Ge3 Yb6 3.183734 1_554
Ge3 Yb6 3.183734 1_555
Ge4 Rh4 2.432902 1_555
Ge4 Rh0 2.556111 1_555
Ge4 Yb5 3.003125 1_555
Ge4 Yb5 3.003125 1_554
Ge4 Yb9 3.265918 1_554
Ge4 Yb9 3.265918 1_555
Ge4 Yb0 3.332138 1_555
Ge5 Rh5 2.432902 1_555
Ge5 Rh1 2.556111 1_555
Ge5 Yb4 3.003125 1_554
Ge5 Yb4 3.003125 1_555
Ge5 Yb8 3.265918 1_555
Ge5 Yb8 3.265918 1_554
Ge5 Yb0 3.332138 1_555
Ge6 Rh7 2.432902 1_455
Ge6 Ge8 2.486434 1_555
Ge6 Rh2 2.556111 1_555
Ge6 Yb3 3.003125 1_555
Ge6 Yb3 3.003125 1_554
Ge6 Yb7 3.265918 1_555
Ge6 Yb7 3.265918 1_554
Ge6 Yb1 3.332138 1_565
Ge7 Rh6 2.432902 1_655
Ge7 Ge9 2.486434 1_555
Ge7 Rh3 2.556111 1_555
Ge7 Yb2 3.003125 1_555
Ge7 Yb2 3.003125 1_554
Ge7 Yb6 3.265918 1_555
Ge7 Yb6 3.265918 1_554
Ge7 Yb1 3.332138 1_655
Ge8 Rh1 2.432902 1_555
Ge8 Rh4 2.556111 1_555
Ge8 Yb3 3.003125 1_554
Ge8 Yb3 3.003125 1_555
Ge8 Yb7 3.265918 1_555
Ge8 Yb7 3.265918 1_554
Ge8 Yb0 3.332138 1_555
Ge9 Rh0 2.432902 1_555
Ge9 Rh5 2.556111 1_555
Ge9 Yb2 3.003125 1_554
Ge9 Yb2 3.003125 1_555
Ge9 Yb6 3.265918 1_554
Ge9 Yb6 3.265918 1_555
Ge9 Yb0 3.332138 1_555
Ge10 Rh2 2.432902 1_545
Ge10 Ge5 2.486434 1_555
Ge10 Rh6 2.556111 1_555
Ge10 Yb4 3.003125 1_554
Ge10 Yb4 3.003125 1_555
Ge10 Yb8 3.265918 1_555
Ge10 Yb8 3.265918 1_554
Ge10 Yb1 3.332138 1_555
Ge11 Rh3 2.432902 1_565
Ge11 Ge4 2.486434 1_555
Ge11 Rh7 2.556111 1_555
Ge11 Yb5 3.003125 1_555
Ge11 Yb5 3.003125 1_554
Ge11 Yb9 3.265918 1_554
Ge11 Yb9 3.265918 1_555
Ge11 Yb1 3.332138 1_665
Ge12 Rh0 2.411624 1_555
Ge12 Rh0 2.411624 1_556
Ge12 Ge17 2.849056 1_555
Ge12 Ge16 2.849056 1_555
Ge12 Yb0 2.917305 1_555
Ge12 Yb0 2.917305 1_556
Ge12 Yb5 3.084438 1_555
Ge12 Yb6 3.346779 1_555
Ge13 Rh1 2.411624 1_556
Ge13 Rh1 2.411624 1_555
Ge13 Ge16 2.849056 1_555
Ge13 Ge17 2.849056 1_555
Ge13 Yb0 2.917305 1_555
Ge13 Yb0 2.917305 1_556
Ge13 Yb4 3.084438 1_555
Ge13 Yb7 3.346779 1_555
Ge14 Rh2 2.411624 1_556
Ge14 Rh2 2.411624 1_555
Ge14 Ge18 2.849056 1_565
Ge14 Ge19 2.849056 1_455
Ge14 Yb1 2.917305 1_566
Ge14 Yb1 2.917305 1_565
Ge14 Yb3 3.084438 1_555
Ge14 Yb8 3.346779 1_565
Ge15 Rh3 2.411624 1_555
Ge15 Rh3 2.411624 1_556
Ge15 Ge19 2.849056 1_545
Ge15 Ge18 2.849056 1_655
Ge15 Yb1 2.917305 1_655
Ge15 Yb1 2.917305 1_656
Ge15 Yb2 3.084438 1_555
Ge15 Yb9 3.346779 1_545
Ge16 Rh4 2.411624 1_556
Ge16 Rh4 2.411624 1_555
Ge16 Yb0 2.917305 1_556
Ge16 Yb0 2.917305 1_555
Ge16 Yb3 3.084438 1_555
Ge16 Yb9 3.346779 1_555
Ge17 Rh5 2.411624 1_555
Ge17 Rh5 2.411624 1_556
Ge17 Yb0 2.917305 1_555
Ge17 Yb0 2.917305 1_556
Ge17 Yb2 3.084438 1_555
Ge17 Yb8 3.346779 1_555
Ge18 Rh6 2.411624 1_555
Ge18 Rh6 2.411624 1_556
Ge18 Yb1 2.917305 1_555
Ge18 Yb1 2.917305 1_556
Ge18 Yb4 3.084438 1_555
Ge18 Yb6 3.346779 1_455
Ge19 Rh7 2.411624 1_555
Ge19 Rh7 2.411624 1_556
Ge19 Yb1 2.917305 1_665
Ge19 Yb1 2.917305 1_666
Ge19 Yb5 3.084438 1_555
Ge19 Yb7 3.346779 1_655
Rh0 Yb5 3.070618 1_554
Rh0 Yb5 3.070618 1_555
Rh0 Yb0 3.175709 1_555
Rh0 Yb6 3.278337 1_554
Rh0 Yb6 3.278337 1_555
Rh1 Yb4 3.070618 1_554
Rh1 Yb4 3.070618 1_555
Rh1 Yb0 3.175709 1_555
Rh1 Yb7 3.278337 1_555
Rh1 Yb7 3.278337 1_554
Rh2 Yb3 3.070618 1_555
Rh2 Yb3 3.070618 1_554
Rh2 Yb1 3.175709 1_565
Rh2 Yb8 3.278337 1_564
Rh2 Yb8 3.278337 1_565
Rh3 Yb2 3.070618 1_554
Rh3 Yb2 3.070618 1_555
Rh3 Yb1 3.175709 1_655
Rh3 Yb9 3.278337 1_544
Rh3 Yb9 3.278337 1_545
Rh4 Yb3 3.070618 1_555
Rh4 Yb3 3.070618 1_554
Rh4 Yb0 3.175709 1_555
Rh4 Yb9 3.278337 1_554
Rh4 Yb9 3.278337 1_555
Rh5 Yb2 3.070618 1_555
Rh5 Yb2 3.070618 1_554
Rh5 Yb0 3.175709 1_555
Rh5 Yb8 3.278337 1_554
Rh5 Yb8 3.278337 1_555
Rh6 Yb4 3.070618 1_554
Rh6 Yb4 3.070618 1_555
Rh6 Yb1 3.175709 1_555
Rh6 Yb6 3.278337 1_455
Rh6 Yb6 3.278337 1_454
Rh7 Yb5 3.070618 1_554
Rh7 Yb5 3.070618 1_555
Rh7 Yb1 3.175709 1_665
Rh7 Yb7 3.278337 1_655
Rh7 Yb7 3.278337 1_654
