# generated using pymatgen
data_LiCoSnO4
_symmetry_space_group_name_H-M   'P 1'
_cell_length_a   6.20878114
_cell_length_b   6.20870452
_cell_length_c   8.53490621
_cell_angle_alpha   88.04336839
_cell_angle_beta   88.04731021
_cell_angle_gamma   89.68092054
_symmetry_Int_Tables_number   1
_chemical_formula_structural   LiCoSnO4
_chemical_formula_sum   'Li4 Co4 Sn4 O16'
_cell_volume   328.62176081
_cell_formula_units_Z   4
loop_
 _symmetry_equiv_pos_site_id
 _symmetry_equiv_pos_as_xyz
  1  'x, y, z'
loop_
 _atom_site_type_symbol
 _atom_site_label
 _atom_site_symmetry_multiplicity
 _atom_site_fract_x
 _atom_site_fract_y
 _atom_site_fract_z
 _atom_site_occupancy
  Li  Li0  1  0.24822800  0.50115800  0.37484800  1
  Li  Li1  1  0.74904300  0.00178000  0.87513800  1
  Li  Li2  1  0.75213400  0.49777900  0.62502000  1
  Li  Li3  1  0.25176800  0.99810800  0.12501100  1
  Co  Co0  1  0.49896600  0.99844500  0.50024800  1
  Co  Co1  1  0.25169800  0.75100400  0.74982200  1
  Co  Co2  1  0.99899700  0.49878200  0.99986600  1
  Co  Co3  1  0.75119400  0.25105600  0.25005500  1
  Sn  Sn0  1  0.74985400  0.75037400  0.25007700  1
  Sn  Sn1  1  0.25001200  0.25053400  0.74981700  1
  Sn  Sn2  1  0.99954500  0.99998400  0.50020500  1
  Sn  Sn3  1  0.49960400  0.50012200  0.99991700  1
  O  O0  1  0.02203300  0.50023000  0.77215900  1
  O  O1  1  0.52188500  0.00010700  0.27238700  1
  O  O2  1  0.74968800  0.22803000  0.47787200  1
  O  O3  1  0.24993700  0.72789600  0.97763000  1
  O  O4  1  0.24914100  0.77118300  0.52103000  1
  O  O5  1  0.74904400  0.27128200  0.02120400  1
  O  O6  1  0.97856100  0.50096300  0.22874000  1
  O  O7  1  0.47893200  0.00094600  0.72893200  1
  O  O8  1  0.97808000  0.99757900  0.25481000  1
  O  O9  1  0.47848400  0.49747300  0.75460600  1
  O  O10  1  0.75255500  0.77146600  0.49545500  1
  O  O11  1  0.25243700  0.27187900  0.99519900  1
  O  O12  1  0.24698000  0.22788100  0.50469600  1
  O  O13  1  0.74711600  0.72808900  0.00485200  1
  O  O14  1  0.02224200  0.00290600  0.74528600  1
  O  O15  1  0.52184000  0.50296700  0.24511700  1
loop_
_geom_bond_atom_site_label_1
_geom_bond_atom_site_label_2
_geom_bond_distance
_geom_bond_site_symmetry_2
Li0 O12 1.994541 1_555
Li0 O15 1.995795 1_555
Li0 O6 2.121499 1_455
Li0 O4 2.123853 1_555
Li1 O14 1.994246 1_655
Li1 O13 1.996040 1_546
Li1 O5 2.120471 1_556
Li1 O7 2.124348 1_555
Li2 O9 1.995443 1_555
Li2 O10 1.995449 1_555
Li2 O2 2.127826 1_555
Li2 O0 2.128481 1_655
Li3 O8 1.996577 1_455
Li3 O11 1.996972 1_564
Li3 O1 2.130735 1_565
Li3 O3 2.131257 1_554
Co0 O1 1.944809 1_565
Co0 O7 1.952108 1_565
Co0 O4 2.101634 1_555
Co0 O10 2.107478 1_555
Co0 O12 2.110262 1_565
Co0 O2 2.115992 1_565
Co1 O3 1.944377 1_555
Co1 O4 1.953060 1_555
Co1 O7 2.102084 1_565
Co1 O9 2.106405 1_555
Co1 O14 2.109967 1_565
Co1 O0 2.116548 1_555
Co2 O0 1.943565 1_655
Co2 O6 1.953720 1_556
Co2 O5 2.103392 1_556
Co2 O11 2.106459 1_655
Co2 O13 2.109321 1_556
Co2 O3 2.114968 1_655
Co3 O2 1.944479 1_555
Co3 O5 1.953467 1_555
Co3 O6 2.102615 1_555
Co3 O8 2.106565 1_545
Co3 O15 2.109641 1_555
Co3 O1 2.115856 1_555
O0 Sn1 2.102539 1_555
O1 Sn0 2.102641 1_545
O2 Sn2 2.103529 1_545
O3 Sn3 2.101499 1_555
O4 Sn2 2.104309 1_455
O5 Sn3 2.104103 1_554
O6 Sn0 2.103472 1_555
O7 Sn1 2.104825 1_555
O8 Sn0 2.097040 1_555
O8 Sn2 2.103752 1_555
O9 Sn1 2.096896 1_555
O9 Sn3 2.102893 1_555
O10 Sn2 2.097303 1_555
O10 Sn0 2.103468 1_555
O11 Sn3 2.096931 1_555
O11 Sn1 2.103582 1_555
O12 Sn2 2.096567 1_445
O12 Sn1 2.102323 1_555
O13 Sn3 2.097469 1_554
O13 Sn0 2.102901 1_555
O14 Sn1 2.096935 1_555
O14 Sn2 2.101972 1_445
O15 Sn0 2.097199 1_555
O15 Sn3 2.102678 1_554
