# generated using pymatgen
data_Li5Mn3O8
_symmetry_space_group_name_H-M   'P 1'
_cell_length_a   5.74762293
_cell_length_b   9.06973460
_cell_length_c   5.82511589
_cell_angle_alpha   90.08083096
_cell_angle_beta   90.03288630
_cell_angle_gamma   71.50122678
_symmetry_Int_Tables_number   1
_chemical_formula_structural   Li5Mn3O8
_chemical_formula_sum   'Li10 Mn6 O16'
_cell_volume   287.96962219
_cell_formula_units_Z   2
loop_
 _symmetry_equiv_pos_site_id
 _symmetry_equiv_pos_as_xyz
  1  'x, y, z'
loop_
 _atom_site_type_symbol
 _atom_site_label
 _atom_site_symmetry_multiplicity
 _atom_site_fract_x
 _atom_site_fract_y
 _atom_site_fract_z
 _atom_site_occupancy
  Li  Li0  1  0.12491000  0.25000700  0.25007000  1
  Li  Li1  1  0.62506800  0.24999100  0.24987100  1
  Li  Li2  1  0.87495200  0.74999200  0.75000300  1
  Li  Li3  1  0.37499500  0.74997300  0.75011500  1
  Li  Li4  1  0.12488800  0.24995600  0.75006500  1
  Li  Li5  1  0.62508700  0.25004600  0.74989900  1
  Li  Li6  1  0.48333900  0.04061000  0.50647700  1
  Li  Li7  1  0.98362600  0.04032200  0.50666500  1
  Li  Li8  1  0.76622800  0.45969100  0.99332100  1
  Li  Li9  1  0.26654900  0.45938000  0.99349800  1
  Mn  Mn0  1  0.87506000  0.75002700  0.25001900  1
  Mn  Mn1  1  0.37502800  0.75000400  0.25005000  1
  Mn  Mn2  1  0.48948800  0.01748800  0.99864400  1
  Mn  Mn3  1  0.98907900  0.01756600  0.99864000  1
  Mn  Mn4  1  0.76097000  0.48240700  0.50130800  1
  Mn  Mn5  1  0.26050300  0.48254100  0.50137400  1
  O  O0  1  0.74452800  0.00748800  0.23036100  1
  O  O1  1  0.24485000  0.00676800  0.23038800  1
  O  O2  1  0.00549200  0.49253800  0.26962700  1
  O  O3  1  0.50515800  0.49324400  0.26961600  1
  O  O4  1  0.88451700  0.22808700  0.99772500  1
  O  O5  1  0.38429200  0.22796900  0.99776400  1
  O  O6  1  0.36569400  0.27204500  0.50215900  1
  O  O7  1  0.86549600  0.27189000  0.50221900  1
  O  O8  1  0.63690300  0.72797900  0.47873700  1
  O  O9  1  0.13724000  0.72811900  0.47887000  1
  O  O10  1  0.11324000  0.77202300  0.02124100  1
  O  O11  1  0.61276500  0.77190000  0.02128300  1
  O  O12  1  0.00187300  0.50019600  0.72475600  1
  O  O13  1  0.50183900  0.50024000  0.72455000  1
  O  O14  1  0.74815200  0.99977500  0.77524300  1
  O  O15  1  0.24819300  0.99974000  0.77544000  1
loop_
_geom_bond_atom_site_label_1
_geom_bond_atom_site_label_2
_geom_bond_distance
_geom_bond_site_symmetry_2
Li0 O7 2.057616 1_455
Li0 O5 2.057953 1_554
Li0 O4 2.068928 1_454
Li0 O6 2.069768 1_555
Li0 O2 2.089027 1_555
Li0 O1 2.095142 1_555
Li1 O4 2.057718 1_554
Li1 O6 2.057827 1_555
Li1 O7 2.069022 1_555
Li1 O5 2.069766 1_554
Li1 O0 2.088771 1_555
Li1 O3 2.095282 1_555
Li2 O8 2.139799 1_555
Li2 O10 2.140646 1_656
Li2 O9 2.149075 1_655
Li2 O11 2.149273 1_556
Li2 O14 2.153268 1_555
Li2 O12 2.153386 1_655
Li3 O11 2.138076 1_556
Li3 O9 2.138154 1_555
Li3 O10 2.146776 1_556
Li3 O8 2.148514 1_555
Li3 O13 2.152969 1_555
Li3 O15 2.153165 1_555
Li4 O5 2.038205 1_555
Li4 O7 2.038827 1_455
Li4 O4 2.050920 1_455
Li4 O6 2.054313 1_555
Li4 O15 2.157425 1_545
Li4 O12 2.157615 1_555
Li5 O6 2.038315 1_555
Li5 O4 2.038867 1_555
Li5 O7 2.051085 1_555
Li5 O5 2.054066 1_555
Li5 O13 2.157228 1_555
Li5 O14 2.157894 1_545
Li6 O6 1.990814 1_555
Li6 O14 2.132149 1_545
Li6 O0 2.155482 1_555
Li6 O15 2.177313 1_545
Li6 O1 2.196061 1_555
Li7 O7 1.991982 1_555
Li7 O15 2.131377 1_645
Li7 O1 2.155993 1_655
Li7 O14 2.175895 1_545
Li7 O0 2.196254 1_555
Li8 O4 1.992294 1_555
Li8 O13 2.130702 1_555
Li8 O3 2.155495 1_556
Li8 O12 2.176365 1_655
Li8 O2 2.196940 1_656
Li9 O5 1.990607 1_555
Li9 O12 2.131537 1_555
Li9 O2 2.155016 1_556
Li9 O13 2.177776 1_555
Li9 O3 2.196712 1_556
Mn0 O8 1.966034 1_555
Mn0 O10 1.966215 1_655
Mn0 O9 1.973782 1_655
Mn0 O11 1.973857 1_555
Mn0 O0 2.217576 1_565
Mn0 O2 2.217798 1_655
Mn1 O11 1.964024 1_555
Mn1 O9 1.964415 1_555
Mn1 O8 1.971706 1_555
Mn1 O10 1.971828 1_555
Mn1 O3 2.211525 1_555
Mn1 O1 2.211590 1_565
Mn2 O5 1.810384 1_555
Mn2 O15 1.943919 1_545
Mn2 O14 1.944130 1_545
Mn2 O0 1.972973 1_556
Mn2 O1 1.974376 1_556
Mn2 O11 2.116612 1_546
Mn3 O4 1.810735 1_555
Mn3 O14 1.943228 1_545
Mn3 O15 1.945094 1_645
Mn3 O0 1.972320 1_556
Mn3 O1 1.974800 1_656
Mn3 O10 2.116222 1_646
Mn4 O7 1.810701 1_555
Mn4 O12 1.943320 1_655
Mn4 O13 1.945319 1_555
Mn4 O2 1.972171 1_655
Mn4 O3 1.974684 1_555
Mn4 O8 2.116458 1_555
Mn5 O6 1.810510 1_555
Mn5 O13 1.943848 1_555
Mn5 O12 1.943996 1_555
Mn5 O2 1.972976 1_555
Mn5 O3 1.974461 1_555
Mn5 O9 2.116476 1_555
