# generated using pymatgen
data_Ba5Co4PtClO13
_symmetry_space_group_name_H-M   'P 1'
_cell_length_a   5.82671730
_cell_length_b   5.82671730
_cell_length_c   25.34453500
_cell_angle_alpha   90.00000000
_cell_angle_beta   90.00000000
_cell_angle_gamma   119.99999205
_symmetry_Int_Tables_number   1
_chemical_formula_structural   Ba5Co4PtClO13
_chemical_formula_sum   'Ba10 Co8 Pt2 Cl2 O26'
_cell_volume   745.18291493
_cell_formula_units_Z   2
loop_
 _symmetry_equiv_pos_site_id
 _symmetry_equiv_pos_as_xyz
  1  'x, y, z'
loop_
 _atom_site_type_symbol
 _atom_site_label
 _atom_site_symmetry_multiplicity
 _atom_site_fract_x
 _atom_site_fract_y
 _atom_site_fract_z
 _atom_site_occupancy
  Ba  Ba0  1  0.33333300  0.66666700  0.62956000  1
  Ba  Ba1  1  0.66666700  0.33333300  0.37044000  1
  Ba  Ba2  1  0.66666700  0.33333300  0.12956000  1
  Ba  Ba3  1  0.33333300  0.66666700  0.87044000  1
  Ba  Ba4  1  0.33333300  0.66666700  0.04048100  1
  Ba  Ba5  1  0.66666700  0.33333300  0.95951900  1
  Ba  Ba6  1  0.66666700  0.33333300  0.54048100  1
  Ba  Ba7  1  0.33333300  0.66666700  0.45951900  1
  Ba  Ba8  1  0.00000000  0.00000000  0.75000000  1
  Ba  Ba9  1  0.00000000  0.00000000  0.25000000  1
  Co  Co0  1  0.33333300  0.66666700  0.17790600  1
  Co  Co1  1  0.66666700  0.33333300  0.82209400  1
  Co  Co2  1  0.66666700  0.33333300  0.67790600  1
  Co  Co3  1  0.33333300  0.66666700  0.32209400  1
  Co  Co4  1  0.00000000  0.00000000  0.39306500  1
  Co  Co5  1  0.00000000  0.00000000  0.60693500  1
  Co  Co6  1  0.00000000  0.00000000  0.89306500  1
  Co  Co7  1  0.00000000  0.00000000  0.10693500  1
  Pt  Pt0  1  0.00000000  0.00000000  0.00000000  1
  Pt  Pt1  1  0.00000000  0.00000000  0.50000000  1
  Cl  Cl0  1  0.33333300  0.66666700  0.75000000  1
  Cl  Cl1  1  0.66666700  0.33333300  0.25000000  1
  O  O0  1  0.69396900  0.84698400  0.55180100  1
  O  O1  1  0.15301600  0.84698400  0.55180100  1
  O  O2  1  0.15301600  0.30603100  0.55180100  1
  O  O3  1  0.30603100  0.15301600  0.44819900  1
  O  O4  1  0.84698400  0.15301600  0.44819900  1
  O  O5  1  0.84698400  0.69396900  0.44819900  1
  O  O6  1  0.30603100  0.15301600  0.05180100  1
  O  O7  1  0.84698400  0.15301600  0.05180100  1
  O  O8  1  0.84698400  0.69396900  0.05180100  1
  O  O9  1  0.69396900  0.84698400  0.94819900  1
  O  O10  1  0.15301600  0.84698400  0.94819900  1
  O  O11  1  0.15301600  0.30603100  0.94819900  1
  O  O12  1  0.32619900  0.16310000  0.65144900  1
  O  O13  1  0.83690000  0.16310000  0.65144900  1
  O  O14  1  0.83690000  0.67380100  0.65144900  1
  O  O15  1  0.67380100  0.83690000  0.34855100  1
  O  O16  1  0.16310000  0.83690000  0.34855100  1
  O  O17  1  0.16310000  0.32619900  0.34855100  1
  O  O18  1  0.67380100  0.83690000  0.15144900  1
  O  O19  1  0.16310000  0.83690000  0.15144900  1
  O  O20  1  0.16310000  0.32619900  0.15144900  1
  O  O21  1  0.32619900  0.16310000  0.84855100  1
  O  O22  1  0.83690000  0.16310000  0.84855100  1
  O  O23  1  0.83690000  0.67380100  0.84855100  1
  O  O24  1  0.33333300  0.66666700  0.25000000  1
  O  O25  1  0.66666700  0.33333300  0.75000000  1
loop_
_geom_bond_atom_site_label_1
_geom_bond_atom_site_label_2
_geom_bond_distance
_geom_bond_site_symmetry_2
Ba0 O1 2.682453 1_555
Ba0 O0 2.682460 1_555
Ba0 O2 2.682460 1_555
Ba0 O14 2.965927 1_455
Ba0 O12 2.965927 1_565
Ba0 O14 2.965927 1_555
Ba0 O12 2.965927 1_555
Ba0 O13 2.965927 1_565
Ba0 O13 2.965927 1_455
Ba0 Cl0 3.052496 1_555
Ba1 O4 2.682453 1_555
Ba1 O5 2.682460 1_555
Ba1 O3 2.682460 1_555
Ba1 O15 2.965927 1_545
Ba1 O17 2.965927 1_655
Ba1 O17 2.965927 1_555
Ba1 O15 2.965927 1_555
Ba1 O16 2.965927 1_655
Ba1 O16 2.965927 1_545
Ba1 Cl1 3.052496 1_555
Ba2 O7 2.682453 1_555
Ba2 O8 2.682460 1_555
Ba2 O6 2.682460 1_555
Ba2 O18 2.965927 1_545
Ba2 O20 2.965927 1_655
Ba2 O18 2.965927 1_555
Ba2 O20 2.965927 1_555
Ba2 O19 2.965927 1_655
Ba2 O19 2.965927 1_545
Ba2 Cl1 3.052496 1_555
Ba3 O10 2.682453 1_555
Ba3 O9 2.682460 1_555
Ba3 O11 2.682460 1_555
Ba3 O23 2.965927 1_455
Ba3 O21 2.965927 1_565
Ba3 O23 2.965927 1_555
Ba3 O21 2.965927 1_555
Ba3 O22 2.965927 1_455
Ba3 O22 2.965927 1_565
Ba3 Cl0 3.052496 1_555
Ba4 O6 2.930691 1_565
Ba4 O8 2.930691 1_455
Ba4 O8 2.930691 1_555
Ba4 O6 2.930691 1_555
Ba4 O7 2.930691 1_455
Ba4 O7 2.930691 1_565
Ba4 O10 2.963415 1_554
Ba4 O11 2.963421 1_554
Ba4 O9 2.963421 1_554
Ba4 O19 3.295659 1_555
Ba4 O20 3.295665 1_555
Ba4 O18 3.295665 1_555
Ba5 O9 2.930691 1_545
Ba5 O11 2.930691 1_655
Ba5 O11 2.930691 1_555
Ba5 O9 2.930691 1_555
Ba5 O10 2.930691 1_545
Ba5 O10 2.930691 1_655
Ba5 O7 2.963415 1_556
Ba5 O8 2.963421 1_556
Ba5 O6 2.963421 1_556
Ba5 O22 3.295659 1_555
Ba5 O21 3.295665 1_555
Ba5 O23 3.295665 1_555
Ba6 O0 2.930691 1_545
Ba6 O2 2.930691 1_655
Ba6 O2 2.930691 1_555
Ba6 O0 2.930691 1_555
Ba6 O1 2.930691 1_545
Ba6 O1 2.930691 1_655
Ba6 O4 2.963415 1_555
Ba6 O3 2.963421 1_555
Ba6 O5 2.963421 1_555
Ba6 O13 3.295659 1_555
Ba6 O12 3.295665 1_555
Ba6 O14 3.295665 1_555
Ba7 O3 2.930691 1_565
Ba7 O5 2.930691 1_455
Ba7 O3 2.930691 1_555
Ba7 O5 2.930691 1_555
Ba7 O4 2.930691 1_455
Ba7 O4 2.930691 1_565
Ba7 O1 2.963415 1_555
Ba7 O2 2.963421 1_555
Ba7 O0 2.963421 1_555
Ba7 O16 3.295659 1_555
Ba7 O17 3.295665 1_555
Ba7 O15 3.295665 1_555
Ba8 O21 2.991331 1_555
Ba8 O14 2.991331 1_445
Ba8 O23 2.991331 1_445
Ba8 O12 2.991331 1_555
Ba8 O22 2.991333 1_455
Ba8 O13 2.991333 1_455
Ba8 O25 3.364053 1_455
Ba8 Cl0 3.364053 1_545
Ba8 O25 3.364059 1_555
Ba8 Cl0 3.364059 1_445
Ba8 O25 3.364059 1_445
Ba8 Cl0 3.364059 1_555
Ba9 O18 2.991331 1_445
Ba9 O15 2.991331 1_445
Ba9 O20 2.991331 1_555
Ba9 O17 2.991331 1_555
Ba9 O16 2.991333 1_545
Ba9 O19 2.991333 1_545
Ba9 O24 3.364053 1_545
Ba9 Cl1 3.364053 1_455
Ba9 Cl1 3.364059 1_555
Ba9 O24 3.364059 1_445
Ba9 Cl1 3.364059 1_445
Ba9 O24 3.364059 1_555
Co0 O24 1.827189 1_555
Co0 O19 1.844239 1_555
Co0 O18 1.844249 1_555
Co0 O20 1.844249 1_555
Co1 O25 1.827189 1_555
Co1 O22 1.844239 1_555
Co1 O21 1.844249 1_555
Co1 O23 1.844249 1_555
Co2 O25 1.827189 1_555
Co2 O13 1.844239 1_555
Co2 O12 1.844249 1_555
Co2 O14 1.844249 1_555
Co3 O24 1.827189 1_555
Co3 O16 1.844239 1_555
Co3 O15 1.844249 1_555
Co3 O17 1.844249 1_555
Co4 O17 1.995548 1_555
Co4 O15 1.995548 1_445
Co4 O16 1.995552 1_545
Co4 O3 2.082621 1_555
Co4 O5 2.082621 1_445
Co4 O4 2.082624 1_455
Co5 O12 1.995548 1_555
Co5 O14 1.995548 1_445
Co5 O13 1.995552 1_455
Co5 O2 2.082621 1_555
Co5 O0 2.082621 1_445
Co5 O1 2.082624 1_545
Co6 O23 1.995548 1_445
Co6 O21 1.995548 1_555
Co6 O22 1.995552 1_455
Co6 O11 2.082621 1_555
Co6 O9 2.082621 1_445
Co6 O10 2.082624 1_545
Co7 O18 1.995548 1_445
Co7 O20 1.995548 1_555
Co7 O19 1.995552 1_545
Co7 O8 2.082621 1_445
Co7 O6 2.082621 1_555
Co7 O7 2.082624 1_455
O0 Pt1 2.026911 1_665
O1 Pt1 2.026915 1_565
O2 Pt1 2.026911 1_555
O3 Pt1 2.026911 1_555
O4 Pt1 2.026915 1_655
O5 Pt1 2.026911 1_665
O6 Pt0 2.026911 1_555
O7 Pt0 2.026915 1_655
O8 Pt0 2.026911 1_665
O9 Pt0 2.026911 1_666
O10 Pt0 2.026915 1_566
O11 Pt0 2.026911 1_556
