# generated using pymatgen
data_SrPrVO4
_symmetry_space_group_name_H-M   'P 1'
_cell_length_a   6.91940670
_cell_length_b   6.91940670
_cell_length_c   6.91940670
_cell_angle_alpha   147.15525741
_cell_angle_beta   147.15525741
_cell_angle_gamma   47.13395316
_symmetry_Int_Tables_number   1
_chemical_formula_structural   SrPrVO4
_chemical_formula_sum   'Sr1 Pr1 V1 O4'
_cell_volume   97.08318981
_cell_formula_units_Z   1
loop_
 _symmetry_equiv_pos_site_id
 _symmetry_equiv_pos_as_xyz
  1  'x, y, z'
loop_
 _atom_site_type_symbol
 _atom_site_label
 _atom_site_symmetry_multiplicity
 _atom_site_fract_x
 _atom_site_fract_y
 _atom_site_fract_z
 _atom_site_occupancy
  Sr  Sr0  1  0.64561000  0.64561000  0.00000000  1
  Pr  Pr0  1  0.35792900  0.35792900  0.00000000  1
  V  V0  1  0.00300000  0.00300000  0.00000000  1
  O  O0  1  0.99227800  0.49227800  0.50000000  1
  O  O1  1  0.49227800  0.99227800  0.50000000  1
  O  O2  1  0.83429800  0.83429800  0.00000000  1
  O  O3  1  0.17460800  0.17460800  0.00000000  1
loop_
_geom_bond_atom_site_label_1
_geom_bond_atom_site_label_2
_geom_bond_distance
_geom_bond_site_symmetry_2
O0 V0 1.960949 1_655
O0 V0 1.960949 1_666
O0 Pr0 2.594413 1_656
O0 Pr0 2.594413 1_555
O0 Sr0 2.758560 1_555
O0 Sr0 2.758560 1_656
O1 V0 1.960949 1_565
O1 V0 1.960949 1_666
O1 Pr0 2.594413 1_566
O1 Pr0 2.594413 1_555
O1 Sr0 2.758560 1_555
O1 Sr0 2.758560 1_566
O2 V0 2.139911 1_665
O2 Sr0 2.393425 1_555
O2 Pr0 2.782714 1_565
O2 Pr0 2.782714 1_666
O2 Pr0 2.782714 1_554
O2 Pr0 2.782714 1_655
O3 V0 2.176773 1_555
O3 Pr0 2.325347 1_555
O3 Sr0 2.790868 1_455
O3 Sr0 2.790868 1_556
O3 Sr0 2.790868 1_444
O3 Sr0 2.790868 1_545
