# generated using pymatgen
data_Ca2Ga2GeO7
_symmetry_space_group_name_H-M   'P 1'
_cell_length_a   7.97994300
_cell_length_b   5.25789700
_cell_length_c   7.99530228
_cell_angle_alpha   89.98483636
_cell_angle_beta   90.00000000
_cell_angle_gamma   90.00000000
_symmetry_Int_Tables_number   1
_chemical_formula_structural   Ca2Ga2GeO7
_chemical_formula_sum   'Ca4 Ga4 Ge2 O14'
_cell_volume   335.46462952
_cell_formula_units_Z   2
loop_
 _symmetry_equiv_pos_site_id
 _symmetry_equiv_pos_as_xyz
  1  'x, y, z'
loop_
 _atom_site_type_symbol
 _atom_site_label
 _atom_site_symmetry_multiplicity
 _atom_site_fract_x
 _atom_site_fract_y
 _atom_site_fract_z
 _atom_site_occupancy
  Ca  Ca0  1  0.65817500  0.48431500  0.57547200  1
  Ca  Ca1  1  0.15817500  0.51568500  0.42452800  1
  Ca  Ca2  1  0.33570400  0.48617600  0.89628900  1
  Ca  Ca3  1  0.83570400  0.51382400  0.10371100  1
  Ga  Ga0  1  0.50052700  0.99993300  0.25280300  1
  Ga  Ga1  1  0.00052700  0.00006700  0.74719700  1
  Ga  Ga2  1  0.85514700  0.03290000  0.39536000  1
  Ga  Ga3  1  0.35514700  0.96710000  0.60464000  1
  Ge  Ge0  1  0.14371800  0.04234200  0.10633500  1
  Ge  Ge1  1  0.64371800  0.95765800  0.89366500  1
  O  O0  1  0.50566700  0.80130200  0.75187300  1
  O  O1  1  0.00566700  0.19869800  0.24812700  1
  O  O2  1  0.86024700  0.69088600  0.38635000  1
  O  O3  1  0.36024700  0.30911400  0.61365000  1
  O  O4  1  0.14127000  0.71248600  0.10510100  1
  O  O5  1  0.64127000  0.28751400  0.89489900  1
  O  O6  1  0.59201300  0.79572000  0.08402400  1
  O  O7  1  0.09201300  0.20428000  0.91597600  1
  O  O8  1  0.40884900  0.78769100  0.41029100  1
  O  O9  1  0.90884900  0.21230900  0.58970900  1
  O  O10  1  0.66261900  0.21471100  0.33425500  1
  O  O11  1  0.16261900  0.78528900  0.66574500  1
  O  O12  1  0.33606400  0.20164000  0.15208100  1
  O  O13  1  0.83606400  0.79836000  0.84791900  1
loop_
_geom_bond_atom_site_label_1
_geom_bond_atom_site_label_2
_geom_bond_distance
_geom_bond_site_symmetry_2
Ca0 O10 2.394089 1_555
Ca0 O9 2.461654 1_555
Ca0 O2 2.462813 1_555
Ca0 O0 2.499871 1_555
Ca0 O3 2.567854 1_555
Ca0 O5 2.758625 1_555
Ca0 O8 2.871586 1_555
Ca0 O13 3.080341 1_555
Ca1 O11 2.394089 1_555
Ca1 O8 2.461654 1_555
Ca1 O3 2.462813 1_555
Ca1 O1 2.499871 1_555
Ca1 O2 2.567854 1_455
Ca1 O4 2.758625 1_555
Ca1 O9 2.871586 1_455
Ca1 O12 3.080341 1_555
Ca2 O0 2.432500 1_555
Ca2 O7 2.450130 1_555
Ca2 O3 2.452103 1_555
Ca2 O12 2.533606 1_556
Ca2 O4 2.571304 1_556
Ca2 O5 2.652733 1_555
Ca2 O11 2.788771 1_555
Ca2 O6 3.014397 1_556
Ca3 O1 2.432500 1_655
Ca3 O6 2.450130 1_555
Ca3 O2 2.452103 1_555
Ca3 O13 2.533606 1_554
Ca3 O5 2.571304 1_554
Ca3 O4 2.652733 1_655
Ca3 O10 2.788771 1_555
Ca3 O7 3.014397 1_654
Ga0 O8 1.834477 1_555
Ga0 O10 1.836538 1_565
Ga0 O12 1.869557 1_565
Ga0 O6 1.872866 1_555
Ga1 O9 1.834477 1_455
Ga1 O11 1.836538 1_545
Ga1 O13 1.869557 1_445
Ga1 O7 1.872866 1_555
Ga2 O2 1.800196 1_545
Ga2 O9 1.867834 1_555
Ga2 O10 1.874213 1_555
Ga2 O1 1.894169 1_655
Ga3 O3 1.800196 1_565
Ga3 O8 1.867834 1_555
Ga3 O11 1.874213 1_555
Ga3 O0 1.894169 1_555
Ge0 O4 1.734490 1_545
Ge0 O1 1.781899 1_555
Ge0 O12 1.786453 1_555
Ge0 O7 1.791911 1_554
Ge1 O5 1.734490 1_565
Ge1 O0 1.781899 1_555
Ge1 O13 1.786453 1_555
Ge1 O6 1.791911 1_556
