# generated using pymatgen
data_CsMg30BO31
_symmetry_space_group_name_H-M   'P 1'
_cell_length_a   8.43332200
_cell_length_b   8.62181900
_cell_length_c   8.92104200
_cell_angle_alpha   90.00000000
_cell_angle_beta   90.00000000
_cell_angle_gamma   90.00000000
_symmetry_Int_Tables_number   1
_chemical_formula_structural   CsMg30BO31
_chemical_formula_sum   'Cs1 Mg30 B1 O31'
_cell_volume   648.65410103
_cell_formula_units_Z   1
loop_
 _symmetry_equiv_pos_site_id
 _symmetry_equiv_pos_as_xyz
  1  'x, y, z'
loop_
 _atom_site_type_symbol
 _atom_site_label
 _atom_site_symmetry_multiplicity
 _atom_site_fract_x
 _atom_site_fract_y
 _atom_site_fract_z
 _atom_site_occupancy
  Cs  Cs0  1  0.00000000  0.97482600  0.00000000  1
  Mg  Mg0  1  0.00000000  0.00389400  0.50000000  1
  Mg  Mg1  1  0.50000000  0.99808100  0.50000000  1
  Mg  Mg2  1  0.00000000  0.51158100  0.00000000  1
  Mg  Mg3  1  0.50000000  0.49101900  0.00000000  1
  Mg  Mg4  1  0.00000000  0.49739200  0.50000000  1
  Mg  Mg5  1  0.50000000  0.50176200  0.50000000  1
  Mg  Mg6  1  0.25774400  0.00093800  0.26658400  1
  Mg  Mg7  1  0.74225600  0.00093800  0.26658400  1
  Mg  Mg8  1  0.25774400  0.00093800  0.73341600  1
  Mg  Mg9  1  0.74225600  0.00093800  0.73341600  1
  Mg  Mg10  1  0.25068800  0.49840700  0.25118900  1
  Mg  Mg11  1  0.74931200  0.49840700  0.25118900  1
  Mg  Mg12  1  0.25068800  0.49840700  0.74881100  1
  Mg  Mg13  1  0.74931200  0.49840700  0.74881100  1
  Mg  Mg14  1  0.26900200  0.73417800  0.00000000  1
  Mg  Mg15  1  0.73099800  0.73417800  0.00000000  1
  Mg  Mg16  1  0.25340600  0.74805100  0.50000000  1
  Mg  Mg17  1  0.74659400  0.74805100  0.50000000  1
  Mg  Mg18  1  0.24485700  0.25712200  0.00000000  1
  Mg  Mg19  1  0.75514300  0.25712200  0.00000000  1
  Mg  Mg20  1  0.24860200  0.25227700  0.50000000  1
  Mg  Mg21  1  0.75139800  0.25227700  0.50000000  1
  Mg  Mg22  1  0.00000000  0.74300500  0.26634000  1
  Mg  Mg23  1  0.50000000  0.75525400  0.24360800  1
  Mg  Mg24  1  0.00000000  0.74300500  0.73366000  1
  Mg  Mg25  1  0.50000000  0.75525400  0.75639200  1
  Mg  Mg26  1  0.00000000  0.25296600  0.25485100  1
  Mg  Mg27  1  0.50000000  0.24745400  0.26312500  1
  Mg  Mg28  1  0.00000000  0.25296600  0.74514900  1
  Mg  Mg29  1  0.50000000  0.24745400  0.73687500  1
  B  B0  1  0.50000000  0.06427800  0.00000000  1
  O  O0  1  0.50000000  0.72090200  0.00000000  1
  O  O1  1  0.00000000  0.74363800  0.50000000  1
  O  O2  1  0.50000000  0.74517500  0.50000000  1
  O  O3  1  0.00000000  0.27806000  0.00000000  1
  O  O4  1  0.50000000  0.23513200  0.00000000  1
  O  O5  1  0.00000000  0.25561700  0.50000000  1
  O  O6  1  0.50000000  0.25525700  0.50000000  1
  O  O7  1  0.25054400  0.75314600  0.24861600  1
  O  O8  1  0.74945600  0.75314600  0.24861600  1
  O  O9  1  0.25054400  0.75314600  0.75138400  1
  O  O10  1  0.74945600  0.75314600  0.75138400  1
  O  O11  1  0.25003100  0.24717800  0.24740000  1
  O  O12  1  0.74996900  0.24717800  0.24740000  1
  O  O13  1  0.25003100  0.24717800  0.75260000  1
  O  O14  1  0.74996900  0.24717800  0.75260000  1
  O  O15  1  0.34202900  0.00740100  0.00000000  1
  O  O16  1  0.65797100  0.00740100  0.00000000  1
  O  O17  1  0.25183400  0.00105600  0.50000000  1
  O  O18  1  0.74816600  0.00105600  0.50000000  1
  O  O19  1  0.25754100  0.49191000  0.00000000  1
  O  O20  1  0.74245900  0.49191000  0.00000000  1
  O  O21  1  0.25154100  0.49953400  0.50000000  1
  O  O22  1  0.74845900  0.49953400  0.50000000  1
  O  O23  1  0.00000000  0.00291800  0.28138600  1
  O  O24  1  0.50000000  0.00293300  0.27484500  1
  O  O25  1  0.00000000  0.00291800  0.71861400  1
  O  O26  1  0.50000000  0.00293300  0.72515500  1
  O  O27  1  0.00000000  0.49796700  0.26094400  1
  O  O28  1  0.50000000  0.49333100  0.25117200  1
  O  O29  1  0.00000000  0.49796700  0.73905600  1
  O  O30  1  0.50000000  0.49333100  0.74882800  1
loop_
_geom_bond_atom_site_label_1
_geom_bond_atom_site_label_2
_geom_bond_distance
_geom_bond_site_symmetry_2
Cs0 O23 2.521914 1_565
Cs0 O25 2.521914 1_564
Cs0 O3 2.614429 1_565
Cs0 O15 2.898082 1_565
Cs0 O16 2.898082 1_465
Mg0 O25 1.950283 1_555
Mg0 O23 1.950283 1_555
Mg0 O18 2.123938 1_455
Mg0 O17 2.123938 1_555
Mg0 O5 2.170310 1_555
Mg0 O1 2.243880 1_545
Mg1 O26 2.009053 1_565
Mg1 O24 2.009053 1_565
Mg1 O17 2.093021 1_565
Mg1 O18 2.093021 1_565
Mg1 O2 2.180510 1_555
Mg1 O6 2.217325 1_565
Mg2 O3 2.013376 1_555
Mg2 O19 2.178538 1_555
Mg2 O20 2.178538 1_455
Mg2 O27 2.330850 1_555
Mg2 O29 2.330850 1_554
Mg3 O0 1.982010 1_555
Mg3 O20 2.044749 1_555
Mg3 O19 2.044749 1_555
Mg3 O4 2.206211 1_555
Mg3 O28 2.240805 1_555
Mg3 O30 2.240805 1_554
Mg4 O5 2.084540 1_555
Mg4 O22 2.121407 1_455
Mg4 O21 2.121407 1_555
Mg4 O1 2.123088 1_555
Mg4 O29 2.132634 1_555
Mg4 O27 2.132634 1_555
Mg5 O21 2.095423 1_555
Mg5 O22 2.095423 1_555
Mg5 O2 2.098663 1_555
Mg5 O6 2.125321 1_555
Mg5 O30 2.220995 1_555
Mg5 O28 2.220995 1_555
Mg6 O24 2.044424 1_555
Mg6 O17 2.082911 1_555
Mg6 O11 2.130917 1_555
Mg6 O7 2.143283 1_545
Mg6 O23 2.177712 1_555
Mg6 O15 2.482784 1_555
Mg7 O24 2.044424 1_555
Mg7 O18 2.082911 1_555
Mg7 O12 2.130917 1_555
Mg7 O8 2.143283 1_545
Mg7 O23 2.177712 1_655
Mg7 O16 2.482784 1_555
Mg8 O26 2.044424 1_555
Mg8 O17 2.082911 1_555
Mg8 O13 2.130917 1_555
Mg8 O9 2.143283 1_545
Mg8 O25 2.177712 1_555
Mg8 O15 2.482784 1_556
Mg9 O26 2.044424 1_555
Mg9 O18 2.082911 1_555
Mg9 O14 2.130917 1_555
Mg9 O10 2.143283 1_545
Mg9 O25 2.177712 1_655
Mg9 O16 2.482784 1_556
Mg10 O28 2.102984 1_555
Mg10 O27 2.115926 1_555
Mg10 O11 2.166322 1_555
Mg10 O7 2.196434 1_555
Mg10 O21 2.219686 1_555
Mg10 O19 2.242313 1_555
Mg11 O28 2.102984 1_555
Mg11 O27 2.115926 1_655
Mg11 O12 2.166322 1_555
Mg11 O8 2.196434 1_555
Mg11 O22 2.219686 1_555
Mg11 O20 2.242313 1_555
Mg12 O30 2.102984 1_555
Mg12 O29 2.115926 1_555
Mg12 O13 2.166322 1_555
Mg12 O9 2.196434 1_555
Mg12 O21 2.219686 1_555
Mg12 O19 2.242313 1_556
Mg13 O30 2.102984 1_555
Mg13 O29 2.115926 1_655
Mg13 O14 2.166322 1_555
Mg13 O10 2.196434 1_555
Mg13 O22 2.219686 1_555
Mg13 O20 2.242313 1_556
Mg14 O0 1.951440 1_555
Mg14 O19 2.091026 1_555
Mg14 O7 2.229376 1_555
Mg14 O9 2.229376 1_554
Mg14 O15 2.434853 1_565
Mg15 O0 1.951440 1_555
Mg15 O20 2.091026 1_555
Mg15 O8 2.229376 1_555
Mg15 O10 2.229376 1_554
Mg15 O16 2.434853 1_565
Mg16 O2 2.079754 1_555
Mg16 O1 2.137393 1_555
Mg16 O21 2.142726 1_555
Mg16 O17 2.181404 1_565
Mg16 O9 2.243167 1_555
Mg16 O7 2.243167 1_555
Mg17 O2 2.079754 1_555
Mg17 O1 2.137393 1_655
Mg17 O22 2.142726 1_555
Mg17 O18 2.181404 1_565
Mg17 O10 2.243167 1_555
Mg17 O8 2.243167 1_555
Mg18 O19 2.027124 1_555
Mg18 O3 2.072834 1_555
Mg18 O4 2.160040 1_555
Mg18 O13 2.209161 1_554
Mg18 O11 2.209161 1_555
Mg18 O15 2.303730 1_555
Mg19 O20 2.027124 1_555
Mg19 O3 2.072834 1_655
Mg19 O4 2.160040 1_555
Mg19 O14 2.209161 1_554
Mg19 O12 2.209161 1_555
Mg19 O16 2.303730 1_555
Mg20 O5 2.096738 1_555
Mg20 O6 2.120276 1_555
Mg20 O21 2.131949 1_555
Mg20 O17 2.166153 1_555
Mg20 O11 2.253916 1_555
Mg20 O13 2.253916 1_555
Mg21 O5 2.096738 1_655
Mg21 O6 2.120276 1_555
Mg21 O22 2.131949 1_555
Mg21 O18 2.166153 1_555
Mg21 O12 2.253916 1_555
Mg21 O14 2.253916 1_555
Mg22 O1 2.084498 1_555
Mg22 O27 2.113222 1_555
Mg22 O8 2.120629 1_455
Mg22 O7 2.120629 1_555
Mg22 O23 2.244939 1_565
Mg23 O7 2.104296 1_555
Mg23 O8 2.104296 1_555
Mg23 O24 2.153549 1_565
Mg23 O0 2.193326 1_555
Mg23 O28 2.259261 1_555
Mg23 O2 2.288934 1_555
Mg24 O1 2.084498 1_555
Mg24 O29 2.113222 1_555
Mg24 O9 2.120629 1_555
Mg24 O10 2.120629 1_455
Mg24 O25 2.244939 1_565
Mg25 O9 2.104296 1_555
Mg25 O10 2.104296 1_555
Mg25 O26 2.153549 1_565
Mg25 O0 2.193326 1_556
Mg25 O30 2.259261 1_555
Mg25 O2 2.288934 1_555
Mg26 O12 2.110230 1_455
Mg26 O11 2.110230 1_555
Mg26 O27 2.113054 1_555
Mg26 O23 2.168826 1_555
Mg26 O5 2.187104 1_555
Mg26 O3 2.283808 1_555
Mg27 O24 2.110807 1_555
Mg27 O11 2.112733 1_555
Mg27 O12 2.112733 1_555
Mg27 O6 2.114242 1_555
Mg27 O28 2.122587 1_555
Mg27 O4 2.349752 1_555
Mg28 O14 2.110230 1_455
Mg28 O13 2.110230 1_555
Mg28 O29 2.113054 1_555
Mg28 O25 2.168826 1_555
Mg28 O5 2.187104 1_555
Mg28 O3 2.283808 1_556
Mg29 O26 2.110807 1_555
Mg29 O14 2.112733 1_555
Mg29 O13 2.112733 1_555
Mg29 O6 2.114242 1_555
Mg29 O30 2.122587 1_555
Mg29 O4 2.349752 1_556
B0 O16 1.419608 1_555
B0 O15 1.419608 1_555
B0 O4 1.473072 1_555
