# generated using pymatgen
data_BaLiMg14
_symmetry_space_group_name_H-M   'P 1'
_cell_length_a   6.64376969
_cell_length_b   6.49021532
_cell_length_c   10.64467734
_cell_angle_alpha   90.00000000
_cell_angle_beta   90.00000000
_cell_angle_gamma   119.23834952
_symmetry_Int_Tables_number   1
_chemical_formula_structural   BaLiMg14
_chemical_formula_sum   'Ba1 Li1 Mg14'
_cell_volume   400.51526035
_cell_formula_units_Z   1
loop_
 _symmetry_equiv_pos_site_id
 _symmetry_equiv_pos_as_xyz
  1  'x, y, z'
loop_
 _atom_site_type_symbol
 _atom_site_label
 _atom_site_symmetry_multiplicity
 _atom_site_fract_x
 _atom_site_fract_y
 _atom_site_fract_z
 _atom_site_occupancy
  Ba  Ba0  1  0.16094854  0.83047377  0.12500000  1
  Li  Li0  1  0.17233247  0.33616573  0.12500000  1
  Mg  Mg0  1  0.16213257  0.33106579  0.62500000  1
  Mg  Mg1  1  0.16475597  0.83237749  0.62500000  1
  Mg  Mg2  1  0.65913201  0.33618030  0.12500000  1
  Mg  Mg3  1  0.66756473  0.33165472  0.62500000  1
  Mg  Mg4  1  0.65913201  0.82295071  0.12500000  1
  Mg  Mg5  1  0.66756473  0.83590901  0.62500000  1
  Mg  Mg6  1  0.34055208  0.17708455  0.39006888  1
  Mg  Mg7  1  0.34055208  0.17708455  0.85993112  1
  Mg  Mg8  1  0.34055208  0.66346853  0.39006888  1
  Mg  Mg9  1  0.34055208  0.66346853  0.85993112  1
  Mg  Mg10  1  0.83708004  0.16854052  0.37075268  1
  Mg  Mg11  1  0.83708004  0.16854052  0.87924732  1
  Mg  Mg12  1  0.82503429  0.66251764  0.38943830  1
  Mg  Mg13  1  0.82503429  0.66251764  0.86056170  1
loop_
_geom_bond_atom_site_label_1
_geom_bond_atom_site_label_2
_geom_bond_distance
_geom_bond_site_symmetry_2
Ba0 Li0 3.245779 1_565
Ba0 Li0 3.245779 1_555
Ba0 Mg2 3.310378 1_455
Ba0 Mg4 3.310379 1_455
Ba0 Mg2 3.333937 1_565
Ba0 Mg4 3.333937 1_555
Ba0 Mg12 3.422838 1_455
Ba0 Mg13 3.422838 1_454
Ba0 Mg9 3.438518 1_554
Ba0 Mg8 3.438518 1_555
Ba0 Mg7 3.438525 1_564
Ba0 Mg6 3.438525 1_565
Li0 Mg4 3.234138 1_555
Li0 Mg2 3.234138 1_555
Li0 Mg11 3.258940 1_454
Li0 Mg10 3.258940 1_455
Li0 Mg7 3.376916 1_554
Li0 Mg6 3.376916 1_555
Li0 Mg9 3.376922 1_554
Li0 Mg8 3.376922 1_555
Li0 Mg4 3.409632 1_445
Li0 Mg2 3.409632 1_455
Mg0 Mg6 3.132882 1_555
Mg0 Mg7 3.132882 1_555
Mg0 Mg8 3.132888 1_555
Mg0 Mg9 3.132888 1_555
Mg0 Mg1 3.245143 1_555
Mg0 Mg1 3.245143 1_545
Mg0 Mg5 3.287663 1_445
Mg0 Mg3 3.287663 1_455
Mg0 Mg10 3.297816 1_455
Mg0 Mg11 3.297816 1_455
Mg0 Mg5 3.356109 1_555
Mg0 Mg3 3.356110 1_555
Mg1 Mg8 3.173403 1_555
Mg1 Mg9 3.173403 1_555
Mg1 Mg6 3.173410 1_565
Mg1 Mg7 3.173410 1_565
Mg1 Mg12 3.188461 1_455
Mg1 Mg13 3.188461 1_455
Mg1 Mg3 3.314479 1_455
Mg1 Mg5 3.314480 1_455
Mg1 Mg3 3.329410 1_565
Mg1 Mg5 3.329410 1_555
Mg2 Mg4 3.159245 1_555
Mg2 Mg4 3.330971 1_545
Mg2 Mg7 3.372292 1_554
Mg2 Mg6 3.372292 1_555
Mg3 Mg6 3.138669 1_555
Mg3 Mg7 3.138669 1_555
Mg3 Mg5 3.217496 1_545
Mg3 Mg5 3.272719 1_555
Mg4 Mg9 3.372292 1_554
Mg4 Mg8 3.372292 1_555
Mg5 Mg8 3.138669 1_555
Mg5 Mg9 3.138669 1_555
Mg6 Mg8 3.156737 1_555
Mg6 Mg8 3.333479 1_545
Mg7 Mg9 3.156737 1_555
Mg7 Mg9 3.333479 1_545
Mg10 Mg12 3.251947 1_555
Mg10 Mg12 3.251948 1_545
Mg10 Mg2 3.268226 1_555
Mg10 Mg4 3.268232 1_545
Mg10 Mg3 3.298229 1_555
Mg10 Mg5 3.298235 1_545
Mg10 Mg8 3.324584 1_655
Mg10 Mg6 3.324584 1_655
Mg10 Mg8 3.332604 1_545
Mg10 Mg6 3.332604 1_555
Mg11 Mg13 3.251947 1_555
Mg11 Mg13 3.251948 1_545
Mg11 Mg2 3.268226 1_556
Mg11 Mg4 3.268232 1_546
Mg11 Mg3 3.298229 1_555
Mg11 Mg5 3.298235 1_545
Mg11 Mg9 3.324584 1_655
Mg11 Mg7 3.324584 1_655
Mg11 Mg9 3.332604 1_545
Mg11 Mg7 3.332604 1_555
Mg12 Mg5 3.130254 1_555
Mg12 Mg3 3.130260 1_555
Mg12 Mg6 3.221814 1_555
Mg12 Mg8 3.221814 1_555
Mg12 Mg4 3.368036 1_555
Mg12 Mg2 3.368042 1_555
Mg12 Mg6 3.421978 1_665
Mg12 Mg8 3.421978 1_655
Mg13 Mg5 3.130254 1_555
Mg13 Mg3 3.130260 1_555
Mg13 Mg7 3.221814 1_555
Mg13 Mg9 3.221814 1_555
Mg13 Mg4 3.368036 1_556
Mg13 Mg2 3.368042 1_556
Mg13 Mg7 3.421978 1_665
Mg13 Mg9 3.421978 1_655
