# generated using pymatgen
data_Sr2FeWO6
_symmetry_space_group_name_H-M   'P 1'
_cell_length_a   5.66469079
_cell_length_b   5.67479368
_cell_length_c   5.71644643
_cell_angle_alpha   119.08701894
_cell_angle_beta   119.02134960
_cell_angle_gamma   91.16057535
_symmetry_Int_Tables_number   1
_chemical_formula_structural   Sr2FeWO6
_chemical_formula_sum   'Sr2 Fe1 W1 O6'
_cell_volume   132.30125888
_cell_formula_units_Z   1
loop_
 _symmetry_equiv_pos_site_id
 _symmetry_equiv_pos_as_xyz
  1  'x, y, z'
loop_
 _atom_site_type_symbol
 _atom_site_label
 _atom_site_symmetry_multiplicity
 _atom_site_fract_x
 _atom_site_fract_y
 _atom_site_fract_z
 _atom_site_occupancy
  Sr  Sr0  1  0.75010500  0.25000600  0.50026400  1
  Sr  Sr1  1  0.24993500  0.74998700  0.49975300  1
  Fe  Fe0  1  0.49997600  0.50005300  0.99990900  1
  W  W0  1  0.99995500  0.99998000  0.99991000  1
  O  O0  1  0.23708500  0.23617200  0.47436400  1
  O  O1  1  0.76292100  0.76378400  0.52569400  1
  O  O2  1  0.71059600  0.80438300  0.99939400  1
  O  O3  1  0.28944100  0.19566300  0.00066000  1
  O  O4  1  0.81101800  0.28312100  0.00090400  1
  O  O5  1  0.18896800  0.71685000  0.99914800  1
loop_
_geom_bond_atom_site_label_1
_geom_bond_atom_site_label_2
_geom_bond_distance
_geom_bond_site_symmetry_2
Fe0 O2 2.081090 1_555
Fe0 O3 2.082022 1_556
Fe0 O0 2.163411 1_555
Fe0 O1 2.164394 1_556
Fe0 O5 2.168637 1_555
Fe0 O4 2.169088 1_556
O0 W0 1.953091 1_444
O0 Sr1 2.832958 1_545
O0 Sr0 2.834019 1_455
O0 Sr0 2.834693 1_555
O0 Sr1 2.845684 1_555
O1 W0 1.952110 1_555
O1 Sr0 2.833284 1_565
O1 Sr1 2.834327 1_655
O1 Sr1 2.834397 1_555
O1 Sr0 2.845371 1_555
O2 W0 1.958881 1_555
O2 Sr1 2.634587 1_555
O2 Sr0 2.637891 1_566
O2 Sr0 3.163702 1_555
O2 Sr1 3.166765 1_656
O3 W0 1.958833 1_444
O3 Sr0 2.634608 1_555
O3 Sr1 2.638150 1_544
O3 Sr1 3.163430 1_555
O3 Sr0 3.166691 1_454
O4 W0 1.947792 1_544
O4 Sr1 2.615547 1_655
O4 Sr0 2.619366 1_554
O4 Sr0 3.126906 1_555
O4 Sr1 3.132270 1_544
O5 W0 1.948159 1_455
O5 Sr0 2.615393 1_455
O5 Sr1 2.618987 1_556
O5 Sr1 3.127337 1_555
O5 Sr0 3.132511 1_566
