# generated using pymatgen
data_Cu(PO3)2
_symmetry_space_group_name_H-M   'P 1'
_cell_length_a   7.51246599
_cell_length_b   7.51246599
_cell_length_c   9.51056838
_cell_angle_alpha   66.17200224
_cell_angle_beta   66.17200224
_cell_angle_gamma   64.82681112
_symmetry_Int_Tables_number   1
_chemical_formula_structural   Cu(PO3)2
_chemical_formula_sum   'Cu4 P8 O24'
_cell_volume   426.53753142
_cell_formula_units_Z   4
loop_
 _symmetry_equiv_pos_site_id
 _symmetry_equiv_pos_as_xyz
  1  'x, y, z'
loop_
 _atom_site_type_symbol
 _atom_site_label
 _atom_site_symmetry_multiplicity
 _atom_site_fract_x
 _atom_site_fract_y
 _atom_site_fract_z
 _atom_site_occupancy
  Cu  Cu0  1  0.44570379  0.55429621  0.75000000  1
  Cu  Cu1  1  0.55429621  0.44570379  0.25000000  1
  Cu  Cu2  1  0.50000000  -0.00000000  0.50000000  1
  Cu  Cu3  1  0.00000000  0.50000000  -0.00000000  1
  P  P0  1  0.23147397  0.74522218  0.47712348  1
  P  P1  1  0.18215165  0.19157811  0.80321770  1
  P  P2  1  0.76852603  0.25477782  0.52287652  1
  P  P3  1  0.81784835  0.80842189  0.19678230  1
  P  P4  1  0.25477782  0.76852603  0.02287652  1
  P  P5  1  0.80842189  0.81784835  0.69678230  1
  P  P6  1  0.19157811  0.18215165  0.30321770  1
  P  P7  1  0.74522218  0.23147397  0.97712348  1
  O  O0  1  0.62640298  0.81077287  0.67335796  1
  O  O1  1  0.30488231  0.76941049  0.59150468  1
  O  O2  1  0.78689352  0.04997134  0.66726201  1
  O  O3  1  0.23058951  0.69511769  0.90849532  1
  O  O4  1  0.43271549  0.65741943  0.08752861  1
  O  O5  1  0.04997134  0.78689352  0.16726201  1
  O  O6  1  0.25163021  0.00063052  0.94550291  1
  O  O7  1  0.21310648  0.95002866  0.33273799  1
  O  O8  1  0.81077287  0.62640298  0.17335796  1
  O  O9  1  0.00063052  0.25163021  0.44550291  1
  O  O10  1  0.65741943  0.43271549  0.58752861  1
  O  O11  1  -0.00063052  0.74836979  0.55449709  1
  O  O12  1  0.69511769  0.23058951  0.40849532  1
  O  O13  1  0.56728451  0.34258057  0.91247139  1
  O  O14  1  0.76941049  0.30488231  0.09150468  1
  O  O15  1  0.37359702  0.18922713  0.32664204  1
  O  O16  1  0.15506436  0.29622336  0.14535323  1
  O  O17  1  0.74836979  -0.00063052  0.05449709  1
  O  O18  1  0.84493564  0.70377664  0.85464677  1
  O  O19  1  0.34258057  0.56728451  0.41247139  1
  O  O20  1  0.70377664  0.84493564  0.35464677  1
  O  O21  1  0.95002866  0.21310648  0.83273799  1
  O  O22  1  0.29622336  0.15506436  0.64535323  1
  O  O23  1  0.18922713  0.37359702  0.82664204  1
loop_
_geom_bond_atom_site_label_1
_geom_bond_atom_site_label_2
_geom_bond_distance
_geom_bond_site_symmetry_2
Cu0 O13 1.915813 1_555
Cu0 O10 1.915813 1_555
Cu0 O3 1.966926 1_555
Cu0 O1 1.966926 1_555
Cu0 O0 2.525352 1_555
Cu0 O23 2.525352 1_555
Cu1 O4 1.915813 1_555
Cu1 O19 1.915813 1_555
Cu1 O12 1.966926 1_555
Cu1 O14 1.966926 1_555
Cu1 O8 2.525352 1_555
Cu1 O15 2.525352 1_555
Cu2 O20 1.919827 1_545
Cu2 O22 1.919827 1_555
Cu2 O15 1.965650 1_555
Cu2 O0 1.965650 1_545
Cu2 O1 2.412092 1_545
Cu2 O12 2.412092 1_555
Cu3 O16 1.919827 1_555
Cu3 O18 1.919827 1_454
Cu3 O23 1.965650 1_554
Cu3 O8 1.965650 1_455
Cu3 O14 2.412092 1_455
Cu3 O3 2.412092 1_554
O0 P5 1.496598 1_555
O1 P0 1.500071 1_555
O2 P2 1.592911 1_555
O2 P5 1.595951 1_545
O3 P4 1.500071 1_556
O4 P4 1.470345 1_555
O5 P4 1.592911 1_555
O5 P3 1.595951 1_455
O6 P4 1.588935 1_546
O6 P1 1.589552 1_555
O7 P0 1.592911 1_555
O7 P6 1.595951 1_565
O8 P3 1.496598 1_555
O9 P2 1.588935 1_455
O9 P6 1.589552 1_555
O10 P2 1.470345 1_555
O11 P0 1.588935 1_555
O11 P5 1.589552 1_455
O12 P2 1.500071 1_555
O13 P7 1.470345 1_555
O14 P7 1.500071 1_554
O15 P6 1.496598 1_555
O16 P6 1.468667 1_555
O17 P7 1.588935 1_554
O17 P3 1.589552 1_545
O18 P5 1.468667 1_555
O19 P0 1.470345 1_555
O20 P3 1.468667 1_555
O21 P7 1.592911 1_555
O21 P1 1.595951 1_655
O22 P1 1.468667 1_555
O23 P1 1.496598 1_555
