# generated using pymatgen
data_Mg2As2O9
_symmetry_space_group_name_H-M   'P 1'
_cell_length_a   14.55080400
_cell_length_b   6.52685000
_cell_length_c   9.71435512
_cell_angle_alpha   52.87337813
_cell_angle_beta   90.00000000
_cell_angle_gamma   90.00000000
_symmetry_Int_Tables_number   1
_chemical_formula_structural   Mg2As2O9
_chemical_formula_sum   'Mg8 As8 O36'
_cell_volume   735.57727892
_cell_formula_units_Z   4
loop_
 _symmetry_equiv_pos_site_id
 _symmetry_equiv_pos_as_xyz
  1  'x, y, z'
loop_
 _atom_site_type_symbol
 _atom_site_label
 _atom_site_symmetry_multiplicity
 _atom_site_fract_x
 _atom_site_fract_y
 _atom_site_fract_z
 _atom_site_occupancy
  Mg  Mg0  1  0.74341200  0.69738900  0.85327600  1
  Mg  Mg1  1  0.75658800  0.69738900  0.35327600  1
  Mg  Mg2  1  0.25658800  0.30261100  0.14672400  1
  Mg  Mg3  1  0.24341200  0.30261100  0.64672400  1
  Mg  Mg4  1  0.87666700  0.18679500  0.58306800  1
  Mg  Mg5  1  0.62333300  0.18679500  0.08306800  1
  Mg  Mg6  1  0.12333300  0.81320500  0.41693200  1
  Mg  Mg7  1  0.37666700  0.81320500  0.91693200  1
  As  As0  1  0.82174300  0.11176800  0.94610700  1
  As  As1  1  0.67825700  0.11176800  0.44610700  1
  As  As2  1  0.17825700  0.88823200  0.05389300  1
  As  As3  1  0.32174300  0.88823200  0.55389300  1
  As  As4  1  0.92131000  0.61104500  0.65527100  1
  As  As5  1  0.57869000  0.61104500  0.15527100  1
  As  As6  1  0.07869000  0.38895500  0.34472900  1
  As  As7  1  0.42131000  0.38895500  0.84472900  1
  O  O0  1  0.79776000  0.02978500  0.81228900  1
  O  O1  1  0.70224000  0.02978500  0.31228900  1
  O  O2  1  0.20224000  0.97021500  0.18771100  1
  O  O3  1  0.29776000  0.97021500  0.68771100  1
  O  O4  1  0.84469100  0.85610700  0.14964700  1
  O  O5  1  0.65530900  0.85610700  0.64964700  1
  O  O6  1  0.15530900  0.14389300  0.85035300  1
  O  O7  1  0.34469100  0.14389300  0.35035300  1
  O  O8  1  0.73906400  0.31773400  0.92529900  1
  O  O9  1  0.76093600  0.31773400  0.42529900  1
  O  O10  1  0.26093600  0.68226600  0.07470100  1
  O  O11  1  0.23906400  0.68226600  0.57470100  1
  O  O12  1  0.92516200  0.30187900  0.86417700  1
  O  O13  1  0.57483800  0.30187900  0.36417700  1
  O  O14  1  0.07483800  0.69812100  0.13582300  1
  O  O15  1  0.42516200  0.69812100  0.63582300  1
  O  O16  1  0.02916200  0.71364700  0.59827300  1
  O  O17  1  0.47083800  0.71364700  0.09827300  1
  O  O18  1  0.97083800  0.28635300  0.40172700  1
  O  O19  1  0.52916200  0.28635300  0.90172700  1
  O  O20  1  0.86479500  0.54849300  0.52939300  1
  O  O21  1  0.63520500  0.54849300  0.02939300  1
  O  O22  1  0.13520500  0.45150700  0.47060700  1
  O  O23  1  0.36479500  0.45150700  0.97060700  1
  O  O24  1  0.85627200  0.80384500  0.68165400  1
  O  O25  1  0.64372800  0.80384500  0.18165400  1
  O  O26  1  0.14372800  0.19615500  0.31834600  1
  O  O27  1  0.35627200  0.19615500  0.81834600  1
  O  O28  1  0.83708900  0.49639000  0.06600400  1
  O  O29  1  0.66291100  0.49639000  0.56600400  1
  O  O30  1  0.16291100  0.50361000  0.93399600  1
  O  O31  1  0.33708900  0.50361000  0.43399600  1
  O  O32  1  0.99153900  0.99766700  0.75218200  1
  O  O33  1  0.50846100  0.99766700  0.25218200  1
  O  O34  1  0.00846100  0.00233300  0.24781800  1
  O  O35  1  0.49153900  0.00233300  0.74781800  1
loop_
_geom_bond_atom_site_label_1
_geom_bond_atom_site_label_2
_geom_bond_distance
_geom_bond_site_symmetry_2
Mg0 O5 2.038595 1_555
Mg0 O21 2.084095 1_556
Mg0 O0 2.108999 1_565
Mg0 O8 2.130938 1_555
Mg0 O24 2.135598 1_555
Mg0 O28 2.139361 1_556
Mg1 O4 2.038595 1_555
Mg1 O20 2.084095 1_555
Mg1 O1 2.108999 1_565
Mg1 O9 2.130938 1_555
Mg1 O25 2.135598 1_555
Mg1 O29 2.139361 1_555
Mg2 O7 2.038595 1_555
Mg2 O23 2.084095 1_554
Mg2 O2 2.108999 1_545
Mg2 O10 2.130938 1_555
Mg2 O26 2.135598 1_555
Mg2 O30 2.139361 1_554
Mg3 O6 2.038595 1_555
Mg3 O22 2.084095 1_555
Mg3 O3 2.108999 1_545
Mg3 O11 2.130938 1_555
Mg3 O27 2.135598 1_555
Mg3 O31 2.139361 1_555
Mg4 O18 2.005320 1_555
Mg4 O9 2.081814 1_555
Mg4 O24 2.088764 1_545
Mg4 O20 2.094975 1_555
Mg4 O32 2.137401 1_545
Mg4 O0 2.138262 1_555
Mg5 O19 2.005320 1_554
Mg5 O8 2.081814 1_554
Mg5 O25 2.088764 1_545
Mg5 O21 2.094975 1_555
Mg5 O33 2.137401 1_545
Mg5 O1 2.138262 1_555
Mg6 O16 2.005320 1_555
Mg6 O11 2.081814 1_555
Mg6 O26 2.088764 1_565
Mg6 O22 2.094975 1_555
Mg6 O34 2.137401 1_565
Mg6 O2 2.138262 1_555
Mg7 O17 2.005320 1_556
Mg7 O10 2.081814 1_556
Mg7 O27 2.088764 1_565
Mg7 O23 2.094975 1_555
Mg7 O35 2.137401 1_565
Mg7 O3 2.138262 1_555
As0 O4 1.680065 1_546
As0 O0 1.713966 1_555
As0 O8 1.722591 1_555
As0 O12 1.801516 1_555
As1 O5 1.680065 1_545
As1 O1 1.713966 1_555
As1 O9 1.722591 1_555
As1 O13 1.801516 1_555
As2 O6 1.680065 1_564
As2 O2 1.713966 1_555
As2 O10 1.722591 1_555
As2 O14 1.801516 1_555
As3 O7 1.680065 1_565
As3 O3 1.713966 1_555
As3 O11 1.722591 1_555
As3 O15 1.801516 1_555
As4 O16 1.664403 1_655
As4 O24 1.712925 1_555
As4 O20 1.714900 1_555
As4 O12 1.802779 1_555
As5 O17 1.664403 1_555
As5 O25 1.712925 1_555
As5 O21 1.714900 1_555
As5 O13 1.802779 1_555
As6 O18 1.664403 1_455
As6 O26 1.712925 1_555
As6 O22 1.714900 1_555
As6 O14 1.802779 1_555
As7 O19 1.664403 1_555
As7 O27 1.712925 1_555
As7 O23 1.714900 1_555
As7 O15 1.802779 1_555
