# generated using pymatgen
data_LaFe9
_symmetry_space_group_name_H-M   'P 1'
_cell_length_a   8.48569713
_cell_length_b   8.48608250
_cell_length_c   7.09723200
_cell_angle_alpha   126.72486448
_cell_angle_beta   126.71526103
_cell_angle_gamma   90.00499047
_symmetry_Int_Tables_number   1
_chemical_formula_structural   LaFe9
_chemical_formula_sum   'La2 Fe18'
_cell_volume   272.81724892
_cell_formula_units_Z   2
loop_
 _symmetry_equiv_pos_site_id
 _symmetry_equiv_pos_as_xyz
  1  'x, y, z'
loop_
 _atom_site_type_symbol
 _atom_site_label
 _atom_site_symmetry_multiplicity
 _atom_site_fract_x
 _atom_site_fract_y
 _atom_site_fract_z
 _atom_site_occupancy
  La  La0  1  0.25046800  0.25053900  0.50102800  1
  La  La1  1  0.74953200  0.74946100  0.49897200  1
  Fe  Fe0  1  0.58019600  0.72416800  0.00002000  1
  Fe  Fe1  1  0.84627700  0.34609300  0.37861600  1
  Fe  Fe2  1  0.00000000  0.50000000  0.00000000  1
  Fe  Fe3  1  0.34684400  0.53413000  0.38120600  1
  Fe  Fe4  1  0.96564800  0.15291300  0.61877600  1
  Fe  Fe5  1  0.92037800  0.22486600  0.00002600  1
  Fe  Fe6  1  0.15372300  0.65390700  0.62138400  1
  Fe  Fe7  1  0.41980400  0.27583200  0.99998000  1
  Fe  Fe8  1  0.46769100  0.96753700  0.62148700  1
  Fe  Fe9  1  0.77582000  0.92016500  0.00001000  1
  Fe  Fe10  1  0.03435200  0.84708700  0.38122400  1
  Fe  Fe11  1  0.22418000  0.07983500  0.99999000  1
  Fe  Fe12  1  0.07962200  0.77513400  0.99997400  1
  Fe  Fe13  1  0.27506000  0.57969300  0.99995800  1
  Fe  Fe14  1  0.50000000  0.00000000  0.00000000  1
  Fe  Fe15  1  0.53230900  0.03246300  0.37851300  1
  Fe  Fe16  1  0.65315600  0.46587000  0.61879400  1
  Fe  Fe17  1  0.72494000  0.42030700  0.00004200  1
loop_
_geom_bond_atom_site_label_1
_geom_bond_atom_site_label_2
_geom_bond_distance
_geom_bond_site_symmetry_2
Fe0 Fe9 2.349853 1_555
Fe0 Fe14 2.437765 1_565
Fe0 Fe4 2.633627 1_565
Fe0 Fe3 2.634557 1_554
Fe0 Fe15 2.669481 1_565
Fe0 Fe6 2.670006 1_554
Fe0 Fe10 2.723460 1_655
Fe0 Fe16 2.723760 1_554
Fe0 La0 2.766233 1_554
Fe0 La1 2.767237 1_555
Fe0 Fe17 2.856315 1_555
Fe0 Fe13 2.864439 1_554
Fe1 Fe14 2.366398 1_555
Fe1 Fe6 2.416578 1_655
Fe1 Fe13 2.640860 1_655
Fe1 Fe12 2.641987 1_655
Fe1 Fe9 2.665604 1_545
Fe1 Fe7 2.670006 1_554
Fe1 Fe5 2.718054 1_555
Fe1 Fe17 2.718796 1_555
Fe1 Fe16 2.809374 1_555
Fe1 Fe4 2.810045 1_555
Fe1 Fe8 2.868448 1_544
Fe1 Fe2 3.014826 1_656
Fe1 La0 3.233614 1_655
Fe1 La1 3.234616 1_555
Fe2 Fe4 2.367902 1_454
Fe2 Fe3 2.368086 1_555
Fe2 Fe5 2.430684 1_455
Fe2 Fe8 3.014093 1_555
Fe2 Fe6 3.014826 1_555
Fe3 Fe9 2.635685 1_556
Fe3 Fe5 2.665312 1_455
Fe3 Fe7 2.723760 1_554
Fe3 Fe6 2.809374 1_555
Fe3 Fe8 2.809663 1_555
Fe3 Fe4 2.888531 1_454
Fe3 La0 3.234567 1_555
Fe3 La1 3.235986 1_555
Fe4 Fe9 2.636138 1_545
Fe4 Fe5 2.666237 1_556
Fe4 Fe7 2.723460 1_655
Fe4 La1 3.234343 1_545
Fe4 La0 3.235543 1_655
Fe5 Fe6 2.641987 1_655
Fe5 Fe8 2.717556 1_544
Fe5 La1 2.774983 1_544
Fe5 La0 2.775122 1_655
Fe5 Fe9 2.861748 1_545
Fe6 La1 3.233614 1_455
Fe6 La0 3.234616 1_555
Fe7 Fe8 2.669481 1_545
Fe7 La1 2.766233 1_556
Fe7 La0 2.767237 1_555
Fe8 Fe9 2.666140 1_556
Fe8 La1 3.234727 1_555
Fe8 La0 3.235460 1_565
Fe9 La0 2.770871 1_665
Fe9 La1 2.772028 1_554
Fe10 Fe2 2.367902 1_555
Fe10 Fe4 2.420824 1_465
Fe10 Fe7 2.633627 1_565
Fe10 Fe11 2.636138 1_565
Fe10 Fe12 2.666237 1_554
Fe10 Fe17 2.667724 1_455
Fe10 Fe9 2.725324 1_455
Fe10 Fe8 2.809221 1_555
Fe10 Fe6 2.810045 1_555
Fe10 Fe16 2.888531 1_454
Fe10 Fe14 3.003108 1_566
Fe10 La0 3.234343 1_565
Fe10 La1 3.235543 1_455
Fe11 Fe7 2.349853 1_555
Fe11 Fe14 2.436633 1_556
Fe11 Fe16 2.635685 1_556
Fe11 Fe6 2.665604 1_545
Fe11 Fe15 2.666140 1_556
Fe11 Fe3 2.724658 1_556
Fe11 Fe4 2.725324 1_455
Fe11 La1 2.770871 1_445
Fe11 La0 2.772028 1_556
Fe11 Fe5 2.856858 1_456
Fe11 Fe12 2.861748 1_545
Fe12 Fe13 2.345544 1_555
Fe12 Fe2 2.430684 1_556
Fe12 Fe8 2.642882 1_556
Fe12 Fe16 2.665312 1_455
Fe12 Fe15 2.717556 1_566
Fe12 Fe6 2.718054 1_555
Fe12 La0 2.774983 1_566
Fe12 La1 2.775122 1_455
Fe12 Fe9 2.856858 1_456
Fe13 Fe2 2.430240 1_556
Fe13 Fe8 2.641430 1_556
Fe13 Fe4 2.667724 1_455
Fe13 Fe3 2.668792 1_556
Fe13 Fe15 2.717855 1_566
Fe13 Fe6 2.718796 1_555
Fe13 La0 2.769821 1_555
Fe13 La1 2.770634 1_556
Fe13 Fe7 2.856315 1_555
Fe14 Fe6 2.366398 1_544
Fe14 Fe8 2.366867 1_544
Fe14 Fe15 2.366867 1_555
Fe14 Fe9 2.436633 1_545
Fe14 Fe7 2.437765 1_554
Fe14 Fe16 3.002665 1_555
Fe14 Fe3 3.002665 1_544
Fe14 Fe4 3.003108 1_555
Fe15 Fe8 2.417592 1_545
Fe15 Fe17 2.641430 1_556
Fe15 Fe5 2.642882 1_556
Fe15 Fe4 2.809221 1_555
Fe15 Fe16 2.809663 1_555
Fe15 Fe6 2.868448 1_544
Fe15 Fe2 3.014093 1_656
Fe15 La0 3.234727 1_555
Fe15 La1 3.235460 1_545
Fe16 Fe2 2.368086 1_656
Fe16 Fe3 2.421346 1_555
Fe16 Fe7 2.634557 1_554
Fe16 Fe17 2.668792 1_556
Fe16 Fe9 2.724658 1_556
Fe16 La1 3.234567 1_555
Fe16 La0 3.235986 1_555
Fe17 Fe5 2.345544 1_555
Fe17 Fe2 2.430240 1_655
Fe17 Fe6 2.640860 1_655
Fe17 Fe8 2.717855 1_544
Fe17 La1 2.769821 1_555
Fe17 La0 2.770634 1_554
Fe17 Fe7 2.864439 1_554
