# generated using pymatgen
data_Li4MnCo2O7
_symmetry_space_group_name_H-M   'P 1'
_cell_length_a   5.04192500
_cell_length_b   5.16668506
_cell_length_c   10.09911112
_cell_angle_alpha   98.82195966
_cell_angle_beta   100.03430064
_cell_angle_gamma   100.52440085
_symmetry_Int_Tables_number   1
_chemical_formula_structural   Li4MnCo2O7
_chemical_formula_sum   'Li8 Mn2 Co4 O14'
_cell_volume   249.99682110
_cell_formula_units_Z   2
loop_
 _symmetry_equiv_pos_site_id
 _symmetry_equiv_pos_as_xyz
  1  'x, y, z'
loop_
 _atom_site_type_symbol
 _atom_site_label
 _atom_site_symmetry_multiplicity
 _atom_site_fract_x
 _atom_site_fract_y
 _atom_site_fract_z
 _atom_site_occupancy
  Li  Li0  1  0.27274400  0.07844700  0.57298300  1
  Li  Li1  1  0.87170300  0.21705300  0.71051800  1
  Li  Li2  1  0.42148700  0.35691100  0.85795900  1
  Li  Li3  1  0.12829700  0.78294700  0.28948200  1
  Li  Li4  1  0.72725600  0.92155300  0.42701700  1
  Li  Li5  1  0.00000000  0.50000000  0.00000000  1
  Li  Li6  1  0.57851300  0.64308900  0.14204100  1
  Li  Li7  1  0.00000000  0.50000000  0.50000000  1
  Mn  Mn0  1  0.56817100  0.63450500  0.64000900  1
  Mn  Mn1  1  0.43182900  0.36549500  0.35999100  1
  Co  Co0  1  0.13984600  0.77357100  0.77929700  1
  Co  Co1  1  0.71841900  0.93049400  0.92799400  1
  Co  Co2  1  0.28158100  0.06950600  0.07200600  1
  Co  Co3  1  0.86015400  0.22642900  0.22070300  1
  O  O0  1  0.37809100  0.69035300  0.46720800  1
  O  O1  1  0.92089100  0.84547400  0.62044300  1
  O  O2  1  0.48753200  0.95725500  0.74449600  1
  O  O3  1  0.22167600  0.42393400  0.18805800  1
  O  O4  1  0.76412200  0.55537200  0.32010800  1
  O  O5  1  0.06185700  0.13532800  0.90025200  1
  O  O6  1  0.63969100  0.26766800  0.04111700  1
  O  O7  1  0.23587800  0.44462800  0.67989200  1
  O  O8  1  0.77832400  0.57606600  0.81194200  1
  O  O9  1  0.36030900  0.73233200  0.95888300  1
  O  O10  1  0.07910900  0.15452600  0.37955700  1
  O  O11  1  0.62190900  0.30964700  0.53279200  1
  O  O12  1  0.93814300  0.86467200  0.09974800  1
  O  O13  1  0.51246800  0.04274500  0.25550400  1
loop_
_geom_bond_atom_site_label_1
_geom_bond_atom_site_label_2
_geom_bond_distance
_geom_bond_site_symmetry_2
Li0 O11 2.078559 1_555
Li0 O7 2.086039 1_555
Li0 O2 2.119396 1_545
Li0 O1 2.125783 1_445
Li0 O10 2.152830 1_555
Li0 O0 2.318123 1_545
Li1 O1 2.071627 1_545
Li1 O7 2.090545 1_655
Li1 O5 2.127197 1_655
Li1 O8 2.148446 1_555
Li1 O11 2.175405 1_555
Li1 O2 2.257085 1_545
Li2 O7 2.033122 1_555
Li2 O5 2.107711 1_555
Li2 O8 2.107982 1_555
Li2 O6 2.140620 1_556
Li2 O9 2.148973 1_555
Li2 O2 2.312166 1_545
Li3 O10 2.071627 1_565
Li3 O4 2.090545 1_455
Li3 O12 2.127197 1_455
Li3 O3 2.148446 1_555
Li3 O0 2.175405 1_555
Li3 O13 2.257085 1_565
Li4 O0 2.078559 1_555
Li4 O4 2.086039 1_555
Li4 O13 2.119396 1_565
Li4 O10 2.125783 1_665
Li4 O1 2.152830 1_555
Li4 O11 2.318123 1_565
Li5 O12 2.098577 1_455
Li5 O5 2.098577 1_554
Li5 O6 2.129018 1_455
Li5 O9 2.129018 1_554
Li5 O8 2.158791 1_454
Li5 O3 2.158791 1_555
Li6 O4 2.033122 1_555
Li6 O12 2.107711 1_555
Li6 O3 2.107982 1_555
Li6 O9 2.140620 1_554
Li6 O6 2.148973 1_555
Li6 O13 2.312166 1_565
Li7 O4 2.080289 1_455
Li7 O7 2.080289 1_555
Li7 O0 2.084692 1_555
Li7 O11 2.084692 1_455
Li7 O1 2.141937 1_455
Li7 O10 2.141937 1_555
Mn0 O7 1.920299 1_555
Mn0 O0 1.928702 1_555
Mn0 O11 1.942660 1_555
Mn0 O8 1.966062 1_555
Mn0 O1 1.967287 1_555
Mn0 O2 1.979133 1_555
Mn1 O4 1.920299 1_555
Mn1 O11 1.928702 1_555
Mn1 O0 1.942660 1_555
Mn1 O3 1.966062 1_555
Mn1 O10 1.967287 1_555
Mn1 O13 1.979133 1_555
Co0 O1 1.909428 1_455
Co0 O2 1.951021 1_555
Co0 O9 2.018129 1_555
Co0 O7 2.019250 1_555
Co0 O8 2.026228 1_455
Co0 O5 2.208122 1_565
Co1 O5 1.946144 1_665
Co1 O12 2.000148 1_556
Co1 O9 2.006129 1_555
Co1 O2 2.047959 1_555
Co1 O6 2.073097 1_566
Co1 O8 2.117857 1_555
Co2 O12 1.946144 1_445
Co2 O5 2.000148 1_554
Co2 O6 2.006129 1_555
Co2 O13 2.047959 1_555
Co2 O9 2.073097 1_544
Co2 O3 2.117857 1_555
Co3 O10 1.909428 1_655
Co3 O13 1.951021 1_555
Co3 O6 2.018129 1_555
Co3 O4 2.019250 1_555
Co3 O3 2.026228 1_655
Co3 O12 2.208122 1_545
