# generated using pymatgen
data_K2AsH13O10
_symmetry_space_group_name_H-M   'P 1'
_cell_length_a   6.67449155
_cell_length_b   6.67449155
_cell_length_c   12.86579353
_cell_angle_alpha   91.92076613
_cell_angle_beta   91.92076613
_cell_angle_gamma   91.10199098
_symmetry_Int_Tables_number   1
_chemical_formula_structural   K2AsH13O10
_chemical_formula_sum   'K4 As2 H26 O20'
_cell_volume   572.39336081
_cell_formula_units_Z   2
loop_
 _symmetry_equiv_pos_site_id
 _symmetry_equiv_pos_as_xyz
  1  'x, y, z'
loop_
 _atom_site_type_symbol
 _atom_site_label
 _atom_site_symmetry_multiplicity
 _atom_site_fract_x
 _atom_site_fract_y
 _atom_site_fract_z
 _atom_site_occupancy
  K  K0  1  0.09986800  0.36224900  0.40344500  1
  K  K1  1  0.36224900  0.09986800  0.90344500  1
  K  K2  1  0.61292900  0.09066300  0.61860900  1
  K  K3  1  0.09066300  0.61292900  0.11860900  1
  As  As0  1  0.97921500  0.64849900  0.65889700  1
  As  As1  1  0.64849900  0.97921500  0.15889700  1
  H  H0  1  0.70330600  0.56376600  0.55061200  1
  H  H1  1  0.56376600  0.70330600  0.05061200  1
  H  H2  1  0.37803100  0.65572100  0.57099100  1
  H  H3  1  0.65572100  0.37803100  0.07099100  1
  H  H4  1  0.43348300  0.71678900  0.45828900  1
  H  H5  1  0.71678900  0.43348300  0.95828900  1
  H  H6  1  0.14291700  0.06843900  0.67019700  1
  H  H7  1  0.06843900  0.14291700  0.17019700  1
  H  H8  1  0.22284700  0.29704000  0.68040300  1
  H  H9  1  0.29704000  0.22284700  0.18040300  1
  H  H10  1  0.37915100  0.79076900  0.30299200  1
  H  H11  1  0.79076900  0.37915100  0.80299200  1
  H  H12  1  0.16482000  0.82377600  0.35390500  1
  H  H13  1  0.82377600  0.16482000  0.85390500  1
  H  H14  1  0.96121100  0.92456200  0.48665300  1
  H  H15  1  0.92456200  0.96121100  0.98665300  1
  H  H16  1  0.84790300  0.94191900  0.37458200  1
  H  H17  1  0.94191900  0.84790300  0.87458200  1
  H  H18  1  0.52225100  0.10696700  0.36854500  1
  H  H19  1  0.10696700  0.52225100  0.86854500  1
  H  H20  1  0.57672800  0.32856000  0.39593800  1
  H  H21  1  0.32856000  0.57672800  0.89593800  1
  H  H22  1  0.69958600  0.62295000  0.29094500  1
  H  H23  1  0.62295000  0.69958600  0.79094500  1
  H  H24  1  0.67992400  0.40029300  0.24324200  1
  H  H25  1  0.40029300  0.67992400  0.74324200  1
  O  O0  1  0.89270300  0.61808800  0.78218300  1
  O  O1  1  0.61808800  0.89270300  0.28218300  1
  O  O2  1  0.95884200  0.88656100  0.61730200  1
  O  O3  1  0.88656100  0.95884200  0.11730200  1
  O  O4  1  0.82669500  0.48785400  0.57200000  1
  O  O5  1  0.48785400  0.82669500  0.07200000  1
  O  O6  1  0.21445300  0.55353000  0.64874500  1
  O  O7  1  0.55353000  0.21445300  0.14874500  1
  O  O8  1  0.49214700  0.70716000  0.52919100  1
  O  O9  1  0.70716000  0.49214700  0.02919100  1
  O  O10  1  0.25235600  0.15747500  0.69966200  1
  O  O11  1  0.15747500  0.25235600  0.19966200  1
  O  O12  1  0.25981200  0.71984400  0.32980300  1
  O  O13  1  0.71984400  0.25981200  0.82980300  1
  O  O14  1  0.97641000  0.96731800  0.41309100  1
  O  O15  1  0.96731800  0.97641000  0.91309100  1
  O  O16  1  0.49658500  0.21553200  0.42052000  1
  O  O17  1  0.21553200  0.49658500  0.92052000  1
  O  O18  1  0.74526100  0.48433100  0.30018100  1
  O  O19  1  0.48433100  0.74526100  0.80018100  1
loop_
_geom_bond_atom_site_label_1
_geom_bond_atom_site_label_2
_geom_bond_distance
_geom_bond_site_symmetry_2
K0 O11 2.740317 1_555
K0 O14 2.754623 1_445
K0 O12 2.802744 1_555
K0 O18 2.822564 1_455
K0 O16 2.844937 1_555
K0 O4 2.988644 1_455
K1 O10 2.740317 1_555
K1 O15 2.754623 1_445
K1 O13 2.802744 1_555
K1 O19 2.822564 1_545
K1 O17 2.844937 1_555
K1 O5 2.988644 1_546
K2 O10 2.693804 1_555
K2 O2 2.703452 1_545
K2 O16 2.797760 1_555
K2 O8 2.861197 1_545
K2 O13 2.966527 1_555
K2 O4 3.072748 1_555
K3 O11 2.693804 1_555
K3 O3 2.703452 1_455
K3 O17 2.797760 1_554
K3 O9 2.861197 1_455
K3 O12 2.966527 1_555
K3 O5 3.072748 1_555
As0 O2 1.700015 1_555
As0 O6 1.711877 1_655
As0 O0 1.723088 1_555
As0 O4 1.799239 1_555
As1 O3 1.700015 1_555
As1 O7 1.711877 1_565
As1 O1 1.723088 1_555
As1 O5 1.799239 1_555
H0 O4 1.010393 1_555
H1 O5 1.010393 1_555
H2 O8 1.008467 1_555
H2 O6 1.657798 1_555
H3 O9 1.008467 1_555
H3 O7 1.657798 1_555
H4 O8 0.985153 1_555
H5 O9 0.985153 1_556
H6 O10 0.989981 1_555
H7 O11 0.989981 1_555
H8 O10 0.993572 1_555
H9 O11 0.993572 1_555
H10 O12 0.996193 1_555
H11 O13 0.996193 1_555
H12 O12 0.997512 1_555
H13 O13 0.997512 1_555
H14 O14 1.005432 1_555
H15 O15 1.005432 1_555
H16 O14 0.984977 1_555
H17 O15 0.984977 1_555
H18 O16 0.990730 1_555
H19 O17 0.990730 1_555
H20 O16 0.983411 1_555
H21 O17 0.983411 1_555
H22 O18 0.989376 1_555
H23 O19 0.989376 1_555
H24 O18 0.991504 1_555
H25 O19 0.991504 1_555
