# generated using pymatgen
data_CrFe3
_symmetry_space_group_name_H-M   'P 1'
_cell_length_a   3.56403000
_cell_length_b   3.56403000
_cell_length_c   3.56403000
_cell_angle_alpha   90.00000000
_cell_angle_beta   90.00000000
_cell_angle_gamma   90.00000000
_symmetry_Int_Tables_number   1
_chemical_formula_structural   CrFe3
_chemical_formula_sum   'Cr1 Fe3'
_cell_volume   45.27141334
_cell_formula_units_Z   1
loop_
 _symmetry_equiv_pos_site_id
 _symmetry_equiv_pos_as_xyz
  1  'x, y, z'
loop_
 _atom_site_type_symbol
 _atom_site_label
 _atom_site_symmetry_multiplicity
 _atom_site_fract_x
 _atom_site_fract_y
 _atom_site_fract_z
 _atom_site_occupancy
  Cr  Cr0  1  0.00000000  0.00000000  0.00000000  1
  Fe  Fe0  1  0.00000000  0.50000000  0.50000000  1
  Fe  Fe1  1  0.50000000  0.50000000  0.00000000  1
  Fe  Fe2  1  0.50000000  0.00000000  0.50000000  1
loop_
_geom_bond_atom_site_label_1
_geom_bond_atom_site_label_2
_geom_bond_distance
_geom_bond_site_symmetry_2
Cr0 Fe2 2.520150 1_555
Cr0 Fe2 2.520150 1_454
Cr0 Fe0 2.520150 1_554
Cr0 Fe1 2.520150 1_545
Cr0 Fe0 2.520150 1_555
Cr0 Fe1 2.520150 1_455
Cr0 Fe2 2.520150 1_455
Cr0 Fe2 2.520150 1_554
Cr0 Fe0 2.520150 1_544
Cr0 Fe1 2.520150 1_555
Cr0 Fe0 2.520150 1_545
Cr0 Fe1 2.520150 1_445
Fe0 Fe2 2.520150 1_555
Fe0 Fe2 2.520150 1_565
Fe0 Fe1 2.520150 1_456
Fe0 Fe1 2.520150 1_455
Fe0 Fe2 2.520150 1_465
Fe0 Fe2 2.520150 1_455
Fe0 Fe1 2.520150 1_555
Fe0 Fe1 2.520150 1_556
Fe1 Fe2 2.520150 1_555
Fe1 Fe2 2.520150 1_565
Fe1 Fe2 2.520150 1_564
Fe1 Fe2 2.520150 1_554
