# generated using pymatgen
data_BaNaVF6
_symmetry_space_group_name_H-M   'P 1'
_cell_length_a   5.70886500
_cell_length_b   10.04387500
_cell_length_c   19.60391500
_cell_angle_alpha   90.00000000
_cell_angle_beta   90.00000000
_cell_angle_gamma   90.00000000
_symmetry_Int_Tables_number   1
_chemical_formula_structural   BaNaVF6
_chemical_formula_sum   'Ba8 Na8 V8 F48'
_cell_volume   1124.07136114
_cell_formula_units_Z   8
loop_
 _symmetry_equiv_pos_site_id
 _symmetry_equiv_pos_as_xyz
  1  'x, y, z'
loop_
 _atom_site_type_symbol
 _atom_site_label
 _atom_site_symmetry_multiplicity
 _atom_site_fract_x
 _atom_site_fract_y
 _atom_site_fract_z
 _atom_site_occupancy
  Ba  Ba0  1  0.75732800  0.36611200  0.11297800  1
  Ba  Ba1  1  0.24267200  0.86611200  0.88702200  1
  Ba  Ba2  1  0.74267200  0.36611200  0.61297800  1
  Ba  Ba3  1  0.25732800  0.86611200  0.38702200  1
  Ba  Ba4  1  0.25750800  0.00327700  0.13631500  1
  Ba  Ba5  1  0.74249200  0.50327700  0.86368500  1
  Ba  Ba6  1  0.24249200  0.00327700  0.63631500  1
  Ba  Ba7  1  0.75750800  0.50327700  0.36368500  1
  Na  Na0  1  0.25857100  0.63709500  0.06408200  1
  Na  Na1  1  0.74142900  0.13709500  0.93591800  1
  Na  Na2  1  0.24142900  0.63709500  0.56408200  1
  Na  Na3  1  0.75857100  0.13709500  0.43591800  1
  Na  Na4  1  0.25961200  0.22966100  0.31306100  1
  Na  Na5  1  0.74038800  0.72966100  0.68693900  1
  Na  Na6  1  0.24038800  0.22966100  0.81306100  1
  Na  Na7  1  0.75961200  0.72966100  0.18693900  1
  V  V0  1  0.26305900  0.26293200  0.49386800  1
  V  V1  1  0.73694100  0.76293200  0.50613200  1
  V  V2  1  0.23694100  0.26293200  0.99386800  1
  V  V3  1  0.76305900  0.76293200  0.00613200  1
  V  V4  1  0.25292000  0.60406300  0.24529200  1
  V  V5  1  0.74708000  0.10406300  0.75470800  1
  V  V6  1  0.24708000  0.60406300  0.74529200  1
  V  V7  1  0.75292000  0.10406300  0.25470800  1
  F  F0  1  0.02224900  0.17372200  0.05910100  1
  F  F1  1  0.97775100  0.67372200  0.94089900  1
  F  F2  1  0.47775100  0.17372200  0.55910100  1
  F  F3  1  0.52224900  0.67372200  0.44089900  1
  F  F4  1  0.33267600  0.11688000  0.42913700  1
  F  F5  1  0.66732400  0.61688000  0.57086300  1
  F  F6  1  0.16732400  0.11688000  0.92913700  1
  F  F7  1  0.83267600  0.61688000  0.07086300  1
  F  F8  1  0.49981200  0.16198500  0.03583100  1
  F  F9  1  0.50018800  0.66198500  0.96416900  1
  F  F10  1  0.00018800  0.16198500  0.53583100  1
  F  F11  1  0.99981200  0.66198500  0.46416900  1
  F  F12  1  0.48227600  0.53915300  0.17883400  1
  F  F13  1  0.51772400  0.03915300  0.82116600  1
  F  F14  1  0.01772400  0.53915300  0.67883400  1
  F  F15  1  0.98227600  0.03915300  0.32116600  1
  F  F16  1  0.52870800  0.19325100  0.19158300  1
  F  F17  1  0.47129200  0.69325100  0.80841700  1
  F  F18  1  0.97129200  0.19325100  0.69158300  1
  F  F19  1  0.02870800  0.69325100  0.30841700  1
  F  F20  1  0.30246100  0.46003300  0.31169500  1
  F  F21  1  0.69753900  0.96003300  0.68830500  1
  F  F22  1  0.19753900  0.46003300  0.81169500  1
  F  F23  1  0.80246100  0.96003300  0.18830500  1
  F  F24  1  0.04294100  0.32787300  0.42450300  1
  F  F25  1  0.95705900  0.82787300  0.57549700  1
  F  F26  1  0.45705900  0.32787300  0.92450300  1
  F  F27  1  0.54294100  0.82787300  0.07549700  1
  F  F28  1  0.01225600  0.20392600  0.21108300  1
  F  F29  1  0.98774400  0.70392600  0.78891700  1
  F  F30  1  0.48774400  0.20392600  0.71108300  1
  F  F31  1  0.51225600  0.70392600  0.28891700  1
  F  F32  1  0.54774800  0.35456700  0.46119400  1
  F  F33  1  0.45225200  0.85456700  0.53880600  1
  F  F34  1  0.95225200  0.35456700  0.96119400  1
  F  F35  1  0.04774800  0.85456700  0.03880600  1
  F  F36  1  0.19571900  0.75083900  0.18051100  1
  F  F37  1  0.80428100  0.25083900  0.81948900  1
  F  F38  1  0.30428100  0.75083900  0.68051100  1
  F  F39  1  0.69571900  0.25083900  0.31948900  1
  F  F40  1  0.29625600  0.40612400  0.05989600  1
  F  F41  1  0.70374400  0.90612400  0.94010400  1
  F  F42  1  0.20374400  0.40612400  0.55989600  1
  F  F43  1  0.79625600  0.90612400  0.44010400  1
  F  F44  1  0.47532400  0.01410700  0.29246100  1
  F  F45  1  0.52467600  0.51410700  0.70753900  1
  F  F46  1  0.02467600  0.01410700  0.79246100  1
  F  F47  1  0.97532400  0.51410700  0.20753900  1
loop_
_geom_bond_atom_site_label_1
_geom_bond_atom_site_label_2
_geom_bond_distance
_geom_bond_site_symmetry_2
Ba0 F16 2.663154 1_555
Ba0 F0 2.671488 1_655
Ba0 F12 2.674521 1_555
Ba0 F47 2.682306 1_555
Ba0 F7 2.685226 1_555
Ba0 F40 2.858819 1_555
Ba0 F28 2.910406 1_655
Ba0 F8 2.941427 1_555
Ba0 F34 3.178949 1_554
Ba0 F40 3.272654 1_655
Ba1 F17 2.663154 1_555
Ba1 F1 2.671488 1_455
Ba1 F13 2.674521 1_565
Ba1 F46 2.682306 1_565
Ba1 F6 2.685226 1_565
Ba1 F41 2.858819 1_555
Ba1 F29 2.910406 1_455
Ba1 F9 2.941427 1_555
Ba1 F35 3.178949 1_556
Ba1 F41 3.272654 1_455
Ba2 F18 2.663154 1_555
Ba2 F2 2.671488 1_555
Ba2 F14 2.674521 1_655
Ba2 F45 2.682306 1_555
Ba2 F5 2.685226 1_555
Ba2 F42 2.858819 1_655
Ba2 F30 2.910406 1_555
Ba2 F10 2.941427 1_655
Ba2 F32 3.178949 1_555
Ba2 F42 3.272654 1_555
Ba3 F19 2.663154 1_555
Ba3 F3 2.671488 1_555
Ba3 F15 2.674521 1_465
Ba3 F44 2.682306 1_565
Ba3 F4 2.685226 1_565
Ba3 F43 2.858819 1_455
Ba3 F31 2.910406 1_555
Ba3 F11 2.941427 1_455
Ba3 F33 3.178949 1_555
Ba3 F43 3.272654 1_555
Ba4 F0 2.650621 1_555
Ba4 F27 2.679643 1_545
Ba4 F16 2.685464 1_555
Ba4 F36 2.702525 1_545
Ba4 F35 2.705357 1_545
Ba4 F23 2.824183 1_445
Ba4 F28 2.858343 1_555
Ba4 F8 2.887017 1_555
Ba4 F23 3.302446 1_545
Ba4 F44 3.305790 1_555
Ba5 F1 2.650621 1_555
Ba5 F26 2.679643 1_555
Ba5 F17 2.685464 1_555
Ba5 F37 2.702525 1_555
Ba5 F34 2.705357 1_555
Ba5 F22 2.824183 1_655
Ba5 F29 2.858343 1_555
Ba5 F9 2.887017 1_555
Ba5 F22 3.302446 1_555
Ba5 F45 3.305790 1_555
Ba6 F2 2.650621 1_555
Ba6 F25 2.679643 1_445
Ba6 F18 2.685464 1_455
Ba6 F38 2.702525 1_545
Ba6 F33 2.705357 1_545
Ba6 F21 2.824183 1_545
Ba6 F30 2.858343 1_555
Ba6 F10 2.887017 1_555
Ba6 F21 3.302446 1_445
Ba6 F46 3.305790 1_555
Ba7 F3 2.650621 1_555
Ba7 F24 2.679643 1_655
Ba7 F19 2.685464 1_655
Ba7 F39 2.702525 1_555
Ba7 F32 2.705357 1_555
Ba7 F20 2.824183 1_555
Ba7 F31 2.858343 1_555
Ba7 F11 2.887017 1_555
Ba7 F20 3.302446 1_655
Ba7 F47 3.305790 1_555
F0 V2 1.985054 1_554
F0 Na1 2.921825 1_454
F1 V3 1.985054 1_556
F1 Na0 2.921825 1_656
F2 V0 1.985054 1_555
F2 Na3 2.921825 1_555
F3 V1 1.985054 1_555
F3 Na2 2.921825 1_555
F4 V0 1.979935 1_555
F4 Na3 2.443459 1_555
F4 Na4 2.575893 1_555
F5 V1 1.979935 1_555
F5 Na2 2.443459 1_555
F5 Na5 2.575893 1_555
F6 V2 1.979935 1_555
F6 Na1 2.443459 1_455
F6 Na6 2.575893 1_555
F7 V3 1.979935 1_555
F7 Na0 2.443459 1_655
F7 Na7 2.575893 1_555
F8 V2 1.989174 1_554
F8 Na1 2.408646 1_554
F9 V3 1.989174 1_556
F9 Na0 2.408646 1_556
F10 V0 1.989174 1_555
F10 Na3 2.408646 1_455
F11 V1 1.989174 1_555
F11 Na2 2.408646 1_655
F12 V4 1.958788 1_555
F12 Na7 2.488624 1_555
F12 Na0 2.767551 1_555
F13 V5 1.958788 1_555
F13 Na6 2.488624 1_555
F13 Na1 2.767551 1_555
F14 V6 1.958788 1_555
F14 Na5 2.488624 1_455
F14 Na2 2.767551 1_555
F15 V7 1.958788 1_555
F15 Na4 2.488624 1_655
F15 Na3 2.767551 1_555
F16 V7 1.993046 1_555
F16 Na4 2.857450 1_555
F17 V6 1.993046 1_555
F17 Na5 2.857450 1_555
F18 V5 1.993046 1_555
F18 Na6 2.857450 1_655
F19 V4 1.993046 1_555
F19 Na7 2.857450 1_455
F20 V4 1.966538 1_555
F20 Na4 2.326876 1_555
F21 V5 1.966538 1_565
F21 Na5 2.326876 1_555
F22 V6 1.966538 1_555
F22 Na6 2.326876 1_555
F23 V7 1.966538 1_565
F23 Na7 2.326876 1_555
F24 V0 1.963077 1_555
F24 Na3 2.521356 1_455
F24 Na4 2.697404 1_555
F25 V1 1.963077 1_555
F25 Na2 2.521356 1_655
F25 Na5 2.697404 1_555
F26 V2 1.963077 1_555
F26 Na1 2.521356 1_555
F26 Na6 2.697404 1_555
F27 V3 1.963077 1_555
F27 Na0 2.521356 1_555
F27 Na7 2.697404 1_555
F28 V7 1.982261 1_455
F28 Na4 2.461214 1_555
F29 V6 1.982261 1_655
F29 Na5 2.461214 1_555
F30 V5 1.982261 1_555
F30 Na6 2.461214 1_555
F31 V4 1.982261 1_555
F31 Na7 2.461214 1_555
F32 V0 1.974541 1_555
F32 Na3 2.542653 1_555
F33 V1 1.974541 1_555
F33 Na2 2.542653 1_555
F34 V2 1.974541 1_655
F34 Na1 2.542653 1_555
F35 V3 1.974541 1_455
F35 Na0 2.542653 1_555
F36 V4 1.972993 1_555
F36 Na7 2.501922 1_455
F36 Na0 2.577506 1_555
F37 V5 1.972993 1_555
F37 Na6 2.501922 1_655
F37 Na1 2.577506 1_555
F38 V6 1.972993 1_555
F38 Na5 2.501922 1_555
F38 Na2 2.577506 1_555
F39 V7 1.972993 1_555
F39 Na4 2.501922 1_555
F39 Na3 2.577506 1_555
F40 V2 1.964327 1_554
F40 Na0 2.331243 1_555
F41 V3 1.964327 1_556
F41 Na1 2.331243 1_565
F42 V0 1.964327 1_555
F42 Na2 2.331243 1_555
F43 V1 1.964327 1_555
F43 Na3 2.331243 1_565
F44 V7 1.968639 1_555
F44 Na4 2.523256 1_555
F45 V6 1.968639 1_555
F45 Na5 2.523256 1_555
F46 V5 1.968639 1_455
F46 Na6 2.523256 1_555
F47 V4 1.968639 1_655
F47 Na7 2.523256 1_555
