# generated using pymatgen
data_CeMg
_symmetry_space_group_name_H-M   'P 1'
_cell_length_a   5.33082439
_cell_length_b   9.77316729
_cell_length_c   6.07582981
_cell_angle_alpha   90.00000000
_cell_angle_beta   90.00000000
_cell_angle_gamma   90.00000000
_symmetry_Int_Tables_number   1
_chemical_formula_structural   CeMg
_chemical_formula_sum   'Ce6 Mg6'
_cell_volume   316.54489154
_cell_formula_units_Z   6
loop_
 _symmetry_equiv_pos_site_id
 _symmetry_equiv_pos_as_xyz
  1  'x, y, z'
loop_
 _atom_site_type_symbol
 _atom_site_label
 _atom_site_symmetry_multiplicity
 _atom_site_fract_x
 _atom_site_fract_y
 _atom_site_fract_z
 _atom_site_occupancy
  Ce  Ce0  1  -0.00000000  0.36166460  0.66722926  1
  Ce  Ce1  1  -0.00000000  0.13833540  0.16722926  1
  Ce  Ce2  1  0.50000000  -0.00000000  0.33922733  1
  Ce  Ce3  1  -0.00000000  0.86166460  0.16722926  1
  Ce  Ce4  1  -0.00000000  0.63833540  0.66722926  1
  Ce  Ce5  1  0.50000000  0.50000000  0.83922733  1
  Mg  Mg0  1  -0.00000000  -0.00000000  0.66985870  1
  Mg  Mg1  1  0.50000000  0.16036435  0.82822773  1
  Mg  Mg2  1  0.50000000  0.33963565  0.32822773  1
  Mg  Mg3  1  -0.00000000  0.50000000  0.16985870  1
  Mg  Mg4  1  0.50000000  0.66036435  0.32822773  1
  Mg  Mg5  1  0.50000000  0.83963565  0.82822773  1
loop_
_geom_bond_atom_site_label_1
_geom_bond_atom_site_label_2
_geom_bond_distance
_geom_bond_site_symmetry_2
Ce0 Ce4 2.703950 1_555
Ce0 Ce5 3.166125 1_455
Ce0 Ce5 3.166125 1_555
Ce0 Mg3 3.310582 1_555
Ce0 Mg3 3.339773 1_556
Ce0 Mg2 3.375382 1_455
Ce0 Mg2 3.375382 1_555
Ce0 Mg1 3.454233 1_455
Ce0 Mg1 3.454233 1_555
Ce0 Mg0 3.534645 1_555
Ce0 Ce1 3.740697 1_556
Ce0 Ce1 3.740697 1_555
Ce1 Ce3 2.703950 1_545
Ce1 Ce2 3.166125 1_555
Ce1 Ce2 3.166125 1_455
Ce1 Mg0 3.310582 1_554
Ce1 Mg0 3.339773 1_555
Ce1 Mg1 3.375382 1_454
Ce1 Mg1 3.375382 1_554
Ce1 Mg2 3.454233 1_455
Ce1 Mg2 3.454233 1_555
Ce1 Mg3 3.534645 1_555
Ce2 Ce3 3.166125 1_645
Ce2 Ce3 3.166125 1_545
Ce2 Mg4 3.319989 1_545
Ce2 Mg2 3.319989 1_555
Ce2 Mg0 3.337655 1_655
Ce2 Mg0 3.337655 1_555
Ce2 Mg5 3.359116 1_545
Ce2 Mg1 3.359116 1_555
Ce2 Mg5 3.477899 1_544
Ce2 Mg1 3.477899 1_554
Ce3 Mg0 3.310582 1_564
Ce3 Mg0 3.339773 1_565
Ce3 Mg5 3.375382 1_554
Ce3 Mg5 3.375382 1_454
Ce3 Mg4 3.454233 1_455
Ce3 Mg4 3.454233 1_555
Ce3 Mg3 3.534645 1_555
Ce3 Ce4 3.740697 1_554
Ce3 Ce4 3.740697 1_555
Ce4 Ce5 3.166125 1_455
Ce4 Ce5 3.166125 1_555
Ce4 Mg3 3.310582 1_555
Ce4 Mg3 3.339773 1_556
Ce4 Mg4 3.375382 1_455
Ce4 Mg4 3.375382 1_555
Ce4 Mg5 3.454233 1_555
Ce4 Mg5 3.454233 1_455
Ce4 Mg0 3.534645 1_565
Ce5 Mg1 3.319989 1_555
Ce5 Mg5 3.319989 1_555
Ce5 Mg3 3.337655 1_556
Ce5 Mg3 3.337655 1_656
Ce5 Mg2 3.359116 1_556
Ce5 Mg4 3.359116 1_556
Ce5 Mg2 3.477899 1_555
Ce5 Mg4 3.477899 1_555
Mg0 Mg5 3.238306 1_545
Mg0 Mg5 3.238306 1_445
Mg0 Mg1 3.238306 1_455
Mg0 Mg1 3.238306 1_555
Mg1 Mg5 3.134535 1_545
Mg1 Mg2 3.506936 1_555
Mg1 Mg2 3.506936 1_556
Mg2 Mg4 3.134535 1_555
Mg2 Mg3 3.238306 1_555
Mg2 Mg3 3.238306 1_655
Mg3 Mg4 3.238306 1_555
Mg3 Mg4 3.238306 1_455
Mg4 Mg5 3.506936 1_554
Mg4 Mg5 3.506936 1_555
