# generated using pymatgen
data_CaV8(OF)8
_symmetry_space_group_name_H-M   'P 1'
_cell_length_a   4.90113570
_cell_length_b   10.83178958
_cell_length_c   5.74232714
_cell_angle_alpha   85.30080551
_cell_angle_beta   89.82239818
_cell_angle_gamma   91.29728572
_symmetry_Int_Tables_number   1
_chemical_formula_structural   CaV8(OF)8
_chemical_formula_sum   'Ca1 V8 O8 F8'
_cell_volume   303.74270036
_cell_formula_units_Z   1
loop_
 _symmetry_equiv_pos_site_id
 _symmetry_equiv_pos_as_xyz
  1  'x, y, z'
loop_
 _atom_site_type_symbol
 _atom_site_label
 _atom_site_symmetry_multiplicity
 _atom_site_fract_x
 _atom_site_fract_y
 _atom_site_fract_z
 _atom_site_occupancy
  Ca  Ca0  1  0.51678700  0.86858700  0.87872600  1
  V  V0  1  0.47838300  0.26905600  0.72988700  1
  V  V1  1  0.50297500  0.00812300  0.45178700  1
  V  V2  1  0.53604300  0.70335700  0.31291100  1
  V  V3  1  0.49276400  0.50443300  0.00718100  1
  V  V4  1  0.97706200  0.24131700  0.23734900  1
  V  V5  1  0.01290900  0.74563900  0.76061900  1
  V  V6  1  0.98682000  0.47356900  0.51987900  1
  V  V7  1  0.02658200  0.03425200  0.96732600  1
  O  O0  1  0.80333000  0.31568600  0.52613500  1
  O  O1  1  0.80060800  0.08191800  0.23135400  1
  O  O2  1  0.65718800  0.81740100  0.53250100  1
  O  O3  1  0.70966300  0.54994100  0.28757600  1
  O  O4  1  0.30936100  0.43199700  0.72953100  1
  O  O5  1  0.34966100  0.67789000  0.00183800  1
  O  O6  1  0.14319800  0.93818600  0.71543400  1
  O  O7  1  0.20277700  0.19114200  0.94919600  1
  F  F0  1  0.80942000  0.56458800  0.79002500  1
  F  F1  1  0.85912000  0.80049800  0.08668200  1
  F  F2  1  0.67081800  0.08212400  0.75706700  1
  F  F3  1  0.69447100  0.33176100  0.01507900  1
  F  F4  1  0.29548200  0.94004900  0.18318500  1
  F  F5  1  0.29955000  0.18399100  0.44948800  1
  F  F6  1  0.18188700  0.65296800  0.48435200  1
  F  F7  1  0.19703000  0.41652800  0.22822300  1
loop_
_geom_bond_atom_site_label_1
_geom_bond_atom_site_label_2
_geom_bond_distance
_geom_bond_site_symmetry_2
Ca0 F1 2.170062 1_556
Ca0 O6 2.181168 1_555
Ca0 O2 2.218785 1_555
Ca0 F4 2.253927 1_556
Ca0 O5 2.262280 1_556
Ca0 F2 2.461866 1_565
O0 V6 1.911746 1_555
O0 V0 2.003906 1_555
O0 V4 2.089279 1_555
O1 V4 1.916373 1_555
O1 V7 1.983835 1_654
O1 V1 2.034471 1_555
O2 V2 1.922283 1_555
O2 V1 2.229316 1_565
O2 V5 2.295296 1_655
O3 V2 1.899897 1_555
O3 V3 2.020514 1_555
O3 V6 2.047022 1_555
O4 V0 1.966442 1_555
O4 V6 2.026403 1_455
O4 V3 2.036541 1_556
O5 V3 2.018239 1_555
O5 V2 2.044700 1_555
O5 V5 2.254705 1_554
O6 V7 1.941668 1_565
O6 V5 2.162160 1_555
O6 V1 2.389611 1_565
O7 V7 1.883754 1_555
O7 V0 1.971421 1_555
O7 V4 2.102460 1_456
F0 V3 2.048715 1_556
F0 V6 2.101292 1_555
F0 V5 2.173764 1_655
F1 V5 2.149601 1_654
F1 V2 2.233807 1_555
F2 V1 2.145133 1_555
F2 V7 2.172178 1_655
F2 V0 2.247074 1_555
F3 V4 2.091556 1_555
F3 V0 2.103651 1_554
F3 V3 2.132527 1_555
F4 V1 2.029535 1_565
F4 V7 2.044093 1_564
F5 V4 2.073671 1_455
F5 V0 2.103578 1_555
F5 V1 2.169116 1_555
F6 V2 2.034315 1_555
F6 V5 2.121466 1_555
F6 V6 2.140430 1_455
F7 V3 2.084867 1_555
F7 V6 2.106127 1_455
F7 V4 2.158140 1_455
