# generated using pymatgen
data_CaMg14Si
_symmetry_space_group_name_H-M   'P 1'
_cell_length_a   6.44874946
_cell_length_b   6.24072152
_cell_length_c   10.39981638
_cell_angle_alpha   90.00000000
_cell_angle_beta   90.00000000
_cell_angle_gamma   118.93851396
_symmetry_Int_Tables_number   1
_chemical_formula_structural   CaMg14Si
_chemical_formula_sum   'Ca1 Mg14 Si1'
_cell_volume   366.28003780
_cell_formula_units_Z   1
loop_
 _symmetry_equiv_pos_site_id
 _symmetry_equiv_pos_as_xyz
  1  'x, y, z'
loop_
 _atom_site_type_symbol
 _atom_site_label
 _atom_site_symmetry_multiplicity
 _atom_site_fract_x
 _atom_site_fract_y
 _atom_site_fract_z
 _atom_site_occupancy
  Ca  Ca0  1  0.15616527  0.32808213  0.12500000  1
  Mg  Mg0  1  0.16704228  0.33352064  0.62500000  1
  Mg  Mg1  1  0.16128320  0.83064110  0.62500000  1
  Mg  Mg2  1  0.65410568  0.32055434  0.12500000  1
  Mg  Mg3  1  0.66434279  0.33592391  0.62500000  1
  Mg  Mg4  1  0.65410568  0.83355034  0.12500000  1
  Mg  Mg5  1  0.66434279  0.82841788  0.62500000  1
  Mg  Mg6  1  0.33621031  0.16352665  0.37839444  1
  Mg  Mg7  1  0.33621031  0.16352665  0.87160556  1
  Mg  Mg8  1  0.33621031  0.67268466  0.37839444  1
  Mg  Mg9  1  0.33621031  0.67268466  0.87160556  1
  Mg  Mg10  1  0.83072287  0.16536193  0.38582126  1
  Mg  Mg11  1  0.83072287  0.16536193  0.86417874  1
  Mg  Mg12  1  0.84216388  0.67108244  0.36315137  1
  Mg  Mg13  1  0.84216388  0.67108244  0.88684863  1
  Si  Si0  1  0.18799757  0.84399828  0.12500000  1
loop_
_geom_bond_atom_site_label_1
_geom_bond_atom_site_label_2
_geom_bond_distance
_geom_bond_site_symmetry_2
Ca0 Si0 3.125528 1_555
Ca0 Si0 3.125528 1_545
Ca0 Mg4 3.215187 1_445
Ca0 Mg2 3.215188 1_455
Ca0 Mg4 3.234086 1_555
Ca0 Mg2 3.234086 1_555
Ca0 Mg7 3.240547 1_554
Ca0 Mg6 3.240547 1_555
Ca0 Mg9 3.240553 1_554
Ca0 Mg8 3.240553 1_555
Ca0 Mg10 3.275807 1_455
Ca0 Mg11 3.275807 1_454
Mg0 Mg1 3.120530 1_545
Mg0 Mg1 3.120530 1_555
Mg0 Mg11 3.128862 1_455
Mg0 Mg10 3.128862 1_455
Mg0 Mg7 3.164339 1_555
Mg0 Mg6 3.164339 1_555
Mg0 Mg9 3.164345 1_555
Mg0 Mg8 3.164345 1_555
Mg0 Mg5 3.199736 1_555
Mg0 Mg3 3.199736 1_555
Mg0 Mg5 3.249066 1_445
Mg0 Mg3 3.249067 1_455
Mg1 Mg8 3.146080 1_555
Mg1 Mg9 3.146080 1_555
Mg1 Mg6 3.146086 1_565
Mg1 Mg7 3.146086 1_565
Mg1 Mg3 3.197954 1_455
Mg1 Mg5 3.197954 1_455
Mg1 Mg3 3.250841 1_565
Mg1 Mg5 3.250841 1_555
Mg1 Mg13 3.264840 1_455
Mg1 Mg12 3.264840 1_455
Mg2 Si0 3.037900 1_545
Mg2 Mg4 3.039256 1_545
Mg2 Mg7 3.188004 1_554
Mg2 Mg6 3.188004 1_555
Mg2 Mg4 3.201465 1_555
Mg3 Mg5 3.073518 1_555
Mg3 Mg6 3.163769 1_555
Mg3 Mg7 3.163769 1_555
Mg3 Mg5 3.167204 1_545
Mg4 Si0 3.037900 1_555
Mg4 Mg8 3.188004 1_555
Mg4 Mg9 3.188004 1_554
Mg5 Mg8 3.163769 1_555
Mg5 Mg9 3.163769 1_555
Mg6 Mg8 3.063208 1_545
Mg6 Si0 3.160703 1_545
Mg6 Mg8 3.177513 1_555
Mg7 Mg9 3.063208 1_545
Mg7 Si0 3.160703 1_546
Mg7 Mg9 3.177513 1_555
Mg8 Si0 3.160697 1_555
Mg9 Si0 3.160697 1_556
Mg10 Mg3 3.094622 1_555
Mg10 Mg5 3.094628 1_545
Mg10 Mg12 3.129921 1_545
Mg10 Mg12 3.129921 1_555
Mg10 Mg8 3.184398 1_545
Mg10 Mg6 3.184398 1_555
Mg10 Mg2 3.265024 1_555
Mg10 Mg4 3.265029 1_545
Mg10 Mg8 3.266232 1_655
Mg10 Mg6 3.266233 1_655
Mg11 Mg3 3.094622 1_555
Mg11 Mg5 3.094628 1_545
Mg11 Mg13 3.129921 1_545
Mg11 Mg13 3.129921 1_555
Mg11 Mg9 3.184398 1_545
Mg11 Mg7 3.184398 1_555
Mg11 Mg2 3.265024 1_556
Mg11 Mg4 3.265029 1_546
Mg11 Mg9 3.266232 1_655
Mg11 Mg7 3.266233 1_655
Mg12 Mg4 3.134153 1_555
Mg12 Mg2 3.134159 1_555
Mg12 Si0 3.153324 1_655
Mg12 Mg6 3.185103 1_665
Mg12 Mg8 3.185103 1_655
Mg12 Mg6 3.271461 1_555
Mg12 Mg8 3.271461 1_555
Mg12 Mg5 3.283962 1_555
Mg12 Mg3 3.283967 1_555
Mg13 Mg4 3.134153 1_556
Mg13 Mg2 3.134159 1_556
Mg13 Si0 3.153324 1_656
Mg13 Mg7 3.185103 1_665
Mg13 Mg9 3.185103 1_655
Mg13 Mg7 3.271461 1_555
Mg13 Mg9 3.271461 1_555
Mg13 Mg5 3.283962 1_555
Mg13 Mg3 3.283967 1_555
