# generated using pymatgen
data_CaH8(BrO6)2
_symmetry_space_group_name_H-M   'P 1'
_cell_length_a   5.69058700
_cell_length_b   8.16805953
_cell_length_c   12.13226232
_cell_angle_alpha   80.83830268
_cell_angle_beta   89.75233682
_cell_angle_gamma   89.36443494
_symmetry_Int_Tables_number   1
_chemical_formula_structural   CaH8(BrO6)2
_chemical_formula_sum   'Ca2 H16 Br4 O24'
_cell_volume   556.69024096
_cell_formula_units_Z   2
loop_
 _symmetry_equiv_pos_site_id
 _symmetry_equiv_pos_as_xyz
  1  'x, y, z'
loop_
 _atom_site_type_symbol
 _atom_site_label
 _atom_site_symmetry_multiplicity
 _atom_site_fract_x
 _atom_site_fract_y
 _atom_site_fract_z
 _atom_site_occupancy
  Ca  Ca0  1  0.98279100  0.76856300  0.25716800  1
  Ca  Ca1  1  0.01720900  0.23143700  0.74283200  1
  H  H0  1  0.28899300  0.67501300  0.06678300  1
  H  H1  1  0.71100700  0.32498700  0.93321700  1
  H  H2  1  0.17774600  0.51173400  0.12611300  1
  H  H3  1  0.82225400  0.48826600  0.87388700  1
  H  H4  1  0.39352000  0.94433200  0.34359400  1
  H  H5  1  0.60648000  0.05566800  0.65640600  1
  H  H6  1  0.30601900  0.81308800  0.44369700  1
  H  H7  1  0.69398100  0.18691200  0.55630300  1
  H  H8  1  0.80049800  0.09055300  0.31120300  1
  H  H9  1  0.19950200  0.90944700  0.68879700  1
  H  H10  1  0.68900200  0.07545300  0.19626300  1
  H  H11  1  0.31099800  0.92454700  0.80373700  1
  H  H12  1  0.70143400  0.45875300  0.29366200  1
  H  H13  1  0.29856600  0.54124700  0.70633800  1
  H  H14  1  0.54334400  0.57878200  0.20918700  1
  H  H15  1  0.45665600  0.42121800  0.79081300  1
  Br  Br0  1  0.74075500  0.83005300  0.94254600  1
  Br  Br1  1  0.25924500  0.16994700  0.05745400  1
  Br  Br2  1  0.83853300  0.67919200  0.58437900  1
  Br  Br3  1  0.16146700  0.32080800  0.41562100  1
  O  O0  1  0.24348600  0.61715100  0.14121700  1
  O  O1  1  0.75651400  0.38284900  0.85878300  1
  O  O2  1  0.26142000  0.87329600  0.37075300  1
  O  O3  1  0.73858000  0.12670400  0.62924700  1
  O  O4  1  0.73634600  0.00922900  0.26770000  1
  O  O5  1  0.26365400  0.99077100  0.73230000  1
  O  O6  1  0.70240000  0.56363300  0.24163800  1
  O  O7  1  0.29760000  0.43636700  0.75836200  1
  O  O8  1  0.77316200  0.86173800  0.07240800  1
  O  O9  1  0.22683800  0.13826200  0.92759200  1
  O  O10  1  0.94326400  0.69867800  0.91058600  1
  O  O11  1  0.05673600  0.30132200  0.08941400  1
  O  O12  1  0.47512000  0.75553500  0.92839300  1
  O  O13  1  0.52488000  0.24446500  0.07160700  1
  O  O14  1  0.75836400  0.00944400  0.85957700  1
  O  O15  1  0.24163600  0.99055600  0.14042300  1
  O  O16  1  0.11018600  0.73873800  0.60931800  1
  O  O17  1  0.88981400  0.26126200  0.39068200  1
  O  O18  1  0.83541800  0.47434600  0.60846600  1
  O  O19  1  0.16458200  0.52565400  0.39153400  1
  O  O20  1  0.76456400  0.74561700  0.45355400  1
  O  O21  1  0.23543600  0.25438300  0.54644600  1
  O  O22  1  0.64633000  0.75206800  0.66580600  1
  O  O23  1  0.35367000  0.24793200  0.33419400  1
loop_
_geom_bond_atom_site_label_1
_geom_bond_atom_site_label_2
_geom_bond_distance
_geom_bond_site_symmetry_2
Ca0 O6 2.354902 1_555
Ca0 O2 2.359918 1_655
Ca0 O4 2.421703 1_565
Ca0 O0 2.490892 1_655
Ca0 O8 2.546871 1_555
Ca0 O19 2.569694 1_655
Ca0 O15 2.585936 1_655
Ca0 O20 2.662985 1_555
Ca1 O7 2.354902 1_555
Ca1 O3 2.359918 1_455
Ca1 O5 2.421703 1_545
Ca1 O1 2.490892 1_455
Ca1 O9 2.546871 1_555
Ca1 O18 2.569694 1_455
Ca1 O14 2.585936 1_455
Ca1 O21 2.662985 1_555
H0 O0 0.985250 1_555
H1 O1 0.985250 1_555
H2 O0 0.986369 1_555
H3 O1 0.986369 1_555
H4 O2 0.978253 1_555
H5 O3 0.978253 1_555
H6 O2 0.974692 1_555
H7 O3 0.974692 1_555
H8 O4 0.985779 1_555
H9 O5 0.985779 1_555
H10 O4 0.982768 1_555
H11 O5 0.982768 1_555
H12 O6 0.979884 1_555
H13 O7 0.979884 1_555
H14 O6 0.987240 1_555
H15 O7 0.987240 1_555
Br0 O14 1.644087 1_565
Br0 O8 1.648232 1_556
Br0 O10 1.652592 1_555
Br0 O12 1.655563 1_555
Br1 O15 1.644087 1_545
Br1 O9 1.648232 1_554
Br1 O11 1.652592 1_555
Br1 O13 1.655563 1_555
Br2 O22 1.640129 1_555
Br2 O20 1.648408 1_555
Br2 O18 1.652332 1_555
Br2 O16 1.668949 1_655
Br3 O23 1.640129 1_555
Br3 O21 1.648408 1_555
Br3 O19 1.652332 1_555
Br3 O17 1.668949 1_455
