# generated using pymatgen
data_Sr3Ca(FeO3)4
_symmetry_space_group_name_H-M   'P 1'
_cell_length_a   5.52336709
_cell_length_b   7.87512911
_cell_length_c   5.52719464
_cell_angle_alpha   90.43650687
_cell_angle_beta   90.12495930
_cell_angle_gamma   90.06368813
_symmetry_Int_Tables_number   1
_chemical_formula_structural   Sr3Ca(FeO3)4
_chemical_formula_sum   'Sr3 Ca1 Fe4 O12'
_cell_volume   240.40994908
_cell_formula_units_Z   1
loop_
 _symmetry_equiv_pos_site_id
 _symmetry_equiv_pos_as_xyz
  1  'x, y, z'
loop_
 _atom_site_type_symbol
 _atom_site_label
 _atom_site_symmetry_multiplicity
 _atom_site_fract_x
 _atom_site_fract_y
 _atom_site_fract_z
 _atom_site_occupancy
  Sr  Sr0  1  0.48085700  0.75070300  0.49839800  1
  Sr  Sr1  1  0.51453500  0.24969100  0.49873800  1
  Sr  Sr2  1  0.98682100  0.75030900  0.00554200  1
  Ca  Ca0  1  0.03127800  0.25087000  0.99202300  1
  Fe  Fe0  1  0.99845100  0.49738500  0.49974500  1
  Fe  Fe1  1  0.50263500  0.00187900  0.00052700  1
  Fe  Fe2  1  0.99869300  0.00335800  0.50095900  1
  Fe  Fe3  1  0.50333500  0.49869600  0.99861800  1
  O  O0  1  0.48082200  0.24670100  0.03404300  1
  O  O1  1  0.99723400  0.73791400  0.54830400  1
  O  O2  1  0.00138300  0.26072600  0.42743700  1
  O  O3  1  0.50472700  0.75395900  0.96549800  1
  O  O4  1  0.26179000  0.02259100  0.72485600  1
  O  O5  1  0.26577500  0.47549700  0.72009200  1
  O  O6  1  0.21995200  0.98063700  0.23654000  1
  O  O7  1  0.22013300  0.52290000  0.23152300  1
  O  O8  1  0.78784900  0.46128200  0.77414400  1
  O  O9  1  0.78543800  0.03323600  0.77363600  1
  O  O10  1  0.72805300  0.52152300  0.28602300  1
  O  O11  1  0.73023800  0.98014500  0.28335400  1
loop_
_geom_bond_atom_site_label_1
_geom_bond_atom_site_label_2
_geom_bond_distance
_geom_bond_site_symmetry_2
Ca0 O2 2.413300 1_556
Ca0 O8 2.456026 1_455
Ca0 O9 2.488856 1_455
Ca0 O0 2.493606 1_556
Ca0 O4 2.646942 1_555
Ca0 O5 2.666418 1_555
Ca0 O7 2.715799 1_556
Ca0 O6 2.735698 1_546
Fe0 O2 1.903205 1_655
Fe0 O1 1.911113 1_555
Fe0 O10 1.912717 1_555
Fe0 O5 1.920690 1_655
Fe0 O8 1.935904 1_555
Fe0 O7 1.936328 1_655
Fe1 O0 1.939383 1_555
Fe1 O3 1.960559 1_544
Fe1 O11 2.012308 1_545
Fe1 O9 2.021386 1_554
Fe1 O4 2.028124 1_554
Fe1 O6 2.044299 1_545
Fe2 O4 1.911792 1_655
Fe2 O6 1.914626 1_645
Fe2 O11 1.914917 1_545
Fe2 O9 1.928004 1_555
Fe2 O2 2.070220 1_655
Fe2 O1 2.108707 1_545
Fe3 O0 1.999373 1_556
Fe3 O3 2.019943 1_555
Fe3 O10 2.020623 1_556
Fe3 O8 2.024766 1_555
Fe3 O5 2.027658 1_555
Fe3 O7 2.036178 1_556
O0 Sr1 2.574723 1_555
O0 Sr1 2.965265 1_554
O1 Sr2 2.529166 1_556
O1 Sr0 2.687885 1_655
O1 Sr0 2.866804 1_555
O1 Sr2 3.002710 1_555
O2 Sr1 2.720005 1_455
O2 Sr1 2.862249 1_555
O3 Sr0 2.584760 1_555
O3 Sr2 2.671688 1_556
O3 Sr2 2.869745 1_456
O3 Sr0 2.948984 1_556
O4 Sr1 2.597203 1_555
O4 Sr0 2.754421 1_545
O4 Sr2 3.060234 1_446
O5 Sr1 2.554705 1_555
O5 Sr0 2.766038 1_555
O5 Sr2 3.084296 1_456
O6 Sr2 2.555520 1_455
O6 Sr0 2.736234 1_555
O6 Sr1 3.028594 1_565
O7 Sr2 2.541691 1_455
O7 Sr0 2.722623 1_555
O7 Sr1 3.082282 1_555
O8 Sr1 2.705256 1_555
O8 Sr2 2.822814 1_556
O8 Sr0 3.231590 1_555
O9 Sr1 2.736502 1_555
O9 Sr2 2.808451 1_546
O9 Sr0 3.166071 1_545
O10 Sr0 2.545518 1_555
O10 Sr1 2.719298 1_555
O10 Sr2 2.781879 1_555
O11 Sr0 2.570838 1_555
O11 Sr1 2.704786 1_565
O11 Sr2 2.759564 1_555
