# generated using pymatgen
data_YScZn2
_symmetry_space_group_name_H-M   'P 1'
_cell_length_a   11.79946302
_cell_length_b   11.79946302
_cell_length_c   11.79946302
_cell_angle_alpha   121.89168955
_cell_angle_beta   119.44295239
_cell_angle_gamma   88.86134787
_symmetry_Int_Tables_number   1
_chemical_formula_structural   YScZn2
_chemical_formula_sum   'Y1 Sc1 Zn2'
_cell_volume   1149.00453440
_cell_formula_units_Z   1
loop_
 _symmetry_equiv_pos_site_id
 _symmetry_equiv_pos_as_xyz
  1  'x, y, z'
loop_
 _atom_site_type_symbol
 _atom_site_label
 _atom_site_symmetry_multiplicity
 _atom_site_fract_x
 _atom_site_fract_y
 _atom_site_fract_z
 _atom_site_occupancy
  Y  Y0  1  0.00000000  0.50000000  0.50000000  1
  Sc  Sc0  1  0.00000000  0.00000000  0.00000000  1
  Zn  Zn0  1  0.00000000  0.24177300  0.24177300  1
  Zn  Zn1  1  0.00000000  0.75822700  0.75822700  1
loop_
_geom_bond_atom_site_label_1
_geom_bond_atom_site_label_2
_geom_bond_distance
_geom_bond_site_symmetry_2
Y0 Zn1 2.959408 1_555
Y0 Zn0 2.959408 1_555
Sc0 Zn0 2.770837 1_555
Sc0 Zn1 2.770837 1_544
