# generated using pymatgen
data_Zr3GeMo8
_symmetry_space_group_name_H-M   'P 1'
_cell_length_a   9.22545938
_cell_length_b   9.22545938
_cell_length_c   9.22545968
_cell_angle_alpha   33.75634002
_cell_angle_beta   33.75634002
_cell_angle_gamma   33.75634086
_symmetry_Int_Tables_number   1
_chemical_formula_structural   Zr3GeMo8
_chemical_formula_sum   'Zr3 Ge1 Mo8'
_cell_volume   216.00870314
_cell_formula_units_Z   1
loop_
 _symmetry_equiv_pos_site_id
 _symmetry_equiv_pos_as_xyz
  1  'x, y, z'
loop_
 _atom_site_type_symbol
 _atom_site_label
 _atom_site_symmetry_multiplicity
 _atom_site_fract_x
 _atom_site_fract_y
 _atom_site_fract_z
 _atom_site_occupancy
  Zr  Zr0  1  0.62514700  0.62514700  0.62514700  1
  Zr  Zr1  1  0.00173000  0.00173000  0.00173000  1
  Zr  Zr2  1  0.49865000  0.49865000  0.49865000  1
  Ge  Ge0  1  0.12521000  0.12521000  0.12521000  1
  Mo  Mo0  1  0.56301000  0.06475900  0.56301000  1
  Mo  Mo1  1  0.06197400  0.55957300  0.06197400  1
  Mo  Mo2  1  0.06475900  0.56301000  0.56301000  1
  Mo  Mo3  1  0.55957300  0.06197400  0.06197400  1
  Mo  Mo4  1  0.81298100  0.81298100  0.81298100  1
  Mo  Mo5  1  0.31198200  0.31198200  0.31198200  1
  Mo  Mo6  1  0.56301000  0.56301000  0.06475900  1
  Mo  Mo7  1  0.06197400  0.06197400  0.55957300  1
loop_
_geom_bond_atom_site_label_1
_geom_bond_atom_site_label_2
_geom_bond_distance
_geom_bond_site_symmetry_2
Ge0 Mo3 3.087038 1_555
Ge0 Mo1 3.087038 1_555
Ge0 Mo7 3.087039 1_555
Ge0 Mo2 3.123409 1_545
Ge0 Mo0 3.123409 1_455
Ge0 Mo6 3.123410 1_545
Ge0 Mo6 3.123410 1_455
Ge0 Mo2 3.123410 1_554
Ge0 Mo0 3.123410 1_554
Ge0 Mo4 3.141436 1_544
Ge0 Mo4 3.141436 1_454
Ge0 Mo4 3.141436 1_445
Ge0 Zr1 3.219703 1_555
Ge0 Zr2 3.264879 1_554
Ge0 Zr2 3.264879 1_545
Ge0 Zr2 3.264879 1_455
Mo0 Mo4 2.657174 1_545
Mo0 Mo6 2.669129 1_555
Mo0 Mo2 2.669129 1_555
Mo0 Mo6 2.687867 1_546
Mo0 Mo2 2.687867 1_645
Mo0 Mo5 2.698244 1_555
Mo0 Zr2 3.067580 1_555
Mo0 Zr1 3.126714 1_556
Mo0 Zr1 3.126714 1_655
Mo0 Zr0 3.149617 1_545
Mo1 Mo4 2.633126 1_454
Mo1 Mo7 2.665636 1_555
Mo1 Mo3 2.665636 1_555
Mo1 Mo5 2.679932 1_555
Mo1 Mo7 2.691360 1_564
Mo1 Mo3 2.691360 1_465
Mo1 Zr2 3.135640 1_455
Mo1 Zr2 3.135640 1_554
Mo1 Zr0 3.155458 1_554
Mo1 Zr0 3.155458 1_455
Mo1 Zr1 3.198595 1_565
Mo2 Mo4 2.657174 1_455
Mo2 Mo6 2.669129 1_555
Mo2 Mo6 2.687867 1_456
Mo2 Mo5 2.698244 1_555
Mo2 Zr2 3.067580 1_555
Mo2 Zr1 3.126714 1_556
Mo2 Zr1 3.126714 1_565
Mo2 Zr0 3.149617 1_455
Mo3 Mo4 2.633126 1_544
Mo3 Mo7 2.665636 1_555
Mo3 Mo5 2.679932 1_555
Mo3 Mo7 2.691360 1_654
Mo3 Zr2 3.135640 1_545
Mo3 Zr2 3.135640 1_554
Mo3 Zr0 3.155458 1_554
Mo3 Zr0 3.155458 1_545
Mo3 Zr1 3.198595 1_655
Mo4 Mo7 2.633126 1_665
Mo4 Mo6 2.657174 1_556
Mo4 Zr2 3.132300 1_565
Mo4 Zr2 3.132300 1_655
Mo4 Zr2 3.132300 1_556
Mo5 Mo7 2.679932 1_555
Mo5 Mo6 2.698244 1_555
Mo5 Zr0 3.137253 1_545
Mo5 Zr0 3.137253 1_455
Mo5 Zr0 3.137253 1_554
Mo5 Zr1 3.150875 1_565
Mo5 Zr1 3.150875 1_655
Mo5 Zr1 3.150875 1_556
Mo6 Zr2 3.067580 1_555
Mo6 Zr1 3.126714 1_565
Mo6 Zr1 3.126714 1_655
Mo6 Zr0 3.149617 1_554
Mo7 Zr2 3.135640 1_455
Mo7 Zr2 3.135640 1_545
Mo7 Zr0 3.155458 1_545
Mo7 Zr0 3.155458 1_455
Mo7 Zr1 3.198595 1_556
