# generated using pymatgen
data_Ba3TiO5
_symmetry_space_group_name_H-M   'P 1'
_cell_length_a   7.91842111
_cell_length_b   7.91843878
_cell_length_c   7.91837939
_cell_angle_alpha   124.66854792
_cell_angle_beta   124.66848522
_cell_angle_gamma   82.08712241
_symmetry_Int_Tables_number   1
_chemical_formula_structural   Ba3TiO5
_chemical_formula_sum   'Ba6 Ti2 O10'
_cell_volume   322.91479868
_cell_formula_units_Z   2
loop_
 _symmetry_equiv_pos_site_id
 _symmetry_equiv_pos_as_xyz
  1  'x, y, z'
loop_
 _atom_site_type_symbol
 _atom_site_label
 _atom_site_symmetry_multiplicity
 _atom_site_fract_x
 _atom_site_fract_y
 _atom_site_fract_z
 _atom_site_occupancy
  Ba  Ba0  1  0.24999911  0.24999976  0.00000018  1
  Ba  Ba1  1  0.75000111  0.75000097  0.00000022  1
  Ba  Ba2  1  0.17869138  0.67869003  0.85738137  1
  Ba  Ba3  1  0.82130956  0.32131059  0.14261912  1
  Ba  Ba4  1  0.67869171  0.82130784  0.49999910  1
  Ba  Ba5  1  0.32130862  0.17869285  0.50000123  1
  Ti  Ti0  1  0.75001451  0.25001054  0.50002263  1
  Ti  Ti1  1  0.24998018  0.74998175  0.49997840  1
  O  O0  1  0.79596919  0.29596957  0.77754198  1
  O  O1  1  0.20403012  0.70403110  0.22245375  1
  O  O2  1  0.51841431  0.01841462  0.22244041  1
  O  O3  1  0.29597220  0.51842498  0.50000016  1
  O  O4  1  0.98157680  0.20402820  0.50000002  1
  O  O5  1  0.48158768  0.98158703  0.77756068  1
  O  O6  1  0.70402845  0.48157869  0.49999976  1
  O  O7  1  0.01842613  0.79597262  0.50000159  1
  O  O8  1  -0.00000013  -0.00000028  0.00000008  1
  O  O9  1  0.50000006  0.50000014  0.00000033  1
loop_
_geom_bond_atom_site_label_1
_geom_bond_atom_site_label_2
_geom_bond_distance
_geom_bond_site_symmetry_2
Ba0 O8 2.986077 1_555
Ba0 O9 2.986089 1_555
Ba0 O2 3.053706 1_555
Ba0 O3 3.053710 1_555
Ba0 O5 3.053716 1_544
Ba0 O4 3.053720 1_454
Ba0 O0 3.053733 1_454
Ba0 O7 3.053746 1_544
Ba0 O1 3.053746 1_555
Ba0 O6 3.053756 1_555
Ba1 O8 2.986068 1_665
Ba1 O9 2.986094 1_555
Ba1 O5 3.053706 1_554
Ba1 O2 3.053710 1_565
Ba1 O6 3.053715 1_554
Ba1 O7 3.053727 1_655
Ba1 O1 3.053728 1_655
Ba1 O0 3.053743 1_554
Ba1 O4 3.053749 1_565
Ba1 O3 3.053755 1_554
Ba2 O2 2.669901 1_566
Ba2 O1 2.669916 1_556
Ba2 O9 2.703435 1_556
Ba2 O8 2.703448 1_566
Ba2 O3 3.010126 1_555
Ba2 O7 3.010130 1_555
Ba2 O6 3.010170 1_455
Ba2 O4 3.010171 1_455
Ba3 O5 2.669892 1_544
Ba3 O0 2.669947 1_554
Ba3 O9 2.703437 1_555
Ba3 O8 2.703448 1_655
Ba3 O6 3.010120 1_555
Ba3 O4 3.010134 1_555
Ba3 O3 3.010172 1_655
Ba3 O7 3.010174 1_655
Ba4 O6 2.669913 1_555
Ba4 O7 2.669936 1_655
Ba4 O9 2.703449 1_555
Ba4 O8 2.703460 1_666
Ba4 O5 3.010133 1_555
Ba4 O2 3.010140 1_565
Ba4 O1 3.010157 1_555
Ba4 O0 3.010166 1_565
Ba5 O4 2.669921 1_455
Ba5 O3 2.669938 1_555
Ba5 O9 2.703450 1_556
Ba5 O8 2.703460 1_555
Ba5 O5 3.010137 1_545
Ba5 O2 3.010140 1_555
Ba5 O0 3.010155 1_555
Ba5 O1 3.010161 1_545
O0 Ti0 1.819562 1_555
O1 Ti1 1.819651 1_555
O2 Ti0 1.819885 1_555
O3 Ti1 1.819625 1_555
O4 Ti0 1.819662 1_555
O5 Ti1 1.819946 1_555
O6 Ti0 1.819714 1_555
O7 Ti1 1.819604 1_555
