# generated using pymatgen
data_Mn2O3
_symmetry_space_group_name_H-M   'P 1'
_cell_length_a   5.21245549
_cell_length_b   5.20375080
_cell_length_c   5.39767560
_cell_angle_alpha   67.82722842
_cell_angle_beta   95.00273397
_cell_angle_gamma   58.81648668
_symmetry_Int_Tables_number   1
_chemical_formula_structural   Mn2O3
_chemical_formula_sum   'Mn4 O6'
_cell_volume   108.36055396
_cell_formula_units_Z   2
loop_
 _symmetry_equiv_pos_site_id
 _symmetry_equiv_pos_as_xyz
  1  'x, y, z'
loop_
 _atom_site_type_symbol
 _atom_site_label
 _atom_site_symmetry_multiplicity
 _atom_site_fract_x
 _atom_site_fract_y
 _atom_site_fract_z
 _atom_site_occupancy
  Mn  Mn0  1  0.65319900  0.69818000  0.95233100  1
  Mn  Mn1  1  0.34700300  0.30178600  0.04780400  1
  Mn  Mn2  1  0.15095000  0.70007000  0.45303700  1
  Mn  Mn3  1  0.84904700  0.29984900  0.54679500  1
  O  O0  1  0.56214200  0.51413700  0.72930300  1
  O  O1  1  0.74314700  0.83237900  0.22978000  1
  O  O2  1  0.02223500  0.22811000  0.24946600  1
  O  O3  1  0.97806500  0.77189600  0.75050000  1
  O  O4  1  0.25637800  0.16752200  0.77058100  1
  O  O5  1  0.43783400  0.48607100  0.27040200  1
loop_
_geom_bond_atom_site_label_1
_geom_bond_atom_site_label_2
_geom_bond_distance
_geom_bond_site_symmetry_2
Mn0 O4 1.952420 1_565
Mn0 O0 1.957807 1_555
Mn0 O2 1.970800 1_656
Mn0 O1 1.989027 1_556
Mn0 O3 2.209160 1_555
Mn0 O5 2.369589 1_556
Mn1 O1 1.951223 1_545
Mn1 O5 1.956547 1_555
Mn1 O3 1.970993 1_454
Mn1 O4 1.989473 1_554
Mn1 O2 2.208170 1_555
Mn1 O0 2.370593 1_554
Mn2 O5 1.951742 1_555
Mn2 O1 1.963686 1_455
Mn2 O3 1.971366 1_455
Mn2 O0 1.989891 1_555
Mn2 O2 2.211607 1_565
Mn2 O4 2.364955 1_555
Mn3 O0 1.951807 1_555
Mn3 O4 1.962669 1_655
Mn3 O2 1.971258 1_655
Mn3 O5 1.989765 1_555
Mn3 O3 2.210597 1_545
Mn3 O1 2.363060 1_555
