# generated using pymatgen
data_HfPOs
_symmetry_space_group_name_H-M   'P 1'
_cell_length_a   6.38544281
_cell_length_b   6.38542412
_cell_length_c   3.82172124
_cell_angle_alpha   90.00000000
_cell_angle_beta   90.00000000
_cell_angle_gamma   119.99990947
_symmetry_Int_Tables_number   1
_chemical_formula_structural   HfPOs
_chemical_formula_sum   'Hf3 P3 Os3'
_cell_volume   134.94935138
_cell_formula_units_Z   3
loop_
 _symmetry_equiv_pos_site_id
 _symmetry_equiv_pos_as_xyz
  1  'x, y, z'
loop_
 _atom_site_type_symbol
 _atom_site_label
 _atom_site_symmetry_multiplicity
 _atom_site_fract_x
 _atom_site_fract_y
 _atom_site_fract_z
 _atom_site_occupancy
  Hf  Hf0  1  0.41669861  0.41669761  0.50000000  1
  Hf  Hf1  1  0.58330139  0.99999900  0.50000000  1
  Hf  Hf2  1  0.00000000  0.58330039  0.50000000  1
  P  P0  1  0.66666600  0.33333300  -0.00000000  1
  P  P1  1  0.33333400  0.66666700  -0.00000000  1
  P  P2  1  0.00000000  0.00000000  0.50000000  1
  Os  Os0  1  0.75120227  0.75120227  -0.00000000  1
  Os  Os1  1  0.24879773  0.00000000  0.00000000  1
  Os  Os2  1  -0.00000000  0.24879973  0.00000000  1
loop_
_geom_bond_atom_site_label_1
_geom_bond_atom_site_label_2
_geom_bond_distance
_geom_bond_site_symmetry_2
Hf0 P2 2.660802 1_555
Hf0 P0 2.707787 1_555
Hf0 P0 2.707787 1_556
Hf0 P1 2.707794 1_556
Hf0 P1 2.707794 1_555
Hf0 Os0 2.865955 1_555
Hf0 Os0 2.865955 1_556
Hf0 Os1 3.004656 1_555
Hf0 Os1 3.004656 1_556
Hf0 Os2 3.004668 1_556
Hf0 Os2 3.004668 1_555
Hf1 P2 2.660802 1_665
Hf1 P1 2.707787 1_555
Hf1 P1 2.707787 1_556
Hf1 P0 2.707794 1_566
Hf1 P0 2.707794 1_565
Hf1 Os1 2.865956 1_565
Hf1 Os1 2.865956 1_566
Hf1 Os0 3.004656 1_555
Hf1 Os0 3.004656 1_556
Hf1 Os2 3.004668 1_666
Hf1 Os2 3.004668 1_665
Hf2 P2 2.660804 1_565
Hf2 P0 2.707796 1_456
Hf2 P0 2.707796 1_455
Hf2 P1 2.707796 1_556
Hf2 P1 2.707796 1_555
Hf2 Os2 2.865934 1_555
Hf2 Os2 2.865934 1_556
Hf2 Os1 3.004666 1_565
Hf2 Os1 3.004666 1_566
Hf2 Os0 3.004666 1_456
Hf2 Os0 3.004666 1_455
Os0 P0 2.443508 1_555
Os0 P1 2.443512 1_555
Os0 P2 2.485016 1_665
Os0 P2 2.485016 1_664
Os0 Os1 2.751683 1_665
Os0 Os2 2.751686 1_665
Os1 P1 2.443508 1_545
Os1 P0 2.443512 1_555
Os1 P2 2.485016 1_555
Os1 P2 2.485016 1_554
Os1 Os2 2.751687 1_555
Os2 P1 2.443506 1_555
Os2 P0 2.443507 1_455
Os2 P2 2.485021 1_555
Os2 P2 2.485021 1_554
