# generated using pymatgen
data_Rb2MoO8
_symmetry_space_group_name_H-M   'P 1'
_cell_length_a   8.79506500
_cell_length_b   7.08928700
_cell_length_c   13.63250563
_cell_angle_alpha   63.80833288
_cell_angle_beta   90.00000000
_cell_angle_gamma   90.00000000
_symmetry_Int_Tables_number   1
_chemical_formula_structural   Rb2MoO8
_chemical_formula_sum   'Rb8 Mo4 O32'
_cell_volume   762.72132611
_cell_formula_units_Z   4
loop_
 _symmetry_equiv_pos_site_id
 _symmetry_equiv_pos_as_xyz
  1  'x, y, z'
loop_
 _atom_site_type_symbol
 _atom_site_label
 _atom_site_symmetry_multiplicity
 _atom_site_fract_x
 _atom_site_fract_y
 _atom_site_fract_z
 _atom_site_occupancy
  Rb  Rb0  1  0.98093700  0.99170500  0.76885100  1
  Rb  Rb1  1  0.01906300  0.00829500  0.23114900  1
  Rb  Rb2  1  0.48093700  0.00829500  0.73114900  1
  Rb  Rb3  1  0.51906300  0.99170500  0.26885100  1
  Rb  Rb4  1  0.81151200  0.65546000  0.59291200  1
  Rb  Rb5  1  0.18848800  0.34454000  0.40708800  1
  Rb  Rb6  1  0.31151200  0.34454000  0.90708800  1
  Rb  Rb7  1  0.68848800  0.65546000  0.09291200  1
  Mo  Mo0  1  0.27923200  0.67916400  0.58447400  1
  Mo  Mo1  1  0.72076800  0.32083600  0.41552600  1
  Mo  Mo2  1  0.77923200  0.32083600  0.91552600  1
  Mo  Mo3  1  0.22076800  0.67916400  0.08447400  1
  O  O0  1  0.44827800  0.64217700  0.68951500  1
  O  O1  1  0.55172200  0.35782300  0.31048500  1
  O  O2  1  0.94827800  0.35782300  0.81048500  1
  O  O3  1  0.05172200  0.64217700  0.18951500  1
  O  O4  1  0.23976400  0.36756500  0.65940700  1
  O  O5  1  0.76023600  0.63243500  0.34059300  1
  O  O6  1  0.73976400  0.63243500  0.84059300  1
  O  O7  1  0.26023600  0.36756500  0.15940700  1
  O  O8  1  0.48921000  0.79645000  0.57736400  1
  O  O9  1  0.51079000  0.20355000  0.42263600  1
  O  O10  1  0.98921000  0.20355000  0.92263600  1
  O  O11  1  0.01079000  0.79645000  0.07736400  1
  O  O12  1  0.24522300  0.84901600  0.92167400  1
  O  O13  1  0.75477700  0.15098400  0.07832600  1
  O  O14  1  0.74522300  0.15098400  0.57832600  1
  O  O15  1  0.25477700  0.84901600  0.42167400  1
  O  O16  1  0.37820600  0.71142800  0.97183500  1
  O  O17  1  0.62179400  0.28857200  0.02816500  1
  O  O18  1  0.87820600  0.28857200  0.52816500  1
  O  O19  1  0.12179400  0.71142800  0.47183500  1
  O  O20  1  0.19795800  0.91803900  0.60929200  1
  O  O21  1  0.80204200  0.08196100  0.39070800  1
  O  O22  1  0.69795800  0.08196100  0.89070800  1
  O  O23  1  0.30204200  0.91803900  0.10929200  1
  O  O24  1  0.35697500  0.42621900  0.57286800  1
  O  O25  1  0.64302500  0.57378100  0.42713200  1
  O  O26  1  0.85697500  0.57378100  0.92713200  1
  O  O27  1  0.14302500  0.42621900  0.07286800  1
  O  O28  1  0.12683200  0.71450100  0.68363800  1
  O  O29  1  0.87316800  0.28549900  0.31636200  1
  O  O30  1  0.62683200  0.28549900  0.81636200  1
  O  O31  1  0.37316800  0.71450100  0.18363800  1
loop_
_geom_bond_atom_site_label_1
_geom_bond_atom_site_label_2
_geom_bond_distance
_geom_bond_site_symmetry_2
Mo0 O24 1.989616 1_555
Mo0 O28 1.996448 1_555
Mo0 O0 1.999583 1_555
Mo0 O20 1.999744 1_555
Mo0 O19 2.004376 1_555
Mo0 O8 2.010015 1_555
Mo0 O4 2.012901 1_555
Mo0 O15 2.015621 1_555
Mo1 O25 1.989616 1_555
Mo1 O29 1.996448 1_555
Mo1 O1 1.999583 1_555
Mo1 O21 1.999744 1_555
Mo1 O18 2.004376 1_555
Mo1 O9 2.010015 1_555
Mo1 O5 2.012901 1_555
Mo1 O14 2.015621 1_555
Mo2 O26 1.989616 1_555
Mo2 O30 1.996448 1_555
Mo2 O2 1.999583 1_555
Mo2 O22 1.999744 1_555
Mo2 O17 2.004376 1_556
Mo2 O10 2.010015 1_555
Mo2 O6 2.012901 1_555
Mo2 O13 2.015621 1_556
Mo3 O27 1.989616 1_555
Mo3 O31 1.996448 1_555
Mo3 O3 1.999583 1_555
Mo3 O23 1.999744 1_555
Mo3 O16 2.004376 1_554
Mo3 O11 2.010015 1_555
Mo3 O7 2.012901 1_555
Mo3 O12 2.015621 1_554
O0 O8 1.478919 1_555
O0 Rb2 2.905473 1_565
O0 Rb6 3.028527 1_555
O1 O9 1.478919 1_555
O1 Rb3 2.905473 1_545
O1 Rb7 3.028527 1_555
O2 Rb0 2.905473 1_545
O2 Rb4 3.028527 1_555
O3 Rb1 2.905473 1_565
O3 Rb5 3.028527 1_555
O4 Rb2 3.121514 1_555
O4 Rb0 3.316417 1_445
O4 Rb6 3.367365 1_555
O5 Rb3 3.121514 1_555
O5 Rb1 3.316417 1_665
O5 Rb7 3.367365 1_555
O6 Rb0 3.121514 1_555
O6 Rb2 3.316417 1_565
O6 Rb4 3.367365 1_555
O7 Rb1 3.121514 1_555
O7 Rb3 3.316417 1_545
O7 Rb5 3.367365 1_555
O8 Rb4 2.981993 1_555
O8 Rb2 3.071706 1_565
O9 Rb5 2.981993 1_555
O9 Rb3 3.071706 1_545
O10 O2 1.478919 1_555
O10 Rb6 2.981993 1_655
O10 Rb0 3.071706 1_545
O11 O3 1.478919 1_555
O11 Rb7 2.981993 1_455
O11 Rb1 3.071706 1_565
O12 O16 1.482624 1_555
O12 Rb0 2.984324 1_455
O12 Rb2 3.119300 1_565
O12 Rb6 3.478991 1_565
O13 O17 1.482624 1_555
O13 Rb1 2.984324 1_655
O13 Rb3 3.119300 1_545
O13 Rb7 3.478991 1_545
O14 O18 1.482624 1_555
O14 Rb2 2.984324 1_555
O14 Rb0 3.119300 1_545
O14 Rb4 3.478991 1_545
O15 O19 1.482624 1_555
O15 Rb3 2.984324 1_555
O15 Rb1 3.119300 1_565
O15 Rb5 3.478991 1_565
O16 Rb7 3.122644 1_556
O16 Rb6 3.148784 1_555
O16 Rb2 3.148934 1_565
O17 Rb6 3.122644 1_554
O17 Rb7 3.148784 1_555
O17 Rb3 3.148934 1_545
O18 Rb5 3.122644 1_655
O18 Rb4 3.148784 1_555
O18 Rb0 3.148934 1_545
O19 Rb4 3.122644 1_455
O19 Rb5 3.148784 1_555
O19 Rb1 3.148934 1_565
O20 O28 1.486487 1_555
O20 Rb5 3.064334 1_565
O20 Rb0 3.106469 1_455
O20 Rb2 3.209606 1_565
O21 O29 1.486487 1_555
O21 Rb4 3.064334 1_545
O21 Rb1 3.106469 1_655
O21 Rb3 3.209606 1_545
O22 O30 1.486487 1_555
O22 Rb7 3.064334 1_546
O22 Rb2 3.106469 1_555
O22 Rb0 3.209606 1_545
O23 O31 1.486487 1_555
O23 Rb6 3.064334 1_564
O23 Rb3 3.106469 1_555
O23 Rb1 3.209606 1_565
O24 O4 1.481340 1_555
O24 Rb5 2.965464 1_555
O24 Rb2 2.996544 1_555
O25 O5 1.481340 1_555
O25 Rb4 2.965464 1_555
O25 Rb3 2.996544 1_555
O26 O6 1.481340 1_555
O26 Rb7 2.965464 1_556
O26 Rb0 2.996544 1_555
O27 O7 1.481340 1_555
O27 Rb6 2.965464 1_554
O27 Rb1 2.996544 1_555
O28 Rb0 2.978775 1_455
O28 Rb4 3.138929 1_455
O28 Rb6 3.426909 1_555
O29 Rb1 2.978775 1_655
O29 Rb5 3.138929 1_655
O29 Rb7 3.426909 1_555
O30 Rb2 2.978775 1_555
O30 Rb6 3.138929 1_555
O30 Rb4 3.426909 1_555
O31 Rb3 2.978775 1_555
O31 Rb7 3.138929 1_555
O31 Rb5 3.426909 1_555
