# generated using pymatgen
data_Tb6Mg(GeS7)2
_symmetry_space_group_name_H-M   'P 1'
_cell_length_a   9.88430505
_cell_length_b   9.88430505
_cell_length_c   5.82090900
_cell_angle_alpha   90.00000000
_cell_angle_beta   90.00000000
_cell_angle_gamma   119.99999365
_symmetry_Int_Tables_number   1
_chemical_formula_structural   Tb6Mg(GeS7)2
_chemical_formula_sum   'Tb6 Mg1 Ge2 S14'
_cell_volume   492.50852226
_cell_formula_units_Z   1
loop_
 _symmetry_equiv_pos_site_id
 _symmetry_equiv_pos_as_xyz
  1  'x, y, z'
loop_
 _atom_site_type_symbol
 _atom_site_label
 _atom_site_symmetry_multiplicity
 _atom_site_fract_x
 _atom_site_fract_y
 _atom_site_fract_z
 _atom_site_occupancy
  Tb  Tb0  1  0.86396600  0.22336000  0.26061100  1
  Tb  Tb1  1  0.35939300  0.13603400  0.26061100  1
  Tb  Tb2  1  0.77664000  0.64060700  0.26061100  1
  Tb  Tb3  1  0.13555300  0.77769600  0.76571400  1
  Tb  Tb4  1  0.64214300  0.86444700  0.76571400  1
  Tb  Tb5  1  0.22230400  0.35785700  0.76571400  1
  Mg  Mg0  1  0.00000000  0.00000000  0.47793900  1
  Ge  Ge0  1  0.66666700  0.33333300  0.84044200  1
  Ge  Ge1  1  0.33333300  0.66666700  0.34545700  1
  S  S0  1  0.66666700  0.33333300  0.46218200  1
  S  S1  1  0.33333300  0.66666700  0.96632000  1
  S  S2  1  0.74817300  0.90312000  0.22865300  1
  S  S3  1  0.15494600  0.25182700  0.22865300  1
  S  S4  1  0.09688000  0.84505400  0.22865300  1
  S  S5  1  0.25206300  0.09895100  0.70955700  1
  S  S6  1  0.84688700  0.74793700  0.70955700  1
  S  S7  1  0.90104900  0.15311300  0.70955700  1
  S  S8  1  0.51913100  0.42166400  0.00068700  1
  S  S9  1  0.90253300  0.48086900  0.00068700  1
  S  S10  1  0.57833600  0.09746700  0.00068700  1
  S  S11  1  0.48027800  0.57794600  0.50527800  1
  S  S12  1  0.09766800  0.51972200  0.50527800  1
  S  S13  1  0.42205400  0.90233200  0.50527800  1
loop_
_geom_bond_atom_site_label_1
_geom_bond_atom_site_label_2
_geom_bond_distance
_geom_bond_site_symmetry_2
Mg0 S5 2.558305 1_555
Mg0 S6 2.558306 1_445
Mg0 S7 2.558312 1_455
Mg0 S4 2.614339 1_545
Mg0 S3 2.614345 1_555
Mg0 S2 2.614346 1_445
Ge0 S0 2.201817 1_555
Ge0 S10 2.243244 1_556
Ge0 S9 2.243246 1_556
Ge0 S8 2.243252 1_556
Ge1 S1 2.206922 1_554
Ge1 S13 2.240042 1_555
Ge1 S12 2.240043 1_555
Ge1 S11 2.240050 1_555
S0 Tb0 2.912260 1_555
S0 Tb1 2.912274 1_555
S0 Tb2 2.912277 1_555
S1 Tb3 2.921480 1_555
S1 Tb4 2.921488 1_555
S1 Tb5 2.921489 1_555
S2 Tb2 2.752572 1_555
S2 Tb0 2.782293 1_565
S2 Tb4 2.847002 1_554
S2 Tb4 3.258358 1_555
S3 Tb0 2.752572 1_455
S3 Tb1 2.782293 1_555
S3 Tb5 2.847003 1_554
S3 Tb5 3.258359 1_555
S4 Tb1 2.752573 1_565
S4 Tb2 2.782293 1_455
S4 Tb3 2.847005 1_554
S4 Tb3 3.258361 1_555
S5 Tb5 2.737728 1_555
S5 Tb1 2.774918 1_555
S5 Tb3 2.803445 1_545
S5 Tb1 3.340642 1_556
S6 Tb3 2.737737 1_655
S6 Tb2 2.774918 1_555
S6 Tb4 2.803435 1_555
S6 Tb2 3.340642 1_556
S7 Tb4 2.737734 1_545
S7 Tb0 2.774918 1_555
S7 Tb5 2.803443 1_655
S7 Tb0 3.340642 1_556
S8 Tb2 2.818287 1_555
S8 Tb1 2.880140 1_555
S8 Tb5 3.004342 1_554
S9 Tb0 2.818284 1_555
S9 Tb2 2.880146 1_555
S9 Tb3 3.004342 1_654
S10 Tb1 2.818292 1_555
S10 Tb0 2.880139 1_555
S10 Tb4 3.004342 1_544
S11 Tb5 2.825865 1_555
S11 Tb4 2.889052 1_555
S11 Tb2 3.029618 1_555
S12 Tb3 2.825865 1_555
S12 Tb5 2.889051 1_555
S12 Tb0 3.029621 1_455
S13 Tb4 2.825865 1_555
S13 Tb3 2.889052 1_555
S13 Tb1 3.029626 1_565
