# generated using pymatgen
data_CeCuPt4
_symmetry_space_group_name_H-M   'P 1'
_cell_length_a   5.37387589
_cell_length_b   5.37387589
_cell_length_c   4.35847200
_cell_angle_alpha   90.00000000
_cell_angle_beta   90.00000000
_cell_angle_gamma   119.99999858
_symmetry_Int_Tables_number   1
_chemical_formula_structural   CeCuPt4
_chemical_formula_sum   'Ce1 Cu1 Pt4'
_cell_volume   109.00342941
_cell_formula_units_Z   1
loop_
 _symmetry_equiv_pos_site_id
 _symmetry_equiv_pos_as_xyz
  1  'x, y, z'
loop_
 _atom_site_type_symbol
 _atom_site_label
 _atom_site_symmetry_multiplicity
 _atom_site_fract_x
 _atom_site_fract_y
 _atom_site_fract_z
 _atom_site_occupancy
  Ce  Ce0  1  0.00000000  0.00000000  0.00000000  1
  Cu  Cu0  1  0.33333300  0.66666700  0.00000000  1
  Pt  Pt0  1  0.66666700  0.33333300  0.00000000  1
  Pt  Pt1  1  0.00384600  0.50192300  0.50000000  1
  Pt  Pt2  1  0.49807700  0.50192300  0.50000000  1
  Pt  Pt3  1  0.49807700  0.99615400  0.50000000  1
loop_
_geom_bond_atom_site_label_1
_geom_bond_atom_site_label_2
_geom_bond_distance
_geom_bond_site_symmetry_2
Ce0 Pt0 3.102606 1_455
Ce0 Cu0 3.102606 1_545
Ce0 Cu0 3.102610 1_555
Ce0 Pt0 3.102610 1_445
Ce0 Cu0 3.102610 1_445
Ce0 Pt0 3.102610 1_555
Ce0 Pt3 3.459628 1_545
Ce0 Pt3 3.459628 1_544
Ce0 Pt1 3.459628 1_544
Ce0 Pt1 3.459628 1_545
Ce0 Pt1 3.459628 1_554
Ce0 Pt3 3.459628 1_445
Ce0 Pt3 3.459628 1_444
Ce0 Pt1 3.459628 1_555
Ce0 Pt2 3.459628 1_444
Ce0 Pt2 3.459628 1_554
Ce0 Pt2 3.459628 1_445
Ce0 Pt2 3.459628 1_555
Cu0 Pt1 2.664657 1_555
Cu0 Pt3 2.664657 1_554
Cu0 Pt1 2.664657 1_554
Cu0 Pt3 2.664657 1_555
Cu0 Pt2 2.664660 1_555
Cu0 Pt2 2.664660 1_554
Cu0 Pt0 3.102606 1_455
Cu0 Pt0 3.102606 1_565
Cu0 Pt0 3.102615 1_555
Pt0 Pt3 2.685417 1_545
Pt0 Pt3 2.685417 1_544
Pt0 Pt1 2.685417 1_655
Pt0 Pt1 2.685417 1_654
Pt0 Pt2 2.685420 1_555
Pt0 Pt2 2.685420 1_554
Pt1 Pt2 2.655936 1_555
Pt1 Pt3 2.655936 1_555
Pt1 Pt2 2.717940 1_455
Pt1 Pt3 2.717940 1_445
Pt2 Pt3 2.655936 1_555
Pt2 Pt3 2.717940 1_545
