# generated using pymatgen
data_FeNiMo3N
_symmetry_space_group_name_H-M   'P 1'
_cell_length_a   6.65324600
_cell_length_b   6.65324600
_cell_length_c   6.65324600
_cell_angle_alpha   90.00000000
_cell_angle_beta   90.00000000
_cell_angle_gamma   90.00000000
_symmetry_Int_Tables_number   1
_chemical_formula_structural   FeNiMo3N
_chemical_formula_sum   'Fe4 Ni4 Mo12 N4'
_cell_volume   294.51047394
_cell_formula_units_Z   4
loop_
 _symmetry_equiv_pos_site_id
 _symmetry_equiv_pos_as_xyz
  1  'x, y, z'
loop_
 _atom_site_type_symbol
 _atom_site_label
 _atom_site_symmetry_multiplicity
 _atom_site_fract_x
 _atom_site_fract_y
 _atom_site_fract_z
 _atom_site_occupancy
  Fe  Fe0  1  0.17831200  0.82168800  0.32168800  1
  Fe  Fe1  1  0.32168800  0.17831200  0.82168800  1
  Fe  Fe2  1  0.82168800  0.32168800  0.17831200  1
  Fe  Fe3  1  0.67831200  0.67831200  0.67831200  1
  Ni  Ni0  1  0.56526800  0.43473200  0.93473200  1
  Ni  Ni1  1  0.43473200  0.93473200  0.56526800  1
  Ni  Ni2  1  0.93473200  0.56526800  0.43473200  1
  Ni  Ni3  1  0.06526800  0.06526800  0.06526800  1
  Mo  Mo0  1  0.80248200  0.95330800  0.37182900  1
  Mo  Mo1  1  0.69751800  0.04669200  0.87182900  1
  Mo  Mo2  1  0.19751800  0.45330800  0.12817100  1
  Mo  Mo3  1  0.30248200  0.54669200  0.62817100  1
  Mo  Mo4  1  0.95330800  0.37182900  0.80248200  1
  Mo  Mo5  1  0.04669200  0.87182900  0.69751800  1
  Mo  Mo6  1  0.45330800  0.12817100  0.19751800  1
  Mo  Mo7  1  0.54669200  0.62817100  0.30248200  1
  Mo  Mo8  1  0.37182900  0.80248200  0.95330800  1
  Mo  Mo9  1  0.87182900  0.69751800  0.04669200  1
  Mo  Mo10  1  0.12817100  0.19751800  0.45330800  1
  Mo  Mo11  1  0.62817100  0.30248200  0.54669200  1
  N  N0  1  0.87469000  0.12531000  0.62531000  1
  N  N1  1  0.62531000  0.87469000  0.12531000  1
  N  N2  1  0.12531000  0.62531000  0.87469000  1
  N  N3  1  0.37469000  0.37469000  0.37469000  1
loop_
_geom_bond_atom_site_label_1
_geom_bond_atom_site_label_2
_geom_bond_distance
_geom_bond_site_symmetry_2
Fe0 Ni1 2.470330 1_555
Fe0 Ni2 2.470330 1_455
Fe0 Ni3 2.470330 1_565
Fe0 Mo5 2.670316 1_555
Fe0 Mo10 2.670316 1_565
Fe0 Mo0 2.670316 1_455
Fe0 Mo2 2.771470 1_555
Fe0 Mo8 2.771470 1_554
Fe0 Mo7 2.771470 1_555
Fe0 Mo3 2.861459 1_555
Fe0 Mo9 2.861459 1_455
Fe0 Mo6 2.861459 1_565
Fe1 Ni1 2.470330 1_545
Fe1 Ni0 2.470330 1_555
Fe1 Ni3 2.470330 1_556
Fe1 Mo1 2.670316 1_555
Fe1 Mo6 2.670316 1_556
Fe1 Mo8 2.670316 1_545
Fe1 Mo10 2.771470 1_555
Fe1 Mo3 2.771470 1_555
Fe1 Mo4 2.771470 1_455
Fe1 Mo11 2.861459 1_555
Fe1 Mo2 2.861459 1_556
Fe1 Mo5 2.861459 1_545
Fe2 Ni0 2.470330 1_554
Fe2 Ni2 2.470330 1_555
Fe2 Ni3 2.470330 1_655
Fe2 Mo9 2.670316 1_555
Fe2 Mo2 2.670316 1_655
Fe2 Mo4 2.670316 1_554
Fe2 Mo6 2.771470 1_555
Fe2 Mo11 2.771470 1_555
Fe2 Mo0 2.771470 1_545
Fe2 Mo7 2.861459 1_555
Fe2 Mo1 2.861459 1_554
Fe2 Mo10 2.861459 1_655
Fe3 Ni1 2.470330 1_555
Fe3 Ni2 2.470330 1_555
Fe3 Ni0 2.470330 1_555
Fe3 Mo3 2.670316 1_555
Fe3 Mo7 2.670316 1_555
Fe3 Mo11 2.670316 1_555
Fe3 Mo9 2.771470 1_556
Fe3 Mo1 2.771470 1_565
Fe3 Mo5 2.771470 1_655
Fe3 Mo8 2.861459 1_555
Fe3 Mo0 2.861459 1_555
Fe3 Mo4 2.861459 1_555
Mo0 N1 2.086430 1_555
Mo0 N0 2.093937 1_565
Mo0 Ni2 2.759469 1_555
Mo0 Ni1 2.767333 1_555
Mo0 Ni3 2.787791 1_665
Mo1 N0 2.086430 1_555
Mo1 N1 2.093937 1_546
Mo1 Ni0 2.759469 1_555
Mo1 Ni3 2.767333 1_656
Mo1 Ni1 2.787791 1_545
Mo2 N3 2.086430 1_555
Mo2 N2 2.093937 1_554
Mo2 Ni3 2.759469 1_555
Mo2 Ni0 2.767333 1_554
Mo2 Ni2 2.787791 1_455
Mo3 N2 2.086430 1_555
Mo3 N3 2.093937 1_555
Mo3 Ni1 2.759469 1_555
Mo3 Ni2 2.767333 1_455
Mo3 Ni0 2.787791 1_555
Mo4 N0 2.086430 1_555
Mo4 N2 2.093937 1_655
Mo4 Ni0 2.759469 1_555
Mo4 Ni2 2.767333 1_555
Mo4 Ni3 2.787791 1_656
Mo5 N2 2.086430 1_555
Mo5 N0 2.093937 1_465
Mo5 Ni1 2.759469 1_555
Mo5 Ni3 2.767333 1_566
Mo5 Ni2 2.787791 1_455
Mo6 N3 2.086430 1_555
Mo6 N1 2.093937 1_545
Mo6 Ni3 2.759469 1_555
Mo6 Ni1 2.767333 1_545
Mo6 Ni0 2.787791 1_554
Mo7 N1 2.086430 1_555
Mo7 N3 2.093937 1_555
Mo7 Ni2 2.759469 1_555
Mo7 Ni0 2.767333 1_554
Mo7 Ni1 2.787791 1_555
Mo8 N2 2.086430 1_555
Mo8 N1 2.093937 1_556
Mo8 Ni1 2.759469 1_555
Mo8 Ni0 2.767333 1_555
Mo8 Ni3 2.787791 1_566
Mo9 N1 2.086430 1_555
Mo9 N2 2.093937 1_654
Mo9 Ni2 2.759469 1_555
Mo9 Ni3 2.767333 1_665
Mo9 Ni0 2.787791 1_554
Mo10 N3 2.086430 1_555
Mo10 N0 2.093937 1_455
Mo10 Ni3 2.759469 1_555
Mo10 Ni2 2.767333 1_455
Mo10 Ni1 2.787791 1_545
Mo11 N0 2.086430 1_555
Mo11 N3 2.093937 1_555
Mo11 Ni0 2.759469 1_555
Mo11 Ni1 2.767333 1_545
Mo11 Ni2 2.787791 1_555
