# generated using pymatgen
data_Cs3ErCl6
_symmetry_space_group_name_H-M   'P 1'
_cell_length_a   14.08418787
_cell_length_b   14.08418787
_cell_length_c   13.08820961
_cell_angle_alpha   80.65323866
_cell_angle_beta   80.65323866
_cell_angle_gamma   33.75985402
_symmetry_Int_Tables_number   1
_chemical_formula_structural   Cs3ErCl6
_chemical_formula_sum   'Cs12 Er4 Cl24'
_cell_volume   1421.83015416
_cell_formula_units_Z   4
loop_
 _symmetry_equiv_pos_site_id
 _symmetry_equiv_pos_as_xyz
  1  'x, y, z'
loop_
 _atom_site_type_symbol
 _atom_site_label
 _atom_site_symmetry_multiplicity
 _atom_site_fract_x
 _atom_site_fract_y
 _atom_site_fract_z
 _atom_site_occupancy
  Cs  Cs0  1  0.30103122  0.80148425  0.06655903  1
  Cs  Cs1  1  0.69896878  0.19851575  0.93344097  1
  Cs  Cs2  1  0.19851575  0.69896878  0.43344097  1
  Cs  Cs3  1  0.80148425  0.30103122  0.56655903  1
  Cs  Cs4  1  0.46746034  0.83885366  0.35549842  1
  Cs  Cs5  1  0.53253966  0.16114634  0.64450158  1
  Cs  Cs6  1  0.16114634  0.53253966  0.14450158  1
  Cs  Cs7  1  0.83885366  0.46746034  0.85549842  1
  Cs  Cs8  1  0.65046926  0.02506913  0.30041284  1
  Cs  Cs9  1  0.34953074  0.97493087  0.69958716  1
  Cs  Cs10  1  0.97493087  0.34953074  0.19958716  1
  Cs  Cs11  1  0.02506913  0.65046926  0.80041284  1
  Er  Er0  1  0.78328345  0.21671655  0.25000000  1
  Er  Er1  1  0.21671655  0.78328345  0.75000000  1
  Er  Er2  1  0.50000000  0.00000000  -0.00000000  1
  Er  Er3  1  -0.00000000  0.50000000  0.50000000  1
  Cl  Cl0  1  0.61803221  0.73313447  0.07959888  1
  Cl  Cl1  1  0.38196779  0.26686553  0.92040112  1
  Cl  Cl2  1  0.26686553  0.38196779  0.42040112  1
  Cl  Cl3  1  0.73313447  0.61803221  0.57959888  1
  Cl  Cl4  1  0.50254480  0.38561134  0.18413877  1
  Cl  Cl5  1  0.49745520  0.61438866  0.81586123  1
  Cl  Cl6  1  0.61438866  0.49745520  0.31586123  1
  Cl  Cl7  1  0.38561134  0.50254480  0.68413877  1
  Cl  Cl8  1  0.77416147  0.86518483  0.03539817  1
  Cl  Cl9  1  0.22583853  0.13481517  0.96460183  1
  Cl  Cl10  1  0.13481517  0.22583853  0.46460183  1
  Cl  Cl11  1  0.86518483  0.77416147  0.53539817  1
  Cl  Cl12  1  0.92646577  0.96180423  0.69159815  1
  Cl  Cl13  1  0.07353423  0.03819577  0.30840185  1
  Cl  Cl14  1  0.03819577  0.07353423  0.80840185  1
  Cl  Cl15  1  0.96180423  0.92646577  0.19159815  1
  Cl  Cl16  1  0.72244116  0.16428539  0.43142292  1
  Cl  Cl17  1  0.27755884  0.83571461  0.56857708  1
  Cl  Cl18  1  0.83571461  0.27755884  0.06857708  1
  Cl  Cl19  1  0.16428539  0.72244116  0.93142292  1
  Cl  Cl20  1  0.36564929  0.13466208  0.18142112  1
  Cl  Cl21  1  0.63435071  0.86533792  0.81857888  1
  Cl  Cl22  1  0.86533792  0.63435071  0.31857888  1
  Cl  Cl23  1  0.13466208  0.36564929  0.68142112  1
loop_
_geom_bond_atom_site_label_1
_geom_bond_atom_site_label_2
_geom_bond_distance
_geom_bond_site_symmetry_2
Cl0 Er2 2.622456 1_565
Cl0 Cs10 3.402178 1_555
Cl0 Cs7 3.678117 1_554
Cl0 Cs4 3.709794 1_555
Cl0 Cs0 3.733245 1_555
Cl1 Er2 2.622456 1_556
Cl1 Cs11 3.402178 1_555
Cl1 Cs6 3.678117 1_556
Cl1 Cs5 3.709794 1_555
Cl1 Cs1 3.733245 1_555
Cl2 Er3 2.622456 1_555
Cl2 Cs8 3.402178 1_555
Cl2 Cs5 3.678117 1_555
Cl2 Cs6 3.709794 1_555
Cl2 Cs2 3.733245 1_555
Cl3 Er3 2.622456 1_655
Cl3 Cs9 3.402178 1_555
Cl3 Cs4 3.678117 1_555
Cl3 Cs7 3.709794 1_555
Cl3 Cs3 3.733245 1_555
Cl4 Er0 2.614858 1_555
Cl4 Cs6 3.404153 1_555
Cl4 Cs1 3.619661 1_554
Cl4 Cs8 3.656626 1_555
Cl4 Cs0 3.947191 1_555
Cl4 Cs2 4.144464 1_555
Cl5 Er1 2.614858 1_555
Cl5 Cs7 3.404153 1_555
Cl5 Cs0 3.619661 1_556
Cl5 Cs9 3.656626 1_555
Cl5 Cs1 3.947191 1_555
Cl5 Cs3 4.144464 1_555
Cl6 Er0 2.614858 1_555
Cl6 Cs4 3.404153 1_555
Cl6 Cs3 3.619661 1_555
Cl6 Cs10 3.656626 1_555
Cl6 Cs2 3.947191 1_555
Cl6 Cs0 4.144464 1_555
Cl7 Er1 2.614858 1_555
Cl7 Cs5 3.404153 1_555
Cl7 Cs2 3.619661 1_555
Cl7 Cs11 3.656626 1_555
Cl7 Cs3 3.947191 1_555
Cl7 Cs1 4.144464 1_555
Cl8 Er2 2.614261 1_565
Cl8 Cs6 3.404643 1_655
Cl8 Cs11 3.579613 1_654
Cl8 Cs8 3.766710 1_565
Cl8 Cs1 3.885830 1_564
Cl9 Er2 2.614261 1_556
Cl9 Cs7 3.404643 1_455
Cl9 Cs10 3.579613 1_456
Cl9 Cs9 3.766710 1_545
Cl9 Cs0 3.885830 1_546
Cl10 Er3 2.614261 1_555
Cl10 Cs4 3.404643 1_545
Cl10 Cs9 3.579613 1_545
Cl10 Cs10 3.766710 1_455
Cl10 Cs3 3.885830 1_455
Cl11 Er3 2.614261 1_655
Cl11 Cs5 3.404643 1_565
Cl11 Cs8 3.579613 1_565
Cl11 Cs11 3.766710 1_655
Cl11 Cs2 3.885830 1_655
Cl12 Er1 2.630150 1_655
Cl12 Cs11 3.416565 1_655
Cl12 Cs3 3.607727 1_565
Cl12 Cs5 3.700355 1_565
Cl12 Cs1 3.711052 1_565
Cl12 Cs2 4.009284 1_655
Cl13 Er0 2.630150 1_455
Cl13 Cs10 3.416565 1_455
Cl13 Cs2 3.607727 1_545
Cl13 Cs4 3.700355 1_545
Cl13 Cs0 3.711052 1_545
Cl13 Cs3 4.009284 1_455
Cl14 Er1 2.630150 1_545
Cl14 Cs9 3.416565 1_545
Cl14 Cs1 3.607727 1_455
Cl14 Cs7 3.700355 1_455
Cl14 Cs3 3.711052 1_455
Cl14 Cs0 4.009284 1_546
Cl15 Er0 2.630150 1_565
Cl15 Cs8 3.416565 1_565
Cl15 Cs0 3.607727 1_655
Cl15 Cs6 3.700355 1_655
Cl15 Cs2 3.711052 1_655
Cl15 Cs1 4.009284 1_564
Cl16 Er0 2.596066 1_555
Cl16 Cs5 3.559036 1_555
Cl16 Cs8 3.574020 1_555
Cl16 Cs3 3.658963 1_555
Cl16 Cs2 3.852886 1_645
Cl17 Er1 2.596066 1_555
Cl17 Cs4 3.559036 1_555
Cl17 Cs9 3.574020 1_555
Cl17 Cs2 3.658963 1_555
Cl17 Cs3 3.852886 1_465
Cl18 Er0 2.596066 1_555
Cl18 Cs7 3.559036 1_554
Cl18 Cs10 3.574020 1_555
Cl18 Cs1 3.658963 1_554
Cl18 Cs0 3.852886 1_645
Cl19 Er1 2.596066 1_555
Cl19 Cs6 3.559036 1_556
Cl19 Cs11 3.574020 1_555
Cl19 Cs0 3.658963 1_556
Cl19 Cs1 3.852886 1_465
Cl20 Er2 2.617609 1_555
Cl20 Cs10 3.408176 1_455
Cl20 Cs8 3.442787 1_555
Cl20 Cs4 3.556555 1_545
Cl20 Cs6 3.559068 1_555
Cl21 Er2 2.617609 1_566
Cl21 Cs11 3.408176 1_655
Cl21 Cs9 3.442787 1_555
Cl21 Cs5 3.556555 1_565
Cl21 Cs7 3.559068 1_555
Cl22 Er3 2.617609 1_655
Cl22 Cs8 3.408176 1_565
Cl22 Cs10 3.442787 1_555
Cl22 Cs6 3.556555 1_655
Cl22 Cs4 3.559068 1_555
Cl23 Er3 2.617609 1_555
Cl23 Cs9 3.408176 1_545
Cl23 Cs11 3.442787 1_555
Cl23 Cs7 3.556555 1_455
Cl23 Cs5 3.559068 1_555
