# generated using pymatgen
data_Nd2Al2Fe15
_symmetry_space_group_name_H-M   'P 1'
_cell_length_a   6.47086642
_cell_length_b   6.47086642
_cell_length_c   6.47086656
_cell_angle_alpha   82.67557479
_cell_angle_beta   82.67557479
_cell_angle_gamma   82.67557900
_symmetry_Int_Tables_number   1
_chemical_formula_structural   Nd2Al2Fe15
_chemical_formula_sum   'Nd2 Al2 Fe15'
_cell_volume   264.83569582
_cell_formula_units_Z   1
loop_
 _symmetry_equiv_pos_site_id
 _symmetry_equiv_pos_as_xyz
  1  'x, y, z'
loop_
 _atom_site_type_symbol
 _atom_site_label
 _atom_site_symmetry_multiplicity
 _atom_site_fract_x
 _atom_site_fract_y
 _atom_site_fract_z
 _atom_site_occupancy
  Nd  Nd0  1  0.65167600  0.65167600  0.65167600  1
  Nd  Nd1  1  0.34832400  0.34832400  0.34832400  1
  Al  Al0  1  0.89759300  0.89759300  0.89759300  1
  Al  Al1  1  0.10240700  0.10240700  0.10240700  1
  Fe  Fe0  1  0.00000000  0.00000000  0.50000000  1
  Fe  Fe1  1  0.50000000  0.00000000  0.00000000  1
  Fe  Fe2  1  0.00000000  0.50000000  0.00000000  1
  Fe  Fe3  1  0.71057800  0.28942200  0.00000000  1
  Fe  Fe4  1  0.00000000  0.71057800  0.28942200  1
  Fe  Fe5  1  0.28942200  0.00000000  0.71057800  1
  Fe  Fe6  1  0.00000000  0.28942200  0.71057800  1
  Fe  Fe7  1  0.71057800  0.00000000  0.28942200  1
  Fe  Fe8  1  0.28942200  0.71057800  0.00000000  1
  Fe  Fe9  1  0.34068200  0.34068200  0.84700800  1
  Fe  Fe10  1  0.84700800  0.34068200  0.34068200  1
  Fe  Fe11  1  0.34068200  0.84700800  0.34068200  1
  Fe  Fe12  1  0.65931800  0.65931800  0.15299200  1
  Fe  Fe13  1  0.15299200  0.65931800  0.65931800  1
  Fe  Fe14  1  0.65931800  0.15299200  0.65931800  1
loop_
_geom_bond_atom_site_label_1
_geom_bond_atom_site_label_2
_geom_bond_distance
_geom_bond_site_symmetry_2
Nd0 Nd1 3.808794 1_555
Al0 Al1 2.571581 1_666
Al0 Fe0 2.596143 1_665
Al0 Fe1 2.596143 1_566
Al0 Fe2 2.596143 1_656
Al0 Fe12 2.606255 1_556
Al0 Fe13 2.606255 1_655
Al0 Fe14 2.606255 1_565
Al0 Fe5 2.788153 1_665
Al0 Fe6 2.788153 1_665
Al0 Fe4 2.788153 1_656
Al0 Fe7 2.788153 1_566
Al0 Fe3 2.788153 1_566
Al0 Fe8 2.788153 1_656
Al0 Nd0 3.087658 1_555
Al1 Fe0 2.596143 1_555
Al1 Fe2 2.596143 1_555
Al1 Fe1 2.596143 1_555
Al1 Fe9 2.606255 1_554
Al1 Fe11 2.606255 1_545
Al1 Fe10 2.606255 1_455
Al1 Fe4 2.788153 1_545
Al1 Fe7 2.788153 1_455
Al1 Fe6 2.788153 1_554
Al1 Fe5 2.788153 1_554
Al1 Fe8 2.788153 1_545
Al1 Fe3 2.788153 1_455
Al1 Nd1 3.087658 1_555
Fe0 Fe6 2.452517 1_555
Fe0 Fe5 2.452517 1_555
Fe0 Fe4 2.452517 1_545
Fe0 Fe7 2.452517 1_455
Fe0 Fe11 2.455001 1_545
Fe0 Fe10 2.455001 1_455
Fe0 Fe13 2.455001 1_545
Fe0 Fe14 2.455001 1_455
Fe0 Nd1 3.360237 1_555
Fe0 Nd0 3.360237 1_445
Fe1 Fe3 2.452517 1_555
Fe1 Fe8 2.452517 1_545
Fe1 Fe7 2.452517 1_555
Fe1 Fe5 2.452517 1_554
Fe1 Fe14 2.455000 1_554
Fe1 Fe11 2.455000 1_545
Fe1 Fe9 2.455001 1_554
Fe1 Fe12 2.455001 1_545
Fe1 Nd1 3.360237 1_555
Fe1 Nd0 3.360237 1_544
Fe2 Fe8 2.452517 1_555
Fe2 Fe3 2.452517 1_455
Fe2 Fe4 2.452517 1_555
Fe2 Fe6 2.452517 1_554
Fe2 Fe9 2.455001 1_554
Fe2 Nd1 3.360237 1_555
Fe2 Nd0 3.360237 1_454
Fe3 Fe7 2.473972 1_555
Fe3 Fe6 2.473972 1_654
Fe3 Fe9 2.671554 1_554
Fe3 Nd1 3.060143 1_555
Fe3 Nd0 3.060143 1_554
Fe4 Fe8 2.473972 1_555
Fe4 Fe7 2.473972 1_465
Fe4 Nd0 3.060143 1_455
Fe4 Nd1 3.060143 1_555
Fe5 Fe8 2.473972 1_546
Fe5 Fe6 2.473972 1_555
Fe5 Fe9 2.550801 1_555
Fe5 Nd1 3.060143 1_555
Fe5 Nd0 3.060143 1_545
Fe6 Fe9 2.550801 1_555
Fe6 Nd1 3.060143 1_555
Fe6 Nd0 3.060143 1_455
Fe7 Nd0 3.060143 1_545
Fe7 Nd1 3.060143 1_555
Fe8 Fe9 2.671554 1_554
Fe8 Nd1 3.060143 1_555
Fe8 Nd0 3.060143 1_554
Fe9 Nd0 3.071254 1_555
Fe9 Nd1 3.215142 1_555
Fe9 Nd1 3.257380 1_556
Fe10 Fe2 2.455000 1_655
Fe10 Fe14 2.510068 1_555
Fe10 Fe12 2.510068 1_555
Fe10 Fe7 2.550801 1_555
Fe10 Fe3 2.550801 1_555
Fe10 Fe4 2.671554 1_655
Fe10 Fe6 2.671554 1_655
Fe10 Nd0 3.071254 1_555
Fe10 Nd1 3.215142 1_555
Fe10 Nd1 3.257380 1_655
Fe11 Fe13 2.510068 1_555
Fe11 Fe12 2.510068 1_555
Fe11 Fe4 2.550801 1_555
Fe11 Fe8 2.550801 1_555
Fe11 Fe7 2.671554 1_565
Fe11 Fe5 2.671554 1_565
Fe11 Nd0 3.071254 1_555
Fe11 Nd1 3.215142 1_555
Fe11 Nd1 3.257380 1_565
Fe12 Fe2 2.455001 1_655
Fe12 Fe4 2.550801 1_655
Fe12 Fe7 2.550801 1_565
Fe12 Fe8 2.671554 1_555
Fe12 Fe3 2.671554 1_555
Fe12 Nd1 3.071254 1_555
Fe12 Nd0 3.215142 1_555
Fe12 Nd0 3.257380 1_554
Fe13 Fe2 2.455000 1_556
Fe13 Fe9 2.510068 1_555
Fe13 Fe5 2.550801 1_565
Fe13 Fe8 2.550801 1_556
Fe13 Fe6 2.671554 1_555
Fe13 Fe4 2.671554 1_555
Fe13 Nd1 3.071254 1_555
Fe13 Nd0 3.215142 1_555
Fe13 Nd0 3.257380 1_455
Fe14 Fe9 2.510068 1_555
Fe14 Fe6 2.550801 1_655
Fe14 Fe3 2.550801 1_556
Fe14 Fe5 2.671554 1_555
Fe14 Fe7 2.671554 1_555
Fe14 Nd1 3.071254 1_555
Fe14 Nd0 3.215142 1_555
Fe14 Nd0 3.257380 1_545
