# generated using pymatgen
data_U2Bi18O31
_symmetry_space_group_name_H-M   'P 1'
_cell_length_a   3.96105724
_cell_length_b   3.96772878
_cell_length_c   77.66221465
_cell_angle_alpha   59.32778843
_cell_angle_beta   59.30563895
_cell_angle_gamma   60.02142386
_symmetry_Int_Tables_number   1
_chemical_formula_structural   U2Bi18O31
_chemical_formula_sum   'U2 Bi18 O31'
_cell_volume   854.18747953
_cell_formula_units_Z   1
loop_
 _symmetry_equiv_pos_site_id
 _symmetry_equiv_pos_as_xyz
  1  'x, y, z'
loop_
 _atom_site_type_symbol
 _atom_site_label
 _atom_site_symmetry_multiplicity
 _atom_site_fract_x
 _atom_site_fract_y
 _atom_site_fract_z
 _atom_site_occupancy
  U  U0  1  0.99755600  0.99555500  0.95049000  1
  U  U1  1  0.98679300  0.97740400  0.90252000  1
  Bi  Bi0  1  0.00364900  0.00499700  0.99934700  1
  Bi  Bi1  1  0.06238200  0.06274200  0.04061900  1
  Bi  Bi2  1  0.02215200  0.02234900  0.09665600  1
  Bi  Bi3  1  0.99699600  0.99881900  0.20029500  1
  Bi  Bi4  1  0.98656100  0.98598000  0.15203300  1
  Bi  Bi5  1  0.03362300  0.03421800  0.24492300  1
  Bi  Bi6  1  0.03594900  0.03553200  0.34463000  1
  Bi  Bi7  1  0.06227400  0.06200200  0.29069300  1
  Bi  Bi8  1  0.01195700  0.01163300  0.39824100  1
  Bi  Bi9  1  0.00814500  0.00908500  0.44870000  1
  Bi  Bi10  1  0.97763200  0.97747000  0.50338700  1
  Bi  Bi11  1  0.99027200  0.99010400  0.55149200  1
  Bi  Bi12  1  0.00718300  0.00711700  0.69892800  1
  Bi  Bi13  1  0.99325700  0.99308000  0.60103100  1
  Bi  Bi14  1  0.00075500  0.00070200  0.64989200  1
  Bi  Bi15  1  0.01321100  0.01324700  0.74802200  1
  Bi  Bi16  1  0.02233300  0.02250200  0.79663600  1
  Bi  Bi17  1  0.02678700  0.02795500  0.84589300  1
  O  O0  1  0.69556000  0.69513100  0.04569500  1
  O  O1  1  0.69979700  0.69941800  0.09504700  1
  O  O2  1  0.79600000  0.79702000  0.13052500  1
  O  O3  1  0.73390800  0.73363700  0.18990900  1
  O  O4  1  0.75578200  0.75435200  0.23674000  1
  O  O5  1  0.67195800  0.67132100  0.29926600  1
  O  O6  1  0.26958800  0.27053800  0.40949300  1
  O  O7  1  0.69945700  0.69852100  0.34513900  1
  O  O8  1  0.81032300  0.81055200  0.37843000  1
  O  O9  1  0.23203700  0.23299600  0.51515000  1
  O  O10  1  0.72172900  0.72200000  0.44170700  1
  O  O11  1  0.26685500  0.26692400  0.55998300  1
  O  O12  1  0.77390200  0.77341300  0.48396600  1
  O  O13  1  0.23118100  0.23197700  0.61527400  1
  O  O14  1  0.73151200  0.73155900  0.54028800  1
  O  O15  1  0.75541500  0.75451800  0.58675500  1
  O  O16  1  0.27388400  0.27374600  0.65892600  1
  O  O17  1  0.72935300  0.72932900  0.64060000  1
  O  O18  1  0.24310600  0.24398800  0.71347800  1
  O  O19  1  0.76963000  0.76863100  0.68462300  1
  O  O20  1  0.28387800  0.28383800  0.75742500  1
  O  O21  1  0.73951600  0.73957200  0.73907500  1
  O  O22  1  0.25589400  0.25686300  0.81155100  1
  O  O23  1  0.78341700  0.78257700  0.78254900  1
  O  O24  1  0.18253200  0.18743100  0.87228900  1
  O  O25  1  0.73488700  0.73569400  0.83970400  1
  O  O26  1  0.22409400  0.22661700  0.91624900  1
  O  O27  1  0.67951200  0.68699800  0.89763600  1
  O  O28  1  0.25507400  0.25329900  0.96184900  1
  O  O29  1  0.74364900  0.74041100  0.93864600  1
  O  O30  1  0.76710300  0.76463300  0.98510500  1
loop_
_geom_bond_atom_site_label_1
_geom_bond_atom_site_label_2
_geom_bond_distance
_geom_bond_site_symmetry_2
Bi0 O28 2.352798 1_555
Bi0 O30 2.453618 1_455
Bi0 O30 2.457254 1_445
Bi0 O30 2.461144 1_545
Bi1 O0 2.310870 1_545
Bi1 O0 2.310978 1_445
Bi1 O0 2.311581 1_455
Bi2 O2 2.125094 1_445
Bi2 O1 2.290441 1_545
Bi2 O1 2.291065 1_445
Bi2 O1 2.292445 1_455
Bi3 O4 2.286739 1_555
Bi3 O3 2.378980 1_565
Bi3 O3 2.379796 1_555
Bi3 O3 2.381363 1_655
Bi4 O3 2.376512 1_555
Bi4 O2 2.653295 1_655
Bi4 O2 2.655640 1_555
Bi4 O2 2.662894 1_565
Bi5 O4 2.344801 1_455
Bi5 O4 2.345940 1_445
Bi5 O4 2.347167 1_545
Bi6 O8 2.120765 1_445
Bi6 O7 2.288462 1_545
Bi6 O7 2.288995 1_445
Bi6 O7 2.290487 1_455
Bi7 O5 2.350704 1_545
Bi7 O5 2.351090 1_445
Bi7 O5 2.352537 1_455
Bi8 O6 2.394621 1_555
Bi8 O6 2.395731 1_455
Bi8 O6 2.396125 1_545
Bi8 O8 2.601539 1_545
Bi8 O8 2.604868 1_445
Bi8 O8 2.608041 1_455
Bi8 O10 2.727254 1_445
Bi9 O12 2.212753 1_445
Bi9 O10 2.329852 1_545
Bi9 O10 2.330492 1_445
Bi9 O10 2.331949 1_455
Bi9 O6 2.460025 1_555
Bi10 O14 2.315336 1_555
Bi10 O9 2.404766 1_565
Bi10 O9 2.404946 1_665
Bi10 O9 2.405698 1_655
Bi10 O12 2.591476 1_655
Bi10 O12 2.592897 1_555
Bi10 O12 2.595311 1_565
Bi11 O15 2.212562 1_555
Bi11 O9 2.280265 1_665
Bi11 O11 2.348796 1_565
Bi11 O11 2.349575 1_665
Bi11 O11 2.352443 1_655
Bi11 O14 2.392192 1_655
Bi11 O14 2.394152 1_555
Bi11 O14 2.397470 1_565
Bi12 O19 2.458015 1_545
Bi12 O19 2.458575 1_445
Bi12 O19 2.459724 1_455
Bi12 O18 2.463650 1_455
Bi12 O18 2.464296 1_555
Bi12 O18 2.465327 1_545
Bi12 O16 2.509907 1_555
Bi12 O21 2.519005 1_445
Bi13 O13 2.456734 1_565
Bi13 O13 2.457015 1_665
Bi13 O15 2.457046 1_655
Bi13 O15 2.457841 1_555
Bi13 O13 2.458313 1_655
Bi13 O15 2.459435 1_565
Bi13 O17 2.482738 1_555
Bi13 O11 2.575538 1_665
Bi14 O13 2.172092 1_555
Bi14 O19 2.179183 1_445
Bi14 O16 2.356184 1_455
Bi14 O16 2.357563 1_555
Bi14 O17 2.360145 1_545
Bi14 O16 2.360936 1_545
Bi14 O17 2.361646 1_445
Bi14 O17 2.364723 1_455
Bi15 O23 2.166383 1_445
Bi15 O18 2.167449 1_555
Bi15 O21 2.354927 1_545
Bi15 O21 2.356380 1_445
Bi15 O21 2.359458 1_455
Bi15 O20 2.361854 1_455
Bi15 O20 2.363251 1_555
Bi15 O20 2.366594 1_545
Bi16 O23 2.453281 1_445
Bi16 O23 2.453350 1_545
Bi16 O23 2.454803 1_455
Bi16 O20 2.460276 1_555
Bi16 O22 2.471989 1_455
Bi16 O22 2.472853 1_555
Bi16 O22 2.474158 1_545
Bi16 O25 2.702281 1_445
Bi17 O22 2.154773 1_555
Bi17 O25 2.320491 1_545
Bi17 O25 2.321323 1_445
Bi17 O25 2.323574 1_455
O24 U1 1.897087 1_445
O26 U0 2.148465 1_445
O26 U1 2.424607 1_455
O26 U1 2.454744 1_445
O26 U1 2.458321 1_545
O27 U1 2.285671 1_455
O27 U1 2.296045 1_555
O27 U1 2.347206 1_545
O28 U0 2.395746 1_545
O28 U0 2.397104 1_445
O28 U0 2.399584 1_455
O29 U1 2.266738 1_555
O29 U0 2.406192 1_455
O29 U0 2.406748 1_545
O29 U0 2.407164 1_555
O30 U0 2.171903 1_555
