# generated using pymatgen
data_SbHC2O5
_symmetry_space_group_name_H-M   'P 1'
_cell_length_a   6.02979600
_cell_length_b   6.49633000
_cell_length_c   11.37564800
_cell_angle_alpha   90.00000000
_cell_angle_beta   90.00000000
_cell_angle_gamma   90.00000000
_symmetry_Int_Tables_number   1
_chemical_formula_structural   SbHC2O5
_chemical_formula_sum   'Sb4 H4 C8 O20'
_cell_volume   445.60170354
_cell_formula_units_Z   4
loop_
 _symmetry_equiv_pos_site_id
 _symmetry_equiv_pos_as_xyz
  1  'x, y, z'
loop_
 _atom_site_type_symbol
 _atom_site_label
 _atom_site_symmetry_multiplicity
 _atom_site_fract_x
 _atom_site_fract_y
 _atom_site_fract_z
 _atom_site_occupancy
  Sb  Sb0  1  0.07237100  0.01601200  0.49992800  1
  Sb  Sb1  1  0.57237100  0.48398800  0.50007200  1
  Sb  Sb2  1  0.42762900  0.98398800  0.99992800  1
  Sb  Sb3  1  0.92762900  0.51601200  0.00007200  1
  H  H0  1  0.60322000  0.10277100  0.46446500  1
  H  H1  1  0.10322000  0.39722900  0.53553500  1
  H  H2  1  0.89678000  0.89722900  0.96446500  1
  H  H3  1  0.39678000  0.60277100  0.03553500  1
  C  C0  1  0.14429300  0.05199000  0.22649500  1
  C  C1  1  0.64429300  0.44801000  0.77350500  1
  C  C2  1  0.35570700  0.94801000  0.72649500  1
  C  C3  1  0.85570700  0.55199000  0.27350500  1
  C  C4  1  0.35584200  0.94870800  0.27326000  1
  C  C5  1  0.85584200  0.55129200  0.72674000  1
  C  C6  1  0.14415800  0.05129200  0.77326000  1
  C  C7  1  0.64415800  0.44870800  0.22674000  1
  O  O0  1  0.99765300  0.10315600  0.29965100  1
  O  O1  1  0.49765300  0.39684400  0.70034900  1
  O  O2  1  0.50234700  0.89684400  0.79965100  1
  O  O3  1  0.00234700  0.60315600  0.20034900  1
  O  O4  1  0.50248700  0.89419400  0.20110600  1
  O  O5  1  0.00248700  0.60580600  0.79889400  1
  O  O6  1  0.99751300  0.10580600  0.70110600  1
  O  O7  1  0.49751300  0.39419400  0.29889400  1
  O  O8  1  0.71066700  0.20083700  0.49826300  1
  O  O9  1  0.21066700  0.29916300  0.50173700  1
  O  O10  1  0.78933300  0.79916300  0.99826300  1
  O  O11  1  0.28933300  0.70083700  0.00173700  1
  O  O12  1  0.13321300  0.08298300  0.11563900  1
  O  O13  1  0.63321300  0.41701700  0.88436100  1
  O  O14  1  0.36678700  0.91701700  0.61563900  1
  O  O15  1  0.86678700  0.58298300  0.38436100  1
  O  O16  1  0.37227400  0.92724800  0.38541600  1
  O  O17  1  0.87227400  0.57275200  0.61458400  1
  O  O18  1  0.12772600  0.07275200  0.88541600  1
  O  O19  1  0.62772600  0.42724800  0.11458400  1
loop_
_geom_bond_atom_site_label_1
_geom_bond_atom_site_label_2
_geom_bond_distance
_geom_bond_site_symmetry_2
H0 O8 0.986626 1_555
H1 O9 0.986626 1_555
H2 O10 0.986626 1_555
H3 O11 0.986626 1_555
C0 O0 1.258913 1_455
C0 O12 1.278777 1_555
C1 O1 1.258913 1_555
C1 O13 1.278777 1_555
C2 O2 1.258913 1_555
C2 O14 1.278777 1_555
C3 O3 1.258913 1_655
C3 O15 1.278777 1_555
C4 O4 1.257380 1_555
C4 O16 1.287260 1_555
C5 O5 1.257380 1_655
C5 O17 1.287260 1_555
C6 O6 1.257380 1_455
C6 O18 1.287260 1_555
C7 O7 1.257380 1_555
C7 O19 1.287260 1_555
O0 Sb0 2.390404 1_655
O1 Sb1 2.390404 1_555
O2 Sb2 2.390404 1_555
O3 Sb3 2.390404 1_455
O4 Sb2 2.404452 1_554
O5 Sb3 2.404452 1_456
O6 Sb0 2.404452 1_655
O7 Sb1 2.404452 1_555
O8 Sb1 2.019741 1_555
O8 Sb0 2.489733 1_655
O9 Sb0 2.019741 1_555
O9 Sb1 2.489733 1_555
O10 Sb3 2.019741 1_556
O10 Sb2 2.489733 1_555
O11 Sb2 2.019741 1_554
O11 Sb3 2.489733 1_455
O12 Sb2 2.301689 1_544
O13 Sb3 2.301689 1_556
O14 Sb0 2.301689 1_565
O15 Sb1 2.301689 1_555
O16 Sb0 2.302075 1_565
O17 Sb1 2.302075 1_555
O18 Sb2 2.302075 1_545
O19 Sb3 2.302075 1_555
