# generated using pymatgen
data_SmInNi
_symmetry_space_group_name_H-M   'P 1'
_cell_length_a   15.83214075
_cell_length_b   15.83214161
_cell_length_c   7.31953400
_cell_angle_alpha   90.00000000
_cell_angle_beta   90.00000000
_cell_angle_gamma   119.38400578
_symmetry_Int_Tables_number   1
_chemical_formula_structural   SmInNi
_chemical_formula_sum   'Sm24 In24 Ni24'
_cell_volume   1598.65879544
_cell_formula_units_Z   24
loop_
 _symmetry_equiv_pos_site_id
 _symmetry_equiv_pos_as_xyz
  1  'x, y, z'
loop_
 _atom_site_type_symbol
 _atom_site_label
 _atom_site_symmetry_multiplicity
 _atom_site_fract_x
 _atom_site_fract_y
 _atom_site_fract_z
 _atom_site_occupancy
  Sm  Sm0_0  1  0.16865100  0.16865100  0.25000000  1
  Sm  Sm0_1  1  0.16865100  0.16865100  0.75000000  1
  Sm  Sm0_2  1  0.16865100  0.66865100  0.25000000  1
  Sm  Sm0_3  1  0.16865100  0.66865100  0.75000000  1
  Sm  Sm0_4  1  0.66865100  0.16865100  0.25000000  1
  Sm  Sm0_5  1  0.66865100  0.16865100  0.75000000  1
  Sm  Sm0_6  1  0.66865100  0.66865100  0.25000000  1
  Sm  Sm0_7  1  0.66865100  0.66865100  0.75000000  1
  Sm  Sm1_0  1  0.33276700  0.00085100  0.25000000  1
  Sm  Sm1_1  1  0.33276700  0.00085100  0.75000000  1
  Sm  Sm1_2  1  0.33276700  0.50085100  0.25000000  1
  Sm  Sm1_3  1  0.33276700  0.50085100  0.75000000  1
  Sm  Sm1_4  1  0.83276700  0.00085100  0.25000000  1
  Sm  Sm1_5  1  0.83276700  0.00085100  0.75000000  1
  Sm  Sm1_6  1  0.83276700  0.50085100  0.25000000  1
  Sm  Sm1_7  1  0.83276700  0.50085100  0.75000000  1
  Sm  Sm2_0  1  0.00085100  0.33276700  0.25000000  1
  Sm  Sm2_1  1  0.00085100  0.33276700  0.75000000  1
  Sm  Sm2_2  1  0.00085100  0.83276700  0.25000000  1
  Sm  Sm2_3  1  0.00085100  0.83276700  0.75000000  1
  Sm  Sm2_4  1  0.50085100  0.33276700  0.25000000  1
  Sm  Sm2_5  1  0.50085100  0.33276700  0.75000000  1
  Sm  Sm2_6  1  0.50085100  0.83276700  0.25000000  1
  Sm  Sm2_7  1  0.50085100  0.83276700  0.75000000  1
  In  In0_0  1  0.33446550  0.33446550  0.00000000  1
  In  In0_1  1  0.33446550  0.33446550  0.50000000  1
  In  In0_2  1  0.33446550  0.83446550  0.00000000  1
  In  In0_3  1  0.33446550  0.83446550  0.50000000  1
  In  In0_4  1  0.83446550  0.33446550  0.00000000  1
  In  In0_5  1  0.83446550  0.33446550  0.50000000  1
  In  In0_6  1  0.83446550  0.83446550  0.00000000  1
  In  In0_7  1  0.83446550  0.83446550  0.50000000  1
  In  In1_0  1  0.16574600  0.00017250  0.00000000  1
  In  In1_1  1  0.16574600  0.00017250  0.50000000  1
  In  In1_2  1  0.16574600  0.50017250  0.00000000  1
  In  In1_3  1  0.16574600  0.50017250  0.50000000  1
  In  In1_4  1  0.66574600  0.00017250  0.00000000  1
  In  In1_5  1  0.66574600  0.00017250  0.50000000  1
  In  In1_6  1  0.66574600  0.50017250  0.00000000  1
  In  In1_7  1  0.66574600  0.50017250  0.50000000  1
  In  In2_0  1  0.00017250  0.16574600  0.00000000  1
  In  In2_1  1  0.00017250  0.16574600  0.50000000  1
  In  In2_2  1  0.00017250  0.66574600  0.00000000  1
  In  In2_3  1  0.00017250  0.66574600  0.50000000  1
  In  In2_4  1  0.50017250  0.16574600  0.00000000  1
  In  In2_5  1  0.50017250  0.16574600  0.50000000  1
  In  In2_6  1  0.50017250  0.66574600  0.00000000  1
  In  In2_7  1  0.50017250  0.66574600  0.50000000  1
  Ni  Ni0_0  1  0.49907400  0.49907400  0.00000000  1
  Ni  Ni0_1  1  0.49907400  0.49907400  0.50000000  1
  Ni  Ni0_2  1  0.49907400  0.99907400  0.00000000  1
  Ni  Ni0_3  1  0.49907400  0.99907400  0.50000000  1
  Ni  Ni0_4  1  0.99907400  0.49907400  0.00000000  1
  Ni  Ni0_5  1  0.99907400  0.49907400  0.50000000  1
  Ni  Ni0_6  1  0.99907400  0.99907400  0.00000000  1
  Ni  Ni0_7  1  0.99907400  0.99907400  0.50000000  1
  Ni  Ni1_0  1  0.33257150  0.16575100  0.00000000  1
  Ni  Ni1_1  1  0.33257150  0.16575100  0.50000000  1
  Ni  Ni1_2  1  0.33257150  0.66575100  0.00000000  1
  Ni  Ni1_3  1  0.33257150  0.66575100  0.50000000  1
  Ni  Ni1_4  1  0.83257150  0.16575100  0.00000000  1
  Ni  Ni1_5  1  0.83257150  0.16575100  0.50000000  1
  Ni  Ni1_6  1  0.83257150  0.66575100  0.00000000  1
  Ni  Ni1_7  1  0.83257150  0.66575100  0.50000000  1
  Ni  Ni2_0  1  0.16575100  0.33257150  0.00000000  1
  Ni  Ni2_1  1  0.16575100  0.33257150  0.50000000  1
  Ni  Ni2_2  1  0.16575100  0.83257150  0.00000000  1
  Ni  Ni2_3  1  0.16575100  0.83257150  0.50000000  1
  Ni  Ni2_4  1  0.66575100  0.33257150  0.00000000  1
  Ni  Ni2_5  1  0.66575100  0.33257150  0.50000000  1
  Ni  Ni2_6  1  0.66575100  0.83257150  0.00000000  1
  Ni  Ni2_7  1  0.66575100  0.83257150  0.50000000  1
loop_
_geom_bond_atom_site_label_1
_geom_bond_atom_site_label_2
_geom_bond_distance
_geom_bond_site_symmetry_2
Sm0_0 Sm0_1 3.659767 1_555
Sm0_0 Sm0_1 3.659767 1_554
Sm0_2 Sm0_3 3.659767 1_554
Sm0_2 Sm0_3 3.659767 1_555
Sm0_4 Sm0_5 3.659767 1_555
Sm0_4 Sm0_5 3.659767 1_554
Sm0_6 Sm0_7 3.659767 1_554
Sm0_6 Sm0_7 3.659767 1_555
Sm1_0 Sm1_1 3.659767 1_555
Sm1_0 Sm1_1 3.659767 1_554
Sm1_2 Sm1_3 3.659767 1_554
Sm1_2 Sm1_3 3.659767 1_555
Sm1_4 Sm1_5 3.659767 1_554
Sm1_4 Sm1_5 3.659767 1_555
Sm1_6 Sm1_7 3.659767 1_554
Sm1_6 Sm1_7 3.659767 1_555
Sm2_0 Sm2_1 3.659767 1_554
Sm2_0 Sm2_1 3.659767 1_555
Sm2_2 Sm2_3 3.659767 1_555
Sm2_2 Sm2_3 3.659767 1_554
Sm2_4 Sm2_5 3.659767 1_555
Sm2_4 Sm2_5 3.659767 1_554
Sm2_6 Sm2_7 3.659767 1_555
Sm2_6 Sm2_7 3.659767 1_554
In0_0 Ni0_0 2.630332 1_555
In0_0 Ni2_0 2.656527 1_555
In0_0 Ni1_0 2.656527 1_555
In0_0 Sm2_4 3.218373 1_555
In0_0 Sm2_5 3.218373 1_554
In0_0 Sm1_3 3.218373 1_554
In0_0 Sm1_2 3.218373 1_555
In0_0 Sm0_0 3.220073 1_555
In0_0 Sm0_1 3.220073 1_554
In0_1 Ni0_1 2.630332 1_555
In0_1 Ni2_1 2.656527 1_555
In0_1 Ni1_1 2.656527 1_555
In0_1 Sm2_4 3.218373 1_555
In0_1 Sm2_5 3.218373 1_555
In0_1 Sm1_3 3.218373 1_555
In0_1 Sm1_2 3.218373 1_555
In0_1 Sm0_1 3.220073 1_555
In0_1 Sm0_0 3.220073 1_555
In0_2 Ni0_2 2.630332 1_555
In0_2 Ni2_2 2.656527 1_555
In0_2 Ni1_2 2.656527 1_555
In0_2 Sm2_6 3.218373 1_555
In0_2 Sm2_7 3.218373 1_554
In0_2 Sm1_0 3.218373 1_565
In0_2 Sm1_1 3.218373 1_564
In0_2 Sm0_2 3.220073 1_555
In0_2 Sm0_3 3.220073 1_554
In0_3 Ni0_3 2.630332 1_555
In0_3 Ni2_3 2.656527 1_555
In0_3 Ni1_3 2.656527 1_555
In0_3 Sm2_6 3.218373 1_555
In0_3 Sm2_7 3.218373 1_555
In0_3 Sm1_0 3.218373 1_565
In0_3 Sm1_1 3.218373 1_565
In0_3 Sm0_2 3.220073 1_555
In0_3 Sm0_3 3.220073 1_555
In0_4 Ni0_4 2.630332 1_555
In0_4 Ni2_4 2.656527 1_555
In0_4 Ni1_4 2.656527 1_555
In0_4 Sm2_0 3.218373 1_655
In0_4 Sm2_1 3.218373 1_654
In0_4 Sm1_7 3.218373 1_554
In0_4 Sm1_6 3.218373 1_555
In0_4 Sm0_4 3.220073 1_555
In0_4 Sm0_5 3.220073 1_554
In0_5 Ni0_5 2.630332 1_555
In0_5 Ni2_5 2.656527 1_555
In0_5 Ni1_5 2.656527 1_555
In0_5 Sm2_0 3.218373 1_655
In0_5 Sm2_1 3.218373 1_655
In0_5 Sm1_7 3.218373 1_555
In0_5 Sm1_6 3.218373 1_555
In0_5 Sm0_4 3.220073 1_555
In0_5 Sm0_5 3.220073 1_555
In0_6 Ni0_6 2.630332 1_555
In0_6 Ni2_6 2.656527 1_555
In0_6 Ni1_6 2.656527 1_555
In0_6 Sm2_3 3.218373 1_654
In0_6 Sm2_2 3.218373 1_655
In0_6 Sm1_4 3.218373 1_565
In0_6 Sm1_5 3.218373 1_564
In0_6 Sm0_6 3.220073 1_555
In0_6 Sm0_7 3.220073 1_554
In0_7 Ni0_7 2.630332 1_555
In0_7 Ni2_7 2.656527 1_555
In0_7 Ni1_7 2.656527 1_555
In0_7 Sm2_3 3.218373 1_655
In0_7 Sm2_2 3.218373 1_655
In0_7 Sm1_4 3.218373 1_565
In0_7 Sm1_5 3.218373 1_565
In0_7 Sm0_6 3.220073 1_555
In0_7 Sm0_7 3.220073 1_555
In1_0 Ni0_6 2.630285 1_445
In1_0 Ni2_2 2.653522 1_545
In1_0 Ni1_0 2.655850 1_555
In1_0 Sm1_0 3.211392 1_555
In1_0 Sm1_1 3.211392 1_554
In1_0 Sm0_1 3.216379 1_554
In1_0 Sm0_0 3.216379 1_555
In1_0 Sm2_2 3.224672 1_545
In1_0 Sm2_3 3.224672 1_544
In1_1 Ni0_7 2.630285 1_445
In1_1 Ni2_3 2.653522 1_545
In1_1 Ni1_1 2.655850 1_555
In1_1 Sm1_0 3.211392 1_555
In1_1 Sm1_1 3.211392 1_555
In1_1 Sm0_1 3.216379 1_555
In1_1 Sm0_0 3.216379 1_555
In1_1 Sm2_3 3.224672 1_545
In1_1 Sm2_2 3.224672 1_545
In1_2 Ni0_4 2.630285 1_455
In1_2 Ni2_0 2.653522 1_555
In1_2 Ni1_2 2.655850 1_555
In1_2 Sm1_2 3.211392 1_555
In1_2 Sm1_3 3.211392 1_554
In1_2 Sm0_3 3.216379 1_554
In1_2 Sm0_2 3.216379 1_555
In1_2 Sm2_0 3.224672 1_555
In1_2 Sm2_1 3.224672 1_554
In1_3 Ni0_5 2.630285 1_455
In1_3 Ni2_1 2.653522 1_555
In1_3 Ni1_3 2.655850 1_555
In1_3 Sm1_2 3.211392 1_555
In1_3 Sm1_3 3.211392 1_555
In1_3 Sm0_3 3.216379 1_555
In1_3 Sm0_2 3.216379 1_555
In1_3 Sm2_0 3.224672 1_555
In1_3 Sm2_1 3.224672 1_555
In1_4 Ni0_2 2.630285 1_545
In1_4 Ni2_6 2.653522 1_545
In1_4 Ni1_4 2.655850 1_555
In1_4 Sm1_5 3.211392 1_554
In1_4 Sm1_4 3.211392 1_555
In1_4 Sm0_5 3.216379 1_554
In1_4 Sm0_4 3.216379 1_555
In1_4 Sm2_7 3.224672 1_544
In1_4 Sm2_6 3.224672 1_545
In1_5 Ni0_3 2.630285 1_545
In1_5 Ni2_7 2.653522 1_545
In1_5 Ni1_5 2.655850 1_555
In1_5 Sm1_5 3.211392 1_555
In1_5 Sm1_4 3.211392 1_555
In1_5 Sm0_4 3.216379 1_555
In1_5 Sm0_5 3.216379 1_555
In1_5 Sm2_7 3.224672 1_545
In1_5 Sm2_6 3.224672 1_545
In1_6 Ni0_0 2.630285 1_555
In1_6 Ni2_4 2.653522 1_555
In1_6 Ni1_6 2.655850 1_555
In1_6 Sm1_7 3.211392 1_554
In1_6 Sm1_6 3.211392 1_555
In1_6 Sm0_6 3.216379 1_555
In1_6 Sm0_7 3.216379 1_554
In1_6 Sm2_5 3.224672 1_554
In1_6 Sm2_4 3.224672 1_555
In1_7 Ni0_1 2.630285 1_555
In1_7 Ni2_5 2.653522 1_555
In1_7 Ni1_7 2.655850 1_555
In1_7 Sm1_6 3.211392 1_555
In1_7 Sm1_7 3.211392 1_555
In1_7 Sm0_6 3.216379 1_555
In1_7 Sm0_7 3.216379 1_555
In1_7 Sm2_5 3.224672 1_555
In1_7 Sm2_4 3.224672 1_555
In2_0 Ni0_6 2.630285 1_445
In2_0 Ni1_4 2.653521 1_455
In2_0 Ni2_0 2.655850 1_555
In2_0 Sm2_1 3.211392 1_554
In2_0 Sm2_0 3.211392 1_555
In2_0 Sm0_1 3.216379 1_554
In2_0 Sm0_0 3.216379 1_555
In2_0 Sm1_5 3.224672 1_454
In2_0 Sm1_4 3.224672 1_455
In2_1 Ni0_7 2.630285 1_445
In2_1 Ni1_5 2.653521 1_455
In2_1 Ni2_1 2.655850 1_555
In2_1 Sm2_1 3.211392 1_555
In2_1 Sm2_0 3.211392 1_555
In2_1 Sm0_1 3.216379 1_555
In2_1 Sm0_0 3.216379 1_555
In2_1 Sm1_4 3.224672 1_455
In2_1 Sm1_5 3.224672 1_455
In2_2 Ni0_4 2.630285 1_455
In2_2 Ni1_6 2.653521 1_455
In2_2 Ni2_2 2.655850 1_555
In2_2 Sm2_2 3.211392 1_555
In2_2 Sm2_3 3.211392 1_554
In2_2 Sm0_2 3.216379 1_555
In2_2 Sm0_3 3.216379 1_554
In2_2 Sm1_6 3.224672 1_455
In2_2 Sm1_7 3.224672 1_454
In2_3 Ni0_5 2.630285 1_455
In2_3 Ni1_7 2.653521 1_455
In2_3 Ni2_3 2.655850 1_555
In2_3 Sm2_2 3.211392 1_555
In2_3 Sm2_3 3.211392 1_555
In2_3 Sm0_2 3.216379 1_555
In2_3 Sm0_3 3.216379 1_555
In2_3 Sm1_6 3.224672 1_455
In2_3 Sm1_7 3.224672 1_455
In2_4 Ni0_2 2.630285 1_545
In2_4 Ni1_0 2.653521 1_555
In2_4 Ni2_4 2.655850 1_555
In2_4 Sm2_5 3.211392 1_554
In2_4 Sm2_4 3.211392 1_555
In2_4 Sm0_4 3.216379 1_555
In2_4 Sm0_5 3.216379 1_554
In2_4 Sm1_0 3.224672 1_555
In2_4 Sm1_1 3.224672 1_554
In2_5 Ni0_3 2.630285 1_545
In2_5 Ni1_1 2.653521 1_555
In2_5 Ni2_5 2.655850 1_555
In2_5 Sm2_5 3.211392 1_555
In2_5 Sm2_4 3.211392 1_555
In2_5 Sm0_5 3.216379 1_555
In2_5 Sm0_4 3.216379 1_555
In2_5 Sm1_0 3.224672 1_555
In2_5 Sm1_1 3.224672 1_555
In2_6 Ni0_0 2.630285 1_555
In2_6 Ni1_2 2.653521 1_555
In2_6 Ni2_6 2.655850 1_555
In2_6 Sm2_6 3.211392 1_555
In2_6 Sm2_7 3.211392 1_554
In2_6 Sm0_6 3.216379 1_555
In2_6 Sm0_7 3.216379 1_554
In2_6 Sm1_2 3.224672 1_555
In2_6 Sm1_3 3.224672 1_554
In2_7 Ni0_1 2.630285 1_555
In2_7 Ni1_3 2.653521 1_555
In2_7 Ni2_7 2.655850 1_555
In2_7 Sm2_6 3.211392 1_555
In2_7 Sm2_7 3.211392 1_555
In2_7 Sm0_6 3.216379 1_555
In2_7 Sm0_7 3.216379 1_555
In2_7 Sm1_3 3.224672 1_555
In2_7 Sm1_2 3.224672 1_555
Ni0_0 Sm1_2 3.217860 1_555
Ni0_0 Sm1_3 3.217860 1_554
Ni0_0 Sm2_4 3.217860 1_555
Ni0_0 Sm2_5 3.217860 1_554
Ni0_0 Sm0_7 3.269722 1_554
Ni0_0 Sm0_6 3.269722 1_555
Ni0_1 Sm1_3 3.217860 1_555
Ni0_1 Sm1_2 3.217860 1_555
Ni0_1 Sm2_4 3.217860 1_555
Ni0_1 Sm2_5 3.217860 1_555
Ni0_1 Sm0_6 3.269722 1_555
Ni0_1 Sm0_7 3.269722 1_555
Ni0_2 Sm1_0 3.217860 1_565
Ni0_2 Sm1_1 3.217860 1_564
Ni0_2 Sm2_6 3.217860 1_555
Ni0_2 Sm2_7 3.217860 1_554
Ni0_2 Sm0_5 3.269722 1_564
Ni0_2 Sm0_4 3.269722 1_565
Ni0_3 Sm1_0 3.217860 1_565
Ni0_3 Sm1_1 3.217860 1_565
Ni0_3 Sm2_6 3.217860 1_555
Ni0_3 Sm2_7 3.217860 1_555
Ni0_3 Sm0_5 3.269722 1_565
Ni0_3 Sm0_4 3.269722 1_565
Ni0_4 Sm1_7 3.217860 1_554
Ni0_4 Sm1_6 3.217860 1_555
Ni0_4 Sm2_0 3.217860 1_655
Ni0_4 Sm2_1 3.217860 1_654
Ni0_4 Sm0_2 3.269722 1_655
Ni0_4 Sm0_3 3.269722 1_654
Ni0_5 Sm1_7 3.217860 1_555
Ni0_5 Sm1_6 3.217860 1_555
Ni0_5 Sm2_0 3.217860 1_655
Ni0_5 Sm2_1 3.217860 1_655
Ni0_5 Sm0_3 3.269722 1_655
Ni0_5 Sm0_2 3.269722 1_655
Ni0_6 Sm1_4 3.217860 1_565
Ni0_6 Sm1_5 3.217860 1_564
Ni0_6 Sm2_2 3.217860 1_655
Ni0_6 Sm2_3 3.217860 1_654
Ni0_6 Sm0_0 3.269722 1_665
Ni0_6 Sm0_1 3.269722 1_664
Ni0_7 Sm1_4 3.217860 1_565
Ni0_7 Sm1_5 3.217860 1_565
Ni0_7 Sm2_2 3.217860 1_655
Ni0_7 Sm2_3 3.217860 1_655
Ni0_7 Sm0_0 3.269722 1_665
Ni0_7 Sm0_1 3.269722 1_665
Ni1_0 Sm1_0 3.189400 1_555
Ni1_0 Sm1_1 3.189400 1_554
Ni1_0 Sm0_0 3.194157 1_555
Ni1_0 Sm0_1 3.194157 1_554
Ni1_0 Sm2_4 3.244266 1_555
Ni1_0 Sm2_5 3.244266 1_554
Ni1_1 Sm1_0 3.189400 1_555
Ni1_1 Sm1_1 3.189400 1_555
Ni1_1 Sm0_1 3.194157 1_555
Ni1_1 Sm0_0 3.194157 1_555
Ni1_1 Sm2_4 3.244266 1_555
Ni1_1 Sm2_5 3.244266 1_555
Ni1_2 Sm1_3 3.189400 1_554
Ni1_2 Sm1_2 3.189400 1_555
Ni1_2 Sm0_2 3.194157 1_555
Ni1_2 Sm0_3 3.194157 1_554
Ni1_2 Sm2_6 3.244266 1_555
Ni1_2 Sm2_7 3.244266 1_554
Ni1_3 Sm1_3 3.189400 1_555
Ni1_3 Sm1_2 3.189400 1_555
Ni1_3 Sm0_2 3.194157 1_555
Ni1_3 Sm0_3 3.194157 1_555
Ni1_3 Sm2_6 3.244266 1_555
Ni1_3 Sm2_7 3.244266 1_555
Ni1_4 Sm1_4 3.189400 1_555
Ni1_4 Sm1_5 3.189400 1_554
Ni1_4 Sm0_4 3.194157 1_555
Ni1_4 Sm0_5 3.194157 1_554
Ni1_4 Sm2_1 3.244266 1_654
Ni1_4 Sm2_0 3.244266 1_655
Ni1_5 Sm1_4 3.189400 1_555
Ni1_5 Sm1_5 3.189400 1_555
Ni1_5 Sm0_4 3.194157 1_555
Ni1_5 Sm0_5 3.194157 1_555
Ni1_5 Sm2_0 3.244266 1_655
Ni1_5 Sm2_1 3.244266 1_655
Ni1_6 Sm1_6 3.189400 1_555
Ni1_6 Sm1_7 3.189400 1_554
Ni1_6 Sm0_7 3.194157 1_554
Ni1_6 Sm0_6 3.194157 1_555
Ni1_6 Sm2_3 3.244266 1_654
Ni1_6 Sm2_2 3.244266 1_655
Ni1_7 Sm1_6 3.189400 1_555
Ni1_7 Sm1_7 3.189400 1_555
Ni1_7 Sm0_6 3.194157 1_555
Ni1_7 Sm0_7 3.194157 1_555
Ni1_7 Sm2_3 3.244266 1_655
Ni1_7 Sm2_2 3.244266 1_655
Ni2_0 Sm2_0 3.189400 1_555
Ni2_0 Sm2_1 3.189400 1_554
Ni2_0 Sm0_1 3.194157 1_554
Ni2_0 Sm0_0 3.194157 1_555
Ni2_0 Sm1_2 3.244266 1_555
Ni2_0 Sm1_3 3.244266 1_554
Ni2_1 Sm2_0 3.189400 1_555
Ni2_1 Sm2_1 3.189400 1_555
Ni2_1 Sm0_1 3.194157 1_555
Ni2_1 Sm0_0 3.194157 1_555
Ni2_1 Sm1_2 3.244266 1_555
Ni2_1 Sm1_3 3.244266 1_555
Ni2_2 Sm2_3 3.189400 1_554
Ni2_2 Sm2_2 3.189400 1_555
Ni2_2 Sm0_2 3.194157 1_555
Ni2_2 Sm0_3 3.194157 1_554
Ni2_2 Sm1_0 3.244266 1_565
Ni2_2 Sm1_1 3.244266 1_564
Ni2_3 Sm2_2 3.189400 1_555
Ni2_3 Sm2_3 3.189400 1_555
Ni2_3 Sm0_3 3.194157 1_555
Ni2_3 Sm0_2 3.194157 1_555
Ni2_3 Sm1_0 3.244266 1_565
Ni2_3 Sm1_1 3.244266 1_565
Ni2_4 Sm2_5 3.189400 1_554
Ni2_4 Sm2_4 3.189400 1_555
Ni2_4 Sm0_4 3.194157 1_555
Ni2_4 Sm0_5 3.194157 1_554
Ni2_4 Sm1_6 3.244266 1_555
Ni2_4 Sm1_7 3.244266 1_554
Ni2_5 Sm2_5 3.189400 1_555
Ni2_5 Sm2_4 3.189400 1_555
Ni2_5 Sm0_5 3.194157 1_555
Ni2_5 Sm0_4 3.194157 1_555
Ni2_5 Sm1_6 3.244266 1_555
Ni2_5 Sm1_7 3.244266 1_555
Ni2_6 Sm2_7 3.189400 1_554
Ni2_6 Sm2_6 3.189400 1_555
Ni2_6 Sm0_7 3.194157 1_554
Ni2_6 Sm0_6 3.194157 1_555
Ni2_6 Sm1_5 3.244266 1_564
Ni2_6 Sm1_4 3.244266 1_565
Ni2_7 Sm2_7 3.189400 1_555
Ni2_7 Sm2_6 3.189400 1_555
Ni2_7 Sm0_6 3.194157 1_555
Ni2_7 Sm0_7 3.194157 1_555
Ni2_7 Sm1_5 3.244266 1_565
Ni2_7 Sm1_4 3.244266 1_565
