# generated using pymatgen
data_V14Fe5O32
_symmetry_space_group_name_H-M   'P 1'
_cell_length_a   5.91831600
_cell_length_b   5.92367110
_cell_length_c   18.87043422
_cell_angle_alpha   90.31992150
_cell_angle_beta   90.09230879
_cell_angle_gamma   118.93066467
_symmetry_Int_Tables_number   1
_chemical_formula_structural   V14Fe5O32
_chemical_formula_sum   'V14 Fe5 O32'
_cell_volume   578.98738391
_cell_formula_units_Z   1
loop_
 _symmetry_equiv_pos_site_id
 _symmetry_equiv_pos_as_xyz
  1  'x, y, z'
loop_
 _atom_site_type_symbol
 _atom_site_label
 _atom_site_symmetry_multiplicity
 _atom_site_fract_x
 _atom_site_fract_y
 _atom_site_fract_z
 _atom_site_occupancy
  V  V0  1  0.83633600  0.16183000  0.81484700  1
  V  V1  1  0.66721600  0.33177400  0.17748400  1
  V  V2  1  0.82873600  0.69072500  0.32711100  1
  V  V3  1  0.83869000  0.68127400  0.81640100  1
  V  V4  1  0.31820400  0.15762300  0.31524000  1
  V  V5  1  0.31916000  0.16152900  0.81611700  1
  V  V6  1  0.68286400  0.83933100  0.06994000  1
  V  V7  1  0.67565900  0.83371000  0.56959100  1
  V  V8  1  0.16496500  0.32456300  0.06867200  1
  V  V9  1  0.32205500  0.67585300  0.23024000  1
  V  V10  1  0.16551400  0.32422700  0.57023100  1
  V  V11  1  0.31835900  0.64090600  0.42575600  1
  V  V12  1  0.16586500  0.83890800  0.06903000  1
  V  V13  1  0.15967900  0.83782300  0.56585000  1
  Fe  Fe0  1  0.66615100  0.33316900  0.67569400  1
  Fe  Fe1  1  0.66206300  0.32224200  0.47144600  1
  Fe  Fe2  1  0.66758800  0.33017100  0.97668600  1
  Fe  Fe3  1  0.32961800  0.66581300  0.72890000  1
  Fe  Fe4  1  0.33785300  0.66771100  0.92359100  1
  O  O0  1  0.82898800  0.17058600  0.11927000  1
  O  O1  1  0.82981500  0.17054800  0.61650100  1
  O  O2  1  0.98621400  0.52228600  0.24309900  1
  O  O3  1  0.95272700  0.48048000  0.75369000  1
  O  O4  1  0.65222600  0.34020700  0.37153300  1
  O  O5  1  0.66648300  0.33540600  0.87567000  1
  O  O6  1  0.01128400  0.98721700  0.51342100  1
  O  O7  1  0.99234300  0.00654400  0.01483500  1
  O  O8  1  0.02569800  0.01068300  0.27053800  1
  O  O9  1  0.00518100  0.99043800  0.76054900  1
  O  O10  1  0.81990800  0.66801900  0.11952500  1
  O  O11  1  0.83336300  0.66283800  0.61952500  1
  O  O12  1  0.48815900  0.01813800  0.24503200  1
  O  O13  1  0.51628300  0.04510000  0.75315800  1
  O  O14  1  0.51451400  0.49059500  0.25243300  1
  O  O15  1  0.52070200  0.47859800  0.75175700  1
  O  O16  1  0.33664700  0.16627200  0.61979100  1
  O  O17  1  0.33832000  0.18003300  0.12020100  1
  O  O18  1  0.65273500  0.79870600  0.37483100  1
  O  O19  1  0.67389300  0.82303200  0.86662900  1
  O  O20  1  0.49175900  0.51442800  0.00610800  1
  O  O21  1  0.48305200  0.50975800  0.50193500  1
  O  O22  1  0.49315800  0.97377900  0.00813500  1
  O  O23  1  0.48248600  0.96115800  0.49832200  1
  O  O24  1  0.33811000  0.66501500  0.12775100  1
  O  O25  1  0.20995000  0.36258700  0.37682800  1
  O  O26  1  0.17730300  0.32431700  0.86606200  1
  O  O27  1  0.32642700  0.67767300  0.61905400  1
  O  O28  1  0.02668200  0.50993100  0.00696600  1
  O  O29  1  0.02639700  0.51164400  0.49899000  1
  O  O30  1  0.17168000  0.82496200  0.37023600  1
  O  O31  1  0.16771900  0.83246300  0.86372500  1
loop_
_geom_bond_atom_site_label_1
_geom_bond_atom_site_label_2
_geom_bond_distance
_geom_bond_site_symmetry_2
Fe0 O1 2.002024 1_555
Fe0 O16 2.002399 1_555
Fe0 O11 2.018205 1_555
Fe0 O15 2.061791 1_555
Fe0 O3 2.085665 1_555
Fe0 O13 2.098351 1_555
Fe1 O4 1.891384 1_555
Fe1 O23 1.943269 1_545
Fe1 O21 1.954654 1_555
Fe1 O29 1.956429 1_655
Fe2 O5 1.906693 1_555
Fe2 O20 1.917404 1_556
Fe2 O28 1.943397 1_656
Fe2 O22 1.944797 1_546
Fe3 O15 1.977882 1_555
Fe3 O3 2.009818 1_455
Fe3 O13 2.015794 1_565
Fe3 O27 2.074789 1_555
Fe4 O31 2.049858 1_555
Fe4 O19 2.050560 1_555
Fe4 O26 2.078740 1_555
Fe4 O20 2.211379 1_556
Fe4 O22 2.242295 1_556
Fe4 O28 2.258511 1_556
O0 V6 1.949366 1_545
O0 V1 1.977682 1_555
O0 V8 1.989606 1_655
O1 V10 1.950116 1_655
O1 V7 1.952865 1_545
O2 V9 1.758321 1_655
O2 V1 2.070381 1_555
O2 V2 2.294409 1_555
O3 V3 2.008528 1_555
O3 V0 2.034259 1_555
O4 V2 2.007214 1_555
O4 V4 2.029269 1_555
O5 V0 2.091798 1_555
O5 V5 2.116687 1_555
O5 V3 2.120436 1_555
O6 V13 1.814453 1_555
O6 V7 2.041058 1_455
O6 V10 2.043948 1_565
O7 V6 1.918211 1_545
O7 V8 1.933373 1_655
O7 V12 2.020203 1_645
O8 V4 1.730694 1_555
O8 V2 1.994947 1_445
O9 V3 1.927354 1_455
O9 V5 1.933773 1_565
O9 V0 2.013067 1_465
O10 V6 1.835114 1_555
O10 V12 2.033871 1_655
O10 V1 2.065474 1_555
O11 V7 1.924935 1_555
O11 V13 1.977698 1_655
O12 V9 1.794367 1_545
O12 V4 2.060543 1_555
O12 V1 2.079765 1_555
O13 V5 2.005489 1_555
O13 V0 2.034173 1_555
O14 V9 1.972319 1_555
O14 V4 2.111484 1_555
O14 V1 2.124623 1_555
O14 V2 2.165535 1_555
O15 V3 2.064326 1_555
O15 V5 2.070767 1_555
O16 V10 1.923412 1_555
O16 V13 1.980257 1_545
O17 V8 1.893947 1_555
O17 V12 2.009240 1_545
O17 V1 2.013680 1_555
O18 V2 1.716462 1_555
O18 V11 1.984920 1_555
O19 V3 1.827906 1_555
O19 V0 2.016194 1_565
O20 V6 2.073151 1_555
O20 V8 2.077750 1_555
O21 V11 2.088219 1_555
O21 V10 2.103779 1_555
O21 V7 2.112682 1_555
O22 V6 2.031339 1_555
O22 V12 2.056936 1_555
O23 V13 2.115489 1_555
O23 V7 2.127710 1_555
O23 V11 2.145084 1_555
O24 V9 1.938726 1_555
O24 V8 2.081324 1_555
O24 V12 2.086425 1_555
O24 V6 2.097806 1_555
O25 V11 1.714618 1_555
O25 V4 1.993624 1_555
O26 V5 1.816227 1_555
O26 V0 2.009160 1_455
O27 V13 1.948104 1_555
O27 V7 2.040835 1_555
O27 V10 2.045936 1_555
O28 V8 2.027818 1_555
O28 V12 2.065464 1_555
O29 V11 2.054570 1_555
O29 V13 2.107686 1_555
O29 V10 2.148292 1_555
O30 V2 1.959594 1_455
O30 V11 1.991355 1_555
O30 V4 2.021044 1_565
O31 V3 1.920860 1_455
O31 V5 1.934406 1_565
