# generated using pymatgen
data_Ta4N3
_symmetry_space_group_name_H-M   'P 1'
_cell_length_a   5.31879024
_cell_length_b   5.31879024
_cell_length_c   5.31879024
_cell_angle_alpha   131.05848291
_cell_angle_beta   131.05848291
_cell_angle_gamma   71.72017844
_symmetry_Int_Tables_number   1
_chemical_formula_structural   Ta4N3
_chemical_formula_sum   'Ta4 N3'
_cell_volume   83.69611406
_cell_formula_units_Z   1
loop_
 _symmetry_equiv_pos_site_id
 _symmetry_equiv_pos_as_xyz
  1  'x, y, z'
loop_
 _atom_site_type_symbol
 _atom_site_label
 _atom_site_symmetry_multiplicity
 _atom_site_fract_x
 _atom_site_fract_y
 _atom_site_fract_z
 _atom_site_occupancy
  Ta  Ta0  1  0.00000000  0.50000000  0.50000000  1
  Ta  Ta1  1  0.26382000  0.26382000  0.00000000  1
  Ta  Ta2  1  0.50000000  0.00000000  0.50000000  1
  Ta  Ta3  1  0.73618000  0.73618000  0.00000000  1
  N  N0  1  0.75000000  0.25000000  0.50000000  1
  N  N1  1  0.00000000  0.00000000  0.00000000  1
  N  N2  1  0.25000000  0.75000000  0.50000000  1
loop_
_geom_bond_atom_site_label_1
_geom_bond_atom_site_label_2
_geom_bond_distance
_geom_bond_site_symmetry_2
N0 Ta2 2.155307 1_555
N0 Ta0 2.155307 1_655
N0 Ta3 2.206415 1_556
N0 Ta1 2.206415 1_555
N0 Ta1 2.206415 1_656
N0 Ta3 2.206415 1_545
N1 Ta0 2.203196 1_555
N1 Ta2 2.203196 1_454
N1 Ta2 2.203196 1_555
N1 Ta0 2.203196 1_544
N1 Ta3 2.274452 1_445
N1 Ta1 2.274452 1_555
N2 Ta2 2.155307 1_565
N2 Ta0 2.155307 1_555
N2 Ta3 2.206415 1_455
N2 Ta3 2.206415 1_556
N2 Ta1 2.206415 1_555
N2 Ta1 2.206415 1_566
