# generated using pymatgen
data_FeNiS2
_symmetry_space_group_name_H-M   'P 1'
_cell_length_a   3.41329236
_cell_length_b   3.41329236
_cell_length_c   5.15383600
_cell_angle_alpha   90.00000000
_cell_angle_beta   90.00000000
_cell_angle_gamma   120.00000701
_symmetry_Int_Tables_number   1
_chemical_formula_structural   FeNiS2
_chemical_formula_sum   'Fe1 Ni1 S2'
_cell_volume   52.00057830
_cell_formula_units_Z   1
loop_
 _symmetry_equiv_pos_site_id
 _symmetry_equiv_pos_as_xyz
  1  'x, y, z'
loop_
 _atom_site_type_symbol
 _atom_site_label
 _atom_site_symmetry_multiplicity
 _atom_site_fract_x
 _atom_site_fract_y
 _atom_site_fract_z
 _atom_site_occupancy
  Fe  Fe0  1  0.00000000  0.00000000  0.50000000  1
  Ni  Ni0  1  0.00000000  0.00000000  0.00000000  1
  S  S0  1  0.66666700  0.33333300  0.26717800  1
  S  S1  1  0.33333300  0.66666700  0.73282200  1
loop_
_geom_bond_atom_site_label_1
_geom_bond_atom_site_label_2
_geom_bond_distance
_geom_bond_site_symmetry_2
Fe0 S1 2.307236 1_545
Fe0 S0 2.307236 1_455
Fe0 S1 2.307238 1_555
Fe0 S1 2.307238 1_445
Fe0 S0 2.307238 1_445
Fe0 S0 2.307238 1_555
Ni0 S1 2.404084 1_544
Ni0 S0 2.404084 1_455
Ni0 S0 2.404086 1_555
Ni0 S1 2.404086 1_554
Ni0 S1 2.404086 1_444
Ni0 S0 2.404086 1_445
