# generated using pymatgen
data_Ti3Rh5
_symmetry_space_group_name_H-M   'P 1'
_cell_length_a   4.11055216
_cell_length_b   5.37826891
_cell_length_c   10.42889808
_cell_angle_alpha   90.00000000
_cell_angle_beta   90.00000000
_cell_angle_gamma   90.00000000
_symmetry_Int_Tables_number   1
_chemical_formula_structural   Ti3Rh5
_chemical_formula_sum   'Ti6 Rh10'
_cell_volume   230.55847958
_cell_formula_units_Z   2
loop_
 _symmetry_equiv_pos_site_id
 _symmetry_equiv_pos_as_xyz
  1  'x, y, z'
loop_
 _atom_site_type_symbol
 _atom_site_label
 _atom_site_symmetry_multiplicity
 _atom_site_fract_x
 _atom_site_fract_y
 _atom_site_fract_z
 _atom_site_occupancy
  Ti  Ti0  1  0.00000000  -0.00000000  -0.00000000  1
  Ti  Ti1  1  0.00000000  0.50000000  0.50000000  1
  Ti  Ti2  1  0.50000000  0.33932374  0.14378038  1
  Ti  Ti3  1  0.50000000  0.66067626  0.85621962  1
  Ti  Ti4  1  0.50000000  0.83932374  0.35621962  1
  Ti  Ti5  1  0.50000000  0.16067626  0.64378038  1
  Rh  Rh0  1  0.00000000  -0.00000000  0.50000000  1
  Rh  Rh1  1  0.00000000  0.50000000  -0.00000000  1
  Rh  Rh2  1  -0.00000000  0.10507657  0.23528746  1
  Rh  Rh3  1  0.00000000  0.89492343  0.76471254  1
  Rh  Rh4  1  0.00000000  0.60507657  0.26471254  1
  Rh  Rh5  1  -0.00000000  0.39492343  0.73528746  1
  Rh  Rh6  1  0.50000000  0.31252059  0.39311353  1
  Rh  Rh7  1  0.50000000  0.68747941  0.60688647  1
  Rh  Rh8  1  0.50000000  0.81252059  0.10688647  1
  Rh  Rh9  1  0.50000000  0.18747941  0.89311353  1
loop_
_geom_bond_atom_site_label_1
_geom_bond_atom_site_label_2
_geom_bond_distance
_geom_bond_site_symmetry_2
Rh0 Ti4 2.686884 1_445
Rh0 Ti4 2.686884 1_545
Rh0 Ti5 2.686884 1_455
Rh0 Ti5 2.686884 1_555
Rh0 Ti1 2.689134 1_545
Rh0 Ti1 2.689134 1_555
Rh0 Rh2 2.817910 1_555
Rh0 Rh3 2.817910 1_545
Rh0 Rh6 2.879564 1_555
Rh0 Rh6 2.879564 1_455
Rh0 Rh7 2.879564 1_445
Rh0 Rh7 2.879564 1_545
Rh1 Ti3 2.686884 1_454
Rh1 Ti3 2.686884 1_554
Rh1 Ti2 2.686884 1_555
Rh1 Ti2 2.686884 1_455
Rh1 Ti0 2.689134 1_555
Rh1 Ti0 2.689134 1_565
Rh1 Rh5 2.817910 1_554
Rh1 Rh4 2.817910 1_555
Rh1 Rh9 2.879564 1_554
Rh1 Rh9 2.879564 1_454
Rh1 Rh8 2.879564 1_555
Rh1 Rh8 2.879564 1_455
Rh2 Ti0 2.518025 1_555
Rh2 Ti2 2.592699 1_455
Rh2 Ti2 2.592699 1_555
Rh2 Rh4 2.706587 1_545
Rh2 Rh4 2.706587 1_555
Rh2 Ti4 2.803146 1_445
Rh2 Ti4 2.803146 1_545
Rh2 Rh6 2.859734 1_555
Rh2 Rh6 2.859734 1_455
Rh2 Rh8 2.914280 1_445
Rh2 Rh8 2.914280 1_545
Rh3 Ti0 2.518025 1_566
Rh3 Ti3 2.592699 1_455
Rh3 Ti3 2.592699 1_555
Rh3 Rh5 2.706587 1_555
Rh3 Rh5 2.706587 1_565
Rh3 Ti5 2.803146 1_565
Rh3 Ti5 2.803146 1_465
Rh3 Rh7 2.859734 1_555
Rh3 Rh7 2.859734 1_455
Rh3 Rh9 2.914280 1_565
Rh3 Rh9 2.914280 1_465
Rh4 Ti1 2.518025 1_555
Rh4 Ti4 2.592699 1_455
Rh4 Ti4 2.592699 1_555
Rh4 Ti2 2.803146 1_455
Rh4 Ti2 2.803146 1_555
Rh4 Rh8 2.859734 1_555
Rh4 Rh8 2.859734 1_455
Rh4 Rh6 2.914280 1_555
Rh4 Rh6 2.914280 1_455
Rh5 Ti1 2.518025 1_555
Rh5 Ti5 2.592699 1_555
Rh5 Ti5 2.592699 1_455
Rh5 Ti3 2.803146 1_555
Rh5 Ti3 2.803146 1_455
Rh5 Rh9 2.859734 1_555
Rh5 Rh9 2.859734 1_455
Rh5 Rh7 2.914280 1_555
Rh5 Rh7 2.914280 1_455
Rh6 Ti1 2.546259 1_655
Rh6 Ti1 2.546259 1_555
Rh6 Ti4 2.573901 1_545
Rh6 Ti2 2.604263 1_555
Rh6 Ti5 2.738771 1_555
Rh6 Ti4 2.859295 1_555
Rh6 Rh7 3.006175 1_555
Rh7 Ti1 2.546259 1_555
Rh7 Ti1 2.546259 1_655
Rh7 Ti5 2.573901 1_565
Rh7 Ti3 2.604263 1_555
Rh7 Ti4 2.738771 1_555
Rh7 Ti5 2.859295 1_555
Rh8 Ti0 2.546259 1_565
Rh8 Ti0 2.546259 1_665
Rh8 Ti2 2.573901 1_555
Rh8 Ti4 2.604263 1_555
Rh8 Ti3 2.738771 1_554
Rh8 Ti2 2.859295 1_565
Rh8 Rh9 3.006175 1_564
Rh9 Ti0 2.546259 1_556
Rh9 Ti0 2.546259 1_656
Rh9 Ti3 2.573901 1_555
Rh9 Ti5 2.604263 1_555
Rh9 Ti2 2.738771 1_556
Rh9 Ti3 2.859295 1_545
