# generated using pymatgen
data_TlPPd5
_symmetry_space_group_name_H-M   'P 1'
_cell_length_a   3.97129252
_cell_length_b   3.97129252
_cell_length_c   7.06475945
_cell_angle_alpha   90.00000000
_cell_angle_beta   90.00000000
_cell_angle_gamma   90.00000000
_symmetry_Int_Tables_number   1
_chemical_formula_structural   TlPPd5
_chemical_formula_sum   'Tl1 P1 Pd5'
_cell_volume   111.41948188
_cell_formula_units_Z   1
loop_
 _symmetry_equiv_pos_site_id
 _symmetry_equiv_pos_as_xyz
  1  'x, y, z'
loop_
 _atom_site_type_symbol
 _atom_site_label
 _atom_site_symmetry_multiplicity
 _atom_site_fract_x
 _atom_site_fract_y
 _atom_site_fract_z
 _atom_site_occupancy
  Tl  Tl0  1  0.50000000  0.50000000  0.00000000  1
  P  P0  1  0.00000000  -0.00000000  0.50000000  1
  Pd  Pd0  1  0.00000000  0.50000000  0.30305673  1
  Pd  Pd1  1  -0.00000000  0.50000000  0.69694327  1
  Pd  Pd2  1  0.50000000  -0.00000000  0.30305673  1
  Pd  Pd3  1  0.50000000  0.00000000  0.69694327  1
  Pd  Pd4  1  0.00000000  -0.00000000  0.00000000  1
loop_
_geom_bond_atom_site_label_1
_geom_bond_atom_site_label_2
_geom_bond_distance
_geom_bond_site_symmetry_2
P0 Pd1 2.424596 1_555
P0 Pd3 2.424596 1_555
P0 Pd0 2.424596 1_545
P0 Pd1 2.424596 1_545
P0 Pd3 2.424596 1_455
P0 Pd2 2.424596 1_555
P0 Pd2 2.424596 1_455
P0 Pd0 2.424596 1_555
Pd0 Pd1 2.782714 1_555
Pd0 Pd2 2.808128 1_465
Pd0 Pd2 2.808128 1_565
Pd0 Pd2 2.808128 1_555
Pd0 Pd2 2.808128 1_455
Pd0 Pd4 2.920063 1_555
Pd0 Tl0 2.920063 1_555
Pd0 Tl0 2.920063 1_455
Pd0 Pd4 2.920063 1_565
Pd1 Pd3 2.808128 1_565
Pd1 Pd3 2.808128 1_465
Pd1 Pd3 2.808128 1_555
Pd1 Pd3 2.808128 1_455
Pd1 Pd4 2.920063 1_566
Pd1 Pd4 2.920063 1_556
Pd1 Tl0 2.920063 1_556
Pd1 Tl0 2.920063 1_456
Pd2 Pd3 2.782714 1_555
Pd2 Pd4 2.920063 1_555
Pd2 Tl0 2.920063 1_555
Pd2 Tl0 2.920063 1_545
Pd2 Pd4 2.920063 1_655
Pd3 Pd4 2.920063 1_656
Pd3 Pd4 2.920063 1_556
Pd3 Tl0 2.920063 1_556
Pd3 Tl0 2.920063 1_546
Pd4 Tl0 2.808128 1_455
Pd4 Tl0 2.808128 1_445
Pd4 Tl0 2.808128 1_555
Pd4 Tl0 2.808128 1_545
