# generated using pymatgen
data_CeMg6Bi
_symmetry_space_group_name_H-M   'P 1'
_cell_length_a   5.34405500
_cell_length_b   6.44309800
_cell_length_c   12.03849500
_cell_angle_alpha   90.00000000
_cell_angle_beta   90.00000000
_cell_angle_gamma   90.00000000
_symmetry_Int_Tables_number   1
_chemical_formula_structural   CeMg6Bi
_chemical_formula_sum   'Ce2 Mg12 Bi2'
_cell_volume   414.51271123
_cell_formula_units_Z   2
loop_
 _symmetry_equiv_pos_site_id
 _symmetry_equiv_pos_as_xyz
  1  'x, y, z'
loop_
 _atom_site_type_symbol
 _atom_site_label
 _atom_site_symmetry_multiplicity
 _atom_site_fract_x
 _atom_site_fract_y
 _atom_site_fract_z
 _atom_site_occupancy
  Ce  Ce0  1  0.50000000  0.50000000  0.67155300  1
  Ce  Ce1  1  0.50000000  0.00000000  0.17155300  1
  Mg  Mg0  1  0.50000000  0.74720000  0.91937100  1
  Mg  Mg1  1  0.50000000  0.25280000  0.91937100  1
  Mg  Mg2  1  0.00000000  0.25366700  0.57382300  1
  Mg  Mg3  1  0.00000000  0.74633300  0.57382300  1
  Mg  Mg4  1  0.00000000  0.50000000  0.83671000  1
  Mg  Mg5  1  0.00000000  0.00000000  0.83760600  1
  Mg  Mg6  1  0.50000000  0.24720000  0.41937100  1
  Mg  Mg7  1  0.50000000  0.75280000  0.41937100  1
  Mg  Mg8  1  0.00000000  0.75366700  0.07382300  1
  Mg  Mg9  1  0.00000000  0.24633300  0.07382300  1
  Mg  Mg10  1  0.00000000  0.00000000  0.33671000  1
  Mg  Mg11  1  0.00000000  0.50000000  0.33760600  1
  Bi  Bi0  1  0.50000000  0.00000000  0.66774000  1
  Bi  Bi1  1  0.50000000  0.50000000  0.16774000  1
loop_
_geom_bond_atom_site_label_1
_geom_bond_atom_site_label_2
_geom_bond_distance
_geom_bond_site_symmetry_2
Ce0 Mg3 3.323097 1_655
Ce0 Mg3 3.323097 1_555
Ce0 Mg2 3.323097 1_555
Ce0 Mg2 3.323097 1_655
Ce0 Mg4 3.330591 1_655
Ce0 Mg4 3.330591 1_555
Ce0 Mg1 3.381895 1_555
Ce0 Mg0 3.381895 1_555
Ce0 Mg7 3.445240 1_555
Ce0 Mg6 3.445240 1_555
Ce1 Mg8 3.323097 1_545
Ce1 Mg8 3.323097 1_645
Ce1 Mg9 3.323097 1_555
Ce1 Mg9 3.323097 1_655
Ce1 Mg10 3.330591 1_555
Ce1 Mg10 3.330591 1_655
Ce1 Mg7 3.381895 1_545
Ce1 Mg6 3.381895 1_555
Ce1 Mg1 3.445240 1_554
Ce1 Mg0 3.445240 1_544
Mg0 Mg1 3.185468 1_555
Mg0 Mg8 3.255568 1_656
Mg0 Mg8 3.255568 1_556
Mg0 Mg1 3.257630 1_565
Mg0 Mg4 3.266004 1_555
Mg0 Mg4 3.266004 1_655
Mg0 Mg5 3.280499 1_665
Mg0 Mg5 3.280499 1_565
Mg1 Mg9 3.255568 1_556
Mg1 Mg9 3.255568 1_656
Mg1 Mg4 3.266004 1_555
Mg1 Mg4 3.266004 1_655
Mg1 Mg5 3.280499 1_555
Mg1 Mg5 3.280499 1_655
Mg2 Mg3 3.174295 1_555
Mg2 Mg6 3.255568 1_455
Mg2 Mg6 3.255568 1_555
Mg2 Mg3 3.268803 1_545
Mg3 Mg7 3.255568 1_455
Mg3 Mg7 3.255568 1_555
Mg4 Mg5 3.221567 1_555
Mg4 Mg5 3.221567 1_565
Mg4 Mg9 3.289277 1_556
Mg4 Mg8 3.289277 1_556
Mg5 Mg8 3.256632 1_546
Mg5 Mg9 3.256632 1_556
Mg6 Mg7 3.185468 1_545
Mg6 Mg7 3.257630 1_555
Mg8 Mg9 3.174295 1_565
Mg8 Mg9 3.268803 1_555
Mg10 Mg11 3.221567 1_555
Mg10 Mg11 3.221567 1_545
Mg10 Mg6 3.266004 1_455
Mg10 Mg6 3.266004 1_555
Mg10 Mg7 3.266004 1_545
Mg10 Mg7 3.266004 1_445
Mg10 Mg2 3.289277 1_555
Mg10 Mg3 3.289277 1_545
Mg11 Mg3 3.256632 1_555
Mg11 Mg2 3.256632 1_555
Mg11 Mg7 3.280499 1_455
Mg11 Mg7 3.280499 1_555
Mg11 Mg6 3.280499 1_455
Mg11 Mg6 3.280499 1_555
Bi0 Ce0 3.221876 1_555
Bi0 Ce0 3.221876 1_545
Bi0 Mg2 3.330060 1_655
Bi0 Mg2 3.330060 1_555
Bi0 Mg3 3.330060 1_645
Bi0 Mg3 3.330060 1_545
Bi0 Mg5 3.364740 1_655
Bi0 Mg5 3.364740 1_555
Bi0 Mg7 3.387748 1_545
Bi0 Mg6 3.387748 1_555
Bi0 Mg0 3.439396 1_545
Bi0 Mg1 3.439396 1_555
Bi1 Ce1 3.221876 1_565
Bi1 Ce1 3.221876 1_555
Bi1 Mg9 3.330060 1_655
Bi1 Mg8 3.330060 1_555
Bi1 Mg8 3.330060 1_655
Bi1 Mg9 3.330060 1_555
Bi1 Mg11 3.364740 1_655
Bi1 Mg11 3.364740 1_555
Bi1 Mg1 3.387748 1_554
Bi1 Mg0 3.387748 1_554
Bi1 Mg7 3.439396 1_555
Bi1 Mg6 3.439396 1_555
