# generated using pymatgen
data_Ho2InNi2
_symmetry_space_group_name_H-M   'P 1'
_cell_length_a   3.67277983
_cell_length_b   3.82804217
_cell_length_c   7.31230282
_cell_angle_alpha   105.17413599
_cell_angle_beta   90.00000000
_cell_angle_gamma   90.00000000
_symmetry_Int_Tables_number   1
_chemical_formula_structural   Ho2InNi2
_chemical_formula_sum   'Ho2 In1 Ni2'
_cell_volume   99.22331446
_cell_formula_units_Z   1
loop_
 _symmetry_equiv_pos_site_id
 _symmetry_equiv_pos_as_xyz
  1  'x, y, z'
loop_
 _atom_site_type_symbol
 _atom_site_label
 _atom_site_symmetry_multiplicity
 _atom_site_fract_x
 _atom_site_fract_y
 _atom_site_fract_z
 _atom_site_occupancy
  Ho  Ho0  1  0.50000000  0.63789726  0.27579151  1
  Ho  Ho1  1  0.50000000  0.36210274  0.72420849  1
  In  In0  1  -0.00000000  0.00000000  0.00000000  1
  Ni  Ni0  1  -0.00000000  0.80031694  0.60063487  1
  Ni  Ni1  1  0.00000000  0.19968306  0.39936513  1
loop_
_geom_bond_atom_site_label_1
_geom_bond_atom_site_label_2
_geom_bond_distance
_geom_bond_site_symmetry_2
Ho0 Ni1 2.792195 1_565
Ho0 Ni1 2.792195 1_665
Ho0 Ni1 2.792200 1_555
Ho0 Ni1 2.792200 1_655
Ho0 Ni0 2.937354 1_655
Ho0 Ni0 2.937354 1_555
Ho0 In0 3.290000 1_565
Ho0 In0 3.290000 1_665
Ho0 In0 3.290006 1_555
Ho0 In0 3.290006 1_655
Ho1 Ni0 2.792195 1_645
Ho1 Ni0 2.792195 1_545
Ho1 Ni0 2.792200 1_555
Ho1 Ni0 2.792200 1_655
Ho1 Ni1 2.937354 1_655
Ho1 Ni1 2.937354 1_555
Ho1 In0 3.290000 1_556
Ho1 In0 3.290000 1_656
Ho1 In0 3.290006 1_666
Ho1 In0 3.290006 1_566
In0 Ni0 2.818463 1_544
In0 Ni1 2.818463 1_555
Ni0 Ni1 2.383504 1_555
Ni0 Ni1 2.383510 1_565
