# generated using pymatgen
data_SrCaDyBiO6
_symmetry_space_group_name_H-M   'P 1'
_cell_length_a   8.47287097
_cell_length_b   8.47042839
_cell_length_c   8.46644050
_cell_angle_alpha   90.00000000
_cell_angle_beta   90.00000000
_cell_angle_gamma   90.00000000
_symmetry_Int_Tables_number   1
_chemical_formula_structural   SrCaDyBiO6
_chemical_formula_sum   'Sr4 Ca4 Dy4 Bi4 O24'
_cell_volume   607.62667126
_cell_formula_units_Z   4
loop_
 _symmetry_equiv_pos_site_id
 _symmetry_equiv_pos_as_xyz
  1  'x, y, z'
loop_
 _atom_site_type_symbol
 _atom_site_label
 _atom_site_symmetry_multiplicity
 _atom_site_fract_x
 _atom_site_fract_y
 _atom_site_fract_z
 _atom_site_occupancy
  Sr  Sr0  1  0.00000000  0.50000000  0.50000000  1
  Sr  Sr1  1  0.50000000  -0.00000000  0.50000000  1
  Sr  Sr2  1  0.50000000  0.50000000  -0.00000000  1
  Sr  Sr3  1  -0.00000000  0.50000000  -0.00000000  1
  Ca  Ca0  1  0.50000000  -0.00000000  -0.00000000  1
  Ca  Ca1  1  -0.00000000  -0.00000000  0.50000000  1
  Ca  Ca2  1  -0.00000000  -0.00000000  -0.00000000  1
  Ca  Ca3  1  0.50000000  0.50000000  0.50000000  1
  Dy  Dy0  1  0.24990252  0.24766990  0.24961261  1
  Dy  Dy1  1  0.75009748  0.75233010  0.24961261  1
  Dy  Dy2  1  0.75009748  0.24766990  0.75038739  1
  Dy  Dy3  1  0.24990252  0.75233010  0.75038739  1
  Bi  Bi0  1  0.74985587  0.75263471  0.75037787  1
  Bi  Bi1  1  0.25014413  0.24736529  0.75037787  1
  Bi  Bi2  1  0.25014413  0.75263471  0.24962213  1
  Bi  Bi3  1  0.74985587  0.24736529  0.24962213  1
  O  O0  1  0.99281579  0.19275704  0.29294916  1
  O  O1  1  0.00718421  0.80724296  0.29294916  1
  O  O2  1  0.00718421  0.19275704  0.70705084  1
  O  O3  1  0.99281579  0.80724296  0.70705084  1
  O  O4  1  0.29580938  0.99375456  0.19485377  1
  O  O5  1  0.29580938  0.00624544  0.80514623  1
  O  O6  1  0.70419062  0.00624544  0.19485377  1
  O  O7  1  0.70419062  0.99375456  0.80514623  1
  O  O8  1  0.20062056  0.28406739  0.99346188  1
  O  O9  1  0.79937944  0.28406739  0.00653812  1
  O  O10  1  0.20062056  0.71593261  0.00653812  1
  O  O11  1  0.79937944  0.71593261  0.99346188  1
  O  O12  1  0.50598311  0.29653427  0.21666448  1
  O  O13  1  0.49401689  0.70346573  0.21666448  1
  O  O14  1  0.49401689  0.29653427  0.78333552  1
  O  O15  1  0.50598311  0.70346573  0.78333552  1
  O  O16  1  0.21370351  0.50683288  0.29307551  1
  O  O17  1  0.21370351  0.49316712  0.70692449  1
  O  O18  1  0.78629649  0.49316712  0.29307551  1
  O  O19  1  0.78629649  0.50683288  0.70692449  1
  O  O20  1  0.29555543  0.21377835  0.50614339  1
  O  O21  1  0.70444457  0.21377835  0.49385661  1
  O  O22  1  0.29555543  0.78622165  0.49385661  1
  O  O23  1  0.70444457  0.78622165  0.50614339  1
loop_
_geom_bond_atom_site_label_1
_geom_bond_atom_site_label_2
_geom_bond_distance
_geom_bond_site_symmetry_2
Ca0 O4 2.391139 1_545
Ca0 O6 2.391139 1_555
Ca0 O7 2.391139 1_544
Ca0 O5 2.391139 1_554
Ca1 O1 2.396347 1_545
Ca1 O0 2.396347 1_455
Ca1 O2 2.396347 1_555
Ca1 O3 2.396347 1_445
Ca2 O11 2.946550 1_444
Ca2 O9 2.946550 1_455
Ca2 O8 2.946550 1_554
Ca2 O10 2.946550 1_545
Ca2 O3 2.970034 1_444
Ca2 O2 2.970034 1_554
Ca2 O1 2.970034 1_545
Ca2 O0 2.970034 1_455
Ca2 O5 3.001030 1_554
Ca2 O7 3.001030 1_444
Ca2 O6 3.001030 1_455
Ca2 O4 3.001030 1_545
Ca3 O12 2.954196 1_555
Ca3 O13 2.954196 1_555
Ca3 O15 2.954196 1_555
Ca3 O14 2.954196 1_555
Ca3 O22 2.980125 1_555
Ca3 O20 2.980125 1_555
Ca3 O23 2.980125 1_555
Ca3 O21 2.980125 1_555
Ca3 O19 2.992796 1_555
Ca3 O16 2.992796 1_555
Ca3 O17 2.992796 1_555
Ca3 O18 2.992796 1_555
Dy0 O20 2.224679 1_555
Dy0 O12 2.226408 1_555
Dy0 O8 2.229933 1_554
Dy0 O4 2.234289 1_545
Dy0 O16 2.246881 1_555
Dy0 O0 2.257388 1_455
Dy1 O23 2.224679 1_555
Dy1 O13 2.226408 1_555
Dy1 O11 2.229933 1_554
Dy1 O6 2.234289 1_565
Dy1 O18 2.246881 1_555
Dy1 O1 2.257388 1_655
Dy2 O21 2.224679 1_555
Dy2 O14 2.226408 1_555
Dy2 O9 2.229933 1_556
Dy2 O7 2.234289 1_545
Dy2 O19 2.246881 1_555
Dy2 O2 2.257388 1_655
Dy3 O22 2.224679 1_555
Dy3 O15 2.226408 1_555
Dy3 O10 2.229933 1_556
Dy3 O5 2.234289 1_565
Dy3 O17 2.246881 1_555
Dy3 O3 2.257388 1_455
Bi0 O23 2.122443 1_555
Bi0 O11 2.123279 1_555
Bi0 O15 2.126246 1_555
Bi0 O7 2.129804 1_555
Bi0 O19 2.136726 1_555
Bi0 O3 2.141546 1_555
Bi1 O20 2.122443 1_555
Bi1 O8 2.123279 1_555
Bi1 O14 2.126246 1_555
Bi1 O5 2.129804 1_555
Bi1 O17 2.136726 1_555
Bi1 O2 2.141546 1_555
Bi2 O22 2.122443 1_555
Bi2 O10 2.123279 1_555
Bi2 O13 2.126246 1_555
Bi2 O4 2.129804 1_555
Bi2 O16 2.136726 1_555
Bi2 O1 2.141546 1_555
Bi3 O21 2.122443 1_555
Bi3 O9 2.123279 1_555
Bi3 O12 2.126246 1_555
Bi3 O6 2.129804 1_555
Bi3 O18 2.136726 1_555
Bi3 O0 2.141546 1_555
O4 Sr1 3.109737 1_565
O5 Sr1 3.109737 1_555
O6 Sr1 3.109737 1_555
O7 Sr1 3.109737 1_565
O8 Sr3 2.497576 1_556
O8 Sr2 3.127749 1_556
O9 Sr3 2.497576 1_655
O9 Sr2 3.127749 1_555
O10 Sr3 2.497576 1_555
O10 Sr2 3.127749 1_555
O11 Sr3 2.497576 1_656
O11 Sr2 3.127749 1_556
O12 Sr2 2.517491 1_555
O13 Sr2 2.517491 1_555
O14 Sr2 2.517491 1_556
O15 Sr2 2.517491 1_556
O16 Sr0 2.520143 1_555
O16 Sr3 3.072263 1_555
O17 Sr0 2.520143 1_555
O17 Sr3 3.072263 1_556
O18 Sr0 2.520143 1_655
O18 Sr3 3.072263 1_655
O19 Sr0 2.520143 1_655
O19 Sr3 3.072263 1_656
O20 Sr1 2.506454 1_555
O21 Sr1 2.506454 1_555
O22 Sr1 2.506454 1_565
O23 Sr1 2.506454 1_565
