# generated using pymatgen
data_MgTi2
_symmetry_space_group_name_H-M   'P 1'
_cell_length_a   15.76194320
_cell_length_b   15.76194320
_cell_length_c   9.95905800
_cell_angle_alpha   90.00000000
_cell_angle_beta   90.00000000
_cell_angle_gamma   158.94875778
_symmetry_Int_Tables_number   1
_chemical_formula_structural   MgTi2
_chemical_formula_sum   'Mg16 Ti32'
_cell_volume   888.74553127
_cell_formula_units_Z   16
loop_
 _symmetry_equiv_pos_site_id
 _symmetry_equiv_pos_as_xyz
  1  'x, y, z'
loop_
 _atom_site_type_symbol
 _atom_site_label
 _atom_site_symmetry_multiplicity
 _atom_site_fract_x
 _atom_site_fract_y
 _atom_site_fract_z
 _atom_site_occupancy
  Mg  Mg0_0  1  0.05456800  0.44543200  0.25000000  1
  Mg  Mg0_1  1  0.05456800  0.44543200  0.75000000  1
  Mg  Mg0_2  1  0.05456800  0.94543200  0.25000000  1
  Mg  Mg0_3  1  0.05456800  0.94543200  0.75000000  1
  Mg  Mg0_4  1  0.55456800  0.44543200  0.25000000  1
  Mg  Mg0_5  1  0.55456800  0.44543200  0.75000000  1
  Mg  Mg0_6  1  0.55456800  0.94543200  0.25000000  1
  Mg  Mg0_7  1  0.55456800  0.94543200  0.75000000  1
  Mg  Mg1_0  1  0.38874100  0.11125900  0.25000000  1
  Mg  Mg1_1  1  0.38874100  0.11125900  0.75000000  1
  Mg  Mg1_2  1  0.38874100  0.61125900  0.25000000  1
  Mg  Mg1_3  1  0.38874100  0.61125900  0.75000000  1
  Mg  Mg1_4  1  0.88874100  0.11125900  0.25000000  1
  Mg  Mg1_5  1  0.88874100  0.11125900  0.75000000  1
  Mg  Mg1_6  1  0.88874100  0.61125900  0.25000000  1
  Mg  Mg1_7  1  0.88874100  0.61125900  0.75000000  1
  Ti  Ti0_0  1  0.49865400  0.00134600  0.00000000  1
  Ti  Ti0_1  1  0.49865400  0.00134600  0.50000000  1
  Ti  Ti0_2  1  0.49865400  0.50134600  0.00000000  1
  Ti  Ti0_3  1  0.49865400  0.50134600  0.50000000  1
  Ti  Ti0_4  1  0.99865400  0.00134600  0.00000000  1
  Ti  Ti0_5  1  0.99865400  0.00134600  0.50000000  1
  Ti  Ti0_6  1  0.99865400  0.50134600  0.00000000  1
  Ti  Ti0_7  1  0.99865400  0.50134600  0.50000000  1
  Ti  Ti1_0  1  0.16868050  0.33131950  0.00000000  1
  Ti  Ti1_1  1  0.16868050  0.33131950  0.50000000  1
  Ti  Ti1_2  1  0.16868050  0.83131950  0.00000000  1
  Ti  Ti1_3  1  0.16868050  0.83131950  0.50000000  1
  Ti  Ti1_4  1  0.66868050  0.33131950  0.00000000  1
  Ti  Ti1_5  1  0.66868050  0.33131950  0.50000000  1
  Ti  Ti1_6  1  0.66868050  0.83131950  0.00000000  1
  Ti  Ti1_7  1  0.66868050  0.83131950  0.50000000  1
  Ti  Ti2_0  1  0.33257350  0.16742650  0.00000000  1
  Ti  Ti2_1  1  0.33257350  0.16742650  0.50000000  1
  Ti  Ti2_2  1  0.33257350  0.66742650  0.00000000  1
  Ti  Ti2_3  1  0.33257350  0.66742650  0.50000000  1
  Ti  Ti2_4  1  0.83257350  0.16742650  0.00000000  1
  Ti  Ti2_5  1  0.83257350  0.16742650  0.50000000  1
  Ti  Ti2_6  1  0.83257350  0.66742650  0.00000000  1
  Ti  Ti2_7  1  0.83257350  0.66742650  0.50000000  1
  Ti  Ti3_0  1  0.22344900  0.27655100  0.25000000  1
  Ti  Ti3_1  1  0.22344900  0.27655100  0.75000000  1
  Ti  Ti3_2  1  0.22344900  0.77655100  0.25000000  1
  Ti  Ti3_3  1  0.22344900  0.77655100  0.75000000  1
  Ti  Ti3_4  1  0.72344900  0.27655100  0.25000000  1
  Ti  Ti3_5  1  0.72344900  0.27655100  0.75000000  1
  Ti  Ti3_6  1  0.72344900  0.77655100  0.25000000  1
  Ti  Ti3_7  1  0.72344900  0.77655100  0.75000000  1
loop_
_geom_bond_atom_site_label_1
_geom_bond_atom_site_label_2
_geom_bond_distance
_geom_bond_site_symmetry_2
Mg0_0 Mg0_6 2.879316 1_445
Mg0_0 Mg0_6 2.879316 1_555
Mg0_0 Ti3_2 2.897171 1_555
Mg0_0 Ti3_4 2.897171 1_455
Mg0_0 Mg1_4 2.979683 1_455
Mg0_0 Mg1_2 2.979683 1_555
Mg0_0 Ti2_5 3.004154 1_455
Mg0_0 Ti2_2 3.004154 1_555
Mg0_0 Ti2_3 3.004154 1_555
Mg0_0 Ti2_4 3.004154 1_455
Mg0_0 Ti0_6 3.033497 1_455
Mg0_0 Ti0_7 3.033497 1_455
Mg0_1 Mg0_7 2.879316 1_445
Mg0_1 Mg0_7 2.879316 1_555
Mg0_1 Ti3_3 2.897171 1_555
Mg0_1 Ti3_5 2.897171 1_455
Mg0_1 Mg1_5 2.979683 1_455
Mg0_1 Mg1_3 2.979683 1_555
Mg0_1 Ti2_5 3.004154 1_455
Mg0_1 Ti2_4 3.004154 1_456
Mg0_1 Ti2_2 3.004154 1_556
Mg0_1 Ti2_3 3.004154 1_555
Mg0_1 Ti0_6 3.033497 1_456
Mg0_1 Ti0_7 3.033497 1_455
Mg0_2 Mg0_4 2.879316 1_565
Mg0_2 Mg0_4 2.879316 1_455
Mg0_2 Ti3_0 2.897171 1_565
Mg0_2 Ti3_6 2.897171 1_455
Mg0_2 Mg1_6 2.979683 1_455
Mg0_2 Mg1_0 2.979683 1_565
Mg0_2 Ti2_6 3.004154 1_455
Mg0_2 Ti2_7 3.004154 1_455
Mg0_2 Ti2_0 3.004154 1_565
Mg0_2 Ti2_1 3.004154 1_565
Mg0_2 Ti0_5 3.033497 1_465
Mg0_2 Ti0_4 3.033497 1_465
Mg0_3 Mg0_5 2.879316 1_565
Mg0_3 Mg0_5 2.879316 1_455
Mg0_3 Ti3_1 2.897171 1_565
Mg0_3 Ti3_7 2.897171 1_455
Mg0_3 Mg1_7 2.979683 1_455
Mg0_3 Mg1_1 2.979683 1_565
Mg0_3 Ti2_6 3.004154 1_456
Mg0_3 Ti2_7 3.004154 1_455
Mg0_3 Ti2_1 3.004154 1_565
Mg0_3 Ti2_0 3.004154 1_566
Mg0_3 Ti0_5 3.033497 1_465
Mg0_3 Ti0_4 3.033497 1_466
Mg0_4 Ti3_6 2.897171 1_555
Mg0_4 Ti3_0 2.897171 1_555
Mg0_4 Mg1_0 2.979683 1_555
Mg0_4 Mg1_6 2.979683 1_555
Mg0_4 Ti2_0 3.004154 1_555
Mg0_4 Ti2_1 3.004154 1_555
Mg0_4 Ti2_6 3.004154 1_555
Mg0_4 Ti2_7 3.004154 1_555
Mg0_4 Ti0_2 3.033497 1_555
Mg0_4 Ti0_3 3.033497 1_555
Mg0_5 Ti3_1 2.897171 1_555
Mg0_5 Ti3_7 2.897171 1_555
Mg0_5 Mg1_1 2.979683 1_555
Mg0_5 Mg1_7 2.979683 1_555
Mg0_5 Ti2_0 3.004154 1_556
Mg0_5 Ti2_1 3.004154 1_555
Mg0_5 Ti2_6 3.004154 1_556
Mg0_5 Ti2_7 3.004154 1_555
Mg0_5 Ti0_2 3.033497 1_556
Mg0_5 Ti0_3 3.033497 1_555
Mg0_6 Ti3_4 2.897171 1_565
Mg0_6 Ti3_2 2.897171 1_555
Mg0_6 Mg1_2 2.979683 1_555
Mg0_6 Mg1_4 2.979683 1_565
Mg0_6 Ti2_2 3.004154 1_555
Mg0_6 Ti2_3 3.004154 1_555
Mg0_6 Ti2_5 3.004154 1_565
Mg0_6 Ti2_4 3.004154 1_565
Mg0_6 Ti0_0 3.033497 1_565
Mg0_6 Ti0_1 3.033497 1_565
Mg0_7 Ti3_5 2.897171 1_565
Mg0_7 Ti3_3 2.897171 1_555
Mg0_7 Mg1_3 2.979683 1_555
Mg0_7 Mg1_5 2.979683 1_565
Mg0_7 Ti2_2 3.004154 1_556
Mg0_7 Ti2_3 3.004154 1_555
Mg0_7 Ti2_5 3.004154 1_565
Mg0_7 Ti2_4 3.004154 1_566
Mg0_7 Ti0_1 3.033497 1_565
Mg0_7 Ti0_0 3.033497 1_566
Mg1_0 Mg1_6 2.879316 1_555
Mg1_0 Mg1_6 2.879316 1_445
Mg1_0 Ti3_2 2.994211 1_545
Mg1_0 Ti3_4 2.994211 1_555
Mg1_0 Ti1_3 3.022018 1_545
Mg1_0 Ti1_4 3.022018 1_555
Mg1_0 Ti1_2 3.022018 1_545
Mg1_0 Ti1_5 3.022018 1_555
Mg1_0 Ti2_1 3.037992 1_555
Mg1_0 Ti2_0 3.037992 1_555
Mg1_1 Mg1_7 2.879316 1_445
Mg1_1 Mg1_7 2.879316 1_555
Mg1_1 Ti3_3 2.994211 1_545
Mg1_1 Ti3_5 2.994211 1_555
Mg1_1 Ti1_3 3.022018 1_545
Mg1_1 Ti1_2 3.022018 1_546
Mg1_1 Ti1_5 3.022018 1_555
Mg1_1 Ti1_4 3.022018 1_556
Mg1_1 Ti2_1 3.037992 1_555
Mg1_1 Ti2_0 3.037992 1_556
Mg1_2 Mg1_4 2.879316 1_565
Mg1_2 Mg1_4 2.879316 1_455
Mg1_2 Ti3_0 2.994211 1_555
Mg1_2 Ti3_6 2.994211 1_555
Mg1_2 Ti1_7 3.022018 1_555
Mg1_2 Ti1_1 3.022018 1_555
Mg1_2 Ti1_0 3.022018 1_555
Mg1_2 Ti1_6 3.022018 1_555
Mg1_2 Ti2_2 3.037992 1_555
Mg1_2 Ti2_3 3.037992 1_555
Mg1_3 Mg1_5 2.879316 1_455
Mg1_3 Mg1_5 2.879316 1_565
Mg1_3 Ti3_1 2.994211 1_555
Mg1_3 Ti3_7 2.994211 1_555
Mg1_3 Ti1_7 3.022018 1_555
Mg1_3 Ti1_1 3.022018 1_555
Mg1_3 Ti1_6 3.022018 1_556
Mg1_3 Ti1_0 3.022018 1_556
Mg1_3 Ti2_3 3.037992 1_555
Mg1_3 Ti2_2 3.037992 1_556
Mg1_4 Ti3_6 2.994211 1_545
Mg1_4 Ti3_0 2.994211 1_655
Mg1_4 Ti1_0 3.022018 1_655
Mg1_4 Ti1_7 3.022018 1_545
Mg1_4 Ti1_1 3.022018 1_655
Mg1_4 Ti1_6 3.022018 1_545
Mg1_4 Ti2_5 3.037992 1_555
Mg1_4 Ti2_4 3.037992 1_555
Mg1_5 Ti3_7 2.994211 1_545
Mg1_5 Ti3_1 2.994211 1_655
Mg1_5 Ti1_6 3.022018 1_546
Mg1_5 Ti1_7 3.022018 1_545
Mg1_5 Ti1_1 3.022018 1_655
Mg1_5 Ti1_0 3.022018 1_656
Mg1_5 Ti2_4 3.037992 1_556
Mg1_5 Ti2_5 3.037992 1_555
Mg1_6 Ti3_4 2.994211 1_555
Mg1_6 Ti3_2 2.994211 1_655
Mg1_6 Ti1_3 3.022018 1_655
Mg1_6 Ti1_4 3.022018 1_555
Mg1_6 Ti1_5 3.022018 1_555
Mg1_6 Ti1_2 3.022018 1_655
Mg1_6 Ti2_7 3.037992 1_555
Mg1_6 Ti2_6 3.037992 1_555
Mg1_7 Ti3_5 2.994211 1_555
Mg1_7 Ti3_3 2.994211 1_655
Mg1_7 Ti1_3 3.022018 1_655
Mg1_7 Ti1_2 3.022018 1_656
Mg1_7 Ti1_5 3.022018 1_555
Mg1_7 Ti1_4 3.022018 1_556
Mg1_7 Ti2_7 3.037992 1_555
Mg1_7 Ti2_6 3.037992 1_556
Ti0_0 Ti1_4 2.866416 1_555
Ti0_0 Ti1_2 2.866416 1_545
Ti0_0 Ti0_6 2.879316 1_445
Ti0_0 Ti0_6 2.879316 1_555
Ti0_0 Ti2_2 2.972807 1_545
Ti0_0 Ti2_4 2.972807 1_555
Ti0_0 Ti3_2 2.980235 1_545
Ti0_0 Ti3_4 2.980235 1_555
Ti0_0 Ti3_5 2.980235 1_554
Ti0_0 Ti3_3 2.980235 1_544
Ti0_1 Ti1_5 2.866416 1_555
Ti0_1 Ti1_3 2.866416 1_545
Ti0_1 Ti0_7 2.879316 1_445
Ti0_1 Ti0_7 2.879316 1_555
Ti0_1 Ti2_3 2.972807 1_545
Ti0_1 Ti2_5 2.972807 1_555
Ti0_1 Ti3_3 2.980235 1_545
Ti0_1 Ti3_2 2.980235 1_545
Ti0_1 Ti3_5 2.980235 1_555
Ti0_1 Ti3_4 2.980235 1_555
Ti0_2 Ti1_6 2.866416 1_555
Ti0_2 Ti1_0 2.866416 1_555
Ti0_2 Ti0_4 2.879316 1_565
Ti0_2 Ti0_4 2.879316 1_455
Ti0_2 Ti2_0 2.972807 1_555
Ti0_2 Ti2_6 2.972807 1_555
Ti0_2 Ti3_1 2.980235 1_554
Ti0_2 Ti3_0 2.980235 1_555
Ti0_2 Ti3_6 2.980235 1_555
Ti0_2 Ti3_7 2.980235 1_554
Ti0_3 Ti1_7 2.866416 1_555
Ti0_3 Ti1_1 2.866416 1_555
Ti0_3 Ti0_5 2.879316 1_565
Ti0_3 Ti0_5 2.879316 1_455
Ti0_3 Ti2_1 2.972807 1_555
Ti0_3 Ti2_7 2.972807 1_555
Ti0_3 Ti3_0 2.980235 1_555
Ti0_3 Ti3_7 2.980235 1_555
Ti0_3 Ti3_1 2.980235 1_555
Ti0_3 Ti3_6 2.980235 1_555
Ti0_4 Ti1_6 2.866416 1_545
Ti0_4 Ti1_0 2.866416 1_655
Ti0_4 Ti2_0 2.972807 1_655
Ti0_4 Ti2_6 2.972807 1_545
Ti0_4 Ti3_1 2.980235 1_654
Ti0_4 Ti3_6 2.980235 1_545
Ti0_4 Ti3_7 2.980235 1_544
Ti0_4 Ti3_0 2.980235 1_655
Ti0_5 Ti1_7 2.866416 1_545
Ti0_5 Ti1_1 2.866416 1_655
Ti0_5 Ti2_1 2.972807 1_655
Ti0_5 Ti2_7 2.972807 1_545
Ti0_5 Ti3_6 2.980235 1_545
Ti0_5 Ti3_7 2.980235 1_545
Ti0_5 Ti3_0 2.980235 1_655
Ti0_5 Ti3_1 2.980235 1_655
Ti0_6 Ti1_4 2.866416 1_555
Ti0_6 Ti1_2 2.866416 1_655
Ti0_6 Ti2_2 2.972807 1_655
Ti0_6 Ti2_4 2.972807 1_555
Ti0_6 Ti3_2 2.980235 1_655
Ti0_6 Ti3_3 2.980235 1_654
Ti0_6 Ti3_4 2.980235 1_555
Ti0_6 Ti3_5 2.980235 1_554
Ti0_7 Ti1_3 2.866416 1_655
Ti0_7 Ti1_5 2.866416 1_555
Ti0_7 Ti2_3 2.972807 1_655
Ti0_7 Ti2_5 2.972807 1_555
Ti0_7 Ti3_2 2.980235 1_655
Ti0_7 Ti3_4 2.980235 1_555
Ti0_7 Ti3_3 2.980235 1_655
Ti0_7 Ti3_5 2.980235 1_555
Ti1_0 Ti1_6 2.879316 1_445
Ti1_0 Ti1_6 2.879316 1_555
Ti1_0 Ti3_0 3.013356 1_555
Ti1_0 Ti3_1 3.013356 1_554
Ti1_0 Ti2_4 3.032302 1_455
Ti1_0 Ti2_2 3.032302 1_555
Ti1_1 Ti1_7 2.879316 1_555
Ti1_1 Ti1_7 2.879316 1_445
Ti1_1 Ti3_0 3.013356 1_555
Ti1_1 Ti3_1 3.013356 1_555
Ti1_1 Ti2_5 3.032302 1_455
Ti1_1 Ti2_3 3.032302 1_555
Ti1_2 Ti1_4 2.879316 1_565
Ti1_2 Ti1_4 2.879316 1_455
Ti1_2 Ti3_2 3.013356 1_555
Ti1_2 Ti3_3 3.013356 1_554
Ti1_2 Ti2_0 3.032302 1_565
Ti1_2 Ti2_6 3.032302 1_455
Ti1_3 Ti1_5 2.879316 1_565
Ti1_3 Ti1_5 2.879316 1_455
Ti1_3 Ti3_3 3.013356 1_555
Ti1_3 Ti3_2 3.013356 1_555
Ti1_3 Ti2_1 3.032302 1_565
Ti1_3 Ti2_7 3.032302 1_455
Ti1_4 Ti3_5 3.013356 1_554
Ti1_4 Ti3_4 3.013356 1_555
Ti1_4 Ti2_6 3.032302 1_555
Ti1_4 Ti2_0 3.032302 1_555
Ti1_5 Ti3_4 3.013356 1_555
Ti1_5 Ti3_5 3.013356 1_555
Ti1_5 Ti2_7 3.032302 1_555
Ti1_5 Ti2_1 3.032302 1_555
Ti1_6 Ti3_6 3.013356 1_555
Ti1_6 Ti3_7 3.013356 1_554
Ti1_6 Ti2_4 3.032302 1_565
Ti1_6 Ti2_2 3.032302 1_555
Ti1_7 Ti3_6 3.013356 1_555
Ti1_7 Ti3_7 3.013356 1_555
Ti1_7 Ti2_5 3.032302 1_565
Ti1_7 Ti2_3 3.032302 1_555
Ti2_0 Ti2_6 2.879316 1_555
Ti2_0 Ti2_6 2.879316 1_445
Ti2_1 Ti2_7 2.879316 1_555
Ti2_1 Ti2_7 2.879316 1_445
Ti2_2 Ti2_4 2.879316 1_565
Ti2_2 Ti2_4 2.879316 1_455
Ti2_3 Ti2_5 2.879316 1_565
Ti2_3 Ti2_5 2.879316 1_455
Ti3_0 Ti3_6 2.879316 1_555
Ti3_0 Ti3_6 2.879316 1_445
Ti3_1 Ti3_7 2.879316 1_555
Ti3_1 Ti3_7 2.879316 1_445
Ti3_2 Ti3_4 2.879316 1_565
Ti3_2 Ti3_4 2.879316 1_455
Ti3_3 Ti3_5 2.879316 1_455
Ti3_3 Ti3_5 2.879316 1_565
