# generated using pymatgen
data_Rb3ScV2O8
_symmetry_space_group_name_H-M   'P 1'
_cell_length_a   5.92897974
_cell_length_b   5.92897974
_cell_length_c   7.90763300
_cell_angle_alpha   90.00000000
_cell_angle_beta   90.00000000
_cell_angle_gamma   119.99999712
_symmetry_Int_Tables_number   1
_chemical_formula_structural   Rb3ScV2O8
_chemical_formula_sum   'Rb3 Sc1 V2 O8'
_cell_volume   240.73380612
_cell_formula_units_Z   1
loop_
 _symmetry_equiv_pos_site_id
 _symmetry_equiv_pos_as_xyz
  1  'x, y, z'
loop_
 _atom_site_type_symbol
 _atom_site_label
 _atom_site_symmetry_multiplicity
 _atom_site_fract_x
 _atom_site_fract_y
 _atom_site_fract_z
 _atom_site_occupancy
  Rb  Rb0  1  0.66666700  0.33333300  0.29595400  1
  Rb  Rb1  1  0.33333300  0.66666700  0.70404600  1
  Rb  Rb2  1  0.00000000  0.00000000  0.00000000  1
  Sc  Sc0  1  0.00000000  0.00000000  0.50000000  1
  V  V0  1  0.66666700  0.33333300  0.73060300  1
  V  V1  1  0.33333300  0.66666700  0.26939700  1
  O  O0  1  0.66666700  0.33333300  0.94360400  1
  O  O1  1  0.33333300  0.66666700  0.05639600  1
  O  O2  1  0.82986500  0.65973000  0.65711400  1
  O  O3  1  0.17013500  0.34027000  0.34288600  1
  O  O4  1  0.82986500  0.17013500  0.65711400  1
  O  O5  1  0.17013500  0.82986500  0.34288600  1
  O  O6  1  0.34027000  0.17013500  0.65711400  1
  O  O7  1  0.65973000  0.82986500  0.34288600  1
loop_
_geom_bond_atom_site_label_1
_geom_bond_atom_site_label_2
_geom_bond_distance
_geom_bond_site_symmetry_2
O0 V0 1.684334 1_555
O0 Rb0 2.786254 1_556
O0 Rb2 3.452022 1_656
O0 Rb2 3.452027 1_666
O0 Rb2 3.452027 1_556
O1 V1 1.684334 1_555
O1 Rb1 2.786254 1_554
O1 Rb2 3.452022 1_565
O1 Rb2 3.452027 1_555
O1 Rb2 3.452027 1_665
O2 V0 1.773826 1_555
O2 Sc0 2.143863 1_665
O2 Rb1 2.987839 1_655
O2 Rb1 2.987845 1_555
O2 Rb2 3.225581 1_666
O2 Rb0 3.311350 1_555
O3 V1 1.773826 1_555
O3 Sc0 2.143863 1_555
O3 Rb0 2.987839 1_455
O3 Rb0 2.987845 1_555
O3 Rb2 3.225581 1_555
O3 Rb1 3.311350 1_555
O4 V0 1.773821 1_555
O4 Sc0 2.143863 1_655
O4 Rb1 2.987842 1_545
O4 Rb1 2.987842 1_655
O4 Rb2 3.225581 1_656
O4 Rb0 3.311347 1_555
O5 V1 1.773821 1_555
O5 Sc0 2.143863 1_565
O5 Rb0 2.987842 1_455
O5 Rb0 2.987842 1_565
O5 Rb2 3.225581 1_565
O5 Rb1 3.311347 1_555
O6 V0 1.773826 1_555
O6 Sc0 2.143863 1_555
O6 Rb1 2.987839 1_545
O6 Rb1 2.987845 1_555
O6 Rb2 3.225581 1_556
O6 Rb0 3.311350 1_555
O7 V1 1.773826 1_555
O7 Sc0 2.143863 1_665
O7 Rb0 2.987839 1_565
O7 Rb0 2.987845 1_555
O7 Rb2 3.225581 1_665
O7 Rb1 3.311350 1_555
