# generated using pymatgen
data_V2Bi8O17
_symmetry_space_group_name_H-M   'P 1'
_cell_length_a   4.09775330
_cell_length_b   4.09775330
_cell_length_c   31.59444865
_cell_angle_alpha   85.67748366
_cell_angle_beta   85.67748366
_cell_angle_gamma   54.50958326
_symmetry_Int_Tables_number   1
_chemical_formula_structural   V2Bi8O17
_chemical_formula_sum   'V2 Bi8 O17'
_cell_volume   430.40142172
_cell_formula_units_Z   1
loop_
 _symmetry_equiv_pos_site_id
 _symmetry_equiv_pos_as_xyz
  1  'x, y, z'
loop_
 _atom_site_type_symbol
 _atom_site_label
 _atom_site_symmetry_multiplicity
 _atom_site_fract_x
 _atom_site_fract_y
 _atom_site_fract_z
 _atom_site_occupancy
  V  V0  1  0.72494800  0.72494800  0.60994000  1
  V  V1  1  0.49040900  0.49040900  0.78764300  1
  Bi  Bi0  1  0.99672500  0.99672500  0.98067500  1
  Bi  Bi1  1  0.34970500  0.34970500  0.09347700  1
  Bi  Bi2  1  0.59609600  0.59609600  0.19621300  1
  Bi  Bi3  1  0.84747200  0.84747200  0.30542900  1
  Bi  Bi4  1  0.19168200  0.19168200  0.41251900  1
  Bi  Bi5  1  0.53238800  0.53238800  0.52319100  1
  Bi  Bi6  1  0.08832600  0.08832600  0.69832500  1
  Bi  Bi7  1  0.68777000  0.68777000  0.87521600  1
  O  O0  1  0.61268300  0.61268300  0.12304800  1
  O  O1  1  0.95271200  0.95271200  0.05565900  1
  O  O2  1  0.27179500  0.27179500  0.19050700  1
  O  O3  1  0.23317300  0.23317300  0.33887200  1
  O  O4  1  0.59993100  0.59993100  0.27098800  1
  O  O5  1  0.86557600  0.86557600  0.40757000  1
  O  O6  1  0.81439100  0.81439100  0.55290000  1
  O  O7  1  0.16493200  0.16493200  0.48805800  1
  O  O8  1  0.18387200  0.18387200  0.62050100  1
  O  O9  1  0.49990300  0.49990300  0.59672400  1
  O  O10  1  0.43175000  0.43175000  0.72918900  1
  O  O11  1  0.78324100  0.78324100  0.66758200  1
  O  O12  1  0.71172000  0.71172000  0.80157200  1
  O  O13  1  0.02758800  0.02758800  0.77493200  1
  O  O14  1  0.03310600  0.03310600  0.90576700  1
  O  O15  1  0.39511400  0.39511400  0.84326000  1
  O  O16  1  0.67179500  0.67179500  0.97784400  1
loop_
_geom_bond_atom_site_label_1
_geom_bond_atom_site_label_2
_geom_bond_distance
_geom_bond_site_symmetry_2
Bi0 O16 2.266499 1_655
Bi0 O16 2.266499 1_565
Bi0 O14 2.359035 1_665
Bi0 O1 2.363586 1_556
Bi0 O16 2.376575 1_555
Bi1 O0 2.201662 1_555
Bi1 O1 2.315226 1_545
Bi1 O1 2.315226 1_455
Bi1 O0 2.665109 1_455
Bi1 O0 2.665109 1_545
Bi2 O2 2.270120 1_655
Bi2 O2 2.270120 1_565
Bi2 O0 2.304510 1_555
Bi2 O4 2.365008 1_555
Bi2 O2 2.384797 1_555
Bi3 O4 2.183898 1_555
Bi3 O3 2.276436 1_565
Bi3 O3 2.276436 1_655
Bi3 O4 2.783750 1_565
Bi3 O4 2.783750 1_655
Bi4 O5 2.262175 1_545
Bi4 O5 2.262175 1_455
Bi4 O3 2.320835 1_555
Bi4 O7 2.378032 1_555
Bi4 O5 2.394220 1_445
Bi5 O9 2.315210 1_555
Bi5 O6 2.330088 1_555
Bi5 O7 2.346134 1_655
Bi5 O7 2.346134 1_565
Bi5 O6 2.583071 1_545
Bi5 O6 2.583071 1_455
Bi6 O10 2.363272 1_545
Bi6 O10 2.363272 1_455
Bi6 O13 2.423289 1_555
Bi6 O8 2.498013 1_555
Bi6 O11 2.499530 1_455
Bi6 O11 2.499530 1_545
Bi6 O11 2.500018 1_445
Bi6 O10 2.761323 1_555
Bi7 O12 2.318476 1_555
Bi7 O14 2.353395 1_565
Bi7 O14 2.353395 1_655
Bi7 O15 2.435281 1_555
Bi7 O15 2.562073 1_655
Bi7 O15 2.562073 1_565
Bi7 O14 2.770145 1_665
O6 V0 1.863665 1_555
O8 V0 1.924951 1_545
O8 V0 1.924951 1_455
O9 V0 1.725894 1_555
O10 V1 1.930603 1_555
O11 V0 1.904776 1_555
O12 V1 1.706984 1_555
O13 V1 1.933308 1_455
O13 V1 1.933308 1_545
O15 V1 1.833814 1_555
