# generated using pymatgen
data_TiP2H2O9
_symmetry_space_group_name_H-M   'P 1'
_cell_length_a   6.39444900
_cell_length_b   5.24031200
_cell_length_c   23.52676728
_cell_angle_alpha   86.62973203
_cell_angle_beta   90.00000000
_cell_angle_gamma   90.00000000
_symmetry_Int_Tables_number   1
_chemical_formula_structural   TiP2H2O9
_chemical_formula_sum   'Ti4 P8 H8 O36'
_cell_volume   786.99278944
_cell_formula_units_Z   4
loop_
 _symmetry_equiv_pos_site_id
 _symmetry_equiv_pos_as_xyz
  1  'x, y, z'
loop_
 _atom_site_type_symbol
 _atom_site_label
 _atom_site_symmetry_multiplicity
 _atom_site_fract_x
 _atom_site_fract_y
 _atom_site_fract_z
 _atom_site_occupancy
  Ti  Ti0  1  0.21604500  0.27226300  0.93248800  1
  Ti  Ti1  1  0.71604500  0.72773700  0.06751200  1
  Ti  Ti2  1  0.21084100  0.75800000  0.43288400  1
  Ti  Ti3  1  0.71084100  0.24200000  0.56711600  1
  P  P0  1  0.71751300  0.24997100  0.97185200  1
  P  P1  1  0.21751300  0.75002900  0.02814800  1
  P  P2  1  0.81914000  0.20444000  0.15620300  1
  P  P3  1  0.31914000  0.79556000  0.84379700  1
  P  P4  1  0.21270500  0.23176600  0.52825500  1
  P  P5  1  0.71270500  0.76823400  0.47174500  1
  P  P6  1  0.82029400  0.71377200  0.65390500  1
  P  P7  1  0.32029400  0.28622800  0.34609500  1
  H  H0  1  0.23040800  0.32722600  0.70234700  1
  H  H1  1  0.73040800  0.67277400  0.29765300  1
  H  H2  1  0.26647600  0.04274400  0.68803400  1
  H  H3  1  0.76647600  0.95725600  0.31196600  1
  H  H4  1  0.26268600  0.84191900  0.20256200  1
  H  H5  1  0.76268600  0.15808100  0.79743800  1
  H  H6  1  0.26439600  0.54237300  0.20523000  1
  H  H7  1  0.76439600  0.45762700  0.79477000  1
  O  O0  1  0.52381200  0.26987000  0.93381900  1
  O  O1  1  0.02381200  0.73013000  0.06618100  1
  O  O2  1  0.71800300  0.46748800  0.01320200  1
  O  O3  1  0.21800300  0.53251200  0.98679800  1
  O  O4  1  0.91242900  0.27115400  0.93339700  1
  O  O5  1  0.41242900  0.72884600  0.06660300  1
  O  O6  1  0.71878100  0.99352900  0.00724500  1
  O  O7  1  0.21878100  0.00647100  0.99275500  1
  O  O8  1  0.72985400  0.45415100  0.12897000  1
  O  O9  1  0.22985400  0.54584900  0.87103000  1
  O  O10  1  0.72575200  0.98126100  0.12557200  1
  O  O11  1  0.22575200  0.01873900  0.87442800  1
  O  O12  1  0.26494200  0.80767900  0.77901100  1
  O  O13  1  0.76494200  0.19232100  0.22098900  1
  O  O14  1  0.55919400  0.80244700  0.83843000  1
  O  O15  1  0.05919400  0.19755300  0.16157000  1
  O  O16  1  0.01813700  0.23512400  0.56626400  1
  O  O17  1  0.51813700  0.76487600  0.43373600  1
  O  O18  1  0.71320300  0.01091100  0.50582800  1
  O  O19  1  0.21320300  0.98908900  0.49417200  1
  O  O20  1  0.90779500  0.76402600  0.43325100  1
  O  O21  1  0.40779500  0.23597400  0.56674900  1
  O  O22  1  0.71375500  0.53283800  0.51417900  1
  O  O23  1  0.21375500  0.46716200  0.48582100  1
  O  O24  1  0.71739300  0.94598000  0.62239200  1
  O  O25  1  0.21739300  0.05402000  0.37760800  1
  O  O26  1  0.72841500  0.47151200  0.62999900  1
  O  O27  1  0.22841500  0.52848800  0.37000100  1
  O  O28  1  0.56104600  0.27948700  0.34466700  1
  O  O29  1  0.06104600  0.72051300  0.65533300  1
  O  O30  1  0.77863200  0.72336300  0.71891200  1
  O  O31  1  0.27863200  0.27663700  0.28108800  1
  O  O32  1  0.33729200  0.19222700  0.70273500  1
  O  O33  1  0.83729200  0.80777300  0.29726500  1
  O  O34  1  0.35465000  0.69247100  0.20797600  1
  O  O35  1  0.85465000  0.30752900  0.79202400  1
loop_
_geom_bond_atom_site_label_1
_geom_bond_atom_site_label_2
_geom_bond_distance
_geom_bond_site_symmetry_2
H0 O32 0.983318 1_555
H1 O33 0.983318 1_555
H2 O32 0.984963 1_555
H3 O33 0.984963 1_555
H4 O34 0.981651 1_555
H5 O35 0.981651 1_555
H6 O34 0.980764 1_555
H7 O35 0.980764 1_555
O0 P0 1.527978 1_555
O0 Ti0 1.968278 1_555
O1 P1 1.527978 1_555
O1 Ti1 1.968278 1_455
O2 P0 1.541449 1_554
O2 Ti1 1.922907 1_555
O3 P1 1.541449 1_556
O3 Ti0 1.922907 1_555
O4 P0 1.540292 1_555
O4 Ti0 1.941580 1_655
O5 P1 1.540292 1_555
O5 Ti1 1.941580 1_555
O6 P0 1.538751 1_564
O6 Ti1 1.928340 1_555
O7 P1 1.538751 1_546
O7 Ti0 1.928340 1_555
O8 P2 1.533046 1_555
O8 Ti1 1.977408 1_555
O9 P3 1.533046 1_555
O9 Ti0 1.977408 1_555
O10 P2 1.530631 1_565
O10 Ti1 1.961661 1_555
O11 P3 1.530631 1_545
O11 Ti0 1.961661 1_555
O12 P3 1.560757 1_555
O13 P2 1.560757 1_555
O14 P3 1.540447 1_555
O15 P2 1.540447 1_455
O16 P4 1.532882 1_555
O16 Ti3 1.965443 1_455
O17 P5 1.532882 1_555
O17 Ti2 1.965443 1_555
O18 P5 1.542764 1_545
O18 Ti3 1.936776 1_555
O19 P4 1.542764 1_565
O19 Ti2 1.936776 1_555
O20 P5 1.542484 1_555
O20 Ti2 1.938097 1_655
O21 P4 1.542484 1_555
O21 Ti3 1.938097 1_555
O22 P5 1.540638 1_555
O22 Ti3 1.910787 1_555
O23 P4 1.540638 1_555
O23 Ti2 1.910787 1_555
O24 P6 1.535338 1_555
O24 Ti3 1.965226 1_565
O25 P7 1.535338 1_555
O25 Ti2 1.965226 1_545
O26 P6 1.535295 1_555
O26 Ti3 1.963946 1_555
O27 P7 1.535295 1_555
O27 Ti2 1.963946 1_555
O28 P7 1.540293 1_555
O29 P6 1.540293 1_455
O30 P6 1.556154 1_555
O31 P7 1.556154 1_555
