# generated using pymatgen
data_PrZnNi
_symmetry_space_group_name_H-M   'P 1'
_cell_length_a   7.17975782
_cell_length_b   7.17975760
_cell_length_c   3.86614220
_cell_angle_alpha   90.00000000
_cell_angle_beta   90.00000000
_cell_angle_gamma   120.00000102
_symmetry_Int_Tables_number   1
_chemical_formula_structural   PrZnNi
_chemical_formula_sum   'Pr3 Zn3 Ni3'
_cell_volume   172.59492767
_cell_formula_units_Z   3
loop_
 _symmetry_equiv_pos_site_id
 _symmetry_equiv_pos_as_xyz
  1  'x, y, z'
loop_
 _atom_site_type_symbol
 _atom_site_label
 _atom_site_symmetry_multiplicity
 _atom_site_fract_x
 _atom_site_fract_y
 _atom_site_fract_z
 _atom_site_occupancy
  Pr  Pr0  1  0.58485519  0.00000000  0.50000000  1
  Pr  Pr1  1  0.41514481  0.41514481  0.50000000  1
  Pr  Pr2  1  0.00000000  0.58485519  0.50000000  1
  Zn  Zn0  1  0.22828968  0.00000000  0.00000000  1
  Zn  Zn1  1  0.77171032  0.77171032  -0.00000000  1
  Zn  Zn2  1  -0.00000000  0.22828968  0.00000000  1
  Ni  Ni0  1  0.00000000  0.00000000  0.50000000  1
  Ni  Ni1  1  0.33333300  0.66666700  -0.00000000  1
  Ni  Ni2  1  0.66666700  0.33333300  0.00000000  1
loop_
_geom_bond_atom_site_label_1
_geom_bond_atom_site_label_2
_geom_bond_distance
_geom_bond_site_symmetry_2
Pr0 Zn0 3.207903 1_555
Pr0 Zn0 3.207903 1_556
Pr0 Zn1 3.228319 1_545
Pr0 Zn2 3.228319 1_656
Pr0 Zn1 3.228319 1_546
Pr0 Zn2 3.228319 1_655
Pr1 Zn1 3.207903 1_556
Pr1 Zn1 3.207903 1_555
Pr1 Zn0 3.228319 1_555
Pr1 Zn0 3.228319 1_556
Pr1 Zn2 3.228319 1_555
Pr1 Zn2 3.228319 1_556
Pr2 Zn2 3.207903 1_555
Pr2 Zn2 3.207903 1_556
Pr2 Zn0 3.228319 1_565
Pr2 Zn0 3.228319 1_566
Pr2 Zn1 3.228319 1_455
Pr2 Zn1 3.228319 1_456
Zn0 Zn1 2.838943 1_445
Zn0 Zn2 2.838943 1_555
Zn1 Zn2 2.838943 1_665
Ni0 Zn1 2.534422 1_445
Ni0 Zn1 2.534422 1_446
Ni0 Zn2 2.534422 1_556
Ni0 Zn2 2.534422 1_555
Ni0 Zn0 2.534422 1_555
Ni0 Zn0 2.534422 1_556
Ni0 Pr1 2.980639 1_555
Ni0 Pr2 2.980639 1_545
Ni0 Pr0 2.980639 1_455
Ni1 Zn0 2.846295 1_565
Ni1 Zn2 2.846300 1_555
Ni1 Zn1 2.846302 1_555
Ni1 Pr2 2.898908 1_555
Ni1 Pr2 2.898908 1_554
Ni1 Pr0 2.898909 1_565
Ni1 Pr0 2.898909 1_564
Ni1 Pr1 2.898913 1_555
Ni1 Pr1 2.898913 1_554
Ni2 Zn2 2.846295 1_655
Ni2 Zn0 2.846300 1_555
Ni2 Zn1 2.846302 1_555
Ni2 Pr0 2.898908 1_555
Ni2 Pr0 2.898908 1_554
Ni2 Pr2 2.898909 1_654
Ni2 Pr2 2.898909 1_655
Ni2 Pr1 2.898913 1_555
Ni2 Pr1 2.898913 1_554
