# generated using pymatgen
data_CeMg
_symmetry_space_group_name_H-M   'P 1'
_cell_length_a   6.21993107
_cell_length_b   6.21993107
_cell_length_c   23.47784312
_cell_angle_alpha   90.00000000
_cell_angle_beta   90.00000000
_cell_angle_gamma   120.00001645
_symmetry_Int_Tables_number   1
_chemical_formula_structural   CeMg
_chemical_formula_sum   'Ce16 Mg16'
_cell_volume   786.61078967
_cell_formula_units_Z   16
loop_
 _symmetry_equiv_pos_site_id
 _symmetry_equiv_pos_as_xyz
  1  'x, y, z'
loop_
 _atom_site_type_symbol
 _atom_site_label
 _atom_site_symmetry_multiplicity
 _atom_site_fract_x
 _atom_site_fract_y
 _atom_site_fract_z
 _atom_site_occupancy
  Ce  Ce0_0  1  0.16666650  0.33333350  0.06745990  1
  Ce  Ce0_1  1  0.16666650  0.33333350  0.56745990  1
  Ce  Ce0_2  1  0.16666650  0.83333350  0.06745990  1
  Ce  Ce0_3  1  0.16666650  0.83333350  0.56745990  1
  Ce  Ce0_4  1  0.66666650  0.33333350  0.06745990  1
  Ce  Ce0_5  1  0.66666650  0.33333350  0.56745990  1
  Ce  Ce0_6  1  0.66666650  0.83333350  0.06745990  1
  Ce  Ce0_7  1  0.66666650  0.83333350  0.56745990  1
  Ce  Ce1_0  1  0.33333350  0.16666650  0.43254011  1
  Ce  Ce1_1  1  0.33333350  0.16666650  0.93254010  1
  Ce  Ce1_2  1  0.33333350  0.66666650  0.43254011  1
  Ce  Ce1_3  1  0.33333350  0.66666650  0.93254010  1
  Ce  Ce1_4  1  0.83333350  0.16666650  0.43254011  1
  Ce  Ce1_5  1  0.83333350  0.16666650  0.93254010  1
  Ce  Ce1_6  1  0.83333350  0.66666650  0.43254011  1
  Ce  Ce1_7  1  0.83333350  0.66666650  0.93254010  1
  Mg  Mg0_0  1  0.33333350  0.16666650  0.19332593  1
  Mg  Mg0_1  1  0.33333350  0.16666650  0.69332593  1
  Mg  Mg0_2  1  0.33333350  0.66666650  0.19332593  1
  Mg  Mg0_3  1  0.33333350  0.66666650  0.69332593  1
  Mg  Mg0_4  1  0.83333350  0.16666650  0.19332593  1
  Mg  Mg0_5  1  0.83333350  0.16666650  0.69332593  1
  Mg  Mg0_6  1  0.83333350  0.66666650  0.19332593  1
  Mg  Mg0_7  1  0.83333350  0.66666650  0.69332593  1
  Mg  Mg1_0  1  0.16666650  0.33333350  0.30667407  1
  Mg  Mg1_1  1  0.16666650  0.33333350  0.80667407  1
  Mg  Mg1_2  1  0.16666650  0.83333350  0.30667407  1
  Mg  Mg1_3  1  0.16666650  0.83333350  0.80667407  1
  Mg  Mg1_4  1  0.66666650  0.33333350  0.30667407  1
  Mg  Mg1_5  1  0.66666650  0.33333350  0.80667407  1
  Mg  Mg1_6  1  0.66666650  0.83333350  0.30667407  1
  Mg  Mg1_7  1  0.66666650  0.83333350  0.80667407  1
loop_
_geom_bond_atom_site_label_1
_geom_bond_atom_site_label_2
_geom_bond_distance
_geom_bond_site_symmetry_2
Ce0_0 Ce0_6 3.109965 1_555
Ce0_0 Ce0_6 3.109965 1_445
Ce0_0 Ce0_2 3.109966 1_545
Ce0_0 Ce0_4 3.109966 1_455
Ce0_0 Ce0_2 3.109966 1_555
Ce0_0 Ce0_4 3.109966 1_555
Ce0_0 Mg0_2 3.457796 1_555
Ce0_0 Mg0_4 3.457796 1_455
Ce0_0 Mg0_0 3.457799 1_555
Ce0_0 Ce1_3 3.641127 1_554
Ce0_0 Ce1_5 3.641127 1_454
Ce0_0 Ce1_1 3.641130 1_554
Ce0_1 Ce0_7 3.109965 1_555
Ce0_1 Ce0_7 3.109965 1_445
Ce0_1 Ce0_5 3.109966 1_455
Ce0_1 Ce0_3 3.109966 1_545
Ce0_1 Ce0_3 3.109966 1_555
Ce0_1 Ce0_5 3.109966 1_555
Ce0_1 Mg0_3 3.457796 1_555
Ce0_1 Mg0_5 3.457796 1_455
Ce0_1 Mg0_1 3.457799 1_555
Ce0_1 Ce1_4 3.641127 1_455
Ce0_1 Ce1_2 3.641127 1_555
Ce0_1 Ce1_0 3.641130 1_555
Ce0_2 Ce0_4 3.109965 1_455
Ce0_2 Ce0_4 3.109965 1_565
Ce0_2 Ce0_6 3.109966 1_555
Ce0_2 Ce0_6 3.109966 1_455
Ce0_2 Mg0_6 3.457796 1_455
Ce0_2 Mg0_0 3.457796 1_565
Ce0_2 Mg0_2 3.457799 1_555
Ce0_2 Ce1_7 3.641127 1_454
Ce0_2 Ce1_1 3.641127 1_564
Ce0_2 Ce1_3 3.641130 1_554
Ce0_3 Ce0_5 3.109965 1_455
Ce0_3 Ce0_5 3.109965 1_565
Ce0_3 Ce0_7 3.109966 1_455
Ce0_3 Ce0_7 3.109966 1_555
Ce0_3 Mg0_7 3.457796 1_455
Ce0_3 Mg0_1 3.457796 1_565
Ce0_3 Mg0_3 3.457799 1_555
Ce0_3 Ce1_6 3.641127 1_455
Ce0_3 Ce1_0 3.641127 1_565
Ce0_3 Ce1_2 3.641130 1_555
Ce0_4 Ce0_6 3.109966 1_545
Ce0_4 Ce0_6 3.109966 1_555
Ce0_4 Mg0_6 3.457796 1_555
Ce0_4 Mg0_0 3.457796 1_555
Ce0_4 Mg0_4 3.457799 1_555
Ce0_4 Ce1_1 3.641127 1_554
Ce0_4 Ce1_7 3.641127 1_554
Ce0_4 Ce1_5 3.641130 1_554
Ce0_5 Ce0_7 3.109966 1_545
Ce0_5 Ce0_7 3.109966 1_555
Ce0_5 Mg0_7 3.457796 1_555
Ce0_5 Mg0_1 3.457796 1_555
Ce0_5 Mg0_5 3.457799 1_555
Ce0_5 Ce1_6 3.641127 1_555
Ce0_5 Ce1_0 3.641127 1_555
Ce0_5 Ce1_4 3.641130 1_555
Ce0_6 Mg0_2 3.457796 1_555
Ce0_6 Mg0_4 3.457796 1_565
Ce0_6 Mg0_6 3.457799 1_555
Ce0_6 Ce1_3 3.641127 1_554
Ce0_6 Ce1_5 3.641127 1_564
Ce0_6 Ce1_7 3.641130 1_554
Ce0_7 Mg0_5 3.457796 1_565
Ce0_7 Mg0_3 3.457796 1_555
Ce0_7 Mg0_7 3.457799 1_555
Ce0_7 Ce1_4 3.641127 1_565
Ce0_7 Ce1_2 3.641127 1_555
Ce0_7 Ce1_6 3.641130 1_555
Ce1_0 Ce1_6 3.109965 1_445
Ce1_0 Ce1_6 3.109965 1_555
Ce1_0 Ce1_2 3.109966 1_555
Ce1_0 Ce1_4 3.109966 1_455
Ce1_0 Ce1_4 3.109966 1_555
Ce1_0 Ce1_2 3.109966 1_545
Ce1_0 Mg1_4 3.457796 1_555
Ce1_0 Mg1_2 3.457796 1_545
Ce1_0 Mg1_0 3.457799 1_555
Ce1_1 Ce1_7 3.109965 1_445
Ce1_1 Ce1_7 3.109965 1_555
Ce1_1 Ce1_3 3.109966 1_555
Ce1_1 Ce1_5 3.109966 1_455
Ce1_1 Ce1_5 3.109966 1_555
Ce1_1 Ce1_3 3.109966 1_545
Ce1_1 Mg1_3 3.457796 1_545
Ce1_1 Mg1_5 3.457796 1_555
Ce1_1 Mg1_1 3.457799 1_555
Ce1_2 Ce1_4 3.109965 1_455
Ce1_2 Ce1_4 3.109965 1_565
Ce1_2 Ce1_6 3.109966 1_455
Ce1_2 Ce1_6 3.109966 1_555
Ce1_2 Mg1_0 3.457796 1_555
Ce1_2 Mg1_6 3.457796 1_555
Ce1_2 Mg1_2 3.457799 1_555
Ce1_3 Ce1_5 3.109965 1_455
Ce1_3 Ce1_5 3.109965 1_565
Ce1_3 Ce1_7 3.109966 1_455
Ce1_3 Ce1_7 3.109966 1_555
Ce1_3 Mg1_1 3.457796 1_555
Ce1_3 Mg1_7 3.457796 1_555
Ce1_3 Mg1_3 3.457799 1_555
Ce1_4 Ce1_6 3.109966 1_545
Ce1_4 Ce1_6 3.109966 1_555
Ce1_4 Mg1_6 3.457796 1_545
Ce1_4 Mg1_0 3.457796 1_655
Ce1_4 Mg1_4 3.457799 1_555
Ce1_5 Ce1_7 3.109966 1_555
Ce1_5 Ce1_7 3.109966 1_545
Ce1_5 Mg1_7 3.457796 1_545
Ce1_5 Mg1_1 3.457796 1_655
Ce1_5 Mg1_5 3.457799 1_555
Ce1_6 Mg1_4 3.457796 1_555
Ce1_6 Mg1_2 3.457796 1_655
Ce1_6 Mg1_6 3.457799 1_555
Ce1_7 Mg1_5 3.457796 1_555
Ce1_7 Mg1_3 3.457796 1_655
Ce1_7 Mg1_7 3.457799 1_555
Mg0_0 Mg0_6 3.109965 1_445
Mg0_0 Mg0_6 3.109965 1_555
Mg0_0 Mg0_4 3.109966 1_455
Mg0_0 Mg0_2 3.109966 1_555
Mg0_0 Mg0_4 3.109966 1_555
Mg0_0 Mg0_2 3.109966 1_545
Mg0_0 Mg1_2 3.210262 1_545
Mg0_0 Mg1_4 3.210262 1_555
Mg0_0 Mg1_0 3.210265 1_555
Mg0_1 Mg0_7 3.109965 1_445
Mg0_1 Mg0_7 3.109965 1_555
Mg0_1 Mg0_5 3.109966 1_455
Mg0_1 Mg0_3 3.109966 1_555
Mg0_1 Mg0_3 3.109966 1_545
Mg0_1 Mg0_5 3.109966 1_555
Mg0_1 Mg1_3 3.210262 1_545
Mg0_1 Mg1_5 3.210262 1_555
Mg0_1 Mg1_1 3.210265 1_555
Mg0_2 Mg0_4 3.109965 1_455
Mg0_2 Mg0_4 3.109965 1_565
Mg0_2 Mg0_6 3.109966 1_455
Mg0_2 Mg0_6 3.109966 1_555
Mg0_2 Mg1_0 3.210262 1_555
Mg0_2 Mg1_6 3.210262 1_555
Mg0_2 Mg1_2 3.210265 1_555
Mg0_3 Mg0_5 3.109965 1_455
Mg0_3 Mg0_5 3.109965 1_565
Mg0_3 Mg0_7 3.109966 1_455
Mg0_3 Mg0_7 3.109966 1_555
Mg0_3 Mg1_7 3.210262 1_555
Mg0_3 Mg1_1 3.210262 1_555
Mg0_3 Mg1_3 3.210265 1_555
Mg0_4 Mg0_6 3.109966 1_555
Mg0_4 Mg0_6 3.109966 1_545
Mg0_4 Mg1_6 3.210262 1_545
Mg0_4 Mg1_0 3.210262 1_655
Mg0_4 Mg1_4 3.210265 1_555
Mg0_5 Mg0_7 3.109966 1_545
Mg0_5 Mg0_7 3.109966 1_555
Mg0_5 Mg1_7 3.210262 1_545
Mg0_5 Mg1_1 3.210262 1_655
Mg0_5 Mg1_5 3.210265 1_555
Mg0_6 Mg1_4 3.210262 1_555
Mg0_6 Mg1_2 3.210262 1_655
Mg0_6 Mg1_6 3.210265 1_555
Mg0_7 Mg1_3 3.210262 1_655
Mg0_7 Mg1_5 3.210262 1_555
Mg0_7 Mg1_7 3.210265 1_555
Mg1_0 Mg1_6 3.109965 1_555
Mg1_0 Mg1_6 3.109965 1_445
Mg1_0 Mg1_2 3.109966 1_545
Mg1_0 Mg1_4 3.109966 1_455
Mg1_0 Mg1_2 3.109966 1_555
Mg1_0 Mg1_4 3.109966 1_555
Mg1_1 Mg1_7 3.109965 1_555
Mg1_1 Mg1_7 3.109965 1_445
Mg1_1 Mg1_3 3.109966 1_545
Mg1_1 Mg1_5 3.109966 1_455
Mg1_1 Mg1_3 3.109966 1_555
Mg1_1 Mg1_5 3.109966 1_555
Mg1_2 Mg1_4 3.109965 1_455
Mg1_2 Mg1_4 3.109965 1_565
Mg1_2 Mg1_6 3.109966 1_455
Mg1_2 Mg1_6 3.109966 1_555
Mg1_3 Mg1_5 3.109965 1_455
Mg1_3 Mg1_5 3.109965 1_565
Mg1_3 Mg1_7 3.109966 1_555
Mg1_3 Mg1_7 3.109966 1_455
Mg1_4 Mg1_6 3.109966 1_545
Mg1_4 Mg1_6 3.109966 1_555
Mg1_5 Mg1_7 3.109966 1_545
Mg1_5 Mg1_7 3.109966 1_555
