# generated using pymatgen
data_AgH18C4S4BrN8O
_symmetry_space_group_name_H-M   'P 1'
_cell_length_a   6.53879200
_cell_length_b   11.65942600
_cell_length_c   25.55671475
_cell_angle_alpha   90.00000000
_cell_angle_beta   96.67819306
_cell_angle_gamma   90.00000000
_symmetry_Int_Tables_number   1
_chemical_formula_structural   AgH18C4S4BrN8O
_chemical_formula_sum   'Ag4 H72 C16 S16 Br4 N32 O4'
_cell_volume   1935.18719180
_cell_formula_units_Z   4
loop_
 _symmetry_equiv_pos_site_id
 _symmetry_equiv_pos_as_xyz
  1  'x, y, z'
loop_
 _atom_site_type_symbol
 _atom_site_label
 _atom_site_symmetry_multiplicity
 _atom_site_fract_x
 _atom_site_fract_y
 _atom_site_fract_z
 _atom_site_occupancy
  Ag  Ag0  1  0.62147100  0.11998100  0.99107400  1
  Ag  Ag1  1  0.37852900  0.61998100  0.50892600  1
  Ag  Ag2  1  0.37852900  0.88001900  0.00892600  1
  Ag  Ag3  1  0.62147100  0.38002000  0.49107400  1
  H  H0  1  0.05963000  0.13858100  0.87029600  1
  H  H1  1  0.94037000  0.63858100  0.62970400  1
  H  H2  1  0.94037000  0.86141900  0.12970400  1
  H  H3  1  0.05963000  0.36141900  0.37029600  1
  H  H4  1  0.26300200  0.17615200  0.91975800  1
  H  H5  1  0.73699800  0.67615200  0.58024200  1
  H  H6  1  0.73699800  0.82384800  0.08024200  1
  H  H7  1  0.26300200  0.32384800  0.41975800  1
  H  H8  1  0.06277400  0.97750100  0.82430300  1
  H  H9  1  0.93722600  0.47750100  0.67569700  1
  H  H10  1  0.93722600  0.02249900  0.17569700  1
  H  H11  1  0.06277400  0.52249900  0.32430300  1
  H  H12  1  0.26583800  0.87679300  0.83677800  1
  H  H13  1  0.73416200  0.37679300  0.66322200  1
  H  H14  1  0.73416200  0.12320700  0.16322200  1
  H  H15  1  0.26583800  0.62320700  0.33677800  1
  H  H16  1  0.88704100  0.40682100  0.91097000  1
  H  H17  1  0.11295900  0.90682100  0.58903000  1
  H  H18  1  0.11295900  0.59317900  0.08903000  1
  H  H19  1  0.88704100  0.09317900  0.41097000  1
  H  H20  1  0.87523600  0.32524600  0.96836000  1
  H  H21  1  0.12476400  0.82524600  0.53164000  1
  H  H22  1  0.12476400  0.67475400  0.03164000  1
  H  H23  1  0.87523600  0.17475400  0.46836000  1
  H  H24  1  0.59830400  0.46952400  0.86192600  1
  H  H25  1  0.40169600  0.96952400  0.63807400  1
  H  H26  1  0.40169600  0.53047600  0.13807400  1
  H  H27  1  0.59830400  0.03047600  0.36192600  1
  H  H28  1  0.35529400  0.43482500  0.87951200  1
  H  H29  1  0.64470600  0.93482500  0.62048800  1
  H  H30  1  0.64470600  0.56517500  0.12048800  1
  H  H31  1  0.35529400  0.06517500  0.37951200  1
  H  H32  1  0.18616200  0.33246300  0.13430700  1
  H  H33  1  0.81383800  0.83246300  0.36569300  1
  H  H34  1  0.81383800  0.66753700  0.86569300  1
  H  H35  1  0.18616200  0.16753700  0.63430700  1
  H  H36  1  0.29450100  0.21875600  0.10196300  1
  H  H37  1  0.70549900  0.71875600  0.39803700  1
  H  H38  1  0.70549900  0.78124400  0.89803700  1
  H  H39  1  0.29450100  0.28124400  0.60196300  1
  H  H40  1  0.85106200  0.38221200  0.11030800  1
  H  H41  1  0.14893800  0.88221200  0.38969200  1
  H  H42  1  0.14893800  0.61778800  0.88969200  1
  H  H43  1  0.85106200  0.11778800  0.61030800  1
  H  H44  1  0.70393700  0.31655500  0.05592400  1
  H  H45  1  0.29606300  0.81655500  0.44407600  1
  H  H46  1  0.29606300  0.68344500  0.94407600  1
  H  H47  1  0.70393700  0.18344500  0.55592400  1
  H  H48  1  0.33042600  0.43671000  0.77087100  1
  H  H49  1  0.66957400  0.93671000  0.72912900  1
  H  H50  1  0.66957400  0.56329000  0.22912900  1
  H  H51  1  0.33042600  0.06329000  0.27087100  1
  H  H52  1  0.58000700  0.41855800  0.75381800  1
  H  H53  1  0.41999300  0.91855800  0.74618200  1
  H  H54  1  0.41999300  0.58144200  0.24618200  1
  H  H55  1  0.58000700  0.08144200  0.25381800  1
  H  H56  1  0.10484600  0.28601500  0.76424700  1
  H  H57  1  0.89515400  0.78601500  0.73575300  1
  H  H58  1  0.89515400  0.71398500  0.23575300  1
  H  H59  1  0.10484600  0.21398500  0.26424700  1
  H  H60  1  0.16496700  0.15790100  0.73323000  1
  H  H61  1  0.83503300  0.65790100  0.76677000  1
  H  H62  1  0.83503300  0.84209900  0.26677000  1
  H  H63  1  0.16496700  0.34209900  0.23323000  1
  H  H64  1  0.71544100  0.06719500  0.84544900  1
  H  H65  1  0.28455900  0.56719500  0.65455100  1
  H  H66  1  0.28455900  0.93280500  0.15455100  1
  H  H67  1  0.71544100  0.43280500  0.34544900  1
  H  H68  1  0.74286200  0.13048400  0.79204300  1
  H  H69  1  0.25713800  0.63048400  0.70795700  1
  H  H70  1  0.25713800  0.86951600  0.20795700  1
  H  H71  1  0.74286200  0.36951600  0.29204300  1
  C  C0  1  0.29062200  0.02152800  0.88255400  1
  C  C1  1  0.70937800  0.52152800  0.61744600  1
  C  C2  1  0.70937800  0.97847200  0.11744600  1
  C  C3  1  0.29062200  0.47847200  0.38255400  1
  C  C4  1  0.59763700  0.38006100  0.93151000  1
  C  C5  1  0.40236300  0.88006100  0.56849000  1
  C  C6  1  0.40236300  0.61993900  0.06849000  1
  C  C7  1  0.59763700  0.11993900  0.43151000  1
  C  C8  1  0.99811600  0.25583500  0.07352800  1
  C  C9  1  0.00188400  0.75583500  0.42647200  1
  C  C10  1  0.00188400  0.74416500  0.92647200  1
  C  C11  1  0.99811600  0.24416500  0.57352800  1
  C  C12  1  0.39498500  0.27841800  0.74018400  1
  C  C13  1  0.60501500  0.77841800  0.75981600  1
  C  C14  1  0.60501500  0.72158200  0.25981600  1
  C  C15  1  0.39498500  0.22158200  0.24018400  1
  S  S0  1  0.52184600  0.97823200  0.91708000  1
  S  S1  1  0.47815400  0.47823200  0.58292000  1
  S  S2  1  0.47815400  0.02176800  0.08292000  1
  S  S3  1  0.52184600  0.52176800  0.41708000  1
  S  S4  1  0.44279800  0.32011800  0.97419600  1
  S  S5  1  0.55720200  0.82011800  0.52580400  1
  S  S6  1  0.55720200  0.67988200  0.02580400  1
  S  S7  1  0.44279800  0.17988200  0.47419600  1
  S  S8  1  0.99371000  0.15501000  0.02464400  1
  S  S9  1  0.00629000  0.65501000  0.47535600  1
  S  S10  1  0.00629000  0.84499000  0.97535600  1
  S  S11  1  0.99371000  0.34499000  0.52464400  1
  S  S12  1  0.57309900  0.19778800  0.71270600  1
  S  S13  1  0.42690100  0.69778800  0.78729400  1
  S  S14  1  0.42690100  0.80221200  0.28729400  1
  S  S15  1  0.57309900  0.30221200  0.21270600  1
  Br  Br0  1  0.98726600  0.47614600  0.82186400  1
  Br  Br1  1  0.01273400  0.97614600  0.67813600  1
  Br  Br2  1  0.01273400  0.52385400  0.17813600  1
  Br  Br3  1  0.98726600  0.02385400  0.32186400  1
  N  N0  1  0.19806300  0.11999000  0.89187000  1
  N  N1  1  0.80193700  0.61999000  0.60813000  1
  N  N2  1  0.80193700  0.88001000  0.10813000  1
  N  N3  1  0.19806300  0.38001000  0.39187000  1
  N  N4  1  0.20202100  0.95411100  0.84384900  1
  N  N5  1  0.79797900  0.45411100  0.65615100  1
  N  N6  1  0.79797900  0.04588900  0.15615100  1
  N  N7  1  0.20202100  0.54588900  0.34384900  1
  N  N8  1  0.80338800  0.37647600  0.93948600  1
  N  N9  1  0.19661200  0.87647600  0.56051400  1
  N  N10  1  0.19661200  0.62352400  0.06051400  1
  N  N11  1  0.80338800  0.12352400  0.43948600  1
  N  N12  1  0.51051400  0.43677400  0.88882200  1
  N  N13  1  0.48948600  0.93677400  0.61117800  1
  N  N14  1  0.48948600  0.56322600  0.11117800  1
  N  N15  1  0.51051400  0.06322600  0.38882200  1
  N  N16  1  0.17449200  0.27259700  0.10504600  1
  N  N17  1  0.82550800  0.77259700  0.39495400  1
  N  N18  1  0.82550800  0.72740300  0.89495400  1
  N  N19  1  0.17449200  0.22740300  0.60504600  1
  N  N20  1  0.83501100  0.32012300  0.08182100  1
  N  N21  1  0.16498900  0.82012300  0.41817900  1
  N  N22  1  0.16498900  0.67987700  0.91817900  1
  N  N23  1  0.83501100  0.17987700  0.58182100  1
  N  N24  1  0.43686800  0.38689100  0.75550700  1
  N  N25  1  0.56313200  0.88689100  0.74449300  1
  N  N26  1  0.56313200  0.61310900  0.24449300  1
  N  N27  1  0.43686800  0.11310900  0.25550700  1
  N  N28  1  0.20775800  0.23737200  0.74689700  1
  N  N29  1  0.79224200  0.73737200  0.75310300  1
  N  N30  1  0.79224200  0.76262800  0.25310300  1
  N  N31  1  0.20775800  0.26262800  0.24689700  1
  O  O0  1  0.81954000  0.09454100  0.82356100  1
  O  O1  1  0.18046000  0.59454100  0.67643900  1
  O  O2  1  0.18046000  0.90545900  0.17643900  1
  O  O3  1  0.81954000  0.40545900  0.32356100  1
loop_
_geom_bond_atom_site_label_1
_geom_bond_atom_site_label_2
_geom_bond_distance
_geom_bond_site_symmetry_2
Ag0 S8 2.518233 1_556
Ag0 S0 2.538768 1_545
Ag0 S4 2.622771 1_555
Ag0 S2 2.865451 1_556
Ag1 S9 2.518233 1_555
Ag1 S1 2.538768 1_555
Ag1 S5 2.622771 1_555
Ag1 S3 2.865451 1_555
Ag2 S10 2.518233 1_554
Ag2 S2 2.538768 1_565
Ag2 S6 2.622771 1_555
Ag2 S0 2.865451 1_554
Ag3 S11 2.518235 1_555
Ag3 S3 2.538760 1_555
Ag3 S7 2.622781 1_555
Ag3 S1 2.865447 1_555
H0 N0 1.026773 1_555
H1 N1 1.026773 1_555
H2 N2 1.026773 1_555
H3 N3 1.026773 1_555
H4 N0 1.023073 1_555
H5 N1 1.023073 1_555
H6 N2 1.023073 1_555
H7 N3 1.023073 1_555
H8 N4 1.023299 1_555
H9 N5 1.023299 1_555
H10 N6 1.023299 1_555
H11 N7 1.023299 1_555
H12 N4 1.018330 1_555
H13 N5 1.018330 1_555
H14 N6 1.018330 1_555
H15 N7 1.018330 1_555
H16 N8 1.023819 1_555
H17 N9 1.023819 1_555
H18 N10 1.023819 1_555
H19 N11 1.023819 1_555
H20 N8 1.020487 1_555
H21 N9 1.020487 1_555
H22 N10 1.020487 1_555
H23 N11 1.020487 1_555
H24 N12 1.019600 1_555
H25 N13 1.019600 1_555
H26 N14 1.019600 1_555
H27 N15 1.019600 1_555
H28 N12 1.015425 1_555
H29 N13 1.015425 1_555
H30 N14 1.015425 1_555
H31 N15 1.015425 1_555
H32 N16 1.019307 1_555
H33 N17 1.019307 1_555
H34 N18 1.019307 1_555
H35 N19 1.019307 1_555
H36 N16 1.015106 1_555
H37 N17 1.015106 1_555
H38 N18 1.015106 1_555
H39 N19 1.015106 1_555
H40 N20 1.023396 1_555
H41 N21 1.023396 1_555
H42 N22 1.023396 1_555
H43 N23 1.023396 1_555
H44 N20 1.020977 1_555
H45 N21 1.020977 1_555
H46 N22 1.020977 1_555
H47 N23 1.020977 1_555
H48 N24 1.019587 1_555
H49 N25 1.019587 1_555
H50 N26 1.019587 1_555
H51 N27 1.019587 1_555
H52 N24 1.011729 1_555
H53 N25 1.011729 1_555
H54 N26 1.011729 1_555
H55 N27 1.011729 1_555
H56 N28 1.020044 1_555
H57 N29 1.020044 1_555
H58 N30 1.020044 1_555
H59 N31 1.020044 1_555
H60 N28 1.017899 1_555
H61 N29 1.017899 1_555
H62 N30 1.017899 1_555
H63 N31 1.017899 1_555
H64 O0 0.983086 1_555
H65 O1 0.983086 1_555
H66 O2 0.983086 1_555
H67 O3 0.983086 1_555
H68 O0 0.990908 1_555
H69 O1 0.990908 1_555
H70 O2 0.990908 1_555
H71 O3 0.990908 1_555
C0 N0 1.332075 1_555
C0 N4 1.341148 1_545
C0 S0 1.734658 1_545
C1 N1 1.332075 1_555
C1 N5 1.341148 1_555
C1 S1 1.734658 1_555
C2 N2 1.332075 1_555
C2 N6 1.341148 1_565
C2 S2 1.734658 1_565
C3 N3 1.332075 1_555
C3 N7 1.341148 1_555
C3 S3 1.734658 1_555
C4 N8 1.337728 1_555
C4 N12 1.344406 1_555
C4 S4 1.720617 1_555
C5 N9 1.337728 1_555
C5 N13 1.344406 1_555
C5 S5 1.720617 1_555
C6 N10 1.337728 1_555
C6 N14 1.344406 1_555
C6 S6 1.720617 1_555
C7 N11 1.337728 1_555
C7 N15 1.344406 1_555
C7 S7 1.720617 1_555
C8 N20 1.340439 1_555
C8 N16 1.342022 1_655
C8 S8 1.713240 1_555
C9 N21 1.340439 1_555
C9 N17 1.342022 1_455
C9 S9 1.713240 1_555
C10 N22 1.340439 1_555
C10 N18 1.342022 1_455
C10 S10 1.713240 1_555
C11 N23 1.340439 1_555
C11 N19 1.342022 1_655
C11 S11 1.713240 1_555
C12 N24 1.342744 1_555
C12 N28 1.343903 1_555
C12 S12 1.709846 1_555
C13 N25 1.342744 1_555
C13 N29 1.343903 1_555
C13 S13 1.709846 1_555
C14 N26 1.342744 1_555
C14 N30 1.343903 1_555
C14 S14 1.709846 1_555
C15 N27 1.342744 1_555
C15 N31 1.343903 1_555
C15 S15 1.709846 1_555
