# generated using pymatgen
data_Er10In20Ni9
_symmetry_space_group_name_H-M   'P 1'
_cell_length_a   13.42703000
_cell_length_b   13.42703000
_cell_length_c   9.01267100
_cell_angle_alpha   90.00000000
_cell_angle_beta   90.00000000
_cell_angle_gamma   90.00000000
_symmetry_Int_Tables_number   1
_chemical_formula_structural   Er10In20Ni9
_chemical_formula_sum   'Er20 In40 Ni18'
_cell_volume   1624.85060453
_cell_formula_units_Z   2
loop_
 _symmetry_equiv_pos_site_id
 _symmetry_equiv_pos_as_xyz
  1  'x, y, z'
loop_
 _atom_site_type_symbol
 _atom_site_label
 _atom_site_symmetry_multiplicity
 _atom_site_fract_x
 _atom_site_fract_y
 _atom_site_fract_z
 _atom_site_occupancy
  Er  Er0  1  0.50000000  0.00000000  0.36044300  1
  Er  Er1  1  0.00000000  0.50000000  0.63955700  1
  Er  Er2  1  0.50000000  0.00000000  0.83757100  1
  Er  Er3  1  0.00000000  0.50000000  0.16242900  1
  Er  Er4  1  0.50000000  0.27650100  0.76734800  1
  Er  Er5  1  0.50000000  0.72349900  0.76734800  1
  Er  Er6  1  0.77650100  0.00000000  0.76734800  1
  Er  Er7  1  0.22349900  0.00000000  0.76734800  1
  Er  Er8  1  0.00000000  0.22349900  0.23265200  1
  Er  Er9  1  0.00000000  0.77650100  0.23265200  1
  Er  Er10  1  0.72349900  0.50000000  0.23265200  1
  Er  Er11  1  0.27650100  0.50000000  0.23265200  1
  Er  Er12  1  0.70280100  0.20280100  0.26554600  1
  Er  Er13  1  0.70280100  0.79719900  0.26554600  1
  Er  Er14  1  0.29719900  0.20280100  0.26554600  1
  Er  Er15  1  0.29719900  0.79719900  0.26554600  1
  Er  Er16  1  0.79719900  0.29719900  0.73445400  1
  Er  Er17  1  0.79719900  0.70280100  0.73445400  1
  Er  Er18  1  0.20280100  0.29719900  0.73445400  1
  Er  Er19  1  0.20280100  0.70280100  0.73445400  1
  In  In0  1  0.34654300  0.65345700  0.00000000  1
  In  In1  1  0.34654300  0.34654300  0.00000000  1
  In  In2  1  0.65345700  0.65345700  0.00000000  1
  In  In3  1  0.65345700  0.34654300  0.00000000  1
  In  In4  1  0.15345700  0.84654300  0.00000000  1
  In  In5  1  0.15345700  0.15345700  0.00000000  1
  In  In6  1  0.84654300  0.84654300  0.00000000  1
  In  In7  1  0.84654300  0.15345700  0.00000000  1
  In  In8  1  0.86884000  0.13116000  0.50000000  1
  In  In9  1  0.86884000  0.86884000  0.50000000  1
  In  In10  1  0.13116000  0.13116000  0.50000000  1
  In  In11  1  0.13116000  0.86884000  0.50000000  1
  In  In12  1  0.63116000  0.36884000  0.50000000  1
  In  In13  1  0.63116000  0.63116000  0.50000000  1
  In  In14  1  0.36884000  0.36884000  0.50000000  1
  In  In15  1  0.36884000  0.63116000  0.50000000  1
  In  In16  1  0.50000000  0.83347000  0.09359200  1
  In  In17  1  0.50000000  0.16653000  0.09359200  1
  In  In18  1  0.33347000  0.00000000  0.09359200  1
  In  In19  1  0.66653000  0.00000000  0.09359200  1
  In  In20  1  0.00000000  0.66653000  0.90640800  1
  In  In21  1  0.00000000  0.33347000  0.90640800  1
  In  In22  1  0.16653000  0.50000000  0.90640800  1
  In  In23  1  0.83347000  0.50000000  0.90640800  1
  In  In24  1  0.63193000  0.13193000  0.59021700  1
  In  In25  1  0.63193000  0.86807000  0.59021700  1
  In  In26  1  0.36807000  0.13193000  0.59021700  1
  In  In27  1  0.36807000  0.86807000  0.59021700  1
  In  In28  1  0.86807000  0.36807000  0.40978300  1
  In  In29  1  0.86807000  0.63193000  0.40978300  1
  In  In30  1  0.13193000  0.36807000  0.40978300  1
  In  In31  1  0.13193000  0.63193000  0.40978300  1
  In  In32  1  0.50000000  0.61608600  0.23565300  1
  In  In33  1  0.50000000  0.38391400  0.23565300  1
  In  In34  1  0.11608600  0.00000000  0.23565300  1
  In  In35  1  0.88391400  0.00000000  0.23565300  1
  In  In36  1  0.00000000  0.88391400  0.76434700  1
  In  In37  1  0.00000000  0.11608600  0.76434700  1
  In  In38  1  0.38391400  0.50000000  0.76434700  1
  In  In39  1  0.61608600  0.50000000  0.76434700  1
  Ni  Ni0  1  0.50000000  0.50000000  0.00000000  1
  Ni  Ni1  1  0.00000000  0.00000000  0.00000000  1
  Ni  Ni2  1  0.50000000  0.77691600  0.40935000  1
  Ni  Ni3  1  0.50000000  0.22308400  0.40935000  1
  Ni  Ni4  1  0.27691600  0.00000000  0.40935000  1
  Ni  Ni5  1  0.72308400  0.00000000  0.40935000  1
  Ni  Ni6  1  0.00000000  0.72308400  0.59065000  1
  Ni  Ni7  1  0.00000000  0.27691600  0.59065000  1
  Ni  Ni8  1  0.22308400  0.50000000  0.59065000  1
  Ni  Ni9  1  0.77691600  0.50000000  0.59065000  1
  Ni  Ni10  1  0.84405700  0.34405700  0.10190100  1
  Ni  Ni11  1  0.84405700  0.65594300  0.10190100  1
  Ni  Ni12  1  0.15594300  0.34405700  0.10190100  1
  Ni  Ni13  1  0.15594300  0.65594300  0.10190100  1
  Ni  Ni14  1  0.65594300  0.15594300  0.89809900  1
  Ni  Ni15  1  0.65594300  0.84405700  0.89809900  1
  Ni  Ni16  1  0.34405700  0.15594300  0.89809900  1
  Ni  Ni17  1  0.34405700  0.84405700  0.89809900  1
loop_
_geom_bond_atom_site_label_1
_geom_bond_atom_site_label_2
_geom_bond_distance
_geom_bond_site_symmetry_2
Er0 Ni3 3.027614 1_555
Er0 Ni5 3.027614 1_555
Er0 Ni4 3.027614 1_555
Er0 Ni2 3.027614 1_545
Er0 In27 3.250300 1_545
Er0 In26 3.250300 1_555
Er0 In25 3.250300 1_545
Er0 In24 3.250300 1_555
Er0 In18 3.283889 1_555
Er0 In16 3.283889 1_545
Er0 In17 3.283889 1_555
Er0 In19 3.283889 1_555
Er1 Ni8 3.027614 1_555
Er1 Ni6 3.027614 1_555
Er1 Ni7 3.027614 1_555
Er1 Ni9 3.027614 1_455
Er1 In28 3.250300 1_455
Er1 In30 3.250300 1_555
Er1 In29 3.250300 1_455
Er1 In31 3.250300 1_555
Er1 In21 3.283889 1_555
Er1 In23 3.283889 1_455
Er1 In22 3.283889 1_555
Er1 In20 3.283889 1_555
Er2 Ni14 3.010983 1_555
Er2 Ni15 3.010983 1_545
Er2 Ni16 3.010983 1_555
Er2 Ni17 3.010983 1_545
Er2 In16 3.213092 1_546
Er2 In18 3.213092 1_556
Er2 In17 3.213092 1_556
Er2 In19 3.213092 1_556
Er2 In27 3.353473 1_545
Er2 In25 3.353473 1_545
Er2 In26 3.353473 1_555
Er2 In24 3.353473 1_555
Er3 Ni13 3.010983 1_555
Er3 Ni11 3.010983 1_455
Er3 Ni12 3.010983 1_555
Er3 Ni10 3.010983 1_455
Er3 In23 3.213092 1_454
Er3 In21 3.213092 1_554
Er3 In22 3.213092 1_554
Er3 In20 3.213092 1_554
Er3 In28 3.353473 1_455
Er3 In29 3.353473 1_455
Er3 In30 3.353473 1_555
Er3 In31 3.353473 1_555
Er4 Ni14 2.897099 1_555
Er4 Ni16 2.897099 1_555
Er4 In26 3.074837 1_555
Er4 In24 3.074837 1_555
Er4 In3 3.086525 1_556
Er4 In1 3.086525 1_556
Er4 In14 3.231783 1_555
Er4 In12 3.231783 1_555
Er4 In17 3.290264 1_556
Er4 Ni3 3.305275 1_555
Er4 In38 3.381688 1_555
Er4 In39 3.381688 1_555
Er5 Ni15 2.897099 1_555
Er5 Ni17 2.897099 1_555
Er5 In27 3.074837 1_555
Er5 In25 3.074837 1_555
Er5 In2 3.086525 1_556
Er5 In0 3.086525 1_556
Er5 In15 3.231783 1_555
Er5 In13 3.231783 1_555
Er5 In16 3.290264 1_556
Er5 Ni2 3.305275 1_555
Er5 In38 3.381688 1_555
Er5 In39 3.381688 1_555
Er6 Ni14 2.897099 1_555
Er6 Ni15 2.897099 1_545
Er6 In25 3.074837 1_545
Er6 In24 3.074837 1_555
Er6 In7 3.086525 1_556
Er6 In6 3.086525 1_546
Er6 In9 3.231783 1_545
Er6 In8 3.231783 1_555
Er6 In19 3.290264 1_556
Er6 Ni5 3.305275 1_555
Er6 In37 3.381688 1_655
Er6 In36 3.381688 1_645
Er7 Ni16 2.897099 1_555
Er7 Ni17 2.897099 1_545
Er7 In27 3.074837 1_545
Er7 In26 3.074837 1_555
Er7 In5 3.086525 1_556
Er7 In4 3.086525 1_546
Er7 In11 3.231783 1_545
Er7 In10 3.231783 1_555
Er7 In18 3.290264 1_556
Er7 Ni4 3.305275 1_555
Er7 In37 3.381688 1_555
Er7 In36 3.381688 1_545
Er8 Ni12 2.897099 1_555
Er8 Ni10 2.897099 1_455
Er8 In28 3.074837 1_455
Er8 In30 3.074837 1_555
Er8 In5 3.086525 1_555
Er8 In7 3.086525 1_455
Er8 In8 3.231783 1_455
Er8 In10 3.231783 1_555
Er8 In21 3.290264 1_554
Er8 Ni7 3.305275 1_555
Er8 In34 3.381688 1_555
Er8 In35 3.381688 1_455
Er9 Ni13 2.897099 1_555
Er9 Ni11 2.897099 1_455
Er9 In29 3.074837 1_455
Er9 In31 3.074837 1_555
Er9 In4 3.086525 1_555
Er9 In6 3.086525 1_455
Er9 In9 3.231783 1_455
Er9 In11 3.231783 1_555
Er9 In20 3.290264 1_554
Er9 Ni6 3.305275 1_555
Er9 In34 3.381688 1_565
Er9 In35 3.381688 1_465
Er10 Ni11 2.897099 1_555
Er10 Ni10 2.897099 1_555
Er10 In28 3.074837 1_555
Er10 In29 3.074837 1_555
Er10 In2 3.086525 1_555
Er10 In3 3.086525 1_555
Er10 In12 3.231783 1_555
Er10 In13 3.231783 1_555
Er10 In23 3.290264 1_554
Er10 Ni9 3.305275 1_555
Er10 In33 3.381688 1_555
Er10 In32 3.381688 1_555
Er11 Ni13 2.897099 1_555
Er11 Ni12 2.897099 1_555
Er11 In30 3.074837 1_555
Er11 In31 3.074837 1_555
Er11 In0 3.086525 1_555
Er11 In1 3.086525 1_555
Er11 In14 3.231783 1_555
Er11 In15 3.231783 1_555
Er11 In22 3.290264 1_554
Er11 Ni8 3.305275 1_555
Er11 In33 3.381688 1_555
Er11 In32 3.381688 1_555
Er12 Ni5 3.027994 1_555
Er12 Ni3 3.027994 1_555
Er12 Ni10 3.061016 1_555
Er12 In7 3.145116 1_555
Er12 In3 3.145116 1_555
Er12 In19 3.170767 1_555
Er12 In17 3.170767 1_555
Er12 In8 3.218786 1_555
Er12 In12 3.218786 1_555
Er12 In24 3.220777 1_555
Er12 In28 3.396830 1_555
Er13 Ni5 3.027994 1_565
Er13 Ni2 3.027994 1_555
Er13 Ni11 3.061016 1_555
Er13 In6 3.145116 1_555
Er13 In2 3.145116 1_555
Er13 In19 3.170767 1_565
Er13 In16 3.170767 1_555
Er13 In13 3.218786 1_555
Er13 In9 3.218786 1_555
Er13 In25 3.220777 1_555
Er13 In29 3.396830 1_555
Er14 Ni4 3.027994 1_555
Er14 Ni3 3.027994 1_555
Er14 Ni12 3.061016 1_555
Er14 In1 3.145116 1_555
Er14 In5 3.145116 1_555
Er14 In18 3.170767 1_555
Er14 In17 3.170767 1_555
Er14 In10 3.218786 1_555
Er14 In14 3.218786 1_555
Er14 In26 3.220777 1_555
Er14 In30 3.396830 1_555
Er15 Ni4 3.027994 1_565
Er15 Ni2 3.027994 1_555
Er15 Ni13 3.061016 1_555
Er15 In0 3.145116 1_555
Er15 In4 3.145116 1_555
Er15 In18 3.170767 1_565
Er15 In16 3.170767 1_555
Er15 In11 3.218786 1_555
Er15 In15 3.218786 1_555
Er15 In27 3.220777 1_555
Er15 In31 3.396830 1_555
Er16 Ni7 3.027994 1_655
Er16 Ni9 3.027994 1_555
Er16 Ni14 3.061016 1_555
Er16 In3 3.145116 1_556
Er16 In7 3.145116 1_556
Er16 In23 3.170767 1_555
Er16 In21 3.170767 1_655
Er16 In12 3.218786 1_555
Er16 In8 3.218786 1_555
Er16 In28 3.220777 1_555
Er16 In24 3.396830 1_555
Er17 Ni6 3.027994 1_655
Er17 Ni9 3.027994 1_555
Er17 Ni15 3.061016 1_555
Er17 In6 3.145116 1_556
Er17 In2 3.145116 1_556
Er17 In23 3.170767 1_555
Er17 In20 3.170767 1_655
Er17 In13 3.218786 1_555
Er17 In9 3.218786 1_555
Er17 In29 3.220777 1_555
Er17 In25 3.396830 1_555
Er18 Ni7 3.027994 1_555
Er18 Ni8 3.027994 1_555
Er18 Ni16 3.061016 1_555
Er18 In1 3.145116 1_556
Er18 In5 3.145116 1_556
Er18 In21 3.170767 1_555
Er18 In22 3.170767 1_555
Er18 In10 3.218786 1_555
Er18 In14 3.218786 1_555
Er18 In30 3.220777 1_555
Er18 In26 3.396830 1_555
Er19 Ni6 3.027994 1_555
Er19 Ni8 3.027994 1_555
Er19 Ni17 3.061016 1_555
Er19 In4 3.145116 1_556
Er19 In0 3.145116 1_556
Er19 In20 3.170767 1_555
Er19 In22 3.170767 1_555
Er19 In11 3.218786 1_555
Er19 In15 3.218786 1_555
Er19 In31 3.220777 1_555
Er19 In27 3.396830 1_555
In0 Ni13 2.719198 1_555
In0 Ni17 2.719198 1_554
In0 Ni0 2.913947 1_555
In0 In38 3.001353 1_554
In0 In32 3.001353 1_555
In0 In22 3.286205 1_554
In0 In16 3.286205 1_555
In1 Ni12 2.719198 1_555
In1 Ni16 2.719198 1_554
In1 Ni0 2.913947 1_555
In1 In33 3.001353 1_555
In1 In38 3.001353 1_554
In1 In17 3.286205 1_555
In1 In22 3.286205 1_554
In2 Ni11 2.719198 1_555
In2 Ni15 2.719198 1_554
In2 Ni0 2.913947 1_555
In2 In32 3.001353 1_555
In2 In39 3.001353 1_554
In2 In23 3.286205 1_554
In3 Ni10 2.719198 1_555
In3 Ni14 2.719198 1_554
In3 Ni0 2.913947 1_555
In3 In33 3.001353 1_555
In3 In39 3.001353 1_554
In4 Ni13 2.719198 1_555
In4 Ni17 2.719198 1_554
In4 Ni1 2.913947 1_565
In5 Ni12 2.719198 1_555
In5 Ni16 2.719198 1_554
In5 Ni1 2.913947 1_555
In6 Ni11 2.719198 1_555
In6 Ni15 2.719198 1_554
In6 Ni1 2.913947 1_665
In7 Ni14 2.719198 1_554
In7 Ni10 2.719198 1_555
In7 Ni1 2.913947 1_655
In8 Ni7 2.756637 1_655
In8 Ni5 2.756637 1_555
In8 In9 3.522179 1_545
In9 Ni5 2.756637 1_565
In9 Ni6 2.756637 1_655
In10 Ni4 2.756637 1_555
In10 Ni7 2.756637 1_555
In10 In34 2.969609 1_555
In10 In37 2.969609 1_555
In10 In26 3.283288 1_555
In10 In30 3.283288 1_555
In10 In8 3.522179 1_455
In10 In11 3.522179 1_545
In11 Ni4 2.756637 1_565
In11 Ni6 2.756637 1_555
In11 In34 2.969609 1_565
In11 In36 2.969609 1_555
In11 In31 3.283288 1_555
In11 In27 3.283288 1_555
In11 In9 3.522179 1_455
In12 Ni9 2.756637 1_555
In12 Ni3 2.756637 1_555
In12 In39 2.969609 1_555
In12 In33 2.969609 1_555
In12 In24 3.283288 1_555
In12 In28 3.283288 1_555
In12 In13 3.522179 1_555
In12 In14 3.522179 1_555
In13 Ni9 2.756637 1_555
In13 Ni2 2.756637 1_555
In13 In39 2.969609 1_555
In13 In32 2.969609 1_555
In13 In25 3.283288 1_555
In13 In29 3.283288 1_555
In13 In15 3.522179 1_555
In14 Ni8 2.756637 1_555
In14 Ni3 2.756637 1_555
In14 In38 2.969609 1_555
In14 In33 2.969609 1_555
In14 In26 3.283288 1_555
In14 In30 3.283288 1_555
In14 In15 3.522179 1_555
In15 Ni2 2.756637 1_555
In15 Ni8 2.756637 1_555
In15 In32 2.969609 1_555
In15 In38 2.969609 1_555
In15 In31 3.283288 1_555
In15 In27 3.283288 1_555
In16 Ni15 2.740212 1_554
In16 Ni17 2.740212 1_554
In16 Ni2 2.945390 1_555
In16 In18 3.162186 1_565
In16 In19 3.162186 1_565
In16 In32 3.187289 1_555
In16 In2 3.286205 1_555
In17 Ni14 2.740212 1_554
In17 Ni16 2.740212 1_554
In17 Ni3 2.945390 1_555
In17 In18 3.162186 1_555
In17 In19 3.162186 1_555
In17 In33 3.187289 1_555
In17 In3 3.286205 1_555
In18 Ni16 2.740212 1_554
In18 Ni17 2.740212 1_544
In18 Ni4 2.945390 1_555
In18 In34 3.187289 1_555
In18 In5 3.286205 1_555
In18 In4 3.286205 1_545
In19 Ni14 2.740212 1_554
In19 Ni15 2.740212 1_544
In19 Ni5 2.945390 1_555
In19 In35 3.187289 1_555
In19 In7 3.286205 1_555
In19 In6 3.286205 1_545
In20 Ni13 2.740212 1_556
In20 Ni11 2.740212 1_456
In20 Ni6 2.945390 1_555
In20 In23 3.162186 1_455
In20 In22 3.162186 1_555
In20 In36 3.187289 1_555
In20 In4 3.286205 1_556
In20 In6 3.286205 1_456
In21 Ni12 2.740212 1_556
In21 Ni10 2.740212 1_456
In21 Ni7 2.945390 1_555
In21 In23 3.162186 1_455
In21 In22 3.162186 1_555
In21 In37 3.187289 1_555
In21 In5 3.286205 1_556
In21 In7 3.286205 1_456
In22 Ni13 2.740212 1_556
In22 Ni12 2.740212 1_556
In22 Ni8 2.945390 1_555
In22 In38 3.187289 1_555
In23 Ni11 2.740212 1_556
In23 Ni10 2.740212 1_556
In23 Ni9 2.945390 1_555
In23 In39 3.187289 1_555
In23 In3 3.286205 1_556
In24 Ni3 2.700586 1_555
In24 Ni5 2.700586 1_555
In24 Ni14 2.812054 1_555
In24 In8 3.283288 1_555
In25 Ni5 2.700586 1_565
In25 Ni2 2.700586 1_555
In25 Ni15 2.812054 1_555
In25 In9 3.283288 1_555
In26 Ni3 2.700586 1_555
In26 Ni4 2.700586 1_555
In26 Ni16 2.812054 1_555
In27 Ni4 2.700586 1_565
In27 Ni2 2.700586 1_555
In27 Ni17 2.812054 1_555
In28 Ni7 2.700586 1_655
In28 Ni9 2.700586 1_555
In28 Ni10 2.812054 1_555
In28 In8 3.283288 1_555
In29 Ni6 2.700586 1_655
In29 Ni9 2.700586 1_555
In29 Ni11 2.812054 1_555
In29 In9 3.283288 1_555
In30 Ni8 2.700586 1_555
In30 Ni7 2.700586 1_555
In30 Ni12 2.812054 1_555
In31 Ni8 2.700586 1_555
In31 Ni6 2.700586 1_555
In31 Ni13 2.812054 1_555
In32 Ni0 2.634447 1_555
In32 Ni2 2.667211 1_555
In32 In33 3.117380 1_555
In33 Ni0 2.634447 1_555
In33 Ni3 2.667211 1_555
In34 Ni1 2.634447 1_555
In34 Ni4 2.667211 1_555
In34 In5 3.001353 1_555
In34 In4 3.001353 1_545
In34 In35 3.117380 1_455
In35 Ni1 2.634447 1_655
In35 Ni5 2.667211 1_555
In35 In9 2.969609 1_545
In35 In8 2.969609 1_555
In35 In7 3.001353 1_555
In35 In6 3.001353 1_545
In36 Ni1 2.634447 1_566
In36 Ni6 2.667211 1_555
In36 In9 2.969609 1_455
In36 In4 3.001353 1_556
In36 In6 3.001353 1_456
In36 In37 3.117380 1_565
In37 Ni1 2.634447 1_556
In37 Ni7 2.667211 1_555
In37 In8 2.969609 1_455
In37 In5 3.001353 1_556
In37 In7 3.001353 1_456
In38 Ni0 2.634447 1_556
In38 Ni8 2.667211 1_555
In38 In39 3.117380 1_555
In39 Ni0 2.634447 1_556
In39 Ni9 2.667211 1_555
