# generated using pymatgen
data_BaPrCuTe3
_symmetry_space_group_name_H-M   'P 1'
_cell_length_a   7.89252463
_cell_length_b   7.89252463
_cell_length_c   11.81531600
_cell_angle_alpha   90.00000000
_cell_angle_beta   90.00000000
_cell_angle_gamma   146.66905489
_symmetry_Int_Tables_number   1
_chemical_formula_structural   BaPrCuTe3
_chemical_formula_sum   'Ba2 Pr2 Cu2 Te6'
_cell_volume   404.41243543
_cell_formula_units_Z   2
loop_
 _symmetry_equiv_pos_site_id
 _symmetry_equiv_pos_as_xyz
  1  'x, y, z'
loop_
 _atom_site_type_symbol
 _atom_site_label
 _atom_site_symmetry_multiplicity
 _atom_site_fract_x
 _atom_site_fract_y
 _atom_site_fract_z
 _atom_site_occupancy
  Ba  Ba0  1  0.25261600  0.74738400  0.25000000  1
  Ba  Ba1  1  0.74738400  0.25261600  0.75000000  1
  Pr  Pr0  1  0.00000000  0.00000000  0.00000000  1
  Pr  Pr1  1  0.00000000  0.00000000  0.50000000  1
  Cu  Cu0  1  0.53524300  0.46475700  0.25000000  1
  Cu  Cu1  1  0.46475700  0.53524300  0.75000000  1
  Te  Te0  1  0.64010100  0.35989900  0.06794800  1
  Te  Te1  1  0.35989900  0.64010100  0.93205200  1
  Te  Te2  1  0.35989900  0.64010100  0.56794800  1
  Te  Te3  1  0.64010100  0.35989900  0.43205200  1
  Te  Te4  1  0.92957800  0.07042200  0.25000000  1
  Te  Te5  1  0.07042200  0.92957800  0.75000000  1
loop_
_geom_bond_atom_site_label_1
_geom_bond_atom_site_label_2
_geom_bond_distance
_geom_bond_site_symmetry_2
Ba0 Te4 3.504891 1_455
Ba0 Te4 3.504891 1_565
Ba0 Te3 3.555971 1_565
Ba0 Te0 3.555971 1_565
Ba0 Te0 3.555971 1_455
Ba0 Te3 3.555971 1_455
Ba0 Te1 4.091996 1_554
Ba0 Te2 4.091996 1_555
Ba1 Te5 3.504891 1_545
Ba1 Te5 3.504891 1_655
Ba1 Te2 3.555971 1_655
Ba1 Te1 3.555971 1_655
Ba1 Te1 3.555971 1_545
Ba1 Te2 3.555971 1_545
Ba1 Te0 4.091996 1_556
Ba1 Te3 4.091996 1_555
Pr0 Te5 3.139931 1_544
Pr0 Te4 3.139931 1_455
Pr0 Te0 3.202532 1_555
Pr0 Te1 3.202532 1_554
Pr0 Te1 3.202532 1_444
Pr0 Te0 3.202532 1_445
Pr1 Te5 3.139931 1_545
Pr1 Te4 3.139931 1_455
Pr1 Te3 3.202532 1_555
Pr1 Te2 3.202532 1_555
Pr1 Te2 3.202532 1_445
Pr1 Te3 3.202532 1_445
Cu0 Te3 2.672291 1_555
Cu0 Te0 2.672291 1_555
Cu0 Te4 2.770624 1_565
Cu0 Te4 2.770624 1_455
Cu1 Te2 2.672291 1_555
Cu1 Te1 2.672291 1_555
Cu1 Te5 2.770624 1_655
Cu1 Te5 2.770624 1_545
