# generated using pymatgen
data_Te2W2SeS
_symmetry_space_group_name_H-M   'P 1'
_cell_length_a   3.39841326
_cell_length_b   3.39841326
_cell_length_c   39.08121700
_cell_angle_alpha   90.00000000
_cell_angle_beta   90.00000000
_cell_angle_gamma   119.99998556
_symmetry_Int_Tables_number   1
_chemical_formula_structural   Te2W2SeS
_chemical_formula_sum   'Te4 W4 Se2 S2'
_cell_volume   390.88693332
_cell_formula_units_Z   2
loop_
 _symmetry_equiv_pos_site_id
 _symmetry_equiv_pos_as_xyz
  1  'x, y, z'
loop_
 _atom_site_type_symbol
 _atom_site_label
 _atom_site_symmetry_multiplicity
 _atom_site_fract_x
 _atom_site_fract_y
 _atom_site_fract_z
 _atom_site_occupancy
  Te  Te0  1  0.33333300  0.66666700  0.32975600  1
  Te  Te1  1  0.66666700  0.33333300  0.42164900  1
  Te  Te2  1  0.66666700  0.33333300  0.51800900  1
  Te  Te3  1  0.33333300  0.66666700  0.23340600  1
  W  W0  1  0.33333300  0.66666700  0.09390500  1
  W  W1  1  0.33333300  0.66666700  0.46985800  1
  W  W2  1  0.66666700  0.33333300  0.28155700  1
  W  W3  1  0.66666700  0.33333300  0.65760300  1
  Se  Se0  1  0.33333300  0.66666700  0.69994000  1
  Se  Se1  1  0.33333300  0.66666700  0.61521900  1
  S  S0  1  0.66666700  0.33333300  0.05537600  1
  S  S1  1  0.66666700  0.33333300  0.13247100  1
loop_
_geom_bond_atom_site_label_1
_geom_bond_atom_site_label_2
_geom_bond_distance
_geom_bond_site_symmetry_2
Te0 W2 2.719920 1_455
Te0 W2 2.719920 1_565
Te0 W2 2.719924 1_555
Te1 W1 2.720191 1_545
Te1 W1 2.720191 1_655
Te1 W1 2.720195 1_555
Te2 W1 2.718621 1_545
Te2 W1 2.718621 1_655
Te2 W1 2.718625 1_555
Te3 W2 2.718621 1_455
Te3 W2 2.718621 1_565
Te3 W2 2.718625 1_555
Se0 W3 2.566587 1_455
Se0 W3 2.566587 1_565
Se0 W3 2.566592 1_555
Se1 W3 2.567772 1_455
Se1 W3 2.567772 1_565
Se1 W3 2.567776 1_555
S0 W0 2.473266 1_545
S0 W0 2.473266 1_655
S0 W0 2.473270 1_555
S1 W0 2.474147 1_545
S1 W0 2.474147 1_655
S1 W0 2.474151 1_555
