# generated using pymatgen
data_Mg2Si3
_symmetry_space_group_name_H-M   'P 1'
_cell_length_a   4.66893500
_cell_length_b   5.40346530
_cell_length_c   15.22518923
_cell_angle_alpha   91.72167069
_cell_angle_beta   94.17829818
_cell_angle_gamma   113.57130506
_symmetry_Int_Tables_number   1
_chemical_formula_structural   Mg2Si3
_chemical_formula_sum   'Mg8 Si12'
_cell_volume   350.38653787
_cell_formula_units_Z   4
loop_
 _symmetry_equiv_pos_site_id
 _symmetry_equiv_pos_as_xyz
  1  'x, y, z'
loop_
 _atom_site_type_symbol
 _atom_site_label
 _atom_site_symmetry_multiplicity
 _atom_site_fract_x
 _atom_site_fract_y
 _atom_site_fract_z
 _atom_site_occupancy
  Mg  Mg0  1  0.82537900  0.69267300  0.49017300  1
  Mg  Mg1  1  0.64248400  0.30574500  0.99086800  1
  Mg  Mg2  1  0.97134200  0.96233400  0.68448000  1
  Mg  Mg3  1  0.47494900  0.93324300  0.82116200  1
  Mg  Mg4  1  0.35751600  0.69425500  0.00913200  1
  Mg  Mg5  1  0.17462100  0.30732700  0.50982700  1
  Mg  Mg6  1  0.52505100  0.06675700  0.17883800  1
  Mg  Mg7  1  0.02865800  0.03766600  0.31552000  1
  Si  Si0  1  0.26973900  0.55366500  0.68530800  1
  Si  Si1  1  0.75247900  0.50505400  0.80872400  1
  Si  Si2  1  0.68442700  0.37661200  0.64868100  1
  Si  Si3  1  0.17659800  0.32242600  0.84026200  1
  Si  Si4  1  0.02093200  0.08648300  0.07940200  1
  Si  Si5  1  0.56464800  0.07580300  0.42338000  1
  Si  Si6  1  0.82340200  0.67757400  0.15973800  1
  Si  Si7  1  0.73026100  0.44633500  0.31469200  1
  Si  Si8  1  0.24752100  0.49494600  0.19127600  1
  Si  Si9  1  0.31557300  0.62338800  0.35131900  1
  Si  Si10  1  0.43535200  0.92419700  0.57662000  1
  Si  Si11  1  0.97906800  0.91351700  0.92059800  1
loop_
_geom_bond_atom_site_label_1
_geom_bond_atom_site_label_2
_geom_bond_distance
_geom_bond_site_symmetry_2
Mg0 Si10 2.813079 1_655
Mg0 Si7 2.871894 1_555
Mg0 Si10 2.947168 1_555
Mg0 Si2 2.958724 1_555
Mg0 Si5 2.960338 1_565
Mg0 Si9 2.963369 1_555
Mg0 Mg2 3.161090 1_555
Mg0 Si5 3.161836 1_555
Mg0 Mg7 3.270691 1_665
Mg1 Si4 2.786744 1_656
Mg1 Si1 3.009775 1_555
Mg1 Si11 3.059600 1_445
Mg1 Si6 3.062105 1_556
Mg1 Si3 3.072436 1_555
Mg1 Mg3 3.077834 1_545
Mg1 Si4 3.091659 1_556
Mg1 Mg6 3.169076 1_556
Mg2 Si10 2.823143 1_555
Mg2 Si3 2.868790 1_665
Mg2 Si10 2.878859 1_655
Mg2 Si2 2.916756 1_555
Mg2 Si0 2.930088 1_665
Mg2 Si1 3.044829 1_555
Mg2 Si0 3.045827 1_655
Mg2 Si2 3.076987 1_565
Mg2 Mg3 3.079967 1_655
Mg2 Si0 3.135174 1_555
Mg2 Mg3 3.187130 1_555
Mg2 Mg5 3.270691 1_665
Mg2 Si2 3.281733 1_665
Mg3 Si0 2.699565 1_555
Mg3 Si11 2.744875 1_555
Mg3 Si11 2.826087 1_455
Mg3 Si1 2.851386 1_565
Mg3 Si3 2.968573 1_565
Mg3 Si3 3.059102 1_555
Mg3 Si1 3.078198 1_555
Mg3 Si3 3.090862 1_665
Mg3 Mg4 3.169076 1_556
Mg3 Si1 3.225838 1_455
Mg4 Si11 2.786744 1_454
Mg4 Si8 3.009775 1_555
Mg4 Si4 3.059600 1_665
Mg4 Si3 3.062105 1_554
Mg4 Si6 3.072436 1_555
Mg4 Mg6 3.077834 1_565
Mg4 Si11 3.091659 1_554
Mg5 Si5 2.813079 1_455
Mg5 Si0 2.871894 1_555
Mg5 Si5 2.947168 1_555
Mg5 Si9 2.958724 1_555
Mg5 Si10 2.960338 1_545
Mg5 Si2 2.963369 1_555
Mg5 Mg7 3.161090 1_555
Mg5 Si10 3.161836 1_555
Mg6 Si7 2.699565 1_555
Mg6 Si4 2.744875 1_555
Mg6 Si4 2.826087 1_655
Mg6 Si8 2.851386 1_545
Mg6 Si6 2.968573 1_545
Mg6 Si6 3.059102 1_555
Mg6 Si8 3.078198 1_555
Mg6 Mg7 3.079967 1_655
Mg6 Si6 3.090862 1_445
Mg6 Mg7 3.187130 1_555
Mg6 Si8 3.225838 1_655
Mg7 Si5 2.823143 1_555
Mg7 Si6 2.868790 1_445
Mg7 Si5 2.878859 1_455
Mg7 Si9 2.916756 1_555
Mg7 Si7 2.930088 1_445
Mg7 Si8 3.044829 1_555
Mg7 Si7 3.045827 1_455
Mg7 Si9 3.076987 1_545
Mg7 Si7 3.135174 1_555
Mg7 Si9 3.281733 1_445
Si0 Si2 2.519770 1_455
Si0 Si10 2.547988 1_555
Si0 Si2 2.565474 1_555
Si0 Si3 2.684817 1_555
Si1 Si2 2.475736 1_555
Si1 Si3 2.555054 1_555
Si1 Si11 2.556534 1_555
Si1 Si3 2.564815 1_655
Si4 Si6 2.434261 1_445
Si4 Si8 2.556534 1_555
Si5 Si9 2.431347 1_545
Si5 Si7 2.547988 1_555
Si6 Si8 2.555054 1_555
Si6 Si8 2.564815 1_655
Si6 Si7 2.684817 1_555
Si7 Si9 2.519770 1_655
Si7 Si9 2.565474 1_555
Si8 Si9 2.475736 1_555
Si10 Si2 2.431347 1_565
Si10 Si5 2.530508 1_565
Si11 Si3 2.434261 1_665
Si11 Si4 2.531169 1_666
