# generated using pymatgen
data_CdRe2H8C2S2(NO2)4
_symmetry_space_group_name_H-M   'P 1'
_cell_length_a   6.16929800
_cell_length_b   11.83427800
_cell_length_c   10.89403005
_cell_angle_alpha   90.00000000
_cell_angle_beta   93.92601239
_cell_angle_gamma   90.00000000
_symmetry_Int_Tables_number   1
_chemical_formula_structural   CdRe2H8C2S2(NO2)4
_chemical_formula_sum   'Cd2 Re4 H16 C4 S4 N8 O16'
_cell_volume   793.49780007
_cell_formula_units_Z   2
loop_
 _symmetry_equiv_pos_site_id
 _symmetry_equiv_pos_as_xyz
  1  'x, y, z'
loop_
 _atom_site_type_symbol
 _atom_site_label
 _atom_site_symmetry_multiplicity
 _atom_site_fract_x
 _atom_site_fract_y
 _atom_site_fract_z
 _atom_site_occupancy
  Cd  Cd0  1  0.00000000  0.00000000  0.00000000  1
  Cd  Cd1  1  0.00000000  0.50000000  0.50000000  1
  Re  Re0  1  0.48540200  0.77923300  0.94178400  1
  Re  Re1  1  0.51459800  0.27923300  0.55821600  1
  Re  Re2  1  0.51459800  0.22076700  0.05821600  1
  Re  Re3  1  0.48540200  0.72076700  0.44178400  1
  H  H0  1  0.62574300  0.04162700  0.34947800  1
  H  H1  1  0.37425700  0.54162700  0.15052200  1
  H  H2  1  0.37425700  0.95837300  0.65052200  1
  H  H3  1  0.62574300  0.45837300  0.84947800  1
  H  H4  1  0.69129700  0.92484600  0.25944300  1
  H  H5  1  0.30870300  0.42484600  0.24055700  1
  H  H6  1  0.30870300  0.07515400  0.74055700  1
  H  H7  1  0.69129700  0.57515400  0.75944300  1
  H  H8  1  0.89765600  0.17531000  0.40512500  1
  H  H9  1  0.10234400  0.67531000  0.09487500  1
  H  H10  1  0.10234400  0.82469000  0.59487500  1
  H  H11  1  0.89765600  0.32469000  0.90512500  1
  H  H12  1  0.15786900  0.15666300  0.35433500  1
  H  H13  1  0.84213100  0.65666300  0.14566500  1
  H  H14  1  0.84213100  0.84333700  0.64566500  1
  H  H15  1  0.15786900  0.34333700  0.85433500  1
  C  C0  1  0.93999500  0.03466300  0.29805800  1
  C  C1  1  0.06000500  0.53466300  0.20194200  1
  C  C2  1  0.06000500  0.96533700  0.70194200  1
  C  C3  1  0.93999500  0.46533700  0.79805800  1
  S  S0  1  0.12835600  0.95881700  0.21974200  1
  S  S1  1  0.87164400  0.45881700  0.28025800  1
  S  S2  1  0.87164400  0.04118300  0.78025800  1
  S  S3  1  0.12835600  0.54118300  0.71974200  1
  N  N0  1  0.73642500  0.99886300  0.30136000  1
  N  N1  1  0.26357500  0.49886300  0.19864000  1
  N  N2  1  0.26357500  0.00113700  0.69864000  1
  N  N3  1  0.73642500  0.50113700  0.80136000  1
  N  N4  1  0.00333500  0.12821400  0.35893300  1
  N  N5  1  0.99666500  0.62821400  0.14106700  1
  N  N6  1  0.99666500  0.87178600  0.64106700  1
  N  N7  1  0.00333500  0.37178600  0.85893300  1
  O  O0  1  0.21888100  0.83218000  0.94938400  1
  O  O1  1  0.78111900  0.33218000  0.55061600  1
  O  O2  1  0.78111900  0.16782000  0.05061600  1
  O  O3  1  0.21888100  0.66782000  0.44938400  1
  O  O4  1  0.67378800  0.87202300  0.01719300  1
  O  O5  1  0.32621200  0.37202300  0.48280700  1
  O  O6  1  0.32621200  0.12797700  0.98280700  1
  O  O7  1  0.67378800  0.62797700  0.51719300  1
  O  O8  1  0.54652700  0.76268300  0.78879900  1
  O  O9  1  0.45347300  0.26268300  0.71120100  1
  O  O10  1  0.45347300  0.23731700  0.21120100  1
  O  O11  1  0.54652700  0.73731700  0.28879900  1
  O  O12  1  0.50197500  0.64736800  0.01506200  1
  O  O13  1  0.49802500  0.14736800  0.48493800  1
  O  O14  1  0.49802500  0.35263200  0.98493800  1
  O  O15  1  0.50197500  0.85263200  0.51506200  1
loop_
_geom_bond_atom_site_label_1
_geom_bond_atom_site_label_2
_geom_bond_distance
_geom_bond_site_symmetry_2
Cd0 O0 2.484703 1_544
Cd0 O2 2.484703 1_455
Cd0 S0 2.517071 1_545
Cd0 S2 2.517071 1_454
Cd0 O6 2.535864 1_554
Cd0 O4 2.535864 1_445
Cd1 O3 2.484703 1_555
Cd1 O1 2.484703 1_455
Cd1 S1 2.517071 1_455
Cd1 S3 2.517071 1_555
Cd1 O7 2.535864 1_455
Cd1 O5 2.535864 1_555
H0 N0 1.022827 1_545
H1 N1 1.022827 1_555
H2 N2 1.022827 1_565
H3 N3 1.022827 1_555
H4 N0 1.017789 1_555
H5 N1 1.017789 1_555
H6 N2 1.017789 1_555
H7 N3 1.017789 1_555
H8 N4 1.016783 1_655
H9 N5 1.016783 1_455
H10 N6 1.016783 1_455
H11 N7 1.016783 1_655
H12 N4 1.015532 1_555
H13 N5 1.015532 1_555
H14 N6 1.015532 1_555
H15 N7 1.015532 1_555
C0 N0 1.328239 1_545
C0 N4 1.335177 1_655
C0 S0 1.737729 1_645
C1 N1 1.328239 1_555
C1 N5 1.335177 1_455
C1 S1 1.737729 1_455
C2 N2 1.328239 1_565
C2 N6 1.335177 1_455
C2 S2 1.737729 1_465
C3 N3 1.328239 1_555
C3 N7 1.335177 1_655
C3 S3 1.737729 1_655
O0 Re0 1.766822 1_555
O1 Re1 1.766822 1_555
O2 Re2 1.766822 1_555
O3 Re3 1.766822 1_555
O4 Re0 1.760879 1_554
O5 Re1 1.760879 1_555
O6 Re2 1.760879 1_556
O7 Re3 1.760879 1_555
O8 Re0 1.744780 1_555
O9 Re1 1.744780 1_555
O10 Re2 1.744780 1_555
O11 Re3 1.744780 1_555
O12 Re0 1.752653 1_554
O13 Re1 1.752653 1_555
O14 Re2 1.752653 1_556
O15 Re3 1.752653 1_555
