# generated using pymatgen
data_B11H11C4SI10NF
_symmetry_space_group_name_H-M   'P 1'
_cell_length_a   10.57193847
_cell_length_b   17.49963342
_cell_length_c   18.41870779
_cell_angle_alpha   90.00000000
_cell_angle_beta   93.07301236
_cell_angle_gamma   90.00000000
_symmetry_Int_Tables_number   1
_chemical_formula_structural   B11H11C4SI10NF
_chemical_formula_sum   'B44 H44 C16 S4 I40 N4 F4'
_cell_volume   3402.65396148
_cell_formula_units_Z   4
loop_
 _symmetry_equiv_pos_site_id
 _symmetry_equiv_pos_as_xyz
  1  'x, y, z'
loop_
 _atom_site_type_symbol
 _atom_site_label
 _atom_site_symmetry_multiplicity
 _atom_site_fract_x
 _atom_site_fract_y
 _atom_site_fract_z
 _atom_site_occupancy
  B  B0  1  0.23213334  0.86084139  0.89909469  1
  B  B1  1  0.73213334  0.63915861  0.39909469  1
  B  B2  1  0.76786666  0.13915861  0.10090531  1
  B  B3  1  0.26786666  0.36084139  0.60090531  1
  B  B4  1  0.15268849  0.81747524  0.97226311  1
  B  B5  1  0.65268849  0.68252476  0.47226311  1
  B  B6  1  0.84731151  0.18252476  0.02773689  1
  B  B7  1  0.34731151  0.31747524  0.52773689  1
  B  B8  1  0.26822610  0.78414757  0.04024185  1
  B  B9  1  0.76822610  0.71585243  0.54024185  1
  B  B10  1  0.73177390  0.21585243  0.95975815  1
  B  B11  1  0.23177390  0.28414757  0.45975815  1
  B  B12  1  0.41897016  0.81204515  0.01048215  1
  B  B13  1  0.91897016  0.68795485  0.51048215  1
  B  B14  1  0.58102984  0.18795485  0.98951785  1
  B  B15  1  0.08102984  0.31204515  0.48951785  1
  B  B16  1  0.39752582  0.85852578  0.92309220  1
  B  B17  1  0.89752582  0.64147422  0.42309220  1
  B  B18  1  0.60247418  0.14147422  0.07690780  1
  B  B19  1  0.10247418  0.35852578  0.57690780  1
  B  B20  1  0.17672801  0.76589737  0.88948928  1
  B  B21  1  0.67672801  0.73410263  0.38948928  1
  B  B22  1  0.82327199  0.23410263  0.11051072  1
  B  B23  1  0.32327199  0.26589737  0.61051072  1
  B  B24  1  0.19941628  0.71829563  0.97587830  1
  B  B25  1  0.69941628  0.78170437  0.47587830  1
  B  B26  1  0.80058372  0.28170437  0.02412170  1
  B  B27  1  0.30058372  0.21829563  0.52412170  1
  B  B28  1  0.36650147  0.71522497  0.99970158  1
  B  B29  1  0.86650147  0.78477503  0.49970158  1
  B  B30  1  0.63349853  0.28477503  0.00029842  1
  B  B31  1  0.13349853  0.21522497  0.50029842  1
  B  B32  1  0.44675248  0.76157222  0.92824354  1
  B  B33  1  0.94675248  0.73842778  0.42824354  1
  B  B34  1  0.55324752  0.23842778  0.07175646  1
  B  B35  1  0.05324752  0.26157222  0.57175646  1
  B  B36  1  0.32966773  0.79100017  0.85939925  1
  B  B37  1  0.82966773  0.70899983  0.35939925  1
  B  B38  1  0.67033227  0.20899983  0.14060075  1
  B  B39  1  0.17033227  0.29100017  0.64060075  1
  B  B40  1  0.31039202  0.70290684  0.90663974  1
  B  B41  1  0.81039202  0.79709316  0.40663974  1
  B  B42  1  0.68960798  0.29709316  0.09336026  1
  B  B43  1  0.18960798  0.20290684  0.59336026  1
  H  H0  1  0.20081382  0.96989153  0.01718897  1
  H  H1  1  0.70081382  0.53010847  0.51718897  1
  H  H2  1  0.79918618  0.03010847  0.98281103  1
  H  H3  1  0.29918618  0.46989153  0.48281103  1
  H  H4  1  0.35955367  0.97428502  0.02365058  1
  H  H5  1  0.85955367  0.52571498  0.52365058  1
  H  H6  1  0.64044633  0.02571498  0.97634942  1
  H  H7  1  0.14044633  0.47428502  0.47634942  1
  H  H8  1  0.29543515  0.09891157  0.17403959  1
  H  H9  1  0.79543515  0.40108843  0.67403959  1
  H  H10  1  0.70456485  0.90108843  0.82596041  1
  H  H11  1  0.20456485  0.59891157  0.32596041  1
  H  H12  1  0.15071221  0.07858770  0.21625524  1
  H  H13  1  0.65071221  0.42141230  0.71625524  1
  H  H14  1  0.84928779  0.92141230  0.78374476  1
  H  H15  1  0.34928779  0.57858770  0.28374476  1
  H  H16  1  0.23596992  0.00187868  0.17419251  1
  H  H17  1  0.73596992  0.49812132  0.67419251  1
  H  H18  1  0.76403008  0.99812132  0.82580749  1
  H  H19  1  0.26403008  0.50187868  0.32580749  1
  H  H20  1  0.15606302  0.98835129  0.34694717  1
  H  H21  1  0.65606302  0.51164871  0.84694717  1
  H  H22  1  0.84393698  0.01164871  0.65305283  1
  H  H23  1  0.34393698  0.48835129  0.15305283  1
  H  H24  1  0.30311994  0.94688541  0.37902375  1
  H  H25  1  0.80311994  0.55311459  0.87902375  1
  H  H26  1  0.69688006  0.05311459  0.62097625  1
  H  H27  1  0.19688006  0.44688541  0.12097625  1
  H  H28  1  0.23242486  0.91796588  0.29192319  1
  H  H29  1  0.73242486  0.58203412  0.79192319  1
  H  H30  1  0.76757514  0.08203412  0.70807681  1
  H  H31  1  0.26757514  0.41796588  0.20807681  1
  H  H32  1  0.43767147  0.94027321  0.22817394  1
  H  H33  1  0.93767147  0.55972679  0.72817394  1
  H  H34  1  0.56232853  0.05972679  0.77182606  1
  H  H35  1  0.06232853  0.44027321  0.27182606  1
  H  H36  1  0.52380650  0.97158678  0.31016915  1
  H  H37  1  0.02380650  0.52841322  0.81016915  1
  H  H38  1  0.47619350  0.02841322  0.68983085  1
  H  H39  1  0.97619350  0.47158678  0.18983085  1
  H  H40  1  0.52511420  0.02931782  0.22977273  1
  H  H41  1  0.02511420  0.47068218  0.72977273  1
  H  H42  1  0.47488580  0.97068218  0.77022727  1
  H  H43  1  0.97488580  0.52931782  0.27022727  1
  C  C0  1  0.28855813  0.87024428  0.99117115  1
  C  C1  1  0.78855813  0.62975572  0.49117115  1
  C  C2  1  0.71144187  0.12975572  0.00882885  1
  C  C3  1  0.21144187  0.37024428  0.50882885  1
  C  C4  1  0.24418096  0.05583249  0.20442116  1
  C  C5  1  0.74418096  0.44416751  0.70442116  1
  C  C6  1  0.75581904  0.94416751  0.79557884  1
  C  C7  1  0.25581904  0.55583249  0.29557884  1
  C  C8  1  0.24657895  0.96530940  0.33044309  1
  C  C9  1  0.74657895  0.53469060  0.83044309  1
  C  C10  1  0.75342105  0.03469060  0.66955691  1
  C  C11  1  0.25342105  0.46530940  0.16955691  1
  C  C12  1  0.46859604  0.98980233  0.26100263  1
  C  C13  1  0.96859604  0.51019767  0.76100263  1
  C  C14  1  0.53140396  0.01019767  0.73899737  1
  C  C15  1  0.03140396  0.48980233  0.23899737  1
  S  S0  1  0.33272563  0.04123723  0.28945147  1
  S  S1  1  0.83272563  0.45876277  0.78945147  1
  S  S2  1  0.66727437  0.95876277  0.71054853  1
  S  S3  1  0.16727437  0.54123723  0.21054853  1
  I  I0  1  0.15918584  0.96111941  0.84277529  1
  I  I1  1  0.65918584  0.53888059  0.34277529  1
  I  I2  1  0.84081416  0.03888059  0.15722471  1
  I  I3  1  0.34081416  0.46111941  0.65722471  1
  I  I4  1  0.97025544  0.85862722  0.00293179  1
  I  I5  1  0.47025544  0.64137278  0.50293179  1
  I  I6  1  0.02974456  0.14137278  0.99706821  1
  I  I7  1  0.52974456  0.35862722  0.49706821  1
  I  I8  1  0.22542473  0.78764245  0.15350948  1
  I  I9  1  0.72542473  0.71235755  0.65350948  1
  I  I10  1  0.77457527  0.21235755  0.84649052  1
  I  I11  1  0.27457527  0.28764245  0.34649052  1
  I  I12  1  0.57117593  0.85318052  0.08305067  1
  I  I13  1  0.07117593  0.64681948  0.58305067  1
  I  I14  1  0.42882407  0.14681948  0.91694933  1
  I  I15  1  0.92882407  0.35318052  0.41694933  1
  I  I16  1  0.02036365  0.74098736  0.81182383  1
  I  I17  1  0.52036365  0.75901264  0.31182383  1
  I  I18  1  0.97963635  0.25901264  0.18817617  1
  I  I19  1  0.47963635  0.24098736  0.68817617  1
  I  I20  1  0.06758144  0.63043851  0.00735173  1
  I  I21  1  0.56758144  0.86956149  0.50735173  1
  I  I22  1  0.93241856  0.36956149  0.99264827  1
  I  I23  1  0.43241856  0.13043851  0.49264827  1
  I  I24  1  0.46038377  0.62542888  0.06322368  1
  I  I25  1  0.96038377  0.87457112  0.56322368  1
  I  I26  1  0.53961623  0.37457112  0.93677632  1
  I  I27  1  0.03961623  0.12542888  0.43677632  1
  I  I28  1  0.63912754  0.73452452  0.90105879  1
  I  I29  1  0.13912754  0.76547548  0.40105879  1
  I  I30  1  0.36087246  0.26547548  0.09894121  1
  I  I31  1  0.86087246  0.23452452  0.59894121  1
  I  I32  1  0.37040981  0.79677531  0.74532497  1
  I  I33  1  0.87040981  0.70322469  0.24532497  1
  I  I34  1  0.62959019  0.20322469  0.25467503  1
  I  I35  1  0.12959019  0.29677531  0.75467503  1
  I  I36  1  0.32506946  0.59361927  0.85184726  1
  I  I37  1  0.82506946  0.90638073  0.35184726  1
  I  I38  1  0.67493054  0.40638073  0.14815274  1
  I  I39  1  0.17493054  0.09361927  0.64815274  1
  N  N0  1  0.28209845  0.94008322  0.02896084  1
  N  N1  1  0.78209845  0.55991678  0.52896084  1
  N  N2  1  0.71790155  0.05991678  0.97103916  1
  N  N3  1  0.21790155  0.44008322  0.47103916  1
  F  F0  1  0.47370505  0.91885004  0.90738938  1
  F  F1  1  0.97370505  0.58114996  0.40738938  1
  F  F2  1  0.52629495  0.08114996  0.09261062  1
  F  F3  1  0.02629495  0.41885004  0.59261062  1
loop_
_geom_bond_atom_site_label_1
_geom_bond_atom_site_label_2
_geom_bond_distance
_geom_bond_site_symmetry_2
B0 B20 1.767432 1_555
B0 C0 1.774999 1_555
B0 B16 1.780861 1_555
B0 B36 1.781118 1_555
B0 B4 1.794127 1_555
B0 I0 2.159734 1_555
B1 B21 1.767432 1_555
B1 C1 1.774999 1_555
B1 B17 1.780861 1_555
B1 B37 1.781118 1_555
B1 B5 1.794127 1_555
B1 I1 2.159734 1_555
B2 B22 1.767432 1_555
B2 C2 1.774999 1_555
B2 B38 1.781118 1_555
B2 B6 1.794127 1_555
B2 I2 2.159734 1_555
B3 C3 1.774999 1_555
B3 B39 1.781118 1_555
B3 B7 1.794127 1_555
B3 I3 2.159734 1_555
B4 C0 1.727325 1_555
B4 I4 2.162007 1_456
B5 C1 1.727325 1_555
B5 I5 2.162007 1_555
B6 C2 1.727325 1_555
B6 I6 2.162007 1_654
B7 C3 1.727325 1_555
B7 I7 2.162007 1_555
B8 C0 1.775936 1_554
B8 I8 2.159193 1_555
B9 C1 1.775936 1_555
B9 I9 2.159193 1_555
B10 C2 1.775936 1_556
B10 B26 1.780480 1_556
B10 B14 1.781064 1_555
B10 B30 1.781826 1_556
B10 I10 2.159193 1_555
B11 C3 1.775936 1_555
B11 B27 1.780480 1_555
B11 B15 1.781064 1_555
B11 B31 1.781826 1_555
B11 I11 2.159193 1_555
B12 C0 1.735522 1_554
B12 B8 1.781064 1_555
B12 B28 1.790536 1_554
B12 B32 1.791233 1_554
B12 B16 1.806855 1_554
B12 I12 2.159485 1_555
B13 C1 1.735522 1_555
B13 B9 1.781064 1_555
B13 B29 1.790536 1_555
B13 B33 1.791233 1_555
B13 B17 1.806855 1_555
B13 I13 2.159485 1_655
B14 C2 1.735522 1_556
B14 B30 1.790536 1_556
B14 B34 1.791233 1_556
B14 B18 1.806855 1_556
B14 I14 2.159485 1_555
B15 C3 1.735522 1_555
B15 B31 1.790536 1_555
B15 B35 1.791233 1_555
B15 B19 1.806855 1_555
B15 I15 2.159485 1_455
B16 F0 1.368077 1_555
B16 C0 1.759649 1_555
B16 B32 1.775718 1_555
B16 B36 1.788024 1_555
B17 F1 1.368077 1_555
B17 C1 1.759649 1_555
B17 B33 1.775718 1_555
B17 B37 1.788024 1_555
B18 F2 1.368077 1_555
B18 C2 1.759649 1_555
B18 B34 1.775718 1_555
B18 B2 1.780861 1_555
B18 B38 1.788024 1_555
B19 F3 1.368077 1_555
B19 C3 1.759649 1_555
B19 B35 1.775718 1_555
B19 B3 1.780861 1_555
B19 B39 1.788024 1_555
B20 B36 1.791781 1_555
B20 B24 1.800655 1_555
B20 B4 1.801436 1_555
B20 B40 1.806608 1_555
B20 I16 2.171511 1_555
B21 B37 1.791781 1_555
B21 B25 1.800655 1_555
B21 B5 1.801436 1_555
B21 B41 1.806608 1_555
B21 I17 2.171511 1_555
B22 B38 1.791781 1_555
B22 B26 1.800655 1_555
B22 B6 1.801436 1_555
B22 B42 1.806608 1_555
B22 I18 2.171511 1_555
B23 B3 1.767432 1_555
B23 B39 1.791781 1_555
B23 B27 1.800655 1_555
B23 B7 1.801436 1_555
B23 B43 1.806608 1_555
B23 I19 2.171511 1_555
B24 B8 1.780480 1_556
B24 B28 1.797928 1_555
B24 B40 1.798821 1_555
B24 B4 1.804793 1_555
B24 I20 2.174632 1_556
B25 B9 1.780480 1_555
B25 B29 1.797928 1_555
B25 B41 1.798821 1_555
B25 B5 1.804793 1_555
B25 I21 2.174632 1_555
B26 B30 1.797928 1_555
B26 B42 1.798821 1_555
B26 B6 1.804793 1_555
B26 I22 2.174632 1_554
B27 B31 1.797928 1_555
B27 B43 1.798821 1_555
B27 B7 1.804793 1_555
B27 I23 2.174632 1_555
B28 B8 1.781826 1_556
B28 B40 1.796493 1_555
B28 B32 1.797117 1_555
B28 I24 2.167664 1_556
B29 B9 1.781826 1_555
B29 B41 1.796493 1_555
B29 B33 1.797117 1_555
B29 I25 2.167664 1_555
B30 B42 1.796493 1_555
B30 B34 1.797117 1_555
B30 I26 2.167664 1_554
B31 B43 1.796493 1_555
B31 B35 1.797117 1_555
B31 I27 2.167664 1_555
B32 B40 1.796937 1_555
B32 B36 1.799161 1_555
B32 I28 2.172597 1_555
B33 B41 1.796937 1_555
B33 B37 1.799161 1_555
B33 I29 2.172597 1_655
B34 B42 1.796937 1_555
B34 B38 1.799161 1_555
B34 I30 2.172597 1_555
B35 B43 1.796937 1_555
B35 B39 1.799161 1_555
B35 I31 2.172597 1_455
B36 B40 1.787222 1_555
B36 I32 2.169652 1_555
B37 B41 1.787222 1_555
B37 I33 2.169652 1_555
B38 B42 1.787222 1_555
B38 I34 2.169652 1_555
B39 B43 1.787222 1_555
B39 I35 2.169652 1_555
B40 I36 2.171864 1_555
B41 I37 2.171864 1_555
B42 I38 2.171864 1_555
B43 I39 2.171864 1_555
H0 N0 1.018625 1_555
H1 N1 1.018625 1_555
H2 N2 1.018625 1_555
H3 N3 1.018625 1_555
H4 N0 1.023180 1_555
H5 N1 1.023180 1_555
H6 N2 1.023180 1_555
H7 N3 1.023180 1_555
C0 N0 1.409927 1_556
C1 N1 1.409927 1_555
C2 N2 1.409927 1_554
C3 N3 1.409927 1_555
C4 H16 1.097183 1_555
C4 H12 1.098000 1_555
C4 H8 1.098897 1_555
C4 S0 1.799203 1_555
C5 H17 1.097183 1_555
C5 H13 1.098000 1_555
C5 H9 1.098897 1_555
C5 S1 1.799203 1_555
C6 H18 1.097183 1_555
C6 H14 1.098000 1_555
C6 H10 1.098897 1_555
C6 S2 1.799203 1_555
C7 H19 1.097183 1_555
C7 H15 1.098000 1_555
C7 H11 1.098897 1_555
C7 S3 1.799203 1_555
C8 H28 1.095802 1_555
C8 H20 1.096311 1_555
C8 H24 1.097525 1_555
C8 S0 1.799633 1_565
C9 H29 1.095802 1_555
C9 H21 1.096311 1_555
C9 H25 1.097525 1_555
C9 S1 1.799633 1_555
C10 H30 1.095802 1_555
C10 H22 1.096311 1_555
C10 H26 1.097525 1_555
C10 S2 1.799633 1_545
C11 H31 1.095802 1_555
C11 H23 1.096311 1_555
C11 H27 1.097525 1_555
C11 S3 1.799633 1_555
C12 H32 1.096607 1_555
C12 H40 1.096776 1_565
C12 H36 1.098046 1_555
C12 S0 1.796862 1_565
C13 H33 1.096607 1_555
C13 H41 1.096776 1_655
C13 H37 1.098046 1_655
C13 S1 1.796862 1_555
C14 H34 1.096607 1_555
C14 H42 1.096776 1_545
C14 H38 1.098046 1_555
C14 S2 1.796862 1_545
C15 H35 1.096607 1_555
C15 H43 1.096776 1_455
C15 H39 1.098046 1_455
C15 S3 1.796862 1_555
