# generated using pymatgen
data_Mg6CrFe
_symmetry_space_group_name_H-M   'P 1'
_cell_length_a   4.86094700
_cell_length_b   6.14405300
_cell_length_c   10.42713700
_cell_angle_alpha   90.00000000
_cell_angle_beta   90.00000000
_cell_angle_gamma   90.00000000
_symmetry_Int_Tables_number   1
_chemical_formula_structural   Mg6CrFe
_chemical_formula_sum   'Mg12 Cr2 Fe2'
_cell_volume   311.41599774
_cell_formula_units_Z   2
loop_
 _symmetry_equiv_pos_site_id
 _symmetry_equiv_pos_as_xyz
  1  'x, y, z'
loop_
 _atom_site_type_symbol
 _atom_site_label
 _atom_site_symmetry_multiplicity
 _atom_site_fract_x
 _atom_site_fract_y
 _atom_site_fract_z
 _atom_site_occupancy
  Mg  Mg0  1  0.50000000  0.24964700  0.08304600  1
  Mg  Mg1  1  0.50000000  0.75035300  0.08304600  1
  Mg  Mg2  1  0.00000000  0.24597300  0.91075700  1
  Mg  Mg3  1  0.00000000  0.75402700  0.91075700  1
  Mg  Mg4  1  0.00000000  0.50000000  0.17342400  1
  Mg  Mg5  1  0.00000000  0.50000000  0.67063300  1
  Mg  Mg6  1  0.50000000  0.74964700  0.58304600  1
  Mg  Mg7  1  0.50000000  0.25035300  0.58304600  1
  Mg  Mg8  1  0.00000000  0.74597300  0.41075700  1
  Mg  Mg9  1  0.00000000  0.25402700  0.41075700  1
  Mg  Mg10  1  0.00000000  0.00000000  0.67342400  1
  Mg  Mg11  1  0.00000000  0.00000000  0.17063300  1
  Cr  Cr0  1  0.50000000  0.50000000  0.83417400  1
  Cr  Cr1  1  0.50000000  0.00000000  0.33417400  1
  Fe  Fe0  1  0.50000000  0.50000000  0.33416600  1
  Fe  Fe1  1  0.50000000  0.00000000  0.83416600  1
loop_
_geom_bond_atom_site_label_1
_geom_bond_atom_site_label_2
_geom_bond_distance
_geom_bond_site_symmetry_2
Mg0 Mg11 3.015620 1_555
Mg0 Mg11 3.015620 1_655
Mg0 Mg2 3.022425 1_654
Mg0 Mg2 3.022425 1_554
Mg0 Mg4 3.026763 1_555
Mg0 Mg4 3.026763 1_655
Mg0 Mg1 3.067689 1_545
Mg0 Mg1 3.076364 1_555
Mg1 Mg11 3.015620 1_565
Mg1 Mg11 3.015620 1_665
Mg1 Mg3 3.022425 1_654
Mg1 Mg3 3.022425 1_554
Mg1 Mg4 3.026763 1_655
Mg1 Mg4 3.026763 1_555
Mg2 Mg5 2.950424 1_555
Mg2 Mg3 3.022542 1_545
Mg2 Mg3 3.121511 1_555
Mg2 Mg4 3.152354 1_556
Mg3 Mg5 2.950424 1_555
Mg3 Mg4 3.152354 1_556
Mg4 Mg9 2.899672 1_555
Mg4 Mg8 2.899672 1_555
Mg5 Mg6 3.015620 1_455
Mg5 Mg6 3.015620 1_555
Mg5 Mg7 3.015620 1_455
Mg5 Mg7 3.015620 1_555
Mg5 Mg8 3.102701 1_555
Mg5 Mg9 3.102701 1_555
Mg6 Mg8 3.022425 1_655
Mg6 Mg8 3.022425 1_555
Mg6 Mg7 3.067689 1_555
Mg6 Mg7 3.076364 1_565
Mg7 Mg9 3.022425 1_655
Mg7 Mg9 3.022425 1_555
Mg8 Mg9 3.022542 1_555
Mg8 Mg9 3.121511 1_565
Mg10 Mg2 2.899672 1_555
Mg10 Mg3 2.899672 1_545
Mg10 Mg6 3.026763 1_445
Mg10 Mg7 3.026763 1_455
Mg10 Mg6 3.026763 1_545
Mg10 Mg7 3.026763 1_555
Mg10 Mg5 3.072164 1_545
Mg10 Mg5 3.072164 1_555
Mg10 Mg8 3.152354 1_545
Mg10 Mg9 3.152354 1_555
Mg11 Mg8 2.950424 1_545
Mg11 Mg9 2.950424 1_555
Mg11 Mg4 3.072164 1_555
Mg11 Mg4 3.072164 1_545
Mg11 Mg2 3.102701 1_554
Mg11 Mg3 3.102701 1_544
Cr0 Mg5 2.969028 1_555
Cr0 Mg5 2.969028 1_655
Cr0 Mg2 2.996803 1_555
Cr0 Mg2 2.996803 1_655
Cr0 Mg3 2.996803 1_555
Cr0 Mg3 2.996803 1_655
Cr0 Mg0 3.016645 1_556
Cr0 Mg1 3.016645 1_556
Cr0 Mg6 3.034710 1_555
Cr0 Mg7 3.034710 1_555
Cr0 Fe1 3.072027 1_565
Cr0 Fe1 3.072027 1_555
Cr1 Mg11 2.969028 1_555
Cr1 Mg11 2.969028 1_655
Cr1 Mg8 2.996803 1_645
Cr1 Mg8 2.996803 1_545
Cr1 Mg9 2.996803 1_555
Cr1 Mg9 2.996803 1_655
Cr1 Mg7 3.016645 1_555
Cr1 Mg6 3.016645 1_545
Cr1 Mg1 3.034710 1_545
Cr1 Mg0 3.034710 1_555
Cr1 Fe0 3.072027 1_555
Cr1 Fe0 3.072027 1_545
Fe0 Mg4 2.952362 1_555
Fe0 Mg4 2.952362 1_655
Fe0 Mg8 2.971354 1_555
Fe0 Mg9 2.971354 1_555
Fe0 Mg8 2.971354 1_655
Fe0 Mg9 2.971354 1_655
Fe0 Mg6 3.014507 1_555
Fe0 Mg7 3.014507 1_555
Fe0 Mg1 3.036832 1_555
Fe0 Mg0 3.036832 1_555
Fe1 Mg10 2.952362 1_555
Fe1 Mg10 2.952362 1_655
Fe1 Mg2 2.971354 1_655
Fe1 Mg2 2.971354 1_555
Fe1 Mg3 2.971354 1_645
Fe1 Mg3 2.971354 1_545
Fe1 Mg1 3.014507 1_546
Fe1 Mg0 3.014507 1_556
Fe1 Mg6 3.036832 1_545
Fe1 Mg7 3.036832 1_555
