# generated using pymatgen
data_Li4TiCo3O8
_symmetry_space_group_name_H-M   'P 1'
_cell_length_a   5.84427670
_cell_length_b   10.22604987
_cell_length_c   5.95327937
_cell_angle_alpha   106.79811627
_cell_angle_beta   119.44146481
_cell_angle_gamma   90.41495200
_symmetry_Int_Tables_number   1
_chemical_formula_structural   Li4TiCo3O8
_chemical_formula_sum   'Li8 Ti2 Co6 O16'
_cell_volume   291.82735017
_cell_formula_units_Z   2
loop_
 _symmetry_equiv_pos_site_id
 _symmetry_equiv_pos_as_xyz
  1  'x, y, z'
loop_
 _atom_site_type_symbol
 _atom_site_label
 _atom_site_symmetry_multiplicity
 _atom_site_fract_x
 _atom_site_fract_y
 _atom_site_fract_z
 _atom_site_occupancy
  Li  Li0  1  0.25033500  0.75103600  0.50084400  1
  Li  Li1  1  0.74925500  0.24804600  0.49519800  1
  Li  Li2  1  0.75489500  0.74408900  0.50062700  1
  Li  Li3  1  0.25243700  0.25432800  0.50523200  1
  Li  Li4  1  0.99996600  0.50005600  0.50401400  1
  Li  Li5  1  0.49912900  0.00077400  0.49687000  1
  Li  Li6  1  0.50489600  0.49926000  0.50223500  1
  Li  Li7  1  0.99646000  0.00073900  0.50111100  1
  Ti  Ti0  1  0.99041000  0.99550600  0.99995500  1
  Ti  Ti1  1  0.50793400  0.50678700  0.00581300  1
  Co  Co0  1  0.49317600  0.00213400  0.99738400  1
  Co  Co1  1  0.00398700  0.49629600  0.00116300  1
  Co  Co2  1  0.25076000  0.25009100  0.99843300  1
  Co  Co3  1  0.74830400  0.75016000  0.99967200  1
  Co  Co4  1  0.24661900  0.74766000  0.99884400  1
  Co  Co5  1  0.75440500  0.25465600  0.99809500  1
  O  O0  1  0.39116000  0.12838300  0.78446600  1
  O  O1  1  0.89944000  0.63461000  0.77261200  1
  O  O2  1  0.12031900  0.36015200  0.23219000  1
  O  O3  1  0.58889300  0.87618600  0.20763300  1
  O  O4  1  0.37802600  0.61534800  0.76218300  1
  O  O5  1  0.88533400  0.12351300  0.77030600  1
  O  O6  1  0.11862900  0.88361900  0.23531800  1
  O  O7  1  0.61818600  0.37820800  0.23211300  1
  O  O8  1  0.13207300  0.88639600  0.77175000  1
  O  O9  1  0.62284500  0.37522900  0.76614900  1
  O  O10  1  0.62847500  0.88873900  0.77008100  1
  O  O11  1  0.14839400  0.37454500  0.77099300  1
  O  O12  1  0.38487200  0.62309400  0.23821000  1
  O  O13  1  0.85630300  0.11581100  0.22209000  1
  O  O14  1  0.86284300  0.61784100  0.23691900  1
  O  O15  1  0.36124000  0.11670900  0.22149700  1
loop_
_geom_bond_atom_site_label_1
_geom_bond_atom_site_label_2
_geom_bond_distance
_geom_bond_site_symmetry_2
Li0 O10 2.145699 1_555
Li0 O14 2.161663 1_455
Li0 O8 2.194104 1_555
Li0 O12 2.194467 1_555
Li0 O6 2.233199 1_555
Li0 O4 2.241469 1_555
Li1 O13 2.145902 1_555
Li1 O15 2.158633 1_555
Li1 O11 2.184963 1_655
Li1 O9 2.193639 1_555
Li1 O7 2.202678 1_555
Li1 O5 2.208246 1_555
Li2 O12 2.042256 1_555
Li2 O1 2.074993 1_555
Li2 O14 2.084076 1_555
Li2 O8 2.163380 1_655
Li2 O10 2.261991 1_555
Li2 O3 2.350692 1_555
Li3 O9 2.042825 1_555
Li3 O2 2.050484 1_555
Li3 O11 2.053430 1_555
Li3 O15 2.221023 1_555
Li3 O13 2.223422 1_455
Li3 O0 2.237669 1_555
Li4 O4 2.051971 1_655
Li4 O7 2.096317 1_555
Li4 O1 2.111601 1_555
Li4 O14 2.118880 1_555
Li4 O11 2.183080 1_655
Li4 O2 2.226124 1_655
Li5 O6 2.069807 1_545
Li5 O10 2.100100 1_545
Li5 O5 2.117954 1_555
Li5 O3 2.119685 1_545
Li5 O15 2.140323 1_555
Li5 O0 2.194322 1_555
Li6 O4 2.105428 1_555
Li6 O7 2.112990 1_555
Li6 O12 2.155387 1_555
Li6 O9 2.156892 1_555
Li6 O2 2.177021 1_555
Li6 O1 2.200189 1_555
Li7 O8 2.106723 1_645
Li7 O5 2.106747 1_555
Li7 O6 2.115574 1_645
Li7 O13 2.149660 1_555
Li7 O0 2.174579 1_655
Li7 O3 2.219709 1_545
Co0 O3 1.947388 1_546
Co0 O0 1.960361 1_555
Co0 O15 1.966803 1_556
Co0 O8 1.979132 1_545
Co0 O13 1.979697 1_556
Co0 O10 1.989781 1_545
Co1 O11 2.075088 1_554
Co1 O14 2.083232 1_455
Co1 O9 2.084975 1_454
Co1 O12 2.107189 1_555
Co1 O2 2.119754 1_555
Co1 O1 2.129031 1_454
Co2 O2 1.983566 1_556
Co2 O0 1.992693 1_555
Co2 O11 2.005412 1_555
Co2 O5 2.042904 1_455
Co2 O7 2.057160 1_556
Co2 O15 2.063389 1_556
Co3 O1 2.066230 1_555
Co3 O3 2.071390 1_556
Co3 O6 2.092969 1_656
Co3 O4 2.098770 1_555
Co3 O14 2.112378 1_556
Co3 O10 2.135365 1_555
Co4 O1 1.909688 1_455
Co4 O3 1.961419 1_556
Co4 O12 2.058718 1_556
Co4 O4 2.093420 1_555
Co4 O6 2.096036 1_556
Co4 O8 2.126349 1_555
Co5 O2 1.961374 1_656
Co5 O9 1.993046 1_555
Co5 O0 2.036779 1_555
Co5 O5 2.051040 1_555
Co5 O7 2.063617 1_556
Co5 O13 2.115358 1_556
O4 Ti1 1.942384 1_556
O5 Ti0 2.044613 1_545
O6 Ti0 1.934115 1_454
O7 Ti1 2.035144 1_555
O8 Ti0 2.004756 1_455
O9 Ti1 2.035240 1_556
O10 Ti0 1.948420 1_555
O11 Ti1 2.043701 1_556
O12 Ti1 1.971157 1_555
O13 Ti0 1.992268 1_544
O14 Ti1 1.934481 1_555
O15 Ti0 2.044225 1_444
