# generated using pymatgen
data_Cu2NiSnO4
_symmetry_space_group_name_H-M   'P 1'
_cell_length_a   5.42146187
_cell_length_b   6.87857393
_cell_length_c   6.40890766
_cell_angle_alpha   117.78046651
_cell_angle_beta   90.00980510
_cell_angle_gamma   105.43231506
_symmetry_Int_Tables_number   1
_chemical_formula_structural   Cu2NiSnO4
_chemical_formula_sum   'Cu4 Ni2 Sn2 O8'
_cell_volume   201.65655135
_cell_formula_units_Z   2
loop_
 _symmetry_equiv_pos_site_id
 _symmetry_equiv_pos_as_xyz
  1  'x, y, z'
loop_
 _atom_site_type_symbol
 _atom_site_label
 _atom_site_symmetry_multiplicity
 _atom_site_fract_x
 _atom_site_fract_y
 _atom_site_fract_z
 _atom_site_occupancy
  Cu  Cu0  1  0.00005100  0.00001500  0.49993500  1
  Cu  Cu1  1  0.99994900  0.99998400  0.00006700  1
  Cu  Cu2  1  0.50000000  0.00000000  0.25000000  1
  Cu  Cu3  1  0.50000000  0.00000000  0.75000000  1
  Ni  Ni0  1  0.50000000  0.50000000  0.75000000  1
  Ni  Ni1  1  0.50000000  0.50000100  0.25000000  1
  Sn  Sn0  1  0.00000100  0.50001600  0.50001000  1
  Sn  Sn1  1  0.99999900  0.49998400  0.99999000  1
  O  O0  1  0.38933800  0.67875300  0.58941300  1
  O  O1  1  0.38932500  0.67873100  0.08939300  1
  O  O2  1  0.61067500  0.32126900  0.41060700  1
  O  O3  1  0.61066100  0.32124700  0.91058600  1
  O  O4  1  0.89455300  0.68223600  0.34116800  1
  O  O5  1  0.89452400  0.68222300  0.84118100  1
  O  O6  1  0.10547600  0.31777700  0.65881900  1
  O  O7  1  0.10544700  0.31776400  0.15883200  1
loop_
_geom_bond_atom_site_label_1
_geom_bond_atom_site_label_2
_geom_bond_distance
_geom_bond_site_symmetry_2
Cu0 O6 1.844253 1_555
Cu0 O4 1.844351 1_445
Cu1 O5 1.844248 1_554
Cu1 O7 1.844356 1_665
Cu2 O1 1.864616 1_545
Cu2 O2 1.864616 1_555
Cu3 O3 1.864488 1_555
Cu3 O0 1.864488 1_545
Ni0 O5 2.092234 1_555
Ni0 O6 2.092234 1_555
Ni0 O3 2.122019 1_555
Ni0 O2 2.122025 1_555
Ni0 O1 2.122025 1_556
Ni0 O0 2.122026 1_555
Ni1 O4 2.092386 1_555
Ni1 O7 2.092388 1_555
Ni1 O1 2.122015 1_555
Ni1 O2 2.122027 1_555
Ni1 O0 2.122116 1_555
Ni1 O3 2.122121 1_554
O0 Sn0 2.063260 1_555
O1 Sn1 2.063222 1_454
O2 Sn0 2.063222 1_655
O3 Sn1 2.063265 1_555
O4 Sn0 2.122447 1_655
O4 Sn1 2.122765 1_554
O5 Sn1 2.122465 1_555
O5 Sn0 2.122747 1_655
O6 Sn0 2.122465 1_555
O6 Sn1 2.122747 1_455
O7 Sn1 2.122447 1_454
O7 Sn0 2.122765 1_555
