# generated using pymatgen
data_CaCu2(P2O7)2
_symmetry_space_group_name_H-M   'P 1'
_cell_length_a   5.41887100
_cell_length_b   7.99159957
_cell_length_c   12.87680247
_cell_angle_alpha   90.19229106
_cell_angle_beta   93.55514976
_cell_angle_gamma   90.21367313
_symmetry_Int_Tables_number   1
_chemical_formula_structural   CaCu2(P2O7)2
_chemical_formula_sum   'Ca2 Cu4 P8 O28'
_cell_volume   556.55509512
_cell_formula_units_Z   2
loop_
 _symmetry_equiv_pos_site_id
 _symmetry_equiv_pos_as_xyz
  1  'x, y, z'
loop_
 _atom_site_type_symbol
 _atom_site_label
 _atom_site_symmetry_multiplicity
 _atom_site_fract_x
 _atom_site_fract_y
 _atom_site_fract_z
 _atom_site_occupancy
  Ca  Ca0  1  0.70507700  0.68441500  0.73067900  1
  Ca  Ca1  1  0.29492300  0.31558500  0.26932100  1
  Cu  Cu0  1  0.27421900  0.35905800  0.61935900  1
  Cu  Cu1  1  0.23415100  0.86048300  0.87880400  1
  Cu  Cu2  1  0.72578100  0.64094200  0.38064100  1
  Cu  Cu3  1  0.76584900  0.13951700  0.12119600  1
  P  P0  1  0.81472000  0.30330700  0.48743600  1
  P  P1  1  0.69025700  0.80096700  0.01158400  1
  P  P2  1  0.18528000  0.69669300  0.51256400  1
  P  P3  1  0.30974300  0.19903300  0.98841600  1
  P  P4  1  0.26471400  0.97030200  0.66731500  1
  P  P5  1  0.22950500  0.47386700  0.83014700  1
  P  P6  1  0.73528600  0.02969800  0.33268500  1
  P  P7  1  0.77049500  0.52613300  0.16985300  1
  O  O0  1  0.70028300  0.32428000  0.58906200  1
  O  O1  1  0.80388900  0.79801600  0.90783500  1
  O  O2  1  0.29971700  0.67572000  0.41093800  1
  O  O3  1  0.19611100  0.20198400  0.09216500  1
  O  O4  1  0.59451300  0.16378000  0.99267600  1
  O  O5  1  0.89876100  0.66317000  0.51337600  1
  O  O6  1  0.40548700  0.83622000  0.00732400  1
  O  O7  1  0.10123900  0.33683000  0.48662400  1
  O  O8  1  0.96279300  0.47962900  0.79397700  1
  O  O9  1  0.52945900  0.94349200  0.70429300  1
  O  O10  1  0.03720700  0.52037100  0.20602300  1
  O  O11  1  0.47054100  0.05650800  0.29570700  1
  O  O12  1  0.27262600  0.38655600  0.94126100  1
  O  O13  1  0.21697700  0.88798900  0.55253900  1
  O  O14  1  0.72737400  0.61344400  0.05873900  1
  O  O15  1  0.78302300  0.11201100  0.44746100  1
  O  O16  1  0.64536400  0.34989900  0.15589200  1
  O  O17  1  0.83496100  0.85109400  0.34436100  1
  O  O18  1  0.35463600  0.65010100  0.84410800  1
  O  O19  1  0.16503900  0.14890600  0.65563900  1
  O  O20  1  0.68385200  0.40468600  0.39510100  1
  O  O21  1  0.81685900  0.91136200  0.09835800  1
  O  O22  1  0.31614800  0.59531400  0.60489900  1
  O  O23  1  0.18314100  0.08863800  0.90164200  1
  O  O24  1  0.91811000  0.12228800  0.26180500  1
  O  O25  1  0.59082100  0.61427500  0.24259100  1
  O  O26  1  0.08189000  0.87771200  0.73819500  1
  O  O27  1  0.40917900  0.38572500  0.75740900  1
loop_
_geom_bond_atom_site_label_1
_geom_bond_atom_site_label_2
_geom_bond_distance
_geom_bond_site_symmetry_2
Ca0 O8 2.275485 1_555
Ca0 O9 2.299374 1_555
Ca0 O1 2.479068 1_555
Ca0 O18 2.481437 1_555
Ca0 O26 2.552635 1_655
Ca0 O22 2.670168 1_555
Ca0 O27 2.903912 1_555
Ca0 O5 3.053274 1_555
Ca1 O10 2.275485 1_555
Ca1 O11 2.299374 1_555
Ca1 O3 2.479068 1_555
Ca1 O16 2.481437 1_555
Ca1 O24 2.552635 1_455
Ca1 O20 2.670168 1_555
Ca1 O25 2.903912 1_555
Ca1 O7 3.053274 1_555
Cu0 O19 1.849585 1_555
Cu0 O27 1.890857 1_555
Cu0 O7 1.905148 1_555
Cu0 O22 1.911932 1_555
Cu0 O0 2.382373 1_555
Cu1 O6 1.857777 1_556
Cu1 O18 1.868670 1_555
Cu1 O23 1.870198 1_565
Cu1 O26 1.948133 1_555
Cu1 O1 2.434271 1_455
Cu2 O17 1.849585 1_555
Cu2 O25 1.890857 1_555
Cu2 O5 1.905148 1_555
Cu2 O20 1.911932 1_555
Cu2 O2 2.382373 1_555
Cu3 O4 1.857777 1_554
Cu3 O16 1.868670 1_555
Cu3 O21 1.870198 1_545
Cu3 O24 1.948133 1_555
Cu3 O3 2.434271 1_655
O0 P0 1.491665 1_555
O1 P1 1.505459 1_556
O2 P2 1.491665 1_555
O3 P3 1.505459 1_554
O4 P3 1.567317 1_555
O5 P2 1.575248 1_655
O6 P1 1.567317 1_555
O7 P0 1.575248 1_455
O8 P5 1.491655 1_655
O9 P4 1.499674 1_555
O10 P7 1.491655 1_455
O11 P6 1.499674 1_555
O12 P5 1.598463 1_555
O12 P3 1.627326 1_555
O13 P2 1.616594 1_555
O13 P4 1.621343 1_555
O14 P7 1.598463 1_555
O14 P1 1.627326 1_555
O15 P0 1.616594 1_555
O15 P6 1.621343 1_555
O16 P7 1.565798 1_555
O17 P6 1.532559 1_565
O18 P5 1.565798 1_555
O19 P4 1.532559 1_545
O20 P0 1.574532 1_555
O21 P1 1.546385 1_555
O22 P2 1.574532 1_555
O23 P3 1.546385 1_555
O24 P6 1.572654 1_555
O25 P7 1.560511 1_555
O26 P4 1.572654 1_555
O27 P5 1.560511 1_555
