# generated using pymatgen
data_DyTc2
_symmetry_space_group_name_H-M   'P 1'
_cell_length_a   5.34336829
_cell_length_b   5.34443794
_cell_length_c   8.84464949
_cell_angle_alpha   89.99447309
_cell_angle_beta   89.99993721
_cell_angle_gamma   120.04329809
_symmetry_Int_Tables_number   1
_chemical_formula_structural   DyTc2
_chemical_formula_sum   'Dy4 Tc8'
_cell_volume   218.64459935
_cell_formula_units_Z   4
loop_
 _symmetry_equiv_pos_site_id
 _symmetry_equiv_pos_as_xyz
  1  'x, y, z'
loop_
 _atom_site_type_symbol
 _atom_site_label
 _atom_site_symmetry_multiplicity
 _atom_site_fract_x
 _atom_site_fract_y
 _atom_site_fract_z
 _atom_site_occupancy
  Dy  Dy0  1  0.66662781  0.33334792  0.56272719  1
  Dy  Dy1  1  0.33337375  0.66665249  0.43717995  1
  Dy  Dy2  1  0.33337196  0.66664941  0.06282100  1
  Dy  Dy3  1  0.66662799  0.33334973  0.93727057  1
  Tc  Tc0  1  0.00000059  0.00000103  0.49990778  1
  Tc  Tc1  1  1.00000013  0.99999898  0.00009173  1
  Tc  Tc2  1  0.17150068  0.34296568  0.75000257  1
  Tc  Tc3  1  0.17134995  0.82866089  0.74998583  1
  Tc  Tc4  1  0.65694516  0.82845880  0.74998703  1
  Tc  Tc5  1  0.82848204  0.65699942  0.24999692  1
  Tc  Tc6  1  0.82862922  0.17136014  0.25001388  1
  Tc  Tc7  1  0.34309172  0.17155951  0.25001256  1
loop_
_geom_bond_atom_site_label_1
_geom_bond_atom_site_label_2
_geom_bond_distance
_geom_bond_site_symmetry_2
Dy0 Tc0 3.133156 1_555
Dy0 Tc0 3.133790 1_665
Dy0 Tc0 3.135867 1_655
Dy0 Tc3 3.142242 1_545
Dy0 Tc3 3.142659 1_655
Dy0 Tc2 3.143545 1_555
Dy0 Tc2 3.144063 1_655
Dy0 Tc4 3.144129 1_555
Dy0 Tc4 3.144243 1_545
Dy0 Tc7 3.144827 1_555
Dy0 Tc5 3.145123 1_555
Dy0 Tc6 3.146352 1_555
Dy0 Dy1 3.277773 1_655
Dy0 Dy1 3.278312 1_545
Dy0 Dy1 3.279150 1_555
Dy0 Dy3 3.312705 1_555
Dy1 Tc0 3.133011 1_665
Dy1 Tc0 3.133639 1_555
Dy1 Tc0 3.135733 1_565
Dy1 Tc6 3.141809 1_565
Dy1 Tc6 3.142234 1_455
Dy1 Tc5 3.143112 1_555
Dy1 Tc5 3.143641 1_455
Dy1 Tc7 3.143700 1_555
Dy1 Tc7 3.143816 1_565
Dy1 Tc4 3.145624 1_555
Dy1 Tc2 3.145919 1_555
Dy1 Tc3 3.147166 1_555
Dy1 Dy2 3.311074 1_555
Dy2 Tc1 3.132957 1_555
Dy2 Tc1 3.133759 1_445
Dy2 Tc1 3.135674 1_455
Dy2 Tc6 3.142076 1_455
Dy2 Tc6 3.142222 1_565
Dy2 Tc5 3.143077 1_555
Dy2 Tc7 3.143534 1_555
Dy2 Tc5 3.143598 1_455
Dy2 Tc7 3.144213 1_565
Dy2 Tc4 3.145687 1_554
Dy2 Tc2 3.146175 1_554
Dy2 Tc3 3.147252 1_554
Dy2 Dy3 3.277894 1_454
Dy2 Dy3 3.278108 1_564
Dy2 Dy3 3.279262 1_554
Dy3 Tc1 3.133100 1_446
Dy3 Tc1 3.133897 1_556
Dy3 Tc1 3.135825 1_546
Dy3 Tc3 3.142504 1_655
Dy3 Tc3 3.142645 1_545
Dy3 Tc2 3.143505 1_555
Dy3 Tc4 3.143963 1_555
Dy3 Tc2 3.144024 1_655
Dy3 Tc4 3.144636 1_545
Dy3 Tc7 3.144891 1_556
Dy3 Tc5 3.145384 1_556
Dy3 Tc6 3.146443 1_556
Tc0 Tc6 2.720597 1_455
Tc0 Tc7 2.720879 1_555
Tc0 Tc5 2.721153 1_445
Tc0 Tc3 2.721809 1_545
Tc0 Tc4 2.722105 1_445
Tc0 Tc2 2.722375 1_555
Tc1 Tc5 2.720818 1_555
Tc1 Tc6 2.720946 1_565
Tc1 Tc7 2.721211 1_665
Tc1 Tc2 2.722051 1_664
Tc1 Tc3 2.722147 1_654
Tc1 Tc4 2.722433 1_554
Tc2 Tc4 2.592600 1_555
Tc2 Tc3 2.596171 1_555
Tc2 Tc4 2.747805 1_445
Tc2 Tc3 2.748267 1_545
Tc3 Tc4 2.595255 1_555
Tc3 Tc4 2.748114 1_455
Tc5 Tc7 2.592314 1_555
Tc5 Tc6 2.595863 1_555
Tc5 Tc7 2.748092 1_665
Tc5 Tc6 2.748575 1_565
Tc6 Tc7 2.594939 1_555
Tc6 Tc7 2.748429 1_655
