# generated using pymatgen
data_Zr4Ti(PbO3)5
_symmetry_space_group_name_H-M   'P 1'
_cell_length_a   5.88360107
_cell_length_b   5.95084711
_cell_length_c   24.28171993
_cell_angle_alpha   96.61879256
_cell_angle_beta   89.98413505
_cell_angle_gamma   119.62203010
_symmetry_Int_Tables_number   1
_chemical_formula_structural   Zr4Ti(PbO3)5
_chemical_formula_sum   'Zr8 Ti2 Pb10 O30'
_cell_volume   732.53986306
_cell_formula_units_Z   2
loop_
 _symmetry_equiv_pos_site_id
 _symmetry_equiv_pos_as_xyz
  1  'x, y, z'
loop_
 _atom_site_type_symbol
 _atom_site_label
 _atom_site_symmetry_multiplicity
 _atom_site_fract_x
 _atom_site_fract_y
 _atom_site_fract_z
 _atom_site_occupancy
  Zr  Zr0  1  0.12031700  0.24024200  0.29988900  1
  Zr  Zr1  1  0.52023800  0.04043100  0.50207800  1
  Zr  Zr2  1  0.92085200  0.84118600  0.70364600  1
  Zr  Zr3  1  0.32309300  0.64566300  0.90588400  1
  Zr  Zr4  1  0.72201400  0.44414800  0.10305000  1
  Zr  Zr5  1  0.82017000  0.63957100  0.40111000  1
  Zr  Zr6  1  0.22033200  0.44056200  0.60290400  1
  Zr  Zr7  1  0.62039500  0.24142200  0.80449000  1
  Ti  Ti0  1  0.02365500  0.04854000  0.00446700  1
  Ti  Ti1  1  0.42461400  0.84748200  0.20230300  1
  Pb  Pb0  1  0.10546100  0.21110600  0.15612600  1
  Pb  Pb1  1  0.50153700  0.00051800  0.35497000  1
  Pb  Pb2  1  0.90158400  0.80303600  0.55742300  1
  Pb  Pb3  1  0.30218300  0.60424600  0.75871100  1
  Pb  Pb4  1  0.70565700  0.41395200  0.95983400  1
  Pb  Pb5  1  0.20095400  0.40267900  0.45690900  1
  Pb  Pb6  1  0.60167100  0.20328800  0.65794400  1
  Pb  Pb7  1  0.00294200  0.00318000  0.86159200  1
  Pb  Pb8  1  0.40092600  0.80158800  0.05730800  1
  Pb  Pb9  1  0.79920600  0.60009500  0.25294300  1
  O  O0  1  0.28099400  0.50611100  0.24473400  1
  O  O1  1  0.68370000  0.29821000  0.44516200  1
  O  O2  1  0.08457600  0.09791300  0.64646900  1
  O  O3  1  0.48104700  0.89653400  0.84818100  1
  O  O4  1  0.87851800  0.70284700  0.04729900  1
  O  O5  1  0.43597600  0.38423300  0.35556500  1
  O  O6  1  0.83732800  0.18587400  0.55804900  1
  O  O7  1  0.23925300  0.98636300  0.75902400  1
  O  O8  1  0.64983400  0.79521000  0.95956200  1
  O  O9  1  0.04508200  0.59150400  0.15683300  1
  O  O10  1  0.92156100  0.39678400  0.34256100  1
  O  O11  1  0.32000200  0.20033800  0.54382900  1
  O  O12  1  0.71946900  0.00096100  0.74510800  1
  O  O13  1  0.12342500  0.80655200  0.94825900  1
  O  O14  1  0.52453100  0.60189900  0.14612200  1
  O  O15  1  0.75447700  0.99138100  0.24161700  1
  O  O16  1  0.17886400  0.79944200  0.44326100  1
  O  O17  1  0.58096600  0.60076400  0.64437500  1
  O  O18  1  0.97866600  0.39994400  0.84766700  1
  O  O19  1  0.35421600  0.19076100  0.04489300  1
  O  O20  1  0.25715500  0.98189100  0.25200200  1
  O  O21  1  0.64878400  0.78555500  0.45708300  1
  O  O22  1  0.04822700  0.58618400  0.65861000  1
  O  O23  1  0.44535200  0.38639300  0.85995700  1
  O  O24  1  0.85458900  0.18169000  0.05432000  1
  O  O25  1  0.91758300  0.89685100  0.34355000  1
  O  O26  1  0.31348400  0.69788700  0.54587100  1
  O  O27  1  0.71403000  0.49784300  0.74729800  1
  O  O28  1  0.11758000  0.28653300  0.95219200  1
  O  O29  1  0.51875200  0.08425600  0.14922500  1
loop_
_geom_bond_atom_site_label_1
_geom_bond_atom_site_label_2
_geom_bond_distance
_geom_bond_site_symmetry_2
O0 Zr0 2.049314 1_555
O0 Ti1 2.165040 1_555
O0 Pb0 2.473032 1_555
O0 Pb9 2.817369 1_555
O1 Zr1 2.053691 1_555
O1 Zr5 2.191675 1_555
O1 Pb1 2.512600 1_555
O1 Pb5 2.796232 1_655
O2 Zr2 2.054960 1_445
O2 Zr6 2.191227 1_555
O2 Pb2 2.484442 1_445
O2 Pb6 2.793059 1_555
O3 Zr3 2.040961 1_555
O3 Zr7 2.201809 1_565
O3 Pb3 2.484597 1_555
O3 Pb7 2.822060 1_665
O4 Zr4 2.031961 1_555
O4 Ti0 2.190653 1_665
O4 Pb4 2.435468 1_554
O4 Pb8 2.834381 1_655
O5 Zr0 2.042620 1_555
O5 Zr5 2.204561 1_555
O5 Pb1 2.495227 1_555
O5 Pb5 2.839997 1_555
O6 Zr1 2.052015 1_555
O6 Zr6 2.192241 1_655
O6 Pb2 2.485326 1_545
O6 Pb6 2.810521 1_555
O7 Zr2 2.048810 1_455
O7 Zr7 2.191275 1_565
O7 Pb3 2.477128 1_555
O7 Pb7 2.867755 1_565
O8 Zr3 2.056514 1_555
O8 Ti0 2.154912 1_666
O8 Pb4 2.448571 1_555
O8 Pb8 2.794925 1_556
O9 Zr4 2.043807 1_455
O9 Ti1 2.185600 1_555
O9 Pb0 2.456987 1_555
O9 Pb9 2.754149 1_455
O10 Zr0 2.040249 1_655
O10 Zr5 2.200560 1_555
O10 Pb1 2.482175 1_555
O10 Pb9 2.861144 1_555
O11 Zr1 2.050950 1_555
O11 Zr6 2.191031 1_555
O11 Pb2 2.486957 1_445
O11 Pb5 2.795595 1_555
O12 Zr2 2.052759 1_545
O12 Zr7 2.194294 1_555
O12 Pb3 2.481884 1_545
O12 Pb6 2.796915 1_555
O13 Zr3 2.059020 1_555
O13 Ti0 2.159431 1_566
O13 Pb4 2.460308 1_455
O13 Pb7 2.772846 1_565
O14 Zr4 2.043618 1_555
O14 Ti1 2.175222 1_555
O14 Pb0 2.451150 1_555
O14 Pb8 2.835076 1_555
O15 Ti1 1.892321 1_555
O15 Zr0 2.279426 1_665
O15 Pb9 2.513991 1_555
O16 Zr5 2.049006 1_455
O16 Zr1 2.193728 1_565
O16 Pb5 2.486996 1_555
O16 Pb1 2.824107 1_565
O17 Zr6 2.050669 1_555
O17 Zr2 2.194506 1_555
O17 Pb6 2.486494 1_555
O17 Pb2 2.793586 1_555
O18 Zr7 2.059103 1_555
O18 Zr3 2.199735 1_655
O18 Pb7 2.495370 1_655
O18 Pb3 2.842932 1_655
O19 Ti0 1.909135 1_555
O19 Zr4 2.288192 1_555
O19 Pb8 2.513962 1_545
O20 Ti1 1.903333 1_555
O20 Zr0 2.274827 1_565
O20 Pb9 2.526384 1_455
O20 Pb1 2.848058 1_565
O21 Zr5 2.052250 1_555
O21 Zr1 2.194921 1_565
O21 Pb5 2.489359 1_555
O21 Pb2 2.819558 1_555
O22 Zr6 2.049977 1_555
O22 Zr2 2.191221 1_455
O22 Pb6 2.483660 1_455
O22 Pb3 2.816926 1_555
O23 Zr7 2.056347 1_555
O23 Zr3 2.200357 1_555
O23 Pb7 2.475938 1_555
O24 Ti0 1.907880 1_655
O24 Zr4 2.285970 1_555
O24 Pb8 2.513052 1_545
O25 Zr5 2.061891 1_555
O25 Zr0 2.193547 1_665
O25 Pb9 2.516625 1_555
O25 Pb1 2.811125 1_565
O26 Zr6 2.054724 1_555
O26 Zr1 2.193948 1_565
O26 Pb5 2.483330 1_555
O26 Pb2 2.793129 1_455
O27 Zr7 2.053665 1_555
O27 Zr2 2.195347 1_555
O27 Pb6 2.489086 1_555
O27 Pb3 2.797368 1_555
O28 Ti0 1.887513 1_556
O28 Zr3 2.300524 1_555
O28 Pb7 2.481780 1_555
O29 Ti1 1.897340 1_545
O29 Zr4 2.301069 1_555
O29 Pb8 2.504817 1_545
