# generated using pymatgen
data_K5Na3Ta3Nb5O24
_symmetry_space_group_name_H-M   'P 1'
_cell_length_a   8.05231600
_cell_length_b   8.05293400
_cell_length_c   8.05372401
_cell_angle_alpha   90.00140145
_cell_angle_beta   90.00165761
_cell_angle_gamma   90.00147990
_symmetry_Int_Tables_number   1
_chemical_formula_structural   K5Na3Ta3Nb5O24
_chemical_formula_sum   'K5 Na3 Ta3 Nb5 O24'
_cell_volume   522.24187475
_cell_formula_units_Z   1
loop_
 _symmetry_equiv_pos_site_id
 _symmetry_equiv_pos_as_xyz
  1  'x, y, z'
loop_
 _atom_site_type_symbol
 _atom_site_label
 _atom_site_symmetry_multiplicity
 _atom_site_fract_x
 _atom_site_fract_y
 _atom_site_fract_z
 _atom_site_occupancy
  K  K0  1  0.74995200  0.74995400  0.25013000  1
  K  K1  1  0.74995100  0.74995200  0.74987100  1
  K  K2  1  0.74994800  0.25005200  0.25012600  1
  K  K3  1  0.74994600  0.25004000  0.74986900  1
  K  K4  1  0.25006100  0.25005100  0.74986800  1
  Na  Na0  1  0.25000500  0.74999400  0.25001400  1
  Na  Na1  1  0.25000500  0.74999400  0.74998300  1
  Na  Na2  1  0.25000500  0.25000700  0.25001500  1
  Ta  Ta0  1  0.00070600  0.99976500  0.00023900  1
  Ta  Ta1  1  0.49929000  0.99975700  0.00023800  1
  Ta  Ta2  1  0.00073200  0.50023600  0.00023900  1
  Nb  Nb0  1  0.00069000  0.99977300  0.49977600  1
  Nb  Nb1  1  0.49930900  0.99977300  0.49977800  1
  Nb  Nb2  1  0.49933000  0.50022100  0.00022300  1
  Nb  Nb3  1  0.00068500  0.50022900  0.49977800  1
  Nb  Nb4  1  0.49931100  0.50022800  0.49976800  1
  O  O0  1  0.00153300  0.75008400  0.00007300  1
  O  O1  1  0.49847700  0.75107400  0.00007100  1
  O  O2  1  0.00151100  0.75000900  0.49993000  1
  O  O3  1  0.49848300  0.75008200  0.49993200  1
  O  O4  1  0.00089000  0.24991500  0.00073400  1
  O  O5  1  0.49911900  0.24891400  0.00073300  1
  O  O6  1  0.00086700  0.24999200  0.49927400  1
  O  O7  1  0.49913100  0.24991600  0.49927100  1
  O  O8  1  0.00152400  0.99992900  0.24875800  1
  O  O9  1  0.49847100  0.99993100  0.24883800  1
  O  O10  1  0.00087900  0.99926500  0.75125800  1
  O  O11  1  0.49911700  0.99926300  0.75117600  1
  O  O12  1  0.00152700  0.50007000  0.24883800  1
  O  O13  1  0.49848800  0.50006700  0.24982800  1
  O  O14  1  0.00088000  0.50073500  0.75117700  1
  O  O15  1  0.49913100  0.50072900  0.75017800  1
  O  O16  1  0.75008700  0.99992100  0.00007800  1
  O  O17  1  0.24991700  0.99927700  0.00072200  1
  O  O18  1  0.75000600  0.99993000  0.49992600  1
  O  O19  1  0.24999100  0.99928700  0.49928600  1
  O  O20  1  0.75109700  0.50007500  0.00007300  1
  O  O21  1  0.24894300  0.50072000  0.00072100  1
  O  O22  1  0.75008700  0.50007100  0.49992900  1
  O  O23  1  0.24992000  0.50071800  0.49928200  1
loop_
_geom_bond_atom_site_label_1
_geom_bond_atom_site_label_2
_geom_bond_distance
_geom_bond_site_symmetry_2
K0 O22 2.845506 1_555
K0 O18 2.845949 1_555
K0 O20 2.846898 1_555
K0 O16 2.847425 1_555
K0 O3 2.854466 1_555
K0 O13 2.854703 1_555
K0 O2 2.854886 1_655
K0 O9 2.855403 1_555
K0 O12 2.855412 1_655
K0 O8 2.855840 1_655
K0 O1 2.855891 1_555
K0 O0 2.856553 1_655
K1 O22 2.846239 1_555
K1 O18 2.846878 1_555
K1 O15 2.847256 1_555
K1 O20 2.847782 1_556
K1 O11 2.847927 1_555
K1 O14 2.847936 1_655
K1 O16 2.848250 1_556
K1 O10 2.848404 1_655
K1 O3 2.855155 1_555
K1 O2 2.855774 1_655
K1 O1 2.856768 1_556
K1 O0 2.857300 1_656
K2 O22 2.846234 1_555
K2 O18 2.846873 1_545
K2 O7 2.847012 1_555
K2 O6 2.847529 1_655
K2 O20 2.847764 1_555
K2 O16 2.848267 1_545
K2 O5 2.848420 1_555
K2 O4 2.849128 1_655
K2 O13 2.855481 1_555
K2 O12 2.856122 1_655
K2 O9 2.856123 1_545
K2 O8 2.856777 1_645
K3 O22 2.847152 1_555
K3 O18 2.847549 1_545
K3 O20 2.848623 1_556
K3 O16 2.849185 1_546
K3 O7 2.855178 1_555
K3 O15 2.855635 1_555
K3 O6 2.855847 1_655
K3 O11 2.856160 1_545
K3 O14 2.856291 1_655
K3 O10 2.856817 1_645
K3 O5 2.856857 1_556
K3 O4 2.857432 1_656
K4 O7 2.845332 1_555
K4 O15 2.845578 1_555
K4 O6 2.845937 1_555
K4 O11 2.846219 1_545
K4 O14 2.846334 1_555
K4 O5 2.846728 1_556
K4 O10 2.846852 1_545
K4 O4 2.847443 1_556
K4 O23 2.854452 1_555
K4 O19 2.854912 1_545
K4 O21 2.855929 1_556
K4 O17 2.856588 1_546
Na0 O12 2.837925 1_555
Na0 O9 2.837932 1_555
Na0 O3 2.838011 1_555
Na0 O13 2.838029 1_555
Na0 O8 2.838081 1_555
Na0 O0 2.838108 1_555
Na0 O2 2.838173 1_555
Na0 O1 2.838215 1_555
Na0 O23 2.839025 1_555
Na0 O19 2.839075 1_555
Na0 O21 2.839099 1_555
Na0 O17 2.839202 1_555
Na1 O11 2.837794 1_555
Na1 O14 2.837811 1_555
Na1 O15 2.837908 1_555
Na1 O10 2.837961 1_555
Na1 O3 2.838853 1_555
Na1 O2 2.838873 1_555
Na1 O1 2.838961 1_556
Na1 O0 2.839042 1_556
Na1 O23 2.847128 1_555
Na1 O19 2.847272 1_555
Na1 O17 2.847385 1_556
Na1 O21 2.847411 1_556
Na2 O7 2.837918 1_555
Na2 O4 2.837998 1_555
Na2 O6 2.838086 1_555
Na2 O5 2.838094 1_555
Na2 O13 2.838715 1_555
Na2 O12 2.838793 1_555
Na2 O9 2.838799 1_545
Na2 O8 2.838824 1_545
Na2 O23 2.847133 1_555
Na2 O19 2.847276 1_545
Na2 O21 2.847380 1_555
Na2 O17 2.847389 1_545
Nb0 O19 2.007458 1_555
Nb0 O2 2.011344 1_555
Nb0 O6 2.015002 1_565
Nb0 O18 2.018588 1_455
Nb0 O8 2.021641 1_555
Nb0 O10 2.025371 1_555
Nb1 O19 2.007595 1_555
Nb1 O3 2.010756 1_555
Nb1 O7 2.014390 1_565
Nb1 O18 2.018692 1_555
Nb1 O9 2.021013 1_555
Nb1 O11 2.024695 1_555
Nb2 O13 2.010262 1_555
Nb2 O15 2.013798 1_554
Nb2 O21 2.016203 1_555
Nb2 O1 2.020115 1_555
Nb2 O5 2.023764 1_555
Nb2 O20 2.027308 1_555
Nb3 O23 2.006927 1_555
Nb3 O2 2.011473 1_555
Nb3 O6 2.015147 1_555
Nb3 O22 2.017895 1_455
Nb3 O12 2.021013 1_555
Nb3 O14 2.024703 1_555
Nb4 O23 2.008183 1_555
Nb4 O3 2.012069 1_555
Nb4 O13 2.012959 1_555
Nb4 O7 2.015750 1_555
Nb4 O15 2.016738 1_555
Nb4 O22 2.019328 1_555
O0 Ta0 2.010676 1_555
O0 Ta2 2.012020 1_555
O1 Ta1 2.002639 1_555
O4 Ta0 2.014446 1_545
O4 Ta2 2.015823 1_555
O5 Ta1 2.006449 1_545
O8 Ta0 2.001514 1_555
O9 Ta1 2.002167 1_555
O10 Ta0 2.005229 1_556
O11 Ta1 2.005881 1_556
O12 Ta2 2.002158 1_555
O14 Ta2 2.005881 1_556
O16 Ta0 2.018064 1_655
O16 Ta1 2.019498 1_555
O17 Ta0 2.006733 1_555
O17 Ta1 2.008038 1_555
O20 Ta2 2.010141 1_655
O21 Ta2 1.998681 1_555
