# generated using pymatgen
data_NaCl3
_symmetry_space_group_name_H-M   'P 1'
_cell_length_a   5.52700500
_cell_length_b   5.52700500
_cell_length_c   5.52700500
_cell_angle_alpha   90.00000000
_cell_angle_beta   90.00000000
_cell_angle_gamma   90.00000000
_symmetry_Int_Tables_number   1
_chemical_formula_structural   NaCl3
_chemical_formula_sum   'Na2 Cl6'
_cell_volume   168.83775640
_cell_formula_units_Z   2
loop_
 _symmetry_equiv_pos_site_id
 _symmetry_equiv_pos_as_xyz
  1  'x, y, z'
loop_
 _atom_site_type_symbol
 _atom_site_label
 _atom_site_symmetry_multiplicity
 _atom_site_fract_x
 _atom_site_fract_y
 _atom_site_fract_z
 _atom_site_occupancy
  Na  Na0  1  0.50000000  0.50000000  0.50000000  1
  Na  Na1  1  0.00000000  0.00000000  0.00000000  1
  Cl  Cl0  1  0.50000000  0.00000000  0.75000000  1
  Cl  Cl1  1  0.00000000  0.25000000  0.50000000  1
  Cl  Cl2  1  0.75000000  0.50000000  0.00000000  1
  Cl  Cl3  1  0.50000000  0.00000000  0.25000000  1
  Cl  Cl4  1  0.00000000  0.75000000  0.50000000  1
  Cl  Cl5  1  0.25000000  0.50000000  0.00000000  1
loop_
_geom_bond_atom_site_label_1
_geom_bond_atom_site_label_2
_geom_bond_distance
_geom_bond_site_symmetry_2
Cl0 Na1 3.089690 1_656
Cl0 Na0 3.089690 1_545
Cl0 Na1 3.089690 1_556
Cl0 Na0 3.089690 1_555
Cl1 Na1 3.089690 1_556
Cl1 Na0 3.089690 1_455
Cl1 Na0 3.089690 1_555
Cl1 Na1 3.089690 1_555
Cl2 Na1 3.089690 1_655
Cl2 Na1 3.089690 1_665
Cl2 Na0 3.089690 1_554
Cl2 Na0 3.089690 1_555
Cl3 Na1 3.089690 1_655
Cl3 Na0 3.089690 1_545
Cl3 Na0 3.089690 1_555
Cl3 Na1 3.089690 1_555
Cl4 Na1 3.089690 1_566
Cl4 Na0 3.089690 1_455
Cl4 Na0 3.089690 1_555
Cl4 Na1 3.089690 1_565
Cl5 Na1 3.089690 1_555
Cl5 Na0 3.089690 1_554
Cl5 Na0 3.089690 1_555
Cl5 Na1 3.089690 1_565
