# generated using pymatgen
data_Ca15Ni(IrO6)4
_symmetry_space_group_name_H-M   'P 1'
_cell_length_a   9.38590600
_cell_length_b   6.57804000
_cell_length_c   9.22314894
_cell_angle_alpha   88.67344007
_cell_angle_beta   90.00000000
_cell_angle_gamma   90.00000000
_symmetry_Int_Tables_number   1
_chemical_formula_structural   Ca15Ni(IrO6)4
_chemical_formula_sum   'Ca15 Ni1 Ir4 O24'
_cell_volume   569.29257483
_cell_formula_units_Z   1
loop_
 _symmetry_equiv_pos_site_id
 _symmetry_equiv_pos_as_xyz
  1  'x, y, z'
loop_
 _atom_site_type_symbol
 _atom_site_label
 _atom_site_symmetry_multiplicity
 _atom_site_fract_x
 _atom_site_fract_y
 _atom_site_fract_z
 _atom_site_occupancy
  Ca  Ca0  1  0.68007000  0.63741700  0.32056900  1
  Ca  Ca1  1  0.17722000  0.64654200  0.82174200  1
  Ca  Ca2  1  0.17722000  0.35345800  0.17825800  1
  Ca  Ca3  1  0.68007000  0.36258300  0.67943100  1
  Ca  Ca4  1  0.13893000  0.00000000  0.50000000  1
  Ca  Ca5  1  0.64593600  0.00000000  0.00000000  1
  Ca  Ca6  1  0.82068300  0.13888700  0.31328800  1
  Ca  Ca7  1  0.31692500  0.13524800  0.82370500  1
  Ca  Ca8  1  0.86463700  0.50000000  0.00000000  1
  Ca  Ca9  1  0.35947300  0.50000000  0.50000000  1
  Ca  Ca10  1  0.31692500  0.86475200  0.17629500  1
  Ca  Ca11  1  0.82068300  0.86111300  0.68671200  1
  Ca  Ca12  1  0.50034800  0.00000000  0.50000000  1
  Ca  Ca13  1  0.99917700  0.50000000  0.50000000  1
  Ca  Ca14  1  0.49981500  0.50000000  0.00000000  1
  Ni  Ni0  1  0.99979700  0.00000000  0.00000000  1
  Ir  Ir0  1  0.00057700  0.75228500  0.24759700  1
  Ir  Ir1  1  0.49972200  0.74980600  0.75014300  1
  Ir  Ir2  1  0.00057700  0.24771500  0.75240300  1
  Ir  Ir3  1  0.49972200  0.25019400  0.24985700  1
  O  O0  1  0.10797400  0.71161000  0.05981700  1
  O  O1  1  0.61204500  0.69406900  0.56545400  1
  O  O2  1  0.05837700  0.04787700  0.22534100  1
  O  O3  1  0.56741200  0.04691700  0.74290700  1
  O  O4  1  0.83490400  0.83127900  0.11801600  1
  O  O5  1  0.32131700  0.82598800  0.63106000  1
  O  O6  1  0.88849800  0.19364300  0.56687500  1
  O  O7  1  0.38725300  0.19577100  0.06567600  1
  O  O8  1  0.67587100  0.32536100  0.13000000  1
  O  O9  1  0.17499300  0.31905900  0.62943800  1
  O  O10  1  0.43538400  0.54705600  0.24256400  1
  O  O11  1  0.93672100  0.54518000  0.74127500  1
  O  O12  1  0.88849800  0.80635700  0.43312500  1
  O  O13  1  0.38725300  0.80422900  0.93432400  1
  O  O14  1  0.93672100  0.45482000  0.25872500  1
  O  O15  1  0.43538400  0.45294400  0.75743600  1
  O  O16  1  0.17499300  0.68094100  0.37056200  1
  O  O17  1  0.67587100  0.67463900  0.87000000  1
  O  O18  1  0.10797400  0.28839000  0.94018300  1
  O  O19  1  0.61204500  0.30593100  0.43454600  1
  O  O20  1  0.32131700  0.17401200  0.36894000  1
  O  O21  1  0.83490400  0.16872100  0.88198400  1
  O  O22  1  0.56741200  0.95308300  0.25709300  1
  O  O23  1  0.05837700  0.95212300  0.77465900  1
loop_
_geom_bond_atom_site_label_1
_geom_bond_atom_site_label_2
_geom_bond_distance
_geom_bond_site_symmetry_2
Ca0 O1 2.384706 1_555
Ca0 O22 2.390869 1_555
Ca0 O19 2.482196 1_555
Ca0 O10 2.482960 1_555
Ca0 O12 2.488602 1_555
Ca0 O4 2.667949 1_555
Ca0 O8 2.733418 1_555
Ca0 O14 2.757281 1_555
Ca1 O23 2.330876 1_555
Ca1 O0 2.338948 1_556
Ca1 O13 2.467836 1_555
Ca1 O11 2.472588 1_455
Ca1 O5 2.493877 1_555
Ca1 O18 2.654625 1_555
Ca1 O15 2.807127 1_555
Ca1 O9 2.822009 1_555
Ca2 O2 2.330876 1_555
Ca2 O18 2.338948 1_554
Ca2 O7 2.467836 1_555
Ca2 O14 2.472588 1_455
Ca2 O20 2.493877 1_555
Ca2 O0 2.654625 1_555
Ca2 O10 2.807127 1_555
Ca2 O16 2.822009 1_555
Ca3 O19 2.384706 1_555
Ca3 O3 2.390869 1_555
Ca3 O1 2.482196 1_555
Ca3 O15 2.482960 1_555
Ca3 O6 2.488602 1_555
Ca3 O21 2.667949 1_555
Ca3 O17 2.733418 1_555
Ca3 O11 2.757281 1_555
Ca4 O20 2.374411 1_555
Ca4 O5 2.374411 1_545
Ca4 O9 2.461848 1_555
Ca4 O16 2.461848 1_545
Ca4 O23 2.655388 1_545
Ca4 O2 2.655388 1_555
Ca4 O6 2.750338 1_455
Ca4 O12 2.750338 1_445
Ca5 O21 2.346574 1_554
Ca5 O4 2.346574 1_545
Ca5 O8 2.493191 1_555
Ca5 O17 2.493191 1_544
Ca5 O3 2.495432 1_554
Ca5 O22 2.495432 1_545
Ca5 O7 2.820727 1_555
Ca5 O13 2.820727 1_544
Ca6 O14 2.389563 1_555
Ca6 O2 2.452772 1_655
Ca6 O6 2.458495 1_555
Ca6 O8 2.472607 1_555
Ca6 O12 2.509886 1_545
Ca6 O19 2.519892 1_555
Ca6 O22 2.728144 1_545
Ca6 O4 2.743103 1_545
Ca7 O7 2.369810 1_556
Ca7 O15 2.432688 1_555
Ca7 O18 2.462783 1_555
Ca7 O13 2.472872 1_545
Ca7 O9 2.519263 1_555
Ca7 O3 2.537800 1_555
Ca7 O5 2.732130 1_545
Ca7 O23 2.751334 1_545
Ca8 O17 2.415080 1_554
Ca8 O8 2.415080 1_555
Ca8 O4 2.474118 1_555
Ca8 O21 2.474118 1_554
Ca8 O14 2.491480 1_555
Ca8 O11 2.491480 1_554
Ca8 O0 2.737501 1_655
Ca8 O18 2.737501 1_654
Ca9 O9 2.402962 1_555
Ca9 O16 2.402962 1_555
Ca9 O10 2.491398 1_555
Ca9 O15 2.491398 1_555
Ca9 O5 2.511519 1_555
Ca9 O20 2.511519 1_555
Ca9 O1 2.765799 1_555
Ca9 O19 2.765799 1_555
Ca10 O13 2.369810 1_554
Ca10 O10 2.432688 1_555
Ca10 O0 2.462783 1_555
Ca10 O7 2.472872 1_565
Ca10 O16 2.519263 1_555
Ca10 O22 2.537800 1_555
Ca10 O20 2.732130 1_565
Ca10 O2 2.751334 1_565
Ca11 O11 2.389563 1_555
Ca11 O23 2.452772 1_655
Ca11 O12 2.458495 1_555
Ca11 O17 2.472607 1_555
Ca11 O6 2.509886 1_565
Ca11 O1 2.519892 1_555
Ca11 O3 2.728144 1_565
Ca11 O21 2.743103 1_565
Ca12 O19 2.336054 1_555
Ca12 O1 2.336054 1_545
Ca12 O20 2.351803 1_555
Ca12 O5 2.351803 1_545
Ca12 O3 2.354299 1_555
Ca12 O22 2.354299 1_545
Ca13 O14 2.326932 1_555
Ca13 O11 2.326932 1_555
Ca13 O12 2.337346 1_555
Ca13 O6 2.337346 1_555
Ca13 O9 2.345043 1_655
Ca13 O16 2.345043 1_655
Ca14 O17 2.328975 1_554
Ca14 O8 2.328975 1_555
Ca14 O7 2.330644 1_555
Ca14 O13 2.330644 1_554
Ca14 O10 2.344925 1_555
Ca14 O15 2.344925 1_554
Ni0 O2 2.179760 1_655
Ni0 O23 2.179760 1_644
Ni0 O21 2.180805 1_554
Ni0 O4 2.180805 1_545
Ni0 O0 2.210338 1_645
Ni0 O18 2.210338 1_654
Ir0 O4 2.021788 1_455
Ir0 O2 2.024530 1_565
Ir0 O0 2.026994 1_555
Ir0 O16 2.040044 1_555
Ir0 O14 2.046771 1_455
Ir0 O12 2.046793 1_455
Ir1 O13 2.038710 1_555
Ir1 O17 2.043202 1_555
Ir1 O1 2.043627 1_555
Ir1 O15 2.043627 1_555
Ir1 O3 2.054695 1_565
Ir1 O5 2.058125 1_555
Ir2 O21 2.021788 1_455
Ir2 O23 2.024530 1_545
Ir2 O18 2.026994 1_555
Ir2 O9 2.040044 1_555
Ir2 O11 2.046771 1_455
Ir2 O6 2.046793 1_455
Ir3 O7 2.038710 1_555
Ir3 O8 2.043202 1_555
Ir3 O19 2.043627 1_555
Ir3 O10 2.043627 1_555
Ir3 O22 2.054695 1_545
Ir3 O20 2.058125 1_555
