# generated using pymatgen
data_NaV2O4
_symmetry_space_group_name_H-M   'P 1'
_cell_length_a   5.02608422
_cell_length_b   6.08296000
_cell_length_c   6.68326618
_cell_angle_alpha   117.06936493
_cell_angle_beta   102.97141534
_cell_angle_gamma   89.99847660
_symmetry_Int_Tables_number   1
_chemical_formula_structural   NaV2O4
_chemical_formula_sum   'Na2 V4 O8'
_cell_volume   176.07246227
_cell_formula_units_Z   2
loop_
 _symmetry_equiv_pos_site_id
 _symmetry_equiv_pos_as_xyz
  1  'x, y, z'
loop_
 _atom_site_type_symbol
 _atom_site_label
 _atom_site_symmetry_multiplicity
 _atom_site_fract_x
 _atom_site_fract_y
 _atom_site_fract_z
 _atom_site_occupancy
  Na  Na0  1  0.75000000  0.69898700  0.00000300  1
  Na  Na1  1  0.25000000  0.30101300  0.99999800  1
  V  V0  1  0.23793300  0.38590200  0.50664900  1
  V  V1  1  0.26210200  0.87924600  0.49333600  1
  V  V2  1  0.76206400  0.61409900  0.49335200  1
  V  V3  1  0.73790000  0.12075400  0.50666300  1
  O  O0  1  0.02665900  0.53398300  0.30723700  1
  O  O1  1  0.47336600  0.22674200  0.69277000  1
  O  O2  1  0.97334800  0.46601700  0.69276300  1
  O  O3  1  0.52662800  0.77325900  0.30723000  1
  O  O4  1  0.47456100  0.71538200  0.67100200  1
  O  O5  1  0.02542100  0.04437600  0.32899800  1
  O  O6  1  0.52543300  0.28461700  0.32899800  1
  O  O7  1  0.97458500  0.95562400  0.67100200  1
loop_
_geom_bond_atom_site_label_1
_geom_bond_atom_site_label_2
_geom_bond_distance
_geom_bond_site_symmetry_2
Na0 O4 2.365211 1_554
Na0 O5 2.365216 1_665
Na0 O3 2.423024 1_555
Na0 O2 2.423027 1_554
Na0 O0 2.784064 1_655
Na0 O1 2.784159 1_554
Na1 O6 2.365197 1_556
Na1 O7 2.365208 1_445
Na1 O0 2.423000 1_556
Na1 O1 2.423011 1_555
Na1 O2 2.784058 1_455
Na1 O3 2.784152 1_556
O0 V2 1.934972 1_455
O0 V0 2.042635 1_555
O0 V1 2.078498 1_555
O1 V3 1.934679 1_555
O1 V1 2.042720 1_545
O1 V0 2.078476 1_555
O2 V0 1.934926 1_655
O2 V2 2.042653 1_555
O2 V3 2.078509 1_555
O3 V1 1.934641 1_555
O3 V3 2.042730 1_565
O3 V2 2.078487 1_555
O4 V2 1.995417 1_555
O4 V0 2.011936 1_555
O4 V1 2.012876 1_555
O5 V3 1.995558 1_455
O5 V1 2.011930 1_545
O5 V0 2.013043 1_555
O6 V0 1.995408 1_555
O6 V2 2.011951 1_555
O6 V3 2.012883 1_555
O7 V1 1.995545 1_655
O7 V3 2.011943 1_565
O7 V2 2.013056 1_555
