# generated using pymatgen
data_Mo3W(SeS3)2
_symmetry_space_group_name_H-M   'P 1'
_cell_length_a   3.22039982
_cell_length_b   3.22039982
_cell_length_c   36.34893100
_cell_angle_alpha   90.00000000
_cell_angle_beta   90.00000000
_cell_angle_gamma   119.99999626
_symmetry_Int_Tables_number   1
_chemical_formula_structural   Mo3W(SeS3)2
_chemical_formula_sum   'Mo3 W1 Se2 S6'
_cell_volume   326.46894661
_cell_formula_units_Z   1
loop_
 _symmetry_equiv_pos_site_id
 _symmetry_equiv_pos_as_xyz
  1  'x, y, z'
loop_
 _atom_site_type_symbol
 _atom_site_label
 _atom_site_symmetry_multiplicity
 _atom_site_fract_x
 _atom_site_fract_y
 _atom_site_fract_z
 _atom_site_occupancy
  Mo  Mo0  1  0.33333300  0.66666700  0.09391200  1
  Mo  Mo1  1  0.33333300  0.66666700  0.46964400  1
  Mo  Mo2  1  0.66666700  0.33333300  0.65755400  1
  W  W0  1  0.66666700  0.33333300  0.28179100  1
  Se  Se0  1  0.33333300  0.66666700  0.70463000  1
  Se  Se1  1  0.33333300  0.66666700  0.61047900  1
  S  S0  1  0.33333300  0.66666700  0.32475200  1
  S  S1  1  0.66666700  0.33333300  0.05110900  1
  S  S2  1  0.66666700  0.33333300  0.42686400  1
  S  S3  1  0.66666700  0.33333300  0.13672200  1
  S  S4  1  0.66666700  0.33333300  0.51244900  1
  S  S5  1  0.33333300  0.66666700  0.23884200  1
loop_
_geom_bond_atom_site_label_1
_geom_bond_atom_site_label_2
_geom_bond_distance
_geom_bond_site_symmetry_2
Mo0 S1 2.424383 1_565
Mo0 S1 2.424383 1_455
Mo0 S1 2.424387 1_555
Mo0 S3 2.424546 1_455
Mo0 S3 2.424546 1_565
Mo0 S3 2.424551 1_555
Mo1 S2 2.423847 1_455
Mo1 S2 2.423847 1_565
Mo1 S2 2.423851 1_555
Mo1 S4 2.424430 1_455
Mo1 S4 2.424430 1_565
Mo1 S4 2.424434 1_555
Mo2 Se1 2.526843 1_545
Mo2 Se1 2.526843 1_655
Mo2 Se1 2.526847 1_555
Mo2 Se0 2.526868 1_545
Mo2 Se0 2.526868 1_655
Mo2 Se0 2.526872 1_555
S0 W0 2.428073 1_455
S0 W0 2.428073 1_565
S0 W0 2.428077 1_555
S5 W0 2.427792 1_455
S5 W0 2.427792 1_565
S5 W0 2.427796 1_555
