# generated using pymatgen
data_NaLaZr2O6
_symmetry_space_group_name_H-M   'P 1'
_cell_length_a   5.81018820
_cell_length_b   5.81018820
_cell_length_c   5.81018820
_cell_angle_alpha   120.17605532
_cell_angle_beta   119.18878157
_cell_angle_gamma   90.55305934
_symmetry_Int_Tables_number   1
_chemical_formula_structural   NaLaZr2O6
_chemical_formula_sum   'Na1 La1 Zr2 O6'
_cell_volume   139.33929273
_cell_formula_units_Z   1
loop_
 _symmetry_equiv_pos_site_id
 _symmetry_equiv_pos_as_xyz
  1  'x, y, z'
loop_
 _atom_site_type_symbol
 _atom_site_label
 _atom_site_symmetry_multiplicity
 _atom_site_fract_x
 _atom_site_fract_y
 _atom_site_fract_z
 _atom_site_occupancy
  Na  Na0  1  0.00000000  0.50867100  0.50867100  1
  La  La0  1  0.50000000  0.97677800  0.47677800  1
  Zr  Zr0  1  0.75274700  0.74962200  0.99687500  1
  Zr  Zr1  1  0.24725300  0.24412900  0.99687500  1
  O  O0  1  0.93254400  0.95316800  0.49983400  1
  O  O1  1  0.06745600  0.56729100  0.02062400  1
  O  O2  1  0.45333400  0.95316800  0.02062400  1
  O  O3  1  0.54666600  0.56729100  0.49983400  1
  O  O4  1  0.00000000  0.09425400  0.09425400  1
  O  O5  1  0.50000000  0.38562900  0.88562900  1
loop_
_geom_bond_atom_site_label_1
_geom_bond_atom_site_label_2
_geom_bond_distance
_geom_bond_site_symmetry_2
Na0 O4 2.401430 1_555
Na0 O1 2.638055 1_556
Na0 O2 2.638058 1_556
Na0 O0 2.638058 1_455
Na0 O3 2.638059 1_455
La0 O5 2.369177 1_565
La0 O3 2.459568 1_555
La0 O1 2.459571 1_555
La0 O0 2.459574 1_555
La0 O2 2.459574 1_555
O0 Zr1 2.103110 1_665
O0 Zr0 2.133974 1_554
O1 Zr0 2.103106 1_454
O1 Zr1 2.133974 1_554
O2 Zr1 2.103114 1_564
O2 Zr0 2.133974 1_554
O3 Zr0 2.103110 1_555
O3 Zr1 2.133974 1_554
O4 Zr0 2.099080 1_444
O4 Zr1 2.099083 1_554
O5 Zr1 2.164935 1_555
O5 Zr0 2.164938 1_555
