# generated using pymatgen
data_La3ScO6
_symmetry_space_group_name_H-M   'P 1'
_cell_length_a   7.61824084
_cell_length_b   7.61824084
_cell_length_c   5.85250900
_cell_angle_alpha   90.00000000
_cell_angle_beta   90.00000000
_cell_angle_gamma   102.96508121
_symmetry_Int_Tables_number   1
_chemical_formula_structural   La3ScO6
_chemical_formula_sum   'La6 Sc2 O12'
_cell_volume   331.00643757
_cell_formula_units_Z   2
loop_
 _symmetry_equiv_pos_site_id
 _symmetry_equiv_pos_as_xyz
  1  'x, y, z'
loop_
 _atom_site_type_symbol
 _atom_site_label
 _atom_site_symmetry_multiplicity
 _atom_site_fract_x
 _atom_site_fract_y
 _atom_site_fract_z
 _atom_site_occupancy
  La  La0  1  0.08799500  0.30072500  0.46865500  1
  La  La1  1  0.30072500  0.08799500  0.96865500  1
  La  La2  1  0.60370100  0.39629900  0.42953200  1
  La  La3  1  0.39629900  0.60370100  0.92953200  1
  La  La4  1  0.69927500  0.91200500  0.46865500  1
  La  La5  1  0.91200500  0.69927500  0.96865500  1
  Sc  Sc0  1  0.80629600  0.19370400  0.99839000  1
  Sc  Sc1  1  0.19370400  0.80629600  0.49839000  1
  O  O0  1  0.32519300  0.35358800  0.20126000  1
  O  O1  1  0.35358800  0.32519300  0.70126000  1
  O  O2  1  0.58080600  0.11062400  0.17684200  1
  O  O3  1  0.11062400  0.58080600  0.67684200  1
  O  O4  1  0.95763500  0.04236500  0.13848600  1
  O  O5  1  0.78462400  0.21537600  0.65402300  1
  O  O6  1  0.21537600  0.78462400  0.15402300  1
  O  O7  1  0.04236500  0.95763500  0.63848600  1
  O  O8  1  0.41919400  0.88937600  0.67684200  1
  O  O9  1  0.88937600  0.41919400  0.17684200  1
  O  O10  1  0.64641200  0.67480700  0.20126000  1
  O  O11  1  0.67480700  0.64641200  0.70126000  1
loop_
_geom_bond_atom_site_label_1
_geom_bond_atom_site_label_2
_geom_bond_distance
_geom_bond_site_symmetry_2
La0 O0 2.355847 1_555
La0 O1 2.410946 1_555
La0 O3 2.429400 1_555
La0 O5 2.503366 1_455
La0 O9 2.575577 1_455
La0 O7 2.744577 1_545
La0 O4 2.777954 1_455
La1 O1 2.355847 1_555
La1 O0 2.410946 1_556
La1 O2 2.429400 1_556
La1 O6 2.503366 1_546
La1 O8 2.575577 1_545
La1 O4 2.744577 1_456
La1 O7 2.777954 1_545
La2 O1 2.447436 1_555
La2 O11 2.447436 1_555
La2 O0 2.466308 1_555
La2 O10 2.466308 1_555
La2 O5 2.525493 1_555
La2 O2 2.604536 1_555
La2 O9 2.604536 1_555
La3 O0 2.447436 1_556
La3 O10 2.447436 1_556
La3 O1 2.466308 1_555
La3 O11 2.466308 1_555
La3 O6 2.525493 1_556
La3 O3 2.604536 1_555
La3 O8 2.604536 1_555
La4 O10 2.355847 1_555
La4 O11 2.410946 1_555
La4 O8 2.429400 1_555
La4 O5 2.503366 1_565
La4 O2 2.575577 1_565
La4 O7 2.744577 1_655
La4 O4 2.777954 1_565
La5 O11 2.355847 1_555
La5 O10 2.410946 1_556
La5 O9 2.429400 1_556
La5 O6 2.503366 1_656
La5 O3 2.575577 1_655
La5 O4 2.744577 1_566
La5 O7 2.777954 1_655
O2 Sc0 1.988578 1_554
O3 Sc1 1.988578 1_555
O4 Sc0 1.981728 1_554
O5 Sc0 2.031903 1_555
O6 Sc1 2.031903 1_555
O7 Sc1 1.981728 1_555
O8 Sc1 1.988578 1_555
O9 Sc0 1.988578 1_554
