# generated using pymatgen
data_V2O5
_symmetry_space_group_name_H-M   'P 1'
_cell_length_a   12.43938620
_cell_length_b   12.92360499
_cell_length_c   12.08848097
_cell_angle_alpha   92.84918619
_cell_angle_beta   95.87938547
_cell_angle_gamma   89.39223676
_symmetry_Int_Tables_number   1
_chemical_formula_structural   V2O5
_chemical_formula_sum   'V30 O75'
_cell_volume   1930.72286628
_cell_formula_units_Z   15
loop_
 _symmetry_equiv_pos_site_id
 _symmetry_equiv_pos_as_xyz
  1  'x, y, z'
loop_
 _atom_site_type_symbol
 _atom_site_label
 _atom_site_symmetry_multiplicity
 _atom_site_fract_x
 _atom_site_fract_y
 _atom_site_fract_z
 _atom_site_occupancy
  V  V0  1  0.77821606  0.86753165  0.02581334  1
  V  V1  1  0.80499748  0.83617266  0.30412467  1
  V  V2  1  0.88450595  0.65447380  0.71447095  1
  V  V3  1  0.48821313  0.61130718  0.06097399  1
  V  V4  1  0.77877586  0.03051962  0.65371470  1
  V  V5  1  0.41227759  0.20699508  0.76089549  1
  V  V6  1  0.31660485  0.65755804  0.86435763  1
  V  V7  1  0.41164322  0.81490188  0.46783037  1
  V  V8  1  0.84535374  0.07482658  0.18581511  1
  V  V9  1  0.33877132  0.76001031  0.23687235  1
  V  V10  1  0.25964823  0.01484805  0.16391181  1
  V  V11  1  0.32791436  0.59136057  0.58765143  1
  V  V12  1  0.74322444  0.62589803  0.44395636  1
  V  V13  1  0.06324753  0.78591813  0.80778769  1
  V  V14  1  0.03261122  0.95557456  0.04129651  1
  V  V15  1  0.97556870  0.88408651  0.55750096  1
  V  V16  1  0.18769582  0.31936674  0.65413813  1
  V  V17  1  0.09404631  0.44053041  0.19746001  1
  V  V18  1  0.01986125  0.43797189  0.81739855  1
  V  V19  1  0.63671698  0.20216384  0.03415149  1
  V  V20  1  0.72524582  0.24479018  0.82574542  1
  V  V21  1  0.50841764  0.00254889  0.59326154  1
  V  V22  1  0.63138508  0.40982852  0.27328599  1
  V  V23  1  0.24385835  0.45124153  0.97991696  1
  V  V24  1  0.01846740  0.38245027  0.46100419  1
  V  V25  1  0.37005662  0.48648855  0.33855875  1
  V  V26  1  0.80101369  0.23819639  0.40756371  1
  V  V27  1  0.41711888  0.07610095  0.00721206  1
  V  V28  1  0.64960213  0.68905422  0.85837702  1
  V  V29  1  0.82510164  0.40522788  0.06531618  1
  O  O0  1  0.29073917  0.79464054  0.38081807  1
  O  O1  1  0.83831317  0.62552643  0.56501130  1
  O  O2  1  0.29003306  0.35616188  0.90751811  1
  O  O3  1  0.52102796  0.85585603  0.61909868  1
  O  O4  1  0.08059939  0.33288746  0.74443571  1
  O  O5  1  0.49023181  0.41178635  0.30005019  1
  O  O6  1  0.18130892  0.39534650  0.08429148  1
  O  O7  1  0.40719800  0.74264009  0.90897874  1
  O  O8  1  0.88043722  0.34404441  0.47148654  1
  O  O9  1  0.16415109  0.02002892  0.04195381  1
  O  O10  1  0.47428469  0.12396365  0.65981754  1
  O  O11  1  0.06096747  0.87944518  0.14216623  1
  O  O12  1  0.75069596  0.99003937  0.06622239  1
  O  O13  1  0.55826496  0.69438281  0.75581923  1
  O  O14  1  0.38533065  0.15744880  0.89162517  1
  O  O15  1  0.98221412  0.70128296  0.85901307  1
  O  O16  1  0.69462733  0.33565247  0.74116015  1
  O  O17  1  0.34814539  0.56378302  0.98652395  1
  O  O18  1  0.47445049  0.92189298  0.70383757  1
  O  O19  1  0.49183269  0.78995862  0.37087758  1
  O  O20  1  0.77143514  0.64931197  0.78763239  1
  O  O21  1  0.13472920  0.50658722  0.89452024  1
  O  O22  1  0.45884326  0.32315631  0.76496106  1
  O  O23  1  0.37032108  0.49240022  0.48652872  1
  O  O24  1  0.56111051  0.29326029  0.08602533  1
  O  O25  1  0.73934546  0.17449434  0.13929732  1
  O  O26  1  0.90620688  0.00077309  0.59603245  1
  O  O27  1  0.64643578  0.02300035  0.57092748  1
  O  O28  1  0.25411384  0.42767837  0.65133671  1
  O  O29  1  0.55964600  0.08340676  0.03734531  1
  O  O30  1  0.76420559  0.29300117  0.97185762  1
  O  O31  1  0.19470498  0.72615016  0.82067081  1
  O  O32  1  0.38378608  0.95721852  0.97299774  1
  O  O33  1  0.95016516  0.52671326  0.73163707  1
  O  O34  1  0.67830579  0.81543237  0.91546214  1
  O  O35  1  0.63936851  0.68448010  0.48654859  1
  O  O36  1  0.79411610  0.69571260  0.33983539  1
  O  O37  1  0.80707668  0.51536489  0.00856869  1
  O  O38  1  0.05066213  0.39143762  0.32479390  1
  O  O39  1  0.10115916  0.91248915  0.55374262  1
  O  O40  1  0.90129050  0.87833946  0.97774395  1
  O  O41  1  0.11574015  0.28984155  0.52200943  1
  O  O42  1  0.07536826  0.56303750  0.19433235  1
  O  O43  1  0.96187359  0.39168697  0.12426081  1
  O  O44  1  0.97563594  0.78189817  0.67121852  1
  O  O45  1  0.45519911  0.71699800  0.14223604  1
  O  O46  1  0.59206325  0.62388489  0.96832369  1
  O  O47  1  0.27608475  0.21551098  0.69012807  1
  O  O48  1  0.79281680  0.13914361  0.75391358  1
  O  O49  1  0.67351761  0.29613065  0.33962412  1
  O  O50  1  0.40122471  0.69822950  0.55200598  1
  O  O51  1  0.20449896  0.62607098  0.55612451  1
  O  O52  1  0.37843813  0.60893297  0.30081012  1
  O  O53  1  0.95607856  0.06228259  0.09299597  1
  O  O54  1  0.68881604  0.50182892  0.36884025  1
  O  O55  1  0.23622829  0.70882543  0.16247616  1
  O  O56  1  0.24788022  0.43807273  0.28231748  1
  O  O57  1  0.03291518  0.49390547  0.52620709  1
  O  O58  1  0.60789799  0.19128923  0.86969626  1
  O  O59  1  0.41564079  0.96639850  0.48052299  1
  O  O60  1  0.91562690  0.84277400  0.42714119  1
  O  O61  1  0.32838551  0.89211826  0.19771877  1
  O  O62  1  0.53941330  0.52079295  0.14257739  1
  O  O63  1  0.77130930  0.93015823  0.72768373  1
  O  O64  1  0.93987173  0.38444135  0.89665210  1
  O  O65  1  0.73481353  0.41051944  0.17377204  1
  O  O66  1  0.35747383  0.11060894  0.13403041  1
  O  O67  1  0.20271560  0.06019777  0.27011849  1
  O  O68  1  0.69320337  0.88178337  0.34153867  1
  O  O69  1  0.87611906  0.17443499  0.31272293  1
  O  O70  1  0.77643841  0.16092407  0.50566101  1
  O  O71  1  0.78816052  0.79988876  0.15024504  1
  O  O72  1  0.86138341  0.96711520  0.26545214  1
  O  O73  1  0.06818708  0.89888342  0.88361968  1
  O  O74  1  0.35617746  0.59562899  0.74516560  1
loop_
_geom_bond_atom_site_label_1
_geom_bond_atom_site_label_2
_geom_bond_distance
_geom_bond_site_symmetry_2
O0 V7 1.758909 1_555
O0 V9 1.927458 1_555
O1 V12 1.785094 1_555
O1 V2 1.859870 1_555
O2 V23 1.608373 1_555
O3 V21 1.938746 1_565
O3 V7 2.210133 1_555
O4 V18 1.785726 1_555
O4 V16 1.808549 1_555
O5 V22 1.817413 1_555
O5 V25 1.857620 1_555
O6 V23 1.738630 1_554
O6 V17 1.897938 1_555
O7 V6 1.616400 1_555
O8 V26 1.792108 1_555
O8 V24 1.810924 1_655
O9 V10 1.799584 1_555
O9 V14 1.843072 1_545
O10 V21 1.794455 1_555
O10 V5 1.812342 1_555
O11 V14 1.613395 1_555
O12 V0 1.675809 1_555
O12 V8 2.048982 1_565
O13 V28 1.597159 1_555
O14 V5 1.798184 1_555
O14 V27 1.799443 1_556
O15 V13 1.677651 1_655
O15 V2 2.090860 1_555
O16 V20 1.612323 1_555
O17 V23 1.952417 1_555
O17 V6 1.962843 1_555
O17 V3 1.967105 1_556
O18 O3 1.462041 1_555
O18 V21 1.820819 1_565
O19 V7 1.633303 1_555
O19 V9 2.391765 1_555
O20 V2 1.740019 1_555
O20 V28 1.870114 1_555
O21 V23 1.784880 1_555
O21 V18 1.835481 1_555
O22 V5 1.611487 1_555
O23 V25 1.786232 1_555
O23 V11 1.835920 1_555
O24 V19 1.639428 1_555
O25 V19 1.753941 1_555
O25 V8 1.896918 1_555
O26 V15 1.794551 1_545
O26 V4 1.825819 1_555
O27 V21 1.789426 1_555
O27 V4 1.837733 1_555
O28 V16 1.636492 1_555
O29 V27 1.775606 1_555
O29 V19 1.822315 1_555
O30 V20 1.861299 1_555
O30 V29 1.907582 1_556
O30 V19 2.198243 1_556
O31 V6 1.793883 1_555
O31 V13 1.796640 1_555
O32 V27 1.618237 1_566
O33 V18 1.747770 1_655
O33 V2 1.845835 1_555
O34 V28 1.766657 1_555
O34 V0 1.834737 1_556
O35 V12 1.607505 1_555
O36 V12 1.757079 1_555
O36 V1 1.896021 1_555
O37 V29 1.614193 1_555
O38 V24 1.743612 1_555
O38 V17 1.826932 1_555
O39 V15 1.614264 1_455
O40 V0 1.701735 1_556
O40 V14 1.989035 1_656
O41 V16 1.775302 1_555
O41 V24 1.820608 1_555
O42 V17 1.599496 1_555
O43 V29 1.786251 1_555
O43 V17 1.884967 1_655
O44 V13 1.881495 1_655
O44 V15 1.952957 1_555
O44 V2 2.125312 1_555
O45 V3 1.713678 1_555
O45 V9 1.993599 1_555
O46 V3 1.807934 1_556
O46 V28 1.818536 1_555
O47 V16 1.768731 1_555
O47 V5 1.822798 1_555
O48 V4 1.805865 1_555
O48 V20 1.825371 1_555
O49 V22 1.758286 1_555
O49 V26 1.876031 1_555
O50 V11 1.758185 1_555
O50 V7 1.873354 1_555
O51 V11 1.608064 1_555
O52 V25 1.675768 1_555
O52 V9 2.168971 1_555
O53 V14 1.790830 1_645
O53 V8 1.864442 1_555
O54 V22 1.723582 1_555
O54 V12 1.898929 1_555
O55 V9 1.611584 1_555
O56 V25 1.711643 1_555
O56 V17 2.077241 1_555
O57 V24 1.609947 1_555
O58 V20 1.762950 1_555
O58 V19 1.981856 1_556
O59 V21 1.741674 1_565
O59 V7 1.957027 1_555
O60 V15 1.734480 1_555
O60 V1 1.919150 1_555
O61 V9 1.794087 1_555
O61 V10 1.837921 1_565
O62 V3 1.648425 1_555
O62 V22 2.383728 1_555
O63 V4 1.620287 1_565
O64 V18 1.631664 1_655
O65 V29 1.810005 1_555
O65 V22 1.849573 1_555
O66 V27 1.804890 1_555
O66 V10 1.819160 1_555
O67 V10 1.611229 1_555
O68 V1 1.603397 1_555
O69 V26 1.724957 1_555
O69 V8 1.962390 1_555
O70 V26 1.641779 1_555
O71 V0 1.769861 1_555
O71 V1 1.886674 1_555
O72 V8 1.729815 1_565
O72 V1 1.935261 1_555
O73 V13 1.683087 1_555
O73 V14 2.095911 1_556
O74 V6 1.726624 1_555
O74 V11 1.898709 1_555
