# generated using pymatgen
data_Li9Mn2Co5O16
_symmetry_space_group_name_H-M   'P 1'
_cell_length_a   5.06825600
_cell_length_b   5.94637890
_cell_length_c   10.06700540
_cell_angle_alpha   105.12412913
_cell_angle_beta   101.14537256
_cell_angle_gamma   91.00178647
_symmetry_Int_Tables_number   1
_chemical_formula_structural   Li9Mn2Co5O16
_chemical_formula_sum   'Li9 Mn2 Co5 O16'
_cell_volume   286.62463705
_cell_formula_units_Z   1
loop_
 _symmetry_equiv_pos_site_id
 _symmetry_equiv_pos_as_xyz
  1  'x, y, z'
loop_
 _atom_site_type_symbol
 _atom_site_label
 _atom_site_symmetry_multiplicity
 _atom_site_fract_x
 _atom_site_fract_y
 _atom_site_fract_z
 _atom_site_occupancy
  Li  Li0  1  0.50000000  0.50000000  0.00000000  1
  Li  Li1  1  0.25805300  0.12010700  0.74712700  1
  Li  Li2  1  0.50000000  0.00000000  0.00000000  1
  Li  Li3  1  0.25302800  0.61767100  0.74195700  1
  Li  Li4  1  0.74194700  0.87989300  0.25287300  1
  Li  Li5  1  0.74697200  0.38232900  0.25804300  1
  Li  Li6  1  0.00199700  0.24858500  0.49784900  1
  Li  Li7  1  0.99800300  0.75141500  0.50215100  1
  Li  Li8  1  0.50000000  0.00000000  0.50000000  1
  Mn  Mn0  1  0.00622600  0.74727800  0.99968100  1
  Mn  Mn1  1  0.99377400  0.25272200  0.00031900  1
  Co  Co0  1  0.74501000  0.36232100  0.73911600  1
  Co  Co1  1  0.25499000  0.63767900  0.26088400  1
  Co  Co2  1  0.75364800  0.87194000  0.74496000  1
  Co  Co3  1  0.50000000  0.50000000  0.50000000  1
  Co  Co4  1  0.24635200  0.12806000  0.25504000  1
  O  O0  1  0.35757700  0.79909700  0.11841100  1
  O  O1  1  0.10588900  0.44217600  0.87940800  1
  O  O2  1  0.34125300  0.30481400  0.13089200  1
  O  O3  1  0.10261400  0.94638100  0.88076800  1
  O  O4  1  0.58569100  0.21589500  0.37954800  1
  O  O5  1  0.60203600  0.67156100  0.37761900  1
  O  O6  1  0.85677900  0.54427600  0.61555300  1
  O  O7  1  0.87109000  0.05697500  0.63978400  1
  O  O8  1  0.64242300  0.20090300  0.88158900  1
  O  O9  1  0.41430900  0.78410500  0.62045200  1
  O  O10  1  0.65874700  0.69518600  0.86910800  1
  O  O11  1  0.39796400  0.32843900  0.62238100  1
  O  O12  1  0.89411100  0.55782400  0.12059200  1
  O  O13  1  0.89738600  0.05361900  0.11923200  1
  O  O14  1  0.12891000  0.94302500  0.36021600  1
  O  O15  1  0.14322100  0.45572400  0.38444700  1
loop_
_geom_bond_atom_site_label_1
_geom_bond_atom_site_label_2
_geom_bond_distance
_geom_bond_site_symmetry_2
Li0 O8 2.092000 1_554
Li0 O0 2.092000 1_555
Li0 O12 2.098225 1_555
Li0 O1 2.098225 1_554
Li0 O10 2.214954 1_554
Li0 O2 2.214954 1_555
Li1 O7 2.024431 1_455
Li1 O8 2.113441 1_555
Li1 O3 2.145773 1_545
Li1 O11 2.177144 1_555
Li1 O1 2.270186 1_555
Li1 O9 2.315512 1_545
Li2 O0 2.101144 1_545
Li2 O8 2.101144 1_554
Li2 O3 2.107619 1_544
Li2 O13 2.107619 1_555
Li2 O10 2.209863 1_544
Li2 O2 2.209863 1_555
Li3 O9 2.033171 1_555
Li3 O11 2.062120 1_555
Li3 O6 2.129451 1_455
Li3 O1 2.164497 1_555
Li3 O10 2.172709 1_555
Li3 O3 2.322313 1_555
Li4 O14 2.024431 1_655
Li4 O0 2.113441 1_555
Li4 O13 2.145773 1_565
Li4 O5 2.177144 1_555
Li4 O12 2.270186 1_555
Li4 O4 2.315512 1_565
Li5 O4 2.033171 1_555
Li5 O5 2.062120 1_555
Li5 O15 2.129451 1_655
Li5 O12 2.164497 1_555
Li5 O2 2.172709 1_555
Li5 O13 2.322313 1_555
Li6 O6 2.081479 1_455
Li6 O15 2.086047 1_555
Li6 O11 2.123213 1_555
Li6 O14 2.169473 1_545
Li6 O4 2.191208 1_455
Li6 O7 2.229268 1_455
Li7 O15 2.081479 1_655
Li7 O6 2.086047 1_555
Li7 O5 2.123213 1_555
Li7 O7 2.169473 1_565
Li7 O9 2.191208 1_655
Li7 O14 2.229268 1_655
Li8 O9 2.074500 1_545
Li8 O4 2.074500 1_555
Li8 O14 2.082809 1_545
Li8 O7 2.082809 1_555
Li8 O11 2.150729 1_555
Li8 O5 2.150729 1_545
Mn0 O0 1.913213 1_556
Mn0 O10 1.949057 1_455
Mn0 O3 2.004707 1_555
Mn0 O12 2.008532 1_456
Mn0 O1 2.033439 1_555
Mn0 O13 2.053980 1_466
Mn1 O8 1.913213 1_554
Mn1 O2 1.949057 1_655
Mn1 O13 2.004707 1_555
Mn1 O1 2.008532 1_654
Mn1 O12 2.033439 1_555
Mn1 O3 2.053980 1_644
Co0 O11 1.892184 1_555
Co0 O6 1.998039 1_555
Co0 O7 2.011270 1_555
Co0 O1 2.046093 1_655
Co0 O8 2.058650 1_555
Co0 O10 2.172846 1_555
Co1 O5 1.892184 1_555
Co1 O15 1.998039 1_555
Co1 O14 2.011270 1_555
Co1 O12 2.046093 1_455
Co1 O0 2.058650 1_555
Co1 O2 2.172846 1_555
Co2 O7 1.874744 1_565
Co2 O9 1.896142 1_555
Co2 O10 1.948903 1_555
Co2 O3 1.978699 1_655
Co2 O6 2.177382 1_555
Co2 O8 2.229444 1_565
Co3 O4 1.916593 1_555
Co3 O9 1.916593 1_555
Co3 O6 1.924217 1_555
Co3 O15 1.924217 1_555
Co3 O11 1.926070 1_555
Co3 O5 1.926070 1_555
Co4 O14 1.874744 1_545
Co4 O4 1.896142 1_555
Co4 O2 1.948903 1_555
Co4 O13 1.978699 1_455
Co4 O15 2.177382 1_555
Co4 O0 2.229444 1_545
