# generated using pymatgen
data_NdMgSn
_symmetry_space_group_name_H-M   'P 1'
_cell_length_a   8.71082865
_cell_length_b   8.71082865
_cell_length_c   8.71082865
_cell_angle_alpha   150.04582608
_cell_angle_beta   150.04582608
_cell_angle_gamma   42.87413938
_symmetry_Int_Tables_number   1
_chemical_formula_structural   NdMgSn
_chemical_formula_sum   'Nd2 Mg2 Sn2'
_cell_volume   164.36107518
_cell_formula_units_Z   2
loop_
 _symmetry_equiv_pos_site_id
 _symmetry_equiv_pos_as_xyz
  1  'x, y, z'
loop_
 _atom_site_type_symbol
 _atom_site_label
 _atom_site_symmetry_multiplicity
 _atom_site_fract_x
 _atom_site_fract_y
 _atom_site_fract_z
 _atom_site_occupancy
  Nd  Nd0  1  0.66514425  0.66514425  -0.00000000  1
  Nd  Nd1  1  0.33485575  0.33485575  0.00000000  1
  Mg  Mg0  1  0.00000000  0.50000000  0.50000000  1
  Mg  Mg1  1  0.50000000  0.00000000  0.50000000  1
  Sn  Sn0  1  0.86654214  0.86654214  0.00000000  1
  Sn  Sn1  1  0.13345786  0.13345786  -0.00000000  1
loop_
_geom_bond_atom_site_label_1
_geom_bond_atom_site_label_2
_geom_bond_distance
_geom_bond_site_symmetry_2
Nd0 Sn1 3.224826 1_565
Nd0 Sn1 3.224826 1_554
Nd0 Sn1 3.224826 1_666
Nd0 Sn1 3.224826 1_655
Nd0 Sn0 3.265953 1_555
Nd1 Sn0 3.224826 1_444
Nd1 Sn0 3.224826 1_455
Nd1 Sn0 3.224826 1_545
Nd1 Sn0 3.224826 1_556
Nd1 Sn1 3.265953 1_555
Mg0 Sn1 3.122745 1_555
Mg0 Sn1 3.122745 1_566
Mg0 Sn0 3.122745 1_456
Mg0 Sn0 3.122745 1_445
Mg0 Mg1 3.183626 1_465
Mg0 Mg1 3.183626 1_555
Mg0 Mg1 3.183626 1_566
Mg0 Mg1 3.183626 1_454
Mg0 Nd1 3.498525 1_455
Mg0 Nd0 3.498525 1_455
Mg0 Nd1 3.498525 1_556
Mg0 Nd0 3.498525 1_556
Mg1 Sn1 3.122745 1_555
Mg1 Sn0 3.122745 1_445
Mg1 Sn0 3.122745 1_546
Mg1 Sn1 3.122745 1_656
Mg1 Nd1 3.498525 1_556
Mg1 Nd0 3.498525 1_545
Mg1 Nd0 3.498525 1_556
Mg1 Nd1 3.498525 1_545
