# generated using pymatgen
data_Nd8Re11O38
_symmetry_space_group_name_H-M   'P 1'
_cell_length_a   8.97831800
_cell_length_b   9.02655992
_cell_length_c   17.97583709
_cell_angle_alpha   89.94275404
_cell_angle_beta   89.92091476
_cell_angle_gamma   89.97412138
_symmetry_Int_Tables_number   1
_chemical_formula_structural   Nd8Re11O38
_chemical_formula_sum   'Nd16 Re22 O76'
_cell_volume   1456.81935186
_cell_formula_units_Z   2
loop_
 _symmetry_equiv_pos_site_id
 _symmetry_equiv_pos_as_xyz
  1  'x, y, z'
loop_
 _atom_site_type_symbol
 _atom_site_label
 _atom_site_symmetry_multiplicity
 _atom_site_fract_x
 _atom_site_fract_y
 _atom_site_fract_z
 _atom_site_occupancy
  Nd  Nd0  1  0.66128200  0.33424300  0.17276800  1
  Nd  Nd1  1  0.15832200  0.15594600  0.07910700  1
  Nd  Nd2  1  0.84191000  0.85370500  0.09280000  1
  Nd  Nd3  1  0.34009500  0.65185100  0.17457100  1
  Nd  Nd4  1  0.15677400  0.84406400  0.42179900  1
  Nd  Nd5  1  0.66091100  0.66523100  0.32692900  1
  Nd  Nd6  1  0.33978600  0.34763300  0.32557900  1
  Nd  Nd7  1  0.84037100  0.14793100  0.40662300  1
  Nd  Nd8  1  0.68506500  0.33998000  0.67781000  1
  Nd  Nd9  1  0.15149000  0.16136100  0.58140900  1
  Nd  Nd10  1  0.84811300  0.84317000  0.57533900  1
  Nd  Nd11  1  0.34590900  0.65633900  0.67271700  1
  Nd  Nd12  1  0.14891700  0.84280000  0.92500100  1
  Nd  Nd13  1  0.65489600  0.65604600  0.82741600  1
  Nd  Nd14  1  0.31471300  0.33943100  0.82234900  1
  Nd  Nd15  1  0.84616900  0.16132600  0.91845200  1
  Re  Re0  1  0.50057200  0.13265200  0.00025700  1
  Re  Re1  1  0.36704500  0.49923900  0.99943500  1
  Re  Re2  1  0.50178000  0.86517500  0.99979000  1
  Re  Re3  1  0.00119200  0.50142200  0.06664300  1
  Re  Re4  1  0.51205400  0.99667900  0.18168700  1
  Re  Re5  1  0.98795800  0.63823600  0.24888200  1
  Re  Re6  1  0.12600600  0.00067200  0.25016100  1
  Re  Re7  1  0.98738000  0.36454600  0.25123500  1
  Re  Re8  1  0.51203400  0.00366600  0.31825900  1
  Re  Re9  1  0.00061600  0.49794500  0.43317800  1
  Re  Re10  1  0.50069900  0.13553000  0.50072400  1
  Re  Re11  1  0.63402000  0.50023000  0.50005000  1
  Re  Re12  1  0.36688100  0.50143200  0.50006000  1
  Re  Re13  1  0.49958900  0.86812600  0.49908600  1
  Re  Re14  1  0.99692100  0.48803700  0.56810800  1
  Re  Re15  1  0.49780300  0.00089500  0.68274500  1
  Re  Re16  1  0.00013600  0.62618200  0.74978300  1
  Re  Re17  1  0.13679500  0.01125700  0.75145300  1
  Re  Re18  1  0.86302900  0.01134900  0.74864600  1
  Re  Re19  1  0.50186000  0.00072100  0.81722100  1
  Re  Re20  1  0.00338800  0.48854800  0.93172100  1
  Re  Re21  1  0.63434000  0.50007900  0.00046900  1
  O  O0  1  0.00375100  0.99920800  0.00251500  1
  O  O1  1  0.99997400  0.67704100  0.00022700  1
  O  O2  1  0.66054400  0.28163800  0.01488400  1
  O  O3  1  0.78458700  0.52389500  0.08096700  1
  O  O4  1  0.49941200  0.49801000  0.09026000  1
  O  O5  1  0.68081600  0.99939100  0.99958900  1
  O  O6  1  0.33947500  0.71577300  0.01499800  1
  O  O7  1  0.21721500  0.46922000  0.08151700  1
  O  O8  1  0.54010400  0.83274100  0.10906500  1
  O  O9  1  0.49136800  0.50005900  0.25007900  1
  O  O10  1  0.96973500  0.33967100  0.14349900  1
  O  O11  1  0.50671800  0.82121700  0.24802900  1
  O  O12  1  0.45454600  0.16322300  0.10811400  1
  O  O13  1  0.03753200  0.66505000  0.14065700  1
  O  O14  1  0.29515800  0.97693800  0.17730500  1
  O  O15  1  0.80766900  0.50062800  0.24994900  1
  O  O16  1  0.50690000  0.17902400  0.25181400  1
  O  O17  1  0.15553000  0.78509100  0.26361300  1
  O  O18  1  0.01387800  0.99700300  0.16468800  1
  O  O19  1  0.29510100  0.02403000  0.32290600  1
  O  O20  1  0.83244800  0.77038800  0.22607600  1
  O  O21  1  0.15513100  0.21616100  0.23653400  1
  O  O22  1  0.01385900  0.00433200  0.33575000  1
  O  O23  1  0.70627300  0.05679500  0.15908600  1
  O  O24  1  0.17419600  0.50090700  0.24982900  1
  O  O25  1  0.83220600  0.23123000  0.27388000  1
  O  O26  1  0.70616300  0.94326300  0.34059200  1
  O  O27  1  0.03846300  0.33701000  0.35817700  1
  O  O28  1  0.99980600  0.99290900  0.49798600  1
  O  O29  1  0.45447300  0.83681400  0.39164500  1
  O  O30  1  0.00565100  0.31482200  0.49517000  1
  O  O31  1  0.96882100  0.66283900  0.35737400  1
  O  O32  1  0.53982400  0.16751600  0.39079100  1
  O  O33  1  0.78417700  0.47458100  0.41864400  1
  O  O34  1  0.31917600  0.00253500  0.50048500  1
  O  O35  1  0.99922700  0.67696800  0.49951800  1
  O  O36  1  0.66186400  0.28566200  0.51257400  1
  O  O37  1  0.50016900  0.50069000  0.40979800  1
  O  O38  1  0.78155300  0.53646100  0.58158600  1
  O  O39  1  0.34018100  0.28439400  0.48570500  1
  O  O40  1  0.66128600  0.71836100  0.48461300  1
  O  O41  1  0.50064400  0.49912600  0.59008600  1
  O  O42  1  0.21698600  0.52888300  0.41886800  1
  O  O43  1  0.68030800  0.00098400  0.49964800  1
  O  O44  1  0.33726400  0.71758900  0.51528400  1
  O  O45  1  0.21502400  0.46973300  0.58081900  1
  O  O46  1  0.53068100  0.84018600  0.60805800  1
  O  O47  1  0.50035700  0.50405600  0.75004700  1
  O  O48  1  0.95349800  0.33052300  0.63344200  1
  O  O49  1  0.50018400  0.81956300  0.74998600  1
  O  O50  1  0.47192200  0.16093300  0.60846100  1
  O  O51  1  0.02612900  0.65397500  0.64183100  1
  O  O52  1  0.28300400  0.95518100  0.66778100  1
  O  O53  1  0.82841000  0.51418100  0.74795600  1
  O  O54  1  0.49994700  0.17994900  0.75003900  1
  O  O55  1  0.14526900  0.79489400  0.76177600  1
  O  O56  1  0.99612600  0.00614100  0.66002700  1
  O  O57  1  0.28204900  0.03863400  0.83355700  1
  O  O58  1  0.85477200  0.79484200  0.73824900  1
  O  O59  1  0.18100900  0.20514900  0.72150500  1
  O  O60  1  0.00344500  0.00615700  0.84007900  1
  O  O61  1  0.71789100  0.03864300  0.66660600  1
  O  O62  1  0.17154500  0.51413300  0.75189400  1
  O  O63  1  0.81875400  0.20528900  0.77848300  1
  O  O64  1  0.71686000  0.95497600  0.83214100  1
  O  O65  1  0.04766100  0.33010800  0.86705200  1
  O  O66  1  0.47010600  0.83902900  0.89155400  1
  O  O67  1  0.99145600  0.31539300  0.00483400  1
  O  O68  1  0.97371700  0.65375100  0.85796100  1
  O  O69  1  0.52892500  0.15966000  0.89197600  1
  O  O70  1  0.78547500  0.46915600  0.91948700  1
  O  O71  1  0.31991200  0.99768000  0.00017500  1
  O  O72  1  0.50023500  0.49914000  0.91003700  1
  O  O73  1  0.33740200  0.28373800  0.98564300  1
  O  O74  1  0.66222400  0.71529300  0.98607500  1
  O  O75  1  0.21932800  0.53646600  0.91782900  1
loop_
_geom_bond_atom_site_label_1
_geom_bond_atom_site_label_2
_geom_bond_distance
_geom_bond_site_symmetry_2
Nd0 O16 2.428098 1_555
Nd0 O15 2.432880 1_555
Nd0 O9 2.548553 1_555
Nd0 O23 2.548672 1_555
Nd0 O4 2.548869 1_555
Nd0 O25 2.554654 1_555
Nd0 O3 2.621147 1_555
Nd0 O12 2.681641 1_555
Nd0 O10 2.818649 1_555
Nd0 O2 2.878031 1_555
Nd1 O0 2.415401 1_545
Nd1 O67 2.469468 1_455
Nd1 O18 2.469545 1_545
Nd1 O71 2.481011 1_545
Nd1 O73 2.593996 1_554
Nd1 O10 2.636837 1_455
Nd1 O14 2.689729 1_545
Nd1 O12 2.711769 1_555
Nd1 O7 2.877412 1_555
Nd1 O21 2.882242 1_555
Nd2 O18 2.395318 1_655
Nd2 O23 2.502355 1_565
Nd2 O20 2.511637 1_555
Nd2 O0 2.541908 1_655
Nd2 O5 2.574743 1_554
Nd2 O13 2.592929 1_655
Nd2 O1 2.706075 1_555
Nd2 O8 2.731664 1_555
Nd2 O74 2.803447 1_554
Nd2 O3 3.029175 1_555
Nd3 O9 2.358811 1_555
Nd3 O24 2.428526 1_555
Nd3 O4 2.503548 1_555
Nd3 O11 2.516028 1_555
Nd3 O7 2.597128 1_555
Nd3 O17 2.597897 1_555
Nd3 O8 2.696352 1_555
Nd3 O13 2.787363 1_555
Nd3 O6 2.925362 1_555
Nd3 O14 2.962290 1_555
Nd4 O28 2.379819 1_455
Nd4 O22 2.476130 1_565
Nd4 O34 2.486867 1_565
Nd4 O35 2.493964 1_455
Nd4 O44 2.599103 1_555
Nd4 O31 2.622305 1_455
Nd4 O19 2.707667 1_565
Nd4 O29 2.727281 1_555
Nd4 O17 2.893484 1_555
Nd4 O42 2.896184 1_555
Nd5 O15 2.419902 1_555
Nd5 O11 2.431107 1_555
Nd5 O9 2.541726 1_555
Nd5 O37 2.549382 1_555
Nd5 O26 2.554657 1_555
Nd5 O20 2.559255 1_555
Nd5 O33 2.627182 1_555
Nd5 O29 2.680020 1_555
Nd5 O31 2.818974 1_555
Nd5 O40 2.875266 1_555
Nd6 O9 2.362208 1_555
Nd6 O24 2.445122 1_555
Nd6 O37 2.507226 1_555
Nd6 O16 2.514416 1_555
Nd6 O42 2.589053 1_555
Nd6 O21 2.594602 1_555
Nd6 O32 2.691188 1_555
Nd6 O27 2.768999 1_555
Nd6 O39 2.933902 1_555
Nd6 O19 2.949072 1_555
Nd7 O22 2.392789 1_655
Nd7 O25 2.502273 1_555
Nd7 O26 2.506834 1_545
Nd7 O43 2.571297 1_555
Nd7 O28 2.589301 1_545
Nd7 O27 2.613428 1_655
Nd7 O30 2.649212 1_655
Nd7 O32 2.719418 1_555
Nd7 O36 2.781386 1_555
Nd7 O33 2.999112 1_555
Nd8 O53 2.393562 1_555
Nd8 O63 2.488798 1_555
Nd8 O48 2.538994 1_555
Nd8 O54 2.554861 1_555
Nd8 O47 2.574005 1_555
Nd8 O38 2.622776 1_555
Nd8 O41 2.700459 1_555
Nd8 O61 2.743397 1_555
Nd8 O50 2.800282 1_555
Nd8 O36 3.018430 1_555
Nd9 O56 2.428667 1_455
Nd9 O30 2.456868 1_555
Nd9 O48 2.522347 1_455
Nd9 O28 2.535269 1_445
Nd9 O34 2.536584 1_555
Nd9 O59 2.563678 1_555
Nd9 O39 2.655729 1_555
Nd9 O52 2.695515 1_545
Nd9 O45 2.841645 1_555
Nd9 O50 2.918410 1_555
Nd10 O28 2.368107 1_555
Nd10 O35 2.438489 1_555
Nd10 O43 2.479963 1_565
Nd10 O56 2.501874 1_565
Nd10 O40 2.599144 1_555
Nd10 O51 2.626476 1_655
Nd10 O61 2.677769 1_565
Nd10 O38 2.834636 1_555
Nd10 O46 2.909397 1_555
Nd10 O58 2.961007 1_555
Nd11 O47 2.396763 1_555
Nd11 O49 2.455574 1_555
Nd11 O62 2.473096 1_555
Nd11 O41 2.479294 1_555
Nd11 O46 2.617307 1_555
Nd11 O45 2.638141 1_555
Nd11 O55 2.714071 1_555
Nd11 O52 2.757122 1_555
Nd11 O44 2.884091 1_555
Nd11 O51 2.925119 1_555
Nd12 O0 2.372915 1_556
Nd12 O1 2.418331 1_456
Nd12 O71 2.479713 1_556
Nd12 O60 2.491944 1_565
Nd12 O68 2.617323 1_455
Nd12 O6 2.619393 1_556
Nd12 O57 2.691883 1_565
Nd12 O75 2.839222 1_555
Nd12 O66 2.945123 1_555
Nd12 O55 2.966455 1_555
Nd13 O47 2.398438 1_555
Nd13 O49 2.458600 1_555
Nd13 O53 2.470360 1_555
Nd13 O72 2.476249 1_555
Nd13 O66 2.608844 1_555
Nd13 O70 2.637716 1_555
Nd13 O58 2.710951 1_555
Nd13 O64 2.756726 1_555
Nd13 O74 2.903102 1_555
Nd13 O68 2.915466 1_555
Nd14 O62 2.396191 1_555
Nd14 O59 2.491594 1_555
Nd14 O65 2.529111 1_555
Nd14 O54 2.554098 1_555
Nd14 O47 2.582228 1_555
Nd14 O75 2.615935 1_555
Nd14 O72 2.711332 1_555
Nd14 O57 2.738278 1_555
Nd14 O69 2.810413 1_555
Nd14 O73 2.984810 1_555
Nd15 O60 2.436635 1_655
Nd15 O67 2.461357 1_556
Nd15 O0 2.534997 1_646
Nd15 O65 2.538222 1_655
Nd15 O5 2.541572 1_545
Nd15 O63 2.558954 1_555
Nd15 O2 2.637413 1_556
Nd15 O64 2.690196 1_545
Nd15 O70 2.831409 1_555
Nd15 O69 2.888502 1_555
O1 Re3 1.983604 1_655
O1 Re20 2.101514 1_654
O2 Re0 1.985975 1_555
O2 Re21 2.002275 1_555
O3 Re3 1.971766 1_655
O3 Re21 1.991497 1_555
O4 Re21 2.016850 1_555
O4 Re1 2.020735 1_554
O5 Re2 2.013299 1_555
O5 Re0 2.015976 1_566
O6 Re1 1.990049 1_554
O6 Re2 2.004212 1_554
O7 Re3 1.979519 1_555
O7 Re1 2.013498 1_554
O8 Re4 1.989978 1_555
O8 Re2 2.015749 1_554
O10 Re7 1.956490 1_555
O10 Re3 2.028664 1_655
O11 Re4 1.982194 1_555
O11 Re8 2.076697 1_565
O12 Re0 2.001172 1_555
O12 Re4 2.067093 1_545
O13 Re5 2.009520 1_455
O13 Re3 2.015855 1_555
O14 Re4 1.957278 1_555
O14 Re6 2.015515 1_565
O15 Re7 2.027568 1_555
O15 Re5 2.040856 1_555
O16 Re8 1.982560 1_555
O16 Re4 2.074679 1_545
O17 Re6 1.978446 1_565
O17 Re5 2.023485 1_455
O18 Re6 1.838385 1_565
O19 Re8 1.957941 1_555
O19 Re6 2.016340 1_555
O20 Re5 1.881368 1_555
O21 Re6 1.977681 1_555
O21 Re7 2.032248 1_455
O22 Re6 1.837880 1_555
O23 Re4 1.870474 1_545
O24 Re7 2.081029 1_455
O24 Re5 2.081109 1_455
O25 Re7 1.885157 1_555
O26 Re8 1.870016 1_565
O27 Re7 1.992240 1_455
O27 Re9 2.011376 1_555
O29 Re13 1.994342 1_555
O29 Re8 2.066517 1_565
O30 Re9 1.993123 1_555
O30 Re14 2.042922 1_455
O31 Re5 1.970320 1_555
O31 Re9 2.037235 1_655
O32 Re8 1.988653 1_555
O32 Re10 2.027045 1_555
O33 Re9 1.972529 1_655
O33 Re11 2.001861 1_555
O34 Re13 2.023500 1_545
O34 Re10 2.024633 1_555
O35 Re9 2.009322 1_655
O35 Re14 2.103512 1_555
O36 Re11 1.965518 1_555
O36 Re10 1.994707 1_555
O37 Re12 2.014799 1_555
O37 Re11 2.020306 1_555
O38 Re14 1.996719 1_555
O38 Re11 2.004105 1_555
O39 Re10 1.988493 1_555
O39 Re12 1.990918 1_555
O40 Re13 2.000183 1_555
O40 Re11 2.003232 1_555
O41 Re11 2.012006 1_555
O41 Re12 2.016656 1_555
O42 Re9 1.979134 1_555
O42 Re12 2.001777 1_555
O43 Re13 2.018120 1_545
O43 Re10 2.018411 1_555
O44 Re12 1.988215 1_555
O44 Re13 2.013718 1_555
O45 Re14 1.978614 1_455
O45 Re12 2.010550 1_555
O46 Re13 1.994777 1_555
O46 Re15 1.999100 1_565
O48 Re14 1.883808 1_555
O49 Re15 2.033878 1_565
O49 Re19 2.034444 1_565
O50 Re10 1.967092 1_555
O50 Re15 1.980054 1_555
O51 Re16 1.969995 1_555
O51 Re14 2.018377 1_455
O52 Re15 1.991041 1_565
O52 Re17 2.058429 1_565
O53 Re16 1.844441 1_655
O54 Re19 2.017961 1_555
O54 Re15 2.019876 1_555
O55 Re17 1.963075 1_565
O55 Re16 2.016639 1_555
O56 Re18 1.990653 1_555
O56 Re17 2.074637 1_655
O57 Re17 1.986560 1_555
O57 Re19 2.023900 1_555
O58 Re18 1.964858 1_565
O58 Re16 2.015544 1_655
O59 Re17 1.873145 1_555
O60 Re17 1.992044 1_555
O60 Re18 2.073269 1_455
O61 Re18 1.984413 1_555
O61 Re15 2.025771 1_555
O62 Re16 1.841601 1_555
O63 Re18 1.873762 1_555
O64 Re19 1.992267 1_565
O64 Re18 2.056093 1_565
O65 Re20 1.885809 1_555
O66 Re2 1.981051 1_555
O66 Re19 1.998084 1_565
O67 Re3 2.016423 1_655
O67 Re20 2.043865 1_654
O68 Re16 1.974655 1_655
O68 Re20 2.012302 1_655
O69 Re0 1.977526 1_556
O69 Re19 1.981958 1_555
O70 Re20 1.976977 1_655
O70 Re21 2.008315 1_556
O71 Re2 2.023635 1_554
O71 Re0 2.029062 1_565
O72 Re1 2.001787 1_555
O72 Re21 2.024293 1_556
O73 Re1 1.979354 1_555
O73 Re0 2.018333 1_556
O74 Re21 1.975535 1_556
O74 Re2 1.991026 1_555
O75 Re20 2.001877 1_555
O75 Re1 2.006923 1_555
