# generated using pymatgen
data_Cu3As4(OF)6
_symmetry_space_group_name_H-M   'P 1'
_cell_length_a   6.98328591
_cell_length_b   6.98328591
_cell_length_c   6.98328591
_cell_angle_alpha   109.47122063
_cell_angle_beta   109.47122063
_cell_angle_gamma   109.47122063
_symmetry_Int_Tables_number   1
_chemical_formula_structural   Cu3As4(OF)6
_chemical_formula_sum   'Cu3 As4 O6 F6'
_cell_volume   262.15465828
_cell_formula_units_Z   1
loop_
 _symmetry_equiv_pos_site_id
 _symmetry_equiv_pos_as_xyz
  1  'x, y, z'
loop_
 _atom_site_type_symbol
 _atom_site_label
 _atom_site_symmetry_multiplicity
 _atom_site_fract_x
 _atom_site_fract_y
 _atom_site_fract_z
 _atom_site_occupancy
  Cu  Cu0  1  0.50000000  0.50000000  0.00000000  1
  Cu  Cu1  1  0.50000000  0.00000000  0.50000000  1
  Cu  Cu2  1  0.00000000  0.50000000  0.50000000  1
  As  As0  1  0.70465000  0.70465000  0.70465000  1
  As  As1  1  0.29535000  0.00000000  0.00000000  1
  As  As2  1  0.00000000  0.29535000  0.00000000  1
  As  As3  1  0.00000000  0.00000000  0.29535000  1
  O  O0  1  0.75809000  0.75809000  0.00000000  1
  O  O1  1  0.24191000  0.00000000  0.24191000  1
  O  O2  1  0.00000000  0.24191000  0.24191000  1
  O  O3  1  0.24191000  0.24191000  0.00000000  1
  O  O4  1  0.75809000  0.00000000  0.75809000  1
  O  O5  1  0.00000000  0.75809000  0.75809000  1
  F  F0  1  0.50000000  0.25000000  0.75000000  1
  F  F1  1  0.75000000  0.25000000  0.50000000  1
  F  F2  1  0.75000000  0.50000000  0.25000000  1
  F  F3  1  0.50000000  0.75000000  0.25000000  1
  F  F4  1  0.25000000  0.50000000  0.75000000  1
  F  F5  1  0.25000000  0.75000000  0.50000000  1
loop_
_geom_bond_atom_site_label_1
_geom_bond_atom_site_label_2
_geom_bond_distance
_geom_bond_site_symmetry_2
Cu0 F3 2.015901 1_555
Cu0 F2 2.015901 1_555
Cu0 F0 2.015901 1_554
Cu0 F4 2.015901 1_554
Cu0 O0 2.081136 1_555
Cu0 O3 2.081136 1_555
Cu1 F0 2.015901 1_555
Cu1 F5 2.015901 1_545
Cu1 F1 2.015901 1_555
Cu1 F3 2.015901 1_545
Cu1 O4 2.081136 1_555
Cu1 O1 2.081136 1_555
Cu2 F4 2.015901 1_555
Cu2 F5 2.015901 1_555
Cu2 F2 2.015901 1_455
Cu2 F1 2.015901 1_455
Cu2 O2 2.081136 1_555
Cu2 O5 2.081136 1_555
As0 O4 1.847534 1_565
As0 O5 1.847534 1_655
As0 O0 1.847534 1_556
As1 O1 1.847534 1_555
As1 O3 1.847534 1_555
As1 O5 1.847534 1_544
As2 O2 1.847534 1_555
As2 O3 1.847534 1_555
As2 O4 1.847534 1_454
As3 O0 1.847534 1_445
As3 O1 1.847534 1_555
As3 O2 1.847534 1_555
