# generated using pymatgen
data_Ho(Ni2B)6
_symmetry_space_group_name_H-M   'P 1'
_cell_length_a   5.97452141
_cell_length_b   5.97452141
_cell_length_c   10.88220571
_cell_angle_alpha   90.00000000
_cell_angle_beta   90.00000000
_cell_angle_gamma   104.74994291
_symmetry_Int_Tables_number   1
_chemical_formula_structural   Ho(Ni2B)6
_chemical_formula_sum   'Ho2 Ni24 B12'
_cell_volume   375.63875714
_cell_formula_units_Z   2
loop_
 _symmetry_equiv_pos_site_id
 _symmetry_equiv_pos_as_xyz
  1  'x, y, z'
loop_
 _atom_site_type_symbol
 _atom_site_label
 _atom_site_symmetry_multiplicity
 _atom_site_fract_x
 _atom_site_fract_y
 _atom_site_fract_z
 _atom_site_occupancy
  Ho  Ho0  1  0.66676560  0.66676560  0.35638518  1
  Ho  Ho1  1  0.33323440  0.33323440  0.85638518  1
  Ni  Ni0  1  0.04388620  0.30458828  0.09579760  1
  Ni  Ni1  1  0.95611380  0.69541172  0.59579760  1
  Ni  Ni2  1  0.69541172  0.95611380  0.59579760  1
  Ni  Ni3  1  0.30458828  0.04388620  0.09579760  1
  Ni  Ni4  1  0.06594005  0.06594005  0.28126539  1
  Ni  Ni5  1  0.93405995  0.93405995  0.78126539  1
  Ni  Ni6  1  0.13078518  0.49685730  0.29940355  1
  Ni  Ni7  1  0.86921482  0.50314270  0.79940355  1
  Ni  Ni8  1  0.50314270  0.86921482  0.79940355  1
  Ni  Ni9  1  0.49685730  0.13078518  0.29940355  1
  Ni  Ni10  1  0.28271172  0.28271172  0.46063724  1
  Ni  Ni11  1  0.71728828  0.71728828  0.96063724  1
  Ni  Ni12  1  0.97345047  0.71235124  0.13835929  1
  Ni  Ni13  1  0.02654953  0.28764876  0.63835929  1
  Ni  Ni14  1  0.28764876  0.02654953  0.63835929  1
  Ni  Ni15  1  0.71235124  0.97345047  0.13835929  1
  Ni  Ni16  1  0.64580719  0.38120297  0.11758257  1
  Ni  Ni17  1  0.35419281  0.61879703  0.61758257  1
  Ni  Ni18  1  0.61879703  0.35419281  0.61758257  1
  Ni  Ni19  1  0.38120297  0.64580719  0.11758257  1
  Ni  Ni20  1  0.84245712  0.23060041  0.43022307  1
  Ni  Ni21  1  0.15754288  0.76939959  0.93022307  1
  Ni  Ni22  1  0.76939959  0.15754288  0.93022307  1
  Ni  Ni23  1  0.23060041  0.84245712  0.43022307  1
  B  B0  1  0.82685933  0.25814555  0.24692281  1
  B  B1  1  0.17314067  0.74185445  0.74692281  1
  B  B2  1  0.74185445  0.17314067  0.74692281  1
  B  B3  1  0.25814555  0.82685933  0.24692281  1
  B  B4  1  0.33700585  0.33700585  0.20050043  1
  B  B5  1  0.66299415  0.66299415  0.70050043  1
  B  B6  1  0.09920288  0.51269102  0.48473262  1
  B  B7  1  0.90079712  0.48730898  0.98473262  1
  B  B8  1  0.48730898  0.90079712  0.98473262  1
  B  B9  1  0.51269102  0.09920288  0.48473262  1
  B  B10  1  0.98823176  0.98823176  0.01616675  1
  B  B11  1  0.01176824  0.01176824  0.51616675  1
loop_
_geom_bond_atom_site_label_1
_geom_bond_atom_site_label_2
_geom_bond_distance
_geom_bond_site_symmetry_2
Ho0 Ni15 2.967595 1_555
Ho0 Ni12 2.967595 1_555
Ho0 Ni10 3.022579 1_555
Ho0 Ni4 3.024462 1_665
Ho0 Ni19 3.093689 1_555
Ho0 Ni16 3.093689 1_555
Ho0 Ni1 3.107229 1_555
Ho0 Ni2 3.107229 1_555
Ho0 Ni20 3.151331 1_555
Ho0 Ni23 3.151331 1_555
Ho0 Ni9 3.164490 1_555
Ho0 Ni6 3.164490 1_555
Ho0 Ni6 3.245551 1_655
Ho0 Ni9 3.245551 1_565
Ho0 Ni20 3.360757 1_565
Ho0 Ni23 3.360757 1_655
Ho0 Ni17 3.372881 1_555
Ho0 Ni18 3.372881 1_555
Ho1 Ni13 2.967595 1_555
Ho1 Ni14 2.967595 1_555
Ho1 Ni11 3.022579 1_555
Ho1 Ni5 3.024462 1_445
Ho1 Ni17 3.093689 1_555
Ho1 Ni18 3.093689 1_555
Ho1 Ni3 3.107229 1_556
Ho1 Ni0 3.107229 1_556
Ho1 Ni22 3.151331 1_555
Ho1 Ni21 3.151331 1_555
Ho1 Ni7 3.164490 1_555
Ho1 Ni8 3.164490 1_555
Ho1 Ni7 3.245551 1_455
Ho1 Ni8 3.245551 1_545
Ho1 Ni22 3.360757 1_455
Ho1 Ni21 3.360757 1_545
Ho1 Ni19 3.372881 1_556
Ho1 Ni16 3.372881 1_556
B0 Ni20 2.005604 1_555
B0 Ni9 2.007103 1_555
B0 Ni16 2.024016 1_555
B0 Ni15 2.040674 1_545
B0 Ni0 2.068737 1_655
B0 Ni4 2.081798 1_655
B0 Ni6 2.082948 1_655
B0 Ho0 3.079418 1_555
B1 Ni21 2.005604 1_555
B1 Ni8 2.007103 1_555
B1 Ni17 2.024016 1_555
B1 Ni14 2.040674 1_565
B1 Ni1 2.068737 1_455
B1 Ni5 2.081798 1_455
B1 Ni7 2.082948 1_455
B1 Ho1 3.079418 1_555
B2 Ni22 2.005604 1_555
B2 Ni7 2.007103 1_555
B2 Ni18 2.024016 1_555
B2 Ni13 2.040674 1_655
B2 Ni2 2.068737 1_545
B2 Ni5 2.081798 1_545
B2 Ni8 2.082948 1_545
B2 Ho1 3.079418 1_555
B3 Ni23 2.005604 1_555
B3 Ni6 2.007103 1_555
B3 Ni19 2.024016 1_555
B3 Ni12 2.040674 1_455
B3 Ni3 2.068737 1_565
B3 Ni4 2.081798 1_565
B3 Ni9 2.082948 1_565
B3 Ho0 3.079418 1_555
B4 Ni19 2.009891 1_555
B4 Ni16 2.009891 1_555
B4 Ni9 2.046372 1_555
B4 Ni6 2.046372 1_555
B4 Ni3 2.056673 1_555
B4 Ni0 2.056673 1_555
B4 Ni4 2.163896 1_555
B4 Ho0 2.943506 1_555
B5 Ni17 2.009891 1_555
B5 Ni18 2.009891 1_555
B5 Ni7 2.046372 1_555
B5 Ni8 2.046372 1_555
B5 Ni1 2.056673 1_555
B5 Ni2 2.056673 1_555
B5 Ni5 2.163896 1_555
B5 Ho1 2.943506 1_555
B6 Ni1 1.964327 1_455
B6 Ni10 1.981363 1_555
B6 Ni23 2.015502 1_555
B6 Ni6 2.030044 1_555
B6 Ni20 2.056415 1_455
B6 Ni17 2.078709 1_555
B6 Ni13 2.119877 1_555
B6 Ho0 3.268666 1_455
B7 Ni0 1.964327 1_656
B7 Ni11 1.981363 1_555
B7 Ni22 2.015502 1_555
B7 Ni7 2.030044 1_555
B7 Ni21 2.056415 1_655
B7 Ni16 2.078709 1_556
B7 Ni12 2.119877 1_556
B7 Ho1 3.268666 1_655
B8 Ni3 1.964327 1_566
B8 Ni11 1.981363 1_555
B8 Ni21 2.015502 1_555
B8 Ni8 2.030044 1_555
B8 Ni22 2.056415 1_565
B8 Ni19 2.078709 1_556
B8 Ni15 2.119877 1_556
B8 Ho1 3.268666 1_565
B9 Ni2 1.964327 1_545
B9 Ni10 1.981363 1_555
B9 Ni20 2.015502 1_555
B9 Ni9 2.030044 1_555
B9 Ni23 2.056415 1_545
B9 Ni18 2.078709 1_555
B9 Ni14 2.119877 1_555
B9 Ho0 3.268666 1_545
B10 Ni0 2.028267 1_665
B10 Ni3 2.028267 1_665
B10 Ni11 2.066787 1_554
B10 Ni21 2.068989 1_654
B10 Ni22 2.068989 1_564
B10 Ni15 2.102044 1_555
B10 Ni12 2.102044 1_555
B10 Ho1 3.058958 1_664
B11 Ni2 2.028267 1_445
B11 Ni1 2.028267 1_445
B11 Ni10 2.066787 1_555
B11 Ni20 2.068989 1_455
B11 Ni23 2.068989 1_545
B11 Ni14 2.102044 1_555
B11 Ni13 2.102044 1_555
B11 Ho0 3.058958 1_445
