# generated using pymatgen
data_KMg6V
_symmetry_space_group_name_H-M   'P 1'
_cell_length_a   15.35027200
_cell_length_b   15.35027200
_cell_length_c   6.91247600
_cell_angle_alpha   90.00000000
_cell_angle_beta   90.00000000
_cell_angle_gamma   90.00000000
_symmetry_Int_Tables_number   1
_chemical_formula_structural   KMg6V
_chemical_formula_sum   'K8 Mg48 V8'
_cell_volume   1628.79259876
_cell_formula_units_Z   8
loop_
 _symmetry_equiv_pos_site_id
 _symmetry_equiv_pos_as_xyz
  1  'x, y, z'
loop_
 _atom_site_type_symbol
 _atom_site_label
 _atom_site_symmetry_multiplicity
 _atom_site_fract_x
 _atom_site_fract_y
 _atom_site_fract_z
 _atom_site_occupancy
  K  K0_0  1  0.25000000  0.25000000  0.25000000  1
  K  K0_1  1  0.25000000  0.25000000  0.75000000  1
  K  K0_2  1  0.25000000  0.75000000  0.25000000  1
  K  K0_3  1  0.25000000  0.75000000  0.75000000  1
  K  K0_4  1  0.75000000  0.25000000  0.25000000  1
  K  K0_5  1  0.75000000  0.25000000  0.75000000  1
  K  K0_6  1  0.75000000  0.75000000  0.25000000  1
  K  K0_7  1  0.75000000  0.75000000  0.75000000  1
  Mg  Mg0_0  1  0.00000000  0.25000000  0.25000000  1
  Mg  Mg0_1  1  0.00000000  0.25000000  0.75000000  1
  Mg  Mg0_2  1  0.00000000  0.75000000  0.25000000  1
  Mg  Mg0_3  1  0.00000000  0.75000000  0.75000000  1
  Mg  Mg0_4  1  0.50000000  0.25000000  0.25000000  1
  Mg  Mg0_5  1  0.50000000  0.25000000  0.75000000  1
  Mg  Mg0_6  1  0.50000000  0.75000000  0.25000000  1
  Mg  Mg0_7  1  0.50000000  0.75000000  0.75000000  1
  Mg  Mg1_0  1  0.25000000  0.00000000  0.25000000  1
  Mg  Mg1_1  1  0.25000000  0.00000000  0.75000000  1
  Mg  Mg1_2  1  0.25000000  0.50000000  0.25000000  1
  Mg  Mg1_3  1  0.25000000  0.50000000  0.75000000  1
  Mg  Mg1_4  1  0.75000000  0.00000000  0.25000000  1
  Mg  Mg1_5  1  0.75000000  0.00000000  0.75000000  1
  Mg  Mg1_6  1  0.75000000  0.50000000  0.25000000  1
  Mg  Mg1_7  1  0.75000000  0.50000000  0.75000000  1
  Mg  Mg2_0  1  0.39437400  0.10562600  0.00000000  1
  Mg  Mg2_1  1  0.39437400  0.10562600  0.50000000  1
  Mg  Mg2_2  1  0.39437400  0.60562600  0.00000000  1
  Mg  Mg2_3  1  0.39437400  0.60562600  0.50000000  1
  Mg  Mg2_4  1  0.89437400  0.10562600  0.00000000  1
  Mg  Mg2_5  1  0.89437400  0.10562600  0.50000000  1
  Mg  Mg2_6  1  0.89437400  0.60562600  0.00000000  1
  Mg  Mg2_7  1  0.89437400  0.60562600  0.50000000  1
  Mg  Mg3_0  1  0.10562600  0.39437400  0.00000000  1
  Mg  Mg3_1  1  0.10562600  0.39437400  0.50000000  1
  Mg  Mg3_2  1  0.10562600  0.89437400  0.00000000  1
  Mg  Mg3_3  1  0.10562600  0.89437400  0.50000000  1
  Mg  Mg3_4  1  0.60562600  0.39437400  0.00000000  1
  Mg  Mg3_5  1  0.60562600  0.39437400  0.50000000  1
  Mg  Mg3_6  1  0.60562600  0.89437400  0.00000000  1
  Mg  Mg3_7  1  0.60562600  0.89437400  0.50000000  1
  Mg  Mg4_0  1  0.39437400  0.39437400  0.00000000  1
  Mg  Mg4_1  1  0.39437400  0.39437400  0.50000000  1
  Mg  Mg4_2  1  0.39437400  0.89437400  0.00000000  1
  Mg  Mg4_3  1  0.39437400  0.89437400  0.50000000  1
  Mg  Mg4_4  1  0.89437400  0.39437400  0.00000000  1
  Mg  Mg4_5  1  0.89437400  0.39437400  0.50000000  1
  Mg  Mg4_6  1  0.89437400  0.89437400  0.00000000  1
  Mg  Mg4_7  1  0.89437400  0.89437400  0.50000000  1
  Mg  Mg5_0  1  0.10562600  0.10562600  0.00000000  1
  Mg  Mg5_1  1  0.10562600  0.10562600  0.50000000  1
  Mg  Mg5_2  1  0.10562600  0.60562600  0.00000000  1
  Mg  Mg5_3  1  0.10562600  0.60562600  0.50000000  1
  Mg  Mg5_4  1  0.60562600  0.10562600  0.00000000  1
  Mg  Mg5_5  1  0.60562600  0.10562600  0.50000000  1
  Mg  Mg5_6  1  0.60562600  0.60562600  0.00000000  1
  Mg  Mg5_7  1  0.60562600  0.60562600  0.50000000  1
  V  V0_0  1  0.00000000  0.00000000  0.25000000  1
  V  V0_1  1  0.00000000  0.00000000  0.75000000  1
  V  V0_2  1  0.00000000  0.50000000  0.25000000  1
  V  V0_3  1  0.00000000  0.50000000  0.75000000  1
  V  V0_4  1  0.50000000  0.00000000  0.25000000  1
  V  V0_5  1  0.50000000  0.00000000  0.75000000  1
  V  V0_6  1  0.50000000  0.50000000  0.25000000  1
  V  V0_7  1  0.50000000  0.50000000  0.75000000  1
loop_
_geom_bond_atom_site_label_1
_geom_bond_atom_site_label_2
_geom_bond_distance
_geom_bond_site_symmetry_2
K0_0 K0_1 3.456238 1_554
K0_0 K0_1 3.456238 1_555
K0_0 Mg5_0 3.579009 1_555
K0_0 Mg5_1 3.579009 1_555
K0_0 Mg3_1 3.579009 1_555
K0_0 Mg2_0 3.579009 1_555
K0_0 Mg4_0 3.579009 1_555
K0_0 Mg4_1 3.579009 1_555
K0_0 Mg3_0 3.579009 1_555
K0_0 Mg2_1 3.579009 1_555
K0_0 Mg1_2 3.837568 1_555
K0_0 Mg1_0 3.837568 1_555
K0_0 Mg0_0 3.837568 1_555
K0_0 Mg0_4 3.837568 1_555
K0_1 Mg5_0 3.579009 1_556
K0_1 Mg2_0 3.579009 1_556
K0_1 Mg3_0 3.579009 1_556
K0_1 Mg4_0 3.579009 1_556
K0_1 Mg3_1 3.579009 1_555
K0_1 Mg5_1 3.579009 1_555
K0_1 Mg2_1 3.579009 1_555
K0_1 Mg4_1 3.579009 1_555
K0_1 Mg0_1 3.837568 1_555
K0_1 Mg1_3 3.837568 1_555
K0_1 Mg0_5 3.837568 1_555
K0_1 Mg1_1 3.837568 1_555
K0_2 K0_3 3.456238 1_554
K0_2 K0_3 3.456238 1_555
K0_2 Mg5_2 3.579009 1_555
K0_2 Mg5_3 3.579009 1_555
K0_2 Mg2_2 3.579009 1_555
K0_2 Mg2_3 3.579009 1_555
K0_2 Mg3_2 3.579009 1_555
K0_2 Mg3_3 3.579009 1_555
K0_2 Mg4_2 3.579009 1_555
K0_2 Mg4_3 3.579009 1_555
K0_2 Mg1_2 3.837568 1_555
K0_2 Mg0_2 3.837568 1_555
K0_2 Mg0_6 3.837568 1_555
K0_2 Mg1_0 3.837568 1_565
K0_3 Mg5_2 3.579009 1_556
K0_3 Mg2_2 3.579009 1_556
K0_3 Mg5_3 3.579009 1_555
K0_3 Mg2_3 3.579009 1_555
K0_3 Mg3_2 3.579009 1_556
K0_3 Mg4_2 3.579009 1_556
K0_3 Mg3_3 3.579009 1_555
K0_3 Mg4_3 3.579009 1_555
K0_3 Mg1_3 3.837568 1_555
K0_3 Mg0_7 3.837568 1_555
K0_3 Mg0_3 3.837568 1_555
K0_3 Mg1_1 3.837568 1_565
K0_4 K0_5 3.456238 1_554
K0_4 K0_5 3.456238 1_555
K0_4 Mg5_5 3.579009 1_555
K0_4 Mg5_4 3.579009 1_555
K0_4 Mg3_4 3.579009 1_555
K0_4 Mg3_5 3.579009 1_555
K0_4 Mg2_4 3.579009 1_555
K0_4 Mg2_5 3.579009 1_555
K0_4 Mg4_5 3.579009 1_555
K0_4 Mg4_4 3.579009 1_555
K0_4 Mg0_4 3.837568 1_555
K0_4 Mg1_6 3.837568 1_555
K0_4 Mg1_4 3.837568 1_555
K0_4 Mg0_0 3.837568 1_655
K0_5 Mg5_4 3.579009 1_556
K0_5 Mg3_4 3.579009 1_556
K0_5 Mg3_5 3.579009 1_555
K0_5 Mg5_5 3.579009 1_555
K0_5 Mg2_4 3.579009 1_556
K0_5 Mg4_4 3.579009 1_556
K0_5 Mg2_5 3.579009 1_555
K0_5 Mg4_5 3.579009 1_555
K0_5 Mg0_5 3.837568 1_555
K0_5 Mg1_5 3.837568 1_555
K0_5 Mg1_7 3.837568 1_555
K0_5 Mg0_1 3.837568 1_655
K0_6 K0_7 3.456238 1_554
K0_6 K0_7 3.456238 1_555
K0_6 Mg5_6 3.579009 1_555
K0_6 Mg5_7 3.579009 1_555
K0_6 Mg3_6 3.579009 1_555
K0_6 Mg2_7 3.579009 1_555
K0_6 Mg2_6 3.579009 1_555
K0_6 Mg3_7 3.579009 1_555
K0_6 Mg4_6 3.579009 1_555
K0_6 Mg4_7 3.579009 1_555
K0_6 Mg1_6 3.837568 1_555
K0_6 Mg0_6 3.837568 1_555
K0_6 Mg1_4 3.837568 1_565
K0_6 Mg0_2 3.837568 1_655
K0_7 Mg5_6 3.579009 1_556
K0_7 Mg5_7 3.579009 1_555
K0_7 Mg3_6 3.579009 1_556
K0_7 Mg2_6 3.579009 1_556
K0_7 Mg3_7 3.579009 1_555
K0_7 Mg2_7 3.579009 1_555
K0_7 Mg4_6 3.579009 1_556
K0_7 Mg4_7 3.579009 1_555
K0_7 Mg0_7 3.837568 1_555
K0_7 Mg1_7 3.837568 1_555
K0_7 Mg0_3 3.837568 1_655
K0_7 Mg1_5 3.837568 1_565
Mg0_0 Mg5_1 3.244495 1_555
Mg0_0 Mg5_0 3.244495 1_555
Mg0_0 Mg3_0 3.244495 1_555
Mg0_0 Mg2_4 3.244495 1_455
Mg0_0 Mg2_5 3.244495 1_455
Mg0_0 Mg3_1 3.244495 1_555
Mg0_0 Mg4_4 3.244495 1_455
Mg0_0 Mg4_5 3.244495 1_455
Mg0_0 Mg0_1 3.456238 1_554
Mg0_0 Mg0_1 3.456238 1_555
Mg0_1 Mg5_0 3.244495 1_556
Mg0_1 Mg3_0 3.244495 1_556
Mg0_1 Mg2_4 3.244495 1_456
Mg0_1 Mg2_5 3.244495 1_455
Mg0_1 Mg4_4 3.244495 1_456
Mg0_1 Mg5_1 3.244495 1_555
Mg0_1 Mg4_5 3.244495 1_455
Mg0_1 Mg3_1 3.244495 1_555
Mg0_2 Mg5_2 3.244495 1_555
Mg0_2 Mg2_7 3.244495 1_455
Mg0_2 Mg2_6 3.244495 1_455
Mg0_2 Mg5_3 3.244495 1_555
Mg0_2 Mg4_6 3.244495 1_455
Mg0_2 Mg4_7 3.244495 1_455
Mg0_2 Mg3_2 3.244495 1_555
Mg0_2 Mg3_3 3.244495 1_555
Mg0_2 Mg0_3 3.456238 1_554
Mg0_2 Mg0_3 3.456238 1_555
Mg0_3 Mg2_6 3.244495 1_456
Mg0_3 Mg5_2 3.244495 1_556
Mg0_3 Mg5_3 3.244495 1_555
Mg0_3 Mg2_7 3.244495 1_455
Mg0_3 Mg4_6 3.244495 1_456
Mg0_3 Mg3_2 3.244495 1_556
Mg0_3 Mg3_3 3.244495 1_555
Mg0_3 Mg4_7 3.244495 1_455
Mg0_4 Mg2_1 3.244495 1_555
Mg0_4 Mg2_0 3.244495 1_555
Mg0_4 Mg4_0 3.244495 1_555
Mg0_4 Mg4_1 3.244495 1_555
Mg0_4 Mg5_5 3.244495 1_555
Mg0_4 Mg5_4 3.244495 1_555
Mg0_4 Mg3_4 3.244495 1_555
Mg0_4 Mg3_5 3.244495 1_555
Mg0_4 Mg0_5 3.456238 1_554
Mg0_4 Mg0_5 3.456238 1_555
Mg0_5 Mg2_0 3.244495 1_556
Mg0_5 Mg4_0 3.244495 1_556
Mg0_5 Mg2_1 3.244495 1_555
Mg0_5 Mg5_4 3.244495 1_556
Mg0_5 Mg4_1 3.244495 1_555
Mg0_5 Mg3_4 3.244495 1_556
Mg0_5 Mg3_5 3.244495 1_555
Mg0_5 Mg5_5 3.244495 1_555
Mg0_6 Mg2_3 3.244495 1_555
Mg0_6 Mg2_2 3.244495 1_555
Mg0_6 Mg5_6 3.244495 1_555
Mg0_6 Mg5_7 3.244495 1_555
Mg0_6 Mg4_2 3.244495 1_555
Mg0_6 Mg4_3 3.244495 1_555
Mg0_6 Mg3_6 3.244495 1_555
Mg0_6 Mg3_7 3.244495 1_555
Mg0_6 Mg0_7 3.456238 1_554
Mg0_6 Mg0_7 3.456238 1_555
Mg0_7 Mg2_2 3.244495 1_556
Mg0_7 Mg5_6 3.244495 1_556
Mg0_7 Mg2_3 3.244495 1_555
Mg0_7 Mg5_7 3.244495 1_555
Mg0_7 Mg4_2 3.244495 1_556
Mg0_7 Mg4_3 3.244495 1_555
Mg0_7 Mg3_6 3.244495 1_556
Mg0_7 Mg3_7 3.244495 1_555
Mg1_0 Mg5_1 3.244495 1_555
Mg1_0 Mg5_0 3.244495 1_555
Mg1_0 Mg2_1 3.244495 1_555
Mg1_0 Mg3_3 3.244495 1_545
Mg1_0 Mg4_2 3.244495 1_545
Mg1_0 Mg2_0 3.244495 1_555
Mg1_0 Mg3_2 3.244495 1_545
Mg1_0 Mg4_3 3.244495 1_545
Mg1_0 Mg1_1 3.456238 1_554
Mg1_0 Mg1_1 3.456238 1_555
Mg1_1 Mg5_0 3.244495 1_556
Mg1_1 Mg3_2 3.244495 1_546
Mg1_1 Mg2_0 3.244495 1_556
Mg1_1 Mg4_2 3.244495 1_546
Mg1_1 Mg3_3 3.244495 1_545
Mg1_1 Mg5_1 3.244495 1_555
Mg1_1 Mg4_3 3.244495 1_545
Mg1_1 Mg2_1 3.244495 1_555
Mg1_2 Mg3_0 3.244495 1_555
Mg1_2 Mg3_1 3.244495 1_555
Mg1_2 Mg4_0 3.244495 1_555
Mg1_2 Mg4_1 3.244495 1_555
Mg1_2 Mg5_3 3.244495 1_555
Mg1_2 Mg5_2 3.244495 1_555
Mg1_2 Mg2_3 3.244495 1_555
Mg1_2 Mg2_2 3.244495 1_555
Mg1_2 Mg1_3 3.456238 1_554
Mg1_2 Mg1_3 3.456238 1_555
Mg1_3 Mg4_0 3.244495 1_556
Mg1_3 Mg3_0 3.244495 1_556
Mg1_3 Mg2_2 3.244495 1_556
Mg1_3 Mg3_1 3.244495 1_555
Mg1_3 Mg5_2 3.244495 1_556
Mg1_3 Mg4_1 3.244495 1_555
Mg1_3 Mg5_3 3.244495 1_555
Mg1_3 Mg2_3 3.244495 1_555
Mg1_4 Mg5_4 3.244495 1_555
Mg1_4 Mg3_7 3.244495 1_545
Mg1_4 Mg5_5 3.244495 1_555
Mg1_4 Mg3_6 3.244495 1_545
Mg1_4 Mg4_7 3.244495 1_545
Mg1_4 Mg2_5 3.244495 1_555
Mg1_4 Mg4_6 3.244495 1_545
Mg1_4 Mg2_4 3.244495 1_555
Mg1_4 Mg1_5 3.456238 1_554
Mg1_4 Mg1_5 3.456238 1_555
Mg1_5 Mg5_4 3.244495 1_556
Mg1_5 Mg3_6 3.244495 1_546
Mg1_5 Mg5_5 3.244495 1_555
Mg1_5 Mg3_7 3.244495 1_545
Mg1_5 Mg2_4 3.244495 1_556
Mg1_5 Mg4_6 3.244495 1_546
Mg1_5 Mg4_7 3.244495 1_545
Mg1_5 Mg2_5 3.244495 1_555
Mg1_6 Mg3_5 3.244495 1_555
Mg1_6 Mg3_4 3.244495 1_555
Mg1_6 Mg5_6 3.244495 1_555
Mg1_6 Mg5_7 3.244495 1_555
Mg1_6 Mg4_5 3.244495 1_555
Mg1_6 Mg4_4 3.244495 1_555
Mg1_6 Mg2_7 3.244495 1_555
Mg1_6 Mg2_6 3.244495 1_555
Mg1_6 Mg1_7 3.456238 1_554
Mg1_6 Mg1_7 3.456238 1_555
Mg1_7 Mg3_4 3.244495 1_556
Mg1_7 Mg5_6 3.244495 1_556
Mg1_7 Mg3_5 3.244495 1_555
Mg1_7 Mg5_7 3.244495 1_555
Mg1_7 Mg4_4 3.244495 1_556
Mg1_7 Mg4_5 3.244495 1_555
Mg1_7 Mg2_6 3.244495 1_556
Mg1_7 Mg2_7 3.244495 1_555
Mg2_0 V0_4 2.871270 1_555
Mg2_0 V0_5 2.871270 1_554
Mg2_0 Mg5_4 3.242776 1_555
Mg2_0 Mg4_2 3.242776 1_545
Mg2_0 Mg2_1 3.456238 1_554
Mg2_0 Mg2_1 3.456238 1_555
Mg2_1 V0_4 2.871270 1_555
Mg2_1 V0_5 2.871270 1_555
Mg2_1 Mg5_5 3.242776 1_555
Mg2_1 Mg4_3 3.242776 1_545
Mg2_2 V0_7 2.871270 1_554
Mg2_2 V0_6 2.871270 1_555
Mg2_2 Mg5_6 3.242776 1_555
Mg2_2 Mg4_0 3.242776 1_555
Mg2_2 Mg2_3 3.456238 1_555
Mg2_2 Mg2_3 3.456238 1_554
Mg2_3 V0_6 2.871270 1_555
Mg2_3 V0_7 2.871270 1_555
Mg2_3 Mg5_7 3.242776 1_555
Mg2_3 Mg4_1 3.242776 1_555
Mg2_4 V0_1 2.871270 1_654
Mg2_4 V0_0 2.871270 1_655
Mg2_4 Mg5_0 3.242776 1_655
Mg2_4 Mg4_6 3.242776 1_545
Mg2_4 Mg2_5 3.456238 1_555
Mg2_4 Mg2_5 3.456238 1_554
Mg2_5 V0_0 2.871270 1_655
Mg2_5 V0_1 2.871270 1_655
Mg2_5 Mg4_7 3.242776 1_545
Mg2_5 Mg5_1 3.242776 1_655
Mg2_6 V0_3 2.871270 1_654
Mg2_6 V0_2 2.871270 1_655
Mg2_6 Mg4_4 3.242776 1_555
Mg2_6 Mg5_2 3.242776 1_655
Mg2_6 Mg2_7 3.456238 1_554
Mg2_6 Mg2_7 3.456238 1_555
Mg2_7 V0_2 2.871270 1_655
Mg2_7 V0_3 2.871270 1_655
Mg2_7 Mg5_3 3.242776 1_655
Mg2_7 Mg4_5 3.242776 1_555
Mg3_0 V0_3 2.871270 1_554
Mg3_0 V0_2 2.871270 1_555
Mg3_0 Mg5_2 3.242776 1_555
Mg3_0 Mg4_4 3.242776 1_455
Mg3_0 Mg3_1 3.456238 1_555
Mg3_0 Mg3_1 3.456238 1_554
Mg3_1 V0_2 2.871270 1_555
Mg3_1 V0_3 2.871270 1_555
Mg3_1 Mg5_3 3.242776 1_555
Mg3_1 Mg4_5 3.242776 1_455
Mg3_2 V0_1 2.871270 1_564
Mg3_2 V0_0 2.871270 1_565
Mg3_2 Mg5_0 3.242776 1_565
Mg3_2 Mg4_6 3.242776 1_455
Mg3_2 Mg3_3 3.456238 1_554
Mg3_2 Mg3_3 3.456238 1_555
Mg3_3 V0_0 2.871270 1_565
Mg3_3 V0_1 2.871270 1_565
Mg3_3 Mg5_1 3.242776 1_565
Mg3_3 Mg4_7 3.242776 1_455
Mg3_4 V0_7 2.871270 1_554
Mg3_4 V0_6 2.871270 1_555
Mg3_4 Mg5_6 3.242776 1_555
Mg3_4 Mg4_0 3.242776 1_555
Mg3_4 Mg3_5 3.456238 1_554
Mg3_4 Mg3_5 3.456238 1_555
Mg3_5 V0_6 2.871270 1_555
Mg3_5 V0_7 2.871270 1_555
Mg3_5 Mg5_7 3.242776 1_555
Mg3_5 Mg4_1 3.242776 1_555
Mg3_6 V0_5 2.871270 1_564
Mg3_6 V0_4 2.871270 1_565
Mg3_6 Mg5_4 3.242776 1_565
Mg3_6 Mg4_2 3.242776 1_555
Mg3_6 Mg3_7 3.456238 1_555
Mg3_6 Mg3_7 3.456238 1_554
Mg3_7 V0_4 2.871270 1_565
Mg3_7 V0_5 2.871270 1_565
Mg3_7 Mg4_3 3.242776 1_555
Mg3_7 Mg5_5 3.242776 1_565
Mg4_0 V0_7 2.871270 1_554
Mg4_0 V0_6 2.871270 1_555
Mg4_0 Mg4_1 3.456238 1_554
Mg4_0 Mg4_1 3.456238 1_555
Mg4_1 V0_6 2.871270 1_555
Mg4_1 V0_7 2.871270 1_555
Mg4_2 V0_5 2.871270 1_564
Mg4_2 V0_4 2.871270 1_565
Mg4_2 Mg4_3 3.456238 1_554
Mg4_2 Mg4_3 3.456238 1_555
Mg4_3 V0_4 2.871270 1_565
Mg4_3 V0_5 2.871270 1_565
Mg4_4 V0_3 2.871270 1_654
Mg4_4 V0_2 2.871270 1_655
Mg4_4 Mg4_5 3.456238 1_555
Mg4_4 Mg4_5 3.456238 1_554
Mg4_5 V0_2 2.871270 1_655
Mg4_5 V0_3 2.871270 1_655
Mg4_6 V0_1 2.871270 1_664
Mg4_6 V0_0 2.871270 1_665
Mg4_6 Mg4_7 3.456238 1_554
Mg4_6 Mg4_7 3.456238 1_555
Mg4_7 V0_0 2.871270 1_665
Mg4_7 V0_1 2.871270 1_665
Mg5_0 V0_1 2.871270 1_554
Mg5_0 V0_0 2.871270 1_555
Mg5_0 Mg5_1 3.456238 1_555
Mg5_0 Mg5_1 3.456238 1_554
Mg5_1 V0_0 2.871270 1_555
Mg5_1 V0_1 2.871270 1_555
Mg5_2 V0_2 2.871270 1_555
Mg5_2 V0_3 2.871270 1_554
Mg5_2 Mg5_3 3.456238 1_555
Mg5_2 Mg5_3 3.456238 1_554
Mg5_3 V0_2 2.871270 1_555
Mg5_3 V0_3 2.871270 1_555
Mg5_4 V0_4 2.871270 1_555
Mg5_4 V0_5 2.871270 1_554
Mg5_4 Mg5_5 3.456238 1_554
Mg5_4 Mg5_5 3.456238 1_555
Mg5_5 V0_4 2.871270 1_555
Mg5_5 V0_5 2.871270 1_555
Mg5_6 V0_7 2.871270 1_554
Mg5_6 V0_6 2.871270 1_555
Mg5_6 Mg5_7 3.456238 1_555
Mg5_6 Mg5_7 3.456238 1_554
Mg5_7 V0_7 2.871270 1_555
Mg5_7 V0_6 2.871270 1_555
