# generated using pymatgen
data_Na3Co(NO2)6
_symmetry_space_group_name_H-M   'P 1'
_cell_length_a   6.80069314
_cell_length_b   6.80069314
_cell_length_c   6.80069355
_cell_angle_alpha   71.43951387
_cell_angle_beta   71.43951387
_cell_angle_gamma   71.43951713
_symmetry_Int_Tables_number   1
_chemical_formula_structural   Na3Co(NO2)6
_chemical_formula_sum   'Na3 Co1 N6 O12'
_cell_volume   274.29762828
_cell_formula_units_Z   1
loop_
 _symmetry_equiv_pos_site_id
 _symmetry_equiv_pos_as_xyz
  1  'x, y, z'
loop_
 _atom_site_type_symbol
 _atom_site_label
 _atom_site_symmetry_multiplicity
 _atom_site_fract_x
 _atom_site_fract_y
 _atom_site_fract_z
 _atom_site_occupancy
  Na  Na0  1  0.73639700  0.73639700  0.73639700  1
  Na  Na1  1  0.26360300  0.26360300  0.26360300  1
  Na  Na2  1  0.50000000  0.50000000  0.50000000  1
  Co  Co0  1  0.00000000  0.00000000  0.00000000  1
  N  N0  1  0.79608100  0.17122000  0.81642700  1
  N  N1  1  0.20391900  0.82878000  0.18357300  1
  N  N2  1  0.17122000  0.81642700  0.79608100  1
  N  N3  1  0.82878000  0.18357300  0.20391900  1
  N  N4  1  0.18357300  0.20391900  0.82878000  1
  N  N5  1  0.81642700  0.79608100  0.17122000  1
  O  O0  1  0.30458800  0.91269600  0.24418800  1
  O  O1  1  0.24418800  0.30458800  0.91269700  1
  O  O2  1  0.75581200  0.69541200  0.08730400  1
  O  O3  1  0.23756700  0.23363500  0.62933500  1
  O  O4  1  0.23363500  0.62933500  0.23756700  1
  O  O5  1  0.76636500  0.37066500  0.76243300  1
  O  O6  1  0.91269700  0.24418800  0.30458800  1
  O  O7  1  0.62933500  0.23756700  0.23363500  1
  O  O8  1  0.76243300  0.76636500  0.37066500  1
  O  O9  1  0.69541200  0.08730300  0.75581200  1
  O  O10  1  0.08730400  0.75581200  0.69541200  1
  O  O11  1  0.37066500  0.76243300  0.76636500  1
loop_
_geom_bond_atom_site_label_1
_geom_bond_atom_site_label_2
_geom_bond_distance
_geom_bond_site_symmetry_2
Na0 O9 2.354520 1_565
Na0 O10 2.354526 1_655
Na0 O2 2.354527 1_556
Na0 O11 2.383089 1_555
Na0 O5 2.383089 1_555
Na0 O8 2.383090 1_555
Na1 O6 2.354520 1_455
Na1 O1 2.354520 1_554
Na1 O0 2.354526 1_545
Na1 O7 2.383089 1_555
Na1 O4 2.383089 1_555
Na1 O3 2.383090 1_555
Na2 O3 2.699034 1_555
Na2 O8 2.699034 1_555
Na2 O4 2.699034 1_555
Na2 O5 2.699034 1_555
Na2 O7 2.699034 1_555
Na2 O11 2.699034 1_555
Na2 O2 2.942574 1_555
Na2 O0 2.942574 1_555
Na2 O10 2.942574 1_555
Na2 O1 2.942578 1_555
Na2 O9 2.942578 1_555
Na2 O6 2.942578 1_555
Co0 N5 1.996584 1_445
Co0 N4 1.996584 1_554
Co0 N0 1.996584 1_454
Co0 N1 1.996584 1_545
Co0 N3 1.996584 1_455
Co0 N2 1.996584 1_544
N0 O9 1.241966 1_555
N0 O5 1.253425 1_555
N1 O0 1.241961 1_555
N1 O4 1.253425 1_555
N2 O10 1.241961 1_555
N2 O11 1.253425 1_555
N3 O6 1.241966 1_555
N3 O7 1.253425 1_555
N4 O1 1.241966 1_555
N4 O3 1.253425 1_555
N5 O2 1.241961 1_555
N5 O8 1.253425 1_555
