# generated using pymatgen
data_AlAg3
_symmetry_space_group_name_H-M   'P 1'
_cell_length_a   6.94655821
_cell_length_b   6.94655821
_cell_length_c   6.94655821
_cell_angle_alpha   89.75749058
_cell_angle_beta   90.24250942
_cell_angle_gamma   89.75749058
_symmetry_Int_Tables_number   1
_chemical_formula_structural   AlAg3
_chemical_formula_sum   'Al5 Ag15'
_cell_volume   335.19484729
_cell_formula_units_Z   5
loop_
 _symmetry_equiv_pos_site_id
 _symmetry_equiv_pos_as_xyz
  1  'x, y, z'
loop_
 _atom_site_type_symbol
 _atom_site_label
 _atom_site_symmetry_multiplicity
 _atom_site_fract_x
 _atom_site_fract_y
 _atom_site_fract_z
 _atom_site_occupancy
  Al  Al0  1  0.30920808  0.19079192  0.80920808  1
  Al  Al1  1  0.19707620  0.81751891  0.30728307  1
  Al  Al2  1  0.80728307  0.30292380  0.18248109  1
  Al  Al3  1  0.68248109  0.69271693  0.69707620  1
  Al  Al4  1  0.94114308  0.55885692  0.44114308  1
  Ag  Ag0  1  0.87141757  0.69897684  0.05065262  1
  Ag  Ag1  1  0.55065262  0.62858243  0.30102316  1
  Ag  Ag2  1  0.80102316  0.94934738  0.37141757  1
  Ag  Ag3  1  0.64063133  0.30188145  0.53927686  1
  Ag  Ag4  1  0.95982434  0.38273190  0.79910190  1
  Ag  Ag5  1  0.70151969  0.04503545  0.87001188  1
  Ag  Ag6  1  0.37001188  0.79848031  0.95496455  1
  Ag  Ag7  1  0.03927686  0.85936867  0.69811855  1
  Ag  Ag8  1  0.29910190  0.54017566  0.61726810  1
  Ag  Ag9  1  0.11726810  0.20089810  0.45982434  1
  Ag  Ag10  1  0.45496455  0.12998812  0.20152069  1
  Ag  Ag11  1  0.19811855  0.46072314  0.14063233  1
  Ag  Ag12  1  0.55933864  0.43530142  0.93495869  1
  Ag  Ag13  1  0.43495869  0.94066136  0.56469858  1
  Ag  Ag14  1  0.06469858  0.06504131  0.05933864  1
loop_
_geom_bond_atom_site_label_1
_geom_bond_atom_site_label_2
_geom_bond_distance
_geom_bond_site_symmetry_2
Al1 Al4 2.698303 1_455
Al2 Al4 2.698303 1_555
Al3 Al4 2.698303 1_555
Ag0 Al3 2.780496 1_554
Ag0 Ag11 2.868394 1_655
Ag0 Ag1 2.874673 1_555
Ag0 Ag2 2.874673 1_555
Ag0 Ag4 2.878671 1_554
Ag0 Ag14 2.881339 1_665
Ag0 Al4 2.915914 1_555
Ag0 Al2 2.932358 1_555
Ag0 Ag7 2.934317 1_654
Ag0 Ag5 2.946899 1_564
Ag0 Ag12 2.954960 1_554
Ag0 Al1 2.994618 1_655
Ag1 Al1 2.780496 1_555
Ag1 Ag3 2.868393 1_555
Ag1 Ag2 2.874673 1_555
Ag1 Ag8 2.878671 1_555
Ag1 Ag12 2.881339 1_554
Ag1 Al4 2.915914 1_555
Ag1 Al3 2.932358 1_555
Ag1 Ag11 2.934314 1_555
Ag1 Ag6 2.946899 1_554
Ag1 Ag13 2.954960 1_555
Ag1 Al2 2.994618 1_555
Ag2 Al2 2.780496 1_565
Ag2 Ag7 2.868393 1_655
Ag2 Ag9 2.878671 1_665
Ag2 Al4 2.915914 1_555
Ag2 Al1 2.932358 1_655
Ag2 Ag3 2.934317 1_565
Ag2 Al3 2.994618 1_555
Ag3 Al2 2.739964 1_555
Ag3 Al4 2.835896 1_555
Ag3 Ag4 2.911132 1_555
Ag3 Ag5 2.931093 1_555
Ag3 Ag8 2.940643 1_555
Ag3 Al3 2.947249 1_555
Ag3 Al0 3.074276 1_555
Ag4 Al0 2.764679 1_655
Ag4 Al4 2.768928 1_555
Ag4 Ag9 2.895085 1_655
Ag4 Ag8 2.895085 1_655
Ag4 Al2 2.922156 1_556
Ag4 Al3 2.965002 1_555
Ag4 Ag5 2.999748 1_555
Ag5 Al3 2.734353 1_545
Ag5 Al2 2.913935 1_556
Ag5 Al0 2.931492 1_555
Ag5 Ag7 2.933473 1_645
Ag5 Ag6 2.936158 1_545
Ag6 Al1 2.734353 1_556
Ag6 Al3 2.913935 1_555
Ag6 Ag7 2.931093 1_555
Ag6 Al0 2.931492 1_565
Ag6 Ag8 2.999748 1_555
Ag7 Al3 2.739964 1_455
Ag7 Al4 2.835896 1_455
Ag7 Ag8 2.911132 1_555
Ag7 Ag9 2.940643 1_565
Ag7 Al1 2.947249 1_555
Ag7 Al0 3.074276 1_565
Ag8 Al0 2.764679 1_555
Ag8 Al4 2.768928 1_455
Ag8 Ag9 2.895085 1_555
Ag8 Al3 2.922156 1_555
Ag8 Al1 2.965002 1_555
Ag9 Al0 2.764679 1_555
Ag9 Al4 2.768928 1_455
Ag9 Al1 2.922156 1_545
Ag9 Al2 2.965002 1_455
Ag10 Al2 2.734353 1_555
Ag10 Ag13 2.844313 1_545
Ag10 Ag12 2.905803 1_554
Ag10 Al1 2.913933 1_545
Ag10 Ag14 2.918913 1_555
Ag10 Ag11 2.931093 1_555
Ag10 Al0 2.931499 1_554
Ag10 Ag3 2.933467 1_555
Ag10 Ag6 2.936162 1_544
Ag10 Ag5 2.936164 1_554
Ag10 Ag2 2.946896 1_545
Ag10 Ag9 2.999744 1_555
Ag11 Al1 2.739961 1_555
Ag11 Al4 2.835891 1_455
Ag11 Ag12 2.897833 1_554
Ag11 Ag9 2.911127 1_555
Ag11 Ag6 2.933476 1_554
Ag11 Ag4 2.940649 1_454
Ag11 Al2 2.947248 1_455
Ag11 Ag14 2.960253 1_555
Ag11 Al0 3.074281 1_554
Ag12 Al3 2.580652 1_555
Ag12 Al0 2.586837 1_555
Ag12 Al2 2.591661 1_556
Ag12 Ag6 2.844319 1_555
Ag12 Ag5 2.918911 1_555
Ag12 Ag8 2.934345 1_555
Ag12 Ag3 2.960252 1_555
Ag12 Ag4 2.963114 1_555
Ag13 Al1 2.580652 1_555
Ag13 Al0 2.586837 1_565
Ag13 Al3 2.591661 1_555
Ag13 Ag2 2.881339 1_555
Ag13 Ag3 2.897830 1_565
Ag13 Ag5 2.905798 1_565
Ag13 Ag6 2.918911 1_555
Ag13 Ag9 2.934345 1_565
Ag13 Ag7 2.960252 1_555
Ag13 Ag8 2.963114 1_555
Ag14 Al2 2.580652 1_455
Ag14 Al0 2.586837 1_554
Ag14 Al1 2.591661 1_545
Ag14 Ag5 2.844319 1_454
Ag14 Ag7 2.897830 1_544
Ag14 Ag6 2.905798 1_544
Ag14 Ag4 2.934345 1_454
Ag14 Ag2 2.954960 1_445
Ag14 Ag9 2.963114 1_555
