# generated using pymatgen
data_Ce2Mg17Ru4
_symmetry_space_group_name_H-M   'P 1'
_cell_length_a   8.60343524
_cell_length_b   8.60343524
_cell_length_c   8.60343524
_cell_angle_alpha   108.47692617
_cell_angle_beta   109.97064387
_cell_angle_gamma   109.97064387
_symmetry_Int_Tables_number   1
_chemical_formula_structural   Ce2Mg17Ru4
_chemical_formula_sum   'Ce2 Mg17 Ru4'
_cell_volume   490.11263021
_cell_formula_units_Z   1
loop_
 _symmetry_equiv_pos_site_id
 _symmetry_equiv_pos_as_xyz
  1  'x, y, z'
loop_
 _atom_site_type_symbol
 _atom_site_label
 _atom_site_symmetry_multiplicity
 _atom_site_fract_x
 _atom_site_fract_y
 _atom_site_fract_z
 _atom_site_occupancy
  Ce  Ce0  1  0.00000000  0.35318500  0.35318500  1
  Ce  Ce1  1  0.00000000  0.64681500  0.64681500  1
  Mg  Mg0  1  0.00000000  0.00000000  0.00000000  1
  Mg  Mg1  1  0.32414700  0.50000000  0.82414700  1
  Mg  Mg2  1  0.67585300  0.50000000  0.17585300  1
  Mg  Mg3  1  0.67585300  0.17585300  0.50000000  1
  Mg  Mg4  1  0.32414700  0.82414700  0.50000000  1
  Mg  Mg5  1  0.43179000  0.14758800  0.14758800  1
  Mg  Mg6  1  0.56821000  0.71579700  0.71579700  1
  Mg  Mg7  1  0.00000000  0.85241200  0.28420300  1
  Mg  Mg8  1  0.00000000  0.28420300  0.85241200  1
  Mg  Mg9  1  0.35269000  0.24198500  0.48937300  1
  Mg  Mg10  1  0.64731000  0.13668300  0.88929500  1
  Mg  Mg11  1  0.24738700  0.75801500  0.11070500  1
  Mg  Mg12  1  0.75261300  0.86331700  0.51062700  1
  Mg  Mg13  1  0.75261300  0.51062700  0.86331700  1
  Mg  Mg14  1  0.24738700  0.11070500  0.75801500  1
  Mg  Mg15  1  0.35269000  0.48937300  0.24198500  1
  Mg  Mg16  1  0.64731000  0.88929500  0.13668300  1
  Ru  Ru0  1  0.66917500  0.49998000  0.49998000  1
  Ru  Ru1  1  0.33082500  0.83080500  0.83080500  1
  Ru  Ru2  1  0.00000000  0.50002000  0.16919500  1
  Ru  Ru3  1  0.00000000  0.16919500  0.50002000  1
loop_
_geom_bond_atom_site_label_1
_geom_bond_atom_site_label_2
_geom_bond_distance
_geom_bond_site_symmetry_2
Ce0 Ru2 2.317136 1_555
Ce0 Ru3 2.317136 1_555
Ce0 Ce1 2.952720 1_555
Ce0 Mg16 3.429329 1_445
Ce0 Mg10 3.429329 1_454
Ce0 Mg15 3.429329 1_555
Ce0 Mg9 3.429329 1_555
Ce0 Mg0 3.551600 1_555
Ce1 Ru1 2.317136 1_555
Ce1 Ru0 2.317136 1_455
Ce1 Mg13 3.429323 1_455
Ce1 Mg12 3.429323 1_455
Ce1 Mg14 3.429328 1_565
Ce1 Mg11 3.429328 1_556
Ce1 Mg0 3.551600 1_566
Mg0 Mg5 3.091729 1_555
Mg0 Mg6 3.091732 1_444
Mg0 Mg8 3.091737 1_554
Mg0 Mg7 3.091737 1_545
Mg0 Mg11 3.559546 1_545
Mg0 Mg14 3.559546 1_554
Mg0 Mg12 3.559551 1_444
Mg0 Mg13 3.559551 1_444
Mg0 Mg16 3.559552 1_445
Mg0 Mg10 3.559552 1_454
Mg0 Mg15 3.559552 1_555
Mg0 Mg9 3.559552 1_555
Mg1 Ru1 2.808800 1_555
Mg1 Ru3 2.808800 1_555
Mg1 Mg8 2.914798 1_555
Mg1 Mg6 2.914803 1_555
Mg1 Mg14 3.000348 1_555
Mg1 Mg16 3.000350 1_556
Mg1 Mg9 3.175918 1_555
Mg1 Mg11 3.175924 1_556
Mg1 Mg15 3.551368 1_556
Mg1 Mg13 3.551376 1_555
Mg2 Ru0 2.808800 1_555
Mg2 Ru2 2.808800 1_655
Mg2 Mg7 2.914798 1_655
Mg2 Mg5 2.914801 1_555
Mg3 Ru0 2.808800 1_555
Mg3 Ru3 2.808800 1_655
Mg3 Mg8 2.914798 1_655
Mg3 Mg5 2.914801 1_555
Mg3 Mg9 3.000350 1_555
Mg4 Ru1 2.808800 1_555
Mg4 Ru2 2.808800 1_555
Mg4 Mg7 2.914798 1_555
Mg4 Mg6 2.914803 1_555
Mg4 Mg9 3.551368 1_565
Mg5 Ru1 2.769110 1_544
Mg5 Ru0 2.875640 1_555
Mg5 Mg9 3.162299 1_555
Mg6 Ru0 2.769100 1_555
Mg6 Ru1 2.875648 1_555
Mg6 Mg9 3.344596 1_555
Mg7 Ru3 2.769107 1_565
Mg7 Ru2 2.875640 1_555
Mg7 Mg9 3.033335 1_565
Mg8 Ru2 2.769107 1_556
Mg8 Ru3 2.875640 1_555
Mg9 Ru0 2.814714 1_555
Mg9 Ru3 2.921649 1_555
Mg10 Ru1 2.814714 1_545
Mg10 Ru2 2.921649 1_656
Mg10 Mg4 3.000350 1_545
Mg10 Mg8 3.033335 1_655
Mg10 Mg13 3.134366 1_555
Mg10 Mg14 3.134374 1_555
Mg10 Mg6 3.162307 1_545
Mg10 Mg2 3.175918 1_556
Mg10 Mg5 3.344603 1_556
Mg10 Mg16 3.454186 1_546
Mg10 Mg3 3.551368 1_555
Mg11 Ru2 2.814709 1_555
Mg11 Ru1 2.921653 1_554
Mg11 Mg4 3.000348 1_555
Mg11 Mg5 3.033335 1_565
Mg11 Mg15 3.134369 1_555
Mg11 Mg16 3.134374 1_555
Mg11 Mg7 3.162296 1_555
Mg11 Mg8 3.344597 1_554
Mg11 Mg13 3.454172 1_454
Mg11 Mg3 3.551371 1_565
Mg12 Ru3 2.814710 1_665
Mg12 Ru0 2.921648 1_555
Mg12 Mg3 3.000355 1_565
Mg12 Mg6 3.033335 1_555
Mg12 Mg16 3.134366 1_555
Mg12 Mg15 3.134370 1_555
Mg12 Mg8 3.162304 1_665
Mg12 Mg2 3.175914 1_555
Mg12 Mg7 3.344589 1_655
Mg12 Mg14 3.454172 1_665
Mg12 Mg4 3.551376 1_555
Mg13 Ru2 2.814710 1_656
Mg13 Ru0 2.921648 1_555
Mg13 Mg2 3.000355 1_556
Mg13 Mg6 3.033335 1_555
Mg13 Mg9 3.134370 1_555
Mg13 Mg7 3.162304 1_656
Mg13 Mg3 3.175914 1_555
Mg13 Mg8 3.344589 1_655
Mg14 Ru3 2.814709 1_555
Mg14 Ru1 2.921653 1_545
Mg14 Mg5 3.033335 1_556
Mg14 Mg9 3.134369 1_555
Mg14 Mg8 3.162296 1_555
Mg14 Mg4 3.175924 1_545
Mg14 Mg7 3.344597 1_545
Mg14 Mg2 3.551371 1_556
Mg15 Ru0 2.814714 1_555
Mg15 Ru2 2.921649 1_555
Mg15 Mg2 3.000350 1_555
Mg15 Mg8 3.033335 1_554
Mg15 Mg5 3.162299 1_555
Mg15 Mg4 3.175918 1_555
Mg15 Mg6 3.344596 1_555
Mg15 Mg9 3.454186 1_555
Mg16 Ru1 2.814714 1_554
Mg16 Ru3 2.921649 1_665
Mg16 Mg7 3.033335 1_655
Mg16 Mg6 3.162307 1_554
Mg16 Mg3 3.175918 1_565
Mg16 Mg5 3.344603 1_565
Mg16 Mg2 3.551368 1_555
