# generated using pymatgen
data_Pr4Fe
_symmetry_space_group_name_H-M   'P 1'
_cell_length_a   7.83072253
_cell_length_b   7.83072253
_cell_length_c   7.83072253
_cell_angle_alpha   60.00000000
_cell_angle_beta   60.00000000
_cell_angle_gamma   60.00000000
_symmetry_Int_Tables_number   1
_chemical_formula_structural   Pr4Fe
_chemical_formula_sum   'Pr8 Fe2'
_cell_volume   339.53965931
_cell_formula_units_Z   2
loop_
 _symmetry_equiv_pos_site_id
 _symmetry_equiv_pos_as_xyz
  1  'x, y, z'
loop_
 _atom_site_type_symbol
 _atom_site_label
 _atom_site_symmetry_multiplicity
 _atom_site_fract_x
 _atom_site_fract_y
 _atom_site_fract_z
 _atom_site_occupancy
  Pr  Pr0  1  0.61663700  0.61663700  0.61663700  1
  Pr  Pr1  1  0.15008900  0.61663700  0.61663700  1
  Pr  Pr2  1  0.61663700  0.15008900  0.61663700  1
  Pr  Pr3  1  0.59991100  0.13336300  0.13336300  1
  Pr  Pr4  1  0.13336300  0.13336300  0.13336300  1
  Pr  Pr5  1  0.61663700  0.61663700  0.15008900  1
  Pr  Pr6  1  0.13336300  0.59991100  0.13336300  1
  Pr  Pr7  1  0.13336300  0.13336300  0.59991100  1
  Fe  Fe0  1  0.00000000  0.00000000  0.00000000  1
  Fe  Fe1  1  0.75000000  0.75000000  0.75000000  1
loop_
_geom_bond_atom_site_label_1
_geom_bond_atom_site_label_2
_geom_bond_distance
_geom_bond_site_symmetry_2
Fe0 Pr6 2.558072 1_545
Fe0 Pr7 2.558072 1_554
Fe0 Pr4 2.558072 1_555
Fe0 Pr3 2.558072 1_455
Fe1 Pr2 2.558072 1_565
Fe1 Pr5 2.558072 1_556
Fe1 Pr1 2.558072 1_655
Fe1 Pr0 2.558072 1_555
