# generated using pymatgen
data_CsRbMg14O15
_symmetry_space_group_name_H-M   'P 1'
_cell_length_a   4.20010100
_cell_length_b   8.54950400
_cell_length_c   10.21795100
_cell_angle_alpha   90.00000000
_cell_angle_beta   90.00000000
_cell_angle_gamma   90.00000000
_symmetry_Int_Tables_number   1
_chemical_formula_structural   CsRbMg14O15
_chemical_formula_sum   'Cs1 Rb1 Mg14 O15'
_cell_volume   366.91415757
_cell_formula_units_Z   1
loop_
 _symmetry_equiv_pos_site_id
 _symmetry_equiv_pos_as_xyz
  1  'x, y, z'
loop_
 _atom_site_type_symbol
 _atom_site_label
 _atom_site_symmetry_multiplicity
 _atom_site_fract_x
 _atom_site_fract_y
 _atom_site_fract_z
 _atom_site_occupancy
  Cs  Cs0  1  0.00000000  0.50000000  0.60698000  1
  Rb  Rb0  1  0.00000000  0.00000000  0.05485900  1
  Mg  Mg0  1  0.00000000  0.50000000  0.03194800  1
  Mg  Mg1  1  0.00000000  0.00000000  0.50310200  1
  Mg  Mg2  1  0.50000000  0.75802500  0.97275400  1
  Mg  Mg3  1  0.50000000  0.24197500  0.97275400  1
  Mg  Mg4  1  0.50000000  0.74010200  0.49856500  1
  Mg  Mg5  1  0.50000000  0.25989800  0.49856500  1
  Mg  Mg6  1  0.50000000  0.00000000  0.72186600  1
  Mg  Mg7  1  0.50000000  0.50000000  0.81045800  1
  Mg  Mg8  1  0.50000000  0.00000000  0.30172000  1
  Mg  Mg9  1  0.50000000  0.50000000  0.25327000  1
  Mg  Mg10  1  0.00000000  0.78384500  0.75924000  1
  Mg  Mg11  1  0.00000000  0.21615500  0.75924000  1
  Mg  Mg12  1  0.00000000  0.74332800  0.29073200  1
  Mg  Mg13  1  0.00000000  0.25667200  0.29073200  1
  O  O0  1  0.00000000  0.00000000  0.70713100  1
  O  O1  1  0.00000000  0.00000000  0.30228800  1
  O  O2  1  0.00000000  0.50000000  0.22611100  1
  O  O3  1  0.50000000  0.72200000  0.73204300  1
  O  O4  1  0.50000000  0.27800000  0.73204300  1
  O  O5  1  0.50000000  0.76371500  0.24117400  1
  O  O6  1  0.50000000  0.23628500  0.24117400  1
  O  O7  1  0.50000000  0.00000000  0.91893500  1
  O  O8  1  0.50000000  0.50000000  0.00190000  1
  O  O9  1  0.50000000  0.00000000  0.51027700  1
  O  O10  1  0.50000000  0.50000000  0.45134800  1
  O  O11  1  0.00000000  0.70880000  0.93975500  1
  O  O12  1  0.00000000  0.29120000  0.93975500  1
  O  O13  1  0.00000000  0.76415300  0.48964100  1
  O  O14  1  0.00000000  0.23584700  0.48964100  1
loop_
_geom_bond_atom_site_label_1
_geom_bond_atom_site_label_2
_geom_bond_distance
_geom_bond_site_symmetry_2
Cs0 O14 2.556909 1_555
Cs0 O13 2.556909 1_555
Cs0 O10 2.634213 1_455
Cs0 O10 2.634213 1_555
Mg0 O2 1.983948 1_555
Mg0 O12 2.018445 1_554
Mg0 O11 2.018445 1_554
Mg0 O8 2.122376 1_555
Mg0 O8 2.122376 1_455
Mg1 O14 2.021061 1_555
Mg1 O13 2.021061 1_545
Mg1 O1 2.051908 1_555
Mg1 O0 2.084758 1_555
Mg1 O9 2.101330 1_455
Mg1 O9 2.101330 1_555
Mg2 O7 2.140609 1_565
Mg2 O11 2.168183 1_555
Mg2 O11 2.168183 1_655
Mg2 O8 2.225998 1_556
Mg2 O3 2.478782 1_555
Mg2 O5 2.743134 1_556
Mg3 O7 2.140609 1_555
Mg3 O12 2.168183 1_655
Mg3 O12 2.168183 1_555
Mg3 O8 2.225998 1_556
Mg3 O4 2.478782 1_555
Mg3 O6 2.743134 1_556
Mg4 O10 2.108688 1_555
Mg4 O13 2.112063 1_555
Mg4 O13 2.112063 1_655
Mg4 O9 2.225219 1_565
Mg4 O3 2.390681 1_555
Mg4 O5 2.637745 1_555
Mg5 O10 2.108688 1_555
Mg5 O14 2.112063 1_555
Mg5 O14 2.112063 1_655
Mg5 O9 2.225219 1_555
Mg5 O4 2.390681 1_555
Mg5 O6 2.637745 1_555
Mg6 O7 2.013641 1_555
Mg6 O0 2.105441 1_555
Mg6 O0 2.105441 1_655
Mg6 O9 2.162006 1_555
Mg6 O4 2.379036 1_555
Mg6 O3 2.379036 1_545
Mg7 O8 1.956145 1_556
Mg7 O4 2.060183 1_555
Mg7 O3 2.060183 1_555
Mg8 O1 2.100059 1_655
Mg8 O1 2.100059 1_555
Mg8 O6 2.112728 1_555
Mg8 O5 2.112728 1_545
Mg8 O9 2.131025 1_555
Mg9 O10 2.023951 1_555
Mg9 O2 2.118307 1_655
Mg9 O2 2.118307 1_555
Mg9 O5 2.258018 1_555
Mg9 O6 2.258018 1_555
Mg9 O8 2.568486 1_555
Mg10 O0 1.923193 1_565
Mg10 O11 1.952896 1_555
Mg10 O3 2.183348 1_455
Mg10 O3 2.183348 1_555
Mg11 O0 1.923193 1_555
Mg11 O12 1.952896 1_555
Mg11 O4 2.183348 1_555
Mg11 O4 2.183348 1_455
Mg12 O13 2.040226 1_555
Mg12 O5 2.167260 1_455
Mg12 O5 2.167260 1_555
Mg12 O2 2.182608 1_555
Mg12 O1 2.197593 1_565
Mg13 O14 2.040226 1_555
Mg13 O6 2.167260 1_455
Mg13 O6 2.167260 1_555
Mg13 O2 2.182608 1_555
Mg13 O1 2.197593 1_555
O1 Rb0 2.528217 1_555
O7 Rb0 2.517768 1_556
O7 Rb0 2.517768 1_656
O11 Rb0 2.753445 1_566
O12 Rb0 2.753445 1_556
