# generated using pymatgen
data_CsZn4(BO3)3
_symmetry_space_group_name_H-M   'P 1'
_cell_length_a   5.07204000
_cell_length_b   7.00511900
_cell_length_c   13.17553717
_cell_angle_alpha   86.57654674
_cell_angle_beta   90.00000000
_cell_angle_gamma   90.00000000
_symmetry_Int_Tables_number   1
_chemical_formula_structural   CsZn4(BO3)3
_chemical_formula_sum   'Cs2 Zn8 B6 O18'
_cell_volume   467.29465436
_cell_formula_units_Z   2
loop_
 _symmetry_equiv_pos_site_id
 _symmetry_equiv_pos_as_xyz
  1  'x, y, z'
loop_
 _atom_site_type_symbol
 _atom_site_label
 _atom_site_symmetry_multiplicity
 _atom_site_fract_x
 _atom_site_fract_y
 _atom_site_fract_z
 _atom_site_occupancy
  Cs  Cs0  1  0.26542400  0.00000000  0.75000000  1
  Cs  Cs1  1  0.73457600  0.00000000  0.25000000  1
  Zn  Zn0  1  0.16905400  0.78941400  0.06056500  1
  Zn  Zn1  1  0.16905400  0.21058600  0.43943500  1
  Zn  Zn2  1  0.83094600  0.21058600  0.93943500  1
  Zn  Zn3  1  0.83094600  0.78941400  0.56056500  1
  Zn  Zn4  1  0.35297200  0.48849600  0.87427000  1
  Zn  Zn5  1  0.35297200  0.51150400  0.62573000  1
  Zn  Zn6  1  0.64702800  0.51150400  0.12573000  1
  Zn  Zn7  1  0.64702800  0.48849600  0.37427000  1
  B  B0  1  0.84750200  0.50000000  0.75000000  1
  B  B1  1  0.15249800  0.50000000  0.25000000  1
  B  B2  1  0.34465500  0.19273400  0.04199700  1
  B  B3  1  0.34465500  0.80726600  0.45800300  1
  B  B4  1  0.65534500  0.80726600  0.95800300  1
  B  B5  1  0.65534500  0.19273400  0.54199700  1
  O  O0  1  0.20011600  0.27737700  0.96079300  1
  O  O1  1  0.20011600  0.72262300  0.53920700  1
  O  O2  1  0.79988400  0.72262300  0.03920700  1
  O  O3  1  0.79988400  0.27737700  0.46079300  1
  O  O4  1  0.12335400  0.50000000  0.75000000  1
  O  O5  1  0.87664600  0.50000000  0.25000000  1
  O  O6  1  0.40159800  0.72900800  0.94228100  1
  O  O7  1  0.40159800  0.27099200  0.55771900  1
  O  O8  1  0.59840200  0.27099200  0.05771900  1
  O  O9  1  0.59840200  0.72900800  0.44228100  1
  O  O10  1  0.70996000  0.40601400  0.82894500  1
  O  O11  1  0.70996000  0.59398600  0.67105500  1
  O  O12  1  0.29004000  0.59398600  0.17105500  1
  O  O13  1  0.29004000  0.40601400  0.32894500  1
  O  O14  1  0.25223700  0.04311300  0.10136500  1
  O  O15  1  0.25223700  0.95688700  0.39863500  1
  O  O16  1  0.74776300  0.95688700  0.89863500  1
  O  O17  1  0.74776300  0.04311300  0.60136500  1
loop_
_geom_bond_atom_site_label_1
_geom_bond_atom_site_label_2
_geom_bond_distance
_geom_bond_site_symmetry_2
Cs0 O17 3.137001 1_555
Cs0 O16 3.137001 1_545
Cs0 O6 3.150314 1_545
Cs0 O7 3.150314 1_555
Cs0 O17 3.278636 1_455
Cs0 O16 3.278636 1_445
Cs0 O0 3.499023 1_555
Cs0 O1 3.499023 1_545
Cs0 O4 3.575915 1_555
Cs0 O4 3.575915 1_545
Cs1 O15 3.137001 1_545
Cs1 O14 3.137001 1_555
Cs1 O9 3.150314 1_545
Cs1 O8 3.150314 1_555
Cs1 O15 3.278636 1_645
Cs1 O14 3.278636 1_655
Cs1 O3 3.499023 1_555
Cs1 O2 3.499023 1_545
Cs1 O5 3.575915 1_555
Cs1 O5 3.575915 1_545
B0 O10 1.385731 1_555
B0 O11 1.385731 1_555
B0 O4 1.399132 1_655
B1 O13 1.385731 1_555
B1 O12 1.385731 1_555
B1 O5 1.399132 1_455
B2 O14 1.353587 1_555
B2 O0 1.399269 1_554
B2 O8 1.418947 1_555
B3 O15 1.353587 1_555
B3 O1 1.399269 1_555
B3 O9 1.418947 1_555
B4 O16 1.353587 1_555
B4 O2 1.399269 1_556
B4 O6 1.418947 1_555
B5 O17 1.353587 1_555
B5 O3 1.399269 1_555
B5 O7 1.418947 1_555
O0 Zn2 1.954450 1_455
O0 Zn4 1.971416 1_555
O1 Zn3 1.954450 1_455
O1 Zn5 1.971416 1_555
O2 Zn0 1.954450 1_655
O2 Zn6 1.971416 1_555
O3 Zn1 1.954450 1_655
O3 Zn7 1.971416 1_555
O4 Zn5 2.006971 1_555
O4 Zn4 2.006971 1_555
O5 Zn6 2.006971 1_555
O5 Zn7 2.006971 1_555
O6 Zn4 1.970457 1_555
O6 Zn0 2.019345 1_556
O7 Zn5 1.970457 1_555
O7 Zn1 2.019345 1_555
O8 Zn6 1.970457 1_555
O8 Zn2 2.019345 1_554
O9 Zn7 1.970457 1_555
O9 Zn3 2.019345 1_555
O10 Zn4 2.002539 1_555
O10 Zn2 2.032719 1_555
O11 Zn5 2.002539 1_555
O11 Zn3 2.032719 1_555
O12 Zn6 2.002539 1_555
O12 Zn0 2.032719 1_555
O13 Zn7 2.002539 1_555
O13 Zn1 2.032719 1_555
O14 Zn0 1.933775 1_545
O15 Zn1 1.933775 1_565
O16 Zn2 1.933775 1_565
O17 Zn3 1.933775 1_545
