# generated using pymatgen
data_MgSi
_symmetry_space_group_name_H-M   'P 1'
_cell_length_a   5.56418900
_cell_length_b   5.60894366
_cell_length_c   7.67232304
_cell_angle_alpha   90.48878049
_cell_angle_beta   107.20671779
_cell_angle_gamma   100.05076936
_symmetry_Int_Tables_number   1
_chemical_formula_structural   MgSi
_chemical_formula_sum   'Mg6 Si6'
_cell_volume   224.75913765
_cell_formula_units_Z   6
loop_
 _symmetry_equiv_pos_site_id
 _symmetry_equiv_pos_as_xyz
  1  'x, y, z'
loop_
 _atom_site_type_symbol
 _atom_site_label
 _atom_site_symmetry_multiplicity
 _atom_site_fract_x
 _atom_site_fract_y
 _atom_site_fract_z
 _atom_site_occupancy
  Mg  Mg0  1  0.68326700  0.77045600  0.03804200  1
  Mg  Mg1  1  0.71277000  0.10861200  0.69862600  1
  Mg  Mg2  1  0.28723000  0.89138800  0.30137400  1
  Mg  Mg3  1  0.74440100  0.35948100  0.35487600  1
  Mg  Mg4  1  0.25559900  0.64051900  0.64512400  1
  Mg  Mg5  1  0.31673300  0.22954400  0.96195800  1
  Si  Si0  1  0.24686600  0.38335500  0.32405600  1
  Si  Si1  1  0.19052000  0.13707900  0.58029600  1
  Si  Si2  1  0.87747900  0.32044700  0.04608800  1
  Si  Si3  1  0.12252100  0.67955300  0.95391200  1
  Si  Si4  1  0.80948000  0.86292100  0.41970400  1
  Si  Si5  1  0.75313400  0.61664500  0.67594400  1
loop_
_geom_bond_atom_site_label_1
_geom_bond_atom_site_label_2
_geom_bond_distance
_geom_bond_site_symmetry_2
Mg0 Si4 2.822591 1_555
Mg0 Si3 2.830708 1_654
Mg0 Si2 2.908224 1_555
Mg0 Si3 2.942651 1_554
Mg0 Si5 3.054272 1_554
Mg0 Si2 3.079238 1_565
Mg1 Si2 2.734736 1_556
Mg1 Si4 2.767304 1_545
Mg1 Si1 2.810255 1_555
Mg1 Si5 2.815377 1_545
Mg1 Si5 2.829972 1_555
Mg1 Si1 3.032886 1_655
Mg2 Si3 2.734736 1_554
Mg2 Si1 2.767304 1_565
Mg2 Si4 2.810255 1_555
Mg2 Si0 2.815377 1_565
Mg2 Si0 2.829972 1_555
Mg2 Si4 3.032886 1_455
Mg3 Si2 2.700851 1_555
Mg3 Si0 2.735033 1_555
Mg3 Si4 2.804416 1_555
Mg3 Si5 2.827553 1_555
Mg3 Si0 2.855065 1_655
Mg3 Si4 2.899108 1_545
Mg3 Si1 3.047404 1_655
Mg4 Si3 2.700851 1_555
Mg4 Si5 2.735033 1_555
Mg4 Si1 2.804416 1_555
Mg4 Si0 2.827553 1_555
Mg4 Si5 2.855065 1_455
Mg4 Si1 2.899108 1_565
Mg4 Si4 3.047404 1_455
Mg5 Si1 2.822591 1_555
Mg5 Si2 2.830708 1_456
Mg5 Si3 2.908224 1_555
Mg5 Si2 2.942651 1_556
Mg5 Si0 3.054272 1_556
Mg5 Si3 3.079238 1_545
Si0 Si2 2.457199 1_455
Si0 Si1 2.476134 1_555
Si1 Si4 2.379508 1_445
Si2 Si3 2.460163 1_654
Si3 Si5 2.457199 1_455
Si4 Si5 2.476134 1_555
