# generated using pymatgen
data_LiLa3MnO7
_symmetry_space_group_name_H-M   'P 1'
_cell_length_a   5.55208401
_cell_length_b   11.83268624
_cell_length_c   10.88510603
_cell_angle_alpha   62.61416390
_cell_angle_beta   90.00807308
_cell_angle_gamma   103.55953555
_symmetry_Int_Tables_number   1
_chemical_formula_structural   LiLa3MnO7
_chemical_formula_sum   'Li4 La12 Mn4 O28'
_cell_volume   612.44331931
_cell_formula_units_Z   4
loop_
 _symmetry_equiv_pos_site_id
 _symmetry_equiv_pos_as_xyz
  1  'x, y, z'
loop_
 _atom_site_type_symbol
 _atom_site_label
 _atom_site_symmetry_multiplicity
 _atom_site_fract_x
 _atom_site_fract_y
 _atom_site_fract_z
 _atom_site_occupancy
  Li  Li0  1  0.66015700  0.81230200  0.96884300  1
  Li  Li1  1  0.66017600  0.81229500  0.46884600  1
  Li  Li2  1  0.33984000  0.18767200  0.03117100  1
  Li  Li3  1  0.33985300  0.18772300  0.53114200  1
  La  La0  1  0.25050400  0.99992900  0.37521600  1
  La  La1  1  0.25045200  0.99994100  0.87510200  1
  La  La2  1  0.74950800  0.00006800  0.62480400  1
  La  La3  1  0.74954700  0.00005200  0.12488500  1
  La  La4  1  0.43547300  0.35811900  0.19593800  1
  La  La5  1  0.43540200  0.35811800  0.69594600  1
  La  La6  1  0.56450500  0.64189800  0.80404200  1
  La  La7  1  0.56459200  0.64188500  0.30404300  1
  La  La8  1  0.90932600  0.35848800  0.94571100  1
  La  La9  1  0.90935600  0.35847000  0.44577600  1
  La  La10  1  0.09067800  0.64152000  0.05428400  1
  La  La11  1  0.09064500  0.64153000  0.55422600  1
  Mn  Mn0  1  0.14858600  0.80800200  0.72107000  1
  Mn  Mn1  1  0.85139900  0.19200500  0.27893200  1
  Mn  Mn2  1  0.14874200  0.80802600  0.22100800  1
  Mn  Mn3  1  0.85126000  0.19195100  0.77899700  1
  O  O0  1  0.18425200  0.99017100  0.62969200  1
  O  O1  1  0.18432400  0.99017800  0.12965100  1
  O  O2  1  0.81577500  0.00983700  0.37029800  1
  O  O3  1  0.81563000  0.00980700  0.87036200  1
  O  O4  1  0.47808600  0.58188400  0.08408000  1
  O  O5  1  0.47808000  0.58190300  0.58407400  1
  O  O6  1  0.52194300  0.41813600  0.91591000  1
  O  O7  1  0.52192300  0.41809800  0.41593600  1
  O  O8  1  0.09464000  0.60190500  0.82408300  1
  O  O9  1  0.09461100  0.60185600  0.32407100  1
  O  O10  1  0.90540100  0.39811300  0.17591400  1
  O  O11  1  0.90539200  0.39814400  0.67592100  1
  O  O12  1  0.40110100  0.82520100  0.83470500  1
  O  O13  1  0.40116600  0.82513400  0.33472200  1
  O  O14  1  0.40111100  0.82516800  0.59019600  1
  O  O15  1  0.40115100  0.82510200  0.09019400  1
  O  O16  1  0.59891000  0.17480900  0.16528100  1
  O  O17  1  0.59882400  0.17484700  0.66529400  1
  O  O18  1  0.59890300  0.17484100  0.40981200  1
  O  O19  1  0.59881600  0.17487900  0.90981200  1
  O  O20  1  0.09893800  0.21446900  0.39075800  1
  O  O21  1  0.09885900  0.21445700  0.89078400  1
  O  O22  1  0.09878400  0.21425100  0.14477100  1
  O  O23  1  0.09867500  0.21424700  0.64481100  1
  O  O24  1  0.90107400  0.78555200  0.60922600  1
  O  O25  1  0.90112200  0.78551600  0.10923200  1
  O  O26  1  0.90122100  0.78577200  0.85522100  1
  O  O27  1  0.90128800  0.78572700  0.35520500  1
loop_
_geom_bond_atom_site_label_1
_geom_bond_atom_site_label_2
_geom_bond_distance
_geom_bond_site_symmetry_2
Li0 O26 1.993536 1_555
Li0 O25 1.994552 1_556
Li0 O3 2.026203 1_565
Li0 O12 2.030085 1_555
Li0 O15 2.030367 1_556
Li0 O4 2.364454 1_556
Li1 O27 1.994138 1_555
Li1 O24 1.994240 1_555
Li1 O2 2.026666 1_565
Li1 O13 2.029859 1_555
Li1 O14 2.031064 1_555
Li1 O5 2.364227 1_555
Li2 O22 1.993686 1_555
Li2 O21 1.994601 1_554
Li2 O1 2.026135 1_545
Li2 O16 2.029971 1_555
Li2 O19 2.030261 1_554
Li2 O6 2.364922 1_554
Li3 O23 1.994296 1_555
Li3 O20 1.994335 1_555
Li3 O0 2.026763 1_545
Li3 O17 2.029871 1_555
Li3 O18 2.030912 1_555
Li3 O7 2.364041 1_555
La0 O2 2.443196 1_465
La0 O14 2.609577 1_555
La0 O13 2.611878 1_555
La0 O18 2.646999 1_565
La0 O16 2.649505 1_565
La0 O0 2.740012 1_555
La0 O1 2.748969 1_555
La0 O27 2.904177 1_455
La0 O24 2.904533 1_455
La0 O20 2.928823 1_565
La0 O22 2.929499 1_565
La0 O2 3.112572 1_565
La1 O3 2.443579 1_465
La1 O12 2.610664 1_555
La1 O15 2.610905 1_556
La1 O19 2.647723 1_565
La1 O17 2.648772 1_565
La1 O1 2.740687 1_556
La1 O0 2.747412 1_555
La1 O26 2.903249 1_455
La1 O25 2.905075 1_456
La1 O23 2.928785 1_565
La1 O21 2.929320 1_565
La1 O3 3.112159 1_565
La2 O0 2.443244 1_645
La2 O18 2.609706 1_555
La2 O17 2.611738 1_555
La2 O14 2.646962 1_545
La2 O12 2.649289 1_545
La2 O2 2.740287 1_555
La2 O3 2.748788 1_555
La2 O23 2.903826 1_655
La2 O20 2.904808 1_655
La2 O24 2.928729 1_545
La2 O26 2.929175 1_545
La2 O0 3.112516 1_545
La3 O1 2.443354 1_645
La3 O16 2.610815 1_555
La3 O19 2.610820 1_554
La3 O15 2.647813 1_545
La3 O13 2.648988 1_545
La3 O3 2.740418 1_554
La3 O2 2.747545 1_555
La3 O22 2.903557 1_655
La3 O21 2.904804 1_654
La3 O27 2.928952 1_545
La3 O25 2.929354 1_545
La3 O1 3.112390 1_545
La4 O4 2.299901 1_555
La4 O20 2.464403 1_555
La4 O22 2.466237 1_555
La4 O10 2.530821 1_555
La4 O18 2.687697 1_555
La4 O16 2.688575 1_555
La4 O7 2.805731 1_555
La4 O6 2.806255 1_554
La4 O10 3.080703 1_455
La5 O5 2.300050 1_555
La5 O21 2.464551 1_555
La5 O23 2.466196 1_555
La5 O11 2.531125 1_555
La5 O19 2.687382 1_555
La5 O17 2.688069 1_555
La5 O6 2.805708 1_555
La5 O7 2.806223 1_555
La5 O11 3.080493 1_455
La6 O6 2.299917 1_555
La6 O24 2.464497 1_555
La6 O26 2.466441 1_555
La6 O8 2.530477 1_555
La6 O14 2.687395 1_555
La6 O12 2.688433 1_555
La6 O5 2.805514 1_555
La6 O4 2.806339 1_556
La6 O8 3.081046 1_655
La7 O7 2.300080 1_555
La7 O25 2.464307 1_555
La7 O27 2.466041 1_555
La7 O9 2.531073 1_555
La7 O15 2.687243 1_555
La7 O13 2.687981 1_555
La7 O4 2.805554 1_555
La7 O5 2.806432 1_555
La7 O9 3.080554 1_655
La8 O6 2.393791 1_555
La8 O21 2.479494 1_655
La8 O22 2.480603 1_656
La8 O8 2.492006 1_655
La8 O19 2.620965 1_555
La8 O16 2.621502 1_556
La8 O11 2.753525 1_555
La8 O10 2.754074 1_556
La9 O7 2.393954 1_555
La9 O20 2.479887 1_655
La9 O23 2.479936 1_655
La9 O9 2.491660 1_655
La9 O17 2.621331 1_555
La9 O18 2.621370 1_555
La9 O11 2.753803 1_555
La9 O10 2.754354 1_555
La10 O4 2.393862 1_555
La10 O25 2.479325 1_455
La10 O26 2.480686 1_454
La10 O10 2.491880 1_455
La10 O15 2.620696 1_555
La10 O12 2.621578 1_554
La10 O9 2.753463 1_555
La10 O8 2.753993 1_554
La11 O5 2.393960 1_555
La11 O27 2.479856 1_455
La11 O24 2.479965 1_455
La11 O11 2.491659 1_455
La11 O13 2.621164 1_555
La11 O14 2.621517 1_555
La11 O9 2.753911 1_555
La11 O8 2.754379 1_555
Mn0 O0 1.871476 1_555
Mn0 O26 1.888260 1_455
Mn0 O24 1.888658 1_455
Mn0 O12 1.906377 1_555
Mn0 O14 1.907150 1_555
Mn0 O8 2.106218 1_555
Mn1 O2 1.871504 1_555
Mn1 O22 1.888341 1_655
Mn1 O20 1.888667 1_655
Mn1 O16 1.906388 1_555
Mn1 O18 1.907091 1_555
Mn1 O10 2.106293 1_555
Mn2 O1 1.871375 1_555
Mn2 O27 1.888642 1_455
Mn2 O25 1.888739 1_455
Mn2 O13 1.906368 1_555
Mn2 O15 1.906673 1_555
Mn2 O9 2.106846 1_555
Mn3 O3 1.871248 1_555
Mn3 O23 1.888421 1_655
Mn3 O21 1.888730 1_655
Mn3 O17 1.906320 1_555
Mn3 O19 1.906838 1_555
Mn3 O11 2.107084 1_555
