# generated using pymatgen
data_VO2
_symmetry_space_group_name_H-M   'P 1'
_cell_length_a   3.01668202
_cell_length_b   8.78299801
_cell_length_c   10.53815707
_cell_angle_alpha   89.99980947
_cell_angle_beta   89.98711580
_cell_angle_gamma   89.99559186
_symmetry_Int_Tables_number   1
_chemical_formula_structural   VO2
_chemical_formula_sum   'V8 O16'
_cell_volume   279.21386102
_cell_formula_units_Z   8
loop_
 _symmetry_equiv_pos_site_id
 _symmetry_equiv_pos_as_xyz
  1  'x, y, z'
loop_
 _atom_site_type_symbol
 _atom_site_label
 _atom_site_symmetry_multiplicity
 _atom_site_fract_x
 _atom_site_fract_y
 _atom_site_fract_z
 _atom_site_occupancy
  V  V0  1  0.24997900  0.44159700  0.61846400  1
  V  V1  1  0.24999900  0.94158400  0.88152800  1
  V  V2  1  0.25002700  0.92275600  0.39411000  1
  V  V3  1  0.24998900  0.42275600  0.10589300  1
  V  V4  1  0.75036800  0.55921600  0.38813200  1
  V  V5  1  0.74945400  0.05922200  0.11186700  1
  V  V6  1  0.74998100  0.07754000  0.60089200  1
  V  V7  1  0.75000600  0.57754200  0.89911400  1
  O  O0  1  0.24980100  0.70793600  0.35959200  1
  O  O1  1  0.75000400  0.29244500  0.63506600  1
  O  O2  1  0.74998500  0.79244100  0.86493300  1
  O  O3  1  0.25044400  0.20793800  0.14040600  1
  O  O4  1  0.24996800  0.61197000  0.02010300  1
  O  O5  1  0.75005600  0.38935900  0.98091500  1
  O  O6  1  0.74999200  0.88935900  0.51908800  1
  O  O7  1  0.25002000  0.11196700  0.47990100  1
  O  O8  1  0.75016300  0.97435300  0.28346300  1
  O  O9  1  0.24995500  0.02292900  0.71716500  1
  O  O10  1  0.25004200  0.52293100  0.78283700  1
  O  O11  1  0.74988800  0.47435300  0.21653500  1
  O  O12  1  0.24983600  0.92620400  0.07057300  1
  O  O13  1  0.74991600  0.07369600  0.92811300  1
  O  O14  1  0.75002900  0.57369900  0.57188200  1
  O  O15  1  0.25009900  0.42620500  0.42942600  1
loop_
_geom_bond_atom_site_label_1
_geom_bond_atom_site_label_2
_geom_bond_distance
_geom_bond_site_symmetry_2
O0 V2 1.921510 1_555
O0 V4 2.016598 1_455
O0 V4 2.019106 1_555
O1 V6 1.921560 1_555
O1 V0 2.005433 1_655
O1 V0 2.005454 1_555
O2 V7 1.921520 1_555
O2 V1 2.005249 1_555
O2 V1 2.005524 1_655
O3 V3 1.921481 1_555
O3 V5 2.015471 1_555
O3 V5 2.020187 1_455
O4 V3 1.891859 1_555
O4 V7 1.997891 1_554
O4 V7 1.998186 1_454
O5 V7 1.864101 1_555
O5 V3 2.023703 1_556
O5 V3 2.023876 1_656
O6 V6 1.864105 1_565
O6 V2 2.023663 1_655
O6 V2 2.023913 1_555
O7 V2 1.891846 1_545
O7 V6 1.997939 1_455
O7 V6 1.998159 1_555
O8 V5 1.955913 1_565
O8 V2 1.959464 1_655
O8 V2 1.959745 1_555
O9 V1 1.873645 1_545
O9 V6 2.001508 1_555
O9 V6 2.001750 1_455
O10 V0 1.873710 1_555
O10 V7 2.001503 1_455
O10 V7 2.001810 1_555
O11 V4 1.955906 1_555
O11 V3 1.959569 1_555
O11 V3 1.959581 1_655
O12 V5 1.956137 1_565
O12 V5 1.957624 1_465
O12 V1 1.996760 1_554
O13 V5 1.940597 1_556
O13 V1 1.965282 1_545
O13 V1 1.965360 1_645
O14 V4 1.940560 1_555
O14 V0 1.965160 1_655
O14 V0 1.965359 1_555
O15 V4 1.956222 1_455
O15 V4 1.957461 1_555
O15 V0 1.996694 1_555
