# generated using pymatgen
data_NdEu2BeO5
_symmetry_space_group_name_H-M   'P 1'
_cell_length_a   6.57765500
_cell_length_b   7.26991300
_cell_length_c   9.57303400
_cell_angle_alpha   90.00000000
_cell_angle_beta   90.00000000
_cell_angle_gamma   90.00000000
_symmetry_Int_Tables_number   1
_chemical_formula_structural   NdEu2BeO5
_chemical_formula_sum   'Nd4 Eu8 Be4 O20'
_cell_volume   457.77271750
_cell_formula_units_Z   4
loop_
 _symmetry_equiv_pos_site_id
 _symmetry_equiv_pos_as_xyz
  1  'x, y, z'
loop_
 _atom_site_type_symbol
 _atom_site_label
 _atom_site_symmetry_multiplicity
 _atom_site_fract_x
 _atom_site_fract_y
 _atom_site_fract_z
 _atom_site_occupancy
  Nd  Nd0  1  0.09590500  0.75000000  0.97584900  1
  Nd  Nd1  1  0.90409500  0.25000000  0.02415100  1
  Nd  Nd2  1  0.59590500  0.25000000  0.52415100  1
  Nd  Nd3  1  0.40409500  0.75000000  0.47584900  1
  Eu  Eu0  1  0.57946300  0.52288600  0.82655400  1
  Eu  Eu1  1  0.42053700  0.47711400  0.17344600  1
  Eu  Eu2  1  0.07946300  0.47711400  0.67344600  1
  Eu  Eu3  1  0.42053700  0.02288600  0.17344600  1
  Eu  Eu4  1  0.92053700  0.52288600  0.32655400  1
  Eu  Eu5  1  0.57946300  0.97711400  0.82655400  1
  Eu  Eu6  1  0.92053700  0.97711400  0.32655400  1
  Eu  Eu7  1  0.07946300  0.02288600  0.67344600  1
  Be  Be0  1  0.80844100  0.75000000  0.59981600  1
  Be  Be1  1  0.19155900  0.25000000  0.40018400  1
  Be  Be2  1  0.30844100  0.25000000  0.90018400  1
  Be  Be3  1  0.69155900  0.75000000  0.09981600  1
  O  O0  1  0.69136100  0.55907100  0.56710700  1
  O  O1  1  0.30863900  0.44092900  0.43289300  1
  O  O2  1  0.19136100  0.44092900  0.93289300  1
  O  O3  1  0.30863900  0.05907100  0.43289300  1
  O  O4  1  0.80863900  0.55907100  0.06710700  1
  O  O5  1  0.69136100  0.94092900  0.56710700  1
  O  O6  1  0.80863900  0.94092900  0.06710700  1
  O  O7  1  0.19136100  0.05907100  0.93289300  1
  O  O8  1  0.33528000  0.75000000  0.72342800  1
  O  O9  1  0.66472000  0.25000000  0.27657200  1
  O  O10  1  0.83528000  0.25000000  0.77657200  1
  O  O11  1  0.16472000  0.75000000  0.22342800  1
  O  O12  1  0.02097900  0.75000000  0.50931200  1
  O  O13  1  0.97902100  0.25000000  0.49068800  1
  O  O14  1  0.52097900  0.25000000  0.99068800  1
  O  O15  1  0.47902100  0.75000000  0.00931200  1
  O  O16  1  0.86447800  0.75000000  0.77232100  1
  O  O17  1  0.13552200  0.25000000  0.22767900  1
  O  O18  1  0.36447800  0.25000000  0.72767900  1
  O  O19  1  0.63552200  0.75000000  0.27232100  1
loop_
_geom_bond_atom_site_label_1
_geom_bond_atom_site_label_2
_geom_bond_distance
_geom_bond_site_symmetry_2
Nd0 O2 2.368961 1_555
Nd0 O7 2.368961 1_565
Nd0 O11 2.412918 1_556
Nd0 O16 2.472534 1_455
Nd0 O6 2.502039 1_456
Nd0 O4 2.502039 1_456
Nd0 O15 2.540284 1_556
Nd0 O8 2.884145 1_555
Nd1 O4 2.368961 1_555
Nd1 O6 2.368961 1_545
Nd1 O10 2.412918 1_554
Nd1 O17 2.472534 1_655
Nd1 O2 2.502039 1_654
Nd1 O7 2.502039 1_654
Nd1 O14 2.540284 1_554
Nd1 O9 2.884145 1_555
Nd2 O5 2.368961 1_545
Nd2 O0 2.368961 1_555
Nd2 O9 2.412918 1_555
Nd2 O18 2.472534 1_555
Nd2 O3 2.502039 1_555
Nd2 O1 2.502039 1_555
Nd2 O13 2.540284 1_555
Nd2 O10 2.884145 1_555
Nd3 O1 2.368961 1_555
Nd3 O3 2.368961 1_565
Nd3 O8 2.412918 1_555
Nd3 O19 2.472534 1_555
Nd3 O0 2.502039 1_555
Nd3 O5 2.502039 1_555
Nd3 O12 2.540284 1_555
Nd3 O11 2.884145 1_555
Eu0 O15 2.494702 1_556
Eu0 O8 2.506087 1_555
Eu0 O16 2.551526 1_555
Eu0 O14 2.559792 1_555
Eu0 O0 2.603781 1_555
Eu0 O18 2.613673 1_555
Eu0 O10 2.645001 1_555
Eu0 O4 2.764881 1_556
Eu0 O2 2.812133 1_555
Eu1 O14 2.494702 1_554
Eu1 O9 2.506087 1_555
Eu1 O17 2.551526 1_555
Eu1 O15 2.559792 1_555
Eu1 O1 2.603781 1_555
Eu1 O19 2.613673 1_555
Eu1 O11 2.645001 1_555
Eu1 O2 2.764881 1_554
Eu1 O4 2.812133 1_555
Eu2 O13 2.494702 1_455
Eu2 O10 2.506087 1_455
Eu2 O18 2.551526 1_555
Eu2 O12 2.559792 1_555
Eu2 O2 2.603781 1_555
Eu2 O16 2.613673 1_455
Eu2 O8 2.645001 1_555
Eu2 O1 2.764881 1_555
Eu2 O0 2.812133 1_455
Eu3 O14 2.494702 1_554
Eu3 O9 2.506087 1_555
Eu3 O17 2.551526 1_555
Eu3 O15 2.559792 1_545
Eu3 O3 2.603781 1_555
Eu3 O19 2.613673 1_545
Eu3 O11 2.645001 1_545
Eu3 O7 2.764881 1_554
Eu3 O6 2.812133 1_545
Eu4 O12 2.494702 1_655
Eu4 O11 2.506087 1_655
Eu4 O19 2.551526 1_555
Eu4 O13 2.559792 1_555
Eu4 O4 2.603781 1_555
Eu4 O17 2.613673 1_655
Eu4 O9 2.645001 1_555
Eu4 O0 2.764881 1_555
Eu4 O1 2.812133 1_655
Eu5 O15 2.494702 1_556
Eu5 O8 2.506087 1_555
Eu5 O16 2.551526 1_555
Eu5 O14 2.559792 1_565
Eu5 O5 2.603781 1_555
Eu5 O18 2.613673 1_565
Eu5 O10 2.645001 1_565
Eu5 O6 2.764881 1_556
Eu5 O7 2.812133 1_565
Eu6 O12 2.494702 1_655
Eu6 O11 2.506087 1_655
Eu6 O19 2.551526 1_555
Eu6 O13 2.559792 1_565
Eu6 O6 2.603781 1_555
Eu6 O17 2.613673 1_665
Eu6 O9 2.645001 1_565
Eu6 O5 2.764881 1_555
Eu6 O3 2.812133 1_665
Eu7 O13 2.494702 1_455
Eu7 O10 2.506087 1_455
Eu7 O18 2.551526 1_555
Eu7 O12 2.559792 1_545
Eu7 O7 2.603781 1_555
Eu7 O16 2.613673 1_445
Eu7 O8 2.645001 1_545
Eu7 O3 2.764881 1_555
Eu7 O5 2.812133 1_445
Be0 O5 1.617951 1_555
Be0 O0 1.617951 1_555
Be0 O12 1.644705 1_655
Be0 O16 1.692031 1_555
Be1 O3 1.617951 1_555
Be1 O1 1.617951 1_555
Be1 O13 1.644705 1_455
Be1 O17 1.692031 1_555
Be2 O7 1.617951 1_555
Be2 O2 1.617951 1_555
Be2 O14 1.644705 1_555
Be2 O18 1.692031 1_555
Be3 O4 1.617951 1_555
Be3 O6 1.617951 1_555
Be3 O15 1.644705 1_555
Be3 O19 1.692031 1_555
