# generated using pymatgen
data_YV4(CuO4)3
_symmetry_space_group_name_H-M   'P 1'
_cell_length_a   6.41727596
_cell_length_b   6.41727596
_cell_length_c   6.41727568
_cell_angle_alpha   109.42920396
_cell_angle_beta   109.42920396
_cell_angle_gamma   109.42920308
_symmetry_Int_Tables_number   1
_chemical_formula_structural   YV4(CuO4)3
_chemical_formula_sum   'Y1 V4 Cu3 O12'
_cell_volume   203.75299755
_cell_formula_units_Z   1
loop_
 _symmetry_equiv_pos_site_id
 _symmetry_equiv_pos_as_xyz
  1  'x, y, z'
loop_
 _atom_site_type_symbol
 _atom_site_label
 _atom_site_symmetry_multiplicity
 _atom_site_fract_x
 _atom_site_fract_y
 _atom_site_fract_z
 _atom_site_occupancy
  Y  Y0  1  0.00000000  0.00000000  0.00000000  1
  V  V0  1  0.50000000  0.00000000  0.00000000  1
  V  V1  1  0.50000000  0.50000000  0.50000000  1
  V  V2  1  0.00000000  0.00000000  0.50000000  1
  V  V3  1  0.00000000  0.50000000  0.00000000  1
  Cu  Cu0  1  0.00000000  0.50000000  0.50000000  1
  Cu  Cu1  1  0.50000000  0.00000000  0.50000000  1
  Cu  Cu2  1  0.50000000  0.50000000  0.00000000  1
  O  O0  1  0.30011100  0.12424800  0.82735600  1
  O  O1  1  0.69988900  0.87575200  0.17264400  1
  O  O2  1  0.70682100  0.52779000  0.82711700  1
  O  O3  1  0.87575200  0.17264400  0.69988900  1
  O  O4  1  0.82735600  0.30011100  0.12424800  1
  O  O5  1  0.17288300  0.29317900  0.47221000  1
  O  O6  1  0.47221000  0.17288300  0.29317900  1
  O  O7  1  0.17264400  0.69988900  0.87575200  1
  O  O8  1  0.29317900  0.47221000  0.17288300  1
  O  O9  1  0.12424800  0.82735600  0.30011100  1
  O  O10  1  0.82711700  0.70682100  0.52779000  1
  O  O11  1  0.52779000  0.82711700  0.70682100  1
loop_
_geom_bond_atom_site_label_1
_geom_bond_atom_site_label_2
_geom_bond_distance
_geom_bond_site_symmetry_2
Cu0 O7 1.976542 1_555
Cu0 O4 1.976542 1_455
Cu0 O5 1.994483 1_555
Cu0 O10 1.994483 1_455
Cu1 O9 1.976542 1_545
Cu1 O3 1.976542 1_555
Cu1 O6 1.994483 1_555
Cu1 O11 1.994483 1_545
Cu2 O0 1.976542 1_554
Cu2 O1 1.976542 1_555
Cu2 O8 1.994483 1_555
Cu2 O2 1.994483 1_554
O0 V0 1.957365 1_556
O0 V2 1.982513 1_555
O0 Y0 2.560836 1_556
O1 V0 1.957365 1_565
O1 V2 1.982513 1_665
O1 Y0 2.560836 1_665
O2 V3 1.941277 1_656
O2 V1 1.984917 1_555
O2 Y0 2.556375 1_666
O3 V2 1.957365 1_655
O3 V3 1.982513 1_656
O3 Y0 2.560836 1_656
O4 V3 1.957365 1_655
O4 V0 1.982513 1_555
O4 Y0 2.560836 1_655
O5 V2 1.941277 1_555
O5 V1 1.984917 1_555
O5 Y0 2.556375 1_555
O6 V0 1.941277 1_555
O6 V1 1.984917 1_555
O6 Y0 2.556375 1_555
O7 V3 1.957365 1_556
O7 V0 1.982513 1_566
O7 Y0 2.560836 1_566
O8 V3 1.941277 1_555
O8 V1 1.984917 1_555
O8 Y0 2.556375 1_555
O9 V2 1.957365 1_565
O9 V3 1.982513 1_555
O9 Y0 2.560836 1_565
O10 V2 1.941277 1_665
O10 V1 1.984917 1_555
O10 Y0 2.556375 1_666
O11 V0 1.941277 1_566
O11 V1 1.984917 1_555
O11 Y0 2.556375 1_666
