# generated using pymatgen
data_NdAlGe
_symmetry_space_group_name_H-M   'P 1'
_cell_length_a   4.26781405
_cell_length_b   4.26781517
_cell_length_c   7.92560273
_cell_angle_alpha   105.63870735
_cell_angle_beta   105.63868990
_cell_angle_gamma   89.96431569
_symmetry_Int_Tables_number   1
_chemical_formula_structural   NdAlGe
_chemical_formula_sum   'Nd2 Al2 Ge2'
_cell_volume   133.46393390
_cell_formula_units_Z   2
loop_
 _symmetry_equiv_pos_site_id
 _symmetry_equiv_pos_as_xyz
  1  'x, y, z'
loop_
 _atom_site_type_symbol
 _atom_site_label
 _atom_site_symmetry_multiplicity
 _atom_site_fract_x
 _atom_site_fract_y
 _atom_site_fract_z
 _atom_site_occupancy
  Nd  Nd0  1  0.58146262  0.58183358  0.16338142  1
  Nd  Nd1  1  0.83183425  0.33146320  0.66338232  1
  Al  Al0  1  0.16554322  0.16558687  0.33134855  1
  Al  Al1  1  0.41558710  0.91554269  0.83134864  1
  Ge  Ge0  1  0.99981926  0.99975333  0.99926889  1
  Ge  Ge1  1  0.24975355  0.74981932  0.49926919  1
loop_
_geom_bond_atom_site_label_1
_geom_bond_atom_site_label_2
_geom_bond_distance
_geom_bond_site_symmetry_2
Al0 Ge0 2.433298 1_444
Al0 Ge1 2.462412 1_545
Al0 Ge1 2.464056 1_555
Al0 Nd1 3.235687 1_455
Al0 Nd1 3.236673 1_555
Al0 Nd0 3.257344 1_545
Al0 Nd0 3.259173 1_455
Al0 Nd0 3.259347 1_445
Al0 Nd0 3.260650 1_555
Al1 Ge1 2.433297 1_555
Al1 Ge0 2.462410 1_455
Al1 Ge0 2.464054 1_555
Al1 Nd0 3.235681 1_556
Al1 Nd0 3.236669 1_566
Al1 Nd1 3.257344 1_465
Al1 Nd1 3.259168 1_555
Al1 Nd1 3.259342 1_455
Al1 Nd1 3.260650 1_565
Ge0 Nd0 3.246471 1_656
Ge0 Nd0 3.248076 1_666
Ge0 Nd0 3.248919 1_566
Ge0 Nd0 3.250805 1_556
Ge0 Nd1 3.256768 1_565
Ge0 Nd1 3.258148 1_555
Ge1 Nd1 3.246472 1_465
Ge1 Nd1 3.248079 1_565
Ge1 Nd1 3.248921 1_555
Ge1 Nd1 3.250806 1_455
Ge1 Nd0 3.256773 1_555
Ge1 Nd0 3.258155 1_455
