# generated using pymatgen
data_DyPRu2C
_symmetry_space_group_name_H-M   'P 1'
_cell_length_a   5.80623335
_cell_length_b   5.80623335
_cell_length_c   7.02164071
_cell_angle_alpha   90.00000000
_cell_angle_beta   90.00000000
_cell_angle_gamma   142.14982862
_symmetry_Int_Tables_number   1
_chemical_formula_structural   DyPRu2C
_chemical_formula_sum   'Dy2 P2 Ru4 C2'
_cell_volume   145.24862257
_cell_formula_units_Z   2
loop_
 _symmetry_equiv_pos_site_id
 _symmetry_equiv_pos_as_xyz
  1  'x, y, z'
loop_
 _atom_site_type_symbol
 _atom_site_label
 _atom_site_symmetry_multiplicity
 _atom_site_fract_x
 _atom_site_fract_y
 _atom_site_fract_z
 _atom_site_occupancy
  Dy  Dy0  1  0.54413382  0.45586618  0.25000000  1
  Dy  Dy1  1  0.45586618  0.54413382  0.75000000  1
  P  P0  1  0.26853904  0.73146096  0.25000000  1
  P  P1  1  0.73146096  0.26853904  0.75000000  1
  Ru  Ru0  1  0.83457677  0.16542323  0.05334602  1
  Ru  Ru1  1  0.16542323  0.83457677  0.94665398  1
  Ru  Ru2  1  0.16542323  0.83457677  0.55334602  1
  Ru  Ru3  1  0.83457677  0.16542323  0.44665398  1
  C  C0  1  0.00000000  0.00000000  -0.00000000  1
  C  C1  1  -0.00000000  -0.00000000  0.50000000  1
loop_
_geom_bond_atom_site_label_1
_geom_bond_atom_site_label_2
_geom_bond_distance
_geom_bond_site_symmetry_2
Dy0 P0 3.027336 1_555
Dy0 P0 3.102035 1_545
Dy0 P0 3.102035 1_655
Dy1 P1 3.027336 1_555
Dy1 P1 3.102035 1_455
Dy1 P1 3.102035 1_565
P0 Ru2 2.412437 1_555
P0 Ru1 2.412437 1_554
P0 Ru0 2.445230 1_565
P0 Ru3 2.445230 1_565
P0 Ru3 2.445230 1_455
P0 Ru0 2.445230 1_455
P1 Ru3 2.412437 1_555
P1 Ru0 2.412437 1_556
P1 Ru2 2.445230 1_655
P1 Ru1 2.445230 1_655
P1 Ru1 2.445230 1_545
P1 Ru2 2.445230 1_545
C0 Ru1 1.855336 1_544
C0 Ru0 1.855336 1_455
C0 Dy1 2.619681 1_554
C0 Dy0 2.619681 1_445
C0 Dy0 2.619681 1_555
C0 Dy1 2.619681 1_444
C1 Ru3 1.855336 1_455
C1 Ru2 1.855336 1_545
C1 Dy0 2.619681 1_445
C1 Dy0 2.619681 1_555
C1 Dy1 2.619681 1_445
C1 Dy1 2.619681 1_555
