# generated using pymatgen
data_LiMn6O12
_symmetry_space_group_name_H-M   'P 1'
_cell_length_a   6.61292900
_cell_length_b   6.61587334
_cell_length_c   15.39555995
_cell_angle_alpha   82.71883327
_cell_angle_beta   82.88140900
_cell_angle_gamma   82.65528881
_symmetry_Int_Tables_number   1
_chemical_formula_structural   LiMn6O12
_chemical_formula_sum   'Li3 Mn18 O36'
_cell_volume   658.66258070
_cell_formula_units_Z   3
loop_
 _symmetry_equiv_pos_site_id
 _symmetry_equiv_pos_as_xyz
  1  'x, y, z'
loop_
 _atom_site_type_symbol
 _atom_site_label
 _atom_site_symmetry_multiplicity
 _atom_site_fract_x
 _atom_site_fract_y
 _atom_site_fract_z
 _atom_site_occupancy
  Li  Li0  1  0.24697100  0.25237400  0.08617000  1
  Li  Li1  1  0.24734800  0.24997400  0.74964200  1
  Li  Li2  1  0.59112400  0.91347900  0.41111500  1
  Mn  Mn0  1  0.01184200  0.01246800  0.33311500  1
  Mn  Mn1  1  0.99242500  0.99222900  0.66823700  1
  Mn  Mn2  1  0.82181000  0.15417700  0.16694600  1
  Mn  Mn3  1  0.83452900  0.16840200  0.50233800  1
  Mn  Mn4  1  0.82595400  0.16077300  0.83408500  1
  Mn  Mn5  1  0.67405700  0.34147000  0.33328100  1
  Mn  Mn6  1  0.66980700  0.33803200  0.66825300  1
  Mn  Mn7  1  0.50829100  0.50531300  0.16528900  1
  Mn  Mn8  1  0.67896800  0.34116200  0.99710500  1
  Mn  Mn9  1  0.48890900  0.48844000  0.50143900  1
  Mn  Mn10  1  0.50575100  0.50598600  0.83350300  1
  Mn  Mn11  1  0.33035600  0.66421400  0.33201700  1
  Mn  Mn12  1  0.33745800  0.67132200  0.66797100  1
  Mn  Mn13  1  0.16217000  0.83018700  0.16492500  1
  Mn  Mn14  1  0.34066700  0.67495700  0.99835700  1
  Mn  Mn15  1  0.15615200  0.82413500  0.50287000  1
  Mn  Mn16  1  0.16072300  0.82575900  0.83430000  1
  Mn  Mn17  1  0.99726800  0.99877300  0.99804300  1
  O  O0  1  0.10585300  0.10105500  0.19538600  1
  O  O1  1  0.73341500  0.06739600  0.30229400  1
  O  O2  1  0.09654700  0.09143300  0.54985500  1
  O  O3  1  0.73067000  0.07117000  0.62512400  1
  O  O4  1  0.09697500  0.09586300  0.87310100  1
  O  O5  1  0.56114100  0.24446900  0.11458600  1
  O  O6  1  0.73212200  0.07106300  0.95412500  1
  O  O7  1  0.57345600  0.22729000  0.45272600  1
  O  O8  1  0.94666300  0.26740300  0.03220600  1
  O  O9  1  0.56215400  0.23949500  0.78979700  1
  O  O10  1  0.93476000  0.27457300  0.38411700  1
  O  O11  1  0.40666200  0.40259400  0.28501600  1
  O  O12  1  0.93725500  0.25793400  0.71463500  1
  O  O13  1  0.39370800  0.39527200  0.63990500  1
  O  O14  1  0.76678800  0.42697800  0.21088900  1
  O  O15  1  0.24369100  0.56271300  0.11676900  1
  O  O16  1  0.40728400  0.40721500  0.95585200  1
  O  O17  1  0.75651400  0.43068400  0.54924600  1
  O  O18  1  0.22636900  0.56521600  0.45260300  1
  O  O19  1  0.60662600  0.60624800  0.04239200  1
  O  O20  1  0.77054200  0.43166100  0.87506200  1
  O  O21  1  0.23939100  0.56262700  0.78884100  1
  O  O22  1  0.59701800  0.61302900  0.36998500  1
  O  O23  1  0.06942600  0.74199100  0.28468700  1
  O  O24  1  0.60328300  0.60485900  0.71360800  1
  O  O25  1  0.42890800  0.76690400  0.20978200  1
  O  O26  1  0.06788500  0.72819500  0.62627400  1
  O  O27  1  0.07237000  0.73159100  0.95458100  1
  O  O28  1  0.42497600  0.75955100  0.54623400  1
  O  O29  1  0.26316700  0.93795300  0.04272300  1
  O  O30  1  0.89959400  0.89449200  0.11525800  1
  O  O31  1  0.43067600  0.76993600  0.87645900  1
  O  O32  1  0.27299200  0.92431900  0.38439700  1
  O  O33  1  0.88864300  0.89959500  0.46672100  1
  O  O34  1  0.25792800  0.93728000  0.71460600  1
  O  O35  1  0.89453900  0.89489000  0.79039900  1
loop_
_geom_bond_atom_site_label_1
_geom_bond_atom_site_label_2
_geom_bond_distance
_geom_bond_site_symmetry_2
Li0 O0 2.030668 1_555
Li0 O15 2.160816 1_555
Li0 O5 2.168448 1_555
Li0 O8 2.231924 1_455
Li0 O29 2.250325 1_545
Li0 O16 2.329840 1_554
Li1 O13 2.033728 1_555
Li1 O12 2.176559 1_455
Li1 O34 2.193636 1_545
Li1 O21 2.219519 1_555
Li1 O4 2.222762 1_555
Li1 O9 2.234289 1_555
Li2 O1 2.037399 1_565
Li2 O22 2.155623 1_555
Li2 O32 2.183730 1_555
Li2 O33 2.227910 1_555
Li2 O7 2.234042 1_565
Li2 O28 2.398804 1_555
Mn0 O1 1.936247 1_455
Mn0 O10 1.975666 1_455
Mn0 O32 1.977263 1_545
Mn0 O23 1.999146 1_545
Mn0 O0 2.162771 1_555
Mn0 O33 2.191631 1_445
Mn1 O3 1.917113 1_565
Mn1 O26 1.923807 1_655
Mn1 O2 1.930773 1_665
Mn1 O34 1.950928 1_655
Mn1 O12 1.955299 1_565
Mn1 O35 1.966926 1_555
Mn2 O0 1.959464 1_655
Mn2 O30 1.966888 1_545
Mn2 O14 1.981926 1_555
Mn2 O5 1.984227 1_555
Mn2 O1 2.119915 1_555
Mn2 O8 2.210364 1_555
Mn3 O33 1.904536 1_545
Mn3 O10 1.934265 1_555
Mn3 O2 1.947020 1_655
Mn3 O17 1.948105 1_555
Mn3 O7 1.948144 1_555
Mn3 O3 1.985425 1_555
Mn4 O6 1.919533 1_555
Mn4 O9 1.936981 1_555
Mn4 O4 1.939590 1_655
Mn4 O35 1.942320 1_545
Mn4 O20 1.950766 1_555
Mn4 O12 1.955174 1_555
Mn5 O1 1.913211 1_555
Mn5 O22 1.938710 1_555
Mn5 O14 1.943900 1_555
Mn5 O10 1.957591 1_555
Mn5 O7 1.966727 1_555
Mn5 O11 1.977144 1_555
Mn6 O17 1.899001 1_555
Mn6 O13 1.909538 1_555
Mn6 O3 1.941441 1_555
Mn6 O24 1.958347 1_555
Mn6 O12 1.973876 1_555
Mn6 O9 1.978030 1_555
Mn7 O14 1.913707 1_555
Mn7 O25 1.928481 1_555
Mn7 O11 1.950217 1_555
Mn7 O5 1.956833 1_555
Mn7 O15 1.961148 1_555
Mn7 O19 1.983565 1_555
Mn8 O8 1.900875 1_556
Mn8 O5 1.942310 1_556
Mn8 O20 1.944500 1_555
Mn8 O19 1.950247 1_556
Mn8 O16 1.958041 1_555
Mn8 O6 1.958580 1_555
Mn9 O7 1.958992 1_555
Mn9 O18 1.959283 1_555
Mn9 O17 1.974345 1_555
Mn9 O28 1.979616 1_555
Mn9 O22 2.157671 1_555
Mn9 O13 2.180414 1_555
Mn10 O20 1.922266 1_555
Mn10 O31 1.929496 1_555
Mn10 O24 1.938501 1_555
Mn10 O9 1.941822 1_555
Mn10 O21 1.944715 1_555
Mn10 O16 1.972784 1_555
Mn11 O22 1.902267 1_555
Mn11 O23 1.939768 1_555
Mn11 O11 1.943636 1_555
Mn11 O18 1.959319 1_555
Mn11 O32 1.965826 1_555
Mn11 O25 1.978109 1_555
Mn12 O13 1.909708 1_555
Mn12 O28 1.930949 1_555
Mn12 O26 1.944861 1_555
Mn12 O24 1.951238 1_555
Mn12 O34 1.969291 1_555
Mn12 O21 1.970136 1_555
Mn13 O0 1.889203 1_565
Mn13 O23 1.911739 1_555
Mn13 O25 1.950240 1_555
Mn13 O30 1.959209 1_455
Mn13 O15 1.990289 1_555
Mn13 O29 1.991044 1_555
Mn14 O29 1.934712 1_556
Mn14 O19 1.942293 1_556
Mn14 O15 1.942925 1_556
Mn14 O16 1.944947 1_555
Mn14 O31 1.947037 1_555
Mn14 O27 1.950610 1_555
Mn15 O33 1.906875 1_455
Mn15 O18 1.947407 1_555
Mn15 O28 1.953504 1_555
Mn15 O32 1.959169 1_555
Mn15 O26 1.966549 1_555
Mn15 O2 1.970089 1_565
Mn16 O27 1.921230 1_555
Mn16 O4 1.934785 1_565
Mn16 O35 1.942980 1_455
Mn16 O21 1.943718 1_555
Mn16 O31 1.949973 1_555
Mn16 O34 1.958664 1_555
Mn17 O8 1.894305 1_566
Mn17 O30 1.912900 1_556
Mn17 O6 1.938490 1_565
Mn17 O29 1.943108 1_656
Mn17 O27 1.952415 1_655
Mn17 O4 2.007025 1_665
