# generated using pymatgen
data_RePt(N2Cl3)2
_symmetry_space_group_name_H-M   'P 1'
_cell_length_a   7.79507350
_cell_length_b   7.79507350
_cell_length_c   10.00041300
_cell_angle_alpha   90.00000000
_cell_angle_beta   90.00000000
_cell_angle_gamma   92.72405559
_symmetry_Int_Tables_number   1
_chemical_formula_structural   RePt(N2Cl3)2
_chemical_formula_sum   'Re2 Pt2 N8 Cl12'
_cell_volume   606.97015762
_cell_formula_units_Z   2
loop_
 _symmetry_equiv_pos_site_id
 _symmetry_equiv_pos_as_xyz
  1  'x, y, z'
loop_
 _atom_site_type_symbol
 _atom_site_label
 _atom_site_symmetry_multiplicity
 _atom_site_fract_x
 _atom_site_fract_y
 _atom_site_fract_z
 _atom_site_occupancy
  Re  Re0  1  0.50000000  0.50000000  0.50000000  1
  Re  Re1  1  0.00000000  0.00000000  0.00000000  1
  Pt  Pt0  1  0.00000000  0.00000000  0.50000000  1
  Pt  Pt1  1  0.50000000  0.50000000  0.00000000  1
  N  N0  1  0.01891700  0.78231500  0.42065400  1
  N  N1  1  0.21768500  0.98108300  0.57934600  1
  N  N2  1  0.71768500  0.48108300  0.92065400  1
  N  N3  1  0.51891700  0.28231500  0.07934600  1
  N  N4  1  0.98108300  0.21768500  0.57934600  1
  N  N5  1  0.78231500  0.01891700  0.42065400  1
  N  N6  1  0.28231500  0.51891700  0.07934600  1
  N  N7  1  0.48108300  0.71768500  0.92065400  1
  Cl  Cl0  1  0.68143300  0.68143300  0.62144000  1
  Cl  Cl1  1  0.31856700  0.31856700  0.37856000  1
  Cl  Cl2  1  0.81856700  0.81856700  0.12144000  1
  Cl  Cl3  1  0.18143300  0.18143300  0.87856000  1
  Cl  Cl4  1  0.56505500  0.27662700  0.63653600  1
  Cl  Cl5  1  0.72337300  0.43494500  0.36346400  1
  Cl  Cl6  1  0.22337300  0.93494500  0.13653600  1
  Cl  Cl7  1  0.06505500  0.77662700  0.86346400  1
  Cl  Cl8  1  0.43494500  0.72337300  0.36346400  1
  Cl  Cl9  1  0.27662700  0.56505500  0.63653600  1
  Cl  Cl10  1  0.77662700  0.06505500  0.86346400  1
  Cl  Cl11  1  0.93494500  0.22337300  0.13653600  1
loop_
_geom_bond_atom_site_label_1
_geom_bond_atom_site_label_2
_geom_bond_distance
_geom_bond_site_symmetry_2
N0 Pt0 1.885346 1_565
N1 Pt0 1.885346 1_565
N2 Pt1 1.885346 1_556
N3 Pt1 1.885346 1_555
N4 Pt0 1.885346 1_655
N5 Pt0 1.885346 1_655
N6 Pt1 1.885346 1_555
N7 Pt1 1.885346 1_556
Cl0 Re0 2.298948 1_555
Cl1 Re0 2.298948 1_555
Cl2 Re1 2.298948 1_665
Cl3 Re1 2.298948 1_556
Cl4 Re0 2.288506 1_555
Cl5 Re0 2.288506 1_555
Cl6 Re1 2.288506 1_565
Cl7 Re1 2.288506 1_566
Cl8 Re0 2.288506 1_555
Cl9 Re0 2.288506 1_555
Cl10 Re1 2.288506 1_656
Cl11 Re1 2.288506 1_655
