# generated using pymatgen
data_YbFeSi
_symmetry_space_group_name_H-M   'P 1'
_cell_length_a   4.00515799
_cell_length_b   4.00515799
_cell_length_c   6.23281689
_cell_angle_alpha   90.00000000
_cell_angle_beta   90.00000000
_cell_angle_gamma   90.00000000
_symmetry_Int_Tables_number   1
_chemical_formula_structural   YbFeSi
_chemical_formula_sum   'Yb2 Fe2 Si2'
_cell_volume   99.98242636
_cell_formula_units_Z   2
loop_
 _symmetry_equiv_pos_site_id
 _symmetry_equiv_pos_as_xyz
  1  'x, y, z'
loop_
 _atom_site_type_symbol
 _atom_site_label
 _atom_site_symmetry_multiplicity
 _atom_site_fract_x
 _atom_site_fract_y
 _atom_site_fract_z
 _atom_site_occupancy
  Yb  Yb0  1  0.00000000  0.50000000  0.31066804  1
  Yb  Yb1  1  0.50000000  0.00000000  0.68933196  1
  Fe  Fe0  1  0.00000000  0.00000000  0.00000000  1
  Fe  Fe1  1  0.50000000  0.50000000  0.00000000  1
  Si  Si0  1  0.00000000  0.50000000  0.81520921  1
  Si  Si1  1  0.50000000  0.00000000  0.18479079  1
loop_
_geom_bond_atom_site_label_1
_geom_bond_atom_site_label_2
_geom_bond_distance
_geom_bond_site_symmetry_2
Fe0 Si1 2.310171 1_455
Fe0 Si1 2.310171 1_555
Fe0 Si0 2.310171 1_554
Fe0 Si0 2.310171 1_544
Fe0 Yb0 2.785628 1_555
Fe0 Yb0 2.785628 1_545
Fe0 Yb1 2.785628 1_454
Fe0 Yb1 2.785628 1_554
Fe1 Si1 2.310171 1_565
Fe1 Si1 2.310171 1_555
Fe1 Si0 2.310171 1_654
Fe1 Si0 2.310171 1_554
Fe1 Yb0 2.785628 1_655
Fe1 Yb0 2.785628 1_555
Fe1 Yb1 2.785628 1_564
Fe1 Yb1 2.785628 1_554
Si0 Yb1 2.938740 1_455
Si0 Yb1 2.938740 1_465
Si0 Yb1 2.938740 1_555
Si0 Yb1 2.938740 1_565
Si0 Yb0 3.144713 1_555
Si1 Yb0 2.938740 1_545
Si1 Yb0 2.938740 1_555
Si1 Yb0 2.938740 1_655
Si1 Yb0 2.938740 1_645
Si1 Yb1 3.144713 1_555
