# generated using pymatgen
data_Al5(CuO4)3
_symmetry_space_group_name_H-M   'P 1'
_cell_length_a   5.79439241
_cell_length_b   5.79439241
_cell_length_c   14.16514491
_cell_angle_alpha   89.69949516
_cell_angle_beta   89.69949516
_cell_angle_gamma   59.67204847
_symmetry_Int_Tables_number   1
_chemical_formula_structural   Al5(CuO4)3
_chemical_formula_sum   'Al10 Cu6 O24'
_cell_volume   410.50156865
_cell_formula_units_Z   2
loop_
 _symmetry_equiv_pos_site_id
 _symmetry_equiv_pos_as_xyz
  1  'x, y, z'
loop_
 _atom_site_type_symbol
 _atom_site_label
 _atom_site_symmetry_multiplicity
 _atom_site_fract_x
 _atom_site_fract_y
 _atom_site_fract_z
 _atom_site_occupancy
  Al  Al0  1  0.33430100  0.33430100  0.83576600  1
  Al  Al1  1  0.66569900  0.66569900  0.16423400  1
  Al  Al2  1  0.16368100  0.16368100  0.66592500  1
  Al  Al3  1  0.83631900  0.83631900  0.33407500  1
  Al  Al4  1  0.83120200  0.33483200  0.83615300  1
  Al  Al5  1  0.50000000  0.00000000  0.50000000  1
  Al  Al6  1  0.16879800  0.66516800  0.16384700  1
  Al  Al7  1  0.33483200  0.83120200  0.83615300  1
  Al  Al8  1  0.00000000  0.50000000  0.50000000  1
  Al  Al9  1  0.66516800  0.16879800  0.16384700  1
  Cu  Cu0  1  0.83263700  0.83263700  0.95694700  1
  Cu  Cu1  1  0.50153300  0.50153300  0.62020800  1
  Cu  Cu2  1  0.16455100  0.16455100  0.29406800  1
  Cu  Cu3  1  0.83544900  0.83544900  0.70593200  1
  Cu  Cu4  1  0.49846700  0.49846700  0.37979200  1
  Cu  Cu5  1  0.16736300  0.16736300  0.04305300  1
  O  O0  1  0.02102900  0.46030600  0.75471700  1
  O  O1  1  0.65787000  0.13516700  0.41439900  1
  O  O2  1  0.34115200  0.81856700  0.09811200  1
  O  O3  1  0.18143300  0.65884800  0.90188800  1
  O  O4  1  0.86483300  0.34213000  0.58560100  1
  O  O5  1  0.53969400  0.97897100  0.24528300  1
  O  O6  1  0.65918800  0.65918800  0.90218300  1
  O  O7  1  0.31610900  0.31610900  0.57948800  1
  O  O8  1  0.98010800  0.98010800  0.24537300  1
  O  O9  1  0.50016100  0.50016100  0.76338500  1
  O  O10  1  0.18191700  0.18191700  0.42671400  1
  O  O11  1  0.83364200  0.83364200  0.09529800  1
  O  O12  1  0.01989200  0.01989200  0.75462700  1
  O  O13  1  0.68389100  0.68389100  0.42051200  1
  O  O14  1  0.34081200  0.34081200  0.09781700  1
  O  O15  1  0.16635800  0.16635800  0.90470200  1
  O  O16  1  0.81808300  0.81808300  0.57328600  1
  O  O17  1  0.49983900  0.49983900  0.23661500  1
  O  O18  1  0.65884800  0.18143300  0.90188800  1
  O  O19  1  0.34213000  0.86483300  0.58560100  1
  O  O20  1  0.97897100  0.53969400  0.24528300  1
  O  O21  1  0.46030600  0.02102900  0.75471700  1
  O  O22  1  0.13516700  0.65787000  0.41439900  1
  O  O23  1  0.81856700  0.34115200  0.09811200  1
loop_
_geom_bond_atom_site_label_1
_geom_bond_atom_site_label_2
_geom_bond_distance
_geom_bond_site_symmetry_2
Al0 O3 1.877735 1_555
Al0 O18 1.877735 1_555
Al0 O15 1.945225 1_555
Al0 O9 1.952071 1_555
Al0 O0 1.954684 1_555
Al0 O21 1.954684 1_555
Al1 O2 1.877735 1_555
Al1 O23 1.877735 1_555
Al1 O11 1.945225 1_555
Al1 O17 1.952071 1_555
Al1 O5 1.954684 1_555
Al1 O20 1.954684 1_555
Al2 O4 1.887438 1_455
Al2 O19 1.887438 1_545
Al2 O12 1.909492 1_555
Al2 O21 1.948417 1_555
Al2 O0 1.948417 1_555
Al2 O7 1.955619 1_555
Al3 O22 1.887438 1_655
Al3 O1 1.887438 1_565
Al3 O8 1.909492 1_555
Al3 O5 1.948417 1_555
Al3 O20 1.948417 1_555
Al3 O13 1.955619 1_555
Al4 O6 1.875483 1_555
Al4 O18 1.879496 1_555
Al4 O15 1.939730 1_655
Al4 O9 1.953009 1_555
Al4 O12 1.962937 1_655
Al4 O0 1.963323 1_655
Al5 O1 1.903268 1_555
Al5 O19 1.903268 1_545
Al5 O16 1.905874 1_545
Al5 O10 1.905874 1_555
Al5 O13 1.948374 1_545
Al5 O7 1.948374 1_555
Al6 O14 1.875483 1_555
Al6 O2 1.879496 1_555
Al6 O11 1.939730 1_455
Al6 O17 1.953009 1_555
Al6 O8 1.962937 1_455
Al6 O20 1.963323 1_455
Al7 O6 1.875483 1_555
Al7 O3 1.879496 1_555
Al7 O15 1.939730 1_565
Al7 O9 1.953009 1_555
Al7 O12 1.962937 1_565
Al7 O21 1.963323 1_565
Al8 O22 1.903268 1_555
Al8 O4 1.903268 1_455
Al8 O16 1.905874 1_455
Al8 O10 1.905874 1_555
Al8 O13 1.948374 1_455
Al8 O7 1.948374 1_555
Al9 O14 1.875483 1_555
Al9 O23 1.879496 1_555
Al9 O11 1.939730 1_545
Al9 O17 1.953009 1_555
Al9 O8 1.962937 1_545
Al9 O5 1.963323 1_545
Cu0 O3 1.908759 1_655
Cu0 O18 1.908759 1_565
Cu0 O6 1.912692 1_555
Cu0 O11 1.959849 1_556
Cu1 O4 1.885524 1_555
Cu1 O19 1.885524 1_555
Cu1 O7 1.954549 1_555
Cu1 O9 2.028086 1_555
Cu2 O10 1.888093 1_555
Cu2 O8 1.982206 1_445
Cu2 O20 1.997597 1_455
Cu2 O5 1.997597 1_545
Cu3 O16 1.888093 1_555
Cu3 O12 1.982206 1_665
Cu3 O21 1.997597 1_565
Cu3 O0 1.997597 1_655
Cu4 O1 1.885524 1_555
Cu4 O22 1.885524 1_555
Cu4 O13 1.954549 1_555
Cu4 O17 2.028086 1_555
Cu5 O23 1.908759 1_455
Cu5 O2 1.908759 1_545
Cu5 O14 1.912692 1_555
Cu5 O15 1.959849 1_554
