# generated using pymatgen
data_VPO5
_symmetry_space_group_name_H-M   'P 1'
_cell_length_a   5.19809082
_cell_length_b   5.19809082
_cell_length_c   7.06525384
_cell_angle_alpha   71.91077808
_cell_angle_beta   71.91077808
_cell_angle_gamma   94.59275729
_symmetry_Int_Tables_number   1
_chemical_formula_structural   VPO5
_chemical_formula_sum   'V2 P2 O10'
_cell_volume   169.17724765
_cell_formula_units_Z   2
loop_
 _symmetry_equiv_pos_site_id
 _symmetry_equiv_pos_as_xyz
  1  'x, y, z'
loop_
 _atom_site_type_symbol
 _atom_site_label
 _atom_site_symmetry_multiplicity
 _atom_site_fract_x
 _atom_site_fract_y
 _atom_site_fract_z
 _atom_site_occupancy
  V  V0  1  0.00000000  0.00000000  0.50000000  1
  V  V1  1  0.00000000  0.00000000  0.00000000  1
  P  P0  1  0.64294000  0.35706000  0.25000000  1
  P  P1  1  0.35706000  0.64294000  0.75000000  1
  O  O0  1  0.73006000  0.21086000  0.08504300  1
  O  O1  1  0.21086000  0.73006000  0.58504300  1
  O  O2  1  0.67078100  0.71790200  0.63372700  1
  O  O3  1  0.71790200  0.67078100  0.13372700  1
  O  O4  1  0.26994000  0.78914000  0.91495700  1
  O  O5  1  0.78914000  0.26994000  0.41495700  1
  O  O6  1  0.32921900  0.28209800  0.36627300  1
  O  O7  1  0.28209800  0.32921900  0.86627300  1
  O  O8  1  0.94192000  0.05808000  0.75000000  1
  O  O9  1  0.05808000  0.94192000  0.25000000  1
loop_
_geom_bond_atom_site_label_1
_geom_bond_atom_site_label_2
_geom_bond_distance
_geom_bond_site_symmetry_2
O0 P0 1.555090 1_555
O0 V1 1.913895 1_655
O1 P1 1.555090 1_555
O1 V0 1.913895 1_565
O2 P1 1.534136 1_555
O2 V0 1.924890 1_665
O3 P0 1.534136 1_555
O3 V1 1.924890 1_665
O4 P1 1.555090 1_555
O4 V1 1.913895 1_566
O5 P0 1.555090 1_555
O5 V0 1.913895 1_655
O6 P0 1.534136 1_555
O6 V0 1.924890 1_555
O7 P1 1.534136 1_555
O7 V1 1.924890 1_556
O8 V0 1.821196 1_655
O8 V1 1.821196 1_656
O9 V0 1.821196 1_565
O9 V1 1.821196 1_565
