# generated using pymatgen
data_Tm3Ge3Ru2
_symmetry_space_group_name_H-M   'P 1'
_cell_length_a   5.72922587
_cell_length_b   5.72922587
_cell_length_c   13.72907182
_cell_angle_alpha   89.99975147
_cell_angle_beta   90.00024853
_cell_angle_gamma   136.83899753
_symmetry_Int_Tables_number   1
_chemical_formula_structural   Tm3Ge3Ru2
_chemical_formula_sum   'Tm6 Ge6 Ru4'
_cell_volume   308.26300758
_cell_formula_units_Z   2
loop_
 _symmetry_equiv_pos_site_id
 _symmetry_equiv_pos_as_xyz
  1  'x, y, z'
loop_
 _atom_site_type_symbol
 _atom_site_label
 _atom_site_symmetry_multiplicity
 _atom_site_fract_x
 _atom_site_fract_y
 _atom_site_fract_z
 _atom_site_occupancy
  Tm  Tm0  1  0.92153966  0.07846034  0.38726928  1
  Tm  Tm1  1  0.07846170  0.92153830  0.61273471  1
  Tm  Tm2  1  0.92153512  0.07846488  0.11274500  1
  Tm  Tm3  1  0.07847060  0.92152940  0.88724833  1
  Tm  Tm4  1  0.64799465  0.35200535  0.25001366  1
  Tm  Tm5  1  0.35200248  0.64799752  0.74998998  1
  Ge  Ge0  1  0.61521118  0.38478882  0.45933326  1
  Ge  Ge1  1  0.38478291  0.61521709  0.54070100  1
  Ge  Ge2  1  0.61520431  0.38479569  0.04067703  1
  Ge  Ge3  1  0.38479045  0.61520955  0.95928966  1
  Ge  Ge4  1  0.33815207  0.66184793  0.25001871  1
  Ge  Ge5  1  0.66185106  0.33814894  0.74998038  1
  Ru  Ru0  1  0.78713539  0.21286461  0.91735262  1
  Ru  Ru1  1  0.21286698  0.78713302  0.08262715  1
  Ru  Ru2  1  0.78713677  0.21286323  0.58262860  1
  Ru  Ru3  1  0.21286566  0.78713434  0.41738762  1
loop_
_geom_bond_atom_site_label_1
_geom_bond_atom_site_label_2
_geom_bond_distance
_geom_bond_site_symmetry_2
Ge0 Ru3 2.419684 1_545
Ge0 Ru3 2.419684 1_655
Ge0 Ru2 2.494232 1_555
Ge0 Ge1 2.697459 1_555
Ge0 Tm4 2.894918 1_555
Ge0 Tm1 3.004888 1_545
Ge0 Tm1 3.004888 1_655
Ge0 Tm0 3.110928 1_565
Ge0 Tm0 3.110928 1_455
Ge1 Ru2 2.419587 1_455
Ge1 Ru2 2.419587 1_565
Ge1 Ru3 2.494335 1_555
Ge1 Tm5 2.894497 1_555
Ge1 Tm0 3.005189 1_455
Ge1 Tm0 3.005189 1_565
Ge1 Tm1 3.110847 1_545
Ge1 Tm1 3.110847 1_655
Ge2 Ru1 2.419734 1_655
Ge2 Ru1 2.419734 1_545
Ge2 Ru0 2.494557 1_554
Ge2 Ge3 2.697421 1_554
Ge2 Tm4 2.895156 1_555
Ge2 Tm3 3.005126 1_544
Ge2 Tm3 3.005126 1_654
Ge2 Tm2 3.110935 1_455
Ge2 Tm2 3.110935 1_565
Ge3 Ru0 2.419656 1_565
Ge3 Ru0 2.419656 1_455
Ge3 Ru1 2.494620 1_556
Ge3 Tm5 2.894649 1_555
Ge3 Tm2 3.005397 1_456
Ge3 Tm2 3.005397 1_566
Ge3 Tm3 3.110896 1_655
Ge3 Tm3 3.110896 1_545
Ge4 Ru3 2.657463 1_555
Ge4 Ru1 2.657714 1_555
Ge4 Tm4 2.923337 1_565
Ge4 Tm4 2.923337 1_455
Ge4 Tm0 2.963215 1_455
Ge4 Tm0 2.963215 1_565
Ge4 Tm2 2.963408 1_565
Ge4 Tm2 2.963408 1_455
Ge4 Tm4 3.301445 1_555
Ge5 Ru2 2.657256 1_555
Ge5 Ru0 2.657481 1_555
Ge5 Tm5 2.923293 1_655
Ge5 Tm5 2.923293 1_545
Ge5 Tm1 2.963178 1_655
Ge5 Tm1 2.963178 1_545
Ge5 Tm3 2.963349 1_655
Ge5 Tm3 2.963349 1_545
Ge5 Tm5 3.301509 1_555
Ru0 Tm2 3.040866 1_556
Ru0 Tm3 3.091071 1_655
Ru0 Tm3 3.091071 1_545
Ru0 Tm3 3.131640 1_645
Ru0 Tm5 3.193406 1_655
Ru0 Tm5 3.193406 1_545
Ru1 Tm3 3.040685 1_554
Ru1 Tm2 3.091122 1_565
Ru1 Tm2 3.091122 1_455
Ru1 Tm2 3.131629 1_465
Ru1 Tm4 3.193654 1_565
Ru1 Tm4 3.193654 1_455
Ru2 Tm0 3.040494 1_555
Ru2 Tm1 3.091156 1_655
Ru2 Tm1 3.091156 1_545
Ru2 Tm1 3.131531 1_645
Ru2 Tm5 3.193386 1_655
Ru2 Tm5 3.193386 1_545
Ru3 Tm1 3.040351 1_555
Ru3 Tm0 3.091171 1_455
Ru3 Tm0 3.091171 1_565
Ru3 Tm0 3.131564 1_465
Ru3 Tm4 3.193522 1_455
Ru3 Tm4 3.193522 1_565
