# generated using pymatgen
data_Na2H18Pt(NF)6
_symmetry_space_group_name_H-M   'P 1'
_cell_length_a   8.85184657
_cell_length_b   8.85184657
_cell_length_c   12.09539409
_cell_angle_alpha   98.80362747
_cell_angle_beta   103.44069572
_cell_angle_gamma   118.24613566
_symmetry_Int_Tables_number   1
_chemical_formula_structural   Na2H18Pt(NF)6
_chemical_formula_sum   'Na4 H36 Pt2 N12 F12'
_cell_volume   772.79864580
_cell_formula_units_Z   2
loop_
 _symmetry_equiv_pos_site_id
 _symmetry_equiv_pos_as_xyz
  1  'x, y, z'
loop_
 _atom_site_type_symbol
 _atom_site_label
 _atom_site_symmetry_multiplicity
 _atom_site_fract_x
 _atom_site_fract_y
 _atom_site_fract_z
 _atom_site_occupancy
  Na  Na0  1  0.71894800  0.20168100  0.80331000  1
  Na  Na1  1  0.89837100  0.91563800  0.69669000  1
  Na  Na2  1  0.28105200  0.79831900  0.19669000  1
  Na  Na3  1  0.10162900  0.08436200  0.30331000  1
  H  H0  1  0.84972400  0.45494000  0.04064900  1
  H  H1  1  0.91429100  0.80907500  0.45935100  1
  H  H2  1  0.15027600  0.54506000  0.95935100  1
  H  H3  1  0.08570900  0.19092500  0.54064900  1
  H  H4  1  0.74754800  0.53389200  0.95924200  1
  H  H5  1  0.07464900  0.78830600  0.54075800  1
  H  H6  1  0.25245200  0.46610800  0.04075800  1
  H  H7  1  0.92535100  0.21169400  0.45924200  1
  H  H8  1  0.62576800  0.35233900  0.99381900  1
  H  H9  1  0.85851900  0.63194900  0.50618100  1
  H  H10  1  0.37423200  0.64766100  0.00618100  1
  H  H11  1  0.14148100  0.36805100  0.49381900  1
  H  H12  1  0.84122800  0.40222600  0.65382200  1
  H  H13  1  0.24840500  0.18740600  0.84617800  1
  H  H14  1  0.15877200  0.59777400  0.34617800  1
  H  H15  1  0.75159500  0.81259400  0.15382200  1
  H  H16  1  0.52346000  0.88620400  0.87782600  1
  H  H17  1  0.50837800  0.64563400  0.62217400  1
  H  H18  1  0.47654000  0.11379600  0.12217400  1
  H  H19  1  0.49162200  0.35436600  0.37782600  1
  H  H20  1  0.05103100  0.47865800  0.73684000  1
  H  H21  1  0.24181800  0.31419100  0.76316000  1
  H  H22  1  0.94896900  0.52134200  0.26316000  1
  H  H23  1  0.75818200  0.68580900  0.23684000  1
  H  H24  1  0.94850500  0.58159100  0.77317200  1
  H  H25  1  0.30841800  0.17533300  0.72682800  1
  H  H26  1  0.05149500  0.41840900  0.22682800  1
  H  H27  1  0.69158200  0.82466700  0.27317200  1
  H  H28  1  0.39589000  0.85441800  0.74210900  1
  H  H29  1  0.61231000  0.65378200  0.75789100  1
  H  H30  1  0.60411000  0.14558200  0.25789100  1
  H  H31  1  0.38769000  0.34621800  0.24210900  1
  H  H32  1  0.36203600  0.93442800  0.85996600  1
  H  H33  1  0.57446200  0.50207000  0.64003400  1
  H  H34  1  0.63796400  0.06557200  0.14003400  1
  H  H35  1  0.42553800  0.49793000  0.35996600  1
  Pt  Pt0  1  0.50000000  0.00000000  0.50000000  1
  Pt  Pt1  1  0.00000000  0.00000000  0.00000000  1
  N  N0  1  0.46114800  0.93828200  0.82850800  1
  N  N1  1  0.60977400  0.63264000  0.67149200  1
  N  N2  1  0.53885200  0.06171800  0.17149200  1
  N  N3  1  0.39022600  0.36736000  0.32850800  1
  N  N4  1  0.73711700  0.41688100  0.96895500  1
  N  N5  1  0.94792700  0.76816200  0.53104500  1
  N  N6  1  0.26288300  0.58311900  0.03104500  1
  N  N7  1  0.05207300  0.23183800  0.46895500  1
  N  N8  1  0.92865900  0.45710900  0.74071500  1
  N  N9  1  0.21639500  0.18794400  0.75928500  1
  N  N10  1  0.07134100  0.54289100  0.25928500  1
  N  N11  1  0.78360500  0.81205600  0.24071500  1
  F  F0  1  0.33387100  0.78567900  0.53957800  1
  F  F1  1  0.74610100  0.79429300  0.96042200  1
  F  F2  1  0.66612900  0.21432100  0.46042200  1
  F  F3  1  0.25389900  0.20570700  0.03957800  1
  F  F4  1  0.71164400  0.02848600  0.62225100  1
  F  F5  1  0.90623500  0.08939300  0.87774900  1
  F  F6  1  0.28835600  0.97151400  0.37774900  1
  F  F7  1  0.09376500  0.91060700  0.12225100  1
  F  F8  1  0.48772900  0.16180600  0.62568700  1
  F  F9  1  0.03611900  0.86204200  0.87431300  1
  F  F10  1  0.51227100  0.83819400  0.37431300  1
  F  F11  1  0.96388100  0.13795800  0.12568700  1
loop_
_geom_bond_atom_site_label_1
_geom_bond_atom_site_label_2
_geom_bond_distance
_geom_bond_site_symmetry_2
H0 N4 1.024668 1_554
H1 N5 1.024670 1_555
H2 N6 1.024668 1_556
H3 N7 1.024670 1_555
H4 N4 1.023182 1_555
H5 N5 1.023165 1_455
H6 N6 1.023182 1_555
H7 N7 1.023165 1_655
H8 N4 1.022612 1_555
H9 N5 1.022614 1_555
H10 N6 1.022612 1_555
H11 N7 1.022614 1_555
H12 N8 1.024348 1_555
H13 N9 1.024348 1_555
H14 N10 1.024348 1_555
H15 N11 1.024348 1_555
H16 N0 1.021992 1_555
H17 N1 1.021992 1_555
H18 N2 1.021992 1_555
H19 N3 1.021992 1_555
H20 N8 1.021132 1_455
H21 N9 1.021134 1_555
H22 N10 1.021132 1_655
H23 N11 1.021134 1_555
H24 N8 1.025407 1_555
H25 N9 1.025390 1_555
H26 N10 1.025407 1_555
H27 N11 1.025390 1_555
H28 N0 1.026096 1_555
H29 N1 1.026094 1_555
H30 N2 1.026096 1_555
H31 N3 1.026094 1_555
H32 N0 1.022970 1_555
H33 N1 1.022970 1_555
H34 N2 1.022970 1_555
H35 N3 1.022970 1_555
N0 Na0 2.498277 1_565
N1 Na1 2.498277 1_555
N2 Na2 2.498277 1_545
N3 Na3 2.498277 1_555
N4 Na0 2.461856 1_555
N5 Na1 2.461861 1_555
N6 Na2 2.461856 1_555
N7 Na3 2.461861 1_555
N8 Na0 2.517136 1_555
N9 Na1 2.517141 1_445
N10 Na2 2.517136 1_555
N11 Na3 2.517141 1_665
F0 Pt0 1.988824 1_565
F1 Pt1 1.988824 1_666
F2 Pt0 1.988824 1_555
F3 Pt1 1.988824 1_555
F4 Pt0 1.977566 1_555
F4 Na1 2.384691 1_545
F4 Na0 2.441972 1_555
F5 Pt1 1.977566 1_656
F5 Na0 2.384691 1_555
F5 Na1 2.441972 1_545
F6 Pt0 1.977566 1_565
F6 Na3 2.384691 1_565
F6 Na2 2.441972 1_555
F7 Pt1 1.977566 1_565
F7 Na2 2.384691 1_555
F7 Na3 2.441972 1_565
F8 Pt0 1.982893 1_555
F8 Na0 2.443208 1_555
F9 Pt1 1.982893 1_566
F9 Na1 2.443208 1_455
F10 Pt0 1.982893 1_565
F10 Na2 2.443208 1_555
F11 Pt1 1.982893 1_655
F11 Na3 2.443208 1_655
