# generated using pymatgen
data_Sr2YCu2MoO7
_symmetry_space_group_name_H-M   'P 1'
_cell_length_a   12.47197116
_cell_length_b   12.47197116
_cell_length_c   5.54307352
_cell_angle_alpha   77.42517294
_cell_angle_beta   77.42517294
_cell_angle_gamma   143.74660409
_symmetry_Int_Tables_number   1
_chemical_formula_structural   Sr2YCu2MoO7
_chemical_formula_sum   'Sr4 Y2 Cu4 Mo2 O14'
_cell_volume   364.24051522
_cell_formula_units_Z   2
loop_
 _symmetry_equiv_pos_site_id
 _symmetry_equiv_pos_as_xyz
  1  'x, y, z'
loop_
 _atom_site_type_symbol
 _atom_site_label
 _atom_site_symmetry_multiplicity
 _atom_site_fract_x
 _atom_site_fract_y
 _atom_site_fract_z
 _atom_site_occupancy
  Sr  Sr0  1  0.38607500  0.16846700  0.98406300  1
  Sr  Sr1  1  0.62978200  0.84145900  0.02720900  1
  Sr  Sr2  1  0.84145900  0.62978200  0.02720900  1
  Sr  Sr3  1  0.16846600  0.38607500  0.98406300  1
  Y  Y0  1  0.99525000  0.49771900  0.01953800  1
  Y  Y1  1  0.49771900  0.99525000  0.01953800  1
  Cu  Cu0  1  0.43576500  0.06045200  0.51782200  1
  Cu  Cu1  1  0.56677000  0.94032000  0.51221700  1
  Cu  Cu2  1  0.94032000  0.56677000  0.51221700  1
  Cu  Cu3  1  0.06045200  0.43576500  0.51782200  1
  Mo  Mo0  1  0.85363900  0.85363900  0.43431700  1
  Mo  Mo1  1  0.15964400  0.15964400  0.53548200  1
  O  O0  1  0.21051800  0.21051800  0.10437500  1
  O  O1  1  0.87417800  0.87417800  0.03706300  1
  O  O2  1  0.67301000  0.29437100  0.01603000  1
  O  O3  1  0.33511400  0.70607900  0.47508400  1
  O  O4  1  0.70607900  0.33511400  0.47508400  1
  O  O5  1  0.29437100  0.67301000  0.01603000  1
  O  O6  1  0.20493800  0.83357300  0.01489400  1
  O  O7  1  0.79240700  0.16868100  0.55545500  1
  O  O8  1  0.16868100  0.79240700  0.55545500  1
  O  O9  1  0.83357300  0.20493800  0.01489400  1
  O  O10  1  0.78539500  0.63668000  0.59150100  1
  O  O11  1  0.18680500  0.33653100  0.47758400  1
  O  O12  1  0.33653100  0.18680500  0.47758400  1
  O  O13  1  0.63668000  0.78539500  0.59150100  1
loop_
_geom_bond_atom_site_label_1
_geom_bond_atom_site_label_2
_geom_bond_distance
_geom_bond_site_symmetry_2
Cu0 O8 1.936247 1_545
Cu0 O4 1.956890 1_555
Cu0 O6 1.974703 1_546
Cu0 O2 1.990873 1_555
Cu0 O12 2.679108 1_555
Cu1 O7 1.937203 1_565
Cu1 O3 1.957613 1_555
Cu1 O9 1.973930 1_565
Cu1 O5 2.000788 1_556
Cu2 O8 1.937203 1_655
Cu2 O4 1.957613 1_555
Cu2 O6 1.973930 1_655
Cu2 O2 2.000788 1_556
Cu3 O7 1.936247 1_455
Cu3 O3 1.956890 1_555
Cu3 O9 1.974703 1_456
Cu3 O5 1.990873 1_555
Cu3 O11 2.679108 1_555
Mo0 O10 1.934306 1_555
Mo0 O13 1.934306 1_555
Mo0 O0 1.981485 1_665
Mo0 O1 2.093567 1_555
Mo1 O12 1.877184 1_555
Mo1 O11 1.877184 1_555
Mo1 O1 2.004375 1_446
Mo1 O0 2.132115 1_555
O0 Sr0 2.623438 1_554
O0 Sr3 2.623449 1_554
O1 Sr2 2.745274 1_555
O1 Sr1 2.745274 1_555
O2 Y1 2.343781 1_545
O2 Y0 2.490191 1_555
O2 Sr0 2.576427 1_554
O2 Sr2 2.812882 1_555
O3 Y1 2.346194 1_555
O3 Sr1 2.591256 1_555
O3 Y0 2.660404 1_456
O3 Sr3 2.715416 1_555
O4 Y0 2.346194 1_555
O4 Sr2 2.591256 1_555
O4 Y1 2.660404 1_546
O4 Sr0 2.715424 1_555
O5 Y0 2.343781 1_455
O5 Y1 2.490191 1_555
O5 Sr3 2.576421 1_554
O5 Sr1 2.812882 1_555
O6 Y1 2.364040 1_555
O6 Y0 2.577171 1_455
O6 Sr0 2.623183 1_564
O6 Sr2 2.867420 1_455
O7 Y1 2.333013 1_546
O7 Y0 2.596326 1_555
O7 Sr1 2.702004 1_546
O7 Sr3 2.943391 1_654
O8 Y0 2.333013 1_456
O8 Y1 2.596326 1_555
O8 Sr2 2.702004 1_456
O8 Sr0 2.943399 1_564
O9 Y0 2.364040 1_555
O9 Y1 2.577171 1_545
O9 Sr3 2.623172 1_654
O9 Sr1 2.867420 1_545
O10 Sr0 2.545936 1_555
O10 Sr2 2.659174 1_556
O10 Sr2 3.089015 1_555
O10 Sr0 3.256693 1_664
O11 Sr1 2.729286 1_555
O11 Sr3 2.771663 1_554
O11 Sr3 3.003266 1_555
O11 Sr1 3.013325 1_446
O12 Sr2 2.729286 1_555
O12 Sr0 2.771657 1_554
O12 Sr0 3.003266 1_555
O12 Sr2 3.013325 1_446
O13 Sr3 2.545942 1_555
O13 Sr1 2.659174 1_556
O13 Sr1 3.089015 1_555
O13 Sr3 3.256694 1_664
