# generated using pymatgen
data_Ca8Ti2Mn6O21
_symmetry_space_group_name_H-M   'P 1'
_cell_length_a   7.87978491
_cell_length_b   7.79066900
_cell_length_c   7.77895149
_cell_angle_alpha   90.00000000
_cell_angle_beta   90.20230541
_cell_angle_gamma   90.00000000
_symmetry_Int_Tables_number   1
_chemical_formula_structural   Ca8Ti2Mn6O21
_chemical_formula_sum   'Ca8 Ti2 Mn6 O21'
_cell_volume   477.53748971
_cell_formula_units_Z   1
loop_
 _symmetry_equiv_pos_site_id
 _symmetry_equiv_pos_as_xyz
  1  'x, y, z'
loop_
 _atom_site_type_symbol
 _atom_site_label
 _atom_site_symmetry_multiplicity
 _atom_site_fract_x
 _atom_site_fract_y
 _atom_site_fract_z
 _atom_site_occupancy
  Ca  Ca0  1  0.21829100  0.27512800  0.25538100  1
  Ca  Ca1  1  0.26542500  0.27465700  0.69551100  1
  Ca  Ca2  1  0.21829100  0.72487200  0.25538100  1
  Ca  Ca3  1  0.26542500  0.72534300  0.69551100  1
  Ca  Ca4  1  0.74179400  0.26611400  0.25465300  1
  Ca  Ca5  1  0.74523700  0.23497600  0.70188200  1
  Ca  Ca6  1  0.74179400  0.73388600  0.25465300  1
  Ca  Ca7  1  0.74523700  0.76502400  0.70188200  1
  Ti  Ti0  1  0.02245100  0.00000000  0.99689200  1
  Ti  Ti1  1  0.48918900  0.00000000  0.99657900  1
  Mn  Mn0  1  0.00711700  0.00000000  0.50682700  1
  Mn  Mn1  1  0.98755800  0.50000000  0.01478700  1
  Mn  Mn2  1  0.99596800  0.50000000  0.50845100  1
  Mn  Mn3  1  0.50914400  0.00000000  0.46417100  1
  Mn  Mn4  1  0.48922500  0.50000000  0.99093300  1
  Mn  Mn5  1  0.50307100  0.50000000  0.49442200  1
  O  O0  1  0.95956500  0.00000000  0.77451300  1
  O  O1  1  0.99693300  0.50000000  0.26435700  1
  O  O2  1  0.01647200  0.50000000  0.76369900  1
  O  O3  1  0.62024100  0.00000000  0.18910800  1
  O  O4  1  0.55401000  0.00000000  0.76481500  1
  O  O5  1  0.47727700  0.50000000  0.74169700  1
  O  O6  1  0.25083000  0.00000000  0.03728500  1
  O  O7  1  0.25478800  0.00000000  0.47869600  1
  O  O8  1  0.24708400  0.50000000  0.04750700  1
  O  O9  1  0.26103500  0.50000000  0.47699500  1
  O  O10  1  0.76329000  0.00000000  0.48883100  1
  O  O11  1  0.72933000  0.50000000  0.04672200  1
  O  O12  1  0.74095800  0.50000000  0.49582000  1
  O  O13  1  0.96717500  0.20364500  0.09028900  1
  O  O14  1  0.01178800  0.24767700  0.51158500  1
  O  O15  1  0.96717500  0.79635500  0.09028900  1
  O  O16  1  0.01178800  0.75232300  0.51158500  1
  O  O17  1  0.48671700  0.25349700  0.00419400  1
  O  O18  1  0.50080500  0.25341100  0.46495100  1
  O  O19  1  0.48671700  0.74650200  0.00419400  1
  O  O20  1  0.50080500  0.74658900  0.46495100  1
loop_
_geom_bond_atom_site_label_1
_geom_bond_atom_site_label_2
_geom_bond_distance
_geom_bond_site_symmetry_2
Ca0 O8 2.395424 1_555
Ca0 O13 2.420100 1_455
Ca0 O1 2.473322 1_455
Ca0 O9 2.480005 1_555
Ca0 O14 2.586205 1_555
Ca0 O6 2.746165 1_555
Ca0 O18 2.759783 1_555
Ca0 O7 2.773299 1_555
Ca0 O17 2.889533 1_555
Ca1 O9 2.443813 1_555
Ca1 O5 2.448184 1_555
Ca1 O14 2.462815 1_555
Ca1 O18 2.589915 1_555
Ca1 O2 2.686818 1_555
Ca1 O7 2.725657 1_555
Ca1 O17 2.967174 1_556
Ca2 O8 2.395424 1_555
Ca2 O15 2.420100 1_455
Ca2 O1 2.473322 1_455
Ca2 O9 2.480005 1_555
Ca2 O16 2.586205 1_555
Ca2 O6 2.746165 1_565
Ca2 O20 2.759783 1_555
Ca2 O7 2.773299 1_565
Ca2 O19 2.889533 1_555
Ca3 O9 2.443813 1_555
Ca3 O5 2.448184 1_555
Ca3 O16 2.462815 1_555
Ca3 O20 2.589915 1_555
Ca3 O2 2.686818 1_555
Ca3 O7 2.725657 1_565
Ca3 O19 2.967173 1_556
Ca4 O13 2.245365 1_555
Ca4 O3 2.339253 1_555
Ca4 O11 2.438224 1_555
Ca4 O18 2.512742 1_555
Ca4 O12 2.615293 1_555
Ca4 O1 2.714157 1_555
Ca4 O10 2.764623 1_555
Ca4 O17 2.796037 1_555
Ca4 O14 2.917445 1_655
Ca5 O4 2.422101 1_555
Ca5 O10 2.473815 1_555
Ca5 O0 2.552625 1_555
Ca5 O14 2.575772 1_655
Ca5 O12 2.614046 1_555
Ca5 O18 2.665002 1_555
Ca5 O5 2.970165 1_555
Ca5 O2 3.009146 1_655
Ca5 O17 3.120049 1_556
Ca6 O15 2.245365 1_555
Ca6 O3 2.339253 1_565
Ca6 O11 2.438224 1_555
Ca6 O20 2.512742 1_555
Ca6 O12 2.615293 1_555
Ca6 O1 2.714157 1_555
Ca6 O10 2.764623 1_565
Ca6 O19 2.796036 1_555
Ca6 O16 2.917445 1_655
Ca7 O4 2.422101 1_565
Ca7 O10 2.473815 1_565
Ca7 O0 2.552625 1_565
Ca7 O16 2.575772 1_655
Ca7 O12 2.614046 1_555
Ca7 O20 2.665002 1_555
Ca7 O5 2.970165 1_555
Ca7 O2 3.009146 1_655
Ca7 O19 3.120049 1_556
Mn0 O10 1.925904 1_455
Mn0 O14 1.930273 1_555
Mn0 O16 1.930273 1_545
Mn0 O7 1.964592 1_555
Mn0 O0 2.117062 1_455
Mn1 O1 1.942537 1_555
Mn1 O2 1.967244 1_654
Mn1 O11 2.050760 1_555
Mn1 O8 2.059896 1_655
Mn1 O15 2.387884 1_555
Mn1 O13 2.387884 1_555
Mn2 O1 1.898837 1_555
Mn2 O16 1.969859 1_655
Mn2 O14 1.969859 1_655
Mn2 O2 1.991556 1_655
Mn2 O12 2.011478 1_555
Mn2 O9 2.103813 1_655
Mn3 O18 1.975344 1_555
Mn3 O20 1.975344 1_545
Mn3 O7 2.007851 1_555
Mn3 O10 2.011108 1_555
Mn3 O3 2.314716 1_555
Mn3 O4 2.364031 1_555
Mn4 O19 1.923289 1_556
Mn4 O17 1.923297 1_556
Mn4 O11 1.939617 1_556
Mn4 O5 1.940747 1_555
Mn4 O8 1.959628 1_556
Mn5 O12 1.874492 1_555
Mn5 O9 1.911526 1_555
Mn5 O20 1.934799 1_555
Mn5 O18 1.934799 1_555
Mn5 O5 1.934962 1_555
O0 Ti0 1.797766 1_655
O3 Ti1 1.816176 1_554
O4 Ti1 1.875573 1_555
O6 Ti0 1.825710 1_554
O6 Ti1 1.905825 1_554
O13 Ti0 1.799132 1_654
O15 Ti0 1.799132 1_664
O17 Ti1 1.975897 1_554
O19 Ti1 1.975905 1_564
