# generated using pymatgen
data_Yb11(SnBi4)2
_symmetry_space_group_name_H-M   'P 1'
_cell_length_a   12.32798001
_cell_length_b   12.32798001
_cell_length_c   12.32798001
_cell_angle_alpha   120.76010439
_cell_angle_beta   120.76010439
_cell_angle_gamma   88.68842647
_symmetry_Int_Tables_number   1
_chemical_formula_structural   Yb11(SnBi4)2
_chemical_formula_sum   'Yb22 Sn4 Bi16'
_cell_volume   1309.23877395
_cell_formula_units_Z   2
loop_
 _symmetry_equiv_pos_site_id
 _symmetry_equiv_pos_as_xyz
  1  'x, y, z'
loop_
 _atom_site_type_symbol
 _atom_site_label
 _atom_site_symmetry_multiplicity
 _atom_site_fract_x
 _atom_site_fract_y
 _atom_site_fract_z
 _atom_site_occupancy
  Yb  Yb0  1  0.66747000  0.66747000  0.00000000  1
  Yb  Yb1  1  0.33253000  0.33253000  0.00000000  1
  Yb  Yb2  1  0.60227400  0.93772500  0.33545000  1
  Yb  Yb3  1  0.60227400  0.26682400  0.66455000  1
  Yb  Yb4  1  0.93772500  0.60227400  0.33545000  1
  Yb  Yb5  1  0.26682400  0.60227400  0.66455000  1
  Yb  Yb6  1  0.39772600  0.06227500  0.66455000  1
  Yb  Yb7  1  0.39772600  0.73317600  0.33545000  1
  Yb  Yb8  1  0.06227500  0.39772600  0.66455000  1
  Yb  Yb9  1  0.73317600  0.39772600  0.33545000  1
  Yb  Yb10  1  0.81048100  0.06201100  0.25153000  1
  Yb  Yb11  1  0.81048100  0.55895100  0.74847000  1
  Yb  Yb12  1  0.06201100  0.81048100  0.25153000  1
  Yb  Yb13  1  0.55895100  0.81048100  0.74847000  1
  Yb  Yb14  1  0.18951900  0.93798900  0.74847000  1
  Yb  Yb15  1  0.18951900  0.44104900  0.25153000  1
  Yb  Yb16  1  0.93798900  0.18951900  0.74847000  1
  Yb  Yb17  1  0.44104900  0.18951900  0.25153000  1
  Yb  Yb18  1  0.82746100  0.82746100  0.65492200  1
  Yb  Yb19  1  0.17253900  0.17253900  0.34507800  1
  Yb  Yb20  1  0.82746100  0.17253900  0.00000000  1
  Yb  Yb21  1  0.17253900  0.82746100  0.00000000  1
  Sn  Sn0  1  0.62371200  0.62371200  0.24742300  1
  Sn  Sn1  1  0.37628800  0.37628800  0.75257700  1
  Sn  Sn2  1  0.62371200  0.37628800  0.00000000  1
  Sn  Sn3  1  0.37628800  0.62371200  0.00000000  1
  Bi  Bi0  1  0.75000000  0.25000000  0.50000000  1
  Bi  Bi1  1  0.25000000  0.75000000  0.50000000  1
  Bi  Bi2  1  0.64937600  0.00000000  0.64937600  1
  Bi  Bi3  1  0.35062400  0.00000000  0.35062400  1
  Bi  Bi4  1  0.00000000  0.35062400  0.35062400  1
  Bi  Bi5  1  0.00000000  0.64937600  0.64937600  1
  Bi  Bi6  1  0.87575500  0.87575500  0.00000000  1
  Bi  Bi7  1  0.12424500  0.12424500  0.00000000  1
  Bi  Bi8  1  0.87524200  0.87524200  0.40808200  1
  Bi  Bi9  1  0.46716000  0.46716000  0.59191800  1
  Bi  Bi10  1  0.87524200  0.46716000  0.00000000  1
  Bi  Bi11  1  0.46716000  0.87524200  0.00000000  1
  Bi  Bi12  1  0.12475800  0.12475800  0.59191800  1
  Bi  Bi13  1  0.53284000  0.53284000  0.40808200  1
  Bi  Bi14  1  0.12475800  0.53284000  0.00000000  1
  Bi  Bi15  1  0.53284000  0.12475800  0.00000000  1
loop_
_geom_bond_atom_site_label_1
_geom_bond_atom_site_label_2
_geom_bond_distance
_geom_bond_site_symmetry_2
Sn0 Sn3 3.015121 1_555
Sn0 Sn2 3.015121 1_555
Sn0 Yb9 3.490369 1_555
Sn0 Yb7 3.490369 1_555
Sn0 Yb2 3.490372 1_555
Sn0 Yb4 3.490372 1_555
Sn0 Yb18 3.511360 1_555
Sn0 Yb0 3.642171 1_555
Sn0 Yb1 3.642185 1_555
Sn1 Sn3 3.015121 1_556
Sn1 Sn2 3.015121 1_556
Sn1 Yb3 3.490369 1_555
Sn1 Yb5 3.490369 1_555
Sn1 Yb6 3.490372 1_555
Sn1 Yb8 3.490372 1_555
Sn1 Yb19 3.511360 1_555
Sn1 Yb1 3.642171 1_556
Sn1 Yb0 3.642185 1_556
Sn2 Yb3 3.490363 1_554
Sn2 Yb9 3.490363 1_555
Sn2 Yb6 3.490369 1_554
Sn2 Yb4 3.490369 1_555
Sn2 Yb20 3.511351 1_555
Sn2 Yb0 3.642183 1_555
Sn2 Yb1 3.642183 1_555
Sn3 Yb5 3.490363 1_554
Sn3 Yb7 3.490363 1_555
Sn3 Yb8 3.490369 1_554
Sn3 Yb2 3.490369 1_555
Sn3 Yb21 3.511351 1_555
Sn3 Yb0 3.642183 1_555
Sn3 Yb1 3.642183 1_555
Bi0 Yb16 3.210192 1_555
Bi0 Yb17 3.210192 1_555
Bi0 Yb11 3.210192 1_555
Bi0 Yb10 3.210192 1_555
Bi0 Yb2 3.287238 1_545
Bi0 Yb8 3.287238 1_655
Bi0 Yb3 3.287248 1_555
Bi0 Yb9 3.287248 1_555
Bi1 Yb14 3.210192 1_555
Bi1 Yb13 3.210192 1_555
Bi1 Yb15 3.210192 1_555
Bi1 Yb12 3.210192 1_555
Bi1 Yb4 3.287238 1_455
Bi1 Yb6 3.287238 1_565
Bi1 Yb7 3.287248 1_555
Bi1 Yb5 3.287248 1_555
Bi2 Yb18 3.021654 1_545
Bi2 Yb20 3.021654 1_556
Bi2 Yb6 3.253701 1_555
Bi2 Yb7 3.253704 1_545
Bi2 Yb3 3.253704 1_555
Bi2 Yb2 3.253708 1_545
Bi2 Yb13 3.553240 1_545
Bi2 Yb16 3.553240 1_555
Bi3 Yb19 3.021654 1_555
Bi3 Yb21 3.021654 1_545
Bi3 Yb2 3.253701 1_545
Bi3 Yb7 3.253704 1_545
Bi3 Yb3 3.253704 1_555
Bi3 Yb6 3.253708 1_555
Bi3 Yb17 3.553240 1_555
Bi3 Yb12 3.553240 1_545
Bi4 Yb20 3.021654 1_455
Bi4 Yb19 3.021654 1_555
Bi4 Yb4 3.253701 1_455
Bi4 Yb9 3.253704 1_455
Bi4 Yb5 3.253704 1_555
Bi4 Yb8 3.253708 1_555
Bi4 Yb10 3.553240 1_455
Bi4 Yb15 3.553240 1_555
Bi5 Yb21 3.021654 1_556
Bi5 Yb18 3.021654 1_455
Bi5 Yb8 3.253701 1_555
Bi5 Yb9 3.253704 1_455
Bi5 Yb5 3.253704 1_555
Bi5 Yb4 3.253708 1_455
Bi5 Yb11 3.553240 1_455
Bi5 Yb14 3.553240 1_555
Bi6 Yb12 3.274132 1_655
Bi6 Yb10 3.274132 1_565
Bi6 Yb11 3.274132 1_554
Bi6 Yb13 3.274132 1_554
Bi6 Yb0 3.672647 1_555
Bi6 Yb20 3.693396 1_565
Bi6 Yb21 3.693396 1_655
Bi6 Yb19 3.693396 1_665
Bi6 Yb18 3.693396 1_554
Bi7 Yb17 3.274132 1_555
Bi7 Yb14 3.274132 1_544
Bi7 Yb15 3.274132 1_555
Bi7 Yb16 3.274132 1_454
Bi7 Yb1 3.672647 1_555
Bi7 Yb20 3.693396 1_455
Bi7 Yb18 3.693396 1_444
Bi7 Yb21 3.693396 1_545
Bi7 Yb19 3.693396 1_555
Bi8 Yb2 3.197499 1_555
Bi8 Yb4 3.197499 1_555
Bi8 Sn0 3.321040 1_555
Bi8 Yb0 3.516999 1_555
Bi8 Yb12 3.542429 1_655
Bi8 Yb10 3.542429 1_565
Bi8 Yb14 3.661265 1_655
Bi8 Yb16 3.661265 1_565
Bi8 Yb18 3.692822 1_555
Bi9 Yb5 3.197494 1_555
Bi9 Yb3 3.197494 1_555
Bi9 Sn1 3.321056 1_555
Bi9 Yb0 3.516999 1_556
Bi9 Yb11 3.542429 1_555
Bi9 Yb13 3.542429 1_555
Bi9 Yb17 3.661265 1_555
Bi9 Yb15 3.661265 1_555
Bi9 Yb19 3.692822 1_555
Bi10 Yb4 3.197489 1_555
Bi10 Yb3 3.197494 1_554
Bi10 Bi14 3.198685 1_655
Bi10 Sn2 3.321045 1_555
Bi10 Yb0 3.516999 1_555
Bi10 Yb11 3.542429 1_554
Bi10 Yb12 3.542429 1_655
Bi10 Yb15 3.661265 1_655
Bi10 Yb16 3.661265 1_554
Bi10 Yb20 3.692822 1_555
Bi11 Yb2 3.197489 1_555
Bi11 Yb5 3.197494 1_554
Bi11 Bi15 3.198685 1_565
Bi11 Sn3 3.321045 1_555
Bi11 Yb0 3.516999 1_555
Bi11 Yb10 3.542429 1_565
Bi11 Yb13 3.542429 1_554
Bi11 Yb17 3.661265 1_565
Bi11 Yb14 3.661265 1_554
Bi11 Yb21 3.692822 1_555
Bi12 Yb6 3.197499 1_555
Bi12 Yb8 3.197499 1_555
Bi12 Bi8 3.198685 1_445
Bi12 Sn1 3.321040 1_555
Bi12 Yb1 3.516999 1_556
Bi12 Yb16 3.542429 1_455
Bi12 Yb14 3.542429 1_545
Bi12 Yb12 3.661265 1_545
Bi12 Yb10 3.661265 1_455
Bi12 Yb19 3.692822 1_555
Bi13 Yb9 3.197494 1_555
Bi13 Yb7 3.197494 1_555
Bi13 Bi9 3.198685 1_555
Bi13 Sn0 3.321056 1_555
Bi13 Yb1 3.516999 1_555
Bi13 Yb15 3.542429 1_555
Bi13 Yb17 3.542429 1_555
Bi13 Yb13 3.661265 1_555
Bi13 Yb11 3.661265 1_555
Bi13 Yb18 3.692822 1_555
Bi14 Yb8 3.197489 1_554
Bi14 Yb7 3.197494 1_555
Bi14 Sn3 3.321045 1_555
Bi14 Yb1 3.516999 1_555
Bi14 Yb15 3.542429 1_555
Bi14 Yb16 3.542429 1_454
Bi14 Yb12 3.661265 1_555
Bi14 Yb11 3.661265 1_454
Bi14 Yb21 3.692822 1_555
Bi15 Yb6 3.197489 1_554
Bi15 Yb9 3.197494 1_555
Bi15 Sn2 3.321045 1_555
Bi15 Yb1 3.516999 1_555
Bi15 Yb17 3.542429 1_555
Bi15 Yb14 3.542429 1_544
Bi15 Yb13 3.661265 1_544
Bi15 Yb10 3.661265 1_555
Bi15 Yb20 3.692822 1_555
