# generated using pymatgen
data_RbLiMn(BH4)4
_symmetry_space_group_name_H-M   'P 1'
_cell_length_a   7.84061857
_cell_length_b   7.84061857
_cell_length_c   8.22675900
_cell_angle_alpha   90.00000000
_cell_angle_beta   90.00000000
_cell_angle_gamma   104.49963351
_symmetry_Int_Tables_number   1
_chemical_formula_structural   RbLiMn(BH4)4
_chemical_formula_sum   'Rb2 Li2 Mn2 B8 H32'
_cell_volume   489.63419229
_cell_formula_units_Z   2
loop_
 _symmetry_equiv_pos_site_id
 _symmetry_equiv_pos_as_xyz
  1  'x, y, z'
loop_
 _atom_site_type_symbol
 _atom_site_label
 _atom_site_symmetry_multiplicity
 _atom_site_fract_x
 _atom_site_fract_y
 _atom_site_fract_z
 _atom_site_occupancy
  Rb  Rb0  1  0.20627200  0.79372800  0.50000000  1
  Rb  Rb1  1  0.70627200  0.29372800  0.00000000  1
  Li  Li0  1  0.84477700  0.15522300  0.50000000  1
  Li  Li1  1  0.34477700  0.65522300  0.00000000  1
  Mn  Mn0  1  0.56098700  0.43901300  0.50000000  1
  Mn  Mn1  1  0.06098700  0.93901300  0.00000000  1
  B  B0  1  0.03046200  0.63608000  0.09761300  1
  B  B1  1  0.36392000  0.96953800  0.90238700  1
  B  B2  1  0.53046200  0.13608000  0.40238700  1
  B  B3  1  0.86392000  0.46953800  0.59761300  1
  B  B4  1  0.46435500  0.55476000  0.25423700  1
  B  B5  1  0.44524000  0.53564500  0.74576300  1
  B  B6  1  0.96435500  0.05476000  0.24576300  1
  B  B7  1  0.94524000  0.03564500  0.75423700  1
  H  H0  1  0.08702600  0.53459800  0.01217200  1
  H  H1  1  0.46540200  0.91297400  0.98782800  1
  H  H2  1  0.58702600  0.03459800  0.48782800  1
  H  H3  1  0.96540200  0.41297400  0.51217200  1
  H  H4  1  0.15380000  0.75952400  0.14351400  1
  H  H5  1  0.24047600  0.84620000  0.85648600  1
  H  H6  1  0.65380000  0.25952400  0.35648600  1
  H  H7  1  0.74047600  0.34620000  0.64351400  1
  H  H8  1  0.43629000  0.46765000  0.12942400  1
  H  H9  1  0.53235000  0.56371000  0.87057600  1
  H  H10  1  0.93629000  0.96765000  0.37057600  1
  H  H11  1  0.03235000  0.06371000  0.62942400  1
  H  H12  1  0.36052000  0.47171900  0.35804800  1
  H  H13  1  0.52828100  0.63948000  0.64195200  1
  H  H14  1  0.86052000  0.97171900  0.14195200  1
  H  H15  1  0.02828100  0.13948000  0.85804800  1
  H  H16  1  0.92400600  0.69191200  0.01299900  1
  H  H17  1  0.30808800  0.07599400  0.98700100  1
  H  H18  1  0.42400600  0.19191200  0.48700100  1
  H  H19  1  0.80808800  0.57599400  0.51299900  1
  H  H20  1  0.62163200  0.57401000  0.29147700  1
  H  H21  1  0.42599000  0.37836800  0.70852300  1
  H  H22  1  0.12163200  0.07401000  0.20852300  1
  H  H23  1  0.92599000  0.87836800  0.79147700  1
  H  H24  1  0.95272400  0.56499300  0.21640700  1
  H  H25  1  0.43500700  0.04727600  0.78359300  1
  H  H26  1  0.45272400  0.06499300  0.28359300  1
  H  H27  1  0.93500700  0.54727600  0.71640700  1
  H  H28  1  0.44154100  0.70229500  0.23972100  1
  H  H29  1  0.29770500  0.55845900  0.76027900  1
  H  H30  1  0.94154100  0.20229500  0.26027900  1
  H  H31  1  0.79770500  0.05845900  0.73972100  1
loop_
_geom_bond_atom_site_label_1
_geom_bond_atom_site_label_2
_geom_bond_distance
_geom_bond_site_symmetry_2
B0 H24 1.211257 1_455
B0 H0 1.224980 1_555
B0 H4 1.243330 1_555
B0 H16 1.247335 1_455
B1 H25 1.211257 1_565
B1 H1 1.224980 1_555
B1 H5 1.243330 1_555
B1 H17 1.247335 1_565
B2 H26 1.211257 1_555
B2 H2 1.224980 1_555
B2 H6 1.243330 1_555
B2 H18 1.247335 1_555
B3 H27 1.211257 1_555
B3 H3 1.224980 1_555
B3 H7 1.243330 1_555
B3 H19 1.247335 1_555
B4 H28 1.219827 1_555
B4 H8 1.222284 1_555
B4 H20 1.242617 1_555
B4 H12 1.245255 1_555
B5 H29 1.219827 1_555
B5 H9 1.222284 1_555
B5 H21 1.242617 1_555
B5 H13 1.245255 1_555
B6 H30 1.219827 1_555
B6 H10 1.222284 1_545
B6 H22 1.242617 1_655
B6 H14 1.245255 1_545
B7 H31 1.219827 1_555
B7 H11 1.222284 1_655
B7 H23 1.242617 1_545
B7 H15 1.245255 1_655
H0 Li1 2.007876 1_555
H0 Rb1 3.108985 1_455
H1 Li1 2.007876 1_556
H1 Rb1 3.108985 1_566
H2 Li0 2.007876 1_555
H2 Rb0 3.108985 1_545
H3 Li0 2.007876 1_555
H3 Rb0 3.108985 1_655
H4 Mn1 2.101628 1_555
H4 Li1 2.217665 1_555
H4 Rb0 2.964255 1_555
H5 Mn1 2.101628 1_556
H5 Li1 2.217665 1_556
H5 Rb0 2.964255 1_555
H6 Mn0 2.101628 1_555
H6 Li0 2.217665 1_555
H6 Rb1 2.964255 1_555
H7 Mn0 2.101628 1_555
H7 Li0 2.217665 1_555
H7 Rb1 2.964255 1_556
H8 Li1 2.083228 1_555
H8 Rb1 2.986578 1_555
H9 Li1 2.083228 1_556
H9 Rb1 2.986578 1_556
H10 Li0 2.083228 1_565
H10 Rb0 2.986578 1_655
H11 Li0 2.083228 1_455
H11 Rb0 2.986578 1_545
H12 Mn0 2.025307 1_555
H13 Mn0 2.025307 1_555
H14 Mn1 2.025307 1_655
H15 Mn1 2.025307 1_546
H16 Mn1 1.968906 1_655
H16 Rb1 3.162897 1_555
H17 Mn1 1.968906 1_546
H17 Rb1 3.162897 1_556
H18 Mn0 1.968906 1_555
H18 Rb0 3.162897 1_545
H19 Mn0 1.968906 1_555
H19 Rb0 3.162897 1_655
H20 Mn0 2.009289 1_555
H21 Mn0 2.009289 1_555
H22 Mn1 2.009289 1_545
H23 Mn1 2.009289 1_656
H24 Rb1 3.060904 1_555
H25 Rb1 3.060904 1_556
H26 Rb0 3.060904 1_545
H27 Rb0 3.060904 1_655
H28 Li1 2.112083 1_555
H28 Rb0 3.027184 1_555
H29 Li1 2.112083 1_556
H29 Rb0 3.027184 1_555
H30 Li0 2.112083 1_555
H30 Rb1 3.027184 1_555
H31 Li0 2.112083 1_555
H31 Rb1 3.027184 1_556
