# generated using pymatgen
data_Li4FeTe(WO6)2
_symmetry_space_group_name_H-M   'P 1'
_cell_length_a   5.49276728
_cell_length_b   9.18096108
_cell_length_c   9.19574054
_cell_angle_alpha   68.99338561
_cell_angle_beta   86.35969036
_cell_angle_gamma   86.45724717
_symmetry_Int_Tables_number   1
_chemical_formula_structural   Li4FeTe(WO6)2
_chemical_formula_sum   'Li8 Fe2 Te2 W4 O24'
_cell_volume   431.65810003
_cell_formula_units_Z   2
loop_
 _symmetry_equiv_pos_site_id
 _symmetry_equiv_pos_as_xyz
  1  'x, y, z'
loop_
 _atom_site_type_symbol
 _atom_site_label
 _atom_site_symmetry_multiplicity
 _atom_site_fract_x
 _atom_site_fract_y
 _atom_site_fract_z
 _atom_site_occupancy
  Li  Li0  1  0.58877400  0.62322700  0.63347900  1
  Li  Li1  1  0.59351100  0.14669500  0.13066200  1
  Li  Li2  1  0.04831500  0.14782900  0.65853700  1
  Li  Li3  1  0.06615300  0.65144300  0.15116000  1
  Li  Li4  1  0.59969700  0.89347300  0.90605700  1
  Li  Li5  1  0.58627800  0.40818600  0.40208700  1
  Li  Li6  1  0.94617000  0.35449000  0.85717300  1
  Li  Li7  1  0.96191700  0.86350000  0.35015600  1
  Fe  Fe0  1  0.01413800  0.50465900  0.49745700  1
  Fe  Fe1  1  0.01488600  0.99983600  0.00105200  1
  Te  Te0  1  0.52308800  0.00396400  0.50688100  1
  Te  Te1  1  0.49710000  0.50152500  0.00480000  1
  W  W0  1  0.01677500  0.74145500  0.75185100  1
  W  W1  1  0.00769800  0.25273300  0.25699800  1
  W  W2  1  0.49876600  0.25205300  0.75229000  1
  W  W3  1  0.50196900  0.76082400  0.24546600  1
  O  O0  1  0.83054000  0.86689400  0.55962900  1
  O  O1  1  0.78756100  0.36542300  0.06077600  1
  O  O2  1  0.98675200  0.92025000  0.81085800  1
  O  O3  1  0.98224900  0.43886600  0.30145200  1
  O  O4  1  0.18852800  0.18523900  0.86045100  1
  O  O5  1  0.19493200  0.68976400  0.36109300  1
  O  O6  1  0.31452800  0.77338000  0.64803000  1
  O  O7  1  0.30728000  0.31248400  0.12238300  1
  O  O8  1  0.31389500  0.37146700  0.57143700  1
  O  O9  1  0.31268800  0.86452500  0.06323600  1
  O  O10  1  0.50915300  0.06139100  0.69951700  1
  O  O11  1  0.48444800  0.55728900  0.18749000  1
  O  O12  1  0.49081300  0.43857900  0.82041300  1
  O  O13  1  0.51469600  0.94223000  0.29372200  1
  O  O14  1  0.68925300  0.13265600  0.92666700  1
  O  O15  1  0.68412300  0.62831300  0.41994800  1
  O  O16  1  0.67853700  0.68238500  0.88005900  1
  O  O17  1  0.67745100  0.19903600  0.36791000  1
  O  O18  1  0.79211100  0.32217100  0.62509400  1
  O  O19  1  0.80104900  0.81509700  0.11862900  1
  O  O20  1  0.96160500  0.56630200  0.68989100  1
  O  O21  1  0.98931600  0.07816900  0.18557700  1
  O  O22  1  0.17683200  0.61232400  0.94932600  1
  O  O23  1  0.15122400  0.14107700  0.44150300  1
loop_
_geom_bond_atom_site_label_1
_geom_bond_atom_site_label_2
_geom_bond_distance
_geom_bond_site_symmetry_2
Li0 O15 1.984641 1_555
Li0 O12 2.006073 1_555
Li0 O6 2.009344 1_555
Li0 O20 2.131732 1_555
Li0 O0 2.528378 1_555
Li0 O16 2.595686 1_555
Li1 O14 1.962604 1_554
Li1 O13 1.989866 1_545
Li1 O7 2.104941 1_555
Li1 O1 2.198631 1_555
Li1 O21 2.262736 1_555
Li1 O17 2.471829 1_555
Li2 O18 2.015105 1_455
Li2 O23 2.060981 1_555
Li2 O2 2.090648 1_445
Li2 O4 2.197752 1_555
Li2 O8 2.455190 1_555
Li2 O10 2.614882 1_555
Li3 O19 1.982438 1_455
Li3 O3 2.006959 1_455
Li3 O22 2.061796 1_554
Li3 O5 2.245445 1_555
Li3 O9 2.317091 1_555
Li3 O11 2.404737 1_555
Li4 O9 2.032742 1_556
Li4 O10 2.038935 1_565
Li4 O16 2.053242 1_555
Li4 O19 2.174804 1_556
Li4 O2 2.240681 1_555
Li4 O14 2.354511 1_565
Li5 O8 2.041403 1_555
Li5 O11 2.046891 1_555
Li5 O17 2.081001 1_555
Li5 O15 2.187143 1_555
Li5 O18 2.265018 1_555
Li5 O3 2.302063 1_555
Li6 O4 1.975722 1_655
Li6 O20 2.003557 1_555
Li6 O1 2.047267 1_556
Li6 O14 2.419778 1_555
Li6 O18 2.464350 1_555
Li6 O12 2.578324 1_555
Li7 O5 1.959976 1_655
Li7 O21 2.016597 1_565
Li7 O0 2.023840 1_555
Li7 O19 2.544975 1_555
Li7 O13 2.549428 1_555
Li7 O15 2.586843 1_555
Fe0 O8 1.991496 1_555
Fe0 O5 1.992307 1_555
Fe0 O20 2.041550 1_455
Fe0 O18 2.081539 1_455
Fe0 O15 2.100550 1_455
Fe0 O3 2.116121 1_455
Fe1 O9 1.975930 1_555
Fe1 O4 1.986189 1_564
Fe1 O19 2.048284 1_455
Fe1 O21 2.061160 1_465
Fe1 O14 2.107568 1_464
Fe1 O2 2.140367 1_454
O0 Te0 2.018562 1_565
O0 W0 2.030207 1_655
O1 Te1 1.941264 1_555
O1 W1 2.138311 1_655
O2 W0 1.899988 1_655
O3 W1 1.889703 1_655
O4 W2 1.935438 1_555
O5 W3 1.952265 1_555
O6 W0 1.825526 1_555
O6 Te0 2.370559 1_565
O7 W1 1.976640 1_555
O7 Te1 2.000873 1_555
O8 W2 1.941282 1_555
O9 W3 1.936630 1_555
O10 W2 1.973840 1_555
O10 Te0 2.017226 1_555
O11 Te1 1.920067 1_555
O11 W3 2.127987 1_555
O12 Te1 1.980548 1_556
O12 W2 2.020732 1_555
O13 W3 1.877185 1_555
O13 Te0 2.230871 1_565
O14 W2 1.918002 1_555
O15 W3 1.925995 1_555
O16 Te1 1.939052 1_556
O16 W0 2.126900 1_655
O17 Te0 1.992159 1_555
O17 W1 2.022091 1_655
O18 W2 1.930740 1_555
O19 W3 1.936123 1_555
O20 W0 1.934271 1_655
O21 W1 1.947600 1_655
O22 Te1 1.977473 1_556
O22 W0 2.001612 1_555
O23 W1 1.836850 1_555
O23 Te0 2.326741 1_555
