# generated using pymatgen
data_SiH8(CI)4
_symmetry_space_group_name_H-M   'P 1'
_cell_length_a   9.97501000
_cell_length_b   9.99523900
_cell_length_c   28.85686400
_cell_angle_alpha   90.00000000
_cell_angle_beta   90.00000000
_cell_angle_gamma   90.00000000
_symmetry_Int_Tables_number   1
_chemical_formula_structural   SiH8(CI)4
_chemical_formula_sum   'Si8 H64 C32 I32'
_cell_volume   2877.10462771
_cell_formula_units_Z   8
loop_
 _symmetry_equiv_pos_site_id
 _symmetry_equiv_pos_as_xyz
  1  'x, y, z'
loop_
 _atom_site_type_symbol
 _atom_site_label
 _atom_site_symmetry_multiplicity
 _atom_site_fract_x
 _atom_site_fract_y
 _atom_site_fract_z
 _atom_site_occupancy
  Si  Si0  1  0.77886900  0.99552000  0.31624600  1
  Si  Si1  1  0.72113100  0.00448000  0.81624600  1
  Si  Si2  1  0.27886900  0.50448000  0.68375400  1
  Si  Si3  1  0.22113100  0.49552000  0.18375400  1
  Si  Si4  1  0.28914500  0.50403600  0.44160500  1
  Si  Si5  1  0.21085500  0.49596400  0.94160500  1
  Si  Si6  1  0.78914500  0.99596400  0.55839500  1
  Si  Si7  1  0.71085500  0.00403600  0.05839500  1
  H  H0  1  0.01696200  0.97850300  0.34397900  1
  H  H1  1  0.48303800  0.02149700  0.84397900  1
  H  H2  1  0.51696200  0.52149700  0.65602100  1
  H  H3  1  0.98303800  0.47850300  0.15602100  1
  H  H4  1  0.99021400  0.13467800  0.31532000  1
  H  H5  1  0.50978600  0.86532200  0.81532000  1
  H  H6  1  0.49021400  0.36532200  0.68468000  1
  H  H7  1  0.00978600  0.63467800  0.18468000  1
  H  H8  1  0.79647000  0.75900100  0.28791100  1
  H  H9  1  0.70353000  0.24099900  0.78791100  1
  H  H10  1  0.29647000  0.74099900  0.71208900  1
  H  H11  1  0.20353000  0.25900100  0.21208900  1
  H  H12  1  0.64025800  0.78469700  0.31708100  1
  H  H13  1  0.85974200  0.21530300  0.81708100  1
  H  H14  1  0.14025800  0.71530300  0.68291900  1
  H  H15  1  0.35974200  0.28469700  0.18291900  1
  H  H16  1  0.74502200  0.02950900  0.40178300  1
  H  H17  1  0.75497800  0.97049100  0.90178300  1
  H  H18  1  0.24502200  0.47049100  0.59821700  1
  H  H19  1  0.25497800  0.52950900  0.09821700  1
  H  H20  1  0.59450600  0.06501500  0.37043000  1
  H  H21  1  0.90549400  0.93498500  0.87043000  1
  H  H22  1  0.09450600  0.43498500  0.62957000  1
  H  H23  1  0.40549400  0.56501500  0.12957000  1
  H  H24  1  0.74651800  0.03281700  0.23087800  1
  H  H25  1  0.75348200  0.96718300  0.73087800  1
  H  H26  1  0.24651800  0.46718300  0.76912200  1
  H  H27  1  0.25348200  0.53281700  0.26912200  1
  H  H28  1  0.70822000  0.18068200  0.26301500  1
  H  H29  1  0.79178000  0.81931800  0.76301500  1
  H  H30  1  0.20822000  0.31931800  0.73698500  1
  H  H31  1  0.29178000  0.68068200  0.23698500  1
  H  H32  1  0.12266700  0.48381400  0.37664200  1
  H  H33  1  0.37733300  0.51618600  0.87664200  1
  H  H34  1  0.62266700  0.01618600  0.62335800  1
  H  H35  1  0.87733300  0.98381400  0.12335800  1
  H  H36  1  0.10308000  0.34941400  0.41696700  1
  H  H37  1  0.39692000  0.65058600  0.91696700  1
  H  H38  1  0.60308000  0.15058600  0.58303300  1
  H  H39  1  0.89692000  0.84941400  0.08303300  1
  H  H40  1  0.16133400  0.71246900  0.46148500  1
  H  H41  1  0.33866600  0.28753100  0.96148500  1
  H  H42  1  0.66133400  0.78753100  0.53851500  1
  H  H43  1  0.83866600  0.21246900  0.03851500  1
  H  H44  1  0.24161800  0.64553400  0.51170100  1
  H  H45  1  0.25838200  0.35446600  0.01170100  1
  H  H46  1  0.74161800  0.85446600  0.48829900  1
  H  H47  1  0.75838200  0.14553400  0.98829900  1
  H  H48  1  0.47609200  0.54829800  0.38539800  1
  H  H49  1  0.02390800  0.45170200  0.88539800  1
  H  H50  1  0.97609200  0.95170200  0.61460200  1
  H  H51  1  0.52390800  0.04829800  0.11460200  1
  H  H52  1  0.48482900  0.66096100  0.43353700  1
  H  H53  1  0.01517100  0.33903900  0.93353700  1
  H  H54  1  0.98482900  0.83903900  0.56646300  1
  H  H55  1  0.51517100  0.16096100  0.06646300  1
  H  H56  1  0.43088100  0.30107000  0.45655700  1
  H  H57  1  0.06911900  0.69893000  0.95655700  1
  H  H58  1  0.93088100  0.19893000  0.54344300  1
  H  H59  1  0.56911900  0.80107000  0.04344300  1
  H  H60  1  0.30748100  0.32048500  0.50093600  1
  H  H61  1  0.19251900  0.67951500  0.00093600  1
  H  H62  1  0.80748100  0.17951500  0.49906400  1
  H  H63  1  0.69251900  0.82048500  0.99906400  1
  C  C0  1  0.96532500  0.02811600  0.31510700  1
  C  C1  1  0.53467500  0.97188400  0.81510700  1
  C  C2  1  0.46532500  0.47188400  0.68489300  1
  C  C3  1  0.03467500  0.52811600  0.18489300  1
  C  C4  1  0.74698800  0.80947100  0.31710700  1
  C  C5  1  0.75301200  0.19052900  0.81710700  1
  C  C6  1  0.24698800  0.69052900  0.68289300  1
  C  C7  1  0.25301200  0.30947100  0.18289300  1
  C  C8  1  0.70417100  0.07324500  0.37001500  1
  C  C9  1  0.79582900  0.92675500  0.87001500  1
  C  C10  1  0.20417100  0.42675500  0.62998500  1
  C  C11  1  0.29582900  0.57324500  0.12998500  1
  C  C12  1  0.70120700  0.07117300  0.26278000  1
  C  C13  1  0.79879300  0.92882700  0.76278000  1
  C  C14  1  0.20120700  0.42882700  0.73722000  1
  C  C15  1  0.29879300  0.57117300  0.23722000  1
  C  C16  1  0.17586900  0.41409700  0.39956700  1
  C  C17  1  0.32413100  0.58590300  0.89956700  1
  C  C18  1  0.67586900  0.08590300  0.60043300  1
  C  C19  1  0.82413100  0.91409700  0.10043300  1
  C  C20  1  0.18799200  0.62012500  0.47967800  1
  C  C21  1  0.31200800  0.37987500  0.97967800  1
  C  C22  1  0.68799200  0.87987500  0.52032200  1
  C  C23  1  0.81200800  0.12012500  0.02032200  1
  C  C24  1  0.41718900  0.60811300  0.40993900  1
  C  C25  1  0.08281100  0.39188700  0.90993900  1
  C  C26  1  0.91718900  0.89188700  0.59006100  1
  C  C27  1  0.58281100  0.10811300  0.09006100  1
  C  C28  1  0.37733700  0.37372900  0.47802100  1
  C  C29  1  0.12266300  0.62627100  0.97802100  1
  C  C30  1  0.87733700  0.12627100  0.52197900  1
  C  C31  1  0.62266300  0.87372900  0.02197900  1
  I  I0  1  0.06268700  0.95112500  0.25332400  1
  I  I1  1  0.43731200  0.04887500  0.75332400  1
  I  I2  1  0.56268800  0.54887500  0.74667600  1
  I  I3  1  0.93731200  0.45112500  0.24667600  1
  I  I4  1  0.82712000  0.71096500  0.37820600  1
  I  I5  1  0.67288000  0.28903500  0.87820600  1
  I  I6  1  0.32712000  0.78903500  0.62179400  1
  I  I7  1  0.17288000  0.21096500  0.12179400  1
  I  I8  1  0.74422600  0.28592000  0.37610600  1
  I  I9  1  0.75577400  0.71408000  0.87610600  1
  I  I10  1  0.24422600  0.21408000  0.62389400  1
  I  I11  1  0.25577400  0.78592000  0.12389400  1
  I  I12  1  0.48892400  0.02989000  0.25603900  1
  I  I13  1  0.01107600  0.97011000  0.75603900  1
  I  I14  1  0.98892400  0.47011000  0.74396100  1
  I  I15  1  0.51107600  0.52989000  0.24396100  1
  I  I16  1  0.28509700  0.28253600  0.35310500  1
  I  I17  1  0.21490300  0.71746400  0.85310500  1
  I  I18  1  0.78509700  0.21746400  0.64689500  1
  I  I19  1  0.71490300  0.78253600  0.14689500  1
  I  I20  1  0.99728100  0.53997600  0.50252000  1
  I  I21  1  0.50271900  0.46002400  0.00252000  1
  I  I22  1  0.49728100  0.96002400  0.49748000  1
  I  I23  1  0.00271900  0.03997600  0.99748000  1
  I  I24  1  0.32749700  0.76377900  0.36793500  1
  I  I25  1  0.17250300  0.23622100  0.86793500  1
  I  I26  1  0.82749700  0.73622100  0.63206500  1
  I  I27  1  0.67250300  0.26377900  0.13206500  1
  I  I28  1  0.52925100  0.45250700  0.52429600  1
  I  I29  1  0.97074900  0.54749300  0.02429600  1
  I  I30  1  0.02925100  0.04749300  0.47570400  1
  I  I31  1  0.47074900  0.95250700  0.97570400  1
loop_
_geom_bond_atom_site_label_1
_geom_bond_atom_site_label_2
_geom_bond_distance
_geom_bond_site_symmetry_2
C0 H4 1.093682 1_555
C0 H0 1.097891 1_645
C0 Si0 1.888507 1_545
C0 I0 2.171176 1_645
C1 H5 1.093682 1_555
C1 H1 1.097891 1_565
C1 Si1 1.888507 1_565
C1 I1 2.171180 1_565
C2 H6 1.093682 1_555
C2 H2 1.097891 1_555
C2 Si2 1.888507 1_555
C2 I2 2.171180 1_555
C3 H7 1.093682 1_555
C3 H3 1.097891 1_455
C3 Si3 1.888507 1_555
C3 I3 2.171180 1_455
C4 H12 1.093051 1_555
C4 H8 1.099054 1_555
C4 Si0 1.886764 1_555
C4 I4 2.171852 1_555
C5 H13 1.093051 1_555
C5 H9 1.099054 1_555
C5 Si1 1.886764 1_555
C5 I5 2.171852 1_555
C6 H14 1.093051 1_555
C6 H10 1.099054 1_555
C6 Si2 1.886764 1_555
C6 I6 2.171852 1_555
C7 H15 1.093051 1_555
C7 H11 1.099054 1_555
C7 Si3 1.886764 1_555
C7 I7 2.171852 1_555
C8 H16 1.094319 1_555
C8 H20 1.097063 1_555
C8 Si0 1.888442 1_545
C8 I8 2.170091 1_555
C9 H17 1.094319 1_555
C9 H21 1.097063 1_555
C9 Si1 1.888442 1_565
C9 I9 2.170091 1_555
C10 H18 1.094319 1_555
C10 H22 1.097063 1_555
C10 Si2 1.888442 1_555
C10 I10 2.170091 1_555
C11 H19 1.094319 1_555
C11 H23 1.097063 1_555
C11 Si3 1.888442 1_555
C11 I11 2.170091 1_555
C12 H24 1.094875 1_555
C12 H28 1.096823 1_555
C12 Si0 1.884766 1_545
C12 I12 2.166107 1_555
C13 H25 1.094875 1_555
C13 H29 1.096823 1_555
C13 Si1 1.884766 1_565
C13 I13 2.166107 1_655
C14 H26 1.094875 1_555
C14 H30 1.096823 1_555
C14 Si2 1.884766 1_555
C14 I14 2.166107 1_455
C15 H27 1.094875 1_555
C15 H31 1.096823 1_555
C15 Si3 1.884766 1_555
C15 I15 2.166107 1_555
C16 H36 1.094205 1_555
C16 H32 1.097659 1_555
C16 Si4 1.885855 1_555
C16 I16 2.171153 1_555
C17 H37 1.094205 1_555
C17 H33 1.097659 1_555
C17 Si5 1.885855 1_555
C17 I17 2.171153 1_555
C18 H38 1.094205 1_555
C18 H34 1.097659 1_555
C18 Si6 1.885855 1_545
C18 I18 2.171153 1_555
C19 H39 1.094205 1_555
C19 H35 1.097659 1_555
C19 Si7 1.885855 1_565
C19 I19 2.171153 1_555
C20 H40 1.094649 1_555
C20 H44 1.097529 1_555
C20 Si4 1.889851 1_555
C20 I20 2.166833 1_455
C21 H41 1.094649 1_555
C21 H45 1.097529 1_556
C21 Si5 1.889851 1_555
C21 I21 2.166833 1_556
C22 H42 1.094649 1_555
C22 H46 1.097529 1_555
C22 Si6 1.889851 1_555
C22 I22 2.166833 1_555
C23 H43 1.094649 1_555
C23 H47 1.097529 1_554
C23 Si7 1.889851 1_555
C23 I23 2.166833 1_654
C24 H52 1.094518 1_555
C24 H48 1.097352 1_555
C24 Si4 1.883749 1_555
C24 I24 2.165763 1_555
C25 H53 1.094518 1_555
C25 H49 1.097352 1_555
C25 Si5 1.883749 1_555
C25 I25 2.165763 1_555
C26 H54 1.094518 1_555
C26 H50 1.097352 1_555
C26 Si6 1.883749 1_555
C26 I26 2.165763 1_555
C27 H55 1.094518 1_555
C27 H51 1.097352 1_555
C27 Si7 1.883749 1_555
C27 I27 2.165763 1_555
C28 H56 1.093769 1_555
C28 H60 1.098194 1_555
C28 Si4 1.890652 1_555
C28 I28 2.167818 1_555
C29 H57 1.093769 1_555
C29 H61 1.098194 1_556
C29 Si5 1.890652 1_555
C29 I29 2.167818 1_456
C30 H58 1.093769 1_555
C30 H62 1.098194 1_555
C30 Si6 1.890652 1_545
C30 I30 2.167818 1_655
C31 H59 1.093769 1_555
C31 H63 1.098194 1_554
C31 Si7 1.890652 1_565
C31 I31 2.167818 1_554
