# generated using pymatgen
data_CeMg
_symmetry_space_group_name_H-M   'P 1'
_cell_length_a   11.17447654
_cell_length_b   6.47461614
_cell_length_c   34.75525682
_cell_angle_alpha   90.00000000
_cell_angle_beta   90.00000000
_cell_angle_gamma   90.00000000
_symmetry_Int_Tables_number   1
_chemical_formula_structural   CeMg
_chemical_formula_sum   'Ce48 Mg48'
_cell_volume   2514.55833740
_cell_formula_units_Z   48
loop_
 _symmetry_equiv_pos_site_id
 _symmetry_equiv_pos_as_xyz
  1  'x, y, z'
loop_
 _atom_site_type_symbol
 _atom_site_label
 _atom_site_symmetry_multiplicity
 _atom_site_fract_x
 _atom_site_fract_y
 _atom_site_fract_z
 _atom_site_occupancy
  Ce  Ce0_0  1  0.00000000  0.00000000  0.16201037  1
  Ce  Ce0_1  1  0.00000000  0.00000000  0.66201037  1
  Ce  Ce0_2  1  0.00000000  0.50000000  0.16201037  1
  Ce  Ce0_3  1  0.00000000  0.50000000  0.66201037  1
  Ce  Ce0_4  1  0.50000000  0.00000000  0.16201037  1
  Ce  Ce0_5  1  0.50000000  0.00000000  0.66201037  1
  Ce  Ce0_6  1  0.50000000  0.50000000  0.16201037  1
  Ce  Ce0_7  1  0.50000000  0.50000000  0.66201037  1
  Ce  Ce1_0  1  0.25000000  0.25000000  0.13595787  1
  Ce  Ce1_1  1  0.25000000  0.25000000  0.63595787  1
  Ce  Ce1_2  1  0.25000000  0.75000000  0.13595787  1
  Ce  Ce1_3  1  0.25000000  0.75000000  0.63595787  1
  Ce  Ce1_4  1  0.75000000  0.25000000  0.13595787  1
  Ce  Ce1_5  1  0.75000000  0.25000000  0.63595787  1
  Ce  Ce1_6  1  0.75000000  0.75000000  0.13595787  1
  Ce  Ce1_7  1  0.75000000  0.75000000  0.63595787  1
  Ce  Ce2_0  1  0.25000000  0.00000000  0.06395273  1
  Ce  Ce2_1  1  0.25000000  0.00000000  0.56395273  1
  Ce  Ce2_2  1  0.25000000  0.50000000  0.06395273  1
  Ce  Ce2_3  1  0.25000000  0.50000000  0.56395273  1
  Ce  Ce2_4  1  0.75000000  0.00000000  0.06395273  1
  Ce  Ce2_5  1  0.75000000  0.00000000  0.56395273  1
  Ce  Ce2_6  1  0.75000000  0.50000000  0.06395273  1
  Ce  Ce2_7  1  0.75000000  0.50000000  0.56395273  1
  Ce  Ce3_0  1  0.00000000  0.25000000  0.41201037  1
  Ce  Ce3_1  1  0.00000000  0.25000000  0.91201037  1
  Ce  Ce3_2  1  0.00000000  0.75000000  0.41201037  1
  Ce  Ce3_3  1  0.00000000  0.75000000  0.91201037  1
  Ce  Ce3_4  1  0.50000000  0.25000000  0.41201037  1
  Ce  Ce3_5  1  0.50000000  0.25000000  0.91201037  1
  Ce  Ce3_6  1  0.50000000  0.75000000  0.41201037  1
  Ce  Ce3_7  1  0.50000000  0.75000000  0.91201037  1
  Ce  Ce4_0  1  0.25000000  0.00000000  0.38595787  1
  Ce  Ce4_1  1  0.25000000  0.00000000  0.88595787  1
  Ce  Ce4_2  1  0.25000000  0.50000000  0.38595787  1
  Ce  Ce4_3  1  0.25000000  0.50000000  0.88595787  1
  Ce  Ce4_4  1  0.75000000  0.00000000  0.38595787  1
  Ce  Ce4_5  1  0.75000000  0.00000000  0.88595787  1
  Ce  Ce4_6  1  0.75000000  0.50000000  0.38595787  1
  Ce  Ce4_7  1  0.75000000  0.50000000  0.88595787  1
  Ce  Ce5_0  1  0.25000000  0.25000000  0.31395273  1
  Ce  Ce5_1  1  0.25000000  0.25000000  0.81395273  1
  Ce  Ce5_2  1  0.25000000  0.75000000  0.31395273  1
  Ce  Ce5_3  1  0.25000000  0.75000000  0.81395273  1
  Ce  Ce5_4  1  0.75000000  0.25000000  0.31395273  1
  Ce  Ce5_5  1  0.75000000  0.25000000  0.81395273  1
  Ce  Ce5_6  1  0.75000000  0.75000000  0.31395273  1
  Ce  Ce5_7  1  0.75000000  0.75000000  0.81395273  1
  Mg  Mg0_0  1  0.00000000  0.25000000  0.25132295  1
  Mg  Mg0_1  1  0.00000000  0.25000000  0.75132295  1
  Mg  Mg0_2  1  0.00000000  0.75000000  0.25132295  1
  Mg  Mg0_3  1  0.00000000  0.75000000  0.75132295  1
  Mg  Mg0_4  1  0.50000000  0.25000000  0.25132295  1
  Mg  Mg0_5  1  0.50000000  0.25000000  0.75132295  1
  Mg  Mg0_6  1  0.50000000  0.75000000  0.25132295  1
  Mg  Mg0_7  1  0.50000000  0.75000000  0.75132295  1
  Mg  Mg1_0  1  0.00000000  0.25000000  0.07944952  1
  Mg  Mg1_1  1  0.00000000  0.25000000  0.57944952  1
  Mg  Mg1_2  1  0.00000000  0.75000000  0.07944952  1
  Mg  Mg1_3  1  0.00000000  0.75000000  0.57944952  1
  Mg  Mg1_4  1  0.50000000  0.25000000  0.07944952  1
  Mg  Mg1_5  1  0.50000000  0.25000000  0.57944952  1
  Mg  Mg1_6  1  0.50000000  0.75000000  0.07944952  1
  Mg  Mg1_7  1  0.50000000  0.75000000  0.57944952  1
  Mg  Mg2_0  1  0.25000000  0.00000000  0.22397307  1
  Mg  Mg2_1  1  0.25000000  0.00000000  0.72397307  1
  Mg  Mg2_2  1  0.25000000  0.50000000  0.22397307  1
  Mg  Mg2_3  1  0.25000000  0.50000000  0.72397307  1
  Mg  Mg2_4  1  0.75000000  0.00000000  0.22397307  1
  Mg  Mg2_5  1  0.75000000  0.00000000  0.72397307  1
  Mg  Mg2_6  1  0.75000000  0.50000000  0.22397307  1
  Mg  Mg2_7  1  0.75000000  0.50000000  0.72397307  1
  Mg  Mg3_0  1  0.00000000  0.00000000  0.00132295  1
  Mg  Mg3_1  1  0.00000000  0.00000000  0.50132294  1
  Mg  Mg3_2  1  0.00000000  0.50000000  0.00132295  1
  Mg  Mg3_3  1  0.00000000  0.50000000  0.50132294  1
  Mg  Mg3_4  1  0.50000000  0.00000000  0.00132295  1
  Mg  Mg3_5  1  0.50000000  0.00000000  0.50132294  1
  Mg  Mg3_6  1  0.50000000  0.50000000  0.00132295  1
  Mg  Mg3_7  1  0.50000000  0.50000000  0.50132294  1
  Mg  Mg4_0  1  0.00000000  0.00000000  0.32944952  1
  Mg  Mg4_1  1  0.00000000  0.00000000  0.82944952  1
  Mg  Mg4_2  1  0.00000000  0.50000000  0.32944952  1
  Mg  Mg4_3  1  0.00000000  0.50000000  0.82944952  1
  Mg  Mg4_4  1  0.50000000  0.00000000  0.32944952  1
  Mg  Mg4_5  1  0.50000000  0.00000000  0.82944952  1
  Mg  Mg4_6  1  0.50000000  0.50000000  0.32944952  1
  Mg  Mg4_7  1  0.50000000  0.50000000  0.82944952  1
  Mg  Mg5_0  1  0.25000000  0.25000000  0.47397307  1
  Mg  Mg5_1  1  0.25000000  0.25000000  0.97397306  1
  Mg  Mg5_2  1  0.25000000  0.75000000  0.47397307  1
  Mg  Mg5_3  1  0.25000000  0.75000000  0.97397306  1
  Mg  Mg5_4  1  0.75000000  0.25000000  0.47397307  1
  Mg  Mg5_5  1  0.75000000  0.25000000  0.97397306  1
  Mg  Mg5_6  1  0.75000000  0.75000000  0.47397307  1
  Mg  Mg5_7  1  0.75000000  0.75000000  0.97397306  1
loop_
_geom_bond_atom_site_label_1
_geom_bond_atom_site_label_2
_geom_bond_distance
_geom_bond_site_symmetry_2
Ce0_0 Ce0_2 3.237308 1_545
Ce0_0 Ce0_2 3.237308 1_555
Ce0_0 Mg1_2 3.294485 1_545
Ce0_0 Mg1_0 3.294485 1_555
Ce0_0 Ce1_6 3.353239 1_445
Ce0_0 Ce1_0 3.353239 1_555
Ce0_0 Ce1_4 3.353239 1_455
Ce0_0 Ce1_2 3.353239 1_545
Ce0_0 Mg0_2 3.500766 1_545
Ce0_0 Mg0_0 3.500766 1_555
Ce0_0 Mg2_4 3.527321 1_455
Ce0_0 Mg2_0 3.527321 1_555
Ce0_1 Ce0_3 3.237308 1_545
Ce0_1 Ce0_3 3.237308 1_555
Ce0_1 Mg1_3 3.294485 1_545
Ce0_1 Mg1_1 3.294485 1_555
Ce0_1 Ce1_3 3.353239 1_545
Ce0_1 Ce1_7 3.353239 1_445
Ce0_1 Ce1_1 3.353239 1_555
Ce0_1 Ce1_5 3.353239 1_455
Ce0_1 Mg0_3 3.500766 1_545
Ce0_1 Mg0_1 3.500766 1_555
Ce0_1 Mg2_5 3.527321 1_455
Ce0_1 Mg2_1 3.527321 1_555
Ce0_2 Mg1_2 3.294485 1_555
Ce0_2 Mg1_0 3.294485 1_555
Ce0_2 Ce1_0 3.353239 1_555
Ce0_2 Ce1_4 3.353239 1_455
Ce0_2 Ce1_6 3.353239 1_455
Ce0_2 Ce1_2 3.353239 1_555
Ce0_2 Mg0_2 3.500766 1_555
Ce0_2 Mg0_0 3.500766 1_555
Ce0_2 Mg2_2 3.527321 1_555
Ce0_2 Mg2_6 3.527321 1_455
Ce0_3 Mg1_3 3.294485 1_555
Ce0_3 Mg1_1 3.294485 1_555
Ce0_3 Ce1_3 3.353239 1_555
Ce0_3 Ce1_7 3.353239 1_455
Ce0_3 Ce1_1 3.353239 1_555
Ce0_3 Ce1_5 3.353239 1_455
Ce0_3 Mg0_3 3.500766 1_555
Ce0_3 Mg0_1 3.500766 1_555
Ce0_3 Mg2_7 3.527321 1_455
Ce0_3 Mg2_3 3.527321 1_555
Ce0_4 Ce0_6 3.237308 1_545
Ce0_4 Ce0_6 3.237308 1_555
Ce0_4 Mg1_4 3.294485 1_555
Ce0_4 Mg1_6 3.294485 1_545
Ce0_4 Ce1_0 3.353239 1_555
Ce0_4 Ce1_4 3.353239 1_555
Ce0_4 Ce1_2 3.353239 1_545
Ce0_4 Ce1_6 3.353239 1_545
Ce0_4 Mg0_4 3.500766 1_555
Ce0_4 Mg0_6 3.500766 1_545
Ce0_4 Mg2_4 3.527321 1_555
Ce0_4 Mg2_0 3.527321 1_555
Ce0_5 Ce0_7 3.237308 1_555
Ce0_5 Ce0_7 3.237308 1_545
Ce0_5 Mg1_5 3.294485 1_555
Ce0_5 Mg1_7 3.294485 1_545
Ce0_5 Ce1_3 3.353239 1_545
Ce0_5 Ce1_7 3.353239 1_545
Ce0_5 Ce1_1 3.353239 1_555
Ce0_5 Ce1_5 3.353239 1_555
Ce0_5 Mg0_7 3.500766 1_545
Ce0_5 Mg0_5 3.500766 1_555
Ce0_5 Mg2_5 3.527321 1_555
Ce0_5 Mg2_1 3.527321 1_555
Ce0_6 Mg1_6 3.294485 1_555
Ce0_6 Mg1_4 3.294485 1_555
Ce0_6 Ce1_6 3.353239 1_555
Ce0_6 Ce1_0 3.353239 1_555
Ce0_6 Ce1_4 3.353239 1_555
Ce0_6 Ce1_2 3.353239 1_555
Ce0_6 Mg0_4 3.500766 1_555
Ce0_6 Mg0_6 3.500766 1_555
Ce0_6 Mg2_2 3.527321 1_555
Ce0_6 Mg2_6 3.527321 1_555
Ce0_7 Mg1_7 3.294485 1_555
Ce0_7 Mg1_5 3.294485 1_555
Ce0_7 Ce1_3 3.353239 1_555
Ce0_7 Ce1_7 3.353239 1_555
Ce0_7 Ce1_1 3.353239 1_555
Ce0_7 Ce1_5 3.353239 1_555
Ce0_7 Mg0_7 3.500766 1_555
Ce0_7 Mg0_5 3.500766 1_555
Ce0_7 Mg2_3 3.527321 1_555
Ce0_7 Mg2_7 3.527321 1_555
Ce1_0 Ce2_0 2.980408 1_555
Ce1_0 Ce2_2 2.980408 1_555
Ce1_0 Ce1_2 3.237308 1_555
Ce1_0 Ce1_2 3.237308 1_545
Ce1_0 Mg1_4 3.414887 1_555
Ce1_0 Mg1_0 3.414887 1_555
Ce1_0 Mg2_0 3.460847 1_555
Ce1_0 Mg2_2 3.460847 1_555
Ce1_1 Ce2_3 2.980408 1_555
Ce1_1 Ce2_1 2.980408 1_555
Ce1_1 Ce1_3 3.237308 1_545
Ce1_1 Ce1_3 3.237308 1_555
Ce1_1 Mg1_1 3.414887 1_555
Ce1_1 Mg1_5 3.414887 1_555
Ce1_1 Mg2_3 3.460847 1_555
Ce1_1 Mg2_1 3.460847 1_555
Ce1_2 Ce2_2 2.980408 1_555
Ce1_2 Ce2_0 2.980408 1_565
Ce1_2 Mg1_2 3.414887 1_555
Ce1_2 Mg1_6 3.414887 1_555
Ce1_2 Mg2_0 3.460847 1_565
Ce1_2 Mg2_2 3.460847 1_555
Ce1_3 Ce2_3 2.980408 1_555
Ce1_3 Ce2_1 2.980408 1_565
Ce1_3 Mg1_3 3.414887 1_555
Ce1_3 Mg1_7 3.414887 1_555
Ce1_3 Mg2_3 3.460847 1_555
Ce1_3 Mg2_1 3.460847 1_565
Ce1_4 Ce2_4 2.980408 1_555
Ce1_4 Ce2_6 2.980408 1_555
Ce1_4 Ce1_6 3.237308 1_545
Ce1_4 Ce1_6 3.237308 1_555
Ce1_4 Mg1_4 3.414887 1_555
Ce1_4 Mg1_0 3.414887 1_655
Ce1_4 Mg2_4 3.460847 1_555
Ce1_4 Mg2_6 3.460847 1_555
Ce1_5 Ce2_7 2.980408 1_555
Ce1_5 Ce2_5 2.980408 1_555
Ce1_5 Ce1_7 3.237308 1_555
Ce1_5 Ce1_7 3.237308 1_545
Ce1_5 Mg1_5 3.414887 1_555
Ce1_5 Mg1_1 3.414887 1_655
Ce1_5 Mg2_5 3.460847 1_555
Ce1_5 Mg2_7 3.460847 1_555
Ce1_6 Ce2_4 2.980408 1_565
Ce1_6 Ce2_6 2.980408 1_555
Ce1_6 Mg1_2 3.414887 1_655
Ce1_6 Mg1_6 3.414887 1_555
Ce1_6 Mg2_6 3.460847 1_555
Ce1_6 Mg2_4 3.460847 1_565
Ce1_7 Ce2_5 2.980408 1_565
Ce1_7 Ce2_7 2.980408 1_555
Ce1_7 Mg1_7 3.414887 1_555
Ce1_7 Mg1_3 3.414887 1_655
Ce1_7 Mg2_7 3.460847 1_555
Ce1_7 Mg2_5 3.460847 1_565
Ce2_0 Ce2_2 3.237308 1_555
Ce2_0 Ce2_2 3.237308 1_545
Ce2_0 Mg1_0 3.273291 1_555
Ce2_0 Mg1_6 3.273291 1_545
Ce2_0 Mg1_4 3.273291 1_555
Ce2_0 Mg1_2 3.273291 1_545
Ce2_0 Mg5_3 3.521340 1_544
Ce2_0 Mg5_1 3.521340 1_554
Ce2_0 Mg3_0 3.541524 1_555
Ce2_0 Mg3_4 3.541524 1_555
Ce2_1 Ce2_3 3.237308 1_555
Ce2_1 Ce2_3 3.237308 1_545
Ce2_1 Mg1_3 3.273291 1_545
Ce2_1 Mg1_1 3.273291 1_555
Ce2_1 Mg1_5 3.273291 1_555
Ce2_1 Mg1_7 3.273291 1_545
Ce2_1 Mg5_0 3.521340 1_555
Ce2_1 Mg5_2 3.521340 1_545
Ce2_1 Mg3_1 3.541524 1_555
Ce2_1 Mg3_5 3.541524 1_555
Ce2_2 Mg1_0 3.273291 1_555
Ce2_2 Mg1_2 3.273291 1_555
Ce2_2 Mg1_6 3.273291 1_555
Ce2_2 Mg1_4 3.273291 1_555
Ce2_2 Mg5_3 3.521340 1_554
Ce2_2 Mg5_1 3.521340 1_554
Ce2_2 Mg3_6 3.541524 1_555
Ce2_2 Mg3_2 3.541524 1_555
Ce2_3 Mg1_3 3.273291 1_555
Ce2_3 Mg1_7 3.273291 1_555
Ce2_3 Mg1_1 3.273291 1_555
Ce2_3 Mg1_5 3.273291 1_555
Ce2_3 Mg5_0 3.521340 1_555
Ce2_3 Mg5_2 3.521340 1_555
Ce2_3 Mg3_7 3.541524 1_555
Ce2_3 Mg3_3 3.541524 1_555
Ce2_4 Ce2_6 3.237308 1_555
Ce2_4 Ce2_6 3.237308 1_545
Ce2_4 Mg1_0 3.273291 1_655
Ce2_4 Mg1_6 3.273291 1_545
Ce2_4 Mg1_4 3.273291 1_555
Ce2_4 Mg1_2 3.273291 1_645
Ce2_4 Mg5_5 3.521340 1_554
Ce2_4 Mg5_7 3.521340 1_544
Ce2_4 Mg3_0 3.541524 1_655
Ce2_4 Mg3_4 3.541524 1_555
Ce2_5 Ce2_7 3.237308 1_555
Ce2_5 Ce2_7 3.237308 1_545
Ce2_5 Mg1_3 3.273291 1_645
Ce2_5 Mg1_1 3.273291 1_655
Ce2_5 Mg1_5 3.273291 1_555
Ce2_5 Mg1_7 3.273291 1_545
Ce2_5 Mg5_6 3.521340 1_545
Ce2_5 Mg5_4 3.521340 1_555
Ce2_5 Mg3_5 3.541524 1_555
Ce2_5 Mg3_1 3.541524 1_655
Ce2_6 Mg1_0 3.273291 1_655
Ce2_6 Mg1_2 3.273291 1_655
Ce2_6 Mg1_6 3.273291 1_555
Ce2_6 Mg1_4 3.273291 1_555
Ce2_6 Mg5_7 3.521340 1_554
Ce2_6 Mg5_5 3.521340 1_554
Ce2_6 Mg3_6 3.541524 1_555
Ce2_6 Mg3_2 3.541524 1_655
Ce2_7 Mg1_7 3.273291 1_555
Ce2_7 Mg1_1 3.273291 1_655
Ce2_7 Mg1_3 3.273291 1_655
Ce2_7 Mg1_5 3.273291 1_555
Ce2_7 Mg5_4 3.521340 1_555
Ce2_7 Mg5_6 3.521340 1_555
Ce2_7 Mg3_7 3.541524 1_555
Ce2_7 Mg3_3 3.541524 1_655
Ce3_0 Ce3_2 3.237308 1_545
Ce3_0 Ce3_2 3.237308 1_555
Ce3_0 Mg4_2 3.294485 1_555
Ce3_0 Mg4_0 3.294485 1_555
Ce3_0 Ce4_0 3.353239 1_555
Ce3_0 Ce4_2 3.353239 1_555
Ce3_0 Ce4_4 3.353239 1_455
Ce3_0 Ce4_6 3.353239 1_455
Ce3_0 Mg3_3 3.500766 1_555
Ce3_0 Mg3_1 3.500766 1_555
Ce3_0 Mg5_0 3.527321 1_555
Ce3_0 Mg5_4 3.527321 1_455
Ce3_1 Ce3_3 3.237308 1_555
Ce3_1 Ce3_3 3.237308 1_545
Ce3_1 Mg4_1 3.294485 1_555
Ce3_1 Mg4_3 3.294485 1_555
Ce3_1 Ce4_5 3.353239 1_455
Ce3_1 Ce4_1 3.353239 1_555
Ce3_1 Ce4_3 3.353239 1_555
Ce3_1 Ce4_7 3.353239 1_455
Ce3_1 Mg3_0 3.500766 1_556
Ce3_1 Mg3_2 3.500766 1_556
Ce3_1 Mg5_1 3.527321 1_555
Ce3_1 Mg5_5 3.527321 1_455
Ce3_2 Mg4_0 3.294485 1_565
Ce3_2 Mg4_2 3.294485 1_555
Ce3_2 Ce4_4 3.353239 1_465
Ce3_2 Ce4_0 3.353239 1_565
Ce3_2 Ce4_2 3.353239 1_555
Ce3_2 Ce4_6 3.353239 1_455
Ce3_2 Mg3_1 3.500766 1_565
Ce3_2 Mg3_3 3.500766 1_555
Ce3_2 Mg5_6 3.527321 1_455
Ce3_2 Mg5_2 3.527321 1_555
Ce3_3 Mg4_1 3.294485 1_565
Ce3_3 Mg4_3 3.294485 1_555
Ce3_3 Ce4_3 3.353239 1_555
Ce3_3 Ce4_5 3.353239 1_465
Ce3_3 Ce4_7 3.353239 1_455
Ce3_3 Ce4_1 3.353239 1_565
Ce3_3 Mg3_0 3.500766 1_566
Ce3_3 Mg3_2 3.500766 1_556
Ce3_3 Mg5_3 3.527321 1_555
Ce3_3 Mg5_7 3.527321 1_455
Ce3_4 Ce3_6 3.237308 1_555
Ce3_4 Ce3_6 3.237308 1_545
Ce3_4 Mg4_6 3.294485 1_555
Ce3_4 Mg4_4 3.294485 1_555
Ce3_4 Ce4_0 3.353239 1_555
Ce3_4 Ce4_6 3.353239 1_555
Ce3_4 Ce4_4 3.353239 1_555
Ce3_4 Ce4_2 3.353239 1_555
Ce3_4 Mg3_5 3.500766 1_555
Ce3_4 Mg3_7 3.500766 1_555
Ce3_4 Mg5_0 3.527321 1_555
Ce3_4 Mg5_4 3.527321 1_555
Ce3_5 Ce3_7 3.237308 1_555
Ce3_5 Ce3_7 3.237308 1_545
Ce3_5 Mg4_7 3.294485 1_555
Ce3_5 Mg4_5 3.294485 1_555
Ce3_5 Ce4_5 3.353239 1_555
Ce3_5 Ce4_7 3.353239 1_555
Ce3_5 Ce4_1 3.353239 1_555
Ce3_5 Ce4_3 3.353239 1_555
Ce3_5 Mg3_4 3.500766 1_556
Ce3_5 Mg3_6 3.500766 1_556
Ce3_5 Mg5_1 3.527321 1_555
Ce3_5 Mg5_5 3.527321 1_555
Ce3_6 Mg4_4 3.294485 1_565
Ce3_6 Mg4_6 3.294485 1_555
Ce3_6 Ce4_6 3.353239 1_555
Ce3_6 Ce4_4 3.353239 1_565
Ce3_6 Ce4_0 3.353239 1_565
Ce3_6 Ce4_2 3.353239 1_555
Ce3_6 Mg3_5 3.500766 1_565
Ce3_6 Mg3_7 3.500766 1_555
Ce3_6 Mg5_2 3.527321 1_555
Ce3_6 Mg5_6 3.527321 1_555
Ce3_7 Mg4_7 3.294485 1_555
Ce3_7 Mg4_5 3.294485 1_565
Ce3_7 Ce4_5 3.353239 1_565
Ce3_7 Ce4_7 3.353239 1_555
Ce3_7 Ce4_3 3.353239 1_555
Ce3_7 Ce4_1 3.353239 1_565
Ce3_7 Mg3_4 3.500766 1_566
Ce3_7 Mg3_6 3.500766 1_556
Ce3_7 Mg5_7 3.527321 1_555
Ce3_7 Mg5_3 3.527321 1_555
Ce4_0 Ce5_0 2.980408 1_555
Ce4_0 Ce5_2 2.980408 1_545
Ce4_0 Ce4_2 3.237308 1_545
Ce4_0 Ce4_2 3.237308 1_555
Ce4_0 Mg4_0 3.414887 1_555
Ce4_0 Mg4_4 3.414887 1_555
Ce4_0 Mg5_0 3.460847 1_555
Ce4_0 Mg5_2 3.460847 1_545
Ce4_1 Ce5_3 2.980408 1_545
Ce4_1 Ce5_1 2.980408 1_555
Ce4_1 Ce4_3 3.237308 1_555
Ce4_1 Ce4_3 3.237308 1_545
Ce4_1 Mg4_1 3.414887 1_555
Ce4_1 Mg4_5 3.414887 1_555
Ce4_1 Mg5_3 3.460847 1_545
Ce4_1 Mg5_1 3.460847 1_555
Ce4_2 Ce5_0 2.980408 1_555
Ce4_2 Ce5_2 2.980408 1_555
Ce4_2 Mg4_6 3.414887 1_555
Ce4_2 Mg4_2 3.414887 1_555
Ce4_2 Mg5_0 3.460847 1_555
Ce4_2 Mg5_2 3.460847 1_555
Ce4_3 Ce5_3 2.980408 1_555
Ce4_3 Ce5_1 2.980408 1_555
Ce4_3 Mg4_3 3.414887 1_555
Ce4_3 Mg4_7 3.414887 1_555
Ce4_3 Mg5_1 3.460847 1_555
Ce4_3 Mg5_3 3.460847 1_555
Ce4_4 Ce5_6 2.980408 1_545
Ce4_4 Ce5_4 2.980408 1_555
Ce4_4 Ce4_6 3.237308 1_555
Ce4_4 Ce4_6 3.237308 1_545
Ce4_4 Mg4_4 3.414887 1_555
Ce4_4 Mg4_0 3.414887 1_655
Ce4_4 Mg5_4 3.460847 1_555
Ce4_4 Mg5_6 3.460847 1_545
Ce4_5 Ce5_7 2.980408 1_545
Ce4_5 Ce5_5 2.980408 1_555
Ce4_5 Ce4_7 3.237308 1_545
Ce4_5 Ce4_7 3.237308 1_555
Ce4_5 Mg4_1 3.414887 1_655
Ce4_5 Mg4_5 3.414887 1_555
Ce4_5 Mg5_7 3.460847 1_545
Ce4_5 Mg5_5 3.460847 1_555
Ce4_6 Ce5_6 2.980408 1_555
Ce4_6 Ce5_4 2.980408 1_555
Ce4_6 Mg4_6 3.414887 1_555
Ce4_6 Mg4_2 3.414887 1_655
Ce4_6 Mg5_4 3.460847 1_555
Ce4_6 Mg5_6 3.460847 1_555
Ce4_7 Ce5_7 2.980408 1_555
Ce4_7 Ce5_5 2.980408 1_555
Ce4_7 Mg4_7 3.414887 1_555
Ce4_7 Mg4_3 3.414887 1_655
Ce4_7 Mg5_5 3.460847 1_555
Ce4_7 Mg5_7 3.460847 1_555
Ce5_0 Ce5_2 3.237308 1_545
Ce5_0 Ce5_2 3.237308 1_555
Ce5_0 Mg4_6 3.273291 1_555
Ce5_0 Mg4_0 3.273291 1_555
Ce5_0 Mg4_4 3.273291 1_555
Ce5_0 Mg4_2 3.273291 1_555
Ce5_0 Mg2_0 3.521340 1_555
Ce5_0 Mg2_2 3.521340 1_555
Ce5_0 Mg0_0 3.541524 1_555
Ce5_0 Mg0_4 3.541524 1_555
Ce5_1 Ce5_3 3.237308 1_555
Ce5_1 Ce5_3 3.237308 1_545
Ce5_1 Mg4_7 3.273291 1_555
Ce5_1 Mg4_3 3.273291 1_555
Ce5_1 Mg4_1 3.273291 1_555
Ce5_1 Mg4_5 3.273291 1_555
Ce5_1 Mg2_3 3.521340 1_555
Ce5_1 Mg2_1 3.521340 1_555
Ce5_1 Mg0_1 3.541524 1_555
Ce5_1 Mg0_5 3.541524 1_555
Ce5_2 Mg4_4 3.273291 1_565
Ce5_2 Mg4_6 3.273291 1_555
Ce5_2 Mg4_0 3.273291 1_565
Ce5_2 Mg4_2 3.273291 1_555
Ce5_2 Mg2_0 3.521340 1_565
Ce5_2 Mg2_2 3.521340 1_555
Ce5_2 Mg0_2 3.541524 1_555
Ce5_2 Mg0_6 3.541524 1_555
Ce5_3 Mg4_7 3.273291 1_555
Ce5_3 Mg4_1 3.273291 1_565
Ce5_3 Mg4_3 3.273291 1_555
Ce5_3 Mg4_5 3.273291 1_565
Ce5_3 Mg2_3 3.521340 1_555
Ce5_3 Mg2_1 3.521340 1_565
Ce5_3 Mg0_3 3.541524 1_555
Ce5_3 Mg0_7 3.541524 1_555
Ce5_4 Ce5_6 3.237308 1_545
Ce5_4 Ce5_6 3.237308 1_555
Ce5_4 Mg4_6 3.273291 1_555
Ce5_4 Mg4_4 3.273291 1_555
Ce5_4 Mg4_2 3.273291 1_655
Ce5_4 Mg4_0 3.273291 1_655
Ce5_4 Mg2_6 3.521340 1_555
Ce5_4 Mg2_4 3.521340 1_555
Ce5_4 Mg0_0 3.541524 1_655
Ce5_4 Mg0_4 3.541524 1_555
Ce5_5 Ce5_7 3.237308 1_555
Ce5_5 Ce5_7 3.237308 1_545
Ce5_5 Mg4_7 3.273291 1_555
Ce5_5 Mg4_3 3.273291 1_655
Ce5_5 Mg4_1 3.273291 1_655
Ce5_5 Mg4_5 3.273291 1_555
Ce5_5 Mg2_7 3.521340 1_555
Ce5_5 Mg2_5 3.521340 1_555
Ce5_5 Mg0_1 3.541524 1_655
Ce5_5 Mg0_5 3.541524 1_555
Ce5_6 Mg4_0 3.273291 1_665
Ce5_6 Mg4_4 3.273291 1_565
Ce5_6 Mg4_6 3.273291 1_555
Ce5_6 Mg4_2 3.273291 1_655
Ce5_6 Mg2_6 3.521340 1_555
Ce5_6 Mg2_4 3.521340 1_565
Ce5_6 Mg0_2 3.541524 1_655
Ce5_6 Mg0_6 3.541524 1_555
Ce5_7 Mg4_7 3.273291 1_555
Ce5_7 Mg4_3 3.273291 1_655
Ce5_7 Mg4_5 3.273291 1_565
Ce5_7 Mg4_1 3.273291 1_665
Ce5_7 Mg2_7 3.521340 1_555
Ce5_7 Mg2_5 3.521340 1_565
Ce5_7 Mg0_7 3.541524 1_555
Ce5_7 Mg0_3 3.541524 1_655
Mg0_0 Mg4_0 3.161162 1_555
Mg0_0 Mg4_2 3.161162 1_555
Mg0_0 Mg0_2 3.237308 1_555
Mg0_0 Mg0_2 3.237308 1_545
Mg0_0 Mg2_6 3.365694 1_455
Mg0_0 Mg2_2 3.365694 1_555
Mg0_0 Mg2_0 3.365694 1_555
Mg0_0 Mg2_4 3.365694 1_455
Mg0_1 Mg4_1 3.161162 1_555
Mg0_1 Mg4_3 3.161162 1_555
Mg0_1 Mg0_3 3.237308 1_555
Mg0_1 Mg0_3 3.237308 1_545
Mg0_1 Mg2_5 3.365694 1_455
Mg0_1 Mg2_1 3.365694 1_555
Mg0_1 Mg2_7 3.365694 1_455
Mg0_1 Mg2_3 3.365694 1_555
Mg0_2 Mg4_2 3.161162 1_555
Mg0_2 Mg4_0 3.161162 1_565
Mg0_2 Mg2_6 3.365694 1_455
Mg0_2 Mg2_0 3.365694 1_565
Mg0_2 Mg2_2 3.365694 1_555
Mg0_2 Mg2_4 3.365694 1_465
Mg0_3 Mg4_1 3.161162 1_565
Mg0_3 Mg4_3 3.161162 1_555
Mg0_3 Mg2_5 3.365694 1_465
Mg0_3 Mg2_1 3.365694 1_565
Mg0_3 Mg2_3 3.365694 1_555
Mg0_3 Mg2_7 3.365694 1_455
Mg0_4 Mg4_6 3.161162 1_555
Mg0_4 Mg4_4 3.161162 1_555
Mg0_4 Mg0_6 3.237308 1_545
Mg0_4 Mg0_6 3.237308 1_555
Mg0_4 Mg2_6 3.365694 1_555
Mg0_4 Mg2_4 3.365694 1_555
Mg0_4 Mg2_0 3.365694 1_555
Mg0_4 Mg2_2 3.365694 1_555
Mg0_5 Mg4_5 3.161162 1_555
Mg0_5 Mg4_7 3.161162 1_555
Mg0_5 Mg0_7 3.237308 1_545
Mg0_5 Mg0_7 3.237308 1_555
Mg0_5 Mg2_1 3.365694 1_555
Mg0_5 Mg2_5 3.365694 1_555
Mg0_5 Mg2_3 3.365694 1_555
Mg0_5 Mg2_7 3.365694 1_555
Mg0_6 Mg4_4 3.161162 1_565
Mg0_6 Mg4_6 3.161162 1_555
Mg0_6 Mg2_6 3.365694 1_555
Mg0_6 Mg2_0 3.365694 1_565
Mg0_6 Mg2_4 3.365694 1_565
Mg0_6 Mg2_2 3.365694 1_555
Mg0_7 Mg4_5 3.161162 1_565
Mg0_7 Mg4_7 3.161162 1_555
Mg0_7 Mg2_1 3.365694 1_565
Mg0_7 Mg2_5 3.365694 1_565
Mg0_7 Mg2_7 3.365694 1_555
Mg0_7 Mg2_3 3.365694 1_555
Mg1_0 Mg3_2 3.161162 1_555
Mg1_0 Mg3_0 3.161162 1_555
Mg1_0 Mg1_2 3.237308 1_555
Mg1_0 Mg1_2 3.237308 1_545
Mg1_1 Mg3_3 3.161162 1_555
Mg1_1 Mg3_1 3.161162 1_555
Mg1_1 Mg1_3 3.237308 1_555
Mg1_1 Mg1_3 3.237308 1_545
Mg1_2 Mg3_2 3.161162 1_555
Mg1_2 Mg3_0 3.161162 1_565
Mg1_3 Mg3_1 3.161162 1_565
Mg1_3 Mg3_3 3.161162 1_555
Mg1_4 Mg3_4 3.161162 1_555
Mg1_4 Mg3_6 3.161162 1_555
Mg1_4 Mg1_6 3.237308 1_545
Mg1_4 Mg1_6 3.237308 1_555
Mg1_5 Mg3_5 3.161162 1_555
Mg1_5 Mg3_7 3.161162 1_555
Mg1_5 Mg1_7 3.237308 1_555
Mg1_5 Mg1_7 3.237308 1_545
Mg1_6 Mg3_4 3.161162 1_565
Mg1_6 Mg3_6 3.161162 1_555
Mg1_7 Mg3_5 3.161162 1_565
Mg1_7 Mg3_7 3.161162 1_555
Mg2_0 Mg2_2 3.237308 1_555
Mg2_0 Mg2_2 3.237308 1_545
Mg2_1 Mg2_3 3.237308 1_545
Mg2_1 Mg2_3 3.237308 1_555
Mg2_4 Mg2_6 3.237308 1_545
Mg2_4 Mg2_6 3.237308 1_555
Mg2_5 Mg2_7 3.237308 1_545
Mg2_5 Mg2_7 3.237308 1_555
Mg3_0 Mg3_2 3.237308 1_555
Mg3_0 Mg3_2 3.237308 1_545
Mg3_0 Mg5_7 3.365694 1_444
Mg3_0 Mg5_5 3.365694 1_454
Mg3_0 Mg5_3 3.365694 1_544
Mg3_0 Mg5_1 3.365694 1_554
Mg3_1 Mg3_3 3.237308 1_545
Mg3_1 Mg3_3 3.237308 1_555
Mg3_1 Mg5_2 3.365694 1_545
Mg3_1 Mg5_4 3.365694 1_455
Mg3_1 Mg5_6 3.365694 1_445
Mg3_1 Mg5_0 3.365694 1_555
Mg3_2 Mg5_7 3.365694 1_454
Mg3_2 Mg5_5 3.365694 1_454
Mg3_2 Mg5_3 3.365694 1_554
Mg3_2 Mg5_1 3.365694 1_554
Mg3_3 Mg5_6 3.365694 1_455
Mg3_3 Mg5_4 3.365694 1_455
Mg3_3 Mg5_2 3.365694 1_555
Mg3_3 Mg5_0 3.365694 1_555
Mg3_4 Mg3_6 3.237308 1_555
Mg3_4 Mg3_6 3.237308 1_545
Mg3_4 Mg5_5 3.365694 1_554
Mg3_4 Mg5_7 3.365694 1_544
Mg3_4 Mg5_3 3.365694 1_544
Mg3_4 Mg5_1 3.365694 1_554
Mg3_5 Mg3_7 3.237308 1_545
Mg3_5 Mg3_7 3.237308 1_555
Mg3_5 Mg5_6 3.365694 1_545
Mg3_5 Mg5_2 3.365694 1_545
Mg3_5 Mg5_4 3.365694 1_555
Mg3_5 Mg5_0 3.365694 1_555
Mg3_6 Mg5_7 3.365694 1_554
Mg3_6 Mg5_5 3.365694 1_554
Mg3_6 Mg5_3 3.365694 1_554
Mg3_6 Mg5_1 3.365694 1_554
Mg3_7 Mg5_4 3.365694 1_555
Mg3_7 Mg5_2 3.365694 1_555
Mg3_7 Mg5_6 3.365694 1_555
Mg3_7 Mg5_0 3.365694 1_555
Mg4_0 Mg4_2 3.237308 1_555
Mg4_0 Mg4_2 3.237308 1_545
Mg4_1 Mg4_3 3.237308 1_545
Mg4_1 Mg4_3 3.237308 1_555
Mg4_4 Mg4_6 3.237308 1_555
Mg4_4 Mg4_6 3.237308 1_545
Mg4_5 Mg4_7 3.237308 1_545
Mg4_5 Mg4_7 3.237308 1_555
Mg5_0 Mg5_2 3.237308 1_545
Mg5_0 Mg5_2 3.237308 1_555
Mg5_1 Mg5_3 3.237308 1_555
Mg5_1 Mg5_3 3.237308 1_545
Mg5_4 Mg5_6 3.237308 1_555
Mg5_4 Mg5_6 3.237308 1_545
Mg5_5 Mg5_7 3.237308 1_555
Mg5_5 Mg5_7 3.237308 1_545
