# generated using pymatgen
data_Zn(BiO2)4
_symmetry_space_group_name_H-M   'P 1'
_cell_length_a   6.34217012
_cell_length_b   6.34217012
_cell_length_c   6.34217009
_cell_angle_alpha   68.72789192
_cell_angle_beta   68.72789192
_cell_angle_gamma   68.72788739
_symmetry_Int_Tables_number   1
_chemical_formula_structural   Zn(BiO2)4
_chemical_formula_sum   'Zn1 Bi4 O8'
_cell_volume   213.53078635
_cell_formula_units_Z   1
loop_
 _symmetry_equiv_pos_site_id
 _symmetry_equiv_pos_as_xyz
  1  'x, y, z'
loop_
 _atom_site_type_symbol
 _atom_site_label
 _atom_site_symmetry_multiplicity
 _atom_site_fract_x
 _atom_site_fract_y
 _atom_site_fract_z
 _atom_site_occupancy
  Zn  Zn0  1  0.50000000  0.50000000  0.50000000  1
  Bi  Bi0  1  0.00000000  0.50000000  0.50000000  1
  Bi  Bi1  1  0.50000000  0.00000000  0.50000000  1
  Bi  Bi2  1  0.50000000  0.50000000  0.00000000  1
  Bi  Bi3  1  0.00000000  0.00000000  0.00000000  1
  O  O0  1  0.27625000  0.73945100  0.73945100  1
  O  O1  1  0.26054900  0.26054900  0.72375000  1
  O  O2  1  0.72375000  0.26054900  0.26054900  1
  O  O3  1  0.26054900  0.72375000  0.26054900  1
  O  O4  1  0.26219100  0.26219100  0.26219100  1
  O  O5  1  0.73780900  0.73780900  0.73780900  1
  O  O6  1  0.73945100  0.27625000  0.73945100  1
  O  O7  1  0.73945100  0.73945100  0.27625000  1
loop_
_geom_bond_atom_site_label_1
_geom_bond_atom_site_label_2
_geom_bond_distance
_geom_bond_site_symmetry_2
Bi0 O4 2.307725 1_555
Bi0 O5 2.307725 1_455
Bi0 O1 2.316785 1_555
Bi0 O7 2.316785 1_455
Bi0 O6 2.316785 1_455
Bi0 O3 2.316785 1_555
Bi1 O4 2.307725 1_555
Bi1 O5 2.307725 1_545
Bi1 O1 2.316785 1_555
Bi1 O7 2.316785 1_545
Bi1 O2 2.316785 1_555
Bi1 O0 2.316785 1_545
Bi2 O4 2.307725 1_555
Bi2 O5 2.307725 1_554
Bi2 O2 2.316785 1_555
Bi2 O6 2.316785 1_554
Bi2 O3 2.316785 1_555
Bi2 O0 2.316785 1_554
Bi3 O2 2.512103 1_455
Bi3 O6 2.512103 1_454
Bi3 O3 2.512103 1_545
Bi3 O0 2.512103 1_544
Bi3 O1 2.512103 1_554
Bi3 O7 2.512103 1_445
O0 Zn0 2.274269 1_555
O1 Zn0 2.274269 1_555
O2 Zn0 2.274269 1_555
O3 Zn0 2.274269 1_555
O6 Zn0 2.274269 1_555
O7 Zn0 2.274269 1_555
