# generated using pymatgen
data_Fe2NiO4
_symmetry_space_group_name_H-M   'P 1'
_cell_length_a   5.98264700
_cell_length_b   5.98753899
_cell_length_c   24.63079968
_cell_angle_alpha   96.86139395
_cell_angle_beta   89.87474883
_cell_angle_gamma   119.80613177
_symmetry_Int_Tables_number   1
_chemical_formula_structural   Fe2NiO4
_chemical_formula_sum   'Fe20 Ni10 O40'
_cell_volume   758.42927782
_cell_formula_units_Z   10
loop_
 _symmetry_equiv_pos_site_id
 _symmetry_equiv_pos_as_xyz
  1  'x, y, z'
loop_
 _atom_site_type_symbol
 _atom_site_label
 _atom_site_symmetry_multiplicity
 _atom_site_fract_x
 _atom_site_fract_y
 _atom_site_fract_z
 _atom_site_occupancy
  Fe  Fe0  1  0.35238000  0.65099500  0.05082200  1
  Fe  Fe1  1  0.37105100  0.12336700  0.12450900  1
  Fe  Fe2  1  0.87640100  0.12383500  0.12441800  1
  Fe  Fe3  1  0.79590700  0.19024800  0.40130300  1
  Fe  Fe4  1  0.75272100  0.25538600  0.25041200  1
  Fe  Fe5  1  0.87656700  0.62849400  0.12450800  1
  Fe  Fe6  1  0.15244000  0.85766300  0.44845400  1
  Fe  Fe7  1  0.07465100  0.92443100  0.22499300  1
  Fe  Fe8  1  0.19670500  0.79089900  0.60166800  1
  Fe  Fe9  1  0.27732500  0.23006500  0.32453500  1
  Fe  Fe10  1  0.59461600  0.39029900  0.79983700  1
  Fe  Fe11  1  0.55451600  0.45976400  0.64942400  1
  Fe  Fe12  1  0.47467800  0.52639400  0.42537300  1
  Fe  Fe13  1  0.67473700  0.82465800  0.52507300  1
  Fe  Fe14  1  0.87604600  0.12608200  0.62516000  1
  Fe  Fe15  1  0.95728500  0.05557100  0.84915300  1
  Fe  Fe16  1  0.07499500  0.42502100  0.72549300  1
  Fe  Fe17  1  0.48157900  0.52518900  0.92691800  1
  Fe  Fe18  1  0.27415200  0.72138400  0.82453600  1
  Fe  Fe19  1  0.48022200  0.02906800  0.92659700  1
  Ni  Ni0  1  0.99569300  0.99875800  0.99825200  1
  Ni  Ni1  1  0.40161900  0.60084900  0.20179400  1
  Ni  Ni2  1  0.67502800  0.32519700  0.02390400  1
  Ni  Ni3  1  0.77353500  0.72401200  0.32463600  1
  Ni  Ni4  1  0.27505400  0.72399200  0.32462300  1
  Ni  Ni5  1  0.17490100  0.32492300  0.52492100  1
  Ni  Ni6  1  0.67487200  0.32495300  0.52489800  1
  Ni  Ni7  1  0.57355000  0.92377000  0.72552600  1
  Ni  Ni8  1  0.07559600  0.92338400  0.72567600  1
  Ni  Ni9  1  0.97277000  0.52401200  0.92608400  1
  O  O0  1  0.53317800  0.98839200  0.07871400  1
  O  O1  1  0.53378200  0.46553800  0.07876900  1
  O  O2  1  0.72357900  0.27840400  0.16986400  1
  O  O3  1  0.01228500  0.46701900  0.07851500  1
  O  O4  1  0.93460000  0.59579000  0.27294300  1
  O  O5  1  0.74987100  0.79109500  0.17251000  1
  O  O6  1  0.21362900  0.79111700  0.17243100  1
  O  O7  1  0.12681800  0.88486300  0.36994600  1
  O  O8  1  0.02454800  0.97146100  0.08026800  1
  O  O9  1  0.93928600  0.07290500  0.27425600  1
  O  O10  1  0.40743600  0.07229200  0.27413100  1
  O  O11  1  0.20900800  0.24743900  0.17158600  1
  O  O12  1  0.33602900  0.19650000  0.47459300  1
  O  O13  1  0.13961600  0.37740600  0.37476400  1
  O  O14  1  0.61235600  0.37728500  0.37481000  1
  O  O15  1  0.53237300  0.49504600  0.57010800  1
  O  O16  1  0.42428000  0.56668900  0.28100800  1
  O  O17  1  0.33176500  0.66843200  0.47457400  1
  O  O18  1  0.80824500  0.67148600  0.47531100  1
  O  O19  1  0.61459500  0.85465500  0.37518600  1
  O  O20  1  0.54208400  0.97925100  0.57497900  1
  O  O21  1  0.73592600  0.79605700  0.67550500  1
  O  O22  1  0.01871500  0.98242300  0.57581000  1
  O  O23  1  0.81714000  0.15366200  0.48023800  1
  O  O24  1  0.93117200  0.09146500  0.77077500  1
  O  O25  1  0.74339500  0.27577200  0.67680400  1
  O  O26  1  0.20750100  0.27809400  0.67714800  1
  O  O27  1  0.01378900  0.45374600  0.57505400  1
  O  O28  1  0.14390100  0.40286600  0.87439700  1
  O  O29  1  0.94987500  0.57440700  0.77447400  1
  O  O30  1  0.40213300  0.57583300  0.77438100  1
  O  O31  1  0.21912500  0.75718200  0.68074900  1
  O  O32  1  0.32878200  0.67888600  0.97284600  1
  O  O33  1  0.14186700  0.86546300  0.87389000  1
  O  O34  1  0.60156100  0.86173600  0.87471900  1
  O  O35  1  0.41132600  0.04598400  0.77681500  1
  O  O36  1  0.34625500  0.18860700  0.97046300  1
  O  O37  1  0.80437100  0.18051200  0.97256400  1
  O  O38  1  0.61864100  0.36997900  0.87749500  1
  O  O39  1  0.80356700  0.65160100  0.97310400  1
loop_
_geom_bond_atom_site_label_1
_geom_bond_atom_site_label_2
_geom_bond_distance
_geom_bond_site_symmetry_2
Fe0 O0 1.795101 1_555
Fe0 O3 1.940071 1_555
Fe0 O32 1.959037 1_554
Fe0 O1 2.066067 1_555
Fe1 O11 1.827970 1_555
Fe1 O0 1.850118 1_545
Fe1 O8 2.051994 1_545
Fe1 O2 2.091409 1_555
Fe1 O6 2.220674 1_545
Fe1 O1 2.231214 1_555
Fe2 O8 1.833870 1_645
Fe2 O2 1.880057 1_555
Fe2 O11 2.048826 1_655
Fe2 O0 2.068289 1_545
Fe2 O5 2.237426 1_545
Fe2 O3 2.247652 1_655
Fe3 O19 1.776345 1_545
Fe3 O13 1.946730 1_655
Fe3 O23 1.993657 1_555
Fe3 O14 2.070300 1_555
Fe4 O4 1.781508 1_555
Fe4 O10 1.925296 1_555
Fe4 O2 2.018967 1_555
Fe4 O9 2.037908 1_555
Fe5 O5 1.837105 1_555
Fe5 O3 1.841760 1_655
Fe5 O1 2.045747 1_555
Fe5 O6 2.047333 1_655
Fe5 O8 2.216127 1_655
Fe5 O2 2.264389 1_555
Fe6 O12 1.792386 1_565
Fe6 O18 1.951607 1_455
Fe6 O7 1.972469 1_555
Fe6 O17 2.057730 1_555
Fe7 O9 1.836340 1_465
Fe7 O6 1.847363 1_555
Fe7 O10 2.052973 1_565
Fe7 O5 2.075118 1_455
Fe7 O4 2.209265 1_455
Fe7 O11 2.274813 1_565
Fe8 O27 1.786967 1_555
Fe8 O20 1.956552 1_555
Fe8 O31 1.993690 1_555
Fe8 O22 2.060594 1_555
Fe9 O13 1.856065 1_555
Fe9 O10 1.867137 1_555
Fe9 O14 2.078828 1_555
Fe9 O9 2.085603 1_455
Fe9 O16 2.176088 1_555
Fe9 O7 2.243156 1_545
Fe10 O35 1.802823 1_555
Fe10 O38 1.941231 1_555
Fe10 O29 1.988034 1_555
Fe10 O30 2.096338 1_555
Fe11 O21 1.779461 1_555
Fe11 O26 1.971256 1_555
Fe11 O15 2.001589 1_555
Fe11 O25 2.088963 1_555
Fe12 O17 1.842551 1_555
Fe12 O14 1.867479 1_555
Fe12 O18 2.069306 1_555
Fe12 O13 2.082166 1_555
Fe12 O12 2.235699 1_555
Fe12 O19 2.243267 1_555
Fe13 O18 1.853846 1_555
Fe13 O20 1.857895 1_555
Fe13 O17 2.111253 1_555
Fe13 O22 2.117933 1_655
Fe13 O23 2.161757 1_565
Fe13 O15 2.167647 1_555
Fe14 O22 1.849714 1_645
Fe14 O25 1.865871 1_555
Fe14 O20 2.073029 1_545
Fe14 O26 2.082948 1_655
Fe14 O27 2.240112 1_655
Fe14 O21 2.253732 1_545
Fe15 O28 1.828464 1_655
Fe15 O24 1.982752 1_555
Fe15 O34 1.996481 1_545
Fe15 O33 2.074763 1_645
Fe16 O29 1.794353 1_455
Fe16 O26 1.805321 1_555
Fe16 O30 2.022224 1_555
Fe16 O25 2.040669 1_455
Fe16 O31 2.174450 1_555
Fe16 O24 2.189227 1_455
Fe17 O38 1.871049 1_555
Fe17 O32 1.882892 1_555
Fe17 O39 1.982970 1_555
Fe17 O28 2.145985 1_555
Fe17 O36 2.181259 1_555
Fe17 O34 2.325059 1_555
Fe18 O33 1.808938 1_555
Fe18 O30 1.809374 1_555
Fe18 O29 2.027942 1_455
Fe18 O34 2.048606 1_555
Fe18 O35 2.188253 1_565
Fe18 O28 2.197887 1_555
Fe19 O36 1.798046 1_555
Fe19 O34 1.891203 1_545
Fe19 O37 1.970031 1_555
Fe19 O33 2.116342 1_545
Fe19 O32 2.278696 1_545
Fe19 O38 2.284749 1_555
Ni0 O39 1.829146 1_555
Ni0 O36 1.992192 1_665
Ni0 O8 2.060549 1_656
Ni0 O37 2.073834 1_565
Ni1 O11 1.887493 1_555
Ni1 O5 1.997257 1_555
Ni1 O16 1.997773 1_555
Ni1 O6 2.135418 1_555
Ni2 O37 1.829959 1_554
Ni2 O1 1.917278 1_555
Ni2 O36 2.103621 1_554
Ni2 O3 2.153399 1_655
Ni2 O39 2.249996 1_554
Ni2 O0 2.356623 1_545
Ni3 O19 1.888878 1_555
Ni3 O4 1.906722 1_555
Ni3 O16 2.054075 1_555
Ni3 O7 2.090477 1_655
Ni3 O14 2.320499 1_555
Ni3 O9 2.332757 1_565
Ni4 O16 1.851530 1_555
Ni4 O7 1.883738 1_555
Ni4 O19 2.118456 1_555
Ni4 O4 2.140497 1_455
Ni4 O13 2.329082 1_555
Ni4 O10 2.344461 1_565
Ni5 O27 1.885500 1_555
Ni5 O12 1.887080 1_555
Ni5 O23 2.098247 1_455
Ni5 O15 2.103312 1_555
Ni5 O17 2.309610 1_555
Ni5 O22 2.313828 1_545
Ni6 O23 1.892222 1_555
Ni6 O15 1.895269 1_555
Ni6 O27 2.112104 1_655
Ni6 O12 2.114127 1_555
Ni6 O18 2.321403 1_555
Ni6 O20 2.325570 1_545
Ni7 O35 1.884964 1_565
Ni7 O21 1.885351 1_555
Ni7 O31 2.086184 1_555
Ni7 O24 2.106013 1_565
Ni7 O30 2.304228 1_555
Ni7 O25 2.320496 1_565
Ni8 O31 1.880001 1_555
Ni8 O24 1.893797 1_465
Ni8 O21 2.117441 1_455
Ni8 O35 2.117567 1_565
Ni8 O29 2.325975 1_455
Ni8 O26 2.344867 1_565
Ni9 O39 1.871331 1_555
Ni9 O28 1.925373 1_655
Ni9 O32 2.124853 1_655
Ni9 O38 2.139237 1_555
Ni9 O37 2.247972 1_555
Ni9 O33 2.328542 1_655
