# generated using pymatgen
data_Mg6CoCu
_symmetry_space_group_name_H-M   'P 1'
_cell_length_a   4.70834100
_cell_length_b   6.09003300
_cell_length_c   10.19215300
_cell_angle_alpha   90.00000000
_cell_angle_beta   90.00000000
_cell_angle_gamma   90.00000000
_symmetry_Int_Tables_number   1
_chemical_formula_structural   Mg6CoCu
_chemical_formula_sum   'Mg12 Co2 Cu2'
_cell_volume   292.24930656
_cell_formula_units_Z   2
loop_
 _symmetry_equiv_pos_site_id
 _symmetry_equiv_pos_as_xyz
  1  'x, y, z'
loop_
 _atom_site_type_symbol
 _atom_site_label
 _atom_site_symmetry_multiplicity
 _atom_site_fract_x
 _atom_site_fract_y
 _atom_site_fract_z
 _atom_site_occupancy
  Mg  Mg0  1  0.50000000  0.24882200  0.08398700  1
  Mg  Mg1  1  0.50000000  0.75117800  0.08398700  1
  Mg  Mg2  1  0.00000000  0.25526500  0.90944700  1
  Mg  Mg3  1  0.00000000  0.74473500  0.90944700  1
  Mg  Mg4  1  0.00000000  0.50000000  0.17203200  1
  Mg  Mg5  1  0.00000000  0.50000000  0.67536800  1
  Mg  Mg6  1  0.50000000  0.74882200  0.58398700  1
  Mg  Mg7  1  0.50000000  0.25117800  0.58398700  1
  Mg  Mg8  1  0.00000000  0.75526500  0.40944700  1
  Mg  Mg9  1  0.00000000  0.24473500  0.40944700  1
  Mg  Mg10  1  0.00000000  0.00000000  0.67203200  1
  Mg  Mg11  1  0.00000000  0.00000000  0.17536800  1
  Co  Co0  1  0.50000000  0.50000000  0.83286900  1
  Co  Co1  1  0.50000000  0.00000000  0.33286900  1
  Cu  Cu0  1  0.50000000  0.50000000  0.33286800  1
  Cu  Cu1  1  0.50000000  0.00000000  0.83286800  1
loop_
_geom_bond_atom_site_label_1
_geom_bond_atom_site_label_2
_geom_bond_distance
_geom_bond_site_symmetry_2
Mg0 Mg4 2.947425 1_555
Mg0 Mg4 2.947425 1_655
Mg0 Mg11 2.950560 1_555
Mg0 Mg11 2.950560 1_655
Mg0 Mg2 2.950980 1_654
Mg0 Mg2 2.950980 1_554
Mg0 Mg1 3.030668 1_545
Mg0 Mg1 3.059365 1_555
Mg1 Mg4 2.947425 1_555
Mg1 Mg4 2.947425 1_655
Mg1 Mg11 2.950560 1_565
Mg1 Mg11 2.950560 1_665
Mg1 Mg3 2.950980 1_554
Mg1 Mg3 2.950980 1_654
Mg2 Mg5 2.813062 1_555
Mg2 Mg3 2.980888 1_555
Mg2 Mg4 3.063338 1_556
Mg2 Mg3 3.109145 1_545
Mg3 Mg5 2.813062 1_555
Mg3 Mg4 3.063338 1_556
Mg4 Mg8 2.876105 1_555
Mg4 Mg9 2.876105 1_555
Mg5 Mg6 2.950560 1_455
Mg5 Mg7 2.950560 1_455
Mg5 Mg6 2.950560 1_555
Mg5 Mg7 2.950560 1_555
Mg5 Mg8 3.124494 1_555
Mg5 Mg9 3.124494 1_555
Mg6 Mg8 2.950980 1_655
Mg6 Mg8 2.950980 1_555
Mg6 Mg7 3.030668 1_555
Mg6 Mg7 3.059365 1_565
Mg7 Mg9 2.950980 1_555
Mg7 Mg9 2.950980 1_655
Mg8 Mg9 2.980888 1_565
Mg8 Mg9 3.109145 1_555
Mg10 Mg2 2.876105 1_555
Mg10 Mg3 2.876105 1_545
Mg10 Mg7 2.947425 1_555
Mg10 Mg6 2.947425 1_445
Mg10 Mg7 2.947425 1_455
Mg10 Mg6 2.947425 1_545
Mg10 Mg9 3.063338 1_555
Mg10 Mg8 3.063338 1_545
Mg11 Mg9 2.813062 1_555
Mg11 Mg8 2.813062 1_545
Mg11 Mg2 3.124494 1_554
Mg11 Mg3 3.124494 1_544
Co0 Mg5 2.849390 1_555
Co0 Mg5 2.849390 1_655
Co0 Mg3 2.893564 1_555
Co0 Mg3 2.893564 1_655
Co0 Mg2 2.893564 1_555
Co0 Mg2 2.893564 1_655
Co0 Mg7 2.954792 1_555
Co0 Mg6 2.954792 1_555
Co0 Mg0 2.981715 1_556
Co0 Mg1 2.981715 1_556
Co0 Cu1 3.045017 1_555
Co0 Cu1 3.045017 1_565
Co1 Mg11 2.849390 1_655
Co1 Mg11 2.849390 1_555
Co1 Mg9 2.893564 1_555
Co1 Mg9 2.893564 1_655
Co1 Mg8 2.893564 1_545
Co1 Mg8 2.893564 1_645
Co1 Mg0 2.954792 1_555
Co1 Mg1 2.954792 1_545
Co1 Mg7 2.981715 1_555
Co1 Mg6 2.981715 1_545
Co1 Cu0 3.045017 1_555
Co1 Cu0 3.045017 1_545
Cu0 Mg4 2.868677 1_555
Cu0 Mg4 2.868677 1_655
Cu0 Mg8 2.927115 1_655
Cu0 Mg8 2.927115 1_555
Cu0 Mg9 2.927115 1_655
Cu0 Mg9 2.927115 1_555
Cu0 Mg1 2.962167 1_555
Cu0 Mg0 2.962167 1_555
Cu0 Mg6 2.974389 1_555
Cu0 Mg7 2.974389 1_555
Cu1 Mg10 2.868677 1_555
Cu1 Mg10 2.868677 1_655
Cu1 Mg2 2.927115 1_655
Cu1 Mg2 2.927115 1_555
Cu1 Mg3 2.927115 1_545
Cu1 Mg3 2.927115 1_645
Cu1 Mg7 2.962167 1_555
Cu1 Mg6 2.962167 1_545
Cu1 Mg1 2.974389 1_546
Cu1 Mg0 2.974389 1_556
