# generated using pymatgen
data_PmNd
_symmetry_space_group_name_H-M   'P 1'
_cell_length_a   7.48328394
_cell_length_b   7.48328394
_cell_length_c   11.79111274
_cell_angle_alpha   90.00000000
_cell_angle_beta   90.00000000
_cell_angle_gamma   120.00001923
_symmetry_Int_Tables_number   1
_chemical_formula_structural   PmNd
_chemical_formula_sum   'Pm8 Nd8'
_cell_volume   571.83375382
_cell_formula_units_Z   8
loop_
 _symmetry_equiv_pos_site_id
 _symmetry_equiv_pos_as_xyz
  1  'x, y, z'
loop_
 _atom_site_type_symbol
 _atom_site_label
 _atom_site_symmetry_multiplicity
 _atom_site_fract_x
 _atom_site_fract_y
 _atom_site_fract_z
 _atom_site_occupancy
  Pm  Pm0_0  1  0.33333349  0.16666650  0.00000000  1
  Pm  Pm0_1  1  0.33333349  0.16666650  0.50000000  1
  Pm  Pm0_2  1  0.33333349  0.66666650  0.00000000  1
  Pm  Pm0_3  1  0.33333349  0.66666650  0.50000000  1
  Pm  Pm0_4  1  0.83333349  0.16666650  0.00000000  1
  Pm  Pm0_5  1  0.83333349  0.16666650  0.50000000  1
  Pm  Pm0_6  1  0.83333349  0.66666650  0.00000000  1
  Pm  Pm0_7  1  0.83333349  0.66666650  0.50000000  1
  Nd  Nd0_0  1  0.00000001  1.00000000  0.25000000  1
  Nd  Nd0_1  1  0.00000001  1.00000000  0.75000000  1
  Nd  Nd0_2  1  0.00000001  0.49999999  0.25000000  1
  Nd  Nd0_3  1  0.00000001  0.49999999  0.75000000  1
  Nd  Nd0_4  1  0.50000000  1.00000000  0.25000000  1
  Nd  Nd0_5  1  0.50000000  1.00000000  0.75000000  1
  Nd  Nd0_6  1  0.50000000  0.49999999  0.25000000  1
  Nd  Nd0_7  1  0.50000000  0.49999999  0.75000000  1
loop_
_geom_bond_atom_site_label_1
_geom_bond_atom_site_label_2
_geom_bond_distance
_geom_bond_site_symmetry_2
Pm0_0 Pm0_6 3.741641 1_555
Pm0_0 Pm0_6 3.741641 1_445
Pm0_0 Pm0_2 3.741642 1_555
Pm0_0 Pm0_4 3.741642 1_455
Pm0_0 Pm0_4 3.741642 1_555
Pm0_0 Pm0_2 3.741642 1_545
Pm0_1 Pm0_7 3.741641 1_555
Pm0_1 Pm0_7 3.741641 1_445
Pm0_1 Pm0_3 3.741642 1_555
Pm0_1 Pm0_5 3.741642 1_455
Pm0_1 Pm0_3 3.741642 1_545
Pm0_1 Pm0_5 3.741642 1_555
Pm0_2 Pm0_4 3.741641 1_565
Pm0_2 Pm0_4 3.741641 1_455
Pm0_2 Pm0_6 3.741642 1_555
Pm0_2 Pm0_6 3.741642 1_455
Pm0_3 Pm0_5 3.741641 1_565
Pm0_3 Pm0_5 3.741641 1_455
Pm0_3 Pm0_7 3.741642 1_455
Pm0_3 Pm0_7 3.741642 1_555
Pm0_4 Pm0_6 3.741642 1_555
Pm0_4 Pm0_6 3.741642 1_545
Pm0_5 Pm0_7 3.741642 1_555
Pm0_5 Pm0_7 3.741642 1_545
Nd0_0 Pm0_5 3.654588 1_465
Nd0_0 Pm0_4 3.654588 1_465
Nd0_0 Pm0_1 3.654590 1_565
Nd0_0 Pm0_0 3.654590 1_565
Nd0_0 Pm0_7 3.654590 1_455
Nd0_0 Pm0_6 3.654590 1_455
Nd0_0 Nd0_6 3.741641 1_565
Nd0_0 Nd0_6 3.741641 1_455
Nd0_0 Nd0_4 3.741642 1_555
Nd0_0 Nd0_4 3.741642 1_455
Nd0_0 Nd0_2 3.741642 1_555
Nd0_0 Nd0_2 3.741642 1_565
Nd0_1 Pm0_5 3.654588 1_465
Nd0_1 Pm0_4 3.654588 1_466
Nd0_1 Pm0_1 3.654590 1_565
Nd0_1 Pm0_7 3.654590 1_455
Nd0_1 Pm0_0 3.654590 1_566
Nd0_1 Pm0_6 3.654590 1_456
Nd0_1 Nd0_7 3.741641 1_565
Nd0_1 Nd0_7 3.741641 1_455
Nd0_1 Nd0_5 3.741642 1_555
Nd0_1 Nd0_5 3.741642 1_455
Nd0_1 Nd0_3 3.741642 1_565
Nd0_1 Nd0_3 3.741642 1_555
Nd0_2 Pm0_6 3.654588 1_455
Nd0_2 Pm0_7 3.654588 1_455
Nd0_2 Pm0_3 3.654590 1_555
Nd0_2 Pm0_2 3.654590 1_555
Nd0_2 Pm0_4 3.654590 1_455
Nd0_2 Pm0_5 3.654590 1_455
Nd0_2 Nd0_4 3.741641 1_555
Nd0_2 Nd0_4 3.741641 1_445
Nd0_2 Nd0_6 3.741642 1_555
Nd0_2 Nd0_6 3.741642 1_455
Nd0_3 Pm0_7 3.654588 1_455
Nd0_3 Pm0_6 3.654588 1_456
Nd0_3 Pm0_3 3.654590 1_555
Nd0_3 Pm0_5 3.654590 1_455
Nd0_3 Pm0_2 3.654590 1_556
Nd0_3 Pm0_4 3.654590 1_456
Nd0_3 Nd0_5 3.741641 1_555
Nd0_3 Nd0_5 3.741641 1_445
Nd0_3 Nd0_7 3.741642 1_555
Nd0_3 Nd0_7 3.741642 1_455
Nd0_4 Pm0_0 3.654588 1_565
Nd0_4 Pm0_1 3.654588 1_565
Nd0_4 Pm0_5 3.654590 1_565
Nd0_4 Pm0_4 3.654590 1_565
Nd0_4 Pm0_3 3.654590 1_555
Nd0_4 Pm0_2 3.654590 1_555
Nd0_4 Nd0_6 3.741642 1_565
Nd0_4 Nd0_6 3.741642 1_555
Nd0_5 Pm0_1 3.654588 1_565
Nd0_5 Pm0_0 3.654588 1_566
Nd0_5 Pm0_5 3.654590 1_565
Nd0_5 Pm0_3 3.654590 1_555
Nd0_5 Pm0_4 3.654590 1_566
Nd0_5 Pm0_2 3.654590 1_556
Nd0_5 Nd0_7 3.741642 1_555
Nd0_5 Nd0_7 3.741642 1_565
Nd0_6 Pm0_3 3.654588 1_555
Nd0_6 Pm0_2 3.654588 1_555
Nd0_6 Pm0_7 3.654590 1_555
Nd0_6 Pm0_6 3.654590 1_555
Nd0_6 Pm0_0 3.654590 1_555
Nd0_6 Pm0_1 3.654590 1_555
Nd0_7 Pm0_3 3.654588 1_555
Nd0_7 Pm0_2 3.654588 1_556
Nd0_7 Pm0_7 3.654590 1_555
Nd0_7 Pm0_1 3.654590 1_555
Nd0_7 Pm0_6 3.654590 1_556
Nd0_7 Pm0_0 3.654590 1_556
