# generated using pymatgen
data_MgNiF4
_symmetry_space_group_name_H-M   'P 1'
_cell_length_a   6.17458666
_cell_length_b   6.17458666
_cell_length_c   6.17458666
_cell_angle_alpha   131.66921590
_cell_angle_beta   131.66921590
_cell_angle_gamma   70.75196881
_symmetry_Int_Tables_number   1
_chemical_formula_structural   MgNiF4
_chemical_formula_sum   'Mg2 Ni2 F8'
_cell_volume   128.66931245
_cell_formula_units_Z   2
loop_
 _symmetry_equiv_pos_site_id
 _symmetry_equiv_pos_as_xyz
  1  'x, y, z'
loop_
 _atom_site_type_symbol
 _atom_site_label
 _atom_site_symmetry_multiplicity
 _atom_site_fract_x
 _atom_site_fract_y
 _atom_site_fract_z
 _atom_site_occupancy
  Mg  Mg0  1  0.25000000  0.25000000  0.00000000  1
  Mg  Mg1  1  0.75000000  0.75000000  0.00000000  1
  Ni  Ni0  1  0.50000000  0.00000000  0.50000000  1
  Ni  Ni1  1  0.00000000  0.50000000  0.50000000  1
  F  F0  1  0.42996600  0.92996600  0.09319900  1
  F  F1  1  0.16323300  0.66323300  0.09319900  1
  F  F2  1  0.57003400  0.07003400  0.90680100  1
  F  F3  1  0.07003400  0.16323300  0.50000000  1
  F  F4  1  0.83676700  0.33676700  0.90680100  1
  F  F5  1  0.33676700  0.42996600  0.50000000  1
  F  F6  1  0.92996600  0.83676700  0.50000000  1
  F  F7  1  0.66323300  0.57003400  0.50000000  1
loop_
_geom_bond_atom_site_label_1
_geom_bond_atom_site_label_2
_geom_bond_distance
_geom_bond_site_symmetry_2
F0 Ni0 1.979402 1_565
F0 Mg0 2.164452 1_565
F0 Mg1 2.164452 1_555
F1 Ni0 1.979402 1_565
F1 Mg1 2.164452 1_455
F1 Mg0 2.164452 1_555
F2 Ni0 1.979402 1_555
F2 Mg0 2.164452 1_556
F2 Mg1 2.164452 1_546
F3 Ni1 1.979402 1_555
F3 Mg1 2.164452 1_445
F3 Mg0 2.164452 1_556
F4 Ni0 1.979402 1_555
F4 Mg1 2.164452 1_556
F4 Mg0 2.164452 1_656
F5 Ni1 1.979402 1_555
F5 Mg0 2.164452 1_555
F5 Mg1 2.164452 1_556
F6 Ni1 1.979402 1_655
F6 Mg1 2.164452 1_555
F6 Mg0 2.164452 1_666
F7 Ni1 1.979402 1_655
F7 Mg0 2.164452 1_555
F7 Mg1 2.164452 1_556
