# generated using pymatgen
data_Sm2Co18Si4C3
_symmetry_space_group_name_H-M   'P 1'
_cell_length_a   7.67144034
_cell_length_b   7.67144034
_cell_length_c   6.39662871
_cell_angle_alpha   65.57718727
_cell_angle_beta   65.57718727
_cell_angle_gamma   80.14673791
_symmetry_Int_Tables_number   1
_chemical_formula_structural   Sm2Co18Si4C3
_chemical_formula_sum   'Sm2 Co18 Si4 C3'
_cell_volume   312.09232345
_cell_formula_units_Z   1
loop_
 _symmetry_equiv_pos_site_id
 _symmetry_equiv_pos_as_xyz
  1  'x, y, z'
loop_
 _atom_site_type_symbol
 _atom_site_label
 _atom_site_symmetry_multiplicity
 _atom_site_fract_x
 _atom_site_fract_y
 _atom_site_fract_z
 _atom_site_occupancy
  Sm  Sm0  1  0.75476600  0.75476600  0.86717700  1
  Sm  Sm1  1  0.24523400  0.24523400  0.13282300  1
  Co  Co0  1  0.42018500  0.67290100  0.75751800  1
  Co  Co1  1  0.67290100  0.42018500  0.75751800  1
  Co  Co2  1  0.92225200  0.32454900  0.93066500  1
  Co  Co3  1  0.32454900  0.92225200  0.93066500  1
  Co  Co4  1  0.83372700  0.07558700  0.35732700  1
  Co  Co5  1  0.07558700  0.83372700  0.35732700  1
  Co  Co6  1  0.16893600  0.58493900  0.67675900  1
  Co  Co7  1  0.58493900  0.16893600  0.67675900  1
  Co  Co8  1  0.57981500  0.32709900  0.24248200  1
  Co  Co9  1  0.32709900  0.57981500  0.24248200  1
  Co  Co10  1  0.07774800  0.67545100  0.06933500  1
  Co  Co11  1  0.67545100  0.07774800  0.06933500  1
  Co  Co12  1  0.16627300  0.92441300  0.64267300  1
  Co  Co13  1  0.92441300  0.16627300  0.64267300  1
  Co  Co14  1  0.83106400  0.41506100  0.32324100  1
  Co  Co15  1  0.41506100  0.83106400  0.32324100  1
  Co  Co16  1  0.75180000  0.75180000  0.38073900  1
  Co  Co17  1  0.24820000  0.24820000  0.61926100  1
  Si  Si0  1  0.00000000  0.00000000  0.00000000  1
  Si  Si1  1  0.50000000  0.00000000  0.50000000  1
  Si  Si2  1  0.00000000  0.50000000  0.50000000  1
  Si  Si3  1  0.50000000  0.50000000  0.50000000  1
  C  C0  1  0.50000000  0.00000000  0.00000000  1
  C  C1  1  0.00000000  0.50000000  0.00000000  1
  C  C2  1  0.50000000  0.50000000  0.00000000  1
loop_
_geom_bond_atom_site_label_1
_geom_bond_atom_site_label_2
_geom_bond_distance
_geom_bond_site_symmetry_2
Co0 Si3 2.354237 1_555
Co0 Si1 2.378805 1_565
Co0 Co12 2.604145 1_555
Co0 Co16 2.626274 1_555
Co1 Si3 2.354237 1_555
Co1 Si2 2.378805 1_655
Co1 Co13 2.604145 1_555
Co1 Co16 2.626274 1_555
Co2 Si0 2.355571 1_656
Co2 Si2 2.367738 1_655
Co2 Co4 2.481589 1_556
Co3 Si0 2.355571 1_566
Co3 Si1 2.367738 1_565
Co3 Co5 2.481589 1_556
Co4 Si0 2.370562 1_655
Co4 Co5 2.388913 1_645
Co4 Co7 2.418236 1_555
Co4 Si1 2.421145 1_555
Co4 Co8 2.604145 1_555
Co4 Sm0 3.049518 1_545
Co4 Sm1 3.135840 1_655
Co5 Si0 2.370562 1_565
Co5 Co6 2.418236 1_555
Co5 Si2 2.421145 1_555
Co5 Co9 2.604145 1_555
Co5 Sm0 3.049518 1_455
Co5 Sm1 3.135840 1_565
Co6 Si2 2.343616 1_555
Co6 Si3 2.412776 1_555
Co7 Si1 2.343616 1_555
Co7 Si3 2.412776 1_555
Co8 Si3 2.354237 1_555
Co8 Si1 2.378805 1_555
Co9 Si3 2.354237 1_555
Co9 Si2 2.378805 1_555
Co10 Si0 2.355571 1_565
Co10 Si2 2.367738 1_555
Co10 Co12 2.481589 1_554
Co10 Co5 2.585675 1_555
Co10 Co16 2.628315 1_455
Co11 Si0 2.355571 1_655
Co11 Si1 2.367738 1_555
Co11 Co13 2.481589 1_554
Co11 Co4 2.585675 1_555
Co11 Co16 2.628315 1_545
Co12 Si0 2.370562 1_566
Co12 Co13 2.388913 1_465
Co12 Co15 2.418236 1_555
Co12 Si1 2.421145 1_565
Co12 Co6 2.519132 1_555
Co12 Co5 2.562279 1_555
Co12 Co3 2.585675 1_555
Co12 Co17 2.595403 1_565
Co12 Sm1 3.049518 1_565
Co12 Sm0 3.135840 1_455
Co13 Si0 2.370562 1_656
Co13 Co14 2.418236 1_555
Co13 Si2 2.421145 1_655
Co13 Co7 2.519132 1_555
Co13 Co4 2.562279 1_555
Co13 Co2 2.585675 1_555
Co13 Co17 2.595403 1_655
Co13 Sm1 3.049518 1_655
Co13 Sm0 3.135840 1_545
Co14 Si2 2.343616 1_655
Co14 Si3 2.412776 1_555
Co14 Co4 2.519132 1_555
Co14 Co16 2.690994 1_555
Co15 Si1 2.343616 1_565
Co15 Si3 2.412776 1_555
Co15 Co5 2.519132 1_555
Co15 Co16 2.690994 1_555
Co16 Si1 2.581183 1_565
Co16 Si2 2.581183 1_655
Co16 Co4 2.595403 1_565
Co16 Co5 2.595403 1_655
Co16 Si0 2.598785 1_665
Co16 Si3 2.623844 1_555
Co16 Sm0 3.130516 1_555
Co16 Sm0 3.266381 1_554
Co17 Si1 2.581183 1_555
Co17 Si2 2.581183 1_555
Co17 Si0 2.598785 1_556
Co17 Si3 2.623844 1_555
Co17 Co8 2.626274 1_555
Co17 Co9 2.626274 1_555
Co17 Co2 2.628315 1_455
Co17 Co3 2.628315 1_545
Co17 Co6 2.690994 1_555
Co17 Co7 2.690994 1_555
Co17 Sm1 3.130516 1_555
Co17 Sm1 3.266381 1_556
C0 Co7 1.827118 1_554
C0 Co15 1.827118 1_545
C0 Co11 1.830626 1_555
C0 Co3 1.830626 1_544
C0 Sm1 2.602138 1_555
C0 Sm0 2.602138 1_544
C1 Co6 1.827118 1_554
C1 Co14 1.827118 1_455
C1 Co10 1.830626 1_555
C1 Co2 1.830626 1_454
C1 Sm1 2.602138 1_555
C1 Sm0 2.602138 1_454
C2 Co8 1.829252 1_555
C2 Co9 1.829252 1_555
C2 Co0 1.829252 1_554
C2 Co1 1.829252 1_554
C2 Sm0 2.631051 1_554
C2 Sm1 2.631051 1_555
