# generated using pymatgen
data_LaMg14Sb
_symmetry_space_group_name_H-M   'P 1'
_cell_length_a   6.48889060
_cell_length_b   6.48889005
_cell_length_c   10.74390647
_cell_angle_alpha   90.00000000
_cell_angle_beta   90.00000000
_cell_angle_gamma   120.00000279
_symmetry_Int_Tables_number   1
_chemical_formula_structural   LaMg14Sb
_chemical_formula_sum   'La1 Mg14 Sb1'
_cell_volume   391.77228194
_cell_formula_units_Z   1
loop_
 _symmetry_equiv_pos_site_id
 _symmetry_equiv_pos_as_xyz
  1  'x, y, z'
loop_
 _atom_site_type_symbol
 _atom_site_label
 _atom_site_symmetry_multiplicity
 _atom_site_fract_x
 _atom_site_fract_y
 _atom_site_fract_z
 _atom_site_occupancy
  La  La0  1  0.16666700  0.33333300  0.12500000  1
  Mg  Mg0  1  0.17412468  0.83706184  0.12500000  1
  Mg  Mg1  1  0.16394096  0.83196998  0.62500000  1
  Mg  Mg2  1  0.66293816  0.32587532  0.12500000  1
  Mg  Mg3  1  0.66803002  0.33605904  0.62500000  1
  Mg  Mg4  1  0.66293816  0.83706184  0.12500000  1
  Mg  Mg5  1  0.66803002  0.83196998  0.62500000  1
  Mg  Mg6  1  0.33378966  0.16621034  0.37812693  1
  Mg  Mg7  1  0.33378966  0.16621034  0.87187307  1
  Mg  Mg8  1  0.33378966  0.66758031  0.37812693  1
  Mg  Mg9  1  0.33378966  0.66758031  0.87187307  1
  Mg  Mg10  1  0.83241969  0.16621034  0.37812693  1
  Mg  Mg11  1  0.83241969  0.16621034  0.87187307  1
  Mg  Mg12  1  0.83333300  0.66666700  0.36984023  1
  Mg  Mg13  1  0.83333300  0.66666700  0.88015977  1
  Sb  Sb0  1  0.16666700  0.33333300  0.62500000  1
loop_
_geom_bond_atom_site_label_1
_geom_bond_atom_site_label_2
_geom_bond_distance
_geom_bond_site_symmetry_2
La0 Mg0 3.244716 1_555
La0 Mg4 3.244716 1_555
La0 Mg4 3.244716 1_445
La0 Mg0 3.244716 1_545
La0 Mg2 3.244716 1_455
La0 Mg2 3.244716 1_555
La0 Mg7 3.305164 1_554
La0 Mg6 3.305164 1_555
La0 Mg9 3.305170 1_554
La0 Mg8 3.305170 1_555
La0 Mg11 3.305170 1_454
La0 Mg10 3.305170 1_455
Mg0 Mg2 3.171857 1_565
Mg0 Mg4 3.171857 1_555
Mg0 Mg12 3.253817 1_455
Mg0 Mg13 3.253817 1_454
Mg0 Mg9 3.289119 1_554
Mg0 Mg8 3.289119 1_555
Mg0 Mg7 3.289125 1_564
Mg0 Mg6 3.289125 1_565
Mg0 Mg2 3.317033 1_455
Mg0 Mg4 3.317033 1_455
Mg1 Mg3 3.217912 1_455
Mg1 Mg5 3.217912 1_455
Mg1 Sb0 3.244481 1_565
Mg1 Sb0 3.244481 1_555
Mg1 Mg8 3.250127 1_555
Mg1 Mg9 3.250127 1_555
Mg1 Mg6 3.250134 1_565
Mg1 Mg7 3.250134 1_565
Mg1 Mg3 3.270978 1_565
Mg1 Mg5 3.270979 1_555
Mg1 Mg13 3.311648 1_455
Mg1 Mg12 3.311648 1_455
Mg2 Mg4 3.171857 1_545
Mg2 Mg7 3.289125 1_554
Mg2 Mg6 3.289125 1_555
Mg2 Mg4 3.317033 1_555
Mg3 Mg5 3.217912 1_555
Mg3 Sb0 3.244481 1_655
Mg3 Sb0 3.244481 1_555
Mg3 Mg6 3.250134 1_555
Mg3 Mg7 3.250134 1_555
Mg3 Mg5 3.270978 1_545
Mg4 Mg9 3.289125 1_554
Mg4 Mg8 3.289125 1_555
Mg5 Sb0 3.244481 1_665
Mg5 Sb0 3.244481 1_555
Mg5 Mg8 3.250134 1_555
Mg5 Mg9 3.250134 1_555
Mg6 Mg8 3.235555 1_545
Mg6 Sb0 3.250102 1_555
Mg6 Mg8 3.253335 1_555
Mg7 Mg9 3.235555 1_545
Mg7 Sb0 3.250102 1_555
Mg7 Mg9 3.253335 1_555
Mg8 Sb0 3.250108 1_555
Mg9 Sb0 3.250108 1_555
Mg10 Mg8 3.235555 1_545
Mg10 Mg6 3.235556 1_555
Mg10 Mg12 3.245670 1_545
Mg10 Mg12 3.245670 1_555
Mg10 Sb0 3.250108 1_655
Mg10 Mg3 3.250127 1_555
Mg10 Mg5 3.250134 1_545
Mg10 Mg8 3.253335 1_655
Mg10 Mg6 3.253335 1_655
Mg10 Mg2 3.289119 1_555
Mg10 Mg4 3.289125 1_545
Mg11 Mg9 3.235555 1_545
Mg11 Mg7 3.235556 1_555
Mg11 Mg13 3.245670 1_545
Mg11 Mg13 3.245670 1_555
Mg11 Sb0 3.250108 1_655
Mg11 Mg3 3.250127 1_555
Mg11 Mg5 3.250134 1_545
Mg11 Mg9 3.253335 1_655
Mg11 Mg7 3.253335 1_655
Mg11 Mg2 3.289119 1_556
Mg11 Mg4 3.289125 1_546
Mg12 Mg6 3.245670 1_555
Mg12 Mg6 3.245670 1_665
Mg12 Mg8 3.245671 1_555
Mg12 Mg8 3.245671 1_655
Mg12 Mg4 3.253811 1_555
Mg12 Mg2 3.253817 1_555
Mg12 Mg5 3.311641 1_555
Mg12 Mg3 3.311647 1_555
Mg13 Mg7 3.245670 1_555
Mg13 Mg7 3.245670 1_665
Mg13 Mg9 3.245671 1_555
Mg13 Mg9 3.245671 1_655
Mg13 Mg4 3.253811 1_556
Mg13 Mg2 3.253817 1_556
Mg13 Mg5 3.311641 1_555
Mg13 Mg3 3.311647 1_555
