# generated using pymatgen
data_KTeO5
_symmetry_space_group_name_H-M   'P 1'
_cell_length_a   3.95335700
_cell_length_b   5.12464100
_cell_length_c   6.28286723
_cell_angle_alpha   75.05320038
_cell_angle_beta   90.00000000
_cell_angle_gamma   90.00000000
_symmetry_Int_Tables_number   1
_chemical_formula_structural   KTeO5
_chemical_formula_sum   'K1 Te1 O5'
_cell_volume   122.98127522
_cell_formula_units_Z   1
loop_
 _symmetry_equiv_pos_site_id
 _symmetry_equiv_pos_as_xyz
  1  'x, y, z'
loop_
 _atom_site_type_symbol
 _atom_site_label
 _atom_site_symmetry_multiplicity
 _atom_site_fract_x
 _atom_site_fract_y
 _atom_site_fract_z
 _atom_site_occupancy
  K  K0  1  0.00000000  0.00000000  0.00000000  1
  Te  Te0  1  0.50000000  0.50000000  0.50000000  1
  O  O0  1  0.50000000  0.65531800  0.20370900  1
  O  O1  1  0.50000000  0.34468200  0.79629100  1
  O  O2  1  0.50000000  0.89288000  0.59191500  1
  O  O3  1  0.50000000  0.10712000  0.40808500  1
  O  O4  1  0.00000000  0.50000000  0.50000000  1
loop_
_geom_bond_atom_site_label_1
_geom_bond_atom_site_label_2
_geom_bond_distance
_geom_bond_site_symmetry_2
K0 O0 2.738471 1_445
K0 O1 2.738471 1_554
K0 O0 2.738471 1_545
K0 O1 2.738471 1_454
O0 Te0 1.826089 1_555
O1 Te0 1.826089 1_555
O2 O3 1.373044 1_565
O2 Te0 2.233141 1_555
O3 Te0 2.233141 1_555
O4 Te0 1.976679 1_555
O4 Te0 1.976679 1_455
