# generated using pymatgen
data_CdAg
_symmetry_space_group_name_H-M   'P 1'
_cell_length_a   6.15401431
_cell_length_b   6.15401431
_cell_length_c   9.51908294
_cell_angle_alpha   90.00000000
_cell_angle_beta   90.00000000
_cell_angle_gamma   122.69576080
_symmetry_Int_Tables_number   1
_chemical_formula_structural   CdAg
_chemical_formula_sum   'Cd8 Ag8'
_cell_volume   303.38382787
_cell_formula_units_Z   8
loop_
 _symmetry_equiv_pos_site_id
 _symmetry_equiv_pos_as_xyz
  1  'x, y, z'
loop_
 _atom_site_type_symbol
 _atom_site_label
 _atom_site_symmetry_multiplicity
 _atom_site_fract_x
 _atom_site_fract_y
 _atom_site_fract_z
 _atom_site_occupancy
  Cd  Cd0_0  1  0.16972077  0.33027923  0.25000000  1
  Cd  Cd0_1  1  0.16972077  0.33027923  0.75000000  1
  Cd  Cd0_2  1  0.16972077  0.83027923  0.25000000  1
  Cd  Cd0_3  1  0.16972077  0.83027923  0.75000000  1
  Cd  Cd0_4  1  0.66972078  0.33027923  0.25000000  1
  Cd  Cd0_5  1  0.66972078  0.33027923  0.75000000  1
  Cd  Cd0_6  1  0.66972078  0.83027922  0.25000000  1
  Cd  Cd0_7  1  0.66972078  0.83027922  0.75000000  1
  Ag  Ag0_0  1  0.33027923  0.16972077  0.00000000  1
  Ag  Ag0_1  1  0.33027923  0.16972077  0.50000000  1
  Ag  Ag0_2  1  0.33027923  0.66972077  0.00000000  1
  Ag  Ag0_3  1  0.33027923  0.66972077  0.50000000  1
  Ag  Ag0_4  1  0.83027923  0.16972077  0.00000000  1
  Ag  Ag0_5  1  0.83027923  0.16972077  0.50000000  1
  Ag  Ag0_6  1  0.83027923  0.66972077  0.00000000  1
  Ag  Ag0_7  1  0.83027923  0.66972077  0.50000000  1
loop_
_geom_bond_atom_site_label_1
_geom_bond_atom_site_label_2
_geom_bond_distance
_geom_bond_site_symmetry_2
Cd0_0 Cd0_6 2.950790 1_445
Cd0_0 Cd0_6 2.950790 1_555
Cd0_0 Cd0_4 3.077007 1_455
Cd0_0 Cd0_2 3.077007 1_545
Cd0_0 Cd0_4 3.077007 1_555
Cd0_0 Cd0_2 3.077007 1_555
Cd0_1 Cd0_7 2.950790 1_445
Cd0_1 Cd0_7 2.950790 1_555
Cd0_1 Cd0_3 3.077007 1_555
Cd0_1 Cd0_5 3.077007 1_455
Cd0_1 Cd0_5 3.077007 1_555
Cd0_1 Cd0_3 3.077007 1_545
Cd0_2 Cd0_4 2.950790 1_565
Cd0_2 Cd0_4 2.950790 1_455
Cd0_2 Cd0_6 3.077007 1_455
Cd0_2 Cd0_6 3.077007 1_555
Cd0_3 Cd0_5 2.950790 1_455
Cd0_3 Cd0_5 2.950790 1_565
Cd0_3 Cd0_7 3.077007 1_455
Cd0_3 Cd0_7 3.077007 1_555
Cd0_4 Cd0_6 3.077007 1_555
Cd0_4 Cd0_6 3.077007 1_545
Cd0_5 Cd0_7 3.077007 1_545
Cd0_5 Cd0_7 3.077007 1_555
Ag0_0 Cd0_1 2.944599 1_554
Ag0_0 Cd0_0 2.944599 1_555
Ag0_0 Ag0_6 2.950790 1_445
Ag0_0 Ag0_6 2.950790 1_555
Ag0_0 Cd0_2 2.961984 1_545
Ag0_0 Cd0_3 2.961984 1_544
Ag0_0 Cd0_5 2.961984 1_554
Ag0_0 Cd0_4 2.961984 1_555
Ag0_0 Ag0_4 3.077007 1_455
Ag0_0 Ag0_2 3.077007 1_545
Ag0_0 Ag0_2 3.077007 1_555
Ag0_0 Ag0_4 3.077007 1_555
Ag0_1 Cd0_1 2.944599 1_555
Ag0_1 Cd0_0 2.944599 1_555
Ag0_1 Ag0_7 2.950790 1_445
Ag0_1 Ag0_7 2.950790 1_555
Ag0_1 Cd0_3 2.961984 1_545
Ag0_1 Cd0_2 2.961984 1_545
Ag0_1 Cd0_5 2.961984 1_555
Ag0_1 Cd0_4 2.961984 1_555
Ag0_1 Ag0_5 3.077007 1_455
Ag0_1 Ag0_3 3.077007 1_555
Ag0_1 Ag0_5 3.077007 1_555
Ag0_1 Ag0_3 3.077007 1_545
Ag0_2 Cd0_2 2.944599 1_555
Ag0_2 Cd0_3 2.944599 1_554
Ag0_2 Ag0_4 2.950790 1_455
Ag0_2 Ag0_4 2.950790 1_565
Ag0_2 Cd0_1 2.961984 1_554
Ag0_2 Cd0_0 2.961984 1_555
Ag0_2 Cd0_6 2.961984 1_555
Ag0_2 Cd0_7 2.961984 1_554
Ag0_2 Ag0_6 3.077007 1_455
Ag0_2 Ag0_6 3.077007 1_555
Ag0_3 Cd0_2 2.944599 1_555
Ag0_3 Cd0_3 2.944599 1_555
Ag0_3 Ag0_5 2.950790 1_455
Ag0_3 Ag0_5 2.950790 1_565
Ag0_3 Cd0_1 2.961984 1_555
Ag0_3 Cd0_0 2.961984 1_555
Ag0_3 Cd0_6 2.961984 1_555
Ag0_3 Cd0_7 2.961984 1_555
Ag0_3 Ag0_7 3.077007 1_555
Ag0_3 Ag0_7 3.077007 1_455
Ag0_4 Cd0_5 2.944599 1_554
Ag0_4 Cd0_4 2.944599 1_555
Ag0_4 Cd0_7 2.961984 1_544
Ag0_4 Cd0_1 2.961984 1_654
Ag0_4 Cd0_6 2.961984 1_545
Ag0_4 Cd0_0 2.961984 1_655
Ag0_4 Ag0_6 3.077007 1_545
Ag0_4 Ag0_6 3.077007 1_555
Ag0_5 Cd0_5 2.944599 1_555
Ag0_5 Cd0_4 2.944599 1_555
Ag0_5 Cd0_1 2.961984 1_655
Ag0_5 Cd0_7 2.961984 1_545
Ag0_5 Cd0_6 2.961984 1_545
Ag0_5 Cd0_0 2.961984 1_655
Ag0_5 Ag0_7 3.077007 1_555
Ag0_5 Ag0_7 3.077007 1_545
Ag0_6 Cd0_7 2.944599 1_554
Ag0_6 Cd0_6 2.944599 1_555
Ag0_6 Cd0_5 2.961984 1_554
Ag0_6 Cd0_4 2.961984 1_555
Ag0_6 Cd0_3 2.961984 1_654
Ag0_6 Cd0_2 2.961984 1_655
Ag0_7 Cd0_7 2.944599 1_555
Ag0_7 Cd0_6 2.944599 1_555
Ag0_7 Cd0_5 2.961984 1_555
Ag0_7 Cd0_4 2.961984 1_555
Ag0_7 Cd0_2 2.961984 1_655
Ag0_7 Cd0_3 2.961984 1_655
