# generated using pymatgen
data_Na2GdTa5O15
_symmetry_space_group_name_H-M   'P 1'
_cell_length_a   12.61211400
_cell_length_b   12.61211400
_cell_length_c   3.92434600
_cell_angle_alpha   90.00000000
_cell_angle_beta   90.00000000
_cell_angle_gamma   90.00000000
_symmetry_Int_Tables_number   1
_chemical_formula_structural   Na2GdTa5O15
_chemical_formula_sum   'Na4 Gd2 Ta10 O30'
_cell_volume   624.22774295
_cell_formula_units_Z   2
loop_
 _symmetry_equiv_pos_site_id
 _symmetry_equiv_pos_as_xyz
  1  'x, y, z'
loop_
 _atom_site_type_symbol
 _atom_site_label
 _atom_site_symmetry_multiplicity
 _atom_site_fract_x
 _atom_site_fract_y
 _atom_site_fract_z
 _atom_site_occupancy
  Na  Na0  1  0.67148300  0.17148300  0.50000000  1
  Na  Na1  1  0.32851700  0.82851700  0.50000000  1
  Na  Na2  1  0.17148300  0.32851700  0.50000000  1
  Na  Na3  1  0.82851700  0.67148300  0.50000000  1
  Gd  Gd0  1  0.00000000  0.00000000  0.50000000  1
  Gd  Gd1  1  0.50000000  0.50000000  0.50000000  1
  Ta  Ta0  1  0.50000000  0.00000000  0.00000000  1
  Ta  Ta1  1  0.00000000  0.50000000  0.00000000  1
  Ta  Ta2  1  0.21206400  0.07854100  0.00000000  1
  Ta  Ta3  1  0.78793600  0.92145900  0.00000000  1
  Ta  Ta4  1  0.07854100  0.78793600  0.00000000  1
  Ta  Ta5  1  0.71206400  0.42145900  0.00000000  1
  Ta  Ta6  1  0.92145900  0.21206400  0.00000000  1
  Ta  Ta7  1  0.28793600  0.57854100  0.00000000  1
  Ta  Ta8  1  0.57854100  0.71206400  0.00000000  1
  Ta  Ta9  1  0.42145900  0.28793600  0.00000000  1
  O  O0  1  0.19010500  0.08062300  0.50000000  1
  O  O1  1  0.80989500  0.91937700  0.50000000  1
  O  O2  1  0.08062300  0.80989500  0.50000000  1
  O  O3  1  0.69010500  0.41937700  0.50000000  1
  O  O4  1  0.91937700  0.19010500  0.50000000  1
  O  O5  1  0.30989500  0.58062300  0.50000000  1
  O  O6  1  0.58062300  0.69010500  0.50000000  1
  O  O7  1  0.41937700  0.30989500  0.50000000  1
  O  O8  1  0.22284700  0.72284700  0.00000000  1
  O  O9  1  0.77715300  0.27715300  0.00000000  1
  O  O10  1  0.72284700  0.77715300  0.00000000  1
  O  O11  1  0.27715300  0.22284700  0.00000000  1
  O  O12  1  0.50000000  0.00000000  0.50000000  1
  O  O13  1  0.00000000  0.50000000  0.50000000  1
  O  O14  1  0.05824700  0.13127600  0.00000000  1
  O  O15  1  0.94175300  0.86872400  0.00000000  1
  O  O16  1  0.13127600  0.94175300  0.00000000  1
  O  O17  1  0.55824700  0.36872400  0.00000000  1
  O  O18  1  0.86872400  0.05824700  0.00000000  1
  O  O19  1  0.44175300  0.63127600  0.00000000  1
  O  O20  1  0.63127600  0.55824700  0.00000000  1
  O  O21  1  0.36872400  0.44175300  0.00000000  1
  O  O22  1  0.34155100  0.99866300  0.00000000  1
  O  O23  1  0.65844900  0.00133700  0.00000000  1
  O  O24  1  0.99866300  0.65844900  0.00000000  1
  O  O25  1  0.84155100  0.50133700  0.00000000  1
  O  O26  1  0.00133700  0.34155100  0.00000000  1
  O  O27  1  0.15844900  0.49866300  0.00000000  1
  O  O28  1  0.49866300  0.84155100  0.00000000  1
  O  O29  1  0.50133700  0.15844900  0.00000000  1
loop_
_geom_bond_atom_site_label_1
_geom_bond_atom_site_label_2
_geom_bond_distance
_geom_bond_site_symmetry_2
Na0 O9 2.720739 1_556
Na0 O9 2.720739 1_555
Na0 O23 2.912393 1_556
Na0 O23 2.912393 1_555
Na0 O29 2.912393 1_555
Na0 O29 2.912393 1_556
Na1 O8 2.720739 1_555
Na1 O8 2.720739 1_556
Na1 O28 2.912393 1_555
Na1 O28 2.912393 1_556
Na1 O22 2.912393 1_555
Na1 O22 2.912393 1_556
Na2 O11 2.720739 1_555
Na2 O11 2.720739 1_556
Na2 O26 2.912393 1_555
Na2 O26 2.912393 1_556
Na2 O27 2.912393 1_556
Na2 O27 2.912393 1_555
Na3 O10 2.720739 1_556
Na3 O10 2.720739 1_555
Na3 O24 2.912393 1_556
Na3 O24 2.912393 1_555
Na3 O25 2.912393 1_555
Na3 O25 2.912393 1_556
Gd0 O1 2.604332 1_445
Gd0 O2 2.604332 1_545
Gd0 O0 2.604332 1_555
Gd0 O4 2.604332 1_455
Gd0 O18 2.670397 1_456
Gd0 O18 2.670397 1_455
Gd0 O15 2.670397 1_446
Gd0 O15 2.670397 1_445
Gd0 O14 2.670397 1_556
Gd0 O16 2.670397 1_545
Gd0 O16 2.670397 1_546
Gd0 O14 2.670397 1_555
Gd1 O6 2.604332 1_555
Gd1 O3 2.604332 1_555
Gd1 O7 2.604332 1_555
Gd1 O5 2.604332 1_555
Gd1 O20 2.670397 1_555
Gd1 O20 2.670397 1_556
Gd1 O19 2.670397 1_556
Gd1 O19 2.670397 1_555
Gd1 O17 2.670397 1_555
Gd1 O17 2.670397 1_556
Gd1 O21 2.670397 1_555
Gd1 O21 2.670397 1_556
O0 Ta2 1.981795 1_555
O0 Ta2 1.981795 1_556
O1 Ta3 1.981795 1_555
O1 Ta3 1.981795 1_556
O2 Ta4 1.981795 1_556
O2 Ta4 1.981795 1_555
O3 Ta5 1.981795 1_556
O3 Ta5 1.981795 1_555
O4 Ta6 1.981795 1_556
O4 Ta6 1.981795 1_555
O5 Ta7 1.981795 1_555
O5 Ta7 1.981795 1_556
O6 Ta8 1.981795 1_555
O6 Ta8 1.981795 1_556
O7 Ta9 1.981795 1_555
O7 Ta9 1.981795 1_556
O8 Ta4 1.996574 1_555
O8 Ta7 1.996574 1_555
O9 Ta5 1.996574 1_555
O9 Ta6 1.996574 1_555
O10 Ta8 1.996574 1_555
O10 Ta3 1.996574 1_555
O11 Ta2 1.996574 1_555
O11 Ta9 1.996574 1_555
O12 Ta0 1.962173 1_555
O12 Ta0 1.962173 1_556
O13 Ta1 1.962173 1_555
O13 Ta1 1.962173 1_556
O14 Ta6 2.003606 1_455
O14 Ta2 2.050803 1_555
O15 Ta4 2.003606 1_655
O15 Ta3 2.050803 1_555
O16 Ta2 2.003606 1_565
O16 Ta4 2.050803 1_555
O17 Ta9 2.003606 1_555
O17 Ta5 2.050803 1_555
O18 Ta3 2.003606 1_545
O18 Ta6 2.050803 1_555
O19 Ta8 2.003606 1_555
O19 Ta7 2.050803 1_555
O20 Ta5 2.003606 1_555
O20 Ta8 2.050803 1_555
O21 Ta7 2.003606 1_555
O21 Ta9 2.050803 1_555
O22 Ta2 1.918840 1_565
O22 Ta0 1.998448 1_565
O23 Ta3 1.918840 1_545
O23 Ta0 1.998448 1_555
O24 Ta4 1.918840 1_655
O24 Ta1 1.998448 1_655
O25 Ta5 1.918840 1_555
O25 Ta1 1.998448 1_655
O26 Ta6 1.918840 1_455
O26 Ta1 1.998448 1_555
O27 Ta7 1.918840 1_555
O27 Ta1 1.998448 1_555
O28 Ta8 1.918840 1_555
O28 Ta0 1.998448 1_565
O29 Ta9 1.918840 1_555
O29 Ta0 1.998448 1_555
