# generated using pymatgen
data_Sc3Hg
_symmetry_space_group_name_H-M   'P 1'
_cell_length_a   4.46465973
_cell_length_b   4.46464521
_cell_length_c   4.46464728
_cell_angle_alpha   90.00000000
_cell_angle_beta   90.00000000
_cell_angle_gamma   90.00000000
_symmetry_Int_Tables_number   1
_chemical_formula_structural   Sc3Hg
_chemical_formula_sum   'Sc3 Hg1'
_cell_volume   88.99435748
_cell_formula_units_Z   1
loop_
 _symmetry_equiv_pos_site_id
 _symmetry_equiv_pos_as_xyz
  1  'x, y, z'
loop_
 _atom_site_type_symbol
 _atom_site_label
 _atom_site_symmetry_multiplicity
 _atom_site_fract_x
 _atom_site_fract_y
 _atom_site_fract_z
 _atom_site_occupancy
  Sc  Sc0  1  -0.00000000  0.50000000  0.50000000  1
  Sc  Sc1  1  0.50000000  0.00000000  0.50000000  1
  Sc  Sc2  1  0.50000000  0.50000000  -0.00000000  1
  Hg  Hg0  1  0.00000000  -0.00000000  -0.00000000  1
loop_
_geom_bond_atom_site_label_1
_geom_bond_atom_site_label_2
_geom_bond_distance
_geom_bond_site_symmetry_2
Sc0 Sc1 3.156986 1_455
Sc0 Sc1 3.156986 1_555
Sc0 Sc1 3.156986 1_565
Sc0 Sc1 3.156986 1_465
Sc0 Sc2 3.156987 1_455
Sc0 Sc2 3.156987 1_555
Sc0 Sc2 3.156987 1_456
Sc0 Sc2 3.156987 1_556
Sc1 Sc2 3.156982 1_555
Sc1 Sc2 3.156982 1_546
Sc1 Sc2 3.156982 1_545
Sc1 Sc2 3.156982 1_556
Hg0 Sc0 3.156982 1_555
Hg0 Sc0 3.156982 1_554
Hg0 Sc0 3.156982 1_544
Hg0 Sc0 3.156982 1_545
Hg0 Sc2 3.156986 1_455
Hg0 Sc2 3.156986 1_545
Hg0 Sc2 3.156986 1_445
Hg0 Sc2 3.156986 1_555
Hg0 Sc1 3.156987 1_454
Hg0 Sc1 3.156987 1_554
Hg0 Sc1 3.156987 1_555
Hg0 Sc1 3.156987 1_455
