# generated using pymatgen
data_Ta2Cr3Cu
_symmetry_space_group_name_H-M   'P 1'
_cell_length_a   4.79264807
_cell_length_b   4.79264807
_cell_length_c   8.32320900
_cell_angle_alpha   90.00000000
_cell_angle_beta   90.00000000
_cell_angle_gamma   120.00000096
_symmetry_Int_Tables_number   1
_chemical_formula_structural   Ta2Cr3Cu
_chemical_formula_sum   'Ta4 Cr6 Cu2'
_cell_volume   165.56651458
_cell_formula_units_Z   2
loop_
 _symmetry_equiv_pos_site_id
 _symmetry_equiv_pos_as_xyz
  1  'x, y, z'
loop_
 _atom_site_type_symbol
 _atom_site_label
 _atom_site_symmetry_multiplicity
 _atom_site_fract_x
 _atom_site_fract_y
 _atom_site_fract_z
 _atom_site_occupancy
  Ta  Ta0  1  0.33333300  0.66666700  0.43388200  1
  Ta  Ta1  1  0.66666700  0.33333300  0.56611800  1
  Ta  Ta2  1  0.66666700  0.33333300  0.93388200  1
  Ta  Ta3  1  0.33333300  0.66666700  0.06611800  1
  Cr  Cr0  1  0.82880800  0.17119200  0.25000000  1
  Cr  Cr1  1  0.82880800  0.65761600  0.25000000  1
  Cr  Cr2  1  0.34238400  0.17119200  0.25000000  1
  Cr  Cr3  1  0.17119200  0.82880800  0.75000000  1
  Cr  Cr4  1  0.17119200  0.34238400  0.75000000  1
  Cr  Cr5  1  0.65761600  0.82880800  0.75000000  1
  Cu  Cu0  1  0.00000000  0.00000000  0.50000000  1
  Cu  Cu1  1  0.00000000  0.00000000  0.00000000  1
loop_
_geom_bond_atom_site_label_1
_geom_bond_atom_site_label_2
_geom_bond_distance
_geom_bond_site_symmetry_2
Ta0 Ta1 2.977895 1_565
Ta0 Ta1 2.977895 1_455
Ta0 Ta1 2.977903 1_555
Ta0 Ta3 3.060977 1_555
Ta1 Ta2 3.060977 1_555
Ta2 Ta3 2.977895 1_546
Ta2 Ta3 2.977895 1_656
Ta2 Ta3 2.977903 1_556
Cr0 Cr2 2.331259 1_555
Cr0 Cr1 2.331259 1_555
Cr0 Cr2 2.461389 1_655
Cr0 Cr1 2.461389 1_545
Cr0 Cu1 2.519765 1_655
Cr0 Cu0 2.519765 1_655
Cr0 Ta3 2.843620 1_545
Cr0 Ta0 2.843620 1_545
Cr0 Ta0 2.843620 1_655
Cr0 Ta3 2.843620 1_655
Cr0 Ta2 2.955394 1_554
Cr0 Ta1 2.955394 1_555
Cr1 Cr2 2.331259 1_555
Cr1 Cr2 2.461389 1_665
Cr1 Cu1 2.519765 1_665
Cr1 Cu0 2.519765 1_665
Cr1 Ta0 2.843618 1_655
Cr1 Ta3 2.843618 1_655
Cr1 Ta3 2.843622 1_555
Cr1 Ta0 2.843622 1_555
Cr1 Ta2 2.955396 1_554
Cr1 Ta1 2.955396 1_555
Cr2 Cu1 2.519765 1_555
Cr2 Cu0 2.519765 1_555
Cr2 Ta3 2.843618 1_545
Cr2 Ta0 2.843618 1_545
Cr2 Ta3 2.843622 1_555
Cr2 Ta0 2.843622 1_555
Cr2 Ta2 2.955396 1_554
Cr2 Ta1 2.955396 1_555
Cr3 Cr5 2.331259 1_555
Cr3 Cr4 2.331259 1_555
Cr3 Cr5 2.461389 1_455
Cr3 Cr4 2.461389 1_565
Cr3 Cu1 2.519765 1_566
Cr3 Cu0 2.519765 1_565
Cr3 Ta1 2.843620 1_455
Cr3 Ta2 2.843620 1_455
Cr3 Ta1 2.843620 1_565
Cr3 Ta2 2.843620 1_565
Cr3 Ta3 2.955394 1_556
Cr3 Ta0 2.955394 1_555
Cr4 Cr5 2.331259 1_555
Cr4 Cr5 2.461389 1_445
Cr4 Cu0 2.519765 1_555
Cr4 Cu1 2.519765 1_556
Cr4 Ta1 2.843618 1_455
Cr4 Ta2 2.843618 1_455
Cr4 Ta1 2.843622 1_555
Cr4 Ta2 2.843622 1_555
Cr4 Ta3 2.955396 1_556
Cr4 Ta0 2.955396 1_555
Cr5 Cu1 2.519765 1_666
Cr5 Cu0 2.519765 1_665
Cr5 Ta1 2.843618 1_565
Cr5 Ta2 2.843618 1_565
Cr5 Ta1 2.843622 1_555
Cr5 Ta2 2.843622 1_555
Cr5 Ta3 2.955396 1_556
Cr5 Ta0 2.955396 1_555
Cu0 Ta1 2.821227 1_455
Cu0 Ta0 2.821227 1_545
Cu0 Ta1 2.821231 1_445
Cu0 Ta0 2.821231 1_555
Cu0 Ta0 2.821231 1_445
Cu0 Ta1 2.821231 1_555
Cu1 Ta2 2.821227 1_454
Cu1 Ta3 2.821227 1_545
Cu1 Ta3 2.821231 1_445
Cu1 Ta2 2.821231 1_444
Cu1 Ta3 2.821231 1_555
Cu1 Ta2 2.821231 1_554
