# generated using pymatgen
data_Cs2P3
_symmetry_space_group_name_H-M   'P 1'
_cell_length_a   6.92887099
_cell_length_b   6.92887056
_cell_length_c   8.92650558
_cell_angle_alpha   111.25516941
_cell_angle_beta   111.25516933
_cell_angle_gamma   93.77973842
_symmetry_Int_Tables_number   1
_chemical_formula_structural   Cs2P3
_chemical_formula_sum   'Cs4 P6'
_cell_volume   362.49833601
_cell_formula_units_Z   2
loop_
 _symmetry_equiv_pos_site_id
 _symmetry_equiv_pos_as_xyz
  1  'x, y, z'
loop_
 _atom_site_type_symbol
 _atom_site_label
 _atom_site_symmetry_multiplicity
 _atom_site_fract_x
 _atom_site_fract_y
 _atom_site_fract_z
 _atom_site_occupancy
  Cs  Cs0  1  0.75000000  0.25000000  0.50000000  1
  Cs  Cs1  1  0.25000000  0.75000000  0.50000000  1
  Cs  Cs2  1  0.71398132  0.28601868  0.00000000  1
  Cs  Cs3  1  0.28601868  0.71398132  -0.00000000  1
  P  P0  1  0.73307809  0.73307809  0.85812936  1
  P  P1  1  0.87494873  0.87494873  0.14187064  1
  P  P2  1  0.26692191  0.26692191  0.14187064  1
  P  P3  1  0.12505127  0.12505127  0.85812936  1
  P  P4  1  0.85747846  0.85747846  0.71495891  1
  P  P5  1  0.14252154  0.14252154  0.28504109  1
loop_
_geom_bond_atom_site_label_1
_geom_bond_atom_site_label_2
_geom_bond_distance
_geom_bond_site_symmetry_2
Cs0 P1 3.741983 1_545
Cs0 P0 3.741983 1_555
Cs0 P3 3.741983 1_655
Cs0 P2 3.741983 1_555
Cs0 P4 3.827285 1_555
Cs0 P5 3.827286 1_555
Cs0 P4 3.827297 1_545
Cs0 P5 3.827297 1_655
Cs1 P3 3.741983 1_565
Cs1 P2 3.741983 1_555
Cs1 P1 3.741983 1_455
Cs1 P0 3.741983 1_555
Cs1 P5 3.827285 1_555
Cs1 P4 3.827286 1_555
Cs1 P5 3.827297 1_565
Cs1 P4 3.827297 1_455
Cs2 P1 3.601426 1_545
Cs2 P0 3.601426 1_544
Cs2 P3 3.601426 1_654
Cs2 P2 3.601427 1_655
Cs2 P4 3.609026 1_544
Cs2 P5 3.609026 1_655
Cs2 P0 3.758753 1_554
Cs2 P1 3.758753 1_555
Cs2 P2 3.758754 1_555
Cs2 P3 3.758754 1_554
Cs3 P3 3.601426 1_564
Cs3 P2 3.601426 1_565
Cs3 P1 3.601426 1_455
Cs3 P0 3.601427 1_454
Cs3 P5 3.609026 1_565
Cs3 P4 3.609026 1_454
Cs3 P2 3.758753 1_555
Cs3 P3 3.758753 1_554
Cs3 P0 3.758754 1_554
Cs3 P1 3.758754 1_555
P0 P1 2.147085 1_556
P0 P4 2.149114 1_555
P1 P5 2.149130 1_665
P2 P3 2.147085 1_554
P2 P5 2.149114 1_555
P3 P4 2.149130 1_445
