# generated using pymatgen
data_Nb6CuSe8
_symmetry_space_group_name_H-M   'P 1'
_cell_length_a   10.05584815
_cell_length_b   10.05584815
_cell_length_c   3.47619500
_cell_angle_alpha   90.00000000
_cell_angle_beta   90.00000000
_cell_angle_gamma   120.00000100
_symmetry_Int_Tables_number   1
_chemical_formula_structural   Nb6CuSe8
_chemical_formula_sum   'Nb6 Cu1 Se8'
_cell_volume   304.41929177
_cell_formula_units_Z   1
loop_
 _symmetry_equiv_pos_site_id
 _symmetry_equiv_pos_as_xyz
  1  'x, y, z'
loop_
 _atom_site_type_symbol
 _atom_site_label
 _atom_site_symmetry_multiplicity
 _atom_site_fract_x
 _atom_site_fract_y
 _atom_site_fract_z
 _atom_site_occupancy
  Nb  Nb0  1  0.10798100  0.62041600  0.24978300  1
  Nb  Nb1  1  0.51243500  0.89201900  0.24978300  1
  Nb  Nb2  1  0.37958400  0.48756500  0.24978300  1
  Nb  Nb3  1  0.89201900  0.37958400  0.75021700  1
  Nb  Nb4  1  0.48756500  0.10798100  0.75021700  1
  Nb  Nb5  1  0.62041600  0.51243500  0.75021700  1
  Cu  Cu0  1  0.00000000  0.00000000  0.50000000  1
  Se  Se0  1  0.27626800  0.94221700  0.25169700  1
  Se  Se1  1  0.66594900  0.72373200  0.25169700  1
  Se  Se2  1  0.05778300  0.33405100  0.25169700  1
  Se  Se3  1  0.72373200  0.05778300  0.74830300  1
  Se  Se4  1  0.33405100  0.27626800  0.74830300  1
  Se  Se5  1  0.94221700  0.66594900  0.74830300  1
  Se  Se6  1  0.66666700  0.33333300  0.24959100  1
  Se  Se7  1  0.33333300  0.66666700  0.75040900  1
loop_
_geom_bond_atom_site_label_1
_geom_bond_atom_site_label_2
_geom_bond_distance
_geom_bond_site_symmetry_2
Nb0 Se5 2.598951 1_455
Nb0 Se5 2.605824 1_454
Nb0 Se2 2.663381 1_555
Nb0 Se7 2.703890 1_554
Nb0 Se7 2.706686 1_555
Nb0 Se0 2.803435 1_555
Nb1 Se3 2.598951 1_565
Nb1 Se3 2.605823 1_564
Nb1 Se0 2.663381 1_555
Nb1 Se7 2.703892 1_554
Nb1 Se7 2.706688 1_555
Nb1 Se1 2.803435 1_555
Nb2 Se4 2.598951 1_555
Nb2 Se4 2.605824 1_554
Nb2 Se1 2.663381 1_555
Nb2 Se7 2.703897 1_554
Nb2 Se7 2.706693 1_555
Nb2 Se2 2.803435 1_555
Nb3 Se2 2.598951 1_655
Nb3 Se2 2.605824 1_656
Nb3 Se5 2.663381 1_555
Nb3 Se6 2.703890 1_556
Nb3 Se6 2.706686 1_555
Nb3 Se3 2.803435 1_555
Nb4 Se0 2.598951 1_545
Nb4 Se0 2.605823 1_546
Nb4 Se3 2.663381 1_555
Nb4 Se6 2.703892 1_556
Nb4 Se6 2.706688 1_555
Nb4 Se4 2.803435 1_555
Nb5 Se1 2.598951 1_555
Nb5 Se1 2.605824 1_556
Nb5 Se4 2.663381 1_555
Nb5 Se6 2.703897 1_556
Nb5 Se6 2.706693 1_555
Nb5 Se5 2.803435 1_555
Cu0 Se1 3.227194 1_445
Cu0 Se4 3.227194 1_555
Cu0 Se5 3.227195 1_445
Cu0 Se2 3.227195 1_555
Cu0 Se3 3.227195 1_455
Cu0 Se0 3.227195 1_545
