# generated using pymatgen
data_LiLu(SO4)2
_symmetry_space_group_name_H-M   'P 1'
_cell_length_a   7.41475800
_cell_length_b   7.41081800
_cell_length_c   5.90594400
_cell_angle_alpha   90.00000000
_cell_angle_beta   90.00000000
_cell_angle_gamma   90.00000000
_symmetry_Int_Tables_number   1
_chemical_formula_structural   LiLu(SO4)2
_chemical_formula_sum   'Li2 Lu2 S4 O16'
_cell_volume   324.52820947
_cell_formula_units_Z   2
loop_
 _symmetry_equiv_pos_site_id
 _symmetry_equiv_pos_as_xyz
  1  'x, y, z'
loop_
 _atom_site_type_symbol
 _atom_site_label
 _atom_site_symmetry_multiplicity
 _atom_site_fract_x
 _atom_site_fract_y
 _atom_site_fract_z
 _atom_site_occupancy
  Li  Li0  1  0.50000000  0.50000000  0.00879200  1
  Li  Li1  1  0.00000000  0.00000000  0.50879200  1
  Lu  Lu0  1  0.50000000  0.50000000  0.50891900  1
  Lu  Lu1  1  0.00000000  0.00000000  0.00891900  1
  S  S0  1  0.77449500  0.22535400  0.50876300  1
  S  S1  1  0.22550500  0.77464600  0.50876300  1
  S  S2  1  0.72550500  0.72535400  0.00876300  1
  S  S3  1  0.27449500  0.27464600  0.00876300  1
  O  O0  1  0.79162000  0.41253300  0.59293300  1
  O  O1  1  0.20838000  0.58746700  0.59293300  1
  O  O2  1  0.70838000  0.91253300  0.09293300  1
  O  O3  1  0.29162000  0.08746700  0.09293300  1
  O  O4  1  0.81839600  0.09222800  0.69464200  1
  O  O5  1  0.18160400  0.90777200  0.69464200  1
  O  O6  1  0.68160400  0.59222800  0.19464200  1
  O  O7  1  0.31839700  0.40777200  0.19464200  1
  O  O8  1  0.58728700  0.20832100  0.42458600  1
  O  O9  1  0.41271300  0.79167900  0.42458600  1
  O  O10  1  0.91271300  0.70832100  0.92458600  1
  O  O11  1  0.08728700  0.29167900  0.92458600  1
  O  O12  1  0.90746200  0.18143100  0.32272000  1
  O  O13  1  0.09253800  0.81856900  0.32272000  1
  O  O14  1  0.59253800  0.68143100  0.82272000  1
  O  O15  1  0.40746200  0.31856900  0.82272000  1
loop_
_geom_bond_atom_site_label_1
_geom_bond_atom_site_label_2
_geom_bond_distance
_geom_bond_site_symmetry_2
Li0 O7 1.866841 1_555
Li0 O6 1.866847 1_555
Li0 O14 1.867155 1_554
Li0 O15 1.867155 1_554
Li1 O4 1.866847 1_455
Li1 O5 1.866847 1_545
Li1 O12 1.867155 1_455
Li1 O13 1.867155 1_545
Lu0 O9 2.310710 1_555
Lu0 O8 2.310710 1_555
Lu0 O1 2.311248 1_555
Lu0 O0 2.311248 1_555
Lu0 O14 2.390252 1_555
Lu0 O15 2.390252 1_555
Lu0 O7 2.392790 1_555
Lu0 O6 2.392794 1_555
Lu1 O11 2.310710 1_554
Lu1 O10 2.310710 1_444
Lu1 O3 2.311248 1_555
Lu1 O2 2.311248 1_445
Lu1 O12 2.390252 1_455
Lu1 O13 2.390252 1_545
Lu1 O4 2.392794 1_454
Lu1 O5 2.392794 1_544
O0 S0 1.478992 1_555
O1 S1 1.478992 1_555
O2 S2 1.478992 1_555
O3 S3 1.478992 1_555
O4 S0 1.511433 1_555
O5 S1 1.511433 1_555
O6 S2 1.511433 1_555
O7 S3 1.511435 1_555
O8 S0 1.479836 1_555
O9 S1 1.479836 1_555
O10 S2 1.479836 1_556
O11 S3 1.479836 1_556
O12 S0 1.511708 1_555
O13 S1 1.511708 1_555
O14 S2 1.511708 1_556
O15 S3 1.511708 1_556
