# generated using pymatgen
data_SrMn2(SiO5)2
_symmetry_space_group_name_H-M   'P 1'
_cell_length_a   13.36144621
_cell_length_b   5.36332758
_cell_length_c   5.23951736
_cell_angle_alpha   66.12346704
_cell_angle_beta   90.00000000
_cell_angle_gamma   90.00000000
_symmetry_Int_Tables_number   1
_chemical_formula_structural   SrMn2(SiO5)2
_chemical_formula_sum   'Sr2 Mn4 Si4 O20'
_cell_volume   343.34023806
_cell_formula_units_Z   2
loop_
 _symmetry_equiv_pos_site_id
 _symmetry_equiv_pos_as_xyz
  1  'x, y, z'
loop_
 _atom_site_type_symbol
 _atom_site_label
 _atom_site_symmetry_multiplicity
 _atom_site_fract_x
 _atom_site_fract_y
 _atom_site_fract_z
 _atom_site_occupancy
  Sr  Sr0  1  0.75000000  0.36463799  0.32753709  1
  Sr  Sr1  1  0.25000000  0.63536201  0.67246291  1
  Mn  Mn0  1  0.50000000  -0.00000000  0.50000000  1
  Mn  Mn1  1  0.50000000  0.50000000  0.00000000  1
  Mn  Mn2  1  0.00000000  -0.00000000  0.50000000  1
  Mn  Mn3  1  0.00000000  0.50000000  0.00000000  1
  Si  Si0  1  0.63189759  0.97678560  0.98647324  1
  Si  Si1  1  0.36810241  0.02321440  0.01352676  1
  Si  Si2  1  0.86810241  0.97678560  0.98647324  1
  Si  Si3  1  0.13189759  0.02321440  0.01352676  1
  O  O0  1  0.61026332  0.11527382  0.65749719  1
  O  O1  1  0.39775513  0.33997096  0.87164879  1
  O  O2  1  0.88973668  0.11527382  0.65749719  1
  O  O3  1  0.10224487  0.33997096  0.87164879  1
  O  O4  1  0.38973668  0.88472618  0.34250281  1
  O  O5  1  0.60224487  0.66002904  0.12835121  1
  O  O6  1  0.11026332  0.88472618  0.34250281  1
  O  O7  1  0.89775513  0.66002904  0.12835121  1
  O  O8  1  0.57235833  0.14809003  0.14407010  1
  O  O9  1  0.42764167  0.85190997  0.85592990  1
  O  O10  1  0.92764167  0.14809003  0.14407010  1
  O  O11  1  0.07235833  0.85190997  0.85592990  1
  O  O12  1  0.05152040  0.34346869  0.35160463  1
  O  O13  1  0.94847960  0.65653131  0.64839537  1
  O  O14  1  0.44847960  0.34346869  0.35160463  1
  O  O15  1  0.55152040  0.65653131  0.64839537  1
  O  O16  1  0.75000000  0.99589482  0.06394539  1
  O  O17  1  0.25000000  0.00410518  0.93605461  1
  O  O18  1  0.75000000  0.55154957  0.73435669  1
  O  O19  1  0.25000000  0.44845043  0.26564331  1
loop_
_geom_bond_atom_site_label_1
_geom_bond_atom_site_label_2
_geom_bond_distance
_geom_bond_site_symmetry_2
Mn0 O14 1.819995 1_555
Mn0 O15 1.819995 1_545
Mn0 O4 1.909650 1_545
Mn0 O0 1.909650 1_555
Mn0 O9 1.960697 1_545
Mn0 O8 1.960697 1_555
Mn1 O15 1.822222 1_554
Mn1 O14 1.822222 1_555
Mn1 O1 1.876835 1_554
Mn1 O5 1.876835 1_555
Mn1 O9 1.978252 1_554
Mn1 O8 1.978252 1_555
Mn2 O12 1.819995 1_555
Mn2 O13 1.819995 1_445
Mn2 O2 1.909650 1_455
Mn2 O6 1.909650 1_545
Mn2 O11 1.960697 1_545
Mn2 O10 1.960697 1_455
Mn3 O12 1.822222 1_555
Mn3 O13 1.822222 1_454
Mn3 O7 1.876835 1_455
Mn3 O3 1.876835 1_554
Mn3 O11 1.978252 1_554
Mn3 O10 1.978252 1_455
O0 Si0 1.603085 1_545
O0 Sr0 2.528196 1_555
O1 Si1 1.604176 1_556
O1 Sr1 2.481568 1_555
O2 Si2 1.603085 1_545
O2 Sr0 2.528196 1_555
O3 Si3 1.604176 1_556
O3 Sr1 2.481568 1_555
O4 Si1 1.603085 1_565
O4 Sr1 2.528196 1_555
O5 Si0 1.604176 1_554
O5 Sr0 2.481568 1_555
O6 Si3 1.603085 1_565
O6 Sr1 2.528196 1_555
O7 Si2 1.604176 1_554
O7 Sr0 2.481568 1_555
O8 Si0 1.665226 1_544
O8 Sr0 2.968246 1_555
O9 Si1 1.665226 1_566
O9 Sr1 2.968246 1_555
O10 Si2 1.665226 1_544
O10 Sr0 2.968246 1_555
O11 Si3 1.665226 1_566
O11 Sr1 2.968246 1_555
O16 Si0 1.642892 1_554
O16 Si2 1.642892 1_554
O16 Sr0 2.833694 1_565
O16 Sr0 3.095912 1_555
O17 Si1 1.642892 1_556
O17 Si3 1.642892 1_556
O17 Sr1 2.833694 1_545
O17 Sr1 3.095912 1_555
O18 Sr0 2.697816 1_555
O18 Sr0 2.853463 1_556
O19 Sr1 2.697816 1_555
O19 Sr1 2.853463 1_554
