# generated using pymatgen
data_Ba2NbFeO6
_symmetry_space_group_name_H-M   'P 1'
_cell_length_a   5.80921314
_cell_length_b   5.80925698
_cell_length_c   10.06197764
_cell_angle_alpha   106.77538230
_cell_angle_beta   73.22434014
_cell_angle_gamma   119.99681908
_symmetry_Int_Tables_number   1
_chemical_formula_structural   Ba2NbFeO6
_chemical_formula_sum   'Ba4 Nb2 Fe2 O12'
_cell_volume   277.26721103
_cell_formula_units_Z   2
loop_
 _symmetry_equiv_pos_site_id
 _symmetry_equiv_pos_as_xyz
  1  'x, y, z'
loop_
 _atom_site_type_symbol
 _atom_site_label
 _atom_site_symmetry_multiplicity
 _atom_site_fract_x
 _atom_site_fract_y
 _atom_site_fract_z
 _atom_site_occupancy
  Ba  Ba0  1  0.62499800  0.37499400  0.12499300  1
  Ba  Ba1  1  0.12500000  0.87499800  0.62499100  1
  Ba  Ba2  1  0.87499300  0.12500300  0.37501200  1
  Ba  Ba3  1  0.37500600  0.62500400  0.87499800  1
  Nb  Nb0  1  0.24999600  0.75000400  0.25001700  1
  Nb  Nb1  1  0.75001400  0.24999900  0.74998400  1
  Fe  Fe0  1  0.50001200  0.49999200  0.49999500  1
  Fe  Fe1  1  0.00000900  0.00001200  0.00000000  1
  O  O0  1  0.12639500  0.37916300  0.12638100  1
  O  O1  1  0.62639700  0.87917300  0.62638900  1
  O  O2  1  0.37360900  0.62639200  0.37362000  1
  O  O3  1  0.87361500  0.12639000  0.87363000  1
  O  O4  1  0.62083300  0.87360100  0.12638000  1
  O  O5  1  0.12082200  0.37360100  0.62639000  1
  O  O6  1  0.37359400  0.12082300  0.37361200  1
  O  O7  1  0.87360200  0.62083400  0.87362100  1
  O  O8  1  0.12638600  0.87361200  0.12637300  1
  O  O9  1  0.62638500  0.37361000  0.62638000  1
  O  O10  1  0.87917300  0.62639800  0.37361300  1
  O  O11  1  0.37916000  0.12639700  0.87362300  1
loop_
_geom_bond_atom_site_label_1
_geom_bond_atom_site_label_2
_geom_bond_distance
_geom_bond_site_symmetry_2
Ba0 O11 2.904612 1_554
Ba0 O7 2.904629 1_554
Ba0 O0 2.904658 1_555
Ba0 O3 2.904662 1_554
Ba0 O4 2.904694 1_555
Ba0 O0 2.904734 1_655
Ba0 O4 2.904742 1_545
Ba0 O8 2.904829 1_545
Ba0 O6 2.904839 1_555
Ba0 O8 2.904863 1_655
Ba0 O10 2.904866 1_555
Ba0 O2 2.904934 1_555
Ba1 O1 2.904647 1_455
Ba1 O6 2.904648 1_565
Ba1 O10 2.904651 1_455
Ba1 O5 2.904675 1_565
Ba1 O2 2.904691 1_555
Ba1 O1 2.904747 1_555
Ba1 O5 2.904763 1_555
Ba1 O9 2.904838 1_565
Ba1 O9 2.904855 1_455
Ba1 O7 2.904914 1_455
Ba1 O11 2.904926 1_565
Ba1 O3 2.904974 1_465
Ba2 O6 2.904644 1_655
Ba2 O1 2.904644 1_545
Ba2 O5 2.904657 1_655
Ba2 O9 2.904674 1_555
Ba2 O10 2.904692 1_545
Ba2 O10 2.904746 1_555
Ba2 O6 2.904750 1_555
Ba2 O2 2.904832 1_545
Ba2 O2 2.904861 1_655
Ba2 O0 2.904911 1_655
Ba2 O4 2.904926 1_545
Ba2 O8 2.904994 1_645
Ba3 O7 2.904652 1_555
Ba3 O4 2.904686 1_556
Ba3 O11 2.904696 1_555
Ba3 O0 2.904729 1_556
Ba3 O11 2.904738 1_565
Ba3 O7 2.904740 1_455
Ba3 O1 2.904746 1_555
Ba3 O8 2.904752 1_556
Ba3 O5 2.904788 1_555
Ba3 O3 2.904831 1_565
Ba3 O9 2.904842 1_555
Ba3 O3 2.904860 1_455
Nb0 O2 2.030949 1_555
Nb0 O6 2.031026 1_565
Nb0 O10 2.031027 1_455
Nb0 O4 2.031253 1_555
Nb0 O8 2.031257 1_555
Nb0 O0 2.031285 1_555
Nb1 O5 2.030957 1_655
Nb1 O9 2.031019 1_555
Nb1 O1 2.031055 1_545
Nb1 O3 2.031241 1_555
Nb1 O7 2.031264 1_555
Nb1 O11 2.031331 1_555
Fe0 O9 2.076520 1_555
Fe0 O2 2.076635 1_555
Fe0 O10 2.076723 1_555
Fe0 O6 2.076780 1_555
Fe0 O1 2.076875 1_555
Fe0 O5 2.076896 1_555
Fe1 O3 2.076466 1_454
Fe1 O8 2.076511 1_545
Fe1 O11 2.076661 1_554
Fe1 O0 2.076698 1_555
Fe1 O4 2.076776 1_445
Fe1 O7 2.076801 1_444
