# generated using pymatgen
data_Na2VF5
_symmetry_space_group_name_H-M   'P 1'
_cell_length_a   5.25890410
_cell_length_b   7.40242381
_cell_length_c   10.85317067
_cell_angle_alpha   72.05280009
_cell_angle_beta   90.00000000
_cell_angle_gamma   90.00000000
_symmetry_Int_Tables_number   1
_chemical_formula_structural   Na2VF5
_chemical_formula_sum   'Na8 V4 F20'
_cell_volume   401.94070511
_cell_formula_units_Z   4
loop_
 _symmetry_equiv_pos_site_id
 _symmetry_equiv_pos_as_xyz
  1  'x, y, z'
loop_
 _atom_site_type_symbol
 _atom_site_label
 _atom_site_symmetry_multiplicity
 _atom_site_fract_x
 _atom_site_fract_y
 _atom_site_fract_z
 _atom_site_occupancy
  Na  Na0  1  0.93349797  0.34694150  0.31635450  1
  Na  Na1  1  0.43349797  0.65305850  0.18364550  1
  Na  Na2  1  0.06650203  0.65305850  0.68364550  1
  Na  Na3  1  0.56650203  0.34694150  0.81635450  1
  Na  Na4  1  0.49412816  0.15198972  0.13161036  1
  Na  Na5  1  0.99412816  0.84801028  0.36838964  1
  Na  Na6  1  0.50587184  0.84801028  0.86838964  1
  Na  Na7  1  0.00587184  0.15198972  0.63161036  1
  V  V0  1  0.50000000  0.50000000  0.50000000  1
  V  V1  1  -0.00000000  0.50000000  0.00000000  1
  V  V2  1  0.50000000  0.00000000  0.50000000  1
  V  V3  1  -0.00000000  0.00000000  0.00000000  1
  F  F0  1  0.76206670  0.48438910  0.62497085  1
  F  F1  1  0.26206670  0.51561090  0.87502915  1
  F  F2  1  0.23793330  0.51561090  0.37502915  1
  F  F3  1  0.73793330  0.48438910  0.12497085  1
  F  F4  1  0.71918109  0.61927220  0.35787909  1
  F  F5  1  0.21918109  0.38072780  0.14212091  1
  F  F6  1  0.28081891  0.38072780  0.64212091  1
  F  F7  1  0.78081891  0.61927220  0.85787909  1
  F  F8  1  0.65075337  0.25093281  0.49636549  1
  F  F9  1  0.15075337  0.74906719  0.00363451  1
  F  F10  1  0.34924663  0.74906719  0.50363451  1
  F  F11  1  0.84924663  0.25093281  0.99636549  1
  F  F12  1  0.84540930  0.05164849  0.83127350  1
  F  F13  1  0.34540930  0.94835151  0.66872650  1
  F  F14  1  0.15459070  0.94835151  0.16872650  1
  F  F15  1  0.65459070  0.05164849  0.33127350  1
  F  F16  1  0.68667442  0.89009654  0.07417578  1
  F  F17  1  0.18667442  0.10990346  0.42582422  1
  F  F18  1  0.31332558  0.10990346  0.92582422  1
  F  F19  1  0.81332558  0.89009654  0.57417578  1
loop_
_geom_bond_atom_site_label_1
_geom_bond_atom_site_label_2
_geom_bond_distance
_geom_bond_site_symmetry_2
F0 V0 1.912010 1_555
F0 Na2 2.240004 1_655
F0 Na3 2.259407 1_555
F0 Na7 2.755755 1_655
F1 V1 1.912010 1_556
F1 Na3 2.240004 1_555
F1 Na2 2.259407 1_555
F1 Na6 2.755755 1_555
F2 V0 1.912010 1_555
F2 Na0 2.240004 1_455
F2 Na1 2.259407 1_555
F2 Na5 2.755755 1_455
F3 V1 1.912010 1_655
F3 Na1 2.240004 1_555
F3 Na0 2.259407 1_555
F3 Na4 2.755755 1_555
F4 V0 1.909984 1_555
F4 Na5 2.256039 1_555
F4 Na1 2.367291 1_555
F4 Na0 2.469247 1_555
F5 V1 1.909984 1_555
F5 Na4 2.256039 1_555
F5 Na0 2.367291 1_455
F5 Na1 2.469247 1_555
F6 V0 1.909984 1_555
F6 Na7 2.256039 1_555
F6 Na3 2.367291 1_555
F6 Na2 2.469247 1_555
F7 V1 1.909984 1_656
F7 Na6 2.256039 1_555
F7 Na2 2.367291 1_655
F7 Na3 2.469247 1_555
F8 V2 2.008799 1_555
F8 V0 2.018449 1_555
F8 Na7 2.348641 1_655
F8 Na0 2.382698 1_555
F9 V3 2.008799 1_565
F9 V1 2.018449 1_555
F9 Na6 2.348641 1_554
F9 Na1 2.382698 1_555
F10 V2 2.008799 1_565
F10 V0 2.018449 1_555
F10 Na5 2.348641 1_455
F10 Na2 2.382698 1_555
F11 V3 2.008799 1_656
F11 V1 2.018449 1_656
F11 Na4 2.348641 1_556
F11 Na3 2.382698 1_555
F12 V3 1.931060 1_656
F12 Na7 2.228823 1_655
F12 Na6 2.291004 1_545
F12 Na3 2.595675 1_555
F13 V2 1.931060 1_565
F13 Na6 2.228823 1_555
F13 Na7 2.291004 1_565
F13 Na2 2.595675 1_555
F14 V3 1.931060 1_565
F14 Na5 2.228823 1_455
F14 Na4 2.291004 1_565
F14 Na1 2.595675 1_555
F15 V2 1.931060 1_555
F15 Na4 2.228823 1_555
F15 Na5 2.291004 1_545
F15 Na0 2.595675 1_555
F16 V3 1.903000 1_665
F16 Na1 2.231218 1_555
F16 Na4 2.432482 1_565
F16 Na6 2.533407 1_554
F17 V2 1.903000 1_555
F17 Na0 2.231218 1_455
F17 Na5 2.432482 1_445
F17 Na7 2.533407 1_555
F18 V3 1.903000 1_556
F18 Na3 2.231218 1_555
F18 Na6 2.432482 1_545
F18 Na4 2.533407 1_556
F19 V2 1.903000 1_565
F19 Na2 2.231218 1_655
F19 Na7 2.432482 1_665
F19 Na5 2.533407 1_555
