# generated using pymatgen
data_YbBeF4
_symmetry_space_group_name_H-M   'P 1'
_cell_length_a   6.23536811
_cell_length_b   6.52319558
_cell_length_c   6.70757400
_cell_angle_alpha   90.00000000
_cell_angle_beta   90.00000000
_cell_angle_gamma   104.50015240
_symmetry_Int_Tables_number   1
_chemical_formula_structural   YbBeF4
_chemical_formula_sum   'Yb4 Be4 F16'
_cell_volume   264.13701308
_cell_formula_units_Z   4
loop_
 _symmetry_equiv_pos_site_id
 _symmetry_equiv_pos_as_xyz
  1  'x, y, z'
loop_
 _atom_site_type_symbol
 _atom_site_label
 _atom_site_symmetry_multiplicity
 _atom_site_fract_x
 _atom_site_fract_y
 _atom_site_fract_z
 _atom_site_occupancy
  Yb  Yb0  1  0.40487400  0.22047600  0.65297200  1
  Yb  Yb1  1  0.90487400  0.72047600  0.84702800  1
  Yb  Yb2  1  0.59512600  0.77952400  0.34702800  1
  Yb  Yb3  1  0.09512600  0.27952400  0.15297200  1
  Be  Be0  1  0.88755700  0.19853600  0.66179300  1
  Be  Be1  1  0.38755700  0.69853600  0.83820700  1
  Be  Be2  1  0.11244300  0.80146400  0.33820700  1
  Be  Be3  1  0.61244300  0.30146400  0.16179300  1
  F  F0  1  0.07215000  0.25007200  0.49976200  1
  F  F1  1  0.57215000  0.75007300  0.00023800  1
  F  F2  1  0.92785000  0.74992700  0.50023800  1
  F  F3  1  0.42785000  0.24992700  0.99976200  1
  F  F4  1  0.99729700  0.11136700  0.84221200  1
  F  F5  1  0.49729700  0.61136700  0.65778800  1
  F  F6  1  0.00270300  0.88863300  0.15778800  1
  F  F7  1  0.50270300  0.38863300  0.34221200  1
  F  F8  1  0.67968900  0.02083600  0.60243500  1
  F  F9  1  0.17968900  0.52083600  0.89756500  1
  F  F10  1  0.32031100  0.97916400  0.39756500  1
  F  F11  1  0.82031100  0.47916400  0.10243500  1
  F  F12  1  0.78048900  0.38221500  0.71323900  1
  F  F13  1  0.28048900  0.88221500  0.78676100  1
  F  F14  1  0.21951100  0.61778500  0.28676100  1
  F  F15  1  0.71951100  0.11778500  0.21323900  1
loop_
_geom_bond_atom_site_label_1
_geom_bond_atom_site_label_2
_geom_bond_distance
_geom_bond_site_symmetry_2
Be0 F12 1.549506 1_555
Be0 F0 1.557328 1_655
Be0 F8 1.558779 1_555
Be0 F4 1.565540 1_555
Be1 F13 1.549506 1_555
Be1 F1 1.557329 1_556
Be1 F9 1.558779 1_555
Be1 F5 1.565540 1_555
Be2 F14 1.549506 1_555
Be2 F2 1.557329 1_455
Be2 F10 1.558779 1_555
Be2 F6 1.565540 1_555
Be3 F15 1.549506 1_555
Be3 F3 1.557329 1_554
Be3 F11 1.558779 1_555
Be3 F7 1.565540 1_555
F0 Yb3 2.335484 1_555
F0 Yb0 2.366040 1_555
F1 Yb2 2.335483 1_555
F1 Yb1 2.366042 1_554
F2 Yb1 2.335483 1_555
F2 Yb2 2.366042 1_555
F3 Yb0 2.335483 1_555
F3 Yb3 2.366042 1_556
F4 Yb3 2.363298 1_656
F4 Yb1 2.469631 1_545
F5 Yb2 2.363298 1_555
F5 Yb0 2.469631 1_555
F6 Yb1 2.363298 1_454
F6 Yb3 2.469631 1_565
F7 Yb0 2.363298 1_555
F7 Yb2 2.469631 1_555
F8 Yb2 2.296776 1_545
F8 Yb0 2.421713 1_555
F9 Yb3 2.296776 1_556
F9 Yb1 2.421713 1_455
F10 Yb0 2.296776 1_565
F10 Yb2 2.421713 1_555
F11 Yb1 2.296776 1_554
F11 Yb3 2.421713 1_655
F12 Yb1 2.327810 1_555
F12 Yb0 2.350439 1_555
F13 Yb0 2.327810 1_565
F13 Yb1 2.350439 1_455
F14 Yb3 2.327810 1_555
F14 Yb2 2.350439 1_555
F15 Yb2 2.327810 1_545
F15 Yb3 2.350439 1_655
