# generated using pymatgen
data_Dy2Al
_symmetry_space_group_name_H-M   'P 1'
_cell_length_a   5.08435782
_cell_length_b   6.54640354
_cell_length_c   9.42164648
_cell_angle_alpha   90.00000000
_cell_angle_beta   90.00000000
_cell_angle_gamma   90.00000000
_symmetry_Int_Tables_number   1
_chemical_formula_structural   Dy2Al
_chemical_formula_sum   'Dy8 Al4'
_cell_volume   313.59251252
_cell_formula_units_Z   4
loop_
 _symmetry_equiv_pos_site_id
 _symmetry_equiv_pos_as_xyz
  1  'x, y, z'
loop_
 _atom_site_type_symbol
 _atom_site_label
 _atom_site_symmetry_multiplicity
 _atom_site_fract_x
 _atom_site_fract_y
 _atom_site_fract_z
 _atom_site_occupancy
  Dy  Dy0  1  0.75000000  0.68986168  0.57356347  1
  Dy  Dy1  1  0.75000000  0.18986281  0.92643601  1
  Dy  Dy2  1  0.25000000  0.31013719  0.42643601  1
  Dy  Dy3  1  0.25000000  0.81013832  0.07356347  1
  Dy  Dy4  1  0.75000000  0.52669610  0.20924339  1
  Dy  Dy5  1  0.75000000  0.02669619  0.29075620  1
  Dy  Dy6  1  0.25000000  0.47330381  0.79075620  1
  Dy  Dy7  1  0.25000000  0.97330390  0.70924339  1
  Al  Al0  1  0.75000000  0.20988473  0.60298035  1
  Al  Al1  1  0.75000000  0.70988420  0.89701959  1
  Al  Al2  1  0.25000000  0.79011580  0.39701959  1
  Al  Al3  1  0.25000000  0.29011527  0.10298035  1
loop_
_geom_bond_atom_site_label_1
_geom_bond_atom_site_label_2
_geom_bond_distance
_geom_bond_site_symmetry_2
Dy0 Dy7 3.397025 1_555
Dy0 Dy7 3.397025 1_655
Dy0 Dy5 3.458595 1_565
Dy0 Dy6 3.558072 1_655
Dy0 Dy6 3.558072 1_555
Dy0 Dy4 3.594852 1_555
Dy0 Dy2 3.816219 1_655
Dy0 Dy2 3.816219 1_555
Dy1 Dy6 3.397020 1_555
Dy1 Dy6 3.397020 1_655
Dy1 Dy4 3.458591 1_556
Dy1 Dy7 3.558074 1_645
Dy1 Dy7 3.558074 1_545
Dy1 Dy5 3.594855 1_556
Dy1 Dy3 3.816219 1_546
Dy1 Dy3 3.816219 1_646
Dy2 Dy5 3.397020 1_455
Dy2 Dy5 3.397020 1_555
Dy2 Dy7 3.458591 1_545
Dy2 Dy4 3.558074 1_555
Dy2 Dy4 3.558074 1_455
Dy2 Dy6 3.594855 1_555
Dy3 Dy4 3.397025 1_555
Dy3 Dy4 3.397025 1_455
Dy3 Dy6 3.458595 1_554
Dy3 Dy5 3.558072 1_565
Dy3 Dy5 3.558072 1_465
Dy3 Dy7 3.594852 1_554
Dy4 Dy5 3.362090 1_555
Dy4 Dy5 3.362091 1_565
Dy6 Dy7 3.362090 1_545
Dy6 Dy7 3.362091 1_555
Al0 Dy1 3.050302 1_555
Al0 Dy2 3.108068 1_555
Al0 Dy2 3.108068 1_655
Al0 Dy7 3.140646 1_645
Al0 Dy7 3.140646 1_545
Al0 Dy0 3.154323 1_555
Al0 Dy5 3.176718 1_555
Al0 Dy0 3.415544 1_545
Al0 Dy6 3.544899 1_655
Al0 Dy6 3.544899 1_555
Al1 Dy0 3.050307 1_555
Al1 Dy3 3.108068 1_556
Al1 Dy3 3.108068 1_656
Al1 Dy6 3.140646 1_655
Al1 Dy6 3.140646 1_555
Al1 Dy1 3.154333 1_565
Al1 Dy4 3.176714 1_556
Al1 Dy1 3.415533 1_555
Al1 Dy7 3.544903 1_555
Al1 Dy7 3.544903 1_655
Al2 Dy3 3.050307 1_555
Al2 Dy0 3.108068 1_455
Al2 Dy0 3.108068 1_555
Al2 Dy5 3.140646 1_465
Al2 Dy5 3.140646 1_565
Al2 Dy2 3.154333 1_555
Al2 Dy7 3.176714 1_555
Al2 Dy2 3.415533 1_565
Al2 Dy4 3.544903 1_455
Al2 Dy4 3.544903 1_555
Al3 Dy2 3.050302 1_555
Al3 Dy1 3.108068 1_454
Al3 Dy1 3.108068 1_554
Al3 Dy4 3.140646 1_555
Al3 Dy4 3.140646 1_455
Al3 Dy3 3.154323 1_545
Al3 Dy6 3.176718 1_554
Al3 Dy3 3.415544 1_555
Al3 Dy5 3.544899 1_455
Al3 Dy5 3.544899 1_555
