# generated using pymatgen
data_BaMg6Sn
_symmetry_space_group_name_H-M   'P 1'
_cell_length_a   5.20673100
_cell_length_b   7.06751400
_cell_length_c   12.02173600
_cell_angle_alpha   90.00000000
_cell_angle_beta   90.00000000
_cell_angle_gamma   90.00000000
_symmetry_Int_Tables_number   1
_chemical_formula_structural   BaMg6Sn
_chemical_formula_sum   'Ba2 Mg12 Sn2'
_cell_volume   442.38358617
_cell_formula_units_Z   2
loop_
 _symmetry_equiv_pos_site_id
 _symmetry_equiv_pos_as_xyz
  1  'x, y, z'
loop_
 _atom_site_type_symbol
 _atom_site_label
 _atom_site_symmetry_multiplicity
 _atom_site_fract_x
 _atom_site_fract_y
 _atom_site_fract_z
 _atom_site_occupancy
  Ba  Ba0  1  0.50000000  0.50000000  0.17009700  1
  Ba  Ba1  1  0.50000000  0.00000000  0.67009700  1
  Mg  Mg0  1  0.00000000  0.21963400  0.07381300  1
  Mg  Mg1  1  0.00000000  0.78036600  0.07381300  1
  Mg  Mg2  1  0.00000000  0.50000000  0.83202700  1
  Mg  Mg3  1  0.50000000  0.24315600  0.92070400  1
  Mg  Mg4  1  0.50000000  0.75684400  0.92070400  1
  Mg  Mg5  1  0.50000000  0.50000000  0.66025400  1
  Mg  Mg6  1  0.00000000  0.71963400  0.57381300  1
  Mg  Mg7  1  0.00000000  0.28036600  0.57381300  1
  Mg  Mg8  1  0.00000000  0.00000000  0.33202700  1
  Mg  Mg9  1  0.50000000  0.74315600  0.42070400  1
  Mg  Mg10  1  0.50000000  0.25684400  0.42070400  1
  Mg  Mg11  1  0.50000000  0.00000000  0.16025400  1
  Sn  Sn0  1  0.00000000  0.50000000  0.34858900  1
  Sn  Sn1  1  0.00000000  0.00000000  0.84858900  1
loop_
_geom_bond_atom_site_label_1
_geom_bond_atom_site_label_2
_geom_bond_distance
_geom_bond_site_symmetry_2
Ba0 Sn0 3.373707 1_555
Ba0 Sn0 3.373707 1_655
Ba0 Mg10 3.468403 1_555
Ba0 Mg9 3.468403 1_555
Ba0 Mg1 3.470393 1_655
Ba0 Mg0 3.470393 1_555
Ba0 Mg0 3.470393 1_655
Ba0 Mg1 3.470393 1_555
Ba0 Mg4 3.504847 1_554
Ba0 Mg3 3.504847 1_554
Ba0 Mg11 3.535738 1_565
Ba0 Mg11 3.535738 1_555
Ba1 Sn1 3.373707 1_555
Ba1 Sn1 3.373707 1_655
Ba1 Mg3 3.468403 1_555
Ba1 Mg4 3.468403 1_545
Ba1 Mg7 3.470393 1_655
Ba1 Mg6 3.470393 1_645
Ba1 Mg6 3.470393 1_545
Ba1 Mg7 3.470393 1_555
Ba1 Mg9 3.504847 1_545
Ba1 Mg10 3.504847 1_555
Ba1 Mg5 3.535738 1_555
Ba1 Mg5 3.535738 1_545
Mg0 Sn1 3.120984 1_554
Mg0 Mg3 3.192662 1_454
Mg0 Mg3 3.192662 1_554
Mg0 Mg11 3.204203 1_455
Mg0 Mg11 3.204203 1_555
Mg0 Mg8 3.470658 1_555
Mg0 Mg2 3.517831 1_554
Mg1 Sn1 3.120984 1_564
Mg1 Mg4 3.192662 1_554
Mg1 Mg4 3.192662 1_454
Mg1 Mg11 3.204203 1_465
Mg1 Mg11 3.204203 1_565
Mg1 Mg8 3.470658 1_565
Mg1 Mg2 3.517831 1_554
Mg2 Mg5 3.322917 1_455
Mg2 Mg5 3.322917 1_555
Mg2 Mg3 3.348000 1_455
Mg2 Mg4 3.348000 1_455
Mg2 Mg3 3.348000 1_555
Mg2 Mg4 3.348000 1_555
Mg2 Mg6 3.470658 1_555
Mg2 Mg7 3.470658 1_555
Mg2 Sn1 3.539362 1_555
Mg2 Sn1 3.539362 1_565
Mg3 Sn1 3.237651 1_555
Mg3 Sn1 3.237651 1_655
Mg3 Mg4 3.437017 1_545
Mg4 Sn1 3.237651 1_565
Mg4 Sn1 3.237651 1_665
Mg5 Mg7 3.204203 1_555
Mg5 Mg7 3.204203 1_655
Mg5 Mg6 3.204203 1_555
Mg5 Mg6 3.204203 1_655
Mg5 Mg9 3.353589 1_555
Mg6 Sn0 3.120984 1_555
Mg6 Mg9 3.192662 1_455
Mg6 Mg9 3.192662 1_555
Mg6 Mg8 3.517831 1_565
Mg7 Sn0 3.120984 1_555
Mg7 Mg8 3.517831 1_555
Mg8 Mg9 3.348000 1_545
Mg8 Mg9 3.348000 1_445
Mg8 Sn0 3.539362 1_555
Mg8 Sn0 3.539362 1_545
Mg9 Sn0 3.237651 1_555
Mg9 Sn0 3.237651 1_655
Mg10 Mg7 3.192662 1_555
Mg10 Mg7 3.192662 1_655
Mg10 Sn0 3.237651 1_555
Mg10 Sn0 3.237651 1_655
Mg10 Mg8 3.348000 1_555
Mg10 Mg8 3.348000 1_655
Mg10 Mg5 3.353589 1_555
Mg10 Mg9 3.437017 1_555
Mg11 Mg8 3.322917 1_555
Mg11 Mg8 3.322917 1_655
Mg11 Mg4 3.353589 1_544
Mg11 Mg3 3.353589 1_554
