# generated using pymatgen
data_Mg3Si4
_symmetry_space_group_name_H-M   'P 1'
_cell_length_a   6.39356900
_cell_length_b   6.57063150
_cell_length_c   7.16860013
_cell_angle_alpha   71.71186869
_cell_angle_beta   68.65999956
_cell_angle_gamma   79.78505789
_symmetry_Int_Tables_number   1
_chemical_formula_structural   Mg3Si4
_chemical_formula_sum   'Mg6 Si8'
_cell_volume   265.65567661
_cell_formula_units_Z   2
loop_
 _symmetry_equiv_pos_site_id
 _symmetry_equiv_pos_as_xyz
  1  'x, y, z'
loop_
 _atom_site_type_symbol
 _atom_site_label
 _atom_site_symmetry_multiplicity
 _atom_site_fract_x
 _atom_site_fract_y
 _atom_site_fract_z
 _atom_site_occupancy
  Mg  Mg0  1  0.09786600  0.19472300  0.38231500  1
  Mg  Mg1  1  0.31848800  0.65456200  0.47617100  1
  Mg  Mg2  1  0.35665800  0.29191500  0.86953300  1
  Mg  Mg3  1  0.83657900  0.29059500  0.90150400  1
  Mg  Mg4  1  0.59722200  0.14761600  0.41291200  1
  Mg  Mg5  1  0.03999400  0.86390000  0.17603300  1
  Si  Si0  1  0.51033800  0.85280900  0.85951500  1
  Si  Si1  1  0.05276000  0.64781900  0.86797600  1
  Si  Si2  1  0.54190200  0.96453600  0.13889000  1
  Si  Si3  1  0.39696000  0.51451500  0.11593900  1
  Si  Si4  1  0.19720700  0.00599400  0.73927000  1
  Si  Si5  1  0.73044200  0.46869300  0.52681600  1
  Si  Si6  1  0.85143000  0.75717200  0.60712100  1
  Si  Si7  1  0.72569300  0.59849900  0.17267400  1
loop_
_geom_bond_atom_site_label_1
_geom_bond_atom_site_label_2
_geom_bond_distance
_geom_bond_site_symmetry_2
Mg0 Si4 2.720484 1_555
Mg0 Si5 2.780547 1_455
Mg0 Si3 2.822719 1_555
Mg0 Si2 3.149650 1_545
Mg0 Si6 3.193128 1_445
Mg1 Si1 2.693102 1_555
Mg1 Si2 2.731714 1_555
Mg1 Si7 2.772662 1_555
Mg1 Si5 2.799519 1_555
Mg1 Si6 2.809966 1_455
Mg1 Si3 2.855117 1_555
Mg2 Si3 2.722523 1_556
Mg2 Si1 2.762575 1_555
Mg2 Si2 2.812898 1_546
Mg2 Si4 2.813163 1_555
Mg2 Si5 2.831382 1_555
Mg2 Si0 2.892781 1_545
Mg3 Si2 2.800990 1_546
Mg3 Si1 2.834128 1_655
Mg3 Si4 2.837205 1_655
Mg3 Si5 2.848983 1_555
Mg3 Si3 3.039075 1_556
Mg3 Si7 3.054646 1_556
Mg3 Si6 3.123801 1_555
Mg4 Si2 2.751447 1_545
Mg4 Si4 2.829014 1_555
Mg4 Si5 2.840346 1_555
Mg4 Si7 3.008158 1_555
Mg4 Si6 3.014602 1_545
Mg4 Si0 3.083145 1_545
Mg4 Si3 3.106668 1_555
Mg5 Si6 2.779106 1_455
Mg5 Si4 2.809420 1_564
Mg5 Si7 2.895546 1_455
Mg5 Si1 2.948672 1_554
Mg5 Si3 2.951496 1_555
Mg5 Si0 3.042499 1_554
Si0 Si4 2.400204 1_565
Si0 Si6 2.404189 1_555
Si0 Si2 2.420739 1_556
Si0 Si3 2.425428 1_556
Si1 Si7 2.391787 1_456
Si1 Si4 2.455777 1_565
Si1 Si6 2.500110 1_455
Si2 Si7 2.462339 1_555
Si3 Si7 2.462063 1_555
Si5 Si7 2.421030 1_555
Si5 Si6 2.460004 1_555
