# generated using pymatgen
data_VFe2(CuO2)3
_symmetry_space_group_name_H-M   'P 1'
_cell_length_a   3.06262744
_cell_length_b   3.06262744
_cell_length_c   17.32389400
_cell_angle_alpha   90.00000000
_cell_angle_beta   90.00000000
_cell_angle_gamma   119.99998783
_symmetry_Int_Tables_number   1
_chemical_formula_structural   VFe2(CuO2)3
_chemical_formula_sum   'V1 Fe2 Cu3 O6'
_cell_volume   140.72282352
_cell_formula_units_Z   1
loop_
 _symmetry_equiv_pos_site_id
 _symmetry_equiv_pos_as_xyz
  1  'x, y, z'
loop_
 _atom_site_type_symbol
 _atom_site_label
 _atom_site_symmetry_multiplicity
 _atom_site_fract_x
 _atom_site_fract_y
 _atom_site_fract_z
 _atom_site_occupancy
  V  V0  1  0.00000000  0.00000000  0.00000000  1
  Fe  Fe0  1  0.66666700  0.33333300  0.33337700  1
  Fe  Fe1  1  0.33333300  0.66666700  0.66662300  1
  Cu  Cu0  1  0.00000000  0.00000000  0.50000000  1
  Cu  Cu1  1  0.66666700  0.33333300  0.83322700  1
  Cu  Cu2  1  0.33333300  0.66666700  0.16677300  1
  O  O0  1  0.66666700  0.33333300  0.72654100  1
  O  O1  1  0.33333300  0.66666700  0.06035100  1
  O  O2  1  0.00000000  0.00000000  0.39340100  1
  O  O3  1  0.00000000  0.00000000  0.60659900  1
  O  O4  1  0.66666700  0.33333300  0.93964900  1
  O  O5  1  0.33333300  0.66666700  0.27345900  1
loop_
_geom_bond_atom_site_label_1
_geom_bond_atom_site_label_2
_geom_bond_distance
_geom_bond_site_symmetry_2
Fe0 O5 2.050373 1_545
Fe0 O5 2.050373 1_655
Fe0 O5 2.050377 1_555
Fe0 O2 2.051303 1_655
Fe0 O2 2.051305 1_665
Fe0 O2 2.051305 1_555
Fe1 O0 2.050373 1_565
Fe1 O0 2.050373 1_455
Fe1 O0 2.050377 1_555
Fe1 O3 2.051303 1_565
Fe1 O3 2.051305 1_665
Fe1 O3 2.051305 1_555
Cu0 O3 1.846710 1_555
Cu0 O2 1.846710 1_555
Cu1 O4 1.843643 1_555
Cu1 O0 1.848217 1_555
Cu2 O1 1.843643 1_555
Cu2 O5 1.848217 1_555
O1 V0 2.054180 1_565
O1 V0 2.054183 1_555
O1 V0 2.054183 1_665
O4 V0 2.054180 1_656
O4 V0 2.054183 1_666
O4 V0 2.054183 1_556
