# generated using pymatgen
data_Li3Mn2P2O8F3
_symmetry_space_group_name_H-M   'P 1'
_cell_length_a   6.47359731
_cell_length_b   6.44400241
_cell_length_c   6.97529043
_cell_angle_alpha   61.15118871
_cell_angle_beta   62.08057708
_cell_angle_gamma   88.31834550
_symmetry_Int_Tables_number   1
_chemical_formula_structural   Li3Mn2P2O8F3
_chemical_formula_sum   'Li3 Mn2 P2 O8 F3'
_cell_volume   217.81849227
_cell_formula_units_Z   1
loop_
 _symmetry_equiv_pos_site_id
 _symmetry_equiv_pos_as_xyz
  1  'x, y, z'
loop_
 _atom_site_type_symbol
 _atom_site_label
 _atom_site_symmetry_multiplicity
 _atom_site_fract_x
 _atom_site_fract_y
 _atom_site_fract_z
 _atom_site_occupancy
  Li  Li0  1  0.20795100  0.23723400  0.00528000  1
  Li  Li1  1  0.23189600  0.70878700  0.05965700  1
  Li  Li2  1  0.75814100  0.78971400  0.00341800  1
  Mn  Mn0  1  0.20334000  0.19538000  0.60140500  1
  Mn  Mn1  1  0.80546000  0.81060600  0.38419500  1
  P  P0  1  0.75896400  0.24176100  0.49940500  1
  P  P1  1  0.26058900  0.74275900  0.49674200  1
  O  O0  1  0.86047200  0.15319300  0.31006900  1
  O  O1  1  0.47822800  0.15266900  0.67256500  1
  O  O2  1  0.85475900  0.13807600  0.68610100  1
  O  O3  1  0.84680400  0.52426400  0.32406300  1
  O  O4  1  0.17647400  0.45960600  0.68460500  1
  O  O5  1  0.53693400  0.82889800  0.30889900  1
  O  O6  1  0.15372100  0.83036000  0.32174800  1
  O  O7  1  0.17629700  0.85034100  0.67118700  1
  F  F0  1  0.00845300  0.97464600  0.01669600  1
  F  F1  1  0.33987500  0.43224200  0.22361500  1
  F  F2  1  0.61661600  0.65449000  0.73035100  1
loop_
_geom_bond_atom_site_label_1
_geom_bond_atom_site_label_2
_geom_bond_distance
_geom_bond_site_symmetry_2
Li0 O0 2.086895 1_455
Li0 O4 2.101145 1_554
Li0 O6 2.369305 1_545
Li0 O1 2.471072 1_554
Li1 O6 2.168973 1_555
Li1 O3 2.186824 1_455
Li1 O1 2.607256 1_564
Li1 O7 2.610149 1_554
Li2 O5 2.072513 1_555
Li2 O2 2.078648 1_564
Li2 O3 2.389648 1_555
Li2 O7 2.482851 1_654
Mn0 O4 2.026769 1_555
Mn0 O7 2.027288 1_545
Mn0 O1 2.038474 1_555
Mn0 O2 2.041436 1_455
Mn1 O0 2.009977 1_565
Mn1 O5 2.023546 1_555
Mn1 O3 2.065194 1_555
Mn1 O6 2.081447 1_655
O0 P0 1.547379 1_555
O1 P0 1.558133 1_555
O2 P0 1.555368 1_555
O3 P0 1.547302 1_555
O4 P1 1.557481 1_555
O5 P1 1.544868 1_555
O6 P1 1.546018 1_555
O7 P1 1.558533 1_555
F0 Mn1 1.930664 1_455
F0 Li2 2.101162 1_455
F0 Li0 2.106995 1_565
F0 Mn0 2.170938 1_564
F0 Li1 2.209570 1_555
F1 Li1 1.918615 1_555
F1 Mn0 2.017864 1_555
F2 Mn1 1.816726 1_555
