# generated using pymatgen
data_Lu2MgS4
_symmetry_space_group_name_H-M   'P 1'
_cell_length_a   7.84495700
_cell_length_b   7.28583300
_cell_length_c   11.19556400
_cell_angle_alpha   90.00000000
_cell_angle_beta   90.00000000
_cell_angle_gamma   90.00000000
_symmetry_Int_Tables_number   1
_chemical_formula_structural   Lu2MgS4
_chemical_formula_sum   'Lu8 Mg4 S16'
_cell_volume   639.90537320
_cell_formula_units_Z   4
loop_
 _symmetry_equiv_pos_site_id
 _symmetry_equiv_pos_as_xyz
  1  'x, y, z'
loop_
 _atom_site_type_symbol
 _atom_site_label
 _atom_site_symmetry_multiplicity
 _atom_site_fract_x
 _atom_site_fract_y
 _atom_site_fract_z
 _atom_site_occupancy
  Lu  Lu0  1  0.03771900  0.75000000  0.30602700  1
  Lu  Lu1  1  0.96228100  0.25000000  0.69397300  1
  Lu  Lu2  1  0.46228100  0.25000000  0.80602700  1
  Lu  Lu3  1  0.53771900  0.75000000  0.19397300  1
  Lu  Lu4  1  0.06684500  0.25000000  0.01588000  1
  Lu  Lu5  1  0.93315500  0.75000000  0.98412000  1
  Lu  Lu6  1  0.43315500  0.75000000  0.51588000  1
  Lu  Lu7  1  0.56684500  0.25000000  0.48412000  1
  Mg  Mg0  1  0.17744500  0.25000000  0.40293000  1
  Mg  Mg1  1  0.82255500  0.75000000  0.59707000  1
  Mg  Mg2  1  0.32255500  0.75000000  0.90293000  1
  Mg  Mg3  1  0.67744500  0.25000000  0.09707000  1
  S  S0  1  0.11818500  0.50546500  0.84230800  1
  S  S1  1  0.88181500  0.49453500  0.15769200  1
  S  S2  1  0.38181500  0.49453500  0.34230800  1
  S  S3  1  0.61818500  0.50546500  0.65769200  1
  S  S4  1  0.61818500  0.99453500  0.65769200  1
  S  S5  1  0.38181500  0.00546500  0.34230800  1
  S  S6  1  0.88181500  0.00546500  0.15769200  1
  S  S7  1  0.11818500  0.99453500  0.84230800  1
  S  S8  1  0.88959700  0.25000000  0.46132200  1
  S  S9  1  0.11040300  0.75000000  0.53867800  1
  S  S10  1  0.61040300  0.75000000  0.96132200  1
  S  S11  1  0.38959700  0.25000000  0.03867800  1
  S  S12  1  0.22556300  0.75000000  0.11116300  1
  S  S13  1  0.77443700  0.25000000  0.88883700  1
  S  S14  1  0.27443700  0.25000000  0.61116300  1
  S  S15  1  0.72556300  0.75000000  0.38883700  1
loop_
_geom_bond_atom_site_label_1
_geom_bond_atom_site_label_2
_geom_bond_distance
_geom_bond_site_symmetry_2
Lu0 S15 2.618471 1_455
Lu0 S12 2.632682 1_555
Lu0 S9 2.666342 1_555
Lu0 S6 2.778152 1_465
Lu0 S1 2.778152 1_455
Lu0 S5 3.303966 1_565
Lu0 S2 3.303966 1_555
Lu1 S14 2.618471 1_655
Lu1 S13 2.632682 1_555
Lu1 S8 2.666342 1_555
Lu1 S0 2.778152 1_655
Lu1 S7 2.778152 1_645
Lu1 S3 3.303966 1_555
Lu1 S4 3.303966 1_545
Lu2 S13 2.618471 1_555
Lu2 S14 2.632682 1_555
Lu2 S11 2.666342 1_556
Lu2 S3 2.778152 1_555
Lu2 S4 2.778152 1_545
Lu2 S0 3.303966 1_555
Lu2 S7 3.303966 1_545
Lu3 S12 2.618471 1_555
Lu3 S15 2.632682 1_555
Lu3 S10 2.666342 1_554
Lu3 S5 2.778152 1_565
Lu3 S2 2.778152 1_555
Lu3 S6 3.303966 1_565
Lu3 S1 3.303966 1_555
Lu4 S11 2.544808 1_555
Lu4 S13 2.699092 1_454
Lu4 S0 2.720796 1_554
Lu4 S7 2.720796 1_544
Lu4 S1 2.793194 1_455
Lu4 S6 2.793194 1_455
Lu5 S10 2.544808 1_555
Lu5 S12 2.699092 1_656
Lu5 S6 2.720796 1_566
Lu5 S1 2.720796 1_556
Lu5 S7 2.793194 1_655
Lu5 S0 2.793194 1_655
Lu6 S9 2.544808 1_555
Lu6 S15 2.699092 1_555
Lu6 S5 2.720796 1_565
Lu6 S2 2.720796 1_555
Lu6 S4 2.793194 1_555
Lu6 S3 2.793194 1_555
Lu7 S8 2.544808 1_555
Lu7 S14 2.699092 1_555
Lu7 S3 2.720796 1_555
Lu7 S4 2.720796 1_545
Lu7 S2 2.793194 1_555
Lu7 S5 2.793194 1_555
Mg0 S8 2.350878 1_455
Mg0 S14 2.452317 1_555
Mg0 S2 2.491057 1_555
Mg0 S5 2.491057 1_555
Mg1 S9 2.350878 1_655
Mg1 S15 2.452317 1_555
Mg1 S4 2.491057 1_555
Mg1 S3 2.491057 1_555
Mg2 S10 2.350878 1_555
Mg2 S12 2.452317 1_556
Mg2 S7 2.491057 1_555
Mg2 S0 2.491057 1_555
Mg3 S11 2.350878 1_555
Mg3 S13 2.452317 1_554
Mg3 S1 2.491057 1_555
Mg3 S6 2.491057 1_555
