# generated using pymatgen
data_CsRb2AsCl6
_symmetry_space_group_name_H-M   'P 1'
_cell_length_a   8.13105340
_cell_length_b   8.13105340
_cell_length_c   8.13105340
_cell_angle_alpha   60.00000000
_cell_angle_beta   60.00000000
_cell_angle_gamma   60.00000000
_symmetry_Int_Tables_number   1
_chemical_formula_structural   CsRb2AsCl6
_chemical_formula_sum   'Cs1 Rb2 As1 Cl6'
_cell_volume   380.12413297
_cell_formula_units_Z   1
loop_
 _symmetry_equiv_pos_site_id
 _symmetry_equiv_pos_as_xyz
  1  'x, y, z'
loop_
 _atom_site_type_symbol
 _atom_site_label
 _atom_site_symmetry_multiplicity
 _atom_site_fract_x
 _atom_site_fract_y
 _atom_site_fract_z
 _atom_site_occupancy
  Cs  Cs0  1  0.50000000  0.50000000  0.50000000  1
  Rb  Rb0  1  0.75000000  0.75000000  0.75000000  1
  Rb  Rb1  1  0.25000000  0.25000000  0.25000000  1
  As  As0  1  0.00000000  0.00000000  0.00000000  1
  Cl  Cl0  1  0.78152300  0.21847700  0.21847700  1
  Cl  Cl1  1  0.21847700  0.21847700  0.78152300  1
  Cl  Cl2  1  0.21847700  0.78152300  0.78152300  1
  Cl  Cl3  1  0.21847700  0.78152300  0.21847700  1
  Cl  Cl4  1  0.78152300  0.21847700  0.78152300  1
  Cl  Cl5  1  0.78152300  0.78152300  0.21847700  1
loop_
_geom_bond_atom_site_label_1
_geom_bond_atom_site_label_2
_geom_bond_distance
_geom_bond_site_symmetry_2
As0 Cl0 2.512277 1_455
As0 Cl3 2.512277 1_545
As0 Cl1 2.512277 1_554
As0 Cl2 2.512277 1_544
As0 Cl4 2.512277 1_454
As0 Cl5 2.512277 1_445
Cl0 Cs0 3.237246 1_555
Cl1 Cs0 3.237246 1_555
Cl2 Cs0 3.237246 1_555
Cl3 Cs0 3.237246 1_555
Cl4 Cs0 3.237246 1_555
Cl5 Cs0 3.237246 1_555
