# generated using pymatgen
data_Te4Mo2WSe2
_symmetry_space_group_name_H-M   'P 1'
_cell_length_a   3.47532994
_cell_length_b   3.47532994
_cell_length_c   32.04541800
_cell_angle_alpha   90.00000000
_cell_angle_beta   90.00000000
_cell_angle_gamma   119.99999890
_symmetry_Int_Tables_number   1
_chemical_formula_structural   Te4Mo2WSe2
_chemical_formula_sum   'Te4 Mo2 W1 Se2'
_cell_volume   335.18815396
_cell_formula_units_Z   1
loop_
 _symmetry_equiv_pos_site_id
 _symmetry_equiv_pos_as_xyz
  1  'x, y, z'
loop_
 _atom_site_type_symbol
 _atom_site_label
 _atom_site_symmetry_multiplicity
 _atom_site_fract_x
 _atom_site_fract_y
 _atom_site_fract_z
 _atom_site_occupancy
  Te  Te0  1  0.66666700  0.33333300  0.71119100  1
  Te  Te1  1  0.66666700  0.33333300  0.17384000  1
  Te  Te2  1  0.66666700  0.33333300  0.82616000  1
  Te  Te3  1  0.66666700  0.33333300  0.28880900  1
  Mo  Mo0  1  0.33333300  0.66666700  0.76866600  1
  Mo  Mo1  1  0.33333300  0.66666700  0.23133400  1
  W  W0  1  0.66666700  0.33333300  0.00000000  1
  Se  Se0  1  0.33333300  0.66666700  0.05090300  1
  Se  Se1  1  0.33333300  0.66666700  0.94909700  1
loop_
_geom_bond_atom_site_label_1
_geom_bond_atom_site_label_2
_geom_bond_distance
_geom_bond_site_symmetry_2
Mo0 Te0 2.723643 1_455
Mo0 Te0 2.723643 1_565
Mo0 Te0 2.723647 1_555
Mo0 Te2 2.724055 1_455
Mo0 Te2 2.724055 1_565
Mo0 Te2 2.724059 1_555
Mo1 Te3 2.723643 1_565
Mo1 Te3 2.723643 1_455
Mo1 Te3 2.723647 1_555
Mo1 Te1 2.724055 1_455
Mo1 Te1 2.724055 1_565
Mo1 Te1 2.724059 1_555
Se0 W0 2.585886 1_565
Se0 W0 2.585886 1_455
Se0 W0 2.585890 1_555
Se1 W0 2.585886 1_456
Se1 W0 2.585886 1_566
Se1 W0 2.585890 1_556
