# generated using pymatgen
data_Ti
_symmetry_space_group_name_H-M   'P 1'
_cell_length_a   12.41144429
_cell_length_b   11.97372803
_cell_length_c   12.07919302
_cell_angle_alpha   97.35043006
_cell_angle_beta   99.09477057
_cell_angle_gamma   83.93840267
_symmetry_Int_Tables_number   1
_chemical_formula_structural   Ti
_chemical_formula_sum   Ti100
_cell_volume   1751.27708593
_cell_formula_units_Z   100
loop_
 _symmetry_equiv_pos_site_id
 _symmetry_equiv_pos_as_xyz
  1  'x, y, z'
loop_
 _atom_site_type_symbol
 _atom_site_label
 _atom_site_symmetry_multiplicity
 _atom_site_fract_x
 _atom_site_fract_y
 _atom_site_fract_z
 _atom_site_occupancy
  Ti  Ti0  1  0.73294481  0.87839094  0.78279730  1
  Ti  Ti1  1  0.76699882  0.96686670  0.32104496  1
  Ti  Ti2  1  0.50969064  0.71726993  0.32212538  1
  Ti  Ti3  1  0.15503665  0.23951416  0.35396523  1
  Ti  Ti4  1  0.42602647  0.45382721  0.63759051  1
  Ti  Ti5  1  0.68522214  0.69860899  0.20103260  1
  Ti  Ti6  1  0.91101002  0.61233791  0.71455554  1
  Ti  Ti7  1  0.10788056  0.74298630  0.83737890  1
  Ti  Ti8  1  0.38319513  0.44189259  0.05320553  1
  Ti  Ti9  1  0.92170932  0.96180464  0.16405372  1
  Ti  Ti10  1  0.15185931  0.18756125  0.77495888  1
  Ti  Ti11  1  0.87573588  0.55968480  0.28228159  1
  Ti  Ti12  1  0.69903888  0.79172881  0.41762637  1
  Ti  Ti13  1  0.67878333  0.55697012  0.37891730  1
  Ti  Ti14  1  0.18511966  0.94684718  0.44773808  1
  Ti  Ti15  1  0.79641288  0.18701602  0.44609416  1
  Ti  Ti16  1  0.15431591  0.03475018  0.21321698  1
  Ti  Ti17  1  0.46640379  0.27780687  0.20977141  1
  Ti  Ti18  1  0.63819584  0.52739758  0.93470791  1
  Ti  Ti19  1  0.96758621  0.08672352  0.61498660  1
  Ti  Ti20  1  0.67141252  0.34260480  0.28353526  1
  Ti  Ti21  1  0.73800195  0.68176890  0.85479589  1
  Ti  Ti22  1  0.50873559  0.94003792  0.44751377  1
  Ti  Ti23  1  0.94679236  0.01166164  0.96322120  1
  Ti  Ti24  1  0.93383624  0.87005248  0.70590915  1
  Ti  Ti25  1  0.55777526  0.81929465  0.61764219  1
  Ti  Ti26  1  0.58521049  0.12730919  0.36365583  1
  Ti  Ti27  1  0.35961870  0.11792322  0.22520673  1
  Ti  Ti28  1  0.48861700  0.38911229  0.84955754  1
  Ti  Ti29  1  0.26876820  0.55081914  0.48219311  1
  Ti  Ti30  1  0.14224220  0.97643025  0.88728550  1
  Ti  Ti31  1  0.96521814  0.89342840  0.47245010  1
  Ti  Ti32  1  0.77197307  0.41370851  0.12465031  1
  Ti  Ti33  1  0.60279214  0.29129100  0.04490779  1
  Ti  Ti34  1  0.28995516  0.35380446  0.81693141  1
  Ti  Ti35  1  0.20705273  0.57226713  0.98445328  1
  Ti  Ti36  1  0.45453829  0.49545533  0.31191036  1
  Ti  Ti37  1  0.31685239  0.73463307  0.65107412  1
  Ti  Ti38  1  0.57158473  0.03574338  0.67690096  1
  Ti  Ti39  1  0.36579198  0.96037116  0.61878059  1
  Ti  Ti40  1  0.88719439  0.77353042  0.25408893  1
  Ti  Ti41  1  0.19948025  0.14080947  0.57257495  1
  Ti  Ti42  1  0.74960849  0.14174313  0.19606348  1
  Ti  Ti43  1  0.50397232  0.60660755  0.52287266  1
  Ti  Ti44  1  0.53664799  0.74688663  0.01843745  1
  Ti  Ti45  1  0.82936546  0.62676638  0.05855513  1
  Ti  Ti46  1  0.79109090  0.08689891  0.75806028  1
  Ti  Ti47  1  0.36525634  0.70667187  0.11721478  1
  Ti  Ti48  1  0.51758249  0.15555906  0.86955410  1
  Ti  Ti49  1  0.66294159  0.47205128  0.70202284  1
  Ti  Ti50  1  0.05190577  0.40719899  0.72814073  1
  Ti  Ti51  1  0.71769263  0.05763138  0.96276892  1
  Ti  Ti52  1  0.36205117  0.33709941  0.40665182  1
  Ti  Ti53  1  0.32845282  0.04043358  0.83090035  1
  Ti  Ti54  1  0.54656998  0.07025177  0.08164982  1
  Ti  Ti55  1  0.12192648  0.82948020  0.25706234  1
  Ti  Ti56  1  0.09851255  0.46620395  0.32129655  1
  Ti  Ti57  1  0.89986670  0.35442064  0.33815864  1
  Ti  Ti58  1  0.68289686  0.28848249  0.82764092  1
  Ti  Ti59  1  0.15449885  0.83446086  0.05412780  1
  Ti  Ti60  1  0.15415172  0.93459775  0.66798546  1
  Ti  Ti61  1  0.51881781  0.66198780  0.76016505  1
  Ti  Ti62  1  0.81953289  0.44349911  0.53898576  1
  Ti  Ti63  1  0.52995954  0.90857014  0.86533923  1
  Ti  Ti64  1  0.33236056  0.76293031  0.43527525  1
  Ti  Ti65  1  0.84924684  0.24551561  0.99125140  1
  Ti  Ti66  1  0.22316973  0.36439873  0.57918959  1
  Ti  Ti67  1  0.39384765  0.59886581  0.90531026  1
  Ti  Ti68  1  0.33633918  0.90074610  0.27037922  1
  Ti  Ti69  1  0.97426760  0.19584115  0.18449476  1
  Ti  Ti70  1  0.01019540  0.57727349  0.91350383  1
  Ti  Ti71  1  0.22707625  0.55636926  0.73023454  1
  Ti  Ti72  1  0.63365645  0.21457751  0.59978377  1
  Ti  Ti73  1  0.41296285  0.21975896  0.66341265  1
  Ti  Ti74  1  0.56884003  0.52222545  0.14073819  1
  Ti  Ti75  1  0.74498673  0.97802633  0.55489777  1
  Ti  Ti76  1  0.02380274  0.50215229  0.51442284  1
  Ti  Ti77  1  0.85402527  0.44827881  0.87356992  1
  Ti  Ti78  1  0.04839558  0.63533436  0.14008146  1
  Ti  Ti79  1  0.31651749  0.81447889  0.87200057  1
  Ti  Ti80  1  0.08355043  0.71521793  0.61447002  1
  Ti  Ti81  1  0.35084601  0.95661443  0.04885847  1
  Ti  Ti82  1  0.72310251  0.86293954  0.06031194  1
  Ti  Ti83  1  0.99447915  0.08175793  0.36890077  1
  Ti  Ti84  1  0.88888795  0.69491327  0.49698291  1
  Ti  Ti85  1  0.13062633  0.16166184  0.04142005  1
  Ti  Ti86  1  0.35672732  0.11242150  0.44628388  1
  Ti  Ti87  1  0.25382765  0.60688614  0.25198932  1
  Ti  Ti88  1  0.09703505  0.69574522  0.39705791  1
  Ti  Ti89  1  0.12198420  0.35841877  0.94891197  1
  Ti  Ti90  1  0.33836282  0.21574143  0.00129193  1
  Ti  Ti91  1  0.55261944  0.90265269  0.22117823  1
  Ti  Ti92  1  0.71900315  0.66933757  0.61470235  1
  Ti  Ti93  1  0.92793497  0.79353244  0.97701320  1
  Ti  Ti94  1  0.23802885  0.34944864  0.17937826  1
  Ti  Ti95  1  0.98676515  0.40806969  0.10884298  1
  Ti  Ti96  1  0.00757181  0.27747243  0.52079958  1
  Ti  Ti97  1  0.84380484  0.28825787  0.68580584  1
  Ti  Ti98  1  0.59548995  0.38107856  0.47387402  1
  Ti  Ti99  1  0.98053670  0.18065964  0.85030533  1
loop_
_geom_bond_atom_site_label_1
_geom_bond_atom_site_label_2
_geom_bond_distance
_geom_bond_site_symmetry_2
Ti0 Ti21 2.603546 1_555
Ti0 Ti46 2.735466 1_565
Ti0 Ti24 2.783005 1_555
Ti0 Ti25 2.792810 1_555
Ti0 Ti63 2.825134 1_555
Ti0 Ti38 2.864747 1_565
Ti0 Ti51 2.866755 1_565
Ti0 Ti92 3.016345 1_555
Ti0 Ti75 3.167303 1_555
Ti0 Ti93 3.269349 1_555
Ti1 Ti42 2.705664 1_565
Ti1 Ti40 2.722428 1_555
Ti1 Ti12 2.789400 1_555
Ti1 Ti75 2.865555 1_555
Ti1 Ti26 2.871396 1_565
Ti1 Ti91 2.882018 1_555
Ti1 Ti15 2.893701 1_565
Ti1 Ti9 2.895510 1_555
Ti1 Ti31 2.950027 1_555
Ti1 Ti83 3.209182 1_565
Ti1 Ti82 3.219048 1_555
Ti2 Ti64 2.741650 1_555
Ti2 Ti5 2.785085 1_555
Ti2 Ti36 2.794863 1_555
Ti2 Ti91 2.801004 1_555
Ti2 Ti47 2.814428 1_555
Ti2 Ti22 2.893825 1_555
Ti2 Ti43 2.921840 1_555
Ti2 Ti68 2.962114 1_555
Ti2 Ti74 3.103342 1_555
Ti3 Ti56 2.792815 1_555
Ti3 Ti69 2.831894 1_455
Ti3 Ti52 2.880748 1_555
Ti3 Ti96 2.893700 1_555
Ti3 Ti83 2.927027 1_455
Ti3 Ti86 2.927950 1_555
Ti3 Ti66 2.975102 1_555
Ti3 Ti41 2.978990 1_555
Ti3 Ti94 2.987379 1_555
Ti4 Ti43 2.765641 1_555
Ti4 Ti66 2.792469 1_555
Ti4 Ti73 2.883431 1_555
Ti4 Ti49 2.944184 1_555
Ti4 Ti71 2.956140 1_555
Ti4 Ti61 2.975532 1_555
Ti4 Ti52 2.983635 1_555
Ti4 Ti98 3.095248 1_555
Ti5 Ti74 2.644894 1_555
Ti5 Ti91 2.803957 1_555
Ti5 Ti82 2.878505 1_555
Ti6 Ti92 2.560884 1_555
Ti6 Ti70 2.584676 1_655
Ti6 Ti84 2.887791 1_555
Ti6 Ti62 2.915495 1_555
Ti6 Ti80 3.053131 1_655
Ti6 Ti76 3.067272 1_655
Ti6 Ti7 3.112250 1_655
Ti6 Ti77 3.120380 1_555
Ti7 Ti80 2.643237 1_555
Ti7 Ti70 2.753160 1_555
Ti7 Ti79 2.765379 1_555
Ti7 Ti71 2.832625 1_555
Ti7 Ti93 2.973779 1_455
Ti8 Ti90 2.794430 1_555
Ti8 Ti94 2.918072 1_555
Ti8 Ti87 3.403180 1_555
Ti8 Ti89 3.488213 1_554
Ti9 Ti93 2.833290 1_554
Ti10 Ti99 2.454531 1_455
Ti10 Ti41 2.583734 1_555
Ti10 Ti34 2.710097 1_555
Ti10 Ti53 2.717517 1_555
Ti10 Ti89 2.779220 1_555
Ti10 Ti50 2.871383 1_555
Ti10 Ti19 3.001937 1_455
Ti10 Ti30 3.039523 1_545
Ti10 Ti60 3.136363 1_545
Ti10 Ti90 3.297673 1_556
Ti11 Ti57 2.605959 1_555
Ti11 Ti40 2.647233 1_555
Ti11 Ti32 2.680988 1_555
Ti11 Ti5 2.859148 1_555
Ti11 Ti56 2.861727 1_655
Ti11 Ti84 2.867359 1_555
Ti11 Ti45 2.871521 1_555
Ti11 Ti13 2.875336 1_555
Ti11 Ti95 2.999140 1_555
Ti11 Ti76 3.211301 1_655
Ti11 Ti78 3.214783 1_655
Ti11 Ti88 3.359101 1_655
Ti12 Ti84 2.609261 1_555
Ti12 Ti2 2.640226 1_555
Ti12 Ti75 2.659667 1_555
Ti12 Ti5 2.696229 1_555
Ti12 Ti13 2.821166 1_555
Ti12 Ti22 2.842938 1_555
Ti12 Ti92 2.916398 1_555
Ti12 Ti91 3.103348 1_555
Ti12 Ti40 3.262513 1_555
Ti13 Ti20 2.680222 1_555
Ti13 Ti2 2.755023 1_555
Ti13 Ti62 2.781942 1_555
Ti13 Ti98 2.876229 1_555
Ti13 Ti36 2.917552 1_555
Ti13 Ti5 2.918027 1_555
Ti13 Ti43 2.956387 1_555
Ti13 Ti92 2.980428 1_555
Ti13 Ti74 2.980741 1_555
Ti13 Ti84 3.270061 1_555
Ti14 Ti55 2.593906 1_555
Ti14 Ti41 2.608784 1_565
Ti14 Ti64 2.713684 1_555
Ti14 Ti60 2.771650 1_555
Ti14 Ti39 2.801719 1_555
Ti14 Ti83 2.826469 1_465
Ti14 Ti31 2.936387 1_455
Ti14 Ti68 3.027656 1_555
Ti14 Ti86 3.062643 1_565
Ti14 Ti16 3.100715 1_565
Ti14 Ti88 3.259055 1_555
Ti15 Ti26 2.786121 1_555
Ti15 Ti83 2.875875 1_555
Ti15 Ti96 2.908210 1_655
Ti15 Ti72 2.919565 1_555
Ti15 Ti19 2.972447 1_555
Ti15 Ti42 2.974169 1_555
Ti15 Ti97 2.985564 1_555
Ti15 Ti20 3.015928 1_555
Ti15 Ti57 3.017921 1_555
Ti15 Ti75 3.136979 1_545
Ti15 Ti62 3.158379 1_555
Ti15 Ti98 3.251454 1_555
Ti16 Ti55 2.663112 1_545
Ti16 Ti68 2.679534 1_545
Ti16 Ti85 2.687305 1_555
Ti16 Ti3 2.799110 1_555
Ti16 Ti69 2.801853 1_455
Ti16 Ti27 2.808554 1_555
Ti16 Ti59 2.874933 1_545
Ti16 Ti83 2.908853 1_455
Ti16 Ti9 3.050909 1_445
Ti16 Ti81 3.367536 1_545
Ti17 Ti27 2.482254 1_555
Ti17 Ti20 2.719090 1_555
Ti17 Ti36 2.736621 1_555
Ti17 Ti90 2.815103 1_555
Ti17 Ti33 2.839543 1_555
Ti17 Ti94 2.853579 1_555
Ti17 Ti52 2.860881 1_555
Ti17 Ti26 2.882036 1_555
Ti17 Ti8 2.899662 1_555
Ti17 Ti54 2.922630 1_555
Ti18 Ti28 2.618374 1_555
Ti18 Ti21 2.683453 1_555
Ti18 Ti74 2.768807 1_556
Ti18 Ti49 2.861216 1_555
Ti18 Ti45 2.881305 1_556
Ti18 Ti77 2.920446 1_555
Ti18 Ti44 2.922606 1_556
Ti18 Ti61 2.935134 1_555
Ti18 Ti32 2.998577 1_556
Ti18 Ti58 3.018111 1_555
Ti18 Ti67 3.040550 1_555
Ti18 Ti33 3.371574 1_556
Ti19 Ti31 2.701978 1_545
Ti19 Ti96 2.799996 1_655
Ti19 Ti97 2.831865 1_555
Ti19 Ti60 2.833455 1_645
Ti19 Ti99 2.906235 1_555
Ti19 Ti46 2.996699 1_555
Ti19 Ti83 3.035631 1_555
Ti19 Ti24 3.035851 1_545
Ti19 Ti75 3.120490 1_545
Ti19 Ti41 3.148049 1_655
Ti20 Ti98 2.590062 1_555
Ti20 Ti42 2.650211 1_555
Ti20 Ti32 2.713983 1_555
Ti20 Ti57 2.822147 1_555
Ti20 Ti33 2.879675 1_555
Ti20 Ti74 2.983003 1_555
Ti20 Ti36 3.131002 1_555
Ti20 Ti26 3.205466 1_555
Ti21 Ti45 2.674330 1_556
Ti21 Ti61 2.801246 1_555
Ti21 Ti92 2.858201 1_555
Ti21 Ti6 2.929868 1_555
Ti21 Ti93 2.930510 1_555
Ti21 Ti77 3.024898 1_555
Ti21 Ti49 3.056763 1_555
Ti21 Ti82 3.095985 1_556
Ti21 Ti44 3.393577 1_556
Ti22 Ti25 2.619671 1_555
Ti22 Ti86 2.645108 1_565
Ti22 Ti68 2.808092 1_555
Ti22 Ti91 2.842118 1_555
Ti22 Ti26 2.879174 1_565
Ti22 Ti38 2.879604 1_565
Ti22 Ti39 2.902900 1_555
Ti22 Ti75 3.068488 1_555
Ti22 Ti64 3.179446 1_555
Ti23 Ti9 2.643260 1_546
Ti23 Ti93 2.675238 1_545
Ti23 Ti99 2.682573 1_555
Ti23 Ti30 2.700400 1_645
Ti23 Ti51 2.837881 1_555
Ti23 Ti65 2.931213 1_555
Ti23 Ti85 3.012310 1_656
Ti23 Ti46 3.062189 1_555
Ti23 Ti24 3.333526 1_545
Ti24 Ti80 2.739922 1_655
Ti24 Ti7 2.888354 1_655
Ti24 Ti31 2.958827 1_555
Ti24 Ti75 3.017355 1_555
Ti24 Ti60 3.035978 1_655
Ti24 Ti46 3.039747 1_565
Ti24 Ti84 3.086359 1_555
Ti24 Ti6 3.144807 1_555
Ti24 Ti30 3.362023 1_655
Ti24 Ti93 3.525102 1_555
Ti25 Ti92 2.544966 1_555
Ti25 Ti38 2.615146 1_565
Ti25 Ti43 2.759232 1_555
Ti25 Ti39 2.772302 1_555
Ti25 Ti61 2.833819 1_555
Ti25 Ti63 3.105487 1_555
Ti25 Ti64 3.347430 1_555
Ti25 Ti75 3.382850 1_555
Ti26 Ti72 2.901133 1_555
Ti26 Ti91 3.030946 1_545
Ti26 Ti27 3.031010 1_555
Ti26 Ti42 3.124277 1_555
Ti26 Ti98 3.164602 1_555
Ti26 Ti86 3.180692 1_555
Ti26 Ti54 3.355236 1_555
Ti26 Ti75 3.365058 1_545
Ti26 Ti52 3.592030 1_555
Ti27 Ti81 2.682961 1_545
Ti27 Ti86 2.685638 1_555
Ti27 Ti68 2.777586 1_545
Ti27 Ti90 3.045756 1_555
Ti27 Ti54 3.075016 1_555
Ti27 Ti94 3.084490 1_555
Ti27 Ti52 3.196219 1_555
Ti27 Ti3 3.297614 1_555
Ti27 Ti91 3.329432 1_545
Ti27 Ti85 3.356905 1_555
Ti28 Ti34 2.506780 1_555
Ti28 Ti58 2.615878 1_555
Ti28 Ti67 2.708979 1_555
Ti28 Ti4 2.740665 1_555
Ti28 Ti48 2.817991 1_555
Ti28 Ti33 2.871869 1_556
Ti28 Ti8 2.933876 1_556
Ti28 Ti73 2.935524 1_555
Ti28 Ti49 3.311939 1_555
Ti29 Ti88 2.755802 1_555
Ti29 Ti4 2.757270 1_555
Ti29 Ti66 2.796625 1_555
Ti29 Ti52 2.798648 1_555
Ti29 Ti56 2.814063 1_555
Ti29 Ti37 2.846995 1_555
Ti29 Ti64 2.885755 1_555
Ti29 Ti87 2.916434 1_555
Ti29 Ti43 3.013951 1_555
Ti29 Ti71 3.111423 1_555
Ti29 Ti76 3.246756 1_555
Ti29 Ti36 3.288452 1_555
Ti29 Ti80 3.333632 1_555
Ti30 Ti60 2.656767 1_555
Ti30 Ti85 2.714226 1_566
Ti30 Ti53 2.719891 1_565
Ti30 Ti79 2.760768 1_555
Ti30 Ti59 2.774776 1_556
Ti30 Ti7 2.845651 1_555
Ti30 Ti81 2.993315 1_556
Ti30 Ti99 3.027714 1_465
Ti31 Ti84 2.716589 1_555
Ti31 Ti83 2.796373 1_565
Ti31 Ti88 2.865355 1_655
Ti31 Ti40 2.910857 1_555
Ti31 Ti80 3.021832 1_655
Ti31 Ti75 3.083344 1_555
Ti31 Ti60 3.084743 1_655
Ti32 Ti65 2.611965 1_554
Ti32 Ti33 2.671102 1_555
Ti32 Ti95 2.695838 1_555
Ti32 Ti74 2.735110 1_555
Ti32 Ti57 2.934483 1_555
Ti32 Ti45 2.955948 1_555
Ti32 Ti77 3.434137 1_554
Ti33 Ti48 2.649580 1_554
Ti33 Ti74 2.872743 1_555
Ti33 Ti54 2.911568 1_555
Ti33 Ti58 2.944884 1_554
Ti33 Ti42 2.992687 1_555
Ti33 Ti8 3.113257 1_555
Ti33 Ti51 3.120906 1_554
Ti33 Ti65 3.202947 1_554
Ti33 Ti90 3.438826 1_555
Ti34 Ti71 2.753246 1_555
Ti34 Ti89 2.809743 1_555
Ti34 Ti73 2.821629 1_555
Ti34 Ti66 2.875497 1_555
Ti34 Ti90 2.891755 1_556
Ti34 Ti8 3.006730 1_556
Ti34 Ti50 3.010495 1_555
Ti34 Ti35 3.275860 1_555
Ti35 Ti70 2.455188 1_555
Ti35 Ti8 2.634958 1_556
Ti35 Ti67 2.706438 1_555
Ti35 Ti89 2.828770 1_555
Ti35 Ti47 2.833487 1_556
Ti35 Ti78 2.911137 1_556
Ti35 Ti7 2.925098 1_555
Ti35 Ti71 3.099878 1_555
Ti35 Ti59 3.170935 1_556
Ti35 Ti87 3.172882 1_556
Ti36 Ti43 2.729788 1_555
Ti36 Ti87 2.735844 1_555
Ti36 Ti74 2.753777 1_555
Ti36 Ti52 2.766361 1_555
Ti36 Ti98 2.803761 1_555
Ti36 Ti8 3.113362 1_555
Ti37 Ti64 2.710164 1_555
Ti37 Ti79 2.717608 1_555
Ti37 Ti61 2.750462 1_555
Ti37 Ti71 2.841344 1_555
Ti37 Ti80 2.888813 1_555
Ti37 Ti39 2.918621 1_555
Ti37 Ti60 2.972612 1_555
Ti37 Ti43 3.149495 1_555
Ti38 Ti72 2.670600 1_555
Ti38 Ti48 2.712664 1_555
Ti38 Ti39 2.754822 1_545
Ti38 Ti75 2.776542 1_545
Ti38 Ti73 2.798486 1_555
Ti38 Ti46 2.848330 1_555
Ti38 Ti63 3.031735 1_545
Ti39 Ti53 2.711436 1_565
Ti39 Ti60 2.839025 1_555
Ti39 Ti41 2.870995 1_565
Ti39 Ti86 2.919253 1_565
Ti39 Ti64 3.041382 1_555
Ti39 Ti73 3.183622 1_565
Ti39 Ti63 3.419583 1_555
Ti40 Ti5 2.705424 1_555
Ti40 Ti9 2.725238 1_555
Ti40 Ti45 2.801830 1_555
Ti40 Ti78 2.868149 1_655
Ti40 Ti88 3.018316 1_655
Ti40 Ti55 3.051352 1_655
Ti40 Ti82 3.073486 1_555
Ti40 Ti84 3.190254 1_555
Ti40 Ti93 3.504303 1_554
Ti41 Ti86 2.630607 1_555
Ti41 Ti66 2.713724 1_555
Ti41 Ti96 2.776665 1_555
Ti41 Ti73 2.909053 1_555
Ti41 Ti60 2.994623 1_545
Ti41 Ti83 3.313959 1_455
Ti42 Ti54 2.836376 1_555
Ti42 Ti51 2.849134 1_554
Ti42 Ti9 2.903462 1_545
Ti42 Ti69 2.956649 1_555
Ti42 Ti83 3.468143 1_555
Ti43 Ti61 2.839340 1_555
Ti43 Ti98 2.844037 1_555
Ti43 Ti64 2.848172 1_555
Ti43 Ti92 2.862094 1_555
Ti43 Ti49 3.168986 1_555
Ti44 Ti47 2.710395 1_555
Ti44 Ti5 2.722972 1_555
Ti44 Ti67 2.725411 1_554
Ti44 Ti82 2.769735 1_555
Ti44 Ti63 2.829900 1_554
Ti44 Ti91 2.875956 1_555
Ti44 Ti79 3.101596 1_554
Ti44 Ti61 3.135730 1_554
Ti44 Ti74 3.190855 1_555
Ti44 Ti81 3.250841 1_555
Ti45 Ti5 2.678062 1_555
Ti45 Ti78 2.749029 1_655
Ti45 Ti93 2.802535 1_554
Ti45 Ti77 2.917215 1_554
Ti45 Ti82 2.990413 1_555
Ti45 Ti70 3.025688 1_654
Ti45 Ti95 3.161325 1_555
Ti46 Ti75 2.635181 1_545
Ti46 Ti99 2.727577 1_555
Ti46 Ti58 2.736567 1_555
Ti46 Ti97 2.838114 1_555
Ti46 Ti51 2.840473 1_555
Ti46 Ti72 2.957437 1_555
Ti46 Ti65 3.215609 1_555
Ti47 Ti87 2.747537 1_555
Ti47 Ti67 2.772887 1_554
Ti47 Ti68 2.808096 1_555
Ti47 Ti59 2.930402 1_555
Ti47 Ti8 3.158624 1_555
Ti47 Ti74 3.177713 1_555
Ti47 Ti81 3.184780 1_555
Ti47 Ti79 3.324544 1_554
Ti47 Ti91 3.459277 1_555
Ti48 Ti51 2.765850 1_555
Ti48 Ti73 2.781008 1_555
Ti48 Ti53 2.792952 1_555
Ti48 Ti54 2.834951 1_556
Ti48 Ti58 2.867677 1_555
Ti48 Ti90 2.913139 1_556
Ti48 Ti63 2.939435 1_545
Ti49 Ti58 2.795454 1_555
Ti49 Ti61 2.827453 1_555
Ti49 Ti98 2.859587 1_555
Ti49 Ti92 2.897170 1_555
Ti49 Ti77 2.907607 1_555
Ti49 Ti62 2.944475 1_555
Ti49 Ti97 2.984262 1_555
Ti49 Ti72 3.206588 1_555
Ti50 Ti96 2.781645 1_555
Ti50 Ti89 2.786960 1_555
Ti50 Ti6 2.867666 1_455
Ti50 Ti70 2.899208 1_555
Ti50 Ti76 2.908823 1_555
Ti50 Ti71 2.951076 1_555
Ti50 Ti66 2.959926 1_555
Ti50 Ti97 3.022209 1_455
Ti50 Ti77 3.201151 1_455
Ti51 Ti54 2.727016 1_556
Ti51 Ti82 2.733485 1_546
Ti51 Ti65 2.871498 1_555
Ti51 Ti63 3.077925 1_545
Ti52 Ti86 2.801423 1_555
Ti52 Ti66 2.874715 1_555
Ti52 Ti94 2.940703 1_555
Ti52 Ti98 2.966500 1_555
Ti53 Ti90 2.743445 1_556
Ti53 Ti63 2.815333 1_545
Ti53 Ti79 2.835459 1_545
Ti53 Ti81 2.898585 1_546
Ti53 Ti60 2.958632 1_545
Ti54 Ti91 2.768929 1_545
Ti54 Ti81 2.857512 1_545
Ti54 Ti63 3.039253 1_544
Ti54 Ti90 3.056750 1_555
Ti54 Ti82 3.145633 1_545
Ti55 Ti88 2.545924 1_555
Ti55 Ti59 2.555694 1_555
Ti55 Ti78 2.726430 1_555
Ti55 Ti68 2.853944 1_555
Ti55 Ti9 2.947721 1_455
Ti55 Ti87 2.975893 1_555
Ti55 Ti64 3.211287 1_555
Ti55 Ti83 3.474768 1_465
Ti56 Ti76 2.613369 1_555
Ti56 Ti95 2.759617 1_455
Ti56 Ti94 2.775872 1_555
Ti56 Ti88 2.782615 1_555
Ti56 Ti87 2.968358 1_555
Ti56 Ti57 2.972712 1_455
Ti56 Ti78 3.117248 1_555
Ti57 Ti96 2.613551 1_655
Ti57 Ti69 2.678262 1_555
Ti57 Ti62 2.809698 1_555
Ti57 Ti76 2.933246 1_655
Ti57 Ti95 3.285509 1_555
Ti57 Ti83 3.396815 1_555
Ti58 Ti65 2.679370 1_555
Ti58 Ti72 2.773292 1_555
Ti58 Ti97 2.828960 1_555
Ti58 Ti77 2.948565 1_555
Ti59 Ti7 2.703764 1_554
Ti59 Ti93 2.891584 1_454
Ti59 Ti81 2.984580 1_555
Ti59 Ti79 3.178510 1_554
Ti59 Ti78 3.197777 1_555
Ti59 Ti68 3.245137 1_555
Ti60 Ti80 2.821049 1_555
Ti60 Ti79 3.305664 1_555
Ti60 Ti7 3.410464 1_555
Ti61 Ti67 2.738103 1_555
Ti61 Ti63 3.069417 1_555
Ti61 Ti92 3.276293 1_555
Ti61 Ti79 3.306961 1_555
Ti62 Ti97 2.692115 1_555
Ti62 Ti76 2.770573 1_655
Ti62 Ti98 2.916606 1_555
Ti62 Ti96 2.918476 1_655
Ti62 Ti92 2.953127 1_555
Ti62 Ti84 3.337189 1_555
Ti63 Ti79 3.002419 1_555
Ti63 Ti82 3.139970 1_556
Ti63 Ti81 3.338935 1_556
Ti64 Ti68 2.753566 1_555
Ti64 Ti87 2.826058 1_555
Ti64 Ti88 3.060371 1_555
Ti65 Ti99 2.535422 1_555
Ti65 Ti69 2.688011 1_556
Ti65 Ti95 2.819025 1_556
Ti65 Ti77 2.976351 1_555
Ti66 Ti71 2.745398 1_555
Ti66 Ti76 2.882999 1_555
Ti66 Ti73 2.900845 1_555
Ti66 Ti96 2.923158 1_555
Ti67 Ti79 2.714516 1_555
Ti67 Ti71 2.752968 1_555
Ti67 Ti8 2.779918 1_556
Ti68 Ti91 2.842572 1_555
Ti68 Ti81 2.876723 1_555
Ti68 Ti86 3.096798 1_565
Ti69 Ti83 2.723982 1_555
Ti69 Ti85 2.762589 1_655
Ti69 Ti95 2.835292 1_555
Ti69 Ti9 2.915034 1_545
Ti70 Ti77 2.553695 1_455
Ti70 Ti78 2.714982 1_556
Ti70 Ti93 2.741714 1_455
Ti70 Ti89 2.882072 1_555
Ti70 Ti95 3.364701 1_456
Ti71 Ti80 2.814916 1_555
Ti71 Ti76 3.378732 1_555
Ti72 Ti98 2.619297 1_555
Ti72 Ti97 2.838236 1_555
Ti72 Ti73 2.952091 1_555
Ti72 Ti75 3.040243 1_545
Ti73 Ti86 2.786748 1_555
Ti74 Ti8 2.605724 1_555
Ti76 Ti84 2.715165 1_455
Ti76 Ti96 2.730636 1_555
Ti76 Ti80 2.801120 1_555
Ti76 Ti88 3.146804 1_555
Ti77 Ti97 2.771237 1_555
Ti77 Ti95 3.118478 1_556
Ti77 Ti89 3.403609 1_655
Ti77 Ti99 3.414541 1_555
Ti78 Ti87 2.699832 1_555
Ti78 Ti95 2.866718 1_455
Ti78 Ti93 3.021391 1_454
Ti78 Ti88 3.073793 1_555
Ti79 Ti81 2.564536 1_556
Ti80 Ti84 2.619577 1_455
Ti80 Ti88 2.636880 1_555
Ti81 Ti91 3.062034 1_555
Ti81 Ti90 3.210524 1_565
Ti81 Ti85 3.473928 1_565
Ti82 Ti9 2.882367 1_555
Ti82 Ti93 2.883519 1_554
Ti82 Ti91 3.054502 1_555
Ti83 Ti9 2.767552 1_545
Ti83 Ti96 2.787578 1_655
Ti84 Ti92 2.785177 1_555
Ti84 Ti88 3.020804 1_655
Ti85 Ti89 2.718973 1_554
Ti85 Ti99 2.745265 1_454
Ti85 Ti90 2.851304 1_555
Ti85 Ti94 2.929455 1_555
Ti85 Ti95 3.359858 1_455
Ti87 Ti88 2.855405 1_555
Ti87 Ti94 3.113029 1_555
Ti89 Ti95 2.724403 1_456
Ti89 Ti99 2.917256 1_455
Ti89 Ti94 2.934626 1_556
Ti89 Ti90 3.049856 1_556
Ti90 Ti94 2.878516 1_555
Ti94 Ti95 3.129644 1_455
Ti96 Ti97 3.046331 1_455
Ti97 Ti99 2.759584 1_555
