# generated using pymatgen
data_CaAgPb
_symmetry_space_group_name_H-M   'P 1'
_cell_length_a   4.89884389
_cell_length_b   4.89884161
_cell_length_c   11.18859274
_cell_angle_alpha   90.00001223
_cell_angle_beta   89.99999534
_cell_angle_gamma   119.99982147
_symmetry_Int_Tables_number   1
_chemical_formula_structural   CaAgPb
_chemical_formula_sum   'Ca3 Ag3 Pb3'
_cell_volume   232.53797021
_cell_formula_units_Z   3
loop_
 _symmetry_equiv_pos_site_id
 _symmetry_equiv_pos_as_xyz
  1  'x, y, z'
loop_
 _atom_site_type_symbol
 _atom_site_label
 _atom_site_symmetry_multiplicity
 _atom_site_fract_x
 _atom_site_fract_y
 _atom_site_fract_z
 _atom_site_occupancy
  Ca  Ca0  1  0.66666697  0.33333342  0.83010258  1
  Ca  Ca1  1  0.66666687  0.33333384  0.49763897  1
  Ca  Ca2  1  0.66666701  0.33333290  0.16541777  1
  Ag  Ag0  1  0.33333335  0.66666614  0.99645045  1
  Ag  Ag1  1  -0.00000049  0.00000045  0.69257271  1
  Ag  Ag2  1  -0.00000069  0.00000018  0.30144651  1
  Pb  Pb0  1  0.33333334  0.66666660  0.64644492  1
  Pb  Pb1  1  0.33333343  0.66666654  0.34913275  1
  Pb  Pb2  1  0.00000022  -0.00000005  0.99869434  1
loop_
_geom_bond_atom_site_label_1
_geom_bond_atom_site_label_2
_geom_bond_distance
_geom_bond_site_symmetry_2
Ca0 Pb2 3.399660 1_655
Ca0 Pb2 3.399664 1_665
Ca0 Pb2 3.399667 1_555
Ca0 Pb0 3.496003 1_555
Ca0 Pb0 3.496008 1_655
Ca0 Pb0 3.496008 1_545
Ca0 Ca1 3.719800 1_555
Ca0 Ca2 3.751705 1_556
Ca1 Pb1 3.280299 1_555
Ca1 Pb1 3.280307 1_655
Ca1 Pb1 3.280309 1_545
Ca1 Pb0 3.281999 1_555
Ca1 Pb0 3.282007 1_655
Ca1 Pb0 3.282009 1_545
Ca1 Ca2 3.717088 1_555
Ca2 Pb2 3.388103 1_654
Ca2 Pb2 3.388113 1_554
Ca2 Pb2 3.388113 1_664
Ca2 Pb1 3.496381 1_555
Ca2 Pb1 3.496384 1_545
Ca2 Pb1 3.496385 1_655
Ag0 Pb2 2.828458 1_565
Ag0 Pb2 2.828462 1_555
Ag0 Pb2 2.828466 1_665
Ag0 Ca0 3.385792 1_555
Ag0 Ca0 3.385800 1_455
Ag0 Ca0 3.385802 1_565
Ag0 Ca2 3.401994 1_556
Ag0 Ca2 3.401998 1_456
Ag0 Ca2 3.401998 1_566
Ag1 Pb0 2.875053 1_545
Ag1 Pb0 2.875053 1_555
Ag1 Pb0 2.875054 1_445
Ag1 Ca0 3.219831 1_455
Ag1 Ca0 3.219843 1_445
Ag1 Ca0 3.219845 1_555
Ag1 Pb2 3.425070 1_555
Ag1 Ca1 3.571615 1_455
Ag1 Ca1 3.571622 1_445
Ag1 Ca1 3.571626 1_555
Ag2 Pb1 2.878234 1_545
Ag2 Pb1 2.878235 1_445
Ag2 Pb1 2.878235 1_555
Ag2 Ca2 3.211837 1_455
Ag2 Ca2 3.211851 1_445
Ag2 Ca2 3.211854 1_555
Ag2 Pb2 3.387371 1_554
Ag2 Ca1 3.580232 1_455
Ag2 Ca1 3.580239 1_445
Ag2 Ca1 3.580244 1_555
Pb0 Pb1 3.326505 1_555
