# generated using pymatgen
data_LiTiCoO4
_symmetry_space_group_name_H-M   'P 1'
_cell_length_a   5.93174675
_cell_length_b   8.52692779
_cell_length_c   5.93163754
_cell_angle_alpha   90.03411250
_cell_angle_beta   91.89153061
_cell_angle_gamma   90.03400079
_symmetry_Int_Tables_number   1
_chemical_formula_structural   LiTiCoO4
_chemical_formula_sum   'Li4 Ti4 Co4 O16'
_cell_volume   299.85612468
_cell_formula_units_Z   4
loop_
 _symmetry_equiv_pos_site_id
 _symmetry_equiv_pos_as_xyz
  1  'x, y, z'
loop_
 _atom_site_type_symbol
 _atom_site_label
 _atom_site_symmetry_multiplicity
 _atom_site_fract_x
 _atom_site_fract_y
 _atom_site_fract_z
 _atom_site_occupancy
  Li  Li0  1  0.49717100  0.37499600  0.25284100  1
  Li  Li1  1  0.99661700  0.87500400  0.75336700  1
  Li  Li2  1  0.50310200  0.62441300  0.74783900  1
  Li  Li3  1  0.00216300  0.12558500  0.24690300  1
  Ti  Ti0  1  0.50128900  0.00097200  0.00151100  1
  Ti  Ti1  1  0.00222600  0.50075400  0.50003600  1
  Ti  Ti2  1  0.24996500  0.24925800  0.74775700  1
  Ti  Ti3  1  0.74849000  0.74903000  0.24869000  1
  Co  Co0  1  0.24883900  0.75107300  0.25078300  1
  Co  Co1  1  0.49921300  0.99892000  0.50115100  1
  Co  Co2  1  0.74996300  0.25093700  0.75075300  1
  Co  Co3  1  0.99927000  0.49906400  0.00005000  1
  O  O0  1  0.50651400  0.76747800  0.01533800  1
  O  O1  1  0.00594900  0.26735800  0.51566400  1
  O  O2  1  0.23434500  0.48263600  0.74404900  1
  O  O3  1  0.73465500  0.98252000  0.24348500  1
  O  O4  1  0.76581300  0.51720100  0.25526800  1
  O  O5  1  0.26547900  0.01728500  0.75585800  1
  O  O6  1  0.49473200  0.23279800  0.98419400  1
  O  O7  1  0.99414100  0.73271500  0.48451500  1
  O  O8  1  0.00098900  0.25678600  0.96580400  1
  O  O9  1  0.50085100  0.75670100  0.46579400  1
  O  O10  1  0.78420300  0.49321700  0.74900800  1
  O  O11  1  0.28420500  0.99329700  0.24915000  1
  O  O12  1  0.21511100  0.50759300  0.25043400  1
  O  O13  1  0.71480700  0.00802700  0.74968100  1
  O  O14  1  0.00032100  0.74197500  0.03518400  1
  O  O15  1  0.49957500  0.24240600  0.53489500  1
loop_
_geom_bond_atom_site_label_1
_geom_bond_atom_site_label_2
_geom_bond_distance
_geom_bond_site_symmetry_2
Li0 O6 2.001461 1_554
Li0 O4 2.001500 1_555
Li0 O15 2.019454 1_555
Li0 O12 2.019540 1_555
Li1 O7 2.002894 1_555
Li1 O5 2.002923 1_665
Li1 O13 2.020214 1_565
Li1 O14 2.020251 1_656
Li2 O2 1.999695 1_555
Li2 O0 2.000441 1_556
Li2 O10 2.008304 1_555
Li2 O9 2.017986 1_555
Li3 O1 1.999669 1_555
Li3 O3 2.000507 1_445
Li3 O8 2.008293 1_554
Li3 O11 2.017995 1_545
Co0 O14 1.920908 1_555
Co0 O9 1.933259 1_555
Co0 O11 2.075990 1_555
Co0 O12 2.085629 1_555
Co0 O7 2.089839 1_455
Co0 O0 2.108810 1_555
Co1 O13 1.920940 1_565
Co1 O11 1.933192 1_555
Co1 O9 2.075941 1_555
Co1 O15 2.085688 1_565
Co1 O5 2.089888 1_565
Co1 O3 2.108752 1_555
Co2 O8 1.929065 1_655
Co2 O15 1.929986 1_555
Co2 O10 2.075809 1_555
Co2 O13 2.081609 1_555
Co2 O6 2.090871 1_555
Co2 O1 2.099897 1_655
Co3 O10 1.929190 1_554
Co3 O12 1.929898 1_655
Co3 O8 2.075794 1_654
Co3 O14 2.081604 1_655
Co3 O4 2.090874 1_555
Co3 O2 2.099906 1_654
O0 Ti3 1.967287 1_555
O0 Ti0 1.992941 1_565
O1 Ti2 1.970573 1_555
O1 Ti1 1.992465 1_555
O2 Ti1 1.970674 1_555
O2 Ti2 1.992309 1_555
O3 Ti0 1.967336 1_565
O3 Ti3 1.992907 1_555
O4 Ti3 1.979860 1_555
O4 Ti1 1.990035 1_655
O5 Ti2 1.980749 1_555
O5 Ti0 1.991238 1_556
O6 Ti0 1.979830 1_556
O6 Ti2 1.990137 1_555
O7 Ti1 1.980646 1_655
O7 Ti3 1.991292 1_555
O8 Ti2 1.996040 1_555
O9 Ti3 1.986281 1_555
O10 Ti1 1.995924 1_655
O11 Ti0 1.986198 1_565
O12 Ti1 1.978251 1_555
O13 Ti0 1.990972 1_556
O14 Ti3 1.990936 1_455
O15 Ti2 1.978205 1_555
