# generated using pymatgen
data_Ba2V2O5
_symmetry_space_group_name_H-M   'P 1'
_cell_length_a   4.04460809
_cell_length_b   8.08813404
_cell_length_c   9.25104214
_cell_angle_alpha   64.08937671
_cell_angle_beta   89.97894250
_cell_angle_gamma   90.00084412
_symmetry_Int_Tables_number   1
_chemical_formula_structural   Ba2V2O5
_chemical_formula_sum   'Ba4 V4 O10'
_cell_volume   272.21080635
_cell_formula_units_Z   2
loop_
 _symmetry_equiv_pos_site_id
 _symmetry_equiv_pos_as_xyz
  1  'x, y, z'
loop_
 _atom_site_type_symbol
 _atom_site_label
 _atom_site_symmetry_multiplicity
 _atom_site_fract_x
 _atom_site_fract_y
 _atom_site_fract_z
 _atom_site_occupancy
  Ba  Ba0  1  0.00823100  0.99978500  0.00005200  1
  Ba  Ba1  1  0.00813200  0.50020000  0.99997400  1
  Ba  Ba2  1  0.01076800  0.75042200  0.49983100  1
  Ba  Ba3  1  0.01073300  0.24970800  0.49991500  1
  V  V0  1  0.51331400  0.61884300  0.26233900  1
  V  V1  1  0.51314600  0.88095600  0.73788100  1
  V  V2  1  0.51257500  0.11931700  0.26167200  1
  V  V3  1  0.51284800  0.38095100  0.73786300  1
  O  O0  1  0.48625000  0.00002200  0.50001600  1
  O  O1  1  0.48359200  0.49993900  0.50011900  1
  O  O2  1  0.49554000  0.88474700  0.22982400  1
  O  O3  1  0.49548600  0.38483700  0.22979900  1
  O  O4  1  0.49474600  0.61487400  0.77080800  1
  O  O5  1  0.49478700  0.11493600  0.77082100  1
  O  O6  1  0.99089600  0.13616800  0.22717500  1
  O  O7  1  0.99012300  0.63540100  0.22864600  1
  O  O8  1  0.98990300  0.86444600  0.77166100  1
  O  O9  1  0.98894100  0.36445000  0.77160900  1
loop_
_geom_bond_atom_site_label_1
_geom_bond_atom_site_label_2
_geom_bond_distance
_geom_bond_site_symmetry_2
Ba0 O5 2.740077 1_564
Ba0 O2 2.746534 1_555
Ba0 O6 2.768008 1_465
Ba0 O8 2.772951 1_454
Ba0 O7 2.777845 1_455
Ba0 O9 2.779261 1_464
Ba0 O2 2.819971 1_455
Ba0 O5 2.820336 1_464
Ba1 O4 2.739865 1_555
Ba1 O3 2.746974 1_556
Ba1 O6 2.771865 1_456
Ba1 O7 2.774494 1_456
Ba1 O9 2.775242 1_455
Ba1 O8 2.776315 1_455
Ba1 O4 2.819793 1_455
Ba1 O3 2.820139 1_456
Ba2 O1 2.785151 1_555
Ba2 O0 2.788713 1_565
Ba2 O0 2.929049 1_465
Ba2 O1 2.940400 1_455
Ba2 O2 2.981386 1_555
Ba2 O4 2.986591 1_555
Ba2 O7 3.034150 1_455
Ba2 O8 3.034481 1_455
Ba2 O9 3.035641 1_455
Ba2 O6 3.037348 1_465
Ba2 O2 3.065036 1_455
Ba2 O4 3.071863 1_455
Ba3 O1 2.785171 1_555
Ba3 O0 2.788517 1_555
Ba3 O0 2.928585 1_455
Ba3 O1 2.940307 1_455
Ba3 O3 2.982015 1_555
Ba3 O5 2.986350 1_555
Ba3 O8 3.031591 1_445
Ba3 O7 3.032270 1_455
Ba3 O9 3.037248 1_455
Ba3 O6 3.039910 1_455
Ba3 O3 3.065749 1_455
Ba3 O5 3.071225 1_455
O0 V1 1.982331 1_545
O0 V2 1.986096 1_555
O1 V3 1.981876 1_555
O1 V0 1.982189 1_555
O2 V0 2.038547 1_555
O2 V2 2.044399 1_565
O3 V2 2.037243 1_555
O3 V0 2.043517 1_555
O4 V1 2.038862 1_555
O4 V3 2.044956 1_555
O5 V3 2.038186 1_555
O5 V1 2.045425 1_545
O6 V2 1.955686 1_555
O6 V2 2.129544 1_655
O7 V0 1.948664 1_555
O7 V0 2.134711 1_655
O8 V1 1.948792 1_555
O8 V1 2.134784 1_655
O9 V3 1.946094 1_555
O9 V3 2.137410 1_655
