# generated using pymatgen
data_Ho3Ga9Pt2
_symmetry_space_group_name_H-M   'P 1'
_cell_length_a   8.16178764
_cell_length_b   8.16178764
_cell_length_c   8.16178764
_cell_angle_alpha   149.62482561
_cell_angle_beta   107.92720588
_cell_angle_gamma   80.18070843
_symmetry_Int_Tables_number   1
_chemical_formula_structural   Ho3Ga9Pt2
_chemical_formula_sum   'Ho3 Ga9 Pt2'
_cell_volume   256.42519972
_cell_formula_units_Z   1
loop_
 _symmetry_equiv_pos_site_id
 _symmetry_equiv_pos_as_xyz
  1  'x, y, z'
loop_
 _atom_site_type_symbol
 _atom_site_label
 _atom_site_symmetry_multiplicity
 _atom_site_fract_x
 _atom_site_fract_y
 _atom_site_fract_z
 _atom_site_occupancy
  Ho  Ho0  1  0.00000000  0.00000000  0.00000000  1
  Ho  Ho1  1  0.30368900  0.30368900  0.00000000  1
  Ho  Ho2  1  0.69631100  0.69631100  0.00000000  1
  Ga  Ga0  1  0.50000000  0.00000000  0.50000000  1
  Ga  Ga1  1  0.71284100  0.34378600  0.36905500  1
  Ga  Ga2  1  0.28715900  0.65621400  0.63094500  1
  Ga  Ga3  1  0.97473100  0.34378600  0.63094500  1
  Ga  Ga4  1  0.02526900  0.65621400  0.36905500  1
  Ga  Ga5  1  0.42099200  0.13942000  0.28157200  1
  Ga  Ga6  1  0.57900800  0.86058000  0.71842800  1
  Ga  Ga7  1  0.85784700  0.13942000  0.71842800  1
  Ga  Ga8  1  0.14215300  0.86058000  0.28157200  1
  Pt  Pt0  1  0.69101500  0.50000000  0.19101500  1
  Pt  Pt1  1  0.30898500  0.50000000  0.80898500  1
loop_
_geom_bond_atom_site_label_1
_geom_bond_atom_site_label_2
_geom_bond_distance
_geom_bond_site_symmetry_2
Ho1 Pt0 3.061838 1_555
Ho1 Pt1 3.061838 1_554
Ho2 Pt1 3.061838 1_554
Ho2 Pt0 3.061838 1_555
Ga0 Ga7 2.726027 1_555
Ga0 Ga8 2.726027 1_545
Ga0 Ga6 2.726035 1_545
Ga0 Ga5 2.726035 1_555
Ga0 Pt0 2.817238 1_545
Ga0 Pt0 2.817238 1_556
Ga0 Pt1 2.817238 1_555
Ga0 Pt1 2.817238 1_544
Ga0 Ho2 3.253005 1_556
Ga0 Ho1 3.253005 1_545
Ga0 Ho2 3.253005 1_545
Ga0 Ho1 3.253005 1_556
Ga1 Ga3 2.514967 1_555
Ga1 Ga6 2.590046 1_544
Ga1 Ga6 2.590046 1_555
Ga1 Pt0 2.594005 1_555
Ga1 Ga5 2.686846 1_555
Ga1 Ho2 3.089503 1_545
Ga1 Ho2 3.089503 1_556
Ga1 Ho0 3.155774 1_655
Ga1 Ho0 3.155774 1_666
Ga2 Ga4 2.514967 1_555
Ga2 Ga5 2.590046 1_566
Ga2 Ga5 2.590046 1_555
Ga2 Pt1 2.594005 1_555
Ga2 Ga6 2.686846 1_555
Ga2 Ho1 3.089503 1_566
Ga2 Ho1 3.089503 1_555
Ga2 Ho0 3.155774 1_566
Ga2 Ho0 3.155774 1_555
Ga3 Ga8 2.590047 1_656
Ga3 Ga8 2.590050 1_645
Ga3 Pt1 2.594005 1_655
Ga3 Ga7 2.686850 1_555
Ga3 Ho2 3.089503 1_556
Ga3 Ho2 3.089503 1_545
Ga3 Ho0 3.155774 1_666
Ga3 Ho0 3.155774 1_655
Ga4 Ga7 2.590047 1_454
Ga4 Ga7 2.590050 1_465
Ga4 Pt0 2.594005 1_455
Ga4 Ga8 2.686850 1_555
Ga4 Ho1 3.089503 1_555
Ga4 Ho1 3.089503 1_566
Ga4 Ho0 3.155774 1_555
Ga4 Ho0 3.155774 1_566
Ga5 Pt1 2.769959 1_555
Ga5 Pt1 2.769959 1_544
Ga5 Ho2 3.078419 1_545
Ga5 Ho2 3.078419 1_556
Ga5 Ho0 3.216030 1_555
Ga5 Ho1 3.394070 1_555
Ga6 Pt0 2.769959 1_555
Ga6 Pt0 2.769959 1_566
Ga6 Ho1 3.078419 1_555
Ga6 Ho1 3.078419 1_566
Ga6 Ho0 3.216030 1_666
Ga6 Ho2 3.394070 1_556
Ga7 Pt0 2.769953 1_556
Ga7 Pt0 2.769956 1_545
Ga7 Ho2 3.078416 1_556
Ga7 Ho2 3.078419 1_545
Ga7 Ho0 3.216031 1_656
Ga7 Ho1 3.394077 1_656
Ga8 Pt1 2.769953 1_554
Ga8 Pt1 2.769956 1_565
Ga8 Ho1 3.078416 1_555
Ga8 Ho1 3.078419 1_566
Ga8 Ho0 3.216031 1_565
Ga8 Ho2 3.394077 1_455
