# generated using pymatgen
data_Yb(AlC)3
_symmetry_space_group_name_H-M   'P 1'
_cell_length_a   3.38997146
_cell_length_b   3.38997146
_cell_length_c   17.07459172
_cell_angle_alpha   90.00000000
_cell_angle_beta   90.00000000
_cell_angle_gamma   120.00001007
_symmetry_Int_Tables_number   1
_chemical_formula_structural   Yb(AlC)3
_chemical_formula_sum   'Yb2 Al6 C6'
_cell_volume   169.93115153
_cell_formula_units_Z   2
loop_
 _symmetry_equiv_pos_site_id
 _symmetry_equiv_pos_as_xyz
  1  'x, y, z'
loop_
 _atom_site_type_symbol
 _atom_site_label
 _atom_site_symmetry_multiplicity
 _atom_site_fract_x
 _atom_site_fract_y
 _atom_site_fract_z
 _atom_site_occupancy
  Yb  Yb0  1  0.00000000  0.00000000  0.49842715  1
  Yb  Yb1  1  0.00000000  0.00000000  0.99842715  1
  Al  Al0  1  0.66666700  0.33333300  0.63132028  1
  Al  Al1  1  0.33333300  0.66666700  0.36592823  1
  Al  Al2  1  0.33333300  0.66666700  0.13132028  1
  Al  Al3  1  0.66666700  0.33333300  0.86592823  1
  Al  Al4  1  0.66666700  0.33333300  0.24555703  1
  Al  Al5  1  0.33333300  0.66666700  0.74555703  1
  C  C0  1  0.66666700  0.33333300  0.74892541  1
  C  C1  1  0.33333300  0.66666700  0.24892541  1
  C  C2  1  0.66666700  0.33333300  0.09148141  1
  C  C3  1  0.33333300  0.66666700  0.90936049  1
  C  C4  1  0.33333300  0.66666700  0.59148141  1
  C  C5  1  0.66666700  0.33333300  0.40936049  1
loop_
_geom_bond_atom_site_label_1
_geom_bond_atom_site_label_2
_geom_bond_distance
_geom_bond_site_symmetry_2
Al0 C0 2.008060 1_555
Al0 C4 2.072038 1_545
Al0 C4 2.072038 1_655
Al0 C4 2.072044 1_555
Al1 C1 1.997775 1_555
Al1 C5 2.092983 1_565
Al1 C5 2.092983 1_455
Al1 C5 2.092989 1_555
Al2 C1 2.008060 1_555
Al2 C2 2.072038 1_565
Al2 C2 2.072038 1_455
Al2 C2 2.072044 1_555
Al3 C0 1.997775 1_555
Al3 C3 2.092983 1_655
Al3 C3 2.092983 1_545
Al3 C3 2.092989 1_555
Al4 C1 1.958044 1_655
Al4 C1 1.958044 1_545
Al4 C1 1.958050 1_555
Al5 C0 1.958044 1_565
Al5 C0 1.958044 1_455
Al5 C0 1.958050 1_555
C2 Yb1 2.520935 1_654
C2 Yb1 2.520938 1_554
C2 Yb1 2.520938 1_664
C3 Yb1 2.478586 1_565
C3 Yb1 2.478588 1_555
C3 Yb1 2.478588 1_665
C4 Yb0 2.520935 1_565
C4 Yb0 2.520938 1_555
C4 Yb0 2.520938 1_665
C5 Yb0 2.478586 1_655
C5 Yb0 2.478588 1_555
C5 Yb0 2.478588 1_665
