# generated using pymatgen
data_GaNi4Ge3
_symmetry_space_group_name_H-M   'P 1'
_cell_length_a   4.69405971
_cell_length_b   4.69405971
_cell_length_c   4.69405987
_cell_angle_alpha   89.37765744
_cell_angle_beta   89.37765744
_cell_angle_gamma   89.37765305
_symmetry_Int_Tables_number   1
_chemical_formula_structural   GaNi4Ge3
_chemical_formula_sum   'Ga1 Ni4 Ge3'
_cell_volume   103.41166518
_cell_formula_units_Z   1
loop_
 _symmetry_equiv_pos_site_id
 _symmetry_equiv_pos_as_xyz
  1  'x, y, z'
loop_
 _atom_site_type_symbol
 _atom_site_label
 _atom_site_symmetry_multiplicity
 _atom_site_fract_x
 _atom_site_fract_y
 _atom_site_fract_z
 _atom_site_occupancy
  Ga  Ga0  1  0.34352200  0.34352200  0.34352200  1
  Ni  Ni0  1  0.64155400  0.64155400  0.64155400  1
  Ni  Ni1  1  0.13635500  0.35986400  0.86110200  1
  Ni  Ni2  1  0.35986400  0.86110200  0.13635500  1
  Ni  Ni3  1  0.86110200  0.13635500  0.35986400  1
  Ge  Ge0  1  0.84230600  0.65438900  0.16090800  1
  Ge  Ge1  1  0.65438900  0.16090800  0.84230600  1
  Ge  Ge2  1  0.16090800  0.84230600  0.65438900  1
loop_
_geom_bond_atom_site_label_1
_geom_bond_atom_site_label_2
_geom_bond_distance
_geom_bond_site_symmetry_2
Ga0 Ni0 2.449282 1_555
Ga0 Ni2 2.474266 1_545
Ga0 Ni3 2.474266 1_455
Ga0 Ni1 2.474266 1_554
Ga0 Ni3 2.608711 1_555
Ga0 Ni2 2.608712 1_555
Ga0 Ni1 2.608712 1_555
Ga0 Ge0 2.888178 1_455
Ga0 Ge1 2.888178 1_554
Ga0 Ge2 2.888178 1_545
Ga0 Ge2 2.889529 1_555
Ga0 Ge1 2.889529 1_555
Ga0 Ge0 2.889529 1_555
Ge0 Ni1 2.399097 1_654
Ge0 Ni0 2.435998 1_555
Ge0 Ni2 2.457393 1_555
Ge0 Ni3 2.459746 1_565
Ge0 Ni3 2.596315 1_555
Ge0 Ni0 2.624732 1_554
Ge0 Ni2 2.626733 1_655
Ge1 Ni2 2.399097 1_546
Ge1 Ni0 2.435998 1_555
Ge1 Ni3 2.457393 1_555
Ge1 Ni1 2.459746 1_655
Ge1 Ni1 2.596315 1_555
Ge1 Ni0 2.624732 1_545
Ge1 Ni3 2.626733 1_556
Ge2 Ni3 2.399097 1_465
Ge2 Ni0 2.435998 1_555
Ge2 Ni1 2.457393 1_555
Ge2 Ni2 2.459746 1_556
Ge2 Ni2 2.596315 1_555
Ge2 Ni0 2.624732 1_455
Ge2 Ni1 2.626733 1_565
