# generated using pymatgen
data_KErBeF6
_symmetry_space_group_name_H-M   'P 1'
_cell_length_a   5.74597946
_cell_length_b   6.29395503
_cell_length_c   6.87642499
_cell_angle_alpha   112.83571018
_cell_angle_beta   90.00000000
_cell_angle_gamma   90.00000000
_symmetry_Int_Tables_number   1
_chemical_formula_structural   KErBeF6
_chemical_formula_sum   'K2 Er2 Be2 F12'
_cell_volume   229.19386495
_cell_formula_units_Z   2
loop_
 _symmetry_equiv_pos_site_id
 _symmetry_equiv_pos_as_xyz
  1  'x, y, z'
loop_
 _atom_site_type_symbol
 _atom_site_label
 _atom_site_symmetry_multiplicity
 _atom_site_fract_x
 _atom_site_fract_y
 _atom_site_fract_z
 _atom_site_occupancy
  K  K0  1  0.75000000  0.06856121  0.20620754  1
  K  K1  1  0.25000000  0.93143879  0.79379246  1
  Er  Er0  1  0.75000000  0.38592734  0.82101920  1
  Er  Er1  1  0.25000000  0.61407266  0.17898180  1
  Be  Be0  1  0.75000000  0.76713373  0.53816403  1
  Be  Be1  1  0.25000000  0.23286627  0.46183597  1
  F  F0  1  0.96673152  0.77291371  0.40480680  1
  F  F1  1  0.03326848  0.22708629  0.59519320  1
  F  F2  1  0.46673152  0.22708629  0.59519320  1
  F  F3  1  0.53326848  0.77291371  0.40480680  1
  F  F4  1  0.75000000  0.54864733  0.58459817  1
  F  F5  1  0.25000000  0.45135267  0.41540183  1
  F  F6  1  0.99775294  0.67786377  0.96073567  1
  F  F7  1  0.00224706  0.32213623  0.03926433  1
  F  F8  1  0.49775294  0.32213623  0.03926433  1
  F  F9  1  0.50224706  0.67786377  0.96073567  1
  F  F10  1  0.75000000  0.98735648  0.74622576  1
  F  F11  1  0.25000000  0.01264352  0.25377424  1
loop_
_geom_bond_atom_site_label_1
_geom_bond_atom_site_label_2
_geom_bond_distance
_geom_bond_site_symmetry_2
Er0 F1 2.203444 1_655
Er0 F2 2.203444 1_555
Er0 F9 2.226116 1_555
Er0 F6 2.226116 1_555
Er0 F7 2.232018 1_656
Er0 F8 2.232018 1_556
Er0 F4 2.232538 1_555
Er0 F10 2.357138 1_545
Er1 F0 2.203440 1_455
Er1 F3 2.203440 1_555
Er1 F7 2.226117 1_555
Er1 F8 2.226117 1_555
Er1 F9 2.232023 1_554
Er1 F6 2.232023 1_454
Er1 F5 2.232532 1_555
Er1 F11 2.357140 1_565
Be0 F4 1.527672 1_555
Be0 F3 1.555315 1_555
Be0 F0 1.555315 1_555
Be0 F10 1.558502 1_555
Be1 F5 1.527672 1_555
Be1 F2 1.555315 1_555
Be1 F1 1.555315 1_555
Be1 F11 1.558502 1_555
F0 K1 2.954320 1_655
F0 K0 2.975036 1_565
F1 K0 2.954320 1_455
F1 K1 2.975036 1_545
F2 K0 2.954320 1_555
F2 K1 2.975036 1_545
F3 K1 2.954320 1_555
F3 K0 2.975036 1_565
F4 K0 3.130188 1_555
F5 K1 3.130188 1_555
F6 K1 2.718066 1_655
F6 K0 2.775054 1_566
F7 K0 2.718066 1_455
F7 K1 2.775054 1_544
F8 K0 2.718066 1_555
F8 K1 2.775054 1_544
F9 K1 2.718066 1_555
F9 K0 2.775054 1_566
F10 K1 2.928186 1_555
F10 K1 2.928186 1_655
F10 K0 3.001865 1_566
F11 K0 2.928186 1_455
F11 K0 2.928186 1_555
F11 K1 3.001865 1_544
