# generated using pymatgen
data_Hf6Be15Pd8
_symmetry_space_group_name_H-M   'P 1'
_cell_length_a   8.02637233
_cell_length_b   8.02637259
_cell_length_c   8.02637226
_cell_angle_alpha   59.99967908
_cell_angle_beta   59.99968092
_cell_angle_gamma   59.99968296
_symmetry_Int_Tables_number   1
_chemical_formula_structural   Hf6Be15Pd8
_chemical_formula_sum   'Hf6 Be15 Pd8'
_cell_volume   365.62827812
_cell_formula_units_Z   1
loop_
 _symmetry_equiv_pos_site_id
 _symmetry_equiv_pos_as_xyz
  1  'x, y, z'
loop_
 _atom_site_type_symbol
 _atom_site_label
 _atom_site_symmetry_multiplicity
 _atom_site_fract_x
 _atom_site_fract_y
 _atom_site_fract_z
 _atom_site_occupancy
  Hf  Hf0  1  0.69926051  0.30073740  0.30073673  1
  Hf  Hf1  1  0.30073953  0.69926253  0.69926314  1
  Hf  Hf2  1  0.30073742  0.69926048  0.30073680  1
  Hf  Hf3  1  0.69926253  0.30073943  0.69926326  1
  Hf  Hf4  1  0.30073686  0.30073680  0.69926107  1
  Hf  Hf5  1  0.69926320  0.69926327  0.30073881  1
  Be  Be0  1  0.32638363  0.32638349  0.32638352  1
  Be  Be1  1  0.67361646  0.67361655  0.67361643  1
  Be  Be2  1  0.32640624  0.32640629  0.02080803  1
  Be  Be3  1  0.32640633  0.02080799  0.32640621  1
  Be  Be4  1  0.67359371  0.67359375  0.97919201  1
  Be  Be5  1  0.67359368  0.97919203  0.67359378  1
  Be  Be6  1  0.02080796  0.32640631  0.32640622  1
  Be  Be7  1  0.97919197  0.67359369  0.67359387  1
  Be  Be8  1  0.50000001  -0.00000001  0.00000002  1
  Be  Be9  1  -0.00000002  0.50000001  0.50000001  1
  Be  Be10  1  0.00000002  0.50000001  -0.00000001  1
  Be  Be11  1  0.50000002  -0.00000004  0.49999998  1
  Be  Be12  1  -0.00000000  -0.00000003  0.50000002  1
  Be  Be13  1  0.50000002  0.50000001  -0.00000002  1
  Be  Be14  1  -0.00000006  0.00000002  0.00000001  1
  Pd  Pd0  1  0.12489389  0.12489396  0.12489421  1
  Pd  Pd1  1  0.87510616  0.87510604  0.87510582  1
  Pd  Pd2  1  0.12489239  0.12489256  0.62532009  1
  Pd  Pd3  1  0.12489239  0.62532022  0.12489264  1
  Pd  Pd4  1  0.87510759  0.87510748  0.37467988  1
  Pd  Pd5  1  0.87510758  0.37467981  0.87510743  1
  Pd  Pd6  1  0.62532020  0.12489245  0.12489256  1
  Pd  Pd7  1  0.37467979  0.87510751  0.87510746  1
loop_
_geom_bond_atom_site_label_1
_geom_bond_atom_site_label_2
_geom_bond_distance
_geom_bond_site_symmetry_2
Hf0 Pd5 2.829042 1_554
Hf0 Pd4 2.829045 1_545
Hf0 Pd0 2.829061 1_655
Hf0 Pd6 2.829062 1_555
Hf1 Pd3 2.829043 1_556
Hf1 Pd2 2.829046 1_565
Hf1 Pd1 2.829061 1_455
Hf1 Pd7 2.829063 1_555
Hf2 Pd7 2.829042 1_554
Hf2 Pd4 2.829045 1_455
Hf2 Pd3 2.829062 1_555
Hf2 Pd0 2.829062 1_565
Hf3 Pd6 2.829042 1_556
Hf3 Pd2 2.829045 1_655
Hf3 Pd1 2.829062 1_545
Hf3 Pd5 2.829063 1_555
Hf4 Pd5 2.829041 1_455
Hf4 Pd7 2.829041 1_545
Hf4 Pd0 2.829060 1_556
Hf4 Pd2 2.829063 1_555
Hf5 Pd3 2.829040 1_655
Hf5 Pd6 2.829040 1_565
Hf5 Pd1 2.829059 1_554
Hf5 Pd4 2.829062 1_555
Be0 Be11 2.321028 1_555
Be0 Be13 2.321028 1_555
Be0 Be9 2.321029 1_555
Be0 Pd6 2.417153 1_555
Be0 Pd2 2.417153 1_555
Be0 Pd3 2.417154 1_555
Be0 Be2 2.452480 1_555
Be0 Be3 2.452481 1_555
Be0 Be6 2.452481 1_555
Be0 Hf0 2.802161 1_555
Be0 Hf2 2.802162 1_555
Be0 Hf4 2.802165 1_555
Be1 Be11 2.321028 1_565
Be1 Be9 2.321028 1_655
Be1 Be13 2.321028 1_556
Be1 Pd4 2.417153 1_555
Be1 Pd7 2.417153 1_555
Be1 Pd5 2.417154 1_555
Be1 Be5 2.452480 1_555
Be1 Be7 2.452481 1_555
Be1 Be4 2.452481 1_555
Be1 Hf1 2.802162 1_555
Be1 Hf3 2.802163 1_555
Be1 Hf5 2.802165 1_555
Be2 Be8 2.321079 1_555
Be2 Pd6 2.417165 1_555
Be2 Pd3 2.417165 1_555
Be2 Pd0 2.417341 1_555
Be2 Be6 2.452833 1_555
Be2 Be3 2.452833 1_555
Be2 Hf3 2.801922 1_554
Be2 Hf1 2.801922 1_554
Be2 Hf4 2.802080 1_554
Be3 Be8 2.321078 1_555
Be3 Pd6 2.417164 1_555
Be3 Pd2 2.417165 1_555
Be3 Pd0 2.417340 1_555
Be3 Be6 2.452834 1_555
Be3 Hf5 2.801925 1_545
Be3 Hf1 2.801927 1_545
Be3 Hf2 2.802082 1_545
Be4 Be8 2.321078 1_566
Be4 Pd7 2.417165 1_555
Be4 Pd5 2.417165 1_555
Be4 Pd1 2.417342 1_555
Be4 Be7 2.452833 1_555
Be4 Be5 2.452834 1_555
Be4 Hf2 2.801922 1_556
Be4 Hf0 2.801922 1_556
Be4 Hf5 2.802080 1_556
Be5 Be8 2.321078 1_566
Be5 Pd7 2.417164 1_555
Be5 Pd4 2.417165 1_555
Be5 Pd1 2.417341 1_555
Be5 Be7 2.452834 1_555
Be5 Hf4 2.801925 1_565
Be5 Hf0 2.801928 1_565
Be5 Hf3 2.802082 1_565
Be6 Be9 2.320903 1_555
Be6 Pd2 2.417164 1_555
Be6 Pd3 2.417164 1_555
Be6 Pd0 2.417340 1_555
Be6 Hf5 2.801925 1_455
Be6 Hf3 2.801928 1_455
Be6 Hf0 2.802082 1_455
Be7 Be9 2.320903 1_655
Be7 Pd5 2.417164 1_555
Be7 Pd4 2.417164 1_555
Be7 Pd1 2.417340 1_555
Be7 Hf4 2.801926 1_655
Be7 Hf2 2.801928 1_655
Be7 Hf1 2.802082 1_655
Be8 Pd0 2.458251 1_555
Be8 Pd1 2.458251 1_544
Be8 Pd6 2.458261 1_555
Be8 Pd7 2.458261 1_544
Be8 Hf5 2.895603 1_545
Be8 Hf3 2.895603 1_554
Be8 Hf4 2.895604 1_554
Be8 Hf2 2.895604 1_545
Be9 Pd3 2.458259 1_555
Be9 Pd5 2.458259 1_455
Be9 Pd2 2.458260 1_555
Be9 Pd4 2.458260 1_455
Be9 Hf4 2.895586 1_555
Be9 Hf5 2.895586 1_455
Be9 Hf2 2.895586 1_555
Be9 Hf3 2.895587 1_455
Be10 Be7 2.321077 1_454
Be10 Be6 2.321078 1_555
Be10 Be2 2.321078 1_555
Be10 Be4 2.321079 1_454
Be10 Pd1 2.458250 1_454
Be10 Pd0 2.458251 1_555
Be10 Pd5 2.458261 1_454
Be10 Pd3 2.458261 1_555
Be10 Hf5 2.895603 1_455
Be10 Hf4 2.895604 1_554
Be10 Hf1 2.895604 1_554
Be10 Hf0 2.895604 1_455
Be11 Be3 2.320902 1_555
Be11 Be5 2.320903 1_545
Be11 Pd6 2.458259 1_555
Be11 Pd7 2.458260 1_545
Be11 Pd4 2.458261 1_545
Be11 Pd2 2.458261 1_555
Be11 Hf5 2.895585 1_545
Be11 Hf4 2.895586 1_555
Be11 Hf0 2.895586 1_555
Be11 Hf1 2.895586 1_545
Be12 Be7 2.321078 1_445
Be12 Be5 2.321078 1_445
Be12 Be6 2.321079 1_555
Be12 Be3 2.321079 1_555
Be12 Pd1 2.458249 1_445
Be12 Pd0 2.458249 1_555
Be12 Pd4 2.458260 1_445
Be12 Pd2 2.458260 1_555
Be12 Hf1 2.895607 1_545
Be12 Hf3 2.895608 1_455
Be12 Hf2 2.895608 1_545
Be12 Hf0 2.895608 1_455
Be13 Be4 2.320902 1_554
Be13 Be2 2.320903 1_555
Be13 Pd7 2.458260 1_554
Be13 Pd5 2.458260 1_554
Be13 Pd6 2.458260 1_555
Be13 Pd3 2.458261 1_555
Be13 Hf0 2.895582 1_555
Be13 Hf2 2.895583 1_555
Be13 Hf3 2.895583 1_554
Be13 Hf1 2.895583 1_554
Be14 Pd6 2.455456 1_455
Be14 Pd5 2.455456 1_454
Be14 Pd3 2.455456 1_545
Be14 Pd7 2.455457 1_544
Be14 Pd4 2.455457 1_445
Be14 Pd2 2.455457 1_554
Be14 Pd1 2.455486 1_444
Be14 Pd0 2.455487 1_555
