# generated using pymatgen
data_LaAlGe2O7
_symmetry_space_group_name_H-M   'P 1'
_cell_length_a   6.63000400
_cell_length_b   7.37766900
_cell_length_c   12.99898482
_cell_angle_alpha   62.51216989
_cell_angle_beta   90.00000000
_cell_angle_gamma   90.00000000
_symmetry_Int_Tables_number   1
_chemical_formula_structural   LaAlGe2O7
_chemical_formula_sum   'La4 Al4 Ge8 O28'
_cell_volume   564.05223620
_cell_formula_units_Z   4
loop_
 _symmetry_equiv_pos_site_id
 _symmetry_equiv_pos_as_xyz
  1  'x, y, z'
loop_
 _atom_site_type_symbol
 _atom_site_label
 _atom_site_symmetry_multiplicity
 _atom_site_fract_x
 _atom_site_fract_y
 _atom_site_fract_z
 _atom_site_occupancy
  La  La0  1  0.35207000  0.73870400  0.52560600  1
  La  La1  1  0.64793000  0.26129600  0.47439400  1
  La  La2  1  0.85207000  0.26129600  0.97439400  1
  La  La3  1  0.14793000  0.73870400  0.02560600  1
  Al  Al0  1  0.39766400  0.71348200  0.26969300  1
  Al  Al1  1  0.60233600  0.28651800  0.73030700  1
  Al  Al2  1  0.89766400  0.28651800  0.23030700  1
  Al  Al3  1  0.10233600  0.71348200  0.76969300  1
  Ge  Ge0  1  0.65732100  0.70871000  0.04959900  1
  Ge  Ge1  1  0.34267900  0.29129000  0.95040100  1
  Ge  Ge2  1  0.15732100  0.29129000  0.45040100  1
  Ge  Ge3  1  0.84267900  0.70871000  0.54959900  1
  Ge  Ge4  1  0.90973500  0.80329300  0.28080500  1
  Ge  Ge5  1  0.09026500  0.19670700  0.71919500  1
  Ge  Ge6  1  0.40973500  0.19670700  0.21919500  1
  Ge  Ge7  1  0.59026500  0.80329300  0.78080500  1
  O  O0  1  0.37540600  0.92872300  0.29986900  1
  O  O1  1  0.62459400  0.07127700  0.70013100  1
  O  O2  1  0.87540600  0.07127700  0.20013100  1
  O  O3  1  0.12459400  0.92872300  0.79986900  1
  O  O4  1  0.82209500  0.90674500  0.02336100  1
  O  O5  1  0.17790500  0.09325500  0.97663900  1
  O  O6  1  0.32209500  0.09325500  0.47663900  1
  O  O7  1  0.67790500  0.90674500  0.52336100  1
  O  O8  1  0.61511100  0.27450800  0.27650600  1
  O  O9  1  0.38488900  0.72549200  0.72349400  1
  O  O10  1  0.11511100  0.72549200  0.22349400  1
  O  O11  1  0.88488900  0.27450800  0.77650600  1
  O  O12  1  0.99606500  0.74664900  0.42718000  1
  O  O13  1  0.00393500  0.25335100  0.57282000  1
  O  O14  1  0.49606500  0.25335100  0.07282000  1
  O  O15  1  0.50393500  0.74664900  0.92718000  1
  O  O16  1  0.45045900  0.70337000  0.13604200  1
  O  O17  1  0.54954100  0.29663000  0.86395800  1
  O  O18  1  0.95045900  0.29663000  0.36395800  1
  O  O19  1  0.04954100  0.70337000  0.63604200  1
  O  O20  1  0.83722100  0.50408400  0.08734400  1
  O  O21  1  0.16277900  0.49591600  0.91265600  1
  O  O22  1  0.33722100  0.49591600  0.41265600  1
  O  O23  1  0.66277900  0.50408400  0.58734400  1
  O  O24  1  0.68143800  0.66260500  0.31214500  1
  O  O25  1  0.31856200  0.33739500  0.68785500  1
  O  O26  1  0.18143800  0.33739500  0.18785500  1
  O  O27  1  0.81856200  0.66260500  0.81214500  1
loop_
_geom_bond_atom_site_label_1
_geom_bond_atom_site_label_2
_geom_bond_distance
_geom_bond_site_symmetry_2
La0 O6 2.397889 1_565
La0 O19 2.409653 1_555
La0 O7 2.484206 1_555
La0 O9 2.538176 1_555
La0 O23 2.569339 1_555
La0 O0 2.608116 1_555
La0 O12 2.672499 1_455
La0 O25 2.738451 1_555
La0 O22 2.793129 1_555
La1 O7 2.397889 1_545
La1 O18 2.409653 1_555
La1 O6 2.484206 1_555
La1 O8 2.538176 1_555
La1 O22 2.569339 1_555
La1 O1 2.608116 1_555
La1 O13 2.672499 1_655
La1 O24 2.738451 1_555
La1 O23 2.793129 1_555
La2 O4 2.397889 1_546
La2 O17 2.409653 1_555
La2 O5 2.484206 1_655
La2 O11 2.538176 1_555
La2 O21 2.569339 1_655
La2 O2 2.608116 1_556
La2 O14 2.672499 1_556
La2 O27 2.738451 1_555
La2 O20 2.793129 1_556
La3 O5 2.397889 1_564
La3 O16 2.409653 1_555
La3 O4 2.484206 1_455
La3 O10 2.538176 1_555
La3 O20 2.569339 1_455
La3 O3 2.608116 1_554
La3 O15 2.672499 1_554
La3 O26 2.738451 1_555
La3 O21 2.793129 1_554
Al0 O16 1.807219 1_555
Al0 O0 1.808956 1_555
Al0 O22 1.853910 1_555
Al0 O24 1.947807 1_555
Al0 O10 1.956715 1_555
Al1 O17 1.807219 1_555
Al1 O1 1.808956 1_555
Al1 O23 1.853910 1_555
Al1 O25 1.947807 1_555
Al1 O11 1.956715 1_555
Al2 O18 1.807219 1_555
Al2 O2 1.808956 1_555
Al2 O20 1.853910 1_555
Al2 O26 1.947807 1_655
Al2 O8 1.956715 1_555
Al3 O19 1.807219 1_555
Al3 O3 1.808956 1_555
Al3 O21 1.853910 1_555
Al3 O27 1.947807 1_455
Al3 O9 1.956715 1_555
Ge0 O4 1.727543 1_555
Ge0 O16 1.761909 1_555
Ge0 O15 1.798241 1_554
Ge0 O20 1.805180 1_555
Ge1 O5 1.727543 1_555
Ge1 O17 1.761909 1_555
Ge1 O14 1.798241 1_556
Ge1 O21 1.805180 1_555
Ge2 O6 1.727543 1_555
Ge2 O18 1.761909 1_455
Ge2 O13 1.798241 1_555
Ge2 O22 1.805180 1_555
Ge3 O7 1.727543 1_555
Ge3 O19 1.761909 1_655
Ge3 O12 1.798241 1_555
Ge3 O23 1.805180 1_555
Ge4 O10 1.770107 1_655
Ge4 O24 1.773127 1_555
Ge4 O2 1.773838 1_565
Ge4 O12 1.840814 1_555
Ge5 O11 1.770107 1_455
Ge5 O25 1.773127 1_555
Ge5 O3 1.773838 1_545
Ge5 O13 1.840814 1_555
Ge6 O8 1.770107 1_555
Ge6 O26 1.773127 1_555
Ge6 O0 1.773838 1_545
Ge6 O14 1.840814 1_555
Ge7 O9 1.770107 1_555
Ge7 O27 1.773127 1_555
Ge7 O1 1.773838 1_565
Ge7 O15 1.840814 1_555
