# generated using pymatgen
data_Sr6Ca2MnFe7O20
_symmetry_space_group_name_H-M   'P 1'
_cell_length_a   11.13740977
_cell_length_b   11.46235849
_cell_length_c   17.50850547
_cell_angle_alpha   109.03240415
_cell_angle_beta   108.68104413
_cell_angle_gamma   89.96043114
_symmetry_Int_Tables_number   1
_chemical_formula_structural   Sr6Ca2MnFe7O20
_chemical_formula_sum   'Sr24 Ca8 Mn4 Fe28 O80'
_cell_volume   1988.16691060
_cell_formula_units_Z   4
loop_
 _symmetry_equiv_pos_site_id
 _symmetry_equiv_pos_as_xyz
  1  'x, y, z'
loop_
 _atom_site_type_symbol
 _atom_site_label
 _atom_site_symmetry_multiplicity
 _atom_site_fract_x
 _atom_site_fract_y
 _atom_site_fract_z
 _atom_site_occupancy
  Sr  Sr0  1  0.30624400  0.06160900  0.60911000  1
  Sr  Sr1  1  0.30669500  0.55926800  0.60856700  1
  Sr  Sr2  1  0.80755400  0.06546000  0.60996800  1
  Sr  Sr3  1  0.80885000  0.56191200  0.61007400  1
  Sr  Sr4  1  0.19524800  0.43422300  0.38895200  1
  Sr  Sr5  1  0.19758600  0.43838700  0.89149000  1
  Sr  Sr6  1  0.19548900  0.93573800  0.38805400  1
  Sr  Sr7  1  0.69576900  0.43510200  0.38858700  1
  Sr  Sr8  1  0.69931100  0.44080500  0.89217000  1
  Sr  Sr9  1  0.69594600  0.93487000  0.38922400  1
  Sr  Sr10  1  0.69961100  0.93775400  0.89463700  1
  Sr  Sr11  1  0.05586000  0.29378100  0.10993300  1
  Sr  Sr12  1  0.05865700  0.29777300  0.61062300  1
  Sr  Sr13  1  0.05650200  0.79550700  0.60906800  1
  Sr  Sr14  1  0.55729300  0.29919000  0.60939400  1
  Sr  Sr15  1  0.55459700  0.79403900  0.10989800  1
  Sr  Sr16  1  0.55612400  0.79539900  0.60729200  1
  Sr  Sr17  1  0.44504300  0.20308300  0.38714200  1
  Sr  Sr18  1  0.44734400  0.20366900  0.89259700  1
  Sr  Sr19  1  0.44423300  0.70304200  0.38683400  1
  Sr  Sr20  1  0.44859200  0.70225000  0.89385500  1
  Sr  Sr21  1  0.94498300  0.20365400  0.38723500  1
  Sr  Sr22  1  0.94842700  0.20616600  0.89298100  1
  Sr  Sr23  1  0.94523000  0.70233300  0.38708100  1
  Ca  Ca0  1  0.30238000  0.06621700  0.10465300  1
  Ca  Ca1  1  0.30195800  0.56708000  0.10471600  1
  Ca  Ca2  1  0.80132700  0.06649100  0.10510400  1
  Ca  Ca3  1  0.80166800  0.56798800  0.10503800  1
  Ca  Ca4  1  0.20063600  0.93507800  0.89874500  1
  Ca  Ca5  1  0.05417900  0.78682100  0.10466700  1
  Ca  Ca6  1  0.55376100  0.28808400  0.10546600  1
  Ca  Ca7  1  0.95361600  0.71179100  0.89750900  1
  Mn  Mn0  1  0.11136300  0.60170700  0.75360200  1
  Mn  Mn1  1  0.61462400  0.60112500  0.75192600  1
  Mn  Mn2  1  0.36526300  0.40729900  0.75217200  1
  Mn  Mn3  1  0.35861200  0.90315600  0.75335800  1
  Fe  Fe0  1  0.00811100  0.00058100  0.00445900  1
  Fe  Fe1  1  0.00340300  0.99935600  0.49846300  1
  Fe  Fe2  1  0.00652600  0.50274200  0.00320900  1
  Fe  Fe3  1  0.00301800  0.49998700  0.49997200  1
  Fe  Fe4  1  0.50571100  0.00287400  0.00407700  1
  Fe  Fe5  1  0.50345600  0.00075000  0.49923200  1
  Fe  Fe6  1  0.50672400  0.50049600  0.00459600  1
  Fe  Fe7  1  0.50372500  0.49984700  0.49957800  1
  Fe  Fe8  1  0.25775500  0.25214700  0.00461700  1
  Fe  Fe9  1  0.25354100  0.24927000  0.50028700  1
  Fe  Fe10  1  0.25449700  0.75149000  0.00252800  1
  Fe  Fe11  1  0.25209400  0.74970500  0.49906200  1
  Fe  Fe12  1  0.75646700  0.25366900  0.00534600  1
  Fe  Fe13  1  0.75417100  0.25013000  0.49974400  1
  Fe  Fe14  1  0.75790300  0.75162600  0.00350600  1
  Fe  Fe15  1  0.75377200  0.74878000  0.49939400  1
  Fe  Fe16  1  0.10281600  0.08359700  0.24384700  1
  Fe  Fe17  1  0.11119600  0.08399400  0.75409800  1
  Fe  Fe18  1  0.10409700  0.59081700  0.24610800  1
  Fe  Fe19  1  0.60382900  0.09049000  0.24616700  1
  Fe  Fe20  1  0.61147700  0.08912100  0.75162400  1
  Fe  Fe21  1  0.60312700  0.58417800  0.24493400  1
  Fe  Fe22  1  0.35667100  0.40941900  0.24590600  1
  Fe  Fe23  1  0.35083300  0.90807800  0.24443500  1
  Fe  Fe24  1  0.85104400  0.40811700  0.24429400  1
  Fe  Fe25  1  0.86255900  0.41785400  0.75371900  1
  Fe  Fe26  1  0.85701800  0.90962500  0.24601400  1
  Fe  Fe27  1  0.86227600  0.90620000  0.75220500  1
  O  O0  1  0.12259000  0.12091700  0.49036400  1
  O  O1  1  0.12684900  0.11654500  0.98833900  1
  O  O2  1  0.12250600  0.62145400  0.49068500  1
  O  O3  1  0.12180300  0.62510000  0.99125700  1
  O  O4  1  0.62401300  0.12216200  0.49122000  1
  O  O5  1  0.62609600  0.12547900  0.99449100  1
  O  O6  1  0.62336000  0.62250900  0.49154700  1
  O  O7  1  0.62863600  0.62333300  0.99543000  1
  O  O8  1  0.13832200  0.38246400  0.01477000  1
  O  O9  1  0.12958500  0.37575800  0.50433500  1
  O  O10  1  0.13640400  0.88045300  0.01513200  1
  O  O11  1  0.13067700  0.87775000  0.50649100  1
  O  O12  1  0.63724700  0.38037100  0.01710000  1
  O  O13  1  0.63198500  0.37685400  0.50707300  1
  O  O14  1  0.63830500  0.88379600  0.01457200  1
  O  O15  1  0.63175400  0.87764500  0.50739400  1
  O  O16  1  0.37350000  0.11890500  0.49065900  1
  O  O17  1  0.37421900  0.11980300  0.99293100  1
  O  O18  1  0.37270200  0.62044500  0.49090200  1
  O  O19  1  0.37423000  0.61917600  0.99522800  1
  O  O20  1  0.87388100  0.11898300  0.49141500  1
  O  O21  1  0.87482800  0.11775100  0.99217700  1
  O  O22  1  0.87284900  0.61920900  0.48981700  1
  O  O23  1  0.87894800  0.62249900  0.99267000  1
  O  O24  1  0.38890600  0.38345200  0.01880700  1
  O  O25  1  0.37982100  0.37805900  0.50380700  1
  O  O26  1  0.38212900  0.88775300  0.01418700  1
  O  O27  1  0.38191200  0.88014400  0.50677000  1
  O  O28  1  0.88381100  0.38759200  0.01489100  1
  O  O29  1  0.88056100  0.37814600  0.50527400  1
  O  O30  1  0.88840600  0.88228600  0.01477100  1
  O  O31  1  0.88168100  0.87992300  0.50740100  1
  O  O32  1  0.09124500  0.09838000  0.13808100  1
  O  O33  1  0.08660100  0.09150700  0.64345700  1
  O  O34  1  0.08998000  0.60516300  0.13959100  1
  O  O35  1  0.07146100  0.58478300  0.63519900  1
  O  O36  1  0.58828600  0.10522600  0.13974800  1
  O  O37  1  0.58242600  0.09622500  0.64077100  1
  O  O38  1  0.59198700  0.60023700  0.14034100  1
  O  O39  1  0.57387200  0.58619500  0.63475200  1
  O  O40  1  0.44226500  0.40739200  0.35743600  1
  O  O41  1  0.44395200  0.41382400  0.86950800  1
  O  O42  1  0.43800600  0.90758600  0.35675000  1
  O  O43  1  0.44259000  0.91371900  0.86756100  1
  O  O44  1  0.93701900  0.40705600  0.35577200  1
  O  O45  1  0.94531500  0.40316600  0.86254500  1
  O  O46  1  0.94108100  0.90675900  0.35784400  1
  O  O47  1  0.94629300  0.89429600  0.86136100  1
  O  O48  1  0.33449300  0.28189800  0.14058800  1
  O  O49  1  0.32559200  0.29869100  0.63410500  1
  O  O50  1  0.33380100  0.78234300  0.14030500  1
  O  O51  1  0.32023200  0.80085100  0.63707900  1
  O  O52  1  0.83637900  0.28147200  0.14019200  1
  O  O53  1  0.83714500  0.30059800  0.64175200  1
  O  O54  1  0.83863500  0.78385100  0.14115200  1
  O  O55  1  0.83189000  0.79333800  0.63985100  1
  O  O56  1  0.18739900  0.19781400  0.35487600  1
  O  O57  1  0.19534500  0.20877200  0.86084000  1
  O  O58  1  0.18609600  0.70400900  0.35805000  1
  O  O59  1  0.19421400  0.71182000  0.86868000  1
  O  O60  1  0.68640800  0.20329600  0.35798100  1
  O  O61  1  0.69258600  0.20807900  0.86141300  1
  O  O62  1  0.68739200  0.69922700  0.35675400  1
  O  O63  1  0.69537700  0.70411100  0.86798700  1
  O  O64  1  0.42647900  0.05620100  0.23870300  1
  O  O65  1  0.44204300  0.05258000  0.75139600  1
  O  O66  1  0.42617400  0.55863200  0.23910900  1
  O  O67  1  0.44300400  0.56714700  0.75214000  1
  O  O68  1  0.92634800  0.05896200  0.23914000  1
  O  O69  1  0.93724400  0.05826700  0.75237700  1
  O  O70  1  0.92677700  0.55635000  0.23865300  1
  O  O71  1  0.93257700  0.57561000  0.75997100  1
  O  O72  1  0.18551900  0.44244900  0.24797400  1
  O  O73  1  0.19153600  0.45016900  0.75213100  1
  O  O74  1  0.17430300  0.92882600  0.24006800  1
  O  O75  1  0.18194200  0.93112000  0.75986900  1
  O  O76  1  0.67471600  0.42910600  0.24052300  1
  O  O77  1  0.69207800  0.44292500  0.75084000  1
  O  O78  1  0.68566600  0.94226400  0.24790800  1
  O  O79  1  0.68932600  0.93820600  0.75182200  1
loop_
_geom_bond_atom_site_label_1
_geom_bond_atom_site_label_2
_geom_bond_distance
_geom_bond_site_symmetry_2
Ca0 O48 2.340558 1_555
Ca0 O64 2.351479 1_555
Ca0 O26 2.503549 1_545
Ca0 O10 2.525943 1_545
Ca0 O1 2.552685 1_554
Ca0 O17 2.574988 1_554
Ca0 O32 2.597636 1_555
Ca1 O50 2.336473 1_555
Ca1 O66 2.350127 1_555
Ca1 O8 2.504552 1_555
Ca1 O19 2.532777 1_554
Ca1 O24 2.548693 1_555
Ca1 O3 2.592454 1_554
Ca1 O34 2.624002 1_555
Ca2 O52 2.337177 1_555
Ca2 O68 2.343553 1_555
Ca2 O14 2.488194 1_545
Ca2 O5 2.539223 1_554
Ca2 O30 2.588808 1_545
Ca2 O21 2.592254 1_554
Ca2 O36 2.634337 1_555
Ca3 O54 2.346430 1_555
Ca3 O70 2.355258 1_555
Ca3 O7 2.494455 1_554
Ca3 O12 2.527551 1_555
Ca3 O28 2.529347 1_555
Ca3 O38 2.597461 1_555
Ca3 O23 2.624707 1_554
Ca4 O75 2.358266 1_555
Ca4 O59 2.434867 1_555
Ca4 O1 2.481528 1_565
Ca4 O26 2.561605 1_556
Ca4 O17 2.574160 1_565
Ca4 O10 2.612068 1_556
Ca4 O47 2.699218 1_455
Ca4 O43 2.911028 1_555
Ca5 O74 2.348182 1_555
Ca5 O34 2.354065 1_555
Ca5 O30 2.518413 1_455
Ca5 O23 2.519183 1_454
Ca5 O10 2.542878 1_555
Ca5 O3 2.549840 1_554
Ca5 O54 2.677455 1_455
Ca5 O50 2.977662 1_555
Ca6 O76 2.342786 1_555
Ca6 O36 2.360684 1_555
Ca6 O24 2.482452 1_555
Ca6 O12 2.523405 1_555
Ca6 O5 2.556744 1_554
Ca6 O17 2.569829 1_554
Ca6 O48 2.708798 1_555
Ca6 O52 3.014427 1_555
Ca7 O71 2.340473 1_555
Ca7 O47 2.369308 1_555
Ca7 O3 2.506376 1_655
Ca7 O23 2.552656 1_555
Ca7 O10 2.616510 1_656
Ca7 O30 2.626443 1_556
Ca7 O63 2.750508 1_555
Ca7 O59 2.881283 1_655
Mn0 O59 1.912097 1_555
Mn0 O35 1.918428 1_555
Mn0 O73 1.948972 1_555
Mn0 O71 2.057101 1_455
Mn1 O63 1.896799 1_555
Mn1 O39 1.902301 1_555
Mn1 O67 1.952364 1_555
Mn1 O77 2.004641 1_555
Mn2 O41 1.934074 1_555
Mn2 O49 1.937907 1_555
Mn2 O73 1.995798 1_555
Mn2 O67 2.027295 1_555
Mn3 O43 1.879303 1_555
Mn3 O51 1.894404 1_555
Mn3 O65 1.964469 1_565
Mn3 O75 2.026415 1_555
Fe0 O30 1.991221 1_445
Fe0 O10 1.991629 1_545
Fe0 O21 2.008646 1_454
Fe0 O1 2.020277 1_554
Fe0 O32 2.119106 1_555
Fe0 O47 2.267338 1_444
Fe1 O11 1.992341 1_555
Fe1 O20 1.992474 1_465
Fe1 O0 1.993912 1_565
Fe1 O31 2.003655 1_455
Fe1 O46 2.207233 1_455
Fe1 O33 2.272560 1_565
Fe2 O23 1.982882 1_454
Fe2 O28 2.002380 1_455
Fe2 O3 2.006292 1_554
Fe2 O8 2.021190 1_555
Fe2 O34 2.166881 1_555
Fe2 O45 2.219264 1_454
Fe3 O29 1.996861 1_455
Fe3 O22 1.997870 1_455
Fe3 O9 2.004927 1_555
Fe3 O2 2.006180 1_555
Fe3 O35 2.115517 1_555
Fe3 O44 2.259967 1_455
Fe4 O17 1.990965 1_554
Fe4 O26 1.994472 1_545
Fe4 O14 2.016066 1_545
Fe4 O5 2.025199 1_554
Fe4 O43 2.140810 1_544
Fe4 O36 2.156193 1_555
Fe5 O16 1.985535 1_555
Fe5 O27 1.999255 1_545
Fe5 O4 2.002449 1_555
Fe5 O15 2.012772 1_545
Fe5 O37 2.224562 1_555
Fe5 O42 2.234658 1_545
Fe6 O24 2.003229 1_555
Fe6 O19 2.010641 1_554
Fe6 O12 2.011716 1_555
Fe6 O7 2.035043 1_554
Fe6 O41 2.116376 1_554
Fe6 O38 2.154304 1_555
Fe7 O25 1.998520 1_555
Fe7 O6 2.005865 1_555
Fe7 O13 2.010743 1_555
Fe7 O18 2.013834 1_555
Fe7 O39 2.116616 1_555
Fe7 O40 2.230430 1_555
Fe8 O24 1.996804 1_555
Fe8 O17 1.997604 1_554
Fe8 O8 2.001942 1_555
Fe8 O1 2.017620 1_554
Fe8 O48 2.163735 1_555
Fe8 O57 2.265071 1_554
Fe9 O0 1.998931 1_555
Fe9 O9 2.001475 1_555
Fe9 O16 2.005874 1_555
Fe9 O25 2.012237 1_555
Fe9 O49 2.094006 1_555
Fe9 O56 2.278620 1_555
Fe10 O10 1.983483 1_555
Fe10 O3 1.987843 1_554
Fe10 O19 2.018596 1_554
Fe10 O26 2.027575 1_555
Fe10 O59 2.108775 1_554
Fe10 O50 2.191664 1_555
Fe11 O11 1.996276 1_555
Fe11 O2 1.998082 1_555
Fe11 O18 2.000526 1_555
Fe11 O27 2.022495 1_555
Fe11 O51 2.158899 1_555
Fe11 O58 2.214664 1_555
Fe12 O12 1.972828 1_555
Fe12 O5 1.986822 1_554
Fe12 O28 2.019841 1_555
Fe12 O21 2.043447 1_554
Fe12 O52 2.152062 1_555
Fe12 O61 2.263404 1_554
Fe13 O13 1.991438 1_555
Fe13 O29 1.991712 1_555
Fe13 O4 1.999199 1_555
Fe13 O20 2.009335 1_555
Fe13 O60 2.224843 1_555
Fe13 O53 2.227405 1_555
Fe14 O7 1.998029 1_554
Fe14 O30 2.005291 1_555
Fe14 O23 2.005513 1_554
Fe14 O14 2.019420 1_555
Fe14 O63 2.123832 1_554
Fe14 O54 2.187380 1_555
Fe15 O6 1.992168 1_555
Fe15 O22 1.992498 1_555
Fe15 O15 2.008095 1_555
Fe15 O31 2.011537 1_555
Fe15 O55 2.208227 1_555
Fe15 O62 2.235824 1_555
Fe16 O32 1.877831 1_555
Fe16 O56 1.883904 1_555
Fe16 O74 1.934099 1_545
Fe16 O68 1.957330 1_455
Fe17 O57 1.884996 1_555
Fe17 O33 1.898389 1_555
Fe17 O75 1.940142 1_545
Fe17 O69 1.949073 1_455
Fe18 O34 1.882007 1_555
Fe18 O58 1.885542 1_555
Fe18 O72 1.931512 1_555
Fe18 O70 1.968656 1_455
Fe19 O36 1.878497 1_555
Fe19 O60 1.883515 1_555
Fe19 O78 1.931886 1_545
Fe19 O64 1.968568 1_555
Fe20 O61 1.884185 1_555
Fe20 O37 1.891839 1_555
Fe20 O65 1.931736 1_555
Fe20 O79 1.934950 1_545
Fe21 O38 1.864695 1_555
Fe21 O62 1.895684 1_555
Fe21 O76 1.936261 1_555
Fe21 O66 1.957741 1_555
Fe22 O48 1.883767 1_555
Fe22 O40 1.886667 1_555
Fe22 O66 1.931889 1_555
Fe22 O72 1.952559 1_555
Fe23 O50 1.871397 1_555
Fe23 O42 1.895739 1_555
Fe23 O64 1.941599 1_565
Fe23 O74 1.960311 1_555
Fe24 O52 1.881504 1_555
Fe24 O44 1.882772 1_555
Fe24 O70 1.942403 1_555
Fe24 O76 1.961005 1_555
Fe25 O45 1.895346 1_555
Fe25 O77 1.907258 1_555
Fe25 O53 1.912130 1_555
Fe25 O71 1.925632 1_555
Fe26 O54 1.877349 1_555
Fe26 O46 1.891798 1_555
Fe26 O68 1.933012 1_565
Fe26 O78 1.953096 1_555
Fe27 O47 1.889719 1_555
Fe27 O55 1.890017 1_555
Fe27 O69 1.931926 1_565
Fe27 O79 1.958901 1_555
O0 Sr6 2.612047 1_545
O0 Sr21 2.626544 1_455
O0 Sr0 2.676588 1_555
O0 Sr12 2.687833 1_555
O1 Sr22 2.604231 1_455
O1 Sr11 2.745879 1_556
O2 Sr23 2.616883 1_455
O2 Sr4 2.619858 1_555
O2 Sr13 2.663424 1_555
O2 Sr1 2.687256 1_555
O3 Sr5 2.616807 1_555
O4 Sr9 2.617902 1_545
O4 Sr17 2.631929 1_555
O4 Sr2 2.660945 1_555
O4 Sr14 2.682391 1_555
O5 Sr18 2.591239 1_555
O5 Sr10 2.611136 1_545
O6 Sr7 2.630161 1_555
O6 Sr16 2.635451 1_555
O6 Sr19 2.636589 1_555
O6 Sr3 2.692331 1_555
O7 Sr8 2.589951 1_555
O7 Sr20 2.600812 1_555
O7 Sr15 2.650301 1_556
O8 Sr11 2.595970 1_555
O8 Sr5 2.705748 1_554
O8 Sr22 2.722136 1_454
O9 Sr1 2.615720 1_555
O9 Sr4 2.625857 1_555
O9 Sr12 2.629413 1_555
O9 Sr21 2.643790 1_455
O11 Sr0 2.603562 1_565
O11 Sr13 2.617709 1_555
O11 Sr6 2.668591 1_555
O11 Sr23 2.679105 1_455
O12 Sr18 2.738676 1_554
O12 Sr8 2.774806 1_554
O13 Sr14 2.586459 1_555
O13 Sr3 2.620519 1_555
O13 Sr7 2.664974 1_555
O13 Sr17 2.681188 1_555
O14 Sr15 2.613673 1_555
O14 Sr10 2.650348 1_554
O14 Sr20 2.745662 1_554
O15 Sr16 2.584140 1_555
O15 Sr2 2.631567 1_565
O15 Sr9 2.656197 1_555
O15 Sr19 2.692456 1_555
O16 Sr6 2.613455 1_545
O16 Sr17 2.630119 1_555
O16 Sr0 2.679108 1_555
O16 Sr14 2.694474 1_555
O17 Sr18 2.586958 1_555
O18 Sr19 2.628120 1_555
O18 Sr4 2.628584 1_555
O18 Sr16 2.649727 1_555
O18 Sr1 2.681313 1_555
O19 Sr5 2.593355 1_555
O19 Sr20 2.605363 1_555
O19 Sr15 2.623168 1_556
O20 Sr9 2.618000 1_545
O20 Sr21 2.641417 1_555
O20 Sr2 2.654047 1_555
O20 Sr12 2.693651 1_655
O21 Sr10 2.560098 1_545
O21 Sr22 2.603163 1_555
O21 Sr11 2.648892 1_656
O22 Sr7 2.609873 1_555
O22 Sr23 2.615517 1_555
O22 Sr13 2.672981 1_655
O22 Sr3 2.690081 1_555
O23 Sr8 2.607077 1_555
O24 Sr18 2.739112 1_554
O24 Sr5 2.788680 1_554
O25 Sr1 2.609921 1_555
O25 Sr4 2.622683 1_555
O25 Sr14 2.624587 1_555
O25 Sr17 2.645588 1_555
O26 Sr15 2.600162 1_555
O26 Sr20 2.753720 1_554
O27 Sr16 2.594350 1_555
O27 Sr0 2.604121 1_565
O27 Sr6 2.671096 1_555
O27 Sr19 2.676526 1_555
O28 Sr11 2.592026 1_655
O28 Sr8 2.689956 1_554
O28 Sr22 2.735945 1_554
O29 Sr3 2.618641 1_555
O29 Sr12 2.635782 1_655
O29 Sr7 2.647718 1_555
O29 Sr21 2.652987 1_555
O30 Sr10 2.699415 1_554
O31 Sr13 2.606980 1_655
O31 Sr2 2.624072 1_565
O31 Sr9 2.657680 1_555
O31 Sr23 2.690502 1_555
O32 Sr11 2.451322 1_555
O33 Sr12 2.605391 1_555
O33 Sr0 2.696303 1_555
O33 Sr2 2.968417 1_455
O35 Sr13 2.596644 1_555
O35 Sr1 2.803460 1_555
O35 Sr3 2.813959 1_455
O35 Sr12 3.172766 1_555
O37 Sr14 2.554744 1_555
O37 Sr2 2.728181 1_555
O37 Sr0 2.948244 1_555
O38 Sr15 2.453779 1_555
O39 Sr16 2.590538 1_555
O39 Sr3 2.785321 1_555
O39 Sr1 2.862702 1_555
O39 Sr14 3.170081 1_555
O40 Sr17 2.557300 1_555
O40 Sr7 2.696594 1_555
O40 Sr4 2.971263 1_555
O41 Sr18 2.567629 1_555
O41 Sr8 2.745893 1_555
O41 Sr5 2.891544 1_555
O41 Sr20 3.190811 1_555
O42 Sr19 2.561446 1_555
O42 Sr9 2.740965 1_555
O42 Sr6 2.920919 1_555
O43 Sr20 2.607628 1_555
O43 Sr10 2.746164 1_555
O43 Sr18 3.205603 1_565
O44 Sr21 2.559908 1_555
O44 Sr4 2.742044 1_655
O44 Sr7 2.918927 1_555
O45 Sr22 2.481327 1_555
O45 Sr5 2.696278 1_655
O45 Sr8 2.953765 1_555
O46 Sr23 2.553778 1_555
O46 Sr6 2.710197 1_655
O46 Sr9 2.950208 1_555
O47 Sr10 2.994994 1_555
O48 Sr11 2.986119 1_555
O49 Sr0 2.605306 1_555
O49 Sr14 2.750146 1_555
O49 Sr12 2.867383 1_555
O49 Sr1 3.158359 1_555
O50 Sr15 2.689650 1_555
O51 Sr1 2.643993 1_555
O51 Sr13 2.815969 1_555
O51 Sr16 2.834511 1_555
O51 Sr0 3.178473 1_565
O52 Sr11 2.674837 1_655
O53 Sr2 2.566731 1_555
O53 Sr12 2.689659 1_655
O53 Sr14 2.983080 1_555
O54 Sr15 3.041829 1_555
O55 Sr3 2.527382 1_555
O55 Sr13 2.724263 1_655
O55 Sr16 2.940345 1_555
O56 Sr4 2.572765 1_555
O56 Sr17 2.737935 1_555
O56 Sr21 2.927415 1_455
O57 Sr5 2.507189 1_555
O57 Sr18 2.685327 1_555
O57 Sr22 2.980378 1_455
O58 Sr6 2.529274 1_555
O58 Sr19 2.755910 1_555
O58 Sr23 2.887061 1_455
O59 Sr20 2.732030 1_555
O60 Sr7 2.528611 1_555
O60 Sr21 2.758562 1_555
O60 Sr17 2.892584 1_555
O61 Sr8 2.539520 1_555
O61 Sr22 2.724707 1_555
O61 Sr18 2.955417 1_555
O62 Sr9 2.567485 1_555
O62 Sr23 2.746015 1_555
O62 Sr19 2.917516 1_555
O63 Sr10 2.561882 1_555
O63 Sr20 2.926417 1_555
O63 Sr8 3.179866 1_555
O64 Sr17 2.536587 1_555
O65 Sr18 2.495765 1_555
O65 Sr0 2.501726 1_555
O66 Sr19 2.518934 1_555
O67 Sr20 2.440009 1_555
O67 Sr1 2.457494 1_555
O68 Sr21 2.523485 1_555
O69 Sr22 2.455959 1_555
O69 Sr2 2.477264 1_555
O70 Sr23 2.533362 1_555
O71 Sr3 2.495234 1_555
O72 Sr11 2.431469 1_555
O72 Sr4 2.468532 1_555
O73 Sr5 2.466942 1_555
O73 Sr12 2.492400 1_555
O74 Sr6 2.499961 1_555
O75 Sr13 2.510487 1_555
O76 Sr7 2.504908 1_555
O77 Sr8 2.457974 1_555
O77 Sr14 2.462066 1_555
O78 Sr15 2.433632 1_555
O78 Sr9 2.469291 1_555
O79 Sr10 2.467894 1_555
O79 Sr16 2.486101 1_555
