# generated using pymatgen
data_CaYb4(Ru2O7)2
_symmetry_space_group_name_H-M   'P 1'
_cell_length_a   7.43430192
_cell_length_b   7.44237249
_cell_length_c   7.43415501
_cell_angle_alpha   59.93840174
_cell_angle_beta   59.90452929
_cell_angle_gamma   59.93957780
_symmetry_Int_Tables_number   1
_chemical_formula_structural   CaYb4(Ru2O7)2
_chemical_formula_sum   'Ca1 Yb4 Ru4 O14'
_cell_volume   290.37107236
_cell_formula_units_Z   1
loop_
 _symmetry_equiv_pos_site_id
 _symmetry_equiv_pos_as_xyz
  1  'x, y, z'
loop_
 _atom_site_type_symbol
 _atom_site_label
 _atom_site_symmetry_multiplicity
 _atom_site_fract_x
 _atom_site_fract_y
 _atom_site_fract_z
 _atom_site_occupancy
  Ca  Ca0  1  0.12355700  0.12595300  0.12355300  1
  Yb  Yb0  1  0.50136200  0.99645300  0.50134900  1
  Yb  Yb1  1  0.99612500  0.50122800  0.50155900  1
  Yb  Yb2  1  0.50156900  0.50122400  0.99613300  1
  Yb  Yb3  1  0.50132700  0.50083800  0.50131800  1
  Ru  Ru0  1  0.98884500  0.53377700  0.98885100  1
  Ru  Ru1  1  0.53260300  0.98914600  0.98935300  1
  Ru  Ru2  1  0.98933600  0.98912100  0.53264200  1
  Ru  Ru3  1  0.98859400  0.98868300  0.98858000  1
  O  O0  1  0.62379400  0.62475300  0.62393200  1
  O  O1  1  0.37566100  0.37547800  0.37554000  1
  O  O2  1  0.33729800  0.91291400  0.91231100  1
  O  O3  1  0.07060700  0.68037900  0.67958900  1
  O  O4  1  0.91159700  0.33837300  0.91160000  1
  O  O5  1  0.91230000  0.91290800  0.33731500  1
  O  O6  1  0.33671600  0.33709800  0.91280500  1
  O  O7  1  0.33583600  0.91371200  0.33583300  1
  O  O8  1  0.91280800  0.33709900  0.33671400  1
  O  O9  1  0.67958100  0.68037300  0.07060600  1
  O  O10  1  0.07086300  0.07008400  0.67910200  1
  O  O11  1  0.67913600  0.07008200  0.07085300  1
  O  O12  1  0.68037000  0.07040200  0.68034900  1
  O  O13  1  0.07048600  0.67955000  0.07048300  1
loop_
_geom_bond_atom_site_label_1
_geom_bond_atom_site_label_2
_geom_bond_distance
_geom_bond_site_symmetry_2
Ca0 O4 2.227975 1_454
Ca0 O2 2.230008 1_544
Ca0 O5 2.230100 1_445
Ca0 O6 2.230131 1_554
Ca0 O8 2.230164 1_455
Ca0 O7 2.231370 1_545
O0 Yb3 2.241873 1_555
O0 Yb2 2.256982 1_555
O0 Yb0 2.257257 1_555
O0 Yb1 2.257837 1_555
O1 Yb3 2.289295 1_555
O1 Yb2 2.300624 1_554
O1 Yb1 2.301478 1_455
O1 Yb0 2.301665 1_545
O2 Ru3 2.177514 1_455
O2 Ru1 2.177821 1_555
O2 Yb0 2.515504 1_555
O2 Yb2 2.523736 1_555
O3 Ru2 1.895915 1_455
O3 Ru0 1.896183 1_455
O3 Yb3 2.650854 1_555
O3 Yb1 2.660544 1_455
O4 Ru3 2.184542 1_545
O4 Ru0 2.186025 1_555
O4 Yb2 2.509283 1_555
O4 Yb1 2.509285 1_555
O5 Ru3 2.177616 1_554
O5 Ru2 2.177823 1_555
O5 Yb0 2.515417 1_555
O5 Yb1 2.523656 1_555
O6 Ru0 2.172749 1_455
O6 Ru1 2.174219 1_545
O6 Yb3 2.519000 1_555
O6 Yb2 2.529234 1_555
O7 Ru1 2.164463 1_554
O7 Ru2 2.164684 1_455
O7 Yb3 2.532260 1_555
O7 Yb0 2.538580 1_555
O8 Ru0 2.172629 1_554
O8 Ru2 2.174396 1_545
O8 Yb3 2.519039 1_555
O8 Yb1 2.529136 1_555
O9 Ru1 1.896134 1_554
O9 Ru0 1.896253 1_554
O9 Yb3 2.650706 1_555
O9 Yb2 2.660378 1_554
O10 Ru3 1.896823 1_445
O10 Ru2 1.897608 1_445
O10 Yb0 2.648865 1_545
O10 Yb1 2.655770 1_455
O11 Ru3 1.896747 1_544
O11 Ru1 1.897792 1_544
O11 Yb0 2.648777 1_545
O11 Yb2 2.655794 1_554
O12 Ru2 1.895163 1_545
O12 Ru1 1.895386 1_545
O12 Yb3 2.653043 1_555
O12 Yb0 2.662371 1_545
O13 Ru3 1.897262 1_454
O13 Ru0 1.897985 1_454
O13 Yb1 2.652210 1_455
O13 Yb2 2.652356 1_554
