# generated using pymatgen
data_Ba3SmB24
_symmetry_space_group_name_H-M   'P 1'
_cell_length_a   4.23002717
_cell_length_b   4.23002717
_cell_length_c   16.94549695
_cell_angle_alpha   90.00000000
_cell_angle_beta   90.00000000
_cell_angle_gamma   90.00000000
_symmetry_Int_Tables_number   1
_chemical_formula_structural   Ba3SmB24
_chemical_formula_sum   'Ba3 Sm1 B24'
_cell_volume   303.20797745
_cell_formula_units_Z   1
loop_
 _symmetry_equiv_pos_site_id
 _symmetry_equiv_pos_as_xyz
  1  'x, y, z'
loop_
 _atom_site_type_symbol
 _atom_site_label
 _atom_site_symmetry_multiplicity
 _atom_site_fract_x
 _atom_site_fract_y
 _atom_site_fract_z
 _atom_site_occupancy
  Ba  Ba0  1  -0.00000000  -0.00000000  0.24880936  1
  Ba  Ba1  1  -0.00000000  -0.00000000  0.50000000  1
  Ba  Ba2  1  -0.00000000  -0.00000000  0.75119064  1
  Sm  Sm0  1  -0.00000000  -0.00000000  -0.00000000  1
  B  B0  1  0.20268642  0.50000000  0.12095095  1
  B  B1  1  0.20465529  0.50000000  0.37386982  1
  B  B2  1  0.20465529  0.50000000  0.62613018  1
  B  B3  1  0.20268642  0.50000000  0.87904905  1
  B  B4  1  0.50000000  0.50000000  0.19591991  1
  B  B5  1  0.50000000  0.50000000  0.44802950  1
  B  B6  1  0.50000000  0.50000000  0.70034415  1
  B  B7  1  0.50000000  0.50000000  0.95142913  1
  B  B8  1  0.50000000  0.20268642  0.12095095  1
  B  B9  1  0.50000000  0.20465529  0.37386982  1
  B  B10  1  0.50000000  0.20465529  0.62613018  1
  B  B11  1  0.50000000  0.20268642  0.87904905  1
  B  B12  1  0.50000000  0.50000000  0.04857087  1
  B  B13  1  0.50000000  0.50000000  0.29965585  1
  B  B14  1  0.50000000  0.50000000  0.55197050  1
  B  B15  1  0.50000000  0.50000000  0.80408009  1
  B  B16  1  0.50000000  0.79731358  0.12095095  1
  B  B17  1  0.50000000  0.79534471  0.37386982  1
  B  B18  1  0.50000000  0.79534471  0.62613018  1
  B  B19  1  0.50000000  0.79731358  0.87904905  1
  B  B20  1  0.79731358  0.50000000  0.12095095  1
  B  B21  1  0.79534471  0.50000000  0.37386982  1
  B  B22  1  0.79534471  0.50000000  0.62613018  1
  B  B23  1  0.79731358  0.50000000  0.87904905  1
loop_
_geom_bond_atom_site_label_1
_geom_bond_atom_site_label_2
_geom_bond_distance
_geom_bond_site_symmetry_2
B0 B20 1.714738 1_455
B0 B12 1.756705 1_555
B0 B16 1.778578 1_555
B0 B8 1.778578 1_555
B0 B4 1.787610 1_555
B0 Sm0 3.067428 1_555
B0 Sm0 3.067428 1_565
B0 Ba0 3.146844 1_555
B0 Ba0 3.146844 1_565
B1 B21 1.731395 1_455
B1 B9 1.766800 1_555
B1 B17 1.766800 1_555
B1 B5 1.772009 1_555
B1 B13 1.772662 1_555
B1 Ba0 3.116693 1_555
B1 Ba0 3.116693 1_565
B1 Ba1 3.129046 1_565
B1 Ba1 3.129046 1_555
B2 B22 1.731395 1_455
B2 B6 1.772662 1_555
B2 Ba2 3.116693 1_555
B2 Ba2 3.116693 1_565
B2 Ba1 3.129046 1_565
B2 Ba1 3.129046 1_555
B3 B7 1.756705 1_555
B3 Sm0 3.067428 1_556
B3 Sm0 3.067428 1_566
B3 Ba2 3.146844 1_565
B3 Ba2 3.146844 1_555
B4 B8 1.787610 1_555
B4 Ba0 3.122468 1_665
B4 Ba0 3.122468 1_555
B4 Ba0 3.122468 1_655
B4 Ba0 3.122468 1_565
B5 B9 1.772009 1_555
B5 Ba1 3.118034 1_565
B5 Ba1 3.118034 1_655
B5 Ba1 3.118034 1_665
B5 Ba1 3.118034 1_555
B6 Ba2 3.112708 1_655
B6 Ba2 3.112708 1_565
B6 Ba2 3.112708 1_665
B6 Ba2 3.112708 1_555
B7 Sm0 3.102255 1_656
B7 Sm0 3.102255 1_666
B7 Sm0 3.102255 1_566
B7 Sm0 3.102255 1_556
B8 Sm0 3.067428 1_555
B8 Sm0 3.067428 1_655
B8 Ba0 3.146844 1_655
B8 Ba0 3.146844 1_555
B9 Ba0 3.116693 1_555
B9 Ba0 3.116693 1_655
B9 Ba1 3.129046 1_555
B9 Ba1 3.129046 1_655
B10 B18 1.731395 1_545
B10 B2 1.766800 1_555
B10 B22 1.766800 1_555
B10 B14 1.772009 1_555
B10 B6 1.772662 1_555
B10 Ba2 3.116693 1_555
B10 Ba2 3.116693 1_655
B10 Ba1 3.129046 1_655
B10 Ba1 3.129046 1_555
B11 B19 1.714738 1_545
B11 B7 1.756705 1_555
B11 B3 1.778578 1_555
B11 B23 1.778578 1_555
B11 B15 1.787610 1_555
B11 Sm0 3.067428 1_556
B11 Sm0 3.067428 1_656
B11 Ba2 3.146844 1_655
B11 Ba2 3.146844 1_555
B12 B7 1.646115 1_554
B12 B20 1.756705 1_555
B12 B16 1.756705 1_555
B12 B8 1.756705 1_555
B12 Sm0 3.102255 1_565
B12 Sm0 3.102255 1_555
B12 Sm0 3.102255 1_655
B12 Sm0 3.102255 1_665
B13 B4 1.757857 1_555
B13 B9 1.772662 1_555
B13 B17 1.772662 1_555
B13 B21 1.772662 1_555
B13 Ba0 3.112708 1_655
B13 Ba0 3.112708 1_555
B13 Ba0 3.112708 1_565
B13 Ba0 3.112708 1_665
B14 B5 1.761332 1_555
B14 B2 1.772009 1_555
B14 B18 1.772009 1_555
B14 B22 1.772009 1_555
B14 Ba1 3.118034 1_665
B14 Ba1 3.118034 1_555
B14 Ba1 3.118034 1_655
B14 Ba1 3.118034 1_565
B15 B6 1.757857 1_555
B15 B23 1.787610 1_555
B15 B19 1.787610 1_555
B15 B3 1.787610 1_555
B15 Ba2 3.122468 1_555
B15 Ba2 3.122468 1_655
B15 Ba2 3.122468 1_565
B15 Ba2 3.122468 1_665
B16 B8 1.714738 1_565
B16 B20 1.778578 1_555
B16 B4 1.787610 1_555
B16 Sm0 3.067428 1_565
B16 Sm0 3.067428 1_665
B16 Ba0 3.146844 1_565
B16 Ba0 3.146844 1_665
B17 B9 1.731395 1_565
B17 B21 1.766800 1_555
B17 B5 1.772009 1_555
B17 Ba0 3.116693 1_565
B17 Ba0 3.116693 1_665
B17 Ba1 3.129046 1_665
B17 Ba1 3.129046 1_565
B18 B2 1.766800 1_555
B18 B22 1.766800 1_555
B18 B6 1.772662 1_555
B18 Ba2 3.116693 1_665
B18 Ba2 3.116693 1_565
B18 Ba1 3.129046 1_665
B18 Ba1 3.129046 1_565
B19 B7 1.756705 1_555
B19 B3 1.778578 1_555
B19 B23 1.778578 1_555
B19 Sm0 3.067428 1_566
B19 Sm0 3.067428 1_666
B19 Ba2 3.146844 1_565
B19 Ba2 3.146844 1_665
B20 B8 1.778578 1_555
B20 B4 1.787610 1_555
B20 Sm0 3.067428 1_655
B20 Sm0 3.067428 1_665
B20 Ba0 3.146844 1_655
B20 Ba0 3.146844 1_665
B21 B9 1.766800 1_555
B21 B5 1.772009 1_555
B21 Ba0 3.116693 1_655
B21 Ba0 3.116693 1_665
B21 Ba1 3.129046 1_655
B21 Ba1 3.129046 1_665
B22 B6 1.772662 1_555
B22 Ba2 3.116693 1_665
B22 Ba2 3.116693 1_655
B22 Ba1 3.129046 1_655
B22 Ba1 3.129046 1_665
B23 B3 1.714738 1_655
B23 B7 1.756705 1_555
B23 Sm0 3.067428 1_656
B23 Sm0 3.067428 1_666
B23 Ba2 3.146844 1_655
B23 Ba2 3.146844 1_665
