# generated using pymatgen
data_La3(ZnPd)4
_symmetry_space_group_name_H-M   'P 1'
_cell_length_a   8.38036240
_cell_length_b   8.38036240
_cell_length_c   8.38036240
_cell_angle_alpha   150.95001233
_cell_angle_beta   127.30295661
_cell_angle_gamma   61.29984630
_symmetry_Int_Tables_number   1
_chemical_formula_structural   La3(ZnPd)4
_chemical_formula_sum   'La3 Zn4 Pd4'
_cell_volume   225.44769531
_cell_formula_units_Z   1
loop_
 _symmetry_equiv_pos_site_id
 _symmetry_equiv_pos_as_xyz
  1  'x, y, z'
loop_
 _atom_site_type_symbol
 _atom_site_label
 _atom_site_symmetry_multiplicity
 _atom_site_fract_x
 _atom_site_fract_y
 _atom_site_fract_z
 _atom_site_occupancy
  La  La0  1  0.50000000  0.00000000  0.50000000  1
  La  La1  1  0.87034687  0.87034687  -0.00000000  1
  La  La2  1  0.12965313  0.12965313  -0.00000000  1
  Zn  Zn0  1  0.48329122  0.67338126  0.80990996  1
  Zn  Zn1  1  0.86347129  0.67338126  0.19009004  1
  Zn  Zn2  1  0.13652871  0.32661874  0.80990996  1
  Zn  Zn3  1  0.51670878  0.32661874  0.19009004  1
  Pd  Pd0  1  0.28399352  0.78399352  0.50000000  1
  Pd  Pd1  1  0.71600648  0.21600648  0.50000000  1
  Pd  Pd2  1  0.80236960  0.50000000  0.30236960  1
  Pd  Pd3  1  0.19763040  0.50000000  0.69763040  1
loop_
_geom_bond_atom_site_label_1
_geom_bond_atom_site_label_2
_geom_bond_distance
_geom_bond_site_symmetry_2
La0 Pd2 3.078471 1_545
La0 Pd3 3.078471 1_544
La0 Pd2 3.078471 1_556
La0 Pd3 3.078471 1_555
La0 Pd0 3.114645 1_545
La0 Pd1 3.114645 1_555
La1 Pd1 3.061100 1_565
La1 Pd1 3.061100 1_554
La1 Zn0 3.172647 1_554
La1 Zn1 3.172647 1_555
La1 Pd2 3.173957 1_554
La1 Pd3 3.173957 1_665
La1 Pd3 3.173957 1_654
La1 Pd2 3.173957 1_565
La1 Zn2 3.182771 1_665
La1 Zn3 3.182771 1_554
La1 Zn3 3.182771 1_565
La1 Zn2 3.182771 1_654
La2 Pd0 3.061100 1_555
La2 Pd0 3.061100 1_544
La2 Zn3 3.172647 1_555
La2 Zn2 3.172647 1_554
La2 Pd2 3.173957 1_455
La2 Pd3 3.173957 1_544
La2 Pd3 3.173957 1_555
La2 Pd2 3.173957 1_444
La2 Zn1 3.182771 1_444
La2 Zn0 3.182771 1_544
La2 Zn0 3.182771 1_555
La2 Zn1 3.182771 1_455
Pd0 Zn2 2.606715 1_565
Pd0 Zn3 2.606715 1_555
Pd0 Zn3 2.606715 1_566
Pd0 Zn2 2.606715 1_554
Pd0 Zn0 2.803335 1_555
Pd0 Zn1 2.803335 1_455
Pd1 Zn1 2.606715 1_545
Pd1 Zn0 2.606715 1_544
Pd1 Zn0 2.606715 1_555
Pd1 Zn1 2.606715 1_556
Pd1 Zn3 2.803335 1_555
Pd1 Zn2 2.803335 1_655
Pd2 Zn1 2.635856 1_555
Pd2 Zn3 2.635856 1_555
Pd2 Pd3 2.940312 1_655
Pd3 Zn2 2.635856 1_555
Pd3 Zn0 2.635856 1_555
