# generated using pymatgen
data_Ba2YWO6
_symmetry_space_group_name_H-M   'P 1'
_cell_length_a   8.52613543
_cell_length_b   8.52613543
_cell_length_c   8.52613543
_cell_angle_alpha   90.00000000
_cell_angle_beta   90.00000000
_cell_angle_gamma   90.00000000
_symmetry_Int_Tables_number   1
_chemical_formula_structural   Ba2YWO6
_chemical_formula_sum   'Ba8 Y4 W4 O24'
_cell_volume   619.80729035
_cell_formula_units_Z   4
loop_
 _symmetry_equiv_pos_site_id
 _symmetry_equiv_pos_as_xyz
  1  'x, y, z'
loop_
 _atom_site_type_symbol
 _atom_site_label
 _atom_site_symmetry_multiplicity
 _atom_site_fract_x
 _atom_site_fract_y
 _atom_site_fract_z
 _atom_site_occupancy
  Ba  Ba0  1  0.50000000  0.50000000  0.50000000  1
  Ba  Ba1  1  -0.00000000  -0.00000000  -0.00000000  1
  Ba  Ba2  1  -0.00000000  -0.00000000  0.50000000  1
  Ba  Ba3  1  -0.00000000  0.50000000  -0.00000000  1
  Ba  Ba4  1  0.50000000  -0.00000000  -0.00000000  1
  Ba  Ba5  1  0.50000000  0.50000000  -0.00000000  1
  Ba  Ba6  1  0.50000000  -0.00000000  0.50000000  1
  Ba  Ba7  1  -0.00000000  0.50000000  0.50000000  1
  Y  Y0  1  0.25000000  0.25000000  0.25000000  1
  Y  Y1  1  0.25000000  0.75000000  0.75000000  1
  Y  Y2  1  0.75000000  0.25000000  0.75000000  1
  Y  Y3  1  0.75000000  0.75000000  0.25000000  1
  W  W0  1  0.75000000  0.75000000  0.75000000  1
  W  W1  1  0.75000000  0.25000000  0.25000000  1
  W  W2  1  0.25000000  0.75000000  0.25000000  1
  W  W3  1  0.25000000  0.25000000  0.75000000  1
  O  O0  1  0.23349295  0.26281561  0.51394624  1
  O  O1  1  0.23349295  0.73718439  0.48605376  1
  O  O2  1  0.76650705  0.26281561  0.48605376  1
  O  O3  1  0.76650705  0.73718439  0.51394624  1
  O  O4  1  0.26281561  0.51394624  0.23349295  1
  O  O5  1  0.73718439  0.48605376  0.23349295  1
  O  O6  1  0.26281561  0.48605376  0.76650705  1
  O  O7  1  0.73718439  0.51394624  0.76650705  1
  O  O8  1  0.51394624  0.23349295  0.26281561  1
  O  O9  1  0.48605376  0.23349295  0.73718439  1
  O  O10  1  0.48605376  0.76650705  0.26281561  1
  O  O11  1  0.51394624  0.76650705  0.73718439  1
  O  O12  1  0.26650705  0.23718439  0.98605376  1
  O  O13  1  0.26650705  0.76281561  0.01394624  1
  O  O14  1  0.73349295  0.23718439  0.01394624  1
  O  O15  1  0.73349295  0.76281561  0.98605376  1
  O  O16  1  0.23718439  0.98605376  0.26650705  1
  O  O17  1  0.76281561  0.01394624  0.26650705  1
  O  O18  1  0.23718439  0.01394624  0.73349295  1
  O  O19  1  0.76281561  0.98605376  0.73349295  1
  O  O20  1  0.98605376  0.26650705  0.23718439  1
  O  O21  1  0.01394624  0.26650705  0.76281561  1
  O  O22  1  0.01394624  0.73349295  0.23718439  1
  O  O23  1  0.98605376  0.73349295  0.76281561  1
loop_
_geom_bond_atom_site_label_1
_geom_bond_atom_site_label_2
_geom_bond_distance
_geom_bond_site_symmetry_2
Ba0 O2 3.044164 1_555
Ba0 O0 3.044164 1_555
Ba0 O3 3.044164 1_555
Ba0 O1 3.044164 1_555
Ba0 O4 3.044164 1_555
Ba0 O11 3.044164 1_555
Ba0 O8 3.044164 1_555
Ba0 O5 3.044164 1_555
Ba0 O6 3.044164 1_555
Ba0 O7 3.044164 1_555
Ba0 O10 3.044164 1_555
Ba0 O9 3.044164 1_555
Ba1 O15 3.044164 1_444
Ba1 O14 3.044164 1_455
Ba1 O22 3.044164 1_545
Ba1 O16 3.044164 1_545
Ba1 O21 3.044164 1_554
Ba1 O23 3.044164 1_444
Ba1 O12 3.044164 1_554
Ba1 O18 3.044164 1_554
Ba1 O13 3.044164 1_545
Ba1 O19 3.044164 1_444
Ba1 O20 3.044164 1_455
Ba1 O17 3.044164 1_455
Ba2 O17 2.840238 1_455
Ba2 O16 2.840238 1_545
Ba2 O18 2.840238 1_555
Ba2 O19 2.840238 1_445
Ba2 O0 2.999764 1_555
Ba2 O2 2.999764 1_455
Ba2 O3 2.999764 1_445
Ba2 O1 2.999764 1_545
Ba2 O23 3.193519 1_445
Ba2 O22 3.193519 1_545
Ba2 O20 3.193519 1_455
Ba2 O21 3.193519 1_555
Ba3 O20 2.840238 1_455
Ba3 O21 2.840238 1_554
Ba3 O23 2.840238 1_454
Ba3 O22 2.840238 1_555
Ba3 O4 2.999764 1_555
Ba3 O5 2.999764 1_455
Ba3 O6 2.999764 1_554
Ba3 O7 2.999764 1_454
Ba3 O15 3.193519 1_454
Ba3 O14 3.193519 1_455
Ba3 O13 3.193519 1_555
Ba3 O12 3.193519 1_554
Ba4 O12 2.840238 1_554
Ba4 O13 2.840238 1_545
Ba4 O14 2.840238 1_555
Ba4 O15 2.840238 1_544
Ba4 O9 2.999764 1_554
Ba4 O11 2.999764 1_544
Ba4 O8 2.999764 1_555
Ba4 O10 2.999764 1_545
Ba4 O19 3.193519 1_544
Ba4 O17 3.193519 1_555
Ba4 O16 3.193519 1_545
Ba4 O18 3.193519 1_554
Ba5 O4 2.840238 1_555
Ba5 O5 2.840238 1_555
Ba5 O6 2.840238 1_554
Ba5 O7 2.840238 1_554
Ba5 O12 2.999764 1_554
Ba5 O13 2.999764 1_555
Ba5 O14 2.999764 1_555
Ba5 O15 2.999764 1_554
Ba5 O8 3.193519 1_555
Ba5 O9 3.193519 1_554
Ba5 O10 3.193519 1_555
Ba5 O11 3.193519 1_554
Ba6 O9 2.840238 1_555
Ba6 O8 2.840238 1_555
Ba6 O10 2.840238 1_545
Ba6 O11 2.840238 1_545
Ba6 O17 2.999764 1_555
Ba6 O16 2.999764 1_545
Ba6 O18 2.999764 1_555
Ba6 O19 2.999764 1_545
Ba6 O3 3.193519 1_545
Ba6 O2 3.193519 1_555
Ba6 O1 3.193519 1_545
Ba6 O0 3.193519 1_555
Ba7 O0 2.840238 1_555
Ba7 O2 2.840238 1_455
Ba7 O1 2.840238 1_555
Ba7 O3 2.840238 1_455
Ba7 O21 2.999764 1_555
Ba7 O20 2.999764 1_455
Ba7 O22 2.999764 1_555
Ba7 O23 2.999764 1_455
Ba7 O7 3.193519 1_455
Ba7 O5 3.193519 1_455
Ba7 O4 3.193519 1_555
Ba7 O6 3.193519 1_555
O0 W3 2.020498 1_555
O0 Y0 2.257484 1_555
O1 W2 2.020498 1_555
O1 Y1 2.257484 1_555
O2 W1 2.020498 1_555
O2 Y2 2.257484 1_555
O3 W0 2.020498 1_555
O3 Y3 2.257484 1_555
O4 W2 2.020498 1_555
O4 Y0 2.257484 1_555
O5 W1 2.020498 1_555
O5 Y3 2.257484 1_555
O6 W3 2.020498 1_555
O6 Y1 2.257484 1_555
O7 W0 2.020498 1_555
O7 Y2 2.257484 1_555
O8 W1 2.020498 1_555
O8 Y0 2.257484 1_555
O9 W3 2.020498 1_555
O9 Y2 2.257484 1_555
O10 W2 2.020498 1_555
O10 Y3 2.257484 1_555
O11 W0 2.020498 1_555
O11 Y1 2.257484 1_555
O12 W3 2.020498 1_555
O12 Y0 2.257484 1_556
O13 W2 2.020498 1_555
O13 Y1 2.257484 1_554
O14 W1 2.020498 1_555
O14 Y2 2.257484 1_554
O15 W0 2.020498 1_555
O15 Y3 2.257484 1_556
O16 W2 2.020498 1_555
O16 Y0 2.257484 1_565
O17 W1 2.020498 1_555
O17 Y3 2.257484 1_545
O18 W3 2.020498 1_555
O18 Y1 2.257484 1_545
O19 W0 2.020498 1_555
O19 Y2 2.257484 1_565
O20 W1 2.020498 1_555
O20 Y0 2.257484 1_655
O21 W3 2.020498 1_555
O21 Y2 2.257484 1_455
O22 W2 2.020498 1_555
O22 Y3 2.257484 1_455
O23 W0 2.020498 1_555
O23 Y1 2.257484 1_655
