# generated using pymatgen
data_CaLaSi4
_symmetry_space_group_name_H-M   'P 1'
_cell_length_a   7.37901058
_cell_length_b   7.37901058
_cell_length_c   7.37901058
_cell_angle_alpha   145.51187862
_cell_angle_beta   145.51187862
_cell_angle_gamma   49.57236007
_symmetry_Int_Tables_number   1
_chemical_formula_structural   CaLaSi4
_chemical_formula_sum   'Ca1 La1 Si4'
_cell_volume   128.22223329
_cell_formula_units_Z   1
loop_
 _symmetry_equiv_pos_site_id
 _symmetry_equiv_pos_as_xyz
  1  'x, y, z'
loop_
 _atom_site_type_symbol
 _atom_site_label
 _atom_site_symmetry_multiplicity
 _atom_site_fract_x
 _atom_site_fract_y
 _atom_site_fract_z
 _atom_site_occupancy
  Ca  Ca0  1  0.25000000  0.75000000  0.50000000  1
  La  La0  1  -0.00000000  -0.00000000  0.00000000  1
  Si  Si0  1  0.66400821  0.16400821  0.50000000  1
  Si  Si1  1  0.58596370  0.58596370  0.00000000  1
  Si  Si2  1  0.83599179  0.33599179  0.50000000  1
  Si  Si3  1  0.41403630  0.41403630  -0.00000000  1
loop_
_geom_bond_atom_site_label_1
_geom_bond_atom_site_label_2
_geom_bond_distance
_geom_bond_site_symmetry_2
Ca0 Si3 3.100878 1_566
Ca0 Si3 3.100878 1_555
Ca0 Si1 3.100878 1_455
Ca0 Si1 3.100878 1_556
Ca0 Si2 3.301117 1_555
Ca0 Si2 3.301117 1_465
Ca0 Si0 3.301117 1_555
Ca0 Si0 3.301117 1_465
Ca0 Si0 3.301117 1_566
Ca0 Si2 3.301117 1_454
Ca0 Si0 3.301117 1_454
Ca0 Si2 3.301117 1_566
La0 Si2 3.100612 1_444
La0 Si2 3.100612 1_455
La0 Si0 3.100612 1_454
La0 Si0 3.100612 1_555
La0 Si1 3.300986 1_444
La0 Si1 3.300986 1_455
La0 Si1 3.300986 1_545
La0 Si1 3.300986 1_556
La0 Si3 3.300986 1_455
La0 Si3 3.300986 1_556
La0 Si3 3.300986 1_444
La0 Si3 3.300986 1_545
Si0 Si2 2.304321 1_555
Si0 Si1 2.424540 1_545
Si0 Si1 2.424540 1_556
Si1 Si3 2.303568 1_555
Si2 Si3 2.424540 1_656
Si2 Si3 2.424540 1_555
