# generated using pymatgen
data_K3TlF6
_symmetry_space_group_name_H-M   'P 1'
_cell_length_a   13.06913644
_cell_length_b   13.06913644
_cell_length_c   13.06913644
_cell_angle_alpha   60.00000000
_cell_angle_beta   60.00000000
_cell_angle_gamma   60.00000000
_symmetry_Int_Tables_number   1
_chemical_formula_structural   K3TlF6
_chemical_formula_sum   'K24 Tl8 F48'
_cell_volume   1578.43127677
_cell_formula_units_Z   8
loop_
 _symmetry_equiv_pos_site_id
 _symmetry_equiv_pos_as_xyz
  1  'x, y, z'
loop_
 _atom_site_type_symbol
 _atom_site_label
 _atom_site_symmetry_multiplicity
 _atom_site_fract_x
 _atom_site_fract_y
 _atom_site_fract_z
 _atom_site_occupancy
  K  K0  1  0.00000000  0.00000000  0.00000000  1
  K  K1  1  0.25000000  0.25000000  0.25000000  1
  K  K2  1  0.50000000  0.50000000  0.50000000  1
  K  K3  1  0.75000000  0.75000000  0.75000000  1
  K  K4  1  0.35731800  0.88089400  0.88089400  1
  K  K5  1  0.88089400  0.88089400  0.35731800  1
  K  K6  1  0.88089400  0.35731800  0.88089400  1
  K  K7  1  0.88089400  0.88089400  0.88089400  1
  K  K8  1  0.89268200  0.36910600  0.36910600  1
  K  K9  1  0.36910600  0.36910600  0.89268200  1
  K  K10  1  0.36910600  0.89268200  0.36910600  1
  K  K11  1  0.36910600  0.36910600  0.36910600  1
  K  K12  1  0.26183500  0.73816500  0.26183500  1
  K  K13  1  0.73816500  0.26183500  0.73816500  1
  K  K14  1  0.26183500  0.26183500  0.73816500  1
  K  K15  1  0.73816500  0.73816500  0.26183500  1
  K  K16  1  0.73816500  0.26183500  0.26183500  1
  K  K17  1  0.26183500  0.73816500  0.73816500  1
  K  K18  1  0.98816500  0.51183500  0.98816500  1
  K  K19  1  0.51183500  0.98816500  0.51183500  1
  K  K20  1  0.98816500  0.98816500  0.51183500  1
  K  K21  1  0.51183500  0.51183500  0.98816500  1
  K  K22  1  0.51183500  0.98816500  0.98816500  1
  K  K23  1  0.98816500  0.51183500  0.51183500  1
  Tl  Tl0  1  0.62500000  0.12500000  0.12500000  1
  Tl  Tl1  1  0.12500000  0.12500000  0.62500000  1
  Tl  Tl2  1  0.12500000  0.62500000  0.12500000  1
  Tl  Tl3  1  0.12500000  0.12500000  0.12500000  1
  Tl  Tl4  1  0.12500000  0.62500000  0.62500000  1
  Tl  Tl5  1  0.62500000  0.62500000  0.12500000  1
  Tl  Tl6  1  0.62500000  0.12500000  0.62500000  1
  Tl  Tl7  1  0.62500000  0.62500000  0.62500000  1
  F  F0  1  0.74520400  0.07439000  0.22727900  1
  F  F1  1  0.22727900  0.95312700  0.74520400  1
  F  F2  1  0.07439000  0.74520400  0.95312700  1
  F  F3  1  0.95312700  0.22727900  0.07439000  1
  F  F4  1  0.22727900  0.74520400  0.07439000  1
  F  F5  1  0.74520400  0.22727900  0.95312700  1
  F  F6  1  0.95312700  0.07439000  0.74520400  1
  F  F7  1  0.07439000  0.95312700  0.22727900  1
  F  F8  1  0.07439000  0.22727900  0.74520400  1
  F  F9  1  0.95312700  0.74520400  0.22727900  1
  F  F10  1  0.74520400  0.95312700  0.07439000  1
  F  F11  1  0.22727900  0.07439000  0.95312700  1
  F  F12  1  0.50479600  0.17561000  0.02272100  1
  F  F13  1  0.02272100  0.29687300  0.50479600  1
  F  F14  1  0.17561000  0.50479600  0.29687300  1
  F  F15  1  0.29687300  0.02272100  0.17561000  1
  F  F16  1  0.02272100  0.50479600  0.17561000  1
  F  F17  1  0.50479600  0.02272100  0.29687300  1
  F  F18  1  0.29687300  0.17561000  0.50479600  1
  F  F19  1  0.17561000  0.29687300  0.02272100  1
  F  F20  1  0.17561000  0.02272100  0.50479600  1
  F  F21  1  0.29687300  0.50479600  0.02272100  1
  F  F22  1  0.50479600  0.29687300  0.17561000  1
  F  F23  1  0.02272100  0.17561000  0.29687300  1
  F  F24  1  0.24552400  0.53447800  0.73865200  1
  F  F25  1  0.73865200  0.48134700  0.24552400  1
  F  F26  1  0.53447800  0.24552400  0.48134700  1
  F  F27  1  0.48134700  0.73865200  0.53447800  1
  F  F28  1  0.73865200  0.24552400  0.53447800  1
  F  F29  1  0.24552400  0.73865200  0.48134700  1
  F  F30  1  0.48134700  0.53447800  0.24552400  1
  F  F31  1  0.53447800  0.48134700  0.73865200  1
  F  F32  1  0.53447800  0.73865200  0.24552400  1
  F  F33  1  0.48134700  0.24552400  0.73865200  1
  F  F34  1  0.24552400  0.48134700  0.53447800  1
  F  F35  1  0.73865200  0.53447800  0.48134700  1
  F  F36  1  0.00447600  0.71552200  0.51134800  1
  F  F37  1  0.51134800  0.76865300  0.00447600  1
  F  F38  1  0.71552200  0.00447600  0.76865300  1
  F  F39  1  0.76865300  0.51134800  0.71552200  1
  F  F40  1  0.51134800  0.00447600  0.71552200  1
  F  F41  1  0.00447600  0.51134800  0.76865300  1
  F  F42  1  0.76865300  0.71552200  0.00447600  1
  F  F43  1  0.71552200  0.76865300  0.51134800  1
  F  F44  1  0.71552200  0.51134800  0.00447600  1
  F  F45  1  0.76865300  0.00447600  0.51134800  1
  F  F46  1  0.00447600  0.76865300  0.71552200  1
  F  F47  1  0.51134800  0.71552200  0.76865300  1
loop_
_geom_bond_atom_site_label_1
_geom_bond_atom_site_label_2
_geom_bond_distance
_geom_bond_site_symmetry_2
F0 Tl0 2.206551 1_555
F0 K5 2.580620 1_545
F0 K16 2.655769 1_555
F0 K0 3.258224 1_655
F1 Tl1 2.206551 1_565
F1 K4 2.580620 1_555
F1 K17 2.655769 1_555
F1 K0 3.258224 1_566
F2 Tl2 2.206551 1_556
F2 K7 2.580620 1_455
F2 K17 2.655769 1_555
F2 K0 3.258224 1_566
F3 Tl3 2.206551 1_655
F3 K6 2.580620 1_554
F3 K16 2.655769 1_555
F3 K0 3.258224 1_655
F4 Tl2 2.206551 1_555
F4 K4 2.580620 1_554
F4 K12 2.655769 1_555
F4 K0 3.258224 1_565
F5 Tl0 2.206551 1_556
F5 K6 2.580620 1_555
F5 K13 2.655769 1_555
F5 K0 3.258224 1_656
F6 Tl1 2.206551 1_655
F6 K7 2.580620 1_545
F6 K13 2.655769 1_555
F6 K0 3.258224 1_656
F7 Tl3 2.206551 1_565
F7 K5 2.580620 1_455
F7 K12 2.655769 1_555
F7 K0 3.258224 1_565
F8 Tl1 2.206551 1_555
F8 K6 2.580620 1_455
F8 K14 2.655769 1_555
F8 K0 3.258224 1_556
F9 Tl2 2.206551 1_655
F9 K5 2.580620 1_555
F9 K15 2.655769 1_555
F9 K0 3.258224 1_665
F10 Tl0 2.206551 1_565
F10 K7 2.580620 1_554
F10 K15 2.655769 1_555
F10 K0 3.258224 1_665
F11 Tl3 2.206551 1_556
F11 K4 2.580620 1_545
F11 K14 2.655769 1_555
F11 K0 3.258224 1_556
F12 Tl0 2.206551 1_555
F12 K9 2.580620 1_554
F12 K22 2.655769 1_544
F12 K1 3.258224 1_555
F13 Tl1 2.206551 1_555
F13 K8 2.580620 1_455
F13 K23 2.655769 1_455
F13 K1 3.258224 1_555
F14 Tl2 2.206551 1_555
F14 K11 2.580620 1_555
F14 K23 2.655769 1_455
F14 K1 3.258224 1_555
F15 Tl3 2.206551 1_555
F15 K10 2.580620 1_545
F15 K22 2.655769 1_544
F15 K1 3.258224 1_555
F16 Tl2 2.206551 1_555
F16 K8 2.580620 1_455
F16 K18 2.655769 1_454
F16 K1 3.258224 1_555
F17 Tl0 2.206551 1_555
F17 K10 2.580620 1_545
F17 K19 2.655769 1_545
F17 K1 3.258224 1_555
F18 Tl1 2.206551 1_555
F18 K11 2.580620 1_555
F18 K19 2.655769 1_545
F18 K1 3.258224 1_555
F19 Tl3 2.206551 1_555
F19 K9 2.580620 1_554
F19 K18 2.655769 1_454
F19 K1 3.258224 1_555
F20 Tl1 2.206551 1_555
F20 K10 2.580620 1_545
F20 K20 2.655769 1_445
F20 K1 3.258224 1_555
F21 Tl2 2.206551 1_555
F21 K9 2.580620 1_554
F21 K21 2.655769 1_554
F21 K1 3.258224 1_555
F22 Tl0 2.206551 1_555
F22 K11 2.580620 1_555
F22 K21 2.655769 1_554
F22 K1 3.258224 1_555
F23 Tl3 2.206551 1_555
F23 K8 2.580620 1_455
F23 K20 2.655769 1_445
F23 K1 3.258224 1_555
F24 Tl4 2.192219 1_555
F24 K9 2.596510 1_555
F24 K17 2.771455 1_555
F24 K2 3.244326 1_555
F25 Tl5 2.192217 1_555
F25 K8 2.596508 1_555
F25 K16 2.771468 1_555
F25 K2 3.244325 1_555
F26 Tl6 2.192209 1_555
F26 K11 2.596519 1_555
F26 K16 2.771461 1_555
F26 K2 3.244319 1_555
F27 Tl7 2.192209 1_555
F27 K10 2.596518 1_555
F27 K17 2.771462 1_555
F27 K2 3.244332 1_555
F28 Tl6 2.192219 1_555
F28 K8 2.596510 1_555
F28 K13 2.771455 1_555
F28 K2 3.244326 1_555
F29 Tl4 2.192217 1_555
F29 K10 2.596508 1_555
F29 K12 2.771468 1_555
F29 K2 3.244325 1_555
F30 Tl5 2.192209 1_555
F30 K11 2.596519 1_555
F30 K12 2.771461 1_555
F30 K2 3.244319 1_555
F31 Tl7 2.192209 1_555
F31 K9 2.596518 1_555
F31 K13 2.771462 1_555
F31 K2 3.244332 1_555
F32 Tl5 2.192219 1_555
F32 K10 2.596510 1_555
F32 K15 2.771455 1_555
F32 K2 3.244326 1_555
F33 Tl6 2.192217 1_555
F33 K9 2.596508 1_555
F33 K14 2.771468 1_555
F33 K2 3.244325 1_555
F34 Tl4 2.192209 1_555
F34 K11 2.596519 1_555
F34 K14 2.771461 1_555
F34 K2 3.244319 1_555
F35 Tl7 2.192209 1_555
F35 K8 2.596518 1_555
F35 K15 2.771462 1_555
F35 K2 3.244332 1_555
F36 Tl4 2.192219 1_555
F36 K5 2.596510 1_455
F36 K23 2.771455 1_455
F36 K3 3.244326 1_455
F37 Tl5 2.192217 1_555
F37 K4 2.596508 1_554
F37 K22 2.771468 1_554
F37 K3 3.244325 1_554
F38 Tl6 2.192209 1_555
F38 K7 2.596519 1_545
F38 K22 2.771461 1_545
F38 K3 3.244319 1_545
F39 Tl7 2.192209 1_555
F39 K6 2.596518 1_555
F39 K23 2.771462 1_555
F39 K3 3.244332 1_555
F40 Tl6 2.192219 1_555
F40 K4 2.596510 1_545
F40 K19 2.771455 1_545
F40 K3 3.244326 1_545
F41 Tl4 2.192217 1_555
F41 K6 2.596508 1_455
F41 K18 2.771468 1_455
F41 K3 3.244325 1_455
F42 Tl5 2.192209 1_555
F42 K7 2.596519 1_554
F42 K18 2.771461 1_554
F42 K3 3.244319 1_554
F43 Tl7 2.192209 1_555
F43 K5 2.596518 1_555
F43 K19 2.771462 1_555
F43 K3 3.244332 1_555
F44 Tl5 2.192219 1_555
F44 K6 2.596510 1_554
F44 K21 2.771455 1_554
F44 K3 3.244326 1_554
F45 Tl6 2.192217 1_555
F45 K5 2.596508 1_545
F45 K20 2.771468 1_545
F45 K3 3.244325 1_545
F46 Tl4 2.192209 1_555
F46 K7 2.596519 1_455
F46 K20 2.771461 1_455
F46 K3 3.244319 1_455
F47 Tl7 2.192209 1_555
F47 K4 2.596518 1_555
F47 K21 2.771462 1_555
F47 K3 3.244332 1_555
