# generated using pymatgen
data_V5FePbO11
_symmetry_space_group_name_H-M   'P 1'
_cell_length_a   5.99933846
_cell_length_b   5.99933895
_cell_length_c   13.32493700
_cell_angle_alpha   90.00000000
_cell_angle_beta   90.00000000
_cell_angle_gamma   121.23032753
_symmetry_Int_Tables_number   1
_chemical_formula_structural   V5FePbO11
_chemical_formula_sum   'V10 Fe2 Pb2 O22'
_cell_volume   410.09429296
_cell_formula_units_Z   2
loop_
 _symmetry_equiv_pos_site_id
 _symmetry_equiv_pos_as_xyz
  1  'x, y, z'
loop_
 _atom_site_type_symbol
 _atom_site_label
 _atom_site_symmetry_multiplicity
 _atom_site_fract_x
 _atom_site_fract_y
 _atom_site_fract_z
 _atom_site_occupancy
  V  V0  1  0.49864600  0.50135400  0.49861000  1
  V  V1  1  0.50966600  0.01246600  0.49900500  1
  V  V2  1  0.98753400  0.49033400  0.49900500  1
  V  V3  1  0.50135400  0.49864600  0.99861000  1
  V  V4  1  0.49033400  0.98753400  0.99900500  1
  V  V5  1  0.01246600  0.50966600  0.99900500  1
  V  V6  1  0.99961700  0.00038300  0.85094600  1
  V  V7  1  0.00038300  0.99961700  0.35094600  1
  V  V8  1  0.66845800  0.33154200  0.76024400  1
  V  V9  1  0.33154200  0.66845800  0.26024400  1
  Fe  Fe0  1  0.00490300  0.99509700  0.64204700  1
  Fe  Fe1  1  0.99509700  0.00490300  0.14204700  1
  Pb  Pb0  1  0.33797300  0.66202700  0.72253500  1
  Pb  Pb1  1  0.66202700  0.33797300  0.22253500  1
  O  O0  1  0.65934700  0.34065300  0.58691400  1
  O  O1  1  0.34065300  0.65934700  0.08691400  1
  O  O2  1  0.18788800  0.81211200  0.57672000  1
  O  O3  1  0.18171800  0.36050400  0.57918100  1
  O  O4  1  0.63949600  0.81828200  0.57918100  1
  O  O5  1  0.81211200  0.18788800  0.07672000  1
  O  O6  1  0.81828200  0.63949600  0.07918100  1
  O  O7  1  0.36050400  0.18171800  0.07918100  1
  O  O8  1  0.17043200  0.82956800  0.92211000  1
  O  O9  1  0.17784800  0.34327200  0.92618300  1
  O  O10  1  0.65672800  0.82215200  0.92618300  1
  O  O11  1  0.82956800  0.17043200  0.42211000  1
  O  O12  1  0.82215200  0.65672800  0.42618300  1
  O  O13  1  0.34327200  0.17784800  0.42618300  1
  O  O14  1  0.66363200  0.33636800  0.91359800  1
  O  O15  1  0.33636800  0.66363200  0.41359800  1
  O  O16  1  0.16297500  0.83702500  0.25489900  1
  O  O17  1  0.16245300  0.30915700  0.25391900  1
  O  O18  1  0.69084300  0.83754700  0.25391900  1
  O  O19  1  0.83702500  0.16297500  0.75489900  1
  O  O20  1  0.83754700  0.69084300  0.75391900  1
  O  O21  1  0.30915700  0.16245300  0.75391900  1
loop_
_geom_bond_atom_site_label_1
_geom_bond_atom_site_label_2
_geom_bond_distance
_geom_bond_site_symmetry_2
Fe0 O4 2.054586 1_455
Fe0 O3 2.054587 1_565
Fe0 O2 2.101831 1_555
Fe0 O21 2.159077 1_565
Fe0 O20 2.159077 1_455
Fe0 O19 2.311242 1_465
Fe1 O7 2.054586 1_655
Fe1 O6 2.054587 1_545
Fe1 O5 2.101831 1_555
Fe1 O18 2.159077 1_545
Fe1 O17 2.159077 1_655
Fe1 O16 2.311242 1_645
O0 V0 2.051173 1_555
O0 V2 2.054679 1_555
O0 V1 2.054679 1_555
O0 V8 2.311575 1_555
O1 V3 2.051173 1_554
O1 V5 2.054679 1_554
O1 V4 2.054679 1_554
O1 V9 2.311575 1_555
O2 V1 1.958992 1_565
O2 V2 1.958992 1_455
O2 Pb0 2.497466 1_555
O3 V0 1.953403 1_555
O3 V2 2.011498 1_455
O3 Pb0 2.457927 1_555
O4 V0 1.953403 1_555
O4 V1 2.011498 1_565
O4 Pb0 2.457927 1_555
O5 V4 1.958992 1_544
O5 V5 1.958992 1_654
O5 Pb1 2.497466 1_555
O6 V3 1.953403 1_554
O6 V5 2.011498 1_654
O6 Pb1 2.457927 1_555
O7 V3 1.953403 1_554
O7 V4 2.011498 1_544
O7 Pb1 2.457927 1_555
O8 V4 1.935269 1_555
O8 V5 1.935269 1_555
O8 V6 2.022006 1_465
O9 V3 1.921219 1_555
O9 V5 1.987353 1_555
O9 V6 2.024646 1_455
O10 V3 1.921219 1_555
O10 V4 1.987353 1_555
O10 V6 2.024646 1_565
O11 V1 1.935269 1_555
O11 V2 1.935269 1_555
O11 V7 2.022006 1_645
O12 V0 1.921219 1_555
O12 V2 1.987353 1_555
O12 V7 2.024646 1_655
O13 V0 1.921219 1_555
O13 V1 1.987353 1_555
O13 V7 2.024646 1_545
O14 V3 2.040020 1_555
O14 V8 2.044055 1_555
O14 V5 2.121213 1_655
O14 V4 2.121213 1_545
O15 V0 2.040020 1_555
O15 V9 2.044055 1_555
O15 V2 2.121213 1_455
O15 V1 2.121213 1_565
O16 V9 1.763802 1_555
O16 V7 2.127812 1_555
O17 V9 1.848014 1_555
O17 V7 2.047719 1_545
O18 V9 1.848014 1_555
O18 V7 2.047719 1_655
O19 V8 1.763802 1_555
O19 V6 2.127812 1_555
O20 V8 1.848014 1_555
O20 V6 2.047719 1_565
O21 V8 1.848014 1_555
O21 V6 2.047719 1_455
