# generated using pymatgen
data_Ca4Sn3S10
_symmetry_space_group_name_H-M   'P 1'
_cell_length_a   6.80270900
_cell_length_b   7.17171400
_cell_length_c   33.02885500
_cell_angle_alpha   90.00000000
_cell_angle_beta   90.00000000
_cell_angle_gamma   90.00000000
_symmetry_Int_Tables_number   1
_chemical_formula_structural   Ca4Sn3S10
_chemical_formula_sum   'Ca16 Sn12 S40'
_cell_volume   1611.38150261
_cell_formula_units_Z   4
loop_
 _symmetry_equiv_pos_site_id
 _symmetry_equiv_pos_as_xyz
  1  'x, y, z'
loop_
 _atom_site_type_symbol
 _atom_site_label
 _atom_site_symmetry_multiplicity
 _atom_site_fract_x
 _atom_site_fract_y
 _atom_site_fract_z
 _atom_site_occupancy
  Ca  Ca0  1  0.97390200  0.58875000  0.57024000  1
  Ca  Ca1  1  0.47390200  0.91125000  0.42976000  1
  Ca  Ca2  1  0.02609800  0.08875000  0.92976000  1
  Ca  Ca3  1  0.52609800  0.41125000  0.07024000  1
  Ca  Ca4  1  0.02609800  0.41125000  0.42976000  1
  Ca  Ca5  1  0.52609800  0.08875000  0.57024000  1
  Ca  Ca6  1  0.97390200  0.91125000  0.07024000  1
  Ca  Ca7  1  0.47390200  0.58875000  0.92976000  1
  Ca  Ca8  1  0.51189400  0.91683800  0.70479700  1
  Ca  Ca9  1  0.01189400  0.58316200  0.29520300  1
  Ca  Ca10  1  0.48810600  0.41683800  0.79520300  1
  Ca  Ca11  1  0.98810600  0.08316200  0.20479700  1
  Ca  Ca12  1  0.48810600  0.08316200  0.29520300  1
  Ca  Ca13  1  0.98810600  0.41683800  0.70479700  1
  Ca  Ca14  1  0.51189400  0.58316200  0.20479700  1
  Ca  Ca15  1  0.01189400  0.91683800  0.79520300  1
  Sn  Sn0  1  0.50000000  0.50000000  0.50000000  1
  Sn  Sn1  1  0.00000000  0.00000000  0.50000000  1
  Sn  Sn2  1  0.50000000  0.00000000  0.00000000  1
  Sn  Sn3  1  0.00000000  0.50000000  0.00000000  1
  Sn  Sn4  1  0.99633700  0.00036200  0.64573900  1
  Sn  Sn5  1  0.49633700  0.49963800  0.35426100  1
  Sn  Sn6  1  0.00366300  0.50036200  0.85426100  1
  Sn  Sn7  1  0.50366300  0.99963800  0.14573900  1
  Sn  Sn8  1  0.00366300  0.99963800  0.35426100  1
  Sn  Sn9  1  0.50366300  0.50036200  0.64573900  1
  Sn  Sn10  1  0.99633700  0.49963800  0.14573900  1
  Sn  Sn11  1  0.49633700  0.00036200  0.85426100  1
  S  S0  1  0.13084500  0.95142900  0.57268600  1
  S  S1  1  0.63084500  0.54857100  0.42731400  1
  S  S2  1  0.86915500  0.45142900  0.92731400  1
  S  S3  1  0.36915500  0.04857100  0.07268600  1
  S  S4  1  0.86915500  0.04857100  0.42731400  1
  S  S5  1  0.36915500  0.45142900  0.57268600  1
  S  S6  1  0.13084500  0.54857100  0.07268600  1
  S  S7  1  0.63084500  0.95142900  0.92731400  1
  S  S8  1  0.89255400  0.04413600  0.71803800  1
  S  S9  1  0.39255400  0.45586400  0.28196200  1
  S  S10  1  0.10744600  0.54413600  0.78196200  1
  S  S11  1  0.60744600  0.95586400  0.21803800  1
  S  S12  1  0.10744600  0.95586400  0.28196200  1
  S  S13  1  0.60744600  0.54413600  0.71803800  1
  S  S14  1  0.89255400  0.45586400  0.21803800  1
  S  S15  1  0.39255400  0.04413600  0.78196200  1
  S  S16  1  0.81629200  0.31463800  0.62463800  1
  S  S17  1  0.31629200  0.18536200  0.37536200  1
  S  S18  1  0.18370800  0.81463800  0.87536200  1
  S  S19  1  0.68370800  0.68536200  0.12463800  1
  S  S20  1  0.18370800  0.68536200  0.37536200  1
  S  S21  1  0.68370800  0.81463800  0.62463800  1
  S  S22  1  0.81629200  0.18536200  0.12463800  1
  S  S23  1  0.31629200  0.31463800  0.87536200  1
  S  S24  1  0.19127800  0.70194500  0.66385600  1
  S  S25  1  0.69127800  0.79805500  0.33614400  1
  S  S26  1  0.80872200  0.20194500  0.83614400  1
  S  S27  1  0.30872200  0.29805500  0.16385600  1
  S  S28  1  0.80872200  0.29805500  0.33614400  1
  S  S29  1  0.30872200  0.20194500  0.66385600  1
  S  S30  1  0.19127800  0.79805500  0.16385600  1
  S  S31  1  0.69127800  0.70194500  0.83614400  1
  S  S32  1  0.31627800  0.18918700  0.48302900  1
  S  S33  1  0.81627800  0.31081300  0.51697100  1
  S  S34  1  0.68372200  0.68918700  0.01697100  1
  S  S35  1  0.18372200  0.81081300  0.98302900  1
  S  S36  1  0.68372200  0.81081300  0.51697100  1
  S  S37  1  0.18372200  0.68918700  0.48302900  1
  S  S38  1  0.31627800  0.31081300  0.98302900  1
  S  S39  1  0.81627800  0.18918700  0.01697100  1
loop_
_geom_bond_atom_site_label_1
_geom_bond_atom_site_label_2
_geom_bond_distance
_geom_bond_site_symmetry_2
Ca0 S0 2.812780 1_655
Ca0 S5 2.864613 1_655
Ca0 S33 2.866790 1_555
Ca0 S16 2.870937 1_555
Ca0 S36 3.086833 1_555
Ca0 S21 3.122443 1_555
Ca0 S37 3.294437 1_655
Ca1 S1 2.812780 1_555
Ca1 S4 2.864613 1_565
Ca1 S32 2.866790 1_565
Ca1 S17 2.870937 1_565
Ca1 S37 3.086833 1_555
Ca1 S20 3.122443 1_555
Ca1 S36 3.294437 1_555
Ca2 S2 2.812780 1_455
Ca2 S7 2.864613 1_445
Ca2 S35 2.866790 1_545
Ca2 S18 2.870937 1_545
Ca2 S38 3.086833 1_555
Ca2 S23 3.122443 1_555
Ca2 S39 3.294437 1_456
Ca3 S3 2.812780 1_555
Ca3 S6 2.864613 1_555
Ca3 S34 2.866790 1_555
Ca3 S19 2.870937 1_555
Ca3 S39 3.086833 1_555
Ca3 S22 3.122443 1_555
Ca3 S38 3.294437 1_554
Ca4 S4 2.812780 1_455
Ca4 S1 2.864613 1_455
Ca4 S37 2.866790 1_555
Ca4 S20 2.870937 1_555
Ca4 S32 3.086833 1_555
Ca4 S17 3.122443 1_555
Ca4 S33 3.294437 1_455
Ca5 S5 2.812780 1_555
Ca5 S0 2.864613 1_545
Ca5 S36 2.866790 1_545
Ca5 S21 2.870937 1_545
Ca5 S33 3.086833 1_555
Ca5 S16 3.122443 1_555
Ca5 S32 3.294437 1_555
Ca6 S6 2.812780 1_655
Ca6 S3 2.864613 1_665
Ca6 S39 2.866790 1_565
Ca6 S22 2.870937 1_565
Ca6 S34 3.086833 1_555
Ca6 S19 3.122443 1_555
Ca6 S35 3.294437 1_654
Ca7 S7 2.812780 1_555
Ca7 S2 2.864613 1_555
Ca7 S38 2.866790 1_555
Ca7 S23 2.870937 1_555
Ca7 S35 3.086833 1_555
Ca7 S18 3.122443 1_555
Ca7 S34 3.294437 1_556
Ca8 S8 2.780349 1_565
Ca8 S13 2.785361 1_555
Ca8 S29 2.814181 1_565
Ca8 S15 2.826353 1_565
Ca8 S21 2.985445 1_555
Ca8 S24 2.993442 1_555
Ca9 S9 2.780349 1_555
Ca9 S12 2.785361 1_555
Ca9 S28 2.814181 1_455
Ca9 S14 2.826353 1_455
Ca9 S20 2.985445 1_555
Ca9 S25 2.993442 1_455
Ca10 S10 2.780349 1_555
Ca10 S15 2.785361 1_555
Ca10 S31 2.814181 1_555
Ca10 S13 2.826353 1_555
Ca10 S23 2.985445 1_555
Ca10 S26 2.993442 1_555
Ca11 S11 2.780349 1_545
Ca11 S14 2.785361 1_555
Ca11 S30 2.814181 1_645
Ca11 S12 2.826353 1_645
Ca11 S22 2.985445 1_555
Ca11 S27 2.993442 1_655
Ca12 S12 2.780349 1_545
Ca12 S9 2.785361 1_555
Ca12 S25 2.814181 1_545
Ca12 S11 2.826353 1_545
Ca12 S17 2.985445 1_555
Ca12 S28 2.993442 1_555
Ca13 S13 2.780349 1_555
Ca13 S8 2.785361 1_555
Ca13 S24 2.814181 1_655
Ca13 S10 2.826353 1_655
Ca13 S16 2.985445 1_555
Ca13 S29 2.993442 1_655
Ca14 S14 2.780349 1_555
Ca14 S11 2.785361 1_555
Ca14 S27 2.814181 1_555
Ca14 S9 2.826353 1_555
Ca14 S19 2.985445 1_555
Ca14 S30 2.993442 1_555
Ca15 S15 2.780349 1_565
Ca15 S10 2.785361 1_555
Ca15 S26 2.814181 1_465
Ca15 S8 2.826353 1_465
Ca15 S18 2.985445 1_555
Ca15 S31 2.993442 1_455
S0 Sn1 2.584018 1_565
S0 Sn4 2.604283 1_465
S1 Sn0 2.584018 1_555
S1 Sn5 2.604283 1_555
S2 Sn3 2.584018 1_656
S2 Sn6 2.604283 1_655
S3 Sn2 2.584018 1_555
S3 Sn7 2.604283 1_545
S4 Sn1 2.584018 1_655
S4 Sn8 2.604283 1_645
S5 Sn0 2.584018 1_555
S5 Sn9 2.604283 1_555
S6 Sn3 2.584018 1_555
S6 Sn10 2.604283 1_455
S7 Sn2 2.584018 1_566
S7 Sn11 2.604283 1_565
S8 Sn4 2.509844 1_555
S9 Sn5 2.509844 1_555
S10 Sn6 2.509844 1_555
S11 Sn7 2.509844 1_555
S12 Sn8 2.509844 1_555
S13 Sn9 2.509844 1_555
S14 Sn10 2.509844 1_555
S15 Sn11 2.509844 1_555
S16 Sn9 2.604381 1_555
S16 Sn4 2.658176 1_555
S17 Sn8 2.604381 1_545
S17 Sn5 2.658176 1_555
S18 Sn11 2.604381 1_565
S18 Sn6 2.658176 1_555
S19 Sn10 2.604381 1_555
S19 Sn7 2.658176 1_555
S20 Sn5 2.604381 1_555
S20 Sn8 2.658176 1_555
S21 Sn4 2.604381 1_565
S21 Sn9 2.658176 1_555
S22 Sn7 2.604381 1_545
S22 Sn10 2.658176 1_555
S23 Sn6 2.604381 1_555
S23 Sn11 2.658176 1_555
S24 Sn4 2.587850 1_465
S24 Sn9 2.638939 1_555
S25 Sn5 2.587850 1_555
S25 Sn8 2.638939 1_655
S26 Sn6 2.587850 1_655
S26 Sn11 2.638939 1_555
S27 Sn7 2.587850 1_545
S27 Sn10 2.638939 1_455
S28 Sn8 2.587850 1_645
S28 Sn5 2.638939 1_555
S29 Sn9 2.587850 1_555
S29 Sn4 2.638939 1_455
S30 Sn10 2.587850 1_455
S30 Sn7 2.638939 1_555
S31 Sn11 2.587850 1_565
S31 Sn6 2.638939 1_655
S32 Sn1 2.604658 1_555
S32 Sn0 2.616282 1_555
S33 Sn0 2.604658 1_555
S33 Sn1 2.616282 1_655
S34 Sn3 2.604658 1_655
S34 Sn2 2.616282 1_565
S35 Sn2 2.604658 1_566
S35 Sn3 2.616282 1_556
S36 Sn1 2.604658 1_665
S36 Sn0 2.616282 1_555
S37 Sn0 2.604658 1_555
S37 Sn1 2.616282 1_565
S38 Sn3 2.604658 1_556
S38 Sn2 2.616282 1_556
S39 Sn2 2.604658 1_555
S39 Sn3 2.616282 1_655
