# generated using pymatgen
data_Ta2CdO6
_symmetry_space_group_name_H-M   'P 1'
_cell_length_a   5.14965866
_cell_length_b   5.90052683
_cell_length_c   14.84287573
_cell_angle_alpha   90.00000000
_cell_angle_beta   90.00000000
_cell_angle_gamma   90.00000000
_symmetry_Int_Tables_number   1
_chemical_formula_structural   Ta2CdO6
_chemical_formula_sum   'Ta8 Cd4 O24'
_cell_volume   451.01115554
_cell_formula_units_Z   4
loop_
 _symmetry_equiv_pos_site_id
 _symmetry_equiv_pos_as_xyz
  1  'x, y, z'
loop_
 _atom_site_type_symbol
 _atom_site_label
 _atom_site_symmetry_multiplicity
 _atom_site_fract_x
 _atom_site_fract_y
 _atom_site_fract_z
 _atom_site_occupancy
  Ta  Ta0  1  0.23350079  0.82399412  0.83458064  1
  Ta  Ta1  1  0.76649921  0.17600588  0.16541936  1
  Ta  Ta2  1  0.73350079  0.67600588  0.66541936  1
  Ta  Ta3  1  0.26649921  0.82399412  0.16541936  1
  Ta  Ta4  1  0.26649921  0.32399412  0.33458064  1
  Ta  Ta5  1  0.73350079  0.17600588  0.83458064  1
  Ta  Ta6  1  0.76649921  0.67600588  0.33458064  1
  Ta  Ta7  1  0.23350079  0.32399412  0.66541936  1
  Cd  Cd0  1  0.25000000  0.81250848  0.50000000  1
  Cd  Cd1  1  0.75000000  0.18749152  0.50000000  1
  Cd  Cd2  1  0.75000000  0.68749152  0.00000000  1
  Cd  Cd3  1  0.25000000  0.31250848  0.00000000  1
  O  O0  1  0.10778482  0.61889171  0.91374787  1
  O  O1  1  0.89221518  0.38110829  0.08625213  1
  O  O2  1  0.60778482  0.88110829  0.58625213  1
  O  O3  1  0.39221518  0.61889171  0.08625213  1
  O  O4  1  0.39221518  0.11889171  0.41374787  1
  O  O5  1  0.60778482  0.38110829  0.91374787  1
  O  O6  1  0.89221518  0.88110829  0.41374787  1
  O  O7  1  0.10778482  0.11889171  0.58625213  1
  O  O8  1  0.05118961  0.58993177  0.60415684  1
  O  O9  1  0.94881039  0.41006823  0.39584316  1
  O  O10  1  0.55118961  0.91006823  0.89584316  1
  O  O11  1  0.44881039  0.58993177  0.39584316  1
  O  O12  1  0.44881039  0.08993177  0.10415684  1
  O  O13  1  0.55118961  0.41006823  0.60415684  1
  O  O14  1  0.94881039  0.91006823  0.10415684  1
  O  O15  1  0.05118961  0.08993177  0.89584316  1
  O  O16  1  0.40967963  0.63227466  0.74453237  1
  O  O17  1  0.59032037  0.36772534  0.25546763  1
  O  O18  1  0.90967963  0.86772534  0.75546763  1
  O  O19  1  0.09032037  0.63227466  0.25546763  1
  O  O20  1  0.09032037  0.13227466  0.24453237  1
  O  O21  1  0.90967963  0.36772534  0.74453237  1
  O  O22  1  0.59032037  0.86772534  0.24453237  1
  O  O23  1  0.40967963  0.13227466  0.75546763  1
loop_
_geom_bond_atom_site_label_1
_geom_bond_atom_site_label_2
_geom_bond_distance
_geom_bond_site_symmetry_2
Cd0 O11 2.272237 1_555
Cd0 O8 2.272237 1_555
Cd0 O6 2.279808 1_455
Cd0 O2 2.279808 1_555
Cd0 O4 2.333144 1_565
Cd0 O7 2.333144 1_565
Cd1 O9 2.272237 1_555
Cd1 O13 2.272237 1_555
Cd1 O4 2.279808 1_555
Cd1 O7 2.279808 1_655
Cd1 O2 2.333144 1_545
Cd1 O6 2.333144 1_545
Cd2 O14 2.272237 1_555
Cd2 O10 2.272237 1_554
Cd2 O0 2.279808 1_654
Cd2 O3 2.279808 1_555
Cd2 O5 2.333144 1_554
Cd2 O1 2.333144 1_555
Cd3 O12 2.272237 1_555
Cd3 O15 2.272237 1_554
Cd3 O5 2.279808 1_554
Cd3 O1 2.279808 1_455
Cd3 O3 2.333144 1_555
Cd3 O0 2.333144 1_554
O0 Ta0 1.806799 1_555
O1 Ta1 1.806799 1_555
O2 Ta2 1.806799 1_555
O3 Ta3 1.806799 1_555
O4 Ta4 1.806799 1_555
O5 Ta5 1.806799 1_555
O6 Ta6 1.806799 1_555
O7 Ta7 1.806799 1_555
O8 Ta2 1.939395 1_455
O8 Ta7 2.042198 1_555
O9 Ta4 1.939395 1_655
O9 Ta6 2.042198 1_555
O10 Ta0 1.939395 1_555
O10 Ta5 2.042198 1_565
O11 Ta6 1.939395 1_555
O11 Ta4 2.042198 1_555
O12 Ta1 1.939395 1_555
O12 Ta3 2.042198 1_545
O13 Ta7 1.939395 1_555
O13 Ta2 2.042198 1_555
O14 Ta3 1.939395 1_655
O14 Ta1 2.042198 1_565
O15 Ta5 1.939395 1_455
O15 Ta0 2.042198 1_545
O16 Ta0 1.972124 1_555
O16 Ta2 2.055788 1_555
O16 Ta7 2.347519 1_555
O17 Ta1 1.972124 1_555
O17 Ta4 2.055788 1_555
O17 Ta6 2.347519 1_555
O18 Ta2 1.972124 1_555
O18 Ta0 2.055788 1_655
O18 Ta5 2.347519 1_565
O19 Ta3 1.972124 1_555
O19 Ta6 2.055788 1_455
O19 Ta4 2.347519 1_555
O20 Ta4 1.972124 1_555
O20 Ta1 2.055788 1_455
O20 Ta3 2.347519 1_545
O21 Ta5 1.972124 1_555
O21 Ta7 2.055788 1_655
O21 Ta2 2.347519 1_555
O22 Ta6 1.972124 1_555
O22 Ta3 2.055788 1_555
O22 Ta1 2.347519 1_565
O23 Ta7 1.972124 1_555
O23 Ta5 2.055788 1_555
O23 Ta0 2.347519 1_545
