# generated using pymatgen
data_U6Al39Mo8
_symmetry_space_group_name_H-M   'P 1'
_cell_length_a   11.02346772
_cell_length_b   11.02346772
_cell_length_c   17.42557200
_cell_angle_alpha   90.00000000
_cell_angle_beta   90.00000000
_cell_angle_gamma   119.99999831
_symmetry_Int_Tables_number   1
_chemical_formula_structural   U6Al39Mo8
_chemical_formula_sum   'U12 Al78 Mo16'
_cell_volume   1833.80921681
_cell_formula_units_Z   2
loop_
 _symmetry_equiv_pos_site_id
 _symmetry_equiv_pos_as_xyz
  1  'x, y, z'
loop_
 _atom_site_type_symbol
 _atom_site_label
 _atom_site_symmetry_multiplicity
 _atom_site_fract_x
 _atom_site_fract_y
 _atom_site_fract_z
 _atom_site_occupancy
  U  U0  1  0.52715100  0.00000000  0.58969800  1
  U  U1  1  0.47284900  0.00000000  0.41030200  1
  U  U2  1  0.00000000  0.52715100  0.58969800  1
  U  U3  1  0.47284900  0.00000000  0.08969800  1
  U  U4  1  0.00000000  0.52715100  0.91030200  1
  U  U5  1  0.00000000  0.47284900  0.41030200  1
  U  U6  1  0.52715100  0.00000000  0.91030200  1
  U  U7  1  0.00000000  0.47284900  0.08969800  1
  U  U8  1  0.47284900  0.47284900  0.58969800  1
  U  U9  1  0.52715100  0.52715100  0.41030200  1
  U  U10  1  0.52715100  0.52715100  0.08969800  1
  U  U11  1  0.47284900  0.47284900  0.91030200  1
  Al  Al0  1  0.25545100  0.00000000  0.52777900  1
  Al  Al1  1  0.74454900  0.00000000  0.47222100  1
  Al  Al2  1  0.00000000  0.25545100  0.52777900  1
  Al  Al3  1  0.74454900  0.00000000  0.02777900  1
  Al  Al4  1  0.00000000  0.25545100  0.97222100  1
  Al  Al5  1  0.00000000  0.74454900  0.47222100  1
  Al  Al6  1  0.25545100  0.00000000  0.97222100  1
  Al  Al7  1  0.00000000  0.74454900  0.02777900  1
  Al  Al8  1  0.74454900  0.74454900  0.52777900  1
  Al  Al9  1  0.25545100  0.25545100  0.47222100  1
  Al  Al10  1  0.25545100  0.25545100  0.02777900  1
  Al  Al11  1  0.74454900  0.74454900  0.97222100  1
  Al  Al12  1  0.14928600  0.60042700  0.75000000  1
  Al  Al13  1  0.85071400  0.39957300  0.25000000  1
  Al  Al14  1  0.39957300  0.54885900  0.75000000  1
  Al  Al15  1  0.60042700  0.14928600  0.75000000  1
  Al  Al16  1  0.60042700  0.45114100  0.25000000  1
  Al  Al17  1  0.39957300  0.85071400  0.25000000  1
  Al  Al18  1  0.45114100  0.85071400  0.75000000  1
  Al  Al19  1  0.54885900  0.39957300  0.75000000  1
  Al  Al20  1  0.54885900  0.14928600  0.25000000  1
  Al  Al21  1  0.45114100  0.60042700  0.25000000  1
  Al  Al22  1  0.85071400  0.45114100  0.75000000  1
  Al  Al23  1  0.14928600  0.54885900  0.25000000  1
  Al  Al24  1  0.16416400  0.39826800  0.66042200  1
  Al  Al25  1  0.83583600  0.60173200  0.33957800  1
  Al  Al26  1  0.60173200  0.76589600  0.66042200  1
  Al  Al27  1  0.83583600  0.60173200  0.16042200  1
  Al  Al28  1  0.39826800  0.16416400  0.83957800  1
  Al  Al29  1  0.39826800  0.23410400  0.33957800  1
  Al  Al30  1  0.16416400  0.39826800  0.83957800  1
  Al  Al31  1  0.60173200  0.83583600  0.16042200  1
  Al  Al32  1  0.23410400  0.83583600  0.66042200  1
  Al  Al33  1  0.39826800  0.23410400  0.16042200  1
  Al  Al34  1  0.76589600  0.60173200  0.83957800  1
  Al  Al35  1  0.76589600  0.16416400  0.33957800  1
  Al  Al36  1  0.60173200  0.76589600  0.83957800  1
  Al  Al37  1  0.23410400  0.39826800  0.16042200  1
  Al  Al38  1  0.60173200  0.83583600  0.33957800  1
  Al  Al39  1  0.39826800  0.16416400  0.66042200  1
  Al  Al40  1  0.76589600  0.16416400  0.16042200  1
  Al  Al41  1  0.23410400  0.39826800  0.33957800  1
  Al  Al42  1  0.23410400  0.83583600  0.83957800  1
  Al  Al43  1  0.76589600  0.60173200  0.66042200  1
  Al  Al44  1  0.83583600  0.23410400  0.83957800  1
  Al  Al45  1  0.16416400  0.76589600  0.16042200  1
  Al  Al46  1  0.16416400  0.76589600  0.33957800  1
  Al  Al47  1  0.83583600  0.23410400  0.66042200  1
  Al  Al48  1  0.15457500  0.00000000  0.75000000  1
  Al  Al49  1  0.84542500  0.00000000  0.25000000  1
  Al  Al50  1  0.00000000  0.15457500  0.75000000  1
  Al  Al51  1  0.00000000  0.84542500  0.25000000  1
  Al  Al52  1  0.84542500  0.84542500  0.75000000  1
  Al  Al53  1  0.15457500  0.15457500  0.25000000  1
  Al  Al54  1  0.15818200  0.00000000  0.11435300  1
  Al  Al55  1  0.84181800  0.00000000  0.88564700  1
  Al  Al56  1  0.00000000  0.15818200  0.11435300  1
  Al  Al57  1  0.84181800  0.00000000  0.61435300  1
  Al  Al58  1  0.00000000  0.15818200  0.38564700  1
  Al  Al59  1  0.00000000  0.84181800  0.88564700  1
  Al  Al60  1  0.15818200  0.00000000  0.38564700  1
  Al  Al61  1  0.00000000  0.84181800  0.61435300  1
  Al  Al62  1  0.84181800  0.84181800  0.11435300  1
  Al  Al63  1  0.15818200  0.15818200  0.88564700  1
  Al  Al64  1  0.15818200  0.15818200  0.61435300  1
  Al  Al65  1  0.84181800  0.84181800  0.38564700  1
  Al  Al66  1  0.25070200  0.50140400  0.50000000  1
  Al  Al67  1  0.74929800  0.49859600  0.50000000  1
  Al  Al68  1  0.49859600  0.74929800  0.50000000  1
  Al  Al69  1  0.74929800  0.49859600  0.00000000  1
  Al  Al70  1  0.50140400  0.25070200  0.00000000  1
  Al  Al71  1  0.50140400  0.25070200  0.50000000  1
  Al  Al72  1  0.25070200  0.50140400  0.00000000  1
  Al  Al73  1  0.49859600  0.74929800  0.00000000  1
  Al  Al74  1  0.25070200  0.74929800  0.50000000  1
  Al  Al75  1  0.74929800  0.25070200  0.50000000  1
  Al  Al76  1  0.74929800  0.25070200  0.00000000  1
  Al  Al77  1  0.25070200  0.74929800  0.00000000  1
  Mo  Mo0  1  0.73776100  0.00000000  0.75000000  1
  Mo  Mo1  1  0.26223900  0.00000000  0.25000000  1
  Mo  Mo2  1  0.00000000  0.73776100  0.75000000  1
  Mo  Mo3  1  0.00000000  0.26223900  0.25000000  1
  Mo  Mo4  1  0.26223900  0.26223900  0.75000000  1
  Mo  Mo5  1  0.73776100  0.73776100  0.25000000  1
  Mo  Mo6  1  0.33333300  0.66666700  0.63092200  1
  Mo  Mo7  1  0.66666700  0.33333300  0.36907800  1
  Mo  Mo8  1  0.66666700  0.33333300  0.13092200  1
  Mo  Mo9  1  0.66666700  0.33333300  0.86907800  1
  Mo  Mo10  1  0.33333300  0.66666700  0.86907800  1
  Mo  Mo11  1  0.33333300  0.66666700  0.13092200  1
  Mo  Mo12  1  0.33333300  0.66666700  0.36907800  1
  Mo  Mo13  1  0.66666700  0.33333300  0.63092200  1
  Mo  Mo14  1  0.00000000  0.00000000  0.50000000  1
  Mo  Mo15  1  0.00000000  0.00000000  0.00000000  1
loop_
_geom_bond_atom_site_label_1
_geom_bond_atom_site_label_2
_geom_bond_distance
_geom_bond_site_symmetry_2
U0 U1 3.182873 1_555
U2 U5 3.182873 1_555
U3 U6 3.182873 1_554
U4 U7 3.182873 1_556
U8 U9 3.182873 1_555
U10 U11 3.182873 1_554
Al0 Al60 2.698870 1_555
Al0 Al74 2.780269 1_545
Al0 Al71 2.780270 1_555
Al0 Mo14 2.857259 1_555
Al0 Al32 2.871736 1_545
Al0 Al39 2.871736 1_555
Al0 Al64 2.887179 1_555
Al0 Al61 2.887179 1_545
Al0 Al9 2.977731 1_555
Al0 Al5 2.977731 1_545
Al0 U1 3.151785 1_555
Al0 U0 3.183499 1_555
Al1 Al57 2.698870 1_555
Al1 Al75 2.780269 1_555
Al1 Al68 2.780270 1_545
Al1 Mo14 2.857259 1_655
Al1 Al35 2.871736 1_555
Al1 Al38 2.871736 1_545
Al1 Al65 2.887179 1_545
Al1 Al58 2.887179 1_655
Al1 Al8 2.977731 1_545
Al1 Al2 2.977731 1_655
Al1 U0 3.151785 1_555
Al1 U1 3.183499 1_555
Al2 Al58 2.698870 1_555
Al2 Al75 2.780269 1_455
Al2 Al66 2.780270 1_555
Al2 Mo14 2.857259 1_555
Al2 Al47 2.871736 1_455
Al2 Al24 2.871736 1_555
Al2 Al64 2.887179 1_555
Al2 Al57 2.887179 1_455
Al2 Al9 2.977731 1_555
Al2 U5 3.151785 1_555
Al2 U2 3.183499 1_555
Al3 Al55 2.698870 1_554
Al3 Al76 2.780269 1_555
Al3 Al73 2.780270 1_545
Al3 Mo15 2.857259 1_655
Al3 Al40 2.871736 1_555
Al3 Al31 2.871736 1_545
Al3 Al62 2.887179 1_545
Al3 Al56 2.887179 1_655
Al3 Al4 2.977731 1_654
Al3 U6 3.151785 1_554
Al3 U3 3.183499 1_555
Al4 Al56 2.698870 1_556
Al4 Al76 2.780269 1_456
Al4 Al72 2.780270 1_556
Al4 Mo15 2.857259 1_556
Al4 Al44 2.871736 1_455
Al4 Al63 2.887179 1_555
Al4 Al55 2.887179 1_455
Al4 U7 3.151785 1_556
Al4 U4 3.183499 1_555
Al5 Al61 2.698870 1_555
Al5 Al74 2.780269 1_555
Al5 Al67 2.780270 1_455
Al5 Mo14 2.857259 1_565
Al5 Al65 2.887179 1_455
Al5 Al60 2.887179 1_565
Al5 Al8 2.977731 1_455
Al5 U2 3.151785 1_555
Al5 U5 3.183499 1_555
Al6 Al77 2.780269 1_546
Al6 Al70 2.780270 1_556
Al6 Mo15 2.857259 1_556
Al6 Al63 2.887179 1_555
Al6 Al7 2.977731 1_546
Al6 U3 3.151785 1_556
Al6 U6 3.183499 1_555
Al7 Al77 2.780269 1_555
Al7 Mo15 2.857259 1_565
Al7 U4 3.151785 1_554
Al7 U7 3.183499 1_555
Al8 Mo14 2.857259 1_665
Al8 U9 3.151785 1_555
Al8 U8 3.183499 1_555
Al9 Mo14 2.857259 1_555
Al9 U8 3.151785 1_555
Al9 U9 3.183499 1_555
Al10 Al63 2.698870 1_554
Al10 Al72 2.780269 1_555
Al10 Al70 2.780269 1_555
Al10 Mo15 2.857259 1_555
Al10 Al33 2.871736 1_555
Al10 Al37 2.871736 1_555
Al10 Al54 2.887179 1_555
Al10 Al56 2.887179 1_555
Al10 Al6 2.977731 1_554
Al10 Al4 2.977731 1_554
Al10 U11 3.151785 1_554
Al10 U10 3.183499 1_555
Al11 Al62 2.698870 1_556
Al11 Al69 2.780269 1_556
Al11 Al73 2.780269 1_556
Al11 Mo15 2.857259 1_666
Al11 Al34 2.871736 1_555
Al11 Al36 2.871736 1_555
Al11 Al59 2.887179 1_655
Al11 Al55 2.887179 1_565
Al11 Al3 2.977731 1_566
Al11 Al7 2.977731 1_656
Al11 U10 3.151785 1_556
Al11 U11 3.183499 1_555
Al12 Mo6 2.733779 1_555
Al12 Mo10 2.733779 1_555
Al12 Mo2 2.737040 1_555
Al12 U4 3.135949 1_555
Al12 U2 3.135949 1_555
Al13 Mo7 2.733779 1_555
Al13 Mo8 2.733779 1_555
Al13 Mo3 2.737040 1_655
Al13 U7 3.135949 1_655
Al13 U5 3.135949 1_655
Al14 Mo6 2.733786 1_555
Al14 Mo10 2.733786 1_555
Al14 Mo4 2.737040 1_555
Al14 U8 3.135949 1_555
Al14 U11 3.135949 1_555
Al15 Mo13 2.733779 1_555
Al15 Mo9 2.733779 1_555
Al15 Mo0 2.737040 1_555
Al15 U0 3.135949 1_555
Al15 U6 3.135949 1_555
Al16 Mo8 2.733786 1_555
Al16 Mo7 2.733786 1_555
Al16 Mo5 2.737040 1_555
Al16 U9 3.135949 1_555
Al16 U10 3.135949 1_555
Al17 Mo11 2.733779 1_555
Al17 Mo12 2.733779 1_555
Al17 Mo1 2.737040 1_565
Al17 U3 3.135949 1_565
Al17 U1 3.135949 1_565
Al18 Mo6 2.733781 1_555
Al18 Mo10 2.733781 1_555
Al18 Mo0 2.737040 1_565
Al18 U0 3.135949 1_565
Al18 U6 3.135949 1_565
Al19 Mo13 2.733786 1_555
Al19 Mo9 2.733786 1_555
Al19 Mo4 2.737040 1_555
Al19 U8 3.135949 1_555
Al19 U11 3.135949 1_555
Al20 Mo8 2.733781 1_555
Al20 Mo7 2.733781 1_555
Al20 Mo1 2.737040 1_555
Al20 U3 3.135949 1_555
Al20 U1 3.135949 1_555
Al21 Mo11 2.733786 1_555
Al21 Mo12 2.733786 1_555
Al21 Mo5 2.737040 1_555
Al21 U9 3.135949 1_555
Al21 U10 3.135949 1_555
Al22 Mo13 2.733781 1_555
Al22 Mo9 2.733781 1_555
Al22 Mo2 2.737040 1_655
Al22 U4 3.135949 1_655
Al22 U2 3.135949 1_655
Al23 Mo12 2.733781 1_555
Al23 Mo11 2.733781 1_555
Al23 Mo3 2.737040 1_555
Al23 U7 3.135949 1_555
Al23 U5 3.135949 1_555
Al24 Mo6 2.641633 1_555
Al24 Mo4 2.734061 1_555
Al24 Al66 2.988737 1_555
Al24 U2 3.063205 1_555
Al24 U8 3.313017 1_555
Al25 Mo7 2.641633 1_555
Al25 Mo5 2.734061 1_555
Al25 Al5 2.871736 1_655
Al25 Al67 2.988737 1_555
Al25 U5 3.063205 1_655
Al25 U9 3.313017 1_555
Al26 Mo6 2.641635 1_555
Al26 Mo0 2.734061 1_565
Al26 Al8 2.871736 1_555
Al26 Al68 2.988737 1_555
Al26 U8 3.063205 1_555
Al26 U0 3.313017 1_565
Al27 Mo8 2.641633 1_555
Al27 Mo5 2.734061 1_555
Al27 Al7 2.871736 1_655
Al27 Al69 2.988737 1_555
Al27 U7 3.063205 1_655
Al27 U10 3.313017 1_555
Al28 Mo9 2.641633 1_555
Al28 Mo4 2.734061 1_555
Al28 Al6 2.871736 1_555
Al28 Al70 2.988737 1_556
Al28 U6 3.063205 1_555
Al28 U11 3.313017 1_555
Al29 Mo7 2.641635 1_555
Al29 Mo1 2.734061 1_555
Al29 Al9 2.871736 1_555
Al29 Al71 2.988737 1_555
Al29 U9 3.063205 1_555
Al29 U1 3.313017 1_555
Al30 Mo10 2.641633 1_555
Al30 Mo4 2.734061 1_555
Al30 Al4 2.871736 1_555
Al30 Al72 2.988737 1_556
Al30 U4 3.063205 1_555
Al30 U11 3.313017 1_555
Al31 Mo11 2.641633 1_555
Al31 Mo5 2.734061 1_555
Al31 Al73 2.988737 1_555
Al31 U3 3.063205 1_565
Al31 U10 3.313017 1_555
Al32 Mo6 2.641625 1_555
Al32 Mo2 2.734061 1_555
Al32 Al74 2.988737 1_555
Al32 U0 3.063205 1_565
Al32 U2 3.313017 1_555
Al33 Mo8 2.641635 1_555
Al33 Mo1 2.734061 1_555
Al33 Al70 2.988737 1_555
Al33 U10 3.063205 1_555
Al33 U3 3.313017 1_555
Al34 Mo9 2.641635 1_555
Al34 Mo2 2.734061 1_655
Al34 Al69 2.988737 1_556
Al34 U11 3.063205 1_555
Al34 U4 3.313017 1_655
Al35 Mo7 2.641625 1_555
Al35 Mo3 2.734061 1_655
Al35 Al75 2.988737 1_555
Al35 U1 3.063205 1_555
Al35 U5 3.313017 1_655
Al36 Mo10 2.641635 1_555
Al36 Mo0 2.734061 1_565
Al36 Al73 2.988737 1_556
Al36 U11 3.063205 1_555
Al36 U6 3.313017 1_565
Al37 Mo11 2.641635 1_555
Al37 Mo3 2.734061 1_555
Al37 Al72 2.988737 1_555
Al37 U10 3.063205 1_555
Al37 U7 3.313017 1_555
Al38 Mo12 2.641633 1_555
Al38 Mo5 2.734061 1_555
Al38 Al68 2.988737 1_555
Al38 U1 3.063205 1_565
Al38 U9 3.313017 1_555
Al39 Mo13 2.641633 1_555
Al39 Mo4 2.734061 1_555
Al39 Al71 2.988737 1_555
Al39 U0 3.063205 1_555
Al39 U8 3.313017 1_555
Al40 Mo8 2.641625 1_555
Al40 Mo3 2.734061 1_655
Al40 Al76 2.988737 1_555
Al40 U3 3.063205 1_555
Al40 U7 3.313017 1_655
Al41 Mo12 2.641635 1_555
Al41 Mo3 2.734061 1_555
Al41 Al9 2.871736 1_555
Al41 Al66 2.988737 1_555
Al41 U9 3.063205 1_555
Al41 U5 3.313017 1_555
Al42 Mo10 2.641625 1_555
Al42 Mo2 2.734061 1_555
Al42 Al6 2.871736 1_565
Al42 Al77 2.988737 1_556
Al42 U6 3.063205 1_565
Al42 U4 3.313017 1_555
Al43 Mo13 2.641635 1_555
Al43 Mo2 2.734061 1_655
Al43 Al8 2.871736 1_555
Al43 Al67 2.988737 1_555
Al43 U8 3.063205 1_555
Al43 U2 3.313017 1_655
Al44 Mo9 2.641625 1_555
Al44 Mo0 2.734061 1_555
Al44 Al76 2.988737 1_556
Al44 U4 3.063205 1_655
Al44 U6 3.313017 1_555
Al45 Mo11 2.641625 1_555
Al45 Mo1 2.734061 1_565
Al45 Al7 2.871736 1_555
Al45 Al77 2.988737 1_555
Al45 U7 3.063205 1_555
Al45 U3 3.313017 1_565
Al46 Mo12 2.641625 1_555
Al46 Mo1 2.734061 1_565
Al46 Al5 2.871736 1_555
Al46 Al74 2.988737 1_555
Al46 U5 3.063205 1_555
Al46 U1 3.313017 1_565
Al47 Mo13 2.641625 1_555
Al47 Mo0 2.734061 1_555
Al47 Al75 2.988737 1_555
Al47 U2 3.063205 1_655
Al47 U0 3.313017 1_555
Al48 Mo4 2.516808 1_555
Al48 Mo2 2.516808 1_545
Al49 Mo5 2.516808 1_545
Al49 Mo3 2.516808 1_655
Al50 Mo4 2.516808 1_555
Al50 Mo0 2.516808 1_455
Al51 Mo5 2.516808 1_455
Al51 Mo1 2.516808 1_565
Al52 Mo0 2.516808 1_565
Al52 Mo2 2.516808 1_655
Al53 Mo3 2.516808 1_555
Al53 Mo1 2.516808 1_555
Al54 Mo1 2.627350 1_555
Al54 Mo15 2.647878 1_555
Al54 Al6 2.698870 1_554
Al54 Al7 2.887179 1_545
Al54 U3 3.495227 1_555
Al55 Mo0 2.627350 1_555
Al55 Mo15 2.647878 1_656
Al55 U6 3.495227 1_555
Al56 Mo3 2.627350 1_555
Al56 Mo15 2.647878 1_555
Al56 U7 3.495227 1_555
Al57 Mo0 2.627350 1_555
Al57 Mo14 2.647878 1_655
Al57 Al8 2.887179 1_545
Al57 U0 3.495227 1_555
Al58 Mo3 2.627350 1_555
Al58 Mo14 2.647878 1_555
Al58 Al9 2.887179 1_555
Al58 U5 3.495227 1_555
Al59 Mo2 2.627350 1_555
Al59 Mo15 2.647878 1_566
Al59 Al7 2.698870 1_556
Al59 Al6 2.887179 1_565
Al59 U4 3.495227 1_555
Al60 Mo1 2.627350 1_555
Al60 Mo14 2.647878 1_555
Al60 Al9 2.887179 1_555
Al60 U1 3.495227 1_555
Al61 Mo2 2.627350 1_555
Al61 Mo14 2.647878 1_565
Al61 Al8 2.887179 1_455
Al61 U2 3.495227 1_555
Al62 Mo5 2.627350 1_555
Al62 Mo15 2.647878 1_665
Al62 Al7 2.887179 1_655
Al62 U10 3.495227 1_555
Al63 Mo4 2.627350 1_555
Al63 Mo15 2.647878 1_556
Al63 U11 3.495227 1_555
Al64 Mo4 2.627350 1_555
Al64 Mo14 2.647878 1_555
Al64 Al9 2.698870 1_555
Al64 U8 3.495227 1_555
Al65 Mo5 2.627350 1_555
Al65 Mo14 2.647878 1_665
Al65 Al8 2.698870 1_555
Al65 U9 3.495227 1_555
Al66 Al74 2.732652 1_555
Al66 Al68 2.732652 1_555
Al66 Mo12 2.773785 1_555
Al66 Mo6 2.773785 1_555
Al66 Al9 2.780269 1_555
Al66 U8 3.051192 1_555
Al66 U5 3.051192 1_555
Al66 U2 3.308403 1_555
Al66 U9 3.308403 1_555
Al67 Al75 2.732652 1_555
Al67 Al71 2.732652 1_555
Al67 Mo7 2.773785 1_555
Al67 Mo13 2.773785 1_555
Al67 Al8 2.780269 1_555
Al67 U9 3.051192 1_555
Al67 U2 3.051192 1_655
Al67 U5 3.308403 1_655
Al67 U8 3.308403 1_555
Al68 Al74 2.732652 1_555
Al68 Mo12 2.773785 1_555
Al68 Mo6 2.773785 1_555
Al68 Al8 2.780269 1_555
Al68 U9 3.051192 1_555
Al68 U0 3.051192 1_565
Al68 U1 3.308403 1_565
Al68 U8 3.308403 1_555
Al69 Al76 2.732652 1_555
Al69 Al70 2.732652 1_555
Al69 Mo9 2.773785 1_554
Al69 Mo8 2.773785 1_555
Al69 Al7 2.780270 1_655
Al69 U10 3.051192 1_555
Al69 U4 3.051192 1_654
Al69 U7 3.308403 1_655
Al69 U11 3.308403 1_554
Al70 Al76 2.732652 1_555
Al70 Mo8 2.773785 1_555
Al70 Mo9 2.773785 1_554
Al70 U11 3.051192 1_554
Al70 U3 3.051192 1_555
Al70 U6 3.308403 1_554
Al70 U10 3.308403 1_555
Al71 Al75 2.732652 1_555
Al71 Mo13 2.773785 1_555
Al71 Mo7 2.773785 1_555
Al71 Al9 2.780269 1_555
Al71 U8 3.051192 1_555
Al71 U1 3.051192 1_555
Al71 U0 3.308403 1_555
Al71 U9 3.308403 1_555
Al72 Al77 2.732652 1_555
Al72 Al73 2.732652 1_555
Al72 Mo10 2.773785 1_554
Al72 Mo11 2.773785 1_555
Al72 U11 3.051192 1_554
Al72 U7 3.051192 1_555
Al72 U4 3.308403 1_554
Al72 U10 3.308403 1_555
Al73 Al77 2.732652 1_555
Al73 Mo11 2.773785 1_555
Al73 Mo10 2.773785 1_554
Al73 U10 3.051192 1_555
Al73 U6 3.051192 1_564
Al73 U3 3.308403 1_565
Al73 U11 3.308403 1_554
Al74 Mo12 2.773779 1_555
Al74 Mo6 2.773779 1_555
Al74 U2 3.051192 1_555
Al74 U1 3.051192 1_565
Al74 U5 3.308403 1_555
Al74 U0 3.308403 1_565
Al75 Mo7 2.773779 1_555
Al75 Mo13 2.773779 1_555
Al75 U5 3.051192 1_655
Al75 U0 3.051192 1_555
Al75 U1 3.308403 1_555
Al75 U2 3.308403 1_655
Al76 Mo9 2.773779 1_554
Al76 Mo8 2.773779 1_555
Al76 U7 3.051192 1_655
Al76 U6 3.051192 1_554
Al76 U3 3.308403 1_555
Al76 U4 3.308403 1_654
Al77 Mo10 2.773779 1_554
Al77 Mo11 2.773779 1_555
Al77 U4 3.051192 1_554
Al77 U3 3.051192 1_565
Al77 U7 3.308403 1_555
Al77 U6 3.308403 1_564
Mo0 U6 3.632203 1_555
Mo0 U0 3.632203 1_555
Mo1 U3 3.632203 1_555
Mo1 U1 3.632203 1_555
Mo2 U4 3.632203 1_555
Mo2 U2 3.632203 1_555
Mo3 U7 3.632203 1_555
Mo3 U5 3.632203 1_555
Mo4 U11 3.632203 1_555
Mo4 U8 3.632203 1_555
Mo5 U9 3.632203 1_555
Mo5 U10 3.632203 1_555
Mo6 U2 3.275971 1_555
Mo6 U0 3.275972 1_565
Mo6 U8 3.275981 1_555
Mo7 U5 3.275971 1_655
Mo7 U1 3.275972 1_555
Mo7 U9 3.275981 1_555
Mo8 U7 3.275971 1_655
Mo8 U3 3.275972 1_555
Mo8 U10 3.275981 1_555
Mo9 U6 3.275971 1_555
Mo9 U4 3.275972 1_655
Mo9 U11 3.275981 1_555
Mo10 U4 3.275971 1_555
Mo10 U6 3.275972 1_565
Mo10 U11 3.275981 1_555
Mo11 U3 3.275971 1_565
Mo11 U7 3.275972 1_555
Mo11 U10 3.275981 1_555
Mo12 U1 3.275971 1_565
Mo12 U5 3.275972 1_555
Mo12 U9 3.275981 1_555
Mo13 U0 3.275971 1_555
Mo13 U2 3.275972 1_655
Mo13 U8 3.275981 1_555
