# generated using pymatgen
data_Cr20(WC2)3
_symmetry_space_group_name_H-M   'P 1'
_cell_length_a   7.56312645
_cell_length_b   7.56312645
_cell_length_c   7.56312645
_cell_angle_alpha   60.00000000
_cell_angle_beta   60.00000000
_cell_angle_gamma   60.00000000
_symmetry_Int_Tables_number   1
_chemical_formula_structural   Cr20(WC2)3
_chemical_formula_sum   'Cr20 W3 C6'
_cell_volume   305.90676890
_cell_formula_units_Z   1
loop_
 _symmetry_equiv_pos_site_id
 _symmetry_equiv_pos_as_xyz
  1  'x, y, z'
loop_
 _atom_site_type_symbol
 _atom_site_label
 _atom_site_symmetry_multiplicity
 _atom_site_fract_x
 _atom_site_fract_y
 _atom_site_fract_z
 _atom_site_occupancy
  Cr  Cr0  1  0.61530900  0.61530900  0.15407300  1
  Cr  Cr1  1  0.61530900  0.15407300  0.61530900  1
  Cr  Cr2  1  0.15407300  0.61530900  0.61530900  1
  Cr  Cr3  1  0.61530900  0.61530900  0.61530900  1
  Cr  Cr4  1  0.38469100  0.38469100  0.84592700  1
  Cr  Cr5  1  0.38469100  0.84592700  0.38469100  1
  Cr  Cr6  1  0.84592700  0.38469100  0.38469100  1
  Cr  Cr7  1  0.38469100  0.38469100  0.38469100  1
  Cr  Cr8  1  0.00000000  0.00000000  0.34353300  1
  Cr  Cr9  1  0.65646700  0.00000000  0.34353300  1
  Cr  Cr10  1  0.00000000  0.65646700  0.34353300  1
  Cr  Cr11  1  0.65646700  0.34353300  0.00000000  1
  Cr  Cr12  1  0.00000000  0.34353300  0.00000000  1
  Cr  Cr13  1  0.00000000  0.34353300  0.65646700  1
  Cr  Cr14  1  0.34353300  0.65646700  0.00000000  1
  Cr  Cr15  1  0.34353300  0.00000000  0.65646700  1
  Cr  Cr16  1  0.34353300  0.00000000  0.00000000  1
  Cr  Cr17  1  0.00000000  0.00000000  0.65646700  1
  Cr  Cr18  1  0.00000000  0.65646700  0.00000000  1
  Cr  Cr19  1  0.65646700  0.00000000  0.00000000  1
  W  W0  1  0.00000000  0.00000000  0.00000000  1
  W  W1  1  0.75000000  0.75000000  0.75000000  1
  W  W2  1  0.25000000  0.25000000  0.25000000  1
  C  C0  1  0.72400500  0.72400500  0.27599500  1
  C  C1  1  0.27599500  0.72400500  0.27599500  1
  C  C2  1  0.72400500  0.27599500  0.27599500  1
  C  C3  1  0.27599500  0.27599500  0.72400500  1
  C  C4  1  0.72400500  0.27599500  0.72400500  1
  C  C5  1  0.27599500  0.72400500  0.72400500  1
loop_
_geom_bond_atom_site_label_1
_geom_bond_atom_site_label_2
_geom_bond_distance
_geom_bond_site_symmetry_2
Cr0 W1 2.495259 1_554
Cr1 W1 2.495259 1_545
Cr2 W1 2.495259 1_455
Cr3 W1 2.495259 1_555
Cr4 W2 2.495259 1_556
Cr5 W2 2.495259 1_565
Cr6 W2 2.495259 1_655
Cr7 W2 2.495259 1_555
Cr8 W0 2.598184 1_555
Cr9 W0 2.598184 1_655
Cr10 W0 2.598184 1_565
Cr11 W0 2.598184 1_655
Cr12 W0 2.598184 1_555
Cr13 W0 2.598184 1_556
Cr14 W0 2.598184 1_565
Cr15 W0 2.598184 1_556
Cr16 W0 2.598184 1_555
Cr17 W0 2.598184 1_556
Cr18 W0 2.598184 1_565
Cr19 W0 2.598184 1_655
C0 Cr0 2.096150 1_555
C0 Cr3 2.096150 1_555
C0 Cr6 2.096150 1_555
C0 Cr5 2.096150 1_555
C0 Cr18 2.148975 1_655
C0 Cr9 2.148975 1_565
C0 Cr19 2.148975 1_565
C0 Cr10 2.148975 1_655
C1 Cr0 2.096150 1_555
C1 Cr7 2.096150 1_555
C1 Cr5 2.096150 1_555
C1 Cr2 2.096150 1_555
C1 Cr8 2.148975 1_565
C1 Cr14 2.148975 1_555
C1 Cr16 2.148975 1_565
C1 Cr10 2.148975 1_555
C2 Cr0 2.096150 1_555
C2 Cr1 2.096150 1_555
C2 Cr7 2.096150 1_555
C2 Cr6 2.096150 1_555
C2 Cr9 2.148975 1_555
C2 Cr8 2.148975 1_655
C2 Cr12 2.148975 1_655
C2 Cr11 2.148975 1_555
C3 Cr1 2.096150 1_555
C3 Cr7 2.096150 1_555
C3 Cr4 2.096150 1_555
C3 Cr2 2.096150 1_555
C3 Cr12 2.148975 1_556
C3 Cr16 2.148975 1_556
C3 Cr13 2.148975 1_555
C3 Cr15 2.148975 1_555
C4 Cr1 2.096150 1_555
C4 Cr3 2.096150 1_555
C4 Cr4 2.096150 1_555
C4 Cr6 2.096150 1_555
C4 Cr13 2.148975 1_655
C4 Cr17 2.148975 1_655
C4 Cr19 2.148975 1_556
C4 Cr11 2.148975 1_556
C5 Cr3 2.096150 1_555
C5 Cr4 2.096150 1_555
C5 Cr5 2.096150 1_555
C5 Cr2 2.096150 1_555
C5 Cr17 2.148975 1_565
C5 Cr18 2.148975 1_556
C5 Cr15 2.148975 1_565
C5 Cr14 2.148975 1_556
