# generated using pymatgen
data_BaSrSmSeO6
_symmetry_space_group_name_H-M   'P 1'
_cell_length_a   5.95839043
_cell_length_b   5.96536948
_cell_length_c   8.41401600
_cell_angle_alpha   90.38862105
_cell_angle_beta   89.64159285
_cell_angle_gamma   89.74810624
_symmetry_Int_Tables_number   1
_chemical_formula_structural   BaSrSmSeO6
_chemical_formula_sum   'Ba2 Sr2 Sm2 Se2 O12'
_cell_volume   299.05211128
_cell_formula_units_Z   2
loop_
 _symmetry_equiv_pos_site_id
 _symmetry_equiv_pos_as_xyz
  1  'x, y, z'
loop_
 _atom_site_type_symbol
 _atom_site_label
 _atom_site_symmetry_multiplicity
 _atom_site_fract_x
 _atom_site_fract_y
 _atom_site_fract_z
 _atom_site_occupancy
  Ba  Ba0  1  0.99549137  0.01627927  0.24774865  1
  Ba  Ba1  1  0.00450863  0.98372073  0.75225135  1
  Sr  Sr0  1  0.50410838  0.52724515  0.24846057  1
  Sr  Sr1  1  0.49589162  0.47275485  0.75153943  1
  Sm  Sm0  1  0.50000000  -0.00000000  -0.00000000  1
  Sm  Sm1  1  0.00000000  0.50000000  0.50000000  1
  Se  Se0  1  0.00000000  0.50000000  -0.00000000  1
  Se  Se1  1  0.50000000  -0.00000000  0.50000000  1
  O  O0  1  0.21150795  0.24477768  0.97330847  1
  O  O1  1  0.30047460  0.74351305  0.53043337  1
  O  O2  1  0.78849205  0.75522232  0.02669153  1
  O  O3  1  0.69952540  0.25648695  0.46956663  1
  O  O4  1  0.26084342  0.70620028  0.96558176  1
  O  O5  1  0.24994250  0.20651506  0.52074557  1
  O  O6  1  0.73915658  0.29379972  0.03441824  1
  O  O7  1  0.75005750  0.79348494  0.47925443  1
  O  O8  1  0.45682900  0.97788545  0.27294453  1
  O  O9  1  0.06295217  0.50362602  0.23377794  1
  O  O10  1  0.54317100  0.02211455  0.72705547  1
  O  O11  1  0.93704783  0.49637398  0.76622206  1
loop_
_geom_bond_atom_site_label_1
_geom_bond_atom_site_label_2
_geom_bond_distance
_geom_bond_site_symmetry_2
Ba0 O2 2.722542 1_545
Ba0 O8 2.766926 1_645
Ba0 O7 2.777737 1_545
Ba0 O6 2.889251 1_555
Ba0 O3 2.923499 1_555
Ba0 O9 2.939650 1_655
Ba0 O0 2.977872 1_654
Ba0 O5 2.980939 1_655
Ba0 O9 3.084071 1_645
Ba0 O8 3.224483 1_545
Ba0 O4 3.380189 1_644
Ba0 O1 3.418739 1_645
Ba1 O0 2.722542 1_565
Ba1 O10 2.766926 1_465
Ba1 O5 2.777737 1_565
Ba1 O4 2.889251 1_555
Ba1 O1 2.923499 1_555
Ba1 O11 2.939650 1_455
Ba1 O2 2.977872 1_456
Ba1 O7 2.980939 1_455
Ba1 O11 3.084071 1_465
Ba1 O10 3.224483 1_565
Ba1 O6 3.380189 1_466
Ba1 O3 3.418739 1_465
O0 Se0 1.982827 1_556
O0 Sm0 2.263754 1_556
O0 Sr1 2.866654 1_555
O1 Se1 1.958943 1_565
O1 Sm1 2.324788 1_555
O1 Sr1 2.734396 1_555
O1 Sr0 2.945190 1_555
O2 Se0 1.982827 1_655
O2 Sm0 2.263754 1_565
O2 Sr0 2.866654 1_555
O3 Se1 1.958943 1_555
O3 Sm1 2.324788 1_655
O3 Sr0 2.734396 1_555
O3 Sr1 2.945190 1_555
O4 Se0 2.007109 1_556
O4 Sm0 2.281750 1_566
O4 Sr1 2.657338 1_555
O4 Sr0 2.994947 1_556
O5 Se1 1.935395 1_555
O5 Sm1 2.301724 1_555
O5 Sr1 2.907788 1_555
O6 Se0 2.007109 1_655
O6 Sm0 2.281750 1_555
O6 Sr0 2.657338 1_555
O6 Sr1 2.994947 1_554
O7 Se1 1.935395 1_565
O7 Sm1 2.301724 1_655
O7 Sr0 2.907788 1_555
O8 Se1 1.932980 1_565
O8 Sm0 2.314038 1_565
O8 Sr0 2.708046 1_555
O9 Se0 2.004750 1_555
O9 Sm1 2.269133 1_555
O9 Sr0 2.636595 1_555
O10 Se1 1.932980 1_555
O10 Sm0 2.314038 1_556
O10 Sr1 2.708046 1_555
O11 Se0 2.004750 1_656
O11 Sm1 2.269133 1_655
O11 Sr1 2.636595 1_555
