# generated using pymatgen
data_BaTb2SmO6
_symmetry_space_group_name_H-M   'P 1'
_cell_length_a   5.99216223
_cell_length_b   6.20063415
_cell_length_c   8.64888883
_cell_angle_alpha   90.00000000
_cell_angle_beta   90.00000000
_cell_angle_gamma   90.00000000
_symmetry_Int_Tables_number   1
_chemical_formula_structural   BaTb2SmO6
_chemical_formula_sum   'Ba2 Tb4 Sm2 O12'
_cell_volume   321.35124404
_cell_formula_units_Z   2
loop_
 _symmetry_equiv_pos_site_id
 _symmetry_equiv_pos_as_xyz
  1  'x, y, z'
loop_
 _atom_site_type_symbol
 _atom_site_label
 _atom_site_symmetry_multiplicity
 _atom_site_fract_x
 _atom_site_fract_y
 _atom_site_fract_z
 _atom_site_occupancy
  Ba  Ba0  1  0.74752973  0.97550671  0.50000000  1
  Ba  Ba1  1  0.25247027  0.47550671  0.50000000  1
  Tb  Tb0  1  0.74339038  0.51237329  0.76137550  1
  Tb  Tb1  1  0.25660962  0.01237329  0.76137550  1
  Tb  Tb2  1  0.74339038  0.51237329  0.23862450  1
  Tb  Tb3  1  0.25660962  0.01237329  0.23862450  1
  Sm  Sm0  1  0.23668697  0.57278121  0.00000000  1
  Sm  Sm1  1  0.76331303  0.07278121  0.00000000  1
  O  O0  1  0.40071736  0.93218982  0.00000000  1
  O  O1  1  0.80745267  0.53616189  0.50000000  1
  O  O2  1  0.19254733  0.03616189  0.50000000  1
  O  O3  1  0.59928264  0.43218982  0.00000000  1
  O  O4  1  0.59005137  0.17515040  0.73529604  1
  O  O5  1  0.04649908  0.30415650  0.83722942  1
  O  O6  1  0.95350092  0.80415650  0.16277058  1
  O  O7  1  0.40994863  0.67515040  0.26470396  1
  O  O8  1  0.95350092  0.80415650  0.83722942  1
  O  O9  1  0.40994863  0.67515040  0.73529604  1
  O  O10  1  0.59005137  0.17515040  0.26470396  1
  O  O11  1  0.04649908  0.30415650  0.16277058  1
loop_
_geom_bond_atom_site_label_1
_geom_bond_atom_site_label_2
_geom_bond_distance
_geom_bond_site_symmetry_2
Ba0 O10 2.562092 1_565
Ba0 O4 2.562092 1_565
Ba0 O2 2.693010 1_665
Ba0 O1 2.747778 1_555
Ba1 O7 2.562092 1_555
Ba1 O9 2.562092 1_555
Ba1 O1 2.693010 1_455
Ba1 O2 2.747778 1_555
O0 Tb3 2.291785 1_565
O0 Tb1 2.291785 1_564
O0 Sm1 2.341094 1_565
O0 Sm0 2.435687 1_555
O1 Tb0 2.297708 1_555
O1 Tb2 2.297708 1_555
O2 Tb3 2.297708 1_555
O2 Tb1 2.297708 1_555
O3 Tb2 2.291785 1_555
O3 Tb0 2.291785 1_554
O3 Sm0 2.341094 1_555
O3 Sm1 2.435687 1_555
O4 Tb1 2.249835 1_555
O4 Tb0 2.295080 1_555
O4 Sm1 2.592706 1_556
O5 Tb1 2.299756 1_555
O5 Tb0 2.322960 1_455
O5 Sm0 2.460691 1_556
O5 Sm1 2.630514 1_456
O6 Tb2 2.299756 1_555
O6 Tb3 2.322960 1_665
O6 Sm1 2.460691 1_565
O6 Sm0 2.630514 1_655
O7 Tb2 2.249835 1_555
O7 Tb3 2.295080 1_565
O7 Sm0 2.592706 1_555
O8 Tb0 2.299756 1_555
O8 Tb1 2.322960 1_665
O8 Sm1 2.460691 1_566
O8 Sm0 2.630514 1_656
O9 Tb0 2.249835 1_555
O9 Tb1 2.295080 1_565
O9 Sm0 2.592706 1_556
O10 Tb3 2.249835 1_555
O10 Tb2 2.295080 1_555
O10 Sm1 2.592706 1_555
O11 Tb3 2.299756 1_555
O11 Tb2 2.322960 1_455
O11 Sm0 2.460691 1_555
O11 Sm1 2.630514 1_455
