# generated using pymatgen
data_Mn3Nb2O9
_symmetry_space_group_name_H-M   'P 1'
_cell_length_a   5.26973579
_cell_length_b   5.26973579
_cell_length_c   14.60165900
_cell_angle_alpha   90.00000000
_cell_angle_beta   90.00000000
_cell_angle_gamma   119.99999731
_symmetry_Int_Tables_number   1
_chemical_formula_structural   Mn3Nb2O9
_chemical_formula_sum   'Mn6 Nb4 O18'
_cell_volume   351.16443686
_cell_formula_units_Z   2
loop_
 _symmetry_equiv_pos_site_id
 _symmetry_equiv_pos_as_xyz
  1  'x, y, z'
loop_
 _atom_site_type_symbol
 _atom_site_label
 _atom_site_symmetry_multiplicity
 _atom_site_fract_x
 _atom_site_fract_y
 _atom_site_fract_z
 _atom_site_occupancy
  Mn  Mn0  1  0.66666700  0.33333300  0.68296400  1
  Mn  Mn1  1  0.66666700  0.33333300  0.97759300  1
  Mn  Mn2  1  0.66666700  0.33333300  0.47759300  1
  Mn  Mn3  1  0.33333300  0.66666700  0.50569300  1
  Mn  Mn4  1  0.33333300  0.66666700  0.00569300  1
  Mn  Mn5  1  0.66666700  0.33333300  0.18296400  1
  Nb  Nb0  1  0.00000000  0.00000000  0.85766300  1
  Nb  Nb1  1  0.00000000  0.00000000  0.14546400  1
  Nb  Nb2  1  0.00000000  0.00000000  0.64546400  1
  Nb  Nb3  1  0.00000000  0.00000000  0.35766300  1
  O  O0  1  0.36149600  0.32599200  0.09102900  1
  O  O1  1  0.67890400  0.69801700  0.92066300  1
  O  O2  1  0.92973900  0.24288100  0.24394500  1
  O  O3  1  0.31314200  0.07026100  0.24394500  1
  O  O4  1  0.96449700  0.63850400  0.09102900  1
  O  O5  1  0.67400800  0.63850400  0.59102900  1
  O  O6  1  0.75711900  0.07026100  0.74394500  1
  O  O7  1  0.01911300  0.32109600  0.92066300  1
  O  O8  1  0.01911300  0.69801700  0.42066300  1
  O  O9  1  0.36149600  0.03550300  0.59102900  1
  O  O10  1  0.31314200  0.24288100  0.74394500  1
  O  O11  1  0.96449700  0.32599200  0.59102900  1
  O  O12  1  0.75711900  0.68685800  0.24394500  1
  O  O13  1  0.30198300  0.98088700  0.92066300  1
  O  O14  1  0.67400800  0.03550300  0.09102900  1
  O  O15  1  0.67890400  0.98088700  0.42066300  1
  O  O16  1  0.30198300  0.32109600  0.42066300  1
  O  O17  1  0.92973900  0.68685800  0.74394500  1
loop_
_geom_bond_atom_site_label_1
_geom_bond_atom_site_label_2
_geom_bond_distance
_geom_bond_site_symmetry_2
Mn0 O6 1.898089 1_555
Mn0 O17 1.898092 1_555
Mn0 O10 1.898093 1_555
Mn0 O11 2.080275 1_555
Mn0 O5 2.080275 1_555
Mn0 O9 2.080275 1_555
Mn1 O7 2.065065 1_655
Mn1 O13 2.065068 1_545
Mn1 O1 2.065070 1_555
Mn1 O14 2.295431 1_556
Mn1 O0 2.295431 1_556
Mn1 O4 2.295431 1_556
Mn2 O15 2.065065 1_545
Mn2 O8 2.065068 1_655
Mn2 O16 2.065070 1_555
Mn2 O11 2.295431 1_555
Mn2 O5 2.295431 1_555
Mn2 O9 2.295431 1_555
Mn3 O8 2.141081 1_555
Mn3 O15 2.141084 1_555
Mn3 O16 2.141086 1_555
Mn3 O9 2.250343 1_565
Mn3 O11 2.250347 1_455
Mn3 O5 2.250352 1_555
Mn4 O13 2.141081 1_554
Mn4 O7 2.141084 1_554
Mn4 O1 2.141086 1_554
Mn4 O4 2.250343 1_455
Mn4 O14 2.250347 1_565
Mn4 O0 2.250352 1_555
Mn5 O2 1.898089 1_555
Mn5 O3 1.898092 1_555
Mn5 O12 1.898093 1_555
Mn5 O14 2.080275 1_555
Mn5 O0 2.080275 1_555
Mn5 O4 2.080275 1_555
Nb0 O13 1.883909 1_545
Nb0 O7 1.883909 1_555
Nb0 O1 1.883909 1_445
Nb0 O6 2.237487 1_455
Nb0 O17 2.237487 1_445
Nb0 O10 2.237487 1_555
Nb1 O14 1.984775 1_455
Nb1 O0 1.984778 1_555
Nb1 O4 1.984780 1_445
Nb1 O2 2.077735 1_455
Nb1 O3 2.077735 1_555
Nb1 O12 2.077735 1_445
Nb2 O11 1.984775 1_455
Nb2 O5 1.984778 1_445
Nb2 O9 1.984780 1_555
Nb2 O6 2.077735 1_455
Nb2 O17 2.077735 1_445
Nb2 O10 2.077735 1_555
Nb3 O8 1.883909 1_545
Nb3 O15 1.883909 1_445
Nb3 O16 1.883909 1_555
Nb3 O2 2.237487 1_455
Nb3 O3 2.237487 1_555
Nb3 O12 2.237487 1_445
