# generated using pymatgen
data_In2Sb
_symmetry_space_group_name_H-M   'P 1'
_cell_length_a   5.37990440
_cell_length_b   5.37990440
_cell_length_c   6.72255200
_cell_angle_alpha   90.00000000
_cell_angle_beta   90.00000000
_cell_angle_gamma   120.00000496
_symmetry_Int_Tables_number   1
_chemical_formula_structural   In2Sb
_chemical_formula_sum   'In4 Sb2'
_cell_volume   168.50542893
_cell_formula_units_Z   2
loop_
 _symmetry_equiv_pos_site_id
 _symmetry_equiv_pos_as_xyz
  1  'x, y, z'
loop_
 _atom_site_type_symbol
 _atom_site_label
 _atom_site_symmetry_multiplicity
 _atom_site_fract_x
 _atom_site_fract_y
 _atom_site_fract_z
 _atom_site_occupancy
  In  In0  1  0.33333300  0.66666700  0.75000000  1
  In  In1  1  0.66666700  0.33333300  0.25000000  1
  In  In2  1  0.00000000  0.00000000  0.00000000  1
  In  In3  1  0.00000000  0.00000000  0.50000000  1
  Sb  Sb0  1  0.33333300  0.66666700  0.25000000  1
  Sb  Sb1  1  0.66666700  0.33333300  0.75000000  1
loop_
_geom_bond_atom_site_label_1
_geom_bond_atom_site_label_2
_geom_bond_distance
_geom_bond_site_symmetry_2
In0 Sb1 3.106086 1_455
In0 Sb1 3.106086 1_565
In0 Sb1 3.106096 1_555
In0 Sb0 3.361276 1_556
In0 Sb0 3.361276 1_555
In0 In2 3.531617 1_566
In0 In3 3.531617 1_565
In0 In2 3.531620 1_556
In0 In3 3.531620 1_555
In0 In2 3.531620 1_666
In0 In3 3.531620 1_665
In1 Sb0 3.106086 1_545
In1 Sb0 3.106086 1_655
In1 Sb0 3.106096 1_555
In1 Sb1 3.361276 1_554
In1 Sb1 3.361276 1_555
In1 In3 3.531617 1_655
In1 In2 3.531617 1_655
In1 In2 3.531620 1_555
In1 In3 3.531620 1_555
In1 In3 3.531620 1_665
In1 In2 3.531620 1_665
In2 In3 3.361276 1_554
In2 In3 3.361276 1_555
In2 Sb0 3.531617 1_545
In2 Sb1 3.531617 1_454
In2 Sb0 3.531620 1_445
In2 Sb0 3.531620 1_555
In2 Sb1 3.531620 1_444
In2 Sb1 3.531620 1_554
In3 Sb0 3.531617 1_545
In3 Sb1 3.531617 1_455
In3 Sb0 3.531620 1_555
In3 Sb1 3.531620 1_445
In3 Sb0 3.531620 1_445
In3 Sb1 3.531620 1_555
