# generated using pymatgen
data_Eu(GaGe2)2
_symmetry_space_group_name_H-M   'P 1'
_cell_length_a   6.15495977
_cell_length_b   6.15495977
_cell_length_c   13.08936600
_cell_angle_alpha   90.00000000
_cell_angle_beta   90.00000000
_cell_angle_gamma   139.96206101
_symmetry_Int_Tables_number   1
_chemical_formula_structural   Eu(GaGe2)2
_chemical_formula_sum   'Eu2 Ga4 Ge8'
_cell_volume   318.99144163
_cell_formula_units_Z   2
loop_
 _symmetry_equiv_pos_site_id
 _symmetry_equiv_pos_as_xyz
  1  'x, y, z'
loop_
 _atom_site_type_symbol
 _atom_site_label
 _atom_site_symmetry_multiplicity
 _atom_site_fract_x
 _atom_site_fract_y
 _atom_site_fract_z
 _atom_site_occupancy
  Eu  Eu0  1  0.79687400  0.20312600  0.25000000  1
  Eu  Eu1  1  0.20312600  0.79687400  0.75000000  1
  Ga  Ga0  1  0.25553500  0.74446500  0.04874900  1
  Ga  Ga1  1  0.74446500  0.25553500  0.95125100  1
  Ga  Ga2  1  0.25553500  0.74446500  0.45125100  1
  Ga  Ga3  1  0.74446500  0.25553500  0.54874900  1
  Ge  Ge0  1  0.46905600  0.53094400  0.09379100  1
  Ge  Ge1  1  0.53094400  0.46905600  0.90620900  1
  Ge  Ge2  1  0.46905600  0.53094400  0.40620900  1
  Ge  Ge3  1  0.53094400  0.46905600  0.59379100  1
  Ge  Ge4  1  0.07195700  0.92804300  0.15390500  1
  Ge  Ge5  1  0.92804300  0.07195700  0.84609500  1
  Ge  Ge6  1  0.07195700  0.92804300  0.34609500  1
  Ge  Ge7  1  0.92804300  0.07195700  0.65390500  1
loop_
_geom_bond_atom_site_label_1
_geom_bond_atom_site_label_2
_geom_bond_distance
_geom_bond_site_symmetry_2
Eu0 Ga2 3.406974 1_655
Eu0 Ga2 3.406974 1_545
Eu0 Ga0 3.406974 1_655
Eu0 Ga0 3.406974 1_545
Eu0 Ge6 3.421259 1_645
Eu0 Ge4 3.421259 1_645
Eu0 Ge2 3.547718 1_655
Eu0 Ge0 3.547718 1_655
Eu0 Ge0 3.547718 1_545
Eu0 Ge2 3.547718 1_545
Eu0 Ge6 3.576187 1_655
Eu0 Ge4 3.576187 1_545
Eu0 Ge6 3.576187 1_545
Eu0 Ge4 3.576187 1_655
Eu1 Ga1 3.406974 1_565
Eu1 Ga1 3.406974 1_455
Eu1 Ga3 3.406974 1_565
Eu1 Ga3 3.406974 1_455
Eu1 Ge5 3.421259 1_465
Eu1 Ge7 3.421259 1_465
Eu1 Ge1 3.547718 1_565
Eu1 Ge1 3.547718 1_455
Eu1 Ge3 3.547718 1_565
Eu1 Ge3 3.547718 1_455
Eu1 Ge5 3.576187 1_565
Eu1 Ge5 3.576187 1_455
Eu1 Ge7 3.576187 1_565
Eu1 Ge7 3.576187 1_455
Ga0 Ga1 2.466707 1_564
Ga0 Ga1 2.466707 1_454
Ga0 Ge4 2.530397 1_555
Ga0 Ge0 2.539014 1_555
Ga1 Ge5 2.530397 1_555
Ga1 Ge1 2.539014 1_555
Ga2 Ga3 2.466707 1_455
Ga2 Ga3 2.466707 1_565
Ga2 Ge6 2.530397 1_555
Ga2 Ge2 2.539014 1_555
Ga3 Ge7 2.530397 1_555
Ga3 Ge3 2.539014 1_555
Ge0 Ge4 2.544648 1_545
Ge0 Ge4 2.544648 1_655
Ge0 Ge1 2.557542 1_554
Ge1 Ge5 2.544648 1_455
Ge1 Ge5 2.544648 1_565
Ge2 Ge6 2.544648 1_545
Ge2 Ge6 2.544648 1_655
Ge2 Ge3 2.557542 1_555
Ge3 Ge7 2.544648 1_455
Ge3 Ge7 2.544648 1_565
Ge4 Ge6 2.515645 1_555
Ge5 Ge7 2.515645 1_555
