# generated using pymatgen
data_K2ZnP2O7
_symmetry_space_group_name_H-M   'P 1'
_cell_length_a   7.98389900
_cell_length_b   7.98389900
_cell_length_c   11.49375000
_cell_angle_alpha   90.00000000
_cell_angle_beta   90.00000000
_cell_angle_gamma   90.00000000
_symmetry_Int_Tables_number   1
_chemical_formula_structural   K2ZnP2O7
_chemical_formula_sum   'K8 Zn4 P8 O28'
_cell_volume   732.64200577
_cell_formula_units_Z   4
loop_
 _symmetry_equiv_pos_site_id
 _symmetry_equiv_pos_as_xyz
  1  'x, y, z'
loop_
 _atom_site_type_symbol
 _atom_site_label
 _atom_site_symmetry_multiplicity
 _atom_site_fract_x
 _atom_site_fract_y
 _atom_site_fract_z
 _atom_site_occupancy
  K  K0  1  0.31551500  0.31551500  0.00000000  1
  K  K1  1  0.68448500  0.68448500  0.00000000  1
  K  K2  1  0.81551500  0.18448500  0.50000000  1
  K  K3  1  0.18448500  0.81551500  0.50000000  1
  K  K4  1  0.15139800  0.84860200  0.00000000  1
  K  K5  1  0.65139800  0.65139800  0.50000000  1
  K  K6  1  0.34860200  0.34860200  0.50000000  1
  K  K7  1  0.84860200  0.15139800  0.00000000  1
  Zn  Zn0  1  0.50000000  0.00000000  0.25000000  1
  Zn  Zn1  1  0.00000000  0.50000000  0.25000000  1
  Zn  Zn2  1  0.00000000  0.50000000  0.75000000  1
  Zn  Zn3  1  0.50000000  0.00000000  0.75000000  1
  P  P0  1  0.86365800  0.86365800  0.71894700  1
  P  P1  1  0.13634200  0.13634200  0.71894700  1
  P  P2  1  0.86365800  0.86365800  0.28105300  1
  P  P3  1  0.36365800  0.63634200  0.21894700  1
  P  P4  1  0.63634200  0.36365800  0.21894700  1
  P  P5  1  0.63634200  0.36365800  0.78105300  1
  P  P6  1  0.36365800  0.63634200  0.78105300  1
  P  P7  1  0.13634200  0.13634200  0.28105300  1
  O  O0  1  0.07864700  0.30161500  0.33966500  1
  O  O1  1  0.92135300  0.69838500  0.33966500  1
  O  O2  1  0.30161500  0.07864700  0.66033500  1
  O  O3  1  0.80161500  0.42135300  0.83966500  1
  O  O4  1  0.19838500  0.57864700  0.83966500  1
  O  O5  1  0.42135300  0.80161500  0.16033500  1
  O  O6  1  0.57864700  0.19838500  0.16033500  1
  O  O7  1  0.69838500  0.92135300  0.66033500  1
  O  O8  1  0.92135300  0.69838500  0.66033500  1
  O  O9  1  0.07864700  0.30161500  0.66033500  1
  O  O10  1  0.69838500  0.92135300  0.33966500  1
  O  O11  1  0.19838500  0.57864700  0.16033500  1
  O  O12  1  0.80161500  0.42135300  0.16033500  1
  O  O13  1  0.57864700  0.19838500  0.83966500  1
  O  O14  1  0.42135300  0.80161500  0.83966500  1
  O  O15  1  0.30161500  0.07864700  0.33966500  1
  O  O16  1  0.86421300  0.86421300  0.85001800  1
  O  O17  1  0.13578700  0.13578700  0.85001800  1
  O  O18  1  0.86421300  0.86421300  0.14998200  1
  O  O19  1  0.36421300  0.63578700  0.35001800  1
  O  O20  1  0.00000000  0.00000000  0.33181500  1
  O  O21  1  0.50000000  0.50000000  0.83181500  1
  O  O22  1  0.50000000  0.50000000  0.16818500  1
  O  O23  1  0.00000000  0.00000000  0.66818500  1
  O  O24  1  0.13578700  0.13578700  0.14998200  1
  O  O25  1  0.36421300  0.63578700  0.64998200  1
  O  O26  1  0.63578700  0.36421300  0.64998200  1
  O  O27  1  0.63578700  0.36421300  0.35001800  1
loop_
_geom_bond_atom_site_label_1
_geom_bond_atom_site_label_2
_geom_bond_distance
_geom_bond_site_symmetry_2
K0 O24 2.662654 1_555
K0 O17 2.662654 1_554
K0 O22 2.841779 1_555
K0 O21 2.841779 1_554
K0 O11 2.946872 1_555
K0 O6 2.946872 1_555
K0 O13 2.946872 1_554
K0 O4 2.946872 1_554
K1 O18 2.662654 1_555
K1 O16 2.662654 1_554
K1 O22 2.841779 1_555
K1 O21 2.841779 1_554
K1 O14 2.946872 1_554
K1 O12 2.946872 1_555
K1 O5 2.946872 1_555
K1 O3 2.946872 1_554
K2 O26 2.662654 1_555
K2 O27 2.662654 1_555
K2 O23 2.841779 1_655
K2 O20 2.841779 1_655
K2 O10 2.946872 1_545
K2 O7 2.946872 1_545
K2 O9 2.946872 1_655
K2 O0 2.946872 1_655
K3 O25 2.662654 1_555
K3 O19 2.662654 1_555
K3 O23 2.841779 1_565
K3 O20 2.841779 1_565
K3 O8 2.946872 1_455
K3 O1 2.946872 1_455
K3 O2 2.946872 1_565
K3 O15 2.946872 1_565
K4 O4 2.860440 1_554
K4 O11 2.860440 1_555
K4 O5 2.860440 1_555
K4 O14 2.860440 1_554
K4 O18 2.871307 1_455
K4 O24 2.871307 1_565
K4 O16 2.871307 1_454
K4 O17 2.871307 1_564
K5 O7 2.860440 1_555
K5 O1 2.860440 1_555
K5 O10 2.860440 1_555
K5 O8 2.860440 1_555
K5 O25 2.871307 1_555
K5 O26 2.871307 1_555
K5 O27 2.871307 1_555
K5 O19 2.871307 1_555
K6 O9 2.860440 1_555
K6 O0 2.860440 1_555
K6 O2 2.860440 1_555
K6 O15 2.860440 1_555
K6 O19 2.871307 1_555
K6 O26 2.871307 1_555
K6 O27 2.871307 1_555
K6 O25 2.871307 1_555
K7 O13 2.860440 1_554
K7 O6 2.860440 1_555
K7 O3 2.860440 1_554
K7 O12 2.860440 1_555
K7 O18 2.871307 1_545
K7 O24 2.871307 1_655
K7 O16 2.871307 1_544
K7 O17 2.871307 1_654
O0 P7 1.551501 1_555
O0 Zn1 1.991250 1_555
O1 P2 1.551501 1_555
O1 Zn1 1.991250 1_655
O2 P1 1.551501 1_555
O2 Zn3 1.991250 1_555
O3 P5 1.551501 1_555
O3 Zn2 1.991250 1_655
O4 P6 1.551501 1_555
O4 Zn2 1.991250 1_555
O5 P3 1.551501 1_555
O5 Zn0 1.991250 1_565
O6 P4 1.551501 1_555
O6 Zn0 1.991250 1_555
O7 P0 1.551501 1_555
O7 Zn3 1.991250 1_565
O8 P0 1.551501 1_555
O8 Zn2 1.991250 1_655
O9 P1 1.551501 1_555
O9 Zn2 1.991250 1_555
O10 P2 1.551501 1_555
O10 Zn0 1.991250 1_565
O11 P3 1.551501 1_555
O11 Zn1 1.991250 1_555
O12 P4 1.551501 1_555
O12 Zn1 1.991250 1_655
O13 P5 1.551501 1_555
O13 Zn3 1.991250 1_555
O14 P6 1.551501 1_555
O14 Zn3 1.991250 1_565
O15 P7 1.551501 1_555
O15 Zn0 1.991250 1_555
O16 P0 1.506510 1_555
O17 P1 1.506510 1_555
O18 P2 1.506510 1_555
O19 P3 1.506510 1_555
O20 P7 1.646284 1_555
O20 P2 1.646284 1_445
O21 P5 1.646284 1_555
O21 P6 1.646284 1_555
O22 P4 1.646284 1_555
O22 P3 1.646284 1_555
O23 P1 1.646284 1_555
O23 P0 1.646284 1_445
O24 P7 1.506510 1_555
O25 P6 1.506510 1_555
O26 P5 1.506510 1_555
O27 P4 1.506510 1_555
