# generated using pymatgen
data_RbS
_symmetry_space_group_name_H-M   'P 1'
_cell_length_a   12.41049479
_cell_length_b   6.07895015
_cell_length_c   8.74122887
_cell_angle_alpha   90.14596736
_cell_angle_beta   135.04712231
_cell_angle_gamma   89.78137433
_symmetry_Int_Tables_number   1
_chemical_formula_structural   RbS
_chemical_formula_sum   'Rb8 S8'
_cell_volume   465.92340378
_cell_formula_units_Z   8
loop_
 _symmetry_equiv_pos_site_id
 _symmetry_equiv_pos_as_xyz
  1  'x, y, z'
loop_
 _atom_site_type_symbol
 _atom_site_label
 _atom_site_symmetry_multiplicity
 _atom_site_fract_x
 _atom_site_fract_y
 _atom_site_fract_z
 _atom_site_occupancy
  Rb  Rb0_0  1  0.37391000  0.00214400  0.24754300  1
  Rb  Rb0_1  1  0.37391000  0.00214400  0.74754300  1
  Rb  Rb0_2  1  0.37391000  0.50214400  0.24754300  1
  Rb  Rb0_3  1  0.37391000  0.50214400  0.74754300  1
  Rb  Rb0_4  1  0.87391000  0.00214400  0.24754300  1
  Rb  Rb0_5  1  0.87391000  0.00214400  0.74754300  1
  Rb  Rb0_6  1  0.87391000  0.50214400  0.24754300  1
  Rb  Rb0_7  1  0.87391000  0.50214400  0.74754300  1
  S  S0_0  1  0.12391800  0.25371200  0.24800800  1
  S  S0_1  1  0.12391800  0.25371200  0.74800800  1
  S  S0_2  1  0.12391800  0.75371200  0.24800800  1
  S  S0_3  1  0.12391800  0.75371200  0.74800800  1
  S  S0_4  1  0.62391800  0.25371200  0.24800800  1
  S  S0_5  1  0.62391800  0.25371200  0.74800800  1
  S  S0_6  1  0.62391800  0.75371200  0.24800800  1
  S  S0_7  1  0.62391800  0.75371200  0.74800800  1
loop_
_geom_bond_atom_site_label_1
_geom_bond_atom_site_label_2
_geom_bond_distance
_geom_bond_site_symmetry_2
Rb0_0 Rb0_2 3.039475 1_555
Rb0_0 Rb0_2 3.039475 1_545
Rb0_0 S0_3 3.435219 1_544
Rb0_0 S0_7 3.439744 1_545
Rb0_0 S0_6 3.442971 1_545
Rb0_0 S0_1 3.443012 1_554
Rb0_0 S0_5 3.448768 1_555
Rb0_0 S0_0 3.456291 1_555
Rb0_0 S0_2 3.458328 1_545
Rb0_0 S0_4 3.461777 1_555
Rb0_1 Rb0_3 3.039475 1_555
Rb0_1 Rb0_3 3.039475 1_545
Rb0_1 S0_2 3.435219 1_545
Rb0_1 S0_6 3.439744 1_546
Rb0_1 S0_7 3.442971 1_545
Rb0_1 S0_0 3.443012 1_555
Rb0_1 S0_4 3.448768 1_556
Rb0_1 S0_1 3.456291 1_555
Rb0_1 S0_3 3.458328 1_545
Rb0_1 S0_5 3.461777 1_555
Rb0_2 S0_1 3.435219 1_554
Rb0_2 S0_5 3.439744 1_555
Rb0_2 S0_4 3.442971 1_555
Rb0_2 S0_3 3.443012 1_554
Rb0_2 S0_7 3.448768 1_555
Rb0_2 S0_2 3.456291 1_555
Rb0_2 S0_0 3.458328 1_555
Rb0_2 S0_6 3.461777 1_555
Rb0_3 S0_0 3.435219 1_555
Rb0_3 S0_4 3.439744 1_556
Rb0_3 S0_5 3.442971 1_555
Rb0_3 S0_2 3.443012 1_555
Rb0_3 S0_6 3.448768 1_556
Rb0_3 S0_3 3.456291 1_555
Rb0_3 S0_1 3.458328 1_555
Rb0_3 S0_7 3.461777 1_555
Rb0_4 Rb0_6 3.039475 1_555
Rb0_4 Rb0_6 3.039475 1_545
Rb0_4 S0_7 3.435219 1_544
Rb0_4 S0_3 3.439744 1_645
Rb0_4 S0_2 3.442971 1_645
Rb0_4 S0_5 3.443012 1_554
Rb0_4 S0_1 3.448768 1_655
Rb0_4 S0_4 3.456291 1_555
Rb0_4 S0_6 3.458328 1_545
Rb0_4 S0_0 3.461777 1_655
Rb0_5 Rb0_7 3.039475 1_555
Rb0_5 Rb0_7 3.039475 1_545
Rb0_5 S0_6 3.435219 1_545
Rb0_5 S0_2 3.439744 1_646
Rb0_5 S0_3 3.442971 1_645
Rb0_5 S0_4 3.443012 1_555
Rb0_5 S0_0 3.448768 1_656
Rb0_5 S0_5 3.456291 1_555
Rb0_5 S0_7 3.458328 1_545
Rb0_5 S0_1 3.461777 1_655
Rb0_6 S0_5 3.435219 1_554
Rb0_6 S0_1 3.439744 1_655
Rb0_6 S0_0 3.442971 1_655
Rb0_6 S0_7 3.443012 1_554
Rb0_6 S0_3 3.448768 1_655
Rb0_6 S0_6 3.456291 1_555
Rb0_6 S0_4 3.458328 1_555
Rb0_6 S0_2 3.461777 1_655
Rb0_7 S0_4 3.435219 1_555
Rb0_7 S0_0 3.439744 1_656
Rb0_7 S0_1 3.442971 1_655
Rb0_7 S0_6 3.443012 1_555
Rb0_7 S0_2 3.448768 1_656
Rb0_7 S0_7 3.456291 1_555
Rb0_7 S0_5 3.458328 1_555
Rb0_7 S0_3 3.461777 1_655
