# generated using pymatgen
data_MgMn6(OF2)4
_symmetry_space_group_name_H-M   'P 1'
_cell_length_a   5.48622804
_cell_length_b   8.18627159
_cell_length_c   6.07014522
_cell_angle_alpha   96.84076278
_cell_angle_beta   95.14187742
_cell_angle_gamma   79.80826866
_symmetry_Int_Tables_number   1
_chemical_formula_structural   MgMn6(OF2)4
_chemical_formula_sum   'Mg1 Mn6 O4 F8'
_cell_volume   265.75284484
_cell_formula_units_Z   1
loop_
 _symmetry_equiv_pos_site_id
 _symmetry_equiv_pos_as_xyz
  1  'x, y, z'
loop_
 _atom_site_type_symbol
 _atom_site_label
 _atom_site_symmetry_multiplicity
 _atom_site_fract_x
 _atom_site_fract_y
 _atom_site_fract_z
 _atom_site_occupancy
  Mg  Mg0  1  0.99868400  0.32800100  0.83025600  1
  Mn  Mn0  1  0.42176300  0.98958600  0.53294200  1
  Mn  Mn1  1  0.67571600  0.68880800  0.15932100  1
  Mn  Mn2  1  0.49563900  0.34590000  0.83311500  1
  Mn  Mn3  1  0.94700100  0.69052100  0.66219100  1
  Mn  Mn4  1  0.00010900  0.32989300  0.33573000  1
  Mn  Mn5  1  0.01215900  0.97248600  0.01602300  1
  O  O0  1  0.79914300  0.79161200  0.92786700  1
  O  O1  1  0.70540500  0.79779500  0.46902200  1
  O  O2  1  0.75214200  0.44296700  0.07346100  1
  O  O3  1  0.25348300  0.23428600  0.59809600  1
  F  F0  1  0.75655200  0.43931000  0.61118600  1
  F  F1  1  0.85407500  0.11652800  0.28189400  1
  F  F2  1  0.79127800  0.14277600  0.79782300  1
  F  F3  1  0.18032200  0.53424600  0.85769200  1
  F  F4  1  0.32770300  0.87441800  0.20148300  1
  F  F5  1  0.11139600  0.56338000  0.40482300  1
  F  F6  1  0.23006500  0.22607900  0.05978400  1
  F  F7  1  0.20125000  0.87473900  0.72229100  1
loop_
_geom_bond_atom_site_label_1
_geom_bond_atom_site_label_2
_geom_bond_distance
_geom_bond_site_symmetry_2
Mg0 O3 2.060256 1_655
Mg0 O2 2.114501 1_556
Mn0 O1 2.033625 1_555
Mn0 O3 2.060033 1_565
Mn1 O0 1.947965 1_554
Mn1 O1 1.988382 1_555
Mn1 O2 1.997088 1_555
Mn2 O3 2.101035 1_555
Mn2 O2 2.119379 1_556
Mn3 O1 1.859495 1_555
Mn3 O0 1.903323 1_555
Mn4 O3 2.143906 1_555
Mn4 O2 2.181570 1_455
Mn5 O0 2.038639 1_454
F0 Mg0 1.976593 1_555
F0 Mn4 2.236891 1_655
F0 Mn2 2.329573 1_555
F0 Mn3 2.442829 1_555
F1 Mn4 2.027764 1_655
F1 Mn5 2.045201 1_645
F2 Mg0 2.032734 1_555
F2 Mn2 2.112955 1_555
F2 Mn5 2.172664 1_646
F3 Mn3 2.047763 1_455
F3 Mg0 2.090468 1_455
F3 Mn2 2.107055 1_555
F4 Mn5 2.069512 1_555
F4 Mn0 2.176580 1_555
F4 Mn1 2.233359 1_555
F5 Mn3 1.967332 1_455
F5 Mn4 2.092411 1_555
F6 Mg0 1.958022 1_454
F6 Mn4 2.186283 1_555
F6 Mn2 2.482886 1_554
F6 Mn5 2.549396 1_545
F7 Mn0 2.139564 1_555
F7 Mn5 2.143237 1_556
F7 Mn3 2.207969 1_455
