# generated using pymatgen
data_Hf3(Ga2Cu)2
_symmetry_space_group_name_H-M   'P 1'
_cell_length_a   4.11470000
_cell_length_b   5.33741062
_cell_length_c   14.98998428
_cell_angle_alpha   85.02016672
_cell_angle_beta   82.11135110
_cell_angle_gamma   112.67220407
_symmetry_Int_Tables_number   1
_chemical_formula_structural   Hf3(Ga2Cu)2
_chemical_formula_sum   'Hf6 Ga8 Cu4'
_cell_volume   297.35764801
_cell_formula_units_Z   2
loop_
 _symmetry_equiv_pos_site_id
 _symmetry_equiv_pos_as_xyz
  1  'x, y, z'
loop_
 _atom_site_type_symbol
 _atom_site_label
 _atom_site_symmetry_multiplicity
 _atom_site_fract_x
 _atom_site_fract_y
 _atom_site_fract_z
 _atom_site_occupancy
  Hf  Hf0  1  0.31777800  0.70605800  0.07050100  1
  Hf  Hf1  1  0.65503000  0.71058900  0.40053100  1
  Hf  Hf2  1  0.98918800  0.71222500  0.73384800  1
  Hf  Hf3  1  0.01759500  0.29739100  0.26220200  1
  Hf  Hf4  1  0.34944800  0.29623500  0.59733700  1
  Hf  Hf5  1  0.68312300  0.29656200  0.93031800  1
  Ga  Ga0  1  0.07440800  0.68660300  0.53778800  1
  Ga  Ga1  1  0.40659300  0.68582500  0.87263900  1
  Ga  Ga2  1  0.02583800  0.12443800  0.07276200  1
  Ga  Ga3  1  0.36566600  0.13222700  0.40089500  1
  Ga  Ga4  1  0.69902600  0.13430700  0.73625600  1
  Ga  Ga5  1  0.30587000  0.87453900  0.26279700  1
  Ga  Ga6  1  0.64306800  0.88515100  0.59901600  1
  Ga  Ga7  1  0.97678500  0.88637000  0.93280000  1
  Cu  Cu0  1  0.58207900  0.29340800  0.12925100  1
  Cu  Cu1  1  0.91249400  0.28602300  0.46103400  1
  Cu  Cu2  1  0.24510600  0.28560100  0.79539000  1
  Cu  Cu3  1  0.75090500  0.70644800  0.20463600  1
loop_
_geom_bond_atom_site_label_1
_geom_bond_atom_site_label_2
_geom_bond_distance
_geom_bond_site_symmetry_2
Hf0 Hf3 3.225130 1_555
Hf0 Hf5 3.307504 1_564
Hf1 Hf3 3.279627 1_665
Hf1 Hf4 3.298574 1_555
Hf2 Hf4 3.255591 1_665
Hf2 Hf5 3.297753 1_555
Ga0 Ga6 2.507416 1_455
Ga0 Ga6 2.507416 1_555
Ga0 Ga3 2.753972 1_565
Ga0 Hf4 2.861987 1_555
Ga0 Hf4 2.861996 1_455
Ga0 Hf1 2.885571 1_455
Ga0 Hf1 2.885574 1_555
Ga0 Hf2 2.933065 1_455
Ga0 Hf4 3.256972 1_565
Ga1 Ga7 2.505167 1_555
Ga1 Ga7 2.505167 1_455
Ga1 Ga4 2.758982 1_565
Ga1 Hf5 2.852981 1_455
Ga1 Hf5 2.852987 1_555
Ga1 Hf2 2.900778 1_555
Ga1 Hf2 2.900781 1_455
Ga1 Hf0 2.954754 1_556
Ga1 Hf5 3.250874 1_565
Ga2 Ga7 2.537401 1_444
Ga2 Hf0 2.859518 1_555
Ga2 Hf0 2.915586 1_545
Ga2 Hf0 2.915589 1_445
Ga2 Hf5 2.979346 1_454
Ga2 Hf5 2.979351 1_554
Ga2 Hf3 3.061048 1_555
Ga3 Ga5 2.571130 1_545
Ga3 Hf1 2.847590 1_555
Ga3 Hf1 2.923730 1_445
Ga3 Hf1 2.923736 1_545
Ga3 Hf3 2.936510 1_555
Ga3 Hf3 2.936513 1_655
Ga3 Hf4 3.143308 1_555
Ga4 Ga6 2.534289 1_545
Ga4 Hf2 2.840979 1_555
Ga4 Hf2 2.928792 1_545
Ga4 Hf2 2.928798 1_445
Ga4 Hf4 2.936060 1_655
Ga4 Hf4 2.936068 1_555
Ga4 Hf5 3.105685 1_555
Ga5 Hf3 2.843797 1_555
Ga5 Hf1 2.926125 1_455
Ga5 Hf1 2.926137 1_555
Ga5 Hf3 2.926440 1_565
Ga5 Hf3 2.926449 1_665
Ga5 Hf0 3.092759 1_555
Ga6 Hf4 2.883878 1_665
Ga6 Hf4 2.883887 1_565
Ga6 Hf4 2.904305 1_555
Ga6 Hf2 2.905987 1_555
Ga6 Hf2 2.905993 1_455
Ga6 Hf1 3.193628 1_555
Ga7 Hf5 2.879653 1_565
Ga7 Hf5 2.879659 1_665
Ga7 Hf5 2.910644 1_555
Ga7 Hf0 2.940511 1_656
Ga7 Hf0 2.940514 1_556
Ga7 Hf2 3.199471 1_555
Cu0 Ga2 2.417040 1_655
Cu0 Ga2 2.417044 1_555
Cu0 Cu3 2.467179 1_555
Cu0 Ga5 2.633821 1_545
Cu0 Hf3 2.853398 1_555
Cu0 Hf3 2.853398 1_655
Cu0 Hf0 2.929479 1_655
Cu0 Hf0 2.929484 1_555
Cu0 Hf5 2.951448 1_554
Cu0 Hf0 3.146419 1_545
Cu1 Ga3 2.410504 1_555
Cu1 Ga3 2.410507 1_655
Cu1 Ga0 2.424512 1_655
Cu1 Ga6 2.618913 1_545
Cu1 Hf4 2.891760 1_655
Cu1 Hf4 2.891763 1_555
Cu1 Hf3 2.944245 1_655
Cu1 Hf1 2.972812 1_555
Cu1 Hf1 2.972821 1_655
Cu1 Hf1 3.101108 1_545
Cu2 Ga4 2.399756 1_555
Cu2 Ga4 2.399756 1_455
Cu2 Ga1 2.427338 1_555
Cu2 Ga7 2.608121 1_445
Cu2 Hf5 2.877913 1_455
Cu2 Hf5 2.877916 1_555
Cu2 Hf4 2.933168 1_555
Cu2 Hf2 2.982511 1_555
Cu2 Hf2 2.982517 1_455
Cu2 Hf2 3.098066 1_445
Cu3 Ga5 2.425354 1_555
Cu3 Ga5 2.425354 1_655
Cu3 Ga2 2.615259 1_665
Cu3 Hf0 2.863658 1_555
Cu3 Hf0 2.863661 1_655
Cu3 Hf1 2.911861 1_555
Cu3 Hf3 2.914689 1_555
Cu3 Hf3 2.914697 1_655
Cu3 Hf3 3.156162 1_665
