# generated using pymatgen
data_Dy6(Ga3Co)7
_symmetry_space_group_name_H-M   'P 1'
_cell_length_a   16.63784800
_cell_length_b   16.63784800
_cell_length_c   4.14464900
_cell_angle_alpha   90.00000000
_cell_angle_beta   90.00000000
_cell_angle_gamma   90.00000000
_symmetry_Int_Tables_number   1
_chemical_formula_structural   Dy6(Ga3Co)7
_chemical_formula_sum   'Dy12 Ga42 Co14'
_cell_volume   1147.31338915
_cell_formula_units_Z   2
loop_
 _symmetry_equiv_pos_site_id
 _symmetry_equiv_pos_as_xyz
  1  'x, y, z'
loop_
 _atom_site_type_symbol
 _atom_site_label
 _atom_site_symmetry_multiplicity
 _atom_site_fract_x
 _atom_site_fract_y
 _atom_site_fract_z
 _atom_site_occupancy
  Dy  Dy0  1  0.10799900  0.60799900  0.50000000  1
  Dy  Dy1  1  0.89200100  0.39200100  0.50000000  1
  Dy  Dy2  1  0.39200100  0.10799900  0.50000000  1
  Dy  Dy3  1  0.60799900  0.89200100  0.50000000  1
  Dy  Dy4  1  0.65752000  0.58691700  0.00000000  1
  Dy  Dy5  1  0.34248000  0.41308300  0.00000000  1
  Dy  Dy6  1  0.84248000  0.08691700  0.00000000  1
  Dy  Dy7  1  0.15752000  0.91308300  0.00000000  1
  Dy  Dy8  1  0.58691700  0.34248000  0.00000000  1
  Dy  Dy9  1  0.41308300  0.65752000  0.00000000  1
  Dy  Dy10  1  0.08691700  0.15752000  0.00000000  1
  Dy  Dy11  1  0.91308300  0.84248000  0.00000000  1
  Ga  Ga0  1  0.00000000  0.50000000  0.00000000  1
  Ga  Ga1  1  0.50000000  0.00000000  0.00000000  1
  Ga  Ga2  1  0.32026000  0.82026000  0.00000000  1
  Ga  Ga3  1  0.67974000  0.17974000  0.00000000  1
  Ga  Ga4  1  0.17974000  0.32026000  0.00000000  1
  Ga  Ga5  1  0.82026000  0.67974000  0.00000000  1
  Ga  Ga6  1  0.42618400  0.92618400  0.50000000  1
  Ga  Ga7  1  0.57381600  0.07381600  0.50000000  1
  Ga  Ga8  1  0.07381600  0.42618400  0.50000000  1
  Ga  Ga9  1  0.92618400  0.57381600  0.50000000  1
  Ga  Ga10  1  0.57479200  0.75739100  0.00000000  1
  Ga  Ga11  1  0.42520800  0.24260900  0.00000000  1
  Ga  Ga12  1  0.92520800  0.25739100  0.00000000  1
  Ga  Ga13  1  0.07479200  0.74260900  0.00000000  1
  Ga  Ga14  1  0.75739100  0.42520800  0.00000000  1
  Ga  Ga15  1  0.24260900  0.57479200  0.00000000  1
  Ga  Ga16  1  0.25739100  0.07479200  0.00000000  1
  Ga  Ga17  1  0.74260900  0.92520800  0.00000000  1
  Ga  Ga18  1  0.53186000  0.61097700  0.50000000  1
  Ga  Ga19  1  0.46814000  0.38902300  0.50000000  1
  Ga  Ga20  1  0.96814000  0.11097700  0.50000000  1
  Ga  Ga21  1  0.03186000  0.88902300  0.50000000  1
  Ga  Ga22  1  0.61097700  0.46814000  0.50000000  1
  Ga  Ga23  1  0.38902300  0.53186000  0.50000000  1
  Ga  Ga24  1  0.11097700  0.03186000  0.50000000  1
  Ga  Ga25  1  0.88902300  0.96814000  0.50000000  1
  Ga  Ga26  1  0.67932300  0.70984400  0.50000000  1
  Ga  Ga27  1  0.32067700  0.29015600  0.50000000  1
  Ga  Ga28  1  0.82067700  0.20984400  0.50000000  1
  Ga  Ga29  1  0.17932300  0.79015600  0.50000000  1
  Ga  Ga30  1  0.70984400  0.32067700  0.50000000  1
  Ga  Ga31  1  0.29015600  0.67932300  0.50000000  1
  Ga  Ga32  1  0.20984400  0.17932300  0.50000000  1
  Ga  Ga33  1  0.79015600  0.82067700  0.50000000  1
  Ga  Ga34  1  0.77228500  0.54353100  0.50000000  1
  Ga  Ga35  1  0.22771500  0.45646900  0.50000000  1
  Ga  Ga36  1  0.72771500  0.04353100  0.50000000  1
  Ga  Ga37  1  0.27228500  0.95646900  0.50000000  1
  Ga  Ga38  1  0.54353100  0.22771500  0.50000000  1
  Ga  Ga39  1  0.45646900  0.77228500  0.50000000  1
  Ga  Ga40  1  0.04353100  0.27228500  0.50000000  1
  Ga  Ga41  1  0.95646900  0.72771500  0.50000000  1
  Co  Co0  1  0.21849900  0.71849900  0.00000000  1
  Co  Co1  1  0.78150100  0.28150100  0.00000000  1
  Co  Co2  1  0.28150100  0.21849900  0.00000000  1
  Co  Co3  1  0.71849900  0.78150100  0.00000000  1
  Co  Co4  1  0.96359500  0.64869700  0.00000000  1
  Co  Co5  1  0.03640500  0.35130300  0.00000000  1
  Co  Co6  1  0.53640500  0.14869700  0.00000000  1
  Co  Co7  1  0.46359500  0.85130300  0.00000000  1
  Co  Co8  1  0.64869700  0.03640500  0.00000000  1
  Co  Co9  1  0.35130300  0.96359500  0.00000000  1
  Co  Co10  1  0.14869700  0.46359500  0.00000000  1
  Co  Co11  1  0.85130300  0.53640500  0.00000000  1
  Co  Co12  1  0.50000000  0.50000000  0.00000000  1
  Co  Co13  1  0.00000000  0.00000000  0.00000000  1
loop_
_geom_bond_atom_site_label_1
_geom_bond_atom_site_label_2
_geom_bond_distance
_geom_bond_site_symmetry_2
Dy0 Ga8 3.078010 1_555
Dy0 Ga9 3.078010 1_455
Dy0 Ga13 3.100916 1_555
Dy0 Ga15 3.100916 1_556
Dy0 Ga13 3.100916 1_556
Dy0 Ga15 3.100916 1_555
Dy0 Ga35 3.213012 1_555
Dy0 Ga41 3.213012 1_455
Dy0 Ga29 3.254743 1_555
Dy0 Ga31 3.254743 1_555
Dy0 Ga0 3.279027 1_555
Dy0 Ga0 3.279027 1_556
Dy1 Ga9 3.078010 1_555
Dy1 Ga8 3.078010 1_655
Dy1 Ga12 3.100916 1_556
Dy1 Ga12 3.100916 1_555
Dy1 Ga14 3.100916 1_556
Dy1 Ga14 3.100916 1_555
Dy1 Ga40 3.213012 1_655
Dy1 Ga34 3.213012 1_555
Dy1 Ga28 3.254743 1_555
Dy1 Ga30 3.254743 1_555
Dy1 Ga0 3.279027 1_655
Dy1 Ga0 3.279027 1_656
Dy2 Ga6 3.078010 1_545
Dy2 Ga7 3.078010 1_555
Dy2 Ga11 3.100916 1_556
Dy2 Ga11 3.100916 1_555
Dy2 Ga16 3.100916 1_555
Dy2 Ga16 3.100916 1_556
Dy2 Ga38 3.213012 1_555
Dy2 Ga37 3.213012 1_545
Dy2 Ga27 3.254743 1_555
Dy2 Ga32 3.254743 1_555
Dy2 Ga1 3.279027 1_556
Dy2 Ga1 3.279027 1_555
Dy3 Ga6 3.078010 1_555
Dy3 Ga7 3.078010 1_565
Dy3 Ga10 3.100916 1_555
Dy3 Ga10 3.100916 1_556
Dy3 Ga17 3.100916 1_555
Dy3 Ga17 3.100916 1_556
Dy3 Ga36 3.213012 1_565
Dy3 Ga39 3.213012 1_555
Dy3 Ga33 3.254743 1_555
Dy3 Ga26 3.254743 1_555
Dy3 Ga1 3.279027 1_566
Dy3 Ga1 3.279027 1_565
Dy4 Ga34 2.908877 1_555
Dy4 Ga34 2.908877 1_554
Dy4 Ga26 2.934132 1_555
Dy4 Ga26 2.934132 1_554
Dy4 Ga22 2.966400 1_554
Dy4 Ga22 2.966400 1_555
Dy4 Ga18 2.970833 1_555
Dy4 Ga18 2.970833 1_554
Dy4 Ga5 3.117118 1_555
Dy4 Ga10 3.152655 1_555
Dy4 Ga14 3.162243 1_555
Dy5 Ga35 2.908877 1_555
Dy5 Ga35 2.908877 1_554
Dy5 Ga27 2.934132 1_555
Dy5 Ga27 2.934132 1_554
Dy5 Ga23 2.966400 1_555
Dy5 Ga23 2.966400 1_554
Dy5 Ga19 2.970833 1_554
Dy5 Ga19 2.970833 1_555
Dy5 Ga4 3.117118 1_555
Dy5 Ga11 3.152655 1_555
Dy5 Ga15 3.162243 1_555
Dy6 Ga36 2.908877 1_554
Dy6 Ga36 2.908877 1_555
Dy6 Ga28 2.934132 1_555
Dy6 Ga28 2.934132 1_554
Dy6 Ga25 2.966400 1_544
Dy6 Ga25 2.966400 1_545
Dy6 Ga20 2.970833 1_554
Dy6 Ga20 2.970833 1_555
Dy6 Ga3 3.117118 1_555
Dy6 Ga12 3.152655 1_555
Dy6 Ga17 3.162243 1_545
Dy7 Ga37 2.908877 1_555
Dy7 Ga37 2.908877 1_554
Dy7 Ga29 2.934132 1_555
Dy7 Ga29 2.934132 1_554
Dy7 Ga24 2.966400 1_565
Dy7 Ga24 2.966400 1_564
Dy7 Ga21 2.970833 1_555
Dy7 Ga21 2.970833 1_554
Dy7 Ga2 3.117118 1_555
Dy7 Ga13 3.152655 1_555
Dy7 Ga16 3.162243 1_565
Dy8 Ga38 2.908877 1_555
Dy8 Ga38 2.908877 1_554
Dy8 Ga30 2.934132 1_554
Dy8 Ga30 2.934132 1_555
Dy8 Ga19 2.966400 1_555
Dy8 Ga19 2.966400 1_554
Dy8 Ga22 2.970833 1_554
Dy8 Ga22 2.970833 1_555
Dy8 Ga3 3.117118 1_555
Dy8 Ga14 3.152655 1_555
Dy8 Ga11 3.162243 1_555
Dy9 Ga39 2.908877 1_554
Dy9 Ga39 2.908877 1_555
Dy9 Ga31 2.934132 1_555
Dy9 Ga31 2.934132 1_554
Dy9 Ga18 2.966400 1_554
Dy9 Ga18 2.966400 1_555
Dy9 Ga23 2.970833 1_554
Dy9 Ga23 2.970833 1_555
Dy9 Ga2 3.117118 1_555
Dy9 Ga15 3.152655 1_555
Dy9 Ga10 3.162243 1_555
Dy10 Ga40 2.908877 1_554
Dy10 Ga40 2.908877 1_555
Dy10 Ga32 2.934132 1_554
Dy10 Ga32 2.934132 1_555
Dy10 Ga20 2.966400 1_454
Dy10 Ga20 2.966400 1_455
Dy10 Ga24 2.970833 1_555
Dy10 Ga24 2.970833 1_554
Dy10 Ga4 3.117118 1_555
Dy10 Ga16 3.152655 1_555
Dy10 Ga12 3.162243 1_455
Dy11 Ga41 2.908877 1_554
Dy11 Ga41 2.908877 1_555
Dy11 Ga33 2.934132 1_554
Dy11 Ga33 2.934132 1_555
Dy11 Ga21 2.966400 1_654
Dy11 Ga21 2.966400 1_655
Dy11 Ga25 2.970833 1_554
Dy11 Ga25 2.970833 1_555
Dy11 Ga5 3.117118 1_555
Dy11 Ga17 3.152655 1_555
Dy11 Ga13 3.162243 1_655
Ga0 Ga8 2.703920 1_555
Ga0 Ga9 2.703920 1_455
Ga0 Ga9 2.703920 1_454
Ga0 Ga8 2.703920 1_554
Ga1 Ga7 2.703920 1_554
Ga1 Ga6 2.703920 1_544
Ga1 Ga6 2.703920 1_545
Ga1 Ga7 2.703920 1_555
Ga10 Ga26 2.818697 1_554
Ga10 Ga26 2.818697 1_555
Ga10 Ga39 2.869056 1_555
Ga10 Ga39 2.869056 1_554
Ga11 Ga27 2.818697 1_555
Ga11 Ga27 2.818697 1_554
Ga11 Ga38 2.869056 1_555
Ga11 Ga38 2.869056 1_554
Ga12 Ga28 2.818697 1_555
Ga12 Ga28 2.818697 1_554
Ga12 Ga40 2.869056 1_654
Ga12 Ga40 2.869056 1_655
Ga13 Ga29 2.818697 1_554
Ga13 Ga29 2.818697 1_555
Ga13 Ga41 2.869056 1_454
Ga13 Ga41 2.869056 1_455
Ga14 Ga30 2.818697 1_554
Ga14 Ga30 2.818697 1_555
Ga14 Ga34 2.869056 1_554
Ga14 Ga34 2.869056 1_555
Ga15 Ga31 2.818697 1_554
Ga15 Ga31 2.818697 1_555
Ga15 Ga35 2.869056 1_555
Ga15 Ga35 2.869056 1_554
Ga16 Ga32 2.818697 1_554
Ga16 Ga32 2.818697 1_555
Ga16 Ga37 2.869056 1_544
Ga16 Ga37 2.869056 1_545
Ga17 Ga33 2.818697 1_554
Ga17 Ga33 2.818697 1_555
Ga17 Ga36 2.869056 1_565
Ga17 Ga36 2.869056 1_564
Ga18 Ga23 2.716707 1_555
Ga18 Ga22 2.716707 1_555
Ga18 Ga26 2.953863 1_555
Ga18 Ga39 2.962475 1_555
Ga19 Ga23 2.716707 1_555
Ga19 Ga22 2.716707 1_555
Ga19 Ga27 2.953863 1_555
Ga19 Ga38 2.962475 1_555
Ga20 Ga25 2.716707 1_545
Ga20 Ga24 2.716707 1_655
Ga20 Ga28 2.953863 1_555
Ga20 Ga40 2.962475 1_655
Ga21 Ga24 2.716707 1_565
Ga21 Ga25 2.716707 1_455
Ga21 Ga29 2.953863 1_555
Ga21 Ga41 2.962475 1_455
Ga22 Ga30 2.953863 1_555
Ga22 Ga34 2.962475 1_555
Ga23 Ga31 2.953863 1_555
Ga23 Ga35 2.962475 1_555
Ga24 Ga32 2.953863 1_555
Ga24 Ga37 2.962475 1_545
Ga25 Ga33 2.953863 1_555
Ga25 Ga36 2.962475 1_565
Ga34 Ga9 2.609655 1_555
Ga35 Ga8 2.609655 1_555
Ga36 Ga7 2.609655 1_555
Ga37 Ga6 2.609655 1_555
Ga38 Ga7 2.609655 1_555
Ga39 Ga6 2.609655 1_555
Ga40 Ga8 2.609655 1_555
Ga41 Ga9 2.609655 1_555
Co0 Ga2 2.394382 1_555
Co0 Ga13 2.424392 1_555
Co0 Ga15 2.424392 1_555
Co0 Ga29 2.478056 1_554
Co0 Ga29 2.478056 1_555
Co0 Ga31 2.478056 1_555
Co0 Ga31 2.478056 1_554
Co0 Dy0 3.324840 1_554
Co0 Dy0 3.324840 1_555
Co1 Ga3 2.394382 1_555
Co1 Ga14 2.424392 1_555
Co1 Ga12 2.424392 1_555
Co1 Ga30 2.478056 1_555
Co1 Ga30 2.478056 1_554
Co1 Ga28 2.478056 1_555
Co1 Ga28 2.478056 1_554
Co1 Dy1 3.324840 1_554
Co1 Dy1 3.324840 1_555
Co2 Ga4 2.394382 1_555
Co2 Ga11 2.424392 1_555
Co2 Ga16 2.424392 1_555
Co2 Ga27 2.478056 1_554
Co2 Ga27 2.478056 1_555
Co2 Ga32 2.478056 1_555
Co2 Ga32 2.478056 1_554
Co2 Dy2 3.324840 1_554
Co2 Dy2 3.324840 1_555
Co3 Ga5 2.394382 1_555
Co3 Ga10 2.424392 1_555
Co3 Ga17 2.424392 1_555
Co3 Ga26 2.478056 1_555
Co3 Ga33 2.478056 1_555
Co3 Ga26 2.478056 1_554
Co3 Ga33 2.478056 1_554
Co3 Dy3 3.324840 1_554
Co3 Dy3 3.324840 1_555
Co4 Ga13 2.421606 1_655
Co4 Ga5 2.440075 1_555
Co4 Ga41 2.457030 1_555
Co4 Ga41 2.457030 1_554
Co4 Ga9 2.496822 1_555
Co4 Ga9 2.496822 1_554
Co4 Ga0 2.547065 1_655
Co4 Dy0 3.244284 1_655
Co4 Dy0 3.244284 1_654
Co5 Ga12 2.421606 1_455
Co5 Ga4 2.440075 1_555
Co5 Ga40 2.457030 1_554
Co5 Ga40 2.457030 1_555
Co5 Ga8 2.496822 1_555
Co5 Ga8 2.496822 1_554
Co5 Ga0 2.547065 1_555
Co5 Dy1 3.244284 1_455
Co5 Dy1 3.244284 1_454
Co6 Ga11 2.421606 1_555
Co6 Ga3 2.440075 1_555
Co6 Ga38 2.457030 1_555
Co6 Ga38 2.457030 1_554
Co6 Ga7 2.496822 1_554
Co6 Ga7 2.496822 1_555
Co6 Ga1 2.547065 1_555
Co6 Dy2 3.244284 1_555
Co6 Dy2 3.244284 1_554
Co7 Ga10 2.421606 1_555
Co7 Ga2 2.440075 1_555
Co7 Ga39 2.457030 1_554
Co7 Ga39 2.457030 1_555
Co7 Ga6 2.496822 1_554
Co7 Ga6 2.496822 1_555
Co7 Ga1 2.547065 1_565
Co7 Dy3 3.244284 1_555
Co7 Dy3 3.244284 1_554
Co8 Ga17 2.421606 1_545
Co8 Ga3 2.440075 1_555
Co8 Ga36 2.457030 1_555
Co8 Ga36 2.457030 1_554
Co8 Ga7 2.496822 1_554
Co8 Ga7 2.496822 1_555
Co8 Ga1 2.547065 1_555
Co8 Dy3 3.244284 1_544
Co8 Dy3 3.244284 1_545
Co9 Ga16 2.421606 1_565
Co9 Ga2 2.440075 1_555
Co9 Ga37 2.457030 1_554
Co9 Ga37 2.457030 1_555
Co9 Ga6 2.496822 1_554
Co9 Ga6 2.496822 1_555
Co9 Ga1 2.547065 1_565
Co9 Dy2 3.244284 1_564
Co9 Dy2 3.244284 1_565
Co10 Ga15 2.421606 1_555
Co10 Ga4 2.440075 1_555
Co10 Ga35 2.457030 1_555
Co10 Ga35 2.457030 1_554
Co10 Ga8 2.496822 1_555
Co10 Ga8 2.496822 1_554
Co10 Ga0 2.547065 1_555
Co10 Dy0 3.244284 1_554
Co10 Dy0 3.244284 1_555
Co11 Ga14 2.421606 1_555
Co11 Ga5 2.440075 1_555
Co11 Ga34 2.457030 1_554
Co11 Ga34 2.457030 1_555
Co11 Ga9 2.496822 1_555
Co11 Ga9 2.496822 1_554
Co11 Ga0 2.547065 1_655
Co11 Dy1 3.244284 1_555
Co11 Dy1 3.244284 1_554
Co12 Ga22 2.825735 1_555
Co12 Ga18 2.825735 1_554
Co12 Ga19 2.825735 1_555
Co12 Ga22 2.825735 1_554
Co12 Ga19 2.825735 1_554
Co12 Ga23 2.825735 1_554
Co12 Ga18 2.825735 1_555
Co12 Ga23 2.825735 1_555
Co12 Dy8 2.993292 1_555
Co12 Dy5 2.993292 1_555
Co12 Dy9 2.993292 1_555
Co12 Dy4 2.993292 1_555
Co13 Ga21 2.825735 1_544
Co13 Ga24 2.825735 1_555
Co13 Ga24 2.825735 1_554
Co13 Ga25 2.825735 1_445
Co13 Ga20 2.825735 1_454
Co13 Ga21 2.825735 1_545
Co13 Ga20 2.825735 1_455
Co13 Ga25 2.825735 1_444
Co13 Dy10 2.993292 1_555
Co13 Dy11 2.993292 1_445
Co13 Dy6 2.993292 1_455
Co13 Dy7 2.993292 1_545
