# generated using pymatgen
data_K2SmMoPO8
_symmetry_space_group_name_H-M   'P 1'
_cell_length_a   12.32024321
_cell_length_b   12.32024321
_cell_length_c   12.32024321
_cell_angle_alpha   146.51006387
_cell_angle_beta   119.12759619
_cell_angle_gamma   71.29238205
_symmetry_Int_Tables_number   1
_chemical_formula_structural   K2SmMoPO8
_chemical_formula_sum   'K8 Sm4 Mo4 P4 O32'
_cell_volume   887.19645810
_cell_formula_units_Z   4
loop_
 _symmetry_equiv_pos_site_id
 _symmetry_equiv_pos_as_xyz
  1  'x, y, z'
loop_
 _atom_site_type_symbol
 _atom_site_label
 _atom_site_symmetry_multiplicity
 _atom_site_fract_x
 _atom_site_fract_y
 _atom_site_fract_z
 _atom_site_occupancy
  K  K0  1  0.73460400  0.68992700  0.11297800  1
  K  K1  1  0.42305200  0.81007300  0.54467800  1
  K  K2  1  0.76539600  0.87837400  0.95532200  1
  K  K3  1  0.07694800  0.62162600  0.38702200  1
  K  K4  1  0.26539600  0.31007300  0.88702200  1
  K  K5  1  0.57694800  0.18992700  0.45532200  1
  K  K6  1  0.23460400  0.12162600  0.04467800  1
  K  K7  1  0.92305200  0.37837400  0.61297800  1
  Sm  Sm0  1  0.32632400  0.75000000  0.07632400  1
  Sm  Sm1  1  0.17367600  0.25000000  0.42367600  1
  Sm  Sm2  1  0.67367600  0.25000000  0.92367600  1
  Sm  Sm3  1  0.82632400  0.75000000  0.57632400  1
  Mo  Mo0  1  0.41740100  0.66740100  0.75000000  1
  Mo  Mo1  1  0.08259900  0.83259900  0.25000000  1
  Mo  Mo2  1  0.58259900  0.33259900  0.25000000  1
  Mo  Mo3  1  0.91740100  0.16740100  0.75000000  1
  P  P0  1  0.57185900  0.75000000  0.32185900  1
  P  P1  1  0.92814100  0.25000000  0.17814100  1
  P  P2  1  0.42814100  0.25000000  0.67814100  1
  P  P3  1  0.07185900  0.75000000  0.82185900  1
  O  O0  1  0.64061400  0.90963600  0.56995200  1
  O  O1  1  0.66031600  0.59036400  0.23097900  1
  O  O2  1  0.85938600  0.42933700  0.26902100  1
  O  O3  1  0.83968400  0.07066300  0.93004800  1
  O  O4  1  0.35938600  0.09036400  0.43004800  1
  O  O5  1  0.33968400  0.40963600  0.76902100  1
  O  O6  1  0.14061400  0.57066300  0.73097900  1
  O  O7  1  0.16031600  0.92933700  0.06995200  1
  O  O8  1  0.55906800  0.83490200  0.27129600  1
  O  O9  1  0.43639400  0.66509800  0.22416600  1
  O  O10  1  0.94093200  0.21222800  0.27583400  1
  O  O11  1  0.06360600  0.28777200  0.22870400  1
  O  O12  1  0.44093200  0.16509800  0.72870400  1
  O  O13  1  0.56360600  0.33490200  0.77583400  1
  O  O14  1  0.05906800  0.78777200  0.72416600  1
  O  O15  1  0.93639400  0.71222800  0.77129600  1
  O  O16  1  0.39782000  0.82073600  0.98593200  1
  O  O17  1  0.16519600  0.67926400  0.07708400  1
  O  O18  1  0.10218000  0.08811100  0.42291600  1
  O  O19  1  0.33480400  0.41188900  0.51406800  1
  O  O20  1  0.60218000  0.17926400  0.01406800  1
  O  O21  1  0.83480400  0.32073600  0.92291600  1
  O  O22  1  0.89782000  0.91188900  0.57708400  1
  O  O23  1  0.66519600  0.58811100  0.48593200  1
  O  O24  1  0.58084300  0.65918900  0.80435200  1
  O  O25  1  0.14516300  0.84081100  0.42165300  1
  O  O26  1  0.91915700  0.72351000  0.07834700  1
  O  O27  1  0.35483700  0.77649000  0.69564800  1
  O  O28  1  0.41915700  0.34081100  0.19564800  1
  O  O29  1  0.85483700  0.15918900  0.57834700  1
  O  O30  1  0.08084300  0.27649000  0.92165300  1
  O  O31  1  0.64516300  0.22351000  0.30435200  1
loop_
_geom_bond_atom_site_label_1
_geom_bond_atom_site_label_2
_geom_bond_distance
_geom_bond_site_symmetry_2
K0 O26 2.713939 1_555
K0 O8 2.736694 1_555
K0 O13 2.812743 1_554
K0 O21 3.023746 1_554
K0 O24 3.039087 1_554
K0 O1 3.073409 1_555
K0 O29 3.229287 1_565
K0 O22 3.235643 1_555
K1 O27 2.713947 1_555
K1 O9 2.736699 1_555
K1 O12 2.812747 1_565
K1 O20 3.023739 1_566
K1 O25 3.039099 1_555
K1 O0 3.073394 1_555
K1 O28 3.229283 1_555
K1 O23 3.235643 1_555
K2 O24 2.713947 1_555
K2 O10 2.736692 1_566
K2 O15 2.812736 1_555
K2 O23 3.023734 1_555
K2 O26 3.039094 1_556
K2 O3 3.073398 1_565
K2 O31 3.229293 1_566
K2 O20 3.235643 1_566
K3 O25 2.713957 1_555
K3 O11 2.736692 1_555
K3 O14 2.812736 1_555
K3 O22 3.023741 1_455
K3 O27 3.039096 1_555
K3 O2 3.073387 1_455
K3 O30 3.229298 1_554
K3 O21 3.235643 1_454
K4 O30 2.713939 1_555
K4 O12 2.736694 1_555
K4 O9 2.812743 1_556
K4 O17 3.023746 1_556
K4 O28 3.039087 1_556
K4 O5 3.073409 1_555
K4 O25 3.229287 1_545
K4 O18 3.235643 1_555
K5 O31 2.713947 1_555
K5 O13 2.736699 1_555
K5 O8 2.812747 1_545
K5 O16 3.023739 1_544
K5 O29 3.039099 1_555
K5 O4 3.073394 1_555
K5 O24 3.229283 1_555
K5 O19 3.235643 1_555
K6 O28 2.713947 1_555
K6 O14 2.736692 1_544
K6 O11 2.812736 1_555
K6 O19 3.023734 1_555
K6 O30 3.039094 1_554
K6 O7 3.073398 1_545
K6 O27 3.229293 1_544
K6 O16 3.235643 1_544
K7 O29 2.713957 1_555
K7 O15 2.736692 1_555
K7 O10 2.812736 1_555
K7 O18 3.023741 1_655
K7 O31 3.039096 1_555
K7 O6 3.073387 1_655
K7 O26 3.229298 1_556
K7 O17 3.235643 1_656
Mo0 O27 1.784097 1_555
Mo0 O24 1.784108 1_555
Mo0 O19 1.818595 1_555
Mo0 O16 1.818602 1_555
Mo1 O25 1.784097 1_555
Mo1 O26 1.784107 1_455
Mo1 O18 1.818592 1_565
Mo1 O17 1.818602 1_555
Mo2 O31 1.784097 1_555
Mo2 O28 1.784108 1_555
Mo2 O23 1.818595 1_555
Mo2 O20 1.818602 1_555
Mo3 O29 1.784097 1_555
Mo3 O30 1.784107 1_655
Mo3 O22 1.818592 1_545
Mo3 O21 1.818602 1_555
O0 P0 1.565053 1_555
O0 Sm2 2.372420 1_565
O0 Sm3 2.511029 1_555
O1 P0 1.565053 1_555
O1 Sm2 2.372422 1_554
O1 Sm3 2.511021 1_555
O2 P1 1.565047 1_555
O2 Sm3 2.372427 1_555
O2 Sm2 2.511026 1_554
O3 P1 1.565053 1_556
O3 Sm3 2.372422 1_545
O3 Sm2 2.511021 1_555
O4 P2 1.565053 1_555
O4 Sm0 2.372420 1_545
O4 Sm1 2.511029 1_555
O5 P2 1.565053 1_555
O5 Sm0 2.372422 1_556
O5 Sm1 2.511021 1_555
O6 P3 1.565047 1_555
O6 Sm1 2.372427 1_555
O6 Sm0 2.511026 1_556
O7 P3 1.565053 1_554
O7 Sm1 2.372422 1_565
O7 Sm0 2.511021 1_555
O8 P0 1.546803 1_555
O8 Sm0 2.472682 1_555
O9 P0 1.546803 1_555
O9 Sm0 2.472682 1_555
O10 P1 1.546803 1_555
O10 Sm1 2.472682 1_655
O11 P1 1.546803 1_455
O11 Sm1 2.472682 1_555
O12 P2 1.546803 1_555
O12 Sm2 2.472682 1_555
O13 P2 1.546803 1_555
O13 Sm2 2.472682 1_555
O14 P3 1.546803 1_555
O14 Sm3 2.472682 1_455
O15 P3 1.546803 1_655
O15 Sm3 2.472682 1_555
O16 Sm0 2.416984 1_556
O17 Sm0 2.416984 1_555
O18 Sm1 2.416996 1_555
O19 Sm1 2.416993 1_555
O20 Sm2 2.416984 1_554
O21 Sm2 2.416984 1_555
O22 Sm3 2.416996 1_555
O23 Sm3 2.416993 1_555
