# generated using pymatgen
data_SrTiNb2Bi2PbO12
_symmetry_space_group_name_H-M   'P 1'
_cell_length_a   3.94930592
_cell_length_b   3.94930592
_cell_length_c   16.75051455
_cell_angle_alpha   83.22988050
_cell_angle_beta   83.22988050
_cell_angle_gamma   90.00000000
_symmetry_Int_Tables_number   1
_chemical_formula_structural   SrTiNb2Bi2PbO12
_chemical_formula_sum   'Sr1 Ti1 Nb2 Bi2 Pb1 O12'
_cell_volume   257.60174118
_cell_formula_units_Z   1
loop_
 _symmetry_equiv_pos_site_id
 _symmetry_equiv_pos_as_xyz
  1  'x, y, z'
loop_
 _atom_site_type_symbol
 _atom_site_label
 _atom_site_symmetry_multiplicity
 _atom_site_fract_x
 _atom_site_fract_y
 _atom_site_fract_z
 _atom_site_occupancy
  Sr  Sr0  1  0.94034400  0.94034400  0.11931300  1
  Ti  Ti0  1  0.49914400  0.49914400  0.00171300  1
  Nb  Nb0  1  0.62861800  0.62861800  0.74276500  1
  Nb  Nb1  1  0.37271000  0.37271000  0.25458100  1
  Bi  Bi0  1  0.21238000  0.21238000  0.57524000  1
  Bi  Bi1  1  0.78667300  0.78667300  0.42665500  1
  Pb  Pb0  1  0.05757000  0.05757000  0.88485900  1
  O  O0  1  0.55987100  0.55987100  0.88025800  1
  O  O1  1  0.43961900  0.43961900  0.12076300  1
  O  O2  1  0.24986100  0.74986100  0.50027800  1
  O  O3  1  0.74986100  0.24986100  0.50027800  1
  O  O4  1  0.12179500  0.62179500  0.75641100  1
  O  O5  1  0.38070500  0.88070500  0.23858900  1
  O  O6  1  0.88070500  0.38070500  0.23858900  1
  O  O7  1  0.62179500  0.12179500  0.75641100  1
  O  O8  1  0.68627200  0.68627200  0.62745600  1
  O  O9  1  0.31517300  0.31517300  0.36965400  1
  O  O10  1  0.99845300  0.49845300  0.00309400  1
  O  O11  1  0.49845300  0.99845300  0.00309400  1
loop_
_geom_bond_atom_site_label_1
_geom_bond_atom_site_label_2
_geom_bond_distance
_geom_bond_site_symmetry_2
Nb0 O8 1.904454 1_555
Nb0 O4 1.987473 1_555
Nb0 O7 1.987473 1_555
Nb0 O4 1.987473 1_655
Nb0 O7 1.987473 1_565
Nb0 O0 2.270847 1_555
Nb1 O9 1.900556 1_555
Nb1 O5 1.992235 1_555
Nb1 O6 1.992235 1_555
Nb1 O6 1.992243 1_455
Nb1 O5 1.992243 1_545
Nb1 O1 2.210150 1_555
Bi0 O3 2.330685 1_455
Bi0 O2 2.330685 1_555
Bi0 O2 2.330685 1_545
Bi0 O3 2.330685 1_555
Bi1 O2 2.319012 1_655
Bi1 O3 2.319012 1_565
Bi1 O2 2.319015 1_555
Bi1 O3 2.319015 1_555
O0 Ti0 2.005962 1_556
O0 Pb0 2.793612 1_665
O0 Pb0 2.793615 1_565
O0 Pb0 2.793615 1_655
O0 Pb0 2.793618 1_555
O1 Ti0 1.966241 1_555
O1 Sr0 2.792684 1_545
O1 Sr0 2.792684 1_455
O1 Sr0 2.792684 1_555
O1 Sr0 2.792684 1_445
O4 Pb0 2.898245 1_565
O4 Pb0 2.898251 1_555
O5 Sr0 2.789271 1_455
O5 Sr0 2.789277 1_555
O6 Sr0 2.789271 1_545
O6 Sr0 2.789277 1_555
O7 Pb0 2.898245 1_655
O7 Pb0 2.898251 1_555
O10 Ti0 1.974783 1_555
O10 Ti0 1.974787 1_655
O10 Sr0 2.753845 1_545
O10 Sr0 2.753848 1_555
O10 Pb0 2.777156 1_664
O10 Pb0 2.777159 1_654
O11 Ti0 1.974783 1_555
O11 Ti0 1.974787 1_565
O11 Sr0 2.753845 1_455
O11 Sr0 2.753848 1_555
O11 Pb0 2.777156 1_664
O11 Pb0 2.777159 1_564
