# generated using pymatgen
data_Hg2CN3Cl5
_symmetry_space_group_name_H-M   'P 1'
_cell_length_a   7.60137955
_cell_length_b   7.60137955
_cell_length_c   18.67279500
_cell_angle_alpha   90.00000000
_cell_angle_beta   90.00000000
_cell_angle_gamma   147.93983946
_symmetry_Int_Tables_number   1
_chemical_formula_structural   Hg2CN3Cl5
_chemical_formula_sum   'Hg4 C2 N6 Cl10'
_cell_volume   572.70739241
_cell_formula_units_Z   2
loop_
 _symmetry_equiv_pos_site_id
 _symmetry_equiv_pos_as_xyz
  1  'x, y, z'
loop_
 _atom_site_type_symbol
 _atom_site_label
 _atom_site_symmetry_multiplicity
 _atom_site_fract_x
 _atom_site_fract_y
 _atom_site_fract_z
 _atom_site_occupancy
  Hg  Hg0  1  0.76405500  0.49726400  0.03818000  1
  Hg  Hg1  1  0.23594500  0.50273600  0.53818000  1
  Hg  Hg2  1  0.50273600  0.23594500  0.46182000  1
  Hg  Hg3  1  0.49726400  0.76405500  0.96182000  1
  C  C0  1  0.88440900  0.11559100  0.25000000  1
  C  C1  1  0.11559100  0.88440900  0.75000000  1
  N  N0  1  0.79193600  0.20806400  0.25000000  1
  N  N1  1  0.20806400  0.79193600  0.75000000  1
  N  N2  1  0.04320300  0.18238700  0.19189900  1
  N  N3  1  0.95679700  0.81761300  0.69189900  1
  N  N4  1  0.81761300  0.95679700  0.30810100  1
  N  N5  1  0.18238700  0.04320300  0.80810100  1
  Cl  Cl0  1  0.18489000  0.58331900  0.42234200  1
  Cl  Cl1  1  0.81511000  0.41668100  0.92234200  1
  Cl  Cl2  1  0.41668100  0.81511000  0.07765800  1
  Cl  Cl3  1  0.58331900  0.18489000  0.57765800  1
  Cl  Cl4  1  0.74426900  0.53968700  0.16127400  1
  Cl  Cl5  1  0.25573100  0.46031300  0.66127400  1
  Cl  Cl6  1  0.46031300  0.25573100  0.33872600  1
  Cl  Cl7  1  0.53968700  0.74426900  0.83872600  1
  Cl  Cl8  1  0.12536100  0.12536100  0.00000000  1
  Cl  Cl9  1  0.87463900  0.87463900  0.50000000  1
loop_
_geom_bond_atom_site_label_1
_geom_bond_atom_site_label_2
_geom_bond_distance
_geom_bond_site_symmetry_2
C0 N0 1.351181 1_555
C0 N4 1.361249 1_545
C0 N2 1.361249 1_655
C1 N1 1.351181 1_555
C1 N5 1.361249 1_565
C1 N3 1.361249 1_455
Cl0 Hg1 2.367996 1_555
Cl1 Hg0 2.367996 1_556
Cl2 Hg3 2.367996 1_554
Cl3 Hg2 2.367996 1_555
Cl4 Hg0 2.343493 1_555
Cl5 Hg1 2.343493 1_555
Cl6 Hg2 2.343493 1_555
Cl7 Hg3 2.343493 1_555
Cl8 Hg3 2.936072 1_444
Cl8 Hg0 2.936072 1_445
Cl8 Hg3 2.967707 1_554
Cl8 Hg0 2.967707 1_555
Cl9 Hg2 2.936072 1_665
Cl9 Hg1 2.936072 1_665
Cl9 Hg2 2.967707 1_555
Cl9 Hg1 2.967707 1_555
