# generated using pymatgen
data_Zr2CuRe
_symmetry_space_group_name_H-M   'P 1'
_cell_length_a   10.83553392
_cell_length_b   10.83553392
_cell_length_c   10.83553392
_cell_angle_alpha   125.27529847
_cell_angle_beta   118.48831640
_cell_angle_gamma   86.87667795
_symmetry_Int_Tables_number   1
_chemical_formula_structural   Zr2CuRe
_chemical_formula_sum   'Zr2 Cu1 Re1'
_cell_volume   868.47227590
_cell_formula_units_Z   1
loop_
 _symmetry_equiv_pos_site_id
 _symmetry_equiv_pos_as_xyz
  1  'x, y, z'
loop_
 _atom_site_type_symbol
 _atom_site_label
 _atom_site_symmetry_multiplicity
 _atom_site_fract_x
 _atom_site_fract_y
 _atom_site_fract_z
 _atom_site_occupancy
  Zr  Zr0  1  0.00000000  0.26855700  0.26855700  1
  Zr  Zr1  1  0.00000000  0.73144300  0.73144300  1
  Cu  Cu0  1  0.00000000  0.00000000  0.00000000  1
  Re  Re0  1  0.00000000  0.50000000  0.50000000  1
loop_
_geom_bond_atom_site_label_1
_geom_bond_atom_site_label_2
_geom_bond_distance
_geom_bond_site_symmetry_2
Cu0 Zr0 2.674929 1_555
Cu0 Zr1 2.674929 1_544
Re0 Zr1 2.305259 1_555
Re0 Zr0 2.305259 1_555
