# generated using pymatgen
data_CaSn6S13
_symmetry_space_group_name_H-M   'P 1'
_cell_length_a   9.78635159
_cell_length_b   9.75910678
_cell_length_c   12.08328009
_cell_angle_alpha   105.98387670
_cell_angle_beta   103.31789189
_cell_angle_gamma   58.91267246
_symmetry_Int_Tables_number   1
_chemical_formula_structural   CaSn6S13
_chemical_formula_sum   'Ca2 Sn12 S26'
_cell_volume   944.61442178
_cell_formula_units_Z   2
loop_
 _symmetry_equiv_pos_site_id
 _symmetry_equiv_pos_as_xyz
  1  'x, y, z'
loop_
 _atom_site_type_symbol
 _atom_site_label
 _atom_site_symmetry_multiplicity
 _atom_site_fract_x
 _atom_site_fract_y
 _atom_site_fract_z
 _atom_site_occupancy
  Ca  Ca0  1  0.34797700  0.96190100  0.15491000  1
  Ca  Ca1  1  0.65202300  0.03809900  0.84509000  1
  Sn  Sn0  1  0.67359400  0.37253200  0.23353400  1
  Sn  Sn1  1  0.32640600  0.62746800  0.76646600  1
  Sn  Sn2  1  0.89304700  0.92698200  0.21557200  1
  Sn  Sn3  1  0.10695300  0.07301800  0.78442800  1
  Sn  Sn4  1  0.21074600  0.42518800  0.97587800  1
  Sn  Sn5  1  0.78925400  0.57481200  0.02412200  1
  Sn  Sn6  1  0.24197400  0.52438800  0.27588400  1
  Sn  Sn7  1  0.75802600  0.47561200  0.72411600  1
  Sn  Sn8  1  0.42007700  0.85451000  0.49953100  1
  Sn  Sn9  1  0.57992300  0.14549000  0.50046900  1
  Sn  Sn10  1  0.86332400  0.72188600  0.50997100  1
  Sn  Sn11  1  0.13667600  0.27811400  0.49002900  1
  S  S0  1  0.16171500  0.71256000  0.13013100  1
  S  S1  1  0.83828500  0.28744000  0.86986900  1
  S  S2  1  0.44741900  0.30038200  0.13960300  1
  S  S3  1  0.55258100  0.69961800  0.86039700  1
  S  S4  1  0.60609500  0.87258800  0.37780000  1
  S  S5  1  0.39390500  0.12741200  0.62220000  1
  S  S6  1  0.67583300  0.88273900  0.09096800  1
  S  S7  1  0.32416700  0.11726100  0.90903200  1
  S  S8  1  0.89804800  0.45319900  0.36537100  1
  S  S9  1  0.10195200  0.54680100  0.63462900  1
  S  S10  1  0.86980000  0.12758900  0.10599200  1
  S  S11  1  0.13020000  0.87241100  0.89400800  1
  S  S12  1  0.47570400  0.56973400  0.38675900  1
  S  S13  1  0.52429600  0.43026600  0.61324100  1
  S  S14  1  0.19010800  0.00312500  0.35486800  1
  S  S15  1  0.80989200  0.99687500  0.64513200  1
  S  S16  1  0.75545800  0.16592900  0.37296400  1
  S  S17  1  0.24454200  0.83407100  0.62703600  1
  S  S18  1  0.58434100  0.59636100  0.12700000  1
  S  S19  1  0.41565900  0.40363900  0.87300000  1
  S  S20  1  0.02125000  0.76192800  0.38429200  1
  S  S21  1  0.97875000  0.23807200  0.61570800  1
  S  S22  1  0.06513600  0.40549600  0.12506200  1
  S  S23  1  0.93486400  0.59450400  0.87493800  1
  S  S24  1  0.32051900  0.26995700  0.36030700  1
  S  S25  1  0.67948100  0.73004300  0.63969300  1
loop_
_geom_bond_atom_site_label_1
_geom_bond_atom_site_label_2
_geom_bond_distance
_geom_bond_site_symmetry_2
Ca0 S14 2.988157 1_565
Ca0 S18 3.060330 1_555
Ca0 S6 3.121209 1_555
Ca0 S4 3.206080 1_555
Ca0 S24 3.260951 1_565
Ca1 S15 2.988157 1_545
Ca1 S19 3.060330 1_555
Ca1 S7 3.121209 1_555
Ca1 S5 3.206080 1_555
Ca1 S25 3.260951 1_545
S0 Sn2 2.595537 1_455
S0 Sn6 2.597180 1_555
S0 Sn4 2.777232 1_554
S1 Sn3 2.595537 1_655
S1 Sn7 2.597180 1_555
S1 Sn5 2.777232 1_556
S2 Sn6 2.556726 1_555
S2 Sn0 2.587507 1_555
S2 Sn4 2.657945 1_554
S3 Sn7 2.556726 1_555
S3 Sn1 2.587507 1_555
S3 Sn5 2.657945 1_556
S4 Sn9 2.579163 1_565
S4 Sn10 2.582373 1_555
S4 Sn8 2.686432 1_555
S5 Sn8 2.579163 1_545
S5 Sn11 2.582373 1_555
S5 Sn9 2.686432 1_555
S6 Sn2 2.467258 1_555
S6 Sn5 2.558650 1_555
S7 Sn3 2.467258 1_555
S7 Sn4 2.558650 1_555
S8 Sn11 2.513606 1_655
S8 Sn10 2.621858 1_555
S8 Sn0 2.732295 1_555
S9 Sn10 2.513606 1_455
S9 Sn11 2.621858 1_555
S9 Sn1 2.732295 1_555
S10 Sn0 2.524004 1_555
S10 Sn2 2.542955 1_545
S11 Sn1 2.524004 1_555
S11 Sn3 2.542955 1_565
S12 Sn6 2.555338 1_555
S12 Sn8 2.563325 1_555
S12 Sn0 2.592842 1_555
S13 Sn7 2.555338 1_555
S13 Sn9 2.563325 1_555
S13 Sn1 2.592842 1_555
S14 Sn8 2.537137 1_545
S14 Sn11 2.583247 1_555
S15 Sn9 2.537137 1_565
S15 Sn10 2.583247 1_555
S16 Sn2 2.522408 1_545
S16 Sn9 2.665879 1_555
S16 Sn0 2.669540 1_555
S17 Sn3 2.522408 1_565
S17 Sn8 2.665879 1_555
S17 Sn1 2.669540 1_555
S18 Sn5 2.485952 1_555
S18 Sn0 2.500353 1_555
S19 Sn4 2.485952 1_555
S19 Sn1 2.500353 1_555
S20 Sn6 2.493167 1_555
S20 Sn2 2.620710 1_455
S20 Sn10 2.622850 1_455
S21 Sn7 2.493167 1_555
S21 Sn3 2.620710 1_655
S21 Sn11 2.622850 1_655
S22 Sn5 2.548157 1_455
S22 Sn4 2.640840 1_554
S22 Sn6 2.668054 1_555
S23 Sn4 2.548157 1_655
S23 Sn5 2.640840 1_556
S23 Sn7 2.668054 1_555
S24 Sn9 2.599260 1_555
S24 Sn11 2.604393 1_555
S24 Sn6 2.619079 1_555
S25 Sn8 2.599260 1_555
S25 Sn10 2.604393 1_555
S25 Sn7 2.619079 1_555
