# generated using pymatgen
data_Ti3V2O9
_symmetry_space_group_name_H-M   'P 1'
_cell_length_a   9.67557432
_cell_length_b   9.67557432
_cell_length_c   6.91387421
_cell_angle_alpha   80.03771784
_cell_angle_beta   80.03771784
_cell_angle_gamma   32.53535198
_symmetry_Int_Tables_number   1
_chemical_formula_structural   Ti3V2O9
_chemical_formula_sum   'Ti6 V4 O18'
_cell_volume   342.40680188
_cell_formula_units_Z   2
loop_
 _symmetry_equiv_pos_site_id
 _symmetry_equiv_pos_as_xyz
  1  'x, y, z'
loop_
 _atom_site_type_symbol
 _atom_site_label
 _atom_site_symmetry_multiplicity
 _atom_site_fract_x
 _atom_site_fract_y
 _atom_site_fract_z
 _atom_site_occupancy
  Ti  Ti0  1  0.00000000  0.00000000  0.50000000  1
  Ti  Ti1  1  0.00000000  0.00000000  0.00000000  1
  Ti  Ti2  1  0.11793800  0.27898800  0.46454700  1
  Ti  Ti3  1  0.72101200  0.88206200  0.03545300  1
  Ti  Ti4  1  0.88206200  0.72101200  0.53545300  1
  Ti  Ti5  1  0.27898800  0.11793800  0.96454700  1
  V  V0  1  0.61076700  0.53522500  0.61088100  1
  V  V1  1  0.46477500  0.38923300  0.88911900  1
  V  V2  1  0.38923300  0.46477500  0.38911900  1
  V  V3  1  0.53522500  0.61076700  0.11088100  1
  O  O0  1  0.95965600  0.22357300  0.51250200  1
  O  O1  1  0.77642700  0.04034400  0.98749800  1
  O  O2  1  0.04034400  0.77642700  0.48749800  1
  O  O3  1  0.22357300  0.95965600  0.01250200  1
  O  O4  1  0.79377000  0.59166100  0.56424100  1
  O  O5  1  0.40833900  0.20623000  0.93575900  1
  O  O6  1  0.20623000  0.40833900  0.43575900  1
  O  O7  1  0.59166100  0.79377000  0.06424100  1
  O  O8  1  0.61346200  0.30062400  0.61276200  1
  O  O9  1  0.69937600  0.38653800  0.88723800  1
  O  O10  1  0.38653800  0.69937600  0.38723800  1
  O  O11  1  0.30062400  0.61346200  0.11276200  1
  O  O12  1  0.90659900  0.70212900  0.80834400  1
  O  O13  1  0.29787100  0.09340100  0.69165600  1
  O  O14  1  0.09340100  0.29787100  0.19165600  1
  O  O15  1  0.70212900  0.90659900  0.30834400  1
  O  O16  1  0.18538300  0.81461700  0.75000000  1
  O  O17  1  0.81461700  0.18538300  0.25000000  1
loop_
_geom_bond_atom_site_label_1
_geom_bond_atom_site_label_2
_geom_bond_distance
_geom_bond_site_symmetry_2
O0 Ti0 1.862396 1_655
O0 V0 1.924238 1_555
O0 Ti2 1.972343 1_655
O1 Ti1 1.862396 1_656
O1 V1 1.924238 1_555
O1 Ti3 1.972343 1_546
O2 Ti0 1.862396 1_565
O2 V2 1.924238 1_555
O2 Ti4 1.972343 1_455
O3 Ti1 1.862396 1_565
O3 V3 1.924238 1_555
O3 Ti5 1.972343 1_564
O4 Ti2 1.854537 1_655
O4 Ti4 1.998371 1_555
O4 V0 2.215664 1_555
O5 Ti3 1.854537 1_546
O5 Ti5 1.998371 1_555
O5 V1 2.215664 1_555
O6 Ti4 1.854537 1_455
O6 Ti2 1.998371 1_555
O6 V2 2.215664 1_555
O7 Ti5 1.854537 1_564
O7 Ti3 1.998371 1_555
O7 V3 2.215664 1_555
O8 V1 1.997877 1_555
O8 V2 2.030101 1_555
O8 Ti0 2.118758 1_655
O8 V0 2.245751 1_555
O9 V0 1.997877 1_555
O9 V3 2.030101 1_556
O9 Ti1 2.118758 1_656
O9 V1 2.245751 1_555
O10 V3 1.997877 1_555
O10 V0 2.030101 1_555
O10 Ti0 2.118758 1_565
O10 V2 2.245751 1_555
O11 V2 1.997877 1_555
O11 V1 2.030101 1_554
O11 Ti1 2.118758 1_565
O11 V3 2.245751 1_555
O12 Ti3 1.849338 1_556
O12 Ti4 1.900549 1_555
O13 Ti2 1.849338 1_555
O13 Ti5 1.900549 1_555
O14 Ti5 1.849338 1_554
O14 Ti2 1.900549 1_555
O15 Ti4 1.849338 1_555
O15 Ti3 1.900549 1_555
O16 Ti1 1.999364 1_566
O16 Ti0 1.999364 1_565
O16 V0 2.437762 1_555
O16 V1 2.437762 1_555
O17 Ti0 1.999364 1_655
O17 Ti1 1.999364 1_655
O17 V3 2.437762 1_555
O17 V2 2.437762 1_555
