# generated using pymatgen
data_Y4In20Ni11
_symmetry_space_group_name_H-M   'P 1'
_cell_length_a   11.50951143
_cell_length_b   11.50951143
_cell_length_c   16.66782312
_cell_angle_alpha   56.92124533
_cell_angle_beta   56.92124533
_cell_angle_gamma   21.74960879
_symmetry_Int_Tables_number   1
_chemical_formula_structural   Y4In20Ni11
_chemical_formula_sum   'Y4 In20 Ni11'
_cell_volume   680.16880584
_cell_formula_units_Z   1
loop_
 _symmetry_equiv_pos_site_id
 _symmetry_equiv_pos_as_xyz
  1  'x, y, z'
loop_
 _atom_site_type_symbol
 _atom_site_label
 _atom_site_symmetry_multiplicity
 _atom_site_fract_x
 _atom_site_fract_y
 _atom_site_fract_z
 _atom_site_occupancy
  Y  Y0  1  0.22836400  0.22836400  0.67358200  1
  Y  Y1  1  0.11761700  0.11761700  0.16834200  1
  Y  Y2  1  0.88238300  0.88238300  0.83165800  1
  Y  Y3  1  0.77163600  0.77163600  0.32641800  1
  In  In0  1  0.24519800  0.24519800  0.21023800  1
  In  In1  1  0.70223800  0.70223800  0.99802100  1
  In  In2  1  0.38744600  0.38744600  0.19079600  1
  In  In3  1  0.61255400  0.61255400  0.80920400  1
  In  In4  1  0.45850400  0.45850400  0.87710400  1
  In  In5  1  0.93551500  0.93551500  0.28985200  1
  In  In6  1  0.60005700  0.60005700  0.50919700  1
  In  In7  1  0.75480200  0.75480200  0.78976200  1
  In  In8  1  0.11343500  0.11343500  0.94912900  1
  In  In9  1  0.54149600  0.54149600  0.12289600  1
  In  In10  1  0.98816000  0.98816000  0.59588000  1
  In  In11  1  0.01184000  0.01184000  0.40412000  1
  In  In12  1  0.39994300  0.39994300  0.49080300  1
  In  In13  1  0.62798300  0.62798300  0.30271700  1
  In  In14  1  0.79651100  0.79651100  0.50323100  1
  In  In15  1  0.29776200  0.29776200  0.00197900  1
  In  In16  1  0.20348900  0.20348900  0.49676900  1
  In  In17  1  0.88656500  0.88656500  0.05087100  1
  In  In18  1  0.37201700  0.37201700  0.69728300  1
  In  In19  1  0.06448500  0.06448500  0.71014800  1
  Ni  Ni0  1  0.25162700  0.25162700  0.88323000  1
  Ni  Ni1  1  0.34576600  0.34576600  0.37886700  1
  Ni  Ni2  1  0.86227800  0.86227800  0.60411000  1
  Ni  Ni3  1  0.02146700  0.02146700  0.89939500  1
  Ni  Ni4  1  0.49244900  0.49244900  0.69443800  1
  Ni  Ni5  1  0.97853300  0.97853300  0.10060500  1
  Ni  Ni6  1  0.50000000  0.50000000  0.00000000  1
  Ni  Ni7  1  0.65423400  0.65423400  0.62113300  1
  Ni  Ni8  1  0.13772200  0.13772200  0.39589000  1
  Ni  Ni9  1  0.50755100  0.50755100  0.30556200  1
  Ni  Ni10  1  0.74837300  0.74837300  0.11677000  1
loop_
_geom_bond_atom_site_label_1
_geom_bond_atom_site_label_2
_geom_bond_distance
_geom_bond_site_symmetry_2
In0 Ni10 2.650100 1_545
In0 Ni10 2.650100 1_455
In0 Ni8 2.668616 1_555
In0 In15 2.979359 1_555
In0 In2 3.047437 1_555
In0 In13 3.093892 1_545
In0 In13 3.093892 1_455
In0 Y3 3.179402 1_455
In0 Y3 3.179402 1_545
In0 Y1 3.323253 1_555
In1 Ni0 2.692200 1_655
In1 Ni0 2.692200 1_565
In1 Ni10 2.701798 1_556
In1 In7 2.979359 1_555
In1 In9 3.021435 1_556
In1 In15 3.088805 1_656
In1 In15 3.088805 1_566
In1 Y1 3.224483 1_566
In1 Y1 3.224483 1_656
In1 In8 3.350736 1_655
In1 In8 3.350736 1_565
In1 Y2 3.423585 1_555
In2 Ni1 2.726041 1_555
In2 Ni6 2.755564 1_555
In2 Ni5 2.788210 1_545
In2 Ni5 2.788210 1_455
In2 In9 3.004521 1_555
In2 Y3 3.178159 1_545
In2 Y3 3.178159 1_455
In2 In5 3.258223 1_545
In2 In5 3.258223 1_455
In3 Ni7 2.726041 1_555
In3 Ni6 2.755564 1_556
In3 Ni3 2.788210 1_655
In3 Ni3 2.788210 1_565
In3 In4 3.004521 1_555
In3 In7 3.047437 1_555
In3 Y0 3.178159 1_655
In3 Y0 3.178159 1_565
In3 In8 3.194759 1_655
In3 In8 3.194759 1_565
In4 Ni6 2.685467 1_556
In4 Ni4 2.694769 1_555
In4 Ni3 2.732541 1_565
In4 Ni3 2.732541 1_655
In4 Y2 3.114282 1_455
In4 Y2 3.114282 1_545
In5 Ni5 2.736038 1_555
In5 Ni1 2.772484 1_655
In5 Ni1 2.772484 1_565
In5 Ni9 2.812361 1_655
In5 Ni9 2.812361 1_565
In5 In9 3.284532 1_655
In5 In9 3.284532 1_565
In5 Y3 3.403783 1_555
In5 Y1 3.432273 1_665
In6 Ni4 2.664944 1_555
In6 Ni8 2.686894 1_655
In6 Ni8 2.686894 1_565
In6 Ni7 2.742389 1_555
In6 Y3 3.345267 1_555
In7 Ni0 2.650100 1_655
In7 Ni0 2.650100 1_565
In7 Ni2 2.668616 1_555
In7 Y0 3.179402 1_655
In7 Y0 3.179402 1_565
In7 Y2 3.323253 1_555
In8 Ni3 2.631545 1_555
In8 Ni5 2.667579 1_446
In8 Ni0 2.674193 1_555
In8 Ni6 3.097214 1_546
In8 Ni6 3.097214 1_456
In8 In9 3.242362 1_456
In8 In9 3.242362 1_546
In8 Y1 3.707178 1_556
In9 Ni6 2.685467 1_555
In9 Ni9 2.694769 1_555
In9 Ni5 2.732541 1_545
In9 Ni5 2.732541 1_455
In9 Y1 3.114282 1_655
In9 Y1 3.114282 1_565
In10 Ni4 2.756837 1_655
In10 Ni4 2.756837 1_565
In10 Ni2 2.771752 1_555
In10 In11 2.932677 1_665
In10 In6 3.023020 1_655
In10 In6 3.023020 1_565
In10 In18 3.087466 1_565
In10 In18 3.087466 1_655
In10 Ni8 3.164679 1_665
In10 In19 3.202673 1_665
In10 Y2 3.273620 1_555
In11 Ni9 2.756837 1_545
In11 Ni9 2.756837 1_455
In11 Ni8 2.771752 1_555
In11 In12 3.023020 1_455
In11 In12 3.023020 1_545
In11 In13 3.087466 1_455
In11 In13 3.087466 1_545
In11 Ni2 3.164679 1_445
In11 In5 3.202673 1_445
In11 Y1 3.273620 1_555
In12 Ni9 2.664944 1_555
In12 Ni2 2.686894 1_455
In12 Ni2 2.686894 1_545
In12 Ni1 2.742389 1_555
In12 In14 3.112325 1_545
In12 In14 3.112325 1_455
In12 In18 3.134962 1_555
In12 Y0 3.345267 1_555
In13 Ni9 2.696376 1_555
In13 Ni8 2.748705 1_655
In13 Ni8 2.748705 1_565
In13 Ni10 2.763462 1_555
In13 In6 3.134962 1_555
In13 Y1 3.220219 1_565
In13 Y1 3.220219 1_655
In13 Y3 3.482443 1_555
In14 Ni7 2.679687 1_555
In14 Ni1 2.772398 1_655
In14 Ni1 2.772398 1_565
In14 Ni2 2.795737 1_555
In14 In16 3.065992 1_565
In14 In16 3.065992 1_655
In14 In5 3.178168 1_555
In14 Y0 3.207545 1_655
In14 Y0 3.207545 1_565
In14 Y3 3.292957 1_555
In15 Ni10 2.692200 1_455
In15 Ni10 2.692200 1_545
In15 Ni0 2.701798 1_554
In15 In4 3.021435 1_554
In15 Y2 3.224483 1_454
In15 Y2 3.224483 1_544
In15 In17 3.350736 1_455
In15 In17 3.350736 1_545
In15 Y1 3.423585 1_555
In16 Ni1 2.679687 1_555
In16 Ni7 2.772398 1_455
In16 Ni7 2.772398 1_545
In16 Ni8 2.795737 1_555
In16 In6 3.112325 1_455
In16 In6 3.112325 1_545
In16 In19 3.178168 1_555
In16 Y3 3.207545 1_455
In16 Y3 3.207545 1_545
In16 Y0 3.292957 1_555
In17 Ni5 2.631545 1_555
In17 Ni3 2.667579 1_664
In17 Ni10 2.674193 1_555
In17 Ni6 3.097214 1_655
In17 Ni6 3.097214 1_565
In17 In2 3.194759 1_565
In17 In2 3.194759 1_655
In17 In4 3.242362 1_564
In17 In4 3.242362 1_654
In17 Y2 3.707178 1_554
In18 Ni4 2.696376 1_555
In18 Ni2 2.748705 1_455
In18 Ni2 2.748705 1_545
In18 Ni0 2.763462 1_555
In18 In7 3.093892 1_455
In18 In7 3.093892 1_545
In18 Y2 3.220219 1_455
In18 Y2 3.220219 1_545
In18 Y0 3.482443 1_555
In19 Ni3 2.736038 1_555
In19 Ni7 2.772484 1_545
In19 Ni7 2.772484 1_455
In19 Ni4 2.812361 1_455
In19 Ni4 2.812361 1_545
In19 In3 3.258223 1_545
In19 In3 3.258223 1_455
In19 In4 3.284532 1_455
In19 In4 3.284532 1_545
In19 Y0 3.403783 1_555
In19 Y2 3.432273 1_445
Ni0 Y2 3.371449 1_545
Ni0 Y2 3.371449 1_455
Ni1 Ni9 3.146647 1_555
Ni1 Y3 3.148947 1_545
Ni1 Y3 3.148947 1_455
Ni2 Y0 3.365055 1_565
Ni2 Y0 3.365055 1_655
Ni3 Ni6 2.618770 1_546
Ni3 Ni6 2.618770 1_456
Ni3 Ni5 2.927704 1_446
Ni4 Y2 3.132318 1_545
Ni4 Y2 3.132318 1_455
Ni4 Ni7 3.146647 1_555
Ni5 Ni6 2.618770 1_565
Ni5 Ni6 2.618770 1_655
Ni7 Y0 3.148947 1_655
Ni7 Y0 3.148947 1_565
Ni8 Y3 3.365055 1_545
Ni8 Y3 3.365055 1_455
Ni9 Y1 3.132318 1_655
Ni9 Y1 3.132318 1_565
Ni10 Y1 3.371449 1_655
Ni10 Y1 3.371449 1_565
