# generated using pymatgen
data_K3Tl(Cl3O)2
_symmetry_space_group_name_H-M   'P 1'
_cell_length_a   14.66918900
_cell_length_b   14.66918900
_cell_length_c   14.66918900
_cell_angle_alpha   114.33096564
_cell_angle_beta   114.33096564
_cell_angle_gamma   100.13605761
_symmetry_Int_Tables_number   1
_chemical_formula_structural   K3Tl(Cl3O)2
_chemical_formula_sum   'K21 Tl7 Cl42 O14'
_cell_volume   2382.71878496
_cell_formula_units_Z   7
loop_
 _symmetry_equiv_pos_site_id
 _symmetry_equiv_pos_as_xyz
  1  'x, y, z'
loop_
 _atom_site_type_symbol
 _atom_site_label
 _atom_site_symmetry_multiplicity
 _atom_site_fract_x
 _atom_site_fract_y
 _atom_site_fract_z
 _atom_site_occupancy
  K  K0  1  0.50000000  0.50000000  0.00000000  1
  K  K1  1  0.21263800  0.21263800  0.42527600  1
  K  K2  1  0.78736200  0.78736200  0.57472400  1
  K  K3  1  0.21263800  0.78736200  0.00000000  1
  K  K4  1  0.78736200  0.21263800  0.00000000  1
  K  K5  1  0.86000300  0.14752300  0.28752000  1
  K  K6  1  0.86000300  0.57248300  0.71248000  1
  K  K7  1  0.14752300  0.86000300  0.28752000  1
  K  K8  1  0.57248300  0.86000300  0.71248000  1
  K  K9  1  0.13999700  0.85247700  0.71248000  1
  K  K10  1  0.13999700  0.42751700  0.28752000  1
  K  K11  1  0.85247700  0.13999700  0.71248000  1
  K  K12  1  0.42751700  0.13999700  0.28752000  1
  K  K13  1  0.62520300  0.90519500  0.27999200  1
  K  K14  1  0.62520300  0.34521100  0.72000800  1
  K  K15  1  0.90519500  0.62520300  0.27999200  1
  K  K16  1  0.34521100  0.62520300  0.72000800  1
  K  K17  1  0.37479700  0.09480500  0.72000800  1
  K  K18  1  0.37479700  0.65478900  0.27999200  1
  K  K19  1  0.09480500  0.37479700  0.72000800  1
  K  K20  1  0.65478900  0.37479700  0.27999200  1
  Tl  Tl0  1  0.00000000  0.00000000  0.00000000  1
  Tl  Tl1  1  0.00000000  0.50000000  0.50000000  1
  Tl  Tl2  1  0.50000000  0.00000000  0.50000000  1
  Tl  Tl3  1  0.00000000  0.00000000  0.50000000  1
  Tl  Tl4  1  0.50000000  0.50000000  0.50000000  1
  Tl  Tl5  1  0.00000000  0.50000000  0.00000000  1
  Tl  Tl6  1  0.50000000  0.00000000  0.00000000  1
  Cl  Cl0  1  0.83573400  0.83573400  0.00000000  1
  Cl  Cl1  1  0.16426600  0.16426600  0.00000000  1
  Cl  Cl2  1  0.16075700  0.00000000  0.16075700  1
  Cl  Cl3  1  0.83924300  0.00000000  0.83924300  1
  Cl  Cl4  1  0.00000000  0.83924300  0.83924300  1
  Cl  Cl5  1  0.00000000  0.16075700  0.16075700  1
  Cl  Cl6  1  0.86627400  0.36627400  0.50000000  1
  Cl  Cl7  1  0.36627400  0.86627400  0.50000000  1
  Cl  Cl8  1  0.13372600  0.63372600  0.50000000  1
  Cl  Cl9  1  0.63372600  0.13372600  0.50000000  1
  Cl  Cl10  1  0.38137900  0.12069400  0.50207300  1
  Cl  Cl11  1  0.61862100  0.87930600  0.49792700  1
  Cl  Cl12  1  0.38137900  0.87930600  0.26068500  1
  Cl  Cl13  1  0.61862100  0.12069400  0.73931500  1
  Cl  Cl14  1  0.12069400  0.61862100  0.73931500  1
  Cl  Cl15  1  0.87930600  0.38137900  0.26068500  1
  Cl  Cl16  1  0.12069400  0.38137900  0.50207300  1
  Cl  Cl17  1  0.87930600  0.61862100  0.49792700  1
  Cl  Cl18  1  0.81644500  0.47069000  0.00000000  1
  Cl  Cl19  1  0.47069000  0.81644500  0.00000000  1
  Cl  Cl20  1  0.81644500  0.81644500  0.34575400  1
  Cl  Cl21  1  0.47069000  0.47069000  0.65424600  1
  Cl  Cl22  1  0.18355500  0.52931000  0.00000000  1
  Cl  Cl23  1  0.52931000  0.18355500  0.00000000  1
  Cl  Cl24  1  0.18355500  0.18355500  0.65424600  1
  Cl  Cl25  1  0.52931000  0.52931000  0.34575400  1
  Cl  Cl26  1  0.00749500  0.68176100  0.00000000  1
  Cl  Cl27  1  0.68176100  0.00749500  0.00000000  1
  Cl  Cl28  1  0.00749500  0.00749500  0.32573400  1
  Cl  Cl29  1  0.68176100  0.68176100  0.67426600  1
  Cl  Cl30  1  0.99250500  0.31823900  0.00000000  1
  Cl  Cl31  1  0.31823900  0.99250500  0.00000000  1
  Cl  Cl32  1  0.99250500  0.99250500  0.67426600  1
  Cl  Cl33  1  0.31823900  0.31823900  0.32573400  1
  Cl  Cl34  1  0.11725300  0.61725300  0.23450500  1
  Cl  Cl35  1  0.38274700  0.88274700  0.76549500  1
  Cl  Cl36  1  0.11725300  0.88274700  0.50000000  1
  Cl  Cl37  1  0.38274700  0.61725300  0.50000000  1
  Cl  Cl38  1  0.61725300  0.38274700  0.50000000  1
  Cl  Cl39  1  0.88274700  0.11725300  0.50000000  1
  Cl  Cl40  1  0.61725300  0.11725300  0.23450500  1
  Cl  Cl41  1  0.88274700  0.38274700  0.76549500  1
  O  O0  1  0.65805900  0.65805900  0.00000000  1
  O  O1  1  0.34194100  0.34194100  0.00000000  1
  O  O2  1  0.67890800  0.50000000  0.17890800  1
  O  O3  1  0.32109200  0.50000000  0.82109200  1
  O  O4  1  0.50000000  0.32109200  0.82109200  1
  O  O5  1  0.50000000  0.67890800  0.17890800  1
  O  O6  1  0.73659400  0.83616400  0.09957000  1
  O  O7  1  0.73659400  0.63702400  0.90043000  1
  O  O8  1  0.83616400  0.73659400  0.09957000  1
  O  O9  1  0.63702400  0.73659400  0.90043000  1
  O  O10  1  0.26340600  0.16383600  0.90043000  1
  O  O11  1  0.26340600  0.36297600  0.09957000  1
  O  O12  1  0.16383600  0.26340600  0.90043000  1
  O  O13  1  0.36297600  0.26340600  0.09957000  1
loop_
_geom_bond_atom_site_label_1
_geom_bond_atom_site_label_2
_geom_bond_distance
_geom_bond_site_symmetry_2
K0 O2 2.846014 1_555
K0 O5 2.846014 1_555
K0 O3 2.846014 1_554
K0 O4 2.846014 1_554
K0 O0 2.976511 1_555
K0 O1 2.976511 1_555
K13 O5 2.853914 1_555
K14 O4 2.853914 1_555
K15 O2 2.853914 1_555
K16 O3 2.853914 1_555
K17 O4 2.853914 1_555
K18 O5 2.853914 1_555
K19 O3 2.853914 1_555
K20 O2 2.853914 1_555
Cl0 Tl0 3.093399 1_665
Cl1 Tl0 3.093399 1_555
Cl2 Tl0 2.557273 1_555
Cl2 K12 3.319152 1_555
Cl2 K7 3.319152 1_545
Cl2 K1 3.481807 1_555
Cl2 K3 3.481807 1_545
Cl3 Tl0 2.557273 1_656
Cl3 K11 3.319152 1_555
Cl3 K8 3.319152 1_545
Cl3 K2 3.481807 1_545
Cl3 K4 3.481807 1_556
Cl4 Tl0 2.557273 1_566
Cl4 K9 3.319152 1_555
Cl4 K6 3.319152 1_455
Cl4 K3 3.481807 1_556
Cl4 K2 3.481807 1_455
Cl5 Tl0 2.557273 1_555
Cl5 K10 3.319152 1_555
Cl5 K5 3.319152 1_455
Cl5 K1 3.481807 1_555
Cl5 K4 3.481807 1_455
Cl6 Tl1 2.518281 1_655
Cl6 K6 3.382129 1_555
Cl6 K5 3.382129 1_555
Cl6 K19 3.503498 1_655
Cl6 K20 3.503498 1_555
Cl7 Tl2 2.518281 1_565
Cl7 K7 3.382129 1_555
Cl7 K8 3.382129 1_555
Cl7 K17 3.503498 1_565
Cl7 K18 3.503498 1_555
Cl8 Tl1 2.518281 1_555
Cl8 K9 3.382129 1_555
Cl8 K10 3.382129 1_555
Cl8 K15 3.503498 1_455
Cl8 K16 3.503498 1_555
Cl9 Tl2 2.518281 1_555
Cl9 K11 3.382129 1_555
Cl9 K12 3.382129 1_555
Cl9 K13 3.503498 1_545
Cl9 K14 3.503498 1_555
Cl10 Tl2 2.692021 1_555
Cl10 K1 3.056895 1_555
Cl10 K17 3.408194 1_555
Cl10 K14 3.408194 1_555
Cl10 K7 3.586923 1_545
Cl10 K12 3.586923 1_555
Cl11 Tl2 2.692021 1_565
Cl11 K2 3.056895 1_555
Cl11 K18 3.408194 1_555
Cl11 K13 3.408194 1_555
Cl11 K11 3.586923 1_565
Cl11 K8 3.586923 1_555
Cl12 Tl2 2.692021 1_565
Cl12 K3 3.056895 1_555
Cl12 K18 3.408194 1_555
Cl12 K13 3.408194 1_555
Cl12 K7 3.586923 1_555
Cl12 K12 3.586923 1_565
Cl13 Tl2 2.692021 1_555
Cl13 K4 3.056895 1_556
Cl13 K14 3.408194 1_555
Cl13 K17 3.408194 1_555
Cl13 K11 3.586923 1_555
Cl13 K8 3.586923 1_545
Cl14 Tl1 2.692021 1_555
Cl14 K3 3.056895 1_556
Cl14 K16 3.408194 1_555
Cl14 K19 3.408194 1_555
Cl14 K9 3.586923 1_555
Cl14 K6 3.586923 1_455
Cl15 Tl1 2.692021 1_655
Cl15 K4 3.056895 1_555
Cl15 K20 3.408194 1_555
Cl15 K15 3.408194 1_555
Cl15 K5 3.586923 1_555
Cl15 K10 3.586923 1_655
Cl16 Tl1 2.692021 1_555
Cl16 K1 3.056895 1_555
Cl16 K19 3.408194 1_555
Cl16 K16 3.408194 1_555
Cl16 K5 3.586923 1_455
Cl16 K10 3.586923 1_555
Cl17 Tl1 2.692021 1_655
Cl17 K2 3.056895 1_555
Cl17 K20 3.408194 1_555
Cl17 K15 3.408194 1_555
Cl17 K9 3.586923 1_655
Cl17 K6 3.586923 1_555
Cl18 Tl5 2.650942 1_655
Cl18 K15 3.253611 1_555
Cl18 K14 3.253611 1_554
Cl18 K4 3.734025 1_555
Cl19 Tl6 2.650942 1_565
Cl19 K13 3.253611 1_555
Cl19 K16 3.253611 1_554
Cl19 K3 3.734025 1_555
Cl20 Tl3 2.650942 1_665
Cl20 K13 3.253609 1_555
Cl20 K15 3.253609 1_555
Cl20 K2 3.734040 1_555
Cl21 Tl4 2.650957 1_555
Cl21 K16 3.253607 1_555
Cl21 K14 3.253607 1_555
Cl21 K1 3.734026 1_555
Cl22 Tl5 2.650942 1_555
Cl22 K18 3.253611 1_555
Cl22 K19 3.253611 1_554
Cl22 K3 3.734025 1_555
Cl23 Tl6 2.650942 1_555
Cl23 K20 3.253611 1_555
Cl23 K17 3.253611 1_554
Cl23 K4 3.734025 1_555
Cl24 Tl3 2.650942 1_555
Cl24 K19 3.253609 1_555
Cl24 K17 3.253609 1_555
Cl24 K1 3.734040 1_555
Cl25 Tl4 2.650957 1_555
Cl25 K20 3.253607 1_555
Cl25 K18 3.253607 1_555
Cl25 K2 3.734026 1_555
Cl26 Tl5 2.649149 1_555
Cl26 K3 3.132836 1_555
Cl26 K6 3.275413 1_454
Cl26 K7 3.275413 1_555
Cl27 Tl6 2.649149 1_555
Cl27 K4 3.132836 1_555
Cl27 K5 3.275413 1_555
Cl27 K8 3.275413 1_544
Cl28 Tl3 2.649149 1_555
Cl28 K1 3.132836 1_555
Cl28 K5 3.275413 1_455
Cl28 K7 3.275413 1_545
Cl29 Tl4 2.649149 1_555
Cl29 K2 3.132836 1_555
Cl29 K6 3.275413 1_555
Cl29 K8 3.275413 1_555
Cl30 Tl5 2.649149 1_655
Cl30 K4 3.132836 1_555
Cl30 K10 3.275413 1_655
Cl30 K11 3.275413 1_554
Cl31 Tl6 2.649149 1_565
Cl31 K3 3.132836 1_555
Cl31 K12 3.275413 1_565
Cl31 K9 3.275413 1_554
Cl32 Tl3 2.649149 1_665
Cl32 K2 3.132836 1_555
Cl32 K9 3.275413 1_655
Cl32 K11 3.275413 1_565
Cl33 Tl4 2.649149 1_555
Cl33 K1 3.132836 1_555
Cl33 K10 3.275413 1_555
Cl33 K12 3.275413 1_555
Cl34 Tl5 2.637815 1_555
Cl34 K7 3.218582 1_555
Cl34 K10 3.218594 1_555
Cl34 K18 3.450977 1_555
Cl34 K15 3.450990 1_455
Cl35 Tl6 2.637815 1_566
Cl35 K9 3.218582 1_555
Cl35 K8 3.218594 1_555
Cl35 K16 3.450977 1_555
Cl35 K17 3.450990 1_565
Cl36 Tl3 2.637826 1_565
Cl36 K7 3.218586 1_555
Cl36 K9 3.218586 1_555
Cl36 K17 3.450982 1_565
Cl36 K15 3.450982 1_455
Cl37 Tl4 2.637826 1_555
Cl37 K10 3.218586 1_555
Cl37 K8 3.218586 1_555
Cl37 K16 3.450982 1_555
Cl37 K18 3.450982 1_555
Cl38 Tl4 2.637826 1_555
Cl38 K12 3.218586 1_555
Cl38 K6 3.218586 1_555
Cl38 K14 3.450982 1_555
Cl38 K20 3.450982 1_555
Cl39 Tl3 2.637826 1_655
Cl39 K5 3.218586 1_555
Cl39 K11 3.218586 1_555
Cl39 K19 3.450982 1_655
Cl39 K13 3.450982 1_545
Cl40 Tl6 2.637815 1_555
Cl40 K5 3.218582 1_555
Cl40 K12 3.218594 1_555
Cl40 K20 3.450977 1_555
Cl40 K13 3.450990 1_545
Cl41 Tl5 2.637815 1_656
Cl41 K11 3.218582 1_555
Cl41 K6 3.218594 1_555
Cl41 K14 3.450977 1_555
Cl41 K19 3.450990 1_655
