# generated using pymatgen
data_TaZnBiO5
_symmetry_space_group_name_H-M   'P 1'
_cell_length_a   5.41083125
_cell_length_b   8.06905454
_cell_length_c   12.12849000
_cell_angle_alpha   90.00000000
_cell_angle_beta   90.00000000
_cell_angle_gamma   106.31152042
_symmetry_Int_Tables_number   1
_chemical_formula_structural   TaZnBiO5
_chemical_formula_sum   'Ta4 Zn4 Bi4 O20'
_cell_volume   508.21908550
_cell_formula_units_Z   4
loop_
 _symmetry_equiv_pos_site_id
 _symmetry_equiv_pos_as_xyz
  1  'x, y, z'
loop_
 _atom_site_type_symbol
 _atom_site_label
 _atom_site_symmetry_multiplicity
 _atom_site_fract_x
 _atom_site_fract_y
 _atom_site_fract_z
 _atom_site_occupancy
  Ta  Ta0  1  0.78692600  0.96599800  0.64476300  1
  Ta  Ta1  1  0.21307400  0.03400200  0.35523700  1
  Ta  Ta2  1  0.71307400  0.53400200  0.14476300  1
  Ta  Ta3  1  0.28692600  0.46599800  0.85523700  1
  Zn  Zn0  1  0.62081500  0.16652000  0.91888400  1
  Zn  Zn1  1  0.37918500  0.83348000  0.08111600  1
  Zn  Zn2  1  0.87918500  0.33348000  0.41888400  1
  Zn  Zn3  1  0.12081500  0.66652000  0.58111600  1
  Bi  Bi0  1  0.11438800  0.16763000  0.09250600  1
  Bi  Bi1  1  0.88561200  0.83237000  0.90749400  1
  Bi  Bi2  1  0.61438800  0.66763000  0.40749400  1
  Bi  Bi3  1  0.38561200  0.33237000  0.59250600  1
  O  O0  1  0.54855100  0.32904200  0.06956700  1
  O  O1  1  0.02017300  0.31890600  0.94013000  1
  O  O2  1  0.47636200  0.65231300  0.17454700  1
  O  O3  1  0.75751800  0.51509200  0.52501400  1
  O  O4  1  0.80276700  0.48675100  0.28865300  1
  O  O5  1  0.30276700  0.98675100  0.21134700  1
  O  O6  1  0.52017300  0.81890600  0.55987000  1
  O  O7  1  0.47982700  0.18109400  0.44013000  1
  O  O8  1  0.24248200  0.48490800  0.47498600  1
  O  O9  1  0.95144900  0.17095800  0.56956700  1
  O  O10  1  0.19723300  0.51324900  0.71134700  1
  O  O11  1  0.45144900  0.67095800  0.93043300  1
  O  O12  1  0.04855100  0.82904200  0.43043300  1
  O  O13  1  0.69723300  0.01324900  0.78865300  1
  O  O14  1  0.74248200  0.98490800  0.02501300  1
  O  O15  1  0.25751800  0.01509200  0.97498600  1
  O  O16  1  0.52363800  0.34768700  0.82545300  1
  O  O17  1  0.97982700  0.68109400  0.05987000  1
  O  O18  1  0.02363800  0.84768700  0.67454700  1
  O  O19  1  0.97636200  0.15231300  0.32545300  1
loop_
_geom_bond_atom_site_label_1
_geom_bond_atom_site_label_2
_geom_bond_distance
_geom_bond_site_symmetry_2
Bi0 O15 2.163741 1_554
Bi0 O14 2.286211 1_445
Bi0 O1 2.348372 1_554
Bi0 O0 2.360877 1_555
Bi0 O5 2.466238 1_545
Bi1 O14 2.163733 1_556
Bi1 O15 2.286207 1_665
Bi1 O17 2.348372 1_556
Bi1 O11 2.360877 1_555
Bi1 O13 2.466238 1_565
Bi2 O3 2.163741 1_555
Bi2 O8 2.286207 1_555
Bi2 O6 2.348372 1_555
Bi2 O12 2.360877 1_655
Bi2 O4 2.466238 1_555
Bi3 O8 2.163741 1_555
Bi3 O3 2.286207 1_555
Bi3 O7 2.348372 1_555
Bi3 O9 2.360877 1_455
Bi3 O10 2.466238 1_555
O0 Ta2 1.879470 1_555
O0 Zn0 2.345347 1_554
O1 Ta3 1.894685 1_555
O1 Zn0 2.180632 1_455
O2 Ta2 1.835529 1_555
O2 Zn1 2.032074 1_555
O3 Zn3 2.114454 1_655
O3 Zn2 2.186246 1_555
O4 Ta2 1.878949 1_555
O4 Zn2 2.117218 1_555
O5 Ta1 1.878949 1_565
O5 Zn1 2.117218 1_555
O6 Ta0 1.894685 1_555
O6 Zn3 2.180632 1_555
O7 Ta1 1.894685 1_555
O7 Zn2 2.180632 1_555
O8 Zn2 2.114454 1_455
O8 Zn3 2.186246 1_555
O9 Ta0 1.879470 1_545
O9 Zn2 2.345347 1_555
O10 Ta3 1.878949 1_555
O10 Zn3 2.117218 1_555
O11 Ta3 1.879470 1_555
O11 Zn1 2.345347 1_556
O12 Ta1 1.879470 1_565
O12 Zn3 2.345347 1_555
O13 Ta0 1.878949 1_545
O13 Zn0 2.117218 1_555
O14 Zn1 2.114458 1_555
O14 Zn0 2.186239 1_564
O15 Zn0 2.114454 1_555
O15 Zn1 2.186246 1_546
O16 Ta3 1.835529 1_555
O16 Zn0 2.032074 1_555
O17 Ta2 1.894685 1_555
O17 Zn1 2.180632 1_655
O18 Ta0 1.835529 1_455
O18 Zn3 2.032074 1_555
O19 Ta1 1.835529 1_655
O19 Zn2 2.032074 1_555
