# generated using pymatgen
data_CaWO4
_symmetry_space_group_name_H-M   'P 1'
_cell_length_a   5.28814989
_cell_length_b   5.42477103
_cell_length_c   6.78807158
_cell_angle_alpha   112.51262650
_cell_angle_beta   111.86323340
_cell_angle_gamma   92.45635236
_symmetry_Int_Tables_number   1
_chemical_formula_structural   CaWO4
_chemical_formula_sum   'Ca2 W2 O8'
_cell_volume   162.99944268
_cell_formula_units_Z   2
loop_
 _symmetry_equiv_pos_site_id
 _symmetry_equiv_pos_as_xyz
  1  'x, y, z'
loop_
 _atom_site_type_symbol
 _atom_site_label
 _atom_site_symmetry_multiplicity
 _atom_site_fract_x
 _atom_site_fract_y
 _atom_site_fract_z
 _atom_site_occupancy
  Ca  Ca0  1  0.37752600  0.12752600  0.75505300  1
  Ca  Ca1  1  0.62247400  0.87247400  0.24494700  1
  W  W0  1  0.86643200  0.61643200  0.73286300  1
  W  W1  1  0.13356800  0.38356800  0.26713700  1
  O  O0  1  0.28085300  0.43890100  0.08011200  1
  O  O1  1  0.79926000  0.14121100  0.08011200  1
  O  O2  1  0.71914800  0.56109900  0.91988800  1
  O  O3  1  0.20074000  0.85878900  0.91988800  1
  O  O4  1  0.62466300  0.77327000  0.56623000  1
  O  O5  1  0.94156700  0.29296000  0.56623000  1
  O  O6  1  0.37533700  0.22673000  0.43377000  1
  O  O7  1  0.05843300  0.70704000  0.43377000  1
loop_
_geom_bond_atom_site_label_1
_geom_bond_atom_site_label_2
_geom_bond_distance
_geom_bond_site_symmetry_2
Ca0 O7 2.434443 1_545
Ca0 O6 2.434447 1_555
Ca0 O0 2.458312 1_556
Ca0 O1 2.458317 1_556
Ca0 O3 2.482460 1_545
Ca0 O2 2.482467 1_555
Ca0 O5 2.573056 1_455
Ca0 O4 2.573057 1_545
Ca1 O5 2.434443 1_565
Ca1 O4 2.434447 1_555
Ca1 O2 2.458315 1_554
Ca1 O3 2.458317 1_554
Ca1 O1 2.482460 1_565
Ca1 O0 2.482465 1_555
Ca1 O7 2.573056 1_655
Ca1 O6 2.573057 1_565
O0 W1 1.821176 1_555
O1 W1 1.821167 1_655
O2 W0 1.821173 1_555
O3 W0 1.821167 1_455
O4 W0 1.841472 1_555
O5 W0 1.841474 1_555
O6 W1 1.841472 1_555
O7 W1 1.841474 1_555
