# generated using pymatgen
data_LiYb3
_symmetry_space_group_name_H-M   'P 1'
_cell_length_a   6.47342434
_cell_length_b   6.47342434
_cell_length_c   6.47342434
_cell_angle_alpha   132.14278670
_cell_angle_beta   132.14278670
_cell_angle_gamma   70.00360411
_symmetry_Int_Tables_number   1
_chemical_formula_structural   LiYb3
_chemical_formula_sum   'Li1 Yb3'
_cell_volume   146.22067909
_cell_formula_units_Z   1
loop_
 _symmetry_equiv_pos_site_id
 _symmetry_equiv_pos_as_xyz
  1  'x, y, z'
loop_
 _atom_site_type_symbol
 _atom_site_label
 _atom_site_symmetry_multiplicity
 _atom_site_fract_x
 _atom_site_fract_y
 _atom_site_fract_z
 _atom_site_occupancy
  Li  Li0  1  0.00000000  0.00000000  0.00000000  1
  Yb  Yb0  1  0.75000000  0.25000000  0.50000000  1
  Yb  Yb1  1  0.25000000  0.75000000  0.50000000  1
  Yb  Yb2  1  0.50000000  0.50000000  0.00000000  1
loop_
_geom_bond_atom_site_label_1
_geom_bond_atom_site_label_2
_geom_bond_distance
_geom_bond_site_symmetry_2
Li0 Yb2 3.713170 1_455
Li0 Yb2 3.713170 1_444
Li0 Yb2 3.713170 1_545
Li0 Yb2 3.713170 1_556
Li0 Yb0 3.731382 1_555
Li0 Yb1 3.731382 1_555
Li0 Yb0 3.731382 1_444
Li0 Yb0 3.731382 1_455
Li0 Yb1 3.731382 1_544
Li0 Yb1 3.731382 1_545
Li0 Yb1 3.731382 1_444
Li0 Yb0 3.731382 1_454
Yb0 Yb1 3.713170 1_555
Yb0 Yb1 3.713170 1_544
Yb0 Yb1 3.713170 1_656
Yb0 Yb1 3.713170 1_645
Yb0 Yb2 3.731382 1_556
Yb0 Yb2 3.731382 1_555
Yb0 Yb2 3.731382 1_656
Yb0 Yb2 3.731382 1_545
Yb1 Yb2 3.731382 1_556
Yb1 Yb2 3.731382 1_566
Yb1 Yb2 3.731382 1_455
Yb1 Yb2 3.731382 1_555
