# generated using pymatgen
data_Sr2NiTeO6
_symmetry_space_group_name_H-M   'P 1'
_cell_length_a   5.61202686
_cell_length_b   5.68674214
_cell_length_c   5.68674214
_cell_angle_alpha   91.44215982
_cell_angle_beta   60.42424080
_cell_angle_gamma   60.42424080
_symmetry_Int_Tables_number   1
_chemical_formula_structural   Sr2NiTeO6
_chemical_formula_sum   'Sr2 Ni1 Te1 O6'
_cell_volume   128.31484465
_cell_formula_units_Z   1
loop_
 _symmetry_equiv_pos_site_id
 _symmetry_equiv_pos_as_xyz
  1  'x, y, z'
loop_
 _atom_site_type_symbol
 _atom_site_label
 _atom_site_symmetry_multiplicity
 _atom_site_fract_x
 _atom_site_fract_y
 _atom_site_fract_z
 _atom_site_occupancy
  Sr  Sr0  1  0.50000000  0.25004300  0.74995700  1
  Sr  Sr1  1  0.50000000  0.74995700  0.25004300  1
  Ni  Ni0  1  0.00000000  0.00000000  0.00000000  1
  Te  Te0  1  0.00000000  0.50000000  0.50000000  1
  O  O0  1  0.00000000  0.25972000  0.74028000  1
  O  O1  1  0.00000000  0.74028000  0.25972000  1
  O  O2  1  0.48296800  0.21282000  0.21282000  1
  O  O3  1  0.51703200  0.78718000  0.78718000  1
  O  O4  1  0.09122500  0.69564800  0.69564800  1
  O  O5  1  0.90877500  0.30435200  0.30435200  1
loop_
_geom_bond_atom_site_label_1
_geom_bond_atom_site_label_2
_geom_bond_distance
_geom_bond_site_symmetry_2
Ni0 O2 2.083722 1_455
Ni0 O3 2.083722 1_544
Ni0 O4 2.086401 1_544
Ni0 O5 2.086401 1_455
Ni0 O0 2.114859 1_554
Ni0 O1 2.114859 1_545
O0 Te0 1.956562 1_555
O0 Sr0 2.807120 1_555
O0 Sr0 2.807120 1_455
O0 Sr1 2.809022 1_545
O0 Sr1 2.809022 1_456
O1 Te0 1.956562 1_555
O1 Sr1 2.807120 1_555
O1 Sr1 2.807120 1_455
O1 Sr0 2.809022 1_554
O1 Sr0 2.809022 1_465
O2 Te0 1.951206 1_555
O2 Sr1 2.604225 1_545
O2 Sr0 2.604225 1_554
O2 Sr1 3.108041 1_555
O2 Sr0 3.108041 1_555
O3 Te0 1.951206 1_655
O3 Sr1 2.604225 1_556
O3 Sr0 2.604225 1_565
O3 Sr1 3.108041 1_555
O3 Sr0 3.108041 1_555
O4 Te0 1.949388 1_555
O4 Sr0 2.603787 1_555
O4 Sr1 2.603787 1_555
O4 Sr0 3.107594 1_465
O4 Sr1 3.107594 1_456
O5 Te0 1.949388 1_655
O5 Sr1 2.603787 1_555
O5 Sr0 2.603787 1_555
O5 Sr0 3.107594 1_654
O5 Sr1 3.107594 1_645
