# generated using pymatgen
data_Zr5Sb3O
_symmetry_space_group_name_H-M   'P 1'
_cell_length_a   8.43574211
_cell_length_b   8.43574211
_cell_length_c   5.81730900
_cell_angle_alpha   90.00000000
_cell_angle_beta   90.00000000
_cell_angle_gamma   120.00000087
_symmetry_Int_Tables_number   1
_chemical_formula_structural   Zr5Sb3O
_chemical_formula_sum   'Zr10 Sb6 O2'
_cell_volume   358.50841153
_cell_formula_units_Z   2
loop_
 _symmetry_equiv_pos_site_id
 _symmetry_equiv_pos_as_xyz
  1  'x, y, z'
loop_
 _atom_site_type_symbol
 _atom_site_label
 _atom_site_symmetry_multiplicity
 _atom_site_fract_x
 _atom_site_fract_y
 _atom_site_fract_z
 _atom_site_occupancy
  Zr  Zr0  1  0.23005200  0.00000000  0.75000000  1
  Zr  Zr1  1  0.76994800  0.00000000  0.25000000  1
  Zr  Zr2  1  0.00000000  0.23005200  0.75000000  1
  Zr  Zr3  1  0.00000000  0.76994800  0.25000000  1
  Zr  Zr4  1  0.76994800  0.76994800  0.75000000  1
  Zr  Zr5  1  0.23005200  0.23005200  0.25000000  1
  Zr  Zr6  1  0.33333300  0.66666700  0.50000000  1
  Zr  Zr7  1  0.66666700  0.33333300  0.50000000  1
  Zr  Zr8  1  0.66666700  0.33333300  0.00000000  1
  Zr  Zr9  1  0.33333300  0.66666700  0.00000000  1
  Sb  Sb0  1  0.60077900  0.00000000  0.75000000  1
  Sb  Sb1  1  0.39922100  0.00000000  0.25000000  1
  Sb  Sb2  1  0.00000000  0.60077900  0.75000000  1
  Sb  Sb3  1  0.00000000  0.39922100  0.25000000  1
  Sb  Sb4  1  0.39922100  0.39922100  0.75000000  1
  Sb  Sb5  1  0.60077900  0.60077900  0.25000000  1
  O  O0  1  0.00000000  0.00000000  0.50000000  1
  O  O1  1  0.00000000  0.00000000  0.00000000  1
loop_
_geom_bond_atom_site_label_1
_geom_bond_atom_site_label_2
_geom_bond_distance
_geom_bond_site_symmetry_2
Sb0 Zr2 2.927819 1_655
Sb0 Zr4 2.927819 1_545
Sb0 Zr7 2.961071 1_555
Sb0 Zr8 2.961071 1_556
Sb0 Zr6 2.961073 1_545
Sb0 Zr9 2.961073 1_546
Sb0 Zr0 3.127357 1_555
Sb0 Zr1 3.239875 1_555
Sb0 Zr1 3.239875 1_556
Sb1 Zr3 2.927819 1_545
Sb1 Zr5 2.927819 1_555
Sb1 Zr6 2.961071 1_545
Sb1 Zr9 2.961071 1_545
Sb1 Zr7 2.961073 1_555
Sb1 Zr8 2.961073 1_555
Sb1 Zr1 3.127357 1_555
Sb1 Zr0 3.239875 1_555
Sb1 Zr0 3.239875 1_554
Sb2 Zr0 2.927819 1_565
Sb2 Zr4 2.927819 1_455
Sb2 Zr6 2.961071 1_555
Sb2 Zr9 2.961071 1_556
Sb2 Zr7 2.961073 1_455
Sb2 Zr8 2.961073 1_456
Sb2 Zr2 3.127357 1_555
Sb2 Zr3 3.239875 1_555
Sb2 Zr3 3.239875 1_556
Sb3 Zr1 2.927819 1_455
Sb3 Zr5 2.927819 1_555
Sb3 Zr7 2.961071 1_455
Sb3 Zr8 2.961071 1_455
Sb3 Zr6 2.961073 1_555
Sb3 Zr9 2.961073 1_555
Sb3 Zr3 3.127357 1_555
Sb3 Zr2 3.239875 1_554
Sb3 Zr2 3.239875 1_555
Sb4 Zr0 2.927819 1_555
Sb4 Zr2 2.927819 1_555
Sb4 Zr9 2.961078 1_556
Sb4 Zr6 2.961078 1_555
Sb4 Zr7 2.961078 1_555
Sb4 Zr8 2.961078 1_556
Sb4 Zr4 3.127357 1_555
Sb4 Zr5 3.239875 1_555
Sb4 Zr5 3.239875 1_556
Sb5 Zr1 2.927819 1_565
Sb5 Zr3 2.927819 1_655
Sb5 Zr9 2.961078 1_555
Sb5 Zr6 2.961078 1_555
Sb5 Zr7 2.961078 1_555
Sb5 Zr8 2.961078 1_555
Sb5 Zr5 3.127357 1_555
Sb5 Zr4 3.239875 1_555
Sb5 Zr4 3.239875 1_554
O0 Zr5 2.425124 1_555
O0 Zr4 2.425124 1_445
O0 Zr0 2.425124 1_555
O0 Zr2 2.425124 1_555
O0 Zr1 2.425124 1_455
O0 Zr3 2.425124 1_545
O1 Zr5 2.425124 1_555
O1 Zr4 2.425124 1_444
O1 Zr0 2.425124 1_554
O1 Zr2 2.425124 1_554
O1 Zr1 2.425124 1_455
O1 Zr3 2.425124 1_545
