# generated using pymatgen
data_CsAlPdF6
_symmetry_space_group_name_H-M   'P 1'
_cell_length_a   7.27979300
_cell_length_b   7.62421100
_cell_length_c   10.44765400
_cell_angle_alpha   90.00000000
_cell_angle_beta   90.00000000
_cell_angle_gamma   90.00000000
_symmetry_Int_Tables_number   1
_chemical_formula_structural   CsAlPdF6
_chemical_formula_sum   'Cs4 Al4 Pd4 F24'
_cell_volume   579.87277444
_cell_formula_units_Z   4
loop_
 _symmetry_equiv_pos_site_id
 _symmetry_equiv_pos_as_xyz
  1  'x, y, z'
loop_
 _atom_site_type_symbol
 _atom_site_label
 _atom_site_symmetry_multiplicity
 _atom_site_fract_x
 _atom_site_fract_y
 _atom_site_fract_z
 _atom_site_occupancy
  Cs  Cs0  1  0.25000000  0.99550600  0.63973600  1
  Cs  Cs1  1  0.75000000  0.00449400  0.36026400  1
  Cs  Cs2  1  0.25000000  0.49550600  0.86026400  1
  Cs  Cs3  1  0.75000000  0.50449400  0.13973600  1
  Al  Al0  1  0.00000000  0.50000000  0.50000000  1
  Al  Al1  1  0.50000000  0.50000000  0.50000000  1
  Al  Al2  1  0.50000000  0.00000000  0.00000000  1
  Al  Al3  1  0.00000000  0.00000000  0.00000000  1
  Pd  Pd0  1  0.25000000  0.75554800  0.25240900  1
  Pd  Pd1  1  0.75000000  0.24445200  0.74759100  1
  Pd  Pd2  1  0.25000000  0.25554800  0.24759100  1
  Pd  Pd3  1  0.75000000  0.74445200  0.75240900  1
  F  F0  1  0.97826200  0.32406900  0.61746400  1
  F  F1  1  0.47826200  0.67593100  0.38253600  1
  F  F2  1  0.52173800  0.82406900  0.88253600  1
  F  F3  1  0.02173800  0.17593100  0.11746400  1
  F  F4  1  0.02173800  0.67593100  0.38253600  1
  F  F5  1  0.52173800  0.32406900  0.61746400  1
  F  F6  1  0.47826200  0.17593100  0.11746400  1
  F  F7  1  0.97826200  0.82406900  0.88253600  1
  F  F8  1  0.98371400  0.16298500  0.87275100  1
  F  F9  1  0.48371400  0.83701500  0.12724900  1
  F  F10  1  0.51628600  0.66298500  0.62724900  1
  F  F11  1  0.01628600  0.33701500  0.37275100  1
  F  F12  1  0.75000000  0.99276500  0.64874100  1
  F  F13  1  0.25000000  0.00723500  0.35125900  1
  F  F14  1  0.75000000  0.49276500  0.85125900  1
  F  F15  1  0.25000000  0.50723500  0.14874100  1
  F  F16  1  0.75000000  0.00537600  0.02414000  1
  F  F17  1  0.25000000  0.99462400  0.97586000  1
  F  F18  1  0.75000000  0.50537600  0.47586000  1
  F  F19  1  0.25000000  0.49462400  0.52414000  1
  F  F20  1  0.98371400  0.66298500  0.62724900  1
  F  F21  1  0.48371400  0.33701500  0.37275100  1
  F  F22  1  0.51628600  0.16298500  0.87275100  1
  F  F23  1  0.01628600  0.83701500  0.12724900  1
loop_
_geom_bond_atom_site_label_1
_geom_bond_atom_site_label_2
_geom_bond_distance
_geom_bond_site_symmetry_2
Cs0 F13 3.015234 1_565
Cs0 F10 3.194076 1_555
Cs0 F20 3.194076 1_455
Cs0 F5 3.200406 1_565
Cs0 F0 3.200406 1_465
Cs0 F22 3.363758 1_565
Cs0 F8 3.363758 1_465
Cs0 F2 3.472247 1_555
Cs0 F7 3.472247 1_455
Cs0 F17 3.511714 1_555
Cs0 F12 3.641172 1_555
Cs0 F12 3.641172 1_455
Cs1 F12 3.015234 1_545
Cs1 F11 3.194076 1_655
Cs1 F21 3.194076 1_555
Cs1 F4 3.200406 1_645
Cs1 F1 3.200406 1_545
Cs1 F9 3.363758 1_545
Cs1 F23 3.363758 1_645
Cs1 F3 3.472247 1_655
Cs1 F6 3.472247 1_555
Cs1 F16 3.511714 1_555
Cs1 F13 3.641172 1_555
Cs1 F13 3.641172 1_655
Cs2 F15 3.015234 1_556
Cs2 F8 3.194076 1_455
Cs2 F22 3.194076 1_555
Cs2 F2 3.200406 1_555
Cs2 F7 3.200406 1_455
Cs2 F20 3.363758 1_455
Cs2 F10 3.363758 1_555
Cs2 F5 3.472247 1_555
Cs2 F0 3.472247 1_455
Cs2 F19 3.511714 1_555
Cs2 F14 3.641172 1_455
Cs2 F14 3.641172 1_555
Cs3 F14 3.015234 1_554
Cs3 F23 3.194076 1_655
Cs3 F9 3.194076 1_555
Cs3 F3 3.200406 1_655
Cs3 F6 3.200406 1_555
Cs3 F21 3.363758 1_555
Cs3 F11 3.363758 1_655
Cs3 F4 3.472247 1_655
Cs3 F1 3.472247 1_555
Cs3 F18 3.511714 1_555
Cs3 F15 3.641172 1_555
Cs3 F15 3.641172 1_655
Al0 F20 1.823633 1_455
Al0 F11 1.823633 1_555
Al0 F4 1.824911 1_555
Al0 F0 1.824911 1_455
Al0 F18 1.837798 1_455
Al0 F19 1.837798 1_555
Al1 F10 1.823633 1_555
Al1 F21 1.823633 1_555
Al1 F5 1.824911 1_555
Al1 F1 1.824911 1_555
Al1 F18 1.837798 1_555
Al1 F19 1.837798 1_555
Al2 F9 1.823633 1_545
Al2 F22 1.823633 1_554
Al2 F6 1.824911 1_555
Al2 F2 1.824911 1_544
Al2 F17 1.837798 1_544
Al2 F16 1.837798 1_555
Al3 F23 1.823633 1_545
Al3 F8 1.823633 1_454
Al3 F3 1.824911 1_555
Al3 F7 1.824911 1_444
Al3 F17 1.837798 1_544
Al3 F16 1.837798 1_455
F0 Pd1 2.231147 1_555
F1 Pd0 2.231147 1_555
F2 Pd3 2.231147 1_555
F3 Pd2 2.231147 1_555
F4 Pd0 2.231147 1_555
F5 Pd1 2.231147 1_555
F6 Pd2 2.231147 1_555
F7 Pd3 2.231147 1_555
F8 Pd1 2.233923 1_555
F9 Pd0 2.233923 1_555
F10 Pd3 2.233923 1_555
F11 Pd2 2.233923 1_555
F12 Pd1 2.179176 1_565
F12 Pd3 2.181112 1_555
F13 Pd0 2.179176 1_545
F13 Pd2 2.181112 1_555
F14 Pd3 2.179176 1_555
F14 Pd1 2.181112 1_555
F15 Pd2 2.179176 1_555
F15 Pd0 2.181112 1_555
F20 Pd3 2.233923 1_555
F21 Pd2 2.233923 1_555
F22 Pd1 2.233923 1_555
F23 Pd0 2.233923 1_555
