# generated using pymatgen
data_Mg6Si5
_symmetry_space_group_name_H-M   'P 1'
_cell_length_a   5.35687800
_cell_length_b   6.09099700
_cell_length_c   13.72759363
_cell_angle_alpha   100.96952847
_cell_angle_beta   94.93263032
_cell_angle_gamma   98.41722730
_symmetry_Int_Tables_number   1
_chemical_formula_structural   Mg6Si5
_chemical_formula_sum   'Mg12 Si10'
_cell_volume   431.99440228
_cell_formula_units_Z   2
loop_
 _symmetry_equiv_pos_site_id
 _symmetry_equiv_pos_as_xyz
  1  'x, y, z'
loop_
 _atom_site_type_symbol
 _atom_site_label
 _atom_site_symmetry_multiplicity
 _atom_site_fract_x
 _atom_site_fract_y
 _atom_site_fract_z
 _atom_site_occupancy
  Mg  Mg0  1  0.83296000  0.53609800  0.08132200  1
  Mg  Mg1  1  0.88758800  0.23369000  0.46806600  1
  Mg  Mg2  1  0.62002100  0.90424400  0.72216200  1
  Mg  Mg3  1  0.68194000  0.41649800  0.29350900  1
  Mg  Mg4  1  0.52562400  0.87370900  0.25814700  1
  Mg  Mg5  1  0.79203400  0.46173800  0.84190900  1
  Mg  Mg6  1  0.46778200  0.34174800  0.60732000  1
  Mg  Mg7  1  0.40254900  0.79050900  0.48758200  1
  Mg  Mg8  1  0.04120800  0.06948900  0.17451600  1
  Mg  Mg9  1  0.81002200  0.99496200  0.95046700  1
  Mg  Mg10  1  0.28242500  0.73838200  0.99509100  1
  Mg  Mg11  1  0.34353300  0.23914600  0.92605600  1
  Si  Si0  1  0.01865800  0.85087300  0.34384600  1
  Si  Si1  1  0.86851400  0.70089700  0.49834500  1
  Si  Si2  1  0.11052100  0.85182600  0.80498300  1
  Si  Si3  1  0.33317800  0.45875800  0.13187600  1
  Si  Si4  1  0.34694600  0.19212300  0.39948100  1
  Si  Si5  1  0.12856700  0.93638300  0.64303400  1
  Si  Si6  1  0.96292800  0.27954200  0.66650700  1
  Si  Si7  1  0.19366400  0.48603200  0.30777200  1
  Si  Si8  1  0.54418500  0.12474500  0.10798500  1
  Si  Si9  1  0.29816800  0.51882100  0.78654500  1
loop_
_geom_bond_atom_site_label_1
_geom_bond_atom_site_label_2
_geom_bond_distance
_geom_bond_site_symmetry_2
Mg0 Si3 2.818867 1_555
Mg0 Si3 2.838661 1_655
Mg0 Si8 2.848933 1_555
Mg1 Si6 2.673966 1_555
Mg1 Si4 2.737845 1_655
Mg1 Si1 2.814925 1_555
Mg1 Si0 2.830159 1_645
Mg1 Si4 2.926420 1_555
Mg2 Si5 2.808764 1_555
Mg2 Si2 2.858074 1_655
Mg2 Si6 2.976601 1_565
Mg2 Si5 3.012189 1_655
Mg2 Si9 3.021879 1_555
Mg2 Si2 3.043100 1_555
Mg3 Si7 2.695992 1_655
Mg3 Si7 2.727654 1_555
Mg3 Si4 2.773433 1_555
Mg3 Si8 2.785530 1_555
Mg3 Si3 2.850474 1_555
Mg3 Si0 2.902393 1_655
Mg3 Si1 3.010409 1_555
Mg4 Si3 2.778141 1_555
Mg4 Si8 2.790593 1_565
Mg4 Si4 2.805833 1_565
Mg4 Si0 2.830970 1_655
Mg4 Si7 2.965373 1_555
Mg4 Si0 3.046276 1_555
Mg5 Si6 2.743520 1_555
Mg5 Si9 2.778794 1_555
Mg5 Si9 2.868553 1_655
Mg5 Si2 2.869413 1_655
Mg6 Si9 2.775515 1_555
Mg6 Si6 2.807117 1_555
Mg6 Si4 2.812480 1_555
Mg6 Si6 2.883185 1_455
Mg6 Si5 2.989825 1_545
Mg7 Si1 2.629924 1_555
Mg7 Si5 2.774210 1_555
Mg7 Si7 2.821281 1_555
Mg7 Si0 2.838518 1_555
Mg7 Si1 2.854811 1_455
Mg7 Si4 2.968626 1_565
Mg8 Si7 2.796534 1_555
Mg8 Si8 2.827972 1_455
Mg8 Si3 2.830306 1_555
Mg8 Si0 2.893124 1_545
Mg8 Si8 2.912355 1_555
Mg9 Si8 2.745386 1_566
Mg9 Si2 2.764240 1_655
Mg10 Si8 2.679251 1_566
Mg10 Si3 2.786671 1_556
Mg10 Si2 2.931795 1_555
Mg10 Si9 2.934093 1_555
Mg11 Si2 2.678614 1_545
Mg11 Si9 2.812745 1_555
Mg11 Si8 2.880638 1_556
Mg11 Si3 2.895804 1_556
Si0 Si4 2.468012 1_565
Si0 Si7 2.516630 1_555
Si0 Si1 2.606760 1_455
Si1 Si5 2.407918 1_655
Si2 Si9 2.373585 1_555
Si2 Si5 2.382276 1_555
Si3 Si8 2.450993 1_555
Si3 Si7 2.571108 1_555
Si4 Si7 2.564035 1_555
Si5 Si6 2.365547 1_465
Si6 Si9 2.423922 1_655
