# generated using pymatgen
data_HfHg4(PCl3)2
_symmetry_space_group_name_H-M   'P 1'
_cell_length_a   13.32101700
_cell_length_b   13.58449300
_cell_length_c   16.53221300
_cell_angle_alpha   90.00000000
_cell_angle_beta   90.00000000
_cell_angle_gamma   90.00000000
_symmetry_Int_Tables_number   1
_chemical_formula_structural   HfHg4(PCl3)2
_chemical_formula_sum   'Hf8 Hg32 P16 Cl48'
_cell_volume   2991.65706684
_cell_formula_units_Z   8
loop_
 _symmetry_equiv_pos_site_id
 _symmetry_equiv_pos_as_xyz
  1  'x, y, z'
loop_
 _atom_site_type_symbol
 _atom_site_label
 _atom_site_symmetry_multiplicity
 _atom_site_fract_x
 _atom_site_fract_y
 _atom_site_fract_z
 _atom_site_occupancy
  Hf  Hf0  1  0.30135300  0.48945500  0.11314100  1
  Hf  Hf1  1  0.80135300  0.01054500  0.88685900  1
  Hf  Hf2  1  0.69864700  0.98945500  0.38685900  1
  Hf  Hf3  1  0.19864700  0.51054500  0.61314100  1
  Hf  Hf4  1  0.69864700  0.51054500  0.88685900  1
  Hf  Hf5  1  0.19864700  0.98945500  0.11314100  1
  Hf  Hf6  1  0.30135300  0.01054500  0.61314100  1
  Hf  Hf7  1  0.80135300  0.48945500  0.38685900  1
  Hg  Hg0  1  0.23129800  0.23712800  0.87239600  1
  Hg  Hg1  1  0.73129800  0.26287200  0.12760400  1
  Hg  Hg2  1  0.76870200  0.73712800  0.62760400  1
  Hg  Hg3  1  0.26870200  0.76287200  0.37239600  1
  Hg  Hg4  1  0.76870200  0.76287200  0.12760400  1
  Hg  Hg5  1  0.26870200  0.73712800  0.87239600  1
  Hg  Hg6  1  0.23129800  0.26287200  0.37239600  1
  Hg  Hg7  1  0.73129800  0.23712800  0.62760400  1
  Hg  Hg8  1  0.47938900  0.20715200  0.00492300  1
  Hg  Hg9  1  0.97938900  0.29284800  0.99507700  1
  Hg  Hg10  1  0.52061100  0.70715200  0.49507700  1
  Hg  Hg11  1  0.02061100  0.79284800  0.50492300  1
  Hg  Hg12  1  0.52061100  0.79284800  0.99507700  1
  Hg  Hg13  1  0.02061100  0.70715200  0.00492300  1
  Hg  Hg14  1  0.47938900  0.29284800  0.50492300  1
  Hg  Hg15  1  0.97938900  0.20715200  0.49507700  1
  Hg  Hg16  1  0.48002800  0.24576900  0.75385400  1
  Hg  Hg17  1  0.98002800  0.25423100  0.24614600  1
  Hg  Hg18  1  0.51997200  0.74576900  0.74614600  1
  Hg  Hg19  1  0.01997200  0.75423100  0.25385400  1
  Hg  Hg20  1  0.51997200  0.75423100  0.24614600  1
  Hg  Hg21  1  0.01997200  0.74576900  0.75385400  1
  Hg  Hg22  1  0.48002800  0.25423100  0.25385400  1
  Hg  Hg23  1  0.98002800  0.24576900  0.74614600  1
  Hg  Hg24  1  0.41033800  0.99229900  0.85504800  1
  Hg  Hg25  1  0.91033800  0.50770100  0.14495200  1
  Hg  Hg26  1  0.58966200  0.49229900  0.64495200  1
  Hg  Hg27  1  0.08966200  0.00770100  0.35504800  1
  Hg  Hg28  1  0.58966200  0.00770100  0.14495200  1
  Hg  Hg29  1  0.08966200  0.49229900  0.85504800  1
  Hg  Hg30  1  0.41033800  0.50770100  0.35504800  1
  Hg  Hg31  1  0.91033800  0.99229900  0.64495200  1
  P  P0  1  0.40149200  0.17204100  0.87309800  1
  P  P1  1  0.90149200  0.32795900  0.12690200  1
  P  P2  1  0.59850800  0.67204100  0.62690200  1
  P  P3  1  0.09850800  0.82795900  0.37309800  1
  P  P4  1  0.59850800  0.82795900  0.12690200  1
  P  P5  1  0.09850800  0.67204100  0.87309800  1
  P  P6  1  0.40149200  0.32795900  0.37309800  1
  P  P7  1  0.90149200  0.17204100  0.62690200  1
  P  P8  1  0.06502700  0.31273700  0.86474400  1
  P  P9  1  0.56502700  0.18726300  0.13525600  1
  P  P10  1  0.93497300  0.81273700  0.63525600  1
  P  P11  1  0.43497300  0.68726300  0.36474400  1
  P  P12  1  0.93497300  0.68726300  0.13525600  1
  P  P13  1  0.43497300  0.81273700  0.86474400  1
  P  P14  1  0.06502700  0.18726300  0.36474400  1
  P  P15  1  0.56502700  0.31273700  0.63525600  1
  Cl  Cl0  1  0.12888700  0.48802700  0.05330700  1
  Cl  Cl1  1  0.62888700  0.01197300  0.94669300  1
  Cl  Cl2  1  0.87111300  0.98802700  0.44669300  1
  Cl  Cl3  1  0.37111300  0.51197300  0.55330700  1
  Cl  Cl4  1  0.87111300  0.51197300  0.94669300  1
  Cl  Cl5  1  0.37111300  0.98802700  0.05330700  1
  Cl  Cl6  1  0.12888700  0.01197300  0.55330700  1
  Cl  Cl7  1  0.62888700  0.48802700  0.44669300  1
  Cl  Cl8  1  0.35924900  0.40283000  0.99122400  1
  Cl  Cl9  1  0.85924900  0.09717000  0.00877600  1
  Cl  Cl10  1  0.64075100  0.90283000  0.50877600  1
  Cl  Cl11  1  0.14075100  0.59717000  0.49122400  1
  Cl  Cl12  1  0.64075100  0.59717000  0.00877600  1
  Cl  Cl13  1  0.14075100  0.90283000  0.99122400  1
  Cl  Cl14  1  0.35924900  0.09717000  0.49122400  1
  Cl  Cl15  1  0.85924900  0.40283000  0.50877600  1
  Cl  Cl16  1  0.47074400  0.48893900  0.17186600  1
  Cl  Cl17  1  0.97074400  0.01106100  0.82813400  1
  Cl  Cl18  1  0.52925600  0.98893900  0.32813400  1
  Cl  Cl19  1  0.02925600  0.51106100  0.67186600  1
  Cl  Cl20  1  0.52925600  0.51106100  0.82813400  1
  Cl  Cl21  1  0.02925600  0.98893900  0.17186600  1
  Cl  Cl22  1  0.47074400  0.01106100  0.67186600  1
  Cl  Cl23  1  0.97074400  0.48893900  0.32813400  1
  Cl  Cl24  1  0.22920300  0.57047200  0.23325600  1
  Cl  Cl25  1  0.72920300  0.92952800  0.76674400  1
  Cl  Cl26  1  0.77079700  0.07047200  0.26674400  1
  Cl  Cl27  1  0.27079700  0.42952800  0.73325600  1
  Cl  Cl28  1  0.77079700  0.42952800  0.76674400  1
  Cl  Cl29  1  0.27079700  0.07047200  0.23325600  1
  Cl  Cl30  1  0.22920300  0.92952800  0.73325600  1
  Cl  Cl31  1  0.72920300  0.57047200  0.26674400  1
  Cl  Cl32  1  0.26683700  0.33084000  0.17814000  1
  Cl  Cl33  1  0.76683700  0.16916000  0.82186000  1
  Cl  Cl34  1  0.73316300  0.83084000  0.32186000  1
  Cl  Cl35  1  0.23316300  0.66916000  0.67814000  1
  Cl  Cl36  1  0.73316300  0.66916000  0.82186000  1
  Cl  Cl37  1  0.23316300  0.83084000  0.17814000  1
  Cl  Cl38  1  0.26683700  0.16916000  0.67814000  1
  Cl  Cl39  1  0.76683700  0.33084000  0.32186000  1
  Cl  Cl40  1  0.33488500  0.64860000  0.04800700  1
  Cl  Cl41  1  0.83488500  0.85140000  0.95199300  1
  Cl  Cl42  1  0.66511500  0.14860000  0.45199300  1
  Cl  Cl43  1  0.16511500  0.35140000  0.54800700  1
  Cl  Cl44  1  0.66511500  0.35140000  0.95199300  1
  Cl  Cl45  1  0.16511500  0.14860000  0.04800700  1
  Cl  Cl46  1  0.33488500  0.85140000  0.54800700  1
  Cl  Cl47  1  0.83488500  0.64860000  0.45199300  1
loop_
_geom_bond_atom_site_label_1
_geom_bond_atom_site_label_2
_geom_bond_distance
_geom_bond_site_symmetry_2
Hg0 P0 2.433495 1_555
Hg0 P8 2.444736 1_555
Hg1 P1 2.433495 1_555
Hg1 P9 2.444736 1_555
Hg2 P2 2.433495 1_555
Hg2 P10 2.444736 1_555
Hg3 P3 2.433495 1_555
Hg3 P11 2.444736 1_555
Hg4 P4 2.433495 1_555
Hg4 P12 2.444736 1_555
Hg5 P5 2.433495 1_555
Hg5 P13 2.444736 1_555
Hg6 P6 2.433495 1_555
Hg6 P14 2.444736 1_555
Hg7 P7 2.433495 1_555
Hg7 P15 2.444736 1_555
Hg8 P9 2.452976 1_555
Hg8 P0 2.460458 1_554
Hg9 P8 2.452976 1_655
Hg9 P1 2.460458 1_556
Hg10 P11 2.452976 1_555
Hg10 P2 2.460458 1_555
Hg11 P10 2.452976 1_455
Hg11 P3 2.460458 1_555
Hg12 P13 2.452976 1_555
Hg12 P4 2.460458 1_556
Hg13 P12 2.452976 1_455
Hg13 P5 2.460458 1_554
Hg14 P15 2.452976 1_555
Hg14 P6 2.460458 1_555
Hg15 P14 2.452976 1_655
Hg15 P7 2.460458 1_555
Hg16 P15 2.440070 1_555
Hg16 P0 2.446201 1_555
Hg17 P14 2.440070 1_655
Hg17 P1 2.446201 1_555
Hg18 P13 2.440070 1_555
Hg18 P2 2.446201 1_555
Hg19 P12 2.440070 1_455
Hg19 P3 2.446201 1_555
Hg20 P11 2.440070 1_555
Hg20 P4 2.446201 1_555
Hg21 P10 2.440070 1_455
Hg21 P5 2.446201 1_555
Hg22 P9 2.440070 1_555
Hg22 P6 2.446201 1_555
Hg23 P8 2.440070 1_655
Hg23 P7 2.446201 1_555
Hg24 P0 2.462692 1_565
Hg24 P13 2.466449 1_555
Hg25 P1 2.462692 1_555
Hg25 P12 2.466449 1_555
Hg26 P2 2.462692 1_555
Hg26 P15 2.466449 1_555
Hg27 P3 2.462692 1_545
Hg27 P14 2.466449 1_555
Hg28 P4 2.462692 1_545
Hg28 P9 2.466449 1_555
Hg29 P5 2.462692 1_555
Hg29 P8 2.466449 1_555
Hg30 P6 2.462692 1_555
Hg30 P11 2.466449 1_555
Hg31 P7 2.462692 1_565
Hg31 P10 2.466449 1_555
Cl0 Hf0 2.501404 1_555
Cl1 Hf1 2.501404 1_555
Cl2 Hf2 2.501404 1_555
Cl3 Hf3 2.501404 1_555
Cl4 Hf4 2.501404 1_555
Cl5 Hf5 2.501404 1_555
Cl6 Hf6 2.501404 1_555
Cl7 Hf7 2.501404 1_555
Cl8 Hf0 2.458054 1_556
Cl9 Hf1 2.458054 1_554
Cl10 Hf2 2.458054 1_555
Cl11 Hf3 2.458054 1_555
Cl12 Hf4 2.458054 1_554
Cl13 Hf5 2.458054 1_556
Cl14 Hf6 2.458054 1_555
Cl15 Hf7 2.458054 1_555
Cl16 Hf0 2.456465 1_555
Cl17 Hf1 2.456465 1_555
Cl18 Hf2 2.456465 1_555
Cl19 Hf3 2.456465 1_555
Cl20 Hf4 2.456465 1_555
Cl21 Hf5 2.456465 1_555
Cl22 Hf6 2.456465 1_555
Cl23 Hf7 2.456465 1_555
Cl24 Hf0 2.465415 1_555
Cl25 Hf1 2.465415 1_565
Cl26 Hf2 2.465415 1_545
Cl27 Hf3 2.465415 1_555
Cl28 Hf4 2.465415 1_555
Cl29 Hf5 2.465415 1_545
Cl30 Hf6 2.465415 1_565
Cl31 Hf7 2.465415 1_555
Cl32 Hf0 2.451300 1_555
Cl33 Hf1 2.451300 1_555
Cl34 Hf2 2.451300 1_555
Cl35 Hf3 2.451300 1_555
Cl36 Hf4 2.451300 1_555
Cl37 Hf5 2.451300 1_555
Cl38 Hf6 2.451300 1_555
Cl39 Hf7 2.451300 1_555
Cl40 Hf0 2.456190 1_555
Cl41 Hf1 2.456190 1_565
Cl42 Hf2 2.456190 1_545
Cl43 Hf3 2.456190 1_555
Cl44 Hf4 2.456190 1_555
Cl45 Hf5 2.456190 1_545
Cl46 Hf6 2.456190 1_565
Cl47 Hf7 2.456190 1_555
