# generated using pymatgen
data_Mg6AlSb
_symmetry_space_group_name_H-M   'P 1'
_cell_length_a   5.21528126
_cell_length_b   6.17879869
_cell_length_c   10.77821002
_cell_angle_alpha   90.00000000
_cell_angle_beta   90.00000000
_cell_angle_gamma   90.00000000
_symmetry_Int_Tables_number   1
_chemical_formula_structural   Mg6AlSb
_chemical_formula_sum   'Mg12 Al2 Sb2'
_cell_volume   347.31890450
_cell_formula_units_Z   2
loop_
 _symmetry_equiv_pos_site_id
 _symmetry_equiv_pos_as_xyz
  1  'x, y, z'
loop_
 _atom_site_type_symbol
 _atom_site_label
 _atom_site_symmetry_multiplicity
 _atom_site_fract_x
 _atom_site_fract_y
 _atom_site_fract_z
 _atom_site_occupancy
  Mg  Mg0  1  -0.00000000  0.24952974  0.08501716  1
  Mg  Mg1  1  -0.00000000  0.75047026  0.08501716  1
  Mg  Mg2  1  -0.00000000  0.00000000  0.33143659  1
  Mg  Mg3  1  0.50000000  0.74711458  0.41281826  1
  Mg  Mg4  1  0.50000000  0.25288542  0.41281826  1
  Mg  Mg5  1  0.50000000  0.00000000  0.16769881  1
  Mg  Mg6  1  -0.00000000  0.74952974  0.58501716  1
  Mg  Mg7  1  -0.00000000  0.25047026  0.58501716  1
  Mg  Mg8  1  -0.00000000  0.50000000  0.83143659  1
  Mg  Mg9  1  0.50000000  0.24711458  0.91281826  1
  Mg  Mg10  1  0.50000000  0.75288542  0.91281826  1
  Mg  Mg11  1  0.50000000  0.50000000  0.66769881  1
  Al  Al0  1  -0.00000000  0.50000000  0.34206099  1
  Al  Al1  1  -0.00000000  0.00000000  0.84206099  1
  Sb  Sb0  1  0.50000000  0.50000000  0.16313277  1
  Sb  Sb1  1  0.50000000  0.00000000  0.66313277  1
loop_
_geom_bond_atom_site_label_1
_geom_bond_atom_site_label_2
_geom_bond_distance
_geom_bond_site_symmetry_2
Mg0 Mg2 3.071035 1_555
Mg0 Mg1 3.083588 1_545
Mg0 Mg1 3.095211 1_555
Mg0 Mg8 3.140886 1_554
Mg0 Sb0 3.147022 1_555
Mg0 Sb0 3.147022 1_455
Mg0 Mg5 3.157702 1_555
Mg0 Mg5 3.157702 1_455
Mg0 Mg9 3.200739 1_454
Mg0 Mg9 3.200739 1_554
Mg1 Mg2 3.071035 1_565
Mg1 Mg8 3.140886 1_554
Mg1 Sb0 3.147022 1_555
Mg1 Sb0 3.147022 1_455
Mg1 Mg5 3.157702 1_465
Mg1 Mg5 3.157702 1_565
Mg1 Mg10 3.200739 1_454
Mg1 Mg10 3.200739 1_554
Mg2 Mg6 3.140886 1_545
Mg2 Mg7 3.140886 1_555
Mg2 Mg5 3.148700 1_455
Mg2 Mg5 3.148700 1_555
Mg2 Mg3 3.163965 1_545
Mg2 Mg3 3.163965 1_445
Mg2 Mg4 3.163965 1_555
Mg2 Mg4 3.163965 1_455
Mg3 Mg4 3.053742 1_555
Mg3 Mg5 3.069428 1_565
Mg3 Sb0 3.094138 1_555
Mg3 Sb1 3.117754 1_565
Mg3 Mg4 3.125056 1_565
Mg3 Mg6 3.200739 1_555
Mg3 Mg6 3.200739 1_655
Mg4 Mg5 3.069428 1_555
Mg4 Sb0 3.094138 1_555
Mg4 Sb1 3.117754 1_555
Mg4 Mg7 3.200739 1_555
Mg4 Mg7 3.200739 1_655
Mg5 Sb0 3.089791 1_545
Mg5 Sb0 3.089791 1_555
Mg5 Mg9 3.142961 1_554
Mg6 Mg8 3.071035 1_555
Mg6 Mg7 3.083588 1_555
Mg6 Mg7 3.095211 1_565
Mg6 Sb1 3.147022 1_465
Mg6 Sb1 3.147022 1_565
Mg7 Mg8 3.071035 1_555
Mg7 Sb1 3.147022 1_455
Mg7 Sb1 3.147022 1_555
Mg8 Mg9 3.163965 1_555
Mg8 Mg9 3.163965 1_455
Mg9 Sb1 3.094138 1_555
Mg9 Sb0 3.117754 1_556
Mg10 Mg9 3.053742 1_565
Mg10 Mg11 3.069428 1_555
Mg10 Sb1 3.094138 1_565
Mg10 Sb0 3.117754 1_556
Mg10 Mg9 3.125056 1_555
Mg10 Mg5 3.142961 1_566
Mg10 Mg8 3.163965 1_555
Mg10 Mg8 3.163965 1_655
Mg11 Mg9 3.069428 1_555
Mg11 Sb1 3.089791 1_555
Mg11 Sb1 3.089791 1_565
Mg11 Mg4 3.142961 1_555
Mg11 Mg3 3.142961 1_555
Mg11 Mg8 3.148700 1_655
Mg11 Mg8 3.148700 1_555
Mg11 Mg6 3.157702 1_555
Mg11 Mg7 3.157702 1_555
Mg11 Mg6 3.157702 1_655
Mg11 Mg7 3.157702 1_655
Al0 Mg7 3.038810 1_555
Al0 Mg6 3.038810 1_555
Al0 Mg2 3.091521 1_565
Al0 Mg2 3.091521 1_555
Al0 Mg3 3.116527 1_455
Al0 Mg4 3.116527 1_455
Al0 Mg3 3.116527 1_555
Al0 Mg4 3.116527 1_555
Al0 Mg1 3.173421 1_555
Al0 Mg0 3.173421 1_555
Al0 Sb0 3.243301 1_455
Al0 Sb0 3.243301 1_555
Al1 Mg1 3.038810 1_546
Al1 Mg0 3.038810 1_556
Al1 Mg8 3.091521 1_545
Al1 Mg8 3.091521 1_555
Al1 Mg10 3.116527 1_545
Al1 Mg10 3.116527 1_445
Al1 Mg9 3.116527 1_555
Al1 Mg9 3.116527 1_455
Al1 Mg6 3.173421 1_545
Al1 Mg7 3.173421 1_555
Al1 Sb1 3.243301 1_455
Al1 Sb1 3.243301 1_555
