# generated using pymatgen
data_Li2MnCoO4
_symmetry_space_group_name_H-M   'P 1'
_cell_length_a   3.03508811
_cell_length_b   3.03508811
_cell_length_c   9.82026671
_cell_angle_alpha   83.98181122
_cell_angle_beta   83.98181122
_cell_angle_gamma   57.21535391
_symmetry_Int_Tables_number   1
_chemical_formula_structural   Li2MnCoO4
_chemical_formula_sum   'Li2 Mn1 Co1 O4'
_cell_volume   75.50813701
_cell_formula_units_Z   1
loop_
 _symmetry_equiv_pos_site_id
 _symmetry_equiv_pos_as_xyz
  1  'x, y, z'
loop_
 _atom_site_type_symbol
 _atom_site_label
 _atom_site_symmetry_multiplicity
 _atom_site_fract_x
 _atom_site_fract_y
 _atom_site_fract_z
 _atom_site_occupancy
  Li  Li0  1  0.25091900  0.25091900  0.24711900  1
  Li  Li1  1  0.74908100  0.74908100  0.75288100  1
  Mn  Mn0  1  0.50000000  0.50000000  0.50000000  1
  Co  Co0  1  0.00000000  0.00000000  0.00000000  1
  O  O0  1  0.62838700  0.62838700  0.11312700  1
  O  O1  1  0.10435700  0.10435700  0.61624400  1
  O  O2  1  0.89564300  0.89564300  0.38375600  1
  O  O3  1  0.37161300  0.37161300  0.88687300  1
loop_
_geom_bond_atom_site_label_1
_geom_bond_atom_site_label_2
_geom_bond_distance
_geom_bond_site_symmetry_2
Li0 O0 2.115400 1_545
Li0 O0 2.115400 1_455
Li0 O2 2.180445 1_545
Li0 O2 2.180445 1_455
Li0 O2 2.185931 1_445
Li0 O0 2.268402 1_555
Li1 O3 2.115400 1_565
Li1 O3 2.115400 1_655
Li1 O1 2.180445 1_655
Li1 O1 2.180445 1_565
Li1 O1 2.185931 1_665
Li1 O3 2.268402 1_555
Mn0 O1 1.968735 1_565
Mn0 O2 1.968735 1_545
Mn0 O2 1.968735 1_455
Mn0 O1 1.968735 1_655
Mn0 O2 2.274584 1_555
Mn0 O1 2.274584 1_555
Co0 O3 1.998929 1_544
Co0 O3 1.998929 1_454
Co0 O0 1.998929 1_545
Co0 O0 1.998929 1_455
Co0 O3 2.151876 1_554
Co0 O0 2.151876 1_445
