# generated using pymatgen
data_Ag7AsS6
_symmetry_space_group_name_H-M   'P 1'
_cell_length_a   10.64731900
_cell_length_b   10.64731900
_cell_length_c   10.64731900
_cell_angle_alpha   90.00000000
_cell_angle_beta   90.00000000
_cell_angle_gamma   90.00000000
_symmetry_Int_Tables_number   1
_chemical_formula_structural   Ag7AsS6
_chemical_formula_sum   'Ag28 As4 S24'
_cell_volume   1207.03759746
_cell_formula_units_Z   4
loop_
 _symmetry_equiv_pos_site_id
 _symmetry_equiv_pos_as_xyz
  1  'x, y, z'
loop_
 _atom_site_type_symbol
 _atom_site_label
 _atom_site_symmetry_multiplicity
 _atom_site_fract_x
 _atom_site_fract_y
 _atom_site_fract_z
 _atom_site_occupancy
  Ag  Ag0  1  0.14912200  0.17698900  0.48868500  1
  Ag  Ag1  1  0.64912200  0.32301100  0.51131500  1
  Ag  Ag2  1  0.85087800  0.67698900  0.01131500  1
  Ag  Ag3  1  0.32301100  0.51131500  0.64912200  1
  Ag  Ag4  1  0.01131500  0.85087800  0.67698900  1
  Ag  Ag5  1  0.51131500  0.64912200  0.32301100  1
  Ag  Ag6  1  0.17698900  0.48868500  0.14912200  1
  Ag  Ag7  1  0.48868500  0.14912200  0.17698900  1
  Ag  Ag8  1  0.67698900  0.01131500  0.85087800  1
  Ag  Ag9  1  0.82301100  0.98868500  0.35087800  1
  Ag  Ag10  1  0.98868500  0.35087800  0.82301100  1
  Ag  Ag11  1  0.35087800  0.82301100  0.98868500  1
  Ag  Ag12  1  0.25648800  0.97200300  0.76601800  1
  Ag  Ag13  1  0.75648800  0.52799700  0.23398200  1
  Ag  Ag14  1  0.74351200  0.47200300  0.73398200  1
  Ag  Ag15  1  0.52799700  0.23398200  0.75648800  1
  Ag  Ag16  1  0.73398200  0.74351200  0.47200300  1
  Ag  Ag17  1  0.23398200  0.75648800  0.52799700  1
  Ag  Ag18  1  0.97200300  0.76601800  0.25648800  1
  Ag  Ag19  1  0.76601800  0.25648800  0.97200300  1
  Ag  Ag20  1  0.47200300  0.73398200  0.74351200  1
  Ag  Ag21  1  0.02799700  0.26601800  0.24351200  1
  Ag  Ag22  1  0.26601800  0.24351200  0.02799700  1
  Ag  Ag23  1  0.24351200  0.02799700  0.26601800  1
  Ag  Ag24  1  0.60268200  0.89731800  0.10268200  1
  Ag  Ag25  1  0.89731800  0.10268200  0.60268200  1
  Ag  Ag26  1  0.10268200  0.60268200  0.89731800  1
  Ag  Ag27  1  0.39731800  0.39731800  0.39731800  1
  As  As0  1  0.99552900  0.50447100  0.49552900  1
  As  As1  1  0.50447100  0.49552900  0.99552900  1
  As  As2  1  0.49552900  0.99552900  0.50447100  1
  As  As3  1  0.00447100  0.00447100  0.00447100  1
  S  S0  1  0.36953600  0.11769800  0.61600800  1
  S  S1  1  0.86953600  0.38230200  0.38399200  1
  S  S2  1  0.63046400  0.61769800  0.88399200  1
  S  S3  1  0.38230200  0.38399200  0.86953600  1
  S  S4  1  0.88399200  0.63046400  0.61769800  1
  S  S5  1  0.38399200  0.86953600  0.38230200  1
  S  S6  1  0.11769800  0.61600800  0.36953600  1
  S  S7  1  0.61600800  0.36953600  0.11769800  1
  S  S8  1  0.61769800  0.88399200  0.63046400  1
  S  S9  1  0.88230200  0.11600800  0.13046400  1
  S  S10  1  0.11600800  0.13046400  0.88230200  1
  S  S11  1  0.13046400  0.88230200  0.11600800  1
  S  S12  1  0.73463200  0.76536800  0.23463200  1
  S  S13  1  0.52812300  0.52812300  0.52812300  1
  S  S14  1  0.76536800  0.23463200  0.73463200  1
  S  S15  1  0.26536800  0.26536800  0.26536800  1
  S  S16  1  0.11670600  0.38329400  0.61670600  1
  S  S17  1  0.38329400  0.61670600  0.11670600  1
  S  S18  1  0.61670600  0.11670600  0.38329400  1
  S  S19  1  0.88329400  0.88329400  0.88329400  1
  S  S20  1  0.47187700  0.02812300  0.97187700  1
  S  S21  1  0.02812300  0.97187700  0.47187700  1
  S  S22  1  0.97187700  0.47187700  0.02812300  1
  S  S23  1  0.23463200  0.73463200  0.76536800  1
loop_
_geom_bond_atom_site_label_1
_geom_bond_atom_site_label_2
_geom_bond_distance
_geom_bond_site_symmetry_2
Ag0 S21 2.541883 1_545
Ag0 S16 2.608092 1_555
Ag0 S0 2.782780 1_555
Ag0 S15 2.840949 1_555
Ag1 S13 2.541883 1_555
Ag1 S18 2.608092 1_555
Ag1 S1 2.782780 1_555
Ag1 S14 2.840949 1_555
Ag2 S22 2.541883 1_555
Ag2 S19 2.608092 1_554
Ag2 S2 2.782780 1_554
Ag2 S12 2.840949 1_555
Ag3 S13 2.541883 1_555
Ag3 S16 2.608092 1_555
Ag3 S3 2.782780 1_555
Ag3 S23 2.840949 1_555
Ag4 S21 2.541883 1_555
Ag4 S19 2.608092 1_455
Ag4 S4 2.782780 1_455
Ag4 S23 2.840949 1_555
Ag5 S13 2.541883 1_555
Ag5 S17 2.608092 1_555
Ag5 S5 2.782780 1_555
Ag5 S12 2.840949 1_555
Ag6 S22 2.541883 1_455
Ag6 S17 2.608092 1_555
Ag6 S6 2.782780 1_555
Ag6 S15 2.840949 1_555
Ag7 S20 2.541883 1_554
Ag7 S18 2.608092 1_555
Ag7 S7 2.782780 1_555
Ag7 S15 2.840949 1_555
Ag8 S20 2.541883 1_555
Ag8 S19 2.608092 1_545
Ag8 S8 2.782780 1_545
Ag8 S14 2.840949 1_555
Ag9 S21 2.541883 1_655
Ag9 S18 2.608092 1_565
Ag9 S9 2.782780 1_565
Ag9 S12 2.840949 1_555
Ag10 S22 2.541883 1_556
Ag10 S16 2.608092 1_655
Ag10 S10 2.782780 1_655
Ag10 S14 2.840949 1_555
Ag11 S20 2.541883 1_565
Ag11 S17 2.608092 1_556
Ag11 S11 2.782780 1_556
Ag11 S23 2.840949 1_555
Ag12 S0 2.531060 1_565
Ag12 S23 2.538065 1_555
Ag12 S10 2.572303 1_565
Ag13 S1 2.531060 1_555
Ag13 S12 2.538065 1_555
Ag13 S7 2.572303 1_555
Ag14 S2 2.531060 1_555
Ag14 S14 2.538065 1_555
Ag14 S4 2.572303 1_555
Ag15 S3 2.531060 1_555
Ag15 S14 2.538065 1_555
Ag15 S0 2.572303 1_555
Ag16 S4 2.531060 1_555
Ag16 S12 2.538065 1_555
Ag16 S8 2.572303 1_555
Ag17 S5 2.531060 1_555
Ag17 S23 2.538065 1_555
Ag17 S6 2.572303 1_555
Ag18 S6 2.531060 1_655
Ag18 S12 2.538065 1_555
Ag18 S11 2.572303 1_655
Ag19 S7 2.531060 1_556
Ag19 S14 2.538065 1_555
Ag19 S9 2.572303 1_556
Ag20 S8 2.531060 1_555
Ag20 S23 2.538065 1_555
Ag20 S2 2.572303 1_555
Ag21 S9 2.531060 1_455
Ag21 S15 2.538065 1_555
Ag21 S1 2.572303 1_455
Ag22 S10 2.531060 1_554
Ag22 S15 2.538065 1_555
Ag22 S3 2.572303 1_554
Ag23 S11 2.531060 1_545
Ag23 S15 2.538065 1_555
Ag23 S5 2.572303 1_545
Ag24 S20 2.412266 1_564
Ag24 S12 2.433382 1_555
Ag25 S21 2.412266 1_645
Ag25 S14 2.433382 1_555
Ag26 S22 2.412266 1_456
Ag26 S23 2.433382 1_555
Ag27 S13 2.412266 1_555
Ag27 S15 2.433382 1_555
As0 S4 2.214028 1_555
As0 S1 2.214028 1_555
As0 S6 2.214028 1_655
As0 S16 2.234710 1_655
As1 S2 2.214028 1_555
As1 S3 2.214028 1_555
As1 S7 2.214028 1_556
As1 S17 2.234710 1_556
As2 S8 2.214028 1_555
As2 S5 2.214028 1_555
As2 S0 2.214028 1_565
As2 S18 2.234710 1_565
As3 S10 2.214028 1_554
As3 S9 2.214028 1_455
As3 S11 2.214028 1_545
As3 S19 2.234710 1_444
