# generated using pymatgen
data_SmFeSb2
_symmetry_space_group_name_H-M   'P 1'
_cell_length_a   4.34183400
_cell_length_b   4.34183400
_cell_length_c   9.74719600
_cell_angle_alpha   90.00000000
_cell_angle_beta   90.00000000
_cell_angle_gamma   90.00000000
_symmetry_Int_Tables_number   1
_chemical_formula_structural   SmFeSb2
_chemical_formula_sum   'Sm2 Fe2 Sb4'
_cell_volume   183.74948455
_cell_formula_units_Z   2
loop_
 _symmetry_equiv_pos_site_id
 _symmetry_equiv_pos_as_xyz
  1  'x, y, z'
loop_
 _atom_site_type_symbol
 _atom_site_label
 _atom_site_symmetry_multiplicity
 _atom_site_fract_x
 _atom_site_fract_y
 _atom_site_fract_z
 _atom_site_occupancy
  Sm  Sm0  1  0.00000000  0.50000000  0.74341900  1
  Sm  Sm1  1  0.50000000  0.00000000  0.25658100  1
  Fe  Fe0  1  0.50000000  0.50000000  0.50000000  1
  Fe  Fe1  1  0.00000000  0.00000000  0.50000000  1
  Sb  Sb0  1  0.50000000  0.50000000  0.00000000  1
  Sb  Sb1  1  0.00000000  0.00000000  0.00000000  1
  Sb  Sb2  1  0.00000000  0.50000000  0.36301900  1
  Sb  Sb3  1  0.50000000  0.00000000  0.63698100  1
loop_
_geom_bond_atom_site_label_1
_geom_bond_atom_site_label_2
_geom_bond_distance
_geom_bond_site_symmetry_2
Fe0 Sb3 2.548644 1_555
Fe0 Sb2 2.548644 1_655
Fe0 Sb3 2.548644 1_565
Fe0 Sb2 2.548644 1_555
Fe0 Sm1 3.215954 1_555
Fe0 Sm1 3.215954 1_565
Fe0 Sm0 3.215954 1_555
Fe0 Sm0 3.215954 1_655
Fe1 Sb3 2.548644 1_555
Fe1 Sb3 2.548644 1_455
Fe1 Sb2 2.548644 1_545
Fe1 Sb2 2.548644 1_555
Fe1 Sm1 3.215954 1_555
Fe1 Sm1 3.215954 1_455
Fe1 Sm0 3.215954 1_555
Fe1 Sm0 3.215954 1_545
Sb0 Sb1 3.070140 1_665
Sb0 Sb1 3.070140 1_655
Sb0 Sb1 3.070140 1_565
Sb0 Sb1 3.070140 1_555
Sb0 Sm0 3.311738 1_554
Sb0 Sm0 3.311738 1_654
Sb0 Sm1 3.311738 1_565
Sb0 Sm1 3.311738 1_555
Sb1 Sm0 3.311738 1_544
Sb1 Sm0 3.311738 1_554
Sb1 Sm1 3.311738 1_555
Sb1 Sm1 3.311738 1_455
Sb2 Sm1 3.240696 1_565
Sb2 Sm1 3.240696 1_555
Sb2 Sm1 3.240696 1_455
Sb2 Sm1 3.240696 1_465
Sb3 Sm0 3.240696 1_655
Sb3 Sm0 3.240696 1_545
Sb3 Sm0 3.240696 1_645
Sb3 Sm0 3.240696 1_555
