# generated using pymatgen
data_CeAl(CuNi)2
_symmetry_space_group_name_H-M   'P 1'
_cell_length_a   5.15297433
_cell_length_b   5.15297433
_cell_length_c   3.96945900
_cell_angle_alpha   90.00000000
_cell_angle_beta   90.00000000
_cell_angle_gamma   119.69273216
_symmetry_Int_Tables_number   1
_chemical_formula_structural   CeAl(CuNi)2
_chemical_formula_sum   'Ce1 Al1 Cu2 Ni2'
_cell_volume   91.56179070
_cell_formula_units_Z   1
loop_
 _symmetry_equiv_pos_site_id
 _symmetry_equiv_pos_as_xyz
  1  'x, y, z'
loop_
 _atom_site_type_symbol
 _atom_site_label
 _atom_site_symmetry_multiplicity
 _atom_site_fract_x
 _atom_site_fract_y
 _atom_site_fract_z
 _atom_site_occupancy
  Ce  Ce0  1  0.00233500  0.99766500  0.00000000  1
  Al  Al0  1  0.67184000  0.32816000  0.00000000  1
  Cu  Cu0  1  0.33215700  0.66784300  0.00000000  1
  Cu  Cu1  1  0.49701300  0.50298700  0.50000000  1
  Ni  Ni0  1  0.99858500  0.50301000  0.50000000  1
  Ni  Ni1  1  0.49699000  0.00141500  0.50000000  1
loop_
_geom_bond_atom_site_label_1
_geom_bond_atom_site_label_2
_geom_bond_distance
_geom_bond_site_symmetry_2
Ce0 Cu0 2.939164 1_555
Ce0 Cu0 2.999978 1_455
Ce0 Cu0 2.999978 1_565
Ce0 Ni0 3.223018 1_455
Ce0 Ni0 3.223018 1_454
Ce0 Ni1 3.223018 1_565
Ce0 Ni1 3.223018 1_564
Ce0 Cu1 3.262122 1_454
Ce0 Cu1 3.262122 1_455
Ce0 Cu1 3.262122 1_564
Ce0 Cu1 3.262122 1_565
Ce0 Ni1 3.281821 1_465
Ce0 Ni1 3.281821 1_464
Ce0 Ni0 3.281821 1_464
Ce0 Ni0 3.281821 1_465
Al0 Ni0 2.466357 1_555
Al0 Ni0 2.466357 1_554
Al0 Ni1 2.466357 1_554
Al0 Ni1 2.466357 1_555
Al0 Cu1 2.523163 1_554
Al0 Cu1 2.523163 1_555
Al0 Ce0 2.945161 1_645
Al0 Cu0 2.956529 1_655
Al0 Cu0 2.956529 1_545
Al0 Ce0 2.996951 1_655
Al0 Ce0 2.996951 1_545
Al0 Cu0 3.027039 1_555
Cu0 Cu1 2.469288 1_554
Cu0 Cu1 2.469288 1_555
Cu0 Ni1 2.483700 1_564
Cu0 Ni0 2.483700 1_455
Cu0 Ni1 2.483700 1_565
Cu0 Ni0 2.483700 1_454
Cu1 Ni1 2.568445 1_565
Cu1 Ni0 2.568445 1_455
Cu1 Ni0 2.584529 1_555
Cu1 Ni1 2.584529 1_555
Ni0 Ni1 2.580187 1_665
Ni0 Ni1 2.596701 1_555
