# generated using pymatgen
data_Cr3Ru
_symmetry_space_group_name_H-M   'P 1'
_cell_length_a   4.63263200
_cell_length_b   4.63263200
_cell_length_c   4.63263200
_cell_angle_alpha   90.00000000
_cell_angle_beta   90.00000000
_cell_angle_gamma   90.00000000
_symmetry_Int_Tables_number   1
_chemical_formula_structural   Cr3Ru
_chemical_formula_sum   'Cr6 Ru2'
_cell_volume   99.42220900
_cell_formula_units_Z   2
loop_
 _symmetry_equiv_pos_site_id
 _symmetry_equiv_pos_as_xyz
  1  'x, y, z'
loop_
 _atom_site_type_symbol
 _atom_site_label
 _atom_site_symmetry_multiplicity
 _atom_site_fract_x
 _atom_site_fract_y
 _atom_site_fract_z
 _atom_site_occupancy
  Cr  Cr0  1  0.25000000  0.00000000  0.50000000  1
  Cr  Cr1  1  0.75000000  0.00000000  0.50000000  1
  Cr  Cr2  1  0.00000000  0.50000000  0.25000000  1
  Cr  Cr3  1  0.00000000  0.50000000  0.75000000  1
  Cr  Cr4  1  0.50000000  0.75000000  0.00000000  1
  Cr  Cr5  1  0.50000000  0.25000000  0.00000000  1
  Ru  Ru0  1  0.00000000  0.00000000  0.00000000  1
  Ru  Ru1  1  0.50000000  0.50000000  0.50000000  1
loop_
_geom_bond_atom_site_label_1
_geom_bond_atom_site_label_2
_geom_bond_distance
_geom_bond_site_symmetry_2
Cr0 Cr1 2.316316 1_455
Cr0 Cr1 2.316316 1_555
Cr0 Ru1 2.589720 1_545
Cr0 Ru1 2.589720 1_555
Cr0 Ru0 2.589720 1_556
Cr0 Ru0 2.589720 1_555
Cr1 Ru1 2.589720 1_545
Cr1 Ru1 2.589720 1_555
Cr1 Ru0 2.589720 1_655
Cr1 Ru0 2.589720 1_656
Cr2 Cr3 2.316316 1_554
Cr2 Cr3 2.316316 1_555
Cr2 Ru1 2.589720 1_555
Cr2 Ru1 2.589720 1_455
Cr2 Ru0 2.589720 1_555
Cr2 Ru0 2.589720 1_565
Cr3 Ru1 2.589720 1_555
Cr3 Ru1 2.589720 1_455
Cr3 Ru0 2.589720 1_556
Cr3 Ru0 2.589720 1_566
Cr4 Cr5 2.316316 1_565
Cr4 Cr5 2.316316 1_555
Cr4 Ru1 2.589720 1_555
Cr4 Ru1 2.589720 1_554
Cr4 Ru0 2.589720 1_565
Cr4 Ru0 2.589720 1_665
Cr5 Ru1 2.589720 1_555
Cr5 Ru0 2.589720 1_655
Cr5 Ru1 2.589720 1_554
Cr5 Ru0 2.589720 1_555
