# generated using pymatgen
data_Mn3FeAs4
_symmetry_space_group_name_H-M   'P 1'
_cell_length_a   3.47291000
_cell_length_b   5.42667600
_cell_length_c   6.02084004
_cell_angle_alpha   89.81309113
_cell_angle_beta   90.00000000
_cell_angle_gamma   90.00000000
_symmetry_Int_Tables_number   1
_chemical_formula_structural   Mn3FeAs4
_chemical_formula_sum   'Mn3 Fe1 As4'
_cell_volume   113.47029909
_cell_formula_units_Z   1
loop_
 _symmetry_equiv_pos_site_id
 _symmetry_equiv_pos_as_xyz
  1  'x, y, z'
loop_
 _atom_site_type_symbol
 _atom_site_label
 _atom_site_symmetry_multiplicity
 _atom_site_fract_x
 _atom_site_fract_y
 _atom_site_fract_z
 _atom_site_occupancy
  Mn  Mn0  1  0.00000000  0.00778400  0.80574800  1
  Mn  Mn1  1  0.50000000  0.49786800  0.30282600  1
  Mn  Mn2  1  0.50000000  0.99854500  0.19346400  1
  Fe  Fe0  1  0.00000000  0.50205800  0.69530700  1
  As  As0  1  0.00000000  0.69706300  0.07782200  1
  As  As1  1  0.00000000  0.19571200  0.42203000  1
  As  As2  1  0.50000000  0.30922600  0.91170300  1
  As  As3  1  0.50000000  0.79174400  0.59110200  1
loop_
_geom_bond_atom_site_label_1
_geom_bond_atom_site_label_2
_geom_bond_distance
_geom_bond_site_symmetry_2
As0 Mn0 2.347042 1_564
As0 Mn1 2.451420 1_455
As0 Mn1 2.451420 1_555
As0 Mn2 2.486792 1_555
As0 Mn2 2.486792 1_455
As0 Fe0 2.537684 1_554
As1 Fe0 2.342809 1_555
As1 Mn2 2.462420 1_445
As1 Mn2 2.462420 1_545
As1 Mn1 2.492254 1_455
As1 Mn1 2.492254 1_555
As1 Mn0 2.522336 1_555
As2 Mn2 2.387827 1_546
As2 Fe0 2.408095 1_555
As2 Fe0 2.408095 1_655
As2 Mn0 2.470826 1_555
As2 Mn0 2.470826 1_655
As2 Mn1 2.570835 1_556
As3 Mn1 2.360906 1_555
As3 Fe0 2.423584 1_655
As3 Fe0 2.423584 1_555
As3 Mn0 2.463696 1_665
As3 Mn0 2.463696 1_565
As3 Mn2 2.640773 1_555
