# generated using pymatgen
data_Li2CdGeS4
_symmetry_space_group_name_H-M   'P 1'
_cell_length_a   6.46486400
_cell_length_b   6.90565400
_cell_length_c   7.85241500
_cell_angle_alpha   90.00000000
_cell_angle_beta   90.00000000
_cell_angle_gamma   90.00000000
_symmetry_Int_Tables_number   1
_chemical_formula_structural   Li2CdGeS4
_chemical_formula_sum   'Li4 Cd2 Ge2 S8'
_cell_volume   350.56410997
_cell_formula_units_Z   2
loop_
 _symmetry_equiv_pos_site_id
 _symmetry_equiv_pos_as_xyz
  1  'x, y, z'
loop_
 _atom_site_type_symbol
 _atom_site_label
 _atom_site_symmetry_multiplicity
 _atom_site_fract_x
 _atom_site_fract_y
 _atom_site_fract_z
 _atom_site_occupancy
  Li  Li0  1  0.62419700  0.66937200  0.25451600  1
  Li  Li1  1  0.62419700  0.66937200  0.74548400  1
  Li  Li2  1  0.12419700  0.33062800  0.24548400  1
  Li  Li3  1  0.12419700  0.33062800  0.75451600  1
  Cd  Cd0  1  0.12769200  0.85226000  0.50000000  1
  Cd  Cd1  1  0.62769200  0.14774000  0.00000000  1
  Ge  Ge0  1  0.12460800  0.82575600  0.00000000  1
  Ge  Ge1  1  0.62460800  0.17424400  0.50000000  1
  S  S0  1  0.72676800  0.86428900  0.50000000  1
  S  S1  1  0.22676800  0.13571100  0.00000000  1
  S  S2  1  0.24662100  0.66683900  0.22867200  1
  S  S3  1  0.24662100  0.66683900  0.77132800  1
  S  S4  1  0.74662100  0.33316100  0.27132800  1
  S  S5  1  0.74662100  0.33316100  0.72867200  1
  S  S6  1  0.77816700  0.80495800  0.00000000  1
  S  S7  1  0.27816700  0.19504200  0.50000000  1
loop_
_geom_bond_atom_site_label_1
_geom_bond_atom_site_label_2
_geom_bond_distance
_geom_bond_site_symmetry_2
Li0 S6 2.421105 1_555
Li0 S0 2.442808 1_555
Li0 S2 2.449461 1_555
Li0 S4 2.456498 1_555
Li1 S6 2.421105 1_556
Li1 S0 2.442808 1_555
Li1 S3 2.449461 1_555
Li1 S5 2.456498 1_555
Li2 S7 2.421105 1_555
Li2 S1 2.442808 1_555
Li2 S4 2.449461 1_455
Li2 S2 2.456498 1_555
Li3 S7 2.421105 1_555
Li3 S1 2.442808 1_556
Li3 S5 2.449461 1_455
Li3 S3 2.456498 1_555
Cd0 S7 2.559231 1_565
Cd0 S0 2.593250 1_455
Cd0 S3 2.601937 1_555
Cd0 S2 2.601937 1_555
Cd1 S6 2.559231 1_545
Cd1 S1 2.593250 1_555
Cd1 S4 2.601937 1_555
Cd1 S5 2.601937 1_554
Ge0 S1 2.240019 1_565
Ge0 S6 2.244294 1_455
Ge0 S3 2.247404 1_554
Ge0 S2 2.247404 1_555
Ge1 S0 2.240019 1_545
Ge1 S7 2.244294 1_555
Ge1 S4 2.247404 1_555
Ge1 S5 2.247404 1_555
