# generated using pymatgen
data_V6O13
_symmetry_space_group_name_H-M   'P 1'
_cell_length_a   3.75509800
_cell_length_b   10.25899300
_cell_length_c   12.16820865
_cell_angle_alpha   79.15948663
_cell_angle_beta   90.00000000
_cell_angle_gamma   90.00000000
_symmetry_Int_Tables_number   1
_chemical_formula_structural   V6O13
_chemical_formula_sum   'V12 O26'
_cell_volume   460.39698641
_cell_formula_units_Z   2
loop_
 _symmetry_equiv_pos_site_id
 _symmetry_equiv_pos_as_xyz
  1  'x, y, z'
loop_
 _atom_site_type_symbol
 _atom_site_label
 _atom_site_symmetry_multiplicity
 _atom_site_fract_x
 _atom_site_fract_y
 _atom_site_fract_z
 _atom_site_occupancy
  V  V0  1  0.46704000  0.00351200  0.85139600  1
  V  V1  1  0.96704000  0.99648800  0.64860400  1
  V  V2  1  0.53296000  0.99648800  0.14860400  1
  V  V3  1  0.03296000  0.00351200  0.35139600  1
  V  V4  1  0.49793000  0.63577200  0.91315800  1
  V  V5  1  0.99793000  0.36422800  0.58684200  1
  V  V6  1  0.50207000  0.36422800  0.08684200  1
  V  V7  1  0.00207000  0.63577200  0.41315800  1
  V  V8  1  0.50157000  0.63359100  0.21484000  1
  V  V9  1  0.00157000  0.36640900  0.28516000  1
  V  V10  1  0.49843000  0.36640900  0.78516000  1
  V  V11  1  0.99843000  0.63359100  0.71484000  1
  O  O0  1  0.48944600  0.99989000  0.68334000  1
  O  O1  1  0.98944600  0.00011000  0.81666000  1
  O  O2  1  0.51055400  0.00011000  0.31666000  1
  O  O3  1  0.01055400  0.99989000  0.18334000  1
  O  O4  1  0.50158600  0.61362500  0.38146200  1
  O  O5  1  0.00158600  0.38637500  0.11853800  1
  O  O6  1  0.49841400  0.38637500  0.61853800  1
  O  O7  1  0.99841400  0.61362500  0.88146200  1
  O  O8  1  0.49859500  0.58839000  0.75413300  1
  O  O9  1  0.99859500  0.41161000  0.74586700  1
  O  O10  1  0.50140500  0.41161000  0.24586700  1
  O  O11  1  0.00140500  0.58839000  0.25413300  1
  O  O12  1  0.50000000  0.00000000  0.00000000  1
  O  O13  1  0.00000000  0.00000000  0.50000000  1
  O  O14  1  0.49326000  0.80168800  0.88610900  1
  O  O15  1  0.99326000  0.19831200  0.61389100  1
  O  O16  1  0.50674000  0.19831200  0.11389100  1
  O  O17  1  0.00674000  0.80168800  0.38610900  1
  O  O18  1  0.50794600  0.80163000  0.17761100  1
  O  O19  1  0.00794600  0.19837000  0.32238900  1
  O  O20  1  0.49205400  0.19837000  0.82238900  1
  O  O21  1  0.99205400  0.80163000  0.67761100  1
  O  O22  1  0.50035400  0.59124500  0.06027600  1
  O  O23  1  0.00035400  0.40875500  0.43972400  1
  O  O24  1  0.49964600  0.40875500  0.93972400  1
  O  O25  1  0.99964600  0.59124500  0.56027600  1
loop_
_geom_bond_atom_site_label_1
_geom_bond_atom_site_label_2
_geom_bond_distance
_geom_bond_site_symmetry_2
O0 V1 1.844383 1_555
O0 V1 2.008390 1_455
O0 V0 2.053977 1_565
O1 V0 1.844383 1_655
O1 V0 2.008390 1_555
O1 V1 2.053977 1_545
O2 V3 1.844383 1_555
O2 V3 2.008390 1_655
O2 V2 2.053977 1_545
O3 V2 1.844383 1_455
O3 V2 2.008390 1_555
O3 V3 2.053977 1_565
O4 V7 1.936932 1_555
O4 V7 1.940452 1_655
O4 V8 1.999116 1_555
O5 V6 1.936932 1_455
O5 V6 1.940452 1_555
O5 V9 1.999116 1_555
O6 V5 1.936932 1_555
O6 V5 1.940452 1_455
O6 V10 1.999116 1_555
O7 V4 1.936932 1_655
O7 V4 1.940452 1_555
O7 V11 1.999116 1_555
O8 V11 1.970559 1_555
O8 V11 1.971739 1_455
O8 V4 2.081951 1_555
O8 V10 2.237238 1_555
O9 V10 1.970559 1_655
O9 V10 1.971739 1_555
O9 V5 2.081951 1_555
O9 V11 2.237238 1_555
O10 V9 1.970559 1_555
O10 V9 1.971739 1_655
O10 V6 2.081951 1_555
O10 V8 2.237238 1_555
O11 V8 1.970559 1_455
O11 V8 1.971739 1_555
O11 V7 2.081951 1_555
O11 V9 2.237238 1_555
O12 V0 1.806062 1_554
O12 V2 1.806062 1_545
O13 V1 1.806062 1_445
O13 V3 1.806062 1_555
O14 V4 1.671872 1_555
O14 V0 2.036211 1_565
O15 V5 1.671872 1_555
O15 V1 2.036211 1_545
O16 V6 1.671872 1_555
O16 V2 2.036211 1_545
O17 V7 1.671872 1_555
O17 V3 2.036211 1_565
O18 V8 1.698206 1_555
O18 V2 1.965753 1_555
O19 V9 1.698206 1_555
O19 V3 1.965753 1_555
O20 V10 1.698206 1_555
O20 V0 1.965753 1_555
O21 V11 1.698206 1_555
O21 V1 1.965753 1_555
O22 V4 1.762338 1_554
O22 V8 2.008325 1_555
O22 V6 2.290290 1_555
O23 V5 1.762338 1_455
O23 V9 2.008325 1_555
O23 V7 2.290290 1_555
O24 V6 1.762338 1_556
O24 V10 2.008325 1_555
O24 V4 2.290290 1_555
O25 V7 1.762338 1_655
O25 V11 2.008325 1_555
O25 V5 2.290290 1_555
