# generated using pymatgen
data_Ca2TmRuO6
_symmetry_space_group_name_H-M   'P 1'
_cell_length_a   5.78974200
_cell_length_b   5.55777300
_cell_length_c   9.72763511
_cell_angle_alpha   55.35461243
_cell_angle_beta   90.00000000
_cell_angle_gamma   90.00000000
_symmetry_Int_Tables_number   1
_chemical_formula_structural   Ca2TmRuO6
_chemical_formula_sum   'Ca4 Tm2 Ru2 O12'
_cell_volume   257.51441529
_cell_formula_units_Z   2
loop_
 _symmetry_equiv_pos_site_id
 _symmetry_equiv_pos_as_xyz
  1  'x, y, z'
loop_
 _atom_site_type_symbol
 _atom_site_label
 _atom_site_symmetry_multiplicity
 _atom_site_fract_x
 _atom_site_fract_y
 _atom_site_fract_z
 _atom_site_occupancy
  Ca  Ca0  1  0.44409000  0.23837800  0.74630600  1
  Ca  Ca1  1  0.55591000  0.76162200  0.25369400  1
  Ca  Ca2  1  0.94409000  0.76162200  0.75369400  1
  Ca  Ca3  1  0.05591000  0.23837800  0.24630600  1
  Tm  Tm0  1  0.00000000  0.50000000  0.50000000  1
  Tm  Tm1  1  0.50000000  0.50000000  0.00000000  1
  Ru  Ru0  1  0.00000000  0.00000000  0.00000000  1
  Ru  Ru1  1  0.50000000  0.00000000  0.50000000  1
  O  O0  1  0.04306600  0.34071600  0.76490600  1
  O  O1  1  0.95693400  0.65928400  0.23509400  1
  O  O2  1  0.54306600  0.65928400  0.73509400  1
  O  O3  1  0.45693400  0.34071600  0.26490600  1
  O  O4  1  0.71600200  0.87739200  0.93905900  1
  O  O5  1  0.28399800  0.12260800  0.06094100  1
  O  O6  1  0.21600200  0.12260800  0.56094100  1
  O  O7  1  0.78399800  0.87739200  0.43905900  1
  O  O8  1  0.18795900  0.76217100  0.94954700  1
  O  O9  1  0.81204100  0.23782900  0.05045300  1
  O  O10  1  0.68795900  0.23782900  0.55045300  1
  O  O11  1  0.31204100  0.76217100  0.44954700  1
loop_
_geom_bond_atom_site_label_1
_geom_bond_atom_site_label_2
_geom_bond_distance
_geom_bond_site_symmetry_2
Ca0 O2 2.350002 1_555
Ca0 O10 2.372746 1_555
Ca0 O4 2.396277 1_545
Ca0 O0 2.421594 1_555
Ca0 O6 2.593922 1_555
Ca0 O8 2.676416 1_545
Ca0 O11 2.799569 1_555
Ca0 O5 2.898561 1_556
Ca1 O3 2.350002 1_555
Ca1 O11 2.372746 1_555
Ca1 O5 2.396277 1_565
Ca1 O1 2.421594 1_555
Ca1 O7 2.593922 1_555
Ca1 O9 2.676416 1_565
Ca1 O10 2.799569 1_555
Ca1 O4 2.898561 1_554
Ca2 O0 2.350002 1_655
Ca2 O8 2.372746 1_655
Ca2 O6 2.396277 1_665
Ca2 O2 2.421594 1_555
Ca2 O4 2.593922 1_555
Ca2 O10 2.676416 1_565
Ca2 O9 2.799569 1_556
Ca2 O7 2.898561 1_555
Ca3 O1 2.350002 1_455
Ca3 O9 2.372746 1_455
Ca3 O7 2.396277 1_445
Ca3 O3 2.421594 1_555
Ca3 O5 2.593922 1_555
Ca3 O11 2.676416 1_545
Ca3 O8 2.799569 1_554
Ca3 O6 2.898561 1_555
O0 Ru0 1.988502 1_556
O0 Tm0 2.211915 1_555
O1 Ru0 1.988502 1_665
O1 Tm0 2.211915 1_655
O2 Ru1 1.988502 1_565
O2 Tm1 2.211915 1_556
O3 Ru1 1.988502 1_555
O3 Tm1 2.211915 1_555
O4 Ru0 1.994670 1_666
O4 Tm1 2.213824 1_556
O5 Ru0 1.994670 1_555
O5 Tm1 2.213824 1_555
O6 Ru1 1.994670 1_555
O6 Tm0 2.213824 1_555
O7 Ru1 1.994670 1_565
O7 Tm0 2.213824 1_655
O8 Ru0 1.977340 1_566
O8 Tm1 2.194271 1_556
O9 Ru0 1.977340 1_655
O9 Tm1 2.194271 1_555
O10 Ru1 1.977340 1_555
O10 Tm0 2.194271 1_655
O11 Ru1 1.977340 1_565
O11 Tm0 2.194271 1_555
