# generated using pymatgen
data_La3Nd3Al22
_symmetry_space_group_name_H-M   'P 1'
_cell_length_a   8.50846395
_cell_length_b   8.50846395
_cell_length_c   16.42169543
_cell_angle_alpha   75.40409935
_cell_angle_beta   75.40409935
_cell_angle_gamma   30.04360486
_symmetry_Int_Tables_number   1
_chemical_formula_structural   La3Nd3Al22
_chemical_formula_sum   'La3 Nd3 Al22'
_cell_volume   574.58228613
_cell_formula_units_Z   1
loop_
 _symmetry_equiv_pos_site_id
 _symmetry_equiv_pos_as_xyz
  1  'x, y, z'
loop_
 _atom_site_type_symbol
 _atom_site_label
 _atom_site_symmetry_multiplicity
 _atom_site_fract_x
 _atom_site_fract_y
 _atom_site_fract_z
 _atom_site_occupancy
  La  La0  1  0.65745291  0.65745291  0.65760876  1
  La  La1  1  0.15780146  0.15780146  0.15791167  1
  La  La2  1  0.84248821  0.84248821  0.84217032  1
  Nd  Nd0  1  0.34177317  0.34177317  0.34191967  1
  Nd  Nd1  1  0.99985701  0.99985701  0.00075042  1
  Nd  Nd2  1  0.50001172  0.50001172  0.49913885  1
  Al  Al0  1  0.35057136  0.35057136  0.98473285  1
  Al  Al1  1  0.85128289  0.85128289  0.48248902  1
  Al  Al2  1  0.14903957  0.14903957  0.51596367  1
  Al  Al3  1  0.64947517  0.64947517  0.01610344  1
  Al  Al4  1  0.48399604  0.48399604  0.85149714  1
  Al  Al5  1  0.98367386  0.98367386  0.35059233  1
  Al  Al6  1  0.01556827  0.01556827  0.64893804  1
  Al  Al7  1  0.51612658  0.51612658  0.14932214  1
  Al  Al8  1  0.85721291  0.85721291  0.64169059  1
  Al  Al9  1  0.35749045  0.35749045  0.14398978  1
  Al  Al10  1  0.64275948  0.64275948  0.85727786  1
  Al  Al11  1  0.14277933  0.14277933  0.35740243  1
  Al  Al12  1  0.24988093  0.24988093  0.74996053  1
  Al  Al13  1  0.75063448  0.75063448  0.25043262  1
  Al  Al14  1  0.20386471  0.20386471  0.93000721  1
  Al  Al15  1  0.70462204  0.70462204  0.43015356  1
  Al  Al16  1  0.29571750  0.29571750  0.56859267  1
  Al  Al17  1  0.79631232  0.79631232  0.07080110  1
  Al  Al18  1  0.43003207  0.43003207  0.70347926  1
  Al  Al19  1  0.93007439  0.93007439  0.20469237  1
  Al  Al20  1  0.06973202  0.06973202  0.79645979  1
  Al  Al21  1  0.56977013  0.56977013  0.29592392  1
loop_
_geom_bond_atom_site_label_1
_geom_bond_atom_site_label_2
_geom_bond_distance
_geom_bond_site_symmetry_2
Al0 Al17 2.645458 1_546
Al0 Al17 2.645458 1_456
Al0 Al9 2.647217 1_556
Al0 Al4 2.663117 1_555
Al0 Al14 2.784279 1_555
Al0 La2 3.244078 1_455
Al0 La2 3.244078 1_545
Al0 Nd1 3.359946 1_546
Al0 Nd1 3.359946 1_456
Al1 Al5 2.639431 1_555
Al1 Al8 2.641465 1_555
Al1 Al16 2.650044 1_565
Al1 Al16 2.650044 1_655
Al1 Al15 2.762218 1_555
Al1 Nd0 3.225618 1_565
Al1 Nd0 3.225618 1_655
Al1 Nd2 3.355886 1_655
Al1 Nd2 3.355886 1_565
Al2 Al6 2.660983 1_555
Al2 La0 3.234307 1_455
Al2 La0 3.234307 1_545
Al2 Nd2 3.360353 1_455
Al2 Nd2 3.360353 1_545
Al3 Al7 2.662186 1_555
Al3 La1 3.235935 1_565
Al3 La1 3.235935 1_655
Al3 Nd1 3.361132 1_455
Al3 Nd1 3.361132 1_545
Al4 La2 3.237540 1_455
Al4 La2 3.237540 1_545
Al4 Nd1 3.357378 1_546
Al4 Nd1 3.357378 1_456
Al5 Nd0 3.239755 1_565
Al5 Nd0 3.239755 1_655
Al5 Nd2 3.350787 1_655
Al5 Nd2 3.350787 1_565
Al6 Al8 2.636194 1_445
Al6 La0 3.239554 1_455
Al6 La0 3.239554 1_545
Al6 Nd2 3.362771 1_545
Al6 Nd2 3.362771 1_455
Al7 Al9 2.631456 1_555
Al7 La1 3.236725 1_655
Al7 La1 3.236725 1_565
Al7 Nd1 3.350794 1_545
Al7 Nd1 3.350794 1_455
Al8 La0 3.224822 1_555
Al8 La2 3.237514 1_555
Al9 Nd0 3.192698 1_555
Al9 La1 3.229869 1_555
Al10 Al4 2.635705 1_555
Al10 Al3 2.639136 1_556
Al10 Al14 2.814999 1_565
Al10 Al14 2.814999 1_655
Al10 Al20 2.815463 1_565
Al10 Al20 2.815463 1_655
Al10 Al12 3.074024 1_565
Al10 Al12 3.074024 1_655
Al10 La0 3.224335 1_555
Al10 La2 3.226793 1_555
Al11 Al2 2.632564 1_555
Al11 Al5 2.646346 1_445
Al11 Al21 2.820377 1_455
Al11 Al21 2.820377 1_545
Al11 Al15 2.820871 1_545
Al11 Al15 2.820871 1_455
Al11 Al13 3.076742 1_545
Al11 Al13 3.076742 1_455
Al11 Nd0 3.213594 1_555
Al11 La1 3.220390 1_555
Al12 Al14 2.854297 1_555
Al12 Al20 2.858277 1_555
Al12 Al18 2.858313 1_555
Al12 Al16 2.875299 1_555
Al12 Al8 3.082146 1_545
Al12 Al8 3.082146 1_455
Al12 La0 3.266971 1_545
Al12 La0 3.266971 1_455
Al12 La2 3.267334 1_455
Al12 La2 3.267334 1_545
Al13 Al19 2.847073 1_555
Al13 Al17 2.847738 1_555
Al13 Al15 2.849126 1_555
Al13 Al21 2.869756 1_555
Al13 Al9 3.066112 1_565
Al13 Al9 3.066112 1_655
Al13 Nd0 3.246294 1_565
Al13 Nd0 3.246294 1_655
Al13 La1 3.272504 1_565
Al13 La1 3.272504 1_655
Al14 Al3 2.646088 1_546
Al14 Al3 2.646088 1_456
Al14 La2 3.227964 1_545
Al14 La2 3.227964 1_455
Al14 Nd1 3.249498 1_446
Al15 Al2 2.647967 1_565
Al15 Al2 2.647967 1_655
Al15 Nd0 3.215504 1_655
Al15 Nd0 3.215504 1_565
Al15 Nd2 3.256404 1_555
Al16 Al2 2.765086 1_555
Al16 Al8 2.821139 1_545
Al16 Al8 2.821139 1_455
Al16 La0 3.229648 1_455
Al16 La0 3.229648 1_545
Al16 Nd2 3.252128 1_555
Al17 Al3 2.786065 1_555
Al17 Al9 2.819470 1_655
Al17 Al9 2.819470 1_565
Al17 La1 3.223758 1_565
Al17 La1 3.223758 1_655
Al17 Nd1 3.241363 1_555
Al18 Al6 2.642866 1_565
Al18 Al6 2.642866 1_655
Al18 Al4 2.796416 1_555
Al18 Al8 2.821150 1_545
Al18 Al8 2.821150 1_455
Al18 La2 3.226550 1_455
Al18 La2 3.226550 1_545
Al18 Nd2 3.251001 1_555
Al19 Al7 2.649381 1_655
Al19 Al7 2.649381 1_565
Al19 Al5 2.760053 1_555
Al19 Al9 2.810804 1_655
Al19 Al9 2.810804 1_565
Al19 Nd0 3.215758 1_565
Al19 Nd0 3.215758 1_655
Al19 Nd1 3.244578 1_555
Al20 Al4 2.645963 1_545
Al20 Al4 2.645963 1_455
Al20 Al6 2.790451 1_555
Al20 La0 3.228862 1_455
Al20 La0 3.228862 1_545
Al20 Nd1 3.250088 1_446
Al21 Al5 2.647378 1_545
Al21 Al5 2.647378 1_455
Al21 Al7 2.771414 1_555
Al21 La1 3.222109 1_565
Al21 La1 3.222109 1_655
Al21 Nd2 3.233324 1_555
