# generated using pymatgen
data_Zn2CoP2(H2O3)4
_symmetry_space_group_name_H-M   'P 1'
_cell_length_a   5.04934800
_cell_length_b   10.64092600
_cell_length_c   18.99769300
_cell_angle_alpha   90.00000000
_cell_angle_beta   90.00000000
_cell_angle_gamma   90.00000000
_symmetry_Int_Tables_number   1
_chemical_formula_structural   Zn2CoP2(H2O3)4
_chemical_formula_sum   'Zn8 Co4 P8 H32 O48'
_cell_volume   1020.74107540
_cell_formula_units_Z   4
loop_
 _symmetry_equiv_pos_site_id
 _symmetry_equiv_pos_as_xyz
  1  'x, y, z'
loop_
 _atom_site_type_symbol
 _atom_site_label
 _atom_site_symmetry_multiplicity
 _atom_site_fract_x
 _atom_site_fract_y
 _atom_site_fract_z
 _atom_site_occupancy
  Zn  Zn0  1  0.27531300  0.64197500  0.50088300  1
  Zn  Zn1  1  0.22468700  0.14197500  0.99911700  1
  Zn  Zn2  1  0.72468700  0.35802500  0.00088300  1
  Zn  Zn3  1  0.77531300  0.85802500  0.49911700  1
  Zn  Zn4  1  0.72468700  0.35802500  0.49911700  1
  Zn  Zn5  1  0.77531300  0.85802500  0.00088300  1
  Zn  Zn6  1  0.27531300  0.64197500  0.99911700  1
  Zn  Zn7  1  0.22468700  0.14197500  0.50088300  1
  Co  Co0  1  0.06474000  0.26792700  0.75000000  1
  Co  Co1  1  0.43526000  0.76792700  0.75000000  1
  Co  Co2  1  0.93526000  0.73207300  0.25000000  1
  Co  Co3  1  0.56474000  0.23207300  0.25000000  1
  P  P0  1  0.23350900  0.39801400  0.59410700  1
  P  P1  1  0.26649100  0.89801400  0.90589300  1
  P  P2  1  0.76649100  0.60198600  0.09410700  1
  P  P3  1  0.73350900  0.10198600  0.40589300  1
  P  P4  1  0.76649100  0.60198600  0.40589300  1
  P  P5  1  0.73350900  0.10198600  0.09410700  1
  P  P6  1  0.23350900  0.39801400  0.90589300  1
  P  P7  1  0.26649100  0.89801400  0.59410700  1
  H  H0  1  0.62455200  0.39599400  0.79007200  1
  H  H1  1  0.87544800  0.89599400  0.70992800  1
  H  H2  1  0.37544800  0.60400600  0.29007200  1
  H  H3  1  0.12455200  0.10400600  0.20992800  1
  H  H4  1  0.37544800  0.60400600  0.20992800  1
  H  H5  1  0.12455200  0.10400600  0.29007200  1
  H  H6  1  0.62455200  0.39599400  0.70992800  1
  H  H7  1  0.87544800  0.89599400  0.79007200  1
  H  H8  1  0.37072200  0.06685700  0.79047600  1
  H  H9  1  0.12927800  0.56685700  0.70952400  1
  H  H10  1  0.62927800  0.93314300  0.29047600  1
  H  H11  1  0.87072200  0.43314300  0.20952400  1
  H  H12  1  0.62927800  0.93314300  0.20952400  1
  H  H13  1  0.87072200  0.43314300  0.29047600  1
  H  H14  1  0.37072200  0.06685700  0.70952400  1
  H  H15  1  0.12927800  0.56685700  0.79047600  1
  H  H16  1  0.93453900  0.11836200  0.63381100  1
  H  H17  1  0.56546100  0.61836200  0.86618900  1
  H  H18  1  0.06546100  0.88163800  0.13381100  1
  H  H19  1  0.43453900  0.38163800  0.36618900  1
  H  H20  1  0.06546100  0.88163800  0.36618900  1
  H  H21  1  0.43453900  0.38163800  0.13381100  1
  H  H22  1  0.93453900  0.11836200  0.86618900  1
  H  H23  1  0.56546100  0.61836200  0.63381100  1
  H  H24  1  0.69727500  0.21279900  0.65314300  1
  H  H25  1  0.80272500  0.71279900  0.84685700  1
  H  H26  1  0.30272500  0.78720100  0.15314300  1
  H  H27  1  0.19727500  0.28720100  0.34685700  1
  H  H28  1  0.30272500  0.78720100  0.34685700  1
  H  H29  1  0.19727500  0.28720100  0.15314300  1
  H  H30  1  0.69727500  0.21279900  0.84685700  1
  H  H31  1  0.80272500  0.71279900  0.65314300  1
  O  O0  1  0.29915100  0.35917800  0.66981700  1
  O  O1  1  0.20084900  0.85917800  0.83018300  1
  O  O2  1  0.70084900  0.64082200  0.16981700  1
  O  O3  1  0.79915100  0.14082200  0.33018300  1
  O  O4  1  0.70084900  0.64082200  0.33018300  1
  O  O5  1  0.79915100  0.14082200  0.16981700  1
  O  O6  1  0.29915100  0.35917800  0.83018300  1
  O  O7  1  0.20084900  0.85917800  0.66981700  1
  O  O8  1  0.35196200  0.53158100  0.57991800  1
  O  O9  1  0.14803800  0.03158100  0.92008200  1
  O  O10  1  0.64803800  0.46841900  0.07991800  1
  O  O11  1  0.85196200  0.96841900  0.42008200  1
  O  O12  1  0.64803800  0.46841900  0.42008200  1
  O  O13  1  0.85196200  0.96841900  0.07991800  1
  O  O14  1  0.35196200  0.53158100  0.92008200  1
  O  O15  1  0.14803800  0.03158100  0.57991800  1
  O  O16  1  0.06703400  0.60226600  0.41953400  1
  O  O17  1  0.43296600  0.10226600  0.08046600  1
  O  O18  1  0.93296600  0.39773400  0.91953400  1
  O  O19  1  0.56703400  0.89773400  0.58046600  1
  O  O20  1  0.93296600  0.39773400  0.58046600  1
  O  O21  1  0.56703400  0.89773400  0.91953400  1
  O  O22  1  0.06703400  0.60226600  0.08046600  1
  O  O23  1  0.43296600  0.10226600  0.41953400  1
  O  O24  1  0.62769400  0.69490300  0.46050600  1
  O  O25  1  0.87230600  0.19490300  0.03949400  1
  O  O26  1  0.37230600  0.30509700  0.96050600  1
  O  O27  1  0.12769400  0.80509700  0.53949400  1
  O  O28  1  0.37230600  0.30509700  0.53949400  1
  O  O29  1  0.12769400  0.80509700  0.96050600  1
  O  O30  1  0.62769400  0.69490300  0.03949400  1
  O  O31  1  0.87230600  0.19490300  0.46050600  1
  O  O32  1  0.75043800  0.39704400  0.75000000  1
  O  O33  1  0.74956200  0.89704400  0.75000000  1
  O  O34  1  0.24956200  0.60295600  0.25000000  1
  O  O35  1  0.25043800  0.10295600  0.25000000  1
  O  O36  1  0.33990600  0.12121400  0.75000000  1
  O  O37  1  0.16009400  0.62121400  0.75000000  1
  O  O38  1  0.66009400  0.87878600  0.25000000  1
  O  O39  1  0.83990600  0.37878600  0.25000000  1
  O  O40  1  0.84833000  0.16688200  0.67205700  1
  O  O41  1  0.65167000  0.66688200  0.82794300  1
  O  O42  1  0.15167000  0.83311800  0.17205700  1
  O  O43  1  0.34833000  0.33311800  0.32794300  1
  O  O44  1  0.15167000  0.83311800  0.32794300  1
  O  O45  1  0.34833000  0.33311800  0.17205700  1
  O  O46  1  0.84833000  0.16688200  0.82794300  1
  O  O47  1  0.65167000  0.66688200  0.67205700  1
loop_
_geom_bond_atom_site_label_1
_geom_bond_atom_site_label_2
_geom_bond_distance
_geom_bond_site_symmetry_2
Co0 O36 2.089901 1_555
Co0 O32 2.099119 1_455
Co0 O46 2.131366 1_455
Co0 O40 2.131366 1_455
Co0 O6 2.159679 1_555
Co0 O0 2.159679 1_555
Co1 O37 2.089901 1_555
Co1 O33 2.099119 1_555
Co1 O47 2.131366 1_555
Co1 O41 2.131366 1_555
Co1 O7 2.159679 1_555
Co1 O1 2.159679 1_555
Co2 O38 2.089901 1_555
Co2 O34 2.099119 1_655
Co2 O44 2.131366 1_655
Co2 O42 2.131366 1_655
Co2 O4 2.159679 1_555
Co2 O2 2.159679 1_555
Co3 O39 2.089901 1_555
Co3 O35 2.099119 1_555
Co3 O43 2.131366 1_555
Co3 O45 2.131366 1_555
Co3 O5 2.159679 1_555
Co3 O3 2.159679 1_555
H0 O32 0.991820 1_555
H1 O33 0.991820 1_555
H2 O34 0.991820 1_555
H3 O35 0.991820 1_555
H4 O34 0.991820 1_555
H5 O35 0.991820 1_555
H6 O32 0.991820 1_555
H7 O33 0.991820 1_555
H8 O36 0.974707 1_555
H9 O37 0.974707 1_555
H10 O38 0.974707 1_555
H11 O39 0.974707 1_555
H12 O38 0.974707 1_555
H13 O39 0.974707 1_555
H14 O36 0.974707 1_555
H15 O37 0.974707 1_555
H16 O40 0.991955 1_555
H17 O41 0.991955 1_555
H18 O42 0.991955 1_555
H19 O43 0.991955 1_555
H20 O44 0.991955 1_555
H21 O45 0.991955 1_555
H22 O46 0.991955 1_555
H23 O47 0.991955 1_555
H24 O40 0.974473 1_555
H25 O41 0.974473 1_555
H26 O42 0.974473 1_555
H27 O43 0.974473 1_555
H28 O44 0.974473 1_555
H29 O45 0.974473 1_555
H30 O46 0.974473 1_555
H31 O47 0.974473 1_555
O0 P0 1.532771 1_555
O1 P1 1.532771 1_555
O2 P2 1.532771 1_555
O3 P3 1.532771 1_555
O4 P4 1.532771 1_555
O5 P5 1.532771 1_555
O6 P6 1.532771 1_555
O7 P7 1.532771 1_555
O8 P0 1.565383 1_555
O8 Zn0 1.945289 1_555
O9 P1 1.565383 1_545
O9 Zn1 1.945289 1_555
O10 P2 1.565383 1_555
O10 Zn2 1.945289 1_555
O11 P3 1.565383 1_565
O11 Zn3 1.945289 1_555
O12 P4 1.565383 1_555
O12 Zn4 1.945289 1_555
O13 P5 1.565383 1_565
O13 Zn5 1.945289 1_555
O14 P6 1.565383 1_555
O14 Zn6 1.945289 1_555
O15 P7 1.565383 1_545
O15 Zn7 1.945289 1_555
O16 P4 1.539517 1_455
O16 Zn0 1.916495 1_555
O17 P5 1.539517 1_555
O17 Zn1 1.916495 1_554
O18 P6 1.539517 1_655
O18 Zn2 1.916495 1_556
O19 P7 1.539517 1_555
O19 Zn3 1.916495 1_555
O20 P0 1.539517 1_655
O20 Zn4 1.916495 1_555
O21 P1 1.539517 1_555
O21 Zn5 1.916495 1_556
O22 P2 1.539517 1_455
O22 Zn6 1.916495 1_554
O23 P3 1.539517 1_555
O23 Zn7 1.916495 1_555
O24 P4 1.595366 1_555
O24 Zn0 2.017791 1_555
O24 Zn3 2.026459 1_555
O25 P5 1.595366 1_555
O25 Zn1 2.017791 1_654
O25 Zn2 2.026459 1_555
O26 P6 1.595366 1_555
O26 Zn2 2.017791 1_556
O26 Zn1 2.026459 1_555
O27 P7 1.595366 1_555
O27 Zn3 2.017791 1_455
O27 Zn0 2.026459 1_555
O28 P0 1.595366 1_555
O28 Zn4 2.017791 1_555
O28 Zn7 2.026459 1_555
O29 P1 1.595366 1_555
O29 Zn5 2.017791 1_456
O29 Zn6 2.026459 1_555
O30 P2 1.595366 1_555
O30 Zn6 2.017791 1_554
O30 Zn5 2.026459 1_555
O31 P3 1.595366 1_555
O31 Zn7 2.017791 1_655
O31 Zn4 2.026459 1_555
