# generated using pymatgen
data_MgMo2O5
_symmetry_space_group_name_H-M   'P 1'
_cell_length_a   3.23808700
_cell_length_b   5.16402479
_cell_length_c   12.34482236
_cell_angle_alpha   94.64182546
_cell_angle_beta   90.54624054
_cell_angle_gamma   90.85784472
_symmetry_Int_Tables_number   1
_chemical_formula_structural   MgMo2O5
_chemical_formula_sum   'Mg2 Mo4 O10'
_cell_volume   205.71262973
_cell_formula_units_Z   2
loop_
 _symmetry_equiv_pos_site_id
 _symmetry_equiv_pos_as_xyz
  1  'x, y, z'
loop_
 _atom_site_type_symbol
 _atom_site_label
 _atom_site_symmetry_multiplicity
 _atom_site_fract_x
 _atom_site_fract_y
 _atom_site_fract_z
 _atom_site_occupancy
  Mg  Mg0  1  0.80535800  0.88682100  0.22612700  1
  Mg  Mg1  1  0.26575600  0.13338400  0.76168700  1
  Mo  Mo0  1  0.28709800  0.40157000  0.09978700  1
  Mo  Mo1  1  0.75665100  0.61190000  0.89513300  1
  Mo  Mo2  1  0.78575600  0.59292800  0.60378200  1
  Mo  Mo3  1  0.26838300  0.41634200  0.38876200  1
  O  O0  1  0.77003400  0.37525200  0.75050600  1
  O  O1  1  0.29956600  0.62328900  0.24790100  1
  O  O2  1  0.78401400  0.65603700  0.06520200  1
  O  O3  1  0.25648500  0.36266200  0.93414700  1
  O  O4  1  0.77463400  0.66005400  0.44598600  1
  O  O5  1  0.28233500  0.34909100  0.55127800  1
  O  O6  1  0.79787900  0.19106100  0.34033400  1
  O  O7  1  0.25496300  0.82318800  0.65230900  1
  O  O8  1  0.30032600  0.84063600  0.86688500  1
  O  O9  1  0.30882700  0.08300100  0.15363000  1
loop_
_geom_bond_atom_site_label_1
_geom_bond_atom_site_label_2
_geom_bond_distance
_geom_bond_site_symmetry_2
Mg0 O6 2.024833 1_565
Mg0 O9 2.140193 1_565
Mg0 O1 2.145087 1_655
Mg0 O1 2.146510 1_555
Mg0 O9 2.147137 1_665
Mg0 O2 2.232345 1_555
Mg1 O7 2.009404 1_545
Mg1 O0 2.053427 1_555
Mg1 O0 2.058988 1_455
Mg1 O8 2.074726 1_545
Mg1 O3 2.351518 1_555
Mo0 O9 1.825557 1_555
Mo0 O3 2.039713 1_554
Mo0 O1 2.077050 1_555
Mo0 O2 2.130429 1_555
Mo0 O2 2.168975 1_455
Mo1 O8 1.951743 1_555
Mo1 O0 2.081551 1_555
Mo1 O2 2.094273 1_556
Mo1 O3 2.136431 1_555
Mo1 O8 2.152251 1_655
Mo1 O3 2.157757 1_655
Mo2 O7 1.973420 1_655
Mo2 O4 2.006077 1_555
Mo2 O5 2.109319 1_555
Mo2 O5 2.130633 1_655
Mo2 O7 2.166196 1_555
Mo2 O0 2.208276 1_555
Mo3 O6 1.961874 1_455
Mo3 O5 2.063764 1_555
Mo3 O1 2.115881 1_555
Mo3 O4 2.131300 1_555
Mo3 O4 2.139392 1_455
Mo3 O6 2.148768 1_555
