# generated using pymatgen
data_DyMnGa
_symmetry_space_group_name_H-M   'P 1'
_cell_length_a   7.11795624
_cell_length_b   7.11795624
_cell_length_c   4.12367200
_cell_angle_alpha   90.00000000
_cell_angle_beta   90.00000000
_cell_angle_gamma   120.00000226
_symmetry_Int_Tables_number   1
_chemical_formula_structural   DyMnGa
_chemical_formula_sum   'Dy3 Mn3 Ga3'
_cell_volume   180.93615768
_cell_formula_units_Z   3
loop_
 _symmetry_equiv_pos_site_id
 _symmetry_equiv_pos_as_xyz
  1  'x, y, z'
loop_
 _atom_site_type_symbol
 _atom_site_label
 _atom_site_symmetry_multiplicity
 _atom_site_fract_x
 _atom_site_fract_y
 _atom_site_fract_z
 _atom_site_occupancy
  Dy  Dy0  1  0.41328300  0.00000000  0.50000000  1
  Dy  Dy1  1  0.00000000  0.41328300  0.50000000  1
  Dy  Dy2  1  0.58671700  0.58671700  0.50000000  1
  Mn  Mn0  1  0.76157300  0.00000000  0.00000000  1
  Mn  Mn1  1  0.00000000  0.76157300  0.00000000  1
  Mn  Mn2  1  0.23842700  0.23842700  0.00000000  1
  Ga  Ga0  1  0.33333300  0.66666700  0.00000000  1
  Ga  Ga1  1  0.66666700  0.33333300  0.00000000  1
  Ga  Ga2  1  0.00000000  0.00000000  0.50000000  1
loop_
_geom_bond_atom_site_label_1
_geom_bond_atom_site_label_2
_geom_bond_distance
_geom_bond_site_symmetry_2
Dy0 Ga2 2.941730 1_555
Dy0 Ga0 2.975611 1_545
Dy0 Ga0 2.975611 1_546
Dy0 Ga1 2.975612 1_556
Dy0 Ga1 2.975612 1_555
Dy0 Mn0 3.224464 1_556
Dy0 Mn0 3.224464 1_555
Dy0 Mn1 3.285223 1_545
Dy0 Mn1 3.285223 1_546
Dy0 Mn2 3.285223 1_556
Dy0 Mn2 3.285223 1_555
Dy1 Ga2 2.941730 1_555
Dy1 Ga1 2.975611 1_455
Dy1 Ga1 2.975611 1_456
Dy1 Ga0 2.975612 1_556
Dy1 Ga0 2.975612 1_555
Dy1 Mn1 3.224464 1_555
Dy1 Mn1 3.224464 1_556
Dy1 Mn0 3.285223 1_456
Dy1 Mn0 3.285223 1_455
Dy1 Mn2 3.285223 1_556
Dy1 Mn2 3.285223 1_555
Dy2 Ga2 2.941730 1_665
Dy2 Ga1 2.975616 1_556
Dy2 Ga1 2.975616 1_555
Dy2 Ga0 2.975616 1_556
Dy2 Ga0 2.975616 1_555
Dy2 Mn2 3.224464 1_555
Dy2 Mn2 3.224464 1_556
Dy2 Mn0 3.285223 1_565
Dy2 Mn1 3.285223 1_655
Dy2 Mn1 3.285223 1_656
Dy2 Mn0 3.285223 1_566
Mn0 Mn2 2.939486 1_655
Mn0 Mn1 2.939486 1_645
Mn1 Mn2 2.939486 1_565
Ga0 Mn1 2.772838 1_555
Ga0 Mn0 2.772842 1_565
Ga0 Mn2 2.772845 1_555
Ga1 Mn0 2.772838 1_555
Ga1 Mn1 2.772842 1_655
Ga1 Mn2 2.772845 1_555
Ga2 Mn2 2.670461 1_555
Ga2 Mn2 2.670461 1_556
Ga2 Mn0 2.670461 1_456
Ga2 Mn1 2.670461 1_545
Ga2 Mn1 2.670461 1_546
Ga2 Mn0 2.670461 1_455
