# generated using pymatgen
data_CsK2As
_symmetry_space_group_name_H-M   'P 1'
_cell_length_a   15.67452618
_cell_length_b   15.67452618
_cell_length_c   15.67452618
_cell_angle_alpha   120.63945918
_cell_angle_beta   120.51751878
_cell_angle_gamma   89.00094745
_symmetry_Int_Tables_number   1
_chemical_formula_structural   CsK2As
_chemical_formula_sum   'Cs1 K2 As1'
_cell_volume   2698.86983173
_cell_formula_units_Z   1
loop_
 _symmetry_equiv_pos_site_id
 _symmetry_equiv_pos_as_xyz
  1  'x, y, z'
loop_
 _atom_site_type_symbol
 _atom_site_label
 _atom_site_symmetry_multiplicity
 _atom_site_fract_x
 _atom_site_fract_y
 _atom_site_fract_z
 _atom_site_occupancy
  Cs  Cs0  1  0.00000000  0.50000000  0.50000000  1
  K  K0  1  0.00000000  0.20140900  0.20140900  1
  K  K1  1  0.00000000  0.79859100  0.79859100  1
  As  As0  1  0.00000000  0.00000000  0.00000000  1
loop_
_geom_bond_atom_site_label_1
_geom_bond_atom_site_label_2
_geom_bond_distance
_geom_bond_site_symmetry_2
Cs0 K0 4.634963 1_555
Cs0 K1 4.634963 1_555
As0 K1 3.126428 1_544
As0 K0 3.126428 1_555
