# generated using pymatgen
data_MnZn
_symmetry_space_group_name_H-M   'P 1'
_cell_length_a   5.28298370
_cell_length_b   5.28298370
_cell_length_c   8.80189800
_cell_angle_alpha   90.00000000
_cell_angle_beta   90.00000000
_cell_angle_gamma   119.99999618
_symmetry_Int_Tables_number   1
_chemical_formula_structural   MnZn
_chemical_formula_sum   'Mn8 Zn8'
_cell_volume   212.74801690
_cell_formula_units_Z   8
loop_
 _symmetry_equiv_pos_site_id
 _symmetry_equiv_pos_as_xyz
  1  'x, y, z'
loop_
 _atom_site_type_symbol
 _atom_site_label
 _atom_site_symmetry_multiplicity
 _atom_site_fract_x
 _atom_site_fract_y
 _atom_site_fract_z
 _atom_site_occupancy
  Mn  Mn0_0  1  0.33333350  0.16666650  0.25000000  1
  Mn  Mn0_1  1  0.33333350  0.16666650  0.75000000  1
  Mn  Mn0_2  1  0.33333350  0.66666650  0.25000000  1
  Mn  Mn0_3  1  0.33333350  0.66666650  0.75000000  1
  Mn  Mn0_4  1  0.83333350  0.16666650  0.25000000  1
  Mn  Mn0_5  1  0.83333350  0.16666650  0.75000000  1
  Mn  Mn0_6  1  0.83333350  0.66666650  0.25000000  1
  Mn  Mn0_7  1  0.83333350  0.66666650  0.75000000  1
  Zn  Zn0_0  1  0.16666650  0.33333350  0.00000000  1
  Zn  Zn0_1  1  0.16666650  0.33333350  0.50000000  1
  Zn  Zn0_2  1  0.16666650  0.83333350  0.00000000  1
  Zn  Zn0_3  1  0.16666650  0.83333350  0.50000000  1
  Zn  Zn0_4  1  0.66666650  0.33333350  0.00000000  1
  Zn  Zn0_5  1  0.66666650  0.33333350  0.50000000  1
  Zn  Zn0_6  1  0.66666650  0.83333350  0.00000000  1
  Zn  Zn0_7  1  0.66666650  0.83333350  0.50000000  1
loop_
_geom_bond_atom_site_label_1
_geom_bond_atom_site_label_2
_geom_bond_distance
_geom_bond_site_symmetry_2
Mn0_0 Mn0_2 2.641492 1_545
Mn0_0 Mn0_4 2.641492 1_455
Mn0_0 Mn0_4 2.641492 1_555
Mn0_0 Mn0_2 2.641492 1_555
Mn0_0 Mn0_6 2.641492 1_445
Mn0_0 Mn0_6 2.641492 1_555
Mn0_0 Zn0_3 2.677295 1_545
Mn0_0 Zn0_2 2.677295 1_545
Mn0_0 Zn0_4 2.677295 1_555
Mn0_0 Zn0_5 2.677295 1_555
Mn0_0 Zn0_0 2.677298 1_555
Mn0_0 Zn0_1 2.677298 1_555
Mn0_1 Mn0_3 2.641492 1_545
Mn0_1 Mn0_5 2.641492 1_455
Mn0_1 Mn0_5 2.641492 1_555
Mn0_1 Mn0_3 2.641492 1_555
Mn0_1 Mn0_7 2.641492 1_445
Mn0_1 Mn0_7 2.641492 1_555
Mn0_1 Zn0_3 2.677295 1_545
Mn0_1 Zn0_2 2.677295 1_546
Mn0_1 Zn0_4 2.677295 1_556
Mn0_1 Zn0_5 2.677295 1_555
Mn0_1 Zn0_1 2.677298 1_555
Mn0_1 Zn0_0 2.677298 1_556
Mn0_2 Mn0_6 2.641492 1_455
Mn0_2 Mn0_6 2.641492 1_555
Mn0_2 Mn0_4 2.641492 1_455
Mn0_2 Mn0_4 2.641492 1_565
Mn0_2 Zn0_6 2.677295 1_555
Mn0_2 Zn0_0 2.677295 1_555
Mn0_2 Zn0_1 2.677295 1_555
Mn0_2 Zn0_7 2.677295 1_555
Mn0_2 Zn0_3 2.677298 1_555
Mn0_2 Zn0_2 2.677298 1_555
Mn0_3 Mn0_7 2.641492 1_455
Mn0_3 Mn0_7 2.641492 1_555
Mn0_3 Mn0_5 2.641492 1_455
Mn0_3 Mn0_5 2.641492 1_565
Mn0_3 Zn0_1 2.677295 1_555
Mn0_3 Zn0_6 2.677295 1_556
Mn0_3 Zn0_7 2.677295 1_555
Mn0_3 Zn0_0 2.677295 1_556
Mn0_3 Zn0_2 2.677298 1_556
Mn0_3 Zn0_3 2.677298 1_555
Mn0_4 Mn0_6 2.641492 1_545
Mn0_4 Mn0_6 2.641492 1_555
Mn0_4 Zn0_7 2.677295 1_545
Mn0_4 Zn0_6 2.677295 1_545
Mn0_4 Zn0_0 2.677295 1_655
Mn0_4 Zn0_1 2.677295 1_655
Mn0_4 Zn0_4 2.677298 1_555
Mn0_4 Zn0_5 2.677298 1_555
Mn0_5 Mn0_7 2.641492 1_545
Mn0_5 Mn0_7 2.641492 1_555
Mn0_5 Zn0_6 2.677295 1_546
Mn0_5 Zn0_7 2.677295 1_545
Mn0_5 Zn0_0 2.677295 1_656
Mn0_5 Zn0_1 2.677295 1_655
Mn0_5 Zn0_5 2.677298 1_555
Mn0_5 Zn0_4 2.677298 1_556
Mn0_6 Zn0_3 2.677295 1_655
Mn0_6 Zn0_2 2.677295 1_655
Mn0_6 Zn0_4 2.677295 1_555
Mn0_6 Zn0_5 2.677295 1_555
Mn0_6 Zn0_6 2.677298 1_555
Mn0_6 Zn0_7 2.677298 1_555
Mn0_7 Zn0_3 2.677295 1_655
Mn0_7 Zn0_2 2.677295 1_656
Mn0_7 Zn0_4 2.677295 1_556
Mn0_7 Zn0_5 2.677295 1_555
Mn0_7 Zn0_6 2.677298 1_556
Mn0_7 Zn0_7 2.677298 1_555
Zn0_0 Zn0_2 2.641492 1_545
Zn0_0 Zn0_4 2.641492 1_455
Zn0_0 Zn0_4 2.641492 1_555
Zn0_0 Zn0_2 2.641492 1_555
Zn0_0 Zn0_6 2.641492 1_445
Zn0_0 Zn0_6 2.641492 1_555
Zn0_1 Zn0_5 2.641492 1_455
Zn0_1 Zn0_3 2.641492 1_545
Zn0_1 Zn0_5 2.641492 1_555
Zn0_1 Zn0_3 2.641492 1_555
Zn0_1 Zn0_7 2.641492 1_445
Zn0_1 Zn0_7 2.641492 1_555
Zn0_2 Zn0_6 2.641492 1_455
Zn0_2 Zn0_6 2.641492 1_555
Zn0_2 Zn0_4 2.641492 1_455
Zn0_2 Zn0_4 2.641492 1_565
Zn0_3 Zn0_7 2.641492 1_455
Zn0_3 Zn0_7 2.641492 1_555
Zn0_3 Zn0_5 2.641492 1_455
Zn0_3 Zn0_5 2.641492 1_565
Zn0_4 Zn0_6 2.641492 1_545
Zn0_4 Zn0_6 2.641492 1_555
Zn0_5 Zn0_7 2.641492 1_545
Zn0_5 Zn0_7 2.641492 1_555
