# generated using pymatgen
data_Ba2Sn
_symmetry_space_group_name_H-M   'P 1'
_cell_length_a   5.68966668
_cell_length_b   8.86485732
_cell_length_c   10.68431621
_cell_angle_alpha   90.00000000
_cell_angle_beta   90.00000000
_cell_angle_gamma   90.00000000
_symmetry_Int_Tables_number   1
_chemical_formula_structural   Ba2Sn
_chemical_formula_sum   'Ba8 Sn4'
_cell_volume   538.89643118
_cell_formula_units_Z   4
loop_
 _symmetry_equiv_pos_site_id
 _symmetry_equiv_pos_as_xyz
  1  'x, y, z'
loop_
 _atom_site_type_symbol
 _atom_site_label
 _atom_site_symmetry_multiplicity
 _atom_site_fract_x
 _atom_site_fract_y
 _atom_site_fract_z
 _atom_site_occupancy
  Ba  Ba0  1  0.75000000  0.84679112  0.92018673  1
  Ba  Ba1  1  0.25000000  0.15320888  0.07981327  1
  Ba  Ba2  1  0.75000000  0.34679112  0.57981327  1
  Ba  Ba3  1  0.25000000  0.65320888  0.42018673  1
  Ba  Ba4  1  0.75000000  0.97933388  0.32190994  1
  Ba  Ba5  1  0.25000000  0.02066612  0.67809006  1
  Ba  Ba6  1  0.75000000  0.47933388  0.17809006  1
  Ba  Ba7  1  0.25000000  0.52066612  0.82190994  1
  Sn  Sn0  1  0.75000000  0.75051275  0.60222559  1
  Sn  Sn1  1  0.25000000  0.24948725  0.39777441  1
  Sn  Sn2  1  0.75000000  0.25051275  0.89777441  1
  Sn  Sn3  1  0.25000000  0.74948725  0.10222559  1
loop_
_geom_bond_atom_site_label_1
_geom_bond_atom_site_label_2
_geom_bond_distance
_geom_bond_site_symmetry_2
Ba0 Sn0 3.502771 1_555
Ba0 Sn3 3.552464 1_556
Ba0 Sn3 3.552464 1_656
Ba0 Sn2 3.586937 1_565
Ba1 Sn1 3.502771 1_555
Ba1 Sn2 3.552464 1_454
Ba1 Sn2 3.552464 1_554
Ba1 Sn3 3.586937 1_545
Ba2 Sn2 3.502771 1_555
Ba2 Sn1 3.552464 1_555
Ba2 Sn1 3.552464 1_655
Ba2 Sn0 3.586937 1_555
Ba3 Sn3 3.502771 1_555
Ba3 Sn0 3.552464 1_555
Ba3 Sn0 3.552464 1_455
Ba3 Sn1 3.586937 1_555
Ba4 Sn0 3.617263 1_555
Ba4 Sn1 3.805981 1_565
Ba4 Sn1 3.805981 1_665
Ba5 Sn1 3.617263 1_555
Ba5 Sn0 3.805981 1_545
Ba5 Sn0 3.805981 1_445
Ba6 Sn2 3.617263 1_554
Ba6 Sn3 3.805981 1_555
Ba6 Sn3 3.805981 1_655
Ba7 Sn3 3.617263 1_556
Ba7 Sn2 3.805981 1_555
Ba7 Sn2 3.805981 1_455
