# generated using pymatgen
data_Dy3Mg2MoS8
_symmetry_space_group_name_H-M   'P 1'
_cell_length_a   7.84335053
_cell_length_b   7.71034820
_cell_length_c   7.84338800
_cell_angle_alpha   59.42811800
_cell_angle_beta   59.99864406
_cell_angle_gamma   59.42815731
_symmetry_Int_Tables_number   1
_chemical_formula_structural   Dy3Mg2MoS8
_chemical_formula_sum   'Dy3 Mg2 Mo1 S8'
_cell_volume   332.46922462
_cell_formula_units_Z   1
loop_
 _symmetry_equiv_pos_site_id
 _symmetry_equiv_pos_as_xyz
  1  'x, y, z'
loop_
 _atom_site_type_symbol
 _atom_site_label
 _atom_site_symmetry_multiplicity
 _atom_site_fract_x
 _atom_site_fract_y
 _atom_site_fract_z
 _atom_site_occupancy
  Dy  Dy0  1  0.50000300  0.50001400  0.49998400  1
  Dy  Dy1  1  0.49999900  0.49999200  0.00000000  1
  Dy  Dy2  1  0.00000300  0.49999000  0.50000900  1
  Mg  Mg0  1  0.87452100  0.87643200  0.87452700  1
  Mg  Mg1  1  0.12548300  0.12356100  0.12547400  1
  Mo  Mo0  1  0.49999800  0.00000200  0.50000300  1
  S  S0  1  0.73387300  0.76434200  0.73387900  1
  S  S1  1  0.26612700  0.23566600  0.73208900  1
  S  S2  1  0.25495600  0.73514100  0.25494700  1
  S  S3  1  0.73209300  0.23566700  0.26611600  1
  S  S4  1  0.74503800  0.26485500  0.74504400  1
  S  S5  1  0.26790500  0.76433500  0.73388200  1
  S  S6  1  0.26611900  0.23565200  0.26613400  1
  S  S7  1  0.73388700  0.76434600  0.26791200  1
loop_
_geom_bond_atom_site_label_1
_geom_bond_atom_site_label_2
_geom_bond_distance
_geom_bond_site_symmetry_2
Dy0 S2 2.698100 1_555
Dy0 S4 2.698149 1_555
Dy0 S3 2.742701 1_555
Dy0 S7 2.742703 1_555
Dy0 S5 2.742716 1_555
Dy0 S1 2.742737 1_555
Dy1 S4 2.698074 1_554
Dy1 S2 2.698086 1_555
Dy1 S6 2.742720 1_555
Dy1 S0 2.742737 1_554
Dy1 S3 2.742740 1_555
Dy1 S5 2.742754 1_554
Dy2 S4 2.698106 1_455
Dy2 S2 2.698123 1_555
Dy2 S6 2.742683 1_555
Dy2 S1 2.742710 1_555
Dy2 S0 2.742737 1_455
Dy2 S7 2.742759 1_455
Mg0 S4 2.423965 1_565
Mg0 S5 2.517392 1_655
Mg0 S7 2.517415 1_556
Mg0 S0 2.517441 1_555
Mg1 S2 2.423946 1_545
Mg1 S1 2.517406 1_554
Mg1 S3 2.517427 1_455
Mg1 S6 2.517447 1_555
Mo0 S7 2.571946 1_545
Mo0 S1 2.571962 1_555
Mo0 S5 2.572009 1_545
Mo0 S3 2.572009 1_555
Mo0 S6 2.572021 1_555
Mo0 S0 2.572037 1_545
