# generated using pymatgen
data_Nd4Si7
_symmetry_space_group_name_H-M   'P 1'
_cell_length_a   4.09947922
_cell_length_b   4.24260218
_cell_length_c   13.83996695
_cell_angle_alpha   90.00000000
_cell_angle_beta   90.00000000
_cell_angle_gamma   90.00000000
_symmetry_Int_Tables_number   1
_chemical_formula_structural   Nd4Si7
_chemical_formula_sum   'Nd4 Si7'
_cell_volume   240.71106432
_cell_formula_units_Z   1
loop_
 _symmetry_equiv_pos_site_id
 _symmetry_equiv_pos_as_xyz
  1  'x, y, z'
loop_
 _atom_site_type_symbol
 _atom_site_label
 _atom_site_symmetry_multiplicity
 _atom_site_fract_x
 _atom_site_fract_y
 _atom_site_fract_z
 _atom_site_occupancy
  Nd  Nd0  1  -0.00000000  -0.00000000  0.62562420  1
  Nd  Nd1  1  0.50000000  0.50000000  0.12608335  1
  Nd  Nd2  1  0.50000000  0.00000000  0.87487093  1
  Nd  Nd3  1  -0.00000000  0.50000000  0.37403766  1
  Si  Si0  1  0.50000000  0.50000000  0.69726120  1
  Si  Si1  1  -0.00000000  0.00000000  0.21034010  1
  Si  Si2  1  -0.00000000  0.50000000  0.78915884  1
  Si  Si3  1  0.50000000  -0.00000000  0.29599988  1
  Si  Si4  1  -0.00000000  -0.00000000  0.04071903  1
  Si  Si5  1  -0.00000000  0.50000000  0.96068689  1
  Si  Si6  1  0.50000000  0.00000000  0.46191891  1
loop_
_geom_bond_atom_site_label_1
_geom_bond_atom_site_label_2
_geom_bond_distance
_geom_bond_site_symmetry_2
Nd0 Si6 3.055277 1_455
Nd0 Si6 3.055277 1_555
Nd0 Si2 3.102017 1_555
Nd0 Si2 3.102017 1_545
Nd0 Si0 3.111966 1_545
Nd0 Si0 3.111966 1_555
Nd0 Si0 3.111966 1_445
Nd0 Si0 3.111966 1_455
Nd1 Si5 3.072674 1_654
Nd1 Si5 3.072674 1_554
Nd1 Si3 3.167037 1_565
Nd1 Si3 3.167037 1_555
Nd1 Si1 3.171934 1_555
Nd1 Si1 3.171934 1_655
Nd1 Si1 3.171934 1_565
Nd1 Si1 3.171934 1_665
Nd1 Si4 3.177601 1_555
Nd1 Si4 3.177601 1_655
Nd1 Si4 3.177601 1_565
Nd1 Si4 3.177601 1_665
Nd2 Si4 3.077334 1_656
Nd2 Si4 3.077334 1_556
Nd2 Si2 3.179394 1_645
Nd2 Si2 3.179394 1_555
Nd2 Si2 3.179394 1_655
Nd2 Si2 3.179394 1_545
Nd2 Si5 3.179931 1_555
Nd2 Si5 3.179931 1_655
Nd2 Si5 3.179931 1_645
Nd2 Si5 3.179931 1_545
Nd2 Si0 3.246881 1_545
Nd2 Si0 3.246881 1_555
Nd3 Si1 3.103662 1_565
Nd3 Si1 3.103662 1_555
Nd3 Si3 3.141311 1_465
Nd3 Si3 3.141311 1_555
Nd3 Si3 3.141311 1_455
Nd3 Si3 3.141311 1_565
Nd3 Si6 3.190717 1_455
Nd3 Si6 3.190717 1_565
Nd3 Si6 3.190717 1_465
Nd3 Si6 3.190717 1_555
Si0 Si2 2.412273 1_555
Si0 Si2 2.412273 1_655
Si1 Si4 2.347550 1_555
Si1 Si3 2.367892 1_555
Si1 Si3 2.367892 1_455
Si2 Si5 2.373943 1_555
Si3 Si6 2.296314 1_555
Si4 Si5 2.393071 1_554
Si4 Si5 2.393071 1_544
