# generated using pymatgen
data_La2SiC(NO2)2
_symmetry_space_group_name_H-M   'P 1'
_cell_length_a   12.91621600
_cell_length_b   6.57529500
_cell_length_c   6.68015702
_cell_angle_alpha   74.72482020
_cell_angle_beta   90.00000000
_cell_angle_gamma   90.00000000
_symmetry_Int_Tables_number   1
_chemical_formula_structural   La2SiC(NO2)2
_chemical_formula_sum   'La8 Si4 C4 N8 O16'
_cell_volume   547.28900265
_cell_formula_units_Z   4
loop_
 _symmetry_equiv_pos_site_id
 _symmetry_equiv_pos_as_xyz
  1  'x, y, z'
loop_
 _atom_site_type_symbol
 _atom_site_label
 _atom_site_symmetry_multiplicity
 _atom_site_fract_x
 _atom_site_fract_y
 _atom_site_fract_z
 _atom_site_occupancy
  La  La0  1  0.09914300  0.58831400  0.21887200  1
  La  La1  1  0.59914300  0.41168600  0.28112800  1
  La  La2  1  0.90085700  0.41168600  0.78112800  1
  La  La3  1  0.40085700  0.58831400  0.71887200  1
  La  La4  1  0.85480500  0.96956000  0.33021400  1
  La  La5  1  0.35480500  0.03044000  0.16978600  1
  La  La6  1  0.14519500  0.03044000  0.66978600  1
  La  La7  1  0.64519500  0.96956000  0.83021400  1
  Si  Si0  1  0.90072900  0.90771100  0.81280000  1
  Si  Si1  1  0.40072900  0.09228900  0.68720000  1
  Si  Si2  1  0.09927100  0.09228900  0.18720000  1
  Si  Si3  1  0.59927100  0.90771100  0.31280000  1
  C  C0  1  0.84817300  0.47400100  0.26862900  1
  C  C1  1  0.34817300  0.52599900  0.23137100  1
  C  C2  1  0.15182700  0.52599900  0.73137100  1
  C  C3  1  0.65182700  0.47400100  0.76862900  1
  N  N0  1  0.90227300  0.57473300  0.36163800  1
  N  N1  1  0.40227300  0.42526700  0.13836200  1
  N  N2  1  0.09772700  0.42526700  0.63836200  1
  N  N3  1  0.59772700  0.57473300  0.86163800  1
  N  N4  1  0.79574600  0.37043600  0.17590000  1
  N  N5  1  0.29574600  0.62956400  0.32410000  1
  N  N6  1  0.20425400  0.62956400  0.82410000  1
  N  N7  1  0.70425400  0.37043600  0.67590000  1
  O  O0  1  0.05204600  0.89404100  0.37068000  1
  O  O1  1  0.55204600  0.10595900  0.12932000  1
  O  O2  1  0.94795400  0.10595900  0.62932000  1
  O  O3  1  0.44795400  0.89404100  0.87068000  1
  O  O4  1  0.99302600  0.74674500  0.91569200  1
  O  O5  1  0.49302600  0.25325500  0.58430800  1
  O  O6  1  0.00697400  0.25325500  0.08430800  1
  O  O7  1  0.50697400  0.74674500  0.41569200  1
  O  O8  1  0.83371300  0.02544900  0.95943000  1
  O  O9  1  0.33371300  0.97455100  0.54057000  1
  O  O10  1  0.16628700  0.97455100  0.04057000  1
  O  O11  1  0.66628700  0.02544900  0.45943000  1
  O  O12  1  0.81999700  0.77698600  0.70287100  1
  O  O13  1  0.31999700  0.22301400  0.79712900  1
  O  O14  1  0.18000300  0.22301400  0.29712900  1
  O  O15  1  0.68000300  0.77698600  0.20287100  1
loop_
_geom_bond_atom_site_label_1
_geom_bond_atom_site_label_2
_geom_bond_distance
_geom_bond_site_symmetry_2
La0 O4 2.440072 1_454
La0 O14 2.543980 1_555
La0 O0 2.552193 1_555
La0 O10 2.650779 1_555
La0 N5 2.667683 1_555
La0 N0 2.708976 1_455
La0 N2 2.723854 1_555
La0 O6 2.849993 1_555
La0 N6 2.914508 1_554
La1 O5 2.440072 1_555
La1 O15 2.543980 1_555
La1 O1 2.552193 1_555
La1 O11 2.650779 1_555
La1 N4 2.667683 1_555
La1 N1 2.708976 1_555
La1 N3 2.723854 1_554
La1 O7 2.849993 1_555
La1 N7 2.914508 1_555
La2 O6 2.440072 1_656
La2 O12 2.543980 1_555
La2 O2 2.552193 1_555
La2 O8 2.650779 1_555
La2 N7 2.667683 1_555
La2 N2 2.708976 1_655
La2 N0 2.723854 1_555
La2 O4 2.849993 1_555
La2 N4 2.914508 1_556
La3 O7 2.440072 1_555
La3 O13 2.543980 1_555
La3 O3 2.552193 1_555
La3 O9 2.650779 1_555
La3 N6 2.667683 1_555
La3 N3 2.708976 1_555
La3 N1 2.723854 1_556
La3 O5 2.849993 1_555
La3 N5 2.914508 1_555
La4 O8 2.421707 1_564
La4 O12 2.518275 1_555
La4 O0 2.596001 1_655
La4 N0 2.621559 1_555
La4 O11 2.641250 1_565
La4 N4 2.675943 1_565
La4 O2 2.681123 1_565
La4 O15 2.827033 1_555
La4 O6 2.902839 1_665
La5 O9 2.421707 1_545
La5 O13 2.518275 1_554
La5 O1 2.596001 1_555
La5 N1 2.621559 1_555
La5 O10 2.641250 1_545
La5 N5 2.675943 1_545
La5 O3 2.681123 1_544
La5 O14 2.827033 1_555
La5 O7 2.902839 1_545
La6 O10 2.421707 1_546
La6 O14 2.518275 1_555
La6 O2 2.596001 1_455
La6 N2 2.621559 1_555
La6 O9 2.641250 1_545
La6 N6 2.675943 1_545
La6 O0 2.681123 1_545
La6 O13 2.827033 1_555
La6 O4 2.902839 1_445
La7 O11 2.421707 1_565
La7 O15 2.518275 1_556
La7 O3 2.596001 1_555
La7 N3 2.621559 1_555
La7 O8 2.641250 1_565
La7 N7 2.675943 1_565
La7 O1 2.681123 1_566
La7 O12 2.827033 1_555
La7 O5 2.902839 1_565
C0 N4 1.236219 1_555
C0 N0 1.236868 1_555
C1 N5 1.236219 1_555
C1 N1 1.236868 1_555
C2 N6 1.236219 1_555
C2 N2 1.236868 1_555
C3 N7 1.236219 1_555
C3 N3 1.236868 1_555
O0 Si2 1.652786 1_565
O1 Si3 1.652786 1_545
O2 Si0 1.652786 1_545
O3 Si1 1.652786 1_565
O4 Si0 1.621879 1_555
O5 Si1 1.621879 1_555
O6 Si2 1.621879 1_555
O7 Si3 1.621879 1_555
O8 Si0 1.645472 1_545
O9 Si1 1.645472 1_565
O10 Si2 1.645472 1_565
O11 Si3 1.645472 1_545
O12 Si0 1.642564 1_555
O13 Si1 1.642564 1_555
O14 Si2 1.642564 1_555
O15 Si3 1.642564 1_555
