# generated using pymatgen
data_Sm(PIr)2
_symmetry_space_group_name_H-M   'P 1'
_cell_length_a   4.13955319
_cell_length_b   4.13955319
_cell_length_c   9.56972226
_cell_angle_alpha   90.00000000
_cell_angle_beta   90.00000000
_cell_angle_gamma   90.00000000
_symmetry_Int_Tables_number   1
_chemical_formula_structural   Sm(PIr)2
_chemical_formula_sum   'Sm2 P4 Ir4'
_cell_volume   163.98580954
_cell_formula_units_Z   2
loop_
 _symmetry_equiv_pos_site_id
 _symmetry_equiv_pos_as_xyz
  1  'x, y, z'
loop_
 _atom_site_type_symbol
 _atom_site_label
 _atom_site_symmetry_multiplicity
 _atom_site_fract_x
 _atom_site_fract_y
 _atom_site_fract_z
 _atom_site_occupancy
  Sm  Sm0  1  0.00000000  0.50000000  0.24283513  1
  Sm  Sm1  1  0.50000000  -0.00000000  0.75716487  1
  P  P0  1  0.00000000  -0.00000000  -0.00000000  1
  P  P1  1  0.50000000  0.50000000  -0.00000000  1
  P  P2  1  -0.00000000  0.50000000  0.64003044  1
  P  P3  1  0.50000000  0.00000000  0.35996956  1
  Ir  Ir0  1  0.00000000  -0.00000000  0.50000000  1
  Ir  Ir1  1  0.50000000  0.50000000  0.50000000  1
  Ir  Ir2  1  0.00000000  0.50000000  0.88639665  1
  Ir  Ir3  1  0.50000000  0.00000000  0.11360335  1
loop_
_geom_bond_atom_site_label_1
_geom_bond_atom_site_label_2
_geom_bond_distance
_geom_bond_site_symmetry_2
P0 Sm0 3.111964 1_555
P0 Sm1 3.111964 1_454
P0 Sm0 3.111964 1_545
P0 Sm1 3.111964 1_554
P1 Sm0 3.111964 1_555
P1 Sm1 3.111964 1_554
P1 Sm0 3.111964 1_655
P1 Sm1 3.111964 1_564
P2 Sm1 3.134400 1_455
P2 Sm1 3.134400 1_465
P2 Sm1 3.134400 1_565
P2 Sm1 3.134400 1_555
P3 Sm0 3.134400 1_645
P3 Sm0 3.134400 1_555
P3 Sm0 3.134400 1_655
P3 Sm0 3.134400 1_545
Ir0 P3 2.465708 1_455
Ir0 P2 2.465708 1_545
Ir0 P2 2.465708 1_555
Ir0 P3 2.465708 1_555
Ir0 Sm0 3.215661 1_545
Ir0 Sm1 3.215661 1_555
Ir0 Sm1 3.215661 1_455
Ir0 Sm0 3.215661 1_555
Ir1 P2 2.465708 1_655
Ir1 P2 2.465708 1_555
Ir1 P3 2.465708 1_565
Ir1 P3 2.465708 1_555
Ir1 Sm1 3.215661 1_565
Ir1 Sm0 3.215661 1_655
Ir1 Sm1 3.215661 1_555
Ir1 Sm0 3.215661 1_555
Ir2 P1 2.337921 1_556
Ir2 P0 2.337921 1_566
Ir2 P0 2.337921 1_556
Ir2 P1 2.337921 1_456
Ir2 P2 2.357656 1_555
Ir2 Sm1 3.177642 1_465
Ir2 Sm1 3.177642 1_565
Ir2 Sm1 3.177642 1_555
Ir2 Sm1 3.177642 1_455
Ir3 P0 2.337921 1_555
Ir3 P1 2.337921 1_545
Ir3 P0 2.337921 1_655
Ir3 P1 2.337921 1_555
Ir3 P3 2.357656 1_555
Ir3 Sm0 3.177642 1_555
Ir3 Sm0 3.177642 1_655
Ir3 Sm0 3.177642 1_545
Ir3 Sm0 3.177642 1_645
