# generated using pymatgen
data_Sr4LiMn2Cu3(SO)4
_symmetry_space_group_name_H-M   'P 1'
_cell_length_a   5.99170369
_cell_length_b   5.99075435
_cell_length_c   8.96059310
_cell_angle_alpha   91.30827046
_cell_angle_beta   70.47760191
_cell_angle_gamma   93.92266599
_symmetry_Int_Tables_number   1
_chemical_formula_structural   Sr4LiMn2Cu3(SO)4
_chemical_formula_sum   'Sr4 Li1 Mn2 Cu3 S4 O4'
_cell_volume   302.43801009
_cell_formula_units_Z   1
loop_
 _symmetry_equiv_pos_site_id
 _symmetry_equiv_pos_as_xyz
  1  'x, y, z'
loop_
 _atom_site_type_symbol
 _atom_site_label
 _atom_site_symmetry_multiplicity
 _atom_site_fract_x
 _atom_site_fract_y
 _atom_site_fract_z
 _atom_site_occupancy
  Sr  Sr0  1  0.39636100  0.99903300  0.19521900  1
  Sr  Sr1  1  0.90821100  0.50088000  0.19514500  1
  Sr  Sr2  1  0.05222800  0.54558300  0.80347300  1
  Sr  Sr3  1  0.64408800  0.95508100  0.80365200  1
  Li  Li0  1  0.35596200  0.24975000  0.78660300  1
  Mn  Mn0  1  0.48805600  0.49539000  0.02291900  1
  Mn  Mn1  1  0.98848600  0.00452500  0.02330900  1
  Cu  Cu0  1  0.50753900  0.24997600  0.48514100  1
  Cu  Cu1  1  0.50489300  0.74991700  0.49019200  1
  Cu  Cu2  1  0.00449500  0.25002700  0.49072100  1
  S  S0  1  0.18498700  0.00658100  0.64458200  1
  S  S1  1  0.66928200  0.49338500  0.64507800  1
  S  S2  1  0.33398100  0.49099700  0.34919100  1
  S  S3  1  0.81660600  0.00882100  0.34918600  1
  O  O0  1  0.24952500  0.24955100  0.00056600  1
  O  O1  1  0.75031500  0.75043400  0.99938100  1
  O  O2  1  0.75129800  0.25037100  0.99700600  1
  O  O3  1  0.24785200  0.74969800  0.00434900  1
loop_
_geom_bond_atom_site_label_1
_geom_bond_atom_site_label_2
_geom_bond_distance
_geom_bond_site_symmetry_2
Li0 O0 1.807018 1_556
Li0 S0 2.318102 1_555
Li0 S1 2.319765 1_555
Mn0 O0 2.035102 1_555
Mn0 O1 2.076758 1_554
Mn0 O2 2.180068 1_554
Mn0 O3 2.211731 1_555
Mn0 S2 2.756202 1_555
Mn1 O0 2.032006 1_655
Mn1 O1 2.071693 1_544
Mn1 O2 2.184145 1_554
Mn1 O3 2.216018 1_645
Mn1 S3 2.752866 1_555
Cu0 S1 2.399767 1_555
Cu0 S0 2.401354 1_555
Cu0 S3 2.403842 1_555
Cu0 S2 2.404719 1_555
Cu0 Li0 2.545990 1_555
Cu1 S3 2.367772 1_565
Cu1 S2 2.368314 1_555
Cu1 S1 2.544860 1_555
Cu1 S0 2.546762 1_565
Cu2 S2 2.368550 1_555
Cu2 S3 2.368928 1_455
Cu2 S0 2.549791 1_555
Cu2 S1 2.554299 1_455
S0 Sr2 3.067411 1_545
S0 Sr3 3.070207 1_445
S1 Sr3 3.070235 1_555
S1 Sr2 3.071658 1_655
S2 Sr0 3.217111 1_545
S2 Sr1 3.247830 1_555
S2 Sr1 3.285546 1_455
S2 Sr0 3.316275 1_555
S3 Sr1 3.217781 1_555
S3 Sr0 3.247301 1_545
S3 Sr0 3.285527 1_645
S3 Sr1 3.316082 1_545
O0 Sr0 2.719280 1_545
O0 Sr1 2.721669 1_455
O1 Sr3 2.436219 1_555
O1 Sr2 2.437831 1_655
O1 Sr0 2.760546 1_556
O1 Sr1 2.762178 1_556
O2 Sr3 2.644283 1_545
O2 Sr2 2.645773 1_655
O2 Sr1 2.662566 1_556
O2 Sr0 2.665325 1_546
O3 Sr1 2.581117 1_455
O3 Sr0 2.582001 1_555
O3 Sr2 2.687465 1_554
O3 Sr3 2.689293 1_554
