# generated using pymatgen
data_Li7Mn2(CoO4)3
_symmetry_space_group_name_H-M   'P 1'
_cell_length_a   5.89378500
_cell_length_b   5.90802425
_cell_length_c   6.42852214
_cell_angle_alpha   103.17420685
_cell_angle_beta   103.04721465
_cell_angle_gamma   92.09798225
_symmetry_Int_Tables_number   1
_chemical_formula_structural   Li7Mn2(CoO4)3
_chemical_formula_sum   'Li7 Mn2 Co3 O12'
_cell_volume   211.41030643
_cell_formula_units_Z   1
loop_
 _symmetry_equiv_pos_site_id
 _symmetry_equiv_pos_as_xyz
  1  'x, y, z'
loop_
 _atom_site_type_symbol
 _atom_site_label
 _atom_site_symmetry_multiplicity
 _atom_site_fract_x
 _atom_site_fract_y
 _atom_site_fract_z
 _atom_site_occupancy
  Li  Li0  1  0.99431200  0.50240400  0.00512700  1
  Li  Li1  1  0.33567700  0.83069500  0.33557900  1
  Li  Li2  1  0.15400100  0.17519300  0.65925100  1
  Li  Li3  1  0.50991100  0.49186500  0.00135200  1
  Li  Li4  1  0.67355000  0.16839100  0.65890800  1
  Li  Li5  1  0.83419600  0.83391300  0.33846600  1
  Li  Li6  1  0.83143300  0.33600600  0.33475200  1
  Mn  Mn0  1  0.99379000  0.00761900  0.99863700  1
  Mn  Mn1  1  0.33287800  0.33397600  0.33648900  1
  Co  Co0  1  0.67367600  0.66148200  0.66707400  1
  Co  Co1  1  0.50100400  0.00035200  0.00146500  1
  Co  Co2  1  0.16511200  0.66432900  0.66483500  1
  O  O0  1  0.76723500  0.75732000  0.99295000  1
  O  O1  1  0.08934300  0.08845700  0.31483400  1
  O  O2  1  0.91661800  0.45611200  0.66724600  1
  O  O3  1  0.23685900  0.78427500  0.98474700  1
  O  O4  1  0.41859600  0.39783300  0.65109300  1
  O  O5  1  0.55629800  0.09623900  0.31084300  1
  O  O6  1  0.23161300  0.25397400  0.01524300  1
  O  O7  1  0.57167500  0.57123900  0.34407700  1
  O  O8  1  0.43192700  0.87598500  0.68580600  1
  O  O9  1  0.74996700  0.21486400  0.99665300  1
  O  O10  1  0.92006700  0.92961900  0.68050700  1
  O  O11  1  0.11026400  0.56785700  0.35406700  1
loop_
_geom_bond_atom_site_label_1
_geom_bond_atom_site_label_2
_geom_bond_distance
_geom_bond_site_symmetry_2
Li0 O0 2.054140 1_554
Li0 O6 2.065741 1_655
Li0 O2 2.067212 1_554
Li0 O11 2.131074 1_655
Li0 O9 2.169349 1_554
Li0 O3 2.200825 1_654
Li1 O11 2.048135 1_555
Li1 O5 2.057916 1_565
Li1 O7 2.108866 1_555
Li1 O8 2.144764 1_555
Li1 O1 2.147503 1_565
Li1 O3 2.148076 1_554
Li2 O10 2.013355 1_445
Li2 O4 2.020655 1_555
Li2 O1 2.097043 1_555
Li2 O6 2.165491 1_556
Li2 O2 2.208665 1_455
Li2 O8 2.461803 1_545
Li3 O7 2.088303 1_555
Li3 O4 2.128139 1_554
Li3 O6 2.151328 1_555
Li3 O0 2.159651 1_554
Li3 O9 2.201635 1_554
Li3 O3 2.407448 1_554
Li4 O4 2.060114 1_555
Li4 O10 2.066036 1_545
Li4 O9 2.066408 1_555
Li4 O5 2.124001 1_555
Li4 O2 2.165692 1_555
Li4 O8 2.260421 1_545
Li5 O10 2.078589 1_555
Li5 O0 2.104055 1_554
Li5 O1 2.141896 1_665
Li5 O7 2.162987 1_555
Li5 O5 2.301327 1_565
Li5 O11 2.305138 1_655
Li6 O2 2.030342 1_555
Li6 O11 2.063470 1_655
Li6 O9 2.064307 1_554
Li6 O5 2.068772 1_555
Li6 O7 2.106682 1_555
Li6 O1 2.152038 1_655
Mn0 O9 1.921482 1_555
Mn0 O1 1.923012 1_656
Mn0 O10 1.933430 1_545
Mn0 O0 1.944167 1_545
Mn0 O6 1.951087 1_656
Mn0 O3 1.985925 1_645
Mn1 O4 1.914352 1_555
Mn1 O7 1.934299 1_555
Mn1 O11 1.942170 1_555
Mn1 O6 1.955075 1_555
Mn1 O1 1.961870 1_555
Mn1 O5 1.965140 1_555
Co0 O2 1.910356 1_555
Co0 O8 1.946981 1_555
Co0 O7 1.966058 1_555
Co0 O0 1.981959 1_555
Co0 O10 2.082888 1_555
Co0 O4 2.093526 1_555
Co1 O5 1.887564 1_555
Co1 O9 1.913738 1_554
Co1 O8 1.936186 1_544
Co1 O3 1.944557 1_544
Co1 O0 2.166712 1_544
Co1 O6 2.225117 1_555
Co2 O2 1.882952 1_455
Co2 O11 1.896410 1_555
Co2 O8 1.933449 1_555
Co2 O3 1.957431 1_555
Co2 O10 2.170713 1_455
Co2 O4 2.210686 1_555
