# generated using pymatgen
data_HoPS
_symmetry_space_group_name_H-M   'P 1'
_cell_length_a   5.29446264
_cell_length_b   5.33265431
_cell_length_c   16.64293828
_cell_angle_alpha   90.00000000
_cell_angle_beta   90.00000000
_cell_angle_gamma   90.00000000
_symmetry_Int_Tables_number   1
_chemical_formula_structural   HoPS
_chemical_formula_sum   'Ho8 P8 S8'
_cell_volume   469.88904727
_cell_formula_units_Z   8
loop_
 _symmetry_equiv_pos_site_id
 _symmetry_equiv_pos_as_xyz
  1  'x, y, z'
loop_
 _atom_site_type_symbol
 _atom_site_label
 _atom_site_symmetry_multiplicity
 _atom_site_fract_x
 _atom_site_fract_y
 _atom_site_fract_z
 _atom_site_occupancy
  Ho  Ho0  1  0.25000000  0.48374318  0.36186452  1
  Ho  Ho1  1  0.25000000  0.98374318  0.13813548  1
  Ho  Ho2  1  0.75000000  0.51625682  0.63813548  1
  Ho  Ho3  1  0.75000000  0.01625682  0.86186452  1
  Ho  Ho4  1  0.25000000  0.01376993  0.64658642  1
  Ho  Ho5  1  0.25000000  0.51376993  0.85341358  1
  Ho  Ho6  1  0.75000000  0.98623007  0.35341358  1
  Ho  Ho7  1  0.75000000  0.48623007  0.14658642  1
  P  P0  1  0.03783338  0.29400954  0.99706240  1
  P  P1  1  0.46216662  0.79400954  0.50293760  1
  P  P2  1  0.53783338  0.70599046  0.00293760  1
  P  P3  1  0.96216662  0.20599046  0.49706240  1
  P  P4  1  0.96216662  0.70599046  0.00293760  1
  P  P5  1  0.53783338  0.20599046  0.49706240  1
  P  P6  1  0.46216662  0.29400954  0.99706240  1
  P  P7  1  0.03783338  0.79400954  0.50293760  1
  S  S0  1  0.25000000  0.48497240  0.18898090  1
  S  S1  1  0.25000000  0.98497240  0.31101910  1
  S  S2  1  0.75000000  0.51502760  0.81101910  1
  S  S3  1  0.75000000  0.01502760  0.68898090  1
  S  S4  1  0.25000000  0.01019597  0.81582066  1
  S  S5  1  0.25000000  0.51019597  0.68417934  1
  S  S6  1  0.75000000  0.98980403  0.18417934  1
  S  S7  1  0.75000000  0.48980403  0.31582066  1
loop_
_geom_bond_atom_site_label_1
_geom_bond_atom_site_label_2
_geom_bond_distance
_geom_bond_site_symmetry_2
Ho0 S7 2.756103 1_455
Ho0 S7 2.756103 1_555
Ho0 S1 2.791142 1_545
Ho0 S1 2.803637 1_555
Ho0 S0 2.877299 1_555
Ho0 P7 3.084126 1_555
Ho0 P1 3.084126 1_555
Ho0 P5 3.095009 1_555
Ho0 P3 3.095009 1_455
Ho1 S6 2.756103 1_555
Ho1 S6 2.756103 1_455
Ho1 S0 2.791142 1_555
Ho1 S0 2.803637 1_565
Ho1 S1 2.877299 1_555
Ho1 P0 3.084126 1_564
Ho1 P6 3.084126 1_564
Ho1 P4 3.095009 1_455
Ho1 P2 3.095009 1_555
Ho2 S5 2.756103 1_555
Ho2 S5 2.756103 1_655
Ho2 S3 2.791142 1_565
Ho2 S3 2.803637 1_555
Ho2 S2 2.877299 1_555
Ho2 P5 3.084126 1_555
Ho2 P3 3.084126 1_555
Ho2 P7 3.095009 1_655
Ho2 P1 3.095009 1_555
Ho3 S4 2.756103 1_555
Ho3 S4 2.756103 1_655
Ho3 S2 2.791142 1_555
Ho3 S2 2.803637 1_545
Ho3 S3 2.877299 1_555
Ho3 P2 3.084126 1_546
Ho3 P4 3.084126 1_546
Ho3 P6 3.095009 1_555
Ho3 P0 3.095009 1_655
Ho4 S5 2.720198 1_555
Ho4 S3 2.739654 1_455
Ho4 S3 2.739654 1_555
Ho4 S5 2.757307 1_545
Ho4 S4 2.816619 1_555
Ho4 P1 2.889778 1_545
Ho4 P7 2.889778 1_545
Ho4 P5 3.092861 1_555
Ho4 P3 3.092861 1_455
Ho5 S4 2.720198 1_565
Ho5 S2 2.739654 1_555
Ho5 S2 2.739654 1_455
Ho5 S4 2.757307 1_555
Ho5 S5 2.816619 1_555
Ho5 P6 2.889778 1_555
Ho5 P0 2.889778 1_555
Ho5 P2 3.092861 1_556
Ho5 P4 3.092861 1_456
Ho6 S7 2.720198 1_555
Ho6 S1 2.739654 1_555
Ho6 S1 2.739654 1_655
Ho6 S7 2.757307 1_565
Ho6 S6 2.816619 1_555
Ho6 P5 2.889778 1_565
Ho6 P3 2.889778 1_565
Ho6 P7 3.092861 1_655
Ho6 P1 3.092861 1_555
Ho7 S6 2.720198 1_545
Ho7 S0 2.739654 1_555
Ho7 S0 2.739654 1_655
Ho7 S6 2.757307 1_555
Ho7 S7 2.816619 1_555
Ho7 P4 2.889778 1_555
Ho7 P2 2.889778 1_555
Ho7 P0 3.092861 1_654
Ho7 P6 3.092861 1_554
P0 P4 2.235319 1_456
P0 P6 2.246616 1_555
P1 P5 2.235319 1_565
P1 P7 2.246616 1_555
P2 P6 2.235319 1_554
P2 P4 2.246616 1_555
P3 P7 2.235319 1_645
P3 P5 2.246616 1_555
