# generated using pymatgen
data_ZnB2(NF2)4
_symmetry_space_group_name_H-M   'P 1'
_cell_length_a   5.62836100
_cell_length_b   11.89774600
_cell_length_c   16.00092800
_cell_angle_alpha   90.00000000
_cell_angle_beta   90.00000000
_cell_angle_gamma   90.00000000
_symmetry_Int_Tables_number   1
_chemical_formula_structural   ZnB2(NF2)4
_chemical_formula_sum   'Zn4 B8 N16 F32'
_cell_volume   1071.49909653
_cell_formula_units_Z   4
loop_
 _symmetry_equiv_pos_site_id
 _symmetry_equiv_pos_as_xyz
  1  'x, y, z'
loop_
 _atom_site_type_symbol
 _atom_site_label
 _atom_site_symmetry_multiplicity
 _atom_site_fract_x
 _atom_site_fract_y
 _atom_site_fract_z
 _atom_site_occupancy
  Zn  Zn0  1  0.75000000  0.64819900  0.87310500  1
  Zn  Zn1  1  0.75000000  0.14819900  0.62689500  1
  Zn  Zn2  1  0.25000000  0.35180100  0.12689500  1
  Zn  Zn3  1  0.25000000  0.85180100  0.37310500  1
  B  B0  1  0.75000000  0.22557900  0.89430400  1
  B  B1  1  0.75000000  0.72557900  0.60569600  1
  B  B2  1  0.25000000  0.77442100  0.10569600  1
  B  B3  1  0.25000000  0.27442100  0.39430400  1
  B  B4  1  0.75000000  0.00207400  0.31862200  1
  B  B5  1  0.75000000  0.50207400  0.18137800  1
  B  B6  1  0.25000000  0.99792600  0.68137800  1
  B  B7  1  0.25000000  0.49792600  0.81862200  1
  N  N0  1  0.75000000  0.95345600  0.00824600  1
  N  N1  1  0.75000000  0.45345600  0.49175400  1
  N  N2  1  0.25000000  0.04654400  0.99175400  1
  N  N3  1  0.25000000  0.54654400  0.50824600  1
  N  N4  1  0.75000000  0.65035300  0.00254900  1
  N  N5  1  0.75000000  0.15035300  0.49745100  1
  N  N6  1  0.25000000  0.34964700  0.99745100  1
  N  N7  1  0.25000000  0.84964700  0.50254900  1
  N  N8  1  0.00071900  0.76711500  0.83884800  1
  N  N9  1  0.49928100  0.26711500  0.66115200  1
  N  N10  1  0.50071900  0.23288500  0.16115200  1
  N  N11  1  0.99928100  0.73288500  0.33884800  1
  N  N12  1  0.99928100  0.23288500  0.16115200  1
  N  N13  1  0.50071900  0.73288500  0.33884800  1
  N  N14  1  0.49928100  0.76711500  0.83884800  1
  N  N15  1  0.00071900  0.26711500  0.66115200  1
  F  F0  1  0.75000000  0.05798300  0.03967500  1
  F  F1  1  0.75000000  0.55798300  0.46032500  1
  F  F2  1  0.25000000  0.94201700  0.96032500  1
  F  F3  1  0.25000000  0.44201700  0.53967500  1
  F  F4  1  0.75000000  0.30992500  0.94925800  1
  F  F5  1  0.75000000  0.80992500  0.55074200  1
  F  F6  1  0.25000000  0.69007500  0.05074200  1
  F  F7  1  0.25000000  0.19007500  0.44925800  1
  F  F8  1  0.95325000  0.18302000  0.86725400  1
  F  F9  1  0.54675000  0.68302000  0.63274600  1
  F  F10  1  0.45325000  0.81698000  0.13274600  1
  F  F11  1  0.04675000  0.31698000  0.36725400  1
  F  F12  1  0.04675000  0.81698000  0.13274600  1
  F  F13  1  0.45325000  0.31698000  0.36725400  1
  F  F14  1  0.54675000  0.18302000  0.86725400  1
  F  F15  1  0.95325000  0.68302000  0.63274600  1
  F  F16  1  0.75000000  0.11721200  0.31531700  1
  F  F17  1  0.75000000  0.61721200  0.18468300  1
  F  F18  1  0.25000000  0.88278800  0.68468300  1
  F  F19  1  0.25000000  0.38278800  0.81531700  1
  F  F20  1  0.75000000  0.94783000  0.24319600  1
  F  F21  1  0.75000000  0.44783000  0.25680400  1
  F  F22  1  0.25000000  0.05217000  0.75680400  1
  F  F23  1  0.25000000  0.55217000  0.74319600  1
  F  F24  1  0.53827400  0.96607600  0.36777500  1
  F  F25  1  0.96172600  0.46607600  0.13222500  1
  F  F26  1  0.03827400  0.03392400  0.63222500  1
  F  F27  1  0.46172600  0.53392400  0.86777500  1
  F  F28  1  0.46172600  0.03392400  0.63222500  1
  F  F29  1  0.03827400  0.53392400  0.86777500  1
  F  F30  1  0.96172600  0.96607600  0.36777500  1
  F  F31  1  0.53827400  0.46607600  0.13222500  1
loop_
_geom_bond_atom_site_label_1
_geom_bond_atom_site_label_2
_geom_bond_distance
_geom_bond_site_symmetry_2
B0 F8 1.323778 1_555
B0 F14 1.323778 1_555
B0 F4 1.334265 1_555
B1 F9 1.323778 1_555
B1 F15 1.323778 1_555
B1 F5 1.334265 1_555
B2 F12 1.323778 1_555
B2 F10 1.323778 1_555
B2 F6 1.334265 1_555
B3 F13 1.323778 1_555
B3 F11 1.323778 1_555
B3 F7 1.334265 1_555
B4 F20 1.368609 1_545
B4 F16 1.370903 1_555
B4 F24 1.490667 1_545
B4 F30 1.490667 1_545
B5 F21 1.368609 1_555
B5 F17 1.370903 1_555
B5 F25 1.490667 1_555
B5 F31 1.490667 1_555
B6 F22 1.368609 1_565
B6 F18 1.370903 1_555
B6 F26 1.490667 1_565
B6 F28 1.490667 1_565
B7 F23 1.368609 1_555
B7 F19 1.370903 1_555
B7 F29 1.490667 1_555
B7 F27 1.490667 1_555
N4 Zn0 2.071383 1_554
N5 Zn1 2.071383 1_555
N6 Zn2 2.071383 1_556
N7 Zn3 2.071383 1_555
N8 Zn0 2.072081 1_455
N9 Zn1 2.072081 1_555
N10 Zn2 2.072081 1_555
N11 Zn3 2.072081 1_655
N12 Zn2 2.072081 1_655
N13 Zn3 2.072081 1_555
N14 Zn0 2.072081 1_555
N15 Zn1 2.072081 1_455
F0 N0 1.341466 1_545
F1 N1 1.341466 1_555
F2 N2 1.341466 1_565
F3 N3 1.341466 1_555
F24 Zn3 2.118576 1_555
F25 Zn2 2.118576 1_655
F26 Zn1 2.118576 1_455
F27 Zn0 2.118576 1_555
F28 Zn1 2.118576 1_555
F29 Zn0 2.118576 1_455
F30 Zn3 2.118576 1_655
F31 Zn2 2.118576 1_555
