# generated using pymatgen
data_Na5Lu(MoO4)4
_symmetry_space_group_name_H-M   'P 1'
_cell_length_a   9.95461011
_cell_length_b   9.95461011
_cell_length_c   9.95461011
_cell_angle_alpha   109.44048048
_cell_angle_beta   109.44048048
_cell_angle_gamma   109.53271845
_symmetry_Int_Tables_number   1
_chemical_formula_structural   Na5Lu(MoO4)4
_chemical_formula_sum   'Na10 Lu2 Mo8 O32'
_cell_volume   759.36486428
_cell_formula_units_Z   2
loop_
 _symmetry_equiv_pos_site_id
 _symmetry_equiv_pos_as_xyz
  1  'x, y, z'
loop_
 _atom_site_type_symbol
 _atom_site_label
 _atom_site_symmetry_multiplicity
 _atom_site_fract_x
 _atom_site_fract_y
 _atom_site_fract_z
 _atom_site_occupancy
  Na  Na0  1  0.34964400  0.76511700  0.17638800  1
  Na  Na1  1  0.01511700  0.33872900  0.91547300  1
  Na  Na2  1  0.42325600  0.09964400  0.08452700  1
  Na  Na3  1  0.58872900  0.17325600  0.82361200  1
  Na  Na4  1  0.90035600  0.98488300  0.32361200  1
  Na  Na5  1  0.23488300  0.41127100  0.58452700  1
  Na  Na6  1  0.82674400  0.65035600  0.41547300  1
  Na  Na7  1  0.66127100  0.57674400  0.67638800  1
  Na  Na8  1  0.75000000  0.25000000  0.50000000  1
  Na  Na9  1  0.50000000  0.50000000  0.00000000  1
  Lu  Lu0  1  0.00000000  0.00000000  0.00000000  1
  Lu  Lu1  1  0.25000000  0.75000000  0.50000000  1
  Mo  Mo0  1  0.55719100  0.83139100  0.91014600  1
  Mo  Mo1  1  0.08139100  0.67124500  0.77420000  1
  Mo  Mo2  1  0.32875500  0.10295500  0.41014600  1
  Mo  Mo3  1  0.35295500  0.44280900  0.27420000  1
  Mo  Mo4  1  0.16860900  0.07875500  0.72580000  1
  Mo  Mo5  1  0.69280900  0.91860900  0.58985400  1
  Mo  Mo6  1  0.92124500  0.64704500  0.08985400  1
  Mo  Mo7  1  0.89704500  0.30719100  0.22580000  1
  O  O0  1  0.11423800  0.01905600  0.25709100  1
  O  O1  1  0.26905600  0.51196500  0.40481800  1
  O  O2  1  0.10714700  0.86423800  0.59518200  1
  O  O3  1  0.76196500  0.85714700  0.74290900  1
  O  O4  1  0.13576200  0.73094400  0.24290900  1
  O  O5  1  0.98094400  0.23803500  0.09518200  1
  O  O6  1  0.14285300  0.88576200  0.90481800  1
  O  O7  1  0.48803500  0.89285300  0.75709100  1
  O  O8  1  0.34967100  0.01986700  0.54788800  1
  O  O9  1  0.26986700  0.22197900  0.17019600  1
  O  O10  1  0.05178300  0.09967100  0.82980400  1
  O  O11  1  0.47197900  0.80178300  0.45211200  1
  O  O12  1  0.90032900  0.73013300  0.95211200  1
  O  O13  1  0.98013300  0.52802100  0.32980400  1
  O  O14  1  0.19821700  0.65032900  0.67019600  1
  O  O15  1  0.77802100  0.94821700  0.04788800  1
  O  O16  1  0.45343900  0.07044700  0.32174800  1
  O  O17  1  0.32044700  0.49869900  0.11700800  1
  O  O18  1  0.38169100  0.20343900  0.88299200  1
  O  O19  1  0.74869900  0.13169100  0.67825200  1
  O  O20  1  0.47018800  0.86417800  0.03889000  1
  O  O21  1  0.11417800  0.57528800  0.89399100  1
  O  O22  1  0.68129800  0.22018800  0.10600900  1
  O  O23  1  0.82528800  0.43129800  0.96111000  1
  O  O24  1  0.77981200  0.88582200  0.46111000  1
  O  O25  1  0.13582200  0.17471200  0.60600900  1
  O  O26  1  0.56870200  0.52981200  0.39399100  1
  O  O27  1  0.42471200  0.31870200  0.53889000  1
  O  O28  1  0.50130100  0.61830900  0.82174800  1
  O  O29  1  0.86830900  0.54656100  0.61700800  1
  O  O30  1  0.92955300  0.25130100  0.38299200  1
  O  O31  1  0.79656100  0.67955300  0.17825200  1
loop_
_geom_bond_atom_site_label_1
_geom_bond_atom_site_label_2
_geom_bond_distance
_geom_bond_site_symmetry_2
Na0 O20 2.342282 1_555
Na0 O4 2.385678 1_555
Na0 O17 2.407099 1_555
Na0 O11 2.441458 1_555
Na0 O21 2.466485 1_554
Na0 O16 2.525228 1_565
Na1 O21 2.342276 1_555
Na1 O5 2.385678 1_456
Na1 O19 2.407099 1_455
Na1 O10 2.441458 1_555
Na1 O23 2.466491 1_455
Na1 O17 2.525228 1_556
Na2 O22 2.342286 1_555
Na2 O6 2.385678 1_544
Na2 O16 2.407099 1_555
Na2 O9 2.441458 1_555
Na2 O20 2.466491 1_545
Na2 O18 2.525228 1_554
Na3 O23 2.342282 1_555
Na3 O7 2.385678 1_545
Na3 O18 2.407099 1_555
Na3 O8 2.441458 1_555
Na3 O22 2.466482 1_556
Na3 O19 2.525228 1_555
Na4 O24 2.342282 1_555
Na4 O0 2.385678 1_665
Na4 O30 2.407099 1_565
Na4 O15 2.441458 1_555
Na4 O25 2.466485 1_665
Na4 O31 2.525228 1_555
Na5 O25 2.342276 1_555
Na5 O1 2.385678 1_555
Na5 O28 2.407099 1_555
Na5 O14 2.441458 1_555
Na5 O27 2.466491 1_555
Na5 O30 2.525228 1_455
Na6 O26 2.342286 1_555
Na6 O2 2.385678 1_655
Na6 O31 2.407099 1_555
Na6 O13 2.441458 1_555
Na6 O24 2.466491 1_555
Na6 O29 2.525228 1_555
Na7 O27 2.342282 1_555
Na7 O3 2.385678 1_555
Na7 O29 2.407099 1_555
Na7 O12 2.441458 1_555
Na7 O26 2.466482 1_555
Na7 O28 2.525228 1_555
Na8 O19 2.435562 1_555
Na8 O29 2.435562 1_555
Na8 O30 2.435562 1_555
Na8 O16 2.435562 1_555
Na9 O31 2.435562 1_555
Na9 O17 2.435562 1_555
Na9 O28 2.435562 1_554
Na9 O18 2.435562 1_554
Lu0 O6 2.339703 1_544
Lu0 O0 2.339703 1_555
Lu0 O5 2.339703 1_455
Lu0 O3 2.339703 1_444
Lu0 O9 2.340703 1_555
Lu0 O10 2.340703 1_554
Lu0 O15 2.340703 1_445
Lu0 O12 2.340703 1_444
Lu1 O1 2.339703 1_555
Lu1 O7 2.339703 1_555
Lu1 O4 2.339703 1_555
Lu1 O2 2.339703 1_555
Lu1 O8 2.340703 1_565
Lu1 O13 2.340703 1_455
Lu1 O14 2.340703 1_555
Lu1 O11 2.340703 1_555
Mo0 O20 1.774415 1_556
Mo0 O28 1.796009 1_555
Mo0 O15 1.813175 1_556
Mo0 O7 1.836736 1_555
Mo1 O21 1.774423 1_555
Mo1 O29 1.796009 1_455
Mo1 O14 1.813175 1_555
Mo1 O6 1.836736 1_555
Mo2 O27 1.774415 1_555
Mo2 O16 1.796009 1_555
Mo2 O8 1.813175 1_555
Mo2 O0 1.836736 1_555
Mo3 O26 1.774416 1_555
Mo3 O17 1.796009 1_555
Mo3 O9 1.813175 1_555
Mo3 O1 1.836736 1_555
Mo4 O25 1.774423 1_555
Mo4 O18 1.796009 1_555
Mo4 O10 1.813175 1_555
Mo4 O2 1.836736 1_545
Mo5 O24 1.774415 1_555
Mo5 O19 1.796009 1_565
Mo5 O11 1.813175 1_555
Mo5 O3 1.836736 1_555
Mo6 O23 1.774415 1_554
Mo6 O31 1.796009 1_555
Mo6 O12 1.813175 1_554
Mo6 O4 1.836736 1_655
Mo7 O22 1.774416 1_555
Mo7 O30 1.796009 1_555
Mo7 O13 1.813175 1_555
Mo7 O5 1.836736 1_555
