# generated using pymatgen
data_Mg14TiSiO16
_symmetry_space_group_name_H-M   'P 1'
_cell_length_a   8.64314147
_cell_length_b   8.61720515
_cell_length_c   4.28039692
_cell_angle_alpha   90.00000000
_cell_angle_beta   90.00000000
_cell_angle_gamma   90.00000000
_symmetry_Int_Tables_number   1
_chemical_formula_structural   Mg14TiSiO16
_chemical_formula_sum   'Mg14 Ti1 Si1 O16'
_cell_volume   318.80277773
_cell_formula_units_Z   1
loop_
 _symmetry_equiv_pos_site_id
 _symmetry_equiv_pos_as_xyz
  1  'x, y, z'
loop_
 _atom_site_type_symbol
 _atom_site_label
 _atom_site_symmetry_multiplicity
 _atom_site_fract_x
 _atom_site_fract_y
 _atom_site_fract_z
 _atom_site_occupancy
  Mg  Mg0  1  0.50000000  0.00000000  -0.00000000  1
  Mg  Mg1  1  0.50000000  0.50000000  -0.00000000  1
  Mg  Mg2  1  0.00000000  0.25037253  0.50000000  1
  Mg  Mg3  1  0.00000000  0.74962747  0.50000000  1
  Mg  Mg4  1  0.50000000  0.25013355  0.50000000  1
  Mg  Mg5  1  0.50000000  0.74986645  0.50000000  1
  Mg  Mg6  1  0.25259512  0.00000000  0.50000000  1
  Mg  Mg7  1  0.25305191  0.50000000  0.50000000  1
  Mg  Mg8  1  0.74740488  0.00000000  0.50000000  1
  Mg  Mg9  1  0.74694809  0.50000000  0.50000000  1
  Mg  Mg10  1  0.25212230  0.24928575  -0.00000000  1
  Mg  Mg11  1  0.25212230  0.75071425  -0.00000000  1
  Mg  Mg12  1  0.74787770  0.24928575  0.00000000  1
  Mg  Mg13  1  0.74787770  0.75071425  0.00000000  1
  Ti  Ti0  1  0.00000000  0.00000000  -0.00000000  1
  Si  Si0  1  0.00000000  0.50000000  -0.00000000  1
  O  O0  1  0.25863525  0.00000000  0.00000000  1
  O  O1  1  0.26285160  0.50000000  0.00000000  1
  O  O2  1  0.74136475  0.00000000  -0.00000000  1
  O  O3  1  0.73714840  0.50000000  -0.00000000  1
  O  O4  1  0.24826726  0.25025371  0.50000000  1
  O  O5  1  0.24826726  0.74974629  0.50000000  1
  O  O6  1  0.75173274  0.25025371  0.50000000  1
  O  O7  1  0.75173274  0.74974629  0.50000000  1
  O  O8  1  0.00000000  0.00000000  0.50000000  1
  O  O9  1  0.00000000  0.50000000  0.50000000  1
  O  O10  1  0.50000000  0.00000000  0.50000000  1
  O  O11  1  0.50000000  0.50000000  0.50000000  1
  O  O12  1  0.00000000  0.24782854  0.00000000  1
  O  O13  1  0.00000000  0.75217146  -0.00000000  1
  O  O14  1  0.50000000  0.24920552  0.00000000  1
  O  O15  1  0.50000000  0.75079448  -0.00000000  1
loop_
_geom_bond_atom_site_label_1
_geom_bond_atom_site_label_2
_geom_bond_distance
_geom_bond_site_symmetry_2
Mg0 O2 2.086150 1_555
Mg0 O0 2.086150 1_555
Mg0 O10 2.140198 1_555
Mg0 O10 2.140198 1_554
Mg0 O15 2.147455 1_545
Mg0 O14 2.147455 1_555
Mg1 O1 2.049707 1_555
Mg1 O3 2.049707 1_555
Mg1 O11 2.140198 1_554
Mg1 O11 2.140198 1_555
Mg1 O14 2.161147 1_555
Mg1 O15 2.161147 1_555
Mg2 O12 2.140311 1_556
Mg2 O12 2.140311 1_555
Mg2 O6 2.145809 1_455
Mg2 O4 2.145809 1_555
Mg2 O9 2.151091 1_555
Mg2 O8 2.157511 1_555
Mg3 O13 2.140311 1_555
Mg3 O13 2.140311 1_556
Mg3 O5 2.145809 1_555
Mg3 O7 2.145809 1_455
Mg3 O9 2.151091 1_555
Mg3 O8 2.157511 1_565
Mg4 O14 2.140213 1_556
Mg4 O14 2.140213 1_555
Mg4 O11 2.153150 1_555
Mg4 O10 2.155452 1_555
Mg4 O6 2.175762 1_555
Mg4 O4 2.175762 1_555
Mg5 O15 2.140213 1_556
Mg5 O15 2.140213 1_555
Mg5 O11 2.153150 1_555
Mg5 O10 2.155452 1_565
Mg5 O7 2.175762 1_555
Mg5 O5 2.175762 1_555
Mg6 O10 2.138355 1_555
Mg6 O0 2.140835 1_555
Mg6 O0 2.140835 1_556
Mg6 O5 2.156812 1_545
Mg6 O4 2.156812 1_555
Mg6 O8 2.183215 1_555
Mg7 O11 2.134407 1_555
Mg7 O1 2.141874 1_556
Mg7 O1 2.141874 1_555
Mg7 O4 2.152512 1_555
Mg7 O5 2.152512 1_555
Mg7 O9 2.187163 1_555
Mg8 O10 2.138355 1_555
Mg8 O2 2.140835 1_555
Mg8 O2 2.140835 1_556
Mg8 O7 2.156812 1_545
Mg8 O6 2.156812 1_555
Mg8 O8 2.183215 1_655
Mg9 O11 2.134407 1_555
Mg9 O3 2.141874 1_556
Mg9 O3 2.141874 1_555
Mg9 O6 2.152512 1_555
Mg9 O7 2.152512 1_555
Mg9 O9 2.187163 1_655
Mg10 O4 2.140474 1_554
Mg10 O4 2.140474 1_555
Mg10 O14 2.142442 1_555
Mg10 O0 2.148884 1_555
Mg10 O1 2.162445 1_555
Mg10 O12 2.179165 1_555
Mg11 O5 2.140474 1_554
Mg11 O5 2.140474 1_555
Mg11 O15 2.142442 1_555
Mg11 O0 2.148884 1_565
Mg11 O1 2.162445 1_555
Mg11 O13 2.179165 1_555
Mg12 O6 2.140474 1_554
Mg12 O6 2.140474 1_555
Mg12 O14 2.142442 1_555
Mg12 O2 2.148884 1_555
Mg12 O3 2.162445 1_555
Mg12 O12 2.179165 1_655
Mg13 O7 2.140474 1_555
Mg13 O7 2.140474 1_554
Mg13 O15 2.142442 1_555
Mg13 O2 2.148884 1_565
Mg13 O3 2.162445 1_555
Mg13 O13 2.179165 1_655
O0 Ti0 2.235421 1_555
O1 Si0 2.271864 1_555
O2 Ti0 2.235421 1_655
O3 Si0 2.271864 1_655
O8 Ti0 2.140198 1_555
O8 Ti0 2.140198 1_556
O9 Si0 2.140198 1_555
O9 Si0 2.140198 1_556
O12 Ti0 2.135589 1_555
O12 Si0 2.173013 1_555
O13 Ti0 2.135589 1_565
O13 Si0 2.173013 1_555
