# generated using pymatgen
data_NdHO
_symmetry_space_group_name_H-M   'P 1'
_cell_length_a   7.88512255
_cell_length_b   7.88512255
_cell_length_c   5.57339915
_cell_angle_alpha   90.00000000
_cell_angle_beta   90.00000000
_cell_angle_gamma   90.00000000
_symmetry_Int_Tables_number   1
_chemical_formula_structural   NdHO
_chemical_formula_sum   'Nd8 H8 O8'
_cell_volume   346.52697068
_cell_formula_units_Z   8
loop_
 _symmetry_equiv_pos_site_id
 _symmetry_equiv_pos_as_xyz
  1  'x, y, z'
loop_
 _atom_site_type_symbol
 _atom_site_label
 _atom_site_symmetry_multiplicity
 _atom_site_fract_x
 _atom_site_fract_y
 _atom_site_fract_z
 _atom_site_occupancy
  Nd  Nd0  1  -0.00000000  0.00000000  0.00000000  1
  Nd  Nd1  1  0.50000000  0.50000000  0.00000000  1
  Nd  Nd2  1  0.50000000  0.00000000  0.05371943  1
  Nd  Nd3  1  -0.00000000  0.50000000  0.94628057  1
  Nd  Nd4  1  0.25000000  0.75000000  0.50000000  1
  Nd  Nd5  1  0.25000000  0.25000000  0.50000000  1
  Nd  Nd6  1  0.75000000  0.75000000  0.50000000  1
  Nd  Nd7  1  0.75000000  0.25000000  0.50000000  1
  H  H0  1  0.50000000  0.22959608  0.75262622  1
  H  H1  1  0.50000000  0.77040392  0.75262622  1
  H  H2  1  0.72959608  0.00000000  0.75262622  1
  H  H3  1  0.27040392  0.00000000  0.75262622  1
  H  H4  1  -0.00000000  0.27040392  0.24737378  1
  H  H5  1  -0.00000000  0.72959608  0.24737378  1
  H  H6  1  0.77040392  0.50000000  0.24737378  1
  H  H7  1  0.22959608  0.50000000  0.24737378  1
  O  O0  1  0.50000000  0.26468934  0.25624698  1
  O  O1  1  0.50000000  0.73531066  0.25624698  1
  O  O2  1  0.76468934  0.00000000  0.25624698  1
  O  O3  1  0.23531066  0.00000000  0.25624698  1
  O  O4  1  -0.00000000  0.23531066  0.74375302  1
  O  O5  1  -0.00000000  0.76468934  0.74375302  1
  O  O6  1  0.73531066  0.50000000  0.74375302  1
  O  O7  1  0.26468934  0.50000000  0.74375302  1
loop_
_geom_bond_atom_site_label_1
_geom_bond_atom_site_label_2
_geom_bond_distance
_geom_bond_site_symmetry_2
Nd0 O2 2.341446 1_455
Nd0 O3 2.341446 1_555
Nd0 O5 2.341446 1_544
Nd0 O4 2.341446 1_554
Nd1 O6 2.341446 1_554
Nd1 O0 2.341446 1_555
Nd1 O7 2.341446 1_554
Nd1 O1 2.341446 1_555
Nd2 O1 2.372790 1_545
Nd2 O2 2.372790 1_555
Nd2 O0 2.372790 1_555
Nd2 O3 2.372790 1_555
Nd3 O6 2.372790 1_455
Nd3 O7 2.372790 1_555
Nd3 O5 2.372790 1_555
Nd3 O4 2.372790 1_555
Nd4 O3 2.396868 1_565
Nd4 O1 2.396868 1_555
Nd4 O5 2.396868 1_555
Nd4 O7 2.396868 1_555
Nd5 O4 2.396868 1_555
Nd5 O3 2.396868 1_555
Nd5 O7 2.396868 1_555
Nd5 O0 2.396868 1_555
Nd6 O1 2.396868 1_555
Nd6 O6 2.396868 1_555
Nd6 O5 2.396868 1_655
Nd6 O2 2.396868 1_565
Nd7 O4 2.396868 1_655
Nd7 O6 2.396868 1_555
Nd7 O2 2.396868 1_555
Nd7 O0 2.396868 1_555
H0 Nd7 2.427809 1_555
H0 Nd5 2.427809 1_555
H0 Nd2 2.468519 1_556
H0 Nd1 2.539092 1_556
H1 Nd6 2.427809 1_555
H1 Nd4 2.427809 1_555
H1 Nd2 2.468519 1_566
H1 Nd1 2.539092 1_556
H2 Nd7 2.427809 1_555
H2 Nd6 2.427809 1_545
H2 Nd2 2.468519 1_556
H2 Nd0 2.539092 1_656
H3 Nd4 2.427809 1_545
H3 Nd5 2.427809 1_555
H3 Nd2 2.468519 1_556
H3 Nd0 2.539092 1_556
H4 Nd7 2.427809 1_455
H4 Nd5 2.427809 1_555
H4 Nd3 2.468519 1_554
H4 Nd0 2.539092 1_555
H5 Nd4 2.427809 1_555
H5 Nd6 2.427809 1_455
H5 Nd3 2.468519 1_554
H5 Nd0 2.539092 1_565
H6 Nd7 2.427809 1_555
H6 Nd6 2.427809 1_555
H6 Nd3 2.468519 1_654
H6 Nd1 2.539092 1_555
H7 Nd5 2.427809 1_555
H7 Nd4 2.427809 1_555
H7 Nd3 2.468519 1_554
H7 Nd1 2.539092 1_555
