# generated using pymatgen
data_Mg5Si2(O4F)2
_symmetry_space_group_name_H-M   'P 1'
_cell_length_a   4.77655700
_cell_length_b   7.90184800
_cell_length_c   10.37437831
_cell_angle_alpha   70.86958369
_cell_angle_beta   90.00000000
_cell_angle_gamma   90.00000000
_symmetry_Int_Tables_number   1
_chemical_formula_structural   Mg5Si2(O4F)2
_chemical_formula_sum   'Mg10 Si4 O16 F4'
_cell_volume   369.94242753
_cell_formula_units_Z   2
loop_
 _symmetry_equiv_pos_site_id
 _symmetry_equiv_pos_as_xyz
  1  'x, y, z'
loop_
 _atom_site_type_symbol
 _atom_site_label
 _atom_site_symmetry_multiplicity
 _atom_site_fract_x
 _atom_site_fract_y
 _atom_site_fract_z
 _atom_site_occupancy
  Mg  Mg0  1  0.49135300  0.42106400  0.38642400  1
  Mg  Mg1  1  0.99135300  0.57893600  0.11357600  1
  Mg  Mg2  1  0.50864700  0.57893600  0.61357600  1
  Mg  Mg3  1  0.00864700  0.42106400  0.88642400  1
  Mg  Mg4  1  0.00691300  0.19768700  0.67197500  1
  Mg  Mg5  1  0.50691300  0.80231300  0.82802500  1
  Mg  Mg6  1  0.99308700  0.80231300  0.32802500  1
  Mg  Mg7  1  0.49308700  0.19768700  0.17197500  1
  Mg  Mg8  1  0.50000000  0.00000000  0.50000000  1
  Mg  Mg9  1  0.00000000  0.00000000  0.00000000  1
  Si  Si0  1  0.07674000  0.79665300  0.64234600  1
  Si  Si1  1  0.57674000  0.20334700  0.85765400  1
  Si  Si2  1  0.92326000  0.20334700  0.35765400  1
  Si  Si3  1  0.42326000  0.79665300  0.14234600  1
  O  O0  1  0.77592600  0.20717700  0.50193500  1
  O  O1  1  0.27592600  0.79282300  0.99806500  1
  O  O2  1  0.22407400  0.79282300  0.49806500  1
  O  O3  1  0.72407400  0.20717700  0.00193500  1
  O  O4  1  0.27063800  0.62472900  0.25869900  1
  O  O5  1  0.77063800  0.37527100  0.24130100  1
  O  O6  1  0.72936200  0.37527100  0.74130100  1
  O  O7  1  0.22936200  0.62472900  0.75869900  1
  O  O8  1  0.22413900  0.97411200  0.66660300  1
  O  O9  1  0.72413900  0.02588800  0.83339700  1
  O  O10  1  0.77586100  0.02588800  0.33339700  1
  O  O11  1  0.27586100  0.97411200  0.16660300  1
  O  O12  1  0.73525300  0.79334300  0.64471800  1
  O  O13  1  0.23525300  0.20665700  0.85528200  1
  O  O14  1  0.26474700  0.20665700  0.35528200  1
  O  O15  1  0.76474700  0.79334300  0.14471800  1
  F  F0  1  0.27337600  0.39623900  0.55895000  1
  F  F1  1  0.77337600  0.60376100  0.94105000  1
  F  F2  1  0.72662400  0.60376100  0.44105000  1
  F  F3  1  0.22662400  0.39623900  0.05895000  1
loop_
_geom_bond_atom_site_label_1
_geom_bond_atom_site_label_2
_geom_bond_distance
_geom_bond_site_symmetry_2
Mg0 O4 2.014820 1_555
Mg0 O14 2.122517 1_555
Mg0 O5 2.129398 1_555
Mg0 O0 2.193776 1_555
Mg1 O5 2.014820 1_555
Mg1 O15 2.122517 1_555
Mg1 O4 2.129398 1_655
Mg1 O1 2.193776 1_654
Mg2 O6 2.014820 1_555
Mg2 O12 2.122517 1_555
Mg2 O7 2.129398 1_555
Mg2 O2 2.193776 1_555
Mg3 O7 2.014820 1_555
Mg3 O13 2.122517 1_555
Mg3 O6 2.129398 1_455
Mg3 O3 2.193776 1_456
Mg4 O0 2.061103 1_455
Mg4 O8 2.065263 1_545
Mg4 O13 2.213459 1_555
Mg4 O6 2.214820 1_455
Mg4 O9 2.231957 1_455
Mg5 O1 2.061103 1_555
Mg5 O9 2.065263 1_565
Mg5 O12 2.213459 1_555
Mg5 O7 2.214820 1_555
Mg5 O8 2.231957 1_555
Mg6 O2 2.061103 1_655
Mg6 O10 2.065263 1_565
Mg6 O15 2.213459 1_555
Mg6 O4 2.214820 1_655
Mg6 O11 2.231957 1_655
Mg7 O3 2.061103 1_555
Mg7 O11 2.065263 1_545
Mg7 O14 2.213459 1_555
Mg7 O5 2.214820 1_555
Mg7 O10 2.231957 1_555
Mg8 O2 2.106903 1_545
Mg8 O0 2.106903 1_555
Mg8 O8 2.129254 1_545
Mg8 O10 2.129254 1_555
Mg8 O12 2.139265 1_545
Mg8 O14 2.139265 1_555
Mg9 O1 2.106903 1_544
Mg9 O3 2.106903 1_455
Mg9 O9 2.129254 1_454
Mg9 O11 2.129254 1_545
Mg9 O13 2.139265 1_554
Mg9 O15 2.139265 1_445
O0 Si2 1.663237 1_555
O1 Si3 1.663237 1_556
O2 Si0 1.663237 1_555
O3 Si1 1.663237 1_554
O4 Si3 1.661103 1_555
O5 Si2 1.661103 1_555
O6 Si1 1.661103 1_555
O7 Si0 1.661103 1_555
O8 Si0 1.660312 1_555
O9 Si1 1.660312 1_555
O10 Si2 1.660312 1_555
O11 Si3 1.660312 1_555
O12 Si0 1.631398 1_655
O13 Si1 1.631398 1_555
O14 Si2 1.631398 1_455
O15 Si3 1.631398 1_555
F0 Mg0 2.023851 1_555
F0 Mg2 2.050462 1_555
F0 Mg4 2.061700 1_555
F1 Mg1 2.023851 1_556
F1 Mg3 2.050462 1_655
F1 Mg5 2.061700 1_555
F2 Mg2 2.023851 1_555
F2 Mg0 2.050462 1_555
F2 Mg6 2.061700 1_555
F3 Mg3 2.023851 1_554
F3 Mg1 2.050462 1_455
F3 Mg7 2.061700 1_555
