# generated using pymatgen
data_Mg14CuBi
_symmetry_space_group_name_H-M   'P 1'
_cell_length_a   6.31433863
_cell_length_b   6.31433813
_cell_length_c   10.38701150
_cell_angle_alpha   90.00000000
_cell_angle_beta   90.00000000
_cell_angle_gamma   120.00000268
_symmetry_Int_Tables_number   1
_chemical_formula_structural   Mg14CuBi
_chemical_formula_sum   'Mg14 Cu1 Bi1'
_cell_volume   358.65503794
_cell_formula_units_Z   1
loop_
 _symmetry_equiv_pos_site_id
 _symmetry_equiv_pos_as_xyz
  1  'x, y, z'
loop_
 _atom_site_type_symbol
 _atom_site_label
 _atom_site_symmetry_multiplicity
 _atom_site_fract_x
 _atom_site_fract_y
 _atom_site_fract_z
 _atom_site_occupancy
  Mg  Mg0  1  0.16161536  0.83080718  0.12500000  1
  Mg  Mg1  1  0.16727799  0.83363849  0.62500000  1
  Mg  Mg2  1  0.66919282  0.33838464  0.12500000  1
  Mg  Mg3  1  0.66636151  0.33272201  0.62500000  1
  Mg  Mg4  1  0.66919282  0.83080718  0.12500000  1
  Mg  Mg5  1  0.66636151  0.83363849  0.62500000  1
  Mg  Mg6  1  0.33212994  0.16787006  0.35634542  1
  Mg  Mg7  1  0.33212994  0.16787006  0.89365458  1
  Mg  Mg8  1  0.33212994  0.66426089  0.35634542  1
  Mg  Mg9  1  0.33212994  0.66426089  0.89365458  1
  Mg  Mg10  1  0.83573911  0.16787006  0.35634542  1
  Mg  Mg11  1  0.83573911  0.16787006  0.89365458  1
  Mg  Mg12  1  0.83333300  0.66666700  0.37369990  1
  Mg  Mg13  1  0.83333300  0.66666700  0.87630010  1
  Cu  Cu0  1  0.16666700  0.33333300  0.12500000  1
  Bi  Bi0  1  0.16666700  0.33333300  0.62500000  1
loop_
_geom_bond_atom_site_label_1
_geom_bond_atom_site_label_2
_geom_bond_distance
_geom_bond_site_symmetry_2
Mg0 Mg8 3.028499 1_555
Mg0 Mg9 3.028499 1_554
Mg0 Mg6 3.028505 1_565
Mg0 Mg7 3.028505 1_564
Mg0 Mg2 3.109322 1_455
Mg0 Mg4 3.109323 1_455
Mg0 Mg12 3.145762 1_455
Mg0 Mg13 3.145762 1_454
Mg0 Mg2 3.205016 1_565
Mg0 Mg4 3.205016 1_555
Mg1 Mg3 3.151382 1_565
Mg1 Mg5 3.151382 1_555
Mg1 Mg3 3.162956 1_455
Mg1 Mg5 3.162956 1_455
Mg1 Mg13 3.185627 1_455
Mg1 Mg12 3.185627 1_455
Mg1 Mg9 3.335815 1_555
Mg1 Mg8 3.335815 1_555
Mg1 Mg6 3.335821 1_565
Mg1 Mg7 3.335821 1_565
Mg2 Mg7 3.028505 1_554
Mg2 Mg6 3.028505 1_555
Mg2 Mg4 3.109322 1_555
Mg2 Mg4 3.205016 1_545
Mg3 Mg5 3.151382 1_545
Mg3 Mg5 3.162956 1_555
Mg3 Mg7 3.335821 1_555
Mg3 Mg6 3.335821 1_555
Mg4 Mg9 3.028505 1_554
Mg4 Mg8 3.028505 1_555
Mg5 Mg9 3.335821 1_555
Mg5 Mg8 3.335821 1_555
Mg6 Mg8 3.134380 1_555
Mg6 Mg8 3.179959 1_545
Mg7 Mg9 3.134380 1_555
Mg7 Mg9 3.179959 1_545
Mg10 Mg2 3.028499 1_555
Mg10 Mg4 3.028505 1_545
Mg10 Mg8 3.134380 1_655
Mg10 Mg6 3.134380 1_655
Mg10 Mg12 3.162338 1_555
Mg10 Mg12 3.162338 1_545
Mg10 Mg8 3.179959 1_545
Mg10 Mg6 3.179959 1_555
Mg10 Mg3 3.335815 1_555
Mg10 Mg5 3.335821 1_545
Mg11 Mg2 3.028499 1_556
Mg11 Mg4 3.028505 1_546
Mg11 Mg9 3.134380 1_655
Mg11 Mg7 3.134380 1_655
Mg11 Mg13 3.162338 1_555
Mg11 Mg13 3.162338 1_545
Mg11 Mg9 3.179959 1_545
Mg11 Mg7 3.179959 1_555
Mg11 Mg3 3.335815 1_555
Mg11 Mg5 3.335821 1_545
Mg12 Mg4 3.145755 1_555
Mg12 Mg2 3.145762 1_555
Mg12 Mg6 3.162338 1_665
Mg12 Mg6 3.162338 1_555
Mg12 Mg8 3.162339 1_655
Mg12 Mg8 3.162339 1_555
Mg12 Mg5 3.185621 1_555
Mg12 Mg3 3.185627 1_555
Mg13 Mg4 3.145755 1_556
Mg13 Mg2 3.145762 1_556
Mg13 Mg7 3.162338 1_665
Mg13 Mg7 3.162338 1_555
Mg13 Mg9 3.162339 1_655
Mg13 Mg9 3.162339 1_555
Mg13 Mg5 3.185621 1_555
Mg13 Mg3 3.185627 1_555
Cu0 Mg6 3.008172 1_555
Cu0 Mg7 3.008172 1_554
Cu0 Mg9 3.008179 1_554
Cu0 Mg8 3.008179 1_555
Cu0 Mg11 3.008179 1_454
Cu0 Mg10 3.008179 1_455
Cu0 Mg4 3.157290 1_445
Cu0 Mg0 3.157290 1_545
Cu0 Mg4 3.157290 1_555
Cu0 Mg0 3.157290 1_555
Cu0 Mg2 3.157290 1_555
Cu0 Mg2 3.157290 1_455
Bi0 Mg1 3.157171 1_555
Bi0 Mg5 3.157171 1_555
Bi0 Mg5 3.157171 1_445
Bi0 Mg1 3.157171 1_545
Bi0 Mg3 3.157171 1_455
Bi0 Mg3 3.157171 1_555
Bi0 Mg7 3.325920 1_555
Bi0 Mg6 3.325920 1_555
Bi0 Mg8 3.325926 1_555
Bi0 Mg9 3.325926 1_555
Bi0 Mg11 3.325926 1_455
Bi0 Mg10 3.325926 1_455
