# generated using pymatgen
data_Mn4Co11Ge5
_symmetry_space_group_name_H-M   'P 1'
_cell_length_a   16.67499067
_cell_length_b   16.67499067
_cell_length_c   16.67499073
_cell_angle_alpha   13.96334660
_cell_angle_beta   13.96334660
_cell_angle_gamma   13.96334568
_symmetry_Int_Tables_number   1
_chemical_formula_structural   Mn4Co11Ge5
_chemical_formula_sum   'Mn4 Co11 Ge5'
_cell_volume   234.95796248
_cell_formula_units_Z   1
loop_
 _symmetry_equiv_pos_site_id
 _symmetry_equiv_pos_as_xyz
  1  'x, y, z'
loop_
 _atom_site_type_symbol
 _atom_site_label
 _atom_site_symmetry_multiplicity
 _atom_site_fract_x
 _atom_site_fract_y
 _atom_site_fract_z
 _atom_site_occupancy
  Mn  Mn0  1  0.60013900  0.60013900  0.60013900  1
  Mn  Mn1  1  0.20001100  0.20001100  0.20001100  1
  Mn  Mn2  1  0.79998900  0.79998900  0.79998900  1
  Mn  Mn3  1  0.39986100  0.39986100  0.39986100  1
  Co  Co0  1  0.75001900  0.75001900  0.75001900  1
  Co  Co1  1  0.54997500  0.54997500  0.54997500  1
  Co  Co2  1  0.14996600  0.14996600  0.14996600  1
  Co  Co3  1  0.34982200  0.34982200  0.34982200  1
  Co  Co4  1  0.95015500  0.95015500  0.95015500  1
  Co  Co5  1  0.04984500  0.04984500  0.04984500  1
  Co  Co6  1  0.85003400  0.85003400  0.85003400  1
  Co  Co7  1  0.45002500  0.45002500  0.45002500  1
  Co  Co8  1  0.65017800  0.65017800  0.65017800  1
  Co  Co9  1  0.24998100  0.24998100  0.24998100  1
  Co  Co10  1  0.00000000  0.00000000  0.00000000  1
  Ge  Ge0  1  0.09995000  0.09995000  0.09995000  1
  Ge  Ge1  1  0.90005000  0.90005000  0.90005000  1
  Ge  Ge2  1  0.50000000  0.50000000  0.50000000  1
  Ge  Ge3  1  0.69976200  0.69976200  0.69976200  1
  Ge  Ge4  1  0.30023800  0.30023800  0.30023800  1
loop_
_geom_bond_atom_site_label_1
_geom_bond_atom_site_label_2
_geom_bond_distance
_geom_bond_site_symmetry_2
Co0 Mn2 2.475003 1_555
Co0 Ge0 2.480615 1_656
Co0 Ge0 2.480615 1_566
Co0 Ge0 2.480615 1_665
Co0 Mn3 2.484363 1_655
Co0 Mn3 2.484363 1_565
Co0 Mn3 2.484363 1_556
Co0 Ge3 2.489218 1_555
Co1 Ge2 2.475251 1_555
Co1 Mn1 2.481157 1_655
Co1 Mn1 2.481157 1_565
Co1 Mn1 2.481157 1_556
Co1 Ge1 2.482987 1_545
Co1 Ge1 2.482987 1_455
Co1 Ge1 2.482988 1_554
Co1 Mn0 2.484612 1_555
Co2 Ge0 2.477281 1_555
Co2 Mn1 2.478718 1_555
Co2 Mn2 2.481371 1_454
Co2 Mn2 2.481371 1_544
Co2 Mn2 2.481371 1_445
Co2 Ge2 2.482310 1_545
Co2 Ge2 2.482310 1_455
Co2 Ge2 2.482310 1_554
Co3 Ge4 2.455885 1_555
Co3 Mn3 2.478421 1_555
Co3 Ge3 2.480762 1_545
Co3 Ge3 2.480762 1_455
Co3 Ge3 2.480763 1_554
Co4 Ge1 2.481690 1_555
Co4 Mn0 2.482013 1_565
Co4 Mn0 2.482013 1_655
Co4 Mn0 2.482013 1_556
Co4 Ge4 2.483120 1_656
Co4 Ge4 2.483120 1_566
Co4 Ge4 2.483120 1_665
Co5 Ge0 2.481690 1_555
Co5 Mn3 2.482013 1_545
Co5 Mn3 2.482013 1_455
Co5 Mn3 2.482013 1_554
Co5 Ge3 2.483120 1_544
Co5 Ge3 2.483120 1_454
Co5 Ge3 2.483120 1_445
Co6 Ge1 2.477281 1_555
Co6 Mn2 2.478718 1_555
Co6 Mn1 2.481371 1_656
Co6 Mn1 2.481371 1_566
Co6 Mn1 2.481371 1_665
Co6 Ge2 2.482310 1_565
Co6 Ge2 2.482310 1_655
Co6 Ge2 2.482310 1_556
Co7 Ge2 2.475251 1_555
Co7 Mn2 2.481157 1_455
Co7 Mn2 2.481157 1_545
Co7 Mn2 2.481157 1_554
Co7 Ge0 2.482987 1_565
Co7 Ge0 2.482987 1_655
Co7 Ge0 2.482988 1_556
Co7 Mn3 2.484612 1_555
Co8 Ge3 2.455885 1_555
Co8 Mn0 2.478421 1_555
Co8 Ge4 2.480762 1_565
Co8 Ge4 2.480762 1_655
Co8 Ge4 2.480763 1_556
Co9 Mn1 2.475003 1_555
Co9 Ge1 2.480615 1_544
Co9 Ge1 2.480615 1_454
Co9 Ge1 2.480615 1_445
Co9 Mn0 2.484363 1_545
Co9 Mn0 2.484363 1_455
Co9 Mn0 2.484363 1_554
Co9 Ge4 2.489218 1_555
Co10 Co5 2.468812 1_555
Co10 Co4 2.468812 1_444
Co10 Co8 2.478831 1_454
Co10 Co8 2.478831 1_544
Co10 Co3 2.478831 1_545
Co10 Co3 2.478831 1_455
Co10 Co8 2.478831 1_445
Co10 Co3 2.478831 1_554
Co10 Ge4 2.857381 1_455
Co10 Ge3 2.857381 1_544
Co10 Ge4 2.857381 1_545
Co10 Ge3 2.857381 1_454
Co10 Ge4 2.857381 1_554
Co10 Ge3 2.857381 1_445
Ge0 Mn2 2.865274 1_454
Ge0 Mn2 2.865274 1_544
Ge0 Mn2 2.865274 1_445
Ge0 Mn3 2.866703 1_545
Ge0 Mn3 2.866703 1_455
Ge0 Mn3 2.866703 1_554
Ge1 Mn1 2.865274 1_656
Ge1 Mn1 2.865274 1_566
Ge1 Mn1 2.865274 1_665
Ge1 Mn0 2.866703 1_565
Ge1 Mn0 2.866703 1_655
Ge1 Mn0 2.866703 1_556
Ge2 Mn1 2.864474 1_565
Ge2 Mn1 2.864474 1_655
Ge2 Mn2 2.864474 1_545
Ge2 Mn2 2.864474 1_455
Ge2 Mn1 2.864474 1_556
Ge2 Mn2 2.864474 1_554
