# generated using pymatgen
data_NbCr4Si
_symmetry_space_group_name_H-M   'P 1'
_cell_length_a   4.87233708
_cell_length_b   4.87233708
_cell_length_c   7.64881000
_cell_angle_alpha   90.00000000
_cell_angle_beta   90.00000000
_cell_angle_gamma   120.00001468
_symmetry_Int_Tables_number   1
_chemical_formula_structural   NbCr4Si
_chemical_formula_sum   'Nb2 Cr8 Si2'
_cell_volume   157.25305560
_cell_formula_units_Z   2
loop_
 _symmetry_equiv_pos_site_id
 _symmetry_equiv_pos_as_xyz
  1  'x, y, z'
loop_
 _atom_site_type_symbol
 _atom_site_label
 _atom_site_symmetry_multiplicity
 _atom_site_fract_x
 _atom_site_fract_y
 _atom_site_fract_z
 _atom_site_occupancy
  Nb  Nb0  1  0.33333300  0.66666700  0.43263900  1
  Nb  Nb1  1  0.66666700  0.33333300  0.56736100  1
  Cr  Cr0  1  0.00000000  0.00000000  0.50000000  1
  Cr  Cr1  1  0.00000000  0.00000000  0.00000000  1
  Cr  Cr2  1  0.82856500  0.17143500  0.23816700  1
  Cr  Cr3  1  0.82856500  0.65712900  0.23816700  1
  Cr  Cr4  1  0.34287100  0.17143500  0.23816700  1
  Cr  Cr5  1  0.17143500  0.82856500  0.76183300  1
  Cr  Cr6  1  0.17143500  0.34287100  0.76183300  1
  Cr  Cr7  1  0.65712900  0.82856500  0.76183300  1
  Si  Si0  1  0.66666700  0.33333300  0.93238800  1
  Si  Si1  1  0.33333300  0.66666700  0.06761200  1
loop_
_geom_bond_atom_site_label_1
_geom_bond_atom_site_label_2
_geom_bond_distance
_geom_bond_site_symmetry_2
Nb0 Si1 2.792022 1_555
Nb0 Nb1 2.995840 1_455
Nb0 Nb1 2.995840 1_565
Nb0 Nb1 2.995849 1_555
Nb1 Si0 2.792022 1_555
Cr0 Cr2 2.470622 1_455
Cr0 Cr5 2.470622 1_545
Cr0 Cr4 2.470625 1_555
Cr0 Cr6 2.470625 1_555
Cr0 Cr3 2.470625 1_445
Cr0 Cr7 2.470625 1_445
Cr0 Nb1 2.859838 1_455
Cr0 Nb0 2.859838 1_545
Cr0 Nb0 2.859841 1_445
Cr0 Nb0 2.859841 1_555
Cr0 Nb1 2.859841 1_445
Cr0 Nb1 2.859841 1_555
Cr1 Cr2 2.326305 1_455
Cr1 Cr5 2.326305 1_544
Cr1 Cr3 2.326307 1_445
Cr1 Cr4 2.326307 1_555
Cr1 Cr7 2.326307 1_444
Cr1 Cr6 2.326307 1_554
Cr1 Si1 2.860184 1_545
Cr1 Si0 2.860184 1_454
Cr1 Si1 2.860188 1_445
Cr1 Si1 2.860188 1_555
Cr1 Si0 2.860188 1_444
Cr1 Si0 2.860188 1_554
Cr2 Cr3 2.366465 1_555
Cr2 Cr4 2.366465 1_555
Cr2 Cr4 2.505872 1_655
Cr2 Cr3 2.505872 1_545
Cr2 Si0 2.708674 1_554
Cr2 Si1 2.763759 1_545
Cr2 Si1 2.763759 1_655
Cr2 Nb0 2.854668 1_545
Cr2 Nb0 2.854668 1_655
Cr2 Nb1 2.864743 1_555
Cr3 Cr4 2.366464 1_555
Cr3 Cr4 2.505872 1_665
Cr3 Si0 2.708674 1_554
Cr3 Si1 2.763756 1_655
Cr3 Si1 2.763764 1_555
Cr3 Nb0 2.854664 1_655
Cr3 Nb0 2.854673 1_555
Cr3 Nb1 2.864743 1_555
Cr4 Si0 2.708674 1_554
Cr4 Si1 2.763756 1_545
Cr4 Si1 2.763764 1_555
Cr4 Nb0 2.854664 1_545
Cr4 Nb0 2.854673 1_555
Cr4 Nb1 2.864743 1_555
Cr5 Cr7 2.366465 1_555
Cr5 Cr6 2.366465 1_555
Cr5 Cr6 2.505872 1_565
Cr5 Cr7 2.505872 1_455
Cr5 Si1 2.708674 1_556
Cr5 Si0 2.763759 1_455
Cr5 Si0 2.763759 1_565
Cr5 Nb1 2.854668 1_455
Cr5 Nb1 2.854668 1_565
Cr5 Nb0 2.864743 1_555
Cr6 Cr7 2.366464 1_555
Cr6 Cr7 2.505872 1_445
Cr6 Si1 2.708674 1_556
Cr6 Si0 2.763756 1_455
Cr6 Si0 2.763764 1_555
Cr6 Nb1 2.854664 1_455
Cr6 Nb1 2.854673 1_555
Cr6 Nb0 2.864743 1_555
Cr7 Si1 2.708674 1_556
Cr7 Si0 2.763756 1_565
Cr7 Si0 2.763764 1_555
Cr7 Nb1 2.854664 1_565
Cr7 Nb1 2.854673 1_555
Cr7 Nb0 2.864743 1_555
