# generated using pymatgen
data_GdFe5
_symmetry_space_group_name_H-M   'P 1'
_cell_length_a   5.16705006
_cell_length_b   5.16613115
_cell_length_c   3.91695529
_cell_angle_alpha   90.00000000
_cell_angle_beta   90.00000000
_cell_angle_gamma   120.00587673
_symmetry_Int_Tables_number   1
_chemical_formula_structural   GdFe5
_chemical_formula_sum   'Gd1 Fe5'
_cell_volume   90.54440553
_cell_formula_units_Z   1
loop_
 _symmetry_equiv_pos_site_id
 _symmetry_equiv_pos_as_xyz
  1  'x, y, z'
loop_
 _atom_site_type_symbol
 _atom_site_label
 _atom_site_symmetry_multiplicity
 _atom_site_fract_x
 _atom_site_fract_y
 _atom_site_fract_z
 _atom_site_occupancy
  Gd  Gd0  1  0.00000000  -0.00000000  -0.00000000  1
  Fe  Fe0  1  0.33344520  0.66689241  -0.00000000  1
  Fe  Fe1  1  0.66655480  0.33310759  0.00000000  1
  Fe  Fe2  1  0.50000000  -0.00000000  0.50000000  1
  Fe  Fe3  1  0.50000000  0.50000000  0.50000000  1
  Fe  Fe4  1  0.00000000  0.50000000  0.50000000  1
loop_
_geom_bond_atom_site_label_1
_geom_bond_atom_site_label_2
_geom_bond_distance
_geom_bond_site_symmetry_2
Fe0 Fe2 2.460983 1_564
Fe0 Fe2 2.460983 1_565
Fe0 Fe4 2.462059 1_555
Fe0 Fe4 2.462059 1_554
Fe0 Fe3 2.462064 1_555
Fe0 Fe3 2.462064 1_554
Fe0 Fe1 2.980471 1_565
Fe0 Gd0 2.982512 1_565
Fe0 Gd0 2.982521 1_665
Fe0 Gd0 2.983500 1_555
Fe0 Fe1 2.984022 1_455
Fe0 Fe1 2.984040 1_555
Fe1 Fe2 2.460983 1_554
Fe1 Fe2 2.460983 1_555
Fe1 Fe4 2.462059 1_655
Fe1 Fe4 2.462059 1_654
Fe1 Fe3 2.462064 1_555
Fe1 Fe3 2.462064 1_554
Fe1 Gd0 2.982512 1_655
Fe1 Gd0 2.982521 1_555
Fe1 Gd0 2.983500 1_665
Fe2 Fe3 2.583066 1_555
Fe2 Fe3 2.583066 1_545
Fe2 Fe4 2.583066 1_545
Fe2 Fe4 2.583066 1_655
Fe2 Gd0 3.241949 1_555
Fe2 Gd0 3.241949 1_556
Fe2 Gd0 3.241949 1_655
Fe2 Gd0 3.241949 1_656
Fe3 Fe4 2.583525 1_555
Fe3 Fe4 2.583525 1_655
Fe3 Gd0 3.241584 1_666
Fe3 Gd0 3.241584 1_665
Fe3 Gd0 3.241584 1_555
Fe3 Gd0 3.241584 1_556
Fe4 Gd0 3.241583 1_566
Fe4 Gd0 3.241583 1_565
Fe4 Gd0 3.241583 1_555
Fe4 Gd0 3.241583 1_556
