# generated using pymatgen
data_KV2AgO6
_symmetry_space_group_name_H-M   'P 1'
_cell_length_a   7.44997499
_cell_length_b   7.44997499
_cell_length_c   5.90457238
_cell_angle_alpha   79.77023346
_cell_angle_beta   79.77023346
_cell_angle_gamma   85.51389708
_symmetry_Int_Tables_number   1
_chemical_formula_structural   KV2AgO6
_chemical_formula_sum   'K2 V4 Ag2 O12'
_cell_volume   317.01119617
_cell_formula_units_Z   2
loop_
 _symmetry_equiv_pos_site_id
 _symmetry_equiv_pos_as_xyz
  1  'x, y, z'
loop_
 _atom_site_type_symbol
 _atom_site_label
 _atom_site_symmetry_multiplicity
 _atom_site_fract_x
 _atom_site_fract_y
 _atom_site_fract_z
 _atom_site_occupancy
  K  K0  1  0.80355500  0.19644500  0.75000000  1
  K  K1  1  0.19644500  0.80355500  0.25000000  1
  V  V0  1  0.29763000  0.12389800  0.73127900  1
  V  V1  1  0.70237000  0.87610200  0.26872100  1
  V  V2  1  0.87610200  0.70237000  0.76872100  1
  V  V3  1  0.12389800  0.29763000  0.23127900  1
  Ag  Ag0  1  0.40697300  0.59302700  0.75000000  1
  Ag  Ag1  1  0.59302700  0.40697300  0.25000000  1
  O  O0  1  0.82965000  0.86371800  0.50957300  1
  O  O1  1  0.17035000  0.13628200  0.49042700  1
  O  O2  1  0.13628200  0.17035000  0.99042700  1
  O  O3  1  0.86371800  0.82965000  0.00957300  1
  O  O4  1  0.45942600  0.28098200  0.65872000  1
  O  O5  1  0.54057400  0.71901800  0.34128000  1
  O  O6  1  0.71901800  0.54057400  0.84128000  1
  O  O7  1  0.28098200  0.45942600  0.15872000  1
  O  O8  1  0.39046800  0.91280100  0.79874500  1
  O  O9  1  0.60953200  0.08719900  0.20125500  1
  O  O10  1  0.08719900  0.60953200  0.70125500  1
  O  O11  1  0.91280100  0.39046800  0.29874500  1
loop_
_geom_bond_atom_site_label_1
_geom_bond_atom_site_label_2
_geom_bond_distance
_geom_bond_site_symmetry_2
K0 O4 2.716175 1_555
K0 O6 2.716175 1_555
K0 O9 2.810153 1_556
K0 O11 2.810153 1_555
K0 O3 2.929494 1_546
K0 O1 2.929494 1_655
K0 O0 3.045340 1_545
K0 O2 3.045340 1_655
K1 O7 2.716175 1_555
K1 O5 2.716175 1_555
K1 O10 2.810153 1_555
K1 O8 2.810153 1_554
K1 O0 2.929494 1_455
K1 O2 2.929494 1_564
K1 O3 3.045340 1_455
K1 O1 3.045340 1_565
Ag0 O8 2.441004 1_555
Ag0 O10 2.441004 1_555
Ag0 O6 2.464887 1_555
Ag0 O4 2.464887 1_555
Ag0 O5 2.486800 1_555
Ag0 O7 2.486800 1_556
Ag1 O11 2.441004 1_555
Ag1 O9 2.441004 1_555
Ag1 O5 2.464887 1_555
Ag1 O7 2.464887 1_555
Ag1 O6 2.486800 1_554
Ag1 O4 2.486800 1_555
O0 V1 1.829972 1_555
O0 V2 1.837321 1_555
O1 V0 1.829972 1_555
O1 V3 1.837321 1_555
O2 V3 1.829972 1_556
O2 V0 1.837321 1_555
O3 V2 1.829972 1_554
O3 V1 1.837321 1_555
O4 V0 1.692683 1_555
O5 V1 1.692683 1_555
O6 V2 1.692683 1_555
O7 V3 1.692683 1_555
O8 V0 1.677952 1_565
O9 V1 1.677952 1_545
O10 V2 1.677952 1_455
O11 V3 1.677952 1_655
