# generated using pymatgen
data_Cs2Cu2Sb2Se5
_symmetry_space_group_name_H-M   'P 1'
_cell_length_a   7.75265800
_cell_length_b   8.92405809
_cell_length_c   10.43845093
_cell_angle_alpha   91.77291803
_cell_angle_beta   91.79046290
_cell_angle_gamma   102.92067620
_symmetry_Int_Tables_number   1
_chemical_formula_structural   Cs2Cu2Sb2Se5
_chemical_formula_sum   'Cs4 Cu4 Sb4 Se10'
_cell_volume   703.02369843
_cell_formula_units_Z   2
loop_
 _symmetry_equiv_pos_site_id
 _symmetry_equiv_pos_as_xyz
  1  'x, y, z'
loop_
 _atom_site_type_symbol
 _atom_site_label
 _atom_site_symmetry_multiplicity
 _atom_site_fract_x
 _atom_site_fract_y
 _atom_site_fract_z
 _atom_site_occupancy
  Cs  Cs0  1  0.73557100  0.80421500  0.90561000  1
  Cs  Cs1  1  0.26442900  0.19578500  0.09439000  1
  Cs  Cs2  1  0.26470100  0.05717700  0.61345700  1
  Cs  Cs3  1  0.73529900  0.94282300  0.38654300  1
  Cu  Cu0  1  0.59677300  0.49186900  0.61243400  1
  Cu  Cu1  1  0.40322700  0.50813100  0.38756600  1
  Cu  Cu2  1  0.87239800  0.36258400  0.56890000  1
  Cu  Cu3  1  0.12760200  0.63741600  0.43110000  1
  Sb  Sb0  1  0.80124000  0.35971300  0.88203400  1
  Sb  Sb1  1  0.19876000  0.64028700  0.11796600  1
  Sb  Sb2  1  0.81623800  0.42224600  0.26135400  1
  Sb  Sb3  1  0.18376200  0.57775400  0.73864600  1
  Se  Se0  1  0.91804300  0.65480800  0.61192800  1
  Se  Se1  1  0.08195700  0.34519200  0.38807200  1
  Se  Se2  1  0.85688600  0.15826200  0.71884700  1
  Se  Se3  1  0.14311400  0.84173800  0.28115300  1
  Se  Se4  1  0.48661600  0.38399600  0.81374200  1
  Se  Se5  1  0.51338400  0.61600400  0.18625800  1
  Se  Se6  1  0.74470600  0.18440200  0.08793400  1
  Se  Se7  1  0.25529400  0.81559800  0.91206600  1
  Se  Se8  1  0.57313400  0.30353200  0.42385200  1
  Se  Se9  1  0.42686600  0.69646800  0.57614800  1
loop_
_geom_bond_atom_site_label_1
_geom_bond_atom_site_label_2
_geom_bond_distance
_geom_bond_site_symmetry_2
Cs0 Se5 3.700854 1_556
Cs0 Se2 3.719496 1_565
Cs0 Se0 3.746778 1_555
Cs0 Se7 3.750086 1_555
Cs0 Se6 3.823984 1_566
Cs0 Se4 3.890080 1_555
Cs0 Se7 4.006140 1_655
Cs0 Cu0 4.027154 1_555
Cs0 Se9 4.090419 1_555
Cs0 Sb0 4.111632 1_555
Cs1 Se4 3.700854 1_554
Cs1 Se3 3.719496 1_545
Cs1 Se1 3.746778 1_555
Cs1 Se6 3.750086 1_555
Cs1 Se7 3.823984 1_544
Cs1 Se5 3.890080 1_555
Cs1 Se6 4.006140 1_455
Cs1 Cu1 4.027154 1_555
Cs1 Se8 4.090419 1_555
Cs1 Sb1 4.111632 1_555
Cs2 Se8 3.561216 1_555
Cs2 Se4 3.604308 1_555
Cs2 Se2 3.667620 1_455
Cs2 Se9 3.722494 1_545
Cs2 Se7 3.837780 1_545
Cs2 Se3 3.897385 1_545
Cs2 Se0 3.974262 1_445
Cs2 Se1 3.992848 1_555
Cs3 Se9 3.561216 1_555
Cs3 Se5 3.604308 1_555
Cs3 Se3 3.667620 1_655
Cs3 Se8 3.722494 1_565
Cs3 Se6 3.837780 1_565
Cs3 Se2 3.897385 1_565
Cs3 Se1 3.974262 1_665
Cs3 Se0 3.992848 1_555
Cu0 Se4 2.437489 1_555
Cu0 Se9 2.509876 1_555
Cu0 Se8 2.523576 1_555
Cu0 Se0 2.588361 1_555
Cu1 Se5 2.437489 1_555
Cu1 Se8 2.509876 1_555
Cu1 Se9 2.523576 1_555
Cu1 Se1 2.588361 1_555
Cu2 Se2 2.424742 1_555
Cu2 Se1 2.552001 1_655
Cu2 Se0 2.575384 1_555
Cu2 Se8 2.671574 1_555
Cu3 Se3 2.424742 1_555
Cu3 Se0 2.552001 1_455
Cu3 Se1 2.575384 1_555
Cu3 Se9 2.671574 1_555
Sb0 Se2 2.554008 1_555
Sb0 Se4 2.577204 1_555
Sb0 Se6 2.686891 1_556
Sb1 Se3 2.554008 1_555
Sb1 Se5 2.577204 1_555
Sb1 Se7 2.686891 1_554
Sb2 Se8 2.640016 1_555
Sb2 Se1 2.643046 1_655
Sb2 Se6 2.694953 1_555
Sb2 Se5 3.301735 1_555
Sb3 Se9 2.640016 1_555
Sb3 Se0 2.643046 1_455
Sb3 Se7 2.694953 1_555
Sb3 Se4 3.301735 1_555
