# generated using pymatgen
data_Cs2GaP4H3O14
_symmetry_space_group_name_H-M   'P 1'
_cell_length_a   5.14979600
_cell_length_b   8.12510000
_cell_length_c   17.24640321
_cell_angle_alpha   90.00000000
_cell_angle_beta   99.49110233
_cell_angle_gamma   90.00000000
_symmetry_Int_Tables_number   1
_chemical_formula_structural   Cs2GaP4H3O14
_chemical_formula_sum   'Cs4 Ga2 P8 H6 O28'
_cell_volume   711.75618470
_cell_formula_units_Z   2
loop_
 _symmetry_equiv_pos_site_id
 _symmetry_equiv_pos_as_xyz
  1  'x, y, z'
loop_
 _atom_site_type_symbol
 _atom_site_label
 _atom_site_symmetry_multiplicity
 _atom_site_fract_x
 _atom_site_fract_y
 _atom_site_fract_z
 _atom_site_occupancy
  Cs  Cs0  1  0.04212900  0.41583100  0.63521300  1
  Cs  Cs1  1  0.04212900  0.08416900  0.13521300  1
  Cs  Cs2  1  0.95787100  0.58416900  0.36478700  1
  Cs  Cs3  1  0.95787100  0.91583100  0.86478700  1
  Ga  Ga0  1  0.00000000  0.50000000  0.00000000  1
  Ga  Ga1  1  0.00000000  0.00000000  0.50000000  1
  P  P0  1  0.47450900  0.27446700  0.95814300  1
  P  P1  1  0.47450900  0.22553300  0.45814300  1
  P  P2  1  0.52549100  0.72553300  0.04185700  1
  P  P3  1  0.52549100  0.77446700  0.54185700  1
  P  P4  1  0.66589800  0.44300300  0.82579100  1
  P  P5  1  0.66589800  0.05699700  0.32579100  1
  P  P6  1  0.33410200  0.55699700  0.17420900  1
  P  P7  1  0.33410200  0.94300300  0.67420900  1
  H  H0  1  0.50000000  0.50000000  0.50000000  1
  H  H1  1  0.50000000  0.00000000  0.00000000  1
  H  H2  1  0.66738900  0.20995600  0.75860100  1
  H  H3  1  0.66738900  0.29004400  0.25860100  1
  H  H4  1  0.33261100  0.79004400  0.24139900  1
  H  H5  1  0.33261100  0.70995600  0.74139900  1
  O  O0  1  0.45433300  0.35428200  0.87167300  1
  O  O1  1  0.45433300  0.14571800  0.37167300  1
  O  O2  1  0.54566700  0.64571800  0.12832700  1
  O  O3  1  0.54566700  0.85428200  0.62832700  1
  O  O4  1  0.52162900  0.08905200  0.94558700  1
  O  O5  1  0.52162900  0.41094800  0.44558700  1
  O  O6  1  0.47837100  0.91094800  0.05441300  1
  O  O7  1  0.47837100  0.58905200  0.55441300  1
  O  O8  1  0.20689200  0.29767100  0.98378200  1
  O  O9  1  0.20689200  0.20232900  0.48378200  1
  O  O10  1  0.79310800  0.70232900  0.01621800  1
  O  O11  1  0.79310800  0.79767100  0.51621800  1
  O  O12  1  0.70346300  0.14640900  0.51357200  1
  O  O13  1  0.70346300  0.35359100  0.01357200  1
  O  O14  1  0.29653700  0.85359100  0.48642800  1
  O  O15  1  0.29653700  0.64640900  0.98642800  1
  O  O16  1  0.11995900  0.02391600  0.61543500  1
  O  O17  1  0.11995900  0.47608400  0.11543500  1
  O  O18  1  0.88004100  0.97608400  0.38456500  1
  O  O19  1  0.88004100  0.52391600  0.88456500  1
  O  O20  1  0.79706700  0.29575200  0.78514500  1
  O  O21  1  0.79706700  0.20424800  0.28514500  1
  O  O22  1  0.20293300  0.70424800  0.21485500  1
  O  O23  1  0.20293300  0.79575200  0.71485500  1
  O  O24  1  0.48444400  0.05477100  0.73528100  1
  O  O25  1  0.48444400  0.44522900  0.23528100  1
  O  O26  1  0.51555600  0.94522900  0.26471900  1
  O  O27  1  0.51555600  0.55477100  0.76471900  1
loop_
_geom_bond_atom_site_label_1
_geom_bond_atom_site_label_2
_geom_bond_distance
_geom_bond_site_symmetry_2
Cs0 O7 3.162626 1_555
Cs0 O20 3.210467 1_455
Cs0 O27 3.226648 1_555
Cs0 O16 3.234526 1_555
Cs0 O7 3.319235 1_455
Cs0 O12 3.320880 1_455
Cs0 O9 3.358673 1_555
Cs1 O6 3.162626 1_545
Cs1 O21 3.210467 1_455
Cs1 O26 3.226648 1_545
Cs1 O17 3.234526 1_555
Cs1 O6 3.319235 1_445
Cs1 O13 3.320880 1_455
Cs1 O8 3.358673 1_554
Cs2 O5 3.162626 1_555
Cs2 O22 3.210467 1_655
Cs2 O25 3.226648 1_555
Cs2 O18 3.234526 1_555
Cs2 O5 3.319235 1_655
Cs2 O14 3.320880 1_655
Cs2 O11 3.358673 1_555
Cs3 O4 3.162626 1_565
Cs3 O23 3.210467 1_655
Cs3 O24 3.226648 1_565
Cs3 O19 3.234526 1_555
Cs3 O4 3.319235 1_665
Cs3 O15 3.320880 1_655
Cs3 O10 3.358673 1_556
Ga0 O15 1.979858 1_554
Ga0 O13 1.979858 1_455
Ga0 O19 1.994300 1_454
Ga0 O17 1.994300 1_555
Ga0 O8 2.003559 1_554
Ga0 O10 2.003559 1_455
Ga1 O14 1.979858 1_545
Ga1 O12 1.979858 1_455
Ga1 O16 1.994300 1_555
Ga1 O18 1.994300 1_445
Ga1 O11 2.003559 1_445
Ga1 O9 2.003559 1_555
H0 O5 1.204600 1_555
H0 O7 1.204600 1_555
H1 O6 1.204600 1_545
H1 O4 1.204600 1_554
H2 O20 1.020135 1_555
H2 O24 1.585640 1_555
H3 O21 1.020135 1_555
H3 O25 1.585640 1_555
H4 O22 1.020135 1_555
H4 O26 1.585640 1_555
H5 O23 1.020135 1_555
H5 O27 1.585640 1_555
O0 P0 1.613759 1_555
O0 P4 1.617768 1_555
O1 P1 1.613759 1_555
O1 P5 1.617768 1_555
O2 P2 1.613759 1_555
O2 P6 1.617768 1_555
O3 P3 1.613759 1_555
O3 P7 1.617768 1_555
O4 P0 1.546833 1_555
O5 P1 1.546833 1_555
O6 P2 1.546833 1_555
O7 P3 1.546833 1_555
O8 P0 1.526893 1_555
O9 P1 1.526893 1_555
O10 P2 1.526893 1_555
O11 P3 1.526893 1_555
O12 P1 1.531546 1_555
O13 P0 1.531546 1_554
O14 P3 1.531546 1_555
O15 P2 1.531546 1_556
O16 P7 1.518940 1_545
O17 P6 1.518940 1_555
O18 P5 1.518940 1_565
O19 P4 1.518940 1_555
O20 P4 1.592260 1_555
O21 P5 1.592260 1_555
O22 P6 1.592260 1_555
O23 P7 1.592260 1_555
O24 P7 1.504850 1_545
O25 P6 1.504850 1_555
O26 P5 1.504850 1_565
O27 P4 1.504850 1_555
