# generated using pymatgen
data_CaEu2(GeO3)4
_symmetry_space_group_name_H-M   'P 1'
_cell_length_a   10.12624745
_cell_length_b   10.12624745
_cell_length_c   5.15340950
_cell_angle_alpha   90.00000000
_cell_angle_beta   90.00000000
_cell_angle_gamma   90.05779063
_symmetry_Int_Tables_number   1
_chemical_formula_structural   CaEu2(GeO3)4
_chemical_formula_sum   'Ca2 Eu4 Ge8 O24'
_cell_volume   528.43491466
_cell_formula_units_Z   2
loop_
 _symmetry_equiv_pos_site_id
 _symmetry_equiv_pos_as_xyz
  1  'x, y, z'
loop_
 _atom_site_type_symbol
 _atom_site_label
 _atom_site_symmetry_multiplicity
 _atom_site_fract_x
 _atom_site_fract_y
 _atom_site_fract_z
 _atom_site_occupancy
  Ca  Ca0  1  0.50000000  -0.00000000  0.50000000  1
  Ca  Ca1  1  -0.00000000  0.50000000  0.50000000  1
  Eu  Eu0  1  0.50000000  0.50000000  0.50000000  1
  Eu  Eu1  1  -0.00000000  -0.00000000  0.50000000  1
  Eu  Eu2  1  0.25000000  0.25000000  0.50000000  1
  Eu  Eu3  1  0.75000000  0.75000000  0.50000000  1
  Ge  Ge0  1  0.97593654  0.25159974  0.99609000  1
  Ge  Ge1  1  0.02406346  0.74840026  0.00391000  1
  Ge  Ge2  1  0.47593654  0.75159974  0.00391000  1
  Ge  Ge3  1  0.52406346  0.24840026  0.99609000  1
  Ge  Ge4  1  0.24840026  0.52406346  0.00391000  1
  Ge  Ge5  1  0.75159974  0.47593654  0.99609000  1
  Ge  Ge6  1  0.74840026  0.02406346  0.99609000  1
  Ge  Ge7  1  0.25159974  0.97593654  0.00391000  1
  O  O0  1  0.32206227  0.06334500  0.25425649  1
  O  O1  1  0.67449349  0.55673427  0.25116315  1
  O  O2  1  0.82550651  0.94326573  0.25116315  1
  O  O3  1  0.17793773  0.43665500  0.25425649  1
  O  O4  1  0.67793773  0.93665500  0.74574351  1
  O  O5  1  0.32550651  0.44326573  0.74883685  1
  O  O6  1  0.17449349  0.05673427  0.74883685  1
  O  O7  1  0.82206227  0.56334500  0.74574351  1
  O  O8  1  0.43665500  0.17793773  0.74574351  1
  O  O9  1  0.94326573  0.82550651  0.74883685  1
  O  O10  1  0.55673427  0.67449349  0.74883685  1
  O  O11  1  0.06334500  0.32206227  0.74574351  1
  O  O12  1  0.56334500  0.82206227  0.25425649  1
  O  O13  1  0.05673427  0.17449349  0.25116315  1
  O  O14  1  0.44326573  0.32550651  0.25116315  1
  O  O15  1  0.93665500  0.67793773  0.25425649  1
  O  O16  1  0.87162046  0.37162046  0.14974322  1
  O  O17  1  0.12780667  0.87219333  0.15658232  1
  O  O18  1  0.37219333  0.62780667  0.15658232  1
  O  O19  1  0.62837954  0.12837954  0.14974322  1
  O  O20  1  0.12837954  0.62837954  0.85025678  1
  O  O21  1  0.87219333  0.12780667  0.84341768  1
  O  O22  1  0.62780667  0.37219333  0.84341768  1
  O  O23  1  0.37162046  0.87162046  0.85025678  1
loop_
_geom_bond_atom_site_label_1
_geom_bond_atom_site_label_2
_geom_bond_distance
_geom_bond_site_symmetry_2
Ca0 O0 2.294391 1_555
Ca0 O12 2.294391 1_545
Ca0 O4 2.294391 1_545
Ca0 O8 2.294391 1_555
Ca0 O19 2.575789 1_555
Ca0 O23 2.575789 1_545
Ca1 O7 2.294391 1_455
Ca1 O11 2.294391 1_555
Ca1 O15 2.294391 1_455
Ca1 O3 2.294391 1_555
Ca1 O16 2.575789 1_455
Ca1 O20 2.575789 1_555
Eu0 O14 2.257125 1_555
Eu0 O5 2.257125 1_555
Eu0 O1 2.257125 1_555
Eu0 O10 2.257125 1_555
Eu0 O18 2.546643 1_555
Eu0 O22 2.546643 1_555
Eu1 O9 2.257125 1_445
Eu1 O6 2.257125 1_555
Eu1 O2 2.257125 1_445
Eu1 O13 2.257125 1_555
Eu1 O17 2.546643 1_545
Eu1 O21 2.546643 1_455
Eu2 O3 2.389900 1_555
Eu2 O8 2.389900 1_555
Eu2 O11 2.389900 1_555
Eu2 O0 2.389900 1_555
Eu2 O6 2.460915 1_555
Eu2 O13 2.460915 1_555
Eu2 O5 2.460915 1_555
Eu2 O14 2.460915 1_555
Eu3 O15 2.389900 1_555
Eu3 O4 2.389900 1_555
Eu3 O7 2.389900 1_555
Eu3 O12 2.389900 1_555
Eu3 O1 2.460915 1_555
Eu3 O10 2.460915 1_555
Eu3 O9 2.460915 1_555
Eu3 O2 2.460915 1_555
Ge0 O11 1.719224 1_655
Ge0 O13 1.734430 1_656
Ge0 O16 1.795141 1_556
Ge0 O21 1.814220 1_555
Ge1 O15 1.719224 1_455
Ge1 O9 1.734430 1_454
Ge1 O20 1.795141 1_554
Ge1 O17 1.814220 1_555
Ge2 O12 1.719224 1_555
Ge2 O10 1.734430 1_554
Ge2 O23 1.795141 1_554
Ge2 O18 1.814220 1_555
Ge3 O8 1.719224 1_555
Ge3 O14 1.734430 1_556
Ge3 O19 1.795141 1_556
Ge3 O22 1.814220 1_555
Ge4 O3 1.719224 1_555
Ge4 O5 1.734430 1_554
Ge4 O20 1.795141 1_554
Ge4 O18 1.814220 1_555
Ge5 O7 1.719224 1_555
Ge5 O1 1.734430 1_556
Ge5 O16 1.795141 1_556
Ge5 O22 1.814220 1_555
Ge6 O4 1.719224 1_545
Ge6 O2 1.734430 1_546
Ge6 O19 1.795141 1_556
Ge6 O21 1.814220 1_555
Ge7 O0 1.719224 1_565
Ge7 O6 1.734430 1_564
Ge7 O23 1.795141 1_554
Ge7 O17 1.814220 1_555
