# generated using pymatgen
data_CsAc
_symmetry_space_group_name_H-M   'P 1'
_cell_length_a   8.13829680
_cell_length_b   8.13829680
_cell_length_c   31.99875800
_cell_angle_alpha   90.00000000
_cell_angle_beta   90.00000000
_cell_angle_gamma   120.00000648
_symmetry_Int_Tables_number   1
_chemical_formula_structural   CsAc
_chemical_formula_sum   'Cs16 Ac16'
_cell_volume   1835.40019551
_cell_formula_units_Z   16
loop_
 _symmetry_equiv_pos_site_id
 _symmetry_equiv_pos_as_xyz
  1  'x, y, z'
loop_
 _atom_site_type_symbol
 _atom_site_label
 _atom_site_symmetry_multiplicity
 _atom_site_fract_x
 _atom_site_fract_y
 _atom_site_fract_z
 _atom_site_occupancy
  Cs  Cs0_0  1  0.33333350  0.16666650  0.40559900  1
  Cs  Cs0_1  1  0.33333350  0.16666650  0.90559900  1
  Cs  Cs0_2  1  0.33333350  0.66666650  0.40559900  1
  Cs  Cs0_3  1  0.33333350  0.66666650  0.90559900  1
  Cs  Cs0_4  1  0.83333350  0.16666650  0.40559900  1
  Cs  Cs0_5  1  0.83333350  0.16666650  0.90559900  1
  Cs  Cs0_6  1  0.83333350  0.66666650  0.40559900  1
  Cs  Cs0_7  1  0.83333350  0.66666650  0.90559900  1
  Cs  Cs1_0  1  0.16666650  0.33333350  0.15559900  1
  Cs  Cs1_1  1  0.16666650  0.33333350  0.65559900  1
  Cs  Cs1_2  1  0.16666650  0.83333350  0.15559900  1
  Cs  Cs1_3  1  0.16666650  0.83333350  0.65559900  1
  Cs  Cs1_4  1  0.66666650  0.33333350  0.15559900  1
  Cs  Cs1_5  1  0.66666650  0.33333350  0.65559900  1
  Cs  Cs1_6  1  0.66666650  0.83333350  0.15559900  1
  Cs  Cs1_7  1  0.66666650  0.83333350  0.65559900  1
  Ac  Ac0_0  1  0.33333350  0.16666650  0.28190100  1
  Ac  Ac0_1  1  0.33333350  0.16666650  0.78190100  1
  Ac  Ac0_2  1  0.33333350  0.66666650  0.28190100  1
  Ac  Ac0_3  1  0.33333350  0.66666650  0.78190100  1
  Ac  Ac0_4  1  0.83333350  0.16666650  0.28190100  1
  Ac  Ac0_5  1  0.83333350  0.16666650  0.78190100  1
  Ac  Ac0_6  1  0.83333350  0.66666650  0.28190100  1
  Ac  Ac0_7  1  0.83333350  0.66666650  0.78190100  1
  Ac  Ac1_0  1  0.16666650  0.33333350  0.03190100  1
  Ac  Ac1_1  1  0.16666650  0.33333350  0.53190100  1
  Ac  Ac1_2  1  0.16666650  0.83333350  0.03190100  1
  Ac  Ac1_3  1  0.16666650  0.83333350  0.53190100  1
  Ac  Ac1_4  1  0.66666650  0.33333350  0.03190100  1
  Ac  Ac1_5  1  0.66666650  0.33333350  0.53190100  1
  Ac  Ac1_6  1  0.66666650  0.83333350  0.03190100  1
  Ac  Ac1_7  1  0.66666650  0.83333350  0.53190100  1
loop_
_geom_bond_atom_site_label_1
_geom_bond_atom_site_label_2
_geom_bond_distance
_geom_bond_site_symmetry_2
Cs0_0 Cs0_6 4.069148 1_555
Cs0_0 Cs0_6 4.069148 1_445
Cs0_0 Cs0_4 4.069148 1_555
Cs0_0 Cs0_2 4.069148 1_545
Cs0_0 Cs0_2 4.069148 1_555
Cs0_0 Cs0_4 4.069148 1_455
Cs0_1 Cs0_7 4.069148 1_445
Cs0_1 Cs0_7 4.069148 1_555
Cs0_1 Cs0_3 4.069148 1_545
Cs0_1 Cs0_5 4.069148 1_555
Cs0_1 Cs0_3 4.069148 1_555
Cs0_1 Cs0_5 4.069148 1_455
Cs0_2 Cs0_4 4.069148 1_455
Cs0_2 Cs0_4 4.069148 1_565
Cs0_2 Cs0_6 4.069148 1_555
Cs0_2 Cs0_6 4.069148 1_455
Cs0_3 Cs0_5 4.069148 1_565
Cs0_3 Cs0_5 4.069148 1_455
Cs0_3 Cs0_7 4.069148 1_555
Cs0_3 Cs0_7 4.069148 1_455
Cs0_4 Cs0_6 4.069148 1_545
Cs0_4 Cs0_6 4.069148 1_555
Cs0_5 Cs0_7 4.069148 1_545
Cs0_5 Cs0_7 4.069148 1_555
Cs1_0 Cs1_6 4.069148 1_445
Cs1_0 Cs1_6 4.069148 1_555
Cs1_0 Cs1_2 4.069148 1_555
Cs1_0 Cs1_4 4.069148 1_455
Cs1_0 Cs1_2 4.069148 1_545
Cs1_0 Cs1_4 4.069148 1_555
Cs1_1 Cs1_7 4.069148 1_445
Cs1_1 Cs1_7 4.069148 1_555
Cs1_1 Cs1_3 4.069148 1_555
Cs1_1 Cs1_5 4.069148 1_455
Cs1_1 Cs1_5 4.069148 1_555
Cs1_1 Cs1_3 4.069148 1_545
Cs1_2 Cs1_4 4.069148 1_455
Cs1_2 Cs1_4 4.069148 1_565
Cs1_2 Cs1_6 4.069148 1_455
Cs1_2 Cs1_6 4.069148 1_555
Cs1_3 Cs1_5 4.069148 1_455
Cs1_3 Cs1_5 4.069148 1_565
Cs1_3 Cs1_7 4.069148 1_455
Cs1_3 Cs1_7 4.069148 1_555
Cs1_4 Cs1_6 4.069148 1_555
Cs1_4 Cs1_6 4.069148 1_545
Cs1_5 Cs1_7 4.069148 1_555
Cs1_5 Cs1_7 4.069148 1_545
Ac0_0 Cs0_0 3.958182 1_555
Ac0_0 Ac0_6 4.069148 1_555
Ac0_0 Ac0_6 4.069148 1_445
Ac0_0 Ac0_2 4.069148 1_545
Ac0_0 Ac0_4 4.069148 1_555
Ac0_0 Ac0_2 4.069148 1_555
Ac0_0 Ac0_4 4.069148 1_455
Ac0_0 Cs1_2 4.674729 1_545
Ac0_0 Cs1_4 4.674729 1_555
Ac0_0 Cs1_0 4.674733 1_555
Ac0_1 Cs0_1 3.958182 1_555
Ac0_1 Ac0_7 4.069148 1_555
Ac0_1 Ac0_7 4.069148 1_445
Ac0_1 Ac0_5 4.069148 1_555
Ac0_1 Ac0_3 4.069148 1_545
Ac0_1 Ac0_3 4.069148 1_555
Ac0_1 Ac0_5 4.069148 1_455
Ac0_1 Cs1_5 4.674729 1_555
Ac0_1 Cs1_3 4.674729 1_545
Ac0_1 Cs1_1 4.674733 1_555
Ac0_2 Cs0_2 3.958182 1_555
Ac0_2 Ac0_4 4.069148 1_565
Ac0_2 Ac0_4 4.069148 1_455
Ac0_2 Ac0_6 4.069148 1_555
Ac0_2 Ac0_6 4.069148 1_455
Ac0_2 Cs1_0 4.674729 1_555
Ac0_2 Cs1_6 4.674729 1_555
Ac0_2 Cs1_2 4.674733 1_555
Ac0_3 Cs0_3 3.958182 1_555
Ac0_3 Ac0_5 4.069148 1_565
Ac0_3 Ac0_5 4.069148 1_455
Ac0_3 Ac0_7 4.069148 1_555
Ac0_3 Ac0_7 4.069148 1_455
Ac0_3 Cs1_7 4.674729 1_555
Ac0_3 Cs1_1 4.674729 1_555
Ac0_3 Cs1_3 4.674733 1_555
Ac0_4 Cs0_4 3.958182 1_555
Ac0_4 Ac0_6 4.069148 1_545
Ac0_4 Ac0_6 4.069148 1_555
Ac0_4 Cs1_6 4.674729 1_545
Ac0_4 Cs1_0 4.674729 1_655
Ac0_4 Cs1_4 4.674733 1_555
Ac0_5 Cs0_5 3.958182 1_555
Ac0_5 Ac0_7 4.069148 1_545
Ac0_5 Ac0_7 4.069148 1_555
Ac0_5 Cs1_7 4.674729 1_545
Ac0_5 Cs1_1 4.674729 1_655
Ac0_5 Cs1_5 4.674733 1_555
Ac0_6 Cs0_6 3.958182 1_555
Ac0_6 Cs1_2 4.674729 1_655
Ac0_6 Cs1_4 4.674729 1_555
Ac0_6 Cs1_6 4.674733 1_555
Ac0_7 Cs0_7 3.958182 1_555
Ac0_7 Cs1_5 4.674729 1_555
Ac0_7 Cs1_3 4.674729 1_655
Ac0_7 Cs1_7 4.674733 1_555
Ac1_0 Cs1_0 3.958182 1_555
Ac1_0 Ac1_6 4.069148 1_555
Ac1_0 Ac1_6 4.069148 1_445
Ac1_0 Ac1_2 4.069148 1_555
Ac1_0 Ac1_4 4.069148 1_455
Ac1_0 Ac1_4 4.069148 1_555
Ac1_0 Ac1_2 4.069148 1_545
Ac1_0 Cs0_5 4.674729 1_454
Ac1_0 Cs0_3 4.674729 1_554
Ac1_0 Cs0_1 4.674733 1_554
Ac1_1 Cs1_1 3.958182 1_555
Ac1_1 Ac1_7 4.069148 1_445
Ac1_1 Ac1_7 4.069148 1_555
Ac1_1 Ac1_5 4.069148 1_455
Ac1_1 Ac1_3 4.069148 1_555
Ac1_1 Ac1_3 4.069148 1_545
Ac1_1 Ac1_5 4.069148 1_555
Ac1_1 Cs0_2 4.674729 1_555
Ac1_1 Cs0_4 4.674729 1_455
Ac1_1 Cs0_0 4.674733 1_555
Ac1_2 Cs1_2 3.958182 1_555
Ac1_2 Ac1_4 4.069148 1_455
Ac1_2 Ac1_4 4.069148 1_565
Ac1_2 Ac1_6 4.069148 1_455
Ac1_2 Ac1_6 4.069148 1_555
Ac1_2 Cs0_7 4.674729 1_454
Ac1_2 Cs0_1 4.674729 1_564
Ac1_2 Cs0_3 4.674733 1_554
Ac1_3 Cs1_3 3.958182 1_555
Ac1_3 Ac1_5 4.069148 1_455
Ac1_3 Ac1_5 4.069148 1_565
Ac1_3 Ac1_7 4.069148 1_455
Ac1_3 Ac1_7 4.069148 1_555
Ac1_3 Cs0_0 4.674729 1_565
Ac1_3 Cs0_6 4.674729 1_455
Ac1_3 Cs0_2 4.674733 1_555
Ac1_4 Cs1_4 3.958182 1_555
Ac1_4 Ac1_6 4.069148 1_555
Ac1_4 Ac1_6 4.069148 1_545
Ac1_4 Cs0_1 4.674729 1_554
Ac1_4 Cs0_7 4.674729 1_554
Ac1_4 Cs0_5 4.674733 1_554
Ac1_5 Cs1_5 3.958182 1_555
Ac1_5 Ac1_7 4.069148 1_555
Ac1_5 Ac1_7 4.069148 1_545
Ac1_5 Cs0_6 4.674729 1_555
Ac1_5 Cs0_0 4.674729 1_555
Ac1_5 Cs0_4 4.674733 1_555
Ac1_6 Cs1_6 3.958182 1_555
Ac1_6 Cs0_5 4.674729 1_564
Ac1_6 Cs0_3 4.674729 1_554
Ac1_6 Cs0_7 4.674733 1_554
Ac1_7 Cs1_7 3.958182 1_555
Ac1_7 Cs0_2 4.674729 1_555
Ac1_7 Cs0_4 4.674729 1_565
Ac1_7 Cs0_6 4.674733 1_555
