# generated using pymatgen
data_DyZr6(PO4)9
_symmetry_space_group_name_H-M   'P 1'
_cell_length_a   8.94437837
_cell_length_b   8.94437837
_cell_length_c   22.94867800
_cell_angle_alpha   90.00000000
_cell_angle_beta   90.00000000
_cell_angle_gamma   120.00000276
_symmetry_Int_Tables_number   1
_chemical_formula_structural   DyZr6(PO4)9
_chemical_formula_sum   'Dy2 Zr12 P18 O72'
_cell_volume   1589.96885624
_cell_formula_units_Z   2
loop_
 _symmetry_equiv_pos_site_id
 _symmetry_equiv_pos_as_xyz
  1  'x, y, z'
loop_
 _atom_site_type_symbol
 _atom_site_label
 _atom_site_symmetry_multiplicity
 _atom_site_fract_x
 _atom_site_fract_y
 _atom_site_fract_z
 _atom_site_occupancy
  Dy  Dy0  1  0.00000000  0.00000000  0.50000000  1
  Dy  Dy1  1  0.00000000  0.00000000  0.00000000  1
  Zr  Zr0  1  0.33333300  0.66666700  0.52846000  1
  Zr  Zr1  1  0.66666700  0.33333300  0.47154000  1
  Zr  Zr2  1  0.66666700  0.33333300  0.97154000  1
  Zr  Zr3  1  0.33333300  0.66666700  0.02846000  1
  Zr  Zr4  1  0.00000000  0.00000000  0.64932500  1
  Zr  Zr5  1  0.00000000  0.00000000  0.35067500  1
  Zr  Zr6  1  0.00000000  0.00000000  0.85067500  1
  Zr  Zr7  1  0.00000000  0.00000000  0.14932500  1
  Zr  Zr8  1  0.33333300  0.66666700  0.81283700  1
  Zr  Zr9  1  0.66666700  0.33333300  0.18716300  1
  Zr  Zr10  1  0.66666700  0.33333300  0.68716300  1
  Zr  Zr11  1  0.33333300  0.66666700  0.31283700  1
  P  P0  1  0.37346700  0.31868800  0.57896600  1
  P  P1  1  0.62653300  0.68131200  0.42103400  1
  P  P2  1  0.68131200  0.05477800  0.57896600  1
  P  P3  1  0.31868800  0.37346700  0.92103400  1
  P  P4  1  0.31868800  0.94522200  0.42103400  1
  P  P5  1  0.68131200  0.62653300  0.07896600  1
  P  P6  1  0.94522200  0.62653300  0.57896600  1
  P  P7  1  0.05477800  0.68131200  0.92103400  1
  P  P8  1  0.05477800  0.37346700  0.42103400  1
  P  P9  1  0.94522200  0.31868800  0.07896600  1
  P  P10  1  0.62653300  0.94522200  0.92103400  1
  P  P11  1  0.37346700  0.05477800  0.07896600  1
  P  P12  1  0.29173200  0.00000000  0.75000000  1
  P  P13  1  0.70826800  0.00000000  0.25000000  1
  P  P14  1  0.00000000  0.29173200  0.75000000  1
  P  P15  1  0.00000000  0.70826800  0.25000000  1
  P  P16  1  0.70826800  0.70826800  0.75000000  1
  P  P17  1  0.29173200  0.29173200  0.25000000  1
  O  O0  1  0.45486000  0.28304100  0.52578600  1
  O  O1  1  0.54514000  0.71695900  0.47421400  1
  O  O2  1  0.71695900  0.17181900  0.52578600  1
  O  O3  1  0.28304100  0.45486000  0.97421400  1
  O  O4  1  0.28304100  0.82818100  0.47421400  1
  O  O5  1  0.71695900  0.54514000  0.02578600  1
  O  O6  1  0.82818100  0.54514000  0.52578600  1
  O  O7  1  0.17181900  0.71695900  0.97421400  1
  O  O8  1  0.17181900  0.45486000  0.47421400  1
  O  O9  1  0.82818100  0.28304100  0.02578600  1
  O  O10  1  0.54514000  0.82818100  0.97421400  1
  O  O11  1  0.45486000  0.17181900  0.02578600  1
  O  O12  1  0.37566800  0.49127300  0.57461000  1
  O  O13  1  0.62433200  0.50872700  0.42539000  1
  O  O14  1  0.50872700  0.88439500  0.57461000  1
  O  O15  1  0.49127300  0.37566800  0.92539000  1
  O  O16  1  0.49127300  0.11560500  0.42539000  1
  O  O17  1  0.50872700  0.62433200  0.07461000  1
  O  O18  1  0.11560500  0.62433200  0.57461000  1
  O  O19  1  0.88439500  0.50872700  0.92539000  1
  O  O20  1  0.88439500  0.37566800  0.42539000  1
  O  O21  1  0.11560500  0.49127300  0.07461000  1
  O  O22  1  0.62433200  0.11560500  0.92539000  1
  O  O23  1  0.37566800  0.88439500  0.07461000  1
  O  O24  1  0.17728400  0.16783000  0.57838200  1
  O  O25  1  0.82271600  0.83217000  0.42161800  1
  O  O26  1  0.83217000  0.00945400  0.57838200  1
  O  O27  1  0.16783000  0.17728400  0.92161800  1
  O  O28  1  0.16783000  0.99054600  0.42161800  1
  O  O29  1  0.83217000  0.82271600  0.07838200  1
  O  O30  1  0.99054600  0.82271600  0.57838200  1
  O  O31  1  0.00945400  0.83217000  0.92161800  1
  O  O32  1  0.00945400  0.17728400  0.42161800  1
  O  O33  1  0.99054600  0.16783000  0.07838200  1
  O  O34  1  0.82271600  0.99054600  0.92161800  1
  O  O35  1  0.17728400  0.00945400  0.07838200  1
  O  O36  1  0.03085400  0.20484300  0.69601000  1
  O  O37  1  0.96914600  0.79515700  0.30399000  1
  O  O38  1  0.79515700  0.82601100  0.69601000  1
  O  O39  1  0.20484300  0.03085400  0.80399000  1
  O  O40  1  0.20484300  0.17398900  0.30399000  1
  O  O41  1  0.79515700  0.96914600  0.19601000  1
  O  O42  1  0.17398900  0.96914600  0.69601000  1
  O  O43  1  0.82601100  0.79515700  0.80399000  1
  O  O44  1  0.82601100  0.03085400  0.30399000  1
  O  O45  1  0.17398900  0.20484300  0.19601000  1
  O  O46  1  0.96914600  0.17398900  0.80399000  1
  O  O47  1  0.03085400  0.82601100  0.19601000  1
  O  O48  1  0.46085600  0.31352900  0.63568000  1
  O  O49  1  0.53914400  0.68647100  0.36432000  1
  O  O50  1  0.68647100  0.14732700  0.63568000  1
  O  O51  1  0.31352900  0.46085600  0.86432000  1
  O  O52  1  0.31352900  0.85267300  0.36432000  1
  O  O53  1  0.68647100  0.53914400  0.13568000  1
  O  O54  1  0.85267300  0.53914400  0.63568000  1
  O  O55  1  0.14732700  0.68647100  0.86432000  1
  O  O56  1  0.14732700  0.46085600  0.36432000  1
  O  O57  1  0.85267300  0.31352900  0.13568000  1
  O  O58  1  0.53914400  0.85267300  0.86432000  1
  O  O59  1  0.46085600  0.14732700  0.13568000  1
  O  O60  1  0.46817100  0.15907900  0.74003000  1
  O  O61  1  0.53182900  0.84092100  0.25997000  1
  O  O62  1  0.84092100  0.30909200  0.74003000  1
  O  O63  1  0.15907900  0.46817100  0.75997000  1
  O  O64  1  0.15907900  0.69090800  0.25997000  1
  O  O65  1  0.84092100  0.53182900  0.24003000  1
  O  O66  1  0.69090800  0.53182900  0.74003000  1
  O  O67  1  0.30909200  0.84092100  0.75997000  1
  O  O68  1  0.30909200  0.46817100  0.25997000  1
  O  O69  1  0.69090800  0.15907900  0.24003000  1
  O  O70  1  0.53182900  0.69090800  0.75997000  1
  O  O71  1  0.46817100  0.30909200  0.24003000  1
loop_
_geom_bond_atom_site_label_1
_geom_bond_atom_site_label_2
_geom_bond_distance
_geom_bond_site_symmetry_2
Dy0 O24 2.371295 1_555
Dy0 O25 2.371295 1_445
Dy0 O30 2.371295 1_445
Dy0 O32 2.371295 1_555
Dy0 O26 2.371295 1_455
Dy0 O28 2.371295 1_545
Dy1 O27 2.371295 1_554
Dy1 O29 2.371295 1_445
Dy1 O34 2.371295 1_444
Dy1 O35 2.371295 1_555
Dy1 O31 2.371295 1_544
Dy1 O33 2.371295 1_455
O0 P0 1.534007 1_555
O0 Zr1 2.118708 1_555
O1 P1 1.534007 1_555
O1 Zr0 2.118708 1_555
O2 P2 1.534012 1_555
O2 Zr1 2.118701 1_555
O3 P3 1.534007 1_555
O3 Zr3 2.118708 1_556
O4 P4 1.534012 1_555
O4 Zr0 2.118701 1_555
O5 P5 1.534007 1_555
O5 Zr2 2.118708 1_554
O6 P6 1.534011 1_555
O6 Zr1 2.118706 1_555
O7 P7 1.534012 1_555
O7 Zr3 2.118701 1_556
O8 P8 1.534011 1_555
O8 Zr0 2.118706 1_555
O9 P9 1.534012 1_555
O9 Zr2 2.118701 1_554
O10 P10 1.534011 1_555
O10 Zr3 2.118706 1_556
O11 P11 1.534011 1_555
O11 Zr2 2.118706 1_554
O12 P0 1.537171 1_555
O12 Zr0 2.078504 1_555
O13 P1 1.537171 1_555
O13 Zr1 2.078504 1_555
O14 P2 1.537166 1_565
O14 Zr0 2.078499 1_555
O15 P3 1.537171 1_555
O15 Zr2 2.078504 1_555
O16 P4 1.537166 1_545
O16 Zr1 2.078499 1_555
O17 P5 1.537171 1_555
O17 Zr3 2.078504 1_555
O18 P6 1.537162 1_455
O18 Zr0 2.078496 1_555
O19 P7 1.537166 1_655
O19 Zr2 2.078499 1_555
O20 P8 1.537162 1_655
O20 Zr1 2.078496 1_555
O21 P9 1.537166 1_455
O21 Zr3 2.078499 1_555
O22 P10 1.537162 1_545
O22 Zr2 2.078496 1_555
O23 P11 1.537162 1_565
O23 Zr3 2.078496 1_555
O24 P0 1.591305 1_555
O24 Zr4 2.244556 1_555
O25 P1 1.591305 1_555
O25 Zr5 2.244556 1_665
O26 P2 1.591299 1_555
O26 Zr4 2.244556 1_655
O27 P3 1.591305 1_555
O27 Zr6 2.244556 1_555
O28 P4 1.591299 1_555
O28 Zr5 2.244556 1_565
O29 P5 1.591305 1_555
O29 Zr7 2.244556 1_665
O30 P6 1.591307 1_555
O30 Zr4 2.244556 1_665
O31 P7 1.591299 1_555
O31 Zr6 2.244556 1_565
O32 P8 1.591307 1_555
O32 Zr5 2.244556 1_555
O33 P9 1.591299 1_555
O33 Zr7 2.244556 1_655
O34 P10 1.591307 1_555
O34 Zr6 2.244556 1_665
O35 P11 1.591307 1_555
O35 Zr7 2.244556 1_555
O36 P14 1.558763 1_555
O36 Zr4 2.018730 1_555
O37 P15 1.558763 1_655
O37 Zr5 2.018730 1_665
O38 P16 1.558763 1_555
O38 Zr4 2.018730 1_665
O39 P12 1.558763 1_555
O39 Zr6 2.018730 1_555
O40 P17 1.558763 1_555
O40 Zr5 2.018730 1_555
O41 P13 1.558763 1_565
O41 Zr7 2.018730 1_665
O42 P12 1.558763 1_565
O42 Zr4 2.018730 1_565
O43 P16 1.558763 1_555
O43 Zr6 2.018730 1_665
O44 P13 1.558763 1_555
O44 Zr5 2.018730 1_655
O45 P17 1.558763 1_555
O45 Zr7 2.018730 1_555
O46 P14 1.558763 1_655
O46 Zr6 2.018730 1_655
O47 P15 1.558763 1_555
O47 Zr7 2.018730 1_565
O48 P0 1.530716 1_555
O48 Zr10 2.118938 1_555
O49 P1 1.530716 1_555
O49 Zr11 2.118938 1_555
O50 P2 1.530720 1_555
O50 Zr10 2.118930 1_555
O51 P3 1.530716 1_555
O51 Zr8 2.118938 1_555
O52 P4 1.530720 1_555
O52 Zr11 2.118930 1_555
O53 P5 1.530716 1_555
O53 Zr9 2.118938 1_555
O54 P6 1.530718 1_555
O54 Zr10 2.118934 1_555
O55 P7 1.530720 1_555
O55 Zr8 2.118930 1_555
O56 P8 1.530718 1_555
O56 Zr11 2.118934 1_555
O57 P9 1.530720 1_555
O57 Zr9 2.118930 1_555
O58 P10 1.530718 1_555
O58 Zr8 2.118934 1_555
O59 P11 1.530718 1_555
O59 Zr9 2.118934 1_555
O60 P12 1.523788 1_555
O60 Zr10 2.070290 1_555
O61 P13 1.523788 1_565
O61 Zr11 2.070290 1_555
O62 P14 1.523789 1_655
O62 Zr10 2.070286 1_555
O63 P14 1.523788 1_555
O63 Zr8 2.070290 1_555
O64 P15 1.523789 1_555
O64 Zr11 2.070286 1_555
O65 P15 1.523788 1_655
O65 Zr9 2.070290 1_555
O66 P16 1.523789 1_555
O66 Zr10 2.070293 1_555
O67 P12 1.523789 1_565
O67 Zr8 2.070286 1_555
O68 P17 1.523789 1_555
O68 Zr11 2.070293 1_555
O69 P13 1.523789 1_555
O69 Zr9 2.070286 1_555
O70 P16 1.523789 1_555
O70 Zr8 2.070293 1_555
O71 P17 1.523789 1_555
O71 Zr9 2.070293 1_555
