# generated using pymatgen
data_Cr2CuO4
_symmetry_space_group_name_H-M   'P 1'
_cell_length_a   5.88762694
_cell_length_b   5.88700703
_cell_length_c   6.09933072
_cell_angle_alpha   58.83991445
_cell_angle_beta   58.82803304
_cell_angle_gamma   85.80131737
_symmetry_Int_Tables_number   1
_chemical_formula_structural   Cr2CuO4
_chemical_formula_sum   'Cr4 Cu2 O8'
_cell_volume   149.21782460
_cell_formula_units_Z   2
loop_
 _symmetry_equiv_pos_site_id
 _symmetry_equiv_pos_as_xyz
  1  'x, y, z'
loop_
 _atom_site_type_symbol
 _atom_site_label
 _atom_site_symmetry_multiplicity
 _atom_site_fract_x
 _atom_site_fract_y
 _atom_site_fract_z
 _atom_site_occupancy
  Cr  Cr0  1  0.62503800  0.87502100  0.74996500  1
  Cr  Cr1  1  0.12498500  0.37498900  0.25001900  1
  Cr  Cr2  1  0.62496900  0.37501300  0.25003400  1
  Cr  Cr3  1  0.62494400  0.37502700  0.75000000  1
  Cu  Cu0  1  0.00612200  0.99371700  0.99999100  1
  Cu  Cu1  1  0.25453000  0.74563300  0.49997200  1
  O  O0  1  0.40707200  0.15856500  0.21713500  1
  O  O1  1  0.37297500  0.62692300  0.78297900  1
  O  O2  1  0.87434500  0.12576900  0.71731400  1
  O  O3  1  0.84005800  0.59380900  0.28311700  1
  O  O4  1  0.84146600  0.59293500  0.78286400  1
  O  O5  1  0.37310200  0.62704200  0.21703500  1
  O  O6  1  0.87426000  0.12564500  0.28266600  1
  O  O7  1  0.40613400  0.15991100  0.71691100  1
loop_
_geom_bond_atom_site_label_1
_geom_bond_atom_site_label_2
_geom_bond_distance
_geom_bond_site_symmetry_2
Cr0 O4 2.007909 1_555
Cr0 O1 2.019867 1_555
Cr0 O2 2.020805 1_565
Cr0 O5 2.021356 1_556
Cr0 O6 2.022199 1_565
Cr0 O7 2.029064 1_565
Cr1 O0 2.007890 1_555
Cr1 O5 2.020021 1_555
Cr1 O6 2.020881 1_455
Cr1 O1 2.021242 1_554
Cr1 O2 2.022186 1_455
Cr1 O3 2.028905 1_455
Cr2 O6 2.008358 1_555
Cr2 O3 2.018868 1_555
Cr2 O0 2.019956 1_555
Cr2 O7 2.020309 1_555
Cr2 O4 2.021470 1_554
Cr2 O5 2.029439 1_555
Cr3 O2 2.008303 1_555
Cr3 O7 2.019075 1_555
Cr3 O4 2.020158 1_555
Cr3 O3 2.020351 1_555
Cr3 O0 2.021332 1_556
Cr3 O1 2.029262 1_555
Cu0 O3 1.965332 1_456
Cu0 O7 1.965874 1_565
Cu0 O2 2.021969 1_465
Cu0 O6 2.022456 1_466
Cu1 O1 1.969952 1_555
Cu1 O5 1.970068 1_555
Cu1 O0 2.016931 1_565
Cu1 O4 2.017595 1_455
