# generated using pymatgen
data_Zn2Cr3FeO8
_symmetry_space_group_name_H-M   'P 1'
_cell_length_a   6.01304239
_cell_length_b   6.01304380
_cell_length_c   6.01303530
_cell_angle_alpha   60.12894127
_cell_angle_beta   119.87099645
_cell_angle_gamma   119.87079421
_symmetry_Int_Tables_number   1
_chemical_formula_structural   Zn2Cr3FeO8
_chemical_formula_sum   'Zn2 Cr3 Fe1 O8'
_cell_volume   154.18254040
_cell_formula_units_Z   1
loop_
 _symmetry_equiv_pos_site_id
 _symmetry_equiv_pos_as_xyz
  1  'x, y, z'
loop_
 _atom_site_type_symbol
 _atom_site_label
 _atom_site_symmetry_multiplicity
 _atom_site_fract_x
 _atom_site_fract_y
 _atom_site_fract_z
 _atom_site_occupancy
  Zn  Zn0  1  0.24941400  0.75058600  0.75058700  1
  Zn  Zn1  1  0.00058700  0.99941200  0.99941400  1
  Cr  Cr0  1  0.62500200  0.87500300  0.37500200  1
  Cr  Cr1  1  0.62500400  0.37501000  0.87499800  1
  Cr  Cr2  1  0.12498900  0.37499500  0.37499400  1
  Fe  Fe0  1  0.62500100  0.37499900  0.37500100  1
  O  O0  1  0.86312800  0.13687200  0.13687400  1
  O  O1  1  0.38687300  0.61312600  0.61312700  1
  O  O2  1  0.86484900  0.59155200  0.13515300  1
  O  O3  1  0.86484900  0.13515100  0.59155400  1
  O  O4  1  0.40844900  0.13515100  0.13515300  1
  O  O5  1  0.38515200  0.15844700  0.61484900  1
  O  O6  1  0.38515200  0.61484800  0.15844700  1
  O  O7  1  0.84155300  0.61484800  0.61484800  1
loop_
_geom_bond_atom_site_label_1
_geom_bond_atom_site_label_2
_geom_bond_distance
_geom_bond_site_symmetry_2
Cr0 O0 2.032356 1_565
Cr0 O1 2.032360 1_555
Cr0 O4 2.033130 1_565
Cr0 O3 2.033134 1_565
Cr0 O7 2.033153 1_555
Cr0 O6 2.033177 1_555
Cr1 O1 2.032324 1_555
Cr1 O0 2.032386 1_556
Cr1 O2 2.033123 1_556
Cr1 O7 2.033127 1_555
Cr1 O4 2.033174 1_556
Cr1 O5 2.033182 1_555
Cr2 O0 2.032311 1_455
Cr2 O1 2.032405 1_555
Cr2 O2 2.033111 1_455
Cr2 O3 2.033128 1_455
Cr2 O5 2.033177 1_555
Cr2 O6 2.033178 1_555
Fe0 O3 2.046001 1_555
Fe0 O2 2.046006 1_555
Fe0 O4 2.046008 1_555
Fe0 O7 2.046008 1_555
Fe0 O6 2.046010 1_555
Fe0 O5 2.046010 1_555
O0 Zn1 2.022650 1_644
O1 Zn0 2.022650 1_555
O2 Zn1 2.005694 1_654
O3 Zn1 2.005687 1_645
O4 Zn1 2.005705 1_544
O5 Zn0 2.005699 1_545
O6 Zn0 2.005687 1_554
O7 Zn0 2.005700 1_655
