# generated using pymatgen
data_VIn3S4
_symmetry_space_group_name_H-M   'P 1'
_cell_length_a   6.46928424
_cell_length_b   6.46928424
_cell_length_c   6.46928424
_cell_angle_alpha   109.47122063
_cell_angle_beta   109.47122063
_cell_angle_gamma   109.47122063
_symmetry_Int_Tables_number   1
_chemical_formula_structural   VIn3S4
_chemical_formula_sum   'V1 In3 S4'
_cell_volume   208.42355990
_cell_formula_units_Z   1
loop_
 _symmetry_equiv_pos_site_id
 _symmetry_equiv_pos_as_xyz
  1  'x, y, z'
loop_
 _atom_site_type_symbol
 _atom_site_label
 _atom_site_symmetry_multiplicity
 _atom_site_fract_x
 _atom_site_fract_y
 _atom_site_fract_z
 _atom_site_occupancy
  V  V0  1  0.00000000  0.00000000  0.00000000  1
  In  In0  1  0.50000000  0.50000000  0.00000000  1
  In  In1  1  0.00000000  0.50000000  0.50000000  1
  In  In2  1  0.50000000  0.00000000  0.50000000  1
  S  S0  1  0.33477600  0.00000000  0.00000000  1
  S  S1  1  0.00000000  0.00000000  0.33477600  1
  S  S2  1  0.66522400  0.66522400  0.66522400  1
  S  S3  1  0.00000000  0.33477600  0.00000000  1
loop_
_geom_bond_atom_site_label_1
_geom_bond_atom_site_label_2
_geom_bond_distance
_geom_bond_site_symmetry_2
In0 S3 3.049664 1_555
In0 S1 3.049664 1_665
In0 S0 3.049664 1_555
In0 S2 3.049664 1_554
In1 S1 3.049664 1_555
In1 S0 3.049664 1_566
In1 S3 3.049664 1_555
In1 S2 3.049664 1_455
In2 S1 3.049664 1_555
In2 S3 3.049664 1_656
In2 S0 3.049664 1_555
In2 S2 3.049664 1_545
S0 V0 2.165761 1_555
S1 V0 2.165761 1_555
S2 V0 2.165761 1_666
S3 V0 2.165761 1_555
