# generated using pymatgen
data_Ca2Al2Si6Sn(H3O11)2
_symmetry_space_group_name_H-M   'P 1'
_cell_length_a   7.56046459
_cell_length_b   7.82988100
_cell_length_c   16.03065697
_cell_angle_alpha   90.00000000
_cell_angle_beta   101.04470511
_cell_angle_gamma   90.00000000
_symmetry_Int_Tables_number   1
_chemical_formula_structural   Ca2Al2Si6Sn(H3O11)2
_chemical_formula_sum   'Ca4 Al4 Si12 Sn2 H12 O44'
_cell_volume   931.39850812
_cell_formula_units_Z   2
loop_
 _symmetry_equiv_pos_site_id
 _symmetry_equiv_pos_as_xyz
  1  'x, y, z'
loop_
 _atom_site_type_symbol
 _atom_site_label
 _atom_site_symmetry_multiplicity
 _atom_site_fract_x
 _atom_site_fract_y
 _atom_site_fract_z
 _atom_site_occupancy
  Ca  Ca0  1  0.99734500  0.81133800  0.20043000  1
  Ca  Ca1  1  0.00265500  0.31133800  0.29957000  1
  Ca  Ca2  1  0.00265500  0.18866200  0.79957000  1
  Ca  Ca3  1  0.99734500  0.68866200  0.70043000  1
  Al  Al0  1  0.32041600  0.52176400  0.22859900  1
  Al  Al1  1  0.67958400  0.02176400  0.27140100  1
  Al  Al2  1  0.67958400  0.47823600  0.77140100  1
  Al  Al3  1  0.32041600  0.97823600  0.72859900  1
  Si  Si0  1  0.28701500  0.66923800  0.04367800  1
  Si  Si1  1  0.71298500  0.16923800  0.45632200  1
  Si  Si2  1  0.71298500  0.33076200  0.95632200  1
  Si  Si3  1  0.28701500  0.83076200  0.54367800  1
  Si  Si4  1  0.69366400  0.64525300  0.33356900  1
  Si  Si5  1  0.30633600  0.14525300  0.16643100  1
  Si  Si6  1  0.30633600  0.35474700  0.66643100  1
  Si  Si7  1  0.69366400  0.85474700  0.83356900  1
  Si  Si8  1  0.66762100  0.71629500  0.00698800  1
  Si  Si9  1  0.33237900  0.21629500  0.49301200  1
  Si  Si10  1  0.33237900  0.28370500  0.99301200  1
  Si  Si11  1  0.66762100  0.78370500  0.50698800  1
  Sn  Sn0  1  0.00000000  0.50000000  0.50000000  1
  Sn  Sn1  1  0.00000000  0.00000000  0.00000000  1
  H  H0  1  0.72547300  0.50956700  0.18844600  1
  H  H1  1  0.27452700  0.00956700  0.31155400  1
  H  H2  1  0.27452700  0.49043300  0.81155400  1
  H  H3  1  0.72547300  0.99043300  0.68844600  1
  H  H4  1  0.84715600  0.46799600  0.12141000  1
  H  H5  1  0.15284400  0.96799600  0.37859000  1
  H  H6  1  0.15284400  0.53200400  0.87859000  1
  H  H7  1  0.84715600  0.03200400  0.62141000  1
  H  H8  1  0.21593600  0.63189200  0.35665500  1
  H  H9  1  0.78406400  0.13189200  0.14334500  1
  H  H10  1  0.78406400  0.36810800  0.64334500  1
  H  H11  1  0.21593600  0.86810800  0.85665500  1
  O  O0  1  0.16328400  0.69841800  0.47972500  1
  O  O1  1  0.83671600  0.19841700  0.02027500  1
  O  O2  1  0.83671600  0.30158200  0.52027500  1
  O  O3  1  0.16328400  0.80158200  0.97972500  1
  O  O4  1  0.26510600  0.48391700  0.99259400  1
  O  O5  1  0.73489400  0.98391700  0.50740600  1
  O  O6  1  0.73489400  0.51608300  0.00740600  1
  O  O7  1  0.26510600  0.01608300  0.49259400  1
  O  O8  1  0.76297200  0.80945300  0.28472600  1
  O  O9  1  0.23702800  0.30945300  0.21527400  1
  O  O10  1  0.23702800  0.19054700  0.71527400  1
  O  O11  1  0.76297200  0.69054700  0.78472600  1
  O  O12  1  0.86198900  0.52228400  0.37545400  1
  O  O13  1  0.13801100  0.02228400  0.12454600  1
  O  O14  1  0.13801100  0.47771600  0.62454600  1
  O  O15  1  0.86198900  0.97771600  0.87545400  1
  O  O16  1  0.23398200  0.64407400  0.13666600  1
  O  O17  1  0.76601800  0.14407400  0.36333400  1
  O  O18  1  0.76601800  0.35592600  0.86333400  1
  O  O19  1  0.23398200  0.85592600  0.63666600  1
  O  O20  1  0.83541600  0.83232300  0.05473100  1
  O  O21  1  0.16458400  0.33232300  0.44526900  1
  O  O22  1  0.16458400  0.16767700  0.94526900  1
  O  O23  1  0.83541600  0.66767700  0.55473100  1
  O  O24  1  0.55351100  0.53393400  0.26456000  1
  O  O25  1  0.44648900  0.03393400  0.23544000  1
  O  O26  1  0.44648900  0.46606600  0.73544000  1
  O  O27  1  0.55351100  0.96606600  0.76456000  1
  O  O28  1  0.85224000  0.50327600  0.18109600  1
  O  O29  1  0.14776000  0.00327600  0.31890400  1
  O  O30  1  0.14776000  0.49672400  0.81890400  1
  O  O31  1  0.85224000  0.99672400  0.68109600  1
  O  O32  1  0.18146000  0.60523000  0.29631900  1
  O  O33  1  0.81854000  0.10523000  0.20368100  1
  O  O34  1  0.81854000  0.39477000  0.70368100  1
  O  O35  1  0.18146000  0.89477000  0.79631900  1
  O  O36  1  0.50178900  0.72409500  0.05869200  1
  O  O37  1  0.49821100  0.22409500  0.44130800  1
  O  O38  1  0.49821100  0.27590500  0.94130800  1
  O  O39  1  0.50178900  0.77590500  0.55869200  1
  O  O40  1  0.59351700  0.72337600  0.40835600  1
  O  O41  1  0.40648300  0.22337600  0.09164400  1
  O  O42  1  0.40648300  0.27662400  0.59164400  1
  O  O43  1  0.59351700  0.77662400  0.90835600  1
loop_
_geom_bond_atom_site_label_1
_geom_bond_atom_site_label_2
_geom_bond_distance
_geom_bond_site_symmetry_2
Ca0 O13 2.415486 1_665
Ca0 O8 2.425615 1_555
Ca0 O20 2.426000 1_555
Ca0 O32 2.466788 1_655
Ca0 O29 2.516207 1_665
Ca0 O16 2.581002 1_655
Ca0 O28 2.643388 1_555
Ca0 O33 2.674406 1_565
Ca1 O12 2.415486 1_455
Ca1 O9 2.425615 1_555
Ca1 O21 2.426000 1_555
Ca1 O33 2.466788 1_455
Ca1 O28 2.516207 1_455
Ca1 O17 2.581002 1_455
Ca1 O29 2.643388 1_555
Ca1 O32 2.674406 1_555
Ca2 O15 2.415486 1_445
Ca2 O10 2.425615 1_555
Ca2 O22 2.426000 1_555
Ca2 O34 2.466788 1_455
Ca2 O31 2.516207 1_445
Ca2 O18 2.581002 1_455
Ca2 O30 2.643388 1_555
Ca2 O35 2.674406 1_545
Ca3 O14 2.415486 1_655
Ca3 O11 2.425615 1_555
Ca3 O23 2.426000 1_555
Ca3 O35 2.466788 1_655
Ca3 O30 2.516207 1_655
Ca3 O19 2.581002 1_655
Ca3 O31 2.643388 1_555
Ca3 O34 2.674406 1_555
Al0 O24 1.748679 1_555
Al0 O32 1.773782 1_555
Al0 O16 1.774008 1_555
Al0 O9 1.776224 1_555
Al1 O25 1.748679 1_555
Al1 O33 1.773782 1_555
Al1 O17 1.774008 1_555
Al1 O8 1.776224 1_545
Al2 O26 1.748679 1_555
Al2 O34 1.773782 1_555
Al2 O18 1.774008 1_555
Al2 O11 1.776224 1_555
Al3 O27 1.748679 1_555
Al3 O35 1.773782 1_555
Al3 O19 1.774008 1_555
Al3 O10 1.776224 1_565
H0 O28 0.989010 1_555
H1 O29 0.989010 1_555
H2 O30 0.989010 1_555
H3 O31 0.989010 1_555
H4 O28 0.989531 1_555
H5 O29 0.989531 1_565
H6 O30 0.989531 1_555
H7 O31 0.989531 1_545
H8 O32 0.974911 1_555
H9 O33 0.974911 1_555
H10 O34 0.974911 1_555
H11 O35 0.974911 1_555
O0 Si3 1.622491 1_555
O0 Sn0 2.048661 1_555
O1 Si2 1.622496 1_554
O1 Sn1 2.048655 1_655
O2 Si1 1.622491 1_555
O2 Sn0 2.048661 1_655
O3 Si0 1.622491 1_556
O3 Sn1 2.048661 1_566
O4 Si10 1.647699 1_555
O4 Si0 1.658795 1_556
O5 Si11 1.647699 1_555
O5 Si1 1.658795 1_565
O6 Si8 1.647699 1_555
O6 Si2 1.658795 1_554
O7 Si9 1.647699 1_555
O7 Si3 1.658795 1_545
O8 Si4 1.642492 1_555
O9 Si5 1.642492 1_555
O10 Si6 1.642492 1_555
O11 Si7 1.642492 1_555
O12 Si4 1.634024 1_555
O12 Sn0 2.075383 1_655
O13 Si5 1.634024 1_555
O13 Sn1 2.075383 1_555
O14 Si6 1.634024 1_555
O14 Sn0 2.075383 1_555
O15 Si7 1.634024 1_555
O15 Sn1 2.075383 1_666
O16 Si0 1.628082 1_555
O17 Si1 1.628082 1_555
O18 Si2 1.628082 1_555
O19 Si3 1.628082 1_555
O20 Si8 1.627410 1_555
O20 Sn1 2.111902 1_665
O21 Si9 1.627410 1_555
O21 Sn0 2.111902 1_555
O22 Si10 1.627410 1_555
O22 Sn1 2.111902 1_556
O23 Si11 1.627410 1_555
O23 Sn0 2.111902 1_655
O24 Si4 1.630088 1_555
O25 Si5 1.630088 1_555
O26 Si6 1.630088 1_555
O27 Si7 1.630088 1_555
O36 Si8 1.631201 1_555
O36 Si0 1.652082 1_555
O37 Si9 1.631201 1_555
O37 Si1 1.652082 1_555
O38 Si10 1.631201 1_555
O38 Si2 1.652082 1_555
O39 Si11 1.631201 1_555
O39 Si3 1.652082 1_555
O40 Si11 1.642438 1_555
O40 Si4 1.653053 1_555
O41 Si10 1.642438 1_554
O41 Si5 1.653053 1_555
O42 Si9 1.642438 1_555
O42 Si6 1.653053 1_555
O43 Si8 1.642438 1_556
O43 Si7 1.653053 1_555
