# generated using pymatgen
data_MgFe2O5
_symmetry_space_group_name_H-M   'P 1'
_cell_length_a   3.92886900
_cell_length_b   9.68087701
_cell_length_c   5.26095491
_cell_angle_alpha   89.99540164
_cell_angle_beta   68.07860145
_cell_angle_gamma   90.00000009
_symmetry_Int_Tables_number   1
_chemical_formula_structural   MgFe2O5
_chemical_formula_sum   'Mg2 Fe4 O10'
_cell_volume   185.63203636
_cell_formula_units_Z   2
loop_
 _symmetry_equiv_pos_site_id
 _symmetry_equiv_pos_as_xyz
  1  'x, y, z'
loop_
 _atom_site_type_symbol
 _atom_site_label
 _atom_site_symmetry_multiplicity
 _atom_site_fract_x
 _atom_site_fract_y
 _atom_site_fract_z
 _atom_site_occupancy
  Mg  Mg0  1  0.79634800  0.25143900  0.40712500  1
  Mg  Mg1  1  0.20367600  0.75139100  0.59282700  1
  Fe  Fe0  1  0.86135100  0.93980600  0.27721600  1
  Fe  Fe1  1  0.13864100  0.43980200  0.72280400  1
  Fe  Fe2  1  0.86043500  0.55980500  0.27909700  1
  Fe  Fe3  1  0.13957500  0.05978000  0.72088400  1
  O  O0  1  0.21850200  0.25664300  0.56296200  1
  O  O1  1  0.78149600  0.75663500  0.43704300  1
  O  O2  1  0.95218700  0.11147900  0.09567200  1
  O  O3  1  0.95950800  0.38272500  0.08107600  1
  O  O4  1  0.04783900  0.61150200  0.90427300  1
  O  O5  1  0.04048100  0.88270700  0.91894500  1
  O  O6  1  0.69387800  0.05612500  0.61225300  1
  O  O7  1  0.68922200  0.44203800  0.62163800  1
  O  O8  1  0.30612500  0.55609600  0.38774300  1
  O  O9  1  0.31073800  0.94202700  0.37844400  1
loop_
_geom_bond_atom_site_label_1
_geom_bond_atom_site_label_2
_geom_bond_distance
_geom_bond_site_symmetry_2
Mg0 O2 2.036373 1_555
Mg0 O3 2.036480 1_555
Mg0 O0 2.106919 1_555
Mg0 O0 2.107352 1_655
Mg0 O7 2.121572 1_555
Mg0 O6 2.139421 1_555
Mg1 O4 2.035715 1_555
Mg1 O5 2.037097 1_555
Mg1 O1 2.106834 1_555
Mg1 O1 2.107263 1_455
Mg1 O9 2.121413 1_555
Mg1 O8 2.139311 1_555
Fe0 O5 1.833905 1_654
Fe0 O2 1.883314 1_565
Fe0 O1 1.937181 1_555
Fe0 O6 1.985482 1_565
Fe0 O9 2.025693 1_655
Fe0 O9 2.025752 1_555
Fe1 O3 1.833754 1_456
Fe1 O4 1.883508 1_555
Fe1 O0 1.937228 1_555
Fe1 O8 1.985281 1_555
Fe1 O7 2.025624 1_455
Fe1 O7 2.025675 1_555
Fe2 O4 1.896538 1_654
Fe2 O3 1.968022 1_555
Fe2 O7 2.023455 1_555
Fe2 O8 2.035044 1_555
Fe2 O8 2.035071 1_655
Fe2 O1 2.055571 1_555
Fe3 O2 1.896457 1_456
Fe3 O5 1.967914 1_545
Fe3 O9 2.023135 1_545
Fe3 O6 2.035019 1_555
Fe3 O6 2.035043 1_455
Fe3 O0 2.055699 1_555
