# generated using pymatgen
data_Mg6SnW
_symmetry_space_group_name_H-M   'P 1'
_cell_length_a   4.97244400
_cell_length_b   6.21472900
_cell_length_c   10.60617600
_cell_angle_alpha   90.00000000
_cell_angle_beta   90.00000000
_cell_angle_gamma   90.00000000
_symmetry_Int_Tables_number   1
_chemical_formula_structural   Mg6SnW
_chemical_formula_sum   'Mg12 Sn2 W2'
_cell_volume   327.75620761
_cell_formula_units_Z   2
loop_
 _symmetry_equiv_pos_site_id
 _symmetry_equiv_pos_as_xyz
  1  'x, y, z'
loop_
 _atom_site_type_symbol
 _atom_site_label
 _atom_site_symmetry_multiplicity
 _atom_site_fract_x
 _atom_site_fract_y
 _atom_site_fract_z
 _atom_site_occupancy
  Mg  Mg0  1  0.00000000  0.26075600  0.08597700  1
  Mg  Mg1  1  0.00000000  0.73924400  0.08597700  1
  Mg  Mg2  1  0.00000000  0.50000000  0.83366600  1
  Mg  Mg3  1  0.50000000  0.25408700  0.91833300  1
  Mg  Mg4  1  0.50000000  0.74591300  0.91833300  1
  Mg  Mg5  1  0.50000000  0.50000000  0.66642300  1
  Mg  Mg6  1  0.00000000  0.76075600  0.58597700  1
  Mg  Mg7  1  0.00000000  0.23924400  0.58597700  1
  Mg  Mg8  1  0.00000000  0.00000000  0.33366600  1
  Mg  Mg9  1  0.50000000  0.75408700  0.41833300  1
  Mg  Mg10  1  0.50000000  0.24591300  0.41833300  1
  Mg  Mg11  1  0.50000000  0.00000000  0.16642300  1
  Sn  Sn0  1  0.00000000  0.50000000  0.32454700  1
  Sn  Sn1  1  0.00000000  0.00000000  0.82454700  1
  W  W0  1  0.50000000  0.50000000  0.16674400  1
  W  W1  1  0.50000000  0.00000000  0.66674400  1
loop_
_geom_bond_atom_site_label_1
_geom_bond_atom_site_label_2
_geom_bond_distance
_geom_bond_site_symmetry_2
Mg0 Sn0 2.934822 1_555
Mg0 Mg1 2.973673 1_555
Mg0 W0 3.020893 1_455
Mg0 W0 3.020893 1_555
Mg0 Mg3 3.056881 1_554
Mg0 Mg3 3.056881 1_454
Mg0 Mg2 3.061365 1_554
Mg0 Mg8 3.086651 1_555
Mg0 Mg11 3.087945 1_555
Mg0 Mg11 3.087945 1_455
Mg0 Sn1 3.211601 1_554
Mg0 Mg1 3.241056 1_545
Mg1 Sn0 2.934822 1_555
Mg1 W0 3.020893 1_455
Mg1 W0 3.020893 1_555
Mg1 Mg4 3.056881 1_554
Mg1 Mg4 3.056881 1_454
Mg1 Mg2 3.061365 1_554
Mg1 Mg8 3.086651 1_565
Mg1 Mg11 3.087945 1_565
Mg1 Mg11 3.087945 1_465
Mg1 Sn1 3.211601 1_564
Mg2 Mg4 3.053414 1_455
Mg2 Mg4 3.053414 1_555
Mg2 Mg3 3.053414 1_555
Mg2 Mg3 3.053414 1_455
Mg2 Mg5 3.054128 1_455
Mg2 Mg5 3.054128 1_555
Mg2 Mg6 3.086651 1_555
Mg2 Mg7 3.086651 1_555
Mg2 Sn1 3.108869 1_555
Mg2 Sn1 3.108869 1_565
Mg3 W0 3.045857 1_556
Mg3 W1 3.100620 1_555
Mg3 Sn1 3.108738 1_655
Mg3 Sn1 3.108738 1_555
Mg4 W0 3.045857 1_556
Mg4 W1 3.100620 1_565
Mg4 Sn1 3.108738 1_565
Mg4 Sn1 3.108738 1_665
Mg5 Mg6 3.087945 1_655
Mg5 Mg6 3.087945 1_555
Mg5 Mg7 3.087945 1_555
Mg5 Mg7 3.087945 1_655
Mg5 W1 3.107366 1_555
Mg5 W1 3.107366 1_565
Mg6 Sn1 2.934822 1_565
Mg6 Mg7 2.973673 1_565
Mg6 W1 3.020893 1_565
Mg6 W1 3.020893 1_465
Mg6 Mg9 3.056881 1_555
Mg6 Mg9 3.056881 1_455
Mg6 Mg8 3.061365 1_565
Mg6 Sn0 3.211601 1_555
Mg6 Mg7 3.241056 1_555
Mg7 Sn1 2.934822 1_555
Mg7 W1 3.020893 1_555
Mg7 W1 3.020893 1_455
Mg7 Mg8 3.061365 1_555
Mg7 Sn0 3.211601 1_555
Mg8 Mg9 3.053414 1_445
Mg8 Mg9 3.053414 1_545
Mg8 Sn0 3.108869 1_555
Mg8 Sn0 3.108869 1_545
Mg9 W1 3.045857 1_565
Mg9 W0 3.100620 1_555
Mg9 Sn0 3.108738 1_655
Mg9 Sn0 3.108738 1_555
Mg10 W1 3.045857 1_555
Mg10 Mg8 3.053414 1_655
Mg10 Mg8 3.053414 1_555
Mg10 Mg7 3.056881 1_555
Mg10 Mg7 3.056881 1_655
Mg10 W0 3.100620 1_555
Mg10 Sn0 3.108738 1_655
Mg10 Sn0 3.108738 1_555
Mg11 Mg8 3.054128 1_655
Mg11 Mg8 3.054128 1_555
Mg11 W0 3.107366 1_555
Mg11 W0 3.107366 1_545
Sn0 W0 2.997086 1_455
Sn0 W0 2.997086 1_555
Sn1 W1 2.997086 1_555
Sn1 W1 2.997086 1_455
