# generated using pymatgen
data_CdCO3
_symmetry_space_group_name_H-M   'P 1'
_cell_length_a   5.98767200
_cell_length_b   7.47577200
_cell_length_c   14.43415550
_cell_angle_alpha   60.63000805
_cell_angle_beta   90.00000000
_cell_angle_gamma   90.00000000
_symmetry_Int_Tables_number   1
_chemical_formula_structural   CdCO3
_chemical_formula_sum   'Cd8 C8 O24'
_cell_volume   563.06465678
_cell_formula_units_Z   8
loop_
 _symmetry_equiv_pos_site_id
 _symmetry_equiv_pos_as_xyz
  1  'x, y, z'
loop_
 _atom_site_type_symbol
 _atom_site_label
 _atom_site_symmetry_multiplicity
 _atom_site_fract_x
 _atom_site_fract_y
 _atom_site_fract_z
 _atom_site_occupancy
  Cd  Cd0  1  0.75599000  0.56315500  0.66250200  1
  Cd  Cd1  1  0.74401000  0.56315500  0.16250200  1
  Cd  Cd2  1  0.24401000  0.43684500  0.33749800  1
  Cd  Cd3  1  0.25599000  0.43684500  0.83749800  1
  Cd  Cd4  1  0.72972800  0.06810400  0.41150200  1
  Cd  Cd5  1  0.77027200  0.06810400  0.91150200  1
  Cd  Cd6  1  0.27027200  0.93189600  0.58849800  1
  Cd  Cd7  1  0.22972800  0.93189600  0.08849800  1
  C  C0  1  0.92655200  0.25584200  0.58217600  1
  C  C1  1  0.57344800  0.25584200  0.08217600  1
  C  C2  1  0.07344800  0.74415800  0.41782400  1
  C  C3  1  0.42655200  0.74415800  0.91782400  1
  C  C4  1  0.09396400  0.21286200  0.67687500  1
  C  C5  1  0.40603600  0.21286200  0.17687500  1
  C  C6  1  0.90603600  0.78713800  0.32312500  1
  C  C7  1  0.59396400  0.78713800  0.82312500  1
  O  O0  1  0.04282500  0.29768600  0.73167300  1
  O  O1  1  0.45717500  0.29768600  0.23167300  1
  O  O2  1  0.95717500  0.70231400  0.26832700  1
  O  O3  1  0.54282500  0.70231400  0.76832700  1
  O  O4  1  0.77480300  0.38466700  0.56234800  1
  O  O5  1  0.72519700  0.38466700  0.06234800  1
  O  O6  1  0.22519700  0.61533300  0.43765200  1
  O  O7  1  0.27480300  0.61533300  0.93765200  1
  O  O8  1  0.26055000  0.10172000  0.69022900  1
  O  O9  1  0.23945000  0.10172000  0.19022900  1
  O  O10  1  0.73945000  0.89828000  0.30977100  1
  O  O11  1  0.76055000  0.89828000  0.80977100  1
  O  O12  1  0.96495000  0.15797200  0.53237500  1
  O  O13  1  0.53505000  0.15797200  0.03237500  1
  O  O14  1  0.03505000  0.84202800  0.46762500  1
  O  O15  1  0.46495000  0.84202800  0.96762500  1
  O  O16  1  0.54169200  0.80288200  0.53651800  1
  O  O17  1  0.95830800  0.80288200  0.03651800  1
  O  O18  1  0.45830800  0.19711800  0.46348200  1
  O  O19  1  0.04169200  0.19711800  0.96348200  1
  O  O20  1  0.94219200  0.31356200  0.29467400  1
  O  O21  1  0.55780800  0.31356200  0.79467400  1
  O  O22  1  0.05780800  0.68643800  0.70532600  1
  O  O23  1  0.44219200  0.68643800  0.20532600  1
loop_
_geom_bond_atom_site_label_1
_geom_bond_atom_site_label_2
_geom_bond_distance
_geom_bond_site_symmetry_2
Cd0 O16 2.228988 1_555
Cd0 O21 2.244471 1_555
Cd0 O22 2.248605 1_655
Cd0 O4 2.403149 1_555
Cd0 O0 2.437529 1_655
Cd0 O3 2.569695 1_555
Cd1 O17 2.228988 1_555
Cd1 O20 2.244471 1_555
Cd1 O23 2.248605 1_555
Cd1 O5 2.403149 1_555
Cd1 O1 2.437529 1_555
Cd1 O2 2.569695 1_555
Cd2 O18 2.228988 1_555
Cd2 O23 2.244471 1_555
Cd2 O20 2.248605 1_455
Cd2 O6 2.403149 1_555
Cd2 O2 2.437529 1_455
Cd2 O1 2.569695 1_555
Cd3 O19 2.228988 1_555
Cd3 O22 2.244471 1_555
Cd3 O21 2.248605 1_555
Cd3 O7 2.403149 1_555
Cd3 O3 2.437529 1_555
Cd3 O0 2.569695 1_555
Cd4 O20 2.189518 1_555
Cd4 O18 2.200944 1_555
Cd4 O16 2.223876 1_545
Cd4 O14 2.347741 1_645
Cd4 O10 2.366432 1_545
Cd4 O12 2.574640 1_555
Cd5 O21 2.189518 1_555
Cd5 O19 2.200944 1_655
Cd5 O17 2.223876 1_546
Cd5 O15 2.347741 1_545
Cd5 O11 2.366432 1_545
Cd5 O13 2.574640 1_556
Cd6 O22 2.189518 1_555
Cd6 O16 2.200944 1_555
Cd6 O18 2.223876 1_565
Cd6 O12 2.347741 1_465
Cd6 O8 2.366432 1_565
Cd6 O14 2.574640 1_555
Cd7 O23 2.189518 1_555
Cd7 O17 2.200944 1_455
Cd7 O19 2.223876 1_564
Cd7 O13 2.347741 1_565
Cd7 O9 2.366432 1_565
Cd7 O15 2.574640 1_554
C0 O4 1.250856 1_555
C0 O12 1.273104 1_555
C1 O5 1.250856 1_555
C1 O13 1.273104 1_555
C2 O6 1.250856 1_555
C2 O14 1.273104 1_555
C3 O7 1.250856 1_555
C3 O15 1.273104 1_555
C4 O8 1.251135 1_555
C4 O0 1.270230 1_555
C5 O9 1.251135 1_555
C5 O1 1.270230 1_555
C6 O10 1.251135 1_555
C6 O2 1.270230 1_555
C7 O11 1.251135 1_555
C7 O3 1.270230 1_555
