# generated using pymatgen
data_K3SbSe3
_symmetry_space_group_name_H-M   'P 1'
_cell_length_a   9.83847406
_cell_length_b   9.83847406
_cell_length_c   9.83847406
_cell_angle_alpha   90.00000000
_cell_angle_beta   90.00000000
_cell_angle_gamma   90.00000000
_symmetry_Int_Tables_number   1
_chemical_formula_structural   K3SbSe3
_chemical_formula_sum   'K12 Sb4 Se12'
_cell_volume   952.32072257
_cell_formula_units_Z   4
loop_
 _symmetry_equiv_pos_site_id
 _symmetry_equiv_pos_as_xyz
  1  'x, y, z'
loop_
 _atom_site_type_symbol
 _atom_site_label
 _atom_site_symmetry_multiplicity
 _atom_site_fract_x
 _atom_site_fract_y
 _atom_site_fract_z
 _atom_site_occupancy
  K  K0  1  0.81825377  0.18174623  0.68174623  1
  K  K1  1  0.18711714  0.31288286  0.68711714  1
  K  K2  1  0.31288286  0.68711714  0.18711714  1
  K  K3  1  0.68711714  0.18711714  0.31288286  1
  K  K4  1  0.81288286  0.81288286  0.81288286  1
  K  K5  1  0.42222304  0.07777696  0.92222304  1
  K  K6  1  0.07777696  0.92222304  0.42222304  1
  K  K7  1  0.92222304  0.42222304  0.07777696  1
  K  K8  1  0.57777696  0.57777696  0.57777696  1
  K  K9  1  0.68174623  0.81825377  0.18174623  1
  K  K10  1  0.18174623  0.68174623  0.81825377  1
  K  K11  1  0.31825377  0.31825377  0.31825377  1
  Sb  Sb0  1  0.02888172  0.02888172  0.02888172  1
  Sb  Sb1  1  0.47111828  0.97111828  0.52888172  1
  Sb  Sb2  1  0.52888172  0.47111828  0.97111828  1
  Sb  Sb3  1  0.97111828  0.52888172  0.47111828  1
  Se  Se0  1  0.22124715  0.60290960  0.49724172  1
  Se  Se1  1  0.77875285  0.10290960  0.00275828  1
  Se  Se2  1  0.99724172  0.27875285  0.39709040  1
  Se  Se3  1  0.72124715  0.89709040  0.50275828  1
  Se  Se4  1  0.10290960  0.00275828  0.77875285  1
  Se  Se5  1  0.50275828  0.72124715  0.89709040  1
  Se  Se6  1  0.00275828  0.77875285  0.10290960  1
  Se  Se7  1  0.39709040  0.99724172  0.27875285  1
  Se  Se8  1  0.49724172  0.22124715  0.60290960  1
  Se  Se9  1  0.89709040  0.50275828  0.72124715  1
  Se  Se10  1  0.60290960  0.49724172  0.22124715  1
  Se  Se11  1  0.27875285  0.39709040  0.99724172  1
loop_
_geom_bond_atom_site_label_1
_geom_bond_atom_site_label_2
_geom_bond_distance
_geom_bond_site_symmetry_2
K0 Se9 3.275256 1_555
K0 Se1 3.275256 1_556
K0 Se8 3.275256 1_555
K0 Se4 3.443127 1_655
K0 Se3 3.443127 1_545
K0 Se2 3.443127 1_555
K1 Se11 3.287659 1_555
K1 Se8 3.287659 1_555
K1 Se4 3.287659 1_555
K1 Se0 3.427025 1_555
K1 Se9 3.427025 1_455
K1 Se2 3.427025 1_455
K2 Se7 3.287659 1_555
K2 Se0 3.287659 1_555
K2 Se6 3.287659 1_555
K2 Se10 3.427025 1_555
K2 Se5 3.427025 1_554
K2 Se11 3.427025 1_554
K3 Se2 3.287659 1_555
K3 Se10 3.287659 1_555
K3 Se1 3.287659 1_555
K3 Se8 3.427025 1_555
K3 Se3 3.427025 1_545
K3 Se7 3.427025 1_545
K4 Se5 3.287659 1_555
K4 Se9 3.287659 1_555
K4 Se3 3.287659 1_555
K4 Se1 3.427025 1_566
K4 Se6 3.427025 1_656
K4 Se4 3.427025 1_665
K5 Se11 3.522291 1_555
K5 Se4 3.522291 1_555
K5 Se8 3.522291 1_555
K5 Se1 3.604577 1_556
K5 Se5 3.604577 1_545
K5 Se7 3.604577 1_546
K6 Se7 3.522291 1_555
K6 Se0 3.522291 1_555
K6 Se6 3.522291 1_555
K6 Se3 3.604577 1_455
K6 Se4 3.604577 1_565
K6 Se2 3.604577 1_465
K7 Se2 3.522291 1_555
K7 Se10 3.522291 1_555
K7 Se1 3.522291 1_555
K7 Se6 3.604577 1_655
K7 Se9 3.604577 1_554
K7 Se11 3.604577 1_654
K8 Se5 3.522291 1_555
K8 Se9 3.522291 1_555
K8 Se3 3.522291 1_555
K8 Se10 3.604577 1_555
K8 Se8 3.604577 1_555
K8 Se0 3.604577 1_555
K9 Se3 3.275256 1_555
K9 Se6 3.275256 1_655
K9 Se10 3.275256 1_555
K9 Se1 3.443127 1_565
K9 Se5 3.443127 1_554
K9 Se7 3.443127 1_555
K10 Se5 3.275256 1_555
K10 Se4 3.275256 1_565
K10 Se0 3.275256 1_555
K10 Se6 3.443127 1_556
K10 Se9 3.443127 1_455
K10 Se11 3.443127 1_555
K11 Se2 3.275256 1_455
K11 Se11 3.275256 1_554
K11 Se7 3.275256 1_545
K11 Se8 3.443127 1_555
K11 Se0 3.443127 1_555
K11 Se10 3.443127 1_555
Sb0 Se1 2.579238 1_455
Sb0 Se4 2.579238 1_554
Sb0 Se6 2.579238 1_545
Sb1 Se8 2.579238 1_565
Sb1 Se3 2.579238 1_555
Sb1 Se7 2.579238 1_555
Sb2 Se10 2.579238 1_556
Sb2 Se5 2.579238 1_555
Sb2 Se11 2.579238 1_555
Sb3 Se0 2.579238 1_655
Sb3 Se9 2.579238 1_555
Sb3 Se2 2.579238 1_555
