# generated using pymatgen
data_Ta2Ni
_symmetry_space_group_name_H-M   'P 1'
_cell_length_a   4.89585988
_cell_length_b   4.89585988
_cell_length_c   9.39288100
_cell_angle_alpha   90.00000000
_cell_angle_beta   90.00000000
_cell_angle_gamma   119.99999844
_symmetry_Int_Tables_number   1
_chemical_formula_structural   Ta2Ni
_chemical_formula_sum   'Ta8 Ni4'
_cell_volume   194.97881162
_cell_formula_units_Z   4
loop_
 _symmetry_equiv_pos_site_id
 _symmetry_equiv_pos_as_xyz
  1  'x, y, z'
loop_
 _atom_site_type_symbol
 _atom_site_label
 _atom_site_symmetry_multiplicity
 _atom_site_fract_x
 _atom_site_fract_y
 _atom_site_fract_z
 _atom_site_occupancy
  Ta  Ta0  1  0.00000000  0.00000000  0.50000000  1
  Ta  Ta1  1  0.00000000  0.00000000  0.00000000  1
  Ta  Ta2  1  0.65556100  0.65556100  0.75000000  1
  Ta  Ta3  1  0.34443900  0.00000000  0.75000000  1
  Ta  Ta4  1  0.00000000  0.34443900  0.75000000  1
  Ta  Ta5  1  0.34443900  0.34443900  0.25000000  1
  Ta  Ta6  1  0.65556100  0.00000000  0.25000000  1
  Ta  Ta7  1  0.00000000  0.65556100  0.25000000  1
  Ni  Ni0  1  0.66666700  0.33333300  0.50000000  1
  Ni  Ni1  1  0.66666700  0.33333300  0.00000000  1
  Ni  Ni2  1  0.33333300  0.66666700  0.50000000  1
  Ni  Ni3  1  0.33333300  0.66666700  0.00000000  1
loop_
_geom_bond_atom_site_label_1
_geom_bond_atom_site_label_2
_geom_bond_distance
_geom_bond_site_symmetry_2
Ta0 Ta6 2.890991 1_455
Ta0 Ta3 2.890991 1_555
Ta0 Ta7 2.890991 1_545
Ta0 Ta4 2.890991 1_555
Ta0 Ta2 2.890991 1_445
Ta0 Ta5 2.890991 1_555
Ta1 Ta3 2.890991 1_554
Ta1 Ta6 2.890991 1_455
Ta1 Ta4 2.890991 1_554
Ta1 Ta7 2.890991 1_545
Ta1 Ta2 2.890991 1_444
Ta1 Ta5 2.890991 1_555
Ta2 Ta4 2.780735 1_655
Ta2 Ta3 2.780735 1_565
Ta2 Ta3 2.780735 1_555
Ta2 Ta4 2.780735 1_555
Ta2 Ta4 2.920801 1_665
Ta2 Ta3 2.920801 1_665
Ta3 Ta4 2.780735 1_545
Ta3 Ta4 2.780735 1_655
Ta3 Ta4 2.920801 1_555
Ta5 Ta6 2.780735 1_555
Ta5 Ta7 2.780735 1_555
Ta5 Ta6 2.780735 1_565
Ta5 Ta7 2.780735 1_655
Ta5 Ta6 2.920801 1_455
Ta5 Ta7 2.920801 1_545
Ta6 Ta7 2.780735 1_545
Ta6 Ta7 2.780735 1_655
Ta6 Ta7 2.920801 1_645
Ni0 Ta0 2.826623 1_655
Ni0 Ni2 2.826623 1_545
Ni0 Ni2 2.826623 1_655
Ni0 Ta0 2.826627 1_665
Ni0 Ta0 2.826627 1_555
Ni0 Ni2 2.826632 1_555
Ni0 Ta4 2.844578 1_655
Ni0 Ta6 2.844578 1_555
Ni0 Ta7 2.844580 1_655
Ni0 Ta3 2.844580 1_555
Ni0 Ta5 2.844581 1_555
Ni0 Ta2 2.844581 1_555
Ni1 Ta1 2.826623 1_655
Ni1 Ni3 2.826623 1_545
Ni1 Ni3 2.826623 1_655
Ni1 Ta1 2.826627 1_665
Ni1 Ta1 2.826627 1_555
Ni1 Ni3 2.826632 1_555
Ni1 Ta4 2.844578 1_654
Ni1 Ta6 2.844578 1_555
Ni1 Ta7 2.844580 1_655
Ni1 Ta3 2.844580 1_554
Ni1 Ta5 2.844581 1_555
Ni1 Ta2 2.844581 1_554
Ni2 Ta0 2.826623 1_565
Ni2 Ta0 2.826627 1_555
Ni2 Ta0 2.826627 1_665
Ni2 Ta7 2.844578 1_555
Ni2 Ta3 2.844578 1_565
Ni2 Ta6 2.844580 1_565
Ni2 Ta4 2.844580 1_555
Ni2 Ta5 2.844581 1_555
Ni2 Ta2 2.844581 1_555
Ni3 Ta1 2.826623 1_565
Ni3 Ta1 2.826627 1_555
Ni3 Ta1 2.826627 1_665
Ni3 Ta7 2.844578 1_555
Ni3 Ta3 2.844578 1_564
Ni3 Ta6 2.844580 1_565
Ni3 Ta4 2.844580 1_554
Ni3 Ta5 2.844581 1_555
Ni3 Ta2 2.844581 1_554
