# generated using pymatgen
data_Ho5Mg24
_symmetry_space_group_name_H-M   'P 1'
_cell_length_a   9.69280905
_cell_length_b   9.69280787
_cell_length_c   9.69280787
_cell_angle_alpha   109.47128946
_cell_angle_beta   109.47130177
_cell_angle_gamma   109.47130177
_symmetry_Int_Tables_number   1
_chemical_formula_structural   Ho5Mg24
_chemical_formula_sum   'Ho5 Mg24'
_cell_volume   701.01245843
_cell_formula_units_Z   1
loop_
 _symmetry_equiv_pos_site_id
 _symmetry_equiv_pos_as_xyz
  1  'x, y, z'
loop_
 _atom_site_type_symbol
 _atom_site_label
 _atom_site_symmetry_multiplicity
 _atom_site_fract_x
 _atom_site_fract_y
 _atom_site_fract_z
 _atom_site_occupancy
  Ho  Ho0  1  0.00000000  -0.00000000  -0.00000000  1
  Ho  Ho1  1  0.62873584  -0.00000000  -0.00000000  1
  Ho  Ho2  1  -0.00000000  0.62873584  -0.00000000  1
  Ho  Ho3  1  -0.00000000  -0.00000000  0.62873484  1
  Ho  Ho4  1  0.37126416  0.37126416  0.37126416  1
  Mg  Mg0  1  0.39197607  0.67811411  -0.00000000  1
  Mg  Mg1  1  0.71386196  0.32188589  0.32188589  1
  Mg  Mg2  1  0.39197607  -0.00000000  0.67811411  1
  Mg  Mg3  1  0.67811411  0.39197607  -0.00000000  1
  Mg  Mg4  1  -0.00000000  0.39197607  0.67811411  1
  Mg  Mg5  1  0.32188589  0.71386196  0.32188589  1
  Mg  Mg6  1  0.32188589  0.32188589  0.71386196  1
  Mg  Mg7  1  -0.00000000  0.67811411  0.39197607  1
  Mg  Mg8  1  0.67811411  -0.00000000  0.39197607  1
  Mg  Mg9  1  0.60802393  0.60802393  0.28613804  1
  Mg  Mg10  1  0.28613804  0.60802393  0.60802393  1
  Mg  Mg11  1  0.60802393  0.28613804  0.60802393  1
  Mg  Mg12  1  0.37207393  0.19113749  0.00000000  1
  Mg  Mg13  1  0.18093644  0.80886251  0.80886251  1
  Mg  Mg14  1  0.37207493  0.00000000  0.19113749  1
  Mg  Mg15  1  0.19113749  0.37207393  0.00000000  1
  Mg  Mg16  1  0.00000000  0.37207493  0.19113749  1
  Mg  Mg17  1  0.80886251  0.18093644  0.80886251  1
  Mg  Mg18  1  0.80886251  0.80886251  0.18093644  1
  Mg  Mg19  1  0.00000000  0.19113749  0.37207493  1
  Mg  Mg20  1  0.19113749  0.00000000  0.37207493  1
  Mg  Mg21  1  0.62792507  0.62792507  0.81906356  1
  Mg  Mg22  1  0.81906356  0.62792507  0.62792507  1
  Mg  Mg23  1  0.62792507  0.81906256  0.62792507  1
loop_
_geom_bond_atom_site_label_1
_geom_bond_atom_site_label_2
_geom_bond_distance
_geom_bond_site_symmetry_2
Ho0 Mg15 3.461850 1_555
Ho0 Mg12 3.461851 1_555
Ho0 Mg23 3.461852 1_444
Ho0 Mg21 3.461854 1_444
Ho0 Mg22 3.461854 1_444
Ho0 Mg17 3.461854 1_454
Ho0 Mg18 3.461854 1_445
Ho0 Mg13 3.461855 1_544
Ho0 Mg20 3.461859 1_555
Ho0 Mg14 3.461859 1_555
Ho0 Mg16 3.461859 1_555
Ho0 Mg19 3.461859 1_555
Ho0 Ho4 3.598579 1_555
Ho0 Ho2 3.598592 1_545
Ho0 Ho1 3.598593 1_455
Ho0 Ho3 3.598602 1_554
Ho1 Mg1 3.198023 1_555
Ho1 Mg0 3.198026 1_545
Ho1 Mg2 3.198026 1_554
Ho1 Mg19 3.440573 1_655
Ho1 Mg16 3.440573 1_655
Ho1 Mg18 3.440579 1_545
Ho1 Mg17 3.440579 1_554
Ho1 Mg21 3.440579 1_544
Ho1 Mg23 3.440581 1_544
Ho1 Mg13 3.562862 1_544
Ho1 Mg14 3.562862 1_555
Ho1 Mg12 3.562871 1_555
Ho1 Mg10 3.667662 1_544
Ho1 Mg8 3.667674 1_555
Ho1 Mg3 3.667674 1_555
Ho2 Mg5 3.198023 1_555
Ho2 Mg3 3.198026 1_455
Ho2 Mg4 3.198026 1_554
Ho2 Mg14 3.440573 1_565
Ho2 Mg20 3.440573 1_565
Ho2 Mg22 3.440579 1_454
Ho2 Mg13 3.440579 1_554
Ho2 Mg21 3.440579 1_454
Ho2 Mg18 3.440579 1_455
Ho2 Mg16 3.562862 1_555
Ho2 Mg17 3.562862 1_454
Ho2 Mg15 3.562871 1_555
Ho2 Mg11 3.667662 1_454
Ho2 Mg7 3.667675 1_555
Ho2 Mg0 3.667675 1_555
Ho3 Mg6 3.198019 1_555
Ho3 Mg8 3.198022 1_455
Ho3 Mg7 3.198022 1_545
Ho3 Mg12 3.440573 1_556
Ho3 Mg15 3.440573 1_556
Ho3 Mg22 3.440584 1_445
Ho3 Mg13 3.440584 1_545
Ho3 Mg17 3.440584 1_455
Ho3 Mg23 3.440586 1_445
Ho3 Mg19 3.562853 1_555
Ho3 Mg18 3.562853 1_445
Ho3 Mg20 3.562854 1_555
Ho3 Mg9 3.667660 1_445
Ho3 Mg4 3.667673 1_555
Ho3 Mg2 3.667673 1_555
Ho4 Mg9 3.198028 1_555
Ho4 Mg11 3.198028 1_555
Ho4 Mg10 3.198029 1_555
Ho4 Mg15 3.440575 1_555
Ho4 Mg12 3.440576 1_555
Ho4 Mg20 3.440580 1_555
Ho4 Mg14 3.440581 1_555
Ho4 Mg16 3.440581 1_555
Ho4 Mg19 3.440581 1_555
Ho4 Mg23 3.562850 1_555
Ho4 Mg21 3.562858 1_555
Ho4 Mg22 3.562858 1_555
Ho4 Mg6 3.667676 1_555
Ho4 Mg5 3.667676 1_555
Ho4 Mg1 3.667677 1_555
Mg0 Mg15 2.956229 1_555
Mg0 Mg14 3.160661 1_565
Mg0 Mg13 3.160669 1_554
Mg0 Mg6 3.297214 1_554
Mg0 Mg9 3.297218 1_555
Mg0 Mg8 3.341421 1_565
Mg0 Mg4 3.341421 1_554
Mg0 Mg10 3.341430 1_554
Mg0 Mg5 3.341433 1_555
Mg0 Mg18 3.374863 1_555
Mg0 Mg21 3.374864 1_554
Mg1 Mg22 2.956214 1_555
Mg1 Mg14 3.160655 1_555
Mg1 Mg12 3.160661 1_555
Mg1 Mg7 3.297214 1_655
Mg1 Mg4 3.297214 1_655
Mg1 Mg8 3.341433 1_555
Mg1 Mg3 3.341433 1_555
Mg1 Mg11 3.341434 1_555
Mg1 Mg9 3.341434 1_555
Mg1 Mg19 3.374870 1_655
Mg1 Mg16 3.374870 1_655
Mg2 Mg20 2.956221 1_555
Mg2 Mg5 3.297214 1_545
Mg2 Mg3 3.341421 1_556
Mg2 Mg7 3.341421 1_545
Mg2 Mg6 3.341433 1_555
Mg2 Mg23 3.374870 1_545
Mg3 Mg6 3.297214 1_554
Mg3 Mg9 3.297219 1_555
Mg3 Mg7 3.341421 1_655
Mg4 Mg8 3.341421 1_455
Mg4 Mg6 3.341434 1_555
Mg5 Mg8 3.297214 1_565
Mg5 Mg7 3.341434 1_555
Mg5 Mg9 3.341435 1_555
Mg7 Mg9 3.341430 1_455
Mg8 Mg9 3.341430 1_545
Mg10 Mg13 2.956232 1_555
Mg10 Mg23 3.160660 1_555
Mg10 Mg21 3.160662 1_555
Mg10 Mg4 3.297218 1_555
Mg10 Mg7 3.297218 1_555
Mg10 Mg2 3.341430 1_565
Mg10 Mg5 3.341434 1_555
Mg10 Mg6 3.341434 1_555
Mg10 Mg19 3.374858 1_555
Mg10 Mg16 3.374858 1_555
Mg11 Mg17 2.956231 1_555
Mg11 Mg22 3.160662 1_555
Mg11 Mg21 3.160663 1_555
Mg11 Mg2 3.297218 1_555
Mg11 Mg8 3.297219 1_555
Mg11 Mg3 3.341430 1_556
Mg11 Mg4 3.341430 1_655
Mg11 Mg6 3.341435 1_555
Mg11 Mg14 3.374858 1_555
Mg11 Mg20 3.374858 1_555
Mg12 Mg15 2.863916 1_555
Mg12 Mg3 2.956229 1_555
Mg12 Mg13 3.025372 1_544
Mg12 Mg14 3.025381 1_555
Mg12 Mg2 3.160667 1_554
Mg12 Mg9 3.374858 1_555
Mg12 Mg6 3.374869 1_554
Mg13 Mg22 2.863908 1_455
Mg13 Mg14 3.025372 1_566
Mg13 Mg2 3.160669 1_565
Mg13 Mg7 3.374863 1_555
Mg13 Mg4 3.374863 1_555
Mg14 Mg20 2.863932 1_555
Mg14 Mg8 2.956221 1_555
Mg14 Mg5 3.374869 1_545
Mg15 Mg17 3.025372 1_454
Mg15 Mg16 3.025381 1_555
Mg15 Mg5 3.160661 1_555
Mg15 Mg4 3.160666 1_554
Mg15 Mg9 3.374859 1_555
Mg15 Mg6 3.374870 1_554
Mg16 Mg19 2.863931 1_555
Mg16 Mg7 2.956222 1_555
Mg16 Mg17 3.025372 1_454
Mg16 Mg5 3.160655 1_555
Mg16 Mg3 3.160661 1_455
Mg17 Mg23 2.863915 1_545
Mg17 Mg4 3.160669 1_655
Mg17 Mg3 3.160669 1_556
Mg17 Mg8 3.374863 1_555
Mg17 Mg2 3.374863 1_555
Mg18 Mg21 2.863908 1_554
Mg18 Mg9 2.956231 1_555
Mg18 Mg19 3.025372 1_665
Mg18 Mg20 3.025372 1_665
Mg18 Mg7 3.160669 1_655
Mg18 Mg8 3.160669 1_565
Mg18 Mg3 3.374863 1_555
Mg19 Mg4 2.956222 1_555
Mg19 Mg20 3.025381 1_555
Mg19 Mg6 3.160655 1_555
Mg19 Mg8 3.160661 1_455
Mg20 Mg6 3.160656 1_555
Mg20 Mg7 3.160661 1_545
Mg20 Mg5 3.374870 1_545
Mg21 Mg6 2.956214 1_555
Mg21 Mg23 3.025389 1_555
Mg21 Mg22 3.025397 1_555
Mg21 Mg3 3.374863 1_556
Mg22 Mg23 3.025389 1_555
Mg22 Mg9 3.160662 1_555
Mg22 Mg4 3.374863 1_655
Mg22 Mg7 3.374863 1_655
Mg23 Mg5 2.956217 1_555
Mg23 Mg9 3.160660 1_555
Mg23 Mg8 3.374870 1_565
