# generated using pymatgen
data_ZrO3F5
_symmetry_space_group_name_H-M   'P 1'
_cell_length_a   16.97047429
_cell_length_b   16.53675226
_cell_length_c   6.08330734
_cell_angle_alpha   83.58662603
_cell_angle_beta   75.54508631
_cell_angle_gamma   20.86828766
_symmetry_Int_Tables_number   1
_chemical_formula_structural   ZrO3F5
_chemical_formula_sum   'Zr4 O12 F20'
_cell_volume   551.12122003
_cell_formula_units_Z   4
loop_
 _symmetry_equiv_pos_site_id
 _symmetry_equiv_pos_as_xyz
  1  'x, y, z'
loop_
 _atom_site_type_symbol
 _atom_site_label
 _atom_site_symmetry_multiplicity
 _atom_site_fract_x
 _atom_site_fract_y
 _atom_site_fract_z
 _atom_site_occupancy
  Zr  Zr0  1  0.81349400  0.18363500  0.81572000  1
  Zr  Zr1  1  0.18715000  0.81572000  0.18363500  1
  Zr  Zr2  1  0.06636500  0.43650600  0.06285000  1
  Zr  Zr3  1  0.43428000  0.06285000  0.43650600  1
  O  O0  1  0.30830300  0.54173100  0.72359200  1
  O  O1  1  0.42637400  0.72359200  0.54173100  1
  O  O2  1  0.05075900  0.73850200  0.10021900  1
  O  O3  1  0.11051900  0.10021900  0.73850200  1
  O  O4  1  0.15686700  0.63332500  0.86497900  1
  O  O5  1  0.34482900  0.86497900  0.63332500  1
  O  O6  1  0.70826900  0.94169700  0.82362600  1
  O  O7  1  0.52640800  0.82362600  0.94169700  1
  O  O8  1  0.51149800  0.19924100  0.13948100  1
  O  O9  1  0.14978100  0.13948100  0.19924100  1
  O  O10  1  0.61667500  0.09313300  0.90517100  1
  O  O11  1  0.38502100  0.90517100  0.09313300  1
  F  F0  1  0.16273600  0.82377100  0.55611600  1
  F  F1  1  0.45737600  0.55611600  0.82377100  1
  F  F2  1  0.69982500  0.17997100  0.81345600  1
  F  F3  1  0.30674900  0.81345600  0.17997100  1
  F  F4  1  0.86175400  0.26538200  0.67200800  1
  F  F5  1  0.20085700  0.67200800  0.26538200  1
  F  F6  1  0.96526400  0.96311600  0.03736900  1
  F  F7  1  0.03425100  0.03736900  0.96311600  1
  F  F8  1  0.83745800  0.16860700  0.44109600  1
  F  F9  1  0.55284000  0.44109600  0.16860700  1
  F  F10  1  0.42622900  0.08726400  0.79262400  1
  F  F11  1  0.69388400  0.79262400  0.08726400  1
  F  F12  1  0.98461800  0.38824600  0.04914300  1
  F  F13  1  0.57799200  0.04914300  0.38824600  1
  F  F14  1  0.28688400  0.28473600  0.21574900  1
  F  F15  1  0.21263100  0.21574900  0.28473600  1
  F  F16  1  0.07002900  0.55017500  0.94325100  1
  F  F17  1  0.43654400  0.94325100  0.55017500  1
  F  F18  1  0.08139300  0.41254200  0.69716000  1
  F  F19  1  0.80890400  0.69716000  0.41254200  1
loop_
_geom_bond_atom_site_label_1
_geom_bond_atom_site_label_2
_geom_bond_distance
_geom_bond_site_symmetry_2
O0 O4 1.245631 1_555
O1 O5 1.245631 1_555
O2 O4 1.316098 1_554
O3 O5 1.316100 1_545
O10 O6 1.245631 1_545
O10 O8 1.316103 1_556
O11 O7 1.245631 1_554
O11 O9 1.316101 1_565
F0 Zr0 2.132768 1_465
F0 Zr1 2.195310 1_555
F1 Zr1 2.132768 1_556
F1 Zr0 2.195310 1_555
F2 Zr0 1.989182 1_555
F3 Zr1 1.989216 1_555
F4 Zr0 2.170266 1_555
F5 Zr1 2.170237 1_555
F6 Zr0 2.198360 1_564
F6 Zr1 2.224359 1_655
F7 Zr1 2.198364 1_546
F7 Zr0 2.224372 1_455
F8 Zr1 2.099503 1_645
F8 Zr0 2.212630 1_555
F9 Zr0 2.099504 1_554
F9 Zr1 2.212636 1_555
F10 Zr2 2.132768 1_556
F10 Zr3 2.195310 1_555
F11 Zr3 2.132768 1_565
F11 Zr2 2.195310 1_655
F12 Zr2 2.170269 1_655
F13 Zr3 2.170235 1_555
F14 Zr2 2.198356 1_555
F14 Zr3 2.224363 1_555
F15 Zr3 2.198368 1_555
F15 Zr2 2.224368 1_555
F16 Zr2 1.989185 1_556
F17 Zr3 1.989213 1_565
F18 Zr3 2.099499 1_555
F18 Zr2 2.212642 1_556
F19 Zr2 2.099496 1_655
F19 Zr3 2.212632 1_565
