# generated using pymatgen
data_PdN
_symmetry_space_group_name_H-M   'P 1'
_cell_length_a   3.23608181
_cell_length_b   3.23608181
_cell_length_c   5.85907600
_cell_angle_alpha   90.00000000
_cell_angle_beta   90.00000000
_cell_angle_gamma   119.99999609
_symmetry_Int_Tables_number   1
_chemical_formula_structural   PdN
_chemical_formula_sum   'Pd2 N2'
_cell_volume   53.13721204
_cell_formula_units_Z   2
loop_
 _symmetry_equiv_pos_site_id
 _symmetry_equiv_pos_as_xyz
  1  'x, y, z'
loop_
 _atom_site_type_symbol
 _atom_site_label
 _atom_site_symmetry_multiplicity
 _atom_site_fract_x
 _atom_site_fract_y
 _atom_site_fract_z
 _atom_site_occupancy
  Pd  Pd0  1  0.33333300  0.66666700  0.49406200  1
  Pd  Pd1  1  0.66666700  0.33333300  0.99406200  1
  N  N0  1  0.33333300  0.66666700  0.13393800  1
  N  N1  1  0.66666700  0.33333300  0.63393800  1
loop_
_geom_bond_atom_site_label_1
_geom_bond_atom_site_label_2
_geom_bond_distance
_geom_bond_site_symmetry_2
N0 Pd1 2.040193 1_454
N0 Pd1 2.040193 1_564
N0 Pd1 2.040198 1_554
N0 Pd0 2.109994 1_555
N1 Pd0 2.040193 1_545
N1 Pd0 2.040193 1_655
N1 Pd0 2.040198 1_555
N1 Pd1 2.109994 1_555
