# generated using pymatgen
data_La7SmV7CrO20
_symmetry_space_group_name_H-M   'P 1'
_cell_length_a   11.04444958
_cell_length_b   11.50713253
_cell_length_c   17.95422213
_cell_angle_alpha   108.25865357
_cell_angle_beta   108.01311626
_cell_angle_gamma   90.21186440
_symmetry_Int_Tables_number   1
_chemical_formula_structural   La7SmV7CrO20
_chemical_formula_sum   'La28 Sm4 V28 Cr4 O80'
_cell_volume   2047.88602971
_cell_formula_units_Z   4
loop_
 _symmetry_equiv_pos_site_id
 _symmetry_equiv_pos_as_xyz
  1  'x, y, z'
loop_
 _atom_site_type_symbol
 _atom_site_label
 _atom_site_symmetry_multiplicity
 _atom_site_fract_x
 _atom_site_fract_y
 _atom_site_fract_z
 _atom_site_occupancy
  La  La0  1  0.30529379  0.06187250  0.11557518  1
  La  La1  1  0.30899769  0.06314033  0.61875401  1
  La  La2  1  0.31229942  0.56714397  0.62111458  1
  La  La3  1  0.81347266  0.05903957  0.61322047  1
  La  La4  1  0.80916929  0.56203519  0.11763588  1
  La  La5  1  0.81175180  0.56854369  0.61882648  1
  La  La6  1  0.19857289  0.43801792  0.38948168  1
  La  La7  1  0.19934410  0.44360994  0.89117784  1
  La  La8  1  0.19741766  0.93761443  0.38667568  1
  La  La9  1  0.19485276  0.93523123  0.88086825  1
  La  La10  1  0.69815255  0.43777928  0.38917071  1
  La  La11  1  0.69250321  0.93531123  0.38492070  1
  La  La12  1  0.69117694  0.93454391  0.87908722  1
  La  La13  1  0.05996791  0.30549758  0.11327704  1
  La  La14  1  0.06081778  0.30709220  0.61411789  1
  La  La15  1  0.06113471  0.80439225  0.61866086  1
  La  La16  1  0.55486248  0.30675918  0.10957240  1
  La  La17  1  0.55739121  0.30893344  0.61477305  1
  La  La18  1  0.55198677  0.80068527  0.11217422  1
  La  La19  1  0.55966910  0.80326724  0.61843615  1
  La  La20  1  0.44387536  0.19414379  0.38283795  1
  La  La21  1  0.44455665  0.19612086  0.88472305  1
  La  La22  1  0.44249027  0.69445311  0.38147768  1
  La  La23  1  0.44009445  0.69012354  0.88103945  1
  La  La24  1  0.94728030  0.19268620  0.38427612  1
  La  La25  1  0.94974193  0.19341291  0.88770019  1
  La  La26  1  0.94681229  0.69735868  0.38339829  1
  La  La27  1  0.94601010  0.69418143  0.88066577  1
  Sm  Sm0  1  0.31027873  0.56465201  0.11335831  1
  Sm  Sm1  1  0.81148518  0.06274070  0.10685320  1
  Sm  Sm2  1  0.69740281  0.44163124  0.89450765  1
  Sm  Sm3  1  0.05993156  0.79809954  0.10878202  1
  V  V0  1  0.00424659  0.99914817  0.49838767  1
  V  V1  1  0.00333217  0.49879291  0.49759081  1
  V  V2  1  0.50525798  0.00156153  0.50156913  1
  V  V3  1  0.50868871  0.50152449  0.99978412  1
  V  V4  1  0.50454189  0.49998443  0.49921779  1
  V  V5  1  0.25483866  0.24993246  0.00198798  1
  V  V6  1  0.25480136  0.24989417  0.49981808  1
  V  V7  1  0.25565170  0.75434629  0.00169256  1
  V  V8  1  0.25377380  0.75003873  0.49889203  1
  V  V9  1  0.75957801  0.24909587  0.00057084  1
  V  V10  1  0.75543174  0.24935387  0.50019481  1
  V  V11  1  0.75348764  0.74916164  0.49890978  1
  V  V12  1  0.11379392  0.10814832  0.24766141  1
  V  V13  1  0.12130194  0.11891365  0.75091231  1
  V  V14  1  0.12557843  0.61021075  0.24651709  1
  V  V15  1  0.11479295  0.62004762  0.74931290  1
  V  V16  1  0.61537442  0.10273850  0.24552464  1
  V  V17  1  0.61544279  0.11197437  0.75200893  1
  V  V18  1  0.61516020  0.62147799  0.24897295  1
  V  V19  1  0.61754257  0.61864376  0.75415916  1
  V  V20  1  0.35489378  0.38982650  0.24882677  1
  V  V21  1  0.35561727  0.38252633  0.75228708  1
  V  V22  1  0.34949836  0.88235470  0.25003050  1
  V  V23  1  0.36811748  0.87793491  0.75285967  1
  V  V24  1  0.85695669  0.39483448  0.24833809  1
  V  V25  1  0.85587939  0.39204537  0.75204112  1
  V  V26  1  0.85590916  0.88944356  0.24495405  1
  V  V27  1  0.87029905  0.88293844  0.75231336  1
  Cr  Cr0  1  0.00415312  0.99740849  0.00115493  1
  Cr  Cr1  1  0.00491097  0.50218231  0.00024695  1
  Cr  Cr2  1  0.50970569  0.00073308  0.00203824  1
  Cr  Cr3  1  0.75945914  0.75271023  0.00205455  1
  O  O0  1  0.11622963  0.11082907  0.47699577  1
  O  O1  1  0.11422343  0.10821454  0.97706295  1
  O  O2  1  0.11333462  0.60798398  0.47207109  1
  O  O3  1  0.11461278  0.61325476  0.97722455  1
  O  O4  1  0.61577930  0.10978140  0.47554861  1
  O  O5  1  0.61723354  0.10866837  0.97410064  1
  O  O6  1  0.61533987  0.60970548  0.47568514  1
  O  O7  1  0.62336065  0.62249328  0.97814481  1
  O  O8  1  0.14071497  0.39377358  0.02624537  1
  O  O9  1  0.13895180  0.38930235  0.52210560  1
  O  O10  1  0.13918340  0.89072789  0.03093525  1
  O  O11  1  0.13912649  0.89031008  0.52337512  1
  O  O12  1  0.64473751  0.38545734  0.02649318  1
  O  O13  1  0.63946690  0.38912451  0.52317639  1
  O  O14  1  0.64867605  0.88913913  0.02813935  1
  O  O15  1  0.63934049  0.89045939  0.52407096  1
  O  O16  1  0.36882319  0.10906017  0.47538422  1
  O  O17  1  0.37218849  0.10878234  0.97775788  1
  O  O18  1  0.36818936  0.60829511  0.47358684  1
  O  O19  1  0.36666434  0.61258857  0.97528192  1
  O  O20  1  0.86655456  0.10585771  0.47401104  1
  O  O21  1  0.86529218  0.10081305  0.97681090  1
  O  O22  1  0.86727825  0.60723121  0.47291514  1
  O  O23  1  0.86751953  0.61267737  0.97637790  1
  O  O24  1  0.38627781  0.39525609  0.02492680  1
  O  O25  1  0.38925574  0.39235055  0.52094388  1
  O  O26  1  0.39686429  0.89910656  0.03057608  1
  O  O27  1  0.39169231  0.89501123  0.52574198  1
  O  O28  1  0.89021963  0.39805747  0.02414100  1
  O  O29  1  0.89053050  0.39244798  0.52264780  1
  O  O30  1  0.89566932  0.88898051  0.02940952  1
  O  O31  1  0.88965387  0.89009791  0.51959346  1
  O  O32  1  0.06537013  0.10533513  0.12470069  1
  O  O33  1  0.06632709  0.10694332  0.62564110  1
  O  O34  1  0.07923867  0.60583242  0.12442471  1
  O  O35  1  0.07025198  0.60285486  0.62388848  1
  O  O36  1  0.59378284  0.10844021  0.12870142  1
  O  O37  1  0.57735610  0.11242347  0.63077620  1
  O  O38  1  0.56949101  0.60330257  0.13010107  1
  O  O39  1  0.57165838  0.60145565  0.62758831  1
  O  O40  1  0.44727575  0.39363828  0.36985098  1
  O  O41  1  0.46843941  0.39609991  0.87019377  1
  O  O42  1  0.44498967  0.89549216  0.37255693  1
  O  O43  1  0.44735332  0.89498787  0.87898656  1
  O  O44  1  0.94213655  0.38922038  0.36727770  1
  O  O45  1  0.94803747  0.39514269  0.87362900  1
  O  O46  1  0.94928576  0.89668750  0.36763140  1
  O  O47  1  0.94715092  0.89657083  0.87784204  1
  O  O48  1  0.33213765  0.27480009  0.13188293  1
  O  O49  1  0.33290995  0.27559593  0.63024287  1
  O  O50  1  0.32764408  0.77267202  0.13047456  1
  O  O51  1  0.32454766  0.77350552  0.62771608  1
  O  O52  1  0.83842297  0.27540628  0.13315662  1
  O  O53  1  0.82925136  0.27618160  0.63404471  1
  O  O54  1  0.83998321  0.77218474  0.12787345  1
  O  O55  1  0.82558730  0.77661044  0.62770474  1
  O  O56  1  0.18535451  0.22102332  0.36813364  1
  O  O57  1  0.19065254  0.22782002  0.87235268  1
  O  O58  1  0.19065919  0.72594367  0.36849618  1
  O  O59  1  0.19137479  0.72867816  0.87326112  1
  O  O60  1  0.69602333  0.22187821  0.36644952  1
  O  O61  1  0.70252363  0.22963639  0.86909360  1
  O  O62  1  0.68786781  0.72127156  0.36852676  1
  O  O63  1  0.70311841  0.73064346  0.87842764  1
  O  O64  1  0.43158435  0.05867277  0.25060731  1
  O  O65  1  0.43451067  0.05864746  0.75226521  1
  O  O66  1  0.43018302  0.55796853  0.24384863  1
  O  O67  1  0.43292012  0.55116995  0.75011985  1
  O  O68  1  0.90952395  0.07106015  0.24297792  1
  O  O69  1  0.92731168  0.07041903  0.75138544  1
  O  O70  1  0.93767465  0.56107938  0.25070302  1
  O  O71  1  0.93176830  0.55289991  0.74903185  1
  O  O72  1  0.16885840  0.43169444  0.25121510  1
  O  O73  1  0.17048017  0.43625093  0.75037823  1
  O  O74  1  0.15427434  0.92451437  0.24275026  1
  O  O75  1  0.18491081  0.94575890  0.74770118  1
  O  O76  1  0.67021295  0.42972728  0.25040983  1
  O  O77  1  0.67293899  0.42812895  0.75888318  1
  O  O78  1  0.67257228  0.93294885  0.24942393  1
  O  O79  1  0.68627516  0.94489921  0.74722015  1
loop_
_geom_bond_atom_site_label_1
_geom_bond_atom_site_label_2
_geom_bond_distance
_geom_bond_site_symmetry_2
La0 O48 2.380850 1_555
La0 O64 2.406131 1_555
La0 O10 2.434596 1_545
La0 O26 2.457089 1_545
La0 O32 2.743266 1_555
La0 O1 2.918179 1_554
La0 O17 2.987397 1_554
La0 O36 3.152524 1_555
La1 O65 2.386084 1_555
La1 O49 2.394715 1_555
La1 O11 2.501791 1_545
La1 O27 2.509537 1_545
La1 O33 2.761979 1_555
La1 O37 2.944135 1_555
La1 O0 2.973923 1_555
La1 O16 3.040289 1_555
La2 O51 2.341487 1_555
La2 O67 2.352337 1_555
La2 O9 2.569045 1_555
La2 O25 2.587253 1_555
La2 O35 2.719451 1_555
La2 O39 2.851595 1_555
La2 O2 3.060930 1_555
La2 O18 3.068565 1_555
La3 O69 2.370195 1_555
La3 O53 2.405132 1_555
La3 O15 2.479254 1_545
La3 O31 2.480334 1_545
La3 O37 2.770577 1_555
La3 O33 2.771073 1_655
La3 O20 2.937447 1_555
La3 O4 2.965457 1_555
La4 O70 2.375248 1_555
La4 O54 2.382035 1_555
La4 O28 2.477218 1_555
La4 O12 2.481079 1_555
La4 O38 2.755342 1_555
La4 O34 2.981827 1_655
La4 O7 2.981832 1_554
La4 O23 3.020144 1_554
La5 O55 2.350379 1_555
La5 O71 2.367153 1_555
La5 O13 2.561375 1_555
La5 O29 2.568008 1_555
La5 O39 2.725394 1_555
La5 O35 2.850233 1_655
La5 O6 2.976124 1_555
La5 O22 3.026486 1_555
La6 O72 2.378743 1_555
La6 O56 2.401280 1_555
La6 O2 2.443351 1_555
La6 O18 2.449109 1_555
La6 O44 2.765005 1_455
La6 O25 2.827276 1_555
La6 O9 2.867261 1_555
La6 O40 2.902791 1_555
La7 O57 2.396169 1_555
La7 O73 2.422100 1_555
La7 O19 2.425656 1_555
La7 O3 2.468024 1_555
La7 O45 2.729753 1_455
La7 O24 2.849230 1_556
La7 O8 2.910119 1_556
La7 O41 3.138332 1_555
La8 O58 2.351654 1_555
La8 O74 2.433320 1_555
La8 O16 2.480177 1_565
La8 O0 2.508729 1_565
La8 O46 2.675624 1_455
La8 O42 2.852553 1_555
La8 O27 2.922287 1_555
La8 O11 2.923407 1_555
La9 O59 2.337120 1_555
La9 O75 2.400503 1_555
La9 O17 2.556843 1_565
La9 O1 2.558951 1_565
La9 O47 2.751183 1_455
La9 O43 2.837361 1_555
La10 O76 2.385431 1_555
La10 O60 2.387005 1_555
La10 O22 2.439439 1_555
La10 O6 2.475819 1_555
La10 O40 2.709318 1_555
La10 O29 2.858667 1_555
La10 O44 2.873424 1_555
La10 O13 2.885844 1_555
La11 O78 2.365319 1_555
La11 O62 2.385586 1_555
La11 O20 2.491709 1_565
La11 O4 2.492924 1_565
La11 O42 2.698847 1_555
La11 O31 2.898067 1_555
La11 O15 2.926734 1_555
La11 O46 2.967196 1_555
La12 O63 2.347029 1_555
La12 O79 2.391668 1_555
La12 O21 2.493913 1_565
La12 O5 2.514683 1_565
La12 O43 2.728790 1_555
La12 O47 2.868098 1_555
La12 O14 3.050596 1_556
La12 O30 3.128173 1_556
La13 O72 2.362201 1_555
La13 O32 2.374925 1_555
La13 O8 2.473584 1_555
La13 O28 2.537252 1_455
La13 O52 2.616416 1_455
La13 O48 2.955157 1_555
La13 O1 2.988516 1_554
La13 O21 3.043349 1_454
La14 O73 2.353019 1_555
La14 O33 2.375456 1_555
La14 O9 2.494727 1_555
La14 O29 2.512587 1_455
La14 O53 2.726602 1_455
La14 O49 2.963373 1_555
La14 O0 2.999019 1_555
La14 O20 3.044426 1_455
La15 O35 2.351495 1_555
La15 O75 2.354958 1_555
La15 O11 2.571216 1_555
La15 O31 2.598622 1_455
La15 O55 2.680290 1_455
La15 O51 2.892719 1_555
La15 O22 3.059034 1_455
La15 O2 3.096461 1_555
La16 O76 2.402396 1_555
La16 O12 2.405374 1_555
La16 O36 2.432633 1_555
La16 O24 2.459096 1_555
La16 O48 2.653620 1_555
La16 O17 2.914769 1_554
La17 O37 2.369837 1_555
La17 O77 2.434253 1_555
La17 O13 2.498890 1_555
La17 O25 2.509858 1_555
La17 O49 2.618533 1_555
La17 O53 2.953742 1_555
La18 O38 2.392209 1_555
La18 O78 2.401590 1_555
La18 O26 2.421959 1_555
La18 O14 2.530522 1_555
La18 O50 2.629645 1_555
La18 O19 2.904732 1_554
La18 O7 2.951246 1_554
La18 O54 3.132954 1_555
La19 O79 2.362192 1_555
La19 O39 2.380213 1_555
La19 O27 2.555767 1_555
La19 O15 2.575290 1_555
La19 O51 2.680506 1_555
La19 O55 2.912673 1_555
La19 O18 3.029297 1_555
La19 O6 3.052148 1_555
La20 O64 2.359012 1_555
La20 O40 2.380292 1_555
La20 O16 2.504352 1_555
La20 O4 2.527720 1_555
La20 O56 2.812322 1_555
La20 O60 2.915955 1_555
La20 O13 3.017389 1_555
La20 O25 3.017576 1_555
La21 O65 2.376689 1_555
La21 O41 2.418119 1_555
La21 O17 2.512110 1_555
La21 O5 2.521553 1_555
La21 O57 2.778350 1_555
La21 O61 2.983124 1_555
La21 O12 3.020380 1_556
La21 O24 3.065980 1_556
La22 O42 2.369091 1_555
La22 O66 2.439249 1_555
La22 O18 2.500382 1_555
La22 O6 2.550814 1_555
La22 O58 2.753345 1_555
La22 O62 2.814647 1_555
La22 O15 3.044876 1_555
La22 O27 3.084223 1_555
La23 O67 2.369990 1_555
La23 O43 2.370654 1_555
La23 O19 2.471050 1_555
La23 O7 2.534065 1_555
La23 O59 2.751865 1_555
La23 O63 2.957415 1_555
La24 O44 2.373537 1_555
La24 O68 2.384348 1_555
La24 O0 2.492934 1_655
La24 O20 2.505872 1_555
La24 O60 2.727789 1_555
La24 O56 2.761930 1_655
La24 O9 2.990035 1_655
La24 O29 3.040405 1_555
La25 O69 2.346546 1_555
La25 O45 2.411975 1_555
La25 O1 2.455943 1_655
La25 O21 2.559078 1_555
La25 O61 2.696650 1_555
La25 O57 2.797528 1_655
La25 O8 3.012876 1_656
La25 O28 3.061248 1_556
La26 O70 2.377906 1_555
La26 O46 2.398570 1_555
La26 O2 2.490757 1_655
La26 O22 2.518171 1_555
La26 O62 2.811694 1_555
La26 O58 2.815512 1_655
La26 O31 2.977181 1_555
La26 O11 2.987382 1_655
La27 O47 2.345372 1_555
La27 O71 2.369379 1_555
La27 O3 2.523504 1_655
La27 O23 2.551342 1_555
La27 O63 2.706704 1_555
La27 O59 2.786904 1_655
Cr0 O21 1.970722 1_464
Cr0 O10 1.987110 1_555
Cr0 O1 1.987479 1_564
Cr0 O30 2.002773 1_455
Cr0 O47 2.041391 1_454
Cr0 O32 2.063936 1_565
Cr1 O28 1.967526 1_455
Cr1 O3 1.975287 1_554
Cr1 O8 1.992343 1_555
Cr1 O23 2.014047 1_454
Cr1 O34 2.064398 1_555
Cr1 O45 2.106240 1_454
Cr2 O26 1.985672 1_545
Cr2 O5 1.988083 1_554
Cr2 O17 1.996697 1_554
Cr2 O14 2.042344 1_545
Cr2 O43 2.050413 1_544
Cr2 O36 2.118816 1_555
Cr3 O7 1.967273 1_554
Cr3 O30 2.001556 1_555
Cr3 O14 2.022097 1_555
Cr3 O23 2.030380 1_554
Cr3 O63 2.042024 1_554
Cr3 O54 2.093549 1_555
O0 V0 1.979908 1_545
O0 V6 2.062548 1_555
O1 V5 2.089420 1_556
O2 V1 1.989578 1_555
O2 V8 2.082266 1_555
O3 V7 2.089618 1_556
O3 Sm3 2.865601 1_556
O3 Sm0 2.924997 1_556
O4 V2 1.991232 1_555
O4 V10 2.066031 1_555
O5 V9 2.084828 1_556
O5 Sm1 2.863240 1_556
O6 V4 1.978046 1_555
O6 V11 2.060617 1_555
O7 V3 2.079129 1_555
O7 Sm2 2.463493 1_555
O8 V5 2.102684 1_555
O8 Sm0 2.460477 1_555
O9 V1 1.994587 1_555
O9 V6 2.073703 1_555
O10 V7 2.075935 1_555
O10 Sm3 2.353505 1_555
O11 V0 1.985317 1_555
O11 V8 2.077660 1_555
O12 V9 2.051751 1_555
O12 V3 2.059631 1_554
O12 Sm2 2.860271 1_554
O13 V4 1.998618 1_555
O13 V10 2.079343 1_555
O14 Sm1 2.419488 1_565
O15 V2 1.989548 1_565
O15 V11 2.084277 1_555
O16 V2 1.990438 1_555
O16 V6 2.077478 1_555
O17 V5 2.104445 1_556
O18 V4 1.994409 1_555
O18 V8 2.090355 1_555
O19 V3 2.056134 1_555
O19 V7 2.068495 1_556
O19 Sm0 2.940570 1_556
O20 V0 1.987686 1_645
O20 V10 2.083076 1_555
O21 V9 2.079260 1_556
O21 Sm1 2.737440 1_556
O22 V1 1.989923 1_655
O22 V11 2.089245 1_555
O23 Sm2 2.452840 1_555
O23 Sm3 2.895425 1_656
O24 V3 2.058652 1_554
O24 V5 2.062558 1_555
O24 Sm0 2.433523 1_555
O25 V4 1.976273 1_555
O25 V6 2.068874 1_555
O26 V7 2.101289 1_555
O27 V2 1.980804 1_565
O27 V8 2.087756 1_555
O28 V9 2.085351 1_555
O28 Sm2 2.806645 1_554
O29 V1 1.983008 1_655
O29 V10 2.072204 1_555
O30 Sm3 2.400974 1_655
O30 Sm1 2.422174 1_565
O31 V0 1.976625 1_655
O31 V11 2.070963 1_555
O32 V12 2.094212 1_555
O32 Sm1 2.746117 1_455
O33 V13 2.099274 1_555
O33 V0 2.116078 1_545
O34 V14 2.075189 1_555
O34 Sm3 2.318418 1_555
O34 Sm0 2.653066 1_555
O35 V1 2.092255 1_555
O35 V15 2.094557 1_555
O36 V16 2.058532 1_555
O36 Sm1 2.583598 1_555
O37 V17 2.086990 1_555
O37 V2 2.153753 1_555
O38 V18 1.976593 1_555
O38 V3 2.145308 1_554
O38 Sm0 2.803334 1_555
O39 V19 2.113168 1_555
O39 V4 2.115555 1_555
O40 V20 2.081637 1_555
O40 V4 2.144077 1_555
O41 V21 2.053871 1_555
O41 V3 2.161126 1_555
O41 Sm2 2.454369 1_555
O42 V22 2.080885 1_555
O42 V2 2.137054 1_565
O43 V23 2.104043 1_555
O44 V24 2.072159 1_555
O44 V1 2.165139 1_655
O45 V25 2.092746 1_555
O45 Sm2 2.935344 1_555
O46 V26 2.097932 1_555
O46 V0 2.156124 1_655
O47 V27 2.102115 1_555
O48 V20 2.037977 1_555
O48 V5 2.144374 1_555
O49 V21 2.084874 1_555
O49 V6 2.151719 1_555
O50 V22 2.058769 1_555
O50 V7 2.139875 1_555
O50 Sm0 2.315232 1_555
O50 Sm3 2.888805 1_555
O51 V23 2.087854 1_555
O51 V8 2.126618 1_555
O52 V24 2.040200 1_555
O52 V9 2.186555 1_555
O52 Sm1 2.341737 1_555
O53 V25 2.047954 1_555
O53 V10 2.203801 1_555
O54 V26 2.064612 1_555
O54 Sm3 2.584791 1_655
O55 V27 2.084026 1_555
O55 V11 2.117250 1_555
O56 V12 2.040811 1_555
O56 V6 2.161695 1_555
O57 V13 2.039370 1_555
O57 V5 2.142815 1_556
O58 V14 2.068396 1_555
O58 V8 2.150885 1_555
O59 V15 2.077325 1_555
O59 V7 2.113666 1_556
O60 V16 2.077608 1_555
O60 V10 2.201130 1_555
O61 V17 2.033159 1_555
O61 V9 2.183412 1_556
O61 Sm2 2.341330 1_555
O62 V18 1.988356 1_555
O62 V11 2.141593 1_555
O63 V19 2.101728 1_555
O64 V16 2.126435 1_555
O64 V22 2.214936 1_545
O65 V17 2.090011 1_555
O65 V23 2.206701 1_545
O66 V18 2.132337 1_555
O66 V20 2.141363 1_555
O66 Sm0 2.333106 1_555
O67 V21 2.133539 1_555
O67 V19 2.151137 1_555
O68 V26 2.183993 1_545
O68 V12 2.265399 1_655
O68 Sm1 2.317484 1_555
O69 V13 2.215227 1_655
O69 V27 2.251655 1_545
O70 V24 2.090264 1_555
O70 V14 2.178655 1_655
O71 V25 2.052005 1_555
O71 V15 2.159361 1_655
O72 V20 2.122366 1_555
O72 V14 2.132202 1_555
O73 V21 2.131572 1_555
O73 V15 2.208945 1_555
O74 V12 2.141837 1_565
O74 V22 2.185076 1_555
O74 Sm3 2.287684 1_555
O75 V13 2.104851 1_565
O75 V23 2.157077 1_555
O76 V24 2.112023 1_555
O76 V18 2.296715 1_555
O77 V25 2.097038 1_555
O77 V19 2.298249 1_555
O77 Sm2 2.319965 1_555
O78 V16 2.070932 1_565
O78 V26 2.107112 1_555
O79 V17 2.065129 1_565
O79 V27 2.141067 1_555
