# generated using pymatgen
data_K6WN4
_symmetry_space_group_name_H-M   'P 1'
_cell_length_a   8.23527600
_cell_length_b   8.23527600
_cell_length_c   6.76787200
_cell_angle_alpha   90.00000000
_cell_angle_beta   90.00000000
_cell_angle_gamma   90.00000000
_symmetry_Int_Tables_number   1
_chemical_formula_structural   K6WN4
_chemical_formula_sum   'K12 W2 N8'
_cell_volume   458.99552782
_cell_formula_units_Z   2
loop_
 _symmetry_equiv_pos_site_id
 _symmetry_equiv_pos_as_xyz
  1  'x, y, z'
loop_
 _atom_site_type_symbol
 _atom_site_label
 _atom_site_symmetry_multiplicity
 _atom_site_fract_x
 _atom_site_fract_y
 _atom_site_fract_z
 _atom_site_occupancy
  K  K0  1  0.00000000  0.50000000  0.67890500  1
  K  K1  1  0.50000000  0.00000000  0.82109500  1
  K  K2  1  0.50000000  0.00000000  0.32109500  1
  K  K3  1  0.00000000  0.50000000  0.17890500  1
  K  K4  1  0.20308500  0.20308500  0.50000000  1
  K  K5  1  0.79691500  0.79691500  0.50000000  1
  K  K6  1  0.70308500  0.70308500  0.00000000  1
  K  K7  1  0.29691500  0.29691500  0.00000000  1
  K  K8  1  0.79691500  0.20308500  0.50000000  1
  K  K9  1  0.20308500  0.79691500  0.50000000  1
  K  K10  1  0.29691500  0.70308500  0.00000000  1
  K  K11  1  0.70308500  0.29691500  0.00000000  1
  W  W0  1  0.50000000  0.50000000  0.50000000  1
  W  W1  1  0.00000000  0.00000000  0.00000000  1
  N  N0  1  0.30332100  0.50000000  0.34621300  1
  N  N1  1  0.69667900  0.50000000  0.34621300  1
  N  N2  1  0.80332100  0.00000000  0.15378700  1
  N  N3  1  0.19667900  0.00000000  0.15378700  1
  N  N4  1  0.50000000  0.30332100  0.65378700  1
  N  N5  1  0.50000000  0.69667900  0.65378700  1
  N  N6  1  0.00000000  0.80332100  0.84621300  1
  N  N7  1  0.00000000  0.19667900  0.84621300  1
loop_
_geom_bond_atom_site_label_1
_geom_bond_atom_site_label_2
_geom_bond_distance
_geom_bond_site_symmetry_2
K0 N6 2.742592 1_555
K0 N7 2.742592 1_555
K1 N5 2.742592 1_545
K1 N4 2.742592 1_555
K2 N2 2.742592 1_555
K2 N3 2.742592 1_555
K3 N1 2.742592 1_455
K3 N0 2.742592 1_555
K4 N4 2.782729 1_555
K4 N0 2.782729 1_555
K4 N3 2.879261 1_555
K4 N7 2.879261 1_555
K5 N5 2.782729 1_555
K5 N1 2.782729 1_555
K5 N6 2.879261 1_655
K5 N2 2.879261 1_565
K6 N2 2.782729 1_565
K6 N6 2.782729 1_654
K6 N5 2.879261 1_554
K6 N1 2.879261 1_555
K7 N3 2.782729 1_555
K7 N7 2.782729 1_554
K7 N0 2.879261 1_555
K7 N4 2.879261 1_554
K8 N4 2.782729 1_555
K8 N1 2.782729 1_555
K8 N2 2.879261 1_555
K8 N7 2.879261 1_655
K9 N5 2.782729 1_555
K9 N0 2.782729 1_555
K9 N3 2.879261 1_565
K9 N6 2.879261 1_555
K10 N6 2.782729 1_554
K10 N3 2.782729 1_565
K10 N0 2.879261 1_555
K10 N5 2.879261 1_554
K11 N2 2.782729 1_555
K11 N7 2.782729 1_654
K11 N4 2.879261 1_554
K11 N1 2.879261 1_555
N0 W0 1.925288 1_555
N1 W0 1.925288 1_555
N2 W1 1.925288 1_655
N3 W1 1.925288 1_555
N4 W0 1.925288 1_555
N5 W0 1.925288 1_555
N6 W1 1.925288 1_566
N7 W1 1.925288 1_556
