# generated using pymatgen
data_BaSiAu
_symmetry_space_group_name_H-M   'P 1'
_cell_length_a   4.32236534
_cell_length_b   4.32236534
_cell_length_c   5.07026798
_cell_angle_alpha   90.00000000
_cell_angle_beta   90.00000000
_cell_angle_gamma   119.99998837
_symmetry_Int_Tables_number   1
_chemical_formula_structural   BaSiAu
_chemical_formula_sum   'Ba1 Si1 Au1'
_cell_volume   82.03601212
_cell_formula_units_Z   1
loop_
 _symmetry_equiv_pos_site_id
 _symmetry_equiv_pos_as_xyz
  1  'x, y, z'
loop_
 _atom_site_type_symbol
 _atom_site_label
 _atom_site_symmetry_multiplicity
 _atom_site_fract_x
 _atom_site_fract_y
 _atom_site_fract_z
 _atom_site_occupancy
  Ba  Ba0  1  0.66666700  0.33333300  0.00000000  1
  Si  Si0  1  0.33333300  0.66666700  0.50000000  1
  Au  Au0  1  -0.00000000  0.00000000  0.50000000  1
loop_
_geom_bond_atom_site_label_1
_geom_bond_atom_site_label_2
_geom_bond_distance
_geom_bond_site_symmetry_2
Ba0 Si0 3.557317 1_545
Ba0 Si0 3.557317 1_544
Ba0 Si0 3.557317 1_654
Ba0 Si0 3.557317 1_655
Ba0 Si0 3.557322 1_555
Ba0 Si0 3.557322 1_554
Au0 Si0 2.495516 1_545
Au0 Si0 2.495520 1_445
Au0 Si0 2.495520 1_555
Au0 Ba0 3.557317 1_455
Au0 Ba0 3.557317 1_456
Au0 Ba0 3.557320 1_556
Au0 Ba0 3.557320 1_555
Au0 Ba0 3.557320 1_445
Au0 Ba0 3.557320 1_446
