# generated using pymatgen
data_Si3Ge2(H3C)11
_symmetry_space_group_name_H-M   'P 1'
_cell_length_a   9.61601800
_cell_length_b   9.63034715
_cell_length_c   14.43134075
_cell_angle_alpha   92.09840561
_cell_angle_beta   102.86517598
_cell_angle_gamma   114.19376364
_symmetry_Int_Tables_number   1
_chemical_formula_structural   Si3Ge2(H3C)11
_chemical_formula_sum   'Si6 Ge4 H66 C22'
_cell_volume   1176.08621620
_cell_formula_units_Z   2
loop_
 _symmetry_equiv_pos_site_id
 _symmetry_equiv_pos_as_xyz
  1  'x, y, z'
loop_
 _atom_site_type_symbol
 _atom_site_label
 _atom_site_symmetry_multiplicity
 _atom_site_fract_x
 _atom_site_fract_y
 _atom_site_fract_z
 _atom_site_occupancy
  Si  Si0  1  0.37118200  0.92014400  0.68969600  1
  Si  Si1  1  0.62881800  0.07985600  0.31030400  1
  Si  Si2  1  0.26598300  0.55504600  0.82664800  1
  Si  Si3  1  0.73401700  0.44495400  0.17335200  1
  Si  Si4  1  0.02000600  0.79630700  0.81338600  1
  Si  Si5  1  0.97999400  0.20369300  0.18661400  1
  Ge  Ge0  1  0.15743500  0.70039800  0.72279200  1
  Ge  Ge1  1  0.84256500  0.29960200  0.27720800  1
  Ge  Ge2  1  0.95703700  0.52837200  0.57202300  1
  Ge  Ge3  1  0.04296300  0.47162800  0.42797700  1
  H  H0  1  0.60429000  0.95803200  0.62908400  1
  H  H1  1  0.39571000  0.04196800  0.37091600  1
  H  H2  1  0.56928400  0.81033100  0.70324700  1
  H  H3  1  0.43071600  0.18966900  0.29675300  1
  H  H4  1  0.45186300  0.77014500  0.58300600  1
  H  H5  1  0.54813700  0.22985500  0.41699400  1
  H  H6  1  0.22392800  0.94326400  0.52779100  1
  H  H7  1  0.77607200  0.05673600  0.47220900  1
  H  H8  1  0.21800200  0.06623200  0.62035500  1
  H  H9  1  0.78199800  0.93376800  0.37964500  1
  H  H10  1  0.39271600  0.11774100  0.58082100  1
  H  H11  1  0.60728400  0.88225900  0.41917900  1
  H  H12  1  0.58375900  0.16723900  0.78056900  1
  H  H13  1  0.41624100  0.83276100  0.21943100  1
  H  H14  1  0.41968900  0.11032800  0.83107700  1
  H  H15  1  0.58031100  0.88967200  0.16892300  1
  H  H16  1  0.55173500  0.02186900  0.85638000  1
  H  H17  1  0.44826500  0.97813100  0.14362000  1
  H  H18  1  0.54344900  0.76011900  0.89338100  1
  H  H19  1  0.45655100  0.23988100  0.10661900  1
  H  H20  1  0.41973400  0.76742600  0.96689400  1
  H  H21  1  0.58026600  0.23257400  0.03310600  1
  H  H22  1  0.48862700  0.62189000  0.97243400  1
  H  H23  1  0.51137300  0.37811000  0.02756600  1
  H  H24  1  0.17102800  0.35703900  0.93171700  1
  H  H25  1  0.82897200  0.64296100  0.06828300  1
  H  H26  1  0.08914100  0.49120100  0.93849300  1
  H  H27  1  0.91085900  0.50879900  0.06150700  1
  H  H28  1  0.00927200  0.34373600  0.83779300  1
  H  H29  1  0.99072800  0.65626400  0.16220700  1
  H  H30  1  0.22717600  0.34073900  0.70521100  1
  H  H31  1  0.77282400  0.65926100  0.29478900  1
  H  H32  1  0.41614600  0.49735800  0.72084100  1
  H  H33  1  0.58385400  0.50264200  0.27915900  1
  H  H34  1  0.38229500  0.37163600  0.80893600  1
  H  H35  1  0.61770500  0.62836400  0.19106400  1
  H  H36  1  0.74093100  0.59621200  0.74542100  1
  H  H37  1  0.25906900  0.40378800  0.25457900  1
  H  H38  1  0.83629200  0.54070400  0.84781400  1
  H  H39  1  0.16370800  0.45929600  0.15218600  1
  H  H40  1  0.76867600  0.68442100  0.86237800  1
  H  H41  1  0.23132400  0.31557900  0.13762200  1
  H  H42  1  0.15833700  0.78408400  0.98162300  1
  H  H43  1  0.84166300  0.21591600  0.01837700  1
  H  H44  1  0.25706300  0.96774800  0.94721600  1
  H  H45  1  0.74293700  0.03225200  0.05278400  1
  H  H46  1  0.07719400  0.91946000  0.98021400  1
  H  H47  1  0.92280600  0.08054000  0.01978600  1
  H  H48  1  0.91625000  0.99536700  0.80170900  1
  H  H49  1  0.08375000  0.00463300  0.19829100  1
  H  H50  1  0.09406100  0.05994100  0.76472500  1
  H  H51  1  0.90593900  0.94005900  0.23527500  1
  H  H52  1  0.91342300  0.92487900  0.68552300  1
  H  H53  1  0.08657700  0.07512100  0.31447700  1
  H  H54  1  0.75577400  0.63553200  0.58743600  1
  H  H55  1  0.24422600  0.36446800  0.41256400  1
  H  H56  1  0.85390800  0.72249800  0.49914100  1
  H  H57  1  0.14609200  0.27750200  0.50085900  1
  H  H58  1  0.70176200  0.53058100  0.47135200  1
  H  H59  1  0.29823800  0.46941900  0.52864800  1
  H  H60  1  0.73176600  0.25781700  0.55726800  1
  H  H61  1  0.26823400  0.74218300  0.44273200  1
  H  H62  1  0.90856000  0.26623500  0.63497700  1
  H  H63  1  0.09144000  0.73376500  0.36502300  1
  H  H64  1  0.79750200  0.35280100  0.67725000  1
  H  H65  1  0.20249800  0.64719900  0.32275000  1
  C  C0  1  0.51145100  0.85765900  0.64701300  1
  C  C1  1  0.48854900  0.14234100  0.35298700  1
  C  C2  1  0.29306500  0.02028800  0.59559600  1
  C  C3  1  0.70693500  0.97971200  0.40440400  1
  C  C4  1  0.49216500  0.06790000  0.80034500  1
  C  C5  1  0.50783500  0.93210000  0.19965500  1
  C  C6  1  0.44621000  0.68977900  0.92364200  1
  C  C7  1  0.55379000  0.31022100  0.07635800  1
  C  C8  1  0.11896800  0.42473500  0.88907200  1
  C  C9  1  0.88103200  0.57526500  0.11092800  1
  C  C10  1  0.32836500  0.42962200  0.75831000  1
  C  C11  1  0.67163500  0.57037800  0.24169000  1
  C  C12  1  0.82323100  0.63896200  0.81717500  1
  C  C13  1  0.17676900  0.36103800  0.18282500  1
  C  C14  1  0.14067500  0.87378600  0.94240400  1
  C  C15  1  0.85932500  0.12621400  0.05759600  1
  C  C16  1  0.98270400  0.95907300  0.76083500  1
  C  C17  1  0.01729600  0.04092700  0.23916500  1
  C  C18  1  0.80142400  0.61423200  0.52789900  1
  C  C19  1  0.19857600  0.38576800  0.47210100  1
  C  C20  1  0.83667200  0.33002300  0.61502000  1
  C  C21  1  0.16332800  0.66997700  0.38498000  1
loop_
_geom_bond_atom_site_label_1
_geom_bond_atom_site_label_2
_geom_bond_distance
_geom_bond_site_symmetry_2
Ge0 Si0 2.424288 1_555
Ge0 Si2 2.439229 1_555
Ge0 Si4 2.447493 1_555
Ge0 Ge2 2.538566 1_455
Ge1 Si1 2.424288 1_555
Ge1 Si3 2.439229 1_555
Ge1 Si5 2.447493 1_555
Ge1 Ge3 2.538566 1_655
C0 H4 1.096963 1_555
C0 H2 1.099758 1_555
C0 H0 1.100984 1_555
C0 Si0 1.889176 1_555
C1 H5 1.096963 1_555
C1 H3 1.099758 1_555
C1 H1 1.100984 1_555
C1 Si1 1.889176 1_555
C2 H6 1.096654 1_545
C2 H8 1.099765 1_555
C2 H10 1.101367 1_555
C2 Si0 1.890489 1_545
C3 H7 1.096654 1_565
C3 H9 1.099765 1_555
C3 H11 1.101367 1_555
C3 Si1 1.890489 1_565
C4 H16 1.098488 1_555
C4 H14 1.098698 1_555
C4 H12 1.101686 1_555
C4 Si0 1.891430 1_545
C5 H17 1.098488 1_555
C5 H15 1.098698 1_555
C5 H13 1.101686 1_555
C5 Si1 1.891430 1_565
C6 H20 1.098275 1_555
C6 H18 1.099201 1_555
C6 H22 1.101823 1_555
C6 Si2 1.894725 1_555
C7 H21 1.098275 1_555
C7 H19 1.099201 1_555
C7 H23 1.101823 1_555
C7 Si3 1.894725 1_555
C8 H28 1.097488 1_555
C8 H26 1.099450 1_555
C8 H24 1.101848 1_555
C8 Si2 1.892287 1_555
C9 H29 1.097488 1_555
C9 H27 1.099450 1_555
C9 H25 1.101848 1_555
C9 Si3 1.892287 1_555
C10 H30 1.097241 1_555
C10 H32 1.099176 1_555
C10 H34 1.101397 1_555
C10 Si2 1.887197 1_555
C11 H31 1.097241 1_555
C11 H33 1.099176 1_555
C11 H35 1.101397 1_555
C11 Si3 1.887197 1_555
C12 H36 1.097666 1_555
C12 H38 1.100004 1_555
C12 H40 1.100970 1_555
C12 Si4 1.892489 1_655
C13 H37 1.097666 1_555
C13 H39 1.100004 1_555
C13 H41 1.100970 1_555
C13 Si5 1.892489 1_455
C14 H44 1.098602 1_555
C14 H42 1.099406 1_555
C14 H46 1.102119 1_555
C14 Si4 1.896409 1_555
C15 H45 1.098602 1_555
C15 H43 1.099406 1_555
C15 H47 1.102119 1_555
C15 Si5 1.896409 1_555
C16 H52 1.097750 1_555
C16 H50 1.100023 1_665
C16 H48 1.101948 1_555
C16 Si4 1.894098 1_655
C17 H53 1.097750 1_555
C17 H51 1.100023 1_445
C17 H49 1.101948 1_555
C17 Si5 1.894098 1_455
C18 H54 1.096289 1_555
C18 H58 1.097334 1_555
C18 H56 1.098955 1_555
C18 Ge2 1.989148 1_555
C19 H55 1.096289 1_555
C19 H59 1.097334 1_555
C19 H57 1.098955 1_555
C19 Ge3 1.989148 1_555
C20 H64 1.095645 1_555
C20 H60 1.097264 1_555
C20 H62 1.100244 1_555
C20 Ge2 1.991957 1_555
C21 H65 1.095645 1_555
C21 H61 1.097264 1_555
C21 H63 1.100244 1_555
C21 Ge3 1.991957 1_555
