# generated using pymatgen
data_Li9Mn2Co5O16
_symmetry_space_group_name_H-M   'P 1'
_cell_length_a   7.74320607
_cell_length_b   7.74320607
_cell_length_c   5.16062576
_cell_angle_alpha   77.13885000
_cell_angle_beta   77.13885000
_cell_angle_gamma   98.00180903
_symmetry_Int_Tables_number   1
_chemical_formula_structural   Li9Mn2Co5O16
_chemical_formula_sum   'Li9 Mn2 Co5 O16'
_cell_volume   288.22913799
_cell_formula_units_Z   1
loop_
 _symmetry_equiv_pos_site_id
 _symmetry_equiv_pos_as_xyz
  1  'x, y, z'
loop_
 _atom_site_type_symbol
 _atom_site_label
 _atom_site_symmetry_multiplicity
 _atom_site_fract_x
 _atom_site_fract_y
 _atom_site_fract_z
 _atom_site_occupancy
  Li  Li0  1  0.62172900  0.37827100  0.50000000  1
  Li  Li1  1  0.74599900  0.74599900  0.50921300  1
  Li  Li2  1  0.87729400  0.12270600  0.50000000  1
  Li  Li3  1  0.00000000  0.50000000  0.50000000  1
  Li  Li4  1  0.12270600  0.87729400  0.50000000  1
  Li  Li5  1  0.25400100  0.25400100  0.49078700  1
  Li  Li6  1  0.37827100  0.62172900  0.50000000  1
  Li  Li7  1  0.50000000  0.00000000  0.50000000  1
  Li  Li8  1  0.50000000  0.50000000  0.00000000  1
  Mn  Mn0  1  0.74893400  0.25106600  0.00000000  1
  Mn  Mn1  1  0.25106600  0.74893400  0.00000000  1
  Co  Co0  1  0.86645000  0.62346800  0.99707300  1
  Co  Co1  1  0.00000000  0.00000000  0.00000000  1
  Co  Co2  1  0.13355000  0.37653200  0.00292700  1
  Co  Co3  1  0.37653200  0.13355000  0.00292700  1
  Co  Co4  1  0.62346800  0.86645000  0.99707300  1
  O  O0  1  0.51426800  0.24313800  0.23118700  1
  O  O1  1  0.64078500  0.64078500  0.23331100  1
  O  O2  1  0.75577900  0.01103300  0.22235500  1
  O  O3  1  0.87537700  0.37016000  0.22012900  1
  O  O4  1  0.01103300  0.75577900  0.22235500  1
  O  O5  1  0.12876500  0.12876500  0.23768400  1
  O  O6  1  0.24313800  0.51426800  0.23118700  1
  O  O7  1  0.37016000  0.87537700  0.22012900  1
  O  O8  1  0.75686200  0.48573200  0.76881300  1
  O  O9  1  0.87123500  0.87123500  0.76231600  1
  O  O10  1  0.98896700  0.24422100  0.77764500  1
  O  O11  1  0.12462300  0.62984000  0.77987100  1
  O  O12  1  0.24422100  0.98896700  0.77764500  1
  O  O13  1  0.35921500  0.35921500  0.76668900  1
  O  O14  1  0.48573200  0.75686200  0.76881300  1
  O  O15  1  0.62984000  0.12462300  0.77987100  1
loop_
_geom_bond_atom_site_label_1
_geom_bond_atom_site_label_2
_geom_bond_distance
_geom_bond_site_symmetry_2
Li0 O13 2.151387 1_555
Li0 O1 2.151387 1_555
Li0 O8 2.151598 1_555
Li0 O0 2.151598 1_555
Li0 O15 2.181594 1_555
Li0 O3 2.181594 1_555
Li1 O1 2.050060 1_555
Li1 O9 2.110159 1_555
Li1 O14 2.181452 1_555
Li1 O8 2.181452 1_555
Li1 O4 2.227815 1_655
Li1 O2 2.227815 1_565
Li2 O9 2.097410 1_545
Li2 O5 2.097410 1_655
Li2 O15 2.131457 1_555
Li2 O3 2.131457 1_555
Li2 O10 2.147379 1_555
Li2 O2 2.147379 1_555
Li3 O6 2.047503 1_555
Li3 O8 2.047503 1_455
Li3 O10 2.148939 1_455
Li3 O4 2.148939 1_555
Li3 O3 2.241605 1_455
Li3 O11 2.241605 1_555
Li4 O9 2.097410 1_455
Li4 O5 2.097410 1_565
Li4 O11 2.131457 1_555
Li4 O7 2.131457 1_555
Li4 O12 2.147379 1_555
Li4 O4 2.147379 1_555
Li5 O13 2.050060 1_555
Li5 O5 2.110159 1_555
Li5 O0 2.181452 1_555
Li5 O6 2.181452 1_555
Li5 O12 2.227815 1_545
Li5 O10 2.227815 1_455
Li6 O13 2.151387 1_555
Li6 O1 2.151387 1_555
Li6 O14 2.151598 1_555
Li6 O6 2.151598 1_555
Li6 O11 2.181594 1_555
Li6 O7 2.181594 1_555
Li7 O0 2.047503 1_555
Li7 O14 2.047503 1_545
Li7 O12 2.148939 1_545
Li7 O2 2.148939 1_555
Li7 O7 2.241605 1_545
Li7 O15 2.241605 1_555
Li8 O14 2.110678 1_554
Li8 O8 2.110678 1_554
Li8 O0 2.110678 1_555
Li8 O6 2.110678 1_555
Li8 O1 2.159682 1_555
Li8 O13 2.159682 1_554
Mn0 O0 1.923580 1_555
Mn0 O8 1.923580 1_554
Mn0 O15 1.951826 1_554
Mn0 O3 1.951826 1_555
Mn0 O10 1.969537 1_554
Mn0 O2 1.969537 1_555
Mn1 O6 1.923580 1_555
Mn1 O14 1.923580 1_554
Mn1 O11 1.951826 1_554
Mn1 O7 1.951826 1_555
Mn1 O12 1.969537 1_554
Mn1 O4 1.969537 1_555
Co0 O1 1.935776 1_556
Co0 O8 1.999358 1_555
Co0 O9 2.018734 1_555
Co0 O11 2.050749 1_655
Co0 O3 2.060346 1_556
Co0 O4 2.108308 1_656
Co1 O4 2.005671 1_545
Co1 O2 2.005671 1_455
Co1 O12 2.005671 1_544
Co1 O10 2.005671 1_454
Co1 O5 2.074825 1_555
Co1 O9 2.074825 1_444
Co2 O13 1.935776 1_554
Co2 O6 1.999358 1_555
Co2 O5 2.018734 1_555
Co2 O3 2.050749 1_455
Co2 O11 2.060346 1_554
Co2 O10 2.108308 1_454
Co3 O13 1.935776 1_554
Co3 O0 1.999358 1_555
Co3 O5 2.018734 1_555
Co3 O7 2.050749 1_545
Co3 O15 2.060346 1_554
Co3 O12 2.108308 1_544
Co4 O1 1.935776 1_556
Co4 O14 1.999358 1_555
Co4 O9 2.018734 1_555
Co4 O15 2.050749 1_565
Co4 O7 2.060346 1_556
Co4 O2 2.108308 1_566
