# generated using pymatgen
data_Cs2SnSe3
_symmetry_space_group_name_H-M   'P 1'
_cell_length_a   7.58163038
_cell_length_b   8.34637223
_cell_length_c   9.66942464
_cell_angle_alpha   72.29475444
_cell_angle_beta   66.91841628
_cell_angle_gamma   62.98735246
_symmetry_Int_Tables_number   1
_chemical_formula_structural   Cs2SnSe3
_chemical_formula_sum   'Cs4 Sn2 Se6'
_cell_volume   495.51548296
_cell_formula_units_Z   2
loop_
 _symmetry_equiv_pos_site_id
 _symmetry_equiv_pos_as_xyz
  1  'x, y, z'
loop_
 _atom_site_type_symbol
 _atom_site_label
 _atom_site_symmetry_multiplicity
 _atom_site_fract_x
 _atom_site_fract_y
 _atom_site_fract_z
 _atom_site_occupancy
  Cs  Cs0  1  0.68955935  0.93784792  0.68303037  1
  Cs  Cs1  1  0.31044065  0.06215208  0.31696963  1
  Cs  Cs2  1  0.91503975  0.30252087  0.86740163  1
  Cs  Cs3  1  0.08496025  0.69747913  0.13259837  1
  Sn  Sn0  1  0.62105771  0.44501395  0.31287163  1
  Sn  Sn1  1  0.37894229  0.55498605  0.68712837  1
  Se  Se0  1  0.61411919  0.68501469  0.08674793  1
  Se  Se1  1  0.38588081  0.31498531  0.91325207  1
  Se  Se2  1  0.80215008  0.12241557  0.27328426  1
  Se  Se3  1  0.19784992  0.87758443  0.72671574  1
  Se  Se4  1  0.75372679  0.50000000  0.50000000  1
  Se  Se5  1  0.24627321  0.50000000  0.50000000  1
loop_
_geom_bond_atom_site_label_1
_geom_bond_atom_site_label_2
_geom_bond_distance
_geom_bond_site_symmetry_2
Cs0 Se2 3.691830 1_565
Cs0 Se1 3.718178 1_565
Cs0 Se0 3.788721 1_556
Cs0 Se3 3.829939 1_555
Cs0 Se3 3.829962 1_655
Cs1 Se3 3.691830 1_545
Cs1 Se0 3.718178 1_545
Cs1 Se1 3.788721 1_554
Cs1 Se2 3.829939 1_555
Cs1 Se2 3.829962 1_455
Cs2 Se3 3.573039 1_645
Cs2 Se2 3.652622 1_556
Cs2 Se0 3.688279 1_556
Cs2 Se1 3.815332 1_655
Cs2 Se1 3.815355 1_555
Cs2 Se5 3.853201 1_655
Cs2 Se4 3.853208 1_555
Cs3 Se2 3.573039 1_465
Cs3 Se3 3.652622 1_554
Cs3 Se1 3.688279 1_554
Cs3 Se0 3.815332 1_455
Cs3 Se0 3.815355 1_555
Cs3 Se4 3.853201 1_455
Cs3 Se5 3.853208 1_555
Se0 Sn0 2.475180 1_555
Se1 Sn1 2.475180 1_555
Se2 Sn0 2.477507 1_555
Se3 Sn1 2.477507 1_555
Se4 Sn0 2.616832 1_555
Se4 Sn1 2.616837 1_555
Se5 Sn1 2.616832 1_555
Se5 Sn0 2.616837 1_555
