# generated using pymatgen
data_CaBePO5
_symmetry_space_group_name_H-M   'P 1'
_cell_length_a   7.76029100
_cell_length_b   4.91474200
_cell_length_c   9.79126446
_cell_angle_alpha   89.74045174
_cell_angle_beta   90.00000000
_cell_angle_gamma   90.00000000
_symmetry_Int_Tables_number   1
_chemical_formula_structural   CaBePO5
_chemical_formula_sum   'Ca4 Be4 P4 O20'
_cell_volume   373.43331196
_cell_formula_units_Z   4
loop_
 _symmetry_equiv_pos_site_id
 _symmetry_equiv_pos_as_xyz
  1  'x, y, z'
loop_
 _atom_site_type_symbol
 _atom_site_label
 _atom_site_symmetry_multiplicity
 _atom_site_fract_x
 _atom_site_fract_y
 _atom_site_fract_z
 _atom_site_occupancy
  Ca  Ca0  1  0.38236700  0.99707300  0.17011500  1
  Ca  Ca1  1  0.88236700  0.00292700  0.32988500  1
  Ca  Ca2  1  0.61763300  0.00292700  0.82988500  1
  Ca  Ca3  1  0.11763300  0.99707300  0.67011500  1
  Be  Be0  1  0.08647500  0.53973100  0.16200400  1
  Be  Be1  1  0.58647500  0.46026900  0.33799600  1
  Be  Be2  1  0.91352500  0.46026900  0.83799600  1
  Be  Be3  1  0.41352500  0.53973100  0.66200400  1
  P  P0  1  0.23152800  0.46959700  0.41750500  1
  P  P1  1  0.73152800  0.53040300  0.08249500  1
  P  P2  1  0.76847200  0.53040300  0.58249500  1
  P  P3  1  0.26847200  0.46959700  0.91750500  1
  O  O0  1  0.10272300  0.24451100  0.45663700  1
  O  O1  1  0.60272300  0.75548900  0.04336300  1
  O  O2  1  0.89727700  0.75548900  0.54336300  1
  O  O3  1  0.39727700  0.24451100  0.95663700  1
  O  O4  1  0.21839400  0.64470400  0.04306200  1
  O  O5  1  0.71839400  0.35529600  0.45693800  1
  O  O6  1  0.78160600  0.35529600  0.95693800  1
  O  O7  1  0.28160600  0.64470400  0.54306200  1
  O  O8  1  0.15661700  0.66930200  0.30745600  1
  O  O9  1  0.65661700  0.33069800  0.19254400  1
  O  O10  1  0.84338300  0.33069800  0.69254400  1
  O  O11  1  0.34338300  0.66930200  0.80745600  1
  O  O12  1  0.39565100  0.33246300  0.35739300  1
  O  O13  1  0.89565100  0.66753700  0.14260700  1
  O  O14  1  0.60434900  0.66753700  0.64260700  1
  O  O15  1  0.10434900  0.33246300  0.85739300  1
  O  O16  1  0.09408500  0.21432000  0.18618800  1
  O  O17  1  0.59408500  0.78568000  0.31381200  1
  O  O18  1  0.90591500  0.78568000  0.81381200  1
  O  O19  1  0.40591500  0.21432000  0.68618800  1
loop_
_geom_bond_atom_site_label_1
_geom_bond_atom_site_label_2
_geom_bond_distance
_geom_bond_site_symmetry_2
Ca0 O17 2.396907 1_555
Ca0 O3 2.416249 1_564
Ca0 O1 2.426420 1_555
Ca0 O12 2.473358 1_565
Ca0 O16 2.484180 1_565
Ca0 O4 2.487050 1_555
Ca0 O9 2.696207 1_565
Ca0 O8 2.729989 1_555
Ca1 O16 2.396907 1_655
Ca1 O2 2.416249 1_545
Ca1 O0 2.426420 1_655
Ca1 O13 2.473358 1_545
Ca1 O17 2.484180 1_545
Ca1 O5 2.487050 1_555
Ca1 O8 2.696207 1_645
Ca1 O9 2.729989 1_555
Ca2 O19 2.396907 1_555
Ca2 O1 2.416249 1_546
Ca2 O3 2.426420 1_555
Ca2 O14 2.473358 1_545
Ca2 O18 2.484180 1_545
Ca2 O6 2.487050 1_555
Ca2 O11 2.696207 1_545
Ca2 O10 2.729989 1_555
Ca3 O18 2.396907 1_455
Ca3 O0 2.416249 1_565
Ca3 O2 2.426420 1_455
Ca3 O15 2.473358 1_565
Ca3 O19 2.484180 1_565
Ca3 O7 2.487050 1_555
Ca3 O10 2.696207 1_465
Ca3 O11 2.729989 1_555
Be0 O16 1.616763 1_555
Be0 O13 1.619400 1_455
Be0 O4 1.632490 1_555
Be0 O8 1.654768 1_555
Be1 O17 1.616763 1_555
Be1 O12 1.619400 1_555
Be1 O5 1.632490 1_555
Be1 O9 1.654768 1_555
Be2 O18 1.616763 1_555
Be2 O15 1.619400 1_655
Be2 O6 1.632490 1_555
Be2 O10 1.654768 1_555
Be3 O19 1.616763 1_555
Be3 O14 1.619400 1_555
Be3 O7 1.632490 1_555
Be3 O11 1.654768 1_555
O0 P0 1.538135 1_555
O1 P1 1.538135 1_555
O2 P2 1.538135 1_555
O3 P3 1.538135 1_555
O4 P3 1.553249 1_554
O5 P2 1.553249 1_555
O6 P1 1.553249 1_556
O7 P0 1.553249 1_555
O8 P0 1.566126 1_555
O9 P1 1.566126 1_555
O10 P2 1.566126 1_555
O11 P3 1.566126 1_555
O12 P0 1.557698 1_555
O13 P1 1.557698 1_555
O14 P2 1.557698 1_555
O15 P3 1.557698 1_555
